# Generated by pormake.
# Topology uof, (4)-cn, num edge types: 1
# Building blocks:
#     Node 0, Type 0, BuildingBlock: QUQFOY_clean_sbu_3, # of connection points: 4
#     Node 1, Type 0, BuildingBlock: QUQFOY_clean_sbu_3, # of connection points: 4
#     Node 2, Type 0, BuildingBlock: QUQFOY_clean_sbu_3, # of connection points: 4
#     Node 3, Type 0, BuildingBlock: QUQFOY_clean_sbu_3, # of connection points: 4
#     Node 4, Type 0, BuildingBlock: QUQFOY_clean_sbu_3, # of connection points: 4
#     Node 5, Type 0, BuildingBlock: QUQFOY_clean_sbu_3, # of connection points: 4
#     Node 6, Type 0, BuildingBlock: QUQFOY_clean_sbu_3, # of connection points: 4
#     Node 7, Type 0, BuildingBlock: QUQFOY_clean_sbu_3, # of connection points: 4
#     Node 8, Type 0, BuildingBlock: QUQFOY_clean_sbu_3, # of connection points: 4
#     Node 9, Type 0, BuildingBlock: QUQFOY_clean_sbu_3, # of connection points: 4
#     Node 10, Type 0, BuildingBlock: QUQFOY_clean_sbu_3, # of connection points: 4
#     Node 11, Type 0, BuildingBlock: QUQFOY_clean_sbu_3, # of connection points: 4
#     Edge 12, Type (0, 0), BuildingBlock: UVAHIK_clean_linker_0, # of connection points: 2
#     Edge 13, Type (0, 0), BuildingBlock: UVAHIK_clean_linker_0, # of connection points: 2
#     Edge 14, Type (0, 0), BuildingBlock: UVAHIK_clean_linker_0, # of connection points: 2
#     Edge 15, Type (0, 0), BuildingBlock: UVAHIK_clean_linker_0, # of connection points: 2
#     Edge 16, Type (0, 0), BuildingBlock: UVAHIK_clean_linker_0, # of connection points: 2
#     Edge 17, Type (0, 0), BuildingBlock: UVAHIK_clean_linker_0, # of connection points: 2
#     Edge 18, Type (0, 0), BuildingBlock: UVAHIK_clean_linker_0, # of connection points: 2
#     Edge 19, Type (0, 0), BuildingBlock: UVAHIK_clean_linker_0, # of connection points: 2
#     Edge 20, Type (0, 0), BuildingBlock: UVAHIK_clean_linker_0, # of connection points: 2
#     Edge 21, Type (0, 0), BuildingBlock: UVAHIK_clean_linker_0, # of connection points: 2
#     Edge 22, Type (0, 0), BuildingBlock: UVAHIK_clean_linker_0, # of connection points: 2
#     Edge 23, Type (0, 0), BuildingBlock: UVAHIK_clean_linker_0, # of connection points: 2
#     Edge 24, Type (0, 0), BuildingBlock: UVAHIK_clean_linker_0, # of connection points: 2
#     Edge 25, Type (0, 0), BuildingBlock: UVAHIK_clean_linker_0, # of connection points: 2
#     Edge 26, Type (0, 0), BuildingBlock: UVAHIK_clean_linker_0, # of connection points: 2
#     Edge 27, Type (0, 0), BuildingBlock: UVAHIK_clean_linker_0, # of connection points: 2
#     Edge 28, Type (0, 0), BuildingBlock: UVAHIK_clean_linker_0, # of connection points: 2
#     Edge 29, Type (0, 0), BuildingBlock: UVAHIK_clean_linker_0, # of connection points: 2
#     Edge 30, Type (0, 0), BuildingBlock: UVAHIK_clean_linker_0, # of connection points: 2
#     Edge 31, Type (0, 0), BuildingBlock: UVAHIK_clean_linker_0, # of connection points: 2
#     Edge 32, Type (0, 0), BuildingBlock: UVAHIK_clean_linker_0, # of connection points: 2
#     Edge 33, Type (0, 0), BuildingBlock: UVAHIK_clean_linker_0, # of connection points: 2
#     Edge 34, Type (0, 0), BuildingBlock: UVAHIK_clean_linker_0, # of connection points: 2
#     Edge 35, Type (0, 0), BuildingBlock: UVAHIK_clean_linker_0, # of connection points: 2
# Relax obj value: 0.206
# Max RMSD: 0.146
# Mean RMSD: 0.146
data_MOF--net-uof--node1-QUQFOY_clean_sbu_3--edge1-UVAHIK_clean_linker_0
_symmetry_space_group_name_H-M    P1
_symmetry_Int_Tables_number       1
_symmetry_cell_setting            triclinic
loop_
_symmetry_equiv_pos_as_xyz
'x, y, z'
_cell_length_a     42.481627
_cell_length_b     42.429125
_cell_length_c     83.199422
_cell_angle_alpha  90.083923
_cell_angle_beta   89.899838
_cell_angle_gamma 119.9384
loop_
_atom_site_label
_atom_site_type_symbol
_atom_site_fract_x
_atom_site_fract_y
_atom_site_fract_z
_atom_type_partial_charge
C0 C 0.25916 0.30783 0.23833 0.0
O1 O 0.27384 0.2927 0.23063 0.0
Cd2 Cd 0.26655 0.27617 0.20331 0.0
O3 O 0.23898 0.31797 0.23119 0.0
Cd4 Cd 0.22304 0.31809 0.20164 0.0
C5 C 0.31203 0.36285 0.18928 0.0
O6 O 0.20403 0.25472 0.1989 0.0
O7 O 0.20964 0.28171 0.17642 0.0
O8 O 0.16273 0.30887 0.20854 0.0
C9 C 0.19788 0.25205 0.184 0.0
O10 O 0.3097 0.33186 0.1902 0.0
C11 C 0.16164 0.32869 0.19738 0.0
O12 O 0.28543 0.36692 0.19367 0.0
O13 O 0.19087 0.34731 0.1895 0.0
C14 C 0.94567 0.23291 0.57724 0.0
O15 O 0.97327 0.24085 0.56862 0.0
Cd16 Cd 0.97654 0.24722 0.54064 0.0
O17 O 0.91509 0.22456 0.57078 0.0
Cd18 Cd 0.89284 0.21504 0.5416 0.0
C19 C 0.94139 0.30532 0.53647 0.0
O20 O 0.92911 0.19088 0.53136 0.0
O21 O 0.91714 0.22006 0.51376 0.0
O22 O 0.84206 0.15396 0.54682 0.0
C23 C 0.92902 0.1986 0.51676 0.0
O24 O 0.96772 0.29905 0.53571 0.0
C25 C 0.81986 0.15589 0.53724 0.0
O26 O 0.90921 0.27954 0.53937 0.0
O27 O 0.82988 0.18699 0.53118 0.0
C28 C 0.70487 0.95503 0.91435 0.0
O29 O 0.72491 0.98358 0.90632 0.0
Cd30 Cd 0.73462 0.98898 0.87862 0.0
O31 O 0.68689 0.92409 0.90731 0.0
Cd32 Cd 0.68349 0.90519 0.87767 0.0
C33 C 0.64592 0.95675 0.86739 0.0
O34 O 0.74777 0.94165 0.87431 0.0
O35 O 0.71892 0.928 0.85201 0.0
O36 O 0.68359 0.84863 0.88449 0.0
C37 C 0.74895 0.93969 0.85924 0.0
O38 O 0.67842 0.98307 0.86819 0.0
C39 C 0.66521 0.831 0.8723 0.0
O40 O 0.63868 0.92455 0.87092 0.0
O41 O 0.65114 0.84597 0.86405 0.0
C42 C 0.73147 0.68127 0.24838 0.0
O43 O 0.71916 0.70061 0.24259 0.0
Cd44 Cd 0.73047 0.72829 0.2172 0.0
O45 O 0.75082 0.67218 0.23984 0.0
Cd46 Cd 0.76762 0.68164 0.21003 0.0
C47 C 0.67991 0.64907 0.19715 0.0
O48 O 0.79238 0.74613 0.21317 0.0
O49 O 0.78618 0.72873 0.18865 0.0
O50 O 0.8235 0.67851 0.21463 0.0
C51 C 0.7997 0.75478 0.19861 0.0
O52 O 0.6852 0.68058 0.20054 0.0
C53 C 0.82278 0.66433 0.20107 0.0
O54 O 0.70419 0.64064 0.20035 0.0
O55 O 0.79441 0.6543 0.19267 0.0
C56 C 0.03354 0.75218 0.5794 0.0
O57 O 0.00516 0.74528 0.57163 0.0
Cd58 Cd -0.00114 0.74092 0.54369 0.0
O59 O 0.06324 0.76039 0.57207 0.0
Cd60 Cd 0.08045 0.77094 0.54222 0.0
C61 C 0.03146 0.68137 0.53688 0.0
O62 O 0.0457 0.79926 0.53536 0.0
O63 O 0.04397 0.76205 0.51749 0.0
O64 O 0.13671 0.82965 0.54616 0.0
C65 C 0.03614 0.7862 0.52143 0.0
O66 O 0.00536 0.68807 0.53706 0.0
C67 C 0.15287 0.82686 0.53385 0.0
O68 O 0.064 0.70685 0.53928 0.0
O69 O 0.13723 0.79645 0.5266 0.0
C70 C 0.28323 0.02832 0.90897 0.0
O71 O 0.26509 0.0002 0.90038 0.0
Cd72 Cd 0.26248 -0.0031 0.8723 0.0
O73 O 0.30202 0.05983 0.90253 0.0
Cd74 Cd 0.31008 0.0827 0.87343 0.0
C75 C 0.35453 0.03696 0.86447 0.0
O76 O 0.24787 0.04255 0.86675 0.0
O77 O 0.28212 0.06412 0.84605 0.0
O78 O 0.29956 0.13248 0.88106 0.0
C79 C 0.25022 0.04769 0.85179 0.0
O80 O 0.32279 0.0092 0.86456 0.0
C81 C 0.32099 0.15509 0.87075 0.0
O82 O 0.35918 0.06837 0.86786 0.0
O83 O 0.3415 0.14611 0.86332 0.0
C84 C 0.70374 0.74998 0.41342 0.0
O85 O 0.72252 0.74139 0.42229 0.0
Cd86 Cd 0.71716 0.73426 0.45023 0.0
O87 O 0.68153 0.75878 0.41959 0.0
Cd88 Cd 0.66714 0.76823 0.44854 0.0
C89 C 0.62349 0.67769 0.453 0.0
O90 O 0.72646 0.79078 0.45959 0.0
O91 O 0.68389 0.76193 0.47667 0.0
O92 O 0.67934 0.82992 0.44311 0.0
C93 C 0.7175 0.78288 0.4741 0.0
O94 O 0.65573 0.68316 0.45424 0.0
C95 C 0.65499 0.82871 0.45237 0.0
O96 O 0.61801 0.7041 0.45007 0.0
O97 O 0.63298 0.79778 0.45833 0.0
C98 C 0.93349 0.66909 0.74187 0.0
O99 O 0.96609 0.68719 0.74671 0.0
Cd100 Cd 0.98819 0.71874 0.77103 0.0
O101 O 0.90683 0.66329 0.75103 0.0
Cd102 Cd 0.90522 0.67727 0.78078 0.0
C103 C 0.95923 0.64224 0.7929 0.0
O104 O 0.94705 0.74028 0.77542 0.0
O105 O 0.93825 0.72798 0.80049 0.0
O106 O 0.84679 0.67674 0.77826 0.0
C107 C 0.9512 0.752 0.78959 0.0
O108 O 0.986 0.67249 0.78854 0.0
C109 C 0.83509 0.66316 0.79209 0.0
O110 O 0.92674 0.63548 0.79053 0.0
O111 O 0.85398 0.65257 0.79972 0.0
C112 C 0.25485 0.93669 0.07441 0.0
O113 O 0.26726 0.96835 0.08022 0.0
Cd114 Cd 0.25579 0.9853 0.10546 0.0
O115 O 0.23475 0.9083 0.08282 0.0
Cd116 Cd 0.21671 0.9016 0.11248 0.0
C117 C 0.30448 0.95495 0.12568 0.0
O118 O 0.19334 0.94242 0.10932 0.0
O119 O 0.19945 0.93159 0.13387 0.0
O120 O 0.15909 0.84385 0.10842 0.0
C121 C 0.1864 0.94449 0.12387 0.0
O122 O 0.30029 0.9818 0.12222 0.0
C123 C 0.16049 0.82981 0.12169 0.0
O124 O 0.27947 0.92254 0.12252 0.0
O125 O 0.18982 0.84713 0.12959 0.0
C126 C 0.2705 0.22783 0.40406 0.0
O127 O 0.24919 0.23552 0.41155 0.0
Cd128 Cd 0.24653 0.24203 0.43932 0.0
O129 O 0.29197 0.22012 0.4117 0.0
Cd130 Cd 0.29972 0.21195 0.4417 0.0
C131 C 0.33803 0.30221 0.44646 0.0
O132 O 0.23721 0.18584 0.44919 0.0
O133 O 0.27391 0.21718 0.46792 0.0
O134 O 0.29521 0.15222 0.43819 0.0
C135 C 0.24157 0.19474 0.46381 0.0
O136 O 0.30517 0.29516 0.44591 0.0
C137 C 0.31707 0.15624 0.44944 0.0
O138 O 0.34568 0.27694 0.44446 0.0
O139 O 0.33427 0.1877 0.45573 0.0
C140 C 0.04554 0.3111 0.74204 0.0
O141 O 0.01478 0.29572 0.74894 0.0
Cd142 Cd 0.00034 0.27295 0.77535 0.0
O143 O 0.07457 0.31884 0.7498 0.0
Cd144 Cd 0.08582 0.31365 0.77955 0.0
C145 C 0.03949 0.35546 0.79348 0.0
O146 O 0.04037 0.25021 0.77935 0.0
O147 O 0.05953 0.27164 0.80292 0.0
O148 O 0.13803 0.30531 0.77386 0.0
C149 C 0.04168 0.24402 0.79406 0.0
O150 O 0.01107 0.32485 0.7912 0.0
C151 C 0.15688 0.32344 0.78585 0.0
O152 O 0.0706 0.36056 0.78919 0.0
O153 O 0.14493 0.34102 0.79368 0.0
C154 C 0.72192 0.03327 0.08265 0.0
O155 O 0.71001 0.00428 0.09081 0.0
Cd156 Cd 0.72001 -0.00204 0.11812 0.0
O157 O 0.74112 0.0645 0.08925 0.0
Cd158 Cd 0.76015 0.08358 0.11835 0.0
C159 C 0.6726 0.03745 0.13224 0.0
O160 O 0.78215 0.04164 0.12149 0.0
O161 O 0.77619 0.06373 0.14373 0.0
O162 O 0.81919 0.13534 0.11053 0.0
C163 C 0.78897 0.04648 0.13631 0.0
O164 O 0.67636 0.00957 0.13156 0.0
C165 C 0.82019 0.15664 0.12152 0.0
O166 O 0.69784 0.06822 0.1272 0.0
O167 O 0.7912 0.14584 0.12962 0.0
C168 C 0.85655 0.20975 0.13995 0.0
C169 C 0.8552 0.18845 0.12671 0.0
C170 C 0.88985 0.23412 0.14715 0.0
C171 C 0.9578 0.25991 0.1674 0.0
H172 H 0.04915 0.30454 0.14426 0.0
C173 C 0.09361 0.2972 0.19831 0.0
C174 C 0.12653 0.32483 0.1919 0.0
C175 C 0.06043 0.28779 0.19094 0.0
C176 C 0.02401 0.29291 0.15099 0.0
H177 H 0.88822 0.17784 0.1101 0.0
H178 H 0.94574 0.21938 0.12271 0.0
H179 H -0.00757 0.27734 0.12941 0.0
H180 H 0.15 0.366 0.17333 0.0
H181 H 0.09211 0.35062 0.16085 0.0
H182 H 0.98937 0.27608 0.18898 0.0
C183 C 0.92135 0.21794 0.1275 0.0
C184 C -0.00875 0.27668 0.14241 0.0
C185 C 0.88814 0.19389 0.12023 0.0
C186 C 0.12519 0.34451 0.17858 0.0
C187 C 0.09193 0.33532 0.17128 0.0
C188 C 0.99055 0.27648 0.17598 0.0
C189 C 0.92267 0.23761 0.14139 0.0
C190 C 0.95759 0.25909 0.15047 0.0
C191 C 0.05912 0.30597 0.17702 0.0
C192 C 0.02421 0.29244 0.16793 0.0
H193 H 0.83174 0.20636 0.14525 0.0
H194 H 0.88967 0.24938 0.15755 0.0
H195 H 0.93266 0.24647 0.17414 0.0
H196 H 0.09353 0.28127 0.20849 0.0
H197 H 0.03606 0.26482 0.19571 0.0
C198 C 0.78102 0.08803 0.53639 0.0
C199 C 0.78765 0.12231 0.53114 0.0
C200 C 0.7566 0.05632 0.52819 0.0
C201 C 0.71735 0.02731 0.48747 0.0
H202 H 0.66927 0.93229 0.50757 0.0
C203 C 0.63467 0.86201 0.47097 0.0
C204 C 0.65698 0.86278 0.45828 0.0
C205 C 0.64224 0.89411 0.47904 0.0
C206 C 0.68187 0.95853 0.50168 0.0
H207 H 0.7715 0.1497 0.51383 0.0
H208 H 0.728 0.09427 0.49982 0.0
H209 H 0.6955 0.98658 0.52423 0.0
H210 H 0.70325 0.8984 0.44346 0.0
H211 H 0.71672 0.95382 0.45752 0.0
H212 H 0.70345 -0.00073 0.46491 0.0
C213 C 0.7425 0.09196 0.51003 0.0
C214 C 0.69748 0.98983 0.5113 0.0
C215 C 0.76714 0.12378 0.5182 0.0
C216 C 0.68541 0.8967 0.45315 0.0
C217 C 0.69309 0.92869 0.46124 0.0
C218 C 0.70146 -0.00398 0.47785 0.0
C219 C 0.73785 0.05788 0.51454 0.0
C220 C 0.71641 0.02471 0.50436 0.0
C221 C 0.6724 0.92778 0.47466 0.0
C222 C 0.68441 0.96111 0.4848 0.0
H223 H 0.79636 0.08579 0.54627 0.0
H224 H 0.75421 0.03085 0.53202 0.0
H225 H 0.73182 0.05352 0.48159 0.0
H226 H 0.61251 0.83638 0.47524 0.0
H227 H 0.62514 0.89232 0.48906 0.0
C228 C 0.6592 0.78899 0.84981 0.0
C229 C 0.667 0.79904 0.86606 0.0
C230 C 0.66945 0.76553 0.84267 0.0
C231 C 0.73662 0.73448 0.84886 0.0
H232 H 0.69194 0.67782 0.81045 0.0
C233 C 0.798 0.65753 0.81655 0.0
C234 C 0.80478 0.66529 0.80005 0.0
C235 C 0.77508 0.66663 0.82497 0.0
C236 C 0.7047 0.69352 0.82118 0.0
H237 H 0.68881 0.78965 0.88789 0.0
H238 H 0.70486 0.74725 0.87573 0.0
H239 H 0.66172 0.70518 0.82517 0.0
H240 H 0.79065 0.6865 0.77929 0.0
H241 H 0.7501 0.70178 0.79396 0.0
H242 H 0.77947 0.72268 0.84486 0.0
C243 C 0.69228 0.75869 0.86824 0.0
C244 C 0.68747 0.70941 0.82962 0.0
C245 C 0.68256 0.78266 0.87532 0.0
C246 C 0.78602 0.68006 0.79197 0.0
C247 C 0.76274 0.68883 0.80039 0.0
C248 C 0.75349 0.71819 0.84057 0.0
C249 C 0.68733 0.75097 0.85163 0.0
C250 C 0.70346 0.73068 0.84347 0.0
C251 C 0.75799 0.68336 0.8171 0.0
C252 C 0.73806 0.69794 0.8265 0.0
H253 H 0.64748 0.80125 0.84226 0.0
H254 H 0.66528 0.76071 0.82987 0.0
H255 H 0.75049 0.75124 0.85917 0.0
H256 H 0.81192 0.64617 0.82318 0.0
H257 H 0.77159 0.66159 0.83779 0.0
C258 C 0.88726 0.67747 0.20346 0.0
C259 C 0.8558 0.66581 0.19413 0.0
C260 C 0.92048 0.68629 0.19621 0.0
C261 C 0.96371 0.6845 0.15678 0.0
H262 H 0.04603 0.7709 0.17438 0.0
C263 C 0.0941 0.7825 0.12082 0.0
C264 C 0.12755 0.79887 0.12899 0.0
C265 C 0.06167 0.75919 0.12892 0.0
C266 C 0.02352 0.74641 0.16941 0.0
H267 H 0.83434 0.6524 0.16991 0.0
H268 H 0.89199 0.66861 0.15726 0.0
H269 H 0.98832 0.74312 0.18848 0.0
H270 H 0.15319 0.80148 0.15187 0.0
H271 H 0.09677 0.76098 0.16592 0.0
H272 H -0.00101 0.68929 0.13724 0.0
C273 C 0.89122 0.67038 0.17022 0.0
C274 C 0.99025 0.73026 0.17757 0.0
C275 C 0.85795 0.6611 0.17751 0.0
C276 C 0.12798 0.78946 0.14517 0.0
C277 C 0.09557 0.76645 0.15329 0.0
C278 C -0.00303 0.701 0.14851 0.0
C279 C 0.92329 0.68424 0.17938 0.0
C280 C 0.95962 0.69925 0.17132 0.0
C281 C 0.0619 0.75196 0.14541 0.0
C282 C 0.02721 0.73237 0.15466 0.0
H283 H 0.88657 0.68126 0.21631 0.0
H284 H 0.94421 0.69582 0.20378 0.0
H285 H 0.94112 0.66034 0.15166 0.0
H286 H 0.09271 0.78919 0.10838 0.0
H287 H 0.03622 0.7486 0.12249 0.0
C288 C 0.298 0.08982 0.44958 0.0
C289 C 0.31685 0.12429 0.4569 0.0
C290 C 0.29039 0.05837 0.45816 0.0
C291 C 0.27023 0.02494 0.49911 0.0
H292 H 0.27368 0.94104 0.48294 0.0
C293 C 0.20343 0.89181 0.53541 0.0
C294 C 0.18435 0.85935 0.52662 0.0
C295 C 0.22772 0.92442 0.52769 0.0
C296 C 0.2721 0.96401 0.48762 0.0
H297 H 0.34444 0.15275 0.47869 0.0
H298 H 0.33074 0.09786 0.49366 0.0
H299 H 0.30118 -0.00265 0.46737 0.0
H300 H 0.17724 0.83542 0.50293 0.0
H301 H 0.21812 0.89199 0.48942 0.0
H302 H 0.23932 0.99164 0.51877 0.0
C303 C 0.32186 0.09523 0.48128 0.0
C304 C 0.28815 -0.0036 0.4787 0.0
C305 C 0.32996 0.12671 0.47264 0.0
C306 C 0.19169 0.85987 0.51011 0.0
C307 C 0.21538 0.89256 0.50233 0.0
C308 C 0.25364 0.99247 0.50787 0.0
C309 C 0.30101 0.06064 0.47431 0.0
C310 C 0.28709 0.02713 0.48429 0.0
C311 C 0.23294 0.92562 0.5109 0.0
C312 C 0.25388 0.96126 0.50221 0.0
H313 H 0.28743 0.08696 0.4375 0.0
H314 H 0.27418 0.03211 0.45246 0.0
H315 H 0.26843 0.04795 0.50362 0.0
H316 H 0.19855 0.89232 0.54816 0.0
H317 H 0.24149 0.94889 0.53488 0.0
C318 C 0.28613 0.18836 0.87062 0.0
C319 C 0.31615 0.18576 0.86518 0.0
C320 C 0.27523 0.21024 0.86256 0.0
C321 C 0.29915 0.28506 0.83439 0.0
H322 H 0.20005 0.22626 0.81926 0.0
C323 C 0.20633 0.3371 0.80602 0.0
C324 C 0.1867 0.31823 0.79224 0.0
C325 C 0.22826 0.32624 0.81418 0.0
C326 C 0.22778 0.24304 0.82335 0.0
H327 H 0.36005 0.20677 0.84778 0.0
H328 H 0.3415 0.24597 0.83401 0.0
H329 H 0.22671 0.19897 0.83633 0.0
H330 H 0.17669 0.27456 0.77574 0.0
H331 H 0.21428 0.25538 0.79012 0.0
H332 H 0.29963 0.32944 0.82161 0.0
C333 C 0.32623 0.23056 0.84441 0.0
C334 C 0.24294 0.22749 0.83323 0.0
C335 C 0.33687 0.20816 0.85233 0.0
C336 C 0.1914 0.2898 0.78627 0.0
C337 C 0.21277 0.27861 0.79456 0.0
C338 C 0.28361 0.30093 0.82475 0.0
C339 C 0.2944 0.2306 0.84904 0.0
C340 C 0.27878 0.24822 0.83884 0.0
C341 C 0.23052 0.29595 0.80887 0.0
C342 C 0.24782 0.27992 0.81903 0.0
H343 H 0.26947 0.17156 0.88044 0.0
H344 H 0.25079 0.21003 0.86649 0.0
H345 H 0.32685 0.30164 0.83853 0.0
H346 H 0.20327 0.35903 0.81098 0.0
H347 H 0.24159 0.34006 0.8252 0.0
C348 C 0.63362 0.58463 0.1894 0.0
C349 C 0.64341 0.62139 0.19116 0.0
C350 C 0.59758 0.55824 0.18593 0.0
C351 C 0.50526 0.5416 0.19217 0.0
H352 H 0.4764 0.46232 0.16196 0.0
C353 C 0.3545 0.43044 0.186 0.0
C354 C 0.34776 0.39455 0.1848 0.0
C355 C 0.38982 0.45994 0.18396 0.0
C356 C 0.48395 0.48408 0.17057 0.0
H357 H 0.62313 0.6593 0.18971 0.0
H358 H 0.56079 0.61346 0.18381 0.0
H359 H 0.54024 0.50937 0.16393 0.0
H360 H 0.3728 0.36176 0.17967 0.0
H361 H 0.43367 0.41247 0.17662 0.0
H362 H 0.4496 0.51586 0.19939 0.0
C363 C 0.58081 0.60497 0.18528 0.0
C364 C 0.52058 0.51107 0.17164 0.0
C365 C 0.61669 0.63127 0.1886 0.0
C366 C 0.37681 0.38897 0.18075 0.0
C367 C 0.41195 0.41827 0.17885 0.0
C368 C 0.46876 0.51441 0.19126 0.0
C369 C 0.57063 0.56808 0.18427 0.0
C370 C 0.53165 0.53999 0.18254 0.0
C371 C 0.41921 0.4542 0.18076 0.0
C372 C 0.45757 0.485 0.18057 0.0
H373 H 0.65344 0.57604 0.19129 0.0
H374 H 0.59049 0.52996 0.18525 0.0
H375 H 0.51301 0.56333 0.20083 0.0
H376 H 0.33279 0.43578 0.18903 0.0
H377 H 0.39416 0.48723 0.18521 0.0
C378 C 0.9866 0.61494 0.53383 0.0
C379 C 0.02299 0.64313 0.53478 0.0
C380 C 0.97796 0.57863 0.53286 0.0
C381 C 0.01592 0.51865 0.54159 0.0
H382 H 0.93342 0.44843 0.51664 0.0
C383 C 0.98555 0.37163 0.53268 0.0
C384 C 0.94939 0.34349 0.53473 0.0
C385 C -0.00593 0.40788 0.53191 0.0
C386 C 0.95633 0.46767 0.52377 0.0
H387 H 0.0789 0.65505 0.535 0.0
H388 H 0.06387 0.5916 0.53296 0.0
H389 H 0.95028 0.5125 0.51613 0.0
H390 H 0.89371 0.33168 0.53717 0.0
H391 H 0.9087 0.39538 0.53572 0.0
H392 H 0.02212 0.47383 0.54912 0.0
C393 C 0.04193 0.59762 0.5333 0.0
C394 C 0.96603 0.50443 0.5235 0.0
C395 C 0.0506 0.63406 0.53436 0.0
C396 C 0.92181 0.35261 0.5356 0.0
C397 C 0.93039 0.38908 0.53472 0.0
C398 C 0.00637 0.48199 0.54178 0.0
C399 C 0.00545 0.56938 0.53271 0.0
C400 C -0.0041 0.53042 0.53245 0.0
C401 C 0.96671 0.41714 0.53307 0.0
C402 C 0.97644 0.45605 0.53289 0.0
H403 H 0.96453 0.62078 0.53417 0.0
H404 H 0.94958 0.55774 0.53267 0.0
H405 H 0.03859 0.53763 0.5489 0.0
H406 H 0.00757 0.36578 0.53188 0.0
H407 H 0.02222 0.42876 0.53037 0.0
C408 C 0.42198 0.06034 0.86195 0.0
C409 C 0.38597 0.03134 0.86155 0.0
C410 C 0.45117 0.05382 0.86044 0.0
C411 C 0.4737 0.98198 0.84855 0.0
H412 H 0.55721 0.03672 0.87608 0.0
C413 C 0.57973 0.93738 0.86338 0.0
C414 C 0.61645 0.96491 0.86369 0.0
C415 C 0.55219 0.94615 0.86138 0.0
C416 C 0.53424 0.02142 0.86819 0.0
H417 H 0.35264 0.97273 0.85889 0.0
H418 H 0.40293 0.96148 0.85668 0.0
H419 H 0.50892 0.05181 0.87556 0.0
H420 H 0.65283 0.02322 0.86156 0.0
H421 H 0.60502 0.03823 0.85817 0.0
H422 H 0.49875 0.95088 0.84161 0.0
C423 C 0.40895 0.98937 0.85782 0.0
C424 C 0.50657 0.0302 0.86782 0.0
C425 C 0.37994 -0.00413 0.85922 0.0
C426 C 0.62491 0.00122 0.86147 0.0
C427 C 0.59748 0.00994 0.85962 0.0
C428 C 0.50123 0.97298 0.84905 0.0
C429 C 0.44502 0.01813 0.85857 0.0
C430 C 0.47573 0.01043 0.85809 0.0
C431 C 0.56079 0.98263 0.85979 0.0
C432 C 0.53174 0.99249 0.85893 0.0
H433 H 0.42765 0.08799 0.86369 0.0
H434 H 0.47856 0.07677 0.86083 0.0
H435 H 0.45077 0.96654 0.84067 0.0
H436 H 0.5722 0.90917 0.86506 0.0
H437 H 0.52413 0.92449 0.86163 0.0
C438 C 0.55643 0.63151 0.45272 0.0
C439 C 0.59271 0.63974 0.45423 0.0
C440 C 0.52801 0.59529 0.4531 0.0
C441 C 0.50685 0.50153 0.46452 0.0
H442 H 0.42716 0.47171 0.43456 0.0
C443 C 0.40394 0.35016 0.44993 0.0
C444 C 0.3672 0.3406 0.44875 0.0
C445 C 0.4311 0.38672 0.45149 0.0
C446 C 0.44906 0.47966 0.44311 0.0
H447 H 0.62734 0.61608 0.45752 0.0
H448 H 0.57831 0.55358 0.45785 0.0
H449 H 0.47435 0.53548 0.43596 0.0
H450 H 0.33036 0.36221 0.44853 0.0
H451 H 0.37749 0.42546 0.45121 0.0
H452 H 0.48178 0.44545 0.4714 0.0
C453 C 0.57152 0.57491 0.45668 0.0
C454 C 0.47607 0.51629 0.44397 0.0
C455 C 0.59978 0.61094 0.45637 0.0
C456 C 0.35832 0.36842 0.44935 0.0
C457 C 0.38538 0.40482 0.4508 0.0
C458 C 0.47996 0.46485 0.46358 0.0
C459 C 0.53524 0.56648 0.45496 0.0
C460 C 0.50545 0.52773 0.45463 0.0
C461 C 0.42211 0.41449 0.45177 0.0
C462 C 0.45079 0.45347 0.45283 0.0
H463 H 0.54998 0.65298 0.4511 0.0
H464 H 0.50036 0.58987 0.45194 0.0
H465 H 0.5287 0.50936 0.47308 0.0
H466 H 0.41176 0.32948 0.4495 0.0
H467 H 0.4592 0.39333 0.45211 0.0
C468 C 0.93848 0.57813 0.80213 0.0
C469 C 0.96672 0.6136 0.79887 0.0
C470 C 0.94618 0.55025 0.80542 0.0
C471 C 0.02272 0.53224 0.81418 0.0
H472 H 0.95885 0.44022 0.79342 0.0
C473 C 0.06189 0.42238 0.79753 0.0
C474 C 0.03469 0.38582 0.79947 0.0
C475 C 0.0543 0.45049 0.80058 0.0
C476 C 0.97676 0.4656 0.79947 0.0
H477 H 0.02539 0.64778 0.7974 0.0
H478 H 0.03855 0.59953 0.80262 0.0
H479 H 0.94311 0.48794 0.79334 0.0
H480 H 0.97912 0.35041 0.80739 0.0
H481 H 0.96617 0.39912 0.81264 0.0
H482 H 0.05711 0.50997 0.81963 0.0
C483 C 0.01046 0.59302 0.80294 0.0
C484 C 0.96762 0.493 0.79951 0.0
C485 C 0.00282 0.62082 0.7998 0.0
C486 C 0.00063 0.3782 0.80552 0.0
C487 C -0.00693 0.40611 0.80849 0.0
C488 C 0.03208 0.5049 0.81395 0.0
C489 C 0.98228 0.55713 0.80542 0.0
C490 C 0.99059 0.52688 0.80674 0.0
C491 C 0.01938 0.44249 0.80558 0.0
C492 C 0.00927 0.47134 0.80652 0.0
H493 H 0.91039 0.5716 0.80161 0.0
H494 H 0.92373 0.52313 0.80763 0.0
H495 H 0.04085 0.55769 0.8201 0.0
H496 H 0.08837 0.42922 0.79287 0.0
H497 H 0.07514 0.47831 0.79822 0.0
C498 C 0.36919 -0.00132 0.13287 0.0
C499 C 0.34056 0.9625 0.13167 0.0
C500 C 0.40452 0.00647 0.13628 0.0
C501 C 0.46247 0.9642 0.1337 0.0
H502 H 0.53288 0.05342 0.15481 0.0
C503 C 0.60975 -0.00211 0.14289 0.0
C504 C 0.63658 0.03211 0.13714 0.0
C505 C 0.57396 0.99003 0.14498 0.0
C506 C 0.51351 0.02847 0.14886 0.0
H507 H 0.32653 0.90612 0.13412 0.0
H508 H 0.3881 0.91968 0.14065 0.0
H509 H 0.46893 0.03683 0.15423 0.0
H510 H 0.64702 0.08568 0.13012 0.0
H511 H 0.58417 0.07194 0.13398 0.0
H512 H 0.50707 0.95579 0.12846 0.0
C513 C 0.38335 0.94211 0.13844 0.0
C514 C 0.47682 0.01893 0.14847 0.0
C515 C 0.34791 0.93428 0.13484 0.0
C516 C 0.6271 0.05908 0.13455 0.0
C517 C 0.59111 0.05121 0.13676 0.0
C518 C 0.49898 0.97351 0.13429 0.0
C519 C 0.41234 0.97834 0.1388 0.0
C520 C 0.45083 0.98689 0.14067 0.0
C521 C 0.56398 0.0162 0.14151 0.0
C522 C 0.52499 0.00592 0.14171 0.0
H523 H 0.36471 0.02124 0.13051 0.0
H524 H 0.42593 0.03465 0.13621 0.0
H525 H 0.44365 0.93977 0.12728 0.0
H526 H 0.61601 0.9765 0.1452 0.0
H527 H 0.5538 0.96304 0.14893 0.0
C528 C 0.16041 0.98385 0.11688 0.0
C529 C 0.17103 0.96743 0.12873 0.0
C530 C 0.15019 0.00923 0.12114 0.0
C531 C 0.12492 0.04868 0.15481 0.0
H532 H 0.18666 0.14026 0.13318 0.0
C533 C 0.17382 0.18539 0.18505 0.0
C534 C 0.18237 0.21648 0.17593 0.0
C535 C 0.16144 0.1519 0.1776 0.0
C536 C 0.16837 0.11482 0.13907 0.0
H537 H 0.17665 0.96255 0.15436 0.0
H538 H 0.15891 0.00727 0.16182 0.0
H539 H 0.18365 0.08502 0.12328 0.0
H540 H 0.18266 0.23659 0.15197 0.0
H541 H 0.16047 0.17757 0.13885 0.0
H542 H 0.11039 0.07872 0.1709 0.0
C543 C 0.15846 0.00037 0.14925 0.0
C544 C 0.16676 0.08313 0.13342 0.0
C545 C 0.16888 0.97502 0.14498 0.0
C546 C 0.17668 0.21311 0.15925 0.0
C547 C 0.16402 0.17937 0.15177 0.0
C548 C 0.12618 0.08035 0.16037 0.0
C549 C 0.15015 0.0185 0.13731 0.0
C550 C 0.1461 0.05007 0.14159 0.0
C551 C 0.15701 0.14855 0.16085 0.0
C552 C 0.14913 0.11402 0.15296 0.0
H553 H 0.16131 0.97816 0.10425 0.0
H554 H 0.14353 0.02258 0.11174 0.0
H555 H 0.1084 0.02337 0.16117 0.0
H556 H 0.17772 0.18705 0.19795 0.0
H557 H 0.15702 0.12901 0.18497 0.0
C558 C 0.954 0.16154 0.50576 0.0
C559 C 0.95364 0.19441 0.50579 0.0
C560 C 0.98337 0.15995 0.49918 0.0
C561 C 0.07727 0.21233 0.49963 0.0
H562 H 0.08223 0.15251 0.46562 0.0
C563 C 0.21175 0.22145 0.4801 0.0
C564 C 0.21034 0.19089 0.47292 0.0
C565 C 0.17972 0.22048 0.48481 0.0
C566 C 0.08117 0.16881 0.47539 0.0
H567 H 0.98224 0.25087 0.49837 0.0
H568 H 0.03443 0.24831 0.48723 0.0
H569 H 0.02598 0.15364 0.46999 0.0
H570 H 0.17548 0.1346 0.46621 0.0
H571 H 0.11973 0.13187 0.4755 0.0
H572 H 0.13145 0.2262 0.50574 0.0
C573 C 0.01161 0.22374 0.49198 0.0
C574 C 0.04913 0.16981 0.47768 0.0
C575 C 0.98176 0.2251 0.49821 0.0
C576 C 0.17702 0.15848 0.47174 0.0
C577 C 0.14511 0.15718 0.4768 0.0
C578 C 0.10903 0.21074 0.49761 0.0
C579 C 0.01302 0.19146 0.49294 0.0
C580 C 0.04716 0.19179 0.48972 0.0
C581 C 0.14585 0.18865 0.48269 0.0
C582 C 0.11148 0.18907 0.48542 0.0
H583 H 0.93268 0.13773 0.51174 0.0
H584 H 0.98421 0.1349 0.50009 0.0
H585 H 0.07586 0.22891 0.50922 0.0
H586 H 0.23716 0.24694 0.48087 0.0
H587 H 0.18148 0.24537 0.48915 0.0
C588 C 0.02425 0.19865 0.8163 0.0
C589 C 0.01925 0.20713 0.80057 0.0
C590 C 0.00183 0.16373 0.82242 0.0
C591 C 0.93002 0.06969 0.81052 0.0
H592 H 0.89484 0.06843 0.85364 0.0
C593 C 0.78699 0.96897 0.83477 0.0
C594 C 0.7843 0.95858 0.85095 0.0
C595 C 0.82101 0.99258 0.82807 0.0
C596 C 0.90486 0.06813 0.84169 0.0
H597 H 0.98765 0.18576 0.77874 0.0
H598 H 0.94769 0.12581 0.78957 0.0
H599 H 0.94572 0.12391 0.84337 0.0
H600 H 0.81495 0.96139 0.87228 0.0
H601 H 0.87405 0.00263 0.8606 0.0
H602 H 0.88699 0.01426 0.80863 0.0
C603 C 0.96947 0.14539 0.7971 0.0
C604 C 0.9342 0.09995 0.8358 0.0
C605 C -0.00785 0.18 0.79094 0.0
C606 C 0.81619 0.96954 0.85986 0.0
C607 C 0.85001 0.99305 0.8532 0.0
C608 C 0.90021 0.03793 0.81635 0.0
C609 C 0.97368 0.13691 0.81298 0.0
C610 C 0.94655 0.10145 0.82 0.0
C611 C 0.85259 0.00596 0.83748 0.0
C612 C 0.88698 0.0372 0.83187 0.0
H613 H 0.04532 0.219 0.82388 0.0
H614 H 0.00622 0.15794 0.83462 0.0
H615 H 0.93936 0.06967 0.7984 0.0
H616 H 0.76282 0.96069 0.8276 0.0
H617 H 0.82236 0.00232 0.81592 0.0
C618 C 0.81525 0.00571 0.13578 0.0
C619 C 0.80596 0.02812 0.1446 0.0
C620 C 0.82856 0.98574 0.14352 0.0
C621 C 0.82227 0.94421 0.18256 0.0
H622 H 0.88162 0.9112 0.16091 0.0
C623 C 0.82749 0.82046 0.20543 0.0
C624 C 0.81624 0.79314 0.19366 0.0
C625 C 0.83879 0.85623 0.20107 0.0
C626 C 0.86532 0.92046 0.16716 0.0
H627 H 0.80564 0.04924 0.16829 0.0
H628 H 0.82949 0.01451 0.18192 0.0
H629 H 0.87999 0.96437 0.15073 0.0
H630 H 0.81068 0.78227 0.16806 0.0
H631 H 0.83024 0.84497 0.1604 0.0
H632 H 0.80676 0.89973 0.19867 0.0
C633 C 0.82573 0.01186 0.16902 0.0
C634 C 0.86426 0.95076 0.16134 0.0
C635 C 0.81211 0.03176 0.16125 0.0
C636 C 0.8189 0.8027 0.17737 0.0
C637 C 0.83039 0.83863 0.173 0.0
C638 C 0.8237 0.91426 0.18848 0.0
C639 C 0.83322 0.98793 0.16028 0.0
C640 C 0.84141 0.96192 0.16855 0.0
C641 C 0.83928 0.86542 0.18486 0.0
C642 C 0.84406 0.90125 0.18045 0.0
H643 H 0.81106 0.00252 0.12289 0.0
H644 H 0.83336 0.96717 0.13641 0.0
H645 H 0.80407 0.9517 0.18831 0.0
H646 H 0.82624 0.81399 0.2181 0.0
H647 H 0.84585 0.87649 0.21042 0.0
C648 C 0.77837 0.81879 0.48614 0.0
C649 C 0.7452 0.78603 0.48543 0.0
C650 C 0.80886 0.81955 0.49275 0.0
C651 C 0.8487 0.76495 0.49113 0.0
H652 H 0.91697 0.82681 0.52361 0.0
C653 C 0.97692 0.75782 0.5072 0.0
C654 C 0.00691 0.78904 0.51345 0.0
C655 C 0.94499 0.75809 0.50358 0.0
C656 C 0.89856 0.80987 0.51426 0.0
H657 H 0.71686 0.7289 0.49175 0.0
H658 H 0.77078 0.73001 0.50294 0.0
H659 H 0.85933 0.82574 0.52042 0.0
H660 H 0.02858 0.84573 0.51959 0.0
H661 H 0.97381 0.84712 0.5122 0.0
H662 H 0.88823 0.75051 0.48421 0.0
C663 C 0.77286 0.75513 0.49871 0.0
C664 C 0.8654 0.80891 0.51266 0.0
C665 C 0.7421 0.75458 0.49246 0.0
C666 C 0.00564 0.82131 0.5148 0.0
C667 C 0.97405 0.82186 0.51082 0.0
C668 C 0.88214 0.76649 0.49246 0.0
C669 C 0.80664 0.78733 0.49832 0.0
C670 C 0.84026 0.78632 0.50114 0.0
C671 C 0.94279 0.78984 0.50585 0.0
C672 C 0.90755 0.78897 0.50405 0.0
H673 H 0.78126 0.84318 0.48058 0.0
H674 H 0.83478 0.84457 0.49226 0.0
H675 H 0.82984 0.74793 0.48191 0.0
H676 H 0.97711 0.73243 0.5063 0.0
H677 H 0.92149 0.73279 0.49994 0.0
C678 C 0.18322 0.01158 0.84926 0.0
C679 C 0.21735 0.02998 0.84175 0.0
C680 C 0.1519 0.99136 0.84026 0.0
C681 C 0.12446 0.94005 0.80286 0.0
H682 H 0.02903 0.91688 0.81832 0.0
C683 C -0.00474 0.81471 0.78041 0.0
C684 C 0.97582 0.79082 0.79304 0.0
C685 C 0.02124 0.85073 0.78359 0.0
C686 C 0.05551 0.92336 0.81378 0.0
H687 H 0.24531 0.04399 0.81881 0.0
H688 H 0.19008 0.00866 0.80288 0.0
H689 H 0.0828 0.97163 0.82801 0.0
H690 H 0.96662 0.78638 0.81877 0.0
H691 H 0.01216 0.84973 0.82435 0.0
H692 H 0.09714 0.89133 0.78892 0.0
C693 C 0.18777 0.00941 0.81583 0.0
C694 C 0.08628 0.95457 0.81932 0.0
C695 C 0.21935 0.02965 0.82491 0.0
C696 C 0.9814 0.80415 0.80884 0.0
C697 C 0.00718 0.84039 0.812 0.0
C698 C 0.09367 0.90921 0.79713 0.0
C699 C 0.15381 0.98922 0.82347 0.0
C700 C 0.12121 0.96225 0.81453 0.0
C701 C 0.02791 0.86366 0.79943 0.0
C702 C 0.05913 0.89983 0.80307 0.0
H703 H 0.18071 0.01161 0.86222 0.0
H704 H 0.12646 0.97577 0.84663 0.0
H705 H 0.15085 0.94483 0.79902 0.0
H706 H -0.00866 0.80531 0.76807 0.0
H707 H 0.03681 0.86824 0.77371 0.0
C708 C 0.23916 0.22522 0.37857 0.0
C709 C 0.2708 0.23048 0.38633 0.0
C710 C 0.24004 0.23488 0.36253 0.0
C711 C 0.29147 0.25708 0.32475 0.0
H712 H 0.24233 0.31177 0.3163 0.0
C713 C 0.29738 0.31606 0.26222 0.0
C714 C 0.26444 0.31085 0.25592 0.0
C715 C 0.30065 0.31074 0.27852 0.0
C716 C 0.25591 0.2963 0.3184 0.0
H717 H 0.32775 0.24786 0.38307 0.0
H718 H 0.32933 0.26468 0.35468 0.0
H719 H 0.24312 0.29083 0.34348 0.0
H720 H 0.20971 0.29802 0.26185 0.0
H721 H 0.21509 0.28813 0.29048 0.0
H722 H 0.30365 0.26184 0.29963 0.0
C723 C 0.30383 0.25311 0.36116 0.0
C724 C 0.25639 0.2843 0.33398 0.0
C725 C 0.30293 0.24332 0.37736 0.0
C726 C 0.2355 0.30256 0.26644 0.0
C727 C 0.23863 0.29679 0.28282 0.0
C728 C 0.29084 0.26894 0.30913 0.0
C729 C 0.27262 0.25015 0.35379 0.0
C730 C 0.27384 0.26422 0.33731 0.0
C731 C 0.27088 0.29957 0.28893 0.0
C732 C 0.27285 0.28852 0.30573 0.0
H733 H 0.21383 0.21493 0.38512 0.0
H734 H 0.21531 0.23126 0.35707 0.0
H735 H 0.30485 0.24143 0.3269 0.0
H736 H 0.32026 0.32277 0.25437 0.0
H737 H 0.32621 0.31421 0.28287 0.0
C738 C 0.93203 0.24726 0.60492 0.0
C739 C 0.95104 0.23587 0.59487 0.0
C740 C 0.94265 0.25647 0.62101 0.0
C741 C -0.00199 0.24763 0.65347 0.0
H742 H 0.00714 0.3379 0.66916 0.0
C743 C 0.06634 0.30714 0.71427 0.0
C744 C 0.04554 0.31599 0.72447 0.0
C745 C 0.05835 0.30166 0.6978 0.0
C746 C 0.00467 0.31258 0.66497 0.0
H747 H -0.00552 0.22304 0.59399 0.0
H748 H 0.01266 0.23877 0.62177 0.0
H749 H 0.98137 0.31537 0.64257 0.0
H750 H 0.00246 0.32924 0.72534 0.0
H751 H 0.98891 0.3202 0.6968 0.0
H752 H 0.0211 0.24467 0.67585 0.0
C753 C 0.9897 0.24074 0.61741 0.0
C754 C 0.98961 0.29952 0.64978 0.0
C755 C 0.97933 0.23186 0.60142 0.0
C756 C 0.01893 0.3224 0.71773 0.0
C757 C 0.01119 0.31726 0.70134 0.0
C758 C 0.01308 0.26069 0.66863 0.0
C759 C 0.97214 0.25402 0.62732 0.0
C760 C 0.9861 0.26687 0.64385 0.0
C761 C 0.02972 0.30532 0.69128 0.0
C762 C 0.01657 0.2933 0.67459 0.0
H763 H 0.91028 0.25081 0.60017 0.0
H764 H 0.92826 0.26618 0.62843 0.0
H765 H -0.00466 0.22218 0.64936 0.0
H766 H 0.08679 0.30175 0.71917 0.0
H767 H 0.07354 0.29304 0.69029 0.0
C768 C 0.68375 -0.00287 0.05959 0.0
C769 C 0.71401 0.02923 0.06521 0.0
C770 C 0.67864 0.9894 0.04321 0.0
C771 C 0.70789 0.02842 0.00252 0.0
H772 H 0.6825 0.92966 0.99126 0.0
C773 C 0.73031 0.99165 0.93919 0.0
C774 C 0.70331 0.9594 0.93198 0.0
C775 C 0.72839 -0.00124 0.95536 0.0
C776 C 0.68901 0.95714 -0.00581 0.0
H777 H 0.76161 0.07941 0.05797 0.0
H778 H 0.75291 0.06578 0.02913 0.0
H779 H 0.68514 0.94662 0.01946 0.0
H780 H 0.65366 0.90859 0.93639 0.0
H781 H 0.65025 0.92108 0.96506 0.0
H782 H 0.71235 0.03907 0.97725 0.0
C783 C 0.73297 0.04666 0.03749 0.0
C784 C 0.69057 0.96695 0.01036 0.0
C785 C 0.738 0.05454 0.05399 0.0
C786 C 0.67485 0.93365 0.94159 0.0
C787 C 0.67291 0.94086 0.95796 0.0
C788 C 0.70632 0.01862 0.98637 0.0
C789 C 0.70377 0.01346 0.03197 0.0
C790 C 0.70044 0.00283 0.01472 0.0
C791 C 0.69937 0.9739 0.96491 0.0
C792 C 0.69745 0.98303 0.98202 0.0
H793 H 0.66443 0.97729 0.06793 0.0
H794 H 0.65536 0.96409 0.03938 0.0
H795 H 0.71495 0.05607 0.00544 0.0
H796 H 0.75304 0.01192 0.93227 0.0
H797 H 0.74979 0.02392 0.96041 0.0
C798 C 0.75427 0.68003 0.27596 0.0
C799 C 0.72532 0.67308 0.26571 0.0
C800 C 0.75112 0.68373 0.29255 0.0
C801 C 0.68582 0.67222 0.32532 0.0
H802 H 0.76742 0.76065 0.34195 0.0
C803 C 0.67741 0.73692 0.38547 0.0
C804 C 0.70703 0.74712 0.39583 0.0
C805 C 0.67939 0.72785 0.3694 0.0
C806 C 0.74449 0.73572 0.33755 0.0
H807 H 0.66949 0.66117 0.26475 0.0
H808 H 0.66379 0.66706 0.29349 0.0
H809 H 0.77125 0.73905 0.3153 0.0
H810 H 0.76255 0.75794 0.39729 0.0
H811 H 0.76601 0.7425 0.36953 0.0
H812 H 0.65898 0.66918 0.34758 0.0
C813 C 0.68895 0.66984 0.28893 0.0
C814 C 0.74681 0.72315 0.32231 0.0
C815 C 0.6922 0.66645 0.27243 0.0
C816 C 0.73919 0.75006 0.38961 0.0
C817 C 0.74125 0.74133 0.37365 0.0
C818 C 0.68351 0.68481 0.34059 0.0
C819 C 0.71888 0.68021 0.29911 0.0
C820 C 0.71748 0.69131 0.31597 0.0
C821 C 0.71115 0.72928 0.36342 0.0
C822 C 0.7128 0.71677 0.34688 0.0
H823 H 0.7802 0.68562 0.27106 0.0
H824 H 0.77449 0.69113 0.30014 0.0
H825 H 0.6628 0.64748 0.32083 0.0
H826 H 0.65222 0.7342 0.38996 0.0
H827 H 0.65588 0.7191 0.36175 0.0
C828 C 0.04453 0.7296 0.60552 0.0
C829 C 0.02975 0.74773 0.59702 0.0
C830 C 0.03282 0.71736 0.62126 0.0
C831 C 0.95267 0.69155 0.64724 0.0
H832 H 0.01496 0.6946 0.68184 0.0
C833 C 0.9122 0.67322 0.71453 0.0
C834 C 0.92864 0.65934 0.72471 0.0
C835 C 0.92012 0.67707 0.69804 0.0
C836 C -0.003 0.69286 0.67222 0.0
H837 H -0.00633 0.76994 0.59863 0.0
H838 H 0.97431 0.74982 0.62604 0.0
H839 H 0.04116 0.71851 0.65551 0.0
H840 H 0.9629 0.63505 0.72561 0.0
H841 H 0.97541 0.64021 0.69684 0.0
H842 H 0.9086 0.66643 0.66402 0.0
C843 C -0.00615 0.74383 0.62052 0.0
C844 C 0.01213 0.70675 0.65714 0.0
C845 C 0.0053 0.75577 0.60488 0.0
C846 C 0.94979 0.64572 0.71796 0.0
C847 C 0.95743 0.64925 0.70153 0.0
C848 C 0.93754 0.67766 0.66232 0.0
C849 C 0.0063 0.72322 0.62868 0.0
C850 C 0.99024 0.70679 0.64454 0.0
C851 C 0.94443 0.66689 0.69153 0.0
C852 C 0.95957 0.67849 0.67505 0.0
H853 H 0.06308 0.7227 0.59967 0.0
H854 H 0.04303 0.70164 0.62726 0.0
H855 H 0.93486 0.69039 0.63767 0.0
H856 H 0.89637 0.68452 0.7195 0.0
H857 H 0.90962 0.69079 0.69069 0.0
C858 C 0.2969 0.96005 0.05126 0.0
C859 C 0.26249 0.93467 0.05727 0.0
C860 C 0.30226 0.96733 0.03485 0.0
C861 C 0.26163 0.93825 -0.00563 0.0
H862 H 0.31055 0.04219 0.98625 0.0
C863 C 0.25067 0.99356 0.93329 0.0
C864 C 0.28201 0.02278 0.92655 0.0
C865 C 0.25023 0.9834 0.94923 0.0
C866 C 0.29732 0.01313 0.98825 0.0
H867 H 0.20736 0.89499 0.05078 0.0
H868 H 0.21662 0.90762 0.02188 0.0
H869 H 0.30707 0.02003 0.01356 0.0
H870 H 0.33706 0.06536 0.93145 0.0
H871 H 0.33655 0.04739 0.95956 0.0
H872 H 0.25164 0.93134 0.96908 0.0
C873 C 0.23956 0.92178 0.02989 0.0
C874 C 0.29533 0.00035 0.00392 0.0
C875 C 0.23425 0.9143 0.04642 0.0
C876 C 0.31248 0.04289 0.93638 0.0
C877 C 0.31216 0.03246 0.95243 0.0
C878 C 0.26374 0.95103 0.97869 0.0
C879 C 0.27322 0.94962 0.02405 0.0
C880 C 0.27717 0.96276 0.00719 0.0
C881 C 0.28127 0.00194 0.95889 0.0
C882 C 0.28114 0.98863 0.97547 0.0
H883 H 0.31915 0.97607 0.05941 0.0
H884 H 0.32873 0.98822 0.0307 0.0
H885 H 0.24784 0.90919 -0.00355 0.0
H886 H 0.22655 0.97781 0.92607 0.0
H887 H 0.2256 0.96056 0.95391 0.0
loop_
_geom_bond_atom_site_label_1
_geom_bond_atom_site_label_2
_geom_bond_distance
_geom_bond_site_symmetry_2
_ccdc_geom_bond_type
C0 O1 1.306 . S
C0 O3 1.160 . S
O1 C0 1.306 . S
O1 Cd2 2.228 . S
Cd2 O1 2.228 . S
Cd2 O6 2.273 . S
Cd2 O10 2.277 . S
O3 C0 1.160 . S
O3 Cd4 2.203 . S
Cd4 O3 2.203 . S
Cd4 O6 2.411 . S
Cd4 O7 2.333 . S
Cd4 O8 2.352 . S
Cd4 O12 2.277 . S
Cd4 O13 2.356 . S
C5 O10 1.209 . S
C5 O12 1.226 . S
O6 Cd2 2.273 . S
O6 Cd4 2.411 . S
O6 C9 1.320 . S
O7 Cd4 2.333 . S
O7 C9 1.214 . S
O8 Cd4 2.352 . S
O8 C11 1.258 . S
C9 O6 1.320 . S
C9 O7 1.214 . S
O10 Cd2 2.277 . S
O10 C5 1.209 . S
C11 O8 1.258 . S
C11 O13 1.282 . S
O12 Cd4 2.277 . S
O12 C5 1.226 . S
O13 Cd4 2.356 . S
O13 C11 1.282 . S
C14 O15 1.306 . S
C14 O17 1.160 . S
O15 C14 1.306 . S
O15 Cd16 2.228 1_655 S
Cd16 O15 2.228 1_455 S
Cd16 O20 2.273 . S
Cd16 O24 2.277 1_455 S
O17 C14 1.160 . S
O17 Cd18 2.203 . S
Cd18 O17 2.203 . S
Cd18 O20 2.411 1_655 S
Cd18 O21 2.333 . S
Cd18 O22 2.352 . S
Cd18 O26 2.277 . S
Cd18 O27 2.356 . S
C19 O24 1.209 . S
C19 O26 1.226 . S
O20 Cd16 2.273 . S
O20 Cd18 2.411 1_455 S
O20 C23 1.320 . S
O21 Cd18 2.333 . S
O21 C23 1.214 1_655 S
O22 Cd18 2.352 . S
O22 C25 1.258 . S
C23 O20 1.320 . S
C23 O21 1.214 1_455 S
O24 Cd16 2.277 1_655 S
O24 C19 1.209 . S
C25 O22 1.258 . S
C25 O27 1.282 . S
O26 Cd18 2.277 . S
O26 C19 1.226 . S
O27 Cd18 2.356 . S
O27 C25 1.282 . S
C28 O29 1.306 . S
C28 O31 1.160 . S
O29 C28 1.306 . S
O29 Cd30 2.228 1_565 S
Cd30 O29 2.228 1_545 S
Cd30 O34 2.273 . S
Cd30 O38 2.277 1_545 S
O31 C28 1.160 . S
O31 Cd32 2.203 . S
Cd32 O31 2.203 . S
Cd32 O34 2.411 1_565 S
Cd32 O35 2.333 . S
Cd32 O36 2.352 . S
Cd32 O40 2.277 . S
Cd32 O41 2.356 . S
C33 O38 1.209 . S
C33 O40 1.226 . S
O34 Cd30 2.273 . S
O34 Cd32 2.411 1_545 S
O34 C37 1.320 . S
O35 Cd32 2.333 . S
O35 C37 1.214 1_565 S
O36 Cd32 2.352 . S
O36 C39 1.258 . S
C37 O34 1.320 . S
C37 O35 1.214 1_545 S
O38 Cd30 2.277 1_565 S
O38 C33 1.209 . S
C39 O36 1.258 . S
C39 O41 1.282 . S
O40 Cd32 2.277 . S
O40 C33 1.226 . S
O41 Cd32 2.356 . S
O41 C39 1.282 . S
C42 O43 1.306 . S
C42 O45 1.160 . S
O43 C42 1.306 . S
O43 Cd44 2.228 . S
Cd44 O43 2.228 . S
Cd44 O48 2.273 . S
Cd44 O52 2.277 . S
O45 C42 1.160 . S
O45 Cd46 2.203 . S
Cd46 O45 2.203 . S
Cd46 O48 2.411 . S
Cd46 O49 2.333 . S
Cd46 O50 2.352 . S
Cd46 O54 2.277 . S
Cd46 O55 2.356 . S
C47 O52 1.209 . S
C47 O54 1.226 . S
O48 Cd44 2.273 . S
O48 Cd46 2.411 . S
O48 C51 1.320 . S
O49 Cd46 2.333 . S
O49 C51 1.214 . S
O50 Cd46 2.352 . S
O50 C53 1.258 . S
C51 O48 1.320 . S
C51 O49 1.214 . S
O52 Cd44 2.277 . S
O52 C47 1.209 . S
C53 O50 1.258 . S
C53 O55 1.282 . S
O54 Cd46 2.277 . S
O54 C47 1.226 . S
O55 Cd46 2.356 . S
O55 C53 1.282 . S
C56 O57 1.306 . S
C56 O59 1.160 . S
O57 C56 1.306 . S
O57 Cd58 2.228 1_455 S
Cd58 O57 2.228 1_655 S
Cd58 O62 2.273 . S
Cd58 O66 2.277 1_655 S
O59 C56 1.160 . S
O59 Cd60 2.203 . S
Cd60 O59 2.203 . S
Cd60 O62 2.411 1_455 S
Cd60 O63 2.333 . S
Cd60 O64 2.352 . S
Cd60 O68 2.277 . S
Cd60 O69 2.356 . S
C61 O66 1.209 . S
C61 O68 1.226 . S
O62 Cd58 2.273 . S
O62 Cd60 2.411 1_655 S
O62 C65 1.320 . S
O63 Cd60 2.333 . S
O63 C65 1.214 1_455 S
O64 Cd60 2.352 . S
O64 C67 1.258 . S
C65 O62 1.320 . S
C65 O63 1.214 1_655 S
O66 Cd58 2.277 1_455 S
O66 C61 1.209 . S
C67 O64 1.258 . S
C67 O69 1.282 . S
O68 Cd60 2.277 . S
O68 C61 1.226 . S
O69 Cd60 2.356 . S
O69 C67 1.282 . S
C70 O71 1.306 . S
C70 O73 1.160 . S
O71 C70 1.306 . S
O71 Cd72 2.228 1_545 S
Cd72 O71 2.228 1_565 S
Cd72 O76 2.273 . S
Cd72 O80 2.277 1_565 S
O73 C70 1.160 . S
O73 Cd74 2.203 . S
Cd74 O73 2.203 . S
Cd74 O76 2.411 1_545 S
Cd74 O77 2.333 . S
Cd74 O78 2.352 . S
Cd74 O82 2.277 . S
Cd74 O83 2.356 . S
C75 O80 1.209 . S
C75 O82 1.226 . S
O76 Cd72 2.273 . S
O76 Cd74 2.411 1_565 S
O76 C79 1.320 . S
O77 Cd74 2.333 . S
O77 C79 1.214 1_545 S
O78 Cd74 2.352 . S
O78 C81 1.258 . S
C79 O76 1.320 . S
C79 O77 1.214 1_565 S
O80 Cd72 2.277 1_545 S
O80 C75 1.209 . S
C81 O78 1.258 . S
C81 O83 1.282 . S
O82 Cd74 2.277 . S
O82 C75 1.226 . S
O83 Cd74 2.356 . S
O83 C81 1.282 . S
C84 O85 1.306 . S
C84 O87 1.160 . S
O85 C84 1.306 . S
O85 Cd86 2.228 . S
Cd86 O85 2.228 . S
Cd86 O90 2.273 . S
Cd86 O94 2.277 . S
O87 C84 1.160 . S
O87 Cd88 2.203 . S
Cd88 O87 2.203 . S
Cd88 O90 2.411 . S
Cd88 O91 2.333 . S
Cd88 O92 2.352 . S
Cd88 O96 2.277 . S
Cd88 O97 2.356 . S
C89 O94 1.209 . S
C89 O96 1.226 . S
O90 Cd86 2.273 . S
O90 Cd88 2.411 . S
O90 C93 1.320 . S
O91 Cd88 2.333 . S
O91 C93 1.214 . S
O92 Cd88 2.352 . S
O92 C95 1.258 . S
C93 O90 1.320 . S
C93 O91 1.214 . S
O94 Cd86 2.277 . S
O94 C89 1.209 . S
C95 O92 1.258 . S
C95 O97 1.282 . S
O96 Cd88 2.277 . S
O96 C89 1.226 . S
O97 Cd88 2.356 . S
O97 C95 1.282 . S
C98 O99 1.306 . S
C98 O101 1.160 . S
O99 C98 1.306 . S
O99 Cd100 2.228 1_655 S
Cd100 O99 2.228 1_455 S
Cd100 O104 2.273 . S
Cd100 O108 2.277 1_455 S
O101 C98 1.160 . S
O101 Cd102 2.203 . S
Cd102 O101 2.203 . S
Cd102 O104 2.411 1_655 S
Cd102 O105 2.333 . S
Cd102 O106 2.352 . S
Cd102 O110 2.277 . S
Cd102 O111 2.356 . S
C103 O108 1.209 . S
C103 O110 1.226 . S
O104 Cd100 2.273 . S
O104 Cd102 2.411 1_455 S
O104 C107 1.320 . S
O105 Cd102 2.333 . S
O105 C107 1.214 1_655 S
O106 Cd102 2.352 . S
O106 C109 1.258 . S
C107 O104 1.320 . S
C107 O105 1.214 1_455 S
O108 Cd100 2.277 1_655 S
O108 C103 1.209 . S
C109 O106 1.258 . S
C109 O111 1.282 . S
O110 Cd102 2.277 . S
O110 C103 1.226 . S
O111 Cd102 2.356 . S
O111 C109 1.282 . S
C112 O113 1.306 . S
C112 O115 1.160 . S
O113 C112 1.306 . S
O113 Cd114 2.228 1_565 S
Cd114 O113 2.228 1_545 S
Cd114 O118 2.273 . S
Cd114 O122 2.277 1_545 S
O115 C112 1.160 . S
O115 Cd116 2.203 . S
Cd116 O115 2.203 . S
Cd116 O118 2.411 1_565 S
Cd116 O119 2.333 . S
Cd116 O120 2.352 . S
Cd116 O124 2.277 . S
Cd116 O125 2.356 . S
C117 O122 1.209 . S
C117 O124 1.226 . S
O118 Cd114 2.273 . S
O118 Cd116 2.411 1_545 S
O118 C121 1.320 . S
O119 Cd116 2.333 . S
O119 C121 1.214 1_565 S
O120 Cd116 2.352 . S
O120 C123 1.258 . S
C121 O118 1.320 . S
C121 O119 1.214 1_545 S
O122 Cd114 2.277 1_565 S
O122 C117 1.209 . S
C123 O120 1.258 . S
C123 O125 1.282 . S
O124 Cd116 2.277 . S
O124 C117 1.226 . S
O125 Cd116 2.356 . S
O125 C123 1.282 . S
C126 O127 1.306 . S
C126 O129 1.160 . S
O127 C126 1.306 . S
O127 Cd128 2.228 . S
Cd128 O127 2.228 . S
Cd128 O132 2.273 . S
Cd128 O136 2.277 . S
O129 C126 1.160 . S
O129 Cd130 2.203 . S
Cd130 O129 2.203 . S
Cd130 O132 2.411 . S
Cd130 O133 2.333 . S
Cd130 O134 2.352 . S
Cd130 O138 2.277 . S
Cd130 O139 2.356 . S
C131 O136 1.209 . S
C131 O138 1.226 . S
O132 Cd128 2.273 . S
O132 Cd130 2.411 . S
O132 C135 1.320 . S
O133 Cd130 2.333 . S
O133 C135 1.214 . S
O134 Cd130 2.352 . S
O134 C137 1.258 . S
C135 O132 1.320 . S
C135 O133 1.214 . S
O136 Cd128 2.277 . S
O136 C131 1.209 . S
C137 O134 1.258 . S
C137 O139 1.282 . S
O138 Cd130 2.277 . S
O138 C131 1.226 . S
O139 Cd130 2.356 . S
O139 C137 1.282 . S
C140 O141 1.306 . S
C140 O143 1.160 . S
O141 C140 1.306 . S
O141 Cd142 2.228 1_455 S
Cd142 O141 2.228 1_655 S
Cd142 O146 2.273 . S
Cd142 O150 2.277 1_655 S
O143 C140 1.160 . S
O143 Cd144 2.203 . S
Cd144 O143 2.203 . S
Cd144 O146 2.411 1_455 S
Cd144 O147 2.333 . S
Cd144 O148 2.352 . S
Cd144 O152 2.277 . S
Cd144 O153 2.356 . S
C145 O150 1.209 . S
C145 O152 1.226 . S
O146 Cd142 2.273 . S
O146 Cd144 2.411 1_655 S
O146 C149 1.320 . S
O147 Cd144 2.333 . S
O147 C149 1.214 1_455 S
O148 Cd144 2.352 . S
O148 C151 1.258 . S
C149 O146 1.320 . S
C149 O147 1.214 1_655 S
O150 Cd142 2.277 1_455 S
O150 C145 1.209 . S
C151 O148 1.258 . S
C151 O153 1.282 . S
O152 Cd144 2.277 . S
O152 C145 1.226 . S
O153 Cd144 2.356 . S
O153 C151 1.282 . S
C154 O155 1.306 . S
C154 O157 1.160 . S
O155 C154 1.306 . S
O155 Cd156 2.228 1_545 S
Cd156 O155 2.228 1_565 S
Cd156 O160 2.273 . S
Cd156 O164 2.277 1_565 S
O157 C154 1.160 . S
O157 Cd158 2.203 . S
Cd158 O157 2.203 . S
Cd158 O160 2.411 1_545 S
Cd158 O161 2.333 . S
Cd158 O162 2.352 . S
Cd158 O166 2.277 . S
Cd158 O167 2.356 . S
C159 O164 1.209 . S
C159 O166 1.226 . S
O160 Cd156 2.273 . S
O160 Cd158 2.411 1_565 S
O160 C163 1.320 . S
O161 Cd158 2.333 . S
O161 C163 1.214 1_545 S
O162 Cd158 2.352 . S
O162 C165 1.258 . S
C163 O160 1.320 . S
C163 O161 1.214 1_565 S
O164 Cd156 2.277 1_545 S
O164 C159 1.209 . S
C165 O162 1.258 . S
C165 O167 1.282 . S
O166 Cd158 2.277 . S
O166 C159 1.226 . S
O167 Cd158 2.356 . S
O167 C165 1.282 . S
C168 C169 1.349 . S
C168 C170 1.327 . S
C168 H193 0.950 . S
C169 C168 1.349 . S
C169 C185 1.349 . S
C170 C168 1.327 . S
C170 C189 1.429 . S
C170 H194 0.950 . S
C171 C188 1.574 1_655 S
C171 C190 1.368 . S
C171 H195 0.949 . S
H172 C176 0.949 . S
C173 C174 1.349 . S
C173 C175 1.327 . S
C173 H196 0.950 . S
C174 C173 1.349 . S
C174 C186 1.349 . S
C175 C173 1.327 . S
C175 C191 1.429 . S
C175 H197 0.950 . S
C176 H172 0.949 . S
C176 C184 1.574 1_455 S
C176 C192 1.368 . S
H177 C185 0.950 . S
H178 C183 0.950 . S
H179 C184 0.949 . S
H180 C186 0.950 . S
H181 C187 0.950 . S
H182 C188 0.949 . S
C183 H178 0.950 . S
C183 C185 1.327 . S
C183 C189 1.429 . S
C184 C176 1.574 1_655 S
C184 H179 0.949 . S
C184 C190 1.368 . S
C185 C169 1.349 . S
C185 H177 0.950 . S
C185 C183 1.327 . S
C186 C174 1.349 . S
C186 H180 0.950 . S
C186 C187 1.327 . S
C187 H181 0.950 . S
C187 C186 1.327 . S
C187 C191 1.429 . S
C188 C171 1.574 1_455 S
C188 H182 0.949 . S
C188 C192 1.368 . S
C189 C170 1.429 . S
C189 C183 1.429 . S
C189 C190 1.523 . S
C190 C171 1.368 . S
C190 C184 1.368 . S
C190 C189 1.523 . S
C191 C175 1.429 . S
C191 C187 1.429 . S
C191 C192 1.523 . S
C192 C176 1.368 . S
C192 C188 1.368 . S
C192 C191 1.523 . S
H193 C168 0.950 . S
H194 C170 0.950 . S
H195 C171 0.949 . S
H196 C173 0.950 . S
H197 C175 0.950 . S
C198 C199 1.349 . S
C198 C200 1.327 . S
C198 H223 0.950 . S
C199 C198 1.349 . S
C199 C215 1.349 . S
C200 C198 1.327 . S
C200 C219 1.429 . S
C200 H224 0.950 . S
C201 C218 1.574 1_545 S
C201 C220 1.368 . S
C201 H225 0.949 . S
H202 C206 0.949 . S
C203 C204 1.349 . S
C203 C205 1.327 . S
C203 H226 0.950 . S
C204 C203 1.349 . S
C204 C216 1.349 . S
C205 C203 1.327 . S
C205 C221 1.429 . S
C205 H227 0.950 . S
C206 H202 0.949 . S
C206 C214 1.574 1_565 S
C206 C222 1.368 . S
H207 C215 0.950 . S
H208 C213 0.950 . S
H209 C214 0.949 . S
H210 C216 0.950 . S
H211 C217 0.950 . S
H212 C218 0.949 . S
C213 H208 0.950 . S
C213 C215 1.327 . S
C213 C219 1.429 . S
C214 C206 1.574 1_545 S
C214 H209 0.949 . S
C214 C220 1.368 . S
C215 C199 1.349 . S
C215 H207 0.950 . S
C215 C213 1.327 . S
C216 C204 1.349 . S
C216 H210 0.950 . S
C216 C217 1.327 . S
C217 H211 0.950 . S
C217 C216 1.327 . S
C217 C221 1.429 . S
C218 C201 1.574 1_565 S
C218 H212 0.949 . S
C218 C222 1.368 . S
C219 C200 1.429 . S
C219 C213 1.429 . S
C219 C220 1.523 . S
C220 C201 1.368 . S
C220 C214 1.368 . S
C220 C219 1.523 . S
C221 C205 1.429 . S
C221 C217 1.429 . S
C221 C222 1.523 . S
C222 C206 1.368 . S
C222 C218 1.368 . S
C222 C221 1.523 . S
H223 C198 0.950 . S
H224 C200 0.950 . S
H225 C201 0.949 . S
H226 C203 0.950 . S
H227 C205 0.950 . S
C228 C229 1.349 . S
C228 C230 1.327 . S
C228 H253 0.950 . S
C229 C228 1.349 . S
C229 C245 1.349 . S
C230 C228 1.327 . S
C230 C249 1.429 . S
C230 H254 0.950 . S
C231 C248 1.574 . S
C231 C250 1.368 . S
C231 H255 0.949 . S
H232 C236 0.949 . S
C233 C234 1.349 . S
C233 C235 1.327 . S
C233 H256 0.950 . S
C234 C233 1.349 . S
C234 C246 1.349 . S
C235 C233 1.327 . S
C235 C251 1.429 . S
C235 H257 0.950 . S
C236 H232 0.949 . S
C236 C244 1.574 . S
C236 C252 1.368 . S
H237 C245 0.950 . S
H238 C243 0.950 . S
H239 C244 0.949 . S
H240 C246 0.950 . S
H241 C247 0.950 . S
H242 C248 0.949 . S
C243 H238 0.950 . S
C243 C245 1.327 . S
C243 C249 1.429 . S
C244 C236 1.574 . S
C244 H239 0.949 . S
C244 C250 1.368 . S
C245 C229 1.349 . S
C245 H237 0.950 . S
C245 C243 1.327 . S
C246 C234 1.349 . S
C246 H240 0.950 . S
C246 C247 1.327 . S
C247 H241 0.950 . S
C247 C246 1.327 . S
C247 C251 1.429 . S
C248 C231 1.574 . S
C248 H242 0.949 . S
C248 C252 1.368 . S
C249 C230 1.429 . S
C249 C243 1.429 . S
C249 C250 1.523 . S
C250 C231 1.368 . S
C250 C244 1.368 . S
C250 C249 1.523 . S
C251 C235 1.429 . S
C251 C247 1.429 . S
C251 C252 1.523 . S
C252 C236 1.368 . S
C252 C248 1.368 . S
C252 C251 1.523 . S
H253 C228 0.950 . S
H254 C230 0.950 . S
H255 C231 0.949 . S
H256 C233 0.950 . S
H257 C235 0.950 . S
C258 C259 1.349 . S
C258 C260 1.327 . S
C258 H283 0.950 . S
C259 C258 1.349 . S
C259 C275 1.349 . S
C260 C258 1.327 . S
C260 C279 1.429 . S
C260 H284 0.950 . S
C261 C278 1.574 1_655 S
C261 C280 1.368 . S
C261 H285 0.949 . S
H262 C266 0.949 . S
C263 C264 1.349 . S
C263 C265 1.327 . S
C263 H286 0.950 . S
C264 C263 1.349 . S
C264 C276 1.349 . S
C265 C263 1.327 . S
C265 C281 1.429 . S
C265 H287 0.950 . S
C266 H262 0.949 . S
C266 C274 1.574 1_455 S
C266 C282 1.368 . S
H267 C275 0.950 . S
H268 C273 0.950 . S
H269 C274 0.949 . S
H270 C276 0.950 . S
H271 C277 0.950 . S
H272 C278 0.949 . S
C273 H268 0.950 . S
C273 C275 1.327 . S
C273 C279 1.429 . S
C274 C266 1.574 1_655 S
C274 H269 0.949 . S
C274 C280 1.368 . S
C275 C259 1.349 . S
C275 H267 0.950 . S
C275 C273 1.327 . S
C276 C264 1.349 . S
C276 H270 0.950 . S
C276 C277 1.327 . S
C277 H271 0.950 . S
C277 C276 1.327 . S
C277 C281 1.429 . S
C278 C261 1.574 1_455 S
C278 H272 0.949 . S
C278 C282 1.368 . S
C279 C260 1.429 . S
C279 C273 1.429 . S
C279 C280 1.523 . S
C280 C261 1.368 . S
C280 C274 1.368 . S
C280 C279 1.523 . S
C281 C265 1.429 . S
C281 C277 1.429 . S
C281 C282 1.523 . S
C282 C266 1.368 . S
C282 C278 1.368 . S
C282 C281 1.523 . S
H283 C258 0.950 . S
H284 C260 0.950 . S
H285 C261 0.949 . S
H286 C263 0.950 . S
H287 C265 0.950 . S
C288 C289 1.349 . S
C288 C290 1.327 . S
C288 H313 0.950 . S
C289 C288 1.349 . S
C289 C305 1.349 . S
C290 C288 1.327 . S
C290 C309 1.429 . S
C290 H314 0.950 . S
C291 C308 1.574 1_545 S
C291 C310 1.368 . S
C291 H315 0.949 . S
H292 C296 0.949 . S
C293 C294 1.349 . S
C293 C295 1.327 . S
C293 H316 0.950 . S
C294 C293 1.349 . S
C294 C306 1.349 . S
C295 C293 1.327 . S
C295 C311 1.429 . S
C295 H317 0.950 . S
C296 H292 0.949 . S
C296 C304 1.574 1_565 S
C296 C312 1.368 . S
H297 C305 0.950 . S
H298 C303 0.950 . S
H299 C304 0.949 . S
H300 C306 0.950 . S
H301 C307 0.950 . S
H302 C308 0.949 . S
C303 H298 0.950 . S
C303 C305 1.327 . S
C303 C309 1.429 . S
C304 C296 1.574 1_545 S
C304 H299 0.949 . S
C304 C310 1.368 . S
C305 C289 1.349 . S
C305 H297 0.950 . S
C305 C303 1.327 . S
C306 C294 1.349 . S
C306 H300 0.950 . S
C306 C307 1.327 . S
C307 H301 0.950 . S
C307 C306 1.327 . S
C307 C311 1.429 . S
C308 C291 1.574 1_565 S
C308 H302 0.949 . S
C308 C312 1.368 . S
C309 C290 1.429 . S
C309 C303 1.429 . S
C309 C310 1.523 . S
C310 C291 1.368 . S
C310 C304 1.368 . S
C310 C309 1.523 . S
C311 C295 1.429 . S
C311 C307 1.429 . S
C311 C312 1.523 . S
C312 C296 1.368 . S
C312 C308 1.368 . S
C312 C311 1.523 . S
H313 C288 0.950 . S
H314 C290 0.950 . S
H315 C291 0.949 . S
H316 C293 0.950 . S
H317 C295 0.950 . S
C318 C319 1.349 . S
C318 C320 1.327 . S
C318 H343 0.950 . S
C319 C318 1.349 . S
C319 C335 1.349 . S
C320 C318 1.327 . S
C320 C339 1.429 . S
C320 H344 0.950 . S
C321 C338 1.574 . S
C321 C340 1.368 . S
C321 H345 0.949 . S
H322 C326 0.949 . S
C323 C324 1.349 . S
C323 C325 1.327 . S
C323 H346 0.950 . S
C324 C323 1.349 . S
C324 C336 1.349 . S
C325 C323 1.327 . S
C325 C341 1.429 . S
C325 H347 0.950 . S
C326 H322 0.949 . S
C326 C334 1.574 . S
C326 C342 1.368 . S
H327 C335 0.950 . S
H328 C333 0.950 . S
H329 C334 0.949 . S
H330 C336 0.950 . S
H331 C337 0.950 . S
H332 C338 0.949 . S
C333 H328 0.950 . S
C333 C335 1.327 . S
C333 C339 1.429 . S
C334 C326 1.574 . S
C334 H329 0.949 . S
C334 C340 1.368 . S
C335 C319 1.349 . S
C335 H327 0.950 . S
C335 C333 1.327 . S
C336 C324 1.349 . S
C336 H330 0.950 . S
C336 C337 1.327 . S
C337 H331 0.950 . S
C337 C336 1.327 . S
C337 C341 1.429 . S
C338 C321 1.574 . S
C338 H332 0.949 . S
C338 C342 1.368 . S
C339 C320 1.429 . S
C339 C333 1.429 . S
C339 C340 1.523 . S
C340 C321 1.368 . S
C340 C334 1.368 . S
C340 C339 1.523 . S
C341 C325 1.429 . S
C341 C337 1.429 . S
C341 C342 1.523 . S
C342 C326 1.368 . S
C342 C338 1.368 . S
C342 C341 1.523 . S
H343 C318 0.950 . S
H344 C320 0.950 . S
H345 C321 0.949 . S
H346 C323 0.950 . S
H347 C325 0.950 . S
C348 C349 1.349 . S
C348 C350 1.327 . S
C348 H373 0.950 . S
C349 C348 1.349 . S
C349 C365 1.349 . S
C350 C348 1.327 . S
C350 C369 1.429 . S
C350 H374 0.950 . S
C351 C368 1.574 . S
C351 C370 1.368 . S
C351 H375 0.949 . S
H352 C356 0.949 . S
C353 C354 1.349 . S
C353 C355 1.327 . S
C353 H376 0.950 . S
C354 C353 1.349 . S
C354 C366 1.349 . S
C355 C353 1.327 . S
C355 C371 1.429 . S
C355 H377 0.950 . S
C356 H352 0.949 . S
C356 C364 1.574 . S
C356 C372 1.368 . S
H357 C365 0.950 . S
H358 C363 0.950 . S
H359 C364 0.949 . S
H360 C366 0.950 . S
H361 C367 0.950 . S
H362 C368 0.949 . S
C363 H358 0.950 . S
C363 C365 1.327 . S
C363 C369 1.429 . S
C364 C356 1.574 . S
C364 H359 0.949 . S
C364 C370 1.368 . S
C365 C349 1.349 . S
C365 H357 0.950 . S
C365 C363 1.327 . S
C366 C354 1.349 . S
C366 H360 0.950 . S
C366 C367 1.327 . S
C367 H361 0.950 . S
C367 C366 1.327 . S
C367 C371 1.429 . S
C368 C351 1.574 . S
C368 H362 0.949 . S
C368 C372 1.368 . S
C369 C350 1.429 . S
C369 C363 1.429 . S
C369 C370 1.523 . S
C370 C351 1.368 . S
C370 C364 1.368 . S
C370 C369 1.523 . S
C371 C355 1.429 . S
C371 C367 1.429 . S
C371 C372 1.523 . S
C372 C356 1.368 . S
C372 C368 1.368 . S
C372 C371 1.523 . S
H373 C348 0.950 . S
H374 C350 0.950 . S
H375 C351 0.949 . S
H376 C353 0.950 . S
H377 C355 0.950 . S
C378 C379 1.349 . S
C378 C380 1.327 . S
C378 H403 0.950 . S
C379 C378 1.349 . S
C379 C395 1.349 . S
C380 C378 1.327 . S
C380 C399 1.429 . S
C380 H404 0.950 1_455 S
C381 C398 1.574 . S
C381 C400 1.368 . S
C381 H405 0.949 . S
H382 C386 0.949 . S
C383 C384 1.349 . S
C383 C385 1.327 . S
C383 H406 0.950 . S
C384 C383 1.349 . S
C384 C396 1.349 . S
C385 C383 1.327 . S
C385 C401 1.429 . S
C385 H407 0.950 1_655 S
C386 H382 0.949 . S
C386 C394 1.574 . S
C386 C402 1.368 . S
H387 C395 0.950 . S
H388 C393 0.950 . S
H389 C394 0.949 . S
H390 C396 0.950 . S
H391 C397 0.950 . S
H392 C398 0.949 . S
C393 H388 0.950 . S
C393 C395 1.327 . S
C393 C399 1.429 . S
C394 C386 1.574 . S
C394 H389 0.949 . S
C394 C400 1.368 1_655 S
C395 C379 1.349 . S
C395 H387 0.950 . S
C395 C393 1.327 . S
C396 C384 1.349 . S
C396 H390 0.950 . S
C396 C397 1.327 . S
C397 H391 0.950 . S
C397 C396 1.327 . S
C397 C401 1.429 . S
C398 C381 1.574 . S
C398 H392 0.949 . S
C398 C402 1.368 1_455 S
C399 C380 1.429 . S
C399 C393 1.429 . S
C399 C400 1.523 . S
C400 C381 1.368 . S
C400 C394 1.368 1_455 S
C400 C399 1.523 . S
C401 C385 1.429 . S
C401 C397 1.429 . S
C401 C402 1.523 . S
C402 C386 1.368 . S
C402 C398 1.368 1_655 S
C402 C401 1.523 . S
H403 C378 0.950 . S
H404 C380 0.950 1_655 S
H405 C381 0.949 . S
H406 C383 0.950 . S
H407 C385 0.950 1_455 S
C408 C409 1.349 . S
C408 C410 1.327 . S
C408 H433 0.950 . S
C409 C408 1.349 . S
C409 C425 1.349 . S
C410 C408 1.327 . S
C410 C429 1.429 . S
C410 H434 0.950 . S
C411 C428 1.574 . S
C411 C430 1.368 1_565 S
C411 H435 0.949 . S
H412 C416 0.949 . S
C413 C414 1.349 . S
C413 C415 1.327 . S
C413 H436 0.950 . S
C414 C413 1.349 . S
C414 C426 1.349 . S
C415 C413 1.327 . S
C415 C431 1.429 . S
C415 H437 0.950 . S
C416 H412 0.949 . S
C416 C424 1.574 . S
C416 C432 1.368 1_545 S
H417 C425 0.950 . S
H418 C423 0.950 1_565 S
H419 C424 0.949 . S
H420 C426 0.950 . S
H421 C427 0.950 1_545 S
H422 C428 0.949 . S
C423 H418 0.950 1_545 S
C423 C425 1.327 . S
C423 C429 1.429 . S
C424 C416 1.574 . S
C424 H419 0.949 . S
C424 C430 1.368 . S
C425 C409 1.349 . S
C425 H417 0.950 . S
C425 C423 1.327 . S
C426 C414 1.349 . S
C426 H420 0.950 . S
C426 C427 1.327 . S
C427 H421 0.950 1_565 S
C427 C426 1.327 . S
C427 C431 1.429 . S
C428 C411 1.574 . S
C428 H422 0.949 . S
C428 C432 1.368 . S
C429 C410 1.429 . S
C429 C423 1.429 . S
C429 C430 1.523 . S
C430 C411 1.368 1_545 S
C430 C424 1.368 . S
C430 C429 1.523 . S
C431 C415 1.429 . S
C431 C427 1.429 . S
C431 C432 1.523 . S
C432 C416 1.368 1_565 S
C432 C428 1.368 . S
C432 C431 1.523 . S
H433 C408 0.950 . S
H434 C410 0.950 . S
H435 C411 0.949 . S
H436 C413 0.950 . S
H437 C415 0.950 . S
C438 C439 1.349 . S
C438 C440 1.327 . S
C438 H463 0.950 . S
C439 C438 1.349 . S
C439 C455 1.349 . S
C440 C438 1.327 . S
C440 C459 1.429 . S
C440 H464 0.950 . S
C441 C458 1.574 . S
C441 C460 1.368 . S
C441 H465 0.949 . S
H442 C446 0.949 . S
C443 C444 1.349 . S
C443 C445 1.327 . S
C443 H466 0.950 . S
C444 C443 1.349 . S
C444 C456 1.349 . S
C445 C443 1.327 . S
C445 C461 1.429 . S
C445 H467 0.950 . S
C446 H442 0.949 . S
C446 C454 1.574 . S
C446 C462 1.368 . S
H447 C455 0.950 . S
H448 C453 0.950 . S
H449 C454 0.949 . S
H450 C456 0.950 . S
H451 C457 0.950 . S
H452 C458 0.949 . S
C453 H448 0.950 . S
C453 C455 1.327 . S
C453 C459 1.429 . S
C454 C446 1.574 . S
C454 H449 0.949 . S
C454 C460 1.368 . S
C455 C439 1.349 . S
C455 H447 0.950 . S
C455 C453 1.327 . S
C456 C444 1.349 . S
C456 H450 0.950 . S
C456 C457 1.327 . S
C457 H451 0.950 . S
C457 C456 1.327 . S
C457 C461 1.429 . S
C458 C441 1.574 . S
C458 H452 0.949 . S
C458 C462 1.368 . S
C459 C440 1.429 . S
C459 C453 1.429 . S
C459 C460 1.523 . S
C460 C441 1.368 . S
C460 C454 1.368 . S
C460 C459 1.523 . S
C461 C445 1.429 . S
C461 C457 1.429 . S
C461 C462 1.523 . S
C462 C446 1.368 . S
C462 C458 1.368 . S
C462 C461 1.523 . S
H463 C438 0.950 . S
H464 C440 0.950 . S
H465 C441 0.949 . S
H466 C443 0.950 . S
H467 C445 0.950 . S
C468 C469 1.349 . S
C468 C470 1.327 . S
C468 H493 0.950 . S
C469 C468 1.349 . S
C469 C485 1.349 . S
C470 C468 1.327 . S
C470 C489 1.429 . S
C470 H494 0.950 . S
C471 C488 1.574 . S
C471 C490 1.368 1_455 S
C471 H495 0.949 . S
H472 C476 0.949 . S
C473 C474 1.349 . S
C473 C475 1.327 . S
C473 H496 0.950 . S
C474 C473 1.349 . S
C474 C486 1.349 . S
C475 C473 1.327 . S
C475 C491 1.429 . S
C475 H497 0.950 . S
C476 H472 0.949 . S
C476 C484 1.574 . S
C476 C492 1.368 1_655 S
H477 C485 0.950 . S
H478 C483 0.950 1_455 S
H479 C484 0.949 . S
H480 C486 0.950 . S
H481 C487 0.950 1_655 S
H482 C488 0.949 . S
C483 H478 0.950 1_655 S
C483 C485 1.327 . S
C483 C489 1.429 . S
C484 C476 1.574 . S
C484 H479 0.949 . S
C484 C490 1.368 . S
C485 C469 1.349 . S
C485 H477 0.950 . S
C485 C483 1.327 . S
C486 C474 1.349 . S
C486 H480 0.950 . S
C486 C487 1.327 . S
C487 H481 0.950 1_455 S
C487 C486 1.327 . S
C487 C491 1.429 . S
C488 C471 1.574 . S
C488 H482 0.949 . S
C488 C492 1.368 . S
C489 C470 1.429 . S
C489 C483 1.429 . S
C489 C490 1.523 . S
C490 C471 1.368 1_655 S
C490 C484 1.368 . S
C490 C489 1.523 . S
C491 C475 1.429 . S
C491 C487 1.429 . S
C491 C492 1.523 . S
C492 C476 1.368 1_455 S
C492 C488 1.368 . S
C492 C491 1.523 . S
H493 C468 0.950 . S
H494 C470 0.950 . S
H495 C471 0.949 . S
H496 C473 0.950 . S
H497 C475 0.950 . S
C498 C499 1.349 . S
C498 C500 1.327 . S
C498 H523 0.950 . S
C499 C498 1.349 . S
C499 C515 1.349 . S
C500 C498 1.327 . S
C500 C519 1.429 . S
C500 H524 0.950 1_565 S
C501 C518 1.574 . S
C501 C520 1.368 . S
C501 H525 0.949 . S
H502 C506 0.949 . S
C503 C504 1.349 . S
C503 C505 1.327 . S
C503 H526 0.950 . S
C504 C503 1.349 . S
C504 C516 1.349 . S
C505 C503 1.327 . S
C505 C521 1.429 . S
C505 H527 0.950 1_545 S
C506 H502 0.949 . S
C506 C514 1.574 . S
C506 C522 1.368 . S
H507 C515 0.950 . S
H508 C513 0.950 . S
H509 C514 0.949 . S
H510 C516 0.950 . S
H511 C517 0.950 . S
H512 C518 0.949 . S
C513 H508 0.950 . S
C513 C515 1.327 . S
C513 C519 1.429 . S
C514 C506 1.574 . S
C514 H509 0.949 . S
C514 C520 1.368 1_545 S
C515 C499 1.349 . S
C515 H507 0.950 . S
C515 C513 1.327 . S
C516 C504 1.349 . S
C516 H510 0.950 . S
C516 C517 1.327 . S
C517 H511 0.950 . S
C517 C516 1.327 . S
C517 C521 1.429 . S
C518 C501 1.574 . S
C518 H512 0.949 . S
C518 C522 1.368 1_565 S
C519 C500 1.429 . S
C519 C513 1.429 . S
C519 C520 1.523 . S
C520 C501 1.368 . S
C520 C514 1.368 1_565 S
C520 C519 1.523 . S
C521 C505 1.429 . S
C521 C517 1.429 . S
C521 C522 1.523 . S
C522 C506 1.368 . S
C522 C518 1.368 1_545 S
C522 C521 1.523 . S
H523 C498 0.950 . S
H524 C500 0.950 1_545 S
H525 C501 0.949 . S
H526 C503 0.950 . S
H527 C505 0.950 1_565 S
C528 C529 1.349 . S
C528 C530 1.327 . S
C528 H553 0.950 . S
C529 C528 1.349 . S
C529 C545 1.349 . S
C530 C528 1.327 . S
C530 C549 1.429 . S
C530 H554 0.950 . S
C531 C548 1.574 . S
C531 C550 1.368 . S
C531 H555 0.949 . S
H532 C536 0.949 . S
C533 C534 1.349 . S
C533 C535 1.327 . S
C533 H556 0.950 . S
C534 C533 1.349 . S
C534 C546 1.349 . S
C535 C533 1.327 . S
C535 C551 1.429 . S
C535 H557 0.950 . S
C536 H532 0.949 . S
C536 C544 1.574 . S
C536 C552 1.368 . S
H537 C545 0.950 . S
H538 C543 0.950 . S
H539 C544 0.949 . S
H540 C546 0.950 . S
H541 C547 0.950 . S
H542 C548 0.949 . S
C543 H538 0.950 . S
C543 C545 1.327 . S
C543 C549 1.429 . S
C544 C536 1.574 . S
C544 H539 0.949 . S
C544 C550 1.368 . S
C545 C529 1.349 . S
C545 H537 0.950 . S
C545 C543 1.327 . S
C546 C534 1.349 . S
C546 H540 0.950 . S
C546 C547 1.327 . S
C547 H541 0.950 . S
C547 C546 1.327 . S
C547 C551 1.429 . S
C548 C531 1.574 . S
C548 H542 0.949 . S
C548 C552 1.368 . S
C549 C530 1.429 . S
C549 C543 1.429 . S
C549 C550 1.523 . S
C550 C531 1.368 . S
C550 C544 1.368 . S
C550 C549 1.523 . S
C551 C535 1.429 . S
C551 C547 1.429 . S
C551 C552 1.523 . S
C552 C536 1.368 . S
C552 C548 1.368 . S
C552 C551 1.523 . S
H553 C528 0.950 . S
H554 C530 0.950 . S
H555 C531 0.949 . S
H556 C533 0.950 . S
H557 C535 0.950 . S
C558 C559 1.349 . S
C558 C560 1.327 . S
C558 H583 0.950 1_455 S
C559 C558 1.349 . S
C559 C575 1.349 . S
C560 C558 1.327 . S
C560 C579 1.429 . S
C560 H584 0.950 . S
C561 C578 1.574 . S
C561 C580 1.368 . S
C561 H585 0.949 . S
H562 C566 0.949 . S
C563 C564 1.349 . S
C563 C565 1.327 . S
C563 H586 0.950 . S
C564 C563 1.349 . S
C564 C576 1.349 . S
C565 C563 1.327 . S
C565 C581 1.429 . S
C565 H587 0.950 . S
C566 H562 0.949 . S
C566 C574 1.574 . S
C566 C582 1.368 . S
H567 C575 0.950 . S
H568 C573 0.950 . S
H569 C574 0.949 . S
H570 C576 0.950 . S
H571 C577 0.950 . S
H572 C578 0.949 . S
C573 H568 0.950 . S
C573 C575 1.327 . S
C573 C579 1.429 . S
C574 C566 1.574 . S
C574 H569 0.949 . S
C574 C580 1.368 . S
C575 C559 1.349 . S
C575 H567 0.950 . S
C575 C573 1.327 . S
C576 C564 1.349 . S
C576 H570 0.950 . S
C576 C577 1.327 . S
C577 H571 0.950 . S
C577 C576 1.327 . S
C577 C581 1.429 . S
C578 C561 1.574 . S
C578 H572 0.949 . S
C578 C582 1.368 . S
C579 C560 1.429 . S
C579 C573 1.429 . S
C579 C580 1.523 . S
C580 C561 1.368 . S
C580 C574 1.368 . S
C580 C579 1.523 . S
C581 C565 1.429 . S
C581 C577 1.429 . S
C581 C582 1.523 . S
C582 C566 1.368 . S
C582 C578 1.368 . S
C582 C581 1.523 . S
H583 C558 0.950 1_655 S
H584 C560 0.950 . S
H585 C561 0.949 . S
H586 C563 0.950 . S
H587 C565 0.950 . S
C588 C589 1.349 . S
C588 C590 1.327 . S
C588 H613 0.950 . S
C589 C588 1.349 . S
C589 C605 1.349 . S
C590 C588 1.327 . S
C590 C609 1.429 . S
C590 H614 0.950 . S
C591 C608 1.574 . S
C591 C610 1.368 . S
C591 H615 0.949 . S
H592 C596 0.949 . S
C593 C594 1.349 . S
C593 C595 1.327 . S
C593 H616 0.950 1_545 S
C594 C593 1.349 . S
C594 C606 1.349 . S
C595 C593 1.327 . S
C595 C611 1.429 . S
C595 H617 0.950 . S
C596 H592 0.949 . S
C596 C604 1.574 . S
C596 C612 1.368 . S
H597 C605 0.950 . S
H598 C603 0.950 . S
H599 C604 0.949 . S
H600 C606 0.950 . S
H601 C607 0.950 . S
H602 C608 0.949 . S
C603 H598 0.950 . S
C603 C605 1.327 . S
C603 C609 1.429 . S
C604 C596 1.574 . S
C604 H599 0.949 . S
C604 C610 1.368 . S
C605 C589 1.349 . S
C605 H597 0.950 . S
C605 C603 1.327 . S
C606 C594 1.349 . S
C606 H600 0.950 . S
C606 C607 1.327 . S
C607 H601 0.950 . S
C607 C606 1.327 . S
C607 C611 1.429 . S
C608 C591 1.574 . S
C608 H602 0.949 . S
C608 C612 1.368 . S
C609 C590 1.429 . S
C609 C603 1.429 . S
C609 C610 1.523 . S
C610 C591 1.368 . S
C610 C604 1.368 . S
C610 C609 1.523 . S
C611 C595 1.429 . S
C611 C607 1.429 . S
C611 C612 1.523 . S
C612 C596 1.368 . S
C612 C608 1.368 . S
C612 C611 1.523 . S
H613 C588 0.950 . S
H614 C590 0.950 . S
H615 C591 0.949 . S
H616 C593 0.950 1_565 S
H617 C595 0.950 . S
C618 C619 1.349 . S
C618 C620 1.327 . S
C618 H643 0.950 . S
C619 C618 1.349 . S
C619 C635 1.349 . S
C620 C618 1.327 . S
C620 C639 1.429 . S
C620 H644 0.950 . S
C621 C638 1.574 . S
C621 C640 1.368 . S
C621 H645 0.949 . S
H622 C626 0.949 . S
C623 C624 1.349 . S
C623 C625 1.327 . S
C623 H646 0.950 . S
C624 C623 1.349 . S
C624 C636 1.349 . S
C625 C623 1.327 . S
C625 C641 1.429 . S
C625 H647 0.950 . S
C626 H622 0.949 . S
C626 C634 1.574 . S
C626 C642 1.368 . S
H627 C635 0.950 . S
H628 C633 0.950 . S
H629 C634 0.949 . S
H630 C636 0.950 . S
H631 C637 0.950 . S
H632 C638 0.949 . S
C633 H628 0.950 . S
C633 C635 1.327 . S
C633 C639 1.429 . S
C634 C626 1.574 . S
C634 H629 0.949 . S
C634 C640 1.368 . S
C635 C619 1.349 . S
C635 H627 0.950 . S
C635 C633 1.327 . S
C636 C624 1.349 . S
C636 H630 0.950 . S
C636 C637 1.327 . S
C637 H631 0.950 . S
C637 C636 1.327 . S
C637 C641 1.429 . S
C638 C621 1.574 . S
C638 H632 0.949 . S
C638 C642 1.368 . S
C639 C620 1.429 . S
C639 C633 1.429 . S
C639 C640 1.523 . S
C640 C621 1.368 . S
C640 C634 1.368 . S
C640 C639 1.523 . S
C641 C625 1.429 . S
C641 C637 1.429 . S
C641 C642 1.523 . S
C642 C626 1.368 . S
C642 C638 1.368 . S
C642 C641 1.523 . S
H643 C618 0.950 . S
H644 C620 0.950 . S
H645 C621 0.949 . S
H646 C623 0.950 . S
H647 C625 0.950 . S
C648 C649 1.349 . S
C648 C650 1.327 . S
C648 H673 0.950 . S
C649 C648 1.349 . S
C649 C665 1.349 . S
C650 C648 1.327 . S
C650 C669 1.429 . S
C650 H674 0.950 . S
C651 C668 1.574 . S
C651 C670 1.368 . S
C651 H675 0.949 . S
H652 C656 0.949 . S
C653 C654 1.349 . S
C653 C655 1.327 . S
C653 H676 0.950 . S
C654 C653 1.349 . S
C654 C666 1.349 . S
C655 C653 1.327 . S
C655 C671 1.429 . S
C655 H677 0.950 . S
C656 H652 0.949 . S
C656 C664 1.574 . S
C656 C672 1.368 . S
H657 C665 0.950 . S
H658 C663 0.950 . S
H659 C664 0.949 . S
H660 C666 0.950 . S
H661 C667 0.950 . S
H662 C668 0.949 . S
C663 H658 0.950 . S
C663 C665 1.327 . S
C663 C669 1.429 . S
C664 C656 1.574 . S
C664 H659 0.949 . S
C664 C670 1.368 . S
C665 C649 1.349 . S
C665 H657 0.950 . S
C665 C663 1.327 . S
C666 C654 1.349 . S
C666 H660 0.950 . S
C666 C667 1.327 . S
C667 H661 0.950 . S
C667 C666 1.327 . S
C667 C671 1.429 . S
C668 C651 1.574 . S
C668 H662 0.949 . S
C668 C672 1.368 . S
C669 C650 1.429 . S
C669 C663 1.429 . S
C669 C670 1.523 . S
C670 C651 1.368 . S
C670 C664 1.368 . S
C670 C669 1.523 . S
C671 C655 1.429 . S
C671 C667 1.429 . S
C671 C672 1.523 . S
C672 C656 1.368 . S
C672 C668 1.368 . S
C672 C671 1.523 . S
H673 C648 0.950 . S
H674 C650 0.950 . S
H675 C651 0.949 . S
H676 C653 0.950 . S
H677 C655 0.950 . S
C678 C679 1.349 . S
C678 C680 1.327 . S
C678 H703 0.950 . S
C679 C678 1.349 . S
C679 C695 1.349 . S
C680 C678 1.327 . S
C680 C699 1.429 . S
C680 H704 0.950 . S
C681 C698 1.574 . S
C681 C700 1.368 . S
C681 H705 0.949 . S
H682 C686 0.949 . S
C683 C684 1.349 . S
C683 C685 1.327 . S
C683 H706 0.950 . S
C684 C683 1.349 . S
C684 C696 1.349 . S
C685 C683 1.327 . S
C685 C701 1.429 . S
C685 H707 0.950 . S
C686 H682 0.949 . S
C686 C694 1.574 . S
C686 C702 1.368 . S
H687 C695 0.950 . S
H688 C693 0.950 . S
H689 C694 0.949 . S
H690 C696 0.950 1_655 S
H691 C697 0.950 . S
H692 C698 0.949 . S
C693 H688 0.950 . S
C693 C695 1.327 . S
C693 C699 1.429 . S
C694 C686 1.574 . S
C694 H689 0.949 . S
C694 C700 1.368 . S
C695 C679 1.349 . S
C695 H687 0.950 . S
C695 C693 1.327 . S
C696 C684 1.349 . S
C696 H690 0.950 1_455 S
C696 C697 1.327 . S
C697 H691 0.950 . S
C697 C696 1.327 . S
C697 C701 1.429 . S
C698 C681 1.574 . S
C698 H692 0.949 . S
C698 C702 1.368 . S
C699 C680 1.429 . S
C699 C693 1.429 . S
C699 C700 1.523 . S
C700 C681 1.368 . S
C700 C694 1.368 . S
C700 C699 1.523 . S
C701 C685 1.429 . S
C701 C697 1.429 . S
C701 C702 1.523 . S
C702 C686 1.368 . S
C702 C698 1.368 . S
C702 C701 1.523 . S
H703 C678 0.950 . S
H704 C680 0.950 . S
H705 C681 0.949 . S
H706 C683 0.950 . S
H707 C685 0.950 . S
C708 C709 1.349 . S
C708 C710 1.327 . S
C708 H733 0.950 . S
C709 C708 1.349 . S
C709 C725 1.349 . S
C710 C708 1.327 . S
C710 C729 1.429 . S
C710 H734 0.950 . S
C711 C728 1.574 . S
C711 C730 1.368 . S
C711 H735 0.949 . S
H712 C716 0.949 . S
C713 C714 1.349 . S
C713 C715 1.327 . S
C713 H736 0.950 . S
C714 C713 1.349 . S
C714 C726 1.349 . S
C715 C713 1.327 . S
C715 C731 1.429 . S
C715 H737 0.950 . S
C716 H712 0.949 . S
C716 C724 1.574 . S
C716 C732 1.368 . S
H717 C725 0.950 . S
H718 C723 0.950 . S
H719 C724 0.949 . S
H720 C726 0.950 . S
H721 C727 0.950 . S
H722 C728 0.949 . S
C723 H718 0.950 . S
C723 C725 1.327 . S
C723 C729 1.429 . S
C724 C716 1.574 . S
C724 H719 0.949 . S
C724 C730 1.368 . S
C725 C709 1.349 . S
C725 H717 0.950 . S
C725 C723 1.327 . S
C726 C714 1.349 . S
C726 H720 0.950 . S
C726 C727 1.327 . S
C727 H721 0.950 . S
C727 C726 1.327 . S
C727 C731 1.429 . S
C728 C711 1.574 . S
C728 H722 0.949 . S
C728 C732 1.368 . S
C729 C710 1.429 . S
C729 C723 1.429 . S
C729 C730 1.523 . S
C730 C711 1.368 . S
C730 C724 1.368 . S
C730 C729 1.523 . S
C731 C715 1.429 . S
C731 C727 1.429 . S
C731 C732 1.523 . S
C732 C716 1.368 . S
C732 C728 1.368 . S
C732 C731 1.523 . S
H733 C708 0.950 . S
H734 C710 0.950 . S
H735 C711 0.949 . S
H736 C713 0.950 . S
H737 C715 0.950 . S
C738 C739 1.349 . S
C738 C740 1.327 . S
C738 H763 0.950 . S
C739 C738 1.349 . S
C739 C755 1.349 . S
C740 C738 1.327 . S
C740 C759 1.429 . S
C740 H764 0.950 . S
C741 C758 1.574 . S
C741 C760 1.368 . S
C741 H765 0.949 . S
H742 C746 0.949 . S
C743 C744 1.349 . S
C743 C745 1.327 . S
C743 H766 0.950 . S
C744 C743 1.349 . S
C744 C756 1.349 . S
C745 C743 1.327 . S
C745 C761 1.429 . S
C745 H767 0.950 . S
C746 H742 0.949 . S
C746 C754 1.574 . S
C746 C762 1.368 . S
H747 C755 0.950 . S
H748 C753 0.950 . S
H749 C754 0.949 . S
H750 C756 0.950 . S
H751 C757 0.950 . S
H752 C758 0.949 . S
C753 H748 0.950 . S
C753 C755 1.327 . S
C753 C759 1.429 . S
C754 C746 1.574 . S
C754 H749 0.949 . S
C754 C760 1.368 1_455 S
C755 C739 1.349 . S
C755 H747 0.950 . S
C755 C753 1.327 . S
C756 C744 1.349 . S
C756 H750 0.950 . S
C756 C757 1.327 . S
C757 H751 0.950 . S
C757 C756 1.327 . S
C757 C761 1.429 . S
C758 C741 1.574 . S
C758 H752 0.949 . S
C758 C762 1.368 1_655 S
C759 C740 1.429 . S
C759 C753 1.429 . S
C759 C760 1.523 . S
C760 C741 1.368 . S
C760 C754 1.368 1_655 S
C760 C759 1.523 . S
C761 C745 1.429 . S
C761 C757 1.429 . S
C761 C762 1.523 . S
C762 C746 1.368 . S
C762 C758 1.368 1_455 S
C762 C761 1.523 . S
H763 C738 0.950 . S
H764 C740 0.950 . S
H765 C741 0.949 . S
H766 C743 0.950 . S
H767 C745 0.950 . S
C768 C769 1.349 . S
C768 C770 1.327 . S
C768 H793 0.950 . S
C769 C768 1.349 . S
C769 C785 1.349 . S
C770 C768 1.327 . S
C770 C789 1.429 . S
C770 H794 0.950 1_545 S
C771 C788 1.574 1_554 S
C771 C790 1.368 . S
C771 H795 0.949 . S
H772 C776 0.949 . S
C773 C774 1.349 . S
C773 C775 1.327 . S
C773 H796 0.950 . S
C774 C773 1.349 . S
C774 C786 1.349 . S
C775 C773 1.327 . S
C775 C791 1.429 . S
C775 H797 0.950 1_565 S
C776 H772 0.949 . S
C776 C784 1.574 1_556 S
C776 C792 1.368 . S
H777 C785 0.950 . S
H778 C783 0.950 . S
H779 C784 0.949 . S
H780 C786 0.950 . S
H781 C787 0.950 . S
H782 C788 0.949 . S
C783 H778 0.950 . S
C783 C785 1.327 . S
C783 C789 1.429 . S
C784 C776 1.574 1_554 S
C784 H779 0.949 . S
C784 C790 1.368 1_565 S
C785 C769 1.349 . S
C785 H777 0.950 . S
C785 C783 1.327 . S
C786 C774 1.349 . S
C786 H780 0.950 . S
C786 C787 1.327 . S
C787 H781 0.950 . S
C787 C786 1.327 . S
C787 C791 1.429 . S
C788 C771 1.574 1_556 S
C788 H782 0.949 . S
C788 C792 1.368 1_545 S
C789 C770 1.429 . S
C789 C783 1.429 . S
C789 C790 1.523 . S
C790 C771 1.368 . S
C790 C784 1.368 1_545 S
C790 C789 1.523 . S
C791 C775 1.429 . S
C791 C787 1.429 . S
C791 C792 1.523 . S
C792 C776 1.368 . S
C792 C788 1.368 1_565 S
C792 C791 1.523 . S
H793 C768 0.950 . S
H794 C770 0.950 1_565 S
H795 C771 0.949 . S
H796 C773 0.950 . S
H797 C775 0.950 1_545 S
C798 C799 1.349 . S
C798 C800 1.327 . S
C798 H823 0.950 . S
C799 C798 1.349 . S
C799 C815 1.349 . S
C800 C798 1.327 . S
C800 C819 1.429 . S
C800 H824 0.950 . S
C801 C818 1.574 . S
C801 C820 1.368 . S
C801 H825 0.949 . S
H802 C806 0.949 . S
C803 C804 1.349 . S
C803 C805 1.327 . S
C803 H826 0.950 . S
C804 C803 1.349 . S
C804 C816 1.349 . S
C805 C803 1.327 . S
C805 C821 1.429 . S
C805 H827 0.950 . S
C806 H802 0.949 . S
C806 C814 1.574 . S
C806 C822 1.368 . S
H807 C815 0.950 . S
H808 C813 0.950 . S
H809 C814 0.949 . S
H810 C816 0.950 . S
H811 C817 0.950 . S
H812 C818 0.949 . S
C813 H808 0.950 . S
C813 C815 1.327 . S
C813 C819 1.429 . S
C814 C806 1.574 . S
C814 H809 0.949 . S
C814 C820 1.368 . S
C815 C799 1.349 . S
C815 H807 0.950 . S
C815 C813 1.327 . S
C816 C804 1.349 . S
C816 H810 0.950 . S
C816 C817 1.327 . S
C817 H811 0.950 . S
C817 C816 1.327 . S
C817 C821 1.429 . S
C818 C801 1.574 . S
C818 H812 0.949 . S
C818 C822 1.368 . S
C819 C800 1.429 . S
C819 C813 1.429 . S
C819 C820 1.523 . S
C820 C801 1.368 . S
C820 C814 1.368 . S
C820 C819 1.523 . S
C821 C805 1.429 . S
C821 C817 1.429 . S
C821 C822 1.523 . S
C822 C806 1.368 . S
C822 C818 1.368 . S
C822 C821 1.523 . S
H823 C798 0.950 . S
H824 C800 0.950 . S
H825 C801 0.949 . S
H826 C803 0.950 . S
H827 C805 0.950 . S
C828 C829 1.349 . S
C828 C830 1.327 . S
C828 H853 0.950 . S
C829 C828 1.349 . S
C829 C845 1.349 . S
C830 C828 1.327 . S
C830 C849 1.429 . S
C830 H854 0.950 . S
C831 C848 1.574 1_455 S
C831 C850 1.368 . S
C831 H855 0.949 . S
H832 C836 0.949 . S
C833 C834 1.349 . S
C833 C835 1.327 . S
C833 H856 0.950 . S
C834 C833 1.349 . S
C834 C846 1.349 . S
C835 C833 1.327 . S
C835 C851 1.429 . S
C835 H857 0.950 . S
C836 H832 0.949 . S
C836 C844 1.574 1_655 S
C836 C852 1.368 . S
H837 C845 0.950 . S
H838 C843 0.950 . S
H839 C844 0.949 . S
H840 C846 0.950 . S
H841 C847 0.950 . S
H842 C848 0.949 . S
C843 H838 0.950 . S
C843 C845 1.327 . S
C843 C849 1.429 . S
C844 C836 1.574 1_455 S
C844 H839 0.949 . S
C844 C850 1.368 . S
C845 C829 1.349 . S
C845 H837 0.950 . S
C845 C843 1.327 . S
C846 C834 1.349 . S
C846 H840 0.950 . S
C846 C847 1.327 . S
C847 H841 0.950 . S
C847 C846 1.327 . S
C847 C851 1.429 . S
C848 C831 1.574 1_655 S
C848 H842 0.949 . S
C848 C852 1.368 . S
C849 C830 1.429 . S
C849 C843 1.429 . S
C849 C850 1.523 . S
C850 C831 1.368 . S
C850 C844 1.368 . S
C850 C849 1.523 . S
C851 C835 1.429 . S
C851 C847 1.429 . S
C851 C852 1.523 . S
C852 C836 1.368 . S
C852 C848 1.368 . S
C852 C851 1.523 . S
H853 C828 0.950 . S
H854 C830 0.950 . S
H855 C831 0.949 . S
H856 C833 0.950 . S
H857 C835 0.950 . S
C858 C859 1.349 . S
C858 C860 1.327 . S
C858 H883 0.950 1_565 S
C859 C858 1.349 . S
C859 C875 1.349 . S
C860 C858 1.327 . S
C860 C879 1.429 . S
C860 H884 0.950 1_565 S
C861 C878 1.574 1_554 S
C861 C880 1.368 . S
C861 H885 0.949 . S
H862 C866 0.949 . S
C863 C864 1.349 . S
C863 C865 1.327 . S
C863 H886 0.950 1_545 S
C864 C863 1.349 . S
C864 C876 1.349 . S
C865 C863 1.327 . S
C865 C881 1.429 . S
C865 H887 0.950 1_545 S
C866 H862 0.949 . S
C866 C874 1.574 1_556 S
C866 C882 1.368 . S
H867 C875 0.950 . S
H868 C873 0.950 . S
H869 C874 0.949 . S
H870 C876 0.950 . S
H871 C877 0.950 . S
H872 C878 0.949 . S
C873 H868 0.950 . S
C873 C875 1.327 . S
C873 C879 1.429 . S
C874 C866 1.574 1_554 S
C874 H869 0.949 . S
C874 C880 1.368 1_545 S
C875 C859 1.349 . S
C875 H867 0.950 . S
C875 C873 1.327 . S
C876 C864 1.349 . S
C876 H870 0.950 . S
C876 C877 1.327 . S
C877 H871 0.950 . S
C877 C876 1.327 . S
C877 C881 1.429 . S
C878 C861 1.574 1_556 S
C878 H872 0.949 . S
C878 C882 1.368 1_565 S
C879 C860 1.429 . S
C879 C873 1.429 . S
C879 C880 1.523 . S
C880 C861 1.368 . S
C880 C874 1.368 1_565 S
C880 C879 1.523 . S
C881 C865 1.429 . S
C881 C877 1.429 . S
C881 C882 1.523 . S
C882 C866 1.368 . S
C882 C878 1.368 1_545 S
C882 C881 1.523 . S
H883 C858 0.950 1_545 S
H884 C860 0.950 1_545 S
H885 C861 0.949 . S
H886 C863 0.950 1_565 S
H887 C865 0.950 1_565 S
C169 C165 1.681 . S
C174 C11 1.681 . S
C199 C25 1.681 . S
C204 C95 1.681 . S
C229 C39 1.681 . S
C234 C109 1.681 . S
C259 C53 1.681 . S
C264 C123 1.681 . S
C289 C137 1.681 . S
C294 C67 1.681 . S
C319 C81 1.681 . S
C324 C151 1.681 . S
C349 C47 1.108 . S
C354 C5 1.108 . S
C379 C61 1.108 . S
C384 C19 1.108 . S
C409 C75 1.108 . S
C414 C33 1.108 . S
C439 C89 1.108 . S
C444 C131 1.108 . S
C469 C103 1.108 . S
C474 C145 1.108 . S
C499 C117 1.108 . S
C504 C159 1.108 . S
C529 C121 0.238 . S
C534 C9 0.238 . S
C559 C23 0.238 . S
C564 C135 0.238 . S
C589 C149 0.238 . S
C594 C37 0.238 . S
C619 C163 0.238 . S
C624 C51 0.238 . S
C649 C93 0.238 . S
C654 C65 0.238 . S
C679 C79 0.238 . S
C684 C107 0.238 . S
C709 C126 1.642 . S
C714 C0 1.642 . S
C739 C14 1.642 . S
C744 C140 1.642 . S
C769 C154 1.642 . S
C774 C28 1.642 . S
C799 C42 1.642 . S
C804 C84 1.642 . S
C829 C56 1.643 . S
C834 C98 1.643 . S
C859 C112 1.643 . S
C864 C70 1.643 . S
