# Generated by pormake.
# Topology umx, (4)-cn, num edge types: 1
# Building blocks:
#     Node 0, Type 0, BuildingBlock: KUFVIS_clean_sbu_0, # of connection points: 4
#     Node 1, Type 0, BuildingBlock: KUFVIS_clean_sbu_0, # of connection points: 4
#     Node 2, Type 0, BuildingBlock: KUFVIS_clean_sbu_0, # of connection points: 4
#     Node 3, Type 0, BuildingBlock: KUFVIS_clean_sbu_0, # of connection points: 4
#     Node 4, Type 0, BuildingBlock: KUFVIS_clean_sbu_0, # of connection points: 4
#     Node 5, Type 0, BuildingBlock: KUFVIS_clean_sbu_0, # of connection points: 4
#     Node 6, Type 0, BuildingBlock: KUFVIS_clean_sbu_0, # of connection points: 4
#     Node 7, Type 0, BuildingBlock: KUFVIS_clean_sbu_0, # of connection points: 4
#     Edge 8, Type (0, 0), BuildingBlock: FUNLAD_clean_linker_0, # of connection points: 2
#     Edge 9, Type (0, 0), BuildingBlock: FUNLAD_clean_linker_0, # of connection points: 2
#     Edge 10, Type (0, 0), BuildingBlock: FUNLAD_clean_linker_0, # of connection points: 2
#     Edge 11, Type (0, 0), BuildingBlock: FUNLAD_clean_linker_0, # of connection points: 2
#     Edge 12, Type (0, 0), BuildingBlock: FUNLAD_clean_linker_0, # of connection points: 2
#     Edge 13, Type (0, 0), BuildingBlock: FUNLAD_clean_linker_0, # of connection points: 2
#     Edge 14, Type (0, 0), BuildingBlock: FUNLAD_clean_linker_0, # of connection points: 2
#     Edge 15, Type (0, 0), BuildingBlock: FUNLAD_clean_linker_0, # of connection points: 2
#     Edge 16, Type (0, 0), BuildingBlock: FUNLAD_clean_linker_0, # of connection points: 2
#     Edge 17, Type (0, 0), BuildingBlock: FUNLAD_clean_linker_0, # of connection points: 2
#     Edge 18, Type (0, 0), BuildingBlock: FUNLAD_clean_linker_0, # of connection points: 2
#     Edge 19, Type (0, 0), BuildingBlock: FUNLAD_clean_linker_0, # of connection points: 2
#     Edge 20, Type (0, 0), BuildingBlock: FUNLAD_clean_linker_0, # of connection points: 2
#     Edge 21, Type (0, 0), BuildingBlock: FUNLAD_clean_linker_0, # of connection points: 2
#     Edge 22, Type (0, 0), BuildingBlock: FUNLAD_clean_linker_0, # of connection points: 2
#     Edge 23, Type (0, 0), BuildingBlock: FUNLAD_clean_linker_0, # of connection points: 2
# Relax obj value: 0.122
# Max RMSD: 0.265
# Mean RMSD: 0.231
data_MOF--net-umx--node1-KUFVIS_clean_sbu_0--edge1-FUNLAD_clean_linker_0
_symmetry_space_group_name_H-M    P1
_symmetry_Int_Tables_number       1
_symmetry_cell_setting            triclinic
loop_
_symmetry_equiv_pos_as_xyz
'x, y, z'
_cell_length_a     40.233746
_cell_length_b     48.5551
_cell_length_c     32.830447
_cell_angle_alpha  90.010826
_cell_angle_beta   89.960738
_cell_angle_gamma 90.141988
loop_
_atom_site_label
_atom_site_type_symbol
_atom_site_fract_x
_atom_site_fract_y
_atom_site_fract_z
_atom_type_partial_charge
Mn0 Mn 0.19056 0.43916 0.00787 0.0
Mn1 Mn 0.14438 0.40013 0.94444 0.0
C2 C 0.13694 0.4521 0.99345 0.0
C3 C 0.21053 0.44635 0.07355 0.0
C4 C 0.19968 0.43845 0.91599 0.0
O5 O 0.21563 0.40325 0.00415 0.0
O6 O 0.17954 0.37674 0.96915 0.0
C7 C 0.11281 0.36229 0.00368 0.0
N8 N 0.10997 0.38138 0.97352 0.0
C9 C 0.05029 0.37814 0.97483 0.0
C10 C 0.05258 0.3583 0.00573 0.0
C11 C 0.08398 0.35039 0.02027 0.0
C12 C 0.07989 0.38916 0.95932 0.0
H13 H 0.13691 0.35621 0.01499 0.0
C14 C 0.20628 0.3801 0.98978 0.0
O15 O 0.22641 0.45582 0.04201 0.0
O16 O 0.18315 0.43299 0.06682 0.0
N17 N 0.1092 0.42016 0.91879 0.0
C18 C 0.11124 0.44084 0.89083 0.0
C19 C 0.08195 0.45184 0.8743 0.0
C20 C 0.05093 0.44134 0.88643 0.0
C21 C 0.04946 0.41989 0.91496 0.0
C22 C 0.07948 0.40963 0.93021 0.0
H23 H 0.13499 0.44899 0.88134 0.0
O24 O 0.15784 0.46993 0.00814 0.0
O25 O 0.14791 0.42715 0.98863 0.0
O26 O 0.20586 0.4496 0.95038 0.0
O27 O 0.17851 0.41903 0.9113 0.0
C28 C 0.01938 0.40869 0.92951 0.0
C29 C 0.01979 0.38785 0.95945 0.0
H30 H 0.03039 0.34919 0.01878 0.0
H31 H 0.08594 0.3352 0.04426 0.0
H32 H 0.08329 0.46842 0.85234 0.0
H33 H 0.02839 0.45006 0.87389 0.0
H34 H 0.99577 0.41628 0.91839 0.0
H35 H 0.99649 0.37971 0.97088 0.0
Mn36 Mn 0.53206 0.17197 0.51511 0.0
Mn37 Mn 0.49957 0.23589 0.52104 0.0
C38 C 0.52811 0.19287 0.57737 0.0
C39 C 0.52343 0.1248 0.51042 0.0
C40 C 0.57043 0.22479 0.49538 0.0
O41 O 0.51115 0.17741 0.46 0.0
O42 O 0.48893 0.2196 0.46668 0.0
C43 C 0.42887 0.21903 0.52188 0.0
N44 N 0.45481 0.23239 0.53981 0.0
C45 C 0.42077 0.2458 0.59671 0.0
C46 C 0.3936 0.23237 0.57871 0.0
C47 C 0.3977 0.21889 0.54116 0.0
C48 C 0.4512 0.2453 0.57602 0.0
H49 H 0.43201 0.20851 0.49316 0.0
C50 C 0.49512 0.19783 0.44602 0.0
O51 O 0.55058 0.1361 0.49683 0.0
O52 O 0.50152 0.14093 0.5268 0.0
N53 N 0.50776 0.25481 0.57116 0.0
C54 C 0.53647 0.26678 0.58436 0.0
C55 C 0.53671 0.28095 0.62166 0.0
C56 C 0.50736 0.28302 0.64465 0.0
C57 C 0.47791 0.27118 0.62987 0.0
C58 C 0.47914 0.25747 0.59237 0.0
H59 H 0.55908 0.26526 0.56678 0.0
O60 O 0.54756 0.17189 0.5722 0.0
O61 O 0.50995 0.20017 0.54622 0.0
O62 O 0.56961 0.19862 0.49944 0.0
O63 O 0.54577 0.24066 0.50254 0.0
C64 C 0.44749 0.27214 0.6511 0.0
C65 C 0.41896 0.2594 0.63458 0.0
H66 H 0.36955 0.23213 0.59355 0.0
H67 H 0.37689 0.20836 0.52718 0.0
H68 H 0.55949 0.29017 0.63274 0.0
H69 H 0.50771 0.29374 0.67359 0.0
H70 H 0.44582 0.28244 0.6803 0.0
H71 H 0.39577 0.2601 0.65132 0.0
Mn72 Mn 0.79214 0.53512 0.02215 0.0
Mn73 Mn 0.83348 0.58059 0.96303 0.0
C74 C 0.84648 0.52657 0.00473 0.0
C75 C 0.77371 0.52161 0.08598 0.0
C76 C 0.7819 0.54033 0.93081 0.0
O77 O 0.76358 0.56933 0.02419 0.0
O78 O 0.79619 0.59968 0.99092 0.0
C79 C 0.86135 0.61704 0.02678 0.0
N80 N 0.86598 0.60011 0.9942 0.0
C81 C 0.92508 0.60775 0.99555 0.0
C82 C 0.92093 0.62542 0.02896 0.0
C83 C 0.88893 0.63002 0.04469 0.0
C84 C 0.89665 0.5955 0.97886 0.0
H85 H 0.8368 0.62057 0.03901 0.0
C86 C 0.77036 0.59362 0.01199 0.0
O87 O 0.7584 0.51377 0.05315 0.0
O88 O 0.79957 0.53738 0.08167 0.0
N89 N 0.87046 0.56498 0.93455 0.0
C90 C 0.8704 0.54616 0.90374 0.0
C91 C 0.90059 0.53858 0.88546 0.0
C92 C 0.93047 0.55059 0.89878 0.0
C93 C 0.92987 0.57014 0.93019 0.0
C94 C 0.89901 0.57702 0.94708 0.0
H95 H 0.84754 0.53687 0.89332 0.0
O96 O 0.82744 0.50668 0.01725 0.0
O97 O 0.8334 0.55104 0.00386 0.0
O98 O 0.777 0.52746 0.96408 0.0
O99 O 0.80127 0.56113 0.92772 0.0
C100 C 0.95875 0.58265 0.94599 0.0
C101 C 0.95636 0.60141 0.97868 0.0
H102 H 0.94216 0.63537 0.04299 0.0
H103 H 0.88555 0.64352 0.07059 0.0
H104 H 0.90084 0.52346 0.86124 0.0
H105 H 0.95373 0.54449 0.88487 0.0
H106 H 0.98297 0.57766 0.93364 0.0
H107 H 0.97879 0.61058 0.99096 0.0
Mn108 Mn 0.45638 0.82809 0.51637 0.0
Mn109 Mn 0.49795 0.76804 0.51074 0.0
C110 C 0.47028 0.80577 0.57536 0.0
C111 C 0.45924 0.87582 0.51454 0.0
C112 C 0.42375 0.77336 0.49577 0.0
O113 O 0.47114 0.826 0.45772 0.0
O114 O 0.50363 0.78838 0.45839 0.0
C115 C 0.56638 0.7904 0.50795 0.0
N116 N 0.54316 0.77408 0.52616 0.0
C117 C 0.58199 0.7601 0.57783 0.0
C118 C 0.60641 0.7766 0.55946 0.0
C119 C 0.59854 0.79186 0.52441 0.0
C120 C 0.55041 0.7594 0.55997 0.0
H121 H 0.56034 0.80227 0.48115 0.0
C122 C 0.49079 0.8092 0.44037 0.0
O123 O 0.43202 0.86294 0.50472 0.0
O124 O 0.4844 0.86094 0.52548 0.0
N125 N 0.49488 0.74592 0.55884 0.0
C126 C 0.46836 0.73131 0.57313 0.0
C127 C 0.47195 0.71519 0.60835 0.0
C128 C 0.50283 0.71401 0.62823 0.0
C129 C 0.52994 0.72873 0.61243 0.0
C130 C 0.52494 0.74426 0.57703 0.0
H131 H 0.44458 0.73212 0.55797 0.0
O132 O 0.44793 0.82498 0.57568 0.0
O133 O 0.4852 0.80126 0.54076 0.0
O134 O 0.42095 0.79883 0.5049 0.0
O135 O 0.45136 0.76032 0.4956 0.0
C136 C 0.56163 0.72888 0.63068 0.0
C137 C 0.58761 0.7446 0.61344 0.0
H138 H 0.63122 0.77786 0.57215 0.0
H139 H 0.61721 0.80475 0.51018 0.0
H140 H 0.45094 0.70378 0.62025 0.0
H141 H 0.50541 0.70175 0.6556 0.0
H142 H 0.5662 0.71716 0.65817 0.0
H143 H 0.61178 0.74474 0.62796 0.0
Mn144 Mn 0.20253 0.52779 0.48749 0.0
Mn145 Mn 0.15864 0.56932 0.54971 0.0
C146 C 0.14864 0.51638 0.50335 0.0
C147 C 0.2213 0.51909 0.4217 0.0
C148 C 0.21173 0.52957 0.57939 0.0
O149 O 0.22961 0.56282 0.48973 0.0
O150 O 0.19519 0.59099 0.52408 0.0
C151 C 0.12936 0.60695 0.48866 0.0
N152 N 0.12538 0.58868 0.51975 0.0
C153 C 0.06595 0.59402 0.51817 0.0
C154 C 0.06942 0.61304 0.4863 0.0
C155 C 0.10126 0.61948 0.47143 0.0
C156 C 0.09487 0.58229 0.53425 0.0
H157 H 0.1538 0.6119 0.47709 0.0
C158 C 0.22172 0.58643 0.50355 0.0
O159 O 0.23712 0.50951 0.45316 0.0
O160 O 0.19478 0.53344 0.42861 0.0
N161 N 0.1223 0.55124 0.57637 0.0
C162 C 0.12311 0.5313 0.60557 0.0
C163 C 0.0932 0.52183 0.62272 0.0
C164 C 0.06283 0.53314 0.61 0.0
C165 C 0.06265 0.55388 0.5803 0.0
C166 C 0.09325 0.56259 0.56444 0.0
H167 H 0.14635 0.52255 0.61555 0.0
O168 O 0.16863 0.49793 0.48868 0.0
O169 O 0.1605 0.54123 0.50688 0.0
O170 O 0.21755 0.51781 0.54531 0.0
O171 O 0.1916 0.54974 0.58345 0.0
C172 C 0.03327 0.56585 0.56521 0.0
C173 C 0.03491 0.58585 0.53409 0.0
H174 H 0.0478 0.62264 0.4728 0.0
H175 H 0.10412 0.63403 0.4467 0.0
H176 H 0.09355 0.50581 0.64562 0.0
H177 H 0.0398 0.5256 0.62302 0.0
H178 H 0.00925 0.55951 0.57687 0.0
H179 H 0.01212 0.59457 0.52227 0.0
Mn180 Mn 0.47733 0.17536 0.00193 0.0
Mn181 Mn 0.5096 0.23956 0.99727 0.0
C182 C 0.48487 0.1956 0.9396 0.0
C183 C 0.48527 0.12823 0.00833 0.0
C184 C 0.43759 0.22789 0.01728 0.0
O185 O 0.49466 0.18177 0.05878 0.0
O186 O 0.5176 0.2238 0.05254 0.0
C187 C 0.58039 0.22361 0.00218 0.0
N188 N 0.55529 0.23656 0.98211 0.0
C189 C 0.59217 0.25051 0.92817 0.0
C190 C 0.6185 0.2375 0.94841 0.0
C191 C 0.61255 0.22394 0.98553 0.0
C192 C 0.56068 0.24952 0.94628 0.0
H193 H 0.57584 0.21306 0.03061 0.0
C194 C 0.50992 0.20245 0.07352 0.0
O195 O 0.45759 0.13976 0.01937 0.0
O196 O 0.50837 0.14416 0.99383 0.0
N197 N 0.50381 0.25806 0.94635 0.0
C198 C 0.4757 0.26956 0.93075 0.0
C199 C 0.47728 0.28373 0.89351 0.0
C200 C 0.50781 0.28632 0.87306 0.0
C201 C 0.53657 0.27498 0.8903 0.0
C202 C 0.53349 0.26123 0.92761 0.0
H203 H 0.45218 0.26767 0.9464 0.0
O204 O 0.46533 0.17449 0.94356 0.0
O205 O 0.50107 0.20343 0.9721 0.0
O206 O 0.4389 0.20175 0.01351 0.0
O207 O 0.46246 0.24397 0.01209 0.0
C208 C 0.5681 0.27646 0.87169 0.0
C209 C 0.59586 0.26418 0.89056 0.0
H210 H 0.64332 0.23765 0.93562 0.0
H211 H 0.63271 0.21374 0.00123 0.0
H212 H 0.45501 0.29257 0.88053 0.0
H213 H 0.50888 0.29705 0.84417 0.0
H214 H 0.57122 0.28682 0.84271 0.0
H215 H 0.61991 0.26527 0.8758 0.0
Mn216 Mn 0.79722 0.45038 0.5052 0.0
Mn217 Mn 0.84756 0.41393 0.56689 0.0
C218 C 0.84974 0.46654 0.51902 0.0
C219 C 0.77559 0.4583 0.44086 0.0
C220 C 0.78971 0.44845 0.59716 0.0
O221 O 0.77551 0.41279 0.5078 0.0
O222 O 0.81377 0.38868 0.54293 0.0
C223 C 0.88076 0.37821 0.50626 0.0
N224 N 0.88273 0.39733 0.53651 0.0
C225 C 0.94249 0.39754 0.53333 0.0
C226 C 0.94111 0.37772 0.50231 0.0
C227 C 0.91011 0.36807 0.48865 0.0
C228 C 0.91242 0.4068 0.54982 0.0
H229 H 0.85697 0.37077 0.49565 0.0
C230 C 0.78684 0.3903 0.52223 0.0
O231 O 0.75947 0.46559 0.47339 0.0
O232 O 0.80402 0.44618 0.4458 0.0
N233 N 0.88163 0.43585 0.59164 0.0
C234 C 0.87857 0.45631 0.61981 0.0
C235 C 0.90727 0.46894 0.63551 0.0
C236 C 0.93878 0.46027 0.62237 0.0
C237 C 0.94131 0.43902 0.59363 0.0
C238 C 0.91184 0.42714 0.57914 0.0
H239 H 0.85444 0.46305 0.63009 0.0
O240 O 0.82704 0.4832 0.50568 0.0
O241 O 0.84113 0.44085 0.52306 0.0
O242 O 0.78186 0.4589 0.56294 0.0
O243 O 0.81278 0.43064 0.60147 0.0
C244 C 0.97188 0.42951 0.57822 0.0
C245 C 0.97248 0.40885 0.54801 0.0
H246 H 0.96368 0.36994 0.48851 0.0
H247 H 0.90884 0.35287 0.46458 0.0
H248 H 0.9051 0.48536 0.65764 0.0
H249 H 0.96085 0.47021 0.63431 0.0
H250 H 0.99508 0.4383 0.58887 0.0
H251 H 0.99613 0.40208 0.53586 0.0
Mn252 Mn 0.52929 0.82912 0.99086 0.0
Mn253 Mn 0.48378 0.7707 0.99517 0.0
C254 C 0.51383 0.80796 0.93145 0.0
C255 C 0.53053 0.87687 0.99367 0.0
C256 C 0.55832 0.77244 0.00872 0.0
O257 O 0.51447 0.82733 0.04945 0.0
O258 O 0.48094 0.79023 0.04855 0.0
C259 C 0.41744 0.79654 0.00138 0.0
N260 N 0.43881 0.77935 0.98173 0.0
C261 C 0.39764 0.76827 0.93116 0.0
C262 C 0.37509 0.7857 0.95102 0.0
C263 C 0.38507 0.79994 0.98623 0.0
C264 C 0.42953 0.76568 0.94771 0.0
H265 H 0.42509 0.80762 0.02833 0.0
C266 C 0.49462 0.81064 0.0668 0.0
O267 O 0.55653 0.8624 0.00322 0.0
O268 O 0.50413 0.86354 0.98239 0.0
N269 N 0.48381 0.74927 0.94626 0.0
C270 C 0.50855 0.73323 0.93079 0.0
C271 C 0.50268 0.71774 0.89538 0.0
C272 C 0.47134 0.71857 0.87661 0.0
C273 C 0.446 0.73463 0.89372 0.0
C274 C 0.45324 0.74948 0.92921 0.0
H275 H 0.53267 0.73245 0.94514 0.0
O276 O 0.53755 0.8261 0.93155 0.0
O277 O 0.49849 0.80383 0.96593 0.0
O278 O 0.56237 0.79812 0.00181 0.0
O279 O 0.53001 0.76036 0.00804 0.0
C280 C 0.41396 0.73672 0.87674 0.0
C281 C 0.38982 0.75358 0.89538 0.0
H282 H 0.35013 0.78843 0.93938 0.0
H283 H 0.36787 0.81353 0.00162 0.0
H284 H 0.52231 0.70525 0.88252 0.0
H285 H 0.467 0.70678 0.8491 0.0
H286 H 0.40769 0.72559 0.84919 0.0
H287 H 0.36535 0.75518 0.88186 0.0
C288 C 0.24573 0.47148 0.12459 0.0
C289 C 0.22254 0.45069 0.11556 0.0
C290 C 0.25469 0.47685 0.16504 0.0
C291 C 0.24083 0.46126 0.19701 0.0
C292 C 0.21911 0.43955 0.18763 0.0
C293 C 0.20976 0.4345 0.1474 0.0
C294 C 0.24684 0.46792 0.2405 0.0
C295 C 0.24985 0.49401 0.25385 0.0
C296 C 0.24644 0.50131 0.29751 0.0
C297 C 0.22917 0.52539 0.30764 0.0
C298 C 0.22175 0.53139 0.34817 0.0
C299 C 0.23219 0.51376 0.37953 0.0
H300 H 0.27219 0.46576 0.32208 0.0
C301 C 0.25128 0.49051 0.36975 0.0
C302 C 0.25817 0.48418 0.32896 0.0
H303 H 0.25978 0.47668 0.39342 0.0
H304 H 0.25617 0.48413 0.10058 0.0
H305 H 0.27214 0.49333 0.17124 0.0
H306 H 0.20827 0.42713 0.21166 0.0
H307 H 0.19215 0.41809 0.14132 0.0
H308 H 0.2436 0.45139 0.2625 0.0
H309 H 0.24956 0.5108 0.23197 0.0
H310 H 0.22007 0.539 0.284 0.0
H311 H 0.20731 0.54964 0.35489 0.0
C312 C 0.49511 0.20338 0.63949 0.0
C313 C 0.52531 0.20463 0.61834 0.0
C314 C 0.4939 0.20979 0.681 0.0
C315 C 0.52312 0.21727 0.7021 0.0
C316 C 0.55314 0.21889 0.68043 0.0
C317 C 0.55429 0.21239 0.63907 0.0
C318 C 0.52423 0.21978 0.74721 0.0
C319 C 0.49724 0.22445 0.77049 0.0
C320 C 0.49624 0.22067 0.81557 0.0
C321 C 0.46507 0.22165 0.83483 0.0
C322 C 0.46173 0.21465 0.87583 0.0
C323 C 0.48963 0.20726 0.89882 0.0
H324 H 0.54904 0.2129 0.82626 0.0
C325 C 0.52096 0.20683 0.88029 0.0
C326 C 0.52439 0.21377 0.83914 0.0
H327 H 0.54263 0.20033 0.8973 0.0
H328 H 0.47275 0.19629 0.62434 0.0
H329 H 0.47042 0.2073 0.69661 0.0
H330 H 0.57607 0.22418 0.6959 0.0
H331 H 0.57801 0.21273 0.62342 0.0
H332 H 0.54815 0.21614 0.76125 0.0
H333 H 0.47392 0.22947 0.75567 0.0
H334 H 0.44291 0.22676 0.8177 0.0
H335 H 0.43719 0.21449 0.88947 0.0
C336 C 0.77664 0.45138 0.36575 0.0
C337 C 0.76328 0.46488 0.39979 0.0
C338 C 0.76804 0.45964 0.32649 0.0
C339 C 0.74607 0.48177 0.32054 0.0
C340 C 0.73191 0.4947 0.35459 0.0
C341 C 0.74011 0.48609 0.39395 0.0
C342 C 0.7413 0.49395 0.27965 0.0
C343 C 0.74349 0.47909 0.24521 0.0
C344 C 0.74758 0.49204 0.20472 0.0
C345 C 0.73632 0.47816 0.16986 0.0
C346 C 0.74358 0.4884 0.13105 0.0
C347 C 0.76302 0.51228 0.12659 0.0
H348 H 0.77588 0.52731 0.22635 0.0
C349 C 0.77378 0.52642 0.16145 0.0
C350 C 0.76602 0.5165 0.20015 0.0
H351 H 0.7888 0.54489 0.15884 0.0
H352 H 0.79456 0.43494 0.36943 0.0
H353 H 0.78012 0.44966 0.301 0.0
H354 H 0.71522 0.51198 0.35075 0.0
H355 H 0.72955 0.49692 0.41972 0.0
H356 H 0.73764 0.51609 0.27789 0.0
H357 H 0.74387 0.45674 0.24673 0.0
H358 H 0.72245 0.45909 0.17266 0.0
H359 H 0.73512 0.47703 0.10461 0.0
C360 C 0.52731 0.78274 0.86815 0.0
C361 C 0.50362 0.79591 0.89257 0.0
C362 C 0.51941 0.77478 0.82848 0.0
C363 C 0.48797 0.78092 0.81203 0.0
C364 C 0.46401 0.79339 0.83716 0.0
C365 C 0.47187 0.80109 0.877 0.0
C366 C 0.47995 0.77675 0.76829 0.0
C367 C 0.50329 0.77557 0.7388 0.0
C368 C 0.49547 0.77894 0.69488 0.0
C369 C 0.52 0.79008 0.66916 0.0
C370 C 0.51232 0.79753 0.62918 0.0
C371 C 0.48017 0.79335 0.61408 0.0
H372 H 0.44437 0.76411 0.69709 0.0
C373 C 0.45596 0.78123 0.63902 0.0
C374 C 0.46366 0.77356 0.67885 0.0
H375 H 0.43089 0.77814 0.62783 0.0
H376 H 0.55209 0.77887 0.8797 0.0
H377 H 0.53825 0.76437 0.8108 0.0
H378 H 0.43957 0.79828 0.8254 0.0
H379 H 0.45358 0.81192 0.89513 0.0
H380 H 0.45395 0.77848 0.75996 0.0
H381 H 0.5294 0.77603 0.74696 0.0
H382 H 0.54475 0.79433 0.6806 0.0
H383 H 0.53106 0.80756 0.61064 0.0
C384 C 0.75325 0.48269 0.63282 0.0
C385 C 0.77312 0.45891 0.63429 0.0
C386 C 0.74162 0.49476 0.66874 0.0
C387 C 0.74921 0.48316 0.70674 0.0
C388 C 0.76759 0.45853 0.70801 0.0
C389 C 0.77932 0.44655 0.6722 0.0
C390 C 0.74219 0.49922 0.74421 0.0
C391 C 0.74201 0.48797 0.78167 0.0
C392 C 0.74641 0.50423 0.81958 0.0
C393 C 0.76177 0.53033 0.81934 0.0
C394 C 0.77166 0.54272 0.85571 0.0
C395 C 0.76664 0.5293 0.89314 0.0
H396 H 0.72809 0.47142 0.85819 0.0
C397 C 0.74952 0.504 0.89355 0.0
C398 C 0.73968 0.49157 0.85711 0.0
H399 H 0.7451 0.49311 0.92183 0.0
H400 H 0.74795 0.49276 0.60413 0.0
H401 H 0.72777 0.51383 0.66689 0.0
H402 H 0.77483 0.44923 0.73658 0.0
H403 H 0.79445 0.4282 0.67448 0.0
H404 H 0.73955 0.52135 0.7408 0.0
H405 H 0.74117 0.46571 0.78484 0.0
H406 H 0.76821 0.54061 0.7912 0.0
H407 H 0.78467 0.56225 0.85421 0.0
C408 C 0.51181 0.82949 0.13437 0.0
C409 C 0.48918 0.81395 0.11107 0.0
C410 C 0.50886 0.8307 0.17664 0.0
C411 C 0.48304 0.81659 0.19652 0.0
C412 C 0.45954 0.8021 0.17327 0.0
C413 C 0.46278 0.80049 0.13091 0.0
C414 C 0.48005 0.81695 0.24143 0.0
C415 C 0.50681 0.81654 0.26605 0.0
C416 C 0.50372 0.81606 0.31094 0.0
C417 C 0.52631 0.80066 0.33412 0.0
C418 C 0.52271 0.7988 0.37642 0.0
C419 C 0.49687 0.81289 0.39627 0.0
H420 H 0.46138 0.84356 0.31389 0.0
C421 C 0.47529 0.82938 0.37308 0.0
C422 C 0.47858 0.83086 0.33087 0.0
H423 H 0.45515 0.84059 0.38735 0.0
H424 H 0.53242 0.84017 0.12009 0.0
H425 H 0.52681 0.8427 0.19369 0.0
H426 H 0.43918 0.79136 0.188 0.0
H427 H 0.44482 0.78853 0.11379 0.0
H428 H 0.45525 0.81571 0.25446 0.0
H429 H 0.53155 0.8147 0.25303 0.0
H430 H 0.54616 0.78938 0.31936 0.0
H431 H 0.53989 0.7861 0.39345 0.0
C432 C 0.21149 0.43609 0.84125 0.0
C433 C 0.21601 0.44944 0.87886 0.0
C434 C 0.22306 0.44793 0.80522 0.0
C435 C 0.23973 0.47345 0.80583 0.0
C436 C 0.24559 0.4862 0.8436 0.0
C437 C 0.23401 0.47429 0.87977 0.0
C438 C 0.24703 0.48897 0.76773 0.0
C439 C 0.24753 0.47731 0.73043 0.0
C440 C 0.24438 0.49312 0.69175 0.0
C441 C 0.24966 0.47943 0.65457 0.0
C442 C 0.24097 0.49183 0.61759 0.0
C443 C 0.22653 0.51815 0.61711 0.0
H444 H 0.22662 0.53144 0.71857 0.0
C445 C 0.22314 0.53248 0.6541 0.0
C446 C 0.23181 0.52015 0.69093 0.0
H447 H 0.21229 0.55288 0.65493 0.0
H448 H 0.19784 0.41687 0.83931 0.0
H449 H 0.21712 0.43759 0.77698 0.0
H450 H 0.2581 0.50596 0.84501 0.0
H451 H 0.23797 0.48516 0.90818 0.0
H452 H 0.24997 0.51109 0.77069 0.0
H453 H 0.24796 0.45503 0.72778 0.0
H454 H 0.25914 0.45856 0.65421 0.0
H455 H 0.24396 0.48019 0.58969 0.0
C456 C 0.48819 0.2218 0.37922 0.0
C457 C 0.48714 0.19737 0.40214 0.0
C458 C 0.48779 0.22077 0.33664 0.0
C459 C 0.48593 0.19528 0.31637 0.0
C460 C 0.48229 0.17112 0.33935 0.0
C461 C 0.4833 0.17209 0.38182 0.0
C462 C 0.48844 0.193 0.27146 0.0
C463 C 0.50801 0.20964 0.24886 0.0
C464 C 0.51199 0.20655 0.20407 0.0
C465 C 0.521 0.22963 0.18075 0.0
C466 C 0.52244 0.22799 0.13825 0.0
C467 C 0.51504 0.20311 0.11821 0.0
H468 H 0.50165 0.16259 0.2011 0.0
C469 C 0.50837 0.17955 0.14179 0.0
C470 C 0.50699 0.1812 0.1842 0.0
H471 H 0.50312 0.15992 0.12746 0.0
H472 H 0.49123 0.24157 0.39406 0.0
H473 H 0.48953 0.23985 0.31972 0.0
H474 H 0.4803 0.15128 0.3244 0.0
H475 H 0.48228 0.15295 0.39874 0.0
H476 H 0.47509 0.17613 0.2572 0.0
H477 H 0.52128 0.22646 0.26347 0.0
H478 H 0.52566 0.24929 0.19534 0.0
H479 H 0.52779 0.24654 0.12112 0.0
C480 C 0.89298 0.49979 0.97499 0.0
C481 C 0.88207 0.52164 -0.00062 0.0
C482 C 0.92688 0.49426 0.97142 0.0
C483 C 0.95022 0.51027 0.99285 0.0
C484 C 0.93914 0.5319 0.01763 0.0
C485 C 0.90522 0.53724 0.02144 0.0
C486 C 0.9862 0.50462 0.99021 0.0
C487 C -0.00198 0.47879 0.98901 0.0
C488 C 0.03392 0.47271 0.99009 0.0
C489 C 0.0448 0.44946 0.01153 0.0
C490 C 0.07849 0.4429 0.01273 0.0
C491 C 0.10161 0.45896 0.99135 0.0
H492 H 0.04952 0.50727 0.95263 0.0
C493 C 0.09103 0.48262 0.97073 0.0
C494 C 0.0573 0.48937 0.96979 0.0
H495 H 0.10875 0.49554 0.95477 0.0
H496 H 0.8753 0.48723 0.95836 0.0
H497 H 0.9348 0.47765 0.95167 0.0
H498 H 0.9567 0.54437 0.03459 0.0
H499 H 0.89706 0.55352 0.04165 0.0
H500 H 0.00327 0.5219 0.99297 0.0
H501 H 0.98088 0.46147 0.99071 0.0
H502 H 0.02723 0.43646 0.0276 0.0
H503 H 0.08648 0.42517 0.03015 0.0
C504 C 0.49189 0.91883 0.5251 0.0
C505 C 0.46217 0.90609 0.51283 0.0
C506 C 0.49546 0.94734 0.52304 0.0
C507 C 0.46944 0.96381 0.50821 0.0
C508 C 0.43945 0.95115 0.4967 0.0
C509 C 0.43586 0.9225 0.49881 0.0
C510 C 0.47249 0.99425 0.50615 0.0
C511 C 0.50198 0.00721 0.50216 0.0
C512 C 0.50607 0.03759 0.50297 0.0
C513 C 0.53538 0.04915 0.4871 0.0
C514 C 0.54101 0.07752 0.48917 0.0
C515 C 0.51747 0.09488 0.50744 0.0
H516 H 0.4601 0.04697 0.53508 0.0
C517 C 0.48813 0.08337 0.52331 0.0
C518 C 0.48251 0.05504 0.52128 0.0
H519 H 0.4696 0.09621 0.53783 0.0
H520 H 0.51251 0.90679 0.53653 0.0
H521 H 0.51847 0.95632 0.5338 0.0
H522 H 0.41886 0.96341 0.48573 0.0
H523 H 0.4126 0.91325 0.48932 0.0
H524 H 0.44965 0.00608 0.50687 0.0
H525 H 0.52432 0.99513 0.49734 0.0
H526 H 0.55409 0.03617 0.4732 0.0
H527 H 0.56388 0.08579 0.47672 0.0
C528 C 0.08926 0.52485 0.48773 0.0
C529 C 0.11345 0.50962 0.50847 0.0
C530 C 0.05581 0.51747 0.49062 0.0
C531 C 0.04627 0.49432 0.51357 0.0
C532 C 0.07071 0.47849 0.53294 0.0
C533 C 0.10412 0.48607 0.53037 0.0
C534 C 0.01129 0.48526 0.51559 0.0
C535 C 0.98572 0.50301 0.51624 0.0
C536 C 0.95083 0.49347 0.51695 0.0
C537 C 0.92686 0.50882 0.53809 0.0
C538 C 0.8938 0.49992 0.53929 0.0
C539 C 0.88448 0.47552 0.51949 0.0
H540 H 0.95865 0.45798 0.47779 0.0
C541 C 0.90803 0.46093 0.49671 0.0
C542 C 0.94101 0.46967 0.49568 0.0
H543 H 0.90086 0.44279 0.47957 0.0
H544 H 0.09629 0.54228 0.46899 0.0
H545 H 0.03761 0.52949 0.47413 0.0
H546 H 0.06391 0.46028 0.55015 0.0
H547 H 0.12268 0.47361 0.54552 0.0
H548 H 0.00659 0.46328 0.518 0.0
H549 H 0.99044 0.52503 0.51788 0.0
H550 H 0.93381 0.52749 0.55407 0.0
H551 H 0.87562 0.51186 0.556 0.0
C552 C 0.50197 0.92187 0.98427 0.0
C553 C 0.53038 0.90721 0.9962 0.0
C554 C 0.50104 0.95047 0.98741 0.0
C555 C 0.52844 0.9651 0.00302 0.0
C556 C 0.55716 0.95052 0.01404 0.0
C557 C 0.55811 0.92179 0.01084 0.0
C558 C 0.52805 0.99557 0.00669 0.0
C559 C 0.49973 0.00991 0.012 0.0
C560 C 0.49791 0.04044 0.01311 0.0
C561 C 0.46896 0.05275 0.02852 0.0
C562 C 0.46506 0.0813 0.02765 0.0
C563 C 0.49004 0.09818 0.01116 0.0
H564 H 0.54541 0.04886 0.98371 0.0
C565 C 0.51922 0.08598 0.99619 0.0
C566 C 0.5231 0.05741 0.99695 0.0
H567 H 0.53883 0.09846 0.98305 0.0
H568 H 0.48034 0.91126 0.97236 0.0
H569 H 0.47895 0.96099 0.97698 0.0
H570 H 0.57877 0.96134 0.02559 0.0
H571 H 0.58042 0.91104 0.02008 0.0
H572 H 0.55183 0.00614 0.00625 0.0
H573 H 0.47653 -0.00119 0.01638 0.0
H574 H 0.44906 0.0402 0.04089 0.0
H575 H 0.44227 0.0901 0.03942 0.0
C576 C 0.25539 0.35847 0.02325 0.0
C577 C 0.22747 0.35588 -0.00215 0.0
C578 C 0.2762 0.3361 0.03008 0.0
C579 C 0.26947 0.31043 0.01193 0.0
C580 C 0.24142 0.3077 0.98687 0.0
C581 C 0.22045 0.33015 0.98008 0.0
C582 C 0.29329 0.28729 0.01498 0.0
C583 C 0.31509 0.28494 0.04583 0.0
C584 C 0.34526 0.26788 0.04244 0.0
C585 C 0.37514 0.27871 0.05748 0.0
C586 C 0.4051 0.26538 0.04985 0.0
C587 C 0.40559 0.24057 0.02792 0.0
H588 H 0.32262 0.23334 0.01084 0.0
C589 C 0.37546 0.22874 0.01509 0.0
C590 C 0.34546 0.24243 0.02202 0.0
H591 H 0.37522 0.20951 -0.00164 0.0
H592 H 0.26163 0.37795 0.03743 0.0
H593 H 0.29822 0.33951 0.04827 0.0
H594 H 0.23599 0.28827 0.97205 0.0
H595 H 0.19913 0.32744 0.96035 0.0
H596 H 0.29475 0.27331 0.98919 0.0
H597 H 0.31357 0.29877 0.07175 0.0
H598 H 0.37552 0.29824 0.07347 0.0
H599 H 0.42796 0.2747 0.06062 0.0
C600 C 0.74033 0.36517 0.48798 0.0
C601 C 0.76797 0.3647 0.5141 0.0
C602 C 0.72189 0.34134 0.4809 0.0
C603 C 0.73075 0.31632 0.49958 0.0
C604 C 0.75849 0.31575 0.52542 0.0
C605 C 0.77711 0.33964 0.53241 0.0
C606 C 0.70933 0.29153 0.49629 0.0
C607 C 0.68862 0.28726 0.46474 0.0
C608 C 0.66001 0.26823 0.46763 0.0
C609 C 0.62964 0.2768 0.45113 0.0
C610 C 0.60065 0.26203 0.45906 0.0
C611 C 0.60168 0.23799 0.48273 0.0
H612 H 0.68474 0.23589 0.50168 0.0
C613 C 0.63243 0.22814 0.4966 0.0
C614 C 0.66146 0.2433 0.48939 0.0
H615 H 0.6338 0.20955 0.51477 0.0
H616 H 0.73252 0.38407 0.47337 0.0
H617 H 0.69995 0.34302 0.46205 0.0
H618 H 0.76553 0.29685 0.54067 0.0
H619 H 0.79827 0.33852 0.5527 0.0
H620 H 0.70859 0.27781 0.52242 0.0
H621 H 0.68946 0.30088 0.43853 0.0
H622 H 0.62799 0.29585 0.43406 0.0
H623 H 0.57724 0.26983 0.44756 0.0
C624 C 0.75505 0.64358 0.01374 0.0
C625 C 0.74713 0.61603 0.02272 0.0
C626 C 0.73256 0.66461 0.02242 0.0
C627 C 0.70148 0.65846 0.03994 0.0
C628 C 0.6942 0.6311 0.05047 0.0
C629 C 0.71671 0.61009 0.0419 0.0
C630 C 0.67534 0.67952 0.0461 0.0
C631 C 0.67373 0.70307 0.02455 0.0
C632 C 0.6442 0.72121 0.02491 0.0
C633 C 0.64795 0.74903 0.01431 0.0
C634 C 0.62016 0.76601 0.01033 0.0
C635 C 0.58801 0.75533 0.0163 0.0
H636 H 0.60798 0.68915 0.03859 0.0
C637 C 0.58435 0.72757 0.02761 0.0
C638 C 0.61208 0.71068 0.03176 0.0
H639 H 0.55997 0.7186 0.03232 0.0
H640 H 0.77858 0.64896 -0.00025 0.0
H641 H 0.73974 0.68552 0.01523 0.0
H642 H 0.67057 0.62581 0.0643 0.0
H643 H 0.70991 0.58913 0.04965 0.0
H644 H 0.65527 0.6743 0.06687 0.0
H645 H 0.69376 0.70884 0.00412 0.0
H646 H 0.67241 0.75754 0.00842 0.0
H647 H 0.62388 0.78728 0.00143 0.0
C648 C 0.39572 0.73357 0.4626 0.0
C649 C 0.39349 0.75738 0.48666 0.0
C650 C 0.36835 0.71625 0.45804 0.0
C651 C 0.33835 0.72204 0.47834 0.0
C652 C 0.33542 0.74684 0.5 0.0
C653 C 0.36279 0.76444 0.50414 0.0
C654 C 0.31056 0.70191 0.47932 0.0
C655 C 0.31597 0.67458 0.47725 0.0
C656 C 0.28992 0.65321 0.48199 0.0
C657 C 0.29687 0.6266 0.4678 0.0
C658 C 0.27451 0.60511 0.47425 0.0
C659 C 0.24465 0.60966 0.49544 0.0
H660 H 0.25385 0.67804 0.51496 0.0
C661 C 0.23738 0.63641 0.5092 0.0
C662 C 0.25981 0.658 0.50263 0.0
H663 H 0.2146 0.64064 0.52565 0.0
H664 H 0.41887 0.72801 0.4479 0.0
H665 H 0.3711 0.69809 0.43925 0.0
H666 H 0.31241 0.75198 0.51537 0.0
H667 H 0.36036 0.78279 0.52266 0.0
H668 H 0.28569 0.70976 0.48453 0.0
H669 H 0.3411 0.66704 0.47286 0.0
H670 H 0.31995 0.62231 0.452 0.0
H671 H 0.28097 0.58483 0.46307 0.0
loop_
_geom_bond_atom_site_label_1
_geom_bond_atom_site_label_2
_geom_bond_distance
_geom_bond_site_symmetry_2
_ccdc_geom_bond_type
Mn0 O5 2.095 . S
Mn0 O15 2.162 . S
Mn0 O16 2.297 . S
Mn0 O24 2.385 . S
Mn0 O25 2.209 . S
Mn0 O26 2.094 1_554 S
Mn1 O6 2.121 . S
Mn1 N8 2.257 . S
Mn1 N17 2.282 . S
Mn1 O25 2.215 1_556 S
Mn1 O27 2.117 . S
C2 O24 1.234 . S
C2 O25 1.283 . S
C3 O15 1.281 . S
C3 O16 1.236 . S
C4 O26 1.240 . S
C4 O27 1.264 . S
O5 Mn0 2.095 . S
O5 C14 1.250 1_554 S
O6 Mn1 2.121 . S
O6 C14 1.258 . S
C7 N8 1.326 . S
C7 C11 1.460 . S
C7 H13 0.929 . S
N8 Mn1 2.257 . S
N8 C7 1.326 . S
N8 C12 1.362 . S
C9 C10 1.258 . S
C9 C12 1.431 . S
C9 C29 1.449 . S
C10 C9 1.258 . S
C10 C11 1.477 . S
C10 H30 0.931 . S
C11 C7 1.460 . S
C11 C10 1.477 . S
C11 H31 0.930 . S
C12 N8 1.362 . S
C12 C9 1.431 . S
C12 C22 1.476 . S
H13 C7 0.929 . S
C14 O5 1.250 1_556 S
C14 O6 1.258 . S
O15 Mn0 2.162 . S
O15 C3 1.281 . S
O16 Mn0 2.297 . S
O16 C3 1.236 . S
N17 Mn1 2.282 . S
N17 C18 1.328 . S
N17 C22 1.318 . S
C18 N17 1.328 . S
C18 C19 1.457 . S
C18 H23 0.929 . S
C19 C18 1.457 . S
C19 C20 1.291 . S
C19 H32 0.931 . S
C20 C19 1.291 . S
C20 C21 1.373 . S
C20 H33 0.929 . S
C21 C20 1.373 . S
C21 C22 1.396 . S
C21 C28 1.403 . S
C22 C12 1.476 . S
C22 N17 1.318 . S
C22 C21 1.396 . S
H23 C18 0.929 . S
O24 Mn0 2.385 . S
O24 C2 1.234 . S
O25 Mn0 2.209 . S
O25 Mn1 2.215 1_554 S
O25 C2 1.283 . S
O26 Mn0 2.094 1_556 S
O26 C4 1.240 . S
O27 Mn1 2.117 . S
O27 C4 1.264 . S
C28 C21 1.403 . S
C28 C29 1.399 . S
C28 H34 0.929 . S
C29 C9 1.449 . S
C29 C28 1.399 . S
C29 H35 0.930 . S
H30 C10 0.931 . S
H31 C11 0.930 . S
H32 C19 0.931 . S
H33 C20 0.929 . S
H34 C28 0.929 . S
H35 C29 0.930 . S
Mn36 O41 2.095 . S
Mn36 O51 2.162 . S
Mn36 O52 2.297 . S
Mn36 O60 2.385 . S
Mn36 O61 2.209 . S
Mn36 O62 2.094 . S
Mn37 O42 2.121 . S
Mn37 N44 2.257 . S
Mn37 N53 2.282 . S
Mn37 O61 2.215 . S
Mn37 O63 2.117 . S
C38 O60 1.234 . S
C38 O61 1.283 . S
C39 O51 1.281 . S
C39 O52 1.236 . S
C40 O62 1.240 . S
C40 O63 1.264 . S
O41 Mn36 2.095 . S
O41 C50 1.250 . S
O42 Mn37 2.121 . S
O42 C50 1.258 . S
C43 N44 1.326 . S
C43 C47 1.460 . S
C43 H49 0.929 . S
N44 Mn37 2.257 . S
N44 C43 1.326 . S
N44 C48 1.362 . S
C45 C46 1.258 . S
C45 C48 1.431 . S
C45 C65 1.449 . S
C46 C45 1.258 . S
C46 C47 1.477 . S
C46 H66 0.931 . S
C47 C43 1.460 . S
C47 C46 1.477 . S
C47 H67 0.930 . S
C48 N44 1.362 . S
C48 C45 1.431 . S
C48 C58 1.476 . S
H49 C43 0.929 . S
C50 O41 1.250 . S
C50 O42 1.258 . S
O51 Mn36 2.162 . S
O51 C39 1.281 . S
O52 Mn36 2.297 . S
O52 C39 1.236 . S
N53 Mn37 2.282 . S
N53 C54 1.328 . S
N53 C58 1.318 . S
C54 N53 1.328 . S
C54 C55 1.457 . S
C54 H59 0.929 . S
C55 C54 1.457 . S
C55 C56 1.291 . S
C55 H68 0.931 . S
C56 C55 1.291 . S
C56 C57 1.373 . S
C56 H69 0.929 . S
C57 C56 1.373 . S
C57 C58 1.396 . S
C57 C64 1.403 . S
C58 C48 1.476 . S
C58 N53 1.318 . S
C58 C57 1.396 . S
H59 C54 0.929 . S
O60 Mn36 2.385 . S
O60 C38 1.234 . S
O61 Mn36 2.209 . S
O61 Mn37 2.215 . S
O61 C38 1.283 . S
O62 Mn36 2.094 . S
O62 C40 1.240 . S
O63 Mn37 2.117 . S
O63 C40 1.264 . S
C64 C57 1.403 . S
C64 C65 1.399 . S
C64 H70 0.929 . S
C65 C45 1.449 . S
C65 C64 1.399 . S
C65 H71 0.930 . S
H66 C46 0.931 . S
H67 C47 0.930 . S
H68 C55 0.931 . S
H69 C56 0.929 . S
H70 C64 0.929 . S
H71 C65 0.930 . S
Mn72 O77 2.095 . S
Mn72 O87 2.162 . S
Mn72 O88 2.297 . S
Mn72 O96 2.385 . S
Mn72 O97 2.209 . S
Mn72 O98 2.094 1_554 S
Mn73 O78 2.121 . S
Mn73 N80 2.257 . S
Mn73 N89 2.282 . S
Mn73 O97 2.215 1_556 S
Mn73 O99 2.117 . S
C74 O96 1.234 . S
C74 O97 1.283 . S
C75 O87 1.281 . S
C75 O88 1.236 . S
C76 O98 1.240 . S
C76 O99 1.264 . S
O77 Mn72 2.095 . S
O77 C86 1.250 1_554 S
O78 Mn73 2.121 . S
O78 C86 1.258 . S
C79 N80 1.326 . S
C79 C83 1.460 . S
C79 H85 0.929 . S
N80 Mn73 2.257 . S
N80 C79 1.326 . S
N80 C84 1.362 . S
C81 C82 1.258 . S
C81 C84 1.431 . S
C81 C101 1.449 . S
C82 C81 1.258 . S
C82 C83 1.477 . S
C82 H102 0.931 . S
C83 C79 1.460 . S
C83 C82 1.477 . S
C83 H103 0.930 . S
C84 N80 1.362 . S
C84 C81 1.431 . S
C84 C94 1.476 . S
H85 C79 0.929 . S
C86 O77 1.250 1_556 S
C86 O78 1.258 . S
O87 Mn72 2.162 . S
O87 C75 1.281 . S
O88 Mn72 2.297 . S
O88 C75 1.236 . S
N89 Mn73 2.282 . S
N89 C90 1.328 . S
N89 C94 1.318 . S
C90 N89 1.328 . S
C90 C91 1.457 . S
C90 H95 0.929 . S
C91 C90 1.457 . S
C91 C92 1.291 . S
C91 H104 0.931 . S
C92 C91 1.291 . S
C92 C93 1.373 . S
C92 H105 0.929 . S
C93 C92 1.373 . S
C93 C94 1.396 . S
C93 C100 1.403 . S
C94 C84 1.476 . S
C94 N89 1.318 . S
C94 C93 1.396 . S
H95 C90 0.929 . S
O96 Mn72 2.385 . S
O96 C74 1.234 . S
O97 Mn72 2.209 . S
O97 Mn73 2.215 1_554 S
O97 C74 1.283 . S
O98 Mn72 2.094 1_556 S
O98 C76 1.240 . S
O99 Mn73 2.117 . S
O99 C76 1.264 . S
C100 C93 1.403 . S
C100 C101 1.399 . S
C100 H106 0.929 . S
C101 C81 1.449 . S
C101 C100 1.399 . S
C101 H107 0.930 . S
H102 C82 0.931 . S
H103 C83 0.930 . S
H104 C91 0.931 . S
H105 C92 0.929 . S
H106 C100 0.929 . S
H107 C101 0.930 . S
Mn108 O113 2.095 . S
Mn108 O123 2.162 . S
Mn108 O124 2.297 . S
Mn108 O132 2.385 . S
Mn108 O133 2.209 . S
Mn108 O134 2.094 . S
Mn109 O114 2.121 . S
Mn109 N116 2.257 . S
Mn109 N125 2.282 . S
Mn109 O133 2.215 . S
Mn109 O135 2.117 . S
C110 O132 1.234 . S
C110 O133 1.283 . S
C111 O123 1.281 . S
C111 O124 1.236 . S
C112 O134 1.240 . S
C112 O135 1.264 . S
O113 Mn108 2.095 . S
O113 C122 1.250 . S
O114 Mn109 2.121 . S
O114 C122 1.258 . S
C115 N116 1.326 . S
C115 C119 1.460 . S
C115 H121 0.929 . S
N116 Mn109 2.257 . S
N116 C115 1.326 . S
N116 C120 1.362 . S
C117 C118 1.258 . S
C117 C120 1.431 . S
C117 C137 1.449 . S
C118 C117 1.258 . S
C118 C119 1.477 . S
C118 H138 0.931 . S
C119 C115 1.460 . S
C119 C118 1.477 . S
C119 H139 0.930 . S
C120 N116 1.362 . S
C120 C117 1.431 . S
C120 C130 1.476 . S
H121 C115 0.929 . S
C122 O113 1.250 . S
C122 O114 1.258 . S
O123 Mn108 2.162 . S
O123 C111 1.281 . S
O124 Mn108 2.297 . S
O124 C111 1.236 . S
N125 Mn109 2.282 . S
N125 C126 1.328 . S
N125 C130 1.318 . S
C126 N125 1.328 . S
C126 C127 1.457 . S
C126 H131 0.929 . S
C127 C126 1.457 . S
C127 C128 1.291 . S
C127 H140 0.931 . S
C128 C127 1.291 . S
C128 C129 1.373 . S
C128 H141 0.929 . S
C129 C128 1.373 . S
C129 C130 1.396 . S
C129 C136 1.403 . S
C130 C120 1.476 . S
C130 N125 1.318 . S
C130 C129 1.396 . S
H131 C126 0.929 . S
O132 Mn108 2.385 . S
O132 C110 1.234 . S
O133 Mn108 2.209 . S
O133 Mn109 2.215 . S
O133 C110 1.283 . S
O134 Mn108 2.094 . S
O134 C112 1.240 . S
O135 Mn109 2.117 . S
O135 C112 1.264 . S
C136 C129 1.403 . S
C136 C137 1.399 . S
C136 H142 0.929 . S
C137 C117 1.449 . S
C137 C136 1.399 . S
C137 H143 0.930 . S
H138 C118 0.931 . S
H139 C119 0.930 . S
H140 C127 0.931 . S
H141 C128 0.929 . S
H142 C136 0.929 . S
H143 C137 0.930 . S
Mn144 O149 2.095 . S
Mn144 O159 2.162 . S
Mn144 O160 2.297 . S
Mn144 O168 2.385 . S
Mn144 O169 2.209 . S
Mn144 O170 2.094 . S
Mn145 O150 2.121 . S
Mn145 N152 2.257 . S
Mn145 N161 2.282 . S
Mn145 O169 2.215 . S
Mn145 O171 2.117 . S
C146 O168 1.234 . S
C146 O169 1.283 . S
C147 O159 1.281 . S
C147 O160 1.236 . S
C148 O170 1.240 . S
C148 O171 1.264 . S
O149 Mn144 2.095 . S
O149 C158 1.250 . S
O150 Mn145 2.121 . S
O150 C158 1.258 . S
C151 N152 1.326 . S
C151 C155 1.460 . S
C151 H157 0.929 . S
N152 Mn145 2.257 . S
N152 C151 1.326 . S
N152 C156 1.362 . S
C153 C154 1.258 . S
C153 C156 1.431 . S
C153 C173 1.449 . S
C154 C153 1.258 . S
C154 C155 1.477 . S
C154 H174 0.931 . S
C155 C151 1.460 . S
C155 C154 1.477 . S
C155 H175 0.930 . S
C156 N152 1.362 . S
C156 C153 1.431 . S
C156 C166 1.476 . S
H157 C151 0.929 . S
C158 O149 1.250 . S
C158 O150 1.258 . S
O159 Mn144 2.162 . S
O159 C147 1.281 . S
O160 Mn144 2.297 . S
O160 C147 1.236 . S
N161 Mn145 2.282 . S
N161 C162 1.328 . S
N161 C166 1.318 . S
C162 N161 1.328 . S
C162 C163 1.457 . S
C162 H167 0.929 . S
C163 C162 1.457 . S
C163 C164 1.291 . S
C163 H176 0.931 . S
C164 C163 1.291 . S
C164 C165 1.373 . S
C164 H177 0.929 . S
C165 C164 1.373 . S
C165 C166 1.396 . S
C165 C172 1.403 . S
C166 C156 1.476 . S
C166 N161 1.318 . S
C166 C165 1.396 . S
H167 C162 0.929 . S
O168 Mn144 2.385 . S
O168 C146 1.234 . S
O169 Mn144 2.209 . S
O169 Mn145 2.215 . S
O169 C146 1.283 . S
O170 Mn144 2.094 . S
O170 C148 1.240 . S
O171 Mn145 2.117 . S
O171 C148 1.264 . S
C172 C165 1.403 . S
C172 C173 1.399 . S
C172 H178 0.929 . S
C173 C153 1.449 . S
C173 C172 1.399 . S
C173 H179 0.930 . S
H174 C154 0.931 . S
H175 C155 0.930 . S
H176 C163 0.931 . S
H177 C164 0.929 . S
H178 C172 0.929 . S
H179 C173 0.930 . S
Mn180 O185 2.095 . S
Mn180 O195 2.162 . S
Mn180 O196 2.297 . S
Mn180 O204 2.385 1_554 S
Mn180 O205 2.209 1_554 S
Mn180 O206 2.094 . S
Mn181 O186 2.121 . S
Mn181 N188 2.257 1_554 S
Mn181 N197 2.282 1_554 S
Mn181 O205 2.215 1_554 S
Mn181 O207 2.117 . S
C182 O204 1.234 . S
C182 O205 1.283 . S
C183 O195 1.281 . S
C183 O196 1.236 . S
C184 O206 1.240 . S
C184 O207 1.264 . S
O185 Mn180 2.095 . S
O185 C194 1.250 . S
O186 Mn181 2.121 . S
O186 C194 1.258 . S
C187 N188 1.326 1_554 S
C187 C191 1.460 1_554 S
C187 H193 0.929 . S
N188 Mn181 2.257 1_556 S
N188 C187 1.326 1_556 S
N188 C192 1.362 . S
C189 C190 1.258 . S
C189 C192 1.431 . S
C189 C209 1.449 . S
C190 C189 1.258 . S
C190 C191 1.477 . S
C190 H210 0.931 . S
C191 C187 1.460 1_556 S
C191 C190 1.477 . S
C191 H211 0.930 1_556 S
C192 N188 1.362 . S
C192 C189 1.431 . S
C192 C202 1.476 . S
H193 C187 0.929 . S
C194 O185 1.250 . S
C194 O186 1.258 . S
O195 Mn180 2.162 . S
O195 C183 1.281 . S
O196 Mn180 2.297 . S
O196 C183 1.236 . S
N197 Mn181 2.282 1_556 S
N197 C198 1.328 . S
N197 C202 1.318 . S
C198 N197 1.328 . S
C198 C199 1.457 . S
C198 H203 0.929 . S
C199 C198 1.457 . S
C199 C200 1.291 . S
C199 H212 0.931 . S
C200 C199 1.291 . S
C200 C201 1.373 . S
C200 H213 0.929 . S
C201 C200 1.373 . S
C201 C202 1.396 . S
C201 C208 1.403 . S
C202 C192 1.476 . S
C202 N197 1.318 . S
C202 C201 1.396 . S
H203 C198 0.929 . S
O204 Mn180 2.385 1_556 S
O204 C182 1.234 . S
O205 Mn180 2.209 1_556 S
O205 Mn181 2.215 1_556 S
O205 C182 1.283 . S
O206 Mn180 2.094 . S
O206 C184 1.240 . S
O207 Mn181 2.117 . S
O207 C184 1.264 . S
C208 C201 1.403 . S
C208 C209 1.399 . S
C208 H214 0.929 . S
C209 C189 1.449 . S
C209 C208 1.399 . S
C209 H215 0.930 . S
H210 C190 0.931 . S
H211 C191 0.930 1_554 S
H212 C199 0.931 . S
H213 C200 0.929 . S
H214 C208 0.929 . S
H215 C209 0.930 . S
Mn216 O221 2.095 . S
Mn216 O231 2.162 . S
Mn216 O232 2.297 . S
Mn216 O240 2.385 . S
Mn216 O241 2.209 . S
Mn216 O242 2.094 . S
Mn217 O222 2.121 . S
Mn217 N224 2.257 . S
Mn217 N233 2.282 . S
Mn217 O241 2.215 . S
Mn217 O243 2.117 . S
C218 O240 1.234 . S
C218 O241 1.283 . S
C219 O231 1.281 . S
C219 O232 1.236 . S
C220 O242 1.240 . S
C220 O243 1.264 . S
O221 Mn216 2.095 . S
O221 C230 1.250 . S
O222 Mn217 2.121 . S
O222 C230 1.258 . S
C223 N224 1.326 . S
C223 C227 1.460 . S
C223 H229 0.929 . S
N224 Mn217 2.257 . S
N224 C223 1.326 . S
N224 C228 1.362 . S
C225 C226 1.258 . S
C225 C228 1.431 . S
C225 C245 1.449 . S
C226 C225 1.258 . S
C226 C227 1.477 . S
C226 H246 0.931 . S
C227 C223 1.460 . S
C227 C226 1.477 . S
C227 H247 0.930 . S
C228 N224 1.362 . S
C228 C225 1.431 . S
C228 C238 1.476 . S
H229 C223 0.929 . S
C230 O221 1.250 . S
C230 O222 1.258 . S
O231 Mn216 2.162 . S
O231 C219 1.281 . S
O232 Mn216 2.297 . S
O232 C219 1.236 . S
N233 Mn217 2.282 . S
N233 C234 1.328 . S
N233 C238 1.318 . S
C234 N233 1.328 . S
C234 C235 1.457 . S
C234 H239 0.929 . S
C235 C234 1.457 . S
C235 C236 1.291 . S
C235 H248 0.931 . S
C236 C235 1.291 . S
C236 C237 1.373 . S
C236 H249 0.929 . S
C237 C236 1.373 . S
C237 C238 1.396 . S
C237 C244 1.403 . S
C238 C228 1.476 . S
C238 N233 1.318 . S
C238 C237 1.396 . S
H239 C234 0.929 . S
O240 Mn216 2.385 . S
O240 C218 1.234 . S
O241 Mn216 2.209 . S
O241 Mn217 2.215 . S
O241 C218 1.283 . S
O242 Mn216 2.094 . S
O242 C220 1.240 . S
O243 Mn217 2.117 . S
O243 C220 1.264 . S
C244 C237 1.403 . S
C244 C245 1.399 . S
C244 H250 0.929 . S
C245 C225 1.449 . S
C245 C244 1.399 . S
C245 H251 0.930 . S
H246 C226 0.931 . S
H247 C227 0.930 . S
H248 C235 0.931 . S
H249 C236 0.929 . S
H250 C244 0.929 . S
H251 C245 0.930 . S
Mn252 O257 2.095 . S
Mn252 O267 2.162 . S
Mn252 O268 2.297 . S
Mn252 O276 2.385 1_554 S
Mn252 O277 2.209 1_554 S
Mn252 O278 2.094 . S
Mn253 O258 2.121 . S
Mn253 N260 2.257 1_554 S
Mn253 N269 2.282 1_554 S
Mn253 O277 2.215 1_554 S
Mn253 O279 2.117 . S
C254 O276 1.234 . S
C254 O277 1.283 . S
C255 O267 1.281 . S
C255 O268 1.236 . S
C256 O278 1.240 . S
C256 O279 1.264 . S
O257 Mn252 2.095 . S
O257 C266 1.250 . S
O258 Mn253 2.121 . S
O258 C266 1.258 . S
C259 N260 1.326 1_554 S
C259 C263 1.460 1_554 S
C259 H265 0.929 . S
N260 Mn253 2.257 1_556 S
N260 C259 1.326 1_556 S
N260 C264 1.362 . S
C261 C262 1.258 . S
C261 C264 1.431 . S
C261 C281 1.449 . S
C262 C261 1.258 . S
C262 C263 1.477 . S
C262 H282 0.931 . S
C263 C259 1.460 1_556 S
C263 C262 1.477 . S
C263 H283 0.930 1_556 S
C264 N260 1.362 . S
C264 C261 1.431 . S
C264 C274 1.476 . S
H265 C259 0.929 . S
C266 O257 1.250 . S
C266 O258 1.258 . S
O267 Mn252 2.162 . S
O267 C255 1.281 . S
O268 Mn252 2.297 . S
O268 C255 1.236 . S
N269 Mn253 2.282 1_556 S
N269 C270 1.328 . S
N269 C274 1.318 . S
C270 N269 1.328 . S
C270 C271 1.457 . S
C270 H275 0.929 . S
C271 C270 1.457 . S
C271 C272 1.291 . S
C271 H284 0.931 . S
C272 C271 1.291 . S
C272 C273 1.373 . S
C272 H285 0.929 . S
C273 C272 1.373 . S
C273 C274 1.396 . S
C273 C280 1.403 . S
C274 C264 1.476 . S
C274 N269 1.318 . S
C274 C273 1.396 . S
H275 C270 0.929 . S
O276 Mn252 2.385 1_556 S
O276 C254 1.234 . S
O277 Mn252 2.209 1_556 S
O277 Mn253 2.215 1_556 S
O277 C254 1.283 . S
O278 Mn252 2.094 . S
O278 C256 1.240 . S
O279 Mn253 2.117 . S
O279 C256 1.264 . S
C280 C273 1.403 . S
C280 C281 1.399 . S
C280 H286 0.929 . S
C281 C261 1.449 . S
C281 C280 1.399 . S
C281 H287 0.930 . S
H282 C262 0.931 . S
H283 C263 0.930 1_554 S
H284 C271 0.931 . S
H285 C272 0.929 . S
H286 C280 0.929 . S
H287 C281 0.930 . S
C288 C289 1.386 . S
C288 C290 1.383 . S
C288 H304 0.951 . S
C289 C288 1.386 . S
C289 C293 1.383 . S
C290 C288 1.383 . S
C290 C291 1.402 . S
C290 H305 0.951 . S
C291 C290 1.402 . S
C291 C292 1.375 . S
C291 C294 1.481 . S
C292 C291 1.375 . S
C292 C293 1.367 . S
C292 H306 0.951 . S
C293 C289 1.383 . S
C293 C292 1.367 . S
C293 H307 0.950 . S
C294 C291 1.481 . S
C294 C295 1.297 . S
C294 H308 0.950 . S
C295 C294 1.297 . S
C295 C296 1.479 . S
C295 H309 0.950 . S
C296 C295 1.479 . S
C296 C297 1.375 . S
C296 C302 1.404 . S
C297 C296 1.375 . S
C297 C298 1.369 . S
C297 H310 0.950 . S
C298 C297 1.369 . S
C298 C299 1.392 . S
C298 H311 0.951 . S
C299 C298 1.392 . S
C299 C301 1.384 . S
H300 C302 0.949 . S
C301 C299 1.384 . S
C301 C302 1.385 . S
C301 H303 0.950 . S
C302 C296 1.404 . S
C302 H300 0.949 . S
C302 C301 1.385 . S
H303 C301 0.950 . S
H304 C288 0.951 . S
H305 C290 0.951 . S
H306 C292 0.951 . S
H307 C293 0.950 . S
H308 C294 0.950 . S
H309 C295 0.950 . S
H310 C297 0.950 . S
H311 C298 0.951 . S
C312 C313 1.386 . S
C312 C314 1.383 . S
C312 H328 0.951 . S
C313 C312 1.386 . S
C313 C317 1.383 . S
C314 C312 1.383 . S
C314 C315 1.402 . S
C314 H329 0.951 . S
C315 C314 1.402 . S
C315 C316 1.375 . S
C315 C318 1.481 . S
C316 C315 1.375 . S
C316 C317 1.367 . S
C316 H330 0.951 . S
C317 C313 1.383 . S
C317 C316 1.367 . S
C317 H331 0.950 . S
C318 C315 1.481 . S
C318 C319 1.297 . S
C318 H332 0.950 . S
C319 C318 1.297 . S
C319 C320 1.479 . S
C319 H333 0.950 . S
C320 C319 1.479 . S
C320 C321 1.375 . S
C320 C326 1.404 . S
C321 C320 1.375 . S
C321 C322 1.369 . S
C321 H334 0.950 . S
C322 C321 1.369 . S
C322 C323 1.392 . S
C322 H335 0.951 . S
C323 C322 1.392 . S
C323 C325 1.384 . S
H324 C326 0.949 . S
C325 C323 1.384 . S
C325 C326 1.385 . S
C325 H327 0.950 . S
C326 C320 1.404 . S
C326 H324 0.949 . S
C326 C325 1.385 . S
H327 C325 0.950 . S
H328 C312 0.951 . S
H329 C314 0.951 . S
H330 C316 0.951 . S
H331 C317 0.950 . S
H332 C318 0.950 . S
H333 C319 0.950 . S
H334 C321 0.950 . S
H335 C322 0.951 . S
C336 C337 1.386 . S
C336 C338 1.383 . S
C336 H352 0.951 . S
C337 C336 1.386 . S
C337 C341 1.383 . S
C338 C336 1.383 . S
C338 C339 1.402 . S
C338 H353 0.951 . S
C339 C338 1.402 . S
C339 C340 1.375 . S
C339 C342 1.481 . S
C340 C339 1.375 . S
C340 C341 1.367 . S
C340 H354 0.951 . S
C341 C337 1.383 . S
C341 C340 1.367 . S
C341 H355 0.950 . S
C342 C339 1.481 . S
C342 C343 1.297 . S
C342 H356 0.950 . S
C343 C342 1.297 . S
C343 C344 1.479 . S
C343 H357 0.950 . S
C344 C343 1.479 . S
C344 C345 1.375 . S
C344 C350 1.404 . S
C345 C344 1.375 . S
C345 C346 1.369 . S
C345 H358 0.950 . S
C346 C345 1.369 . S
C346 C347 1.392 . S
C346 H359 0.951 . S
C347 C346 1.392 . S
C347 C349 1.384 . S
H348 C350 0.949 . S
C349 C347 1.384 . S
C349 C350 1.385 . S
C349 H351 0.950 . S
C350 C344 1.404 . S
C350 H348 0.949 . S
C350 C349 1.385 . S
H351 C349 0.950 . S
H352 C336 0.951 . S
H353 C338 0.951 . S
H354 C340 0.951 . S
H355 C341 0.950 . S
H356 C342 0.950 . S
H357 C343 0.950 . S
H358 C345 0.950 . S
H359 C346 0.951 . S
C360 C361 1.386 . S
C360 C362 1.383 . S
C360 H376 0.951 . S
C361 C360 1.386 . S
C361 C365 1.383 . S
C362 C360 1.383 . S
C362 C363 1.402 . S
C362 H377 0.951 . S
C363 C362 1.402 . S
C363 C364 1.375 . S
C363 C366 1.481 . S
C364 C363 1.375 . S
C364 C365 1.367 . S
C364 H378 0.951 . S
C365 C361 1.383 . S
C365 C364 1.367 . S
C365 H379 0.950 . S
C366 C363 1.481 . S
C366 C367 1.297 . S
C366 H380 0.950 . S
C367 C366 1.297 . S
C367 C368 1.479 . S
C367 H381 0.950 . S
C368 C367 1.479 . S
C368 C369 1.375 . S
C368 C374 1.404 . S
C369 C368 1.375 . S
C369 C370 1.369 . S
C369 H382 0.950 . S
C370 C369 1.369 . S
C370 C371 1.392 . S
C370 H383 0.951 . S
C371 C370 1.392 . S
C371 C373 1.384 . S
H372 C374 0.949 . S
C373 C371 1.384 . S
C373 C374 1.385 . S
C373 H375 0.950 . S
C374 C368 1.404 . S
C374 H372 0.949 . S
C374 C373 1.385 . S
H375 C373 0.950 . S
H376 C360 0.951 . S
H377 C362 0.951 . S
H378 C364 0.951 . S
H379 C365 0.950 . S
H380 C366 0.950 . S
H381 C367 0.950 . S
H382 C369 0.950 . S
H383 C370 0.951 . S
C384 C385 1.386 . S
C384 C386 1.383 . S
C384 H400 0.951 . S
C385 C384 1.386 . S
C385 C389 1.383 . S
C386 C384 1.383 . S
C386 C387 1.402 . S
C386 H401 0.951 . S
C387 C386 1.402 . S
C387 C388 1.375 . S
C387 C390 1.481 . S
C388 C387 1.375 . S
C388 C389 1.367 . S
C388 H402 0.951 . S
C389 C385 1.383 . S
C389 C388 1.367 . S
C389 H403 0.950 . S
C390 C387 1.481 . S
C390 C391 1.297 . S
C390 H404 0.950 . S
C391 C390 1.297 . S
C391 C392 1.479 . S
C391 H405 0.950 . S
C392 C391 1.479 . S
C392 C393 1.375 . S
C392 C398 1.404 . S
C393 C392 1.375 . S
C393 C394 1.369 . S
C393 H406 0.950 . S
C394 C393 1.369 . S
C394 C395 1.392 . S
C394 H407 0.951 . S
C395 C394 1.392 . S
C395 C397 1.384 . S
H396 C398 0.949 . S
C397 C395 1.384 . S
C397 C398 1.385 . S
C397 H399 0.950 . S
C398 C392 1.404 . S
C398 H396 0.949 . S
C398 C397 1.385 . S
H399 C397 0.950 . S
H400 C384 0.951 . S
H401 C386 0.951 . S
H402 C388 0.951 . S
H403 C389 0.950 . S
H404 C390 0.950 . S
H405 C391 0.950 . S
H406 C393 0.950 . S
H407 C394 0.951 . S
C408 C409 1.386 . S
C408 C410 1.383 . S
C408 H424 0.951 . S
C409 C408 1.386 . S
C409 C413 1.383 . S
C410 C408 1.383 . S
C410 C411 1.402 . S
C410 H425 0.951 . S
C411 C410 1.402 . S
C411 C412 1.375 . S
C411 C414 1.481 . S
C412 C411 1.375 . S
C412 C413 1.367 . S
C412 H426 0.951 . S
C413 C409 1.383 . S
C413 C412 1.367 . S
C413 H427 0.950 . S
C414 C411 1.481 . S
C414 C415 1.297 . S
C414 H428 0.950 . S
C415 C414 1.297 . S
C415 C416 1.479 . S
C415 H429 0.950 . S
C416 C415 1.479 . S
C416 C417 1.375 . S
C416 C422 1.404 . S
C417 C416 1.375 . S
C417 C418 1.369 . S
C417 H430 0.950 . S
C418 C417 1.369 . S
C418 C419 1.392 . S
C418 H431 0.951 . S
C419 C418 1.392 . S
C419 C421 1.384 . S
H420 C422 0.949 . S
C421 C419 1.384 . S
C421 C422 1.385 . S
C421 H423 0.950 . S
C422 C416 1.404 . S
C422 H420 0.949 . S
C422 C421 1.385 . S
H423 C421 0.950 . S
H424 C408 0.951 . S
H425 C410 0.951 . S
H426 C412 0.951 . S
H427 C413 0.950 . S
H428 C414 0.950 . S
H429 C415 0.950 . S
H430 C417 0.950 . S
H431 C418 0.951 . S
C432 C433 1.386 . S
C432 C434 1.383 . S
C432 H448 0.951 . S
C433 C432 1.386 . S
C433 C437 1.383 . S
C434 C432 1.383 . S
C434 C435 1.402 . S
C434 H449 0.951 . S
C435 C434 1.402 . S
C435 C436 1.375 . S
C435 C438 1.481 . S
C436 C435 1.375 . S
C436 C437 1.367 . S
C436 H450 0.951 . S
C437 C433 1.383 . S
C437 C436 1.367 . S
C437 H451 0.950 . S
C438 C435 1.481 . S
C438 C439 1.297 . S
C438 H452 0.950 . S
C439 C438 1.297 . S
C439 C440 1.479 . S
C439 H453 0.950 . S
C440 C439 1.479 . S
C440 C441 1.375 . S
C440 C446 1.404 . S
C441 C440 1.375 . S
C441 C442 1.369 . S
C441 H454 0.950 . S
C442 C441 1.369 . S
C442 C443 1.392 . S
C442 H455 0.951 . S
C443 C442 1.392 . S
C443 C445 1.384 . S
H444 C446 0.949 . S
C445 C443 1.384 . S
C445 C446 1.385 . S
C445 H447 0.950 . S
C446 C440 1.404 . S
C446 H444 0.949 . S
C446 C445 1.385 . S
H447 C445 0.950 . S
H448 C432 0.951 . S
H449 C434 0.951 . S
H450 C436 0.951 . S
H451 C437 0.950 . S
H452 C438 0.950 . S
H453 C439 0.950 . S
H454 C441 0.950 . S
H455 C442 0.951 . S
C456 C457 1.386 . S
C456 C458 1.383 . S
C456 H472 0.951 . S
C457 C456 1.386 . S
C457 C461 1.383 . S
C458 C456 1.383 . S
C458 C459 1.402 . S
C458 H473 0.951 . S
C459 C458 1.402 . S
C459 C460 1.375 . S
C459 C462 1.481 . S
C460 C459 1.375 . S
C460 C461 1.367 . S
C460 H474 0.951 . S
C461 C457 1.383 . S
C461 C460 1.367 . S
C461 H475 0.950 . S
C462 C459 1.481 . S
C462 C463 1.297 . S
C462 H476 0.950 . S
C463 C462 1.297 . S
C463 C464 1.479 . S
C463 H477 0.950 . S
C464 C463 1.479 . S
C464 C465 1.375 . S
C464 C470 1.404 . S
C465 C464 1.375 . S
C465 C466 1.369 . S
C465 H478 0.950 . S
C466 C465 1.369 . S
C466 C467 1.392 . S
C466 H479 0.951 . S
C467 C466 1.392 . S
C467 C469 1.384 . S
H468 C470 0.949 . S
C469 C467 1.384 . S
C469 C470 1.385 . S
C469 H471 0.950 . S
C470 C464 1.404 . S
C470 H468 0.949 . S
C470 C469 1.385 . S
H471 C469 0.950 . S
H472 C456 0.951 . S
H473 C458 0.951 . S
H474 C460 0.951 . S
H475 C461 0.950 . S
H476 C462 0.950 . S
H477 C463 0.950 . S
H478 C465 0.950 . S
H479 C466 0.951 . S
C480 C481 1.386 . S
C480 C482 1.383 . S
C480 H496 0.951 . S
C481 C480 1.386 . S
C481 C485 1.383 1_554 S
C482 C480 1.383 . S
C482 C483 1.402 1_554 S
C482 H497 0.951 . S
C483 C482 1.402 1_556 S
C483 C484 1.375 . S
C483 C486 1.481 . S
C484 C483 1.375 . S
C484 C485 1.367 . S
C484 H498 0.951 . S
C485 C481 1.383 1_556 S
C485 C484 1.367 . S
C485 H499 0.950 . S
C486 C483 1.481 . S
C486 C487 1.297 1_656 S
C486 H500 0.950 1_655 S
C487 C486 1.297 1_454 S
C487 C488 1.479 . S
C487 H501 0.950 1_455 S
C488 C487 1.479 . S
C488 C489 1.375 . S
C488 C494 1.404 1_554 S
C489 C488 1.375 . S
C489 C490 1.369 . S
C489 H502 0.950 . S
C490 C489 1.369 . S
C490 C491 1.392 . S
C490 H503 0.951 . S
C491 C490 1.392 . S
C491 C493 1.384 1_554 S
H492 C494 0.949 . S
C493 C491 1.384 1_556 S
C493 C494 1.385 . S
C493 H495 0.950 . S
C494 C488 1.404 1_556 S
C494 H492 0.949 . S
C494 C493 1.385 . S
H495 C493 0.950 . S
H496 C480 0.951 . S
H497 C482 0.951 . S
H498 C484 0.951 . S
H499 C485 0.950 . S
H500 C486 0.950 1_455 S
H501 C487 0.950 1_655 S
H502 C489 0.950 . S
H503 C490 0.951 . S
C504 C505 1.386 . S
C504 C506 1.383 . S
C504 H520 0.951 . S
C505 C504 1.386 . S
C505 C509 1.383 . S
C506 C504 1.383 . S
C506 C507 1.402 . S
C506 H521 0.951 . S
C507 C506 1.402 . S
C507 C508 1.375 . S
C507 C510 1.481 . S
C508 C507 1.375 . S
C508 C509 1.367 . S
C508 H522 0.951 . S
C509 C505 1.383 . S
C509 C508 1.367 . S
C509 H523 0.950 . S
C510 C507 1.481 . S
C510 C511 1.297 1_565 S
C510 H524 0.950 1_565 S
C511 C510 1.297 1_545 S
C511 C512 1.479 . S
C511 H525 0.952 1_545 S
C512 C511 1.479 . S
C512 C513 1.375 . S
C512 C518 1.404 . S
C513 C512 1.375 . S
C513 C514 1.369 . S
C513 H526 0.950 . S
C514 C513 1.369 . S
C514 C515 1.392 . S
C514 H527 0.951 . S
C515 C514 1.392 . S
C515 C517 1.384 . S
H516 C518 0.949 . S
C517 C515 1.384 . S
C517 C518 1.385 . S
C517 H519 0.950 . S
C518 C512 1.404 . S
C518 H516 0.949 . S
C518 C517 1.385 . S
H519 C517 0.950 . S
H520 C504 0.951 . S
H521 C506 0.951 . S
H522 C508 0.951 . S
H523 C509 0.950 . S
H524 C510 0.950 1_545 S
H525 C511 0.952 1_565 S
H526 C513 0.950 . S
H527 C514 0.951 . S
C528 C529 1.386 . S
C528 C530 1.383 . S
C528 H544 0.951 . S
C529 C528 1.386 . S
C529 C533 1.383 . S
C530 C528 1.383 . S
C530 C531 1.402 . S
C530 H545 0.951 . S
C531 C530 1.402 . S
C531 C532 1.375 . S
C531 C534 1.481 . S
C532 C531 1.375 . S
C532 C533 1.367 . S
C532 H546 0.951 . S
C533 C529 1.383 . S
C533 C532 1.367 . S
C533 H547 0.950 . S
C534 C531 1.481 . S
C534 C535 1.297 1_455 S
C534 H548 0.950 . S
C535 C534 1.297 1_655 S
C535 C536 1.479 . S
C535 H549 0.941 1_655 S
C536 C535 1.479 . S
C536 C537 1.375 . S
C536 C542 1.404 . S
C537 C536 1.375 . S
C537 C538 1.369 . S
C537 H550 0.950 . S
C538 C537 1.369 . S
C538 C539 1.392 . S
C538 H551 0.951 . S
C539 C538 1.392 . S
C539 C541 1.384 . S
H540 C542 0.949 . S
C541 C539 1.384 . S
C541 C542 1.385 . S
C541 H543 0.950 . S
C542 C536 1.404 . S
C542 H540 0.949 . S
C542 C541 1.385 . S
H543 C541 0.950 . S
H544 C528 0.951 . S
H545 C530 0.951 . S
H546 C532 0.951 . S
H547 C533 0.950 . S
H548 C534 0.950 . S
H549 C535 0.941 1_455 S
H550 C537 0.950 . S
H551 C538 0.951 . S
C552 C553 1.396 . S
C552 C554 1.383 . S
C552 H568 0.951 . S
C553 C552 1.396 . S
C553 C557 1.372 1_554 S
C554 C552 1.383 . S
C554 C555 1.402 1_554 S
C554 H569 0.951 . S
C555 C554 1.402 1_556 S
C555 C556 1.375 . S
C555 C558 1.481 . S
C556 C555 1.375 . S
C556 C557 1.367 . S
C556 H570 0.951 . S
C557 C553 1.372 1_556 S
C557 C556 1.367 . S
C557 H571 0.950 . S
C558 C555 1.481 . S
C558 C559 1.297 1_566 S
C558 H572 0.950 1_565 S
C559 C558 1.297 1_544 S
C559 C560 1.479 . S
C559 H573 0.950 . S
C560 C559 1.479 . S
C560 C561 1.375 . S
C560 C566 1.404 1_554 S
C561 C560 1.375 . S
C561 C562 1.369 . S
C561 H574 0.950 . S
C562 C561 1.369 . S
C562 C563 1.392 . S
C562 H575 0.951 . S
C563 C562 1.392 . S
C563 C565 1.384 1_554 S
H564 C566 0.949 . S
C565 C563 1.384 1_556 S
C565 C566 1.385 . S
C565 H567 0.950 . S
C566 C560 1.404 1_556 S
C566 H564 0.949 . S
C566 C565 1.385 . S
H567 C565 0.950 . S
H568 C552 0.951 . S
H569 C554 0.951 . S
H570 C556 0.951 . S
H571 C557 0.950 . S
H572 C558 0.950 1_545 S
H573 C559 0.950 . S
H574 C561 0.950 . S
H575 C562 0.951 . S
C576 C577 1.386 . S
C576 C578 1.383 . S
C576 H592 0.951 . S
C577 C576 1.386 . S
C577 C581 1.383 1_554 S
C578 C576 1.383 . S
C578 C579 1.402 1_554 S
C578 H593 0.951 . S
C579 C578 1.402 1_556 S
C579 C580 1.375 . S
C579 C582 1.481 . S
C580 C579 1.375 . S
C580 C581 1.367 . S
C580 H594 0.951 . S
C581 C577 1.383 1_556 S
C581 C580 1.367 . S
C581 H595 0.950 . S
C582 C579 1.481 . S
C582 C583 1.297 1_556 S
C582 H596 0.950 . S
C583 C582 1.297 1_554 S
C583 C584 1.479 . S
C583 H597 0.950 . S
C584 C583 1.479 . S
C584 C585 1.375 . S
C584 C590 1.404 1_554 S
C585 C584 1.375 . S
C585 C586 1.369 . S
C585 H598 0.950 . S
C586 C585 1.369 . S
C586 C587 1.392 . S
C586 H599 0.951 . S
C587 C586 1.392 . S
C587 C589 1.384 1_554 S
H588 C590 0.949 . S
C589 C587 1.384 1_556 S
C589 C590 1.385 . S
C589 H591 0.950 . S
C590 C584 1.404 1_556 S
C590 H588 0.949 . S
C590 C589 1.385 . S
H591 C589 0.950 . S
H592 C576 0.951 . S
H593 C578 0.951 . S
H594 C580 0.951 . S
H595 C581 0.950 . S
H596 C582 0.950 . S
H597 C583 0.950 . S
H598 C585 0.950 . S
H599 C586 0.951 . S
C600 C601 1.386 . S
C600 C602 1.383 . S
C600 H616 0.951 . S
C601 C600 1.386 . S
C601 C605 1.383 . S
C602 C600 1.383 . S
C602 C603 1.402 . S
C602 H617 0.951 . S
C603 C602 1.402 . S
C603 C604 1.375 . S
C603 C606 1.481 . S
C604 C603 1.375 . S
C604 C605 1.367 . S
C604 H618 0.951 . S
C605 C601 1.383 . S
C605 C604 1.367 . S
C605 H619 0.950 . S
C606 C603 1.481 . S
C606 C607 1.297 . S
C606 H620 0.950 . S
C607 C606 1.297 . S
C607 C608 1.479 . S
C607 H621 0.950 . S
C608 C607 1.479 . S
C608 C609 1.375 . S
C608 C614 1.404 . S
C609 C608 1.375 . S
C609 C610 1.369 . S
C609 H622 0.950 . S
C610 C609 1.369 . S
C610 C611 1.392 . S
C610 H623 0.951 . S
C611 C610 1.392 . S
C611 C613 1.384 . S
H612 C614 0.949 . S
C613 C611 1.384 . S
C613 C614 1.385 . S
C613 H615 0.950 . S
C614 C608 1.404 . S
C614 H612 0.949 . S
C614 C613 1.385 . S
H615 C613 0.950 . S
H616 C600 0.951 . S
H617 C602 0.951 . S
H618 C604 0.951 . S
H619 C605 0.950 . S
H620 C606 0.950 . S
H621 C607 0.950 . S
H622 C609 0.950 . S
H623 C610 0.951 . S
C624 C625 1.386 1_556 S
C624 C626 1.383 . S
C624 H640 0.951 . S
C625 C624 1.386 1_554 S
C625 C629 1.383 . S
C626 C624 1.383 . S
C626 C627 1.403 . S
C626 H641 0.951 . S
C627 C626 1.403 . S
C627 C628 1.373 1_556 S
C627 C630 1.481 . S
C628 C627 1.373 1_554 S
C628 C629 1.367 . S
C628 H642 0.951 . S
C629 C625 1.383 . S
C629 C628 1.367 . S
C629 H643 0.950 . S
C630 C627 1.481 . S
C630 C631 1.297 . S
C630 H644 0.950 1_556 S
C631 C630 1.297 . S
C631 C632 1.479 . S
C631 H645 0.950 . S
C632 C631 1.479 . S
C632 C633 1.375 . S
C632 C638 1.404 . S
C633 C632 1.375 . S
C633 C634 1.369 . S
C633 H646 0.950 . S
C634 C633 1.369 . S
C634 C635 1.398 . S
C634 H647 0.951 . S
C635 C634 1.398 . S
C635 C637 1.384 1_556 S
H636 C638 0.949 . S
C637 C635 1.384 1_554 S
C637 C638 1.383 1_554 S
C637 H639 0.953 . S
C638 C632 1.404 . S
C638 H636 0.949 . S
C638 C637 1.383 1_556 S
H639 C637 0.953 . S
H640 C624 0.951 . S
H641 C626 0.951 . S
H642 C628 0.951 . S
H643 C629 0.950 . S
H644 C630 0.950 1_554 S
H645 C631 0.950 . S
H646 C633 0.950 . S
H647 C634 0.951 . S
C648 C649 1.386 . S
C648 C650 1.383 . S
C648 H664 0.951 . S
C649 C648 1.386 . S
C649 C653 1.383 . S
C650 C648 1.383 . S
C650 C651 1.402 . S
C650 H665 0.951 . S
C651 C650 1.402 . S
C651 C652 1.375 . S
C651 C654 1.481 . S
C652 C651 1.375 . S
C652 C653 1.367 . S
C652 H666 0.951 . S
C653 C649 1.383 . S
C653 C652 1.367 . S
C653 H667 0.950 . S
C654 C651 1.481 . S
C654 C655 1.297 . S
C654 H668 0.950 . S
C655 C654 1.297 . S
C655 C656 1.479 . S
C655 H669 0.950 . S
C656 C655 1.479 . S
C656 C657 1.375 . S
C656 C662 1.404 . S
C657 C656 1.375 . S
C657 C658 1.369 . S
C657 H670 0.950 . S
C658 C657 1.369 . S
C658 C659 1.392 . S
C658 H671 0.951 . S
C659 C658 1.392 . S
C659 C661 1.384 . S
H660 C662 0.949 . S
C661 C659 1.384 . S
C661 C662 1.385 . S
C661 H663 0.950 . S
C662 C656 1.404 . S
C662 H660 0.949 . S
C662 C661 1.385 . S
H663 C661 0.950 . S
H664 C648 0.951 . S
H665 C650 0.951 . S
H666 C652 0.951 . S
H667 C653 0.950 . S
H668 C654 0.950 . S
H669 C655 0.950 . S
H670 C657 0.950 . S
H671 C658 0.951 . S
C289 C3 0.932 . S
C299 C147 0.939 . S
C313 C38 1.280 . S
C323 C182 1.225 . S
C337 C219 0.984 . S
C347 C75 0.950 . S
C361 C254 1.326 . S
C371 C110 1.344 . S
C385 C220 0.933 . S
C395 C76 1.046 . S
C409 C266 1.441 . S
C419 C122 1.451 . S
C433 C4 1.010 . S
C443 C148 0.899 . S
C457 C50 1.435 . S
C467 C194 1.454 . S
C481 C74 1.297 . S
C491 C2 1.339 . S
C505 C111 1.310 . S
C515 C39 1.249 . S
C529 C146 1.276 . S
C539 C218 1.344 . S
C553 C255 1.314 . S
C563 C183 1.247 . S
C577 C14 1.190 1_554 S
C587 C184 1.268 . S
C601 C230 1.190 . S
C611 C40 1.269 . S
C625 C86 1.216 1_554 S
C635 C256 1.208 1_556 S
C649 C112 1.245 . S
C659 C158 1.169 . S
