# Generated by pormake.
# Topology sod, (4)-cn, num edge types: 1
# Building blocks:
#     Node 0, Type 0, BuildingBlock: NAHDIM_clean_sbu_0, # of connection points: 4
#     Node 1, Type 0, BuildingBlock: NAHDIM_clean_sbu_0, # of connection points: 4
#     Node 2, Type 0, BuildingBlock: NAHDIM_clean_sbu_0, # of connection points: 4
#     Node 3, Type 0, BuildingBlock: NAHDIM_clean_sbu_0, # of connection points: 4
#     Node 4, Type 0, BuildingBlock: NAHDIM_clean_sbu_0, # of connection points: 4
#     Node 5, Type 0, BuildingBlock: NAHDIM_clean_sbu_0, # of connection points: 4
#     Node 6, Type 0, BuildingBlock: NAHDIM_clean_sbu_0, # of connection points: 4
#     Node 7, Type 0, BuildingBlock: NAHDIM_clean_sbu_0, # of connection points: 4
#     Node 8, Type 0, BuildingBlock: NAHDIM_clean_sbu_0, # of connection points: 4
#     Node 9, Type 0, BuildingBlock: NAHDIM_clean_sbu_0, # of connection points: 4
#     Node 10, Type 0, BuildingBlock: NAHDIM_clean_sbu_0, # of connection points: 4
#     Node 11, Type 0, BuildingBlock: NAHDIM_clean_sbu_0, # of connection points: 4
#     Edge 12, Type (0, 0), BuildingBlock: XUDNAN_clean_linker_2, # of connection points: 2
#     Edge 13, Type (0, 0), BuildingBlock: XUDNAN_clean_linker_2, # of connection points: 2
#     Edge 14, Type (0, 0), BuildingBlock: XUDNAN_clean_linker_2, # of connection points: 2
#     Edge 15, Type (0, 0), BuildingBlock: XUDNAN_clean_linker_2, # of connection points: 2
#     Edge 16, Type (0, 0), BuildingBlock: XUDNAN_clean_linker_2, # of connection points: 2
#     Edge 17, Type (0, 0), BuildingBlock: XUDNAN_clean_linker_2, # of connection points: 2
#     Edge 18, Type (0, 0), BuildingBlock: XUDNAN_clean_linker_2, # of connection points: 2
#     Edge 19, Type (0, 0), BuildingBlock: XUDNAN_clean_linker_2, # of connection points: 2
#     Edge 20, Type (0, 0), BuildingBlock: XUDNAN_clean_linker_2, # of connection points: 2
#     Edge 21, Type (0, 0), BuildingBlock: XUDNAN_clean_linker_2, # of connection points: 2
#     Edge 22, Type (0, 0), BuildingBlock: XUDNAN_clean_linker_2, # of connection points: 2
#     Edge 23, Type (0, 0), BuildingBlock: XUDNAN_clean_linker_2, # of connection points: 2
#     Edge 24, Type (0, 0), BuildingBlock: XUDNAN_clean_linker_2, # of connection points: 2
#     Edge 25, Type (0, 0), BuildingBlock: XUDNAN_clean_linker_2, # of connection points: 2
#     Edge 26, Type (0, 0), BuildingBlock: XUDNAN_clean_linker_2, # of connection points: 2
#     Edge 27, Type (0, 0), BuildingBlock: XUDNAN_clean_linker_2, # of connection points: 2
#     Edge 28, Type (0, 0), BuildingBlock: XUDNAN_clean_linker_2, # of connection points: 2
#     Edge 29, Type (0, 0), BuildingBlock: XUDNAN_clean_linker_2, # of connection points: 2
#     Edge 30, Type (0, 0), BuildingBlock: XUDNAN_clean_linker_2, # of connection points: 2
#     Edge 31, Type (0, 0), BuildingBlock: XUDNAN_clean_linker_2, # of connection points: 2
#     Edge 32, Type (0, 0), BuildingBlock: XUDNAN_clean_linker_2, # of connection points: 2
#     Edge 33, Type (0, 0), BuildingBlock: XUDNAN_clean_linker_2, # of connection points: 2
#     Edge 34, Type (0, 0), BuildingBlock: XUDNAN_clean_linker_2, # of connection points: 2
#     Edge 35, Type (0, 0), BuildingBlock: XUDNAN_clean_linker_2, # of connection points: 2
# Relax obj value: 0.090
# Max RMSD: 0.132
# Mean RMSD: 0.129
data_MOF--net-sod--node1-NAHDIM_clean_sbu_0--edge1-XUDNAN_clean_linker_2
_symmetry_space_group_name_H-M    P1
_symmetry_Int_Tables_number       1
_symmetry_cell_setting            triclinic
loop_
_symmetry_equiv_pos_as_xyz
'x, y, z'
_cell_length_a     42.589148
_cell_length_b     42.459026
_cell_length_c     42.153495
_cell_angle_alpha  90.705525
_cell_angle_beta   91.14566
_cell_angle_gamma 93.912173
loop_
_atom_site_label
_atom_site_type_symbol
_atom_site_fract_x
_atom_site_fract_y
_atom_site_fract_z
_atom_type_partial_charge
C0 C 0.03795 0.20362 0.53251 0.0
O1 O 0.01018 0.19872 0.51857 0.0
O2 O 0.02372 0.28676 0.49837 0.0
Zn3 Zn 0.01715 0.26628 0.54069 0.0
O4 O 0.97177 0.24957 0.54098 0.0
C5 C 0.01294 0.30457 0.59932 0.0
O6 O 0.98724 0.28692 0.60521 0.0
O7 O 0.04611 0.23076 0.54421 0.0
C8 C 0.96028 0.22753 0.55825 0.0
O9 O 0.97805 0.21599 0.5805 0.0
C10 C 0.01118 0.27423 0.47322 0.0
O11 O 0.99434 0.24726 0.475 0.0
O12 O 0.02817 0.29935 0.5744 0.0
C13 C 0.78294 0.94197 0.49045 0.0
O14 O 0.75317 0.93543 0.49689 0.0
O15 O 0.73747 0.99297 0.53518 0.0
Zn16 Zn 0.76532 0.00553 0.49886 0.0
O17 O 0.79217 0.0453 0.5101 0.0
C18 C 0.72389 0.03791 0.45732 0.0
O19 O 0.72963 0.06087 0.47822 0.0
O20 O 0.79352 0.97065 0.4896 0.0
C21 C 0.80236 0.06371 0.48851 0.0
O22 O 0.79575 0.05641 0.45863 0.0
C23 C 0.72386 0.01352 0.55101 0.0
O24 O 0.72946 0.04353 0.54451 0.0
O25 O 0.7369 0.01208 0.46091 0.0
C26 C 0.959 0.80625 0.47012 0.0
O27 O 0.98506 0.82378 0.46537 0.0
O28 O -0.00296 0.71674 0.44862 0.0
Zn29 Zn 0.00109 0.75532 0.47664 0.0
O30 O 0.03774 0.78442 0.46312 0.0
C31 C 0.02689 0.719 0.52616 0.0
O32 O 0.04218 0.70783 0.50218 0.0
O33 O 0.96046 0.77689 0.47494 0.0
C34 C 0.05815 0.79615 0.48312 0.0
O35 O 0.05524 0.78929 0.51326 0.0
C36 C 0.00629 0.71562 0.4202 0.0
O37 O 0.01871 0.74138 0.40715 0.0
O38 O 0.00798 0.74038 0.52115 0.0
C39 C 0.21538 0.06866 0.5241 0.0
O40 O 0.24215 0.08451 0.53148 0.0
O41 O 0.27917 0.01261 0.54554 0.0
Zn42 Zn 0.25275 0.01541 0.50588 0.0
O43 O 0.23436 0.9721 0.49378 0.0
C44 C 0.30007 0.01827 0.45902 0.0
O45 O 0.30443 0.99019 0.47039 0.0
O46 O 0.21551 0.04058 0.51345 0.0
C47 C 0.22174 0.96669 0.46652 0.0
O48 O 0.22338 0.98908 0.44526 0.0
C49 C 0.26673 0.00175 0.57064 0.0
O50 O 0.23643 0.99345 0.57033 0.0
O51 O 0.27876 0.03414 0.47069 0.0
C52 C 0.45078 0.06431 0.28974 0.0
O53 O 0.45804 0.09005 0.27374 0.0
O54 O 0.50063 0.07016 0.22121 0.0
Zn55 Zn 0.50193 0.03744 0.25529 0.0
O56 O 0.5423 0.04441 0.28063 0.0
C57 C 0.51877 0.98492 0.21606 0.0
O58 O 0.54439 0.00308 0.21116 0.0
O59 O 0.46602 0.04 0.2852 0.0
C60 C 0.55644 0.02278 0.29428 0.0
O61 O 0.54499 0.99334 0.2914 0.0
C62 C 0.51721 0.09618 0.22342 0.0
O63 O 0.53467 0.10237 0.24907 0.0
O64 O 0.49807 0.9946 0.23441 0.0
C65 C 0.08254 0.48376 0.24231 0.0
O66 O 0.08133 0.4898 0.27287 0.0
O67 O 0.01311 0.50349 0.28277 0.0
Zn68 Zn 0.01669 0.4686 0.25081 0.0
O69 O 0.97894 0.46918 0.22164 0.0
C70 C 0.02772 0.42759 0.30218 0.0
O71 O 0.04116 0.45402 0.31404 0.0
O72 O 0.05735 0.47463 0.2272 0.0
C73 C 0.97774 0.46012 0.1928 0.0
O74 O 0.00273 0.44904 0.18009 0.0
C75 C 0.0183 0.53267 0.27714 0.0
O76 O 0.02721 0.5415 0.24876 0.0
O77 O 0.01545 0.42755 0.27443 0.0
C78 C 0.54825 0.98965 0.69792 0.0
O79 O 0.53813 0.01755 0.70422 0.0
O80 O 0.51236 0.00944 0.76853 0.0
Zn81 Zn 0.50021 0.97107 0.74137 0.0
O82 O 0.45979 0.97679 0.71718 0.0
C83 C 0.51439 0.93058 0.79251 0.0
O84 O 0.53643 0.95326 0.79811 0.0
O85 O 0.53506 0.96547 0.71085 0.0
C86 C 0.43325 0.96734 0.72815 0.0
O87 O 0.43221 0.95352 0.75586 0.0
C88 C 0.49304 0.02401 0.78483 0.0
O89 O 0.46315 0.01405 0.78422 0.0
O90 O 0.49561 0.93284 0.76898 0.0
C91 C 0.05704 0.5884 0.71275 0.0
O92 O 0.07612 0.5663 0.70608 0.0
O93 O 0.01076 0.54843 0.79757 0.0
Zn94 Zn 0.0475 0.55129 0.76843 0.0
O95 O 0.05106 0.51135 0.74267 0.0
C96 C 0.09761 0.53853 0.81133 0.0
O97 O 0.08414 0.50983 0.80855 0.0
O98 O 0.04228 0.58713 0.73864 0.0
C99 C 0.03754 0.48436 0.74797 0.0
O100 O 0.01952 0.4805 0.77273 0.0
C101 C 0.98252 0.53961 0.7898 0.0
O102 O 0.97557 0.53052 0.76044 0.0
O103 O 0.08643 0.56058 0.79548 0.0
C104 C 0.29271 0.43486 0.02903 0.0
O105 O 0.26586 0.42995 0.04357 0.0
O106 O 0.25117 0.49413 0.06992 0.0
Zn107 Zn 0.28062 0.50169 0.03373 0.0
O108 O 0.31325 0.53624 0.04633 0.0
C109 C 0.25011 0.54166 0.9885 0.0
O110 O 0.26134 0.56494 0.00715 0.0
O111 O 0.30292 0.46294 0.02307 0.0
C112 C 0.33214 0.54901 0.02658 0.0
O113 O 0.32992 0.54006 0.99662 0.0
C114 C 0.26139 0.49664 0.09843 0.0
O115 O 0.29164 0.50306 0.10392 0.0
O116 O 0.25559 0.51346 0.99532 0.0
C117 C 0.45401 0.29517 0.96437 0.0
O118 O 0.47571 0.3116 0.94869 0.0
O119 O 0.50191 0.21634 0.9382 0.0
Zn120 Zn 0.50285 0.25152 0.9706 0.0
O121 O 0.53421 0.28666 0.95783 0.0
C122 C 0.50012 0.21002 0.02315 0.0
O123 O 0.47778 0.19584 0.00512 0.0
O124 O 0.45997 0.26827 0.9749 0.0
C125 C 0.56104 0.29189 0.97133 0.0
O126 O 0.56929 0.2736 0.99453 0.0
C127 C 0.52803 0.20666 0.92954 0.0
O128 O 0.55428 0.22014 0.94177 0.0
O129 O 0.51497 0.23475 0.01311 0.0
C130 C 0.75053 0.56897 0.01067 0.0
O131 O 0.77959 0.57068 0.02193 0.0
O132 O 0.78841 0.49803 0.03129 0.0
Zn133 Zn 0.76613 0.50703 0.99027 0.0
O134 O 0.73792 0.46916 0.9769 0.0
C135 C 0.80375 0.50613 0.9318 0.0
O136 O 0.78439 0.48267 0.92145 0.0
O137 O 0.7397 0.54388 0.99641 0.0
C138 C 0.71645 0.47152 0.95587 0.0
O139 O 0.71416 0.49862 0.94157 0.0
C140 C 0.81302 0.48272 0.03041 0.0
O141 O 0.82234 0.47227 0.00293 0.0
O142 O 0.7994 0.51884 0.95865 0.0
C143 C 0.58549 0.71933 0.01339 0.0
O144 O 0.56149 0.70786 0.99576 0.0
O145 O 0.53679 0.78599 0.98467 0.0
Zn146 Zn 0.54122 0.76412 0.02644 0.0
O147 O 0.50699 0.72935 0.03021 0.0
C148 C 0.51057 0.80187 0.07134 0.0
O149 O 0.48559 0.78666 0.05828 0.0
O150 O 0.58288 0.74468 0.02917 0.0
C151 C 0.50245 0.71516 0.05624 0.0
O152 O 0.52022 0.72362 0.08115 0.0
C153 C 0.51897 0.77467 0.96217 0.0
O154 O 0.5032 0.74731 0.96578 0.0
O155 O 0.5377 0.79615 0.06162 0.0
H156 H 0.04037 0.33247 0.46241 0.0
H157 H 0.98754 0.25373 0.41505 0.0
H158 H 0.98909 0.28302 0.36478 0.0
H159 H 0.00198 0.39236 0.42444 0.0
H160 H 0.03662 0.41897 0.4217 0.0
H161 H 0.03379 0.3907 0.45312 0.0
H162 H 0.08622 0.3686 0.43596 0.0
H163 H 0.08926 0.39691 0.40448 0.0
H164 H 0.09033 0.35538 0.39554 0.0
H165 H 0.99332 0.32252 0.32054 0.0
H166 H -0.00013 0.36913 0.28608 0.0
H167 H 0.04983 0.4215 0.36289 0.0
C168 C 0.02951 0.32115 0.44139 0.0
C169 C 0.01389 0.29078 0.44265 0.0
C170 C -0.0003 0.27697 0.41465 0.0
C171 C 0.0005 0.29338 0.38596 0.0
C172 C 0.0157 0.32348 0.38568 0.0
C173 C 0.03005 0.33717 0.41265 0.0
C174 C 0.04343 0.37039 0.40651 0.0
C175 C 0.02802 0.39451 0.42769 0.0
C176 C 0.07945 0.37295 0.41088 0.0
C177 C 0.0338 0.37352 0.37204 0.0
C178 C 0.01806 0.34616 0.36032 0.0
C179 C 0.00587 0.34397 0.32937 0.0
C180 C 0.00967 0.37056 0.31 0.0
C181 C 0.02539 0.39893 0.32176 0.0
C182 C 0.03784 0.40014 0.35308 0.0
H183 H 0.69218 0.99167 0.42091 0.0
H184 H 0.70568 0.09335 0.43338 0.0
H185 H 0.66708 0.10042 0.39002 0.0
H186 H 0.68018 0.99046 0.33438 0.0
H187 H 0.65011 0.95849 0.33527 0.0
H188 H 0.68103 0.96143 0.36518 0.0
H189 H 0.63933 0.96078 0.40915 0.0
H190 H 0.60832 0.95789 0.37942 0.0
H191 H 0.61004 0.9895 0.40847 0.0
H192 H 0.62553 0.09652 0.34731 0.0
H193 H 0.58173 0.08202 0.30973 0.0
H194 H 0.59371 0.98271 0.32619 0.0
C195 C 0.68739 0.01542 0.41414 0.0
C196 C 0.70204 0.042 0.43031 0.0
C197 C 0.69471 0.07269 0.42125 0.0
C198 C 0.67295 0.07694 0.39658 0.0
C199 C 0.65863 0.05025 0.38135 0.0
C200 C 0.66542 0.02008 0.38982 0.0
C201 C 0.64507 0.9954 0.37117 0.0
C202 C 0.66531 0.97526 0.35025 0.0
C203 C 0.62447 0.97469 0.39338 0.0
C204 C 0.62544 0.01644 0.35126 0.0
C205 C 0.63396 0.04798 0.35722 0.0
C206 C 0.61874 0.07191 0.34231 0.0
C207 C 0.59386 0.0634 0.321 0.0
C208 C 0.58423 0.03121 0.31503 0.0
C209 C 0.60054 0.0075 0.33018 0.0
H210 H 0.0312 0.59704 0.27546 0.0
H211 H 0.99517 0.52151 0.33618 0.0
H212 H 0.98709 0.56035 0.37857 0.0
H213 H 0.07329 0.64263 0.33694 0.0
H214 H 0.06431 0.68021 0.32091 0.0
H215 H 0.06667 0.64657 0.29484 0.0
H216 H 0.01028 0.65402 0.27328 0.0
H217 H 0.00773 0.68766 0.29934 0.0
H218 H 0.97835 0.65509 0.30062 0.0
H219 H 0.983 0.60676 0.41436 0.0
H220 H 0.9846 0.65814 0.44226 0.0
H221 H 0.02383 0.70394 0.35889 0.0
C222 C 0.02154 0.58869 0.29763 0.0
C223 C 0.01375 0.55623 0.30245 0.0
C224 C 0.00132 0.54624 0.33189 0.0
C225 C 0.99658 0.56812 0.35613 0.0
C226 C 0.00444 0.59989 0.35061 0.0
C227 C 0.01675 0.61022 0.32219 0.0
C228 C 0.02376 0.64571 0.32275 0.0
C229 C 0.05911 0.65427 0.31862 0.0
C230 C 0.00383 0.66154 0.2975 0.0
C231 C 0.01353 0.65362 0.35596 0.0
C232 C 0.00234 0.62682 0.37151 0.0
C233 C 0.99168 0.62795 0.40246 0.0
C234 C 0.99267 0.65729 0.41808 0.0
C235 C 0.00434 0.68511 0.40278 0.0
C236 C 0.01475 0.68315 0.37123 0.0
H237 H 0.34632 0.9894 0.42795 0.0
H238 H 0.29807 0.0762 0.43115 0.0
H239 H 0.33103 0.09751 0.38774 0.0
H240 H 0.42312 0.02507 0.41312 0.0
H241 H 0.43356 0.99381 0.38686 0.0
H242 H 0.40597 0.98546 0.41797 0.0
H243 H 0.36482 0.96199 0.37646 0.0
H244 H 0.39228 0.97028 0.34522 0.0
H245 H 0.35384 0.98557 0.34326 0.0
H246 H 0.36993 0.10947 0.34419 0.0
H247 H 0.4114 0.11091 0.30388 0.0
H248 H 0.43336 0.01599 0.32946 0.0
C249 C 0.34262 0.01289 0.41956 0.0
C250 C 0.31962 0.03113 0.43297 0.0
C251 C 0.31555 0.06177 0.42124 0.0
C252 C 0.33415 0.07408 0.39659 0.0
C253 C 0.35663 0.05544 0.38393 0.0
C254 C 0.36089 0.02549 0.395 0.0
C255 C 0.38666 0.01026 0.37747 0.0
C256 C 0.41394 0.00325 0.40021 0.0
C257 C 0.37361 0.98026 0.35954 0.0
C258 C 0.39632 0.03634 0.35481 0.0
C259 C 0.37878 0.06223 0.35887 0.0
C260 C 0.38377 0.0893 0.34076 0.0
C261 C 0.40738 0.0899 0.31794 0.0
C262 C 0.4256 0.06356 0.31345 0.0
C263 C 0.41981 0.03649 0.33217 0.0
H264 H 0.0788 0.59346 0.65218 0.0
H265 H 0.02258 0.63994 0.72114 0.0
H266 H 0.01136 0.68045 0.68174 0.0
H267 H 0.11183 0.66495 0.61433 0.0
H268 H 0.10974 0.64705 0.57527 0.0
H269 H 0.11518 0.62305 0.60965 0.0
H270 H 0.06598 0.58698 0.59278 0.0
H271 H 0.06035 0.61086 0.55843 0.0
H272 H 0.02893 0.60422 0.58609 0.0
H273 H 0.00385 0.71412 0.63397 0.0
H274 H 0.00025 0.73825 0.58114 0.0
H275 H 0.06122 0.66951 0.54353 0.0
C276 C 0.06447 0.61237 0.65917 0.0
C277 C 0.05165 0.61359 0.68977 0.0
C278 C 0.03269 0.63854 0.69783 0.0
C279 C 0.02624 0.6617 0.67565 0.0
C280 C 0.03896 0.65959 0.64557 0.0
C281 C 0.05771 0.6356 0.63733 0.0
C282 C 0.06723 0.63783 0.60298 0.0
C283 C 0.10313 0.64357 0.60042 0.0
C284 C 0.05487 0.60822 0.58396 0.0
C285 C 0.05052 0.66656 0.59307 0.0
C286 C 0.03452 0.6789 0.61802 0.0
C287 C 0.01648 0.70482 0.6143 0.0
C288 C 0.01454 0.71832 0.5842 0.0
C289 C 0.03049 0.70581 0.55821 0.0
C290 C 0.04893 0.67978 0.56293 0.0
H291 H 0.42747 0.9929 0.66906 0.0
H292 H 0.37267 0.95153 0.74572 0.0
H293 H 0.32378 0.95795 0.71468 0.0
H294 H 0.37255 0.05067 0.64615 0.0
H295 H 0.37987 0.0464 0.60441 0.0
H296 H 0.41044 0.03969 0.63321 0.0
H297 H 0.41568 0.9838 0.60929 0.0
H298 H 0.38518 0.99035 0.58042 0.0
H299 H 0.38135 0.95658 0.60589 0.0
H300 H 0.28099 0.96733 0.67451 0.0
H301 H 0.24758 0.9783 0.62791 0.0
H302 H 0.33061 0.01347 0.57775 0.0
C303 C 0.4052 0.98536 0.67945 0.0
C304 C 0.40391 0.97173 0.70986 0.0
C305 C 0.37427 0.96204 0.72248 0.0
C306 C 0.34636 0.96564 0.70507 0.0
C307 C 0.3485 0.97903 0.67511 0.0
C308 C 0.37717 0.98874 0.66242 0.0
C309 C 0.37311 0.0016 0.62937 0.0
C310 C 0.38467 0.03668 0.62824 0.0
C311 C 0.38982 0.9819 0.6048 0.0
C312 C 0.3377 0.99726 0.6253 0.0
C313 C 0.32391 0.98437 0.652 0.0
C314 C 0.2915 0.97757 0.65352 0.0
C315 C 0.27273 0.98388 0.62692 0.0
C316 C 0.28645 0.99677 0.59918 0.0
C317 C 0.31935 0.00374 0.59862 0.0
H318 H 0.98538 0.32439 0.65398 0.0
H319 H 0.06443 0.34576 0.59244 0.0
H320 H 0.08092 0.39219 0.62579 0.0
H321 H 0.96676 0.40316 0.66726 0.0
H322 H 0.95666 0.39788 0.70827 0.0
H323 H 0.95209 0.36495 0.68088 0.0
H324 H 0.98758 0.33291 0.71718 0.0
H325 H 0.99223 0.36577 0.74474 0.0
H326 H 0.02643 0.34925 0.7285 0.0
H327 H 0.0868 0.43821 0.66306 0.0
H328 H 0.08236 0.48053 0.70299 0.0
H329 H 0.00037 0.4291 0.74141 0.0
C330 C 0.00636 0.33862 0.64772 0.0
C331 C 0.02359 0.33138 0.62056 0.0
C332 C 0.05082 0.35075 0.61311 0.0
C333 C 0.06044 0.37718 0.63194 0.0
C334 C 0.04275 0.38386 0.65829 0.0
C335 C 0.0164 0.36509 0.66635 0.0
C336 C 0.001 0.37826 0.69531 0.0
C337 C 0.96713 0.38656 0.68744 0.0
C338 C 0.00188 0.35517 0.72308 0.0
C339 C 0.02248 0.40766 0.70183 0.0
C340 C 0.04646 0.41034 0.68023 0.0
C341 C 0.06836 0.43623 0.68036 0.0
C342 C 0.06557 0.46018 0.70307 0.0
C343 C 0.04114 0.45801 0.72541 0.0
C344 C 0.01955 0.4312 0.72492 0.0
H345 H 0.5825 0.03703 0.66797 0.0
H346 H 0.57501 0.93539 0.6801 0.0
H347 H 0.62039 0.93054 0.64521 0.0
H348 H 0.60253 0.03603 0.58605 0.0
H349 H 0.62957 0.07052 0.58941 0.0
H350 H 0.59689 0.0659 0.61577 0.0
H351 H 0.63539 0.07213 0.66421 0.0
H352 H 0.66822 0.07664 0.63797 0.0
H353 H 0.66724 0.04642 0.66767 0.0
H354 H 0.66604 0.93677 0.60825 0.0
H355 H 0.70798 0.95352 0.57121 0.0
H356 H 0.68562 0.0511 0.58386 0.0
C357 C 0.59037 0.01373 0.66334 0.0
C358 C 0.57519 0.98658 0.67677 0.0
C359 C 0.58627 0.95653 0.67007 0.0
C360 C 0.61205 0.95354 0.65034 0.0
C361 C 0.62652 0.98081 0.63757 0.0
C362 C 0.61605 0.01032 0.64378 0.0
C363 C 0.63542 0.03585 0.62678 0.0
C364 C 0.61488 0.05308 0.6031 0.0
C365 C 0.65259 0.05913 0.65058 0.0
C366 C 0.65831 0.01608 0.60986 0.0
C367 C 0.65285 0.9844 0.61645 0.0
C368 C 0.67061 0.96153 0.603 0.0
C369 C 0.69439 0.97128 0.58201 0.0
C370 C 0.70015 0.00363 0.57469 0.0
C371 C 0.68198 0.02623 0.58911 0.0
H372 H 0.43871 0.35583 0.95456 0.0
H373 H 0.40281 0.26674 0.9938 0.0
H374 H 0.35564 0.29201 0.01197 0.0
H375 H 0.41621 0.40362 0.01695 0.0
H376 H 0.40593 0.4359 0.9923 0.0
H377 H 0.43509 0.41008 0.97945 0.0
H378 H 0.40324 0.39785 0.92718 0.0
H379 H 0.37404 0.42385 0.93977 0.0
H380 H 0.3625 0.38346 0.92892 0.0
H381 H 0.31402 0.32816 0.02896 0.0
H382 H 0.28162 0.37217 0.04334 0.0
H383 H 0.34592 0.43726 0.99371 0.0
C384 C 0.42069 0.34142 0.96644 0.0
C385 C 0.42438 0.30927 0.97262 0.0
C386 C 0.40043 0.29141 0.9887 0.0
C387 C 0.37354 0.30554 -0.00092 0.0
C388 C 0.37098 0.33749 0.99316 0.0
C389 C 0.39388 0.35515 0.9771 0.0
C390 C 0.38652 0.38944 0.97535 0.0
C391 C 0.41247 0.41102 0.99201 0.0
C392 C 0.38126 0.39921 0.94074 0.0
C393 C 0.35621 0.38847 0.99348 0.0
C394 C 0.3474 0.35828 0.0033 0.0
C395 C 0.32057 0.35186 0.02118 0.0
C396 C 0.30235 0.377 0.02927 0.0
C397 C 0.31124 0.40815 0.01969 0.0
C398 C 0.33845 0.41374 0.00141 0.0
H399 H 0.3697 0.58832 0.98997 0.0
H400 H 0.35005 0.56445 0.0878 0.0
H401 H 0.39171 0.60417 0.10608 0.0
H402 H 0.45347 0.60111 -0.00067 0.0
H403 H 0.45643 0.63401 0.97268 0.0
H404 H 0.42514 0.60358 0.96725 0.0
H405 H 0.38393 0.64569 0.96995 0.0
H406 H 0.41511 0.67625 0.97533 0.0
H407 H 0.38415 0.67205 0.00382 0.0
H408 H 0.43638 0.64556 0.11368 0.0
H409 H 0.47924 0.68754 0.11006 0.0
H410 H 0.46847 0.68539 0.00738 0.0
C411 C 0.37417 0.59141 0.01524 0.0
C412 C 0.3567 0.57323 0.03746 0.0
C413 C 0.36311 0.57816 0.07033 0.0
C414 C 0.38677 0.60061 0.08096 0.0
C415 C 0.40362 0.61808 0.05843 0.0
C416 C 0.39749 0.61391 0.02627 0.0
C417 C 0.41867 0.63609 0.00702 0.0
C418 C 0.43967 0.61758 0.9853 0.0
C419 C 0.3993 0.65887 0.98791 0.0
C420 C 0.43777 0.65324 0.03337 0.0
C421 C 0.42885 0.64241 0.06284 0.0
C422 C 0.44349 0.65435 0.09074 0.0
C423 C 0.46784 0.67813 0.08844 0.0
C424 C 0.4771 0.68981 0.05847 0.0
C425 C 0.46179 0.67711 0.03066 0.0
H426 H 0.61874 0.31148 0.99726 0.0
H427 H 0.55126 0.33365 0.92366 0.0
H428 H 0.58573 0.38006 0.90898 0.0
H429 H 0.63844 0.38978 0.02243 0.0
H430 H 0.67949 0.38418 0.02993 0.0
H431 H 0.65069 0.35139 0.03295 0.0
H432 H 0.68115 0.31955 0.99228 0.0
H433 H 0.71007 0.35231 0.98911 0.0
H434 H 0.68976 0.33617 0.95402 0.0
H435 H 0.62594 0.42592 0.90459 0.0
H436 H 0.66857 0.46806 0.91129 0.0
H437 H 0.70975 0.41555 0.98752 0.0
C438 C 0.61135 0.32585 0.9778 0.0
C439 C 0.58233 0.31887 0.96156 0.0
C440 C 0.57342 0.33848 0.93641 0.0
C441 C 0.59288 0.36486 0.92784 0.0
C442 C 0.6212 0.37122 0.94454 0.0
C443 C 0.63045 0.35224 0.96894 0.0
C444 C 0.66129 0.36508 0.98411 0.0
C445 C 0.65721 0.37309 0.01944 0.0
C446 C 0.68709 0.34189 0.9796 0.0
C447 C 0.66763 0.39457 0.96483 0.0
C448 C 0.64437 0.39759 0.94197 0.0
C449 C 0.64446 0.42367 0.92221 0.0
C450 C 0.66875 0.44749 0.92621 0.0
C451 C 0.69256 0.44507 0.94984 0.0
C452 C 0.6921 0.41799 0.96903 0.0
H453 H 0.69106 0.57415 0.98633 0.0
H454 H 0.76478 0.62466 0.04319 0.0
H455 H 0.73102 0.66936 0.04937 0.0
H456 H 0.66502 0.64181 0.94517 0.0
H457 H 0.62412 0.62776 0.94518 0.0
H458 H 0.65426 0.6 0.94511 0.0
H459 H 0.63118 0.57427 0.9958 0.0
H460 H 0.60096 0.60191 0.99601 0.0
H461 H 0.62614 0.59851 0.0305 0.0
H462 H 0.68846 0.7081 0.05017 0.0
H463 H 0.64071 0.73785 0.04519 0.0
H464 H 0.5957 0.66179 0.98719 0.0
C465 C 0.70019 0.5946 8e-05 0.0
C466 C 0.73056 0.59589 0.01432 0.0
C467 C 0.74159 0.62314 0.03205 0.0
C468 C 0.7226 0.64865 0.03568 0.0
C469 C 0.69275 0.64654 0.02134 0.0
C470 C 0.68166 0.62023 0.00383 0.0
C471 C 0.6487 0.62369 0.99094 0.0
C472 C 0.648 0.6233 0.95443 0.0
C473 C 0.62538 0.59808 0.00411 0.0
C474 C 0.64284 0.65601 0.00409 0.0
C475 C 0.66849 0.66885 0.02155 0.0
C476 C 0.66828 0.69833 0.03645 0.0
C477 C 0.64106 0.71503 0.03349 0.0
C478 C 0.61451 0.7022 0.01574 0.0
C479 C 0.61563 0.67236 0.00079 0.0
H480 H 0.5494 0.83119 0.94672 0.0
H481 H 0.4795 0.75937 0.91132 0.0
H482 H 0.47147 0.79087 0.86332 0.0
H483 H 0.51023 0.89754 0.92036 0.0
H484 H 0.5458 0.92011 0.90983 0.0
H485 H 0.54685 0.89136 0.9408 0.0
H486 H 0.59022 0.86342 0.91128 0.0
H487 H 0.58937 0.89216 0.88025 0.0
H488 H 0.58332 0.85068 0.87064 0.0
H489 H 0.46957 0.83136 0.8202 0.0
H490 H 0.47499 0.87711 0.78457 0.0
H491 H 0.54664 0.92179 0.84818 0.0
C492 C 0.53253 0.82194 0.92882 0.0
C493 C 0.51506 0.7928 0.93279 0.0
C494 C 0.4932 0.7816 0.90878 0.0
C495 C 0.48845 0.79933 0.88144 0.0
C496 C 0.50587 0.82809 0.87843 0.0
C497 C 0.52759 0.83923 0.90139 0.0
C498 C 0.54296 0.87105 0.89269 0.0
C499 C 0.53603 0.89651 0.91739 0.0
C500 C 0.57858 0.8692 0.88846 0.0
C501 C 0.5263 0.87622 0.86136 0.0
C502 C 0.505 0.85119 0.85352 0.0
C503 C 0.48632 0.85101 0.82599 0.0
C504 C 0.48953 0.87712 0.80595 0.0
C505 C 0.51131 0.90298 0.81353 0.0
C506 C 0.52992 0.90233 0.84159 0.0
H507 H 0.2165 0.49832 0.95049 0.0
H508 H 0.23906 0.59905 0.96285 0.0
H509 H 0.20496 0.60916 0.91644 0.0
H510 H 0.21285 0.49694 0.86411 0.0
H511 H 0.18021 0.46758 0.86236 0.0
H512 H 0.20803 0.4683 0.89517 0.0
H513 H 0.1625 0.47212 0.93464 0.0
H514 H 0.13456 0.47139 0.902 0.0
H515 H 0.13621 0.50343 0.93057 0.0
H516 H 0.16676 0.6082 0.86984 0.0
H517 H 0.12593 0.59646 0.82813 0.0
H518 H 0.12804 0.49637 0.84734 0.0
C519 C 0.21459 0.52252 0.94328 0.0
C520 C 0.23054 0.54791 0.96021 0.0
C521 C 0.22708 0.57923 0.9502 0.0
C522 C 0.20785 0.58519 0.92382 0.0
C523 C 0.19229 0.55959 0.90779 0.0
C524 C 0.19542 0.52888 0.9172 0.0
C525 C 0.17501 0.50562 0.897 0.0
C526 C 0.19524 0.4833 0.87856 0.0
C527 C 0.15063 0.48706 0.91727 0.0
C528 C 0.15951 0.52806 0.87501 0.0
C529 C 0.17002 0.55906 0.88136 0.0
C530 C 0.15848 0.584 0.86455 0.0
C531 C 0.13531 0.57708 0.84089 0.0
C532 C 0.12377 0.54549 0.83448 0.0
C533 C 0.13639 0.52075 0.8516 0.0
H534 H 0.45798 0.06201 0.82121 0.0
H535 H 0.55378 0.04853 0.79316 0.0
H536 H 0.57295 0.09419 0.82657 0.0
H537 H 0.46533 0.14725 0.82232 0.0
H538 H 0.44094 0.15078 0.85646 0.0
H539 H 0.43464 0.11714 0.8301 0.0
H540 H 0.44119 0.07963 0.87747 0.0
H541 H 0.44751 0.11315 0.90397 0.0
H542 H 0.47638 0.08408 0.90205 0.0
H543 H 0.58192 0.14047 0.86378 0.0
H544 H 0.57999 0.1849 0.90181 0.0
H545 H 0.47831 0.16872 0.90513 0.0
C546 C 0.48298 0.06868 0.82202 0.0
C547 C 0.50437 0.05166 0.80457 0.0
C548 C 0.53692 0.06119 0.8063 0.0
C549 C 0.54806 0.0871 0.82521 0.0
C550 C 0.52636 0.10329 0.84216 0.0
C551 C 0.49451 0.09454 0.84071 0.0
C552 C 0.47621 0.11587 0.86141 0.0
C553 C 0.45291 0.13383 0.84137 0.0
C554 C 0.45934 0.09705 0.88779 0.0
C555 C 0.50279 0.1379 0.87482 0.0
C556 C 0.53152 0.1302 0.86343 0.0
C557 C 0.55956 0.14682 0.87279 0.0
C558 C 0.5582 0.17199 0.89443 0.0
C559 C 0.529 0.18034 0.90639 0.0
C560 C 0.50098 0.16304 0.8963 0.0
H561 H 0.92436 0.50711 0.78851 0.0
H562 H 0.98535 0.57236 0.84581 0.0
H563 H 0.94509 0.57248 0.88697 0.0
H564 H 0.85003 0.53878 0.8092 0.0
H565 H 0.82907 0.5005 0.81075 0.0
H566 H 0.86193 0.50673 0.78475 0.0
H567 H 0.88894 0.46046 0.81097 0.0
H568 H 0.85619 0.45409 0.83702 0.0
H569 H 0.89553 0.4609 0.85336 0.0
H570 H 0.89926 0.56527 0.92205 0.0
H571 H 0.85118 0.54909 0.95069 0.0
H572 H 0.81996 0.48692 0.87193 0.0
C573 C 0.92906 0.52165 0.80959 0.0
C574 C 0.95789 0.53986 0.81392 0.0
C575 C 0.96343 0.5582 0.84202 0.0
C576 C 0.94068 0.55853 0.86548 0.0
C577 C 0.9126 0.54021 0.8606 0.0
C578 C 0.90671 0.52195 0.8335 0.0
C579 C 0.87513 0.50329 0.83502 0.0
C580 C 0.85272 0.51291 0.80834 0.0
C581 C 0.87921 0.46757 0.83404 0.0
C582 C 0.86433 0.51389 0.86725 0.0
C583 C 0.88625 0.5354 0.88139 0.0
C584 C 0.88186 0.54847 0.91125 0.0
C585 C 0.85442 0.53912 0.9273 0.0
C586 C 0.83176 0.5167 0.91358 0.0
C587 C 0.8368 0.5041 0.88304 0.0
H588 H 0.48366 0.09052 0.16719 0.0
H589 H 0.55287 0.1521 0.21912 0.0
H590 H 0.55595 0.18812 0.17357 0.0
H591 H 0.51825 0.09897 0.09126 0.0
H592 H 0.48115 0.09862 0.06987 0.0
H593 H 0.48376 0.07811 0.10686 0.0
H594 H 0.43917 0.10985 0.12947 0.0
H595 H 0.43632 0.13036 0.09248 0.0
H596 H 0.44308 0.15239 0.12909 0.0
H597 H 0.55261 0.2166 0.12172 0.0
H598 H 0.54172 0.23638 0.06803 0.0
H599 H 0.47442 0.15625 0.05046 0.0
C600 C 0.49936 0.11166 0.16911 0.0
C601 C 0.51804 0.11848 0.19674 0.0
C602 C 0.53829 0.14638 0.19822 0.0
C603 C 0.54025 0.16698 0.17246 0.0
C604 C 0.52173 0.15936 0.14547 0.0
C605 C 0.50156 0.13247 0.14369 0.0
C606 C 0.48434 0.1296 0.11192 0.0
C607 C 0.49237 0.09954 0.09392 0.0
C608 C 0.44861 0.13062 0.116 0.0
C609 C 0.4981 0.15902 0.09603 0.0
C610 C 0.51965 0.17585 0.11574 0.0
C611 C 0.53569 0.20368 0.10611 0.0
C612 C 0.52939 0.21469 0.07555 0.0
C613 C 0.50718 0.19791 0.05506 0.0
C614 C 0.49146 0.16968 0.06555 0.0
H615 H 0.96727 0.44573 0.12951 0.0
H616 H 0.92226 0.48154 0.21288 0.0
H617 H 0.87421 0.48852 0.18095 0.0
H618 H 0.9361 0.49859 0.07483 0.0
H619 H 0.93079 0.47006 0.04282 0.0
H620 H 0.96108 0.46605 0.0726 0.0
H621 H 0.93787 0.4095 0.08449 0.0
H622 H 0.90748 0.41334 0.05471 0.0
H623 H 0.89704 0.40337 0.09475 0.0
H624 H 0.83206 0.4943 0.1396 0.0
H625 H 0.79869 0.49834 0.09145 0.0
H626 H 0.87085 0.45835 0.03515 0.0
C627 C 0.94722 0.45475 0.14114 0.0
C628 C 0.94856 0.46304 0.17372 0.0
C629 C 0.92184 0.47498 0.18796 0.0
C630 C 0.89438 0.47899 0.17004 0.0
C631 C 0.89393 0.47084 0.13795 0.0
C632 C 0.91958 0.45889 0.12361 0.0
C633 C 0.91329 0.453 0.08848 0.0
C634 C 0.9367 0.47313 0.06852 0.0
C635 C 0.91396 0.4177 0.08013 0.0
C636 C 0.88031 0.46399 0.08526 0.0
C637 C 0.86951 0.47403 0.1141 0.0
C638 C 0.84014 0.48626 0.1169 0.0
C639 C 0.82137 0.48849 0.08942 0.0
C640 C 0.83209 0.47856 0.05956 0.0
C641 C 0.86184 0.46589 0.05765 0.0
H642 H 0.55395 0.84872 0.09215 0.0
H643 H 0.45882 0.80907 0.10715 0.0
H644 H 0.45184 0.84984 0.14817 0.0
H645 H 0.57285 0.87177 0.17442 0.0
H646 H 0.59445 0.90794 0.16371 0.0
H647 H 0.59284 0.87426 0.13715 0.0
H648 H 0.57102 0.90817 0.09213 0.0
H649 H 0.57255 0.94192 0.11852 0.0
H650 H 0.53605 0.92881 0.09862 0.0
H651 H 0.4545 0.89562 0.18616 0.0
H652 H 0.46567 0.94493 0.21701 0.0
H653 H 0.55857 0.95594 0.17621 0.0
C654 C 0.5318 0.84838 0.10436 0.0
C655 C 0.50697 0.82564 0.09662 0.0
C656 C 0.47815 0.82628 0.11273 0.0
C657 C 0.474 0.84925 0.13614 0.0
C658 C 0.49884 0.87149 0.14302 0.0
C659 C 0.52714 0.87136 0.12755 0.0
C660 C 0.54939 0.89901 0.13817 0.0
C661 C 0.57914 0.88755 0.15433 0.0
C662 C 0.55773 0.92076 0.11019 0.0
C663 C 0.52905 0.91487 0.1618 0.0
C664 C 0.50012 0.8984 0.16446 0.0
C665 C 0.47711 0.90868 0.18437 0.0
C666 C 0.4837 0.93673 0.2018 0.0
C667 C 0.51299 0.95435 0.19902 0.0
C668 C 0.536 0.94301 0.17891 0.0
H669 H 0.19751 0.48277 0.09514 0.0
H670 H 0.27506 0.50557 0.16178 0.0
H671 H 0.23773 0.50433 0.20586 0.0
H672 H 0.14204 0.52952 0.13211 0.0
H673 H 0.10886 0.50163 0.12438 0.0
H674 H 0.14175 0.50329 0.09812 0.0
H675 H 0.14825 0.4437 0.10651 0.0
H676 H 0.11527 0.44181 0.13267 0.0
H677 H 0.15272 0.42914 0.14623 0.0
H678 H 0.19186 0.50249 0.24237 0.0
H679 H 0.14081 0.49822 0.26915 0.0
H680 H 0.09324 0.47611 0.17869 0.0
C681 C 0.20671 0.48731 0.11901 0.0
C682 C 0.23923 0.49428 0.12501 0.0
C683 C 0.25027 0.50012 0.1566 0.0
C684 C 0.22925 0.49952 0.1818 0.0
C685 C 0.19732 0.49291 0.17501 0.0
C686 C 0.1861 0.48672 0.14443 0.0
C687 C 0.15064 0.48053 0.14351 0.0
C688 C 0.13491 0.50522 0.12334 0.0
C689 C 0.14117 0.44679 0.13153 0.0
C690 C 0.14365 0.48444 0.17835 0.0
C691 C 0.17089 0.4916 0.19609 0.0
C692 C 0.17037 0.49674 0.22876 0.0
C693 C 0.14123 0.49433 0.24373 0.0
C694 C 0.11302 0.48678 0.22604 0.0
C695 C 0.11438 0.48182 0.1929 0.0
H696 H 0.8452 0.94758 0.47458 0.0
H697 H 0.769 0.87834 0.49588 0.0
H698 H 0.80526 0.83573 0.49043 0.0
H699 H 0.88304 0.8991 0.41624 0.0
H700 H 0.92215 0.91364 0.42872 0.0
H701 H 0.88974 0.93848 0.43255 0.0
H702 H 0.90289 0.94618 0.49257 0.0
H703 H 0.93526 0.92135 0.48894 0.0
H704 H 0.90502 0.91202 0.51731 0.0
H705 H 0.8504 0.801 0.48536 0.0
H706 H 0.90109 0.77659 0.48081 0.0
H707 H 0.94766 0.8686 0.4626 0.0
C708 C 0.83603 0.92344 0.47784 0.0
C709 C 0.80424 0.9163 0.48565 0.0
C710 C 0.79323 0.88439 0.48979 0.0
C711 C 0.81363 0.86002 0.48673 0.0
C712 C 0.84489 0.86793 0.47931 0.0
C713 C 0.85601 0.89884 0.47477 0.0
C714 C 0.89084 0.90111 0.46785 0.0
C715 C 0.89678 0.91383 0.43435 0.0
C716 C 0.9096 0.92135 0.49319 0.0
C717 C 0.89774 0.8667 0.46995 0.0
C718 C 0.87088 0.84791 0.47633 0.0
C719 C 0.87155 0.81543 0.48014 0.0
C720 C 0.90048 0.8018 0.47754 0.0
C721 C 0.92837 0.82066 0.47131 0.0
C722 C 0.92679 0.8535 0.46725 0.0
H723 H 0.93235 0.1731 0.58284 0.0
H724 H 0.92028 0.24347 0.51048 0.0
H725 H 0.87527 0.21088 0.48756 0.0
H726 H 0.91864 0.10789 0.53446 0.0
H727 H 0.8971 0.08356 0.56249 0.0
H728 H 0.92535 0.11426 0.57649 0.0
H729 H 0.88263 0.13906 0.60975 0.0
H730 H 0.85425 0.10811 0.59622 0.0
H731 H 0.84637 0.14888 0.5907 0.0
H732 H 0.83779 0.16741 0.46732 0.0
H733 H 0.80613 0.11782 0.45442 0.0
H734 H 0.84032 0.07638 0.54096 0.0
C735 C 0.91964 0.18212 0.56279 0.0
C736 C 0.9299 0.21086 0.54849 0.0
C737 C 0.91289 0.22158 0.52194 0.0
C738 C 0.88725 0.20323 0.50869 0.0
C739 C 0.87858 0.17443 0.52254 0.0
C740 C 0.89382 0.16416 0.54936 0.0
C741 C 0.88106 0.13133 0.55828 0.0
C742 C 0.90709 0.10789 0.55789 0.0
C743 C 0.86512 0.13189 0.59066 0.0
C744 C 0.85714 0.12434 0.53161 0.0
C745 C 0.85605 0.14957 0.5113 0.0
C746 C 0.83785 0.14776 0.48342 0.0
C747 C 0.82016 0.11946 0.47617 0.0
C748 C 0.82062 0.0935 0.49685 0.0
C749 C 0.8391 0.09613 0.52506 0.0
H750 H 0.10594 0.8243 0.51997 0.0
H751 H 0.06905 0.8183 0.42316 0.0
H752 H 0.11092 0.85762 0.40695 0.0
H753 H 0.12306 0.90568 0.52218 0.0
H754 H 0.15861 0.90448 0.54595 0.0
H755 H 0.12785 0.87356 0.54905 0.0
H756 H 0.16749 0.83183 0.53582 0.0
H757 H 0.19842 0.86271 0.5326 0.0
H758 H 0.18981 0.83542 0.5 0.0
H759 H 0.15366 0.90127 0.40251 0.0
H760 H 0.19346 0.94598 0.41035 0.0
H761 H 0.20269 0.92233 0.50985 0.0
C762 C 0.10689 0.83087 0.49525 0.0
C763 C 0.08423 0.8182 0.47283 0.0
C764 C 0.08621 0.82763 0.44076 0.0
C765 C 0.10996 0.84988 0.4313 0.0
C766 C 0.13169 0.8622 0.45413 0.0
C767 C 0.13045 0.8529 0.48541 0.0
C768 C 0.15534 0.87107 0.50573 0.0
C769 C 0.1403 0.88981 0.53227 0.0
C770 C 0.17918 0.84893 0.51933 0.0
C771 C 0.1702 0.89273 0.48119 0.0
C772 C 0.15649 0.88708 0.4515 0.0
C773 C 0.16491 0.90562 0.42555 0.0
C774 C 0.1875 0.93097 0.43024 0.0
C775 C 0.20132 0.93754 0.46065 0.0
C776 C 0.19295 0.91766 0.4862 0.0
H777 H 0.10134 0.20865 0.54673 0.0
H778 H 0.02408 0.14111 0.51938 0.0
H779 H 0.06088 0.09878 0.51753 0.0
H780 H 0.15713 0.1784 0.49592 0.0
H781 H 0.19009 0.18515 0.52322 0.0
H782 H 0.1574 0.20977 0.52516 0.0
H783 H 0.15022 0.19589 0.58439 0.0
H784 H 0.183 0.17127 0.58266 0.0
H785 H 0.14528 0.15506 0.59567 0.0
H786 H 0.10587 0.06458 0.51572 0.0
H787 H 0.15661 0.04034 0.51338 0.0
H788 H 0.20533 0.12998 0.54121 0.0
C789 C 0.0921 0.18486 0.54083 0.0
C790 C 0.05983 0.17812 0.53331 0.0
C791 C 0.04871 0.1468 0.52522 0.0
C792 C 0.0694 0.12258 0.5242 0.0
C793 C 0.10112 0.13008 0.53131 0.0
C794 C 0.11248 0.16041 0.53949 0.0
C795 C 0.14793 0.16238 0.54435 0.0
C796 C 0.16408 0.18527 0.52075 0.0
C797 C 0.15714 0.17169 0.57882 0.0
C798 C 0.15472 0.1285 0.53712 0.0
C799 C 0.12732 0.11028 0.52993 0.0
C800 C 0.12749 0.07852 0.52151 0.0
C801 C 0.1565 0.06501 0.52019 0.0
C802 C 0.185 0.08325 0.52712 0.0
C803 C 0.18397 0.11537 0.53595 0.0
loop_
_geom_bond_atom_site_label_1
_geom_bond_atom_site_label_2
_geom_bond_distance
_geom_bond_site_symmetry_2
_ccdc_geom_bond_type
C0 O1 1.160 . S
C0 O7 1.185 . S
O1 C0 1.160 . S
O2 Zn3 1.899 . S
O2 C10 1.284 . S
Zn3 O2 1.899 . S
Zn3 O4 2.032 1_455 S
Zn3 O7 2.086 . S
Zn3 O12 1.977 . S
O4 Zn3 2.032 1_655 S
O4 C8 1.278 . S
C5 O6 1.203 1_455 S
C5 O12 1.267 . S
O6 C5 1.203 1_655 S
O7 C0 1.185 . S
O7 Zn3 2.086 . S
C8 O4 1.278 . S
C8 O9 1.211 . S
O9 C8 1.211 . S
C10 O2 1.284 . S
C10 O11 1.273 1_455 S
O11 C10 1.273 1_655 S
O12 Zn3 1.977 . S
O12 C5 1.267 . S
C13 O14 1.160 . S
C13 O20 1.185 . S
O14 C13 1.160 . S
O15 Zn16 1.899 1_565 S
O15 C23 1.284 1_565 S
Zn16 O15 1.899 1_545 S
Zn16 O17 2.032 . S
Zn16 O20 2.086 1_545 S
Zn16 O25 1.977 . S
O17 Zn16 2.032 . S
O17 C21 1.278 . S
C18 O19 1.203 . S
C18 O25 1.267 . S
O19 C18 1.203 . S
O20 C13 1.185 . S
O20 Zn16 2.086 1_565 S
C21 O17 1.278 . S
C21 O22 1.211 . S
O22 C21 1.211 . S
C23 O15 1.284 1_545 S
C23 O24 1.273 . S
O24 C23 1.273 . S
O25 Zn16 1.977 . S
O25 C18 1.267 . S
C26 O27 1.160 . S
C26 O33 1.185 . S
O27 C26 1.160 . S
O28 Zn29 1.899 . S
O28 C36 1.284 . S
Zn29 O28 1.899 . S
Zn29 O30 2.032 . S
Zn29 O33 2.086 1_455 S
Zn29 O38 1.977 . S
O30 Zn29 2.032 . S
O30 C34 1.278 . S
C31 O32 1.203 . S
C31 O38 1.267 . S
O32 C31 1.203 . S
O33 C26 1.185 . S
O33 Zn29 2.086 1_655 S
C34 O30 1.278 . S
C34 O35 1.211 . S
O35 C34 1.211 . S
C36 O28 1.284 . S
C36 O37 1.273 . S
O37 C36 1.273 . S
O38 Zn29 1.977 . S
O38 C31 1.267 . S
C39 O40 1.160 . S
C39 O46 1.185 . S
O40 C39 1.160 . S
O41 Zn42 1.899 . S
O41 C49 1.284 . S
Zn42 O41 1.899 . S
Zn42 O43 2.032 1_545 S
Zn42 O46 2.086 . S
Zn42 O51 1.977 . S
O43 Zn42 2.032 1_565 S
O43 C47 1.278 . S
C44 O45 1.203 1_545 S
C44 O51 1.267 . S
O45 C44 1.203 1_565 S
O46 C39 1.185 . S
O46 Zn42 2.086 . S
C47 O43 1.278 . S
C47 O48 1.211 . S
O48 C47 1.211 . S
C49 O41 1.284 . S
C49 O50 1.273 1_545 S
O50 C49 1.273 1_565 S
O51 Zn42 1.977 . S
O51 C44 1.267 . S
C52 O53 1.160 . S
C52 O59 1.185 1_545 S
O53 C52 1.160 . S
O54 Zn55 1.899 . S
O54 C62 1.284 . S
Zn55 O54 1.899 . S
Zn55 O56 2.032 . S
Zn55 O59 2.086 1_545 S
Zn55 O64 1.977 1_545 S
O56 Zn55 2.032 . S
O56 C60 1.278 . S
C57 O58 1.203 . S
C57 O64 1.267 . S
O58 C57 1.203 . S
O59 C52 1.185 1_565 S
O59 Zn55 2.086 1_565 S
C60 O56 1.278 . S
C60 O61 1.211 1_545 S
O61 C60 1.211 1_565 S
C62 O54 1.284 . S
C62 O63 1.273 . S
O63 C62 1.273 . S
O64 Zn55 1.977 1_565 S
O64 C57 1.267 . S
C65 O66 1.160 . S
C65 O72 1.185 . S
O66 C65 1.160 . S
O67 Zn68 1.899 . S
O67 C75 1.284 . S
Zn68 O67 1.899 . S
Zn68 O69 2.032 . S
Zn68 O72 2.086 . S
Zn68 O77 1.977 . S
O69 Zn68 2.032 . S
O69 C73 1.278 1_455 S
C70 O71 1.203 . S
C70 O77 1.267 . S
O71 C70 1.203 . S
O72 C65 1.185 . S
O72 Zn68 2.086 . S
C73 O69 1.278 1_655 S
C73 O74 1.211 . S
O74 C73 1.211 . S
C75 O67 1.284 . S
C75 O76 1.273 1_455 S
O76 C75 1.273 1_655 S
O77 Zn68 1.977 . S
O77 C70 1.267 . S
C78 O79 1.160 . S
C78 O85 1.185 1_545 S
O79 C78 1.160 . S
O80 Zn81 1.899 . S
O80 C88 1.284 . S
Zn81 O80 1.899 . S
Zn81 O82 2.032 . S
Zn81 O85 2.086 1_545 S
Zn81 O90 1.977 1_545 S
O82 Zn81 2.032 . S
O82 C86 1.284 . S
C83 O84 1.203 . S
C83 O90 1.267 . S
O84 C83 1.203 . S
O85 C78 1.185 1_565 S
O85 Zn81 2.086 1_565 S
C86 O82 1.284 . S
C86 O87 1.201 1_545 S
O87 C86 1.201 1_565 S
C88 O80 1.284 . S
C88 O89 1.273 . S
O89 C88 1.273 . S
O90 Zn81 1.977 1_565 S
O90 C83 1.267 . S
C91 O92 1.160 1_455 S
C91 O98 1.185 . S
O92 C91 1.160 1_655 S
O93 Zn94 1.899 1_655 S
O93 C101 1.284 . S
Zn94 O93 1.899 1_455 S
Zn94 O95 2.032 . S
Zn94 O98 2.086 . S
Zn94 O103 1.977 . S
O95 Zn94 2.032 . S
O95 C99 1.278 . S
C96 O97 1.203 . S
C96 O103 1.267 . S
O97 C96 1.203 . S
O98 C91 1.185 . S
O98 Zn94 2.086 . S
C99 O95 1.278 . S
C99 O100 1.211 . S
O100 C99 1.211 . S
C101 O93 1.284 . S
C101 O102 1.273 . S
O102 C101 1.273 . S
O103 Zn94 1.977 . S
O103 C96 1.267 . S
C104 O105 1.160 . S
C104 O111 1.185 1_554 S
O105 C104 1.160 . S
O106 Zn107 1.899 . S
O106 C114 1.284 . S
Zn107 O106 1.899 . S
Zn107 O108 2.032 . S
Zn107 O111 2.086 1_554 S
Zn107 O116 1.977 1_554 S
O108 Zn107 2.032 . S
O108 C112 1.278 1_554 S
C109 O110 1.203 . S
C109 O116 1.267 . S
O110 C109 1.203 . S
O111 C104 1.185 1_556 S
O111 Zn107 2.086 1_556 S
C112 O108 1.278 1_556 S
C112 O113 1.211 . S
O113 C112 1.211 . S
C114 O106 1.284 . S
C114 O115 1.273 . S
O115 C114 1.273 . S
O116 Zn107 1.977 1_556 S
O116 C109 1.267 . S
C117 O118 1.160 . S
C117 O124 1.185 1_556 S
O118 C117 1.160 . S
O119 Zn120 1.899 1_556 S
O119 C127 1.284 . S
Zn120 O119 1.899 1_554 S
Zn120 O121 2.032 . S
Zn120 O124 2.086 . S
Zn120 O129 1.977 . S
O121 Zn120 2.032 . S
O121 C125 1.278 . S
C122 O123 1.203 . S
C122 O129 1.267 . S
O123 C122 1.203 . S
O124 C117 1.185 1_554 S
O124 Zn120 2.086 . S
C125 O121 1.278 . S
C125 O126 1.211 . S
O126 C125 1.211 . S
C127 O119 1.284 . S
C127 O128 1.273 . S
O128 C127 1.273 . S
O129 Zn120 1.977 . S
O129 C122 1.267 . S
C130 O131 1.160 . S
C130 O137 1.185 1_554 S
O131 C130 1.160 . S
O132 Zn133 1.899 . S
O132 C140 1.284 . S
Zn133 O132 1.899 . S
Zn133 O134 2.032 . S
Zn133 O137 2.086 1_554 S
Zn133 O142 1.977 1_554 S
O134 Zn133 2.032 . S
O134 C138 1.278 . S
C135 O136 1.203 . S
C135 O142 1.267 . S
O136 C135 1.203 . S
O137 C130 1.185 1_556 S
O137 Zn133 2.086 1_556 S
C138 O134 1.278 . S
C138 O139 1.211 1_554 S
O139 C138 1.211 1_556 S
C140 O132 1.284 . S
C140 O141 1.273 . S
O141 C140 1.273 . S
O142 Zn133 1.977 1_556 S
O142 C135 1.267 . S
C143 O144 1.160 . S
C143 O150 1.185 1_556 S
O144 C143 1.160 . S
O145 Zn146 1.899 1_556 S
O145 C153 1.284 . S
Zn146 O145 1.899 1_554 S
Zn146 O147 2.032 . S
Zn146 O150 2.086 . S
Zn146 O155 1.977 . S
O147 Zn146 2.032 . S
O147 C151 1.278 . S
C148 O149 1.203 . S
C148 O155 1.267 . S
O149 C148 1.203 . S
O150 C143 1.185 1_554 S
O150 Zn146 2.086 . S
C151 O147 1.278 . S
C151 O152 1.211 . S
O152 C151 1.211 . S
C153 O145 1.284 . S
C153 O154 1.273 . S
O154 C153 1.273 . S
O155 Zn146 1.977 . S
O155 C148 1.267 . S
H156 C168 0.930 . S
H157 C170 0.930 1_655 S
H158 C171 0.920 1_655 S
H159 C175 0.959 . S
H160 C175 0.959 . S
H161 C175 0.961 . S
H162 C176 0.960 . S
H163 C176 0.961 . S
H164 C176 0.959 . S
H165 C179 0.929 . S
H166 C180 0.931 1_655 S
H167 C182 0.930 . S
C168 H156 0.930 . S
C168 C169 1.399 . S
C168 C173 1.399 . S
C169 C168 1.399 . S
C169 C170 1.376 . S
C170 H157 0.930 1_455 S
C170 C169 1.376 . S
C170 C171 1.391 . S
C171 H158 0.920 1_455 S
C171 C170 1.391 . S
C171 C172 1.398 . S
C172 C171 1.398 . S
C172 C173 1.394 . S
C172 C178 1.465 . S
C173 C168 1.399 . S
C173 C172 1.394 . S
C173 C174 1.516 . S
C174 C173 1.516 . S
C174 C175 1.502 . S
C174 C176 1.561 . S
C174 C177 1.526 . S
C175 H159 0.959 . S
C175 H160 0.959 . S
C175 H161 0.961 . S
C175 C174 1.502 . S
C176 H162 0.960 . S
C176 H163 0.961 . S
C176 H164 0.959 . S
C176 C174 1.561 . S
C177 C174 1.526 . S
C177 C178 1.396 . S
C177 C182 1.390 . S
C178 C172 1.465 . S
C178 C177 1.396 . S
C178 C179 1.399 1_455 S
C179 H165 0.929 . S
C179 C178 1.399 1_655 S
C179 C180 1.385 1_655 S
C180 H166 0.931 1_455 S
C180 C179 1.385 1_455 S
C180 C181 1.389 . S
C181 C180 1.389 . S
C181 C182 1.387 . S
C182 H167 0.930 . S
C182 C177 1.390 . S
C182 C181 1.387 . S
H183 C195 0.930 . S
H184 C197 0.930 . S
H185 C198 0.930 . S
H186 C202 0.959 . S
H187 C202 0.959 . S
H188 C202 0.961 . S
H189 C203 0.960 . S
H190 C203 0.961 . S
H191 C203 0.959 . S
H192 C206 0.929 . S
H193 C207 0.931 . S
H194 C209 0.930 . S
C195 H183 0.930 . S
C195 C196 1.399 1_565 S
C195 C200 1.399 1_565 S
C196 C195 1.399 1_545 S
C196 C197 1.376 . S
C197 H184 0.930 . S
C197 C196 1.376 . S
C197 C198 1.388 . S
C198 H185 0.930 . S
C198 C197 1.388 . S
C198 C199 1.390 . S
C199 C198 1.390 . S
C199 C200 1.394 . S
C199 C205 1.465 . S
C200 C195 1.399 1_545 S
C200 C199 1.394 . S
C200 C201 1.516 1_545 S
C201 C200 1.516 1_565 S
C201 C202 1.502 . S
C201 C203 1.561 . S
C201 C204 1.508 1_565 S
C202 H186 0.959 . S
C202 H187 0.959 . S
C202 H188 0.961 . S
C202 C201 1.502 . S
C203 H189 0.960 . S
C203 H190 0.961 . S
C203 H191 0.959 . S
C203 C201 1.561 . S
C204 C201 1.508 1_545 S
C204 C205 1.422 . S
C204 C209 1.385 1_545 S
C205 C199 1.465 . S
C205 C204 1.422 . S
C205 C206 1.399 . S
C206 H192 0.929 . S
C206 C205 1.399 . S
C206 C207 1.385 . S
C207 H193 0.931 . S
C207 C206 1.385 . S
C207 C208 1.389 . S
C208 C207 1.389 . S
C208 C209 1.387 1_545 S
C209 H194 0.930 . S
C209 C204 1.385 1_565 S
C209 C208 1.387 1_565 S
H210 C222 0.930 . S
H211 C224 0.930 . S
H212 C225 0.930 . S
H213 C229 0.959 . S
H214 C229 0.959 . S
H215 C229 0.961 . S
H216 C230 0.960 . S
H217 C230 0.961 . S
H218 C230 0.959 . S
H219 C233 0.929 . S
H220 C234 0.931 . S
H221 C236 0.930 . S
C222 H210 0.930 . S
C222 C223 1.399 . S
C222 C227 1.399 . S
C223 C222 1.399 . S
C223 C224 1.376 . S
C224 H211 0.930 . S
C224 C223 1.376 . S
C224 C225 1.388 . S
C225 H212 0.930 . S
C225 C224 1.388 . S
C225 C226 1.390 . S
C226 C225 1.390 . S
C226 C227 1.394 . S
C226 C232 1.465 . S
C227 C222 1.399 . S
C227 C226 1.394 . S
C227 C228 1.516 . S
C228 C227 1.516 . S
C228 C229 1.502 . S
C228 C230 1.561 1_455 S
C228 C231 1.526 . S
C229 H213 0.959 . S
C229 H214 0.959 . S
C229 H215 0.961 . S
C229 C228 1.502 . S
C230 H216 0.960 . S
C230 H217 0.961 . S
C230 H218 0.959 . S
C230 C228 1.561 1_655 S
C231 C228 1.526 . S
C231 C232 1.396 . S
C231 C236 1.390 . S
C232 C226 1.465 . S
C232 C231 1.396 . S
C232 C233 1.399 . S
C233 H219 0.929 . S
C233 C232 1.399 . S
C233 C234 1.385 . S
C234 H220 0.931 . S
C234 C233 1.385 . S
C234 C235 1.389 . S
C235 C234 1.389 . S
C235 C236 1.387 . S
C236 H221 0.930 . S
C236 C231 1.390 . S
C236 C235 1.387 . S
H237 C249 0.930 . S
H238 C251 0.930 . S
H239 C252 0.930 . S
H240 C256 0.959 . S
H241 C256 0.959 . S
H242 C256 0.961 . S
H243 C257 0.960 . S
H244 C257 0.961 . S
H245 C257 0.959 . S
H246 C260 0.929 . S
H247 C261 0.931 . S
H248 C263 0.930 . S
C249 H237 0.930 . S
C249 C250 1.399 1_565 S
C249 C254 1.399 . S
C250 C249 1.399 1_545 S
C250 C251 1.376 . S
C251 H238 0.930 . S
C251 C250 1.376 . S
C251 C252 1.388 . S
C252 H239 0.930 . S
C252 C251 1.388 . S
C252 C253 1.390 . S
C253 C252 1.390 . S
C253 C254 1.394 1_545 S
C253 C259 1.465 . S
C254 C249 1.399 . S
C254 C253 1.394 1_565 S
C254 C255 1.516 . S
C255 C254 1.516 . S
C255 C256 1.502 . S
C255 C257 1.561 . S
C255 C258 1.526 . S
C256 H240 0.959 . S
C256 H241 0.959 . S
C256 H242 0.961 . S
C256 C255 1.502 . S
C257 H243 0.960 . S
C257 H244 0.961 . S
C257 H245 0.959 . S
C257 C255 1.561 . S
C258 C255 1.526 . S
C258 C259 1.396 1_565 S
C258 C263 1.390 . S
C259 C253 1.465 . S
C259 C258 1.396 1_545 S
C259 C260 1.399 . S
C260 H246 0.929 . S
C260 C259 1.399 . S
C260 C261 1.385 . S
C261 H247 0.931 . S
C261 C260 1.385 . S
C261 C262 1.389 . S
C262 C261 1.389 . S
C262 C263 1.387 1_545 S
C263 H248 0.930 . S
C263 C258 1.390 . S
C263 C262 1.387 1_565 S
H264 C276 0.930 . S
H265 C278 0.930 . S
H266 C279 0.935 . S
H267 C283 0.959 . S
H268 C283 0.959 . S
H269 C283 0.961 . S
H270 C284 0.960 . S
H271 C284 0.961 . S
H272 C284 0.959 . S
H273 C287 0.929 . S
H274 C288 0.931 . S
H275 C290 0.930 . S
C276 H264 0.930 . S
C276 C277 1.399 . S
C276 C281 1.399 . S
C277 C276 1.399 . S
C277 C278 1.376 . S
C278 H265 0.930 . S
C278 C277 1.376 . S
C278 C279 1.388 . S
C279 H266 0.935 . S
C279 C278 1.388 . S
C279 C280 1.390 . S
C280 C279 1.390 . S
C280 C281 1.394 . S
C280 C286 1.465 . S
C281 C276 1.399 . S
C281 C280 1.394 . S
C281 C282 1.516 . S
C282 C281 1.516 . S
C282 C283 1.502 . S
C282 C284 1.561 1_455 S
C282 C285 1.526 . S
C283 H267 0.959 . S
C283 H268 0.959 . S
C283 H269 0.961 . S
C283 C282 1.502 . S
C284 H270 0.960 . S
C284 H271 0.961 . S
C284 H272 0.959 . S
C284 C282 1.561 1_655 S
C285 C282 1.526 . S
C285 C286 1.396 . S
C285 C290 1.390 . S
C286 C280 1.465 . S
C286 C285 1.396 . S
C286 C287 1.399 . S
C287 H273 0.929 . S
C287 C286 1.399 . S
C287 C288 1.385 . S
C288 H274 0.931 . S
C288 C287 1.385 . S
C288 C289 1.389 . S
C289 C288 1.389 . S
C289 C290 1.387 . S
C290 H275 0.930 . S
C290 C285 1.390 . S
C290 C289 1.387 . S
H291 C303 0.930 . S
H292 C305 0.930 . S
H293 C306 0.930 . S
H294 C310 0.959 . S
H295 C310 0.959 . S
H296 C310 0.961 . S
H297 C311 0.960 . S
H298 C311 0.961 . S
H299 C311 0.959 . S
H300 C314 0.929 . S
H301 C315 0.931 . S
H302 C317 0.930 . S
C303 H291 0.930 . S
C303 C304 1.399 . S
C303 C308 1.399 . S
C304 C303 1.399 . S
C304 C305 1.376 1_545 S
C305 H292 0.930 . S
C305 C304 1.376 1_565 S
C305 C306 1.388 . S
C306 H293 0.930 . S
C306 C305 1.388 . S
C306 C307 1.390 . S
C307 C306 1.390 . S
C307 C308 1.394 1_565 S
C307 C313 1.465 . S
C308 C303 1.399 . S
C308 C307 1.394 1_545 S
C308 C309 1.516 . S
C309 C308 1.516 . S
C309 C310 1.502 . S
C309 C311 1.561 . S
C309 C312 1.526 . S
C310 H294 0.959 . S
C310 H295 0.959 . S
C310 H296 0.961 . S
C310 C309 1.502 . S
C311 H297 0.960 . S
C311 H298 0.961 . S
C311 H299 0.959 . S
C311 C309 1.561 . S
C312 C309 1.526 . S
C312 C313 1.396 1_545 S
C312 C317 1.390 . S
C313 C307 1.465 . S
C313 C312 1.396 1_565 S
C313 C314 1.399 . S
C314 H300 0.929 . S
C314 C313 1.399 . S
C314 C315 1.385 . S
C315 H301 0.931 . S
C315 C314 1.385 . S
C315 C316 1.389 1_565 S
C316 C315 1.389 1_545 S
C316 C317 1.387 . S
C317 H302 0.930 . S
C317 C312 1.390 . S
C317 C316 1.387 . S
H318 C330 0.930 . S
H319 C332 0.930 . S
H320 C333 0.930 . S
H321 C337 0.959 . S
H322 C337 0.959 . S
H323 C337 0.961 . S
H324 C338 0.960 . S
H325 C338 0.961 . S
H326 C338 0.959 1_455 S
H327 C341 0.929 . S
H328 C342 0.931 . S
H329 C344 0.924 1_655 S
C330 H318 0.930 . S
C330 C331 1.399 1_655 S
C330 C335 1.399 1_655 S
C331 C330 1.399 1_455 S
C331 C332 1.376 . S
C332 H319 0.930 . S
C332 C331 1.376 . S
C332 C333 1.388 . S
C333 H320 0.930 . S
C333 C332 1.388 . S
C333 C334 1.390 . S
C334 C333 1.390 . S
C334 C335 1.394 . S
C334 C340 1.465 . S
C335 C330 1.399 1_455 S
C335 C334 1.394 . S
C335 C336 1.516 1_455 S
C336 C335 1.516 1_655 S
C336 C337 1.502 . S
C336 C338 1.561 . S
C336 C339 1.526 1_655 S
C337 H321 0.959 . S
C337 H322 0.959 . S
C337 H323 0.961 . S
C337 C336 1.502 . S
C338 H324 0.960 . S
C338 H325 0.961 . S
C338 H326 0.959 1_655 S
C338 C336 1.561 . S
C339 C336 1.526 1_455 S
C339 C340 1.396 . S
C339 C344 1.391 . S
C340 C334 1.465 . S
C340 C339 1.396 . S
C340 C341 1.399 . S
C341 H327 0.929 . S
C341 C340 1.399 . S
C341 C342 1.385 . S
C342 H328 0.931 . S
C342 C341 1.385 . S
C342 C343 1.389 . S
C343 C342 1.389 . S
C343 C344 1.391 . S
C344 H329 0.924 1_455 S
C344 C339 1.391 . S
C344 C343 1.391 . S
H345 C357 0.930 . S
H346 C359 0.930 . S
H347 C360 0.930 . S
H348 C364 0.959 . S
H349 C364 0.959 . S
H350 C364 0.961 . S
H351 C365 0.960 . S
H352 C365 0.961 . S
H353 C365 0.959 . S
H354 C368 0.929 . S
H355 C369 0.931 . S
H356 C371 0.930 . S
C357 H345 0.930 . S
C357 C358 1.399 . S
C357 C362 1.399 . S
C358 C357 1.399 . S
C358 C359 1.376 1_545 S
C359 H346 0.930 . S
C359 C358 1.376 1_565 S
C359 C360 1.388 . S
C360 H347 0.930 . S
C360 C359 1.388 . S
C360 C361 1.390 . S
C361 C360 1.390 . S
C361 C362 1.394 1_565 S
C361 C367 1.465 . S
C362 C357 1.399 . S
C362 C361 1.394 1_545 S
C362 C363 1.516 . S
C363 C362 1.516 . S
C363 C364 1.502 . S
C363 C365 1.561 . S
C363 C366 1.526 . S
C364 H348 0.959 . S
C364 H349 0.959 . S
C364 H350 0.961 . S
C364 C363 1.502 . S
C365 H351 0.960 . S
C365 H352 0.961 . S
C365 H353 0.959 . S
C365 C363 1.561 . S
C366 C363 1.526 . S
C366 C367 1.396 1_545 S
C366 C371 1.390 . S
C367 C361 1.465 . S
C367 C366 1.396 1_565 S
C367 C368 1.399 . S
C368 H354 0.929 . S
C368 C367 1.399 . S
C368 C369 1.385 . S
C369 H355 0.931 . S
C369 C368 1.385 . S
C369 C370 1.389 1_565 S
C370 C369 1.389 1_545 S
C370 C371 1.387 . S
C371 H356 0.930 . S
C371 C366 1.390 . S
C371 C370 1.387 . S
H372 C384 0.930 . S
H373 C386 0.930 . S
H374 C387 0.930 . S
H375 C391 0.959 . S
H376 C391 0.959 . S
H377 C391 0.961 . S
H378 C392 0.960 . S
H379 C392 0.961 . S
H380 C392 0.959 . S
H381 C395 0.929 . S
H382 C396 0.931 . S
H383 C398 0.930 . S
C384 H372 0.930 . S
C384 C385 1.399 1_556 S
C384 C389 1.399 . S
C385 C384 1.399 1_554 S
C385 C386 1.376 . S
C386 H373 0.930 . S
C386 C385 1.376 . S
C386 C387 1.388 . S
C387 H374 0.930 . S
C387 C386 1.388 . S
C387 C388 1.390 . S
C388 C387 1.390 . S
C388 C389 1.394 1_554 S
C388 C394 1.465 . S
C389 C384 1.399 . S
C389 C388 1.394 1_556 S
C389 C390 1.516 . S
C390 C389 1.516 . S
C390 C391 1.502 . S
C390 C392 1.561 . S
C390 C393 1.526 . S
C391 H375 0.959 . S
C391 H376 0.959 . S
C391 H377 0.961 . S
C391 C390 1.502 . S
C392 H378 0.960 . S
C392 H379 0.961 . S
C392 H380 0.959 . S
C392 C390 1.561 . S
C393 C390 1.526 . S
C393 C394 1.396 1_556 S
C393 C398 1.390 . S
C394 C388 1.465 . S
C394 C393 1.396 1_554 S
C394 C395 1.399 . S
C395 H381 0.929 . S
C395 C394 1.399 . S
C395 C396 1.385 . S
C396 H382 0.931 . S
C396 C395 1.385 . S
C396 C397 1.389 . S
C397 C396 1.389 . S
C397 C398 1.387 1_554 S
C398 H383 0.930 . S
C398 C393 1.390 . S
C398 C397 1.387 1_556 S
H399 C411 0.930 . S
H400 C413 0.930 . S
H401 C414 0.930 . S
H402 C418 0.959 . S
H403 C418 0.959 . S
H404 C418 0.961 . S
H405 C419 0.960 . S
H406 C419 0.961 . S
H407 C419 0.959 . S
H408 C422 0.929 . S
H409 C423 0.931 . S
H410 C425 0.930 . S
C411 H399 0.930 . S
C411 C412 1.399 1_556 S
C411 C416 1.399 . S
C412 C411 1.399 1_554 S
C412 C413 1.376 . S
C413 H400 0.930 . S
C413 C412 1.376 . S
C413 C414 1.388 . S
C414 H401 0.930 . S
C414 C413 1.388 . S
C414 C415 1.390 . S
C415 C414 1.390 . S
C415 C416 1.394 1_554 S
C415 C421 1.465 . S
C416 C411 1.399 . S
C416 C415 1.394 1_556 S
C416 C417 1.516 . S
C417 C416 1.516 . S
C417 C418 1.502 . S
C417 C419 1.561 . S
C417 C420 1.526 . S
C418 H402 0.959 . S
C418 H403 0.959 . S
C418 H404 0.961 . S
C418 C417 1.502 . S
C419 H405 0.960 . S
C419 H406 0.961 . S
C419 H407 0.959 . S
C419 C417 1.561 . S
C420 C417 1.526 . S
C420 C421 1.396 1_556 S
C420 C425 1.390 . S
C421 C415 1.465 . S
C421 C420 1.396 1_554 S
C421 C422 1.399 . S
C422 H408 0.929 . S
C422 C421 1.399 . S
C422 C423 1.385 . S
C423 H409 0.931 . S
C423 C422 1.385 . S
C423 C424 1.389 . S
C424 C423 1.389 . S
C424 C425 1.387 1_554 S
C425 H410 0.930 . S
C425 C420 1.390 . S
C425 C424 1.387 1_556 S
H426 C438 0.930 . S
H427 C440 0.930 . S
H428 C441 0.930 . S
H429 C445 0.959 . S
H430 C445 0.959 . S
H431 C445 0.961 . S
H432 C446 0.960 . S
H433 C446 0.961 . S
H434 C446 0.959 . S
H435 C449 0.929 . S
H436 C450 0.931 . S
H437 C452 0.930 . S
C438 H426 0.930 . S
C438 C439 1.399 . S
C438 C443 1.399 . S
C439 C438 1.399 . S
C439 C440 1.376 1_554 S
C440 H427 0.930 . S
C440 C439 1.376 1_556 S
C440 C441 1.388 . S
C441 H428 0.930 . S
C441 C440 1.388 . S
C441 C442 1.390 . S
C442 C441 1.390 . S
C442 C443 1.394 1_556 S
C442 C448 1.465 . S
C443 C438 1.399 . S
C443 C442 1.394 1_554 S
C443 C444 1.516 . S
C444 C443 1.516 . S
C444 C445 1.502 . S
C444 C446 1.561 . S
C444 C447 1.526 . S
C445 H429 0.959 . S
C445 H430 0.959 . S
C445 H431 0.961 . S
C445 C444 1.502 . S
C446 H432 0.960 . S
C446 H433 0.961 . S
C446 H434 0.959 . S
C446 C444 1.561 . S
C447 C444 1.526 . S
C447 C448 1.396 1_554 S
C447 C452 1.390 . S
C448 C442 1.465 . S
C448 C447 1.396 1_556 S
C448 C449 1.399 . S
C449 H435 0.929 . S
C449 C448 1.399 . S
C449 C450 1.385 . S
C450 H436 0.931 . S
C450 C449 1.385 . S
C450 C451 1.389 1_556 S
C451 C450 1.389 1_554 S
C451 C452 1.387 . S
C452 H437 0.930 . S
C452 C447 1.390 . S
C452 C451 1.387 . S
H453 C465 0.930 . S
H454 C467 0.930 . S
H455 C468 0.930 . S
H456 C472 0.959 . S
H457 C472 0.959 . S
H458 C472 0.961 . S
H459 C473 0.960 . S
H460 C473 0.961 . S
H461 C473 0.959 . S
H462 C476 0.929 . S
H463 C477 0.931 . S
H464 C479 0.930 . S
C465 H453 0.930 . S
C465 C466 1.399 1_556 S
C465 C470 1.399 . S
C466 C465 1.399 1_554 S
C466 C467 1.376 . S
C467 H454 0.930 . S
C467 C466 1.376 . S
C467 C468 1.388 . S
C468 H455 0.930 . S
C468 C467 1.388 . S
C468 C469 1.390 . S
C469 C468 1.390 . S
C469 C470 1.394 1_554 S
C469 C475 1.465 . S
C470 C465 1.399 . S
C470 C469 1.394 1_556 S
C470 C471 1.516 . S
C471 C470 1.516 . S
C471 C472 1.502 . S
C471 C473 1.561 . S
C471 C474 1.526 . S
C472 H456 0.959 . S
C472 H457 0.959 . S
C472 H458 0.961 . S
C472 C471 1.502 . S
C473 H459 0.960 . S
C473 H460 0.961 . S
C473 H461 0.959 . S
C473 C471 1.561 . S
C474 C471 1.526 . S
C474 C475 1.396 1_556 S
C474 C479 1.390 . S
C475 C469 1.465 . S
C475 C474 1.396 1_554 S
C475 C476 1.399 . S
C476 H462 0.929 . S
C476 C475 1.399 . S
C476 C477 1.385 . S
C477 H463 0.931 . S
C477 C476 1.385 . S
C477 C478 1.389 . S
C478 C477 1.389 . S
C478 C479 1.387 1_554 S
C479 H464 0.930 . S
C479 C474 1.390 . S
C479 C478 1.387 1_556 S
H480 C492 0.930 . S
H481 C494 0.930 . S
H482 C495 0.930 . S
H483 C499 0.959 . S
H484 C499 0.959 . S
H485 C499 0.961 . S
H486 C500 0.960 . S
H487 C500 0.961 . S
H488 C500 0.959 . S
H489 C503 0.929 . S
H490 C504 0.931 . S
H491 C506 0.930 . S
C492 H480 0.930 . S
C492 C493 1.399 . S
C492 C497 1.399 . S
C493 C492 1.399 . S
C493 C494 1.376 . S
C494 H481 0.930 . S
C494 C493 1.376 . S
C494 C495 1.388 . S
C495 H482 0.930 . S
C495 C494 1.388 . S
C495 C496 1.390 . S
C496 C495 1.390 . S
C496 C497 1.394 . S
C496 C502 1.465 . S
C497 C492 1.399 . S
C497 C496 1.394 . S
C497 C498 1.516 . S
C498 C497 1.516 . S
C498 C499 1.502 . S
C498 C500 1.561 . S
C498 C501 1.526 . S
C499 H483 0.959 . S
C499 H484 0.959 . S
C499 H485 0.961 . S
C499 C498 1.502 . S
C500 H486 0.960 . S
C500 H487 0.961 . S
C500 H488 0.959 . S
C500 C498 1.561 . S
C501 C498 1.526 . S
C501 C502 1.396 . S
C501 C506 1.390 . S
C502 C496 1.465 . S
C502 C501 1.396 . S
C502 C503 1.399 . S
C503 H489 0.929 . S
C503 C502 1.399 . S
C503 C504 1.385 . S
C504 H490 0.931 . S
C504 C503 1.385 . S
C504 C505 1.389 . S
C505 C504 1.389 . S
C505 C506 1.387 . S
C506 H491 0.930 . S
C506 C501 1.390 . S
C506 C505 1.387 . S
H507 C519 0.930 . S
H508 C521 0.930 . S
H509 C522 0.930 . S
H510 C526 0.959 . S
H511 C526 0.959 . S
H512 C526 0.961 . S
H513 C527 0.960 . S
H514 C527 0.961 . S
H515 C527 0.959 . S
H516 C530 0.929 . S
H517 C531 0.931 . S
H518 C533 0.930 . S
C519 H507 0.930 . S
C519 C520 1.399 . S
C519 C524 1.399 . S
C520 C519 1.399 . S
C520 C521 1.376 . S
C521 H508 0.930 . S
C521 C520 1.376 . S
C521 C522 1.388 . S
C522 H509 0.930 . S
C522 C521 1.388 . S
C522 C523 1.390 . S
C523 C522 1.390 . S
C523 C524 1.394 . S
C523 C529 1.465 . S
C524 C519 1.399 . S
C524 C523 1.394 . S
C524 C525 1.516 . S
C525 C524 1.516 . S
C525 C526 1.502 . S
C525 C527 1.561 . S
C525 C528 1.526 . S
C526 H510 0.959 . S
C526 H511 0.959 . S
C526 H512 0.961 . S
C526 C525 1.502 . S
C527 H513 0.960 . S
C527 H514 0.961 . S
C527 H515 0.959 . S
C527 C525 1.561 . S
C528 C525 1.526 . S
C528 C529 1.396 . S
C528 C533 1.390 . S
C529 C523 1.465 . S
C529 C528 1.396 . S
C529 C530 1.399 . S
C530 H516 0.929 . S
C530 C529 1.399 . S
C530 C531 1.385 . S
C531 H517 0.931 . S
C531 C530 1.385 . S
C531 C532 1.389 . S
C532 C531 1.389 . S
C532 C533 1.387 . S
C533 H518 0.930 . S
C533 C528 1.390 . S
C533 C532 1.387 . S
H534 C546 0.930 . S
H535 C548 0.930 . S
H536 C549 0.930 . S
H537 C553 0.959 . S
H538 C553 0.959 . S
H539 C553 0.961 . S
H540 C554 0.960 . S
H541 C554 0.961 . S
H542 C554 0.959 . S
H543 C557 0.929 . S
H544 C558 0.931 . S
H545 C560 0.930 . S
C546 H534 0.930 . S
C546 C547 1.399 . S
C546 C551 1.399 . S
C547 C546 1.399 . S
C547 C548 1.376 . S
C548 H535 0.930 . S
C548 C547 1.376 . S
C548 C549 1.388 . S
C549 H536 0.930 . S
C549 C548 1.388 . S
C549 C550 1.390 . S
C550 C549 1.390 . S
C550 C551 1.394 . S
C550 C556 1.465 . S
C551 C546 1.399 . S
C551 C550 1.394 . S
C551 C552 1.516 . S
C552 C551 1.516 . S
C552 C553 1.502 . S
C552 C554 1.561 . S
C552 C555 1.526 . S
C553 H537 0.959 . S
C553 H538 0.959 . S
C553 H539 0.961 . S
C553 C552 1.502 . S
C554 H540 0.960 . S
C554 H541 0.961 . S
C554 H542 0.959 . S
C554 C552 1.561 . S
C555 C552 1.526 . S
C555 C556 1.396 . S
C555 C560 1.390 . S
C556 C550 1.465 . S
C556 C555 1.396 . S
C556 C557 1.399 . S
C557 H543 0.929 . S
C557 C556 1.399 . S
C557 C558 1.385 . S
C558 H544 0.931 . S
C558 C557 1.385 . S
C558 C559 1.389 . S
C559 C558 1.389 . S
C559 C560 1.387 . S
C560 H545 0.930 . S
C560 C555 1.390 . S
C560 C559 1.387 . S
H561 C573 0.930 . S
H562 C575 0.930 . S
H563 C576 0.930 . S
H564 C580 0.959 . S
H565 C580 0.959 . S
H566 C580 0.961 . S
H567 C581 0.960 . S
H568 C581 0.961 . S
H569 C581 0.959 . S
H570 C584 0.929 . S
H571 C585 0.931 . S
H572 C587 0.930 . S
C573 H561 0.930 . S
C573 C574 1.399 . S
C573 C578 1.399 . S
C574 C573 1.399 . S
C574 C575 1.376 . S
C575 H562 0.930 . S
C575 C574 1.376 . S
C575 C576 1.388 . S
C576 H563 0.930 . S
C576 C575 1.388 . S
C576 C577 1.390 . S
C577 C576 1.390 . S
C577 C578 1.394 . S
C577 C583 1.465 . S
C578 C573 1.399 . S
C578 C577 1.394 . S
C578 C579 1.516 . S
C579 C578 1.516 . S
C579 C580 1.502 . S
C579 C581 1.561 . S
C579 C582 1.526 . S
C580 H564 0.959 . S
C580 H565 0.959 . S
C580 H566 0.961 . S
C580 C579 1.502 . S
C581 H567 0.960 . S
C581 H568 0.961 . S
C581 H569 0.959 . S
C581 C579 1.561 . S
C582 C579 1.526 . S
C582 C583 1.396 . S
C582 C587 1.390 . S
C583 C577 1.465 . S
C583 C582 1.396 . S
C583 C584 1.399 . S
C584 H570 0.929 . S
C584 C583 1.399 . S
C584 C585 1.385 . S
C585 H571 0.931 . S
C585 C584 1.385 . S
C585 C586 1.389 . S
C586 C585 1.389 . S
C586 C587 1.387 . S
C587 H572 0.930 . S
C587 C582 1.390 . S
C587 C586 1.387 . S
H588 C600 0.930 . S
H589 C602 0.930 . S
H590 C603 0.930 . S
H591 C607 0.959 . S
H592 C607 0.959 . S
H593 C607 0.961 . S
H594 C608 0.960 . S
H595 C608 0.961 . S
H596 C608 0.959 . S
H597 C611 0.929 . S
H598 C612 0.931 . S
H599 C614 0.930 . S
C600 H588 0.930 . S
C600 C601 1.399 . S
C600 C605 1.399 . S
C601 C600 1.399 . S
C601 C602 1.376 . S
C602 H589 0.930 . S
C602 C601 1.376 . S
C602 C603 1.388 . S
C603 H590 0.930 . S
C603 C602 1.388 . S
C603 C604 1.390 . S
C604 C603 1.390 . S
C604 C605 1.394 . S
C604 C610 1.465 . S
C605 C600 1.399 . S
C605 C604 1.394 . S
C605 C606 1.516 . S
C606 C605 1.516 . S
C606 C607 1.502 . S
C606 C608 1.561 . S
C606 C609 1.526 . S
C607 H591 0.959 . S
C607 H592 0.959 . S
C607 H593 0.961 . S
C607 C606 1.502 . S
C608 H594 0.960 . S
C608 H595 0.961 . S
C608 H596 0.959 . S
C608 C606 1.561 . S
C609 C606 1.526 . S
C609 C610 1.396 . S
C609 C614 1.390 . S
C610 C604 1.465 . S
C610 C609 1.396 . S
C610 C611 1.399 . S
C611 H597 0.929 . S
C611 C610 1.399 . S
C611 C612 1.385 . S
C612 H598 0.931 . S
C612 C611 1.385 . S
C612 C613 1.389 . S
C613 C612 1.389 . S
C613 C614 1.387 . S
C614 H599 0.930 . S
C614 C609 1.390 . S
C614 C613 1.387 . S
H615 C627 0.930 . S
H616 C629 0.930 . S
H617 C630 0.930 . S
H618 C634 0.959 . S
H619 C634 0.959 . S
H620 C634 0.961 . S
H621 C635 0.960 . S
H622 C635 0.961 . S
H623 C635 0.959 . S
H624 C638 0.929 . S
H625 C639 0.931 . S
H626 C641 0.930 . S
C627 H615 0.930 . S
C627 C628 1.399 . S
C627 C632 1.399 . S
C628 C627 1.399 . S
C628 C629 1.376 . S
C629 H616 0.930 . S
C629 C628 1.376 . S
C629 C630 1.388 . S
C630 H617 0.930 . S
C630 C629 1.388 . S
C630 C631 1.390 . S
C631 C630 1.390 . S
C631 C632 1.394 . S
C631 C637 1.465 . S
C632 C627 1.399 . S
C632 C631 1.394 . S
C632 C633 1.516 . S
C633 C632 1.516 . S
C633 C634 1.502 . S
C633 C635 1.561 . S
C633 C636 1.526 . S
C634 H618 0.959 . S
C634 H619 0.959 . S
C634 H620 0.961 . S
C634 C633 1.502 . S
C635 H621 0.960 . S
C635 H622 0.961 . S
C635 H623 0.959 . S
C635 C633 1.561 . S
C636 C633 1.526 . S
C636 C637 1.396 . S
C636 C641 1.390 . S
C637 C631 1.465 . S
C637 C636 1.396 . S
C637 C638 1.399 . S
C638 H624 0.929 . S
C638 C637 1.399 . S
C638 C639 1.385 . S
C639 H625 0.931 . S
C639 C638 1.385 . S
C639 C640 1.389 . S
C640 C639 1.389 . S
C640 C641 1.387 . S
C641 H626 0.930 . S
C641 C636 1.390 . S
C641 C640 1.387 . S
H642 C654 0.930 . S
H643 C656 0.930 . S
H644 C657 0.930 . S
H645 C661 0.959 . S
H646 C661 0.959 . S
H647 C661 0.961 . S
H648 C662 0.960 . S
H649 C662 0.961 . S
H650 C662 0.959 . S
H651 C665 0.929 . S
H652 C666 0.931 . S
H653 C668 0.930 . S
C654 H642 0.930 . S
C654 C655 1.399 . S
C654 C659 1.399 . S
C655 C654 1.399 . S
C655 C656 1.376 . S
C656 H643 0.930 . S
C656 C655 1.376 . S
C656 C657 1.388 . S
C657 H644 0.930 . S
C657 C656 1.388 . S
C657 C658 1.390 . S
C658 C657 1.390 . S
C658 C659 1.394 . S
C658 C664 1.465 . S
C659 C654 1.399 . S
C659 C658 1.394 . S
C659 C660 1.516 . S
C660 C659 1.516 . S
C660 C661 1.502 . S
C660 C662 1.561 . S
C660 C663 1.526 . S
C661 H645 0.959 . S
C661 H646 0.959 . S
C661 H647 0.961 . S
C661 C660 1.502 . S
C662 H648 0.960 . S
C662 H649 0.961 . S
C662 H650 0.959 . S
C662 C660 1.561 . S
C663 C660 1.526 . S
C663 C664 1.396 . S
C663 C668 1.390 . S
C664 C658 1.465 . S
C664 C663 1.396 . S
C664 C665 1.399 . S
C665 H651 0.929 . S
C665 C664 1.399 . S
C665 C666 1.385 . S
C666 H652 0.931 . S
C666 C665 1.385 . S
C666 C667 1.389 . S
C667 C666 1.389 . S
C667 C668 1.387 . S
C668 H653 0.930 . S
C668 C663 1.390 . S
C668 C667 1.387 . S
H669 C681 0.930 . S
H670 C683 0.930 . S
H671 C684 0.930 . S
H672 C688 0.959 . S
H673 C688 0.959 . S
H674 C688 0.961 . S
H675 C689 0.960 . S
H676 C689 0.961 . S
H677 C689 0.959 . S
H678 C692 0.929 . S
H679 C693 0.931 . S
H680 C695 0.930 . S
C681 H669 0.930 . S
C681 C682 1.399 . S
C681 C686 1.399 . S
C682 C681 1.399 . S
C682 C683 1.376 . S
C683 H670 0.930 . S
C683 C682 1.376 . S
C683 C684 1.388 . S
C684 H671 0.930 . S
C684 C683 1.388 . S
C684 C685 1.390 . S
C685 C684 1.390 . S
C685 C686 1.394 . S
C685 C691 1.465 . S
C686 C681 1.399 . S
C686 C685 1.394 . S
C686 C687 1.516 . S
C687 C686 1.516 . S
C687 C688 1.502 . S
C687 C689 1.561 . S
C687 C690 1.526 . S
C688 H672 0.959 . S
C688 H673 0.959 . S
C688 H674 0.961 . S
C688 C687 1.502 . S
C689 H675 0.960 . S
C689 H676 0.961 . S
C689 H677 0.959 . S
C689 C687 1.561 . S
C690 C687 1.526 . S
C690 C691 1.396 . S
C690 C695 1.390 . S
C691 C685 1.465 . S
C691 C690 1.396 . S
C691 C692 1.399 . S
C692 H678 0.929 . S
C692 C691 1.399 . S
C692 C693 1.385 . S
C693 H679 0.931 . S
C693 C692 1.385 . S
C693 C694 1.389 . S
C694 C693 1.389 . S
C694 C695 1.387 . S
C695 H680 0.930 . S
C695 C690 1.390 . S
C695 C694 1.387 . S
H696 C708 0.930 . S
H697 C710 0.930 . S
H698 C711 0.930 . S
H699 C715 0.959 . S
H700 C715 0.959 . S
H701 C715 0.961 . S
H702 C716 0.960 . S
H703 C716 0.961 . S
H704 C716 0.959 . S
H705 C719 0.929 . S
H706 C720 0.931 . S
H707 C722 0.930 . S
C708 H696 0.930 . S
C708 C709 1.399 . S
C708 C713 1.399 . S
C709 C708 1.399 . S
C709 C710 1.376 . S
C710 H697 0.930 . S
C710 C709 1.376 . S
C710 C711 1.388 . S
C711 H698 0.930 . S
C711 C710 1.388 . S
C711 C712 1.390 . S
C712 C711 1.390 . S
C712 C713 1.394 . S
C712 C718 1.465 . S
C713 C708 1.399 . S
C713 C712 1.394 . S
C713 C714 1.516 . S
C714 C713 1.516 . S
C714 C715 1.502 . S
C714 C716 1.561 . S
C714 C717 1.526 . S
C715 H699 0.959 . S
C715 H700 0.959 . S
C715 H701 0.961 . S
C715 C714 1.502 . S
C716 H702 0.960 . S
C716 H703 0.961 . S
C716 H704 0.959 . S
C716 C714 1.561 . S
C717 C714 1.526 . S
C717 C718 1.396 . S
C717 C722 1.390 . S
C718 C712 1.465 . S
C718 C717 1.396 . S
C718 C719 1.399 . S
C719 H705 0.929 . S
C719 C718 1.399 . S
C719 C720 1.385 . S
C720 H706 0.931 . S
C720 C719 1.385 . S
C720 C721 1.389 . S
C721 C720 1.389 . S
C721 C722 1.387 . S
C722 H707 0.930 . S
C722 C717 1.390 . S
C722 C721 1.387 . S
H723 C735 0.930 . S
H724 C737 0.930 . S
H725 C738 0.930 . S
H726 C742 0.959 . S
H727 C742 0.959 . S
H728 C742 0.961 . S
H729 C743 0.960 . S
H730 C743 0.961 . S
H731 C743 0.959 . S
H732 C746 0.929 . S
H733 C747 0.931 . S
H734 C749 0.930 . S
C735 H723 0.930 . S
C735 C736 1.399 . S
C735 C740 1.399 . S
C736 C735 1.399 . S
C736 C737 1.376 . S
C737 H724 0.930 . S
C737 C736 1.376 . S
C737 C738 1.388 . S
C738 H725 0.930 . S
C738 C737 1.388 . S
C738 C739 1.390 . S
C739 C738 1.390 . S
C739 C740 1.394 . S
C739 C745 1.465 . S
C740 C735 1.399 . S
C740 C739 1.394 . S
C740 C741 1.516 . S
C741 C740 1.516 . S
C741 C742 1.502 . S
C741 C743 1.561 . S
C741 C744 1.526 . S
C742 H726 0.959 . S
C742 H727 0.959 . S
C742 H728 0.961 . S
C742 C741 1.502 . S
C743 H729 0.960 . S
C743 H730 0.961 . S
C743 H731 0.959 . S
C743 C741 1.561 . S
C744 C741 1.526 . S
C744 C745 1.396 . S
C744 C749 1.390 . S
C745 C739 1.465 . S
C745 C744 1.396 . S
C745 C746 1.399 . S
C746 H732 0.929 . S
C746 C745 1.399 . S
C746 C747 1.385 . S
C747 H733 0.931 . S
C747 C746 1.385 . S
C747 C748 1.389 . S
C748 C747 1.389 . S
C748 C749 1.387 . S
C749 H734 0.930 . S
C749 C744 1.390 . S
C749 C748 1.387 . S
H750 C762 0.930 . S
H751 C764 0.930 . S
H752 C765 0.930 . S
H753 C769 0.959 . S
H754 C769 0.959 . S
H755 C769 0.961 . S
H756 C770 0.960 . S
H757 C770 0.961 . S
H758 C770 0.959 . S
H759 C773 0.929 . S
H760 C774 0.931 . S
H761 C776 0.930 . S
C762 H750 0.930 . S
C762 C763 1.399 . S
C762 C767 1.399 . S
C763 C762 1.399 . S
C763 C764 1.376 . S
C764 H751 0.930 . S
C764 C763 1.376 . S
C764 C765 1.388 . S
C765 H752 0.930 . S
C765 C764 1.388 . S
C765 C766 1.390 . S
C766 C765 1.390 . S
C766 C767 1.394 . S
C766 C772 1.465 . S
C767 C762 1.399 . S
C767 C766 1.394 . S
C767 C768 1.516 . S
C768 C767 1.516 . S
C768 C769 1.502 . S
C768 C770 1.561 . S
C768 C771 1.526 . S
C769 H753 0.959 . S
C769 H754 0.959 . S
C769 H755 0.961 . S
C769 C768 1.502 . S
C770 H756 0.960 . S
C770 H757 0.961 . S
C770 H758 0.959 . S
C770 C768 1.561 . S
C771 C768 1.526 . S
C771 C772 1.396 . S
C771 C776 1.390 . S
C772 C766 1.465 . S
C772 C771 1.396 . S
C772 C773 1.399 . S
C773 H759 0.929 . S
C773 C772 1.399 . S
C773 C774 1.385 . S
C774 H760 0.931 . S
C774 C773 1.385 . S
C774 C775 1.389 . S
C775 C774 1.389 . S
C775 C776 1.387 . S
C776 H761 0.930 . S
C776 C771 1.390 . S
C776 C775 1.387 . S
H777 C789 0.930 . S
H778 C791 0.930 . S
H779 C792 0.930 . S
H780 C796 0.959 . S
H781 C796 0.959 . S
H782 C796 0.961 . S
H783 C797 0.960 . S
H784 C797 0.961 . S
H785 C797 0.959 . S
H786 C800 0.929 . S
H787 C801 0.931 . S
H788 C803 0.930 . S
C789 H777 0.930 . S
C789 C790 1.399 . S
C789 C794 1.399 . S
C790 C789 1.399 . S
C790 C791 1.376 . S
C791 H778 0.930 . S
C791 C790 1.376 . S
C791 C792 1.388 . S
C792 H779 0.930 . S
C792 C791 1.388 . S
C792 C793 1.390 . S
C793 C792 1.390 . S
C793 C794 1.394 . S
C793 C799 1.465 . S
C794 C789 1.399 . S
C794 C793 1.394 . S
C794 C795 1.516 . S
C795 C794 1.516 . S
C795 C796 1.502 . S
C795 C797 1.561 . S
C795 C798 1.526 . S
C796 H780 0.959 . S
C796 H781 0.959 . S
C796 H782 0.961 . S
C796 C795 1.502 . S
C797 H783 0.960 . S
C797 H784 0.961 . S
C797 H785 0.959 . S
C797 C795 1.561 . S
C798 C795 1.526 . S
C798 C799 1.396 . S
C798 C803 1.390 . S
C799 C793 1.465 . S
C799 C798 1.396 . S
C799 C800 1.399 . S
C800 H786 0.929 . S
C800 C799 1.399 . S
C800 C801 1.385 . S
C801 H787 0.931 . S
C801 C800 1.385 . S
C801 C802 1.389 . S
C802 C801 1.389 . S
C802 C803 1.387 . S
C803 H788 0.930 . S
C803 C798 1.390 . S
C803 C802 1.387 . S
C169 C10 1.425 . S
C181 C70 1.430 . S
C196 C18 1.162 . S
C208 C60 1.240 . S
C223 C75 1.367 . S
C235 C36 1.368 . S
C250 C44 1.307 . S
C262 C52 1.269 . S
C277 C91 1.228 . S
C289 C31 1.267 . S
C304 C86 1.383 . S
C316 C49 1.360 . S
C331 C5 1.210 . S
C343 C99 1.216 . S
C358 C78 1.406 . S
C370 C23 1.412 . S
C385 C117 1.383 1_554 S
C397 C104 1.347 . S
C412 C112 1.255 1_554 S
C424 C151 1.224 . S
C439 C125 1.326 . S
C451 C138 1.291 . S
C466 C130 1.393 . S
C478 C143 1.419 1_554 S
C493 C153 1.392 . S
C505 C83 1.390 . S
C520 C109 1.159 . S
C532 C96 1.195 . S
C547 C88 1.426 . S
C559 C127 1.388 . S
C574 C101 1.353 . S
C586 C135 1.314 . S
C601 C62 1.289 . S
C613 C122 1.300 . S
C628 C73 1.424 . S
C640 C140 1.431 . S
C655 C148 1.173 . S
C667 C57 1.198 . S
C682 C114 1.322 . S
C694 C65 1.330 . S
C709 C13 1.334 . S
C721 C26 1.372 . S
C736 C8 1.249 . S
C748 C21 1.225 . S
C763 C34 1.286 . S
C775 C47 1.249 . S
C790 C0 1.374 . S
C802 C39 1.401 . S
