# Generated by pormake.
# Topology und, (4)-cn, num edge types: 1
# Building blocks:
#     Node 0, Type 0, BuildingBlock: QUQFOY_clean_sbu_1, # of connection points: 4
#     Node 1, Type 0, BuildingBlock: QUQFOY_clean_sbu_1, # of connection points: 4
#     Node 2, Type 0, BuildingBlock: QUQFOY_clean_sbu_1, # of connection points: 4
#     Node 3, Type 0, BuildingBlock: QUQFOY_clean_sbu_1, # of connection points: 4
#     Node 4, Type 0, BuildingBlock: QUQFOY_clean_sbu_1, # of connection points: 4
#     Node 5, Type 0, BuildingBlock: QUQFOY_clean_sbu_1, # of connection points: 4
#     Node 6, Type 0, BuildingBlock: QUQFOY_clean_sbu_1, # of connection points: 4
#     Node 7, Type 0, BuildingBlock: QUQFOY_clean_sbu_1, # of connection points: 4
#     Node 8, Type 0, BuildingBlock: QUQFOY_clean_sbu_1, # of connection points: 4
#     Node 9, Type 0, BuildingBlock: QUQFOY_clean_sbu_1, # of connection points: 4
#     Node 10, Type 0, BuildingBlock: QUQFOY_clean_sbu_1, # of connection points: 4
#     Node 11, Type 0, BuildingBlock: QUQFOY_clean_sbu_1, # of connection points: 4
#     Node 12, Type 0, BuildingBlock: QUQFOY_clean_sbu_1, # of connection points: 4
#     Node 13, Type 0, BuildingBlock: QUQFOY_clean_sbu_1, # of connection points: 4
#     Node 14, Type 0, BuildingBlock: QUQFOY_clean_sbu_1, # of connection points: 4
#     Node 15, Type 0, BuildingBlock: QUQFOY_clean_sbu_1, # of connection points: 4
#     Edge 16, Type (0, 0), BuildingBlock: MIFKUJ_clean_linker_0, # of connection points: 2
#     Edge 17, Type (0, 0), BuildingBlock: MIFKUJ_clean_linker_0, # of connection points: 2
#     Edge 18, Type (0, 0), BuildingBlock: MIFKUJ_clean_linker_0, # of connection points: 2
#     Edge 19, Type (0, 0), BuildingBlock: MIFKUJ_clean_linker_0, # of connection points: 2
#     Edge 20, Type (0, 0), BuildingBlock: MIFKUJ_clean_linker_0, # of connection points: 2
#     Edge 21, Type (0, 0), BuildingBlock: MIFKUJ_clean_linker_0, # of connection points: 2
#     Edge 22, Type (0, 0), BuildingBlock: MIFKUJ_clean_linker_0, # of connection points: 2
#     Edge 23, Type (0, 0), BuildingBlock: MIFKUJ_clean_linker_0, # of connection points: 2
#     Edge 24, Type (0, 0), BuildingBlock: MIFKUJ_clean_linker_0, # of connection points: 2
#     Edge 25, Type (0, 0), BuildingBlock: MIFKUJ_clean_linker_0, # of connection points: 2
#     Edge 26, Type (0, 0), BuildingBlock: MIFKUJ_clean_linker_0, # of connection points: 2
#     Edge 27, Type (0, 0), BuildingBlock: MIFKUJ_clean_linker_0, # of connection points: 2
#     Edge 28, Type (0, 0), BuildingBlock: MIFKUJ_clean_linker_0, # of connection points: 2
#     Edge 29, Type (0, 0), BuildingBlock: MIFKUJ_clean_linker_0, # of connection points: 2
#     Edge 30, Type (0, 0), BuildingBlock: MIFKUJ_clean_linker_0, # of connection points: 2
#     Edge 31, Type (0, 0), BuildingBlock: MIFKUJ_clean_linker_0, # of connection points: 2
#     Edge 32, Type (0, 0), BuildingBlock: MIFKUJ_clean_linker_0, # of connection points: 2
#     Edge 33, Type (0, 0), BuildingBlock: MIFKUJ_clean_linker_0, # of connection points: 2
#     Edge 34, Type (0, 0), BuildingBlock: MIFKUJ_clean_linker_0, # of connection points: 2
#     Edge 35, Type (0, 0), BuildingBlock: MIFKUJ_clean_linker_0, # of connection points: 2
#     Edge 36, Type (0, 0), BuildingBlock: MIFKUJ_clean_linker_0, # of connection points: 2
#     Edge 37, Type (0, 0), BuildingBlock: MIFKUJ_clean_linker_0, # of connection points: 2
#     Edge 38, Type (0, 0), BuildingBlock: MIFKUJ_clean_linker_0, # of connection points: 2
#     Edge 39, Type (0, 0), BuildingBlock: MIFKUJ_clean_linker_0, # of connection points: 2
#     Edge 40, Type (0, 0), BuildingBlock: MIFKUJ_clean_linker_0, # of connection points: 2
#     Edge 41, Type (0, 0), BuildingBlock: MIFKUJ_clean_linker_0, # of connection points: 2
#     Edge 42, Type (0, 0), BuildingBlock: MIFKUJ_clean_linker_0, # of connection points: 2
#     Edge 43, Type (0, 0), BuildingBlock: MIFKUJ_clean_linker_0, # of connection points: 2
#     Edge 44, Type (0, 0), BuildingBlock: MIFKUJ_clean_linker_0, # of connection points: 2
#     Edge 45, Type (0, 0), BuildingBlock: MIFKUJ_clean_linker_0, # of connection points: 2
#     Edge 46, Type (0, 0), BuildingBlock: MIFKUJ_clean_linker_0, # of connection points: 2
#     Edge 47, Type (0, 0), BuildingBlock: MIFKUJ_clean_linker_0, # of connection points: 2
# Relax obj value: 0.044
# Max RMSD: 0.111
# Mean RMSD: 0.094
data_MOF--net-und--node1-QUQFOY_clean_sbu_1--edge1-MIFKUJ_clean_linker_0
_symmetry_space_group_name_H-M    P1
_symmetry_Int_Tables_number       1
_symmetry_cell_setting            triclinic
loop_
_symmetry_equiv_pos_as_xyz
'x, y, z'
_cell_length_a     80.370671
_cell_length_b     80.36932
_cell_length_c     29.237024
_cell_angle_alpha  89.985802
_cell_angle_beta   90.003309
_cell_angle_gamma 95.279381
loop_
_atom_site_label
_atom_site_type_symbol
_atom_site_fract_x
_atom_site_fract_y
_atom_site_fract_z
_atom_type_partial_charge
O0 O 0.26251 0.35428 0.9585 0.0
Cd1 Cd 0.26327 0.37011 0.01396 0.0
Cd2 Cd 0.23827 0.38167 0.96878 0.0
O3 O 0.23778 0.35938 0.93226 0.0
O4 O 0.27632 0.35867 0.0606 0.0
O5 O 0.24955 0.36231 0.06882 0.0
C6 C 0.26271 0.35601 0.0839 0.0
C7 C 0.21555 0.39094 0.00844 0.0
C8 C 0.25041 0.3509 0.93106 0.0
C9 C 0.2707 0.40344 0.97237 0.0
O10 O 0.25693 0.40007 0.95143 0.0
O11 O 0.27502 0.39382 0.00393 0.0
O12 O 0.21652 0.39194 0.96441 0.0
O13 O 0.22709 0.38384 0.02974 0.0
O14 O 0.89595 0.03797 0.3031 0.0
Cd15 Cd 0.91361 0.05772 0.28849 0.0
Cd16 Cd 0.9282 0.03295 0.24539 0.0
O17 O 0.90616 0.01877 0.25994 0.0
O18 O 0.90187 0.07857 0.29246 0.0
O19 O 0.9118 0.06926 0.22769 0.0
C20 C 0.90364 0.0801 0.24873 0.0
C21 C 0.94289 0.03026 0.17725 0.0
C22 C 0.89497 0.0232 0.28693 0.0
C23 C 0.94562 0.04904 0.32853 0.0
O24 O 0.94422 0.03733 0.29933 0.0
O25 O 0.9351 0.05996 0.32902 0.0
O26 O 0.94154 0.01854 0.2074 0.0
O27 O 0.93478 0.04318 0.18405 0.0
O28 O 0.25256 0.72473 0.4551 0.0
Cd29 Cd 0.25194 0.70854 0.50993 0.0
Cd30 Cd 0.27699 0.69763 0.46419 0.0
O31 O 0.27752 0.72024 0.42939 0.0
O32 O 0.23878 0.71952 0.55725 0.0
O33 O 0.26566 0.71626 0.56482 0.0
C34 C 0.25242 0.72229 0.58036 0.0
C35 C 0.29958 0.68798 0.50368 0.0
C36 C 0.26476 0.72854 0.42826 0.0
C37 C 0.24483 0.67561 0.46617 0.0
O38 O 0.25841 0.67949 0.44478 0.0
O39 O 0.24058 0.68465 0.49912 0.0
O40 O 0.29879 0.68749 0.45956 0.0
O41 O 0.2879 0.69478 0.52526 0.0
O42 O 0.61817 0.03918 0.8037 0.0
Cd43 Cd 0.60077 0.01911 0.79153 0.0
Cd44 Cd 0.58543 0.04245 0.74457 0.0
O45 O 0.60688 0.05764 0.76031 0.0
O46 O 0.61266 0.99838 0.79654 0.0
O47 O 0.60232 0.00706 0.73153 0.0
C48 C 0.61067 0.99647 0.75296 0.0
C49 C 0.5723 0.0428 0.67328 0.0
C50 C 0.61846 0.05382 0.78697 0.0
C51 C 0.56784 0.02708 0.82823 0.0
O52 O 0.56844 0.03786 0.7964 0.0
O53 O 0.57941 0.01737 0.83241 0.0
O54 O 0.57251 0.05528 0.70096 0.0
O55 O 0.58065 0.03045 0.68468 0.0
O56 O 0.77653 0.72548 0.94834 0.0
Cd57 Cd 0.78339 0.7115 0.00305 0.0
Cd58 Cd 0.74967 0.70594 0.01215 0.0
O59 O 0.74927 0.71896 0.95084 0.0
O60 O 0.80674 0.70627 0.98951 0.0
O61 O 0.78538 0.6869 0.99313 0.0
C62 C 0.80107 0.69081 0.9849 0.0
C63 C 0.73141 0.68214 0.02737 0.0
C64 C 0.76202 0.72669 0.93207 0.0
C65 C 0.76897 0.72589 0.0863 0.0
O66 O 0.75501 0.72025 0.0695 0.0
O67 O 0.78257 0.72322 0.06638 0.0
O68 O 0.72617 0.69676 0.02393 0.0
O69 O 0.74705 0.6808 0.0194 0.0
O70 O 0.06894 0.01771 0.8009 0.0
Cd71 Cd 0.0851 0.014 0.74788 0.0
Cd72 Cd 0.09048 0.04656 0.75592 0.0
O73 O 0.07928 0.04316 0.8195 0.0
O74 O 0.09131 0.99055 0.75426 0.0
O75 O 0.10939 0.01278 0.76321 0.0
C76 C 0.10622 0.99673 0.76492 0.0
C77 C 0.11479 0.06414 0.74196 0.0
C78 C 0.06933 0.03025 0.82753 0.0
C79 C 0.07057 0.03271 0.67445 0.0
O80 O 0.07427 0.04496 0.70118 0.0
O81 O 0.07566 0.01851 0.68334 0.0
O82 O 0.10087 0.07003 0.75223 0.0
O83 O 0.11521 0.04811 0.74259 0.0
O84 O 0.73851 0.35201 0.44269 0.0
Cd85 Cd 0.73207 0.36597 0.49799 0.0
Cd86 Cd 0.76576 0.37193 0.50369 0.0
O87 O 0.76564 0.3594 0.44162 0.0
O88 O 0.70857 0.37115 0.48621 0.0
O89 O 0.72995 0.39053 0.48799 0.0
C90 C 0.71419 0.38661 0.48095 0.0
C91 C 0.78365 0.39588 0.52 0.0
C92 C 0.75279 0.35129 0.42445 0.0
C93 C 0.74771 0.35156 0.57921 0.0
O94 O 0.76135 0.35708 0.56038 0.0
O95 O 0.73379 0.35445 0.56149 0.0
O96 O 0.78921 0.38149 0.51438 0.0
O97 O 0.7679 0.39698 0.51313 0.0
O98 O 0.44621 0.05879 0.30873 0.0
Cd99 Cd 0.43134 0.06521 0.25555 0.0
Cd100 Cd 0.42474 0.03177 0.25017 0.0
O101 O 0.43776 0.03191 0.31164 0.0
O102 O 0.42581 0.08854 0.26805 0.0
O103 O 0.40684 0.06677 0.26766 0.0
C104 C 0.4105 0.08259 0.27437 0.0
C105 C 0.40051 0.01391 0.23671 0.0
C106 C 0.44666 0.04455 0.32737 0.0
C107 C 0.4445 0.04959 0.17307 0.0
O108 O 0.43898 0.03595 0.19198 0.0
O109 O 0.44203 0.06353 0.19131 0.0
O110 O 0.41494 0.0083 0.24102 0.0
O111 O 0.3996 0.02971 0.24291 0.0
O112 O 0.758 0.84986 0.46311 0.0
Cd113 Cd 0.76214 0.86649 0.51606 0.0
Cd114 Cd 0.73866 0.88206 0.47036 0.0
O115 O 0.73759 0.8612 0.4276 0.0
O116 O 0.7746 0.85386 0.56138 0.0
O117 O 0.74925 0.86138 0.57436 0.0
C118 C 0.76168 0.85346 0.58762 0.0
C119 C 0.71566 0.89134 0.50872 0.0
C120 C 0.74737 0.84965 0.43094 0.0
C121 C 0.7731 0.90017 0.47674 0.0
O122 O 0.75844 0.89994 0.4603 0.0
O123 O 0.77714 0.88825 0.50189 0.0
O124 O 0.71781 0.8938 0.46538 0.0
O125 O 0.72615 0.88278 0.52985 0.0
O126 O 0.39609 0.5426 0.81138 0.0
Cd127 Cd 0.41411 0.56157 0.79355 0.0
Cd128 Cd 0.42671 0.53622 0.74995 0.0
O129 O 0.40377 0.52342 0.76383 0.0
O130 O 0.40314 0.58292 0.79606 0.0
O131 O 0.41205 0.57226 0.73176 0.0
C132 C 0.40444 0.58369 0.75206 0.0
C133 C 0.44067 0.53386 0.68046 0.0
C134 C 0.39361 0.52815 0.79348 0.0
C135 C 0.4457 0.55144 0.83169 0.0
O136 O 0.4431 0.53937 0.80382 0.0
O137 O 0.43617 0.56325 0.83147 0.0
O138 O 0.43894 0.52168 0.7092 0.0
O139 O 0.43339 0.54715 0.68962 0.0
O140 O 0.75773 0.22757 0.95665 0.0
Cd141 Cd 0.75294 0.21094 0.00934 0.0
Cd142 Cd 0.77617 0.19474 0.96379 0.0
O143 O 0.77765 0.21554 0.9208 0.0
O144 O 0.74029 0.22382 0.0536 0.0
O145 O 0.76536 0.21595 0.06846 0.0
C146 C 0.75295 0.22408 0.0807 0.0
C147 C 0.79892 0.18518 0.00276 0.0
C148 C 0.76828 0.22743 0.92436 0.0
C149 C 0.74145 0.17734 0.96973 0.0
O150 O 0.75613 0.17719 0.95365 0.0
O151 O 0.73763 0.18941 0.99461 0.0
O152 O 0.79684 0.18268 0.95942 0.0
O153 O 0.78849 0.1939 0.02358 0.0
O154 O 0.11813 0.53677 0.31261 0.0
Cd155 Cd 0.10026 0.51782 0.29356 0.0
Cd156 Cd 0.08851 0.543 0.24851 0.0
O157 O 0.11195 0.55511 0.2606 0.0
O158 O 0.111 0.49638 0.29743 0.0
O159 O 0.10292 0.50703 0.23216 0.0
C160 C 0.11016 0.49554 0.25337 0.0
C161 C 0.0741 0.54514 0.17965 0.0
C162 C 0.1214 0.55072 0.29249 0.0
C163 C 0.06903 0.52865 0.3304 0.0
O164 O 0.07231 0.54083 0.30319 0.0
O165 O 0.07791 0.51634 0.32973 0.0
O166 O 0.0765 0.5576 0.20733 0.0
O167 O 0.08102 0.53169 0.18931 0.0
O168 O 0.27666 0.22714 0.44615 0.0
Cd169 Cd 0.28211 0.21251 0.50132 0.0
Cd170 Cd 0.24878 0.2071 0.50308 0.0
O171 O 0.24978 0.219 0.44023 0.0
O172 O 0.30558 0.20688 0.49152 0.0
O173 O 0.28378 0.18799 0.48958 0.0
C174 C 0.29968 0.19162 0.48444 0.0
C175 C 0.23128 0.18289 0.51909 0.0
C176 C 0.26279 0.22752 0.42538 0.0
C177 C 0.26565 0.22719 0.58042 0.0
O178 O 0.25231 0.22257 0.5588 0.0
O179 O 0.27966 0.22323 0.56563 0.0
O180 O 0.22539 0.19705 0.5119 0.0
O181 O 0.24717 0.18218 0.51408 0.0
O182 O 0.56651 0.51813 0.30441 0.0
Cd183 Cd 0.58327 0.51413 0.25299 0.0
Cd184 Cd 0.58896 0.54665 0.2611 0.0
O185 O 0.57708 0.54342 0.3239 0.0
O186 O 0.58938 0.49067 0.26022 0.0
O187 O 0.6074 0.51289 0.27013 0.0
C188 C 0.60421 0.49683 0.2717 0.0
C189 C 0.61345 0.56406 0.24784 0.0
C190 C 0.5668 0.53067 0.33099 0.0
C191 C 0.56983 0.53295 0.17811 0.0
O192 O 0.57331 0.54517 0.20511 0.0
O193 O 0.57463 0.51869 0.18758 0.0
O194 O 0.59955 0.57006 0.2577 0.0
O195 O 0.61376 0.54802 0.2489 0.0
O196 O 0.2383 0.85123 0.94253 0.0
Cd197 Cd 0.2329 0.86618 0.99705 0.0
Cd198 Cd 0.26613 0.87155 0.99821 0.0
O199 O 0.26507 0.85962 0.93542 0.0
O200 O 0.20943 0.87178 0.98674 0.0
O201 O 0.23125 0.89065 0.98441 0.0
C202 C 0.21536 0.88701 0.97913 0.0
C203 C 0.28339 0.89592 0.01408 0.0
C204 C 0.25208 0.85089 0.9213 0.0
C205 C 0.24944 0.85168 0.07616 0.0
O206 O 0.26271 0.85607 0.05398 0.0
O207 O 0.23542 0.8558 0.0618 0.0
O208 O 0.28944 0.88185 0.0068 0.0
O209 O 0.26746 0.89644 0.00926 0.0
O210 O 0.94758 0.55879 0.80471 0.0
Cd211 Cd 0.93085 0.56305 0.75341 0.0
Cd212 Cd 0.92535 0.53038 0.75929 0.0
O213 O 0.93721 0.53323 0.82227 0.0
O214 O 0.92483 0.58649 0.7616 0.0
O215 O 0.90672 0.56429 0.77057 0.0
C216 C 0.90997 0.58032 0.77275 0.0
C217 C 0.90084 0.51299 0.74605 0.0
C218 C 0.94732 0.54601 0.83043 0.0
C219 C 0.94429 0.54493 0.67699 0.0
O220 O 0.94088 0.53241 0.70302 0.0
O221 O 0.93949 0.55908 0.68777 0.0
O222 O 0.91481 0.50697 0.75493 0.0
O223 O 0.9005 0.52902 0.7478 0.0
H224 H 0.28872 0.34287 0.12656 0.0
H225 H 0.28724 0.32104 0.18483 0.0
H226 H 0.23359 0.32098 0.18901 0.0
H227 H 0.23499 0.34311 0.13112 0.0
H228 H 0.24608 0.31704 0.27361 0.0
H229 H 0.25156 0.29175 0.12712 0.0
H230 H 0.26401 0.2879 0.0512 0.0
H231 H 0.31018 0.27753 0.11434 0.0
H232 H 0.29808 0.28156 0.19066 0.0
H233 H 0.23459 0.23773 0.38516 0.0
H234 H 0.23314 0.2593 0.32641 0.0
H235 H 0.28694 0.26526 0.3189 0.0
H236 H 0.28853 0.24376 0.37737 0.0
H237 H 0.27231 0.26537 0.23396 0.0
H238 H 0.26683 0.29207 0.38043 0.0
H239 H 0.25406 0.2958 0.456 0.0
H240 H 0.2072 0.30303 0.39187 0.0
H241 H 0.21964 0.29911 0.31589 0.0
C242 C 0.27661 0.3384 0.14031 0.0
C243 C 0.26195 0.34464 0.1239 0.0
C244 C 0.27578 0.32584 0.17345 0.0
C245 C 0.26027 0.31908 0.19051 0.0
C246 C 0.24568 0.32591 0.17609 0.0
C247 C 0.24651 0.33858 0.14303 0.0
C248 C 0.25933 0.30447 0.22189 0.0
C249 C 0.25159 0.30565 0.26465 0.0
C250 C 0.26666 0.28964 0.21044 0.0
C251 C 0.27396 0.2871 0.1646 0.0
C252 C 0.26441 0.28877 0.12481 0.0
C253 C 0.27139 0.28653 0.0817 0.0
C254 C 0.28788 0.28251 0.07795 0.0
C255 C 0.29741 0.28066 0.1173 0.0
C256 C 0.29049 0.28291 0.16049 0.0
C257 C 0.24611 0.24346 0.37055 0.0
C258 C 0.26169 0.23907 0.38615 0.0
C259 C 0.24525 0.25586 0.3372 0.0
C260 C 0.25994 0.26403 0.31874 0.0
C261 C 0.27546 0.25916 0.33279 0.0
C262 C 0.27633 0.24688 0.3663 0.0
C263 C 0.25928 0.27804 0.28585 0.0
C264 C 0.2667 0.27672 0.24275 0.0
C265 C 0.25158 0.29268 0.29691 0.0
C266 C 0.24411 0.2951 0.34253 0.0
C267 C 0.25376 0.29431 0.38247 0.0
C268 C 0.2466 0.29649 0.42537 0.0
C269 C 0.22982 0.2996 0.42874 0.0
C270 C 0.22019 0.30059 0.3892 0.0
C271 C 0.22729 0.2984 0.34622 0.0
H272 H 0.22429 0.30128 0.46199 0.0
H273 H 0.29327 0.28078 0.04454 0.0
H274 H 0.9685 0.02631 0.33683 0.0
H275 H 0.98997 0.02488 0.39477 0.0
H276 H 0.97562 0.07015 0.45634 0.0
H277 H 0.95375 0.07172 0.39794 0.0
H278 H 0.01118 0.06842 0.44712 0.0
H279 H 0.96307 0.03546 0.50634 0.0
H280 H 0.93932 0.01377 0.50259 0.0
H281 H 0.97308 0.97629 0.47857 0.0
H282 H 0.99703 0.9978 0.48146 0.0
H283 H 0.0546 0.06028 0.65459 0.0
H284 H 0.03427 0.06373 0.59473 0.0
H285 H 0.04039 0.01416 0.54478 0.0
H286 H 0.06052 0.01034 0.60617 0.0
H287 H 0.00861 0.0186 0.54813 0.0
H288 H 0.05658 0.05065 0.48718 0.0
H289 H 0.08077 0.07189 0.48748 0.0
H290 H 0.04816 0.11044 0.51103 0.0
H291 H 0.02378 0.0894 0.51149 0.0
C292 C 0.96985 0.03607 0.36245 0.0
C293 C 0.95927 0.04911 0.3628 0.0
C294 C 0.98216 0.03518 0.39568 0.0
C295 C 0.98425 0.04728 0.43014 0.0
C296 C 0.97413 0.06065 0.43004 0.0
C297 C 0.96164 0.06151 0.39674 0.0
C298 C 0.99686 0.04558 0.46648 0.0
C299 C 0.01051 0.05769 0.46981 0.0
C300 C 0.99622 0.03127 0.49492 0.0
C301 C 0.98184 0.01827 0.49375 0.0
C302 C 0.96543 0.02261 0.49993 0.0
C303 C 0.95193 0.01035 0.498 0.0
C304 C 0.95469 0.99367 0.49025 0.0
C305 C 0.97096 0.98922 0.48454 0.0
C306 C 0.9845 1.00144 0.48637 0.0
C307 C 0.05181 0.05011 0.63069 0.0
C308 C 0.05928 0.03502 0.6352 0.0
C309 C 0.04018 0.05217 0.5962 0.0
C310 C 0.03593 0.03933 0.56466 0.0
C311 C 0.04349 0.02428 0.56863 0.0
C312 C 0.05505 0.02213 0.60361 0.0
C313 C 0.02308 0.04144 0.52892 0.0
C314 C 0.00934 0.02938 0.52562 0.0
C315 C 0.02374 0.05573 0.50021 0.0
C316 C 0.03837 0.06842 0.49977 0.0
C317 C 0.05458 0.06364 0.49275 0.0
C318 C 0.06832 0.07565 0.49274 0.0
C319 C 0.066 0.0925 0.49938 0.0
C320 C 0.04993 0.09738 0.50594 0.0
C321 C 0.03615 0.08542 0.50602 0.0
H322 H 0.07666 0.10177 0.49937 0.0
H323 H 0.94422 0.9842 0.48874 0.0
H324 H 0.28016 0.7361 0.62574 0.0
H325 H 0.2813 0.75792 0.68427 0.0
H326 H 0.22746 0.75581 0.68432 0.0
H327 H 0.22626 0.73432 0.62513 0.0
H328 H 0.24018 0.78691 0.67716 0.0
H329 H 0.25018 0.74078 0.77481 0.0
H330 H 0.26442 0.71652 0.80042 0.0
H331 H 0.3105 0.74767 0.81406 0.0
H332 H 0.29658 0.77209 0.78794 0.0
H333 H 0.22628 0.83315 0.87716 0.0
H334 H 0.22789 0.81173 0.8187 0.0
H335 H 0.28166 0.82025 0.81907 0.0
H336 H 0.28018 0.84174 0.87807 0.0
H337 H 0.2708 0.78686 0.82443 0.0
H338 H 0.26004 0.83329 0.72997 0.0
H339 H 0.24534 0.8574 0.70564 0.0
H340 H 0.20009 0.82534 0.68707 0.0
H341 H 0.21446 0.80106 0.71192 0.0
C342 C 0.26855 0.74006 0.63883 0.0
C343 C 0.25312 0.7335 0.62069 0.0
C344 C 0.26922 0.75255 0.67235 0.0
C345 C 0.25446 0.75853 0.68883 0.0
C346 C 0.23902 0.75149 0.672 0.0
C347 C 0.23835 0.73912 0.6383 0.0
C348 C 0.25503 0.77277 0.72149 0.0
C349 C 0.2467 0.78678 0.70963 0.0
C350 C 0.26399 0.77289 0.76323 0.0
C351 C 0.27238 0.75823 0.77894 0.0
C352 C 0.26339 0.74243 0.78289 0.0
C353 C 0.27139 0.72866 0.79758 0.0
C354 C 0.28837 0.73055 0.80873 0.0
C355 C 0.29736 0.74622 0.80534 0.0
C356 C 0.28942 0.76004 0.79063 0.0
C357 C 0.23847 0.83064 0.86453 0.0
C358 C 0.25311 0.8392 0.88234 0.0
C359 C 0.23936 0.81839 0.83097 0.0
C360 C 0.25489 0.81443 0.81434 0.0
C361 C 0.26954 0.82311 0.83145 0.0
C362 C 0.26866 0.83546 0.86494 0.0
C363 C 0.25573 0.80081 0.78031 0.0
C364 C 0.26435 0.78698 0.79185 0.0
C365 C 0.24697 0.80079 0.73833 0.0
C366 C 0.2383 0.81537 0.72317 0.0
C367 C 0.24692 0.8314 0.72103 0.0
C368 C 0.23865 0.8451 0.70709 0.0
C369 C 0.22178 0.84291 0.69491 0.0
C370 C 0.21316 0.82702 0.69655 0.0
C371 C 0.22136 0.81328 0.71051 0.0
H372 H 0.2154 0.85353 0.68413 0.0
H373 H 0.29454 0.71987 0.8201 0.0
H374 H 0.47131 0.07105 0.14795 0.0
H375 H 0.49149 0.06686 0.08727 0.0
H376 H 0.46161 0.02217 0.04448 0.0
H377 H 0.442 0.02586 0.10666 0.0
H378 H 0.4914 0.01529 0.0466 0.0
H379 H 0.46526 0.06107 0.98167 0.0
H380 H 0.4552 0.08915 0.97937 0.0
H381 H 0.50529 0.11149 0.99923 0.0
H382 H 0.51562 0.08354 1.0022 0.0
H383 H 0.53712 0.03758 0.81386 0.0
H384 H 0.5151 0.04045 0.86976 0.0
H385 H 0.5452 0.01996 0.97427 0.0
H386 H 0.56715 0.0165 0.91768 0.0
H387 H 0.51486 0.05926 0.93979 0.0
H388 H 0.52056 1.00237 0.05892 0.0
H389 H 0.52786 0.97326 0.05408 0.0
H390 H 0.51352 0.97122 0.91257 0.0
H391 H 0.50593 1.00022 0.91672 0.0
C392 C 0.46892 0.06053 0.12499 0.0
C393 C 0.45507 0.04881 0.13189 0.0
C394 C 0.48046 0.05812 0.09024 0.0
C395 C 0.47809 0.04422 0.06087 0.0
C396 C 0.46385 0.03291 0.06676 0.0
C397 C 0.45256 0.0351 0.10209 0.0
C398 C 0.49077 0.04094 0.02547 0.0
C399 C 0.49647 0.02493 0.02319 0.0
C400 C 0.49735 0.05338 0.99442 0.0
C401 C 0.49118 0.07021 0.99258 0.0
C402 C 0.47411 0.07197 0.98586 0.0
C403 C 0.46836 0.08786 0.98438 0.0
C404 C 0.47959 0.10209 0.98927 0.0
C405 C 0.4966 0.10046 0.99551 0.0
C406 C 0.50241 0.0846 0.99704 0.0
C407 C 0.53897 0.03344 0.84862 0.0
C408 C 0.55389 0.02681 0.86139 0.0
C409 C 0.52639 0.03518 0.88065 0.0
C410 C 0.52843 0.03048 0.92638 0.0
C411 C 0.54318 0.02347 0.93909 0.0
C412 C 0.55573 0.02149 0.90674 0.0
C413 C 0.51536 0.03359 0.96073 0.0
C414 C 0.50972 0.04962 0.96309 0.0
C415 C 0.50842 0.02101 0.99081 0.0
C416 C 0.51286 1.00353 0.98804 0.0
C417 C 0.51892 0.99569 0.02682 0.0
C418 C 0.52312 0.97921 0.02419 0.0
C419 C 0.52121 0.97042 0.983 0.0
C420 C 0.51505 0.97807 0.9444 0.0
C421 C 0.51083 0.99453 0.94686 0.0
H422 H 0.52448 0.95767 0.98104 0.0
H423 H 0.47511 0.11438 0.98812 0.0
H424 H 0.22421 0.83895 0.13397 0.0
H425 H 0.22652 0.81914 0.19721 0.0
H426 H 0.27948 0.81978 0.17286 0.0
H427 H 0.27739 0.83948 0.11044 0.0
H428 H 0.26371 0.78778 0.17798 0.0
H429 H 0.26627 0.83934 0.2632 0.0
H430 H 0.25608 0.86587 0.28837 0.0
H431 H 0.21148 0.83922 0.34155 0.0
H432 H 0.2213 0.81254 0.31609 0.0
H433 H 0.28894 0.74232 0.36934 0.0
H434 H 0.28623 0.76434 0.31264 0.0
H435 H 0.23507 0.76749 0.35385 0.0
H436 H 0.23781 0.74594 0.41124 0.0
H437 H 0.24909 0.79758 0.33995 0.0
H438 H 0.24555 0.74634 0.25545 0.0
H439 H 0.25459 0.71945 0.22915 0.0
H440 H 0.29932 0.7448 0.17282 0.0
H441 H 0.29065 0.77184 0.19933 0.0
C442 C 0.23636 0.83501 0.14244 0.0
C443 C 0.25058 0.8408 0.11694 0.0
C444 C 0.23767 0.8237 0.17858 0.0
C445 C 0.25318 0.81796 0.18962 0.0
C446 C 0.26738 0.82397 0.16479 0.0
C447 C 0.26613 0.83531 0.12912 0.0
C448 C 0.25471 0.80523 0.22584 0.0
C449 C 0.26069 0.78999 0.21351 0.0
C450 C 0.25034 0.80794 0.27191 0.0
C451 C 0.24444 0.82396 0.28728 0.0
C452 C 0.25422 0.83915 0.27988 0.0
C453 C 0.24853 0.85421 0.29428 0.0
C454 C 0.23312 0.85424 0.31642 0.0
C455 C 0.2234 0.83919 0.32432 0.0
C456 C 0.22903 0.82409 0.30994 0.0
C457 C 0.27714 0.74776 0.36646 0.0
C458 C 0.26358 0.74228 0.39474 0.0
C459 C 0.27558 0.7603 0.33387 0.0
C460 C 0.26035 0.76743 0.32841 0.0
C461 C 0.24694 0.76221 0.3573 0.0
C462 C 0.24853 0.74981 0.39007 0.0
C463 C 0.25823 0.78011 0.2922 0.0
C464 C 0.2521 0.79533 0.30445 0.0
C465 C 0.26229 0.77732 0.24586 0.0
C466 C 0.26753 0.76109 0.22978 0.0
C467 C 0.25738 0.74617 0.23775 0.0
C468 C 0.26242 0.7309 0.22276 0.0
C469 C 0.27755 0.73041 0.19944 0.0
C470 C 0.28763 0.74519 0.19095 0.0
C471 C 0.28264 0.76049 0.20592 0.0
H472 H 0.28143 0.71858 0.18785 0.0
H473 H 0.22874 0.86591 0.32756 0.0
H474 H 0.47118 0.06765 0.35746 0.0
H475 H 0.49281 0.06396 0.41399 0.0
H476 H 0.47161 0.01355 0.43904 0.0
H477 H 0.44985 0.01703 0.3817 0.0
H478 H 0.48078 0.03287 0.52008 0.0
H479 H 0.50442 0.01691 0.37821 0.0
H480 H 0.512 0.02023 0.29679 0.0
H481 H 0.5431 0.06513 0.32789 0.0
H482 H 0.5355 0.06222 0.40943 0.0
H483 H 0.56934 0.0189 0.60574 0.0
H484 H 0.54836 0.01615 0.5444 0.0
H485 H 0.52912 0.06181 0.5887 0.0
H486 H 0.55004 0.06481 0.64926 0.0
H487 H 0.54023 0.03923 0.47143 0.0
H488 H 0.48617 0.05279 0.59193 0.0
H489 H 0.47865 0.04959 0.67347 0.0
H490 H 0.50841 0.00806 0.68459 0.0
H491 H 0.51589 0.01084 0.60298 0.0
C492 C 0.47096 0.05579 0.37514 0.0
C493 C 0.45877 0.0426 0.3649 0.0
C494 C 0.48342 0.05369 0.40731 0.0
C495 C 0.48392 0.03843 0.43023 0.0
C496 C 0.47146 0.0254 0.42147 0.0
C497 C 0.45905 0.02742 0.38875 0.0
C498 C 0.49763 0.03623 0.46294 0.0
C499 C 0.49376 0.03411 0.50944 0.0
C500 C 0.51456 0.03769 0.44887 0.0
C501 C 0.5193 0.0394 0.39991 0.0
C502 C 0.51278 0.02756 0.36765 0.0
C503 C 0.5171 0.02936 0.32147 0.0
C504 C 0.528 0.0429 0.30716 0.0
C505 C 0.53465 0.05465 0.33902 0.0
C506 C 0.53036 0.05292 0.38524 0.0
C507 C 0.56082 0.02849 0.60188 0.0
C508 C 0.56133 0.04204 0.63247 0.0
C509 C 0.54885 0.02689 0.5669 0.0
C510 C 0.53709 0.03866 0.56253 0.0
C511 C 0.538 0.0525 0.59186 0.0
C512 C 0.55003 0.05422 0.62634 0.0
C513 C 0.52337 0.03634 0.52862 0.0
C514 C 0.52724 0.03771 0.48196 0.0
C515 C 0.50643 0.03414 0.54252 0.0
C516 C 0.5017 0.03212 0.59141 0.0
C517 C 0.49103 0.04292 0.61171 0.0
C518 C 0.48679 0.04119 0.65795 0.0
C519 C 0.49308 0.02866 0.68422 0.0
C520 C 0.50359 0.01779 0.66425 0.0
C521 C 0.50785 0.01946 0.61801 0.0
H522 H 0.4898 0.02736 0.72003 0.0
H523 H 0.53132 0.04427 0.27139 0.0
H524 H 0.29118 0.2416 0.63459 0.0
H525 H 0.28883 0.26162 0.69723 0.0
H526 H 0.23533 0.2577 0.68001 0.0
H527 H 0.23749 0.23784 0.61804 0.0
H528 H 0.24886 0.2902 0.68207 0.0
H529 H 0.25214 0.23977 0.77 0.0
H530 H 0.26493 0.21451 0.79467 0.0
H531 H 0.30887 0.24472 0.83856 0.0
H532 H 0.29642 0.27016 0.81357 0.0
H533 H 0.22567 0.33608 0.87549 0.0
H534 H 0.22823 0.31401 0.8188 0.0
H535 H 0.28051 0.31356 0.85189 0.0
H536 H 0.27791 0.33504 0.90943 0.0
H537 H 0.26812 0.28317 0.84146 0.0
H538 H 0.2661 0.33331 0.75356 0.0
H539 H 0.25454 0.35906 0.72744 0.0
H540 H 0.21004 0.3303 0.68122 0.0
H541 H 0.22125 0.30439 0.70762 0.0
C542 C 0.27892 0.24486 0.64453 0.0
C543 C 0.26455 0.23813 0.62109 0.0
C544 C 0.27759 0.25629 0.68033 0.0
C545 C 0.26189 0.26117 0.69321 0.0
C546 C 0.24757 0.25419 0.67052 0.0
C547 C 0.24886 0.24276 0.63509 0.0
C548 C 0.26026 0.27402 0.72905 0.0
C549 C 0.25289 0.28859 0.71708 0.0
C550 C 0.26595 0.27213 0.77436 0.0
C551 C 0.27342 0.25685 0.78946 0.0
C552 C 0.26459 0.24101 0.78454 0.0
C553 C 0.27176 0.22667 0.79866 0.0
C554 C 0.28772 0.22801 0.81805 0.0
C555 C 0.29652 0.2437 0.82347 0.0
C556 C 0.28941 0.25809 0.80937 0.0
C557 C 0.23768 0.33124 0.87073 0.0
C558 C 0.25157 0.33738 0.89693 0.0
C559 C 0.23917 0.31867 0.83814 0.0
C560 C 0.25465 0.31225 0.83047 0.0
C561 C 0.26844 0.31824 0.85707 0.0
C562 C 0.26692 0.33061 0.88996 0.0
C563 C 0.25662 0.2994 0.7946 0.0
C564 C 0.26408 0.28483 0.80648 0.0
C565 C 0.25121 0.30138 0.74897 0.0
C566 C 0.24445 0.31694 0.73299 0.0
C567 C 0.2538 0.33249 0.73813 0.0
C568 C 0.24732 0.34712 0.72322 0.0
C569 C 0.23155 0.34632 0.70279 0.0
C570 C 0.22224 0.3309 0.69711 0.0
C571 C 0.22866 0.31624 0.71201 0.0
H572 H 0.22655 0.35766 0.69127 0.0
H573 H 0.29325 0.21689 0.82897 0.0
H574 H 0.07095 0.0493 0.90578 0.0
H575 H 0.04996 0.04911 0.96682 0.0
H576 H 0.01849 0.01188 0.89284 0.0
H577 H 0.03967 0.01135 0.83365 0.0
H578 H 0.02013 0.05693 0.97246 0.0
H579 H 0.99469 0.98673 0.95955 0.0
H580 H 1.00526 0.95955 0.9424 0.0
H581 H 0.05472 0.97903 0.98181 0.0
H582 H 0.04441 0.00625 0.99978 0.0
H583 H 0.94378 0.04736 0.09566 0.0
H584 H 0.96513 0.04719 0.03573 0.0
H585 H 0.99116 0.01255 0.11565 0.0
H586 H 0.96941 0.01184 0.17348 0.0
H587 H 0.99355 1.00375 0.03601 0.0
H588 H 1.00305 0.05723 0.10753 0.0
H589 H 0.99602 0.0847 0.13527 0.0
H590 H 0.98479 0.09911 0.99806 0.0
H591 H 0.99156 0.07163 0.96957 0.0
C592 C 0.05962 0.04095 0.90298 0.0
C593 C 0.05708 0.03015 0.86531 0.0
C594 C 0.04759 0.04091 0.9377 0.0
C595 C 0.03271 0.03026 0.93499 0.0
C596 C 0.03004 0.01983 0.89667 0.0
C597 C 0.04217 0.01958 0.86267 0.0
C598 C 0.01984 0.03009 0.9717 0.0
C599 C 0.01437 0.0453 0.98651 0.0
C600 C 0.01251 0.01497 0.99093 0.0
C601 C 0.01879 0.99858 0.98058 0.0
C602 C 0.0078 0.98519 0.96473 0.0
C603 C 0.01376 0.96978 0.95483 0.0
C604 C 0.03066 0.96758 0.96087 0.0
C605 C 0.04164 0.98077 0.97698 0.0
C606 C 0.03576 0.99619 0.98698 0.0
C607 C 0.95396 0.03957 0.09995 0.0
C608 C 0.95488 0.02956 0.13911 0.0
C609 C 0.96627 0.0396 0.06596 0.0
C610 C 0.98003 0.0301 0.07136 0.0
C611 C 0.98072 0.01995 0.11029 0.0
C612 C 0.96824 0.01956 0.14347 0.0
C613 C 0.99376 0.0306 0.03691 0.0
C614 C 0.99933 0.01542 0.02224 0.0
C615 C 1.00171 0.04578 0.01952 0.0
C616 C 0.99765 0.06232 0.0365 0.0
C617 C 0.99897 0.06622 0.08332 0.0
C618 C 0.99505 0.08179 0.09917 0.0
C619 C 0.98992 0.09363 0.06846 0.0
C620 C 0.98874 0.08992 0.02181 0.0
C621 C 0.99263 0.07435 0.00579 0.0
H622 H 0.98689 0.10568 0.0808 0.0
H623 H 0.03524 0.95565 0.95316 0.0
H624 H 0.78651 0.74137 0.87693 0.0
H625 H 0.78418 0.76352 0.82101 0.0
H626 H 0.73109 0.7614 0.84508 0.0
H627 H 0.73326 0.7389 0.90085 0.0
H628 H 0.73833 0.7661 0.75507 0.0
H629 H 0.75696 0.79148 0.89582 0.0
H630 H 0.77467 0.79561 0.96449 0.0
H631 H 0.81779 0.80759 0.87991 0.0
H632 H 0.80038 0.80329 0.81068 0.0
H633 H 0.73417 0.84417 0.64041 0.0
H634 H 0.73211 0.82357 0.70255 0.0
H635 H 0.78479 0.81805 0.69007 0.0
H636 H 0.78696 0.83857 0.62834 0.0
H637 H 0.77494 0.81854 0.77934 0.0
H638 H 0.75648 0.79064 0.63909 0.0
H639 H 0.73876 0.78632 0.57047 0.0
H640 H 0.695 0.77933 0.65511 0.0
H641 H 0.71247 0.78385 0.72424 0.0
C642 C 0.77428 0.74545 0.87004 0.0
C643 C 0.76009 0.73845 0.89374 0.0
C644 C 0.77299 0.7582 0.83819 0.0
C645 C 0.75753 0.76441 0.82968 0.0
C646 C 0.74317 0.75689 0.8514 0.0
C647 C 0.74443 0.74401 0.8832 0.0
C648 C 0.75661 0.77912 0.79923 0.0
C649 C 0.7461 0.77767 0.76082 0.0
C650 C 0.76687 0.79419 0.80647 0.0
C651 C 0.77738 0.79694 0.84804 0.0
C652 C 0.77024 0.79489 0.89185 0.0
C653 C 0.78022 0.79727 0.93088 0.0
C654 C 0.79735 0.80183 0.92656 0.0
C655 C 0.80453 0.80405 0.8832 0.0
C656 C 0.7946 0.80166 0.84405 0.0
C657 C 0.74536 0.83877 0.65146 0.0
C658 C 0.76072 0.84294 0.62929 0.0
C659 C 0.74414 0.82693 0.68675 0.0
C660 C 0.75825 0.8191 0.70049 0.0
C661 C 0.77373 0.82388 0.67995 0.0
C662 C 0.77494 0.83561 0.64459 0.0
C663 C 0.75692 0.80539 0.73475 0.0
C664 C 0.767 0.80704 0.77393 0.0
C665 C 0.74624 0.79056 0.72827 0.0
C666 C 0.73575 0.78778 0.68677 0.0
C667 C 0.74306 0.78832 0.64304 0.0
C668 C 0.73307 0.78581 0.60406 0.0
C669 C 0.71576 0.78261 0.60842 0.0
C670 C 0.70841 0.78185 0.65178 0.0
C671 C 0.71835 0.78438 0.69087 0.0
H672 H 0.70804 0.78067 0.57821 0.0
H673 H 0.80506 0.80366 0.95682 0.0
H674 H 0.72792 0.33677 0.37028 0.0
H675 H 0.72985 0.3147 0.31387 0.0
H676 H 0.78307 0.31664 0.33562 0.0
H677 H 0.7813 0.33912 0.39159 0.0
H678 H 0.77579 0.31181 0.24691 0.0
H679 H 0.75656 0.28654 0.38746 0.0
H680 H 0.73864 0.28252 0.45576 0.0
H681 H 0.69567 0.27102 0.37029 0.0
H682 H 0.7133 0.27521 0.30143 0.0
H683 H 0.78015 0.23339 0.13467 0.0
H684 H 0.78192 0.25418 0.19627 0.0
H685 H 0.72938 0.25992 0.18099 0.0
H686 H 0.7275 0.23921 0.11974 0.0
H687 H 0.73874 0.25964 0.27089 0.0
H688 H 0.75798 0.28707 0.1307 0.0
H689 H 0.77603 0.29111 0.06265 0.0
H690 H 0.8194 0.29816 0.14873 0.0
H691 H 0.80161 0.29392 0.21732 0.0
C692 C 0.74009 0.33267 0.36272 0.0
C693 C 0.75444 0.33961 0.38579 0.0
C694 C 0.74115 0.31996 0.33062 0.0
C695 C 0.75654 0.31369 0.32137 0.0
C696 C 0.77104 0.32118 0.34249 0.0
C697 C 0.77001 0.33405 0.37441 0.0
C698 C 0.75727 0.29898 0.2908 0.0
C699 C 0.7679 0.3003 0.25261 0.0
C700 C 0.74687 0.28399 0.29791 0.0
C701 C 0.73624 0.28131 0.33927 0.0
C702 C 0.74327 0.28326 0.38322 0.0
C703 C 0.73317 0.28094 0.42204 0.0
C704 C 0.71603 0.27655 0.41737 0.0
C705 C 0.70896 0.27443 0.37386 0.0
C706 C 0.719 0.27676 0.33492 0.0
C707 C 0.76892 0.23887 0.14499 0.0
C708 C 0.7537 0.23471 0.12217 0.0
C709 C 0.76998 0.25083 0.17998 0.0
C710 C 0.75583 0.25877 0.19276 0.0
C711 C 0.74046 0.254 0.1716 0.0
C712 C 0.73942 0.24215 0.13653 0.0
C713 C 0.75702 0.27259 0.22667 0.0
C714 C 0.74676 0.27109 0.26553 0.0
C715 C 0.7678 0.28736 0.22026 0.0
C716 C 0.77849 0.28999 0.17909 0.0
C717 C 0.77138 0.28935 0.13509 0.0
C718 C 0.78156 0.2917 0.09643 0.0
C719 C 0.79886 0.29484 0.10136 0.0
C720 C 0.806 0.29569 0.14497 0.0
C721 C 0.79588 0.29332 0.18374 0.0
H722 H 0.80672 0.29666 0.07139 0.0
H723 H 0.70823 0.27476 0.44747 0.0
H724 H 0.77403 0.22531 0.8323 0.0
H725 H 0.7704 0.2468 0.77455 0.0
H726 H 0.76005 0.2815 0.88134 0.0
H727 H 0.76271 0.25979 0.93855 0.0
H728 H 0.7388 0.28419 0.81965 0.0
H729 H 0.79852 0.28323 0.81619 0.0
H730 H 0.82512 0.27042 0.80872 0.0
H731 H 0.81169 0.25422 0.67262 0.0
H732 H 0.78491 0.26677 0.67949 0.0
H733 H 0.77369 0.35054 0.63828 0.0
H734 H 0.777 0.33035 0.699 0.0
H735 H 0.72747 0.30703 0.67171 0.0
H736 H 0.7239 0.32764 0.61142 0.0
H737 H 0.77862 0.29869 0.69325 0.0
H738 H 0.71172 0.28706 0.76763 0.0
H739 H 0.68699 0.30246 0.78106 0.0
H740 H 0.71828 0.34871 0.78604 0.0
H741 H 0.7432 0.33357 0.77325 0.0
C742 C 0.77125 0.23762 0.84333 0.0
C743 C 0.7687 0.24092 0.88985 0.0
C744 C 0.76918 0.24993 0.81033 0.0
C745 C 0.76504 0.2659 0.8234 0.0
C746 C 0.76309 0.26929 0.87013 0.0
C747 C 0.76475 0.25691 0.9029 0.0
C748 C 0.76213 0.27896 0.78871 0.0
C749 C 0.74755 0.28734 0.79207 0.0
C750 C 0.77354 0.2833 0.75278 0.0
C751 C 0.78965 0.2758 0.74853 0.0
C752 C 0.8012 0.27684 0.78479 0.0
C753 C 0.81631 0.26964 0.78064 0.0
C754 C 0.82007 0.26147 0.74027 0.0
C755 C 0.80875 0.26053 0.7039 0.0
C756 C 0.79361 0.2677 0.70788 0.0
C757 C 0.76338 0.34128 0.64563 0.0
C758 C 0.74852 0.34069 0.61999 0.0
C759 C 0.76533 0.32967 0.68025 0.0
C760 C 0.75255 0.31708 0.68997 0.0
C761 C 0.73747 0.31672 0.66531 0.0
C762 C 0.73542 0.32853 0.63087 0.0
C763 C 0.75542 0.30402 0.72459 0.0
C764 C 0.7699 0.29554 0.72092 0.0
C765 C 0.74419 0.29997 0.76105 0.0
C766 C 0.72929 0.30919 0.76893 0.0
C767 C 0.71332 0.30051 0.77169 0.0
C768 C 0.69927 0.3092 0.77919 0.0
C769 C 0.70105 0.32656 0.78422 0.0
C770 C 0.7169 0.33527 0.78193 0.0
C771 C 0.73099 0.32664 0.77449 0.0
H772 H 0.69016 0.33326 0.79001 0.0
H773 H 0.83178 0.2559 0.73714 0.0
H774 H 0.74558 0.72511 0.15354 0.0
H775 H 0.74262 0.74599 0.21284 0.0
H776 H 0.78846 0.7733 0.16796 0.0
H777 H 0.79182 0.75195 0.10958 0.0
H778 H 0.78656 0.77595 0.25559 0.0
H779 H 0.74919 0.78437 0.13383 0.0
H780 H 0.72711 0.77676 0.07703 0.0
H781 H 0.69203 0.76407 0.18507 0.0
H782 H 0.71396 0.77139 0.24255 0.0
H783 H 0.73832 0.85081 0.34054 0.0
H784 H 0.74266 0.82998 0.28139 0.0
H785 H 0.7605 0.79739 0.38412 0.0
H786 H 0.75688 0.81836 0.44264 0.0
H787 H 0.73182 0.79987 0.26144 0.0
H788 H 0.79086 0.77571 0.34509 0.0
H789 H 0.81446 0.78648 0.39397 0.0
H790 H 0.80896 0.83644 0.34809 0.0
H791 H 0.78549 0.82595 0.29849 0.0
C792 C 0.75519 0.73541 0.15685 0.0
C793 C 0.76888 0.73696 0.12675 0.0
C794 C 0.75341 0.74743 0.19052 0.0
C795 C 0.76503 0.76153 0.19406 0.0
C796 C 0.77924 0.76262 0.16573 0.0
C797 C 0.7812 0.75038 0.13247 0.0
C798 C 0.76196 0.77534 0.22612 0.0
C799 C 0.77459 0.78116 0.25685 0.0
C800 C 0.74653 0.78262 0.22691 0.0
C801 C 0.73326 0.7783 0.19249 0.0
C802 C 0.73679 0.77986 0.14548 0.0
C803 C 0.7243 0.77561 0.11316 0.0
C804 C 0.70819 0.7699 0.12743 0.0
C805 C 0.70452 0.76848 0.17406 0.0
C806 C 0.71697 0.77269 0.20653 0.0
C807 C 0.74299 0.83911 0.35046 0.0
C808 C 0.74742 0.83628 0.39611 0.0
C809 C 0.7455 0.82723 0.31665 0.0
C810 C 0.75234 0.81226 0.32801 0.0
C811 C 0.75574 0.80903 0.37412 0.0
C812 C 0.75353 0.82099 0.40765 0.0
C813 C 0.75624 0.80012 0.29186 0.0
C814 C 0.74379 0.79466 0.26022 0.0
C815 C 0.77205 0.79364 0.28911 0.0
C816 C 0.78631 0.80004 0.3184 0.0
C817 C 0.79474 0.78898 0.34528 0.0
C818 C 0.80808 0.79504 0.37314 0.0
C819 C 0.81317 0.81214 0.37424 0.0
C820 C 0.80497 0.8232 0.34734 0.0
C821 C 0.79163 0.81721 0.31938 0.0
H822 H 0.8235 0.8168 0.39586 0.0
H823 H 0.69853 0.76662 0.10236 0.0
H824 H 0.55603 0.56139 0.15366 0.0
H825 H 0.53622 0.56511 0.09238 0.0
H826 H 0.53907 0.51413 0.04956 0.0
H827 H 0.559 0.51016 0.1115 0.0
H828 H 0.53946 0.53792 0.97603 0.0
H829 H 0.5071 0.52189 0.10993 0.0
H830 H 0.49884 0.5238 0.19083 0.0
H831 H 0.48618 0.57395 0.1691 0.0
H832 H 0.49462 0.57243 0.08816 0.0
H833 H 0.46649 0.52683 0.84256 0.0
H834 H 0.4886 0.52511 0.89844 0.0
H835 H 0.47904 0.57326 0.95248 0.0
H836 H 0.45636 0.57492 0.8968 0.0
H837 H 0.48272 0.55185 0.02001 0.0
H838 H 0.51404 0.56803 0.88615 0.0
H839 H 0.52265 0.56676 0.80538 0.0
H840 H 0.53771 0.51744 0.82644 0.0
H841 H 0.52898 0.51832 0.90722 0.0
C842 C 0.55262 0.55094 0.13111 0.0
C843 C 0.55906 0.5354 0.1378 0.0
C844 C 0.54122 0.55312 0.0961 0.0
C845 C 0.53602 0.53986 0.06681 0.0
C846 C 0.5429 0.52451 0.07198 0.0
C847 C 0.55427 0.52226 0.10738 0.0
C848 C 0.52294 0.54198 0.03198 0.0
C849 C 0.52698 0.54074 0.98554 0.0
C850 C 0.50684 0.54619 0.04451 0.0
C851 C 0.50166 0.5471 0.0931 0.0
C852 C 0.50269 0.53338 0.12249 0.0
C853 C 0.49795 0.53438 0.16834 0.0
C854 C 0.49203 0.54901 0.18513 0.0
C855 C 0.49079 0.56264 0.15606 0.0
C856 C 0.49554 0.56171 0.11019 0.0
C857 C 0.46908 0.53716 0.86604 0.0
C858 C 0.45963 0.55107 0.86499 0.0
C859 C 0.48186 0.53618 0.89793 0.0
C860 C 0.48573 0.54916 0.92926 0.0
C861 C 0.47634 0.56311 0.92847 0.0
C862 C 0.46342 0.56407 0.89657 0.0
C863 C 0.49916 0.54774 0.96374 0.0
C864 C 0.4952 0.54911 0.01026 0.0
C865 C 0.51537 0.54375 0.95122 0.0
C866 C 0.52072 0.5432 0.90268 0.0
C867 C 0.51907 0.55686 0.87349 0.0
C868 C 0.524 0.55622 0.82771 0.0
C869 C 0.53069 0.54201 0.81077 0.0
C870 C 0.53251 0.52843 0.83961 0.0
C871 C 0.5276 0.52901 0.88541 0.0
H872 H 0.53449 0.54154 0.77531 0.0
H873 H 0.48837 0.54976 0.22063 0.0
H874 H 0.0567 0.50479 0.39255 0.0
H875 H 0.03416 0.50707 0.44829 0.0
H876 H 0.02749 0.55656 0.39879 0.0
H877 H 0.0498 0.55445 0.34345 0.0
H878 H 0.02906 0.55556 0.49171 0.0
H879 H 0.99985 0.52438 0.37084 0.0
H880 H 0.99486 0.50103 0.31638 0.0
H881 H 0.98983 0.46616 0.42792 0.0
H882 H 0.99501 0.4893 0.48305 0.0
H883 H 0.95487 0.56856 0.61241 0.0
H884 H 0.97454 0.56549 0.54958 0.0
H885 H 0.97804 0.51409 0.58794 0.0
H886 H 0.95813 0.51687 0.64946 0.0
H887 H 0.97787 0.51615 0.49924 0.0
H888 H 0.00799 0.5463 0.61999 0.0
H889 H 0.01374 0.56905 0.676 0.0
H890 H 0.01808 0.60504 0.56709 0.0
H891 H 0.01214 0.58251 0.51045 0.0
C892 C 0.05037 0.51611 0.39343 0.0
C893 C 0.05509 0.52942 0.36348 0.0
C894 C 0.03747 0.51738 0.42519 0.0
C895 C 0.02911 0.53198 0.42756 0.0
C896 C 0.03378 0.54521 0.39765 0.0
C897 C 0.04654 0.54393 0.36588 0.0
C898 C 0.01572 0.53377 0.46178 0.0
C899 C 0.01776 0.54706 0.49301 0.0
C900 C 1.00117 0.52247 0.46413 0.0
C901 C 0.99799 0.50856 0.43104 0.0
C902 C 0.99782 0.51172 0.38374 0.0
C903 C 0.99493 0.49853 0.35275 0.0
C904 C 0.99207 0.48212 0.36867 0.0
C905 C 0.99206 0.47888 0.41563 0.0
C906 C 0.99496 0.49203 0.44676 0.0
C907 C 0.95968 0.55656 0.6071 0.0
C908 C 0.95498 0.54301 0.63625 0.0
C909 C 0.97101 0.55484 0.57134 0.0
C910 C 0.97804 0.53962 0.56448 0.0
C911 C 0.97286 0.52596 0.59249 0.0
C912 C 0.96147 0.52761 0.62786 0.0
C913 C 0.99119 0.53797 0.52931 0.0
C914 C 0.98913 0.52469 0.49793 0.0
C915 C 1.00583 0.54919 0.52707 0.0
C916 C 0.00944 0.56274 0.56104 0.0
C917 C 0.01005 0.55908 0.60802 0.0
C918 C 0.01336 0.57193 0.63987 0.0
C919 C 0.01623 0.58848 0.62512 0.0
C920 C 0.01583 0.59222 0.57847 0.0
C921 C 0.0125 0.57941 0.54648 0.0
H922 H 0.01879 0.59841 0.64983 0.0
H923 H 0.98984 0.47192 0.34463 0.0
H924 H 0.04969 0.56604 0.17043 0.0
H925 H 0.02799 0.56546 0.11241 0.0
H926 H 0.05017 0.52567 0.0423 0.0
H927 H 0.0714 0.5255 0.10252 0.0
H928 H 0.02606 0.57173 0.03078 0.0
H929 H 0.02162 0.50133 0.98245 0.0
H930 H 0.02578 0.47424 0.01837 0.0
H931 H 0.01641 0.49455 0.15074 0.0
H932 H 0.01199 0.52169 0.11555 0.0
H933 H 0.97836 0.56228 0.83155 0.0
H934 H 0.99981 0.56141 0.88998 0.0
H935 H 0.9662 0.52868 0.97193 0.0
H936 H 0.94496 0.52866 0.91154 0.0
H937 H 0.99484 0.5188 0.98046 0.0
H938 H 0.97551 0.57261 0.99466 0.0
H939 H 0.9677 0.60016 0.96978 0.0
H940 H 0.0181 0.61383 0.92601 0.0
H941 H 0.02617 0.58627 0.95008 0.0
C942 C 0.05004 0.55721 0.14252 0.0
C943 C 0.06225 0.54579 0.14107 0.0
C944 C 0.03758 0.55689 0.10923 0.0
C945 C 0.03718 0.54536 0.07306 0.0
C946 C 0.04985 0.53439 0.07044 0.0
C947 C 0.0621 0.53441 0.10458 0.0
C948 C 0.02344 0.54494 0.03856 0.0
C949 C 0.01926 0.56012 0.01991 0.0
C950 C 0.01415 0.52989 0.02495 0.0
C951 C 0.01666 0.51358 0.04638 0.0
C952 C 0.0204 0.49999 0.0192 0.0
C953 C 0.02281 0.48463 0.03943 0.0
C954 C 0.02142 0.48269 0.08682 0.0
C955 C 0.01755 0.49609 0.11406 0.0
C956 C 0.01511 0.51147 0.09399 0.0
C957 C 0.97549 0.55495 0.86212 0.0
C958 C 0.9599 0.5457 0.86728 0.0
C959 C 0.98777 0.55452 0.8957 0.0
C960 C 0.98457 0.54534 0.93615 0.0
C961 C 0.96901 0.53593 0.9412 0.0
C962 C 0.95684 0.53598 0.90684 0.0
C963 C 0.99752 0.54558 0.97277 0.0
C964 C 1.00161 0.53039 0.99157 0.0
C965 C 1.00618 0.56069 0.9883 0.0
C966 C 1.00141 0.57731 0.97382 0.0
C967 C 0.9849 0.58145 0.97945 0.0
C968 C 0.98043 0.59708 0.96553 0.0
C969 C 0.99239 0.60872 0.94623 0.0
C970 C 0.00885 0.60479 0.94092 0.0
C971 C 0.01339 0.58917 0.95474 0.0
H972 H 0.9889 0.62081 0.93547 0.0
H973 H 0.0233 0.47079 0.10241 0.0
H974 H 0.44225 0.55321 0.60278 0.0
H975 H 0.46233 0.55254 0.53972 0.0
H976 H 0.48565 0.51316 0.60836 0.0
H977 H 0.46515 0.51313 0.66947 0.0
H978 H 0.49356 0.55922 0.53284 0.0
H979 H 0.50377 0.48828 0.53888 0.0
H980 H 0.48739 0.46134 0.55385 0.0
H981 H 0.44223 0.4829 0.5179 0.0
H982 H 0.45835 0.5099 0.50213 0.0
H983 H 0.56836 0.54794 0.41229 0.0
H984 H 0.54626 0.5485 0.46998 0.0
H985 H 0.51356 0.51563 0.38586 0.0
H986 H 0.53586 0.51418 0.33022 0.0
H987 H 0.50855 0.50615 0.46451 0.0
H988 H 0.51104 0.56039 0.39752 0.0
H989 H 0.52404 0.58783 0.37207 0.0
H990 H 0.53763 0.6005 0.51063 0.0
H991 H 0.52489 0.57304 0.53684 0.0
C992 C 0.4515 0.54423 0.60385 0.0
C993 C 0.45196 0.53306 0.64071 0.0
C994 C 0.46305 0.54392 0.56799 0.0
C995 C 0.47542 0.53261 0.56871 0.0
C996 C 0.47597 0.52165 0.606 0.0
C997 C 0.46424 0.52169 0.64114 0.0
C998 C 0.48804 0.53246 0.53137 0.0
C999 C 0.49676 0.54761 0.51771 0.0
C1000 C 0.49206 0.5174 0.51067 0.0
C1001 C 0.48227 0.50115 0.51973 0.0
C1002 C 0.49036 0.48725 0.53398 0.0
C1003 C 0.48111 0.47198 0.54265 0.0
C1004 C 0.46377 0.47043 0.53696 0.0
C1005 C 0.45565 0.48414 0.52245 0.0
C1006 C 0.46483 0.49943 0.5137 0.0
C1007 C 0.55648 0.54076 0.40648 0.0
C1008 C 0.55387 0.53094 0.36694 0.0
C1009 C 0.54377 0.5412 0.43921 0.0
C1010 C 0.52804 0.53232 0.43215 0.0
C1011 C 0.52553 0.52253 0.39253 0.0
C1012 C 0.53833 0.52171 0.36061 0.0
C1013 C 0.51419 0.5329 0.466 0.0
C1014 C 0.50529 0.51779 0.47927 0.0
C1015 C 0.5095 0.54807 0.48465 0.0
C1016 C 0.51716 0.5646 0.46907 0.0
C1017 C 0.5169 0.56898 0.42251 0.0
C1018 C 0.52421 0.58454 0.40796 0.0
C1019 C 0.53169 0.59588 0.43969 0.0
C1020 C 0.53185 0.5917 0.48608 0.0
C1021 C 0.52457 0.57614 0.50081 0.0
H1022 H 0.53734 0.60792 0.42836 0.0
H1023 H 0.45664 0.4586 0.54372 0.0
H1024 H 0.12735 0.47071 0.28886 0.0
H1025 H 0.14319 0.45101 0.24742 0.0
H1026 H 0.12773 0.47115 0.11916 0.0
H1027 H 0.1117 0.49088 0.16045 0.0
H1028 H 0.1274 0.4369 0.1161 0.0
H1029 H 0.16568 0.48338 0.16146 0.0
H1030 H 0.17959 0.50365 0.21565 0.0
H1031 H 0.19805 0.46356 0.29201 0.0
H1032 H 0.18404 0.44302 0.23859 0.0
H1033 H 0.19115 0.4089 0.97347 0.0
H1034 H 0.17138 0.42441 0.01556 0.0
H1035 H 0.19015 0.4066 0.14301 0.0
H1036 H 0.21024 0.39129 0.10107 0.0
H1037 H 0.18823 0.43905 0.14744 0.0
H1038 H 0.15078 0.39247 0.10028 0.0
H1039 H 0.13688 0.37226 0.04591 0.0
H1040 H 0.11691 0.41228 0.9728 0.0
H1041 H 0.13088 0.43276 0.02638 0.0
C1042 C 0.12714 0.47086 0.25182 0.0
C1043 C 0.11832 0.48247 0.22801 0.0
C1044 C 0.13628 0.45961 0.22816 0.0
C1045 C 0.13687 0.45975 0.18015 0.0
C1046 C 0.12751 0.47084 0.1562 0.0
C1047 C 0.11837 0.48213 0.17988 0.0
C1048 C 0.14783 0.44883 0.15516 0.0
C1049 C 0.14073 0.43748 0.12256 0.0
C1050 C 0.16518 0.44933 0.16423 0.0
C1051 C 0.17367 0.46165 0.1963 0.0
C1052 C 0.1726 0.47887 0.19002 0.0
C1053 C 0.18052 0.49041 0.22055 0.0
C1054 C 0.18966 0.48489 0.25732 0.0
C1055 C 0.19094 0.46782 0.26355 0.0
C1056 C 0.18302 0.45622 0.23314 0.0
C1057 C 0.19094 0.40808 0.01044 0.0
C1058 C 0.20231 0.39882 0.03385 0.0
C1059 C 0.17955 0.41693 0.03452 0.0
C1060 C 0.17913 0.41661 0.08257 0.0
C1061 C 0.19021 0.40707 0.10598 0.0
C1062 C 0.20166 0.39825 0.08192 0.0
C1063 C 0.16782 0.42698 0.10839 0.0
C1064 C 0.17488 0.43833 0.14109 0.0
C1065 C 0.15045 0.42645 0.09936 0.0
C1066 C 0.142 0.41416 0.06712 0.0
C1067 C 0.14353 0.39697 0.0724 0.0
C1068 C 0.13562 0.38547 0.04176 0.0
C1069 C 0.12605 0.39098 0.00586 0.0
C1070 C 0.12434 0.40802 1.00059 0.0
C1071 C 0.13224 0.41959 0.03112 0.0
H1072 H 0.11994 0.38205 0.98217 0.0
H1073 H 0.19579 0.49385 0.28092 0.0
H1074 H 0.76802 0.93208 0.45245 0.0
H1075 H 0.78861 0.95365 0.42273 0.0
H1076 H 0.82726 0.92013 0.43769 0.0
H1077 H 0.80685 0.89888 0.46996 0.0
H1078 H 0.84021 0.94919 0.45649 0.0
H1079 H 0.80683 0.92735 0.33161 0.0
H1080 H 0.781 0.91915 0.28851 0.0
H1081 H 0.76886 0.97007 0.28828 0.0
H1082 H 0.79453 0.97855 0.33192 0.0
H1083 H 0.89494 0.98924 0.28761 0.0
H1084 H 0.8739 0.96885 0.32125 0.0
H1085 H 0.84346 0.0085 0.3555 0.0
H1086 H 0.86465 0.02907 0.32297 0.0
H1087 H 0.82678 0.97671 0.3108 0.0
H1088 H 0.86255 0.99721 0.43691 0.0
H1089 H 0.89006 1.0035 0.47349 0.0
H1090 H 0.89946 0.95191 0.46293 0.0
H1091 H 0.87209 0.94537 0.4256 0.0
C1092 C 0.78096 0.92941 0.44993 0.0
C1093 C 0.78582 0.91377 0.46328 0.0
C1094 C 0.79271 0.94169 0.43255 0.0
C1095 C 0.80946 0.9384 0.42661 0.0
C1096 C 0.81443 0.923 0.44164 0.0
C1097 C 0.80275 0.91084 0.46011 0.0
C1098 C 0.82165 0.95082 0.40371 0.0
C1099 C 0.83727 0.95503 0.42441 0.0
C1100 C 0.81794 0.95859 0.36178 0.0
C1101 C 0.80251 0.95356 0.33544 0.0
C1102 C 0.79859 0.93678 0.32264 0.0
C1103 C 0.78399 0.93208 0.29808 0.0
C1104 C 0.77327 0.94407 0.28577 0.0
C1105 C 0.77716 0.9608 0.2979 0.0
C1106 C 0.79174 0.96556 0.32252 0.0
C1107 C 0.88368 0.99361 0.30179 0.0
C1108 C 0.88146 0.01077 0.3027 0.0
C1109 C 0.87173 0.98196 0.32113 0.0
C1110 C 0.85722 0.98723 0.34099 0.0
C1111 C 0.85462 1.00424 0.34034 0.0
C1112 C 0.86672 0.01595 0.32182 0.0
C1113 C 0.84506 0.97501 0.36385 0.0
C1114 C 0.82955 0.97084 0.34298 0.0
C1115 C 0.84903 0.96696 0.40488 0.0
C1116 C 0.86535 0.97084 0.42804 0.0
C1117 C 0.87054 0.98724 0.44203 0.0
C1118 C 0.88609 0.99084 0.46297 0.0
C1119 C 0.89652 0.97812 0.47041 0.0
C1120 C 0.89138 0.96175 0.45709 0.0
C1121 C 0.87584 0.95809 0.43608 0.0
H1122 H 0.90857 0.98094 0.48658 0.0
H1123 H 0.76197 0.94041 0.26676 0.0
H1124 H 0.32469 0.67125 0.46769 0.0
H1125 H 0.34457 0.65548 0.50881 0.0
H1126 H 0.32409 0.67017 0.63737 0.0
H1127 H 0.30422 0.68612 0.59646 0.0
H1128 H 0.35814 0.67096 0.64111 0.0
H1129 H 0.31242 0.63218 0.59294 0.0
H1130 H 0.29267 0.61825 0.53742 0.0
H1131 H 0.33355 0.60079 0.46232 0.0
H1132 H 0.35357 0.61482 0.51707 0.0
H1133 H 0.38565 0.6077 0.78515 0.0
H1134 H 0.37016 0.62711 0.7417 0.0
H1135 H 0.38937 0.60846 0.6158 0.0
H1136 H 0.40464 0.58867 0.65917 0.0
H1137 H 0.35696 0.61028 0.60864 0.0
H1138 H 0.40277 0.64803 0.65932 0.0
H1139 H 0.42237 0.66196 0.71518 0.0
H1140 H 0.38149 0.68133 0.78589 0.0
H1141 H 0.36161 0.66733 0.73079 0.0
C1142 C 0.32451 0.6713 0.50473 0.0
C1143 C 0.31277 0.67989 0.52874 0.0
C1144 C 0.33586 0.6622 0.52821 0.0
C1145 C 0.33567 0.66141 0.57621 0.0
C1146 C 0.32444 0.67055 0.60034 0.0
C1147 C 0.31307 0.67965 0.57687 0.0
C1148 C 0.34671 0.65053 0.6011 0.0
C1149 C 0.35778 0.65766 0.63436 0.0
C1150 C 0.34652 0.63323 0.59165 0.0
C1151 C 0.3345 0.6247 0.55882 0.0
C1152 C 0.3172 0.62548 0.56438 0.0
C1153 C 0.30596 0.61755 0.53309 0.0
C1154 C 0.31185 0.60868 0.49629 0.0
C1155 C 0.32901 0.60769 0.49079 0.0
C1156 C 0.34031 0.61562 0.52196 0.0
C1157 C 0.38677 0.60784 0.74824 0.0
C1158 C 0.39643 0.59662 0.72569 0.0
C1159 C 0.37793 0.61903 0.72337 0.0
C1160 C 0.37868 0.61943 0.67536 0.0
C1161 C 0.38857 0.60843 0.65278 0.0
C1162 C 0.39736 0.59716 0.67766 0.0
C1163 C 0.36848 0.63068 0.64875 0.0
C1164 C 0.35748 0.6236 0.61522 0.0
C1165 C 0.36875 0.64802 0.65801 0.0
C1166 C 0.38068 0.6565 0.69113 0.0
C1167 C 0.39794 0.65515 0.68697 0.0
C1168 C 0.40911 0.66308 0.71847 0.0
C1169 C 0.40318 0.67249 0.75412 0.0
C1170 C 0.38607 0.67403 0.75828 0.0
C1171 C 0.37484 0.66611 0.72689 0.0
H1172 H 0.41184 0.67862 0.77848 0.0
H1173 H 0.30313 0.60255 0.47209 0.0
H1174 H 0.7078 0.17925 0.96325 0.0
H1175 H 0.68691 0.15823 0.93243 0.0
H1176 H 0.72486 0.12399 0.91622 0.0
H1177 H 0.74594 0.14537 0.94456 0.0
H1178 H 0.70768 0.12246 0.84447 0.0
H1179 H 0.69243 0.12016 1.00243 0.0
H1180 H 0.6847 0.13095 0.0777 0.0
H1181 H 0.6409 0.14923 0.0191 0.0
H1182 H 0.64848 0.13873 0.94333 0.0
H1183 H 0.6494 0.0491 0.82055 0.0
H1184 H 0.67039 0.07035 0.85061 0.0
H1185 H 0.63827 0.10883 0.81842 0.0
H1186 H 0.61736 0.08771 0.78721 0.0
H1187 H 0.65196 0.10787 0.91407 0.0
H1188 H 0.66854 0.10881 0.75498 0.0
H1189 H 0.6767 0.09596 0.68276 0.0
H1190 H 0.71891 0.07748 0.74946 0.0
H1191 H 0.71084 0.09002 0.82229 0.0
C1192 C 0.71163 0.16715 0.95369 0.0
C1193 C 0.72849 0.16394 0.9564 0.0
C1194 C 0.69965 0.15508 0.9362 0.0
C1195 C 0.70419 0.13935 0.92241 0.0
C1196 C 0.72099 0.13601 0.92638 0.0
C1197 C 0.73303 0.14821 0.94282 0.0
C1198 C 0.69165 0.1267 0.90176 0.0
C1199 C 0.69561 0.11913 0.86026 0.0
C1200 C 0.67571 0.12246 0.92159 0.0
C1201 C 0.67112 0.1288 0.96711 0.0
C1202 C 0.68122 0.12659 0.00553 0.0
C1203 C 0.67685 0.13264 0.0483 0.0
C1204 C 0.66234 0.14081 0.05316 0.0
C1205 C 0.65215 0.14292 0.01527 0.0
C1206 C 0.65646 0.13691 0.97242 0.0
C1207 C 0.64689 0.0621 0.81938 0.0
C1208 C 0.63174 0.06674 0.80143 0.0
C1209 C 0.65888 0.07421 0.83656 0.0
C1210 C 0.65582 0.09111 0.8368 0.0
C1211 C 0.64081 0.09582 0.81854 0.0
C1212 C 0.62895 0.08376 0.80048 0.0
C1213 C 0.66813 0.10379 0.85736 0.0
C1214 C 0.66408 0.11129 0.89868 0.0
C1215 C 0.6841 0.1077 0.83796 0.0
C1216 C 0.68898 0.10019 0.79419 0.0
C1217 C 0.67946 0.10186 0.75436 0.0
C1218 C 0.6841 0.09467 0.71329 0.0
C1219 C 0.69829 0.08587 0.71155 0.0
C1220 C 0.7079 0.08428 0.75087 0.0
C1221 C 0.70331 0.09144 0.79204 0.0
H1222 H 0.70186 0.08032 0.67972 0.0
H1223 H 0.65898 0.14548 0.0863 0.0
H1224 H 0.13702 0.55067 0.37529 0.0
H1225 H 0.15894 0.57106 0.40454 0.0
H1226 H 0.16001 0.59728 0.27586 0.0
H1227 H 0.13767 0.57719 0.24656 0.0
H1228 H 0.19407 0.58682 0.3316 0.0
H1229 H 0.14361 0.61763 0.332 0.0
H1230 H 0.11404 0.61976 0.35166 0.0
H1231 H 0.12476 0.61123 0.49319 0.0
H1232 H 0.15437 0.60879 0.47417 0.0
H1233 H 0.24323 0.66183 0.38113 0.0
H1234 H 0.22322 0.63968 0.35252 0.0
H1235 H 0.20087 0.63433 0.48664 0.0
H1236 H 0.22036 0.6573 0.51474 0.0
H1237 H 0.17743 0.63285 0.42978 0.0
H1238 H 0.22701 0.6049 0.43658 0.0
H1239 H 0.25657 0.6004 0.42347 0.0
H1240 H 0.2484 0.60019 0.27832 0.0
H1241 H 0.21883 0.60492 0.29053 0.0
C1242 C 0.142 0.56068 0.35299 0.0
C1243 C 0.13559 0.56233 0.30859 0.0
C1244 C 0.15449 0.57232 0.36983 0.0
C1245 C 0.16101 0.58563 0.34234 0.0
C1246 C 0.15508 0.58705 0.29751 0.0
C1247 C 0.14232 0.5756 0.28091 0.0
C1248 C 0.17356 0.5984 0.36127 0.0
C1249 C 0.19052 0.59706 0.35255 0.0
C1250 C 0.16885 0.61122 0.39016 0.0
C1251 C 0.15112 0.61282 0.40159 0.0
C1252 C 0.13962 0.61603 0.36722 0.0
C1253 C 0.12286 0.61734 0.37826 0.0
C1254 C 0.11751 0.61557 0.42362 0.0
C1255 C 0.12891 0.61256 0.45806 0.0
C1256 C 0.14568 0.61122 0.44717 0.0
C1257 C 0.23416 0.65583 0.40468 0.0
C1258 C 0.23343 0.66125 0.45028 0.0
C1259 C 0.22275 0.64306 0.38832 0.0
C1260 C 0.21067 0.63501 0.41752 0.0
C1261 C 0.21006 0.64029 0.46333 0.0
C1262 C 0.22124 0.65337 0.47945 0.0
C1263 C 0.19825 0.62163 0.39967 0.0
C1264 C 0.1812 0.62272 0.40881 0.0
C1265 C 0.20296 0.60833 0.372 0.0
C1266 C 0.22073 0.60541 0.36448 0.0
C1267 C 0.23154 0.60401 0.40185 0.0
C1268 C 0.2483 0.6014 0.39458 0.0
C1269 C 0.25437 0.60005 0.35009 0.0
C1270 C 0.24368 0.60126 0.31277 0.0
C1271 C 0.22692 0.60388 0.31984 0.0
H1272 H 0.26734 0.59803 0.34453 0.0
H1273 H 0.10453 0.61659 0.43211 0.0
H1274 H 0.61194 0.99121 0.66033 0.0
H1275 H 0.62766 0.97115 0.61968 0.0
H1276 H 0.64343 0.95168 0.74854 0.0
H1277 H 0.62802 0.9719 0.78933 0.0
H1278 H 0.6693 0.95732 0.69368 0.0
H1279 H 0.61421 0.92941 0.67822 0.0
H1280 H 0.5843 0.92683 0.65792 0.0
H1281 H 0.59675 0.93811 0.51781 0.0
H1282 H 0.62674 0.94098 0.53738 0.0
H1283 H 0.70867 0.8898 0.60056 0.0
H1284 H 0.68875 0.90528 0.64259 0.0
H1285 H 0.67296 0.92661 0.5162 0.0
H1286 H 0.69263 0.91098 0.4739 0.0
H1287 H 0.64658 0.91908 0.57104 0.0
H1288 H 0.70117 0.94839 0.58656 0.0
H1289 H 0.73116 0.9515 0.60594 0.0
H1290 H 0.71957 0.93813 0.7453 0.0
H1291 H 0.68951 0.93472 0.72659 0.0
C1292 C 0.61857 0.98252 0.68004 0.0
C1293 C 0.61871 0.98319 0.72813 0.0
C1294 C 0.62754 0.97099 0.65672 0.0
C1295 C 0.63669 0.95977 0.68097 0.0
C1296 C 0.63651 0.9602 0.72899 0.0
C1297 C 0.62762 0.97174 0.7523 0.0
C1298 C 0.64717 0.94823 0.65646 0.0
C1299 C 0.66423 0.94875 0.66744 0.0
C1300 C 0.64074 0.93734 0.62126 0.0
C1301 C 0.62272 0.93556 0.60936 0.0
C1302 C 0.61057 0.93147 0.64314 0.0
C1303 C 0.5936 0.92993 0.63176 0.0
C1304 C 0.58863 0.93235 0.58663 0.0
C1305 C 0.60062 0.93626 0.55276 0.0
C1306 C 0.61761 0.93783 0.56397 0.0
C1307 C 0.70081 0.89761 0.58161 0.0
C1308 C 0.70234 0.89921 0.53385 0.0
C1309 C 0.68947 0.90653 0.60574 0.0
C1310 C 0.67952 0.91735 0.58269 0.0
C1311 C 0.68051 0.91839 0.53482 0.0
C1312 C 0.69181 0.90945 0.51066 0.0
C1313 C 0.66864 0.92815 0.60849 0.0
C1314 C 0.65157 0.92755 0.59759 0.0
C1315 C 0.67505 0.93903 0.6437 0.0
C1316 C 0.69311 0.94112 0.65506 0.0
C1317 C 0.70503 0.94599 0.62126 0.0
C1318 C 0.72204 0.94783 0.63213 0.0
C1319 C 0.72727 0.94497 0.67679 0.0
C1320 C 0.7155 0.94031 0.71071 0.0
C1321 C 0.69848 0.93843 0.69999 0.0
H1322 H 0.74045 0.9464 0.68515 0.0
H1323 H 0.57549 0.93115 0.57788 0.0
H1324 H 0.37091 0.53342 0.86047 0.0
H1325 H 0.34941 0.5133 0.89237 0.0
H1326 H 0.36258 0.47628 0.7953 0.0
H1327 H 0.38438 0.49625 0.76373 0.0
H1328 H 0.32209 0.49647 0.86139 0.0
H1329 H 0.35903 0.43808 0.84559 0.0
H1330 H 0.38831 0.43113 0.84458 0.0
H1331 H 0.40324 0.47549 0.92158 0.0
H1332 H 0.37404 0.48258 0.92359 0.0
H1333 H 0.2683 0.4227 0.89603 0.0
H1334 H 0.2884 0.44493 0.86799 0.0
H1335 H 0.31923 0.43945 0.98691 0.0
H1336 H 0.29939 0.41675 0.0145 0.0
H1337 H 0.33804 0.44158 0.91525 0.0
H1338 H 0.29529 0.47356 0.97193 0.0
H1339 H 0.26664 0.48174 0.98107 0.0
H1340 H 0.26439 0.49249 0.83746 0.0
H1341 H 0.29295 0.48416 0.82734 0.0
C1342 C 0.36918 0.52104 0.84561 0.0
C1343 C 0.37949 0.51643 0.80972 0.0
C1344 C 0.35684 0.50955 0.86388 0.0
C1345 C 0.35453 0.49319 0.84674 0.0
C1346 C 0.36433 0.48874 0.80968 0.0
C1347 C 0.37674 0.50021 0.7915 0.0
C1348 C 0.3422 0.4807 0.86852 0.0
C1349 C 0.32556 0.48445 0.8731 0.0
C1350 C 0.34679 0.46518 0.88489 0.0
C1351 C 0.36437 0.46093 0.88429 0.0
C1352 C 0.36856 0.44631 0.86243 0.0
C1353 C 0.38514 0.44236 0.86167 0.0
C1354 C 0.39763 0.45289 0.88287 0.0
C1355 C 0.39356 0.46738 0.90502 0.0
C1356 C 0.377 0.47138 0.90594 0.0
C1357 C 0.27927 0.42632 0.91654 0.0
C1358 C 0.28222 0.41794 0.9576 0.0
C1359 C 0.29074 0.43911 0.90049 0.0
C1360 C 0.30528 0.44404 0.92552 0.0
C1361 C 0.30812 0.43587 0.96692 0.0
C1362 C 0.29673 0.42293 0.98277 0.0
C1363 C 0.31782 0.45721 0.90753 0.0
C1364 C 0.33452 0.45358 0.90358 0.0
C1365 C 0.31336 0.47301 0.89285 0.0
C1366 C 0.29621 0.47811 0.89883 0.0
C1367 C 0.28864 0.47756 0.94225 0.0
C1368 C 0.27243 0.48224 0.94761 0.0
C1369 C 0.26369 0.4876 0.90985 0.0
C1370 C 0.27117 0.48833 0.86667 0.0
C1371 C 0.28737 0.48365 0.86111 0.0
H1372 H 0.25114 0.49121 0.91407 0.0
H1373 H 0.41046 0.44981 0.88221 0.0
H1374 H 0.8052 0.18608 0.09501 0.0
H1375 H 0.82516 0.17068 0.13729 0.0
H1376 H 0.84198 0.15035 0.0107 0.0
H1377 H 0.82227 0.16585 0.96827 0.0
H1378 H 0.82605 0.1377 0.14387 0.0
H1379 H 0.88256 0.14168 0.02019 0.0
H1380 H 0.8965 0.16136 0.96445 0.0
H1381 H 0.87791 0.20258 0.03551 0.0
H1382 H 0.86405 0.18317 0.09201 0.0
H1383 H 0.90224 0.08492 0.15584 0.0
H1384 H 0.88627 0.10471 0.11458 0.0
H1385 H 0.87081 0.12479 0.24291 0.0
H1386 H 0.88648 0.10494 0.28427 0.0
H1387 H 0.88659 0.13835 0.11 0.0
H1388 H 0.83056 0.1341 0.23493 0.0
H1389 H 0.81641 0.11408 0.28952 0.0
H1390 H 0.8337 0.07317 0.21418 0.0
H1391 H 0.84775 0.09292 0.15883 0.0
C1392 C 0.81333 0.17853 0.07609 0.0
C1393 C 0.81213 0.17724 0.0282 0.0
C1394 C 0.82469 0.16967 0.10035 0.0
C1395 C 0.83519 0.1594 0.07727 0.0
C1396 C 0.83425 0.15837 0.02935 0.0
C1397 C 0.8229 0.16722 0.00509 0.0
C1398 C 0.84641 0.14904 0.10337 0.0
C1399 C 0.83934 0.13809 0.13699 0.0
C1400 C 0.8637 0.14913 0.09357 0.0
C1401 C 0.87213 0.16094 0.06006 0.0
C1402 C 0.8815 0.15494 0.02401 0.0
C1403 C 0.88938 0.16605 0.99227 0.0
C1404 C 0.88805 0.1832 0.99635 0.0
C1405 C 0.87888 0.18928 0.03228 0.0
C1406 C 0.87098 0.17823 0.06413 0.0
C1407 C 0.89557 0.09366 0.17528 0.0
C1408 C 0.89554 0.09323 0.22341 0.0
C1409 C 0.88646 0.10499 0.15163 0.0
C1410 C 0.87709 0.11608 0.17558 0.0
C1411 C 0.87766 0.11616 0.2236 0.0
C1412 C 0.88671 0.10483 0.24724 0.0
C1413 C 0.86621 0.12709 0.15054 0.0
C1414 C 0.87332 0.13809 0.11705 0.0
C1415 C 0.84893 0.12702 0.16028 0.0
C1416 C 0.84036 0.11501 0.19307 0.0
C1417 C 0.8313 0.12083 0.22995 0.0
C1418 C 0.8233 0.10953 0.26103 0.0
C1419 C 0.82421 0.09237 0.25541 0.0
C1420 C 0.83306 0.08647 0.2186 0.0
C1421 C 0.84106 0.09771 0.1874 0.0
H1422 H 0.81802 0.08365 0.27953 0.0
H1423 H 0.89415 0.19178 0.97173 0.0
H1424 H 0.79295 0.65737 0.9683 0.0
H1425 H 0.81047 0.63766 0.93232 0.0
H1426 H 0.85135 0.67629 0.925 0.0
H1427 H 0.83395 0.69601 0.96061 0.0
H1428 H 0.84662 0.66042 0.84411 0.0
H1429 H 0.85155 0.64439 1.00188 0.0
H1430 H 0.84107 0.63509 0.07783 0.0
H1431 H 0.81695 0.59031 0.01848 0.0
H1432 H 0.82711 0.59946 0.94204 0.0
H1433 H 0.91431 0.61397 0.78832 0.0
H1434 H 0.89474 0.63162 0.82338 0.0
H1435 H 0.85775 0.58932 0.8327 0.0
H1436 H 0.8775 0.57143 0.79851 0.0
H1437 H 0.85882 0.60605 0.91037 0.0
H1438 H 0.85462 0.62128 0.7532 0.0
H1439 H 0.86479 0.63044 0.67686 0.0
H1440 H 0.8869 0.67651 0.73387 0.0
H1441 H 0.87704 0.66754 0.81069 0.0
C1442 C 0.80573 0.66161 0.95955 0.0
C1443 C 0.81203 0.67829 0.9674 0.0
C1444 C 0.81575 0.65032 0.939 0.0
C1445 C 0.83227 0.65546 0.92595 0.0
C1446 C 0.83864 0.67202 0.93457 0.0
C1447 C 0.82868 0.68328 0.95519 0.0
C1448 C 0.84278 0.64387 0.90181 0.0
C1449 C 0.84945 0.64862 0.85885 0.0
C1450 C 0.84604 0.62821 0.92027 0.0
C1451 C 0.83993 0.6227 0.96618 0.0
C1452 C 0.84389 0.63263 0.00497 0.0
C1453 C 0.83803 0.62737 0.04811 0.0
C1454 C 0.82831 0.61214 0.05295 0.0
C1455 C 0.82446 0.60212 0.01466 0.0
C1456 C 0.83027 0.60733 0.97143 0.0
C1457 C 0.90195 0.60842 0.79733 0.0
C1458 C 0.89747 0.59127 0.79037 0.0
C1459 C 0.89072 0.61857 0.81732 0.0
C1460 C 0.87463 0.6119 0.83031 0.0
C1461 C 0.87006 0.5948 0.82298 0.0
C1462 C 0.88134 0.58459 0.80318 0.0
C1463 C 0.86287 0.62269 0.85282 0.0
C1464 C 0.85594 0.6178 0.89544 0.0
C1465 C 0.85928 0.63821 0.83396 0.0
C1466 C 0.86521 0.64367 0.78778 0.0
C1467 C 0.86175 0.63331 0.74952 0.0
C1468 C 0.86745 0.63848 0.70615 0.0
C1469 C 0.87652 0.65403 0.70054 0.0
C1470 C 0.87988 0.66446 0.73828 0.0
C1471 C 0.87423 0.65935 0.78173 0.0
H1472 H 0.88091 0.658 0.66693 0.0
H1473 H 0.82379 0.60809 0.08639 0.0
H1474 H 0.23946 0.15123 0.53958 0.0
H1475 H 0.22187 0.12902 0.57882 0.0
H1476 H 0.18097 0.16018 0.57997 0.0
H1477 H 0.19826 0.18223 0.54067 0.0
H1478 H 0.1883 0.14736 0.66616 0.0
H1479 H 0.17949 0.12797 0.51014 0.0
H1480 H 0.18867 0.11858 0.43472 0.0
H1481 H 0.21118 0.07799 0.49819 0.0
H1482 H 0.20232 0.08729 0.57411 0.0
H1483 H 0.11581 0.09767 0.72728 0.0
H1484 H 0.13808 0.11583 0.69214 0.0
H1485 H 0.16886 0.07467 0.68442 0.0
H1486 H 0.14621 0.05614 0.71842 0.0
H1487 H 0.17044 0.09074 0.60664 0.0
H1488 H 0.17744 0.10783 0.76132 0.0
H1489 H 0.16913 0.11686 0.83792 0.0
H1490 H 0.15184 0.16129 0.78024 0.0
H1491 H 0.15982 0.15242 0.70318 0.0
C1492 C 0.22663 0.15322 0.54751 0.0
C1493 C 0.22029 0.16853 0.53706 0.0
C1494 C 0.21661 0.14054 0.56998 0.0
C1495 C 0.20014 0.14301 0.58253 0.0
C1496 C 0.19367 0.15805 0.57084 0.0
C1497 C 0.20357 0.17063 0.54812 0.0
C1498 C 0.18977 0.13037 0.60976 0.0
C1499 C 0.18428 0.13501 0.65308 0.0
C1500 C 0.18513 0.11404 0.59344 0.0
C1501 C 0.19043 0.10845 0.54783 0.0
C1502 C 0.18654 0.11714 0.50806 0.0
C1503 C 0.19165 0.11181 0.46521 0.0
C1504 C 0.20055 0.09773 0.46167 0.0
C1505 C 0.20432 0.08892 0.50098 0.0
C1506 C 0.19924 0.0942 0.54392 0.0
C1507 C 0.12739 0.09248 0.71878 0.0
C1508 C 0.12924 0.07544 0.72588 0.0
C1509 C 0.14019 0.10293 0.69877 0.0
C1510 C 0.15531 0.09673 0.68613 0.0
C1511 C 0.15734 0.07978 0.69396 0.0
C1512 C 0.14442 0.06922 0.71365 0.0
C1513 C 0.16852 0.10788 0.66274 0.0
C1514 C 0.17461 0.10298 0.6202 0.0
C1515 C 0.17391 0.12394 0.68004 0.0
C1516 C 0.16915 0.12939 0.72639 0.0
C1517 C 0.17177 0.11947 0.76491 0.0
C1518 C 0.16713 0.12457 0.80843 0.0
C1519 C 0.15994 0.13963 0.81393 0.0
C1520 C 0.15741 0.14963 0.77592 0.0
C1521 C 0.16201 0.14458 0.73232 0.0
H1522 H 0.15635 0.14355 0.84765 0.0
H1523 H 0.2045 0.09362 0.42847 0.0
H1524 H 0.72213 0.42001 0.46351 0.0
H1525 H 0.70433 0.43961 0.42818 0.0
H1526 H 0.66345 0.40094 0.42361 0.0
H1527 H 0.68112 0.38132 0.45859 0.0
H1528 H 0.66759 0.4166 0.34218 0.0
H1529 H 0.66371 0.43306 0.49986 0.0
H1530 H 0.67468 0.44256 0.57514 0.0
H1531 H 0.69843 0.48717 0.51392 0.0
H1532 H 0.68778 0.47783 0.43812 0.0
H1533 H 0.59985 0.46319 0.28751 0.0
H1534 H 0.61948 0.44553 0.32226 0.0
H1535 H 0.6566 0.48776 0.33044 0.0
H1536 H 0.63677 0.50567 0.29666 0.0
H1537 H 0.6559 0.47119 0.40799 0.0
H1538 H 0.65922 0.4555 0.25091 0.0
H1539 H 0.64861 0.44615 0.17515 0.0
H1540 H 0.62665 0.40032 0.23391 0.0
H1541 H 0.63694 0.40948 0.31017 0.0
C1542 C 0.70929 0.41574 0.45552 0.0
C1543 C 0.70307 0.39907 0.46395 0.0
C1544 C 0.69911 0.42697 0.43534 0.0
C1545 C 0.68251 0.42178 0.42323 0.0
C1546 C 0.67621 0.40524 0.43246 0.0
C1547 C 0.68634 0.39405 0.45272 0.0
C1548 C 0.67182 0.4333 0.39941 0.0
C1549 C 0.66488 0.42845 0.35684 0.0
C1550 C 0.66869 0.44903 0.41772 0.0
C1551 C 0.6751 0.45466 0.46325 0.0
C1552 C 0.6714 0.44483 0.50238 0.0
C1553 C 0.67753 0.4502 0.54516 0.0
C1554 C 0.68729 0.46543 0.54929 0.0
C1555 C 0.6909 0.47535 0.51066 0.0
C1556 C 0.6848 0.47004 0.46779 0.0
C1557 C 0.61225 0.46872 0.2962 0.0
C1558 C 0.61674 0.48586 0.28906 0.0
C1559 C 0.62352 0.45856 0.31602 0.0
C1560 C 0.63966 0.46521 0.32859 0.0
C1561 C 0.64424 0.4823 0.32105 0.0
C1562 C 0.63292 0.49251 0.30148 0.0
C1563 C 0.65148 0.45441 0.35089 0.0
C1564 C 0.65867 0.45939 0.39314 0.0
C1565 C 0.65492 0.43882 0.33217 0.0
C1566 C 0.64874 0.43325 0.28633 0.0
C1567 C 0.65202 0.44348 0.24774 0.0
C1568 C 0.64608 0.4382 0.2047 0.0
C1569 C 0.63693 0.42267 0.19974 0.0
C1570 C 0.63373 0.41236 0.23781 0.0
C1571 C 0.63963 0.41758 0.28094 0.0
H1572 H 0.63234 0.41861 0.16639 0.0
H1573 H 0.69203 0.46957 0.58244 0.0
H1574 H 0.39943 0.98049 0.22 0.0
H1575 H 0.37695 0.9626 0.1846 0.0
H1576 H 0.34601 1.00371 0.18215 0.0
H1577 H 0.36875 0.02192 0.2168 0.0
H1578 H 0.34638 0.95174 0.20667 0.0
H1579 H 0.32113 1.00002 0.08557 0.0
H1580 H 0.33057 0.02666 0.04761 0.0
H1581 H 0.38119 0.01363 0.04955 0.0
H1582 H 0.37202 0.98684 0.08697 0.0
H1583 H 0.27466 0.9272 0.03659 0.0
H1584 H 0.29202 0.94941 0.07653 0.0
H1585 H 0.3337 0.9193 0.0733 0.0
H1586 H 0.31664 0.89723 0.03338 0.0
H1587 H 0.32416 0.96754 0.05594 0.0
H1588 H 0.35057 0.92078 0.18067 0.0
H1589 H 0.34206 0.89333 0.21535 0.0
H1590 H 0.29044 0.90239 0.20254 0.0
H1591 H 0.29865 0.92999 0.16846 0.0
C1592 C 0.3878 0.98574 0.21243 0.0
C1593 C 0.38594 1.00269 0.22101 0.0
C1594 C 0.37491 0.97545 0.19219 0.0
C1595 C 0.35984 0.98183 0.18002 0.0
C1596 C 0.35763 0.99857 0.19045 0.0
C1597 C 0.37059 0.00893 0.21059 0.0
C1598 C 0.34685 0.97094 0.15511 0.0
C1599 C 0.34159 0.95521 0.17365 0.0
C1600 C 0.34025 0.97554 0.11242 0.0
C1601 C 0.3459 0.99154 0.08961 0.0
C1602 C 0.33426 1.00284 0.07781 0.0
C1603 C 0.33957 0.01796 0.05639 0.0
C1604 C 0.35648 0.02187 0.04635 0.0
C1605 C 0.36811 0.01062 0.05753 0.0
C1606 C 0.36287 0.99548 0.07889 0.0
C1607 C 0.28761 0.92545 0.04368 0.0
C1608 C 0.29423 0.91039 0.03202 0.0
C1609 C 0.29749 0.93814 0.06651 0.0
C1610 C 0.31405 0.93587 0.07845 0.0
C1611 C 0.32089 0.9212 0.0649 0.0
C1612 C 0.3111 0.90862 0.0419 0.0
C1613 C 0.3241 0.94829 0.10711 0.0
C1614 C 0.32877 0.96425 0.08931 0.0
C1615 C 0.33031 0.94386 0.1503 0.0
C1616 C 0.32524 0.92741 0.17165 0.0
C1617 C 0.33741 0.91695 0.18548 0.0
C1618 C 0.33264 0.90136 0.205 0.0
C1619 C 0.31572 0.8961 0.21102 0.0
C1620 C 0.30354 0.90645 0.19771 0.0
C1621 C 0.30825 0.92207 0.17824 0.0
H1622 H 0.31205 0.88401 0.22608 0.0
H1623 H 0.36056 0.03358 0.0298 0.0
H1624 H 0.77603 0.42788 0.53888 0.0
H1625 H 0.79369 0.44982 0.5789 0.0
H1626 H 0.83372 0.41766 0.58425 0.0
H1627 H 0.81636 0.39585 0.54423 0.0
H1628 H 0.82608 0.43092 0.66926 0.0
H1629 H 0.83651 0.44978 0.51341 0.0
H1630 H 0.82818 0.45919 0.43717 0.0
H1631 H 0.80603 0.50047 0.49814 0.0
H1632 H 0.81405 0.49116 0.57485 0.0
H1633 H 0.8992 0.47937 0.73222 0.0
H1634 H 0.87674 0.46153 0.69682 0.0
H1635 H 0.84683 0.50332 0.6875 0.0
H1636 H 0.86965 0.5215 0.72193 0.0
H1637 H 0.84553 0.48713 0.60949 0.0
H1638 H 0.83712 0.47052 0.76412 0.0
H1639 H 0.84469 0.46147 0.84135 0.0
H1640 H 0.86136 0.41645 0.78562 0.0
H1641 H 0.85411 0.42533 0.70795 0.0
C1642 C 0.78869 0.4256 0.54789 0.0
C1643 C 0.79476 0.41009 0.5384 0.0
C1644 C 0.79875 0.43814 0.57083 0.0
C1645 C 0.81498 0.43532 0.58478 0.0
C1646 C 0.8212 0.42006 0.57405 0.0
C1647 C 0.81126 0.40763 0.5509 0.0
C1648 C 0.82538 0.44784 0.61238 0.0
C1649 C 0.83044 0.44318 0.65612 0.0
C1650 C 0.83048 0.46406 0.59596 0.0
C1651 C 0.82569 0.46966 0.54989 0.0
C1652 C 0.82972 0.46077 0.51059 0.0
C1653 C 0.82509 0.46611 0.46729 0.0
C1654 C 0.81653 0.48038 0.46283 0.0
C1655 C 0.81263 0.48939 0.50166 0.0
C1656 C 0.81723 0.4841 0.54505 0.0
C1657 C 0.88777 0.48477 0.72334 0.0
C1658 C 0.88623 0.50188 0.7301 0.0
C1659 C 0.87486 0.4745 0.70317 0.0
C1660 C 0.85994 0.48098 0.68991 0.0
C1661 C 0.8582 0.498 0.69749 0.0
C1662 C 0.87121 0.50836 0.71744 0.0
C1663 C 0.84668 0.47005 0.66608 0.0
C1664 C 0.84102 0.47498 0.62308 0.0
C1665 C 0.84084 0.45411 0.68341 0.0
C1666 C 0.84516 0.44866 0.73013 0.0
C1667 C 0.8425 0.45874 0.76828 0.0
C1668 C 0.84672 0.45363 0.81215 0.0
C1669 C 0.85353 0.43841 0.81838 0.0
C1670 C 0.85609 0.42824 0.78075 0.0
C1671 C 0.8519 0.4333 0.73679 0.0
H1672 H 0.85679 0.43448 0.85237 0.0
H1673 H 0.81296 0.4845 0.42927 0.0
H1674 H 0.33328 0.19607 0.46821 0.0
H1675 H 0.35085 0.17657 0.43232 0.0
H1676 H 0.30872 0.13938 0.42477 0.0
H1677 H 0.291 0.15884 0.46112 0.0
H1678 H 0.33753 0.12565 0.44948 0.0
H1679 H 0.32045 0.16187 0.33142 0.0
H1680 H 0.31651 0.18899 0.29549 0.0
H1681 H 0.36949 0.20223 0.29839 0.0
H1682 H 0.37374 0.17527 0.33497 0.0
H1683 H 0.37727 0.07405 0.29264 0.0
H1684 H 0.35728 0.09161 0.32707 0.0
H1685 H 0.39538 0.13306 0.33143 0.0
H1686 H 0.41524 0.11575 0.29621 0.0
H1687 H 0.36692 0.1438 0.30617 0.0
H1688 H 0.38415 0.10867 0.42736 0.0
H1689 H 0.38855 0.08194 0.46487 0.0
H1690 H 0.33593 0.06698 0.45746 0.0
H1691 H 0.33125 0.09355 0.41934 0.0
C1692 C 0.32774 0.18369 0.45942 0.0
C1693 C 0.31067 0.17907 0.46736 0.0
C1694 C 0.33782 0.17257 0.43864 0.0
C1695 C 0.33106 0.15659 0.42506 0.0
C1696 C 0.3142 0.15166 0.43471 0.0
C1697 C 0.30408 0.16281 0.45551 0.0
C1698 C 0.34151 0.14532 0.3996 0.0
C1699 C 0.34376 0.12951 0.41777 0.0
C1700 C 0.3499 0.15044 0.35862 0.0
C1701 C 0.3474 0.16661 0.33629 0.0
C1702 C 0.33125 0.17061 0.32469 0.0
C1703 C 0.32897 0.18595 0.30417 0.0
C1704 C 0.34274 0.19734 0.29476 0.0
C1705 C 0.35883 0.1934 0.30575 0.0
C1706 C 0.36119 0.17808 0.32633 0.0
C1707 C 0.38134 0.08695 0.30053 0.0
C1708 C 0.39789 0.09346 0.29175 0.0
C1709 C 0.36992 0.09696 0.32054 0.0
C1710 C 0.37486 0.11363 0.33263 0.0
C1711 C 0.39123 0.12025 0.32258 0.0
C1712 C 0.40261 0.1103 0.30243 0.0
C1713 C 0.36315 0.12417 0.35631 0.0
C1714 C 0.36064 0.13987 0.33774 0.0
C1715 C 0.3546 0.11897 0.39703 0.0
C1716 C 0.35738 0.10302 0.42005 0.0
C1717 C 0.37354 0.09963 0.43341 0.0
C1718 C 0.37608 0.08451 0.45484 0.0
C1719 C 0.36254 0.07275 0.46342 0.0
C1720 C 0.34642 0.07609 0.45071 0.0
C1721 C 0.34381 0.09118 0.42922 0.0
H1722 H 0.36453 0.06106 0.48001 0.0
H1723 H 0.34094 0.20921 0.27887 0.0
H1724 H 0.64436 0.55557 0.22106 0.0
H1725 H 0.66634 0.57358 0.18235 0.0
H1726 H 0.63683 0.61548 0.19585 0.0
H1727 H 0.61497 0.59773 0.23462 0.0
H1728 H 0.64737 0.61032 0.1065 0.0
H1729 H 0.67074 0.61387 0.25935 0.0
H1730 H 0.68144 0.60223 0.33044 0.0
H1731 H 0.71926 0.57993 0.25411 0.0
H1732 H 0.70863 0.59126 0.18244 0.0
H1733 H 0.69872 0.68235 0.05139 0.0
H1734 H 0.6806 0.65994 0.08599 0.0
H1735 H 0.71983 0.62692 0.07563 0.0
H1736 H 0.73837 0.64965 0.04187 0.0
H1737 H 0.7059 0.62403 0.15742 0.0
H1738 H 0.68477 0.62205 0.0058 0.0
H1739 H 0.67434 0.6329 0.93338 0.0
H1740 H 0.63259 0.65063 0.00403 0.0
H1741 H 0.64289 0.6401 0.07702 0.0
C1742 C 0.6427 0.56869 0.21655 0.0
C1743 C 0.62788 0.57519 0.23085 0.0
C1744 C 0.65526 0.57896 0.19436 0.0
C1745 C 0.65317 0.59585 0.18599 0.0
C1746 C 0.63866 0.60246 0.20172 0.0
C1747 C 0.62621 0.59229 0.22413 0.0
C1748 C 0.66553 0.60654 0.15868 0.0
C1749 C 0.66014 0.61344 0.11778 0.0
C1750 C 0.68237 0.61002 0.17243 0.0
C1751 C 0.68876 0.60324 0.21549 0.0
C1752 C 0.68124 0.60635 0.25767 0.0
C1753 C 0.68731 0.59984 0.29808 0.0
C1754 C 0.70099 0.5903 0.29677 0.0
C1755 C 0.70865 0.5873 0.25506 0.0
C1756 C 0.70261 0.59377 0.21454 0.0
C1757 C 0.70349 0.67028 0.05585 0.0
C1758 C 0.72 0.6678 0.04363 0.0
C1759 C 0.69305 0.65741 0.07556 0.0
C1760 C 0.69873 0.64162 0.08294 0.0
C1761 C 0.71514 0.63898 0.07018 0.0
C1762 C 0.72569 0.65195 0.05063 0.0
C1763 C 0.68761 0.62825 0.10574 0.0
C1764 C 0.69321 0.62078 0.1457 0.0
C1765 C 0.67098 0.62406 0.09085 0.0
C1766 C 0.66467 0.63037 0.04697 0.0
C1767 C 0.67342 0.62836 0.00596 0.0
C1768 C 0.66752 0.63444 0.96479 0.0
C1769 C 0.65283 0.64247 0.96412 0.0
C1770 C 0.64398 0.64441 0.00461 0.0
C1771 C 0.64983 0.63836 0.04588 0.0
H1772 H 0.64828 0.64717 0.93221 0.0
H1773 H 0.70567 0.58528 0.3281 0.0
H1774 H 0.22374 0.92016 0.95937 0.0
H1775 H 0.20618 0.93971 0.92277 0.0
H1776 H 0.16481 0.90153 0.92091 0.0
H1777 H 0.18222 0.88197 0.95732 0.0
H1778 H 0.16945 0.91657 0.83789 0.0
H1779 H 0.1653 0.93396 0.9948 0.0
H1780 H 0.1762 0.9438 0.06984 0.0
H1781 H 0.20039 0.9879 0.00707 0.0
H1782 H 0.18981 0.9782 0.93151 0.0
H1783 H 0.10194 0.9631 0.78085 0.0
H1784 H 0.12159 0.94554 0.81589 0.0
H1785 H 0.1587 0.98779 0.82314 0.0
H1786 H 0.13886 0.0056 0.78907 0.0
H1787 H 0.15791 0.9716 0.90115 0.0
H1788 H 0.16148 0.95515 0.74491 0.0
H1789 H 0.15107 0.94548 0.66923 0.0
H1790 H 0.1289 0.89993 0.72903 0.0
H1791 H 0.13898 0.90941 0.80521 0.0
C1792 C 0.21084 0.91599 0.95171 0.0
C1793 C 0.2044 0.89948 0.96136 0.0
C1794 C 0.20081 0.92719 0.93079 0.0
C1795 C 0.18415 0.92211 0.91906 0.0
C1796 C 0.17763 0.90574 0.92946 0.0
C1797 C 0.1876 0.89458 0.95055 0.0
C1798 C 0.17362 0.93357 0.89449 0.0
C1799 C 0.16677 0.92852 0.85197 0.0
C1800 C 0.17056 0.94941 0.91205 0.0
C1801 C 0.17692 0.95526 0.95744 0.0
C1802 C 0.17307 0.94568 0.99694 0.0
C1803 C 0.17916 0.95125 0.03958 0.0
C1804 C 0.18903 0.96644 0.0432 0.0
C1805 C 0.19278 0.97612 0.0042 0.0
C1806 C 0.18673 0.9706 0.96146 0.0
C1807 C 0.11435 0.96865 0.78934 0.0
C1808 C 0.11882 0.98578 0.78192 0.0
C1809 C 0.12562 0.95855 0.80932 0.0
C1810 C 0.14176 0.96523 0.8218 0.0
C1811 C 0.14635 0.9823 0.81384 0.0
C1812 C 0.13502 0.99246 0.7941 0.0
C1813 C 0.15354 0.95453 0.84466 0.0
C1814 C 0.16065 0.9597 0.88684 0.0
C1815 C 0.15694 0.93882 0.82663 0.0
C1816 C 0.15087 0.93306 0.78085 0.0
C1817 C 0.15428 0.94312 0.74199 0.0
C1818 C 0.14845 0.93767 0.69898 0.0
C1819 C 0.1393 0.92212 0.69434 0.0
C1820 C 0.13598 0.91197 0.73269 0.0
C1821 C 0.14176 0.91737 0.77578 0.0
H1822 H 0.1348 0.91792 0.66102 0.0
H1823 H 0.19373 0.97074 0.07625 0.0
loop_
_geom_bond_atom_site_label_1
_geom_bond_atom_site_label_2
_geom_bond_distance
_geom_bond_site_symmetry_2
_ccdc_geom_bond_type
O0 Cd1 2.223 1_556 S
O0 C8 1.315 . S
Cd1 O0 2.223 1_554 S
Cd1 O4 2.297 . S
Cd1 O5 2.439 . S
Cd1 O11 2.240 . S
Cd2 O3 2.240 . S
Cd2 O10 2.223 . S
Cd2 O12 2.297 1_556 S
Cd2 O13 2.439 1_556 S
O3 Cd2 2.240 . S
O3 C8 1.279 . S
O4 Cd1 2.297 . S
O4 C6 1.247 . S
O5 Cd1 2.439 . S
O5 C6 1.208 . S
C6 O4 1.247 . S
C6 O5 1.208 . S
C7 O12 1.247 . S
C7 O13 1.208 . S
C8 O0 1.315 . S
C8 O3 1.279 . S
C9 O10 1.315 . S
C9 O11 1.279 1_556 S
O10 Cd2 2.223 . S
O10 C9 1.315 . S
O11 Cd1 2.240 . S
O11 C9 1.279 1_554 S
O12 Cd2 2.297 1_554 S
O12 C7 1.247 . S
O13 Cd2 2.439 1_554 S
O13 C7 1.208 . S
O14 Cd15 2.223 . S
O14 C22 1.315 . S
Cd15 O14 2.223 . S
Cd15 O18 2.297 . S
Cd15 O19 2.439 . S
Cd15 O25 2.240 . S
Cd16 O17 2.240 . S
Cd16 O24 2.223 . S
Cd16 O26 2.297 . S
Cd16 O27 2.439 . S
O17 Cd16 2.240 . S
O17 C22 1.279 . S
O18 Cd15 2.297 . S
O18 C20 1.247 . S
O19 Cd15 2.439 . S
O19 C20 1.208 . S
C20 O18 1.247 . S
C20 O19 1.208 . S
C21 O26 1.247 . S
C21 O27 1.208 . S
C22 O14 1.315 . S
C22 O17 1.279 . S
C23 O24 1.315 . S
C23 O25 1.279 . S
O24 Cd16 2.223 . S
O24 C23 1.315 . S
O25 Cd15 2.240 . S
O25 C23 1.279 . S
O26 Cd16 2.297 . S
O26 C21 1.247 . S
O27 Cd16 2.439 . S
O27 C21 1.208 . S
O28 Cd29 2.223 . S
O28 C36 1.315 . S
Cd29 O28 2.223 . S
Cd29 O32 2.297 . S
Cd29 O33 2.439 . S
Cd29 O39 2.240 . S
Cd30 O31 2.240 . S
Cd30 O38 2.223 . S
Cd30 O40 2.297 . S
Cd30 O41 2.439 . S
O31 Cd30 2.240 . S
O31 C36 1.279 . S
O32 Cd29 2.297 . S
O32 C34 1.247 . S
O33 Cd29 2.439 . S
O33 C34 1.208 . S
C34 O32 1.247 . S
C34 O33 1.208 . S
C35 O40 1.247 . S
C35 O41 1.208 . S
C36 O28 1.315 . S
C36 O31 1.279 . S
C37 O38 1.315 . S
C37 O39 1.279 . S
O38 Cd30 2.223 . S
O38 C37 1.315 . S
O39 Cd29 2.240 . S
O39 C37 1.279 . S
O40 Cd30 2.297 . S
O40 C35 1.247 . S
O41 Cd30 2.439 . S
O41 C35 1.208 . S
O42 Cd43 2.223 . S
O42 C50 1.315 . S
Cd43 O42 2.223 . S
Cd43 O46 2.297 . S
Cd43 O47 2.439 . S
Cd43 O53 2.240 . S
Cd44 O45 2.240 . S
Cd44 O52 2.223 . S
Cd44 O54 2.297 . S
Cd44 O55 2.439 . S
O45 Cd44 2.240 . S
O45 C50 1.279 . S
O46 Cd43 2.297 . S
O46 C48 1.247 . S
O47 Cd43 2.439 . S
O47 C48 1.208 . S
C48 O46 1.247 . S
C48 O47 1.208 . S
C49 O54 1.247 . S
C49 O55 1.208 . S
C50 O42 1.315 . S
C50 O45 1.279 . S
C51 O52 1.315 . S
C51 O53 1.279 . S
O52 Cd44 2.223 . S
O52 C51 1.315 . S
O53 Cd43 2.240 . S
O53 C51 1.279 . S
O54 Cd44 2.297 . S
O54 C49 1.247 . S
O55 Cd44 2.439 . S
O55 C49 1.208 . S
O56 Cd57 2.223 1_556 S
O56 C64 1.315 . S
Cd57 O56 2.223 1_554 S
Cd57 O60 2.297 1_554 S
Cd57 O61 2.439 1_554 S
Cd57 O67 2.240 . S
Cd58 O59 2.240 1_554 S
Cd58 O66 2.223 . S
Cd58 O68 2.297 . S
Cd58 O69 2.439 . S
O59 Cd58 2.240 1_556 S
O59 C64 1.279 . S
O60 Cd57 2.297 1_556 S
O60 C62 1.247 . S
O61 Cd57 2.439 1_556 S
O61 C62 1.208 . S
C62 O60 1.247 . S
C62 O61 1.208 . S
C63 O68 1.247 . S
C63 O69 1.208 . S
C64 O56 1.315 . S
C64 O59 1.279 . S
C65 O66 1.315 . S
C65 O67 1.279 . S
O66 Cd58 2.223 . S
O66 C65 1.315 . S
O67 Cd57 2.240 . S
O67 C65 1.279 . S
O68 Cd58 2.297 . S
O68 C63 1.247 . S
O69 Cd58 2.439 . S
O69 C63 1.208 . S
O70 Cd71 2.223 . S
O70 C78 1.315 1_565 S
Cd71 O70 2.223 . S
Cd71 O74 2.297 . S
Cd71 O75 2.439 . S
Cd71 O81 2.240 1_565 S
Cd72 O73 2.240 . S
Cd72 O80 2.223 . S
Cd72 O82 2.297 . S
Cd72 O83 2.439 . S
O73 Cd72 2.240 . S
O73 C78 1.279 . S
O74 Cd71 2.297 . S
O74 C76 1.247 . S
O75 Cd71 2.439 . S
O75 C76 1.208 . S
C76 O74 1.247 . S
C76 O75 1.208 . S
C77 O82 1.247 . S
C77 O83 1.208 . S
C78 O70 1.315 1_545 S
C78 O73 1.279 . S
C79 O80 1.315 . S
C79 O81 1.279 . S
O80 Cd72 2.223 . S
O80 C79 1.315 . S
O81 Cd71 2.240 1_545 S
O81 C79 1.279 . S
O82 Cd72 2.297 . S
O82 C77 1.247 . S
O83 Cd72 2.439 . S
O83 C77 1.208 . S
O84 Cd85 2.223 . S
O84 C92 1.315 . S
Cd85 O84 2.223 . S
Cd85 O88 2.297 . S
Cd85 O89 2.439 . S
Cd85 O95 2.240 . S
Cd86 O87 2.240 . S
Cd86 O94 2.223 . S
Cd86 O96 2.297 . S
Cd86 O97 2.439 . S
O87 Cd86 2.240 . S
O87 C92 1.279 . S
O88 Cd85 2.297 . S
O88 C90 1.247 . S
O89 Cd85 2.439 . S
O89 C90 1.208 . S
C90 O88 1.247 . S
C90 O89 1.208 . S
C91 O96 1.247 . S
C91 O97 1.208 . S
C92 O84 1.315 . S
C92 O87 1.279 . S
C93 O94 1.315 . S
C93 O95 1.279 . S
O94 Cd86 2.223 . S
O94 C93 1.315 . S
O95 Cd85 2.240 . S
O95 C93 1.279 . S
O96 Cd86 2.297 . S
O96 C91 1.247 . S
O97 Cd86 2.439 . S
O97 C91 1.208 . S
O98 Cd99 2.223 . S
O98 C106 1.315 . S
Cd99 O98 2.223 . S
Cd99 O102 2.297 . S
Cd99 O103 2.439 . S
Cd99 O109 2.240 . S
Cd100 O101 2.240 . S
Cd100 O108 2.223 . S
Cd100 O110 2.297 . S
Cd100 O111 2.439 . S
O101 Cd100 2.240 . S
O101 C106 1.279 . S
O102 Cd99 2.297 . S
O102 C104 1.247 . S
O103 Cd99 2.439 . S
O103 C104 1.208 . S
C104 O102 1.247 . S
C104 O103 1.208 . S
C105 O110 1.247 . S
C105 O111 1.208 . S
C106 O98 1.315 . S
C106 O101 1.279 . S
C107 O108 1.315 . S
C107 O109 1.279 . S
O108 Cd100 2.223 . S
O108 C107 1.315 . S
O109 Cd99 2.240 . S
O109 C107 1.279 . S
O110 Cd100 2.297 . S
O110 C105 1.247 . S
O111 Cd100 2.439 . S
O111 C105 1.208 . S
O112 Cd113 2.223 . S
O112 C120 1.315 . S
Cd113 O112 2.223 . S
Cd113 O116 2.297 . S
Cd113 O117 2.439 . S
Cd113 O123 2.240 . S
Cd114 O115 2.240 . S
Cd114 O122 2.223 . S
Cd114 O124 2.297 . S
Cd114 O125 2.439 . S
O115 Cd114 2.240 . S
O115 C120 1.279 . S
O116 Cd113 2.297 . S
O116 C118 1.247 . S
O117 Cd113 2.439 . S
O117 C118 1.208 . S
C118 O116 1.247 . S
C118 O117 1.208 . S
C119 O124 1.247 . S
C119 O125 1.208 . S
C120 O112 1.315 . S
C120 O115 1.279 . S
C121 O122 1.315 . S
C121 O123 1.279 . S
O122 Cd114 2.223 . S
O122 C121 1.315 . S
O123 Cd113 2.240 . S
O123 C121 1.279 . S
O124 Cd114 2.297 . S
O124 C119 1.247 . S
O125 Cd114 2.439 . S
O125 C119 1.208 . S
O126 Cd127 2.223 . S
O126 C134 1.315 . S
Cd127 O126 2.223 . S
Cd127 O130 2.297 . S
Cd127 O131 2.439 . S
Cd127 O137 2.240 . S
Cd128 O129 2.240 . S
Cd128 O136 2.223 . S
Cd128 O138 2.297 . S
Cd128 O139 2.439 . S
O129 Cd128 2.240 . S
O129 C134 1.279 . S
O130 Cd127 2.297 . S
O130 C132 1.247 . S
O131 Cd127 2.439 . S
O131 C132 1.208 . S
C132 O130 1.247 . S
C132 O131 1.208 . S
C133 O138 1.247 . S
C133 O139 1.208 . S
C134 O126 1.315 . S
C134 O129 1.279 . S
C135 O136 1.315 . S
C135 O137 1.279 . S
O136 Cd128 2.223 . S
O136 C135 1.315 . S
O137 Cd127 2.240 . S
O137 C135 1.279 . S
O138 Cd128 2.297 . S
O138 C133 1.247 . S
O139 Cd128 2.439 . S
O139 C133 1.208 . S
O140 Cd141 2.223 1_556 S
O140 C148 1.315 . S
Cd141 O140 2.223 1_554 S
Cd141 O144 2.297 . S
Cd141 O145 2.439 . S
Cd141 O151 2.240 . S
Cd142 O143 2.240 . S
Cd142 O150 2.223 . S
Cd142 O152 2.297 1_556 S
Cd142 O153 2.439 1_556 S
O143 Cd142 2.240 . S
O143 C148 1.279 . S
O144 Cd141 2.297 . S
O144 C146 1.247 . S
O145 Cd141 2.439 . S
O145 C146 1.208 . S
C146 O144 1.247 . S
C146 O145 1.208 . S
C147 O152 1.247 . S
C147 O153 1.208 . S
C148 O140 1.315 . S
C148 O143 1.279 . S
C149 O150 1.315 . S
C149 O151 1.279 1_556 S
O150 Cd142 2.223 . S
O150 C149 1.315 . S
O151 Cd141 2.240 . S
O151 C149 1.279 1_554 S
O152 Cd142 2.297 1_554 S
O152 C147 1.247 . S
O153 Cd142 2.439 1_554 S
O153 C147 1.208 . S
O154 Cd155 2.223 . S
O154 C162 1.315 . S
Cd155 O154 2.223 . S
Cd155 O158 2.297 . S
Cd155 O159 2.439 . S
Cd155 O165 2.240 . S
Cd156 O157 2.240 . S
Cd156 O164 2.223 . S
Cd156 O166 2.297 . S
Cd156 O167 2.439 . S
O157 Cd156 2.240 . S
O157 C162 1.279 . S
O158 Cd155 2.297 . S
O158 C160 1.247 . S
O159 Cd155 2.439 . S
O159 C160 1.208 . S
C160 O158 1.247 . S
C160 O159 1.208 . S
C161 O166 1.247 . S
C161 O167 1.208 . S
C162 O154 1.315 . S
C162 O157 1.279 . S
C163 O164 1.315 . S
C163 O165 1.279 . S
O164 Cd156 2.223 . S
O164 C163 1.315 . S
O165 Cd155 2.240 . S
O165 C163 1.279 . S
O166 Cd156 2.297 . S
O166 C161 1.247 . S
O167 Cd156 2.439 . S
O167 C161 1.208 . S
O168 Cd169 2.223 . S
O168 C176 1.315 . S
Cd169 O168 2.223 . S
Cd169 O172 2.297 . S
Cd169 O173 2.439 . S
Cd169 O179 2.240 . S
Cd170 O171 2.240 . S
Cd170 O178 2.223 . S
Cd170 O180 2.297 . S
Cd170 O181 2.439 . S
O171 Cd170 2.240 . S
O171 C176 1.279 . S
O172 Cd169 2.297 . S
O172 C174 1.247 . S
O173 Cd169 2.439 . S
O173 C174 1.208 . S
C174 O172 1.247 . S
C174 O173 1.208 . S
C175 O180 1.247 . S
C175 O181 1.208 . S
C176 O168 1.315 . S
C176 O171 1.279 . S
C177 O178 1.315 . S
C177 O179 1.279 . S
O178 Cd170 2.223 . S
O178 C177 1.315 . S
O179 Cd169 2.240 . S
O179 C177 1.279 . S
O180 Cd170 2.297 . S
O180 C175 1.247 . S
O181 Cd170 2.439 . S
O181 C175 1.208 . S
O182 Cd183 2.223 . S
O182 C190 1.315 . S
Cd183 O182 2.223 . S
Cd183 O186 2.297 . S
Cd183 O187 2.439 . S
Cd183 O193 2.240 . S
Cd184 O185 2.240 . S
Cd184 O192 2.223 . S
Cd184 O194 2.297 . S
Cd184 O195 2.439 . S
O185 Cd184 2.240 . S
O185 C190 1.279 . S
O186 Cd183 2.297 . S
O186 C188 1.247 . S
O187 Cd183 2.439 . S
O187 C188 1.208 . S
C188 O186 1.247 . S
C188 O187 1.208 . S
C189 O194 1.247 . S
C189 O195 1.208 . S
C190 O182 1.315 . S
C190 O185 1.279 . S
C191 O192 1.315 . S
C191 O193 1.279 . S
O192 Cd184 2.223 . S
O192 C191 1.315 . S
O193 Cd183 2.240 . S
O193 C191 1.279 . S
O194 Cd184 2.297 . S
O194 C189 1.247 . S
O195 Cd184 2.439 . S
O195 C189 1.208 . S
O196 Cd197 2.223 1_556 S
O196 C204 1.315 . S
Cd197 O196 2.223 1_554 S
Cd197 O200 2.297 1_554 S
Cd197 O201 2.439 1_554 S
Cd197 O207 2.240 . S
Cd198 O199 2.240 1_554 S
Cd198 O206 2.223 . S
Cd198 O208 2.297 . S
Cd198 O209 2.439 . S
O199 Cd198 2.240 1_556 S
O199 C204 1.279 . S
O200 Cd197 2.297 1_556 S
O200 C202 1.247 . S
O201 Cd197 2.439 1_556 S
O201 C202 1.208 . S
C202 O200 1.247 . S
C202 O201 1.208 . S
C203 O208 1.247 . S
C203 O209 1.208 . S
C204 O196 1.315 . S
C204 O199 1.279 . S
C205 O206 1.315 . S
C205 O207 1.279 . S
O206 Cd198 2.223 . S
O206 C205 1.315 . S
O207 Cd197 2.240 . S
O207 C205 1.279 . S
O208 Cd198 2.297 . S
O208 C203 1.247 . S
O209 Cd198 2.439 . S
O209 C203 1.208 . S
O210 Cd211 2.223 . S
O210 C218 1.315 . S
Cd211 O210 2.223 . S
Cd211 O214 2.297 . S
Cd211 O215 2.439 . S
Cd211 O221 2.240 . S
Cd212 O213 2.240 . S
Cd212 O220 2.223 . S
Cd212 O222 2.297 . S
Cd212 O223 2.439 . S
O213 Cd212 2.240 . S
O213 C218 1.279 . S
O214 Cd211 2.297 . S
O214 C216 1.247 . S
O215 Cd211 2.439 . S
O215 C216 1.208 . S
C216 O214 1.247 . S
C216 O215 1.208 . S
C217 O222 1.247 . S
C217 O223 1.208 . S
C218 O210 1.315 . S
C218 O213 1.279 . S
C219 O220 1.315 . S
C219 O221 1.279 . S
O220 Cd212 2.223 . S
O220 C219 1.315 . S
O221 Cd211 2.240 . S
O221 C219 1.279 . S
O222 Cd212 2.297 . S
O222 C217 1.247 . S
O223 Cd212 2.439 . S
O223 C217 1.208 . S
H224 C242 0.951 . S
H225 C244 0.951 . S
H226 C246 0.950 . S
H227 C247 0.950 . S
H228 C249 0.950 . S
H229 C252 0.950 . S
H230 C253 0.950 . S
H231 C255 0.950 . S
H232 C256 0.950 . S
H233 C257 0.951 . S
H234 C259 0.951 . S
H235 C261 0.950 . S
H236 C262 0.950 . S
H237 C264 0.950 . S
H238 C267 0.950 . S
H239 C268 0.950 . S
H240 C270 0.950 . S
H241 C271 0.950 . S
C242 H224 0.951 . S
C242 C243 1.366 . S
C242 C244 1.388 . S
C243 C242 1.366 . S
C243 C247 1.385 . S
C244 H225 0.951 . S
C244 C242 1.388 . S
C244 C245 1.366 . S
C245 C244 1.366 . S
C245 C246 1.414 . S
C245 C248 1.499 . S
C246 H226 0.950 . S
C246 C245 1.414 . S
C246 C247 1.374 . S
C247 H227 0.950 . S
C247 C243 1.385 . S
C247 C246 1.374 . S
C248 C245 1.499 . S
C248 C249 1.373 . S
C248 C250 1.389 . S
C249 H228 0.950 . S
C249 C248 1.373 . S
C249 C265 1.377 . S
C250 C248 1.389 . S
C250 C251 1.524 . S
C250 C264 1.377 . S
C251 C250 1.524 . S
C251 C252 1.397 . S
C251 C256 1.363 . S
C252 H229 0.950 . S
C252 C251 1.397 . S
C252 C253 1.334 . S
C253 H230 0.950 . S
C253 C252 1.334 . S
C253 C254 1.287 . S
C254 C253 1.287 . S
C254 C255 1.524 . S
C254 H273 0.913 . S
C255 H231 0.950 . S
C255 C254 1.524 . S
C255 C256 1.415 . S
C256 H232 0.950 . S
C256 C251 1.363 . S
C256 C255 1.415 . S
C257 H233 0.951 . S
C257 C258 1.366 . S
C257 C259 1.388 . S
C258 C257 1.366 . S
C258 C262 1.385 . S
C259 H234 0.951 . S
C259 C257 1.388 . S
C259 C260 1.366 . S
C260 C259 1.366 . S
C260 C261 1.414 . S
C260 C263 1.499 . S
C261 H235 0.950 . S
C261 C260 1.414 . S
C261 C262 1.374 . S
C262 H236 0.950 . S
C262 C258 1.385 . S
C262 C261 1.374 . S
C263 C260 1.499 . S
C263 C264 1.373 . S
C263 C265 1.389 . S
C264 H237 0.950 . S
C264 C250 1.377 . S
C264 C263 1.373 . S
C265 C249 1.377 . S
C265 C263 1.389 . S
C265 C266 1.524 . S
C266 C265 1.524 . S
C266 C267 1.397 . S
C266 C271 1.363 . S
C267 H238 0.950 . S
C267 C266 1.397 . S
C267 C268 1.334 . S
C268 H239 0.950 . S
C268 C267 1.334 . S
C268 C269 1.287 . S
C269 C268 1.287 . S
C269 C270 1.524 . S
C269 H272 0.999 . S
C270 H240 0.950 . S
C270 C269 1.524 . S
C270 C271 1.415 . S
C271 H241 0.950 . S
C271 C266 1.363 . S
C271 C270 1.415 . S
H272 C269 0.999 . S
H273 C254 0.913 . S
H274 C292 0.951 . S
H275 C294 0.951 . S
H276 C296 0.950 . S
H277 C297 0.950 . S
H278 C299 0.950 . S
H279 C302 0.950 . S
H280 C303 0.950 . S
H281 C305 0.950 . S
H282 C306 0.950 . S
H283 C307 0.951 . S
H284 C309 0.951 . S
H285 C311 0.950 . S
H286 C312 0.950 . S
H287 C314 0.950 . S
H288 C317 0.950 . S
H289 C318 0.950 . S
H290 C320 0.950 . S
H291 C321 0.950 . S
C292 H274 0.951 . S
C292 C293 1.366 . S
C292 C294 1.388 . S
C293 C292 1.366 . S
C293 C297 1.385 . S
C294 H275 0.951 . S
C294 C292 1.388 . S
C294 C295 1.366 . S
C295 C294 1.366 . S
C295 C296 1.414 . S
C295 C298 1.499 . S
C296 H276 0.950 . S
C296 C295 1.414 . S
C296 C297 1.374 . S
C297 H277 0.950 . S
C297 C293 1.385 . S
C297 C296 1.374 . S
C298 C295 1.499 . S
C298 C299 1.373 . S
C298 C300 1.389 . S
C299 H278 0.950 . S
C299 C298 1.373 . S
C299 C315 1.377 . S
C300 C298 1.389 . S
C300 C301 1.524 1_545 S
C300 C314 1.377 1_655 S
C301 C300 1.524 1_565 S
C301 C302 1.397 . S
C301 C306 1.363 1_655 S
C302 H279 0.950 . S
C302 C301 1.397 . S
C302 C303 1.334 . S
C303 H280 0.950 . S
C303 C302 1.334 . S
C303 C304 1.287 . S
C304 C303 1.287 . S
C304 C305 1.524 1_655 S
C304 H323 0.913 . S
C305 H281 0.950 . S
C305 C304 1.524 1_455 S
C305 C306 1.415 . S
C306 H282 0.950 . S
C306 C301 1.363 1_455 S
C306 C305 1.415 . S
C307 H283 0.951 . S
C307 C308 1.366 . S
C307 C309 1.388 . S
C308 C307 1.366 . S
C308 C312 1.385 . S
C309 H284 0.951 . S
C309 C307 1.388 . S
C309 C310 1.366 . S
C310 C309 1.366 . S
C310 C311 1.414 . S
C310 C313 1.499 . S
C311 H285 0.950 . S
C311 C310 1.414 . S
C311 C312 1.374 . S
C312 H286 0.950 . S
C312 C308 1.385 . S
C312 C311 1.374 . S
C313 C310 1.499 . S
C313 C314 1.373 . S
C313 C315 1.389 1_455 S
C314 H287 0.950 . S
C314 C300 1.377 1_455 S
C314 C313 1.373 . S
C315 C299 1.377 . S
C315 C313 1.389 1_655 S
C315 C316 1.524 . S
C316 C315 1.524 . S
C316 C317 1.397 1_655 S
C316 C321 1.363 . S
C317 H288 0.950 . S
C317 C316 1.397 1_455 S
C317 C318 1.334 . S
C318 H289 0.950 . S
C318 C317 1.334 . S
C318 C319 1.267 1_455 S
C319 C318 1.267 1_655 S
C319 C320 1.544 . S
C319 H322 1.001 . S
C320 H290 0.950 . S
C320 C319 1.544 . S
C320 C321 1.415 . S
C321 H291 0.950 . S
C321 C316 1.363 . S
C321 C320 1.415 . S
H322 C319 1.001 . S
H323 C304 0.913 . S
H324 C342 0.951 . S
H325 C344 0.951 . S
H326 C346 0.950 . S
H327 C347 0.950 . S
H328 C349 0.950 . S
H329 C352 0.950 . S
H330 C353 0.950 . S
H331 C355 0.950 . S
H332 C356 0.950 . S
H333 C357 0.951 . S
H334 C359 0.951 . S
H335 C361 0.950 . S
H336 C362 0.950 . S
H337 C364 0.950 . S
H338 C367 0.950 . S
H339 C368 0.950 . S
H340 C370 0.950 . S
H341 C371 0.950 . S
C342 H324 0.951 . S
C342 C343 1.366 . S
C342 C344 1.388 . S
C343 C342 1.366 . S
C343 C347 1.385 . S
C344 H325 0.951 . S
C344 C342 1.388 . S
C344 C345 1.366 . S
C345 C344 1.366 . S
C345 C346 1.414 . S
C345 C348 1.499 . S
C346 H326 0.950 . S
C346 C345 1.414 . S
C346 C347 1.374 . S
C347 H327 0.950 . S
C347 C343 1.385 . S
C347 C346 1.374 . S
C348 C345 1.499 . S
C348 C349 1.373 . S
C348 C350 1.389 . S
C349 H328 0.950 . S
C349 C348 1.373 . S
C349 C365 1.377 . S
C350 C348 1.389 . S
C350 C351 1.524 . S
C350 C364 1.377 . S
C351 C350 1.524 . S
C351 C352 1.397 . S
C351 C356 1.363 . S
C352 H329 0.950 . S
C352 C351 1.397 . S
C352 C353 1.334 . S
C353 H330 0.950 . S
C353 C352 1.334 . S
C353 C354 1.287 . S
C354 C353 1.287 . S
C354 C355 1.524 . S
C354 H373 0.913 . S
C355 H331 0.950 . S
C355 C354 1.524 . S
C355 C356 1.415 . S
C356 H332 0.950 . S
C356 C351 1.363 . S
C356 C355 1.415 . S
C357 H333 0.951 . S
C357 C358 1.366 . S
C357 C359 1.388 . S
C358 C357 1.366 . S
C358 C362 1.385 . S
C359 H334 0.951 . S
C359 C357 1.388 . S
C359 C360 1.366 . S
C360 C359 1.366 . S
C360 C361 1.414 . S
C360 C363 1.499 . S
C361 H335 0.950 . S
C361 C360 1.414 . S
C361 C362 1.374 . S
C362 H336 0.950 . S
C362 C358 1.385 . S
C362 C361 1.374 . S
C363 C360 1.499 . S
C363 C364 1.373 . S
C363 C365 1.389 . S
C364 H337 0.950 . S
C364 C350 1.377 . S
C364 C363 1.373 . S
C365 C349 1.377 . S
C365 C363 1.389 . S
C365 C366 1.524 . S
C366 C365 1.524 . S
C366 C367 1.397 . S
C366 C371 1.363 . S
C367 H338 0.950 . S
C367 C366 1.397 . S
C367 C368 1.334 . S
C368 H339 0.950 . S
C368 C367 1.334 . S
C368 C369 1.287 . S
C369 C368 1.287 . S
C369 C370 1.524 . S
C369 H372 0.999 . S
C370 H340 0.950 . S
C370 C369 1.524 . S
C370 C371 1.415 . S
C371 H341 0.950 . S
C371 C366 1.363 . S
C371 C370 1.415 . S
H372 C369 0.999 . S
H373 C354 0.913 . S
H374 C392 0.951 . S
H375 C394 0.951 . S
H376 C396 0.950 . S
H377 C397 0.950 . S
H378 C399 0.950 . S
H379 C402 0.950 . S
H380 C403 0.950 . S
H381 C405 0.950 . S
H382 C406 0.950 . S
H383 C407 0.951 . S
H384 C409 0.951 . S
H385 C411 0.950 . S
H386 C412 0.950 . S
H387 C414 0.950 . S
H388 C417 0.950 . S
H389 C418 0.950 . S
H390 C420 0.950 . S
H391 C421 0.950 . S
C392 H374 0.951 . S
C392 C393 1.366 . S
C392 C394 1.388 . S
C393 C392 1.366 . S
C393 C397 1.385 . S
C394 H375 0.951 . S
C394 C392 1.388 . S
C394 C395 1.366 . S
C395 C394 1.366 . S
C395 C396 1.414 . S
C395 C398 1.499 . S
C396 H376 0.950 . S
C396 C395 1.414 . S
C396 C397 1.374 . S
C397 H377 0.950 . S
C397 C393 1.385 . S
C397 C396 1.374 . S
C398 C395 1.499 . S
C398 C399 1.373 1_554 S
C398 C400 1.389 . S
C399 H378 0.950 . S
C399 C398 1.373 1_556 S
C399 C415 1.377 . S
C400 C398 1.389 . S
C400 C401 1.524 . S
C400 C414 1.377 1_554 S
C401 C400 1.524 . S
C401 C402 1.397 . S
C401 C406 1.363 . S
C402 H379 0.950 . S
C402 C401 1.397 . S
C402 C403 1.334 . S
C403 H380 0.950 . S
C403 C402 1.334 . S
C403 C404 1.287 . S
C404 C403 1.287 . S
C404 C405 1.524 . S
C404 H423 0.913 . S
C405 H381 0.950 . S
C405 C404 1.524 . S
C405 C406 1.415 . S
C406 H382 0.950 . S
C406 C401 1.363 . S
C406 C405 1.415 . S
C407 H383 0.951 . S
C407 C408 1.366 . S
C407 C409 1.388 . S
C408 C407 1.366 . S
C408 C412 1.385 . S
C409 H384 0.951 . S
C409 C407 1.388 . S
C409 C410 1.366 . S
C410 C409 1.366 . S
C410 C411 1.414 . S
C410 C413 1.499 . S
C411 H385 0.950 . S
C411 C410 1.414 . S
C411 C412 1.374 . S
C412 H386 0.950 . S
C412 C408 1.385 . S
C412 C411 1.374 . S
C413 C410 1.499 . S
C413 C414 1.373 . S
C413 C415 1.389 . S
C414 H387 0.950 . S
C414 C400 1.377 1_556 S
C414 C413 1.373 . S
C415 C399 1.377 . S
C415 C413 1.389 . S
C415 C416 1.524 . S
C416 C415 1.524 . S
C416 C417 1.397 . S
C416 C421 1.363 . S
C417 H388 0.950 . S
C417 C416 1.397 . S
C417 C418 1.334 1_545 S
C418 H389 0.950 . S
C418 C417 1.334 1_565 S
C418 C419 1.287 . S
C419 C418 1.287 . S
C419 C420 1.524 . S
C419 H422 0.999 . S
C420 H390 0.950 . S
C420 C419 1.524 . S
C420 C421 1.415 1_565 S
C421 H391 0.950 . S
C421 C416 1.363 . S
C421 C420 1.415 1_545 S
H422 C419 0.999 . S
H423 C404 0.913 . S
H424 C442 0.951 . S
H425 C444 0.951 . S
H426 C446 0.950 . S
H427 C447 0.950 . S
H428 C449 0.950 . S
H429 C452 0.950 . S
H430 C453 0.950 . S
H431 C455 0.950 . S
H432 C456 0.950 . S
H433 C457 0.951 . S
H434 C459 0.951 . S
H435 C461 0.950 . S
H436 C462 0.950 . S
H437 C464 0.950 . S
H438 C467 0.950 . S
H439 C468 0.950 . S
H440 C470 0.950 . S
H441 C471 0.950 . S
C442 H424 0.951 . S
C442 C443 1.366 . S
C442 C444 1.388 . S
C443 C442 1.366 . S
C443 C447 1.385 . S
C444 H425 0.951 . S
C444 C442 1.388 . S
C444 C445 1.366 . S
C445 C444 1.366 . S
C445 C446 1.414 . S
C445 C448 1.499 . S
C446 H426 0.950 . S
C446 C445 1.414 . S
C446 C447 1.374 . S
C447 H427 0.950 . S
C447 C443 1.385 . S
C447 C446 1.374 . S
C448 C445 1.499 . S
C448 C449 1.373 . S
C448 C450 1.389 . S
C449 H428 0.950 . S
C449 C448 1.373 . S
C449 C465 1.377 . S
C450 C448 1.389 . S
C450 C451 1.524 . S
C450 C464 1.377 . S
C451 C450 1.524 . S
C451 C452 1.397 . S
C451 C456 1.363 . S
C452 H429 0.950 . S
C452 C451 1.397 . S
C452 C453 1.334 . S
C453 H430 0.950 . S
C453 C452 1.334 . S
C453 C454 1.287 . S
C454 C453 1.287 . S
C454 C455 1.524 . S
C454 H473 0.913 . S
C455 H431 0.950 . S
C455 C454 1.524 . S
C455 C456 1.415 . S
C456 H432 0.950 . S
C456 C451 1.363 . S
C456 C455 1.415 . S
C457 H433 0.951 . S
C457 C458 1.366 . S
C457 C459 1.388 . S
C458 C457 1.366 . S
C458 C462 1.385 . S
C459 H434 0.951 . S
C459 C457 1.388 . S
C459 C460 1.366 . S
C460 C459 1.366 . S
C460 C461 1.414 . S
C460 C463 1.499 . S
C461 H435 0.950 . S
C461 C460 1.414 . S
C461 C462 1.374 . S
C462 H436 0.950 . S
C462 C458 1.385 . S
C462 C461 1.374 . S
C463 C460 1.499 . S
C463 C464 1.373 . S
C463 C465 1.389 . S
C464 H437 0.950 . S
C464 C450 1.377 . S
C464 C463 1.373 . S
C465 C449 1.377 . S
C465 C463 1.389 . S
C465 C466 1.524 . S
C466 C465 1.524 . S
C466 C467 1.397 . S
C466 C471 1.363 . S
C467 H438 0.950 . S
C467 C466 1.397 . S
C467 C468 1.334 . S
C468 H439 0.950 . S
C468 C467 1.334 . S
C468 C469 1.287 . S
C469 C468 1.287 . S
C469 C470 1.524 . S
C469 H472 0.999 . S
C470 H440 0.950 . S
C470 C469 1.524 . S
C470 C471 1.415 . S
C471 H441 0.950 . S
C471 C466 1.363 . S
C471 C470 1.415 . S
H472 C469 0.999 . S
H473 C454 0.913 . S
H474 C492 0.951 . S
H475 C494 0.951 . S
H476 C496 0.950 . S
H477 C497 0.950 . S
H478 C499 0.950 . S
H479 C502 0.950 . S
H480 C503 0.950 . S
H481 C505 0.950 . S
H482 C506 0.950 . S
H483 C507 0.951 . S
H484 C509 0.951 . S
H485 C511 0.950 . S
H486 C512 0.950 . S
H487 C514 0.950 . S
H488 C517 0.950 . S
H489 C518 0.950 . S
H490 C520 0.950 . S
H491 C521 0.950 . S
C492 H474 0.951 . S
C492 C493 1.366 . S
C492 C494 1.388 . S
C493 C492 1.366 . S
C493 C497 1.385 . S
C494 H475 0.951 . S
C494 C492 1.388 . S
C494 C495 1.366 . S
C495 C494 1.366 . S
C495 C496 1.414 . S
C495 C498 1.499 . S
C496 H476 0.950 . S
C496 C495 1.414 . S
C496 C497 1.374 . S
C497 H477 0.950 . S
C497 C493 1.385 . S
C497 C496 1.374 . S
C498 C495 1.499 . S
C498 C499 1.373 . S
C498 C500 1.389 . S
C499 H478 0.950 . S
C499 C498 1.373 . S
C499 C515 1.377 . S
C500 C498 1.389 . S
C500 C501 1.524 . S
C500 C514 1.377 . S
C501 C500 1.524 . S
C501 C502 1.397 . S
C501 C506 1.363 . S
C502 H479 0.950 . S
C502 C501 1.397 . S
C502 C503 1.334 . S
C503 H480 0.950 . S
C503 C502 1.334 . S
C503 C504 1.287 . S
C504 C503 1.287 . S
C504 C505 1.524 . S
C504 H523 0.913 . S
C505 H481 0.950 . S
C505 C504 1.524 . S
C505 C506 1.415 . S
C506 H482 0.950 . S
C506 C501 1.363 . S
C506 C505 1.415 . S
C507 H483 0.951 . S
C507 C508 1.366 . S
C507 C509 1.388 . S
C508 C507 1.366 . S
C508 C512 1.385 . S
C509 H484 0.951 . S
C509 C507 1.388 . S
C509 C510 1.366 . S
C510 C509 1.366 . S
C510 C511 1.414 . S
C510 C513 1.499 . S
C511 H485 0.950 . S
C511 C510 1.414 . S
C511 C512 1.374 . S
C512 H486 0.950 . S
C512 C508 1.385 . S
C512 C511 1.374 . S
C513 C510 1.499 . S
C513 C514 1.373 . S
C513 C515 1.389 . S
C514 H487 0.950 . S
C514 C500 1.377 . S
C514 C513 1.373 . S
C515 C499 1.377 . S
C515 C513 1.389 . S
C515 C516 1.524 . S
C516 C515 1.524 . S
C516 C517 1.397 . S
C516 C521 1.363 . S
C517 H488 0.950 . S
C517 C516 1.397 . S
C517 C518 1.334 . S
C518 H489 0.950 . S
C518 C517 1.334 . S
C518 C519 1.287 . S
C519 C518 1.287 . S
C519 C520 1.524 . S
C519 H522 0.999 . S
C520 H490 0.950 . S
C520 C519 1.524 . S
C520 C521 1.415 . S
C521 H491 0.950 . S
C521 C516 1.363 . S
C521 C520 1.415 . S
H522 C519 0.999 . S
H523 C504 0.913 . S
H524 C542 0.951 . S
H525 C544 0.951 . S
H526 C546 0.950 . S
H527 C547 0.950 . S
H528 C549 0.950 . S
H529 C552 0.950 . S
H530 C553 0.950 . S
H531 C555 0.950 . S
H532 C556 0.950 . S
H533 C557 0.951 . S
H534 C559 0.951 . S
H535 C561 0.950 . S
H536 C562 0.950 . S
H537 C564 0.950 . S
H538 C567 0.950 . S
H539 C568 0.950 . S
H540 C570 0.950 . S
H541 C571 0.950 . S
C542 H524 0.951 . S
C542 C543 1.366 . S
C542 C544 1.388 . S
C543 C542 1.366 . S
C543 C547 1.385 . S
C544 H525 0.951 . S
C544 C542 1.388 . S
C544 C545 1.366 . S
C545 C544 1.366 . S
C545 C546 1.414 . S
C545 C548 1.499 . S
C546 H526 0.950 . S
C546 C545 1.414 . S
C546 C547 1.374 . S
C547 H527 0.950 . S
C547 C543 1.385 . S
C547 C546 1.374 . S
C548 C545 1.499 . S
C548 C549 1.373 . S
C548 C550 1.389 . S
C549 H528 0.950 . S
C549 C548 1.373 . S
C549 C565 1.377 . S
C550 C548 1.389 . S
C550 C551 1.524 . S
C550 C564 1.377 . S
C551 C550 1.524 . S
C551 C552 1.397 . S
C551 C556 1.363 . S
C552 H529 0.950 . S
C552 C551 1.397 . S
C552 C553 1.334 . S
C553 H530 0.950 . S
C553 C552 1.334 . S
C553 C554 1.287 . S
C554 C553 1.287 . S
C554 C555 1.524 . S
C554 H573 0.913 . S
C555 H531 0.950 . S
C555 C554 1.524 . S
C555 C556 1.415 . S
C556 H532 0.950 . S
C556 C551 1.363 . S
C556 C555 1.415 . S
C557 H533 0.951 . S
C557 C558 1.366 . S
C557 C559 1.388 . S
C558 C557 1.366 . S
C558 C562 1.385 . S
C559 H534 0.951 . S
C559 C557 1.388 . S
C559 C560 1.366 . S
C560 C559 1.366 . S
C560 C561 1.414 . S
C560 C563 1.499 . S
C561 H535 0.950 . S
C561 C560 1.414 . S
C561 C562 1.374 . S
C562 H536 0.950 . S
C562 C558 1.385 . S
C562 C561 1.374 . S
C563 C560 1.499 . S
C563 C564 1.373 . S
C563 C565 1.389 . S
C564 H537 0.950 . S
C564 C550 1.377 . S
C564 C563 1.373 . S
C565 C549 1.377 . S
C565 C563 1.389 . S
C565 C566 1.524 . S
C566 C565 1.524 . S
C566 C567 1.397 . S
C566 C571 1.363 . S
C567 H538 0.950 . S
C567 C566 1.397 . S
C567 C568 1.334 . S
C568 H539 0.950 . S
C568 C567 1.334 . S
C568 C569 1.287 . S
C569 C568 1.287 . S
C569 C570 1.524 . S
C569 H572 0.999 . S
C570 H540 0.950 . S
C570 C569 1.524 . S
C570 C571 1.415 . S
C571 H541 0.950 . S
C571 C566 1.363 . S
C571 C570 1.415 . S
H572 C569 0.999 . S
H573 C554 0.913 . S
H574 C592 0.951 . S
H575 C594 0.951 . S
H576 C596 0.950 . S
H577 C597 0.950 . S
H578 C599 0.950 . S
H579 C602 0.950 . S
H580 C603 0.950 . S
H581 C605 0.950 . S
H582 C606 0.950 1_545 S
H583 C607 0.951 . S
H584 C609 0.951 1_556 S
H585 C611 0.950 . S
H586 C612 0.950 . S
H587 C614 0.950 . S
H588 C617 0.950 1_554 S
H589 C618 0.938 1_554 S
H590 C620 0.950 . S
H591 C621 0.950 . S
C592 H574 0.951 . S
C592 C593 1.366 . S
C592 C594 1.388 . S
C593 C592 1.366 . S
C593 C597 1.385 . S
C594 H575 0.951 . S
C594 C592 1.388 . S
C594 C595 1.366 . S
C595 C594 1.366 . S
C595 C596 1.414 . S
C595 C598 1.499 . S
C596 H576 0.950 . S
C596 C595 1.414 . S
C596 C597 1.374 . S
C597 H577 0.950 . S
C597 C593 1.385 . S
C597 C596 1.374 . S
C598 C595 1.499 . S
C598 C599 1.373 1_455 S
C598 C600 1.389 . S
C599 H578 0.950 . S
C599 C598 1.373 1_655 S
C599 C615 1.377 . S
C600 C598 1.389 . S
C600 C601 1.524 1_545 S
C600 C614 1.377 1_556 S
C601 C600 1.524 1_565 S
C601 C602 1.397 . S
C601 C606 1.363 1_556 S
C602 H579 0.950 . S
C602 C601 1.397 . S
C602 C603 1.334 . S
C603 H580 0.950 . S
C603 C602 1.334 . S
C603 C604 1.287 . S
C604 C603 1.287 . S
C604 C605 1.524 1_556 S
C604 H623 0.913 . S
C605 H581 0.950 . S
C605 C604 1.524 1_554 S
C605 C606 1.415 . S
C606 H582 0.950 1_565 S
C606 C601 1.363 1_554 S
C606 C605 1.415 . S
C607 H583 0.951 . S
C607 C608 1.366 . S
C607 C609 1.388 . S
C608 C607 1.366 . S
C608 C612 1.385 . S
C609 H584 0.951 1_554 S
C609 C607 1.388 . S
C609 C610 1.366 . S
C610 C609 1.366 . S
C610 C611 1.414 . S
C610 C613 1.499 1_554 S
C611 H585 0.950 . S
C611 C610 1.414 . S
C611 C612 1.374 . S
C612 H586 0.950 . S
C612 C608 1.385 . S
C612 C611 1.374 . S
C613 C610 1.499 1_556 S
C613 C614 1.373 1_656 S
C613 C615 1.389 . S
C614 H587 0.950 . S
C614 C600 1.377 1_554 S
C614 C613 1.373 1_454 S
C615 C599 1.377 . S
C615 C613 1.389 . S
C615 C616 1.524 . S
C616 C615 1.524 . S
C616 C617 1.397 . S
C616 C621 1.363 . S
C617 H588 0.950 1_556 S
C617 C616 1.397 . S
C617 C618 1.334 . S
C618 H589 0.938 1_556 S
C618 C617 1.334 . S
C618 C619 1.287 . S
C619 C618 1.287 . S
C619 C620 1.524 . S
C619 H622 0.999 . S
C620 H590 0.950 . S
C620 C619 1.524 . S
C620 C621 1.415 . S
C621 H591 0.950 . S
C621 C616 1.363 . S
C621 C620 1.415 . S
H622 C619 0.999 . S
H623 C604 0.913 . S
H624 C642 0.951 . S
H625 C644 0.951 . S
H626 C646 0.950 . S
H627 C647 0.950 . S
H628 C649 0.950 . S
H629 C652 0.950 . S
H630 C653 0.950 . S
H631 C655 0.950 . S
H632 C656 0.950 . S
H633 C657 0.951 . S
H634 C659 0.951 . S
H635 C661 0.950 . S
H636 C662 0.950 . S
H637 C664 0.950 . S
H638 C667 0.950 . S
H639 C668 0.950 . S
H640 C670 0.950 . S
H641 C671 0.950 . S
C642 H624 0.951 . S
C642 C643 1.366 . S
C642 C644 1.388 . S
C643 C642 1.366 . S
C643 C647 1.385 . S
C644 H625 0.951 . S
C644 C642 1.388 . S
C644 C645 1.366 . S
C645 C644 1.366 . S
C645 C646 1.414 . S
C645 C648 1.499 . S
C646 H626 0.950 . S
C646 C645 1.414 . S
C646 C647 1.374 . S
C647 H627 0.950 . S
C647 C643 1.385 . S
C647 C646 1.374 . S
C648 C645 1.499 . S
C648 C649 1.373 . S
C648 C650 1.389 . S
C649 H628 0.950 . S
C649 C648 1.373 . S
C649 C665 1.377 . S
C650 C648 1.389 . S
C650 C651 1.524 . S
C650 C664 1.377 . S
C651 C650 1.524 . S
C651 C652 1.397 . S
C651 C656 1.363 . S
C652 H629 0.950 . S
C652 C651 1.397 . S
C652 C653 1.334 . S
C653 H630 0.950 . S
C653 C652 1.334 . S
C653 C654 1.287 . S
C654 C653 1.287 . S
C654 C655 1.524 . S
C654 H673 0.913 . S
C655 H631 0.950 . S
C655 C654 1.524 . S
C655 C656 1.415 . S
C656 H632 0.950 . S
C656 C651 1.363 . S
C656 C655 1.415 . S
C657 H633 0.951 . S
C657 C658 1.366 . S
C657 C659 1.388 . S
C658 C657 1.366 . S
C658 C662 1.385 . S
C659 H634 0.951 . S
C659 C657 1.388 . S
C659 C660 1.366 . S
C660 C659 1.366 . S
C660 C661 1.414 . S
C660 C663 1.499 . S
C661 H635 0.950 . S
C661 C660 1.414 . S
C661 C662 1.374 . S
C662 H636 0.950 . S
C662 C658 1.385 . S
C662 C661 1.374 . S
C663 C660 1.499 . S
C663 C664 1.373 . S
C663 C665 1.389 . S
C664 H637 0.950 . S
C664 C650 1.377 . S
C664 C663 1.373 . S
C665 C649 1.377 . S
C665 C663 1.389 . S
C665 C666 1.524 . S
C666 C665 1.524 . S
C666 C667 1.397 . S
C666 C671 1.363 . S
C667 H638 0.950 . S
C667 C666 1.397 . S
C667 C668 1.334 . S
C668 H639 0.950 . S
C668 C667 1.334 . S
C668 C669 1.287 . S
C669 C668 1.287 . S
C669 C670 1.524 . S
C669 H672 0.999 . S
C670 H640 0.950 . S
C670 C669 1.524 . S
C670 C671 1.415 . S
C671 H641 0.950 . S
C671 C666 1.363 . S
C671 C670 1.415 . S
H672 C669 0.999 . S
H673 C654 0.913 . S
H674 C692 0.951 . S
H675 C694 0.951 . S
H676 C696 0.950 . S
H677 C697 0.950 . S
H678 C699 0.950 . S
H679 C702 0.950 . S
H680 C703 0.950 . S
H681 C705 0.950 . S
H682 C706 0.950 . S
H683 C707 0.951 . S
H684 C709 0.951 . S
H685 C711 0.950 . S
H686 C712 0.950 . S
H687 C714 0.950 . S
H688 C717 0.950 . S
H689 C718 0.950 . S
H690 C720 0.950 . S
H691 C721 0.950 . S
C692 H674 0.951 . S
C692 C693 1.366 . S
C692 C694 1.388 . S
C693 C692 1.366 . S
C693 C697 1.385 . S
C694 H675 0.951 . S
C694 C692 1.388 . S
C694 C695 1.366 . S
C695 C694 1.366 . S
C695 C696 1.414 . S
C695 C698 1.499 . S
C696 H676 0.950 . S
C696 C695 1.414 . S
C696 C697 1.374 . S
C697 H677 0.950 . S
C697 C693 1.385 . S
C697 C696 1.374 . S
C698 C695 1.499 . S
C698 C699 1.373 . S
C698 C700 1.389 . S
C699 H678 0.950 . S
C699 C698 1.373 . S
C699 C715 1.377 . S
C700 C698 1.389 . S
C700 C701 1.524 . S
C700 C714 1.377 . S
C701 C700 1.524 . S
C701 C702 1.397 . S
C701 C706 1.363 . S
C702 H679 0.950 . S
C702 C701 1.397 . S
C702 C703 1.334 . S
C703 H680 0.950 . S
C703 C702 1.334 . S
C703 C704 1.287 . S
C704 C703 1.287 . S
C704 C705 1.524 . S
C704 H723 0.913 . S
C705 H681 0.950 . S
C705 C704 1.524 . S
C705 C706 1.415 . S
C706 H682 0.950 . S
C706 C701 1.363 . S
C706 C705 1.415 . S
C707 H683 0.951 . S
C707 C708 1.366 . S
C707 C709 1.388 . S
C708 C707 1.366 . S
C708 C712 1.385 . S
C709 H684 0.951 . S
C709 C707 1.388 . S
C709 C710 1.366 . S
C710 C709 1.366 . S
C710 C711 1.414 . S
C710 C713 1.499 . S
C711 H685 0.950 . S
C711 C710 1.414 . S
C711 C712 1.374 . S
C712 H686 0.950 . S
C712 C708 1.385 . S
C712 C711 1.374 . S
C713 C710 1.499 . S
C713 C714 1.373 . S
C713 C715 1.389 . S
C714 H687 0.950 . S
C714 C700 1.377 . S
C714 C713 1.373 . S
C715 C699 1.377 . S
C715 C713 1.389 . S
C715 C716 1.524 . S
C716 C715 1.524 . S
C716 C717 1.397 . S
C716 C721 1.363 . S
C717 H688 0.950 . S
C717 C716 1.397 . S
C717 C718 1.334 . S
C718 H689 0.950 . S
C718 C717 1.334 . S
C718 C719 1.287 . S
C719 C718 1.287 . S
C719 C720 1.524 . S
C719 H722 0.999 . S
C720 H690 0.950 . S
C720 C719 1.524 . S
C720 C721 1.415 . S
C721 H691 0.950 . S
C721 C716 1.363 . S
C721 C720 1.415 . S
H722 C719 0.999 . S
H723 C704 0.913 . S
H724 C742 0.951 . S
H725 C744 0.951 . S
H726 C746 0.950 . S
H727 C747 0.950 . S
H728 C749 0.950 . S
H729 C752 0.950 . S
H730 C753 0.950 . S
H731 C755 0.950 . S
H732 C756 0.950 . S
H733 C757 0.951 . S
H734 C759 0.951 . S
H735 C761 0.950 . S
H736 C762 0.950 . S
H737 C764 0.950 . S
H738 C767 0.950 . S
H739 C768 0.950 . S
H740 C770 0.950 . S
H741 C771 0.950 . S
C742 H724 0.951 . S
C742 C743 1.366 . S
C742 C744 1.388 . S
C743 C742 1.366 . S
C743 C747 1.385 . S
C744 H725 0.951 . S
C744 C742 1.388 . S
C744 C745 1.366 . S
C745 C744 1.366 . S
C745 C746 1.414 . S
C745 C748 1.499 . S
C746 H726 0.950 . S
C746 C745 1.414 . S
C746 C747 1.374 . S
C747 H727 0.950 . S
C747 C743 1.385 . S
C747 C746 1.374 . S
C748 C745 1.499 . S
C748 C749 1.373 . S
C748 C750 1.389 . S
C749 H728 0.950 . S
C749 C748 1.373 . S
C749 C765 1.377 . S
C750 C748 1.389 . S
C750 C751 1.524 . S
C750 C764 1.377 . S
C751 C750 1.524 . S
C751 C752 1.397 . S
C751 C756 1.363 . S
C752 H729 0.950 . S
C752 C751 1.397 . S
C752 C753 1.334 . S
C753 H730 0.950 . S
C753 C752 1.334 . S
C753 C754 1.287 . S
C754 C753 1.287 . S
C754 C755 1.524 . S
C754 H773 0.913 . S
C755 H731 0.950 . S
C755 C754 1.524 . S
C755 C756 1.415 . S
C756 H732 0.950 . S
C756 C751 1.363 . S
C756 C755 1.415 . S
C757 H733 0.951 . S
C757 C758 1.366 . S
C757 C759 1.388 . S
C758 C757 1.366 . S
C758 C762 1.385 . S
C759 H734 0.951 . S
C759 C757 1.388 . S
C759 C760 1.366 . S
C760 C759 1.366 . S
C760 C761 1.414 . S
C760 C763 1.499 . S
C761 H735 0.950 . S
C761 C760 1.414 . S
C761 C762 1.374 . S
C762 H736 0.950 . S
C762 C758 1.385 . S
C762 C761 1.374 . S
C763 C760 1.499 . S
C763 C764 1.373 . S
C763 C765 1.389 . S
C764 H737 0.950 . S
C764 C750 1.377 . S
C764 C763 1.373 . S
C765 C749 1.377 . S
C765 C763 1.389 . S
C765 C766 1.524 . S
C766 C765 1.524 . S
C766 C767 1.397 . S
C766 C771 1.363 . S
C767 H738 0.950 . S
C767 C766 1.397 . S
C767 C768 1.334 . S
C768 H739 0.950 . S
C768 C767 1.334 . S
C768 C769 1.287 . S
C769 C768 1.287 . S
C769 C770 1.524 . S
C769 H772 0.999 . S
C770 H740 0.950 . S
C770 C769 1.524 . S
C770 C771 1.415 . S
C771 H741 0.950 . S
C771 C766 1.363 . S
C771 C770 1.415 . S
H772 C769 0.999 . S
H773 C754 0.913 . S
H774 C792 0.951 . S
H775 C794 0.951 . S
H776 C796 0.950 . S
H777 C797 0.950 . S
H778 C799 0.950 . S
H779 C802 0.950 . S
H780 C803 0.950 . S
H781 C805 0.950 . S
H782 C806 0.950 . S
H783 C807 0.951 . S
H784 C809 0.951 . S
H785 C811 0.950 . S
H786 C812 0.950 . S
H787 C814 0.950 . S
H788 C817 0.950 . S
H789 C818 0.950 . S
H790 C820 0.950 . S
H791 C821 0.950 . S
C792 H774 0.951 . S
C792 C793 1.366 . S
C792 C794 1.388 . S
C793 C792 1.366 . S
C793 C797 1.385 . S
C794 H775 0.951 . S
C794 C792 1.388 . S
C794 C795 1.366 . S
C795 C794 1.366 . S
C795 C796 1.414 . S
C795 C798 1.499 . S
C796 H776 0.950 . S
C796 C795 1.414 . S
C796 C797 1.374 . S
C797 H777 0.950 . S
C797 C793 1.385 . S
C797 C796 1.374 . S
C798 C795 1.499 . S
C798 C799 1.373 . S
C798 C800 1.389 . S
C799 H778 0.950 . S
C799 C798 1.373 . S
C799 C815 1.377 . S
C800 C798 1.389 . S
C800 C801 1.524 . S
C800 C814 1.377 . S
C801 C800 1.524 . S
C801 C802 1.397 . S
C801 C806 1.363 . S
C802 H779 0.950 . S
C802 C801 1.397 . S
C802 C803 1.334 . S
C803 H780 0.950 . S
C803 C802 1.334 . S
C803 C804 1.287 . S
C804 C803 1.287 . S
C804 C805 1.524 . S
C804 H823 0.913 . S
C805 H781 0.950 . S
C805 C804 1.524 . S
C805 C806 1.415 . S
C806 H782 0.950 . S
C806 C801 1.363 . S
C806 C805 1.415 . S
C807 H783 0.951 . S
C807 C808 1.366 . S
C807 C809 1.388 . S
C808 C807 1.366 . S
C808 C812 1.385 . S
C809 H784 0.951 . S
C809 C807 1.388 . S
C809 C810 1.366 . S
C810 C809 1.366 . S
C810 C811 1.414 . S
C810 C813 1.499 . S
C811 H785 0.950 . S
C811 C810 1.414 . S
C811 C812 1.374 . S
C812 H786 0.950 . S
C812 C808 1.385 . S
C812 C811 1.374 . S
C813 C810 1.499 . S
C813 C814 1.373 . S
C813 C815 1.389 . S
C814 H787 0.950 . S
C814 C800 1.377 . S
C814 C813 1.373 . S
C815 C799 1.377 . S
C815 C813 1.389 . S
C815 C816 1.524 . S
C816 C815 1.524 . S
C816 C817 1.397 . S
C816 C821 1.363 . S
C817 H788 0.950 . S
C817 C816 1.397 . S
C817 C818 1.334 . S
C818 H789 0.950 . S
C818 C817 1.334 . S
C818 C819 1.287 . S
C819 C818 1.287 . S
C819 C820 1.524 . S
C819 H822 0.999 . S
C820 H790 0.950 . S
C820 C819 1.524 . S
C820 C821 1.415 . S
C821 H791 0.950 . S
C821 C816 1.363 . S
C821 C820 1.415 . S
H822 C819 0.999 . S
H823 C804 0.913 . S
H824 C842 0.951 . S
H825 C844 0.951 . S
H826 C846 0.950 . S
H827 C847 0.950 . S
H828 C849 0.950 . S
H829 C852 0.950 . S
H830 C853 0.950 . S
H831 C855 0.950 . S
H832 C856 0.950 . S
H833 C857 0.951 . S
H834 C859 0.951 . S
H835 C861 0.950 . S
H836 C862 0.950 . S
H837 C864 0.950 . S
H838 C867 0.950 . S
H839 C868 0.950 . S
H840 C870 0.950 . S
H841 C871 0.950 . S
C842 H824 0.951 . S
C842 C843 1.366 . S
C842 C844 1.388 . S
C843 C842 1.366 . S
C843 C847 1.385 . S
C844 H825 0.951 . S
C844 C842 1.388 . S
C844 C845 1.366 . S
C845 C844 1.366 . S
C845 C846 1.414 . S
C845 C848 1.499 . S
C846 H826 0.950 . S
C846 C845 1.414 . S
C846 C847 1.374 . S
C847 H827 0.950 . S
C847 C843 1.385 . S
C847 C846 1.374 . S
C848 C845 1.499 . S
C848 C849 1.373 1_554 S
C848 C850 1.389 . S
C849 H828 0.950 . S
C849 C848 1.373 1_556 S
C849 C865 1.377 . S
C850 C848 1.389 . S
C850 C851 1.524 . S
C850 C864 1.377 1_554 S
C851 C850 1.524 . S
C851 C852 1.397 . S
C851 C856 1.363 . S
C852 H829 0.950 . S
C852 C851 1.397 . S
C852 C853 1.334 . S
C853 H830 0.950 . S
C853 C852 1.334 . S
C853 C854 1.287 . S
C854 C853 1.287 . S
C854 C855 1.524 . S
C854 H873 0.913 . S
C855 H831 0.950 . S
C855 C854 1.524 . S
C855 C856 1.415 . S
C856 H832 0.950 . S
C856 C851 1.363 . S
C856 C855 1.415 . S
C857 H833 0.951 . S
C857 C858 1.366 . S
C857 C859 1.388 . S
C858 C857 1.366 . S
C858 C862 1.385 . S
C859 H834 0.951 . S
C859 C857 1.388 . S
C859 C860 1.366 . S
C860 C859 1.366 . S
C860 C861 1.414 . S
C860 C863 1.499 . S
C861 H835 0.950 . S
C861 C860 1.414 . S
C861 C862 1.374 . S
C862 H836 0.950 . S
C862 C858 1.385 . S
C862 C861 1.374 . S
C863 C860 1.499 . S
C863 C864 1.373 . S
C863 C865 1.389 . S
C864 H837 0.950 . S
C864 C850 1.377 1_556 S
C864 C863 1.373 . S
C865 C849 1.377 . S
C865 C863 1.389 . S
C865 C866 1.524 . S
C866 C865 1.524 . S
C866 C867 1.397 . S
C866 C871 1.363 . S
C867 H838 0.950 . S
C867 C866 1.397 . S
C867 C868 1.334 . S
C868 H839 0.950 . S
C868 C867 1.334 . S
C868 C869 1.287 . S
C869 C868 1.287 . S
C869 C870 1.524 . S
C869 H872 0.999 . S
C870 H840 0.950 . S
C870 C869 1.524 . S
C870 C871 1.415 . S
C871 H841 0.950 . S
C871 C866 1.363 . S
C871 C870 1.415 . S
H872 C869 0.999 . S
H873 C854 0.913 . S
H874 C892 0.951 . S
H875 C894 0.951 . S
H876 C896 0.950 . S
H877 C897 0.950 . S
H878 C899 0.950 . S
H879 C902 0.950 . S
H880 C903 0.950 . S
H881 C905 0.950 . S
H882 C906 0.950 . S
H883 C907 0.951 . S
H884 C909 0.951 . S
H885 C911 0.950 . S
H886 C912 0.950 . S
H887 C914 0.938 1_655 S
H888 C917 0.950 . S
H889 C918 0.950 . S
H890 C920 0.950 . S
H891 C921 0.950 . S
C892 H874 0.951 . S
C892 C893 1.366 . S
C892 C894 1.388 . S
C893 C892 1.366 . S
C893 C897 1.385 . S
C894 H875 0.951 . S
C894 C892 1.388 . S
C894 C895 1.366 . S
C895 C894 1.366 . S
C895 C896 1.414 . S
C895 C898 1.499 . S
C896 H876 0.950 . S
C896 C895 1.414 . S
C896 C897 1.374 . S
C897 H877 0.950 . S
C897 C893 1.385 . S
C897 C896 1.374 . S
C898 C895 1.499 . S
C898 C899 1.373 . S
C898 C900 1.389 . S
C899 H878 0.950 . S
C899 C898 1.373 . S
C899 C915 1.377 . S
C900 C898 1.389 . S
C900 C901 1.524 . S
C900 C914 1.409 . S
C901 C900 1.524 . S
C901 C902 1.397 . S
C901 C906 1.363 . S
C902 H879 0.950 . S
C902 C901 1.397 . S
C902 C903 1.334 . S
C903 H880 0.950 . S
C903 C902 1.334 . S
C903 C904 1.287 . S
C904 C903 1.287 . S
C904 C905 1.524 . S
C904 H923 0.913 . S
C905 H881 0.950 . S
C905 C904 1.524 . S
C905 C906 1.415 . S
C906 H882 0.950 . S
C906 C901 1.363 . S
C906 C905 1.415 . S
C907 H883 0.951 . S
C907 C908 1.366 . S
C907 C909 1.388 . S
C908 C907 1.366 . S
C908 C912 1.385 . S
C909 H884 0.951 . S
C909 C907 1.388 . S
C909 C910 1.366 . S
C910 C909 1.366 . S
C910 C911 1.414 . S
C910 C913 1.499 . S
C911 H885 0.950 . S
C911 C910 1.414 . S
C911 C912 1.374 . S
C912 H886 0.950 . S
C912 C908 1.385 . S
C912 C911 1.374 . S
C913 C910 1.499 . S
C913 C914 1.355 1_655 S
C913 C915 1.389 1_655 S
C914 H887 0.938 1_455 S
C914 C900 1.409 . S
C914 C913 1.355 1_455 S
C915 C899 1.377 . S
C915 C913 1.389 1_455 S
C915 C916 1.512 1_455 S
C916 C915 1.512 1_655 S
C916 C917 1.388 1_655 S
C916 C921 1.381 . S
C917 H888 0.950 . S
C917 C916 1.388 1_455 S
C917 C918 1.334 . S
C918 H889 0.950 . S
C918 C917 1.334 . S
C918 C919 1.287 1_455 S
C919 C918 1.287 1_655 S
C919 C920 1.524 . S
C919 H922 0.999 . S
C920 H890 0.950 . S
C920 C919 1.524 . S
C920 C921 1.415 . S
C921 H891 0.950 . S
C921 C916 1.381 . S
C921 C920 1.415 . S
H922 C919 0.999 . S
H923 C904 0.913 . S
H924 C942 0.951 . S
H925 C944 0.951 . S
H926 C946 0.950 1_556 S
H927 C947 0.950 . S
H928 C949 0.950 . S
H929 C952 0.950 . S
H930 C953 0.950 . S
H931 C955 0.950 . S
H932 C956 0.950 . S
H933 C957 0.951 . S
H934 C959 0.951 . S
H935 C961 0.950 . S
H936 C962 0.950 . S
H937 C964 0.950 . S
H938 C967 0.950 . S
H939 C968 0.950 . S
H940 C970 0.950 . S
H941 C971 0.950 . S
C942 H924 0.951 . S
C942 C943 1.366 . S
C942 C944 1.388 . S
C943 C942 1.366 . S
C943 C947 1.385 . S
C944 H925 0.951 . S
C944 C942 1.388 . S
C944 C945 1.366 . S
C945 C944 1.366 . S
C945 C946 1.414 . S
C945 C948 1.499 1_554 S
C946 H926 0.950 1_554 S
C946 C945 1.414 . S
C946 C947 1.374 . S
C947 H927 0.950 . S
C947 C943 1.385 . S
C947 C946 1.374 . S
C948 C945 1.499 1_556 S
C948 C949 1.373 . S
C948 C950 1.392 . S
C949 H928 0.950 . S
C949 C948 1.373 . S
C949 C965 1.377 . S
C950 C948 1.392 . S
C950 C951 1.524 1_456 S
C950 C964 1.374 1_455 S
C951 C950 1.524 1_654 S
C951 C952 1.397 1_655 S
C951 C956 1.363 . S
C952 H929 0.950 . S
C952 C951 1.397 1_455 S
C952 C953 1.334 . S
C953 H930 0.950 . S
C953 C952 1.334 . S
C953 C954 1.287 1_455 S
C954 C953 1.287 1_655 S
C954 C955 1.524 . S
C954 H973 0.913 . S
C955 H931 0.950 . S
C955 C954 1.524 . S
C955 C956 1.415 . S
C956 H932 0.950 . S
C956 C951 1.363 . S
C956 C955 1.415 . S
C957 H933 0.951 . S
C957 C958 1.366 . S
C957 C959 1.388 . S
C958 C957 1.366 . S
C958 C962 1.385 . S
C959 H934 0.951 . S
C959 C957 1.388 . S
C959 C960 1.366 . S
C960 C959 1.366 . S
C960 C961 1.414 . S
C960 C963 1.499 . S
C961 H935 0.950 . S
C961 C960 1.414 . S
C961 C962 1.374 . S
C962 H936 0.950 . S
C962 C958 1.385 . S
C962 C961 1.374 . S
C963 C960 1.499 . S
C963 C964 1.373 . S
C963 C965 1.389 1_655 S
C964 H937 0.950 . S
C964 C950 1.374 1_655 S
C964 C963 1.373 . S
C965 C949 1.377 . S
C965 C963 1.389 1_455 S
C965 C966 1.524 . S
C966 C965 1.524 . S
C966 C967 1.397 1_455 S
C966 C971 1.363 . S
C967 H938 0.950 . S
C967 C966 1.397 1_655 S
C967 C968 1.334 . S
C968 H939 0.950 . S
C968 C967 1.334 . S
C968 C969 1.287 1_655 S
C969 C968 1.287 1_455 S
C969 C970 1.524 . S
C969 H972 0.999 . S
C970 H940 0.950 . S
C970 C969 1.524 . S
C970 C971 1.415 . S
C971 H941 0.950 . S
C971 C966 1.363 . S
C971 C970 1.415 . S
H972 C969 0.999 . S
H973 C954 0.913 . S
H974 C992 0.951 . S
H975 C994 0.951 . S
H976 C996 0.950 . S
H977 C997 0.950 . S
H978 C999 0.950 . S
H979 C1002 0.950 . S
H980 C1003 0.950 . S
H981 C1005 0.950 . S
H982 C1006 0.950 . S
H983 C1007 0.951 . S
H984 C1009 0.951 . S
H985 C1011 0.950 . S
H986 C1012 0.950 . S
H987 C1014 0.950 . S
H988 C1017 0.950 . S
H989 C1018 0.950 . S
H990 C1020 0.950 . S
H991 C1021 0.950 . S
C992 H974 0.951 . S
C992 C993 1.366 . S
C992 C994 1.388 . S
C993 C992 1.366 . S
C993 C997 1.385 . S
C994 H975 0.951 . S
C994 C992 1.388 . S
C994 C995 1.366 . S
C995 C994 1.366 . S
C995 C996 1.414 . S
C995 C998 1.499 . S
C996 H976 0.950 . S
C996 C995 1.414 . S
C996 C997 1.374 . S
C997 H977 0.950 . S
C997 C993 1.385 . S
C997 C996 1.374 . S
C998 C995 1.499 . S
C998 C999 1.373 . S
C998 C1000 1.389 . S
C999 H978 0.950 . S
C999 C998 1.373 . S
C999 C1015 1.377 . S
C1000 C998 1.389 . S
C1000 C1001 1.524 . S
C1000 C1014 1.377 . S
C1001 C1000 1.524 . S
C1001 C1002 1.397 . S
C1001 C1006 1.363 . S
C1002 H979 0.950 . S
C1002 C1001 1.397 . S
C1002 C1003 1.334 . S
C1003 H980 0.950 . S
C1003 C1002 1.334 . S
C1003 C1004 1.287 . S
C1004 C1003 1.287 . S
C1004 C1005 1.524 . S
C1004 H1023 0.913 . S
C1005 H981 0.950 . S
C1005 C1004 1.524 . S
C1005 C1006 1.415 . S
C1006 H982 0.950 . S
C1006 C1001 1.363 . S
C1006 C1005 1.415 . S
C1007 H983 0.951 . S
C1007 C1008 1.366 . S
C1007 C1009 1.388 . S
C1008 C1007 1.366 . S
C1008 C1012 1.385 . S
C1009 H984 0.951 . S
C1009 C1007 1.388 . S
C1009 C1010 1.366 . S
C1010 C1009 1.366 . S
C1010 C1011 1.414 . S
C1010 C1013 1.499 . S
C1011 H985 0.950 . S
C1011 C1010 1.414 . S
C1011 C1012 1.374 . S
C1012 H986 0.950 . S
C1012 C1008 1.385 . S
C1012 C1011 1.374 . S
C1013 C1010 1.499 . S
C1013 C1014 1.373 . S
C1013 C1015 1.389 . S
C1014 H987 0.950 . S
C1014 C1000 1.377 . S
C1014 C1013 1.373 . S
C1015 C999 1.377 . S
C1015 C1013 1.389 . S
C1015 C1016 1.524 . S
C1016 C1015 1.524 . S
C1016 C1017 1.397 . S
C1016 C1021 1.363 . S
C1017 H988 0.950 . S
C1017 C1016 1.397 . S
C1017 C1018 1.334 . S
C1018 H989 0.950 . S
C1018 C1017 1.334 . S
C1018 C1019 1.287 . S
C1019 C1018 1.287 . S
C1019 C1020 1.524 . S
C1019 H1022 0.999 . S
C1020 H990 0.950 . S
C1020 C1019 1.524 . S
C1020 C1021 1.415 . S
C1021 H991 0.950 . S
C1021 C1016 1.363 . S
C1021 C1020 1.415 . S
H1022 C1019 0.999 . S
H1023 C1004 0.913 . S
H1024 C1042 0.951 . S
H1025 C1044 0.951 . S
H1026 C1046 0.950 . S
H1027 C1047 0.950 . S
H1028 C1049 0.950 . S
H1029 C1052 0.950 . S
H1030 C1053 0.950 . S
H1031 C1055 0.950 . S
H1032 C1056 0.950 . S
H1033 C1057 0.951 . S
H1034 C1059 0.951 . S
H1035 C1061 0.950 . S
H1036 C1062 0.950 . S
H1037 C1064 0.950 . S
H1038 C1067 0.950 . S
H1039 C1068 0.951 . S
H1040 C1070 0.950 . S
H1041 C1071 0.950 . S
C1042 H1024 0.951 . S
C1042 C1043 1.366 . S
C1042 C1044 1.388 . S
C1043 C1042 1.366 . S
C1043 C1047 1.385 . S
C1044 H1025 0.951 . S
C1044 C1042 1.388 . S
C1044 C1045 1.366 . S
C1045 C1044 1.366 . S
C1045 C1046 1.414 . S
C1045 C1048 1.499 . S
C1046 H1026 0.950 . S
C1046 C1045 1.414 . S
C1046 C1047 1.374 . S
C1047 H1027 0.950 . S
C1047 C1043 1.385 . S
C1047 C1046 1.374 . S
C1048 C1045 1.499 . S
C1048 C1049 1.373 . S
C1048 C1050 1.389 . S
C1049 H1028 0.950 . S
C1049 C1048 1.373 . S
C1049 C1065 1.377 . S
C1050 C1048 1.389 . S
C1050 C1051 1.524 . S
C1050 C1064 1.377 . S
C1051 C1050 1.524 . S
C1051 C1052 1.397 . S
C1051 C1056 1.363 . S
C1052 H1029 0.950 . S
C1052 C1051 1.397 . S
C1052 C1053 1.334 . S
C1053 H1030 0.950 . S
C1053 C1052 1.334 . S
C1053 C1054 1.287 . S
C1054 C1053 1.287 . S
C1054 C1055 1.524 . S
C1054 H1073 0.913 . S
C1055 H1031 0.950 . S
C1055 C1054 1.524 . S
C1055 C1056 1.415 . S
C1056 H1032 0.950 . S
C1056 C1051 1.363 . S
C1056 C1055 1.415 . S
C1057 H1033 0.951 . S
C1057 C1058 1.366 . S
C1057 C1059 1.388 . S
C1058 C1057 1.366 . S
C1058 C1062 1.385 . S
C1059 H1034 0.951 . S
C1059 C1057 1.388 . S
C1059 C1060 1.366 . S
C1060 C1059 1.366 . S
C1060 C1061 1.414 . S
C1060 C1063 1.499 . S
C1061 H1035 0.950 . S
C1061 C1060 1.414 . S
C1061 C1062 1.374 . S
C1062 H1036 0.950 . S
C1062 C1058 1.385 . S
C1062 C1061 1.374 . S
C1063 C1060 1.499 . S
C1063 C1064 1.373 . S
C1063 C1065 1.389 . S
C1064 H1037 0.950 . S
C1064 C1050 1.377 . S
C1064 C1063 1.373 . S
C1065 C1049 1.377 . S
C1065 C1063 1.389 . S
C1065 C1066 1.524 . S
C1066 C1065 1.524 . S
C1066 C1067 1.397 . S
C1066 C1071 1.363 . S
C1067 H1038 0.950 . S
C1067 C1066 1.397 . S
C1067 C1068 1.334 . S
C1068 H1039 0.951 . S
C1068 C1067 1.334 . S
C1068 C1069 1.287 1_554 S
C1069 C1068 1.287 1_556 S
C1069 C1070 1.524 . S
C1069 H1072 0.999 . S
C1070 H1040 0.950 . S
C1070 C1069 1.524 . S
C1070 C1071 1.415 1_556 S
C1071 H1041 0.950 . S
C1071 C1066 1.363 . S
C1071 C1070 1.415 1_554 S
H1072 C1069 0.999 . S
H1073 C1054 0.913 . S
H1074 C1092 0.951 . S
H1075 C1094 0.951 . S
H1076 C1096 0.950 . S
H1077 C1097 0.950 . S
H1078 C1099 0.950 . S
H1079 C1102 0.950 . S
H1080 C1103 0.950 . S
H1081 C1105 0.950 . S
H1082 C1106 0.950 . S
H1083 C1107 0.951 . S
H1084 C1109 0.951 . S
H1085 C1111 0.950 . S
H1086 C1112 0.946 1_545 S
H1087 C1114 0.950 . S
H1088 C1117 0.950 . S
H1089 C1118 0.950 . S
H1090 C1120 0.950 . S
H1091 C1121 0.950 . S
C1092 H1074 0.951 . S
C1092 C1093 1.366 . S
C1092 C1094 1.388 . S
C1093 C1092 1.366 . S
C1093 C1097 1.385 . S
C1094 H1075 0.951 . S
C1094 C1092 1.388 . S
C1094 C1095 1.366 . S
C1095 C1094 1.366 . S
C1095 C1096 1.414 . S
C1095 C1098 1.499 . S
C1096 H1076 0.950 . S
C1096 C1095 1.414 . S
C1096 C1097 1.374 . S
C1097 H1077 0.950 . S
C1097 C1093 1.385 . S
C1097 C1096 1.374 . S
C1098 C1095 1.499 . S
C1098 C1099 1.373 . S
C1098 C1100 1.389 . S
C1099 H1078 0.950 . S
C1099 C1098 1.373 . S
C1099 C1115 1.377 . S
C1100 C1098 1.389 . S
C1100 C1101 1.524 . S
C1100 C1114 1.377 . S
C1101 C1100 1.524 . S
C1101 C1102 1.397 . S
C1101 C1106 1.363 . S
C1102 H1079 0.950 . S
C1102 C1101 1.397 . S
C1102 C1103 1.334 . S
C1103 H1080 0.950 . S
C1103 C1102 1.334 . S
C1103 C1104 1.287 . S
C1104 C1103 1.287 . S
C1104 C1105 1.524 . S
C1104 H1123 0.913 . S
C1105 H1081 0.950 . S
C1105 C1104 1.524 . S
C1105 C1106 1.415 . S
C1106 H1082 0.950 . S
C1106 C1101 1.363 . S
C1106 C1105 1.415 . S
C1107 H1083 0.951 . S
C1107 C1108 1.366 . S
C1107 C1109 1.388 . S
C1108 C1107 1.366 . S
C1108 C1112 1.386 . S
C1109 H1084 0.951 . S
C1109 C1107 1.388 . S
C1109 C1110 1.366 . S
C1110 C1109 1.366 . S
C1110 C1111 1.414 . S
C1110 C1113 1.499 . S
C1111 H1085 0.950 . S
C1111 C1110 1.414 . S
C1111 C1112 1.376 . S
C1112 H1086 0.946 1_565 S
C1112 C1108 1.386 . S
C1112 C1111 1.376 . S
C1113 C1110 1.499 . S
C1113 C1114 1.373 . S
C1113 C1115 1.389 . S
C1114 H1087 0.950 . S
C1114 C1100 1.377 . S
C1114 C1113 1.373 . S
C1115 C1099 1.377 . S
C1115 C1113 1.389 . S
C1115 C1116 1.524 . S
C1116 C1115 1.524 . S
C1116 C1117 1.397 . S
C1116 C1121 1.363 . S
C1117 H1088 0.950 . S
C1117 C1116 1.397 . S
C1117 C1118 1.334 . S
C1118 H1089 0.950 . S
C1118 C1117 1.334 . S
C1118 C1119 1.287 . S
C1119 C1118 1.287 . S
C1119 C1120 1.524 . S
C1119 H1122 0.999 . S
C1120 H1090 0.950 . S
C1120 C1119 1.524 . S
C1120 C1121 1.415 . S
C1121 H1091 0.950 . S
C1121 C1116 1.363 . S
C1121 C1120 1.415 . S
H1122 C1119 0.999 . S
H1123 C1104 0.913 . S
H1124 C1142 0.951 . S
H1125 C1144 0.951 . S
H1126 C1146 0.950 . S
H1127 C1147 0.950 . S
H1128 C1149 0.950 . S
H1129 C1152 0.950 . S
H1130 C1153 0.950 . S
H1131 C1155 0.950 . S
H1132 C1156 0.950 . S
H1133 C1157 0.951 . S
H1134 C1159 0.951 . S
H1135 C1161 0.950 . S
H1136 C1162 0.950 . S
H1137 C1164 0.950 . S
H1138 C1167 0.950 . S
H1139 C1168 0.950 . S
H1140 C1170 0.950 . S
H1141 C1171 0.950 . S
C1142 H1124 0.951 . S
C1142 C1143 1.366 . S
C1142 C1144 1.388 . S
C1143 C1142 1.366 . S
C1143 C1147 1.385 . S
C1144 H1125 0.951 . S
C1144 C1142 1.388 . S
C1144 C1145 1.366 . S
C1145 C1144 1.366 . S
C1145 C1146 1.414 . S
C1145 C1148 1.499 . S
C1146 H1126 0.950 . S
C1146 C1145 1.414 . S
C1146 C1147 1.374 . S
C1147 H1127 0.950 . S
C1147 C1143 1.385 . S
C1147 C1146 1.374 . S
C1148 C1145 1.499 . S
C1148 C1149 1.373 . S
C1148 C1150 1.389 . S
C1149 H1128 0.950 . S
C1149 C1148 1.373 . S
C1149 C1165 1.377 . S
C1150 C1148 1.389 . S
C1150 C1151 1.524 . S
C1150 C1164 1.377 . S
C1151 C1150 1.524 . S
C1151 C1152 1.397 . S
C1151 C1156 1.363 . S
C1152 H1129 0.950 . S
C1152 C1151 1.397 . S
C1152 C1153 1.334 . S
C1153 H1130 0.950 . S
C1153 C1152 1.334 . S
C1153 C1154 1.287 . S
C1154 C1153 1.287 . S
C1154 C1155 1.524 . S
C1154 H1173 0.913 . S
C1155 H1131 0.950 . S
C1155 C1154 1.524 . S
C1155 C1156 1.415 . S
C1156 H1132 0.950 . S
C1156 C1151 1.363 . S
C1156 C1155 1.415 . S
C1157 H1133 0.951 . S
C1157 C1158 1.366 . S
C1157 C1159 1.388 . S
C1158 C1157 1.366 . S
C1158 C1162 1.385 . S
C1159 H1134 0.951 . S
C1159 C1157 1.388 . S
C1159 C1160 1.366 . S
C1160 C1159 1.366 . S
C1160 C1161 1.414 . S
C1160 C1163 1.499 . S
C1161 H1135 0.950 . S
C1161 C1160 1.414 . S
C1161 C1162 1.374 . S
C1162 H1136 0.950 . S
C1162 C1158 1.385 . S
C1162 C1161 1.374 . S
C1163 C1160 1.499 . S
C1163 C1164 1.373 . S
C1163 C1165 1.389 . S
C1164 H1137 0.950 . S
C1164 C1150 1.377 . S
C1164 C1163 1.373 . S
C1165 C1149 1.377 . S
C1165 C1163 1.389 . S
C1165 C1166 1.524 . S
C1166 C1165 1.524 . S
C1166 C1167 1.397 . S
C1166 C1171 1.363 . S
C1167 H1138 0.950 . S
C1167 C1166 1.397 . S
C1167 C1168 1.334 . S
C1168 H1139 0.950 . S
C1168 C1167 1.334 . S
C1168 C1169 1.287 . S
C1169 C1168 1.287 . S
C1169 C1170 1.524 . S
C1169 H1172 0.999 . S
C1170 H1140 0.950 . S
C1170 C1169 1.524 . S
C1170 C1171 1.415 . S
C1171 H1141 0.950 . S
C1171 C1166 1.363 . S
C1171 C1170 1.415 . S
H1172 C1169 0.999 . S
H1173 C1154 0.913 . S
H1174 C1192 0.951 . S
H1175 C1194 0.951 . S
H1176 C1196 0.950 . S
H1177 C1197 0.950 . S
H1178 C1199 0.950 . S
H1179 C1202 0.950 1_556 S
H1180 C1203 0.950 . S
H1181 C1205 0.950 . S
H1182 C1206 0.950 . S
H1183 C1207 0.951 . S
H1184 C1209 0.951 . S
H1185 C1211 0.950 . S
H1186 C1212 0.950 . S
H1187 C1214 0.950 . S
H1188 C1217 0.950 . S
H1189 C1218 0.950 . S
H1190 C1220 0.950 . S
H1191 C1221 0.950 . S
C1192 H1174 0.951 . S
C1192 C1193 1.366 . S
C1192 C1194 1.388 . S
C1193 C1192 1.366 . S
C1193 C1197 1.385 . S
C1194 H1175 0.951 . S
C1194 C1192 1.388 . S
C1194 C1195 1.366 . S
C1195 C1194 1.366 . S
C1195 C1196 1.414 . S
C1195 C1198 1.499 . S
C1196 H1176 0.950 . S
C1196 C1195 1.414 . S
C1196 C1197 1.374 . S
C1197 H1177 0.950 . S
C1197 C1193 1.385 . S
C1197 C1196 1.374 . S
C1198 C1195 1.499 . S
C1198 C1199 1.373 . S
C1198 C1200 1.389 . S
C1199 H1178 0.950 . S
C1199 C1198 1.373 . S
C1199 C1215 1.377 . S
C1200 C1198 1.389 . S
C1200 C1201 1.524 . S
C1200 C1214 1.377 . S
C1201 C1200 1.524 . S
C1201 C1202 1.397 1_556 S
C1201 C1206 1.363 . S
C1202 H1179 0.950 1_554 S
C1202 C1201 1.397 1_554 S
C1202 C1203 1.334 . S
C1203 H1180 0.950 . S
C1203 C1202 1.334 . S
C1203 C1204 1.287 . S
C1204 C1203 1.287 . S
C1204 C1205 1.524 . S
C1204 H1223 0.913 . S
C1205 H1181 0.950 . S
C1205 C1204 1.524 . S
C1205 C1206 1.415 1_554 S
C1206 H1182 0.950 . S
C1206 C1201 1.363 . S
C1206 C1205 1.415 1_556 S
C1207 H1183 0.951 . S
C1207 C1208 1.366 . S
C1207 C1209 1.388 . S
C1208 C1207 1.366 . S
C1208 C1212 1.385 . S
C1209 H1184 0.951 . S
C1209 C1207 1.388 . S
C1209 C1210 1.366 . S
C1210 C1209 1.366 . S
C1210 C1211 1.414 . S
C1210 C1213 1.499 . S
C1211 H1185 0.950 . S
C1211 C1210 1.414 . S
C1211 C1212 1.374 . S
C1212 H1186 0.950 . S
C1212 C1208 1.385 . S
C1212 C1211 1.374 . S
C1213 C1210 1.499 . S
C1213 C1214 1.373 . S
C1213 C1215 1.389 . S
C1214 H1187 0.950 . S
C1214 C1200 1.377 . S
C1214 C1213 1.373 . S
C1215 C1199 1.377 . S
C1215 C1213 1.389 . S
C1215 C1216 1.524 . S
C1216 C1215 1.524 . S
C1216 C1217 1.397 . S
C1216 C1221 1.363 . S
C1217 H1188 0.950 . S
C1217 C1216 1.397 . S
C1217 C1218 1.334 . S
C1218 H1189 0.950 . S
C1218 C1217 1.334 . S
C1218 C1219 1.287 . S
C1219 C1218 1.287 . S
C1219 C1220 1.524 . S
C1219 H1222 0.999 . S
C1220 H1190 0.950 . S
C1220 C1219 1.524 . S
C1220 C1221 1.415 . S
C1221 H1191 0.950 . S
C1221 C1216 1.363 . S
C1221 C1220 1.415 . S
H1222 C1219 0.999 . S
H1223 C1204 0.913 . S
H1224 C1242 0.951 . S
H1225 C1244 0.951 . S
H1226 C1246 0.950 . S
H1227 C1247 0.950 . S
H1228 C1249 0.950 . S
H1229 C1252 0.950 . S
H1230 C1253 0.950 . S
H1231 C1255 0.950 . S
H1232 C1256 0.950 . S
H1233 C1257 0.951 . S
H1234 C1259 0.951 . S
H1235 C1261 0.950 . S
H1236 C1262 0.950 . S
H1237 C1264 0.950 . S
H1238 C1267 0.950 . S
H1239 C1268 0.950 . S
H1240 C1270 0.950 . S
H1241 C1271 0.950 . S
C1242 H1224 0.951 . S
C1242 C1243 1.366 . S
C1242 C1244 1.388 . S
C1243 C1242 1.366 . S
C1243 C1247 1.385 . S
C1244 H1225 0.951 . S
C1244 C1242 1.388 . S
C1244 C1245 1.366 . S
C1245 C1244 1.366 . S
C1245 C1246 1.414 . S
C1245 C1248 1.499 . S
C1246 H1226 0.950 . S
C1246 C1245 1.414 . S
C1246 C1247 1.374 . S
C1247 H1227 0.950 . S
C1247 C1243 1.385 . S
C1247 C1246 1.374 . S
C1248 C1245 1.499 . S
C1248 C1249 1.373 . S
C1248 C1250 1.389 . S
C1249 H1228 0.950 . S
C1249 C1248 1.373 . S
C1249 C1265 1.377 . S
C1250 C1248 1.389 . S
C1250 C1251 1.524 . S
C1250 C1264 1.377 . S
C1251 C1250 1.524 . S
C1251 C1252 1.397 . S
C1251 C1256 1.363 . S
C1252 H1229 0.950 . S
C1252 C1251 1.397 . S
C1252 C1253 1.334 . S
C1253 H1230 0.950 . S
C1253 C1252 1.334 . S
C1253 C1254 1.287 . S
C1254 C1253 1.287 . S
C1254 C1255 1.524 . S
C1254 H1273 0.913 . S
C1255 H1231 0.950 . S
C1255 C1254 1.524 . S
C1255 C1256 1.415 . S
C1256 H1232 0.950 . S
C1256 C1251 1.363 . S
C1256 C1255 1.415 . S
C1257 H1233 0.951 . S
C1257 C1258 1.366 . S
C1257 C1259 1.388 . S
C1258 C1257 1.366 . S
C1258 C1262 1.385 . S
C1259 H1234 0.951 . S
C1259 C1257 1.388 . S
C1259 C1260 1.366 . S
C1260 C1259 1.366 . S
C1260 C1261 1.414 . S
C1260 C1263 1.499 . S
C1261 H1235 0.950 . S
C1261 C1260 1.414 . S
C1261 C1262 1.374 . S
C1262 H1236 0.950 . S
C1262 C1258 1.385 . S
C1262 C1261 1.374 . S
C1263 C1260 1.499 . S
C1263 C1264 1.373 . S
C1263 C1265 1.389 . S
C1264 H1237 0.950 . S
C1264 C1250 1.377 . S
C1264 C1263 1.373 . S
C1265 C1249 1.377 . S
C1265 C1263 1.389 . S
C1265 C1266 1.524 . S
C1266 C1265 1.524 . S
C1266 C1267 1.397 . S
C1266 C1271 1.363 . S
C1267 H1238 0.950 . S
C1267 C1266 1.397 . S
C1267 C1268 1.334 . S
C1268 H1239 0.950 . S
C1268 C1267 1.334 . S
C1268 C1269 1.287 . S
C1269 C1268 1.287 . S
C1269 C1270 1.524 . S
C1269 H1272 0.999 . S
C1270 H1240 0.950 . S
C1270 C1269 1.524 . S
C1270 C1271 1.415 . S
C1271 H1241 0.950 . S
C1271 C1266 1.363 . S
C1271 C1270 1.415 . S
H1272 C1269 0.999 . S
H1273 C1254 0.913 . S
H1274 C1292 0.951 . S
H1275 C1294 0.951 1_545 S
H1276 C1296 0.950 . S
H1277 C1297 0.950 . S
H1278 C1299 0.950 . S
H1279 C1302 0.950 . S
H1280 C1303 0.950 . S
H1281 C1305 0.950 1_545 S
H1282 C1306 0.950 . S
H1283 C1307 0.951 . S
H1284 C1309 0.951 . S
H1285 C1311 0.950 . S
H1286 C1312 0.950 . S
H1287 C1314 0.950 . S
H1288 C1317 0.950 . S
H1289 C1318 0.950 . S
H1290 C1320 0.950 . S
H1291 C1321 0.950 . S
C1292 H1274 0.951 . S
C1292 C1293 1.366 . S
C1292 C1294 1.388 1_545 S
C1293 C1292 1.366 . S
C1293 C1297 1.385 1_545 S
C1294 H1275 0.951 1_565 S
C1294 C1292 1.388 1_565 S
C1294 C1295 1.366 . S
C1295 C1294 1.366 . S
C1295 C1296 1.414 . S
C1295 C1298 1.499 . S
C1296 H1276 0.950 . S
C1296 C1295 1.414 . S
C1296 C1297 1.374 . S
C1297 H1277 0.950 . S
C1297 C1293 1.385 1_565 S
C1297 C1296 1.374 . S
C1298 C1295 1.499 . S
C1298 C1299 1.373 . S
C1298 C1300 1.389 . S
C1299 H1278 0.950 . S
C1299 C1298 1.373 . S
C1299 C1315 1.377 . S
C1300 C1298 1.389 . S
C1300 C1301 1.524 . S
C1300 C1314 1.377 . S
C1301 C1300 1.524 . S
C1301 C1302 1.397 . S
C1301 C1306 1.363 . S
C1302 H1279 0.950 . S
C1302 C1301 1.397 . S
C1302 C1303 1.334 . S
C1303 H1280 0.950 . S
C1303 C1302 1.334 . S
C1303 C1304 1.287 . S
C1304 C1303 1.287 . S
C1304 C1305 1.524 . S
C1304 H1323 0.913 . S
C1305 H1281 0.950 1_565 S
C1305 C1304 1.524 . S
C1305 C1306 1.415 . S
C1306 H1282 0.950 . S
C1306 C1301 1.363 . S
C1306 C1305 1.415 . S
C1307 H1283 0.951 . S
C1307 C1308 1.366 . S
C1307 C1309 1.388 . S
C1308 C1307 1.366 . S
C1308 C1312 1.385 . S
C1309 H1284 0.951 . S
C1309 C1307 1.388 . S
C1309 C1310 1.366 . S
C1310 C1309 1.366 . S
C1310 C1311 1.414 . S
C1310 C1313 1.499 . S
C1311 H1285 0.950 . S
C1311 C1310 1.414 . S
C1311 C1312 1.374 . S
C1312 H1286 0.950 . S
C1312 C1308 1.385 . S
C1312 C1311 1.374 . S
C1313 C1310 1.499 . S
C1313 C1314 1.373 . S
C1313 C1315 1.389 . S
C1314 H1287 0.950 . S
C1314 C1300 1.377 . S
C1314 C1313 1.373 . S
C1315 C1299 1.377 . S
C1315 C1313 1.389 . S
C1315 C1316 1.524 . S
C1316 C1315 1.524 . S
C1316 C1317 1.397 . S
C1316 C1321 1.363 . S
C1317 H1288 0.950 . S
C1317 C1316 1.397 . S
C1317 C1318 1.334 . S
C1318 H1289 0.950 . S
C1318 C1317 1.334 . S
C1318 C1319 1.287 . S
C1319 C1318 1.287 . S
C1319 C1320 1.524 . S
C1319 H1322 0.999 . S
C1320 H1290 0.950 . S
C1320 C1319 1.524 . S
C1320 C1321 1.415 . S
C1321 H1291 0.950 . S
C1321 C1316 1.363 . S
C1321 C1320 1.415 . S
H1322 C1319 0.999 . S
H1323 C1304 0.913 . S
H1324 C1342 0.951 . S
H1325 C1344 0.951 . S
H1326 C1346 0.950 . S
H1327 C1347 0.950 . S
H1328 C1349 0.950 . S
H1329 C1352 0.950 . S
H1330 C1353 0.950 . S
H1331 C1355 0.934 1_554 S
H1332 C1356 0.950 . S
H1333 C1357 0.951 . S
H1334 C1359 0.951 . S
H1335 C1361 0.950 . S
H1336 C1362 0.950 1_554 S
H1337 C1364 0.950 . S
H1338 C1367 0.950 . S
H1339 C1368 0.950 . S
H1340 C1370 0.950 . S
H1341 C1371 0.950 . S
C1342 H1324 0.951 . S
C1342 C1343 1.366 . S
C1342 C1344 1.388 . S
C1343 C1342 1.366 . S
C1343 C1347 1.385 . S
C1344 H1325 0.951 . S
C1344 C1342 1.388 . S
C1344 C1345 1.366 . S
C1345 C1344 1.366 . S
C1345 C1346 1.414 . S
C1345 C1348 1.499 . S
C1346 H1326 0.950 . S
C1346 C1345 1.414 . S
C1346 C1347 1.374 . S
C1347 H1327 0.950 . S
C1347 C1343 1.385 . S
C1347 C1346 1.374 . S
C1348 C1345 1.499 . S
C1348 C1349 1.373 . S
C1348 C1350 1.389 . S
C1349 H1328 0.950 . S
C1349 C1348 1.373 . S
C1349 C1365 1.377 . S
C1350 C1348 1.389 . S
C1350 C1351 1.524 . S
C1350 C1364 1.377 . S
C1351 C1350 1.524 . S
C1351 C1352 1.397 . S
C1351 C1356 1.363 . S
C1352 H1329 0.950 . S
C1352 C1351 1.397 . S
C1352 C1353 1.334 . S
C1353 H1330 0.950 . S
C1353 C1352 1.334 . S
C1353 C1354 1.287 . S
C1354 C1353 1.287 . S
C1354 C1355 1.524 . S
C1354 H1373 0.913 . S
C1355 H1331 0.934 1_556 S
C1355 C1354 1.524 . S
C1355 C1356 1.415 . S
C1356 H1332 0.950 . S
C1356 C1351 1.363 . S
C1356 C1355 1.415 . S
C1357 H1333 0.951 . S
C1357 C1358 1.366 . S
C1357 C1359 1.388 . S
C1358 C1357 1.366 . S
C1358 C1362 1.385 . S
C1359 H1334 0.951 . S
C1359 C1357 1.388 . S
C1359 C1360 1.366 . S
C1360 C1359 1.366 . S
C1360 C1361 1.414 . S
C1360 C1363 1.499 . S
C1361 H1335 0.950 . S
C1361 C1360 1.414 . S
C1361 C1362 1.374 . S
C1362 H1336 0.950 1_556 S
C1362 C1358 1.385 . S
C1362 C1361 1.374 . S
C1363 C1360 1.499 . S
C1363 C1364 1.373 . S
C1363 C1365 1.389 . S
C1364 H1337 0.950 . S
C1364 C1350 1.377 . S
C1364 C1363 1.373 . S
C1365 C1349 1.377 . S
C1365 C1363 1.389 . S
C1365 C1366 1.524 . S
C1366 C1365 1.524 . S
C1366 C1367 1.397 . S
C1366 C1371 1.363 . S
C1367 H1338 0.950 . S
C1367 C1366 1.397 . S
C1367 C1368 1.334 . S
C1368 H1339 0.950 . S
C1368 C1367 1.334 . S
C1368 C1369 1.287 . S
C1369 C1368 1.287 . S
C1369 C1370 1.524 . S
C1369 H1372 0.999 . S
C1370 H1340 0.950 . S
C1370 C1369 1.524 . S
C1370 C1371 1.415 . S
C1371 H1341 0.950 . S
C1371 C1366 1.363 . S
C1371 C1370 1.415 . S
H1372 C1369 0.999 . S
H1373 C1354 0.913 . S
H1374 C1392 0.951 . S
H1375 C1394 0.951 . S
H1376 C1396 0.950 . S
H1377 C1397 0.950 . S
H1378 C1399 0.950 . S
H1379 C1402 0.950 . S
H1380 C1403 0.950 . S
H1381 C1405 0.950 . S
H1382 C1406 0.950 . S
H1383 C1407 0.951 . S
H1384 C1409 0.951 . S
H1385 C1411 0.950 . S
H1386 C1412 0.950 . S
H1387 C1414 0.950 . S
H1388 C1417 0.950 . S
H1389 C1418 0.950 . S
H1390 C1420 0.950 . S
H1391 C1421 0.950 . S
C1392 H1374 0.951 . S
C1392 C1393 1.366 . S
C1392 C1394 1.388 . S
C1393 C1392 1.366 . S
C1393 C1397 1.385 . S
C1394 H1375 0.951 . S
C1394 C1392 1.388 . S
C1394 C1395 1.366 . S
C1395 C1394 1.366 . S
C1395 C1396 1.414 . S
C1395 C1398 1.499 . S
C1396 H1376 0.950 . S
C1396 C1395 1.414 . S
C1396 C1397 1.374 . S
C1397 H1377 0.950 . S
C1397 C1393 1.385 . S
C1397 C1396 1.374 . S
C1398 C1395 1.499 . S
C1398 C1399 1.373 . S
C1398 C1400 1.389 . S
C1399 H1378 0.950 . S
C1399 C1398 1.373 . S
C1399 C1415 1.377 . S
C1400 C1398 1.389 . S
C1400 C1401 1.524 . S
C1400 C1414 1.377 . S
C1401 C1400 1.524 . S
C1401 C1402 1.397 . S
C1401 C1406 1.363 . S
C1402 H1379 0.950 . S
C1402 C1401 1.397 . S
C1402 C1403 1.334 1_554 S
C1403 H1380 0.950 . S
C1403 C1402 1.334 1_556 S
C1403 C1404 1.287 . S
C1404 C1403 1.287 . S
C1404 C1405 1.524 1_556 S
C1404 H1423 0.913 . S
C1405 H1381 0.950 . S
C1405 C1404 1.524 1_554 S
C1405 C1406 1.415 . S
C1406 H1382 0.950 . S
C1406 C1401 1.363 . S
C1406 C1405 1.415 . S
C1407 H1383 0.951 . S
C1407 C1408 1.366 . S
C1407 C1409 1.388 . S
C1408 C1407 1.366 . S
C1408 C1412 1.385 . S
C1409 H1384 0.951 . S
C1409 C1407 1.388 . S
C1409 C1410 1.366 . S
C1410 C1409 1.366 . S
C1410 C1411 1.414 . S
C1410 C1413 1.499 . S
C1411 H1385 0.950 . S
C1411 C1410 1.414 . S
C1411 C1412 1.374 . S
C1412 H1386 0.950 . S
C1412 C1408 1.385 . S
C1412 C1411 1.374 . S
C1413 C1410 1.499 . S
C1413 C1414 1.373 . S
C1413 C1415 1.389 . S
C1414 H1387 0.950 . S
C1414 C1400 1.377 . S
C1414 C1413 1.373 . S
C1415 C1399 1.377 . S
C1415 C1413 1.389 . S
C1415 C1416 1.524 . S
C1416 C1415 1.524 . S
C1416 C1417 1.397 . S
C1416 C1421 1.363 . S
C1417 H1388 0.950 . S
C1417 C1416 1.397 . S
C1417 C1418 1.334 . S
C1418 H1389 0.950 . S
C1418 C1417 1.334 . S
C1418 C1419 1.287 . S
C1419 C1418 1.287 . S
C1419 C1420 1.524 . S
C1419 H1422 0.999 . S
C1420 H1390 0.950 . S
C1420 C1419 1.524 . S
C1420 C1421 1.415 . S
C1421 H1391 0.950 . S
C1421 C1416 1.363 . S
C1421 C1420 1.415 . S
H1422 C1419 0.999 . S
H1423 C1404 0.913 . S
H1424 C1442 0.951 . S
H1425 C1444 0.951 . S
H1426 C1446 0.950 . S
H1427 C1447 0.950 . S
H1428 C1449 0.950 . S
H1429 C1452 0.950 . S
H1430 C1453 0.950 . S
H1431 C1455 0.950 . S
H1432 C1456 0.950 . S
H1433 C1457 0.951 . S
H1434 C1459 0.951 . S
H1435 C1461 0.950 . S
H1436 C1462 0.950 . S
H1437 C1464 0.950 . S
H1438 C1467 0.950 . S
H1439 C1468 0.950 . S
H1440 C1470 0.950 . S
H1441 C1471 0.950 . S
C1442 H1424 0.951 . S
C1442 C1443 1.366 . S
C1442 C1444 1.388 . S
C1443 C1442 1.366 . S
C1443 C1447 1.385 . S
C1444 H1425 0.951 . S
C1444 C1442 1.388 . S
C1444 C1445 1.366 . S
C1445 C1444 1.366 . S
C1445 C1446 1.414 . S
C1445 C1448 1.499 . S
C1446 H1426 0.950 . S
C1446 C1445 1.414 . S
C1446 C1447 1.374 . S
C1447 H1427 0.950 . S
C1447 C1443 1.385 . S
C1447 C1446 1.374 . S
C1448 C1445 1.499 . S
C1448 C1449 1.373 . S
C1448 C1450 1.389 . S
C1449 H1428 0.950 . S
C1449 C1448 1.373 . S
C1449 C1465 1.377 . S
C1450 C1448 1.389 . S
C1450 C1451 1.524 . S
C1450 C1464 1.377 . S
C1451 C1450 1.524 . S
C1451 C1452 1.397 . S
C1451 C1456 1.363 . S
C1452 H1429 0.950 . S
C1452 C1451 1.397 . S
C1452 C1453 1.334 1_556 S
C1453 H1430 0.950 . S
C1453 C1452 1.334 1_554 S
C1453 C1454 1.287 . S
C1454 C1453 1.287 . S
C1454 C1455 1.524 1_554 S
C1454 H1473 0.913 . S
C1455 H1431 0.950 . S
C1455 C1454 1.524 1_556 S
C1455 C1456 1.415 . S
C1456 H1432 0.950 . S
C1456 C1451 1.363 . S
C1456 C1455 1.415 . S
C1457 H1433 0.951 . S
C1457 C1458 1.366 . S
C1457 C1459 1.388 . S
C1458 C1457 1.366 . S
C1458 C1462 1.385 . S
C1459 H1434 0.951 . S
C1459 C1457 1.388 . S
C1459 C1460 1.366 . S
C1460 C1459 1.366 . S
C1460 C1461 1.414 . S
C1460 C1463 1.499 . S
C1461 H1435 0.950 . S
C1461 C1460 1.414 . S
C1461 C1462 1.374 . S
C1462 H1436 0.950 . S
C1462 C1458 1.385 . S
C1462 C1461 1.374 . S
C1463 C1460 1.499 . S
C1463 C1464 1.373 . S
C1463 C1465 1.389 . S
C1464 H1437 0.950 . S
C1464 C1450 1.377 . S
C1464 C1463 1.373 . S
C1465 C1449 1.377 . S
C1465 C1463 1.389 . S
C1465 C1466 1.524 . S
C1466 C1465 1.524 . S
C1466 C1467 1.397 . S
C1466 C1471 1.363 . S
C1467 H1438 0.950 . S
C1467 C1466 1.397 . S
C1467 C1468 1.334 . S
C1468 H1439 0.950 . S
C1468 C1467 1.334 . S
C1468 C1469 1.287 . S
C1469 C1468 1.287 . S
C1469 C1470 1.524 . S
C1469 H1472 0.999 . S
C1470 H1440 0.950 . S
C1470 C1469 1.524 . S
C1470 C1471 1.415 . S
C1471 H1441 0.950 . S
C1471 C1466 1.363 . S
C1471 C1470 1.415 . S
H1472 C1469 0.999 . S
H1473 C1454 0.913 . S
H1474 C1492 0.951 . S
H1475 C1494 0.951 . S
H1476 C1496 0.950 . S
H1477 C1497 0.950 . S
H1478 C1499 0.950 . S
H1479 C1502 0.950 . S
H1480 C1503 0.950 . S
H1481 C1505 0.950 . S
H1482 C1506 0.950 . S
H1483 C1507 0.951 . S
H1484 C1509 0.951 . S
H1485 C1511 0.950 . S
H1486 C1512 0.950 . S
H1487 C1514 0.950 . S
H1488 C1517 0.950 . S
H1489 C1518 0.950 . S
H1490 C1520 0.950 . S
H1491 C1521 0.950 . S
C1492 H1474 0.951 . S
C1492 C1493 1.366 . S
C1492 C1494 1.388 . S
C1493 C1492 1.366 . S
C1493 C1497 1.385 . S
C1494 H1475 0.951 . S
C1494 C1492 1.388 . S
C1494 C1495 1.366 . S
C1495 C1494 1.366 . S
C1495 C1496 1.414 . S
C1495 C1498 1.499 . S
C1496 H1476 0.950 . S
C1496 C1495 1.414 . S
C1496 C1497 1.374 . S
C1497 H1477 0.950 . S
C1497 C1493 1.385 . S
C1497 C1496 1.374 . S
C1498 C1495 1.499 . S
C1498 C1499 1.373 . S
C1498 C1500 1.389 . S
C1499 H1478 0.950 . S
C1499 C1498 1.373 . S
C1499 C1515 1.377 . S
C1500 C1498 1.389 . S
C1500 C1501 1.524 . S
C1500 C1514 1.377 . S
C1501 C1500 1.524 . S
C1501 C1502 1.397 . S
C1501 C1506 1.363 . S
C1502 H1479 0.950 . S
C1502 C1501 1.397 . S
C1502 C1503 1.334 . S
C1503 H1480 0.950 . S
C1503 C1502 1.334 . S
C1503 C1504 1.287 . S
C1504 C1503 1.287 . S
C1504 C1505 1.524 . S
C1504 H1523 0.913 . S
C1505 H1481 0.950 . S
C1505 C1504 1.524 . S
C1505 C1506 1.415 . S
C1506 H1482 0.950 . S
C1506 C1501 1.363 . S
C1506 C1505 1.415 . S
C1507 H1483 0.951 . S
C1507 C1508 1.366 . S
C1507 C1509 1.388 . S
C1508 C1507 1.366 . S
C1508 C1512 1.385 . S
C1509 H1484 0.951 . S
C1509 C1507 1.388 . S
C1509 C1510 1.366 . S
C1510 C1509 1.366 . S
C1510 C1511 1.414 . S
C1510 C1513 1.499 . S
C1511 H1485 0.950 . S
C1511 C1510 1.414 . S
C1511 C1512 1.374 . S
C1512 H1486 0.950 . S
C1512 C1508 1.385 . S
C1512 C1511 1.374 . S
C1513 C1510 1.499 . S
C1513 C1514 1.373 . S
C1513 C1515 1.389 . S
C1514 H1487 0.950 . S
C1514 C1500 1.377 . S
C1514 C1513 1.373 . S
C1515 C1499 1.377 . S
C1515 C1513 1.389 . S
C1515 C1516 1.524 . S
C1516 C1515 1.524 . S
C1516 C1517 1.397 . S
C1516 C1521 1.363 . S
C1517 H1488 0.950 . S
C1517 C1516 1.397 . S
C1517 C1518 1.334 . S
C1518 H1489 0.950 . S
C1518 C1517 1.334 . S
C1518 C1519 1.287 . S
C1519 C1518 1.287 . S
C1519 C1520 1.524 . S
C1519 H1522 0.999 . S
C1520 H1490 0.950 . S
C1520 C1519 1.524 . S
C1520 C1521 1.415 . S
C1521 H1491 0.950 . S
C1521 C1516 1.363 . S
C1521 C1520 1.415 . S
H1522 C1519 0.999 . S
H1523 C1504 0.913 . S
H1524 C1542 0.951 . S
H1525 C1544 0.951 . S
H1526 C1546 0.950 . S
H1527 C1547 0.950 . S
H1528 C1549 0.950 . S
H1529 C1552 0.950 . S
H1530 C1553 0.950 . S
H1531 C1555 0.950 . S
H1532 C1556 0.950 . S
H1533 C1557 0.951 . S
H1534 C1559 0.951 . S
H1535 C1561 0.950 . S
H1536 C1562 0.950 . S
H1537 C1564 0.950 . S
H1538 C1567 0.950 . S
H1539 C1568 0.950 . S
H1540 C1570 0.950 . S
H1541 C1571 0.950 . S
C1542 H1524 0.951 . S
C1542 C1543 1.366 . S
C1542 C1544 1.388 . S
C1543 C1542 1.366 . S
C1543 C1547 1.385 . S
C1544 H1525 0.951 . S
C1544 C1542 1.388 . S
C1544 C1545 1.366 . S
C1545 C1544 1.366 . S
C1545 C1546 1.414 . S
C1545 C1548 1.499 . S
C1546 H1526 0.950 . S
C1546 C1545 1.414 . S
C1546 C1547 1.374 . S
C1547 H1527 0.950 . S
C1547 C1543 1.385 . S
C1547 C1546 1.374 . S
C1548 C1545 1.499 . S
C1548 C1549 1.373 . S
C1548 C1550 1.389 . S
C1549 H1528 0.950 . S
C1549 C1548 1.373 . S
C1549 C1565 1.377 . S
C1550 C1548 1.389 . S
C1550 C1551 1.524 . S
C1550 C1564 1.377 . S
C1551 C1550 1.524 . S
C1551 C1552 1.397 . S
C1551 C1556 1.363 . S
C1552 H1529 0.950 . S
C1552 C1551 1.397 . S
C1552 C1553 1.334 . S
C1553 H1530 0.950 . S
C1553 C1552 1.334 . S
C1553 C1554 1.287 . S
C1554 C1553 1.287 . S
C1554 C1555 1.524 . S
C1554 H1573 0.913 . S
C1555 H1531 0.950 . S
C1555 C1554 1.524 . S
C1555 C1556 1.415 . S
C1556 H1532 0.950 . S
C1556 C1551 1.363 . S
C1556 C1555 1.415 . S
C1557 H1533 0.951 . S
C1557 C1558 1.366 . S
C1557 C1559 1.388 . S
C1558 C1557 1.366 . S
C1558 C1562 1.385 . S
C1559 H1534 0.951 . S
C1559 C1557 1.388 . S
C1559 C1560 1.366 . S
C1560 C1559 1.366 . S
C1560 C1561 1.414 . S
C1560 C1563 1.499 . S
C1561 H1535 0.950 . S
C1561 C1560 1.414 . S
C1561 C1562 1.374 . S
C1562 H1536 0.950 . S
C1562 C1558 1.385 . S
C1562 C1561 1.374 . S
C1563 C1560 1.499 . S
C1563 C1564 1.373 . S
C1563 C1565 1.389 . S
C1564 H1537 0.950 . S
C1564 C1550 1.377 . S
C1564 C1563 1.373 . S
C1565 C1549 1.377 . S
C1565 C1563 1.389 . S
C1565 C1566 1.524 . S
C1566 C1565 1.524 . S
C1566 C1567 1.397 . S
C1566 C1571 1.363 . S
C1567 H1538 0.950 . S
C1567 C1566 1.397 . S
C1567 C1568 1.334 . S
C1568 H1539 0.950 . S
C1568 C1567 1.334 . S
C1568 C1569 1.287 . S
C1569 C1568 1.287 . S
C1569 C1570 1.524 . S
C1569 H1572 0.999 . S
C1570 H1540 0.950 . S
C1570 C1569 1.524 . S
C1570 C1571 1.415 . S
C1571 H1541 0.950 . S
C1571 C1566 1.363 . S
C1571 C1570 1.415 . S
H1572 C1569 0.999 . S
H1573 C1554 0.913 . S
H1574 C1592 0.929 1_545 S
H1575 C1594 0.951 . S
H1576 C1596 0.950 . S
H1577 C1597 0.959 . S
H1578 C1599 0.950 . S
H1579 C1602 0.950 . S
H1580 C1603 0.950 . S
H1581 C1605 0.949 1_546 S
H1582 C1606 0.950 . S
H1583 C1607 0.951 . S
H1584 C1609 0.951 . S
H1585 C1611 0.950 . S
H1586 C1612 0.950 . S
H1587 C1614 0.950 . S
H1588 C1617 0.950 . S
H1589 C1618 0.950 . S
H1590 C1620 0.950 . S
H1591 C1621 0.950 . S
C1592 H1574 0.929 1_565 S
C1592 C1593 1.351 1_565 S
C1592 C1594 1.428 . S
C1593 C1592 1.351 1_545 S
C1593 C1597 1.385 1_545 S
C1594 H1575 0.951 . S
C1594 C1592 1.428 . S
C1594 C1595 1.366 . S
C1595 C1594 1.366 . S
C1595 C1596 1.414 . S
C1595 C1598 1.499 . S
C1596 H1576 0.950 . S
C1596 C1595 1.414 . S
C1596 C1597 1.374 . S
C1597 H1577 0.959 . S
C1597 C1593 1.385 1_565 S
C1597 C1596 1.374 . S
C1598 C1595 1.499 . S
C1598 C1599 1.373 . S
C1598 C1600 1.389 . S
C1599 H1578 0.950 . S
C1599 C1598 1.373 . S
C1599 C1615 1.377 . S
C1600 C1598 1.389 . S
C1600 C1601 1.524 . S
C1600 C1614 1.377 . S
C1601 C1600 1.524 . S
C1601 C1602 1.397 . S
C1601 C1606 1.363 . S
C1602 H1579 0.950 . S
C1602 C1601 1.397 . S
C1602 C1603 1.334 1_565 S
C1603 H1580 0.950 . S
C1603 C1602 1.334 1_545 S
C1603 C1604 1.287 . S
C1604 C1603 1.287 . S
C1604 C1605 1.524 1_545 S
C1604 H1623 0.913 . S
C1605 H1581 0.949 1_564 S
C1605 C1604 1.524 1_565 S
C1605 C1606 1.415 . S
C1606 H1582 0.950 . S
C1606 C1601 1.363 . S
C1606 C1605 1.415 . S
C1607 H1583 0.951 . S
C1607 C1608 1.366 . S
C1607 C1609 1.388 . S
C1608 C1607 1.366 . S
C1608 C1612 1.385 . S
C1609 H1584 0.951 . S
C1609 C1607 1.388 . S
C1609 C1610 1.366 . S
C1610 C1609 1.366 . S
C1610 C1611 1.414 . S
C1610 C1613 1.499 . S
C1611 H1585 0.950 . S
C1611 C1610 1.414 . S
C1611 C1612 1.374 . S
C1612 H1586 0.950 . S
C1612 C1608 1.385 . S
C1612 C1611 1.374 . S
C1613 C1610 1.499 . S
C1613 C1614 1.373 . S
C1613 C1615 1.389 . S
C1614 H1587 0.950 . S
C1614 C1600 1.377 . S
C1614 C1613 1.373 . S
C1615 C1599 1.377 . S
C1615 C1613 1.389 . S
C1615 C1616 1.524 . S
C1616 C1615 1.524 . S
C1616 C1617 1.397 . S
C1616 C1621 1.363 . S
C1617 H1588 0.950 . S
C1617 C1616 1.397 . S
C1617 C1618 1.334 . S
C1618 H1589 0.950 . S
C1618 C1617 1.334 . S
C1618 C1619 1.287 . S
C1619 C1618 1.287 . S
C1619 C1620 1.524 . S
C1619 H1622 0.999 . S
C1620 H1590 0.950 . S
C1620 C1619 1.524 . S
C1620 C1621 1.415 . S
C1621 H1591 0.950 . S
C1621 C1616 1.363 . S
C1621 C1620 1.415 . S
H1622 C1619 0.999 . S
H1623 C1604 0.913 . S
H1624 C1642 0.951 . S
H1625 C1644 0.951 . S
H1626 C1646 0.950 . S
H1627 C1647 0.950 . S
H1628 C1649 0.950 . S
H1629 C1652 0.950 . S
H1630 C1653 0.950 . S
H1631 C1655 0.950 . S
H1632 C1656 0.950 . S
H1633 C1657 0.951 . S
H1634 C1659 0.951 . S
H1635 C1661 0.950 . S
H1636 C1662 0.950 . S
H1637 C1664 0.950 . S
H1638 C1667 0.950 . S
H1639 C1668 0.950 . S
H1640 C1670 0.950 . S
H1641 C1671 0.950 . S
C1642 H1624 0.951 . S
C1642 C1643 1.366 . S
C1642 C1644 1.388 . S
C1643 C1642 1.366 . S
C1643 C1647 1.385 . S
C1644 H1625 0.951 . S
C1644 C1642 1.388 . S
C1644 C1645 1.366 . S
C1645 C1644 1.366 . S
C1645 C1646 1.414 . S
C1645 C1648 1.499 . S
C1646 H1626 0.950 . S
C1646 C1645 1.414 . S
C1646 C1647 1.374 . S
C1647 H1627 0.950 . S
C1647 C1643 1.385 . S
C1647 C1646 1.374 . S
C1648 C1645 1.499 . S
C1648 C1649 1.373 . S
C1648 C1650 1.389 . S
C1649 H1628 0.950 . S
C1649 C1648 1.373 . S
C1649 C1665 1.377 . S
C1650 C1648 1.389 . S
C1650 C1651 1.524 . S
C1650 C1664 1.377 . S
C1651 C1650 1.524 . S
C1651 C1652 1.397 . S
C1651 C1656 1.363 . S
C1652 H1629 0.950 . S
C1652 C1651 1.397 . S
C1652 C1653 1.334 . S
C1653 H1630 0.950 . S
C1653 C1652 1.334 . S
C1653 C1654 1.287 . S
C1654 C1653 1.287 . S
C1654 C1655 1.524 . S
C1654 H1673 0.913 . S
C1655 H1631 0.950 . S
C1655 C1654 1.524 . S
C1655 C1656 1.415 . S
C1656 H1632 0.950 . S
C1656 C1651 1.363 . S
C1656 C1655 1.415 . S
C1657 H1633 0.951 . S
C1657 C1658 1.366 . S
C1657 C1659 1.388 . S
C1658 C1657 1.366 . S
C1658 C1662 1.385 . S
C1659 H1634 0.951 . S
C1659 C1657 1.388 . S
C1659 C1660 1.366 . S
C1660 C1659 1.366 . S
C1660 C1661 1.414 . S
C1660 C1663 1.499 . S
C1661 H1635 0.950 . S
C1661 C1660 1.414 . S
C1661 C1662 1.374 . S
C1662 H1636 0.950 . S
C1662 C1658 1.385 . S
C1662 C1661 1.374 . S
C1663 C1660 1.499 . S
C1663 C1664 1.373 . S
C1663 C1665 1.389 . S
C1664 H1637 0.950 . S
C1664 C1650 1.377 . S
C1664 C1663 1.373 . S
C1665 C1649 1.377 . S
C1665 C1663 1.389 . S
C1665 C1666 1.524 . S
C1666 C1665 1.524 . S
C1666 C1667 1.397 . S
C1666 C1671 1.363 . S
C1667 H1638 0.950 . S
C1667 C1666 1.397 . S
C1667 C1668 1.334 . S
C1668 H1639 0.950 . S
C1668 C1667 1.334 . S
C1668 C1669 1.287 . S
C1669 C1668 1.287 . S
C1669 C1670 1.524 . S
C1669 H1672 0.999 . S
C1670 H1640 0.950 . S
C1670 C1669 1.524 . S
C1670 C1671 1.415 . S
C1671 H1641 0.950 . S
C1671 C1666 1.363 . S
C1671 C1670 1.415 . S
H1672 C1669 0.999 . S
H1673 C1654 0.913 . S
H1674 C1692 0.951 . S
H1675 C1694 0.951 . S
H1676 C1696 0.950 . S
H1677 C1697 0.950 . S
H1678 C1699 0.950 . S
H1679 C1702 0.950 . S
H1680 C1703 0.950 . S
H1681 C1705 0.950 . S
H1682 C1706 0.950 . S
H1683 C1707 0.951 . S
H1684 C1709 0.951 . S
H1685 C1711 0.950 . S
H1686 C1712 0.950 . S
H1687 C1714 0.950 . S
H1688 C1717 0.950 . S
H1689 C1718 0.950 . S
H1690 C1720 0.950 . S
H1691 C1721 0.950 . S
C1692 H1674 0.951 . S
C1692 C1693 1.366 . S
C1692 C1694 1.388 . S
C1693 C1692 1.366 . S
C1693 C1697 1.385 . S
C1694 H1675 0.951 . S
C1694 C1692 1.388 . S
C1694 C1695 1.366 . S
C1695 C1694 1.366 . S
C1695 C1696 1.414 . S
C1695 C1698 1.499 . S
C1696 H1676 0.950 . S
C1696 C1695 1.414 . S
C1696 C1697 1.374 . S
C1697 H1677 0.950 . S
C1697 C1693 1.385 . S
C1697 C1696 1.374 . S
C1698 C1695 1.499 . S
C1698 C1699 1.373 . S
C1698 C1700 1.389 . S
C1699 H1678 0.950 . S
C1699 C1698 1.373 . S
C1699 C1715 1.377 . S
C1700 C1698 1.389 . S
C1700 C1701 1.524 . S
C1700 C1714 1.377 . S
C1701 C1700 1.524 . S
C1701 C1702 1.397 . S
C1701 C1706 1.363 . S
C1702 H1679 0.950 . S
C1702 C1701 1.397 . S
C1702 C1703 1.334 . S
C1703 H1680 0.950 . S
C1703 C1702 1.334 . S
C1703 C1704 1.287 . S
C1704 C1703 1.287 . S
C1704 C1705 1.524 . S
C1704 H1723 0.913 . S
C1705 H1681 0.950 . S
C1705 C1704 1.524 . S
C1705 C1706 1.415 . S
C1706 H1682 0.950 . S
C1706 C1701 1.363 . S
C1706 C1705 1.415 . S
C1707 H1683 0.951 . S
C1707 C1708 1.366 . S
C1707 C1709 1.388 . S
C1708 C1707 1.366 . S
C1708 C1712 1.385 . S
C1709 H1684 0.951 . S
C1709 C1707 1.388 . S
C1709 C1710 1.366 . S
C1710 C1709 1.366 . S
C1710 C1711 1.414 . S
C1710 C1713 1.499 . S
C1711 H1685 0.950 . S
C1711 C1710 1.414 . S
C1711 C1712 1.374 . S
C1712 H1686 0.950 . S
C1712 C1708 1.385 . S
C1712 C1711 1.374 . S
C1713 C1710 1.499 . S
C1713 C1714 1.373 . S
C1713 C1715 1.389 . S
C1714 H1687 0.950 . S
C1714 C1700 1.377 . S
C1714 C1713 1.373 . S
C1715 C1699 1.377 . S
C1715 C1713 1.389 . S
C1715 C1716 1.524 . S
C1716 C1715 1.524 . S
C1716 C1717 1.397 . S
C1716 C1721 1.363 . S
C1717 H1688 0.950 . S
C1717 C1716 1.397 . S
C1717 C1718 1.334 . S
C1718 H1689 0.950 . S
C1718 C1717 1.334 . S
C1718 C1719 1.287 . S
C1719 C1718 1.287 . S
C1719 C1720 1.524 . S
C1719 H1722 0.999 . S
C1720 H1690 0.950 . S
C1720 C1719 1.524 . S
C1720 C1721 1.415 . S
C1721 H1691 0.950 . S
C1721 C1716 1.363 . S
C1721 C1720 1.415 . S
H1722 C1719 0.999 . S
H1723 C1704 0.913 . S
H1724 C1742 0.951 . S
H1725 C1744 0.951 . S
H1726 C1746 0.950 . S
H1727 C1747 0.950 . S
H1728 C1749 0.950 . S
H1729 C1752 0.950 . S
H1730 C1753 0.950 . S
H1731 C1755 0.950 . S
H1732 C1756 0.950 . S
H1733 C1757 0.951 . S
H1734 C1759 0.951 . S
H1735 C1761 0.950 . S
H1736 C1762 0.950 . S
H1737 C1764 0.950 . S
H1738 C1767 0.950 . S
H1739 C1768 0.950 . S
H1740 C1770 0.950 . S
H1741 C1771 0.950 . S
C1742 H1724 0.951 . S
C1742 C1743 1.366 . S
C1742 C1744 1.388 . S
C1743 C1742 1.366 . S
C1743 C1747 1.385 . S
C1744 H1725 0.951 . S
C1744 C1742 1.388 . S
C1744 C1745 1.366 . S
C1745 C1744 1.366 . S
C1745 C1746 1.414 . S
C1745 C1748 1.499 . S
C1746 H1726 0.950 . S
C1746 C1745 1.414 . S
C1746 C1747 1.374 . S
C1747 H1727 0.950 . S
C1747 C1743 1.385 . S
C1747 C1746 1.374 . S
C1748 C1745 1.499 . S
C1748 C1749 1.373 . S
C1748 C1750 1.389 . S
C1749 H1728 0.950 . S
C1749 C1748 1.373 . S
C1749 C1765 1.377 . S
C1750 C1748 1.389 . S
C1750 C1751 1.524 . S
C1750 C1764 1.377 . S
C1751 C1750 1.524 . S
C1751 C1752 1.397 . S
C1751 C1756 1.363 . S
C1752 H1729 0.950 . S
C1752 C1751 1.397 . S
C1752 C1753 1.334 . S
C1753 H1730 0.950 . S
C1753 C1752 1.334 . S
C1753 C1754 1.287 . S
C1754 C1753 1.287 . S
C1754 C1755 1.524 . S
C1754 H1773 0.913 . S
C1755 H1731 0.950 . S
C1755 C1754 1.524 . S
C1755 C1756 1.415 . S
C1756 H1732 0.950 . S
C1756 C1751 1.363 . S
C1756 C1755 1.415 . S
C1757 H1733 0.951 . S
C1757 C1758 1.366 . S
C1757 C1759 1.388 . S
C1758 C1757 1.366 . S
C1758 C1762 1.385 . S
C1759 H1734 0.951 . S
C1759 C1757 1.388 . S
C1759 C1760 1.366 . S
C1760 C1759 1.366 . S
C1760 C1761 1.414 . S
C1760 C1763 1.499 . S
C1761 H1735 0.950 . S
C1761 C1760 1.414 . S
C1761 C1762 1.374 . S
C1762 H1736 0.950 . S
C1762 C1758 1.385 . S
C1762 C1761 1.374 . S
C1763 C1760 1.499 . S
C1763 C1764 1.373 . S
C1763 C1765 1.389 . S
C1764 H1737 0.950 . S
C1764 C1750 1.377 . S
C1764 C1763 1.373 . S
C1765 C1749 1.377 . S
C1765 C1763 1.389 . S
C1765 C1766 1.524 . S
C1766 C1765 1.524 . S
C1766 C1767 1.397 . S
C1766 C1771 1.363 . S
C1767 H1738 0.950 . S
C1767 C1766 1.397 . S
C1767 C1768 1.334 1_554 S
C1768 H1739 0.950 . S
C1768 C1767 1.334 1_556 S
C1768 C1769 1.287 . S
C1769 C1768 1.287 . S
C1769 C1770 1.524 1_556 S
C1769 H1772 0.999 . S
C1770 H1740 0.950 . S
C1770 C1769 1.524 1_554 S
C1770 C1771 1.415 . S
C1771 H1741 0.950 . S
C1771 C1766 1.363 . S
C1771 C1770 1.415 . S
H1772 C1769 0.999 . S
H1773 C1754 0.913 . S
H1774 C1792 0.951 . S
H1775 C1794 0.951 . S
H1776 C1796 0.950 . S
H1777 C1797 0.950 . S
H1778 C1799 0.950 . S
H1779 C1802 0.959 . S
H1780 C1803 0.950 . S
H1781 C1805 0.950 . S
H1782 C1806 0.950 . S
H1783 C1807 0.951 . S
H1784 C1809 0.951 . S
H1785 C1811 0.950 . S
H1786 C1812 0.950 . S
H1787 C1814 0.950 . S
H1788 C1817 0.950 . S
H1789 C1818 0.950 . S
H1790 C1820 0.950 . S
H1791 C1821 0.950 . S
C1792 H1774 0.951 . S
C1792 C1793 1.366 . S
C1792 C1794 1.388 . S
C1793 C1792 1.366 . S
C1793 C1797 1.385 . S
C1794 H1775 0.951 . S
C1794 C1792 1.388 . S
C1794 C1795 1.366 . S
C1795 C1794 1.366 . S
C1795 C1796 1.414 . S
C1795 C1798 1.499 . S
C1796 H1776 0.950 . S
C1796 C1795 1.414 . S
C1796 C1797 1.374 . S
C1797 H1777 0.950 . S
C1797 C1793 1.385 . S
C1797 C1796 1.374 . S
C1798 C1795 1.499 . S
C1798 C1799 1.373 . S
C1798 C1800 1.389 . S
C1799 H1778 0.950 . S
C1799 C1798 1.373 . S
C1799 C1815 1.377 . S
C1800 C1798 1.389 . S
C1800 C1801 1.524 . S
C1800 C1814 1.377 . S
C1801 C1800 1.524 . S
C1801 C1802 1.408 . S
C1801 C1806 1.363 . S
C1802 H1779 0.959 . S
C1802 C1801 1.408 . S
C1802 C1803 1.314 1_556 S
C1803 H1780 0.950 . S
C1803 C1802 1.314 1_554 S
C1803 C1804 1.287 . S
C1804 C1803 1.287 . S
C1804 C1805 1.524 . S
C1804 H1823 0.913 . S
C1805 H1781 0.950 . S
C1805 C1804 1.524 . S
C1805 C1806 1.415 1_554 S
C1806 H1782 0.950 . S
C1806 C1801 1.363 . S
C1806 C1805 1.415 1_556 S
C1807 H1783 0.951 . S
C1807 C1808 1.366 . S
C1807 C1809 1.388 . S
C1808 C1807 1.366 . S
C1808 C1812 1.385 . S
C1809 H1784 0.951 . S
C1809 C1807 1.388 . S
C1809 C1810 1.366 . S
C1810 C1809 1.366 . S
C1810 C1811 1.414 . S
C1810 C1813 1.499 . S
C1811 H1785 0.950 . S
C1811 C1810 1.414 . S
C1811 C1812 1.374 . S
C1812 H1786 0.950 . S
C1812 C1808 1.385 . S
C1812 C1811 1.374 . S
C1813 C1810 1.499 . S
C1813 C1814 1.373 . S
C1813 C1815 1.389 . S
C1814 H1787 0.950 . S
C1814 C1800 1.377 . S
C1814 C1813 1.373 . S
C1815 C1799 1.377 . S
C1815 C1813 1.389 . S
C1815 C1816 1.524 . S
C1816 C1815 1.524 . S
C1816 C1817 1.397 . S
C1816 C1821 1.363 . S
C1817 H1788 0.950 . S
C1817 C1816 1.397 . S
C1817 C1818 1.334 . S
C1818 H1789 0.950 . S
C1818 C1817 1.334 . S
C1818 C1819 1.287 . S
C1819 C1818 1.287 . S
C1819 C1820 1.524 . S
C1819 H1822 0.999 . S
C1820 H1790 0.950 . S
C1820 C1819 1.524 . S
C1820 C1821 1.415 . S
C1821 H1791 0.950 . S
C1821 C1816 1.363 . S
C1821 C1820 1.415 . S
H1822 C1819 0.999 . S
H1823 C1804 0.913 . S
C243 C6 1.311 . S
C258 C176 1.321 . S
C293 C23 1.882 . S
C308 C79 1.878 . S
C343 C34 1.310 . S
C358 C204 1.321 . S
C393 C107 1.878 . S
C408 C51 1.882 . S
C443 C205 1.878 . S
C458 C36 1.881 . S
C493 C106 1.320 . S
C508 C49 1.311 . S
C543 C177 1.877 . S
C558 C8 1.881 . S
C593 C78 1.321 . S
C608 C21 1.311 . S
C643 C64 1.321 . S
C658 C118 1.310 . S
C693 C92 1.321 . S
C708 C146 1.310 . S
C743 C148 1.881 . S
C758 C93 1.878 . S
C793 C65 1.878 . S
C808 C120 1.882 . S
C843 C191 1.877 . S
C858 C135 1.881 . S
C893 C163 1.882 . S
C908 C219 1.878 . S
C943 C161 1.311 . S
C958 C218 1.321 . S
C993 C133 1.312 . S
C1008 C190 1.321 . S
C1043 C160 1.576 . S
C1058 C7 1.576 . S
C1093 C121 1.399 . S
C1108 C22 1.399 1_565 S
C1143 C35 1.576 . S
C1158 C132 1.576 . S
C1193 C149 1.398 . S
C1208 C50 1.398 . S
C1243 C162 1.398 . S
C1258 C37 1.399 . S
C1293 C48 1.575 . S
C1308 C119 1.575 . S
C1343 C134 1.398 . S
C1358 C9 1.399 . S
C1393 C147 1.576 . S
C1408 C20 1.576 . S
C1443 C62 1.326 . S
C1458 C216 1.327 . S
C1493 C175 1.535 . S
C1508 C77 1.536 . S
C1543 C90 1.326 . S
C1558 C188 1.327 . S
C1593 C105 1.535 . S
C1608 C203 1.535 . S
C1643 C91 1.535 . S
C1658 C217 1.536 . S
C1693 C174 1.326 . S
C1708 C104 1.326 . S
C1743 C189 1.535 . S
C1758 C63 1.536 . S
C1793 C202 1.326 . S
C1808 C76 1.326 . S
