# Generated by pormake.
# Topology wkd, (5)-cn, num edge types: 1
# Building blocks:
#     Node 0, Type 0, BuildingBlock: XOMCOT_clean_sbu_0, # of connection points: 5
#     Node 1, Type 0, BuildingBlock: XOMCOT_clean_sbu_0, # of connection points: 5
#     Node 2, Type 0, BuildingBlock: XOMCOT_clean_sbu_0, # of connection points: 5
#     Node 3, Type 0, BuildingBlock: XOMCOT_clean_sbu_0, # of connection points: 5
#     Node 4, Type 0, BuildingBlock: XOMCOT_clean_sbu_0, # of connection points: 5
#     Node 5, Type 0, BuildingBlock: XOMCOT_clean_sbu_0, # of connection points: 5
#     Node 6, Type 0, BuildingBlock: XOMCOT_clean_sbu_0, # of connection points: 5
#     Node 7, Type 0, BuildingBlock: XOMCOT_clean_sbu_0, # of connection points: 5
#     Node 8, Type 0, BuildingBlock: XOMCOT_clean_sbu_0, # of connection points: 5
#     Node 9, Type 0, BuildingBlock: XOMCOT_clean_sbu_0, # of connection points: 5
#     Node 10, Type 0, BuildingBlock: XOMCOT_clean_sbu_0, # of connection points: 5
#     Node 11, Type 0, BuildingBlock: XOMCOT_clean_sbu_0, # of connection points: 5
#     Edge 12, Type (0, 0), BuildingBlock: XUDNAN_clean_linker_2, # of connection points: 2
#     Edge 13, Type (0, 0), BuildingBlock: XUDNAN_clean_linker_2, # of connection points: 2
#     Edge 14, Type (0, 0), BuildingBlock: XUDNAN_clean_linker_2, # of connection points: 2
#     Edge 15, Type (0, 0), BuildingBlock: XUDNAN_clean_linker_2, # of connection points: 2
#     Edge 16, Type (0, 0), BuildingBlock: XUDNAN_clean_linker_2, # of connection points: 2
#     Edge 17, Type (0, 0), BuildingBlock: XUDNAN_clean_linker_2, # of connection points: 2
#     Edge 18, Type (0, 0), BuildingBlock: XUDNAN_clean_linker_2, # of connection points: 2
#     Edge 19, Type (0, 0), BuildingBlock: XUDNAN_clean_linker_2, # of connection points: 2
#     Edge 20, Type (0, 0), BuildingBlock: XUDNAN_clean_linker_2, # of connection points: 2
#     Edge 21, Type (0, 0), BuildingBlock: XUDNAN_clean_linker_2, # of connection points: 2
#     Edge 22, Type (0, 0), BuildingBlock: XUDNAN_clean_linker_2, # of connection points: 2
#     Edge 23, Type (0, 0), BuildingBlock: XUDNAN_clean_linker_2, # of connection points: 2
#     Edge 24, Type (0, 0), BuildingBlock: XUDNAN_clean_linker_2, # of connection points: 2
#     Edge 25, Type (0, 0), BuildingBlock: XUDNAN_clean_linker_2, # of connection points: 2
#     Edge 26, Type (0, 0), BuildingBlock: XUDNAN_clean_linker_2, # of connection points: 2
#     Edge 27, Type (0, 0), BuildingBlock: XUDNAN_clean_linker_2, # of connection points: 2
#     Edge 28, Type (0, 0), BuildingBlock: XUDNAN_clean_linker_2, # of connection points: 2
#     Edge 29, Type (0, 0), BuildingBlock: XUDNAN_clean_linker_2, # of connection points: 2
#     Edge 30, Type (0, 0), BuildingBlock: XUDNAN_clean_linker_2, # of connection points: 2
#     Edge 31, Type (0, 0), BuildingBlock: XUDNAN_clean_linker_2, # of connection points: 2
#     Edge 32, Type (0, 0), BuildingBlock: XUDNAN_clean_linker_2, # of connection points: 2
#     Edge 33, Type (0, 0), BuildingBlock: XUDNAN_clean_linker_2, # of connection points: 2
#     Edge 34, Type (0, 0), BuildingBlock: XUDNAN_clean_linker_2, # of connection points: 2
#     Edge 35, Type (0, 0), BuildingBlock: XUDNAN_clean_linker_2, # of connection points: 2
#     Edge 36, Type (0, 0), BuildingBlock: XUDNAN_clean_linker_2, # of connection points: 2
#     Edge 37, Type (0, 0), BuildingBlock: XUDNAN_clean_linker_2, # of connection points: 2
#     Edge 38, Type (0, 0), BuildingBlock: XUDNAN_clean_linker_2, # of connection points: 2
#     Edge 39, Type (0, 0), BuildingBlock: XUDNAN_clean_linker_2, # of connection points: 2
#     Edge 40, Type (0, 0), BuildingBlock: XUDNAN_clean_linker_2, # of connection points: 2
#     Edge 41, Type (0, 0), BuildingBlock: XUDNAN_clean_linker_2, # of connection points: 2
# Relax obj value: 0.120
# Max RMSD: 0.193
# Mean RMSD: 0.192
data_MOF--net-wkd--node1-XOMCOT_clean_sbu_0--edge1-XUDNAN_clean_linker_2
_symmetry_space_group_name_H-M    P1
_symmetry_Int_Tables_number       1
_symmetry_cell_setting            triclinic
loop_
_symmetry_equiv_pos_as_xyz
'x, y, z'
_cell_length_a     25.639973
_cell_length_b     25.749552
_cell_length_c     108.97284
_cell_angle_alpha  90.003548
_cell_angle_beta   89.834313
_cell_angle_gamma 119.796
loop_
_atom_site_label
_atom_site_type_symbol
_atom_site_fract_x
_atom_site_fract_y
_atom_site_fract_z
_atom_type_partial_charge
Co0 Co 0.99409 0.28275 0.04965 0.0
C1 C 0.97723 0.36535 0.03338 0.0
C2 C 0.90181 0.27589 0.03311 0.0
C3 C 0.88702 0.31231 0.02657 0.0
N4 N 0.9582 0.3091 0.03739 0.0
N5 N 0.93428 0.36842 0.02681 0.0
H6 H 0.01973 0.40372 0.03592 0.0
H7 H 0.8721 0.22918 0.03523 0.0
C8 C 0.97394 0.16823 0.03819 0.0
O9 O 0.03055 0.18487 0.04032 0.0
N10 N 0.02768 0.25469 0.06245 0.0
C11 C 0.06907 0.28837 0.07098 0.0
C12 C 0.07335 0.25147 0.07957 0.0
C13 C 1.00596 0.19759 0.06636 0.0
N14 N 0.03407 0.19464 0.07654 0.0
C15 C 0.11903 0.35192 0.04358 0.0
C16 C 0.11032 0.31632 0.01941 0.0
C17 C 0.16702 0.35882 0.02395 0.0
C18 C 0.17032 0.37697 0.03621 0.0
C19 C 0.05963 0.29359 0.02705 0.0
N20 N 0.06473 0.30945 0.03915 0.0
H21 H 0.12285 0.36911 0.05271 0.0
H22 H 1.0161 0.26364 0.02316 0.0
H23 H 0.09212 0.33659 0.07151 0.0
H24 H 0.96792 0.15898 0.06237 0.0
O25 O 0.02028 0.35627 0.05837 0.0
O26 O 0.93198 0.27455 0.06116 0.0
O27 O 0.95212 0.20075 0.04183 0.0
C28 C 0.96858 0.33053 0.06391 0.0
H29 H 0.84403 0.29908 0.02235 0.0
H30 H 0.10165 0.26524 0.08763 0.0
H31 H 0.10464 0.30089 0.01002 0.0
H32 H 0.21176 0.41199 0.04009 0.0
Co33 Co 0.71148 0.98332 0.2147 0.0
C34 C 0.59991 0.9577 0.20079 0.0
C35 C 0.61606 0.88375 0.20134 0.0
C36 C 0.56194 0.86523 0.19572 0.0
N37 N 0.64106 0.94223 0.20426 0.0
N38 N 0.55165 0.91164 0.1954 0.0
H39 H 0.60232 0.99968 0.20292 0.0
H40 H 0.63454 0.85536 0.20367 0.0
C41 C 0.75109 0.92811 0.19532 0.0
O42 O 0.73057 0.95054 0.18705 0.0
N43 N 0.78051 0.02083 0.22539 0.0
C44 C 0.80898 0.07739 0.22962 0.0
C45 C 0.85826 0.08597 0.23633 0.0
C46 C 0.81214 0.99564 0.22964 0.0
N47 N 0.8602 0.03446 0.23631 0.0
C48 C 0.72961 0.08604 0.20097 0.0
C49 C 0.84193 0.11719 0.19173 0.0
C50 C 0.81682 0.15323 0.18889 0.0
C51 C 0.76002 0.13714 0.19371 0.0
C52 C 0.80979 0.06623 0.19905 0.0
N53 N 0.75318 0.04977 0.2032 0.0
H54 H 0.68859 0.0778 0.20533 0.0
H55 H 0.83141 0.04109 0.20168 0.0
H56 H 0.79549 0.1103 0.22777 0.0
H57 H 0.80101 0.9502 0.22758 0.0
O58 O 0.67142 0.01574 0.22437 0.0
O59 O 0.66539 0.92786 0.22777 0.0
O60 O 0.74686 0.9369 0.20675 0.0
C61 C 0.64952 0.96699 0.23083 0.0
H62 H 0.53188 0.82056 0.19236 0.0
H63 H 0.8901 0.12698 0.24086 0.0
H64 H 0.88627 0.12856 0.18845 0.0
H65 H 0.7401 0.16522 0.19234 0.0
Co66 Co 0.73651 0.72056 0.38107 0.0
C67 C 0.64812 0.60408 0.36999 0.0
C68 C 0.72282 0.65458 0.35792 0.0
C69 C 0.68342 0.60177 0.35221 0.0
N70 N 0.70066 0.65626 0.36909 0.0
N71 N 0.63685 0.57018 0.35986 0.0
H72 H 0.61811 0.59076 0.3778 0.0
H73 H 0.76481 0.68895 0.3541 0.0
C74 C 0.85372 0.81033 0.3693 0.0
O75 O 0.84366 0.85327 0.37293 0.0
N76 N 0.77225 0.78435 0.39319 0.0
C77 C 0.74531 0.81043 0.39923 0.0
C78 C 0.78653 0.85435 0.40676 0.0
C79 C 0.82898 0.81118 0.39763 0.0
N80 N 0.83945 0.85543 0.40565 0.0
C81 C 0.65721 0.76571 0.37536 0.0
C82 C 0.70679 0.81782 0.35308 0.0
C83 C 0.65723 0.82169 0.35745 0.0
C84 C 0.63177 0.79365 0.36867 0.0
C85 C 0.72936 0.78732 0.35988 0.0
N86 N 0.7072 0.76484 0.37129 0.0
H87 H 0.63504 0.74329 0.38373 0.0
H88 H 0.7638 0.78113 0.35567 0.0
H89 H 0.69884 0.79852 0.39843 0.0
H90 H 0.86254 0.80006 0.39466 0.0
O91 O 0.66789 0.67852 0.39168 0.0
O92 O 0.74814 0.66768 0.39219 0.0
O93 O 0.81574 0.7557 0.37182 0.0
C94 C 0.69491 0.65227 0.39651 0.0
H95 H 0.68926 0.58698 0.34327 0.0
H96 H 0.77795 0.88319 0.41263 0.0
H97 H 0.72813 0.83753 0.34442 0.0
H98 H 0.59134 0.79154 0.37223 0.0
Co99 Co 0.04428 0.73118 0.54815 0.0
C100 C 0.05443 0.64028 0.53295 0.0
C101 C 0.1303 0.72892 0.53105 0.0
C102 C 0.14249 0.68997 0.5248 0.0
N103 N 0.07521 0.69802 0.53615 0.0
N104 N 0.0951 0.63438 0.52605 0.0
H105 H 1.01257 0.60321 0.53624 0.0
H106 H 0.16119 0.77608 0.5324 0.0
C107 C 0.06809 0.84337 0.53513 0.0
O108 O 1.01335 0.83152 0.53791 0.0
N109 N 0.01646 0.76661 0.5607 0.0
C110 C 0.97493 0.73783 0.56958 0.0
C111 C 0.97106 0.77915 0.57695 0.0
C112 C 0.0402 0.82536 0.5635 0.0
N113 N 1.01192 0.83427 0.57307 0.0
C114 C 0.91768 0.67133 0.54339 0.0
C115 C 0.92519 0.69253 0.51842 0.0
C116 C 0.86833 0.65797 0.52382 0.0
C117 C 0.86524 0.64837 0.53652 0.0
C118 C 0.97685 0.71552 0.52572 0.0
N119 N 0.97266 0.70589 0.53813 0.0
H120 H 0.91362 0.65869 0.55286 0.0
H121 H 0.02035 0.73984 0.52133 0.0
H122 H 0.95049 0.69005 0.57106 0.0
H123 H 0.07802 0.8612 0.55878 0.0
O124 O 1.01522 0.65988 0.55783 0.0
O125 O 0.1067 0.73862 0.55937 0.0
O126 O 0.08826 0.80997 0.53907 0.0
C127 C 0.06783 0.68441 0.56292 0.0
H128 H 0.18408 0.70121 0.52011 0.0
H129 H 0.94172 0.76929 0.58482 0.0
H130 H 0.92996 0.69986 0.5086 0.0
H131 H 0.82255 0.62196 0.54115 0.0
Co132 Co 0.31332 0.02541 0.71624 0.0
C133 C 0.43628 0.06829 0.70565 0.0
C134 C 0.37425 0.06791 0.69246 0.0
C135 C 0.42856 0.08664 0.68672 0.0
N136 N 0.379 0.05681 0.70438 0.0
N137 N 0.46757 0.08695 0.69503 0.0
H138 H 0.45438 0.0611 0.71398 0.0
H139 H 0.33372 0.06175 0.68811 0.0
C140 C 0.2276 0.06733 0.70622 0.0
O141 O 0.18312 0.03148 0.71343 0.0
N142 N 0.24783 0.99342 0.72813 0.0
C143 C 0.21187 0.93515 0.73087 0.0
C144 C 0.16702 0.92968 0.73862 0.0
C145 C 0.22671 0.02297 0.73497 0.0
N146 N 0.17544 0.98479 0.74099 0.0
C147 C 0.30017 0.92124 0.70441 0.0
C148 C 0.18672 0.87965 0.69479 0.0
C149 C 0.21498 0.84554 0.69311 0.0
C150 C 0.27276 0.86731 0.69796 0.0
C151 C 0.21561 0.93317 0.70136 0.0
N152 N 0.27159 0.95343 0.70617 0.0
H153 H 0.34445 0.9369 0.70816 0.0
H154 H 0.1915 0.95648 0.70277 0.0
H155 H 0.21639 0.89872 0.7271 0.0
H156 H 0.24488 0.07092 0.73449 0.0
O157 O 0.35534 0.99861 0.72684 0.0
O158 O 0.3633 0.08835 0.72783 0.0
O159 O 0.27836 0.06891 0.70656 0.0
C160 C 0.37876 0.05061 0.73209 0.0
H161 H 0.43858 0.09939 0.67717 0.0
H162 H 0.12962 0.88801 0.74187 0.0
H163 H 0.14239 0.86509 0.69111 0.0
H164 H 0.29624 0.84228 0.69708 0.0
Co165 Co 0.29472 0.31276 0.88304 0.0
C166 C 0.38491 0.41772 0.86887 0.0
C167 C 0.29586 0.40569 0.86768 0.0
C168 C 0.33496 0.45815 0.86187 0.0
N169 N 0.3271 0.38044 0.87207 0.0
N170 N 0.39079 0.46577 0.86267 0.0
H171 H 0.42207 0.4116 0.87161 0.0
H172 H 0.24835 0.38866 0.86913 0.0
C173 C 0.18449 0.22571 0.8694 0.0
O174 O 0.2009 0.18535 0.87113 0.0
N175 N 0.25985 0.24531 0.89449 0.0
C176 C 0.28833 0.22656 0.9022 0.0
C177 C 0.24646 0.1808 0.9094 0.0
C178 C 0.20117 0.21279 0.89773 0.0
N179 N 0.19166 0.17214 0.90656 0.0
C180 C 0.36738 0.26089 0.87673 0.0
C181 C 0.34241 0.2466 0.85194 0.0
C182 C 0.38352 0.2308 0.85669 0.0
C183 C 0.39596 0.23872 0.86926 0.0
C184 C 0.31478 0.26899 0.8598 0.0
N185 N 0.32556 0.27369 0.87216 0.0
H186 H 0.38206 0.27108 0.88606 0.0
H187 H 0.28586 0.28393 0.85586 0.0
H188 H 0.33627 0.24663 0.90325 0.0
H189 H 0.16599 0.21922 0.89388 0.0
O190 O 0.36446 0.35356 0.8932 0.0
O191 O 0.28263 0.36132 0.89525 0.0
O192 O 0.21582 0.27825 0.87387 0.0
C193 C 0.33713 0.37752 0.89887 0.0
H194 H 0.32351 0.48925 0.85765 0.0
H195 H 0.25586 0.15747 0.91655 0.0
H196 H 0.33221 0.24254 0.84223 0.0
H197 H 0.42981 0.23057 0.87329 0.0
Co198 Co 0.72626 0.01923 0.80083 0.0
C199 C 0.66124 0.07699 0.8125 0.0
C200 C 0.70165 0.04657 0.82573 0.0
C201 C 0.67112 0.07005 0.83188 0.0
N202 N 0.69439 0.04954 0.81353 0.0
N203 N 0.64556 0.08898 0.82353 0.0
H204 H 0.64833 0.08809 0.80395 0.0
H205 H 0.72694 0.0279 0.8299 0.0
C206 C 0.85853 0.07114 0.80879 0.0
O207 O 0.86748 0.03597 0.80145 0.0
N208 N 0.75838 0.98958 0.78817 0.0
C209 C 0.73957 0.93179 0.78564 0.0
C210 C 0.77903 0.92905 0.77744 0.0
C211 C 0.80668 0.02125 0.78083 0.0
N212 N 0.8223 0.98535 0.7746 0.0
C213 C 0.647 0.91648 0.81444 0.0
C214 C 0.72631 0.87993 0.82204 0.0
C215 C 0.66551 0.8454 0.8253 0.0
C216 C 0.62581 0.86447 0.82137 0.0
C217 C 0.74578 0.93201 0.81503 0.0
N218 N 0.70627 0.94992 0.81129 0.0
H219 H 0.61528 0.93007 0.81157 0.0
H220 H 0.792 0.95603 0.81243 0.0
H221 H 0.70184 0.89403 0.78999 0.0
H222 H 0.83295 0.0696 0.78099 0.0
O223 O 0.65152 0.98368 0.7921 0.0
O224 O 0.72467 0.07618 0.78895 0.0
O225 O 0.80793 0.06999 0.80901 0.0
C226 C 0.67013 0.03376 0.78634 0.0
H227 H 0.66827 0.0732 0.84174 0.0
H228 H 0.77829 0.88842 0.77462 0.0
H229 H 0.75862 0.86684 0.82486 0.0
H230 H 0.57817 0.83879 0.82337 0.0
Co231 Co 0.71551 0.71616 0.96811 0.0
C232 C 0.60182 0.62458 0.98013 0.0
C233 C 0.64944 0.70236 0.99142 0.0
C234 C 0.59669 0.66321 0.99725 0.0
N235 N 0.65321 0.67814 0.98067 0.0
N236 N 0.56673 0.61469 0.9901 0.0
H237 H 0.58921 0.59367 0.97254 0.0
H238 H 0.68166 0.74623 0.99476 0.0
C239 C 0.80498 0.82964 0.98064 0.0
O240 O 0.8478 0.81889 0.97712 0.0
N241 N 0.77669 0.75491 0.9553 0.0
C242 C 0.79505 0.72839 0.94697 0.0
C243 C 0.83842 0.77136 0.93955 0.0
C244 C 0.80662 0.81364 0.95214 0.0
N245 N 0.84592 0.82496 0.94286 0.0
C246 C 0.77784 0.65027 0.97147 0.0
C247 C 0.81242 0.6827 0.99551 0.0
C248 C 0.82951 0.64551 0.98951 0.0
C249 C 0.81157 0.6289 0.9774 0.0
C250 C 0.77964 0.70415 0.98913 0.0
N251 N 0.76474 0.68997 0.97704 0.0
H252 H 0.76023 0.63249 0.96258 0.0
H253 H 0.76604 0.73171 0.99406 0.0
H254 H 0.77695 0.68095 0.94585 0.0
H255 H 0.80038 0.84771 0.95658 0.0
O256 O 0.67333 0.64746 0.95772 0.0
O257 O 0.65845 0.72516 0.95782 0.0
O258 O 0.75045 0.79411 0.97752 0.0
C259 C 0.64409 0.67262 0.95341 0.0
H260 H 0.58012 0.67111 1.0058 0.0
H261 H 0.86174 0.76365 0.93209 0.0
H262 H 0.82388 0.69466 1.00505 0.0
H263 H 0.82153 0.59772 0.9727 0.0
Co264 Co 0.98923 0.69608 0.13315 0.0
C265 C 0.97372 0.58388 0.14558 0.0
C266 C 0.89768 0.59687 0.14713 0.0
C267 C 0.88225 0.54213 0.152 0.0
N268 N 0.95549 0.62423 0.14333 0.0
N269 N 0.92988 0.53379 0.15099 0.0
H270 H 1.01573 0.58818 0.14256 0.0
H271 H 0.8675 0.61441 0.14589 0.0
C272 C 0.9487 0.72747 0.15582 0.0
O273 O 0.97831 0.70468 0.16135 0.0
N274 N 0.01904 0.76573 0.12266 0.0
C275 C 0.06888 0.78907 0.11562 0.0
C276 C 0.07432 0.83859 0.1096 0.0
C277 C 0.99487 0.80125 0.12088 0.0
N278 N 0.02786 0.84628 0.11294 0.0
C279 C 0.10054 0.71504 0.14338 0.0
C280 C 0.13487 0.82517 0.15386 0.0
C281 C 0.17193 0.79995 0.15532 0.0
C282 C 0.15453 0.74456 0.1498 0.0
C283 C 0.08105 0.79395 0.14735 0.0
N284 N 0.06287 0.73806 0.14275 0.0
H285 H 0.09045 0.67485 0.13852 0.0
H286 H 0.05412 0.81503 0.14598 0.0
H287 H 0.09951 0.77169 0.11502 0.0
H288 H 0.95388 0.79417 0.12524 0.0
O289 O 0.01669 0.65893 0.12158 0.0
O290 O 0.92579 0.64913 0.12138 0.0
O291 O 0.94759 0.7286 0.14406 0.0
C292 C 0.96373 0.63463 0.11668 0.0
H293 H 0.83873 0.51017 0.15573 0.0
H294 H 0.11053 0.86761 0.10348 0.0
H295 H 0.14714 0.8685 0.15772 0.0
H296 H 0.18328 0.72486 0.15011 0.0
Co297 Co 0.30789 0.01156 0.29976 0.0
C298 C 0.39511 0.99869 0.31552 0.0
C299 C 0.30422 0.93524 0.3204 0.0
C300 C 0.34208 0.92383 0.32737 0.0
N301 N 0.33747 0.98217 0.31292 0.0
N302 N 0.39903 0.96335 0.32417 0.0
H303 H 0.43353 0.03428 0.31091 0.0
H304 H 0.2558 0.90862 0.32041 0.0
C305 C 0.18668 0.98008 0.30975 0.0
O306 O 0.19909 0.03485 0.30708 0.0
N307 N 0.27664 0.03867 0.28632 0.0
C308 C 0.30641 0.08635 0.27881 0.0
C309 C 0.26636 0.08839 0.27068 0.0
C310 C 0.21963 0.0104 0.28201 0.0
N311 N 0.2116 0.04076 0.27278 0.0
C312 C 0.36665 0.13569 0.30596 0.0
C313 C 0.32401 0.123 0.32969 0.0
C314 C 0.36644 0.18038 0.32551 0.0
C315 C 0.38772 0.18588 0.31344 0.0
C316 C 0.30512 0.07351 0.32194 0.0
N317 N 0.3247 0.08035 0.31003 0.0
H318 H 0.38771 0.14131 0.29717 0.0
H319 H 0.27604 0.02952 0.32569 0.0
H320 H 0.3542 0.11685 0.2788 0.0
H321 H 0.18425 0.96853 0.28561 0.0
O322 O 0.38488 0.04611 0.29182 0.0
O323 O 0.31168 0.95359 0.28858 0.0
O324 O 0.22372 0.96241 0.30679 0.0
C325 C 0.36716 0.99525 0.28645 0.0
H326 H 0.32878 0.88641 0.33356 0.0
H327 H 0.27703 0.12183 0.26363 0.0
H328 H 0.30651 0.11584 0.33896 0.0
H329 H 0.42303 0.2281 0.30989 0.0
Co330 Co 0.3249 0.29931 0.46572 0.0
C331 C 0.43427 0.38633 0.47997 0.0
C332 C 0.41023 0.29482 0.4827 0.0
C333 C 0.46328 0.33007 0.48861 0.0
N334 N 0.39027 0.3295 0.4776 0.0
N335 N 0.4786 0.3877 0.48692 0.0
H336 H 0.43629 0.42579 0.47606 0.0
H337 H 0.3903 0.2471 0.48143 0.0
C338 C 0.27369 0.20924 0.48572 0.0
O339 O 0.28802 0.25444 0.49318 0.0
N340 N 0.26167 0.26715 0.45363 0.0
C341 C 0.23693 0.29573 0.44782 0.0
C342 C 0.19087 0.25504 0.44051 0.0
C343 C 0.23111 0.20999 0.44972 0.0
N344 N 0.18723 0.2011 0.44173 0.0
C345 C 0.30264 0.38413 0.47833 0.0
C346 C 0.18391 0.30664 0.48442 0.0
C347 C 0.21015 0.36679 0.48801 0.0
C348 C 0.27013 0.40573 0.48467 0.0
C349 C 0.21814 0.28693 0.47796 0.0
N350 N 0.27766 0.32505 0.47544 0.0
H351 H 0.34727 0.41574 0.47532 0.0
H352 H 0.19668 0.24088 0.47496 0.0
H353 H 0.25063 0.3425 0.44901 0.0
H354 H 0.23971 0.17525 0.45296 0.0
O355 O 0.36814 0.37061 0.4561 0.0
O356 O 0.37854 0.29054 0.45422 0.0
O357 O 0.28602 0.21852 0.47425 0.0
C358 C 0.39487 0.34514 0.45077 0.0
H359 H 0.49065 0.31442 0.49305 0.0
H360 H 0.16224 0.26452 0.43476 0.0
H361 H 0.13745 0.275 0.48658 0.0
H362 H 0.29159 0.45317 0.48662 0.0
Co363 Co 0.03575 0.31181 0.63299 0.0
C364 C 0.05855 0.41865 0.64756 0.0
C365 C 0.13169 0.40036 0.64818 0.0
C366 C 0.14856 0.45273 0.65434 0.0
N367 N 0.07541 0.37899 0.64394 0.0
N368 N 0.10283 0.46441 0.65389 0.0
H369 H 1.01623 0.41561 0.64512 0.0
H370 H 0.1596 0.38054 0.64648 0.0
C371 C 0.05727 0.21942 0.64488 0.0
O372 O 1.00071 0.17969 0.64282 0.0
N373 N 0.99918 0.24439 0.62169 0.0
C374 C 0.94282 0.21363 0.61718 0.0
C375 C 0.93848 0.16825 0.60978 0.0
C376 C 0.02861 0.21843 0.61656 0.0
N377 N 0.99242 0.17118 0.60944 0.0
C378 C 0.91495 0.27269 0.64068 0.0
C379 C 0.92327 0.23849 0.66426 0.0
C380 C 0.86785 0.23087 0.66026 0.0
C381 C 0.86484 0.24976 0.64836 0.0
C382 C 0.97276 0.2623 0.65624 0.0
N383 N 0.96722 0.27557 0.64432 0.0
H384 H 0.91174 0.28968 0.63185 0.0
H385 H 1.01565 0.27101 0.65976 0.0
H386 H 0.90684 0.22276 0.6189 0.0
H387 H 0.07531 0.23275 0.61836 0.0
O388 O 1.00908 0.3557 0.62307 0.0
O389 O 0.09598 0.35822 0.62054 0.0
O390 O 0.07822 0.27372 0.6415 0.0
C391 C 0.05967 0.37739 0.61719 0.0
H392 H 0.19165 0.48069 0.65865 0.0
H393 H 0.89868 0.13583 0.60495 0.0
H394 H 0.92861 0.2264 0.6735 0.0
H395 H 0.82446 0.24851 0.64504 0.0
H396 H 0.91356 0.90621 0.99125 0.0
H397 H 0.72823 0.86666 0.98928 0.0
H398 H 0.7507 0.94749 1.00413 0.0
H399 H 0.93261 0.9374 0.02345 0.0
H400 H 1.00928 0.9972 0.02202 0.0
H401 H 0.97909 0.93708 0.01103 0.0
H402 H 1.00749 0.01356 0.99328 0.0
H403 H 0.03819 0.07393 1.0042 0.0
H404 H 0.98099 0.0666 0.99363 0.0
H405 H 0.79338 0.03253 0.01929 0.0
H406 H 0.85361 0.11691 0.03324 0.0
H407 H 1.01058 0.09966 0.02553 0.0
C408 C 0.87771 0.9147 0.99387 0.0
C409 C 0.81911 0.88008 0.98907 0.0
C410 C 0.77349 0.89257 0.99281 0.0
C411 C 0.78578 0.93834 1.00126 0.0
C412 C 0.84385 0.97114 1.00592 0.0
C413 C 0.88911 0.96002 1.00233 0.0
C414 C 0.94764 1.00158 0.00874 0.0
C415 C 0.96835 0.96619 0.01679 0.0
C416 C 0.99645 0.04127 0.9994 0.0
C417 C 0.92827 0.03789 0.01649 0.0
C418 C 0.86824 0.01964 0.01473 0.0
C419 C 0.8404 0.04712 0.02076 0.0
C420 C 0.87501 0.09499 0.02868 0.0
C421 C 0.93681 0.11484 0.03053 0.0
C422 C 0.96339 0.08533 0.02441 0.0
H423 H 0.89414 0.79219 0.14851 0.0
H424 H 0.93473 0.71837 0.18057 0.0
H425 H 0.88774 0.76053 0.19385 0.0
H426 H 0.92299 0.92984 0.16267 0.0
H427 H 0.86233 0.9331 0.15507 0.0
H428 H 0.89791 0.89586 0.1478 0.0
H429 H 0.79465 0.79915 0.14584 0.0
H430 H 0.75869 0.8361 0.15309 0.0
H431 H 0.74897 0.76705 0.15935 0.0
H432 H 0.83936 0.81169 0.20387 0.0
H433 H 0.7899 0.86861 0.21008 0.0
H434 H 0.77875 0.90979 0.17183 0.0
C435 C 0.89271 0.78461 0.15831 0.0
C436 C 0.9182 0.75193 0.16347 0.0
C437 C 0.91575 0.74333 0.17636 0.0
C438 C 0.88905 0.76705 0.18402 0.0
C439 C 0.86481 0.79931 0.17869 0.0
C440 C 0.8661 0.80815 0.16616 0.0
C441 C 0.83719 0.84542 0.16294 0.0
C442 C 0.88284 0.90456 0.15675 0.0
C443 C 0.78156 0.80979 0.15483 0.0
C444 C 0.81977 0.85606 0.17563 0.0
C445 C 0.83625 0.82899 0.18455 0.0
C446 C 0.82593 0.83295 0.19698 0.0
C447 C 0.79784 0.86546 0.20041 0.0
C448 C 0.78023 0.89353 0.19146 0.0
C449 C 0.79136 0.88858 0.1789 0.0
H450 H 0.92773 0.9175 0.358 0.0
H451 H 0.89236 0.73463 0.36083 0.0
H452 H 0.97226 0.75702 0.34553 0.0
H453 H 0.95349 0.9321 0.32563 0.0
H454 H 1.01209 0.00931 0.32638 0.0
H455 H 0.95358 0.97939 0.33784 0.0
H456 H 0.03348 0.01233 0.35503 0.0
H457 H 0.09225 0.04285 0.34364 0.0
H458 H 0.08851 0.9882 0.35447 0.0
H459 H 0.057 0.80026 0.32982 0.0
H460 H 0.13954 0.86083 0.31527 0.0
H461 H 0.11599 0.01379 0.32241 0.0
C462 C 0.93702 0.88219 0.35551 0.0
C463 C 0.90391 0.82435 0.36068 0.0
C464 C 0.91723 0.77935 0.35703 0.0
C465 C 0.96246 0.79161 0.34832 0.0
C466 C 0.99373 0.84896 0.34329 0.0
C467 C 0.98155 0.89348 0.34677 0.0
C468 C 0.02087 0.95115 0.33989 0.0
C469 C 0.98272 0.96901 0.33196 0.0
C470 C 0.06117 1.0016 0.34879 0.0
C471 C 0.05731 0.9323 0.33202 0.0
C472 C 0.04118 0.87326 0.33411 0.0
C473 C 0.06979 0.84647 0.32808 0.0
C474 C 0.11658 0.8812 0.31982 0.0
C475 C 0.13406 0.94196 0.31762 0.0
C476 C 0.10335 0.96732 0.32374 0.0
H477 H 0.19591 0.16619 0.50496 0.0
H478 H 0.28758 0.11544 0.47812 0.0
H479 H 0.2459 0.01595 0.48808 0.0
H480 H 0.21402 0.0934 0.53085 0.0
H481 H 0.14024 0.06925 0.53707 0.0
H482 H 0.17694 0.13595 0.52781 0.0
H483 H 0.08573 0.09289 0.51309 0.0
H484 H 0.04845 0.02629 0.52238 0.0
H485 H 0.05984 0.02048 0.50622 0.0
H486 H 0.20052 0.9254 0.50212 0.0
H487 H 0.14348 0.8451 0.51728 0.0
H488 H 0.0748 0.95248 0.53377 0.0
C489 C 0.20695 0.13395 0.50116 0.0
C490 C 0.24522 0.14828 0.49086 0.0
C491 C 0.25815 0.10498 0.486 0.0
C492 C 0.23498 0.04865 0.49163 0.0
C493 C 0.19808 0.03624 0.50192 0.0
C494 C 0.18313 0.07725 0.50647 0.0
C495 C 0.14111 0.05237 0.51739 0.0
C496 C 0.16982 0.08999 0.52896 0.0
C497 C 0.08017 0.04772 0.5146 0.0
C498 C 0.1354 0.99117 0.51842 0.0
C499 C 0.16925 0.983 0.50952 0.0
C500 C 0.1733 0.93104 0.50902 0.0
C501 C 0.14119 0.88595 0.51771 0.0
C502 C 0.10478 0.89279 0.52662 0.0
C503 C 0.10192 0.94605 0.52696 0.0
H504 H 0.11797 0.0435 0.69772 0.0
H505 H 0.30926 0.16232 0.69226 0.0
H506 H 0.28701 0.21356 0.67552 0.0
H507 H 0.07854 0.02664 0.66583 0.0
H508 H 1.00782 0.02396 0.66848 0.0
H509 H 0.03913 0.99806 0.68015 0.0
H510 H 0.03421 0.07131 0.69581 0.0
H511 H 1.00259 0.0972 0.68422 0.0
H512 H 0.0699 0.14992 0.69215 0.0
H513 H 0.24247 0.25391 0.65986 0.0
H514 H 0.1801 0.27713 0.6461 0.0
H515 H 0.01894 0.12708 0.66124 0.0
C516 C 0.15535 0.08059 0.69309 0.0
C517 C 0.21541 0.09941 0.69638 0.0
C518 C 0.2629 0.1474 0.68991 0.0
C519 C 0.25067 0.17668 0.6804 0.0
C520 C 0.1908 0.15676 0.67738 0.0
C521 C 0.14401 0.1095 0.68349 0.0
C522 C 0.08366 0.09566 0.67838 0.0
C523 C 0.05035 0.03233 0.67288 0.0
C524 C 0.04536 0.10405 0.68823 0.0
C525 C 0.10358 0.14298 0.66849 0.0
C526 C 0.1655 0.17807 0.66809 0.0
C527 C 0.19402 0.22632 0.66002 0.0
C528 C 0.15827 0.23917 0.65225 0.0
C529 C 0.09478 0.20346 0.65251 0.0
C530 C 0.06739 0.15449 0.66067 0.0
H531 H 0.95018 0.0535 0.81608 0.0
H532 H 0.87016 0.16476 0.82307 0.0
H533 H 0.94558 0.21793 0.83937 0.0
H534 H 0.97715 0.03543 0.84734 0.0
H535 H 0.04657 0.03613 0.84422 0.0
H536 H 0.9887 0.00983 0.83273 0.0
H537 H 0.06418 0.08689 0.81717 0.0
H538 H 0.1224 0.11321 0.82859 0.0
H539 H 0.10463 0.16509 0.8212 0.0
H540 H 0.03221 0.25966 0.85483 0.0
H541 H 0.11774 0.28235 0.8686 0.0
H542 H 0.1346 0.13823 0.85201 0.0
C543 C 0.94877 0.08956 0.8209 0.0
C544 C 0.9047 0.10553 0.81818 0.0
C545 C 0.90381 0.15209 0.82494 0.0
C546 C 0.94644 0.18247 0.83421 0.0
C547 C 0.98904 0.16515 0.83669 0.0
C548 C 0.99008 0.11944 0.83026 0.0
C549 C 0.03849 0.10731 0.83496 0.0
C550 C 1.01107 0.04339 0.84012 0.0
C551 C 0.08519 0.11883 0.82488 0.0
C552 C 0.06494 0.15349 0.84504 0.0
C553 C 0.03635 0.18691 0.84586 0.0
C554 C 0.05452 0.23342 0.85431 0.0
C555 C 0.10311 0.246 0.86208 0.0
C556 C 0.13233 0.21162 0.86147 0.0
C557 C 0.11259 0.1647 0.85285 0.0
H558 H 0.05802 0.10847 0.06935 0.0
H559 H 0.98557 0.16444 0.09913 0.0
H560 H 0.96955 0.07639 0.11142 0.0
H561 H 0.96313 0.94649 0.07322 0.0
H562 H 0.02343 0.93167 0.06991 0.0
H563 H 0.0236 0.9956 0.06314 0.0
H564 H 0.12933 0.06507 0.07217 0.0
H565 H 0.12942 1.00143 0.07899 0.0
H566 H 0.14108 0.06371 0.08844 0.0
H567 H 0.96404 0.98342 0.12054 0.0
H568 H 0.97602 0.89722 0.12645 0.0
H569 H 0.05745 0.905 0.09106 0.0
C570 C 0.03787 0.10121 0.07838 0.0
C571 C 0.02199 0.14206 0.08332 0.0
C572 C 0.99728 0.13284 0.09526 0.0
C573 C 0.98804 0.0831 0.10224 0.0
C574 C 1.00465 0.04363 0.09718 0.0
C575 C 0.02953 0.05243 0.08555 0.0
C576 C 0.04772 1.00606 0.08261 0.0
C577 C 1.01234 0.96768 0.07157 0.0
C578 C 0.11593 0.03586 0.08043 0.0
C579 C 0.02932 0.96988 0.09439 0.0
C580 C 1.00388 0.99178 0.10262 0.0
C581 C 0.9838 0.96585 0.11415 0.0
C582 C 0.99051 0.91671 0.11741 0.0
C583 C 0.01777 0.89439 0.10923 0.0
C584 C 0.03695 0.92133 0.09755 0.0
H585 H 0.97664 0.11677 0.24168 0.0
H586 H 0.8462 0.9271 0.24354 0.0
H587 H 0.92312 0.90772 0.25247 0.0
H588 H 0.10426 0.10119 0.23371 0.0
H589 H 0.15625 0.16351 0.24296 0.0
H590 H 0.09106 0.16267 0.2366 0.0
H591 H 0.0584 0.17625 0.25834 0.0
H592 H 0.12369 0.17755 0.26475 0.0
H593 H 0.04983 0.12438 0.27035 0.0
H594 H 1.01423 0.90899 0.26151 0.0
H595 H 0.11214 0.93113 0.27009 0.0
H596 H 0.18285 0.12001 0.26263 0.0
C597 C 0.96396 0.0712 0.24405 0.0
C598 C 0.90509 0.02347 0.24183 0.0
C599 C 0.89098 0.9644 0.24495 0.0
C600 C 0.93438 0.95293 0.2501 0.0
C601 C 0.99193 1.00093 0.25208 0.0
C602 C 1.00678 0.05891 0.24917 0.0
C603 C 0.07183 0.10253 0.25229 0.0
C604 C 0.10797 0.13434 0.2407 0.0
C605 C 0.07617 0.14784 0.26201 0.0
C606 C 0.09114 0.06005 0.25746 0.0
C607 C 0.0444 1.00163 0.25725 0.0
C608 C 0.05115 0.9546 0.26172 0.0
C609 C 0.10694 0.96766 0.26663 0.0
C610 C 0.15547 0.02731 0.26705 0.0
C611 C 0.14718 0.07385 0.26229 0.0
H612 H 0.07453 0.17009 0.434 0.0
H613 H 0.20039 0.10434 0.43706 0.0
H614 H 0.12467 1.00759 0.42825 0.0
H615 H 0.94269 0.03356 0.44194 0.0
H616 H 0.89512 0.04371 0.43121 0.0
H617 H 0.95956 0.10791 0.43761 0.0
H618 H 0.99984 0.14706 0.41573 0.0
H619 H 0.93532 0.08317 0.40926 0.0
H620 H 1.00994 0.09923 0.40506 0.0
H621 H 0.03394 0.91719 0.41898 0.0
H622 H 0.9364 0.84165 0.41024 0.0
H623 H 0.87196 0.9684 0.41307 0.0
C624 C 0.08661 0.13576 0.4327 0.0
C625 C 0.14363 0.14509 0.43625 0.0
C626 C 0.15689 0.09823 0.43456 0.0
C627 C 0.11423 0.04314 0.4295 0.0
C628 C 0.05838 0.03544 0.42616 0.0
C629 C 0.0446 0.08057 0.42769 0.0
C630 C 0.98128 0.06097 0.42349 0.0
C631 C 0.94238 0.06157 0.4342 0.0
C632 C 0.98165 0.09992 0.41274 0.0
C633 C 0.96149 0.99774 0.41936 0.0
C634 C 1.0065 0.98373 0.42094 0.0
C635 C 0.99841 0.92777 0.4177 0.0
C636 C 0.94291 0.88519 0.41269 0.0
C637 C 0.89611 0.89867 0.41101 0.0
C638 C 0.90606 0.95592 0.41442 0.0
H639 H 0.91725 0.05299 0.60495 0.0
H640 H 0.1014 0.19601 0.60042 0.0
H641 H 0.12716 0.12509 0.59056 0.0
H642 H 0.9517 0.93804 0.61221 0.0
H643 H 0.88823 0.88034 0.60407 0.0
H644 H 0.88423 0.9427 0.6105 0.0
H645 H 0.85716 0.96676 0.58914 0.0
H646 H 0.86077 0.90427 0.58266 0.0
H647 H 0.90588 0.97806 0.57624 0.0
H648 H 0.13211 0.03771 0.58093 0.0
H649 H 0.1165 0.94107 0.57296 0.0
H650 H 0.92928 0.85578 0.58405 0.0
C651 C 0.96283 0.06963 0.60175 0.0
C652 C 1.00726 0.13022 0.60341 0.0
C653 C 0.06672 0.14977 0.59933 0.0
C654 C 0.08169 0.10985 0.59367 0.0
C655 C 0.03679 0.05037 0.59222 0.0
C656 C 0.9786 0.03034 0.59618 0.0
C657 C 0.93888 0.96403 0.59378 0.0
C658 C 0.91434 0.92925 0.60586 0.0
C659 C 0.88766 0.95264 0.58493 0.0
C660 C 0.98374 0.9498 0.58782 0.0
C661 C 0.03991 1.00017 0.58694 0.0
C662 C 0.08829 0.99799 0.5816 0.0
C663 C 0.07894 0.94293 0.57704 0.0
C664 C 0.02175 0.89064 0.57792 0.0
C665 C 0.97377 0.89456 0.58341 0.0
H666 H 0.05387 0.9141 0.74091 0.0
H667 H 0.19759 0.08647 0.75303 0.0
H668 H 0.12198 0.10948 0.76184 0.0
H669 H 0.94962 0.96375 0.73257 0.0
H670 H 0.88475 0.89577 0.73774 0.0
H671 H 0.95019 0.89404 0.73223 0.0
H672 H 0.95607 0.84568 0.75266 0.0
H673 H 0.8904 0.84677 0.75818 0.0
H674 H 0.95883 0.88206 0.76698 0.0
H675 H 0.02886 0.11059 0.77017 0.0
H676 H 0.92927 0.08958 0.77751 0.0
H677 H 0.84744 0.91765 0.75901 0.0
C678 C 0.06975 0.95649 0.74553 0.0
C679 C 0.13193 0.99825 0.74641 0.0
C680 C 0.1503 0.05383 0.75225 0.0
C681 C 0.10763 0.06721 0.75727 0.0
C682 C 0.04667 0.02483 0.75623 0.0
C683 C 0.02793 0.97066 0.75046 0.0
C684 C 0.96008 0.93231 0.75061 0.0
C685 C 0.93468 0.92082 0.73751 0.0
C686 C 0.9402 0.87323 0.75752 0.0
C687 C 0.9433 0.9727 0.75761 0.0
C688 C 0.99369 0.02602 0.76073 0.0
C689 C 0.98915 0.06918 0.76765 0.0
C690 C 0.93197 0.05691 0.77172 0.0
C691 C 0.87969 1.00174 0.76889 0.0
C692 C 0.88599 0.96004 0.76147 0.0
H693 H 0.95881 0.85767 0.93547 0.0
H694 H 0.83222 0.92191 0.93917 0.0
H695 H 0.90744 0.01947 0.93018 0.0
H696 H 0.09036 0.99678 0.9436 0.0
H697 H 0.13862 0.98665 0.93298 0.0
H698 H 0.07447 0.92243 0.93956 0.0
H699 H 0.03526 0.8817 0.91776 0.0
H700 H 0.09927 0.94577 0.91112 0.0
H701 H 0.02433 0.92823 0.9069 0.0
H702 H 0.99654 0.10883 0.91984 0.0
H703 H 0.09335 0.1841 0.91057 0.0
H704 H 0.16161 0.06117 0.91457 0.0
C705 C 0.94682 0.89217 0.93431 0.0
C706 C 0.88957 0.88221 0.93788 0.0
C707 C 0.87591 0.92883 0.9365 0.0
C708 C 0.91825 0.98416 0.93136 0.0
C709 C 0.97426 0.99231 0.92785 0.0
C710 C 0.98871 0.94768 0.9294 0.0
C711 C 0.05227 0.96781 0.9252 0.0
C712 C 0.09122 0.96846 0.93598 0.0
C713 C 0.05278 0.92855 0.91461 0.0
C714 C 0.07131 0.03057 0.92087 0.0
C715 C 0.02571 0.04393 0.92239 0.0
C716 C 0.03261 0.09889 0.91869 0.0
C717 C 0.08758 0.14124 0.91338 0.0
C718 C 0.13511 0.12862 0.91193 0.0
C719 C 0.1265 0.07247 0.91575 0.0
H720 H 0.51849 0.55735 0.01142 0.0
H721 H 0.47808 0.56614 0.97319 0.0
H722 H 0.3706 0.49373 0.97717 0.0
H723 H 0.40805 0.3951 0.01548 0.0
H724 H 0.39086 0.40621 0.03098 0.0
H725 H 0.46481 0.45406 0.02473 0.0
H726 H 0.45504 0.54709 0.02994 0.0
H727 H 0.38098 0.49963 0.03609 0.0
H728 H 0.39209 0.55221 0.02405 0.0
H729 H 0.26595 0.43228 0.9862 0.0
H730 H 0.17462 0.38016 0.99889 0.0
H731 H 0.28531 0.4027 0.03081 0.0
C732 C 0.48701 0.54296 1.00388 0.0
C733 C 0.50618 0.56698 0.99202 0.0
C734 C 0.4641 0.54753 0.98231 0.0
C735 C 0.40308 0.50669 0.9845 0.0
C736 C 0.38531 0.48481 0.9964 0.0
C737 C 0.42634 0.50135 1.00586 0.0
C738 C 0.3957 0.47291 0.01788 0.0
C739 C 0.41606 0.42948 0.02254 0.0
C740 C 0.4066 0.52082 0.02755 0.0
C741 C 0.33074 0.43971 0.01382 0.0
C742 C 0.32553 0.44705 1.00141 0.0
C743 C 0.26957 0.42486 0.99586 0.0
C744 C 0.2177 0.39482 1.00318 0.0
C745 C 0.2219 0.38657 0.01595 0.0
C746 C 0.27964 0.40846 0.02117 0.0
H747 H 0.8378 0.42036 0.14949 0.0
H748 H 0.02358 0.52675 0.1607 0.0
H749 H 0.01954 0.43597 0.16956 0.0
H750 H 0.78578 0.33663 0.17566 0.0
H751 H 0.73276 0.26791 0.16824 0.0
H752 H 0.75375 0.33847 0.16107 0.0
H753 H 0.7869 0.30531 0.14148 0.0
H754 H 0.76554 0.23422 0.14857 0.0
H755 H 0.84071 0.27986 0.14268 0.0
H756 H 0.98928 0.33601 0.17985 0.0
H757 H 0.93724 0.23725 0.1901 0.0
H758 H 0.77188 0.19723 0.17158 0.0
C759 C 0.87797 0.42435 0.15362 0.0
C760 C 0.93096 0.48044 0.15448 0.0
C761 C 0.98277 0.48395 0.15987 0.0
C762 C 0.98074 0.43269 0.16493 0.0
C763 C 0.92686 0.37831 0.16431 0.0
C764 C 0.87669 0.37386 0.15862 0.0
C765 C 0.8228 0.31188 0.15997 0.0
C766 C 0.77075 0.31389 0.16664 0.0
C767 C 0.80283 0.281 0.14743 0.0
C768 C 0.84953 0.28261 0.16779 0.0
C769 C 0.90978 0.32114 0.17008 0.0
C770 C 0.94247 0.30511 0.1779 0.0
C771 C 0.91255 0.24878 0.18365 0.0
C772 C 0.85043 0.20934 0.18163 0.0
C773 C 0.81928 0.22632 0.17335 0.0
H774 H 0.43726 0.95286 0.3466 0.0
H775 H 0.47344 0.95577 0.30774 0.0
H776 H 0.5512 0.92811 0.31204 0.0
H777 H 0.59737 0.01274 0.35664 0.0
H778 H 0.57434 0.96624 0.37017 0.0
H779 H 0.52686 0.99303 0.364 0.0
H780 H 0.43874 0.88383 0.36275 0.0
H781 H 0.48607 0.85666 0.36873 0.0
H782 H 0.44857 0.82921 0.35424 0.0
H783 H 0.61103 0.8832 0.32041 0.0
H784 H 0.6581 0.83643 0.3322 0.0
H785 H 0.59304 0.87488 0.36602 0.0
C786 C 0.46303 0.94934 0.33909 0.0
C787 C 0.45039 0.95717 0.32687 0.0
C788 C 0.48382 0.95131 0.31716 0.0
C789 C 0.52762 0.9352 0.31952 0.0
C790 C 0.53817 0.92638 0.33168 0.0
C791 C 0.50788 0.93465 0.34133 0.0
C792 C 0.52611 0.92018 0.35349 0.0
C793 C 0.55809 0.97641 0.36155 0.0
C794 C 0.47163 0.86946 0.36019 0.0
C795 C 0.56929 0.89996 0.34913 0.0
C796 C 0.57553 0.90372 0.33653 0.0
C797 C 0.60818 0.8819 0.33033 0.0
C798 C 0.63526 0.85563 0.33719 0.0
C799 C 0.63049 0.8521 0.35019 0.0
C800 C 0.59764 0.87579 0.35615 0.0
H801 H 0.77255 0.54549 0.5269 0.0
H802 H 0.83786 0.7027 0.50368 0.0
H803 H 0.74326 0.65219 0.49173 0.0
H804 H 0.69828 0.43634 0.50395 0.0
H805 H 0.63676 0.38748 0.51384 0.0
H806 H 0.7096 0.43643 0.52028 0.0
H807 H 0.66255 0.48196 0.5348 0.0
H808 H 0.58951 0.43316 0.52839 0.0
H809 H 0.61915 0.51298 0.52841 0.0
H810 H 0.63939 0.58156 0.48226 0.0
H811 H 0.53987 0.49808 0.47606 0.0
H812 H 0.54404 0.39276 0.5067 0.0
C813 C 0.76694 0.57001 0.51944 0.0
C814 C 0.81253 0.62843 0.51633 0.0
C815 C 0.80371 0.65779 0.50621 0.0
C816 C 0.74997 0.62961 0.49943 0.0
C817 C 0.70559 0.57224 0.50292 0.0
C818 C 0.71382 0.54301 0.51272 0.0
C819 C 0.66008 0.48164 0.5147 0.0
C820 C 0.67722 0.4326 0.51309 0.0
C821 C 0.63112 0.47721 0.52732 0.0
C822 C 0.62013 0.48038 0.50443 0.0
C823 C 0.64673 0.53281 0.49769 0.0
C824 C 0.61812 0.54052 0.48754 0.0
C825 C 0.5614 0.49302 0.48413 0.0
C826 C 0.53413 0.43866 0.49087 0.0
C827 C 0.56385 0.43325 0.50125 0.0
H828 H 0.19913 0.57573 0.65474 0.0
H829 H 1.00963 0.47238 0.66373 0.0
H830 H 1.01517 0.56191 0.67359 0.0
H831 H 0.24661 0.65475 0.68215 0.0
H832 H 0.30274 0.72385 0.67527 0.0
H833 H 0.28194 0.65374 0.66789 0.0
H834 H 0.25568 0.69095 0.64799 0.0
H835 H 0.27683 0.76147 0.65529 0.0
H836 H 0.2031 0.71813 0.64867 0.0
H837 H 0.04522 0.66048 0.68432 0.0
H838 H 0.09528 0.75966 0.69427 0.0
H839 H 0.26456 0.79806 0.67748 0.0
C840 C 0.15867 0.57202 0.65871 0.0
C841 C 0.104 0.51718 0.65858 0.0
C842 C 0.0518 0.51421 0.6637 0.0
C843 C 0.05465 0.56471 0.66932 0.0
C844 C 0.10986 0.6178 0.66956 0.0
C845 C 0.16072 0.62181 0.66425 0.0
C846 C 0.21518 0.68294 0.66612 0.0
C847 C 0.26449 0.67852 0.67328 0.0
C848 C 0.23908 0.71528 0.65378 0.0
C849 C 0.18761 0.71235 0.67368 0.0
C850 C 0.12677 0.67438 0.67551 0.0
C851 C 0.0926 0.6909 0.68277 0.0
C852 C 0.12145 0.74752 0.68834 0.0
C853 C 0.18394 0.78699 0.68663 0.0
C854 C 0.21692 0.76901 0.67907 0.0
H855 H 0.41547 0.14604 0.86195 0.0
H856 H 0.42874 0.26982 0.83343 0.0
H857 H 0.49335 0.24299 0.82125 0.0
H858 H 0.56661 0.18238 0.86076 0.0
H859 H 0.55185 0.10731 0.86363 0.0
H860 H 0.50104 0.13081 0.86941 0.0
H861 H 0.41228 0.04244 0.8582 0.0
H862 H 0.46275 0.01829 0.85247 0.0
H863 H 0.41755 0.03302 0.84193 0.0
H864 H 0.56294 0.20765 0.81289 0.0
H865 H 0.62984 0.16596 0.80895 0.0
H866 H 0.57323 0.06844 0.84337 0.0
C867 C 0.43156 0.16736 0.85311 0.0
C868 C 0.4168 0.21009 0.84867 0.0
C869 C 0.43845 0.23627 0.83697 0.0
C870 C 0.47559 0.22162 0.83002 0.0
C871 C 0.49062 0.18065 0.83487 0.0
C872 C 0.46895 0.15368 0.84612 0.0
C873 C 0.49408 0.11352 0.84961 0.0
C874 C 0.53056 0.1348 0.86156 0.0
C875 C 0.44366 0.04793 0.85061 0.0
C876 C 0.53429 0.12292 0.83866 0.0
C877 C 0.53129 0.16129 0.83019 0.0
C878 C 0.56524 0.17722 0.81942 0.0
C879 C 0.60305 0.15318 0.81725 0.0
C880 C 0.60702 0.11397 0.82586 0.0
C881 C 0.57193 0.09883 0.83668 0.0
H882 H 0.57964 0.80354 0.8433 0.0
H883 H 0.6971 0.75797 0.82298 0.0
H884 H 0.64748 0.65793 0.83274 0.0
H885 H 0.56273 0.71483 0.8714 0.0
H886 H 0.4846 0.69356 0.87294 0.0
H887 H 0.53699 0.76471 0.8662 0.0
H888 H 0.47017 0.73768 0.8468 0.0
H889 H 0.41789 0.66653 0.85342 0.0
H890 H 0.45098 0.66961 0.83863 0.0
H891 H 0.57573 0.55798 0.84289 0.0
H892 H 0.48766 0.46856 0.85188 0.0
H893 H 0.41586 0.58013 0.86437 0.0
C894 C 0.59566 0.77294 0.84101 0.0
C895 C 0.64226 0.78867 0.83236 0.0
C896 C 0.66207 0.74734 0.82972 0.0
C897 C 0.634 0.6903 0.83519 0.0
C898 C 0.5865 0.67549 0.84333 0.0
C899 C 0.56782 0.71596 0.84626 0.0
C900 C 0.51196 0.68775 0.85418 0.0
C901 C 0.52487 0.71695 0.86694 0.0
C902 C 0.4597 0.69055 0.84788 0.0
C903 C 0.50058 0.62439 0.85487 0.0
C904 C 0.5446 0.61817 0.84881 0.0
C905 C 0.54148 0.56261 0.84778 0.0
C906 C 0.49155 0.51217 0.85291 0.0
C907 C 0.44517 0.51775 0.85871 0.0
C908 C 0.45062 0.57475 0.85989 0.0
H909 H 0.84371 0.39304 0.02811 0.0
H910 H 0.02618 0.46218 0.01513 0.0
H911 H 0.02348 0.54845 1.0056 0.0
H912 H 0.78682 0.42656 1.00237 0.0
H913 H 0.73919 0.44761 0.01064 0.0
H914 H 0.75824 0.39541 0.01734 0.0
H915 H 0.80032 0.46305 0.03654 0.0
H916 H 0.78129 0.51557 0.02989 0.0
H917 H 0.8573 0.54043 0.0347 0.0
H918 H 0.99479 0.61882 0.99521 0.0
H919 H 0.94515 0.67124 0.98601 0.0
H920 H 0.78385 0.55886 1.00695 0.0
C921 C 0.88325 0.42675 0.02336 0.0
C922 C 0.93504 0.42111 0.02223 0.0
C923 C 0.98629 0.46619 0.0161 0.0
C924 C 0.98502 0.51509 0.01068 0.0
C925 C 0.9326 0.51866 0.01174 0.0
C926 C 0.88301 0.4761 0.01812 0.0
C927 C 0.83139 0.48873 0.0176 0.0
C928 C 0.77566 0.43648 0.01163 0.0
C929 C 0.81674 0.50279 0.03045 0.0
C930 C 0.85865 0.54374 0.00951 0.0
C931 C 0.91719 0.56059 1.00626 0.0
C932 C 0.94959 0.60697 0.99795 0.0
C933 C 0.92122 0.63641 0.99277 0.0
C934 C 0.8615 0.61964 0.99604 0.0
C935 C 0.83022 0.57339 1.00462 0.0
H936 H 0.43903 0.81599 0.19468 0.0
H937 H 0.544 1.00435 0.18542 0.0
H938 H 0.45442 0.99926 0.17565 0.0
H939 H 0.36137 0.7691 0.16718 0.0
H940 H 0.29159 0.71319 0.17394 0.0
H941 H 0.36155 0.73386 0.18146 0.0
H942 H 0.32294 0.7599 0.20125 0.0
H943 H 0.25259 0.73901 0.19379 0.0
H944 H 0.29581 0.81235 0.20047 0.0
H945 H 0.35534 0.96999 0.16503 0.0
H946 H 0.25634 0.91988 0.15475 0.0
H947 H 0.21791 0.75103 0.17122 0.0
C948 C 0.44323 0.85635 0.19068 0.0
C949 C 0.49858 0.91054 0.19075 0.0
C950 C 0.50185 0.96251 0.18556 0.0
C951 C 0.45128 0.95996 0.17997 0.0
C952 C 0.39774 0.90524 0.17979 0.0
C953 C 0.39342 0.85454 0.18511 0.0
C954 C 0.33216 0.80037 0.18312 0.0
C955 C 0.337 0.75127 0.176 0.0
C956 C 0.29891 0.77652 0.19539 0.0
C957 C 0.30312 0.82793 0.17547 0.0
C958 C 0.3412 0.88857 0.17375 0.0
C959 C 0.32488 0.92271 0.16647 0.0
C960 C 0.26849 0.8939 0.1607 0.0
C961 C 0.22938 0.83153 0.16218 0.0
C962 C 0.24691 0.79866 0.16983 0.0
H963 H 0.57519 0.52614 0.33881 0.0
H964 H 0.58824 0.48025 0.37646 0.0
H965 H 0.50998 0.37517 0.37252 0.0
H966 H 0.40969 0.42361 0.33603 0.0
H967 H 0.41635 0.40667 0.32025 0.0
H968 H 0.46869 0.47896 0.32648 0.0
H969 H 0.55751 0.46382 0.31992 0.0
H970 H 0.50557 0.39161 0.31372 0.0
H971 H 0.55944 0.39829 0.3251 0.0
H972 H 0.44227 0.27305 0.36345 0.0
H973 H 0.38661 0.18386 0.3505 0.0
H974 H 0.40882 0.29854 0.31934 0.0
C975 C 0.56071 0.49399 0.34624 0.0
C976 C 0.5875 0.51082 0.35791 0.0
C977 C 0.56766 0.46799 0.36749 0.0
C978 C 0.52339 0.40837 0.36532 0.0
C979 C 0.49852 0.39288 0.35361 0.0
C980 C 0.51571 0.43477 0.3443 0.0
C981 C 0.48394 0.40635 0.33243 0.0
C982 C 0.44218 0.43032 0.32858 0.0
C983 C 0.52933 0.41556 0.32219 0.0
C984 C 0.44837 0.34148 0.33634 0.0
C985 C 0.45709 0.33452 0.3486 0.0
C986 C 0.43373 0.27805 0.35392 0.0
C987 C 0.40167 0.22745 0.34647 0.0
C988 C 0.39281 0.23354 0.33381 0.0
C989 C 0.41503 0.29169 0.3289 0.0
H990 H 0.1847 0.60937 0.52799 0.0
H991 H 1.00279 0.53887 0.51488 0.0
H992 H 1.00709 0.45326 0.50534 0.0
H993 H 0.24308 0.58093 0.50225 0.0
H994 H 0.29216 0.56079 0.51015 0.0
H995 H 0.27096 0.61045 0.51732 0.0
H996 H 0.22995 0.54004 0.5362 0.0
H997 H 0.25156 0.49024 0.52913 0.0
H998 H 0.17498 0.46226 0.53405 0.0
H999 H 0.03858 0.38431 0.49473 0.0
H1000 H 0.09146 0.33673 0.48494 0.0
H1001 H 0.25091 0.45123 0.50617 0.0
C1002 C 0.14539 0.57517 0.52331 0.0
C1003 C 0.09348 0.58039 0.52209 0.0
C1004 C 0.0427 0.53502 0.51596 0.0
C1005 C 0.04493 0.48654 0.51052 0.0
C1006 C 0.09785 0.4838 0.51156 0.0
C1007 C 0.14675 0.52657 0.51801 0.0
C1008 C 0.19973 0.5162 0.51722 0.0
C1009 C 0.25468 0.57029 0.51138 0.0
C1010 C 0.21492 0.50128 0.5299 0.0
C1011 C 0.17416 0.46239 0.50886 0.0
C1012 C 0.11522 0.44378 0.50575 0.0
C1013 C 0.08427 0.39774 0.49732 0.0
C1014 C 0.11465 0.3708 0.49183 0.0
C1015 C 0.17548 0.39016 0.49476 0.0
C1016 C 0.20466 0.43557 0.50363 0.0
H1017 H 0.51703 0.07714 0.67372 0.0
H1018 H 0.55939 0.13687 0.71143 0.0
H1019 H 0.66706 0.1735 0.70723 0.0
H1020 H 0.63005 0.03028 0.67011 0.0
H1021 H 0.64563 0.05559 0.65441 0.0
H1022 H 0.57183 0.02976 0.66078 0.0
H1023 H 0.57835 0.13028 0.65481 0.0
H1024 H 0.65211 0.15645 0.64846 0.0
H1025 H 0.64087 0.19952 0.66014 0.0
H1026 H 0.77188 0.21266 0.69811 0.0
H1027 H 0.86273 0.24777 0.6852 0.0
H1028 H 0.74989 0.15824 0.65376 0.0
C1029 C 0.54884 0.09763 0.68112 0.0
C1030 C 0.52973 0.1043 0.6929 0.0
C1031 C 0.57285 0.13073 0.70237 0.0
C1032 C 0.63415 0.15187 0.70005 0.0
C1033 C 0.65153 0.1456 0.68825 0.0
C1034 C 0.60989 0.1185 0.67899 0.0
C1035 C 0.63993 0.11891 0.66699 0.0
C1036 C 0.62072 0.05482 0.66283 0.0
C1037 C 0.62705 0.15335 0.65702 0.0
C1038 C 0.7052 0.15208 0.67082 0.0
C1039 C 0.71119 0.16687 0.68312 0.0
C1040 C 0.7676 0.20046 0.68851 0.0
C1041 C 0.81906 0.21996 0.6811 0.0
C1042 C 0.81382 0.20592 0.66842 0.0
C1043 C 0.75583 0.17047 0.66337 0.0
H1044 H 0.04023 0.62048 0.10185 0.0
H1045 H 0.85123 0.54078 0.11099 0.0
H1046 H 0.82945 0.45234 0.09819 0.0
H1047 H 0.02152 0.5655 0.07024 0.0
H1048 H 0.08548 0.55449 0.07141 0.0
H1049 H 0.08317 0.61255 0.0802 0.0
H1050 H 0.10022 0.56776 0.10009 0.0
H1051 H 0.10123 0.50883 0.09142 0.0
H1052 H 0.0489 0.49065 0.10395 0.0
H1053 H 0.83183 0.36777 0.08559 0.0
H1054 H 0.85673 0.30186 0.07318 0.0
H1055 H 0.04438 0.44021 0.07315 0.0
C1056 C 0.99396 0.58509 0.10095 0.0
C1057 C 0.94731 0.58754 0.10732 0.0
C1058 C 0.88748 0.54012 0.106 0.0
C1059 C 0.87487 0.48955 0.09885 0.0
C1060 C 0.9226 0.48765 0.09304 0.0
C1061 C 0.98082 0.53487 0.0939 0.0
C1062 C 0.02493 0.52195 0.08729 0.0
C1063 C 0.05555 0.56624 0.07665 0.0
C1064 C 0.07154 0.52231 0.09622 0.0
C1065 C 0.98286 0.45968 0.08265 0.0
C1066 C 0.92395 0.44017 0.08601 0.0
C1067 C 0.87781 0.38301 0.08285 0.0
C1068 C 0.89235 0.3457 0.07589 0.0
C1069 C 0.95244 0.36591 0.0722 0.0
C1070 C 0.99792 0.4234 0.07577 0.0
H1071 H 0.52662 0.91392 0.23212 0.0
H1072 H 0.68994 1.00912 0.25337 0.0
H1073 H 0.63166 0.01648 0.2707 0.0
H1074 H 0.4617 0.99729 0.2409 0.0
H1075 H 0.38513 0.93704 0.24208 0.0
H1076 H 0.43696 0.93018 0.23196 0.0
H1077 H 0.41572 0.83221 0.24282 0.0
H1078 H 0.36308 0.83823 0.25291 0.0
H1079 H 0.42449 0.83172 0.25922 0.0
H1080 H 0.5624 0.03091 0.2836 0.0
H1081 H 0.48245 0.04197 0.29317 0.0
H1082 H 0.35682 0.9291 0.26525 0.0
C1083 C 0.54929 0.93409 0.24064 0.0
C1084 C 0.61236 0.95982 0.24165 0.0
C1085 C 0.64148 0.98808 0.25264 0.0
C1086 C 0.60876 0.99257 0.26247 0.0
C1087 C 0.54684 0.96809 0.26116 0.0
C1088 C 0.51689 0.93835 0.25066 0.0
C1089 C 0.45054 0.91993 0.25148 0.0
C1090 C 0.43256 0.94779 0.24098 0.0
C1091 C 0.41112 0.85144 0.25162 0.0
C1092 C 0.44871 0.94656 0.26383 0.0
C1093 C 0.50509 0.97396 0.26916 0.0
C1094 C 0.51759 1.0078 0.27977 0.0
C1095 C 0.4715 0.01377 0.28516 0.0
C1096 C 0.41261 0.98468 0.28025 0.0
C1097 C 0.40083 0.95009 0.26945 0.0
H1098 H 0.41834 0.44798 0.43942 0.0
H1099 H 0.48337 0.32195 0.44239 0.0
H1100 H 0.57111 0.38841 0.42927 0.0
H1101 H 0.46151 0.49015 0.40792 0.0
H1102 H 0.48079 0.56673 0.41058 0.0
H1103 H 0.42369 0.50775 0.4198 0.0
H1104 H 0.48204 0.56214 0.43947 0.0
H1105 H 0.53986 0.62076 0.43031 0.0
H1106 H 0.5592 0.58027 0.44116 0.0
H1107 H 0.65478 0.47377 0.41612 0.0
H1108 H 0.71906 0.56275 0.4032 0.0
H1109 H 0.59566 0.62925 0.40954 0.0
C1110 C 0.45067 0.43386 0.43726 0.0
C1111 C 0.44407 0.37978 0.44191 0.0
C1112 C 0.48738 0.36304 0.43883 0.0
C1113 C 0.53749 0.40072 0.43146 0.0
C1114 C 0.54321 0.45463 0.42724 0.0
C1115 C 0.50032 0.47052 0.42997 0.0
C1116 C 0.51572 0.53021 0.42442 0.0
C1117 C 0.46758 0.52327 0.41513 0.0
C1118 C 0.52475 0.57603 0.43444 0.0
C1119 C 0.57426 0.546 0.41812 0.0
C1120 C 0.58997 0.50235 0.41985 0.0
C1121 C 0.64265 0.50804 0.41474 0.0
C1122 C 0.67915 0.55888 0.40749 0.0
C1123 C 0.66244 0.60295 0.40541 0.0
C1124 C 0.60977 0.59643 0.41097 0.0
H1125 H 0.98814 0.58567 0.57543 0.0
H1126 H 0.17934 0.7024 0.56973 0.0
H1127 H 0.19984 0.63442 0.58246 0.0
H1128 H 0.99706 0.54712 0.6069 0.0
H1129 H 0.93601 0.47155 0.60512 0.0
H1130 H 0.93849 0.53076 0.5959 0.0
H1131 H 0.93199 0.47116 0.57623 0.0
H1132 H 0.93058 0.41225 0.58537 0.0
H1133 H 0.98705 0.4482 0.57363 0.0
H1134 H 0.19718 0.54839 0.59536 0.0
H1135 H 0.17226 0.46043 0.60862 0.0
H1136 H 0.98291 0.40383 0.60541 0.0
C1137 C 0.03447 0.59739 0.57693 0.0
C1138 C 0.08221 0.64927 0.57161 0.0
C1139 C 0.14214 0.66306 0.57383 0.0
C1140 C 0.15409 0.62446 0.58096 0.0
C1141 C 0.10557 0.5727 0.58584 0.0
C1142 C 0.04701 0.55985 0.58401 0.0
C1143 C 1.00242 0.50215 0.59023 0.0
C1144 C 0.9664 0.5136 0.60013 0.0
C1145 C 0.96057 0.45572 0.5808 0.0
C1146 C 0.04474 0.48401 0.59584 0.0
C1147 C 0.10411 0.52472 0.59319 0.0
C1148 C 0.1508 0.51646 0.59749 0.0
C1149 C 0.13628 0.46619 0.60493 0.0
C1150 C 0.0757 0.42535 0.60801 0.0
C1151 C 0.02968 0.43425 0.60322 0.0
H1152 H 0.5023 0.10402 0.73219 0.0
H1153 H 0.34439 0.02064 0.75552 0.0
H1154 H 0.40639 0.01848 0.7726 0.0
H1155 H 0.56264 0.01782 0.74151 0.0
H1156 H 0.64061 0.07539 0.74126 0.0
H1157 H 0.58752 0.08161 0.73149 0.0
H1158 H 0.61714 0.18495 0.74075 0.0
H1159 H 0.67118 0.17975 0.75048 0.0
H1160 H 0.61421 0.19266 0.75715 0.0
H1161 H 0.47809 1.00748 0.78544 0.0
H1162 H 0.55916 0.99697 0.79474 0.0
H1163 H 0.67646 0.09142 0.76401 0.0
C1164 C 0.4814 0.08735 0.74103 0.0
C1165 C 0.41879 0.06353 0.74269 0.0
C1166 C 0.39249 0.04039 0.75424 0.0
C1167 C 0.42734 0.03876 0.76394 0.0
C1168 C 0.48852 0.06057 0.76193 0.0
C1169 C 0.51583 0.08539 0.75085 0.0
C1170 C 0.58141 0.10066 0.7509 0.0
C1171 C 0.59373 0.06684 0.74068 0.0
C1172 C 0.62348 0.16856 0.74975 0.0
C1173 C 0.58587 0.0782 0.76355 0.0
C1174 C 0.53147 0.05553 0.76968 0.0
C1175 C 0.52135 0.02657 0.78091 0.0
C1176 C 0.56777 0.02053 0.78607 0.0
C1177 C 0.62461 0.0444 0.78023 0.0
C1178 C 0.63409 0.07426 0.76884 0.0
H1179 H 0.61863 0.57171 0.94097 0.0
H1180 H 0.55389 0.69651 0.94693 0.0
H1181 H 0.46397 0.63241 0.93426 0.0
H1182 H 0.57059 0.53581 0.90967 0.0
H1183 H 0.55158 0.45876 0.9114 0.0
H1184 H 0.60997 0.51571 0.92067 0.0
H1185 H 0.55434 0.45714 0.9403 0.0
H1186 H 0.49524 0.4005 0.9311 0.0
H1187 H 0.47748 0.43856 0.94286 0.0
H1188 H 0.37865 0.55017 0.92102 0.0
H1189 H 0.31309 0.46461 0.90748 0.0
H1190 H 0.43705 0.39694 0.91098 0.0
C1191 C 0.58587 0.58602 0.93957 0.0
C1192 C 0.59326 0.63915 0.94491 0.0
C1193 C 0.5493 0.65616 0.94282 0.0
C1194 C 0.49794 0.6198 0.93572 0.0
C1195 C 0.49155 0.56684 0.93078 0.0
C1196 C 0.53491 0.5506 0.93256 0.0
C1197 C 0.51866 0.49221 0.92631 0.0
C1198 C 0.56547 0.50119 0.91643 0.0
C1199 C 0.51097 0.44429 0.93571 0.0
C1200 C 0.45928 0.47774 0.92067 0.0
C1201 C 0.44376 0.52079 0.92335 0.0
C1202 C 0.39056 0.51632 0.9189 0.0
C1203 C 0.35336 0.46742 0.9113 0.0
C1204 C 0.36996 0.42416 0.90821 0.0
C1205 C 0.42305 0.42925 0.91317 0.0
loop_
_geom_bond_atom_site_label_1
_geom_bond_atom_site_label_2
_geom_bond_distance
_geom_bond_site_symmetry_2
_ccdc_geom_bond_type
Co0 N4 2.148 . S
Co0 N10 2.128 1_655 S
Co0 N20 2.194 1_655 S
Co0 O25 2.351 1_655 S
Co0 O26 2.155 . S
Co0 O27 2.096 . S
C1 N4 1.301 . S
C1 N5 1.328 . S
C1 H6 0.930 . S
C2 C3 1.333 . S
C2 N4 1.317 . S
C2 H7 0.930 . S
C3 C2 1.333 . S
C3 N5 1.350 . S
C3 H29 0.931 . S
N4 Co0 2.148 . S
N4 C1 1.301 . S
N4 C2 1.317 . S
N5 C1 1.328 . S
N5 C3 1.350 . S
H6 C1 0.930 . S
H7 C2 0.930 . S
C8 O9 1.224 . S
C8 O27 1.247 . S
O9 C8 1.224 . S
N10 Co0 2.128 1_455 S
N10 C11 1.355 . S
N10 C13 1.311 1_455 S
C11 N10 1.355 . S
C11 C12 1.363 . S
C11 H23 0.929 . S
C12 C11 1.363 . S
C12 N14 1.375 . S
C12 H30 0.931 . S
C13 N10 1.311 1_655 S
C13 N14 1.347 1_655 S
C13 H24 0.929 . S
N14 C12 1.375 . S
N14 C13 1.347 1_455 S
C15 C18 1.365 . S
C15 N20 1.328 . S
C15 H21 0.929 . S
C16 C17 1.362 . S
C16 C19 1.378 . S
C16 H31 0.929 . S
C17 C16 1.362 . S
C17 C18 1.366 . S
C18 C15 1.365 . S
C18 C17 1.366 . S
C18 H32 0.930 . S
C19 C16 1.378 . S
C19 N20 1.315 . S
C19 H22 0.930 . S
N20 Co0 2.194 1_455 S
N20 C15 1.328 . S
N20 C19 1.315 . S
H21 C15 0.929 . S
H22 C19 0.930 . S
H23 C11 0.929 . S
H24 C13 0.929 . S
O25 Co0 2.351 1_455 S
O25 C28 1.244 1_455 S
O26 Co0 2.155 . S
O26 C28 1.240 . S
O27 Co0 2.096 . S
O27 C8 1.247 . S
C28 O25 1.244 1_655 S
C28 O26 1.240 . S
H29 C3 0.931 . S
H30 C12 0.931 . S
H31 C16 0.929 . S
H32 C18 0.930 . S
Co33 N37 2.148 . S
Co33 N43 2.128 1_565 S
Co33 N53 2.194 1_565 S
Co33 O58 2.351 1_565 S
Co33 O59 2.155 . S
Co33 O60 2.096 . S
C34 N37 1.301 . S
C34 N38 1.328 . S
C34 H39 0.930 . S
C35 C36 1.333 . S
C35 N37 1.317 . S
C35 H40 0.930 . S
C36 C35 1.333 . S
C36 N38 1.350 . S
C36 H62 0.931 . S
N37 Co33 2.148 . S
N37 C34 1.301 . S
N37 C35 1.317 . S
N38 C34 1.328 . S
N38 C36 1.350 . S
H39 C34 0.930 . S
H40 C35 0.930 . S
C41 O42 1.224 . S
C41 O60 1.247 . S
O42 C41 1.224 . S
N43 Co33 2.128 1_545 S
N43 C44 1.355 . S
N43 C46 1.311 1_545 S
C44 N43 1.355 . S
C44 C45 1.363 . S
C44 H56 0.929 . S
C45 C44 1.363 . S
C45 N47 1.375 . S
C45 H63 0.931 . S
C46 N43 1.311 1_565 S
C46 N47 1.347 1_565 S
C46 H57 0.929 . S
N47 C45 1.375 . S
N47 C46 1.347 1_545 S
C48 C51 1.365 . S
C48 N53 1.328 . S
C48 H54 0.929 . S
C49 C50 1.362 . S
C49 C52 1.378 . S
C49 H64 0.929 . S
C50 C49 1.362 . S
C50 C51 1.366 . S
C51 C48 1.365 . S
C51 C50 1.366 . S
C51 H65 0.930 . S
C52 C49 1.378 . S
C52 N53 1.315 . S
C52 H55 0.930 . S
N53 Co33 2.194 1_545 S
N53 C48 1.328 . S
N53 C52 1.315 . S
H54 C48 0.929 . S
H55 C52 0.930 . S
H56 C44 0.929 . S
H57 C46 0.929 . S
O58 Co33 2.351 1_545 S
O58 C61 1.244 1_545 S
O59 Co33 2.155 . S
O59 C61 1.240 . S
O60 Co33 2.096 . S
O60 C41 1.247 . S
C61 O58 1.244 1_565 S
C61 O59 1.240 . S
H62 C36 0.931 . S
H63 C45 0.931 . S
H64 C49 0.929 . S
H65 C51 0.930 . S
Co66 N70 2.148 . S
Co66 N76 2.128 . S
Co66 N86 2.194 . S
Co66 O91 2.351 . S
Co66 O92 2.155 . S
Co66 O93 2.096 . S
C67 N70 1.301 . S
C67 N71 1.328 . S
C67 H72 0.930 . S
C68 C69 1.333 . S
C68 N70 1.317 . S
C68 H73 0.930 . S
C69 C68 1.333 . S
C69 N71 1.350 . S
C69 H95 0.931 . S
N70 Co66 2.148 . S
N70 C67 1.301 . S
N70 C68 1.317 . S
N71 C67 1.328 . S
N71 C69 1.350 . S
H72 C67 0.930 . S
H73 C68 0.930 . S
C74 O75 1.224 . S
C74 O93 1.247 . S
O75 C74 1.224 . S
N76 Co66 2.128 . S
N76 C77 1.355 . S
N76 C79 1.311 . S
C77 N76 1.355 . S
C77 C78 1.363 . S
C77 H89 0.929 . S
C78 C77 1.363 . S
C78 N80 1.375 . S
C78 H96 0.931 . S
C79 N76 1.311 . S
C79 N80 1.347 . S
C79 H90 0.929 . S
N80 C78 1.375 . S
N80 C79 1.347 . S
C81 C84 1.365 . S
C81 N86 1.328 . S
C81 H87 0.929 . S
C82 C83 1.362 . S
C82 C85 1.378 . S
C82 H97 0.929 . S
C83 C82 1.362 . S
C83 C84 1.366 . S
C84 C81 1.365 . S
C84 C83 1.366 . S
C84 H98 0.930 . S
C85 C82 1.378 . S
C85 N86 1.315 . S
C85 H88 0.930 . S
N86 Co66 2.194 . S
N86 C81 1.328 . S
N86 C85 1.315 . S
H87 C81 0.929 . S
H88 C85 0.930 . S
H89 C77 0.929 . S
H90 C79 0.929 . S
O91 Co66 2.351 . S
O91 C94 1.244 . S
O92 Co66 2.155 . S
O92 C94 1.240 . S
O93 Co66 2.096 . S
O93 C74 1.247 . S
C94 O91 1.244 . S
C94 O92 1.240 . S
H95 C69 0.931 . S
H96 C78 0.931 . S
H97 C82 0.929 . S
H98 C84 0.930 . S
Co99 N103 2.148 . S
Co99 N109 2.128 1_455 S
Co99 N119 2.194 1_455 S
Co99 O124 2.351 1_455 S
Co99 O125 2.155 . S
Co99 O126 2.096 . S
C100 N103 1.301 . S
C100 N104 1.328 . S
C100 H105 0.930 . S
C101 C102 1.333 . S
C101 N103 1.317 . S
C101 H106 0.930 . S
C102 C101 1.333 . S
C102 N104 1.350 . S
C102 H128 0.931 . S
N103 Co99 2.148 . S
N103 C100 1.301 . S
N103 C101 1.317 . S
N104 C100 1.328 . S
N104 C102 1.350 . S
H105 C100 0.930 . S
H106 C101 0.930 . S
C107 O108 1.224 . S
C107 O126 1.247 . S
O108 C107 1.224 . S
N109 Co99 2.128 1_655 S
N109 C110 1.355 . S
N109 C112 1.311 1_655 S
C110 N109 1.355 . S
C110 C111 1.363 . S
C110 H122 0.929 . S
C111 C110 1.363 . S
C111 N113 1.375 . S
C111 H129 0.931 . S
C112 N109 1.311 1_455 S
C112 N113 1.347 1_455 S
C112 H123 0.929 . S
N113 C111 1.375 . S
N113 C112 1.347 1_655 S
C114 C117 1.365 . S
C114 N119 1.328 . S
C114 H120 0.929 . S
C115 C116 1.362 . S
C115 C118 1.378 . S
C115 H130 0.929 . S
C116 C115 1.362 . S
C116 C117 1.366 . S
C117 C114 1.365 . S
C117 C116 1.366 . S
C117 H131 0.930 . S
C118 C115 1.378 . S
C118 N119 1.315 . S
C118 H121 0.930 . S
N119 Co99 2.194 1_655 S
N119 C114 1.328 . S
N119 C118 1.315 . S
H120 C114 0.929 . S
H121 C118 0.930 . S
H122 C110 0.929 . S
H123 C112 0.929 . S
O124 Co99 2.351 1_655 S
O124 C127 1.244 1_655 S
O125 Co99 2.155 . S
O125 C127 1.240 . S
O126 Co99 2.096 . S
O126 C107 1.247 . S
C127 O124 1.244 1_455 S
C127 O125 1.240 . S
H128 C102 0.931 . S
H129 C111 0.931 . S
H130 C115 0.929 . S
H131 C117 0.930 . S
Co132 N136 2.148 . S
Co132 N142 2.128 1_545 S
Co132 N152 2.194 1_545 S
Co132 O157 2.351 1_545 S
Co132 O158 2.155 . S
Co132 O159 2.096 . S
C133 N136 1.301 . S
C133 N137 1.328 . S
C133 H138 0.930 . S
C134 C135 1.333 . S
C134 N136 1.317 . S
C134 H139 0.930 . S
C135 C134 1.333 . S
C135 N137 1.350 . S
C135 H161 0.931 . S
N136 Co132 2.148 . S
N136 C133 1.301 . S
N136 C134 1.317 . S
N137 C133 1.328 . S
N137 C135 1.350 . S
H138 C133 0.930 . S
H139 C134 0.930 . S
C140 O141 1.224 . S
C140 O159 1.247 . S
O141 C140 1.224 . S
N142 Co132 2.128 1_565 S
N142 C143 1.355 . S
N142 C145 1.311 1_565 S
C143 N142 1.355 . S
C143 C144 1.363 . S
C143 H155 0.929 . S
C144 C143 1.363 . S
C144 N146 1.375 . S
C144 H162 0.931 . S
C145 N142 1.311 1_545 S
C145 N146 1.347 1_545 S
C145 H156 0.929 . S
N146 C144 1.375 . S
N146 C145 1.347 1_565 S
C147 C150 1.365 . S
C147 N152 1.328 . S
C147 H153 0.929 . S
C148 C149 1.362 . S
C148 C151 1.378 . S
C148 H163 0.929 . S
C149 C148 1.362 . S
C149 C150 1.366 . S
C150 C147 1.365 . S
C150 C149 1.366 . S
C150 H164 0.930 . S
C151 C148 1.378 . S
C151 N152 1.315 . S
C151 H154 0.930 . S
N152 Co132 2.194 1_565 S
N152 C147 1.328 . S
N152 C151 1.315 . S
H153 C147 0.929 . S
H154 C151 0.930 . S
H155 C143 0.929 . S
H156 C145 0.929 . S
O157 Co132 2.351 1_565 S
O157 C160 1.244 1_565 S
O158 Co132 2.155 . S
O158 C160 1.240 . S
O159 Co132 2.096 . S
O159 C140 1.247 . S
C160 O157 1.244 1_545 S
C160 O158 1.240 . S
H161 C135 0.931 . S
H162 C144 0.931 . S
H163 C148 0.929 . S
H164 C150 0.930 . S
Co165 N169 2.148 . S
Co165 N175 2.128 . S
Co165 N185 2.194 . S
Co165 O190 2.351 . S
Co165 O191 2.155 . S
Co165 O192 2.096 . S
C166 N169 1.301 . S
C166 N170 1.328 . S
C166 H171 0.930 . S
C167 C168 1.333 . S
C167 N169 1.317 . S
C167 H172 0.930 . S
C168 C167 1.333 . S
C168 N170 1.350 . S
C168 H194 0.931 . S
N169 Co165 2.148 . S
N169 C166 1.301 . S
N169 C167 1.317 . S
N170 C166 1.328 . S
N170 C168 1.350 . S
H171 C166 0.930 . S
H172 C167 0.930 . S
C173 O174 1.224 . S
C173 O192 1.247 . S
O174 C173 1.224 . S
N175 Co165 2.128 . S
N175 C176 1.355 . S
N175 C178 1.311 . S
C176 N175 1.355 . S
C176 C177 1.363 . S
C176 H188 0.929 . S
C177 C176 1.363 . S
C177 N179 1.375 . S
C177 H195 0.931 . S
C178 N175 1.311 . S
C178 N179 1.347 . S
C178 H189 0.929 . S
N179 C177 1.375 . S
N179 C178 1.347 . S
C180 C183 1.365 . S
C180 N185 1.328 . S
C180 H186 0.929 . S
C181 C182 1.362 . S
C181 C184 1.378 . S
C181 H196 0.929 . S
C182 C181 1.362 . S
C182 C183 1.366 . S
C183 C180 1.365 . S
C183 C182 1.366 . S
C183 H197 0.930 . S
C184 C181 1.378 . S
C184 N185 1.315 . S
C184 H187 0.930 . S
N185 Co165 2.194 . S
N185 C180 1.328 . S
N185 C184 1.315 . S
H186 C180 0.929 . S
H187 C184 0.930 . S
H188 C176 0.929 . S
H189 C178 0.929 . S
O190 Co165 2.351 . S
O190 C193 1.244 . S
O191 Co165 2.155 . S
O191 C193 1.240 . S
O192 Co165 2.096 . S
O192 C173 1.247 . S
C193 O190 1.244 . S
C193 O191 1.240 . S
H194 C168 0.931 . S
H195 C177 0.931 . S
H196 C181 0.929 . S
H197 C183 0.930 . S
Co198 N202 2.148 . S
Co198 N208 2.128 1_545 S
Co198 N218 2.194 1_545 S
Co198 O223 2.351 1_545 S
Co198 O224 2.155 . S
Co198 O225 2.096 . S
C199 N202 1.301 . S
C199 N203 1.328 . S
C199 H204 0.930 . S
C200 C201 1.333 . S
C200 N202 1.317 . S
C200 H205 0.930 . S
C201 C200 1.333 . S
C201 N203 1.350 . S
C201 H227 0.931 . S
N202 Co198 2.148 . S
N202 C199 1.301 . S
N202 C200 1.317 . S
N203 C199 1.328 . S
N203 C201 1.350 . S
H204 C199 0.930 . S
H205 C200 0.930 . S
C206 O207 1.224 . S
C206 O225 1.247 . S
O207 C206 1.224 . S
N208 Co198 2.128 1_565 S
N208 C209 1.355 . S
N208 C211 1.311 1_565 S
C209 N208 1.355 . S
C209 C210 1.363 . S
C209 H221 0.929 . S
C210 C209 1.363 . S
C210 N212 1.375 . S
C210 H228 0.931 . S
C211 N208 1.311 1_545 S
C211 N212 1.347 1_545 S
C211 H222 0.929 . S
N212 C210 1.375 . S
N212 C211 1.347 1_565 S
C213 C216 1.365 . S
C213 N218 1.328 . S
C213 H219 0.929 . S
C214 C215 1.362 . S
C214 C217 1.378 . S
C214 H229 0.929 . S
C215 C214 1.362 . S
C215 C216 1.366 . S
C216 C213 1.365 . S
C216 C215 1.366 . S
C216 H230 0.930 . S
C217 C214 1.378 . S
C217 N218 1.315 . S
C217 H220 0.930 . S
N218 Co198 2.194 1_565 S
N218 C213 1.328 . S
N218 C217 1.315 . S
H219 C213 0.929 . S
H220 C217 0.930 . S
H221 C209 0.929 . S
H222 C211 0.929 . S
O223 Co198 2.351 1_565 S
O223 C226 1.244 1_565 S
O224 Co198 2.155 . S
O224 C226 1.240 . S
O225 Co198 2.096 . S
O225 C206 1.247 . S
C226 O223 1.244 1_545 S
C226 O224 1.240 . S
H227 C201 0.931 . S
H228 C210 0.931 . S
H229 C214 0.929 . S
H230 C216 0.930 . S
Co231 N235 2.148 . S
Co231 N241 2.128 . S
Co231 N251 2.194 . S
Co231 O256 2.351 . S
Co231 O257 2.155 . S
Co231 O258 2.096 . S
C232 N235 1.301 . S
C232 N236 1.328 . S
C232 H237 0.930 . S
C233 C234 1.333 . S
C233 N235 1.317 . S
C233 H238 0.930 . S
C234 C233 1.333 . S
C234 N236 1.350 . S
C234 H260 0.931 . S
N235 Co231 2.148 . S
N235 C232 1.301 . S
N235 C233 1.317 . S
N236 C232 1.328 . S
N236 C234 1.350 . S
H237 C232 0.930 . S
H238 C233 0.930 . S
C239 O240 1.224 . S
C239 O258 1.247 . S
O240 C239 1.224 . S
N241 Co231 2.128 . S
N241 C242 1.355 . S
N241 C244 1.311 . S
C242 N241 1.355 . S
C242 C243 1.363 . S
C242 H254 0.929 . S
C243 C242 1.363 . S
C243 N245 1.375 . S
C243 H261 0.931 . S
C244 N241 1.311 . S
C244 N245 1.347 . S
C244 H255 0.929 . S
N245 C243 1.375 . S
N245 C244 1.347 . S
C246 C249 1.365 . S
C246 N251 1.328 . S
C246 H252 0.929 . S
C247 C248 1.362 . S
C247 C250 1.378 . S
C247 H262 0.929 . S
C248 C247 1.362 . S
C248 C249 1.366 . S
C249 C246 1.365 . S
C249 C248 1.366 . S
C249 H263 0.930 . S
C250 C247 1.378 . S
C250 N251 1.315 . S
C250 H253 0.930 . S
N251 Co231 2.194 . S
N251 C246 1.328 . S
N251 C250 1.315 . S
H252 C246 0.929 . S
H253 C250 0.930 . S
H254 C242 0.929 . S
H255 C244 0.929 . S
O256 Co231 2.351 . S
O256 C259 1.244 . S
O257 Co231 2.155 . S
O257 C259 1.240 . S
O258 Co231 2.096 . S
O258 C239 1.247 . S
C259 O256 1.244 . S
C259 O257 1.240 . S
H260 C234 0.931 . S
H261 C243 0.931 . S
H262 C247 0.929 . S
H263 C249 0.930 . S
Co264 N268 2.148 . S
Co264 N274 2.128 1_655 S
Co264 N284 2.194 1_655 S
Co264 O289 2.351 1_655 S
Co264 O290 2.155 . S
Co264 O291 2.096 . S
C265 N268 1.301 . S
C265 N269 1.328 . S
C265 H270 0.930 . S
C266 C267 1.333 . S
C266 N268 1.317 . S
C266 H271 0.930 . S
C267 C266 1.333 . S
C267 N269 1.350 . S
C267 H293 0.931 . S
N268 Co264 2.148 . S
N268 C265 1.301 . S
N268 C266 1.317 . S
N269 C265 1.328 . S
N269 C267 1.350 . S
H270 C265 0.930 . S
H271 C266 0.930 . S
C272 O273 1.224 . S
C272 O291 1.247 . S
O273 C272 1.224 . S
N274 Co264 2.128 1_455 S
N274 C275 1.355 . S
N274 C277 1.311 1_455 S
C275 N274 1.355 . S
C275 C276 1.363 . S
C275 H287 0.929 . S
C276 C275 1.363 . S
C276 N278 1.375 . S
C276 H294 0.931 . S
C277 N274 1.311 1_655 S
C277 N278 1.347 1_655 S
C277 H288 0.929 . S
N278 C276 1.375 . S
N278 C277 1.347 1_455 S
C279 C282 1.365 . S
C279 N284 1.328 . S
C279 H285 0.929 . S
C280 C281 1.362 . S
C280 C283 1.378 . S
C280 H295 0.929 . S
C281 C280 1.362 . S
C281 C282 1.366 . S
C282 C279 1.365 . S
C282 C281 1.366 . S
C282 H296 0.930 . S
C283 C280 1.378 . S
C283 N284 1.315 . S
C283 H286 0.930 . S
N284 Co264 2.194 1_455 S
N284 C279 1.328 . S
N284 C283 1.315 . S
H285 C279 0.929 . S
H286 C283 0.930 . S
H287 C275 0.929 . S
H288 C277 0.929 . S
O289 Co264 2.351 1_455 S
O289 C292 1.244 1_455 S
O290 Co264 2.155 . S
O290 C292 1.240 . S
O291 Co264 2.096 . S
O291 C272 1.247 . S
C292 O289 1.244 1_655 S
C292 O290 1.240 . S
H293 C267 0.931 . S
H294 C276 0.931 . S
H295 C280 0.929 . S
H296 C282 0.930 . S
Co297 N301 2.148 . S
Co297 N307 2.128 1_565 S
Co297 N317 2.194 1_565 S
Co297 O322 2.351 1_565 S
Co297 O323 2.155 . S
Co297 O324 2.096 . S
C298 N301 1.301 . S
C298 N302 1.328 . S
C298 H303 0.930 . S
C299 C300 1.333 . S
C299 N301 1.317 . S
C299 H304 0.930 . S
C300 C299 1.333 . S
C300 N302 1.350 . S
C300 H326 0.931 . S
N301 Co297 2.148 . S
N301 C298 1.301 . S
N301 C299 1.317 . S
N302 C298 1.328 . S
N302 C300 1.350 . S
H303 C298 0.930 . S
H304 C299 0.930 . S
C305 O306 1.224 . S
C305 O324 1.247 . S
O306 C305 1.224 . S
N307 Co297 2.128 1_545 S
N307 C308 1.355 . S
N307 C310 1.311 1_545 S
C308 N307 1.355 . S
C308 C309 1.363 . S
C308 H320 0.929 . S
C309 C308 1.363 . S
C309 N311 1.375 . S
C309 H327 0.931 . S
C310 N307 1.311 1_565 S
C310 N311 1.347 1_565 S
C310 H321 0.929 . S
N311 C309 1.375 . S
N311 C310 1.347 1_545 S
C312 C315 1.365 . S
C312 N317 1.328 . S
C312 H318 0.929 . S
C313 C314 1.362 . S
C313 C316 1.378 . S
C313 H328 0.929 . S
C314 C313 1.362 . S
C314 C315 1.366 . S
C315 C312 1.365 . S
C315 C314 1.366 . S
C315 H329 0.930 . S
C316 C313 1.378 . S
C316 N317 1.315 . S
C316 H319 0.930 . S
N317 Co297 2.194 1_545 S
N317 C312 1.328 . S
N317 C316 1.315 . S
H318 C312 0.929 . S
H319 C316 0.930 . S
H320 C308 0.929 . S
H321 C310 0.929 . S
O322 Co297 2.351 1_545 S
O322 C325 1.244 1_545 S
O323 Co297 2.155 . S
O323 C325 1.240 . S
O324 Co297 2.096 . S
O324 C305 1.247 . S
C325 O322 1.244 1_565 S
C325 O323 1.240 . S
H326 C300 0.931 . S
H327 C309 0.931 . S
H328 C313 0.929 . S
H329 C315 0.930 . S
Co330 N334 2.148 . S
Co330 N340 2.128 . S
Co330 N350 2.194 . S
Co330 O355 2.351 . S
Co330 O356 2.155 . S
Co330 O357 2.096 . S
C331 N334 1.301 . S
C331 N335 1.328 . S
C331 H336 0.930 . S
C332 C333 1.333 . S
C332 N334 1.317 . S
C332 H337 0.930 . S
C333 C332 1.333 . S
C333 N335 1.350 . S
C333 H359 0.931 . S
N334 Co330 2.148 . S
N334 C331 1.301 . S
N334 C332 1.317 . S
N335 C331 1.328 . S
N335 C333 1.350 . S
H336 C331 0.930 . S
H337 C332 0.930 . S
C338 O339 1.224 . S
C338 O357 1.247 . S
O339 C338 1.224 . S
N340 Co330 2.128 . S
N340 C341 1.355 . S
N340 C343 1.311 . S
C341 N340 1.355 . S
C341 C342 1.363 . S
C341 H353 0.929 . S
C342 C341 1.363 . S
C342 N344 1.375 . S
C342 H360 0.931 . S
C343 N340 1.311 . S
C343 N344 1.347 . S
C343 H354 0.929 . S
N344 C342 1.375 . S
N344 C343 1.347 . S
C345 C348 1.365 . S
C345 N350 1.328 . S
C345 H351 0.929 . S
C346 C347 1.362 . S
C346 C349 1.378 . S
C346 H361 0.929 . S
C347 C346 1.362 . S
C347 C348 1.366 . S
C348 C345 1.365 . S
C348 C347 1.366 . S
C348 H362 0.930 . S
C349 C346 1.378 . S
C349 N350 1.315 . S
C349 H352 0.930 . S
N350 Co330 2.194 . S
N350 C345 1.328 . S
N350 C349 1.315 . S
H351 C345 0.929 . S
H352 C349 0.930 . S
H353 C341 0.929 . S
H354 C343 0.929 . S
O355 Co330 2.351 . S
O355 C358 1.244 . S
O356 Co330 2.155 . S
O356 C358 1.240 . S
O357 Co330 2.096 . S
O357 C338 1.247 . S
C358 O355 1.244 . S
C358 O356 1.240 . S
H359 C333 0.931 . S
H360 C342 0.931 . S
H361 C346 0.929 . S
H362 C348 0.930 . S
Co363 N367 2.148 . S
Co363 N373 2.128 1_455 S
Co363 N383 2.194 1_455 S
Co363 O388 2.351 1_455 S
Co363 O389 2.155 . S
Co363 O390 2.096 . S
C364 N367 1.301 . S
C364 N368 1.328 . S
C364 H369 0.930 . S
C365 C366 1.333 . S
C365 N367 1.317 . S
C365 H370 0.930 . S
C366 C365 1.333 . S
C366 N368 1.350 . S
C366 H392 0.931 . S
N367 Co363 2.148 . S
N367 C364 1.301 . S
N367 C365 1.317 . S
N368 C364 1.328 . S
N368 C366 1.350 . S
H369 C364 0.930 . S
H370 C365 0.930 . S
C371 O372 1.224 . S
C371 O390 1.247 . S
O372 C371 1.224 . S
N373 Co363 2.128 1_655 S
N373 C374 1.355 . S
N373 C376 1.311 1_655 S
C374 N373 1.355 . S
C374 C375 1.363 . S
C374 H386 0.929 . S
C375 C374 1.363 . S
C375 N377 1.375 . S
C375 H393 0.931 . S
C376 N373 1.311 1_455 S
C376 N377 1.347 1_455 S
C376 H387 0.929 . S
N377 C375 1.375 . S
N377 C376 1.347 1_655 S
C378 C381 1.365 . S
C378 N383 1.328 . S
C378 H384 0.929 . S
C379 C380 1.362 . S
C379 C382 1.378 . S
C379 H394 0.929 . S
C380 C379 1.362 . S
C380 C381 1.366 . S
C381 C378 1.365 . S
C381 C380 1.366 . S
C381 H395 0.930 . S
C382 C379 1.378 . S
C382 N383 1.315 . S
C382 H385 0.930 . S
N383 Co363 2.194 1_655 S
N383 C378 1.328 . S
N383 C382 1.315 . S
H384 C378 0.929 . S
H385 C382 0.930 . S
H386 C374 0.929 . S
H387 C376 0.929 . S
O388 Co363 2.351 1_655 S
O388 C391 1.244 1_655 S
O389 Co363 2.155 . S
O389 C391 1.240 . S
O390 Co363 2.096 . S
O390 C371 1.247 . S
C391 O388 1.244 1_455 S
C391 O389 1.240 . S
H392 C366 0.931 . S
H393 C375 0.931 . S
H394 C379 0.929 . S
H395 C381 0.930 . S
H396 C408 0.930 . S
H397 C410 0.930 . S
H398 C411 0.930 1_545 S
H399 C415 0.959 . S
H400 C415 0.959 . S
H401 C415 0.961 . S
H402 C416 0.960 . S
H403 C416 0.961 1_545 S
H404 C416 0.959 1_546 S
H405 C419 0.977 . S
H406 C420 0.931 . S
H407 C422 0.930 . S
C408 H396 0.930 . S
C408 C409 1.399 . S
C408 C413 1.399 . S
C409 C408 1.399 . S
C409 C410 1.376 . S
C410 H397 0.930 . S
C410 C409 1.376 . S
C410 C411 1.388 . S
C411 H398 0.930 1_565 S
C411 C410 1.388 . S
C411 C412 1.390 . S
C412 C411 1.390 . S
C412 C413 1.394 . S
C412 C418 1.469 1_565 S
C413 C408 1.399 . S
C413 C412 1.394 . S
C413 C414 1.516 1_556 S
C414 C413 1.516 1_554 S
C414 C415 1.502 . S
C414 C416 1.561 . S
C414 C417 1.526 1_565 S
C415 H399 0.959 . S
C415 H400 0.959 . S
C415 H401 0.961 . S
C415 C414 1.502 . S
C416 H402 0.960 . S
C416 H403 0.961 1_565 S
C416 H404 0.959 1_564 S
C416 C414 1.561 . S
C417 C414 1.526 1_545 S
C417 C418 1.392 1_554 S
C417 C422 1.390 . S
C418 C412 1.469 1_545 S
C418 C417 1.392 1_556 S
C418 C419 1.398 . S
C419 H405 0.977 . S
C419 C418 1.398 . S
C419 C420 1.341 1_556 S
C420 H406 0.931 . S
C420 C419 1.341 1_554 S
C420 C421 1.389 . S
C421 C420 1.389 . S
C421 C422 1.387 . S
C422 H407 0.930 . S
C422 C417 1.390 . S
C422 C421 1.387 . S
H423 C435 0.930 . S
H424 C437 0.930 . S
H425 C438 0.930 . S
H426 C442 0.959 . S
H427 C442 0.959 . S
H428 C442 0.961 . S
H429 C443 0.960 . S
H430 C443 0.961 . S
H431 C443 0.959 . S
H432 C446 0.929 . S
H433 C447 0.931 . S
H434 C449 0.930 . S
C435 H423 0.930 . S
C435 C436 1.399 . S
C435 C440 1.399 . S
C436 C435 1.399 . S
C436 C437 1.376 . S
C437 H424 0.930 . S
C437 C436 1.376 . S
C437 C438 1.388 . S
C438 H425 0.930 . S
C438 C437 1.388 . S
C438 C439 1.390 . S
C439 C438 1.390 . S
C439 C440 1.394 . S
C439 C445 1.465 . S
C440 C435 1.399 . S
C440 C439 1.394 . S
C440 C441 1.516 . S
C441 C440 1.516 . S
C441 C442 1.502 . S
C441 C443 1.561 . S
C441 C444 1.526 . S
C442 H426 0.959 . S
C442 H427 0.959 . S
C442 H428 0.961 . S
C442 C441 1.502 . S
C443 H429 0.960 . S
C443 H430 0.961 . S
C443 H431 0.959 . S
C443 C441 1.561 . S
C444 C441 1.526 . S
C444 C445 1.396 . S
C444 C449 1.390 . S
C445 C439 1.465 . S
C445 C444 1.396 . S
C445 C446 1.399 . S
C446 H432 0.929 . S
C446 C445 1.399 . S
C446 C447 1.385 . S
C447 H433 0.931 . S
C447 C446 1.385 . S
C447 C448 1.389 . S
C448 C447 1.389 . S
C448 C449 1.387 . S
C449 H434 0.930 . S
C449 C444 1.390 . S
C449 C448 1.387 . S
H450 C462 0.930 . S
H451 C464 0.930 . S
H452 C465 0.930 . S
H453 C469 0.959 . S
H454 C469 0.959 . S
H455 C469 0.961 . S
H456 C470 0.960 . S
H457 C470 0.961 . S
H458 C470 0.959 . S
H459 C473 0.929 . S
H460 C474 0.931 . S
H461 C476 0.930 . S
C462 H450 0.930 . S
C462 C463 1.399 . S
C462 C467 1.399 . S
C463 C462 1.399 . S
C463 C464 1.376 . S
C464 H451 0.930 . S
C464 C463 1.376 . S
C464 C465 1.388 . S
C465 H452 0.930 . S
C465 C464 1.388 . S
C465 C466 1.390 . S
C466 C465 1.390 . S
C466 C467 1.394 . S
C466 C472 1.465 1_655 S
C467 C462 1.399 . S
C467 C466 1.394 . S
C467 C468 1.516 1_655 S
C468 C467 1.516 1_455 S
C468 C469 1.502 . S
C468 C470 1.561 . S
C468 C471 1.526 . S
C469 H453 0.959 . S
C469 H454 0.959 . S
C469 H455 0.961 . S
C469 C468 1.502 . S
C470 H456 0.960 . S
C470 H457 0.961 . S
C470 H458 0.959 . S
C470 C468 1.561 . S
C471 C468 1.526 . S
C471 C472 1.396 . S
C471 C476 1.390 . S
C472 C466 1.465 1_455 S
C472 C471 1.396 . S
C472 C473 1.399 . S
C473 H459 0.929 . S
C473 C472 1.399 . S
C473 C474 1.385 . S
C474 H460 0.931 . S
C474 C473 1.385 . S
C474 C475 1.389 . S
C475 C474 1.389 . S
C475 C476 1.387 . S
C476 H461 0.930 . S
C476 C471 1.390 . S
C476 C475 1.387 . S
H477 C489 0.930 . S
H478 C491 0.930 . S
H479 C492 0.930 1_565 S
H480 C496 0.959 . S
H481 C496 0.959 . S
H482 C496 0.961 . S
H483 C497 0.960 . S
H484 C497 0.961 . S
H485 C497 0.959 . S
H486 C500 0.929 . S
H487 C501 0.931 . S
H488 C503 0.930 . S
C489 H477 0.930 . S
C489 C490 1.399 . S
C489 C494 1.399 . S
C490 C489 1.399 . S
C490 C491 1.376 . S
C491 H478 0.930 . S
C491 C490 1.376 . S
C491 C492 1.388 . S
C492 H479 0.930 1_545 S
C492 C491 1.388 . S
C492 C493 1.390 . S
C493 C492 1.390 . S
C493 C494 1.394 . S
C493 C499 1.465 1_545 S
C494 C489 1.399 . S
C494 C493 1.394 . S
C494 C495 1.516 . S
C495 C494 1.516 . S
C495 C496 1.502 . S
C495 C497 1.561 . S
C495 C498 1.526 1_545 S
C496 H480 0.959 . S
C496 H481 0.959 . S
C496 H482 0.961 . S
C496 C495 1.502 . S
C497 H483 0.960 . S
C497 H484 0.961 . S
C497 H485 0.959 . S
C497 C495 1.561 . S
C498 C495 1.526 1_565 S
C498 C499 1.396 . S
C498 C503 1.390 . S
C499 C493 1.465 1_565 S
C499 C498 1.396 . S
C499 C500 1.399 . S
C500 H486 0.929 . S
C500 C499 1.399 . S
C500 C501 1.385 . S
C501 H487 0.931 . S
C501 C500 1.385 . S
C501 C502 1.389 . S
C502 C501 1.389 . S
C502 C503 1.387 . S
C503 H488 0.930 . S
C503 C498 1.390 . S
C503 C502 1.387 . S
H504 C516 0.930 . S
H505 C518 0.930 . S
H506 C519 0.930 . S
H507 C523 0.959 . S
H508 C523 0.959 . S
H509 C523 0.961 . S
H510 C524 0.960 . S
H511 C524 0.961 . S
H512 C524 0.959 . S
H513 C527 0.929 . S
H514 C528 0.931 . S
H515 C530 0.930 . S
C516 H504 0.930 . S
C516 C517 1.399 . S
C516 C521 1.399 . S
C517 C516 1.399 . S
C517 C518 1.376 . S
C518 H505 0.930 . S
C518 C517 1.376 . S
C518 C519 1.388 . S
C519 H506 0.930 . S
C519 C518 1.388 . S
C519 C520 1.390 . S
C520 C519 1.390 . S
C520 C521 1.394 . S
C520 C526 1.465 . S
C521 C516 1.399 . S
C521 C520 1.394 . S
C521 C522 1.516 . S
C522 C521 1.516 . S
C522 C523 1.502 . S
C522 C524 1.561 . S
C522 C525 1.526 . S
C523 H507 0.959 . S
C523 H508 0.959 . S
C523 H509 0.961 . S
C523 C522 1.502 . S
C524 H510 0.960 . S
C524 H511 0.961 . S
C524 H512 0.959 . S
C524 C522 1.561 . S
C525 C522 1.526 . S
C525 C526 1.396 . S
C525 C530 1.390 . S
C526 C520 1.465 . S
C526 C525 1.396 . S
C526 C527 1.399 . S
C527 H513 0.929 . S
C527 C526 1.399 . S
C527 C528 1.385 . S
C528 H514 0.931 . S
C528 C527 1.385 . S
C528 C529 1.389 . S
C529 C528 1.389 . S
C529 C530 1.387 . S
C530 H515 0.930 . S
C530 C525 1.390 . S
C530 C529 1.387 . S
H531 C543 0.930 . S
H532 C545 0.930 . S
H533 C546 0.930 . S
H534 C550 0.959 . S
H535 C550 0.959 . S
H536 C550 0.961 . S
H537 C551 0.960 . S
H538 C551 0.961 . S
H539 C551 0.959 . S
H540 C554 0.929 1_655 S
H541 C555 0.931 . S
H542 C557 0.930 . S
C543 H531 0.930 . S
C543 C544 1.399 . S
C543 C548 1.399 . S
C544 C543 1.399 . S
C544 C545 1.376 . S
C545 H532 0.930 . S
C545 C544 1.376 . S
C545 C546 1.388 . S
C546 H533 0.930 . S
C546 C545 1.388 . S
C546 C547 1.390 . S
C547 C546 1.390 . S
C547 C548 1.394 . S
C547 C553 1.465 1_655 S
C548 C543 1.399 . S
C548 C547 1.394 . S
C548 C549 1.516 1_655 S
C549 C548 1.516 1_455 S
C549 C550 1.502 . S
C549 C551 1.561 . S
C549 C552 1.526 . S
C550 H534 0.959 . S
C550 H535 0.959 . S
C550 H536 0.961 . S
C550 C549 1.502 . S
C551 H537 0.960 . S
C551 H538 0.961 . S
C551 H539 0.959 . S
C551 C549 1.561 . S
C552 C549 1.526 . S
C552 C553 1.396 . S
C552 C557 1.390 . S
C553 C547 1.465 1_455 S
C553 C552 1.396 . S
C553 C554 1.399 . S
C554 H540 0.929 1_455 S
C554 C553 1.399 . S
C554 C555 1.385 . S
C555 H541 0.931 . S
C555 C554 1.385 . S
C555 C556 1.389 . S
C556 C555 1.389 . S
C556 C557 1.387 . S
C557 H542 0.930 . S
C557 C552 1.390 . S
C557 C556 1.387 . S
H558 C570 0.930 1_655 S
H559 C572 0.930 . S
H560 C573 0.930 . S
H561 C577 0.959 . S
H562 C577 0.959 . S
H563 C577 0.961 . S
H564 C578 0.960 . S
H565 C578 0.961 . S
H566 C578 0.959 . S
H567 C581 0.929 . S
H568 C582 0.931 . S
H569 C584 0.930 1_655 S
C570 H558 0.930 1_455 S
C570 C571 1.399 . S
C570 C575 1.399 . S
C571 C570 1.399 . S
C571 C572 1.376 . S
C572 H559 0.930 . S
C572 C571 1.376 . S
C572 C573 1.388 . S
C573 H560 0.930 . S
C573 C572 1.388 . S
C573 C574 1.390 . S
C574 C573 1.390 . S
C574 C575 1.394 . S
C574 C580 1.465 . S
C575 C570 1.399 . S
C575 C574 1.394 . S
C575 C576 1.517 1_445 S
C576 C575 1.517 1_665 S
C576 C577 1.505 . S
C576 C578 1.558 1_655 S
C576 C579 1.524 1_655 S
C577 H561 0.959 . S
C577 H562 0.959 . S
C577 H563 0.961 . S
C577 C576 1.505 . S
C578 H564 0.960 . S
C578 H565 0.961 . S
C578 H566 0.959 . S
C578 C576 1.558 1_455 S
C579 C576 1.524 1_455 S
C579 C580 1.396 1_565 S
C579 C584 1.390 . S
C580 C574 1.465 . S
C580 C579 1.396 1_545 S
C580 C581 1.399 . S
C581 H567 0.929 . S
C581 C580 1.399 . S
C581 C582 1.385 1_545 S
C582 H568 0.931 . S
C582 C581 1.385 1_565 S
C582 C583 1.389 . S
C583 C582 1.389 . S
C583 C584 1.387 . S
C584 H569 0.930 1_455 S
C584 C579 1.390 . S
C584 C583 1.387 . S
H585 C597 0.930 . S
H586 C599 0.930 . S
H587 C600 0.930 . S
H588 C604 0.959 . S
H589 C604 0.959 . S
H590 C604 0.961 . S
H591 C605 0.960 . S
H592 C605 0.961 . S
H593 C605 0.959 . S
H594 C608 0.929 1_655 S
H595 C609 0.931 . S
H596 C611 0.930 . S
C597 H585 0.930 . S
C597 C598 1.399 . S
C597 C602 1.399 . S
C598 C597 1.399 . S
C598 C599 1.376 1_545 S
C599 H586 0.930 . S
C599 C598 1.376 1_565 S
C599 C600 1.388 . S
C600 H587 0.930 . S
C600 C599 1.388 . S
C600 C601 1.387 1_565 S
C601 C600 1.387 1_545 S
C601 C602 1.402 . S
C601 C607 1.460 1_655 S
C602 C597 1.399 . S
C602 C601 1.402 . S
C602 C603 1.516 1_655 S
C603 C602 1.516 1_455 S
C603 C604 1.502 . S
C603 C605 1.561 . S
C603 C606 1.526 . S
C604 H588 0.959 . S
C604 H589 0.959 . S
C604 H590 0.961 . S
C604 C603 1.502 . S
C605 H591 0.960 . S
C605 H592 0.961 . S
C605 H593 0.959 . S
C605 C603 1.561 . S
C606 C603 1.526 . S
C606 C607 1.395 . S
C606 C611 1.390 . S
C607 C601 1.460 1_455 S
C607 C606 1.395 . S
C607 C608 1.401 1_545 S
C608 H594 0.929 1_455 S
C608 C607 1.401 1_565 S
C608 C609 1.385 . S
C609 H595 0.931 . S
C609 C608 1.385 . S
C609 C610 1.389 1_565 S
C610 C609 1.389 1_545 S
C610 C611 1.387 . S
C611 H596 0.930 . S
C611 C606 1.390 . S
C611 C610 1.387 . S
H612 C624 0.930 . S
H613 C626 0.930 . S
H614 C627 0.930 . S
H615 C631 0.959 . S
H616 C631 0.959 . S
H617 C631 0.961 1_545 S
H618 C632 0.960 . S
H619 C632 0.961 . S
H620 C632 0.959 . S
H621 C635 0.929 1_455 S
H622 C636 0.931 . S
H623 C638 0.930 . S
C624 H612 0.930 . S
C624 C625 1.399 . S
C624 C629 1.399 . S
C625 C624 1.399 . S
C625 C626 1.376 . S
C626 H613 0.930 . S
C626 C625 1.376 . S
C626 C627 1.388 . S
C627 H614 0.930 . S
C627 C626 1.388 . S
C627 C628 1.390 . S
C628 C627 1.390 . S
C628 C629 1.394 . S
C628 C634 1.465 1_445 S
C629 C624 1.399 . S
C629 C628 1.394 . S
C629 C630 1.516 1_455 S
C630 C629 1.516 1_655 S
C630 C631 1.502 1_545 S
C630 C632 1.561 . S
C630 C633 1.526 1_545 S
C631 H615 0.959 . S
C631 H616 0.959 . S
C631 H617 0.961 1_565 S
C631 C630 1.502 1_565 S
C632 H618 0.960 . S
C632 H619 0.961 . S
C632 H620 0.959 . S
C632 C630 1.561 . S
C633 C630 1.526 1_565 S
C633 C634 1.396 . S
C633 C638 1.390 . S
C634 C628 1.465 1_665 S
C634 C633 1.396 . S
C634 C635 1.399 . S
C635 H621 0.929 1_655 S
C635 C634 1.399 . S
C635 C636 1.385 . S
C636 H622 0.931 . S
C636 C635 1.385 . S
C636 C637 1.389 . S
C637 C636 1.389 . S
C637 C638 1.387 . S
C638 H623 0.930 . S
C638 C633 1.390 . S
C638 C637 1.387 . S
H639 C651 0.930 . S
H640 C653 0.930 . S
H641 C654 0.930 . S
H642 C658 0.959 . S
H643 C658 0.959 . S
H644 C658 0.961 . S
H645 C659 0.960 . S
H646 C659 0.961 . S
H647 C659 0.959 . S
H648 C662 0.929 1_545 S
H649 C663 0.931 . S
H650 C665 0.930 . S
C651 H639 0.930 . S
C651 C652 1.399 . S
C651 C656 1.408 . S
C652 C651 1.399 . S
C652 C653 1.376 1_655 S
C653 H640 0.930 . S
C653 C652 1.376 1_455 S
C653 C654 1.388 . S
C654 H641 0.930 . S
C654 C653 1.388 . S
C654 C655 1.390 1_455 S
C655 C654 1.390 1_655 S
C655 C656 1.394 . S
C655 C661 1.465 1_545 S
C656 C651 1.408 . S
C656 C655 1.394 . S
C656 C657 1.506 1_545 S
C657 C656 1.506 1_565 S
C657 C658 1.502 . S
C657 C659 1.561 . S
C657 C660 1.526 . S
C658 H642 0.959 . S
C658 H643 0.959 . S
C658 H644 0.961 . S
C658 C657 1.502 . S
C659 H645 0.960 . S
C659 H646 0.961 . S
C659 H647 0.959 . S
C659 C657 1.561 . S
C660 C657 1.526 . S
C660 C661 1.396 . S
C660 C665 1.390 . S
C661 C655 1.465 1_565 S
C661 C660 1.396 . S
C661 C662 1.399 1_655 S
C662 H648 0.929 1_565 S
C662 C661 1.399 1_455 S
C662 C663 1.385 . S
C663 H649 0.931 . S
C663 C662 1.385 . S
C663 C664 1.389 1_455 S
C664 C663 1.389 1_655 S
C664 C665 1.387 . S
C665 H650 0.930 . S
C665 C660 1.390 . S
C665 C664 1.387 . S
H666 C678 0.930 . S
H667 C680 0.930 . S
H668 C681 0.930 . S
H669 C685 0.959 . S
H670 C685 0.959 . S
H671 C685 0.961 . S
H672 C686 0.960 . S
H673 C686 0.961 . S
H674 C686 0.959 . S
H675 C689 0.929 1_455 S
H676 C690 0.931 . S
H677 C692 0.930 . S
C678 H666 0.930 . S
C678 C679 1.399 . S
C678 C683 1.399 . S
C679 C678 1.399 . S
C679 C680 1.376 1_565 S
C680 H667 0.930 . S
C680 C679 1.376 1_545 S
C680 C681 1.388 . S
C681 H668 0.930 . S
C681 C680 1.388 . S
C681 C682 1.390 1_545 S
C682 C681 1.390 1_565 S
C682 C683 1.394 . S
C682 C688 1.465 1_455 S
C683 C678 1.399 . S
C683 C682 1.394 . S
C683 C684 1.516 1_455 S
C684 C683 1.516 1_655 S
C684 C685 1.502 . S
C684 C686 1.561 . S
C684 C687 1.526 . S
C685 H669 0.959 . S
C685 H670 0.959 . S
C685 H671 0.961 . S
C685 C684 1.502 . S
C686 H672 0.960 . S
C686 H673 0.961 . S
C686 H674 0.959 . S
C686 C684 1.561 . S
C687 C684 1.526 . S
C687 C688 1.396 . S
C687 C692 1.390 . S
C688 C682 1.465 1_655 S
C688 C687 1.396 . S
C688 C689 1.399 1_565 S
C689 H675 0.929 1_655 S
C689 C688 1.399 1_545 S
C689 C690 1.385 . S
C690 H676 0.931 . S
C690 C689 1.385 . S
C690 C691 1.389 1_545 S
C691 C690 1.389 1_565 S
C691 C692 1.387 . S
C692 H677 0.930 . S
C692 C687 1.390 . S
C692 C691 1.387 . S
H693 C705 0.930 . S
H694 C707 0.930 . S
H695 C708 0.930 . S
H696 C712 0.959 1_655 S
H697 C712 0.959 . S
H698 C712 0.961 1_655 S
H699 C713 0.960 . S
H700 C713 0.961 . S
H701 C713 0.959 . S
H702 C716 0.929 . S
H703 C717 0.931 . S
H704 C719 0.930 . S
C705 H693 0.930 . S
C705 C706 1.399 . S
C705 C710 1.399 . S
C706 C705 1.399 . S
C706 C707 1.376 . S
C707 H694 0.930 . S
C707 C706 1.376 . S
C707 C708 1.388 . S
C708 H695 0.930 . S
C708 C707 1.388 . S
C708 C709 1.390 . S
C709 C708 1.390 . S
C709 C710 1.394 . S
C709 C715 1.465 1_655 S
C710 C705 1.399 . S
C710 C709 1.394 . S
C710 C711 1.516 1_665 S
C711 C710 1.516 1_445 S
C711 C712 1.502 . S
C711 C713 1.561 . S
C711 C714 1.526 . S
C712 H696 0.959 1_455 S
C712 H697 0.959 . S
C712 H698 0.961 1_455 S
C712 C711 1.502 . S
C713 H699 0.960 . S
C713 H700 0.961 . S
C713 H701 0.959 . S
C713 C711 1.561 . S
C714 C711 1.526 . S
C714 C715 1.396 1_545 S
C714 C719 1.390 . S
C715 C709 1.465 1_455 S
C715 C714 1.396 1_565 S
C715 C716 1.399 . S
C716 H702 0.929 . S
C716 C715 1.399 . S
C716 C717 1.385 1_565 S
C717 H703 0.931 . S
C717 C716 1.385 1_545 S
C717 C718 1.389 . S
C718 C717 1.389 . S
C718 C719 1.387 . S
C719 H704 0.930 . S
C719 C714 1.390 . S
C719 C718 1.387 . S
H720 C732 0.930 . S
H721 C734 0.930 . S
H722 C735 0.931 1_554 S
H723 C739 0.959 . S
H724 C739 0.959 . S
H725 C739 0.961 . S
H726 C740 0.960 . S
H727 C740 0.961 . S
H728 C740 0.959 . S
H729 C743 0.929 . S
H730 C744 0.931 . S
H731 C746 0.930 . S
C732 H720 0.930 . S
C732 C733 1.399 . S
C732 C737 1.399 . S
C733 C732 1.399 . S
C733 C734 1.376 . S
C734 H721 0.930 . S
C734 C733 1.376 . S
C734 C735 1.388 . S
C735 H722 0.931 1_556 S
C735 C734 1.388 . S
C735 C736 1.379 1_556 S
C736 C735 1.379 1_554 S
C736 C737 1.382 1_554 S
C736 C742 1.489 . S
C737 C732 1.399 . S
C737 C736 1.382 1_556 S
C737 C738 1.516 1_556 S
C738 C737 1.516 1_554 S
C738 C739 1.502 1_554 S
C738 C740 1.561 . S
C738 C741 1.526 . S
C739 H723 0.959 . S
C739 H724 0.959 . S
C739 H725 0.961 . S
C739 C738 1.502 1_556 S
C740 H726 0.960 . S
C740 H727 0.961 . S
C740 H728 0.959 . S
C740 C738 1.561 . S
C741 C738 1.526 . S
C741 C742 1.396 . S
C741 C746 1.390 . S
C742 C736 1.489 . S
C742 C741 1.396 . S
C742 C743 1.399 . S
C743 H729 0.929 . S
C743 C742 1.399 . S
C743 C744 1.385 . S
C744 H730 0.931 . S
C744 C743 1.385 . S
C744 C745 1.389 . S
C745 C744 1.389 . S
C745 C746 1.387 . S
C746 H731 0.930 . S
C746 C741 1.390 . S
C746 C745 1.387 . S
H747 C759 0.930 . S
H748 C761 0.930 . S
H749 C762 0.930 . S
H750 C766 0.959 . S
H751 C766 0.959 . S
H752 C766 0.961 . S
H753 C767 0.960 . S
H754 C767 0.961 . S
H755 C767 0.959 . S
H756 C770 0.929 . S
H757 C771 0.931 . S
H758 C773 0.930 . S
C759 H747 0.930 . S
C759 C760 1.399 . S
C759 C764 1.399 . S
C760 C759 1.399 . S
C760 C761 1.376 . S
C761 H748 0.930 . S
C761 C760 1.376 . S
C761 C762 1.388 . S
C762 H749 0.930 . S
C762 C761 1.388 . S
C762 C763 1.390 . S
C763 C762 1.390 . S
C763 C764 1.394 . S
C763 C769 1.465 . S
C764 C759 1.399 . S
C764 C763 1.394 . S
C764 C765 1.516 . S
C765 C764 1.516 . S
C765 C766 1.502 . S
C765 C767 1.561 . S
C765 C768 1.526 . S
C766 H750 0.959 . S
C766 H751 0.959 . S
C766 H752 0.961 . S
C766 C765 1.502 . S
C767 H753 0.960 . S
C767 H754 0.961 . S
C767 H755 0.959 . S
C767 C765 1.561 . S
C768 C765 1.526 . S
C768 C769 1.396 . S
C768 C773 1.390 . S
C769 C763 1.465 . S
C769 C768 1.396 . S
C769 C770 1.399 . S
C770 H756 0.929 . S
C770 C769 1.399 . S
C770 C771 1.385 . S
C771 H757 0.931 . S
C771 C770 1.385 . S
C771 C772 1.389 . S
C772 C771 1.389 . S
C772 C773 1.387 . S
C773 H758 0.930 . S
C773 C768 1.390 . S
C773 C772 1.387 . S
H774 C786 0.930 . S
H775 C788 0.930 . S
H776 C789 0.930 . S
H777 C793 0.959 . S
H778 C793 0.959 . S
H779 C793 0.961 . S
H780 C794 0.960 . S
H781 C794 0.961 . S
H782 C794 0.959 . S
H783 C797 0.929 . S
H784 C798 0.931 . S
H785 C800 0.930 . S
C786 H774 0.930 . S
C786 C787 1.399 . S
C786 C791 1.399 . S
C787 C786 1.399 . S
C787 C788 1.376 . S
C788 H775 0.930 . S
C788 C787 1.376 . S
C788 C789 1.388 . S
C789 H776 0.930 . S
C789 C788 1.388 . S
C789 C790 1.390 . S
C790 C789 1.390 . S
C790 C791 1.394 . S
C790 C796 1.465 . S
C791 C786 1.399 . S
C791 C790 1.394 . S
C791 C792 1.516 . S
C792 C791 1.516 . S
C792 C793 1.502 . S
C792 C794 1.561 . S
C792 C795 1.526 . S
C793 H777 0.959 . S
C793 H778 0.959 . S
C793 H779 0.961 . S
C793 C792 1.502 . S
C794 H780 0.960 . S
C794 H781 0.961 . S
C794 H782 0.959 . S
C794 C792 1.561 . S
C795 C792 1.526 . S
C795 C796 1.396 . S
C795 C800 1.390 . S
C796 C790 1.465 . S
C796 C795 1.396 . S
C796 C797 1.399 . S
C797 H783 0.929 . S
C797 C796 1.399 . S
C797 C798 1.385 . S
C798 H784 0.931 . S
C798 C797 1.385 . S
C798 C799 1.389 . S
C799 C798 1.389 . S
C799 C800 1.387 . S
C800 H785 0.930 . S
C800 C795 1.390 . S
C800 C799 1.387 . S
H801 C813 0.930 . S
H802 C815 0.930 . S
H803 C816 0.930 . S
H804 C820 0.959 . S
H805 C820 0.959 . S
H806 C820 0.961 . S
H807 C821 0.960 . S
H808 C821 0.961 . S
H809 C821 0.959 . S
H810 C824 0.929 . S
H811 C825 0.931 . S
H812 C827 0.930 . S
C813 H801 0.930 . S
C813 C814 1.399 . S
C813 C818 1.399 . S
C814 C813 1.399 . S
C814 C815 1.376 . S
C815 H802 0.930 . S
C815 C814 1.376 . S
C815 C816 1.388 . S
C816 H803 0.930 . S
C816 C815 1.388 . S
C816 C817 1.390 . S
C817 C816 1.390 . S
C817 C818 1.394 . S
C817 C823 1.465 . S
C818 C813 1.399 . S
C818 C817 1.394 . S
C818 C819 1.516 . S
C819 C818 1.516 . S
C819 C820 1.502 . S
C819 C821 1.561 . S
C819 C822 1.526 . S
C820 H804 0.959 . S
C820 H805 0.959 . S
C820 H806 0.961 . S
C820 C819 1.502 . S
C821 H807 0.960 . S
C821 H808 0.961 . S
C821 H809 0.959 . S
C821 C819 1.561 . S
C822 C819 1.526 . S
C822 C823 1.396 . S
C822 C827 1.390 . S
C823 C817 1.465 . S
C823 C822 1.396 . S
C823 C824 1.399 . S
C824 H810 0.929 . S
C824 C823 1.399 . S
C824 C825 1.385 . S
C825 H811 0.931 . S
C825 C824 1.385 . S
C825 C826 1.389 . S
C826 C825 1.389 . S
C826 C827 1.387 . S
C827 H812 0.930 . S
C827 C822 1.390 . S
C827 C826 1.387 . S
H828 C840 0.930 . S
H829 C842 0.930 . S
H830 C843 0.930 . S
H831 C847 0.959 . S
H832 C847 0.959 . S
H833 C847 0.961 . S
H834 C848 0.960 . S
H835 C848 0.961 . S
H836 C848 0.959 . S
H837 C851 0.929 . S
H838 C852 0.931 . S
H839 C854 0.930 . S
C840 H828 0.930 . S
C840 C841 1.399 . S
C840 C845 1.399 . S
C841 C840 1.399 . S
C841 C842 1.376 . S
C842 H829 0.930 . S
C842 C841 1.376 . S
C842 C843 1.388 . S
C843 H830 0.930 . S
C843 C842 1.388 . S
C843 C844 1.390 . S
C844 C843 1.390 . S
C844 C845 1.394 . S
C844 C850 1.465 . S
C845 C840 1.399 . S
C845 C844 1.394 . S
C845 C846 1.516 . S
C846 C845 1.516 . S
C846 C847 1.502 . S
C846 C848 1.561 . S
C846 C849 1.526 . S
C847 H831 0.959 . S
C847 H832 0.959 . S
C847 H833 0.961 . S
C847 C846 1.502 . S
C848 H834 0.960 . S
C848 H835 0.961 . S
C848 H836 0.959 . S
C848 C846 1.561 . S
C849 C846 1.526 . S
C849 C850 1.396 . S
C849 C854 1.390 . S
C850 C844 1.465 . S
C850 C849 1.396 . S
C850 C851 1.399 . S
C851 H837 0.929 . S
C851 C850 1.399 . S
C851 C852 1.385 . S
C852 H838 0.931 . S
C852 C851 1.385 . S
C852 C853 1.389 . S
C853 C852 1.389 . S
C853 C854 1.387 . S
C854 H839 0.930 . S
C854 C849 1.390 . S
C854 C853 1.387 . S
H855 C867 0.930 . S
H856 C869 0.930 . S
H857 C870 0.930 . S
H858 C874 0.959 . S
H859 C874 0.959 . S
H860 C874 0.961 . S
H861 C875 0.960 . S
H862 C875 0.961 . S
H863 C875 0.959 . S
H864 C878 0.929 . S
H865 C879 0.931 . S
H866 C881 0.930 . S
C867 H855 0.930 . S
C867 C868 1.399 . S
C867 C872 1.399 . S
C868 C867 1.399 . S
C868 C869 1.376 . S
C869 H856 0.930 . S
C869 C868 1.376 . S
C869 C870 1.388 . S
C870 H857 0.930 . S
C870 C869 1.388 . S
C870 C871 1.390 . S
C871 C870 1.390 . S
C871 C872 1.394 . S
C871 C877 1.465 . S
C872 C867 1.399 . S
C872 C871 1.394 . S
C872 C873 1.516 . S
C873 C872 1.516 . S
C873 C874 1.502 . S
C873 C875 1.561 . S
C873 C876 1.526 . S
C874 H858 0.959 . S
C874 H859 0.959 . S
C874 H860 0.961 . S
C874 C873 1.502 . S
C875 H861 0.960 . S
C875 H862 0.961 . S
C875 H863 0.959 . S
C875 C873 1.561 . S
C876 C873 1.526 . S
C876 C877 1.396 . S
C876 C881 1.390 . S
C877 C871 1.465 . S
C877 C876 1.396 . S
C877 C878 1.399 . S
C878 H864 0.929 . S
C878 C877 1.399 . S
C878 C879 1.385 . S
C879 H865 0.931 . S
C879 C878 1.385 . S
C879 C880 1.389 . S
C880 C879 1.389 . S
C880 C881 1.387 . S
C881 H866 0.930 . S
C881 C876 1.390 . S
C881 C880 1.387 . S
H882 C894 0.930 . S
H883 C896 0.930 . S
H884 C897 0.930 . S
H885 C901 0.959 . S
H886 C901 0.959 . S
H887 C901 0.961 . S
H888 C902 0.960 . S
H889 C902 0.961 . S
H890 C902 0.959 . S
H891 C905 0.929 . S
H892 C906 0.931 . S
H893 C908 0.930 . S
C894 H882 0.930 . S
C894 C895 1.399 . S
C894 C899 1.399 . S
C895 C894 1.399 . S
C895 C896 1.376 . S
C896 H883 0.930 . S
C896 C895 1.376 . S
C896 C897 1.388 . S
C897 H884 0.930 . S
C897 C896 1.388 . S
C897 C898 1.390 . S
C898 C897 1.390 . S
C898 C899 1.394 . S
C898 C904 1.465 . S
C899 C894 1.399 . S
C899 C898 1.394 . S
C899 C900 1.516 . S
C900 C899 1.516 . S
C900 C901 1.502 . S
C900 C902 1.561 . S
C900 C903 1.526 . S
C901 H885 0.959 . S
C901 H886 0.959 . S
C901 H887 0.961 . S
C901 C900 1.502 . S
C902 H888 0.960 . S
C902 H889 0.961 . S
C902 H890 0.959 . S
C902 C900 1.561 . S
C903 C900 1.526 . S
C903 C904 1.396 . S
C903 C908 1.390 . S
C904 C898 1.465 . S
C904 C903 1.396 . S
C904 C905 1.399 . S
C905 H891 0.929 . S
C905 C904 1.399 . S
C905 C906 1.385 . S
C906 H892 0.931 . S
C906 C905 1.385 . S
C906 C907 1.389 . S
C907 C906 1.389 . S
C907 C908 1.387 . S
C908 H893 0.930 . S
C908 C903 1.390 . S
C908 C907 1.387 . S
H909 C921 0.930 . S
H910 C923 0.930 . S
H911 C924 0.930 . S
H912 C928 0.959 . S
H913 C928 0.959 . S
H914 C928 0.961 . S
H915 C929 0.960 . S
H916 C929 0.961 . S
H917 C929 0.929 1_556 S
H918 C932 0.929 . S
H919 C933 0.931 . S
H920 C935 0.895 1_554 S
C921 H909 0.930 . S
C921 C922 1.399 . S
C921 C926 1.399 . S
C922 C921 1.399 . S
C922 C923 1.376 1_554 S
C923 H910 0.930 . S
C923 C922 1.376 1_556 S
C923 C924 1.388 . S
C924 H911 0.930 . S
C924 C923 1.388 . S
C924 C925 1.390 . S
C925 C924 1.390 . S
C925 C926 1.394 1_556 S
C925 C931 1.465 . S
C926 C921 1.399 . S
C926 C925 1.394 1_554 S
C926 C927 1.516 . S
C927 C926 1.516 . S
C927 C928 1.502 . S
C927 C929 1.561 . S
C927 C930 1.526 1_554 S
C928 H912 0.959 . S
C928 H913 0.959 . S
C928 H914 0.961 . S
C928 C927 1.502 . S
C929 H915 0.960 . S
C929 H916 0.961 . S
C929 H917 0.929 1_554 S
C929 C927 1.561 . S
C930 C927 1.526 1_556 S
C930 C931 1.396 . S
C930 C935 1.390 . S
C931 C925 1.465 . S
C931 C930 1.396 . S
C931 C932 1.399 . S
C932 H918 0.929 . S
C932 C931 1.399 . S
C932 C933 1.385 . S
C933 H919 0.931 . S
C933 C932 1.385 . S
C933 C934 1.389 . S
C934 C933 1.389 . S
C934 C935 1.387 . S
C935 H920 0.895 1_556 S
C935 C930 1.390 . S
C935 C934 1.387 . S
H936 C948 0.930 . S
H937 C950 0.930 . S
H938 C951 0.930 . S
H939 C955 0.959 . S
H940 C955 0.959 . S
H941 C955 0.961 . S
H942 C956 0.960 . S
H943 C956 0.961 . S
H944 C956 0.959 . S
H945 C959 0.929 . S
H946 C960 0.931 . S
H947 C962 0.930 . S
C948 H936 0.930 . S
C948 C949 1.399 . S
C948 C953 1.399 . S
C949 C948 1.399 . S
C949 C950 1.376 . S
C950 H937 0.930 . S
C950 C949 1.376 . S
C950 C951 1.388 . S
C951 H938 0.930 . S
C951 C950 1.388 . S
C951 C952 1.390 . S
C952 C951 1.390 . S
C952 C953 1.394 . S
C952 C958 1.465 . S
C953 C948 1.399 . S
C953 C952 1.394 . S
C953 C954 1.516 . S
C954 C953 1.516 . S
C954 C955 1.502 . S
C954 C956 1.561 . S
C954 C957 1.526 . S
C955 H939 0.959 . S
C955 H940 0.959 . S
C955 H941 0.961 . S
C955 C954 1.502 . S
C956 H942 0.960 . S
C956 H943 0.961 . S
C956 H944 0.959 . S
C956 C954 1.561 . S
C957 C954 1.526 . S
C957 C958 1.396 . S
C957 C962 1.390 . S
C958 C952 1.465 . S
C958 C957 1.396 . S
C958 C959 1.399 . S
C959 H945 0.929 . S
C959 C958 1.399 . S
C959 C960 1.385 . S
C960 H946 0.931 . S
C960 C959 1.385 . S
C960 C961 1.389 . S
C961 C960 1.389 . S
C961 C962 1.387 . S
C962 H947 0.930 . S
C962 C957 1.390 . S
C962 C961 1.387 . S
H963 C975 0.930 . S
H964 C977 0.930 . S
H965 C978 0.930 . S
H966 C982 0.959 . S
H967 C982 0.959 . S
H968 C982 0.961 . S
H969 C983 0.960 . S
H970 C983 0.961 . S
H971 C983 0.959 . S
H972 C986 0.929 . S
H973 C987 0.931 . S
H974 C989 0.930 . S
C975 H963 0.930 . S
C975 C976 1.399 . S
C975 C980 1.399 . S
C976 C975 1.399 . S
C976 C977 1.376 . S
C977 H964 0.930 . S
C977 C976 1.376 . S
C977 C978 1.388 . S
C978 H965 0.930 . S
C978 C977 1.388 . S
C978 C979 1.390 . S
C979 C978 1.390 . S
C979 C980 1.394 . S
C979 C985 1.465 . S
C980 C975 1.399 . S
C980 C979 1.394 . S
C980 C981 1.516 . S
C981 C980 1.516 . S
C981 C982 1.502 . S
C981 C983 1.561 . S
C981 C984 1.526 . S
C982 H966 0.959 . S
C982 H967 0.959 . S
C982 H968 0.961 . S
C982 C981 1.502 . S
C983 H969 0.960 . S
C983 H970 0.961 . S
C983 H971 0.959 . S
C983 C981 1.561 . S
C984 C981 1.526 . S
C984 C985 1.396 . S
C984 C989 1.390 . S
C985 C979 1.465 . S
C985 C984 1.396 . S
C985 C986 1.399 . S
C986 H972 0.929 . S
C986 C985 1.399 . S
C986 C987 1.385 . S
C987 H973 0.931 . S
C987 C986 1.385 . S
C987 C988 1.389 . S
C988 C987 1.389 . S
C988 C989 1.387 . S
C989 H974 0.930 . S
C989 C984 1.390 . S
C989 C988 1.387 . S
H990 C1002 0.930 . S
H991 C1004 0.930 1_655 S
H992 C1005 0.930 . S
H993 C1009 0.959 . S
H994 C1009 0.959 . S
H995 C1009 0.961 . S
H996 C1010 0.960 . S
H997 C1010 0.961 . S
H998 C1010 0.959 . S
H999 C1013 0.929 . S
H1000 C1014 0.931 . S
H1001 C1016 0.930 . S
C1002 H990 0.930 . S
C1002 C1003 1.399 . S
C1002 C1007 1.399 . S
C1003 C1002 1.399 . S
C1003 C1004 1.376 . S
C1004 H991 0.930 1_455 S
C1004 C1003 1.376 . S
C1004 C1005 1.388 . S
C1005 H992 0.930 . S
C1005 C1004 1.388 . S
C1005 C1006 1.390 . S
C1006 C1005 1.390 . S
C1006 C1007 1.394 . S
C1006 C1012 1.465 . S
C1007 C1002 1.399 . S
C1007 C1006 1.394 . S
C1007 C1008 1.516 . S
C1008 C1007 1.516 . S
C1008 C1009 1.502 . S
C1008 C1010 1.561 . S
C1008 C1011 1.526 . S
C1009 H993 0.959 . S
C1009 H994 0.959 . S
C1009 H995 0.961 . S
C1009 C1008 1.502 . S
C1010 H996 0.960 . S
C1010 H997 0.961 . S
C1010 H998 0.959 . S
C1010 C1008 1.561 . S
C1011 C1008 1.526 . S
C1011 C1012 1.396 . S
C1011 C1016 1.390 . S
C1012 C1006 1.465 . S
C1012 C1011 1.396 . S
C1012 C1013 1.399 . S
C1013 H999 0.929 . S
C1013 C1012 1.399 . S
C1013 C1014 1.385 . S
C1014 H1000 0.931 . S
C1014 C1013 1.385 . S
C1014 C1015 1.389 . S
C1015 C1014 1.389 . S
C1015 C1016 1.387 . S
C1016 H1001 0.930 . S
C1016 C1011 1.390 . S
C1016 C1015 1.387 . S
H1017 C1029 0.930 . S
H1018 C1031 0.930 . S
H1019 C1032 0.930 . S
H1020 C1036 0.959 . S
H1021 C1036 0.959 . S
H1022 C1036 0.961 . S
H1023 C1037 0.960 . S
H1024 C1037 0.961 . S
H1025 C1037 0.959 . S
H1026 C1040 0.929 . S
H1027 C1041 0.931 . S
H1028 C1043 0.930 . S
C1029 H1017 0.930 . S
C1029 C1030 1.399 . S
C1029 C1034 1.399 . S
C1030 C1029 1.399 . S
C1030 C1031 1.376 . S
C1031 H1018 0.930 . S
C1031 C1030 1.376 . S
C1031 C1032 1.388 . S
C1032 H1019 0.930 . S
C1032 C1031 1.388 . S
C1032 C1033 1.390 . S
C1033 C1032 1.390 . S
C1033 C1034 1.394 . S
C1033 C1039 1.465 . S
C1034 C1029 1.399 . S
C1034 C1033 1.394 . S
C1034 C1035 1.516 . S
C1035 C1034 1.516 . S
C1035 C1036 1.502 . S
C1035 C1037 1.561 . S
C1035 C1038 1.526 . S
C1036 H1020 0.959 . S
C1036 H1021 0.959 . S
C1036 H1022 0.961 . S
C1036 C1035 1.502 . S
C1037 H1023 0.960 . S
C1037 H1024 0.961 . S
C1037 H1025 0.959 . S
C1037 C1035 1.561 . S
C1038 C1035 1.526 . S
C1038 C1039 1.396 . S
C1038 C1043 1.390 . S
C1039 C1033 1.465 . S
C1039 C1038 1.396 . S
C1039 C1040 1.399 . S
C1040 H1026 0.929 . S
C1040 C1039 1.399 . S
C1040 C1041 1.385 . S
C1041 H1027 0.931 . S
C1041 C1040 1.385 . S
C1041 C1042 1.389 . S
C1042 C1041 1.389 . S
C1042 C1043 1.387 . S
C1043 H1028 0.930 . S
C1043 C1038 1.390 . S
C1043 C1042 1.387 . S
H1044 C1056 0.930 . S
H1045 C1058 0.930 . S
H1046 C1059 0.930 . S
H1047 C1063 0.959 . S
H1048 C1063 0.959 . S
H1049 C1063 0.961 . S
H1050 C1064 0.960 . S
H1051 C1064 0.961 . S
H1052 C1064 0.959 . S
H1053 C1067 0.929 . S
H1054 C1068 0.931 . S
H1055 C1070 0.930 . S
C1056 H1044 0.930 . S
C1056 C1057 1.399 . S
C1056 C1061 1.399 . S
C1057 C1056 1.399 . S
C1057 C1058 1.376 . S
C1058 H1045 0.930 . S
C1058 C1057 1.376 . S
C1058 C1059 1.388 . S
C1059 H1046 0.930 . S
C1059 C1058 1.388 . S
C1059 C1060 1.390 . S
C1060 C1059 1.390 . S
C1060 C1061 1.394 . S
C1060 C1066 1.465 . S
C1061 C1056 1.399 . S
C1061 C1060 1.394 . S
C1061 C1062 1.516 . S
C1062 C1061 1.516 . S
C1062 C1063 1.502 1_655 S
C1062 C1064 1.561 . S
C1062 C1065 1.526 . S
C1063 H1047 0.959 . S
C1063 H1048 0.959 . S
C1063 H1049 0.961 . S
C1063 C1062 1.502 1_455 S
C1064 H1050 0.960 . S
C1064 H1051 0.961 . S
C1064 H1052 0.959 . S
C1064 C1062 1.561 . S
C1065 C1062 1.526 . S
C1065 C1066 1.396 . S
C1065 C1070 1.390 . S
C1066 C1060 1.465 . S
C1066 C1065 1.396 . S
C1066 C1067 1.399 . S
C1067 H1053 0.929 . S
C1067 C1066 1.399 . S
C1067 C1068 1.385 . S
C1068 H1054 0.931 . S
C1068 C1067 1.385 . S
C1068 C1069 1.389 . S
C1069 C1068 1.389 . S
C1069 C1070 1.387 . S
C1070 H1055 0.930 . S
C1070 C1065 1.390 . S
C1070 C1069 1.387 . S
H1071 C1083 0.930 . S
H1072 C1085 0.930 . S
H1073 C1086 0.930 . S
H1074 C1090 0.959 . S
H1075 C1090 0.959 . S
H1076 C1090 0.961 . S
H1077 C1091 0.960 . S
H1078 C1091 0.961 . S
H1079 C1091 0.959 . S
H1080 C1094 0.929 . S
H1081 C1095 0.931 . S
H1082 C1097 0.930 . S
C1083 H1071 0.930 . S
C1083 C1084 1.399 . S
C1083 C1088 1.399 . S
C1084 C1083 1.399 . S
C1084 C1085 1.376 1_565 S
C1085 H1072 0.930 . S
C1085 C1084 1.376 1_545 S
C1085 C1086 1.388 . S
C1086 H1073 0.930 . S
C1086 C1085 1.388 . S
C1086 C1087 1.390 1_545 S
C1087 C1086 1.390 1_565 S
C1087 C1088 1.394 . S
C1087 C1093 1.465 . S
C1088 C1083 1.399 . S
C1088 C1087 1.394 . S
C1088 C1089 1.516 . S
C1089 C1088 1.516 . S
C1089 C1090 1.502 . S
C1089 C1091 1.561 . S
C1089 C1092 1.526 . S
C1090 H1074 0.959 . S
C1090 H1075 0.959 . S
C1090 H1076 0.961 . S
C1090 C1089 1.502 . S
C1091 H1077 0.960 . S
C1091 H1078 0.961 . S
C1091 H1079 0.959 . S
C1091 C1089 1.561 . S
C1092 C1089 1.526 . S
C1092 C1093 1.396 . S
C1092 C1097 1.390 . S
C1093 C1087 1.465 . S
C1093 C1092 1.396 . S
C1093 C1094 1.399 1_565 S
C1094 H1080 0.929 . S
C1094 C1093 1.399 1_545 S
C1094 C1095 1.385 . S
C1095 H1081 0.931 . S
C1095 C1094 1.385 . S
C1095 C1096 1.389 1_545 S
C1096 C1095 1.389 1_565 S
C1096 C1097 1.387 . S
C1097 H1082 0.930 . S
C1097 C1092 1.390 . S
C1097 C1096 1.387 . S
H1098 C1110 0.930 . S
H1099 C1112 0.930 . S
H1100 C1113 0.930 . S
H1101 C1117 0.959 . S
H1102 C1117 0.959 . S
H1103 C1117 0.961 . S
H1104 C1118 0.960 . S
H1105 C1118 0.961 . S
H1106 C1118 0.959 . S
H1107 C1121 0.929 . S
H1108 C1122 0.931 . S
H1109 C1124 0.930 . S
C1110 H1098 0.930 . S
C1110 C1111 1.399 . S
C1110 C1115 1.399 . S
C1111 C1110 1.399 . S
C1111 C1112 1.376 . S
C1112 H1099 0.930 . S
C1112 C1111 1.376 . S
C1112 C1113 1.388 . S
C1113 H1100 0.930 . S
C1113 C1112 1.388 . S
C1113 C1114 1.390 . S
C1114 C1113 1.390 . S
C1114 C1115 1.394 . S
C1114 C1120 1.465 . S
C1115 C1110 1.399 . S
C1115 C1114 1.394 . S
C1115 C1116 1.516 . S
C1116 C1115 1.516 . S
C1116 C1117 1.502 . S
C1116 C1118 1.561 . S
C1116 C1119 1.526 . S
C1117 H1101 0.959 . S
C1117 H1102 0.959 . S
C1117 H1103 0.961 . S
C1117 C1116 1.502 . S
C1118 H1104 0.960 . S
C1118 H1105 0.961 . S
C1118 H1106 0.959 . S
C1118 C1116 1.561 . S
C1119 C1116 1.526 . S
C1119 C1120 1.396 . S
C1119 C1124 1.390 . S
C1120 C1114 1.465 . S
C1120 C1119 1.396 . S
C1120 C1121 1.399 . S
C1121 H1107 0.929 . S
C1121 C1120 1.399 . S
C1121 C1122 1.385 . S
C1122 H1108 0.931 . S
C1122 C1121 1.385 . S
C1122 C1123 1.389 . S
C1123 C1122 1.389 . S
C1123 C1124 1.387 . S
C1124 H1109 0.930 . S
C1124 C1119 1.390 . S
C1124 C1123 1.387 . S
H1125 C1137 0.930 . S
H1126 C1139 0.927 1_655 S
H1127 C1140 0.930 1_655 S
H1128 C1144 0.959 . S
H1129 C1144 0.959 . S
H1130 C1144 0.961 . S
H1131 C1145 0.960 . S
H1132 C1145 0.961 . S
H1133 C1145 0.959 1_655 S
H1134 C1148 0.929 1_655 S
H1135 C1149 0.931 . S
H1136 C1151 0.930 . S
C1137 H1125 0.930 . S
C1137 C1138 1.399 . S
C1137 C1142 1.399 . S
C1138 C1137 1.399 . S
C1138 C1139 1.376 . S
C1139 H1126 0.927 1_455 S
C1139 C1138 1.376 . S
C1139 C1140 1.388 . S
C1140 H1127 0.930 1_455 S
C1140 C1139 1.388 . S
C1140 C1141 1.390 . S
C1141 C1140 1.390 . S
C1141 C1142 1.394 . S
C1141 C1147 1.465 . S
C1142 C1137 1.399 . S
C1142 C1141 1.394 . S
C1142 C1143 1.516 . S
C1143 C1142 1.516 . S
C1143 C1144 1.502 . S
C1143 C1145 1.561 . S
C1143 C1146 1.526 . S
C1144 H1128 0.959 . S
C1144 H1129 0.959 . S
C1144 H1130 0.961 . S
C1144 C1143 1.502 . S
C1145 H1131 0.960 . S
C1145 H1132 0.961 . S
C1145 H1133 0.959 1_455 S
C1145 C1143 1.561 . S
C1146 C1143 1.526 . S
C1146 C1147 1.396 . S
C1146 C1151 1.390 . S
C1147 C1141 1.465 . S
C1147 C1146 1.396 . S
C1147 C1148 1.399 . S
C1148 H1134 0.929 1_455 S
C1148 C1147 1.399 . S
C1148 C1149 1.385 . S
C1149 H1135 0.931 . S
C1149 C1148 1.385 . S
C1149 C1150 1.389 . S
C1150 C1149 1.389 . S
C1150 C1151 1.387 . S
C1151 H1136 0.930 . S
C1151 C1146 1.390 . S
C1151 C1150 1.387 . S
H1152 C1164 0.930 . S
H1153 C1166 0.930 . S
H1154 C1167 0.930 . S
H1155 C1171 0.959 . S
H1156 C1171 0.959 . S
H1157 C1171 0.961 . S
H1158 C1172 0.960 . S
H1159 C1172 0.961 . S
H1160 C1172 0.959 . S
H1161 C1175 0.929 . S
H1162 C1176 0.931 . S
H1163 C1178 0.930 . S
C1164 H1152 0.930 . S
C1164 C1165 1.399 . S
C1164 C1169 1.399 . S
C1165 C1164 1.399 . S
C1165 C1166 1.376 1_545 S
C1166 H1153 0.930 . S
C1166 C1165 1.376 1_565 S
C1166 C1167 1.388 . S
C1167 H1154 0.930 . S
C1167 C1166 1.388 . S
C1167 C1168 1.390 1_565 S
C1168 C1167 1.390 1_545 S
C1168 C1169 1.394 . S
C1168 C1174 1.465 . S
C1169 C1164 1.399 . S
C1169 C1168 1.394 . S
C1169 C1170 1.516 . S
C1170 C1169 1.516 . S
C1170 C1171 1.502 . S
C1170 C1172 1.561 . S
C1170 C1173 1.526 . S
C1171 H1155 0.959 . S
C1171 H1156 0.959 . S
C1171 H1157 0.961 . S
C1171 C1170 1.502 . S
C1172 H1158 0.960 . S
C1172 H1159 0.961 . S
C1172 H1160 0.959 . S
C1172 C1170 1.561 . S
C1173 C1170 1.526 . S
C1173 C1174 1.396 . S
C1173 C1178 1.390 . S
C1174 C1168 1.465 . S
C1174 C1173 1.396 . S
C1174 C1175 1.399 1_545 S
C1175 H1161 0.929 . S
C1175 C1174 1.399 1_565 S
C1175 C1176 1.385 . S
C1176 H1162 0.931 . S
C1176 C1175 1.385 . S
C1176 C1177 1.389 1_565 S
C1177 C1176 1.389 1_545 S
C1177 C1178 1.387 . S
C1178 H1163 0.930 . S
C1178 C1173 1.390 . S
C1178 C1177 1.387 . S
H1179 C1191 0.930 . S
H1180 C1193 0.930 . S
H1181 C1194 0.930 . S
H1182 C1198 0.959 . S
H1183 C1198 0.959 . S
H1184 C1198 0.961 . S
H1185 C1199 0.960 . S
H1186 C1199 0.961 . S
H1187 C1199 0.959 . S
H1188 C1202 0.929 . S
H1189 C1203 0.931 . S
H1190 C1205 0.930 . S
C1191 H1179 0.930 . S
C1191 C1192 1.399 . S
C1191 C1196 1.399 . S
C1192 C1191 1.399 . S
C1192 C1193 1.376 . S
C1193 H1180 0.930 . S
C1193 C1192 1.376 . S
C1193 C1194 1.388 . S
C1194 H1181 0.930 . S
C1194 C1193 1.388 . S
C1194 C1195 1.390 . S
C1195 C1194 1.390 . S
C1195 C1196 1.394 . S
C1195 C1201 1.465 . S
C1196 C1191 1.399 . S
C1196 C1195 1.394 . S
C1196 C1197 1.516 . S
C1197 C1196 1.516 . S
C1197 C1198 1.502 . S
C1197 C1199 1.561 . S
C1197 C1200 1.526 . S
C1198 H1182 0.959 . S
C1198 H1183 0.959 . S
C1198 H1184 0.961 . S
C1198 C1197 1.502 . S
C1199 H1185 0.960 . S
C1199 H1186 0.961 . S
C1199 H1187 0.959 . S
C1199 C1197 1.561 . S
C1200 C1197 1.526 . S
C1200 C1201 1.396 . S
C1200 C1205 1.390 . S
C1201 C1195 1.465 . S
C1201 C1200 1.396 . S
C1201 C1202 1.399 . S
C1202 H1188 0.929 . S
C1202 C1201 1.399 . S
C1202 C1203 1.385 . S
C1203 H1189 0.931 . S
C1203 C1202 1.385 . S
C1203 C1204 1.389 . S
C1204 C1203 1.389 . S
C1204 C1205 1.387 . S
C1205 H1190 0.930 . S
C1205 C1200 1.390 . S
C1205 C1204 1.387 . S
C409 C239 1.462 . S
C421 C8 1.436 . S
C436 C272 1.373 . S
C448 C41 1.399 . S
C463 C74 1.450 . S
C475 C305 1.468 . S
C490 C338 1.436 . S
C502 C107 1.413 . S
C517 C140 1.430 . S
C529 C371 1.431 . S
C544 C206 1.432 . S
C556 C173 1.459 . S
C571 N14 1.849 . S
C583 N278 1.879 . S
C598 N47 1.857 . S
C610 N311 1.879 . S
C625 N344 1.819 . S
C637 N80 1.853 . S
C652 N377 1.852 . S
C664 N113 1.882 . S
C679 N146 1.854 . S
C691 N212 1.881 . S
C706 N245 1.817 . S
C718 N179 1.849 . S
C733 N236 1.066 . S
C745 C17 1.110 . S
C760 N269 1.167 . S
C772 C50 1.183 . S
C787 N302 1.142 . S
C799 C83 1.190 . S
C814 C116 1.141 . S
C826 N335 1.144 . S
C841 N368 1.175 . S
C853 C149 1.185 . S
C868 C182 1.197 . S
C880 N203 1.176 . S
C895 C215 1.117 . S
C907 N170 1.076 . S
C922 N5 1.162 . S
C934 C248 1.201 . S
C949 N38 1.184 . S
C961 C281 1.189 . S
C976 N71 1.088 . S
C988 C314 1.116 . S
C1003 N104 1.215 . S
C1015 C347 1.216 . S
C1030 N137 1.122 . S
C1042 C380 1.163 . S
C1057 C292 1.422 . S
C1069 C28 1.401 . S
C1084 C61 1.399 . S
C1096 C325 1.388 . S
C1111 C358 1.446 . S
C1123 C94 1.467 . S
C1138 C127 1.388 . S
C1150 C391 1.405 . S
C1165 C160 1.397 . S
C1177 C226 1.389 . S
C1192 C259 1.470 . S
C1204 C193 1.449 . S
