# Generated by pormake.
# Topology une, (4)-cn, num edge types: 1
# Building blocks:
#     Node 0, Type 0, BuildingBlock: GALJAG_clean_sbu_0, # of connection points: 4
#     Node 1, Type 0, BuildingBlock: GALJAG_clean_sbu_0, # of connection points: 4
#     Node 2, Type 0, BuildingBlock: GALJAG_clean_sbu_0, # of connection points: 4
#     Node 3, Type 0, BuildingBlock: GALJAG_clean_sbu_0, # of connection points: 4
#     Node 4, Type 0, BuildingBlock: GALJAG_clean_sbu_0, # of connection points: 4
#     Node 5, Type 0, BuildingBlock: GALJAG_clean_sbu_0, # of connection points: 4
#     Node 6, Type 0, BuildingBlock: GALJAG_clean_sbu_0, # of connection points: 4
#     Node 7, Type 0, BuildingBlock: GALJAG_clean_sbu_0, # of connection points: 4
#     Node 8, Type 0, BuildingBlock: GALJAG_clean_sbu_0, # of connection points: 4
#     Node 9, Type 0, BuildingBlock: GALJAG_clean_sbu_0, # of connection points: 4
#     Node 10, Type 0, BuildingBlock: GALJAG_clean_sbu_0, # of connection points: 4
#     Node 11, Type 0, BuildingBlock: GALJAG_clean_sbu_0, # of connection points: 4
#     Node 12, Type 0, BuildingBlock: GALJAG_clean_sbu_0, # of connection points: 4
#     Node 13, Type 0, BuildingBlock: GALJAG_clean_sbu_0, # of connection points: 4
#     Node 14, Type 0, BuildingBlock: GALJAG_clean_sbu_0, # of connection points: 4
#     Node 15, Type 0, BuildingBlock: GALJAG_clean_sbu_0, # of connection points: 4
#     Node 16, Type 0, BuildingBlock: GALJAG_clean_sbu_0, # of connection points: 4
#     Node 17, Type 0, BuildingBlock: GALJAG_clean_sbu_0, # of connection points: 4
#     Edge 18, Type (0, 0), BuildingBlock: KIFKEQ_clean_linker_1, # of connection points: 2
#     Edge 19, Type (0, 0), BuildingBlock: KIFKEQ_clean_linker_1, # of connection points: 2
#     Edge 20, Type (0, 0), BuildingBlock: KIFKEQ_clean_linker_1, # of connection points: 2
#     Edge 21, Type (0, 0), BuildingBlock: KIFKEQ_clean_linker_1, # of connection points: 2
#     Edge 22, Type (0, 0), BuildingBlock: KIFKEQ_clean_linker_1, # of connection points: 2
#     Edge 23, Type (0, 0), BuildingBlock: KIFKEQ_clean_linker_1, # of connection points: 2
#     Edge 24, Type (0, 0), BuildingBlock: KIFKEQ_clean_linker_1, # of connection points: 2
#     Edge 25, Type (0, 0), BuildingBlock: KIFKEQ_clean_linker_1, # of connection points: 2
#     Edge 26, Type (0, 0), BuildingBlock: KIFKEQ_clean_linker_1, # of connection points: 2
#     Edge 27, Type (0, 0), BuildingBlock: KIFKEQ_clean_linker_1, # of connection points: 2
#     Edge 28, Type (0, 0), BuildingBlock: KIFKEQ_clean_linker_1, # of connection points: 2
#     Edge 29, Type (0, 0), BuildingBlock: KIFKEQ_clean_linker_1, # of connection points: 2
#     Edge 30, Type (0, 0), BuildingBlock: KIFKEQ_clean_linker_1, # of connection points: 2
#     Edge 31, Type (0, 0), BuildingBlock: KIFKEQ_clean_linker_1, # of connection points: 2
#     Edge 32, Type (0, 0), BuildingBlock: KIFKEQ_clean_linker_1, # of connection points: 2
#     Edge 33, Type (0, 0), BuildingBlock: KIFKEQ_clean_linker_1, # of connection points: 2
#     Edge 34, Type (0, 0), BuildingBlock: KIFKEQ_clean_linker_1, # of connection points: 2
#     Edge 35, Type (0, 0), BuildingBlock: KIFKEQ_clean_linker_1, # of connection points: 2
#     Edge 36, Type (0, 0), BuildingBlock: KIFKEQ_clean_linker_1, # of connection points: 2
#     Edge 37, Type (0, 0), BuildingBlock: KIFKEQ_clean_linker_1, # of connection points: 2
#     Edge 38, Type (0, 0), BuildingBlock: KIFKEQ_clean_linker_1, # of connection points: 2
#     Edge 39, Type (0, 0), BuildingBlock: KIFKEQ_clean_linker_1, # of connection points: 2
#     Edge 40, Type (0, 0), BuildingBlock: KIFKEQ_clean_linker_1, # of connection points: 2
#     Edge 41, Type (0, 0), BuildingBlock: KIFKEQ_clean_linker_1, # of connection points: 2
#     Edge 42, Type (0, 0), BuildingBlock: KIFKEQ_clean_linker_1, # of connection points: 2
#     Edge 43, Type (0, 0), BuildingBlock: KIFKEQ_clean_linker_1, # of connection points: 2
#     Edge 44, Type (0, 0), BuildingBlock: KIFKEQ_clean_linker_1, # of connection points: 2
#     Edge 45, Type (0, 0), BuildingBlock: KIFKEQ_clean_linker_1, # of connection points: 2
#     Edge 46, Type (0, 0), BuildingBlock: KIFKEQ_clean_linker_1, # of connection points: 2
#     Edge 47, Type (0, 0), BuildingBlock: KIFKEQ_clean_linker_1, # of connection points: 2
#     Edge 48, Type (0, 0), BuildingBlock: KIFKEQ_clean_linker_1, # of connection points: 2
#     Edge 49, Type (0, 0), BuildingBlock: KIFKEQ_clean_linker_1, # of connection points: 2
#     Edge 50, Type (0, 0), BuildingBlock: KIFKEQ_clean_linker_1, # of connection points: 2
#     Edge 51, Type (0, 0), BuildingBlock: KIFKEQ_clean_linker_1, # of connection points: 2
#     Edge 52, Type (0, 0), BuildingBlock: KIFKEQ_clean_linker_1, # of connection points: 2
#     Edge 53, Type (0, 0), BuildingBlock: KIFKEQ_clean_linker_1, # of connection points: 2
# Relax obj value: 0.162
# Max RMSD: 0.139
# Mean RMSD: 0.139
data_MOF--net-une--node1-GALJAG_clean_sbu_0--edge1-KIFKEQ_clean_linker_1
_symmetry_space_group_name_H-M    P1
_symmetry_Int_Tables_number       1
_symmetry_cell_setting            triclinic
loop_
_symmetry_equiv_pos_as_xyz
'x, y, z'
_cell_length_a     40.661836
_cell_length_b     40.69726
_cell_length_c     52.512442
_cell_angle_alpha  89.974788
_cell_angle_beta   90.03859
_cell_angle_gamma 120.0239
loop_
_atom_site_label
_atom_site_type_symbol
_atom_site_fract_x
_atom_site_fract_y
_atom_site_fract_z
_atom_type_partial_charge
In0 In 0.36068 0.05669 0.05588 0.0
O1 O 0.33374 0.06001 0.09297 0.0
O2 O 0.39172 0.10092 0.08761 0.0
C3 C 0.30269 0.98517 0.05748 0.0
C4 C 0.35333 0.10557 0.0254 0.0
C5 C 0.41138 0.04203 0.03268 0.0
O6 O 0.33438 0.99467 0.06769 0.0
O7 O 0.30033 0.01187 0.04703 0.0
O8 O 0.3884 0.0487 0.02086 0.0
O9 O 0.41024 0.04437 0.05667 0.0
C10 C 0.36245 0.08925 0.10132 0.0
O11 O 0.38382 0.11447 0.03708 0.0
O12 O 0.32691 0.07187 0.0288 0.0
In13 In 0.92231 0.29919 0.04686 0.0
O14 O 0.92065 0.26302 0.08043 0.0
O15 O 0.88473 0.28691 0.08231 0.0
C16 C 0.99434 0.31606 0.03996 0.0
C17 C 0.86903 0.24215 0.01904 0.0
C18 C 0.93369 0.36638 0.02871 0.0
O19 O 0.98413 0.3264 0.05967 0.0
O20 O 0.96801 0.29618 0.0245 0.0
O21 O 0.92017 0.33653 0.01563 0.0
O22 O 0.93901 0.36198 0.0519 0.0
C23 C 0.89515 0.26542 0.09248 0.0
O24 O 0.86224 0.26465 0.0315 0.0
O25 O 0.90282 0.24878 0.02041 0.0
In26 In 0.69768 0.63583 0.06014 0.0
O27 O 0.73467 0.60989 0.05178 0.0
O28 O 0.73728 0.65169 0.02613 0.0
C29 C 0.63042 0.58088 0.04146 0.0
C30 C 0.73107 0.6469 0.10639 0.0
C31 C 0.68763 0.69573 0.05496 0.0
O32 O 0.65898 0.60136 0.02786 0.0
O33 O 0.63601 0.58665 0.06518 0.0
O34 O 0.6635 0.66563 0.06598 0.0
O35 O 0.71697 0.69576 0.04709 0.0
C36 C 0.74926 0.62946 0.032 0.0
O37 O 0.73645 0.67341 0.09152 0.0
O38 O 0.70668 0.61409 0.09868 0.0
In39 In 0.61464 0.92138 0.93776 0.0
O40 O 0.63879 0.92057 0.89871 0.0
O41 O 0.58905 0.87054 0.91025 0.0
C42 C 0.66798 0.99218 0.95082 0.0
C43 C 0.63275 0.88141 0.96984 0.0
C44 C 0.55405 0.93089 0.94512 0.0
O45 O 0.66183 0.98139 0.9279 0.0
O46 O 0.64764 0.96721 0.9669 0.0
O47 O 0.55868 0.90657 0.95696 0.0
O48 O 0.57807 0.94798 0.92772 0.0
C49 C 0.61509 0.88639 0.89389 0.0
O50 O 0.60007 0.87781 0.96937 0.0
O51 O 0.65613 0.90518 0.95425 0.0
In52 In 0.06691 0.69623 0.94734 0.0
O53 O 0.12431 0.7278 0.96743 0.0
O54 O 0.07858 0.73274 0.98262 0.0
C55 C 0.05629 0.62527 0.94817 0.0
C56 C 0.09576 0.74228 0.90618 0.0
C57 C 0.99459 0.67514 0.95838 0.0
O58 O 0.08113 0.65198 0.96146 0.0
O59 O 0.03964 0.63534 0.9323 0.0
O60 O 0.00999 0.69188 0.93782 0.0
O61 O 0.01575 0.6698 0.9733 0.0
C62 C 0.11305 0.74196 0.9843 0.0
O63 O 0.07562 0.74594 0.92287 0.0
O64 O 0.10048 0.71411 0.90954 0.0
In65 In 0.29889 0.36935 0.95105 0.0
O66 O 0.25549 0.32789 0.92304 0.0
O67 O 0.28333 0.38604 0.91266 0.0
C68 C 0.30831 0.30968 0.95976 0.0
C69 C 0.25033 0.37863 0.98045 0.0
C70 C 0.36921 0.42606 0.96377 0.0
O71 O 0.3274 0.33445 0.94317 0.0
O72 O 0.28448 0.31502 0.97175 0.0
O73 O 0.34108 0.41333 0.9785 0.0
O74 O 0.36168 0.41172 0.9417 0.0
C75 C 0.25818 0.35237 0.90724 0.0
O76 O 0.26519 0.39835 0.96072 0.0
O77 O 0.26092 0.35504 0.9857 0.0
In78 In 0.03597 0.39466 0.38815 0.0
O79 O 0.00491 0.39613 0.42394 0.0
O80 O 0.06238 0.43918 0.42026 0.0
C81 C 0.97673 0.32359 0.38621 0.0
C82 C 0.03108 0.44108 0.35381 0.0
C83 C 0.09245 0.3826 0.37227 0.0
O84 O 0.00837 0.331 0.39553 0.0
O85 O 0.97499 0.35203 0.37844 0.0
O86 O 0.07482 0.39302 0.35766 0.0
O87 O 0.08289 0.37984 0.39543 0.0
C88 C 0.03207 0.42601 0.43299 0.0
O89 O 0.05738 0.45285 0.37014 0.0
O90 O 0.00781 0.40591 0.35458 0.0
In91 In 0.59196 0.64056 0.38911 0.0
O92 O 0.53805 0.60513 0.36605 0.0
O93 O 0.58523 0.59737 0.35915 0.0
C94 C 0.60601 0.70768 0.369 0.0
C95 C 0.55464 0.60758 0.4331 0.0
C96 C 0.66223 0.65081 0.39313 0.0
O97 O 0.60368 0.68057 0.35608 0.0
O98 O 0.59983 0.70079 0.39258 0.0
O99 O 0.65545 0.67762 0.3964 0.0
O100 O 0.63348 0.61886 0.38851 0.0
C101 C 0.55138 0.5878 0.35375 0.0
O102 O 0.58949 0.61963 0.42989 0.0
O103 O 0.5392 0.61535 0.41506 0.0
In104 In 0.35091 0.95005 0.39556 0.0
O105 O 0.38122 0.93522 0.36504 0.0
O106 O 0.40776 0.99226 0.37831 0.0
C107 C 0.28157 0.8882 0.38826 0.0
C108 C 0.38759 0.95275 0.43938 0.0
C109 C 0.33093 0.00164 0.38268 0.0
O110 O 0.3102 0.89516 0.37508 0.0
O111 O 0.28858 0.91059 0.40674 0.0
O112 O 0.33442 0.99456 0.40562 0.0
O113 O 0.33801 0.98314 0.36651 0.0
C114 C 0.40933 0.96846 0.36372 0.0
O115 O 0.37663 0.97595 0.43417 0.0
O116 O 0.37745 0.92621 0.42342 0.0
In117 In 0.30909 0.26734 0.28138 0.0
O118 O 0.34654 0.25785 0.2542 0.0
O119 O 0.28932 0.23663 0.24262 0.0
C120 C 0.36902 0.33777 0.28247 0.0
C121 C 0.2985 0.21016 0.31211 0.0
C122 C 0.25713 0.28452 0.2991 0.0
O123 O 0.34074 0.32895 0.2682 0.0
O124 O 0.3671 0.31092 0.29568 0.0
O125 O 0.28111 0.28202 0.31292 0.0
O126 O 0.25819 0.27706 0.27577 0.0
C127 C 0.3213 0.23977 0.23776 0.0
O128 O 0.2756 0.20586 0.29444 0.0
O129 O 0.32622 0.24343 0.31452 0.0
In130 In 0.7238 0.03811 0.27724 0.0
O131 O 0.73126 0.08236 0.24813 0.0
O132 O 0.75844 0.05077 0.23983 0.0
C133 C 0.65292 0.0266 0.28139 0.0
C134 C 0.77556 0.0846 0.31122 0.0
C135 C 0.71055 0.96871 0.29171 0.0
O136 O 0.65988 0.00325 0.2703 0.0
O137 O 0.68166 0.05585 0.2899 0.0
O138 O 0.72334 0.99686 0.30646 0.0
O139 O 0.7061 0.9758 0.26889 0.0
C140 C 0.75267 0.0774 0.23332 0.0
O141 O 0.78433 0.07104 0.29247 0.0
O142 O 0.74071 0.07412 0.31293 0.0
In143 In 0.95385 0.68701 0.28867 0.0
O144 O 0.92667 0.71117 0.31494 0.0
O145 O 0.89978 0.65112 0.31112 0.0
C146 C 0.02126 0.73745 0.30969 0.0
C147 C 0.92239 0.69141 0.24403 0.0
C148 C 0.96701 0.62872 0.28753 0.0
O149 O 0.99335 0.71298 0.32226 0.0
O150 O 0.01504 0.73777 0.28607 0.0
O151 O 0.98808 0.65953 0.27603 0.0
O152 O 0.93905 0.62722 0.29907 0.0
C153 C 0.89943 0.67908 0.32121 0.0
O154 O 0.92784 0.66447 0.24962 0.0
O155 O 0.93547 0.718 0.26012 0.0
In156 In 0.70283 0.7281 0.71946 0.0
O157 O 0.73102 0.79079 0.70948 0.0
O158 O 0.6808 0.75201 0.68938 0.0
C159 C 0.76227 0.71984 0.70519 0.0
C160 C 0.68398 0.74815 0.76391 0.0
C161 C 0.64879 0.6574 0.70746 0.0
O162 O 0.74705 0.73351 0.69113 0.0
O163 O 0.7493 0.71248 0.72765 0.0
O164 O 0.66668 0.66479 0.7283 0.0
O165 O 0.65752 0.68569 0.69335 0.0
C166 C 0.70659 0.786 0.69279 0.0
O167 O 0.65997 0.72673 0.74768 0.0
O168 O 0.71803 0.75789 0.75856 0.0
In169 In 0.26944 0.97187 0.72632 0.0
O170 O 0.27026 0.94815 0.76553 0.0
O171 O 0.22291 0.95443 0.75698 0.0
C172 C 0.34181 0.98757 0.72691 0.0
C173 C 0.2241 0.91531 0.69451 0.0
C174 C 0.28 0.03643 0.70404 0.0
O175 O 0.33281 0.01244 0.73181 0.0
O176 O 0.3143 0.95476 0.72246 0.0
O177 O 0.27582 0.00797 0.6918 0.0
O178 O 0.27733 0.03205 0.72798 0.0
C179 C 0.23822 0.94242 0.77247 0.0
O180 O 0.21267 0.93436 0.70675 0.0
O181 O 0.25846 0.9251 0.69812 0.0
In182 In 0.02521 0.29596 0.7307 0.0
O183 O 0.0445 0.31477 0.77156 0.0
O184 O 0.04473 0.26561 0.75885 0.0
C185 C 0.01102 0.35364 0.72963 0.0
C186 C 0.0839 0.30877 0.70077 0.0
C187 C 0.96017 0.24432 0.70761 0.0
O188 O 0.98859 0.32233 0.74009 0.0
O189 O 0.04069 0.35591 0.72034 0.0
O190 O 0.9889 0.26905 0.6958 0.0
O191 O 0.9645 0.24421 0.73151 0.0
C192 C 0.05346 0.28995 0.77626 0.0
O193 O 0.05544 0.27602 0.70361 0.0
O194 O 0.08248 0.33485 0.71281 0.0
In195 In 0.97106 0.59664 0.61587 0.0
O196 O 0.94413 0.53646 0.63155 0.0
O197 O 0.98843 0.58139 0.65292 0.0
C198 C 0.91477 0.61158 0.62722 0.0
C199 C 0.98301 0.56732 0.57266 0.0
C200 C 0.03164 0.66621 0.62233 0.0
O201 O 0.92238 0.59069 0.64071 0.0
O202 O 0.93377 0.623 0.60689 0.0
O203 O 0.00533 0.65992 0.60689 0.0
O204 O 0.02753 0.63738 0.63413 0.0
C205 C 0.96512 0.54627 0.65111 0.0
O206 O 0.00879 0.58817 0.58802 0.0
O207 O 0.95049 0.56197 0.5784 0.0
In208 In 0.39234 0.36176 0.60676 0.0
O209 O 0.38976 0.40004 0.57629 0.0
O210 O 0.4245 0.37618 0.56837 0.0
C211 C 0.32361 0.35226 0.61724 0.0
C212 C 0.45023 0.41087 0.63611 0.0
C213 C 0.38057 0.29257 0.62042 0.0
O214 O 0.32777 0.32777 0.60515 0.0
O215 O 0.35403 0.38162 0.62369 0.0
O216 O 0.39595 0.32126 0.63469 0.0
O217 O 0.37277 0.29897 0.59827 0.0
C218 C 0.41319 0.3986 0.56137 0.0
O219 O 0.45519 0.3969 0.616 0.0
O220 O 0.41597 0.39943 0.64166 0.0
In221 In 0.63489 0.03685 0.61445 0.0
O222 O 0.60449 0.06106 0.63764 0.0
O223 O 0.58397 0.00162 0.63966 0.0
C224 C 0.70423 0.09815 0.62263 0.0
C225 C 0.59441 0.02312 0.57068 0.0
C226 C 0.65697 0.98704 0.62744 0.0
O227 O 0.67555 0.09039 0.63601 0.0
O228 O 0.69732 0.07691 0.60346 0.0
O229 O 0.65734 -0.00293 0.60463 0.0
O230 O 0.64495 0.00168 0.64342 0.0
C231 C 0.58041 0.02927 0.64679 0.0
O232 O 0.5963 -0.00208 0.58339 0.0
O233 O 0.61498 0.05642 0.57914 0.0
H234 H 0.45468 0.01436 0.05332 0.0
H235 H 0.41937 0.03847 0.98149 0.0
H236 H 0.4871 0.98627 0.03055 0.0
H237 H 0.45109 0.00995 0.95882 0.0
H238 H 0.54695 0.99054 0.92799 0.0
H239 H 0.51354 0.01892 0.94892 0.0
H240 H 0.46992 0.92942 0.00513 0.0
H241 H 0.50373 0.9014 0.98443 0.0
C242 C 0.45415 0.01398 0.03269 0.0
C243 C 0.4345 0.02864 0.01922 0.0
C244 C 0.47234 -0.00248 0.01964 0.0
C245 C 0.47136 0.99549 0.99283 0.0
C246 C 0.45262 0.01121 0.97942 0.0
C247 C 0.43437 0.02751 0.99245 0.0
C248 C 0.52958 0.9765 0.9445 0.0
C249 C 0.528 0.94373 0.95454 0.0
C250 C 0.51053 0.99284 0.95656 0.0
C251 C 0.48953 0.97679 0.97896 0.0
C252 C 0.48653 0.943 0.98826 0.0
C253 C 0.5055 0.92664 0.97619 0.0
H254 H 0.97287 0.43669 0.05087 0.0
H255 H 0.92738 0.38088 0.97892 0.0
H256 H 0.00346 0.49815 0.02929 0.0
H257 H 0.95871 0.44191 0.95728 0.0
H258 H 0.99082 0.56319 0.93198 0.0
H259 H 0.95916 0.50037 0.95141 0.0
H260 H 0.05595 0.53389 1.00073 0.0
H261 H 0.08711 0.59702 0.98173 0.0
C262 C 0.96904 0.43758 0.03051 0.0
C263 C 0.94766 0.40394 0.01663 0.0
C264 C 0.987 0.47274 0.01806 0.0
C265 C 0.98405 0.475 0.99144 0.0
C266 C 0.96148 0.44136 0.97777 0.0
C267 C 0.94349 0.4063 0.99021 0.0
C268 C 0.00573 0.55685 0.94653 0.0
C269 C 0.04146 0.5851 0.95533 0.0
C270 C 0.98748 0.52083 0.95778 0.0
C271 C 0.00466 0.51222 0.97801 0.0
C272 C 0.04143 0.53984 0.98568 0.0
C273 C 0.05958 0.57586 0.97452 0.0
H274 H 0.38987 0.46858 0.00696 0.0
H275 H 0.43642 0.44045 0.94224 0.0
H276 H 0.45307 0.50479 0.02543 0.0
H277 H 0.49968 0.47543 0.96114 0.0
H278 H 0.61276 0.57145 0.99108 0.0
H279 H 0.55048 0.53585 0.97157 0.0
H280 H 0.50027 0.49647 0.04588 0.0
H281 H 0.56287 0.53367 0.06552 0.0
C282 C 0.41374 0.47035 0.99661 0.0
C283 C 0.40822 0.45182 0.9731 0.0
C284 C 0.44997 0.49071 0.00736 0.0
C285 C 0.48163 0.4927 0.99504 0.0
C286 C 0.47615 0.4749 0.97113 0.0
C287 C 0.43988 0.45485 0.96023 0.0
C288 C 0.58849 0.55495 0.00329 0.0
C289 C 0.59277 0.55546 0.02989 0.0
C290 C 0.55266 0.53433 0.99204 0.0
C291 C 0.52008 0.51335 0.00706 0.0
C292 C 0.52455 0.51291 0.03369 0.0
C293 C 0.56048 0.53388 0.04498 0.0
H294 H 0.12295 0.39426 0.32468 0.0
H295 H 0.12085 0.34313 0.39715 0.0
H296 H 0.16222 0.37024 0.30694 0.0
H297 H 0.15889 0.31776 0.37923 0.0
H298 H 0.25808 0.30954 0.3471 0.0
H299 H 0.21999 0.33457 0.36473 0.0
H300 H 0.16006 0.31352 0.29318 0.0
H301 H 0.19965 0.28969 0.27515 0.0
C302 C 0.13101 0.37795 0.33685 0.0
C303 C 0.11901 0.37077 0.36236 0.0
C304 C 0.15317 0.36377 0.32659 0.0
C305 C 0.1636 0.34174 0.34152 0.0
C306 C 0.15192 0.33502 0.36719 0.0
C307 C 0.13006 0.34954 0.37751 0.0
C308 C 0.23668 0.31007 0.3351 0.0
C309 C 0.23186 0.29757 0.3097 0.0
C310 C 0.21461 0.32428 0.34531 0.0
C311 C 0.18677 0.32609 0.33048 0.0
C312 C 0.18161 0.31313 0.30508 0.0
C313 C 0.20403 0.29915 0.29477 0.0
H314 H 0.61588 0.77277 0.39189 0.0
H315 H 0.62512 0.72762 0.31955 0.0
H316 H 0.64098 0.83545 0.37242 0.0
H317 H 0.65131 0.79004 0.30039 0.0
H318 H 0.66537 0.90075 0.26789 0.0
H319 H 0.63772 0.83738 0.2865 0.0
H320 H 0.69915 0.88622 0.35639 0.0
H321 H 0.72561 0.94938 0.33805 0.0
C322 C 0.62312 0.7762 0.37184 0.0
C323 C 0.61847 0.74524 0.35729 0.0
C324 C 0.63787 0.81218 0.3607 0.0
C325 C 0.64849 0.818 0.3348 0.0
C326 C 0.64306 0.78671 0.32024 0.0
C327 C 0.62816 0.75084 0.33131 0.0
C328 C 0.67328 0.89782 0.28711 0.0
C329 C 0.69768 0.93002 0.30149 0.0
C330 C 0.65742 0.86149 0.29783 0.0
C331 C 0.66584 0.85657 0.32311 0.0
C332 C 0.69124 0.88886 0.33713 0.0
C333 C 0.70682 0.9251 0.32649 0.0
H334 H 0.08952 0.78504 0.28667 0.0
H335 H 0.03796 0.74267 0.36017 0.0
H336 H 0.152 0.81949 0.30701 0.0
H337 H 0.10012 0.77638 0.38035 0.0
H338 H 0.2146 0.87547 0.40918 0.0
H339 H 0.15133 0.83992 0.39035 0.0
H340 H 0.19705 0.80522 0.32843 0.0
H341 H 0.26031 0.84118 0.34706 0.0
C342 C 0.0915 0.78332 0.30716 0.0
C343 C 0.05883 0.76118 0.3218 0.0
C344 C 0.12729 0.8027 0.31879 0.0
C345 C 0.13111 0.80044 0.34531 0.0
C346 C 0.09823 0.779 0.35995 0.0
C347 C 0.06258 0.75958 0.34833 0.0
C348 C 0.211 0.85964 0.39182 0.0
C349 C 0.24247 0.86114 0.37963 0.0
C350 C 0.17475 0.83935 0.38097 0.0
C351 C 0.1692 0.82016 0.35767 0.0
C352 C 0.20046 0.82035 0.34609 0.0
C353 C 0.23665 0.84056 0.35696 0.0
H354 H 0.86306 0.58289 0.66576 0.0
H355 H 0.91218 0.67386 0.6108 0.0
H356 H 0.82817 0.61088 0.68488 0.0
H357 H 0.87892 0.70304 0.63059 0.0
H358 H 0.7851 0.72561 0.65606 0.0
H359 H 0.82033 0.69874 0.63662 0.0
H360 H 0.83551 0.66149 0.71061 0.0
H361 H 0.79822 0.68697 0.72995 0.0
C362 C 0.86619 0.6088 0.65768 0.0
C363 C 0.89008 0.62601 0.63665 0.0
C364 C 0.84663 0.62521 0.66888 0.0
C365 C 0.85092 0.65959 0.65956 0.0
C366 C 0.87438 0.67635 0.63816 0.0
C367 C 0.89348 0.65961 0.62674 0.0
C368 C 0.7963 0.71207 0.66829 0.0
C369 C 0.7888 0.70839 0.69459 0.0
C370 C 0.81673 0.69671 0.65709 0.0
C371 C 0.83073 0.6776 0.67191 0.0
C372 C 0.8245 0.67524 0.69845 0.0
C373 C 0.80356 0.69029 0.70964 0.0
H374 H 0.33039 0.22385 0.59915 0.0
H375 H 0.40214 0.2746 0.66484 0.0
H376 H 0.30357 0.16136 0.61911 0.0
H377 H 0.37633 0.21236 0.68445 0.0
H378 H 0.29486 0.10393 0.72554 0.0
H379 H 0.31903 0.16513 0.7042 0.0
H380 H 0.3165 0.11265 0.63213 0.0
H381 H 0.29133 0.05159 0.65331 0.0
C382 C 0.34099 0.22154 0.61761 0.0
C383 C 0.36834 0.25412 0.63042 0.0
C384 C 0.32558 0.18574 0.62911 0.0
C385 C 0.33736 0.18178 0.65361 0.0
C386 C 0.36582 0.21434 0.66589 0.0
C387 C 0.38099 0.25003 0.6545 0.0
C388 C 0.29902 0.10546 0.7051 0.0
C389 C 0.2912 0.07294 0.69114 0.0
C390 C 0.31326 0.14059 0.69287 0.0
C391 C 0.32016 0.14401 0.66642 0.0
C392 C 0.31127 0.11116 0.65244 0.0
C393 C 0.29693 0.07609 0.66463 0.0
H394 H 0.77158 0.10931 0.60321 0.0
H395 H 0.72475 0.14539 0.66359 0.0
H396 H 0.83405 0.14337 0.62341 0.0
H397 H 0.78712 0.17981 0.68355 0.0
H398 H 0.89033 0.19694 0.72866 0.0
H399 H 0.82926 0.16344 0.70652 0.0
H400 H 0.88631 0.20598 0.63452 0.0
H401 H 0.94715 0.23878 0.65654 0.0
C402 C 0.77481 0.12526 0.62045 0.0
C403 C 0.74321 0.12462 0.6318 0.0
C404 C 0.81058 0.14466 0.6321 0.0
C405 C 0.81547 0.16379 0.65536 0.0
C406 C 0.78418 0.16462 0.66599 0.0
C407 C 0.74851 0.14529 0.65436 0.0
C408 C 0.88982 0.19868 0.70809 0.0
C409 C 0.92354 0.22051 0.69437 0.0
C410 C 0.85482 0.17985 0.69541 0.0
C411 C 0.85283 0.18237 0.66874 0.0
C412 C 0.88677 0.20323 0.65502 0.0
C413 C 0.92166 0.22212 0.66768 0.0
H414 H 0.41394 0.16154 0.11648 0.0
H415 H 0.30379 0.06621 0.13467 0.0
H416 H 0.40437 0.19998 0.14812 0.0
H417 H 0.29454 0.10413 0.16665 0.0
H418 H 0.27064 0.19181 0.202 0.0
H419 H 0.2822 0.15609 0.16919 0.0
H420 H 0.39954 0.20821 0.19285 0.0
H421 H 0.38823 0.2444 0.22495 0.0
C422 C 0.38805 0.14857 0.12762 0.0
C423 C 0.35967 0.11085 0.1231 0.0
C424 C 0.38247 0.17061 0.14571 0.0
C425 C 0.34842 0.15534 0.15975 0.0
C426 C 0.32069 0.11715 0.1558 0.0
C427 C 0.32622 0.09523 0.13768 0.0
C428 C 0.29897 0.19597 0.1999 0.0
C429 C 0.32846 0.22088 0.21608 0.0
C430 C 0.30557 0.17523 0.1813 0.0
C431 C 0.34178 0.17895 0.17851 0.0
C432 C 0.37143 0.2048 0.19424 0.0
C433 C 0.36486 0.22549 0.21275 0.0
H434 H 0.82695 0.24872 0.11323 0.0
H435 H 0.91914 0.22572 0.12138 0.0
H436 H 0.79139 0.20193 0.14605 0.0
H437 H 0.88451 0.18014 0.15508 0.0
H438 H 0.79819 0.07285 0.19634 0.0
H439 H 0.8326 0.11891 0.16259 0.0
H440 H 0.787 0.18849 0.18939 0.0
H441 H 0.75158 0.14189 0.22199 0.0
C442 C 0.83997 0.23426 0.12247 0.0
C443 C 0.87587 0.241 0.11478 0.0
C444 C 0.8196 0.20735 0.14135 0.0
C445 C 0.83485 0.18686 0.15327 0.0
C446 C 0.87136 0.19459 0.14602 0.0
C447 C 0.89149 0.22113 0.12691 0.0
C448 C 0.79527 0.0978 0.19474 0.0
C449 C 0.77201 0.10358 0.21174 0.0
C450 C 0.81529 0.12448 0.17557 0.0
C451 C 0.81283 0.15773 0.17318 0.0
C452 C 0.78923 0.1631 0.19018 0.0
C453 C 0.76897 0.13633 0.20905 0.0
H454 H 0.89234 0.7371 0.23389 0.0
H455 H 0.89481 0.63845 0.20629 0.0
H456 H 0.84364 0.72629 0.2024 0.0
H457 H 0.84699 0.62814 0.17447 0.0
H458 H 0.73359 0.59479 0.13833 0.0
H459 H 0.78028 0.60718 0.17176 0.0
H460 H 0.83204 0.72764 0.15779 0.0
H461 H 0.78492 0.71527 0.12505 0.0
C462 C 0.88305 0.71358 0.22075 0.0
C463 C 0.89746 0.68868 0.22256 0.0
C464 C 0.85504 0.70728 0.20273 0.0
C465 C 0.84091 0.67599 0.18607 0.0
C466 C 0.85644 0.65195 0.18736 0.0
C467 C 0.88427 0.65816 0.2054 0.0
C468 C 0.75452 0.6239 0.14276 0.0
C469 C 0.75555 0.654 0.12902 0.0
C470 C 0.7816 0.63104 0.1617 0.0
C471 C 0.81034 0.66844 0.16729 0.0
C472 C 0.81028 0.69854 0.15419 0.0
C473 C 0.78324 0.6914 0.13533 0.0
H474 H 0.67078 0.91477 0.85783 0.0
H475 H 0.5745 0.81015 0.88386 0.0
H476 H 0.68685 0.87939 0.82776 0.0
H477 H 0.59095 0.77456 0.85404 0.0
H478 H 0.6125 0.72976 0.77846 0.0
H479 H 0.59416 0.76243 0.80922 0.0
H480 H 0.7122 0.83649 0.82849 0.0
H481 H 0.7306 0.80412 0.79722 0.0
C482 C 0.65278 0.88422 0.85693 0.0
C483 C 0.62129 0.86529 0.8732 0.0
C484 C 0.66229 0.86386 0.83991 0.0
C485 C 0.64057 0.82404 0.83871 0.0
C486 C 0.60825 0.80521 0.85437 0.0
C487 C 0.59874 0.82561 0.87143 0.0
C488 C 0.63455 0.75269 0.78951 0.0
C489 C 0.67305 0.76441 0.78536 0.0
C490 C 0.62399 0.7714 0.8072 0.0
C491 C 0.65168 0.8024 0.82117 0.0
C492 C 0.69015 0.81319 0.8177 0.0
C493 C 0.70072 0.79437 0.80001 0.0
H494 H 0.14771 0.74681 0.87098 0.0
H495 H 0.08673 0.80277 0.89547 0.0
H496 H 0.182 0.79707 0.83963 0.0
H497 H 0.12129 0.85316 0.86453 0.0
H498 H 0.16437 0.91533 0.78714 0.0
H499 H 0.12873 0.8664 0.819 0.0
H500 H 0.23064 0.86415 0.83904 0.0
H501 H 0.266 0.91253 0.80703 0.0
C502 C 0.14145 0.76968 0.86955 0.0
C503 C 0.11451 0.77078 0.88569 0.0
C504 C 0.16135 0.7987 0.85177 0.0
C505 C 0.15465 0.82939 0.84969 0.0
C506 C 0.127 0.82989 0.86546 0.0
C507 C 0.10725 0.801 0.88325 0.0
C508 C 0.17927 0.90486 0.79868 0.0
C509 C 0.218 0.91781 0.79454 0.0
C510 C 0.15884 0.87673 0.81691 0.0
C511 C 0.17669 0.8609 0.83135 0.0
C512 C 0.21579 0.87507 0.82788 0.0
C513 C 0.23618 0.90317 0.80973 0.0
H514 H 0.24824 0.4001 0.87529 0.0
H515 H 0.2046 0.28152 0.89208 0.0
H516 H 0.19713 0.38268 0.84433 0.0
H517 H 0.15332 0.26417 0.86161 0.0
H518 H 0.08781 0.24804 0.78607 0.0
H519 H 0.1387 0.26276 0.81663 0.0
H520 H 0.1285 0.35684 0.84509 0.0
H521 H 0.07813 0.34246 0.81435 0.0
C522 C 0.22804 0.37034 0.87215 0.0
C523 C 0.23051 0.34223 0.88613 0.0
C524 C 0.19847 0.36033 0.85464 0.0
C525 C 0.17079 0.32199 0.85068 0.0
C526 C 0.17417 0.2939 0.86403 0.0
C527 C 0.2036 0.3039 0.88155 0.0
C528 C 0.09593 0.27139 0.7992 0.0
C529 C 0.0789 0.29405 0.79777 0.0
C530 C 0.12522 0.27994 0.81666 0.0
C531 C 0.13817 0.3114 0.83306 0.0
C532 C 0.11989 0.33297 0.83235 0.0
C533 C 0.09063 0.32439 0.81495 0.0
H534 H 0.08113 0.49769 0.45027 0.0
H535 H 0.97075 0.4001 0.46444 0.0
H536 H 0.06911 0.53317 0.48283 0.0
H537 H 0.9591 0.435 0.49753 0.0
H538 H 0.93287 0.51911 0.53672 0.0
H539 H 0.94563 0.48542 0.50305 0.0
H540 H 0.06278 0.53824 0.52731 0.0
H541 H 0.0503 0.57258 0.56014 0.0
C542 C 0.05459 0.4836 0.46068 0.0
C543 C 0.02696 0.44608 0.45483 0.0
C544 C 0.04763 0.50392 0.47937 0.0
C545 C 0.01295 0.48711 0.49277 0.0
C546 C 0.98577 0.4492 0.48728 0.0
C547 C 0.99264 0.429 0.46851 0.0
C548 C 0.96139 0.52376 0.53462 0.0
C549 C 0.99054 0.54855 0.55106 0.0
C550 C 0.96868 0.5042 0.51549 0.0
C551 C 0.00526 0.50888 0.51247 0.0
C552 C 0.03443 0.53422 0.52874 0.0
C553 C 0.02719 0.55383 0.5477 0.0
H554 H 0.4775 0.56807 0.43971 0.0
H555 H 0.58212 0.5843 0.47231 0.0
H556 H 0.44134 0.51547 0.46904 0.0
H557 H 0.54609 0.53226 0.5019 0.0
H558 H 0.474 0.41203 0.53148 0.0
H559 H 0.50713 0.46348 0.50073 0.0
H560 H 0.42471 0.49924 0.51324 0.0
H561 H 0.39133 0.44753 0.54343 0.0
C562 C 0.49277 0.56095 0.45351 0.0
C563 C 0.53269 0.58042 0.45369 0.0
C564 C 0.47204 0.53069 0.47028 0.0
C565 C 0.49078 0.51917 0.48761 0.0
C566 C 0.53071 0.53972 0.48842 0.0
C567 C 0.55139 0.56994 0.47169 0.0
C568 C 0.46259 0.43045 0.52727 0.0
C569 C 0.43005 0.42567 0.53989 0.0
C570 C 0.48183 0.46026 0.5099 0.0
C571 C 0.46891 0.4859 0.50474 0.0
C572 C 0.43541 0.48002 0.5166 0.0
C573 C 0.41627 0.45032 0.53396 0.0
H574 H 0.54533 0.95262 0.55258 0.0
H575 H 0.57991 0.07072 0.54167 0.0
H576 H 0.49439 0.93442 0.52192 0.0
H577 H 0.52945 0.05258 0.51008 0.0
H578 H 0.41095 0.00632 0.47683 0.0
H579 H 0.46186 0.02338 0.50764 0.0
H580 H 0.47929 0.93397 0.47841 0.0
H581 H 0.42751 0.91622 0.44821 0.0
C582 C 0.54247 0.97481 0.54327 0.0
C583 C 0.56671 0.01316 0.54959 0.0
C584 C 0.51322 0.96433 0.52556 0.0
C585 C 0.50747 0.99193 0.51353 0.0
C586 C 0.5325 0.03046 0.51931 0.0
C587 C 0.56174 0.04095 0.53719 0.0
C588 C 0.42528 0.98994 0.47727 0.0
C589 C 0.41503 0.95977 0.46017 0.0
C590 C 0.45487 5e-05 0.49472 0.0
C591 C 0.47516 0.98041 0.4954 0.0
C592 C 0.46417 0.94957 0.47867 0.0
C593 C 0.4344 0.93931 0.46134 0.0
H594 H 0.30612 0.9209 0.06695 0.0
H595 H 0.22993 0.96013 0.04309 0.0
H596 H 0.25767 0.85569 0.05644 0.0
H597 H 0.18194 0.89551 0.03247 0.0
H598 H 0.09484 0.77633 0.02175 0.0
H599 H 0.13871 0.83066 0.04749 0.0
H600 H 0.23344 0.82612 0.01409 0.0
H601 H 0.18957 0.77143 0.98869 0.0
C602 C 0.27875 0.91546 0.06001 0.0
C603 C 0.27183 0.94549 0.05554 0.0
C604 C 0.25114 0.87824 0.05391 0.0
C605 C 0.21613 0.87055 0.04351 0.0
C606 C 0.20845 0.90041 0.04071 0.0
C607 C 0.23606 0.9375 0.0466 0.0
C608 C 0.125 0.78644 0.02033 0.0
C609 C 0.1389 0.77015 0.00292 0.0
C610 C 0.15007 0.81754 0.03504 0.0
C611 C 0.18948 0.8329 0.03256 0.0
C612 C 0.20321 0.81475 0.01656 0.0
C613 C 0.17811 0.78361 1.00186 0.0
H614 H 0.05522 0.34701 0.07253 0.0
H615 H 0.0235 0.31398 0.99414 0.0
H616 H 0.12201 0.36955 0.06164 0.0
H617 H 0.0897 0.33703 0.98336 0.0
H618 H 0.21221 0.41484 0.9665 0.0
H619 H 0.15229 0.40468 0.98413 0.0
H620 H 0.15764 0.3333 0.04286 0.0
H621 H 0.21752 0.34303 0.02511 0.0
C622 C 0.06254 0.34463 0.05305 0.0
C623 C 0.03431 0.32862 0.03418 0.0
C624 C 0.10057 0.35756 0.04687 0.0
C625 C 0.11078 0.35541 0.02165 0.0
C626 C 0.08252 0.33951 0.00287 0.0
C627 C 0.04464 0.32599 0.0091 0.0
C628 C 0.20114 0.39777 0.98355 0.0
C629 C 0.21914 0.37925 0.99424 0.0
C630 C 0.16687 0.39193 0.99356 0.0
C631 C 0.1504 0.36793 0.01461 0.0
C632 C 0.16996 0.352 0.02664 0.0
C633 C 0.20405 0.35745 0.01642 0.0
H634 H 0.74012 0.76911 0.04499 0.0
H635 H 0.61938 0.69254 0.05169 0.0
H636 H 0.7284 0.81872 0.02942 0.0
H637 H 0.60731 0.74113 0.03465 0.0
H638 H 0.59388 0.83965 0.01136 0.0
H639 H 0.609 0.7994 0.03758 0.0
H640 H 0.70786 0.83017 0.99081 0.0
H641 H 0.69375 0.87165 0.96576 0.0
C642 C 0.71106 0.76308 0.04328 0.0
C643 C 0.68063 0.72705 0.04927 0.0
C644 C 0.70427 0.79133 0.03416 0.0
C645 C 0.66688 0.78377 0.03023 0.0
C646 C 0.63648 0.74821 0.0376 0.0
C647 C 0.64334 0.72023 0.04726 0.0
C648 C 0.61905 0.83802 0.00699 0.0
C649 C 0.6426 0.85858 0.98653 0.0
C650 C 0.62765 0.81486 0.0219 0.0
C651 C 0.65964 0.81137 0.01635 0.0
C652 C 0.68347 0.83266 0.9961 0.0
C653 C 0.67521 0.85623 0.98152 0.0
H654 H 0.67533 0.02448 0.99716 0.0
H655 H 0.72478 0.04713 0.92188 0.0
H656 H 0.72326 0.08789 0.01075 0.0
H657 H 0.77316 0.11087 0.93565 0.0
H658 H 0.87805 0.19442 0.98718 0.0
H659 H 0.82812 0.13588 0.96799 0.0
H660 H 0.74294 0.15662 1.001 0.0
H661 H 0.79279 0.2152 0.02015 0.0
C662 C 0.6964 0.0431 0.9835 0.0
C663 C 0.69649 0.03093 0.95851 0.0
C664 C 0.72362 0.07946 0.99123 0.0
C665 C 0.75172 0.10422 0.97419 0.0
C666 C 0.75178 0.09219 0.94913 0.0
C667 C 0.72414 0.05588 0.94127 0.0
C668 C 0.84867 0.18671 0.99004 0.0
C669 C 0.83922 0.20912 0.00529 0.0
C670 C 0.82017 0.15338 0.97895 0.0
C671 C 0.78178 0.14175 0.98317 0.0
C672 C 0.77237 0.16487 0.99767 0.0
C673 C 0.80086 0.19839 0.00853 0.0
H674 H 0.79796 0.60794 0.05019 0.0
H675 H 0.77098 0.65065 0.98286 0.0
H676 H 0.8546 0.61521 0.02968 0.0
H677 H 0.82637 0.65548 0.96133 0.0
H678 H 0.95422 0.70943 0.9454 0.0
H679 H 0.89154 0.69366 0.96089 0.0
H680 H 0.88263 0.59588 1.00011 0.0
H681 H 0.94647 0.61377 0.98615 0.0
C682 C 0.8037 0.61792 0.03068 0.0
C683 C 0.78039 0.62899 0.01813 0.0
C684 C 0.8361 0.62187 0.01876 0.0
C685 C 0.84541 0.63611 0.99374 0.0
C686 C 0.82076 0.6453 0.98078 0.0
C687 C 0.78882 0.64223 0.99298 0.0
C688 C 0.93855 0.68446 0.95719 0.0
C689 C 0.95511 0.66309 0.96496 0.0
C690 C 0.90246 0.67514 0.96594 0.0
C691 C 0.88191 0.64363 0.98208 0.0
C692 C 0.89791 0.621 0.98843 0.0
C693 C 0.93436 0.63101 0.98029 0.0
H694 H 0.26452 0.24887 0.98977 0.0
H695 H 0.36492 0.29791 0.94248 0.0
H696 H 0.27575 0.19738 1.00142 0.0
H697 H 0.37614 0.24608 0.95416 0.0
H698 H 0.40578 0.17931 0.01516 0.0
H699 H 0.39441 0.22697 0.99524 0.0
H700 H 0.27718 0.14175 0.98242 0.0
H701 H 0.28842 0.09415 0.00244 0.0
C702 C 0.2888 0.24842 0.98169 0.0
C703 C 0.31396 0.27741 0.96533 0.0
C704 C 0.29507 0.21881 0.98821 0.0
C705 C 0.32677 0.21776 0.97864 0.0
C706 C 0.3516 0.24638 0.96189 0.0
C707 C 0.34511 0.27589 0.95516 0.0
C708 C 0.37775 0.17068 0.00773 0.0
C709 C 0.34788 0.13318 0.01056 0.0
C710 C 0.37131 0.19788 0.99622 0.0
C711 C 0.33484 0.18803 0.98749 0.0
C712 C 0.30544 0.15014 0.98928 0.0
C713 C 0.31192 0.12292 1.00064 0.0
H714 H 0.97841 0.25749 0.39012 0.0
H715 H 0.90406 0.30199 0.3734 0.0
H716 H 0.92812 0.19399 0.37766 0.0
H717 H 0.85416 0.23896 0.36095 0.0
H718 H 0.76307 0.11953 0.35117 0.0
H719 H 0.81058 0.17321 0.37577 0.0
H720 H 0.89987 0.16794 0.33473 0.0
H721 H 0.85236 0.114 0.31028 0.0
C722 C 0.95111 0.25354 0.38427 0.0
C723 C 0.94513 0.2846 0.38249 0.0
C724 C 0.92247 0.21731 0.37705 0.0
C725 C 0.88733 0.2116 0.36827 0.0
C726 C 0.88078 0.24238 0.36791 0.0
C727 C 0.90945 0.27854 0.37487 0.0
C728 C 0.79284 0.12939 0.34773 0.0
C729 C 0.80408 0.11299 0.32858 0.0
C730 C 0.81999 0.16013 0.36178 0.0
C731 C 0.85886 0.17493 0.35699 0.0
C732 C 0.8701 0.15693 0.33898 0.0
C733 C 0.84292 0.12623 0.32486 0.0
H734 H 0.83028 0.61615 0.32705 0.0
H735 H 0.89854 0.73193 0.35273 0.0
H736 H 0.77634 0.61034 0.35055 0.0
H737 H 0.84504 0.72566 0.37765 0.0
H738 H 0.72685 0.71666 0.3821 0.0
H739 H 0.78765 0.72369 0.36984 0.0
H740 H 0.74618 0.60591 0.38893 0.0
H741 H 0.68454 0.59857 0.39958 0.0
C742 C 0.83393 0.6401 0.33825 0.0
C743 C 0.86836 0.6746 0.33787 0.0
C744 C 0.80307 0.63672 0.35199 0.0
C745 C 0.80614 0.66758 0.36606 0.0
C746 C 0.84136 0.70154 0.36666 0.0
C747 C 0.87207 0.70512 0.3525 0.0
C748 C 0.73109 0.69254 0.38415 0.0
C749 C 0.70098 0.65695 0.39137 0.0
C750 C 0.76606 0.69655 0.37724 0.0
C751 C 0.77175 0.66516 0.37789 0.0
C752 C 0.74248 0.6304 0.38738 0.0
C753 C 0.70727 0.62622 0.39373 0.0
H754 H 0.34284 0.21317 0.35194 0.0
H755 H 0.24759 0.1349 0.30577 0.0
H756 H 0.34445 0.15997 0.37206 0.0
H757 H 0.24904 0.08164 0.32608 0.0
H758 H 0.3123 0.01324 0.33526 0.0
H759 H 0.29757 0.06159 0.3217 0.0
H760 H 0.30959 0.10156 0.39923 0.0
H761 H 0.32454 0.05291 0.41289 0.0
C762 C 0.32177 0.18457 0.34648 0.0
C763 C 0.2954 0.17812 0.32708 0.0
C764 C 0.32254 0.15412 0.35811 0.0
C765 C 0.29709 0.11674 0.35043 0.0
C766 C 0.26928 0.11024 0.3321 0.0
C767 C 0.26837 0.14068 0.32058 0.0
C768 C 0.3115 0.03212 0.34946 0.0
C769 C 0.31984 0.02957 0.37508 0.0
C770 C 0.3027 0.05957 0.34174 0.0
C771 C 0.30231 0.08521 0.35944 0.0
C772 C 0.30985 0.08219 0.3852 0.0
C773 C 0.31833 0.05439 0.39299 0.0
H774 H 0.57365 0.54535 0.32653 0.0
H775 H 0.47698 0.55962 0.34122 0.0
H776 H 0.53318 0.4879 0.3022 0.0
H777 H 0.43645 0.50193 0.31726 0.0
H778 H 0.37285 0.40286 0.26499 0.0
H779 H 0.42102 0.46803 0.27578 0.0
H780 H 0.48346 0.42569 0.3179 0.0
H781 H 0.4358 0.36103 0.307 0.0
C782 C 0.54388 0.53653 0.32422 0.0
C783 C 0.52828 0.55657 0.33604 0.0
C784 C 0.52074 0.50364 0.31035 0.0
C785 C 0.48163 0.49027 0.30805 0.0
C786 C 0.46656 0.51172 0.3185 0.0
C787 C 0.4897 0.54459 0.3324 0.0
C788 C 0.39733 0.40765 0.27609 0.0
C789 C 0.40049 0.37699 0.2854 0.0
C790 C 0.42475 0.44486 0.28234 0.0
C791 C 0.45586 0.4519 0.29777 0.0
C792 C 0.46005 0.42124 0.30574 0.0
C793 C 0.43259 0.38416 0.29967 0.0
H794 H 0.5888 0.95767 0.28499 0.0
H795 H 0.6301 0.07794 0.28984 0.0
H796 H 0.52739 0.94453 0.30131 0.0
H797 H 0.56799 0.06513 0.30454 0.0
H798 H 0.47913 0.03108 0.3671 0.0
H799 H 0.5354 0.04566 0.34272 0.0
H800 H 0.46994 0.94399 0.29784 0.0
H801 H 0.41395 0.92843 0.32351 0.0
C802 C 0.58426 0.98126 0.28883 0.0
C803 C 0.61415 0.01877 0.28653 0.0
C804 C 0.54898 0.97379 0.29807 0.0
C805 C 0.54275 0.00378 0.3047 0.0
C806 C 0.57203 0.04132 0.30043 0.0
C807 C 0.60753 0.04873 0.29179 0.0
C808 C 0.47673 0.01201 0.35189 0.0
C809 C 0.44234 0.97851 0.34729 0.0
C810 C 0.50896 0.02053 0.33768 0.0
C811 C 0.5074 0.99607 0.31816 0.0
C812 C 0.47245 0.96316 0.31298 0.0
C813 C 0.44031 0.9543 0.32757 0.0
H814 H 0.0334 0.6314 0.27478 0.0
H815 H 0.92136 0.55722 0.30521 0.0
H816 H 0.05141 0.58364 0.2844 0.0
H817 H 0.93929 0.50979 0.31484 0.0
H818 H 0.97354 0.42238 0.32002 0.0
H819 H 0.95913 0.46577 0.29699 0.0
H820 H 0.06156 0.56118 0.32663 0.0
H821 H 0.07616 0.51783 0.34948 0.0
C822 C 0.01243 0.60461 0.28303 0.0
C823 C 0.97612 0.59806 0.28949 0.0
C824 C 0.02278 0.57741 0.28862 0.0
C825 C -0.00319 0.54313 0.30046 0.0
C826 C 0.9598 0.53578 0.30546 0.0
C827 C 0.9496 0.56304 0.30012 0.0
C828 C 0.99335 0.45259 0.3212 0.0
C829 C 0.0257 0.46682 0.3368 0.0
C830 C 0.98505 0.47738 0.30807 0.0
C831 C 0.00904 0.5168 0.31021 0.0
C832 C 0.04271 0.53091 0.32445 0.0
C833 C 0.05094 0.50612 0.33768 0.0
H834 H 0.44713 0.44168 0.68156 0.0
H835 H 0.5249 0.44876 0.62288 0.0
H836 H 0.49816 0.49881 0.70158 0.0
H837 H 0.57563 0.50591 0.64282 0.0
H838 H 0.62226 0.63443 0.65974 0.0
H839 H 0.57711 0.57058 0.64537 0.0
H840 H 0.56718 0.52866 0.72215 0.0
H841 H 0.61326 0.59305 0.73668 0.0
C842 C 0.47527 0.455 0.67326 0.0
C843 C 0.48202 0.44116 0.65051 0.0
C844 C 0.50443 0.4875 0.68478 0.0
C845 C 0.54055 0.50676 0.67354 0.0
C846 C 0.54784 0.49161 0.65167 0.0
C847 C 0.51886 0.45893 0.64033 0.0
C848 C 0.61055 0.61164 0.67359 0.0
C849 C 0.6211 0.61861 0.69933 0.0
C850 C 0.58501 0.57508 0.66531 0.0
C851 C 0.56907 0.54481 0.68265 0.0
C852 C 0.57928 0.55165 0.70847 0.0
C853 C 0.60551 0.58832 0.71673 0.0
H854 H 0.51471 0.96406 0.65617 0.0
H855 H 0.57612 0.08321 0.67517 0.0
H856 H 0.46081 0.95598 0.68076 0.0
H857 H 0.52293 0.07491 0.70141 0.0
H858 H 0.4013 0.05499 0.71191 0.0
H859 H 0.46257 0.06635 0.69673 0.0
H860 H 0.4332 0.95264 0.71956 0.0
H861 H 0.3708 0.94071 0.73292 0.0
C862 C 0.5169 0.9884 0.66613 0.0
C863 C 0.54934 0.0243 0.66362 0.0
C864 C 0.48609 0.98374 0.68052 0.0
C865 C 0.48729 0.01477 0.69326 0.0
C866 C 0.52058 0.05049 0.69153 0.0
C867 C 0.55116 0.05528 0.67662 0.0
C868 C 0.40837 0.03276 0.71409 0.0
C869 C 0.38134 0.99685 0.72321 0.0
C870 C 0.44362 0.03926 0.70549 0.0
C871 C 0.45278 0.01017 0.7064 0.0
C872 C 0.42674 0.97531 0.71771 0.0
C873 C 0.39113 0.96852 0.72564 0.0
H874 H 0.94159 0.34845 0.73334 0.0
H875 H 0.05978 0.42696 0.71722 0.0
H876 H 0.92541 0.39647 0.72025 0.0
H877 H 0.04376 0.47467 0.70431 0.0
H878 H 0.01016 0.56124 0.69281 0.0
H879 H 0.01756 0.51563 0.71875 0.0
H880 H 0.92787 0.42351 0.67624 0.0
H881 H 0.92024 0.46911 0.65035 0.0
C882 C 0.96415 0.37624 0.72759 0.0
C883 C 0.00187 0.38403 0.72607 0.0
C884 C 0.95488 0.40356 0.72001 0.0
C885 C 0.98331 0.43918 0.71122 0.0
C886 C 0.0213 0.44761 0.71126 0.0
C887 C 0.03046 0.42023 0.71849 0.0
C888 C 0.9915 0.53123 0.68934 0.0
C889 C 0.96502 0.51868 0.66932 0.0
C890 C 0.99577 0.50518 0.70417 0.0
C891 C 0.97355 0.46613 0.69932 0.0
C892 C 0.94519 0.45347 0.68051 0.0
C893 C 0.94101 0.47956 0.66558 0.0
H894 H 0.24123 0.86696 0.66979 0.0
H895 H 0.14963 0.8896 0.68344 0.0
H896 H 0.19743 0.80869 0.64734 0.0
H897 H 0.10581 0.83118 0.66118 0.0
H898 H 0.04028 0.73396 0.60636 0.0
H899 H 0.08996 0.79747 0.6192 0.0
H900 H 0.14388 0.74794 0.6634 0.0
H901 H 0.09458 0.68478 0.65053 0.0
C902 C 0.21185 0.85972 0.66771 0.0
C903 C 0.19869 0.88255 0.67855 0.0
C904 C 0.18681 0.82635 0.65494 0.0
C905 C 0.14823 0.81534 0.65267 0.0
C906 C 0.13548 0.83915 0.66244 0.0
C907 C 0.16049 0.87244 0.67532 0.0
C908 C 0.06311 0.73677 0.6185 0.0
C909 C 0.06353 0.70453 0.62761 0.0
C910 C 0.09138 0.77303 0.62591 0.0
C911 C 0.12067 0.77758 0.64233 0.0
C912 C 0.12189 0.74534 0.6505 0.0
C913 C 0.09353 0.70916 0.64327 0.0
H914 H 0.0874 0.26469 0.66295 0.0
H915 H 0.15513 0.36903 0.70431 0.0
H916 H 0.14323 0.27626 0.63852 0.0
H917 H 0.2113 0.37955 0.68134 0.0
H918 H 0.3045 0.40599 0.62721 0.0
H919 H 0.24419 0.39623 0.64343 0.0
H920 H 0.19931 0.27475 0.64241 0.0
H921 H 0.25885 0.28483 0.62449 0.0
C922 C 0.11434 0.29001 0.66684 0.0
C923 C 0.11709 0.316 0.68544 0.0
C924 C 0.1464 0.29657 0.65299 0.0
C925 C 0.18199 0.32886 0.65789 0.0
C926 C 0.18438 0.35487 0.6765 0.0
C927 C 0.15222 0.34871 0.68989 0.0
C928 C 0.28142 0.37724 0.63013 0.0
C929 C 0.2862 0.34616 0.62479 0.0
C930 C 0.24695 0.37157 0.63964 0.0
C931 C 0.21689 0.33468 0.6447 0.0
C932 C 0.22147 0.30355 0.63849 0.0
C933 C 0.25568 0.30926 0.62836 0.0
H934 H 0.75 0.86146 0.70334 0.0
H935 H 0.66207 0.78208 0.6529 0.0
H936 H 0.7434 0.91318 0.68517 0.0
H937 H 0.65552 0.83374 0.63479 0.0
H938 H 0.67211 0.94211 0.59666 0.0
H939 H 0.69035 0.89571 0.60997 0.0
H940 H 0.68854 0.92579 0.68861 0.0
H941 H 0.67029 0.97185 0.67543 0.0
C942 C 0.72975 0.8552 0.68809 0.0
C943 C 0.70629 0.81779 0.67966 0.0
C944 C 0.72589 0.88472 0.67779 0.0
C945 C 0.69881 0.87732 0.65872 0.0
C946 C 0.67681 0.84023 0.64934 0.0
C947 C 0.6804 0.81067 0.65981 0.0
C948 C 0.6759 0.93892 0.61676 0.0
C949 C 0.66956 0.96029 0.63505 0.0
C950 C 0.68626 0.91242 0.62434 0.0
C951 C 0.69096 0.90735 0.65028 0.0
C952 C 0.6856 0.9295 0.66847 0.0
C953 C 0.67482 0.9556 0.66094 0.0
loop_
_geom_bond_atom_site_label_1
_geom_bond_atom_site_label_2
_geom_bond_distance
_geom_bond_site_symmetry_2
_ccdc_geom_bond_type
In0 O1 2.294 . S
In0 O2 2.326 . S
In0 O6 2.266 . S
In0 O7 2.326 . S
In0 O8 2.266 . S
In0 O9 2.326 . S
In0 O11 2.294 . S
In0 O12 2.326 . S
O1 In0 2.294 . S
O1 C10 1.240 . S
O2 In0 2.326 . S
O2 C10 1.252 . S
C3 O6 1.258 . S
C3 O7 1.271 . S
C4 O11 1.240 . S
C4 O12 1.252 . S
C5 O8 1.252 . S
C5 O9 1.260 . S
O6 In0 2.266 . S
O6 C3 1.258 . S
O7 In0 2.326 . S
O7 C3 1.271 . S
O8 In0 2.266 . S
O8 C5 1.252 . S
O9 In0 2.326 . S
O9 C5 1.260 . S
C10 O1 1.240 . S
C10 O2 1.252 . S
O11 In0 2.294 . S
O11 C4 1.240 . S
O12 In0 2.326 . S
O12 C4 1.252 . S
In13 O14 2.294 . S
In13 O15 2.326 . S
In13 O19 2.266 . S
In13 O20 2.326 . S
In13 O21 2.266 . S
In13 O22 2.326 . S
In13 O24 2.294 . S
In13 O25 2.326 . S
O14 In13 2.294 . S
O14 C23 1.240 . S
O15 In13 2.326 . S
O15 C23 1.252 . S
C16 O19 1.255 . S
C16 O20 1.281 . S
C17 O24 1.240 . S
C17 O25 1.252 . S
C18 O21 1.252 . S
C18 O22 1.260 . S
O19 In13 2.266 . S
O19 C16 1.255 . S
O20 In13 2.326 . S
O20 C16 1.281 . S
O21 In13 2.266 . S
O21 C18 1.252 . S
O22 In13 2.326 . S
O22 C18 1.260 . S
C23 O14 1.240 . S
C23 O15 1.252 . S
O24 In13 2.294 . S
O24 C17 1.240 . S
O25 In13 2.326 . S
O25 C17 1.252 . S
In26 O27 2.294 . S
In26 O28 2.326 . S
In26 O32 2.266 . S
In26 O33 2.326 . S
In26 O34 2.266 . S
In26 O35 2.326 . S
In26 O37 2.294 . S
In26 O38 2.326 . S
O27 In26 2.294 . S
O27 C36 1.240 . S
O28 In26 2.326 . S
O28 C36 1.252 . S
C29 O32 1.252 . S
C29 O33 1.260 . S
C30 O37 1.240 . S
C30 O38 1.252 . S
C31 O34 1.252 . S
C31 O35 1.260 . S
O32 In26 2.266 . S
O32 C29 1.252 . S
O33 In26 2.326 . S
O33 C29 1.260 . S
O34 In26 2.266 . S
O34 C31 1.252 . S
O35 In26 2.326 . S
O35 C31 1.260 . S
C36 O27 1.240 . S
C36 O28 1.252 . S
O37 In26 2.294 . S
O37 C30 1.240 . S
O38 In26 2.326 . S
O38 C30 1.252 . S
In39 O40 2.294 . S
In39 O41 2.326 . S
In39 O45 2.266 . S
In39 O46 2.326 . S
In39 O47 2.266 . S
In39 O48 2.326 . S
In39 O50 2.294 . S
In39 O51 2.326 . S
O40 In39 2.294 . S
O40 C49 1.240 . S
O41 In39 2.326 . S
O41 C49 1.252 . S
C42 O45 1.258 . S
C42 O46 1.271 . S
C43 O50 1.240 . S
C43 O51 1.252 . S
C44 O47 1.252 . S
C44 O48 1.260 . S
O45 In39 2.266 . S
O45 C42 1.258 . S
O46 In39 2.326 . S
O46 C42 1.271 . S
O47 In39 2.266 . S
O47 C44 1.252 . S
O48 In39 2.326 . S
O48 C44 1.260 . S
C49 O40 1.240 . S
C49 O41 1.252 . S
O50 In39 2.294 . S
O50 C43 1.240 . S
O51 In39 2.326 . S
O51 C43 1.252 . S
In52 O53 2.294 . S
In52 O54 2.326 . S
In52 O58 2.266 . S
In52 O59 2.326 . S
In52 O60 2.266 . S
In52 O61 2.326 . S
In52 O63 2.294 . S
In52 O64 2.326 . S
O53 In52 2.294 . S
O53 C62 1.240 . S
O54 In52 2.326 . S
O54 C62 1.252 . S
C55 O58 1.252 . S
C55 O59 1.260 . S
C56 O63 1.240 . S
C56 O64 1.252 . S
C57 O60 1.255 . S
C57 O61 1.281 . S
O58 In52 2.266 . S
O58 C55 1.252 . S
O59 In52 2.326 . S
O59 C55 1.260 . S
O60 In52 2.266 . S
O60 C57 1.255 . S
O61 In52 2.326 . S
O61 C57 1.281 . S
C62 O53 1.240 . S
C62 O54 1.252 . S
O63 In52 2.294 . S
O63 C56 1.240 . S
O64 In52 2.326 . S
O64 C56 1.252 . S
In65 O66 2.294 . S
In65 O67 2.326 . S
In65 O71 2.266 . S
In65 O72 2.326 . S
In65 O73 2.266 . S
In65 O74 2.326 . S
In65 O76 2.294 . S
In65 O77 2.326 . S
O66 In65 2.294 . S
O66 C75 1.240 . S
O67 In65 2.326 . S
O67 C75 1.252 . S
C68 O71 1.252 . S
C68 O72 1.260 . S
C69 O76 1.240 . S
C69 O77 1.252 . S
C70 O73 1.252 . S
C70 O74 1.260 . S
O71 In65 2.266 . S
O71 C68 1.252 . S
O72 In65 2.326 . S
O72 C68 1.260 . S
O73 In65 2.266 . S
O73 C70 1.252 . S
O74 In65 2.326 . S
O74 C70 1.260 . S
C75 O66 1.240 . S
C75 O67 1.252 . S
O76 In65 2.294 . S
O76 C69 1.240 . S
O77 In65 2.326 . S
O77 C69 1.252 . S
In78 O79 2.294 . S
In78 O80 2.326 . S
In78 O84 2.266 1_455 S
In78 O85 2.326 1_455 S
In78 O86 2.266 . S
In78 O87 2.326 . S
In78 O89 2.294 . S
In78 O90 2.326 1_455 S
O79 In78 2.294 . S
O79 C88 1.240 . S
O80 In78 2.326 . S
O80 C88 1.252 . S
C81 O84 1.252 . S
C81 O85 1.260 . S
C82 O89 1.240 . S
C82 O90 1.252 1_455 S
C83 O86 1.252 . S
C83 O87 1.260 . S
O84 In78 2.266 1_655 S
O84 C81 1.252 . S
O85 In78 2.326 1_655 S
O85 C81 1.260 . S
O86 In78 2.266 . S
O86 C83 1.252 . S
O87 In78 2.326 . S
O87 C83 1.260 . S
C88 O79 1.240 . S
C88 O80 1.252 . S
O89 In78 2.294 . S
O89 C82 1.240 . S
O90 In78 2.326 1_655 S
O90 C82 1.252 1_655 S
In91 O92 2.294 . S
In91 O93 2.326 . S
In91 O97 2.266 . S
In91 O98 2.326 . S
In91 O99 2.266 . S
In91 O100 2.326 . S
In91 O102 2.294 . S
In91 O103 2.326 . S
O92 In91 2.294 . S
O92 C101 1.240 . S
O93 In91 2.326 . S
O93 C101 1.252 . S
C94 O97 1.252 . S
C94 O98 1.260 . S
C95 O102 1.240 . S
C95 O103 1.252 . S
C96 O99 1.252 . S
C96 O100 1.260 . S
O97 In91 2.266 . S
O97 C94 1.252 . S
O98 In91 2.326 . S
O98 C94 1.260 . S
O99 In91 2.266 . S
O99 C96 1.252 . S
O100 In91 2.326 . S
O100 C96 1.260 . S
C101 O92 1.240 . S
C101 O93 1.252 . S
O102 In91 2.294 . S
O102 C95 1.240 . S
O103 In91 2.326 . S
O103 C95 1.252 . S
In104 O105 2.294 . S
In104 O106 2.326 1_565 S
In104 O110 2.266 . S
In104 O111 2.326 . S
In104 O112 2.266 1_565 S
In104 O113 2.326 1_565 S
In104 O115 2.294 . S
In104 O116 2.326 . S
O105 In104 2.294 . S
O105 C114 1.240 . S
O106 In104 2.326 1_545 S
O106 C114 1.252 1_545 S
C107 O110 1.252 . S
C107 O111 1.260 . S
C108 O115 1.240 . S
C108 O116 1.252 . S
C109 O112 1.252 . S
C109 O113 1.260 . S
O110 In104 2.266 . S
O110 C107 1.252 . S
O111 In104 2.326 . S
O111 C107 1.260 . S
O112 In104 2.266 1_545 S
O112 C109 1.252 . S
O113 In104 2.326 1_545 S
O113 C109 1.260 . S
C114 O105 1.240 . S
C114 O106 1.252 1_565 S
O115 In104 2.294 . S
O115 C108 1.240 . S
O116 In104 2.326 . S
O116 C108 1.252 . S
In117 O118 2.294 . S
In117 O119 2.326 . S
In117 O123 2.266 . S
In117 O124 2.326 . S
In117 O125 2.266 . S
In117 O126 2.326 . S
In117 O128 2.294 . S
In117 O129 2.326 . S
O118 In117 2.294 . S
O118 C127 1.240 . S
O119 In117 2.326 . S
O119 C127 1.252 . S
C120 O123 1.252 . S
C120 O124 1.260 . S
C121 O128 1.240 . S
C121 O129 1.252 . S
C122 O125 1.252 . S
C122 O126 1.260 . S
O123 In117 2.266 . S
O123 C120 1.252 . S
O124 In117 2.326 . S
O124 C120 1.260 . S
O125 In117 2.266 . S
O125 C122 1.252 . S
O126 In117 2.326 . S
O126 C122 1.260 . S
C127 O118 1.240 . S
C127 O119 1.252 . S
O128 In117 2.294 . S
O128 C121 1.240 . S
O129 In117 2.326 . S
O129 C121 1.252 . S
In130 O131 2.294 . S
In130 O132 2.326 . S
In130 O136 2.266 . S
In130 O137 2.326 . S
In130 O138 2.244 1_545 S
In130 O139 2.326 1_545 S
In130 O141 2.294 . S
In130 O142 2.326 . S
O131 In130 2.294 . S
O131 C140 1.240 . S
O132 In130 2.326 . S
O132 C140 1.252 . S
C133 O136 1.252 . S
C133 O137 1.260 . S
C134 O141 1.240 . S
C134 O142 1.252 . S
C135 O138 1.262 . S
C135 O139 1.260 . S
O136 In130 2.266 . S
O136 C133 1.252 . S
O137 In130 2.326 . S
O137 C133 1.260 . S
O138 In130 2.244 1_565 S
O138 C135 1.262 . S
O139 In130 2.326 1_565 S
O139 C135 1.260 . S
C140 O131 1.240 . S
C140 O132 1.252 . S
O141 In130 2.294 . S
O141 C134 1.240 . S
O142 In130 2.326 . S
O142 C134 1.252 . S
In143 O144 2.294 . S
In143 O145 2.326 . S
In143 O149 2.257 1_655 S
In143 O150 2.326 1_655 S
In143 O151 2.266 . S
In143 O152 2.326 . S
In143 O154 2.294 . S
In143 O155 2.326 . S
O144 In143 2.294 . S
O144 C153 1.240 . S
O145 In143 2.326 . S
O145 C153 1.252 . S
C146 O149 1.272 . S
C146 O150 1.260 . S
C147 O154 1.240 . S
C147 O155 1.252 . S
C148 O151 1.252 . S
C148 O152 1.260 . S
O149 In143 2.257 1_455 S
O149 C146 1.272 . S
O150 In143 2.326 1_455 S
O150 C146 1.260 . S
O151 In143 2.266 . S
O151 C148 1.252 . S
O152 In143 2.326 . S
O152 C148 1.260 . S
C153 O144 1.240 . S
C153 O145 1.252 . S
O154 In143 2.294 . S
O154 C147 1.240 . S
O155 In143 2.326 . S
O155 C147 1.252 . S
In156 O157 2.294 . S
In156 O158 2.326 . S
In156 O162 2.266 . S
In156 O163 2.326 . S
In156 O164 2.266 . S
In156 O165 2.326 . S
In156 O167 2.294 . S
In156 O168 2.326 . S
O157 In156 2.294 . S
O157 C166 1.240 . S
O158 In156 2.326 . S
O158 C166 1.252 . S
C159 O162 1.252 . S
C159 O163 1.260 . S
C160 O167 1.240 . S
C160 O168 1.252 . S
C161 O164 1.252 . S
C161 O165 1.260 . S
O162 In156 2.266 . S
O162 C159 1.252 . S
O163 In156 2.326 . S
O163 C159 1.260 . S
O164 In156 2.266 . S
O164 C161 1.252 . S
O165 In156 2.326 . S
O165 C161 1.260 . S
C166 O157 1.240 . S
C166 O158 1.252 . S
O167 In156 2.294 . S
O167 C160 1.240 . S
O168 In156 2.326 . S
O168 C160 1.252 . S
In169 O170 2.294 . S
In169 O171 2.326 . S
In169 O175 2.266 . S
In169 O176 2.326 . S
In169 O177 2.244 1_565 S
In169 O178 2.326 1_565 S
In169 O180 2.294 . S
In169 O181 2.326 . S
O170 In169 2.294 . S
O170 C179 1.240 . S
O171 In169 2.326 . S
O171 C179 1.252 . S
C172 O175 1.252 . S
C172 O176 1.260 . S
C173 O180 1.240 . S
C173 O181 1.252 . S
C174 O177 1.262 . S
C174 O178 1.260 . S
O175 In169 2.266 . S
O175 C172 1.252 . S
O176 In169 2.326 . S
O176 C172 1.260 . S
O177 In169 2.244 1_545 S
O177 C174 1.262 . S
O178 In169 2.326 1_545 S
O178 C174 1.260 . S
C179 O170 1.240 . S
C179 O171 1.252 . S
O180 In169 2.294 . S
O180 C173 1.240 . S
O181 In169 2.326 . S
O181 C173 1.252 . S
In182 O183 2.294 . S
In182 O184 2.326 . S
In182 O188 2.266 . S
In182 O189 2.326 . S
In182 O190 2.257 1_455 S
In182 O191 2.326 1_455 S
In182 O193 2.294 . S
In182 O194 2.326 . S
O183 In182 2.294 . S
O183 C192 1.240 . S
O184 In182 2.326 . S
O184 C192 1.252 . S
C185 O188 1.252 . S
C185 O189 1.260 . S
C186 O193 1.240 . S
C186 O194 1.252 . S
C187 O190 1.272 . S
C187 O191 1.260 . S
O188 In182 2.266 . S
O188 C185 1.252 . S
O189 In182 2.326 . S
O189 C185 1.260 . S
O190 In182 2.257 1_655 S
O190 C187 1.272 . S
O191 In182 2.326 1_655 S
O191 C187 1.260 . S
C192 O183 1.240 . S
C192 O184 1.252 . S
O193 In182 2.294 . S
O193 C186 1.240 . S
O194 In182 2.326 . S
O194 C186 1.252 . S
In195 O196 2.294 . S
In195 O197 2.326 1_655 S
In195 O201 2.266 . S
In195 O202 2.326 . S
In195 O203 2.266 1_655 S
In195 O204 2.326 1_655 S
In195 O206 2.294 . S
In195 O207 2.326 . S
O196 In195 2.294 . S
O196 C205 1.240 . S
O197 In195 2.326 1_455 S
O197 C205 1.252 1_455 S
C198 O201 1.252 . S
C198 O202 1.260 . S
C199 O206 1.240 . S
C199 O207 1.252 . S
C200 O203 1.252 . S
C200 O204 1.260 . S
O201 In195 2.266 . S
O201 C198 1.252 . S
O202 In195 2.326 . S
O202 C198 1.260 . S
O203 In195 2.266 1_455 S
O203 C200 1.252 . S
O204 In195 2.326 1_455 S
O204 C200 1.260 . S
C205 O196 1.240 . S
C205 O197 1.252 1_655 S
O206 In195 2.294 . S
O206 C199 1.240 . S
O207 In195 2.326 . S
O207 C199 1.252 . S
In208 O209 2.294 . S
In208 O210 2.326 . S
In208 O214 2.266 . S
In208 O215 2.326 . S
In208 O216 2.266 . S
In208 O217 2.326 . S
In208 O219 2.294 . S
In208 O220 2.326 . S
O209 In208 2.294 . S
O209 C218 1.240 . S
O210 In208 2.326 . S
O210 C218 1.252 . S
C211 O214 1.252 . S
C211 O215 1.260 . S
C212 O219 1.240 . S
C212 O220 1.252 . S
C213 O216 1.252 . S
C213 O217 1.260 . S
O214 In208 2.266 . S
O214 C211 1.252 . S
O215 In208 2.326 . S
O215 C211 1.260 . S
O216 In208 2.266 . S
O216 C213 1.252 . S
O217 In208 2.326 . S
O217 C213 1.260 . S
C218 O209 1.240 . S
C218 O210 1.252 . S
O219 In208 2.294 . S
O219 C212 1.240 . S
O220 In208 2.326 . S
O220 C212 1.252 . S
In221 O222 2.294 . S
In221 O223 2.326 1_545 S
In221 O227 2.266 . S
In221 O228 2.326 . S
In221 O229 2.266 1_545 S
In221 O230 2.326 1_545 S
In221 O232 2.294 . S
In221 O233 2.326 . S
O222 In221 2.294 . S
O222 C231 1.240 . S
O223 In221 2.326 1_565 S
O223 C231 1.252 1_565 S
C224 O227 1.252 . S
C224 O228 1.260 . S
C225 O232 1.240 . S
C225 O233 1.252 . S
C226 O229 1.252 . S
C226 O230 1.260 . S
O227 In221 2.266 . S
O227 C224 1.252 . S
O228 In221 2.326 . S
O228 C224 1.260 . S
O229 In221 2.266 1_565 S
O229 C226 1.252 . S
O230 In221 2.326 1_565 S
O230 C226 1.260 . S
C231 O222 1.240 . S
C231 O223 1.252 1_545 S
O232 In221 2.294 . S
O232 C225 1.240 . S
O233 In221 2.326 . S
O233 C225 1.252 . S
H234 C242 0.950 . S
H235 C247 0.950 . S
H236 C244 0.950 . S
H237 C246 0.934 1_556 S
H238 C248 0.950 . S
H239 C250 0.950 . S
H240 C252 0.934 1_554 S
H241 C253 0.950 . S
C242 H234 0.950 . S
C242 C243 1.386 1_565 S
C242 C244 1.391 . S
C243 C242 1.386 1_545 S
C243 C247 1.393 . S
C244 H236 0.950 . S
C244 C242 1.391 . S
C244 C245 1.400 1_565 S
C245 C244 1.400 1_545 S
C245 C246 1.403 . S
C245 C251 1.491 1_544 S
C246 H237 0.934 1_554 S
C246 C245 1.403 . S
C246 C247 1.402 . S
C247 H235 0.950 . S
C247 C243 1.393 . S
C247 C246 1.402 . S
C248 H238 0.950 . S
C248 C249 1.386 1_545 S
C248 C250 1.391 . S
C249 C248 1.386 1_565 S
C249 C253 1.393 . S
C250 H239 0.950 . S
C250 C248 1.391 . S
C250 C251 1.400 1_545 S
C251 C245 1.491 1_566 S
C251 C250 1.400 1_565 S
C251 C252 1.403 . S
C252 H240 0.934 1_556 S
C252 C251 1.403 . S
C252 C253 1.402 . S
C253 H241 0.950 . S
C253 C249 1.393 . S
C253 C252 1.402 . S
H254 C262 0.950 . S
H255 C267 0.950 1_556 S
H256 C264 0.950 . S
H257 C266 0.950 1_455 S
H258 C268 0.950 . S
H259 C270 0.950 . S
H260 C272 0.950 1_655 S
H261 C273 0.950 1_554 S
C262 H254 0.950 . S
C262 C263 1.386 . S
C262 C264 1.391 . S
C263 C262 1.386 . S
C263 C267 1.393 . S
C264 H256 0.950 . S
C264 C262 1.391 . S
C264 C265 1.400 . S
C265 C264 1.400 . S
C265 C266 1.398 1_554 S
C265 C271 1.491 1_654 S
C266 H257 0.950 1_655 S
C266 C265 1.398 1_556 S
C266 C267 1.391 1_556 S
C267 H255 0.950 1_554 S
C267 C263 1.393 . S
C267 C266 1.391 1_554 S
C268 H258 0.950 . S
C268 C269 1.386 . S
C268 C270 1.391 . S
C269 C268 1.386 . S
C269 C273 1.393 . S
C270 H259 0.950 . S
C270 C268 1.391 . S
C270 C271 1.400 . S
C271 C265 1.491 1_456 S
C271 C270 1.400 . S
C271 C272 1.398 1_556 S
C272 H260 0.950 1_455 S
C272 C271 1.398 1_554 S
C272 C273 1.391 1_554 S
C273 H261 0.950 1_556 S
C273 C269 1.393 . S
C273 C272 1.391 1_556 S
H274 C282 0.950 . S
H275 C287 0.950 . S
H276 C284 0.953 . S
H277 C286 0.950 . S
H278 C288 0.950 . S
H279 C290 0.953 . S
H280 C292 0.950 . S
H281 C293 0.950 . S
C282 H274 0.950 . S
C282 C283 1.386 . S
C282 C284 1.389 1_556 S
C283 C282 1.386 . S
C283 C287 1.393 . S
C284 H276 0.953 . S
C284 C282 1.389 1_554 S
C284 C285 1.399 1_554 S
C285 C284 1.399 1_556 S
C285 C286 1.398 . S
C285 C291 1.491 1_556 S
C286 H277 0.950 . S
C286 C285 1.398 . S
C286 C287 1.391 . S
C287 H275 0.950 . S
C287 C283 1.393 . S
C287 C286 1.391 . S
C288 H278 0.950 . S
C288 C289 1.386 . S
C288 C290 1.389 1_554 S
C289 C288 1.386 . S
C289 C293 1.393 . S
C290 H279 0.953 . S
C290 C288 1.389 1_556 S
C290 C291 1.399 1_556 S
C291 C285 1.491 1_554 S
C291 C290 1.399 1_554 S
C291 C292 1.398 . S
C292 H280 0.950 . S
C292 C291 1.398 . S
C292 C293 1.391 . S
C293 H281 0.950 . S
C293 C289 1.393 . S
C293 C292 1.391 . S
H294 C302 0.950 . S
H295 C307 0.950 . S
H296 C304 0.950 . S
H297 C306 0.950 . S
H298 C308 0.950 . S
H299 C310 0.950 . S
H300 C312 0.950 . S
H301 C313 0.950 . S
C302 H294 0.950 . S
C302 C303 1.386 . S
C302 C304 1.391 . S
C303 C302 1.386 . S
C303 C307 1.393 . S
C304 H296 0.950 . S
C304 C302 1.391 . S
C304 C305 1.400 . S
C305 C304 1.400 . S
C305 C306 1.398 . S
C305 C311 1.491 . S
C306 H297 0.950 . S
C306 C305 1.398 . S
C306 C307 1.391 . S
C307 H295 0.950 . S
C307 C303 1.393 . S
C307 C306 1.391 . S
C308 H298 0.950 . S
C308 C309 1.386 . S
C308 C310 1.391 . S
C309 C308 1.386 . S
C309 C313 1.393 . S
C310 H299 0.950 . S
C310 C308 1.391 . S
C310 C311 1.400 . S
C311 C305 1.491 . S
C311 C310 1.400 . S
C311 C312 1.398 . S
C312 H300 0.950 . S
C312 C311 1.398 . S
C312 C313 1.391 . S
C313 H301 0.950 . S
C313 C309 1.393 . S
C313 C312 1.391 . S
H314 C322 0.950 . S
H315 C327 0.950 . S
H316 C324 0.950 . S
H317 C326 0.950 . S
H318 C328 0.950 . S
H319 C330 0.950 . S
H320 C332 0.950 . S
H321 C333 0.950 . S
C322 H314 0.950 . S
C322 C323 1.386 . S
C322 C324 1.391 . S
C323 C322 1.386 . S
C323 C327 1.393 . S
C324 H316 0.950 . S
C324 C322 1.391 . S
C324 C325 1.400 . S
C325 C324 1.400 . S
C325 C326 1.398 . S
C325 C331 1.491 . S
C326 H317 0.950 . S
C326 C325 1.398 . S
C326 C327 1.391 . S
C327 H315 0.950 . S
C327 C323 1.393 . S
C327 C326 1.391 . S
C328 H318 0.950 . S
C328 C329 1.386 . S
C328 C330 1.391 . S
C329 C328 1.386 . S
C329 C333 1.393 . S
C330 H319 0.950 . S
C330 C328 1.391 . S
C330 C331 1.400 . S
C331 C325 1.491 . S
C331 C330 1.400 . S
C331 C332 1.398 . S
C332 H320 0.950 . S
C332 C331 1.398 . S
C332 C333 1.391 . S
C333 H321 0.950 . S
C333 C329 1.393 . S
C333 C332 1.391 . S
H334 C342 0.950 . S
H335 C347 0.950 . S
H336 C344 0.950 . S
H337 C346 0.950 . S
H338 C348 0.950 . S
H339 C350 0.950 . S
H340 C352 0.950 . S
H341 C353 0.950 . S
C342 H334 0.950 . S
C342 C343 1.386 . S
C342 C344 1.391 . S
C343 C342 1.386 . S
C343 C347 1.393 . S
C344 H336 0.950 . S
C344 C342 1.391 . S
C344 C345 1.400 . S
C345 C344 1.400 . S
C345 C346 1.398 . S
C345 C351 1.491 . S
C346 H337 0.950 . S
C346 C345 1.398 . S
C346 C347 1.391 . S
C347 H335 0.950 . S
C347 C343 1.393 . S
C347 C346 1.391 . S
C348 H338 0.950 . S
C348 C349 1.386 . S
C348 C350 1.391 . S
C349 C348 1.386 . S
C349 C353 1.393 . S
C350 H339 0.950 . S
C350 C348 1.391 . S
C350 C351 1.400 . S
C351 C345 1.491 . S
C351 C350 1.400 . S
C351 C352 1.398 . S
C352 H340 0.950 . S
C352 C351 1.398 . S
C352 C353 1.391 . S
C353 H341 0.950 . S
C353 C349 1.393 . S
C353 C352 1.391 . S
H354 C362 0.950 . S
H355 C367 0.950 . S
H356 C364 0.950 . S
H357 C366 0.950 . S
H358 C368 0.950 . S
H359 C370 0.950 . S
H360 C372 0.950 . S
H361 C373 0.950 . S
C362 H354 0.950 . S
C362 C363 1.386 . S
C362 C364 1.391 . S
C363 C362 1.386 . S
C363 C367 1.393 . S
C364 H356 0.950 . S
C364 C362 1.391 . S
C364 C365 1.400 . S
C365 C364 1.400 . S
C365 C366 1.398 . S
C365 C371 1.491 . S
C366 H357 0.950 . S
C366 C365 1.398 . S
C366 C367 1.391 . S
C367 H355 0.950 . S
C367 C363 1.393 . S
C367 C366 1.391 . S
C368 H358 0.950 . S
C368 C369 1.386 . S
C368 C370 1.391 . S
C369 C368 1.386 . S
C369 C373 1.393 . S
C370 H359 0.950 . S
C370 C368 1.391 . S
C370 C371 1.400 . S
C371 C365 1.491 . S
C371 C370 1.400 . S
C371 C372 1.398 . S
C372 H360 0.950 . S
C372 C371 1.398 . S
C372 C373 1.391 . S
C373 H361 0.950 . S
C373 C369 1.393 . S
C373 C372 1.391 . S
H374 C382 0.950 . S
H375 C387 0.950 . S
H376 C384 0.950 . S
H377 C386 0.950 . S
H378 C388 0.950 . S
H379 C390 0.950 . S
H380 C392 0.950 . S
H381 C393 0.950 . S
C382 H374 0.950 . S
C382 C383 1.386 . S
C382 C384 1.391 . S
C383 C382 1.386 . S
C383 C387 1.393 . S
C384 H376 0.950 . S
C384 C382 1.391 . S
C384 C385 1.400 . S
C385 C384 1.400 . S
C385 C386 1.398 . S
C385 C391 1.491 . S
C386 H377 0.950 . S
C386 C385 1.398 . S
C386 C387 1.391 . S
C387 H375 0.950 . S
C387 C383 1.393 . S
C387 C386 1.391 . S
C388 H378 0.950 . S
C388 C389 1.386 . S
C388 C390 1.391 . S
C389 C388 1.386 . S
C389 C393 1.393 . S
C390 H379 0.950 . S
C390 C388 1.391 . S
C390 C391 1.400 . S
C391 C385 1.491 . S
C391 C390 1.400 . S
C391 C392 1.398 . S
C392 H380 0.950 . S
C392 C391 1.398 . S
C392 C393 1.391 . S
C393 H381 0.950 . S
C393 C389 1.393 . S
C393 C392 1.391 . S
H394 C402 0.950 . S
H395 C407 0.950 . S
H396 C404 0.950 . S
H397 C406 0.950 . S
H398 C408 0.950 . S
H399 C410 0.950 . S
H400 C412 0.950 . S
H401 C413 0.950 . S
C402 H394 0.950 . S
C402 C403 1.386 . S
C402 C404 1.391 . S
C403 C402 1.386 . S
C403 C407 1.393 . S
C404 H396 0.950 . S
C404 C402 1.391 . S
C404 C405 1.400 . S
C405 C404 1.400 . S
C405 C406 1.398 . S
C405 C411 1.491 . S
C406 H397 0.950 . S
C406 C405 1.398 . S
C406 C407 1.391 . S
C407 H395 0.950 . S
C407 C403 1.393 . S
C407 C406 1.391 . S
C408 H398 0.950 . S
C408 C409 1.386 . S
C408 C410 1.391 . S
C409 C408 1.386 . S
C409 C413 1.393 . S
C410 H399 0.950 . S
C410 C408 1.391 . S
C410 C411 1.400 . S
C411 C405 1.491 . S
C411 C410 1.400 . S
C411 C412 1.398 . S
C412 H400 0.950 . S
C412 C411 1.398 . S
C412 C413 1.391 . S
C413 H401 0.950 . S
C413 C409 1.393 . S
C413 C412 1.391 . S
H414 C422 0.950 . S
H415 C427 0.950 . S
H416 C424 0.950 . S
H417 C426 0.950 . S
H418 C428 0.950 . S
H419 C430 0.950 . S
H420 C432 0.950 . S
H421 C433 0.950 . S
C422 H414 0.950 . S
C422 C423 1.386 . S
C422 C424 1.391 . S
C423 C422 1.386 . S
C423 C427 1.393 . S
C424 H416 0.950 . S
C424 C422 1.391 . S
C424 C425 1.400 . S
C425 C424 1.400 . S
C425 C426 1.398 . S
C425 C431 1.491 . S
C426 H417 0.950 . S
C426 C425 1.398 . S
C426 C427 1.391 . S
C427 H415 0.950 . S
C427 C423 1.393 . S
C427 C426 1.391 . S
C428 H418 0.950 . S
C428 C429 1.386 . S
C428 C430 1.391 . S
C429 C428 1.386 . S
C429 C433 1.393 . S
C430 H419 0.950 . S
C430 C428 1.391 . S
C430 C431 1.400 . S
C431 C425 1.491 . S
C431 C430 1.400 . S
C431 C432 1.398 . S
C432 H420 0.950 . S
C432 C431 1.398 . S
C432 C433 1.391 . S
C433 H421 0.950 . S
C433 C429 1.393 . S
C433 C432 1.391 . S
H434 C442 0.950 . S
H435 C447 0.950 . S
H436 C444 0.950 . S
H437 C446 0.950 . S
H438 C448 0.950 . S
H439 C450 0.950 . S
H440 C452 0.950 . S
H441 C453 0.950 . S
C442 H434 0.950 . S
C442 C443 1.386 . S
C442 C444 1.391 . S
C443 C442 1.386 . S
C443 C447 1.393 . S
C444 H436 0.950 . S
C444 C442 1.391 . S
C444 C445 1.400 . S
C445 C444 1.400 . S
C445 C446 1.398 . S
C445 C451 1.491 . S
C446 H437 0.950 . S
C446 C445 1.398 . S
C446 C447 1.391 . S
C447 H435 0.950 . S
C447 C443 1.393 . S
C447 C446 1.391 . S
C448 H438 0.950 . S
C448 C449 1.386 . S
C448 C450 1.391 . S
C449 C448 1.386 . S
C449 C453 1.393 . S
C450 H439 0.950 . S
C450 C448 1.391 . S
C450 C451 1.400 . S
C451 C445 1.491 . S
C451 C450 1.400 . S
C451 C452 1.398 . S
C452 H440 0.950 . S
C452 C451 1.398 . S
C452 C453 1.391 . S
C453 H441 0.950 . S
C453 C449 1.393 . S
C453 C452 1.391 . S
H454 C462 0.950 . S
H455 C467 0.950 . S
H456 C464 0.950 . S
H457 C466 0.950 . S
H458 C468 0.950 . S
H459 C470 0.950 . S
H460 C472 0.950 . S
H461 C473 0.950 . S
C462 H454 0.950 . S
C462 C463 1.386 . S
C462 C464 1.391 . S
C463 C462 1.386 . S
C463 C467 1.393 . S
C464 H456 0.950 . S
C464 C462 1.391 . S
C464 C465 1.400 . S
C465 C464 1.400 . S
C465 C466 1.398 . S
C465 C471 1.491 . S
C466 H457 0.950 . S
C466 C465 1.398 . S
C466 C467 1.391 . S
C467 H455 0.950 . S
C467 C463 1.393 . S
C467 C466 1.391 . S
C468 H458 0.950 . S
C468 C469 1.386 . S
C468 C470 1.391 . S
C469 C468 1.386 . S
C469 C473 1.393 . S
C470 H459 0.950 . S
C470 C468 1.391 . S
C470 C471 1.400 . S
C471 C465 1.491 . S
C471 C470 1.400 . S
C471 C472 1.398 . S
C472 H460 0.950 . S
C472 C471 1.398 . S
C472 C473 1.391 . S
C473 H461 0.950 . S
C473 C469 1.393 . S
C473 C472 1.391 . S
H474 C482 0.950 . S
H475 C487 0.950 . S
H476 C484 0.950 . S
H477 C486 0.950 . S
H478 C488 0.950 . S
H479 C490 0.950 . S
H480 C492 0.950 . S
H481 C493 0.950 . S
C482 H474 0.950 . S
C482 C483 1.386 . S
C482 C484 1.391 . S
C483 C482 1.386 . S
C483 C487 1.393 . S
C484 H476 0.950 . S
C484 C482 1.391 . S
C484 C485 1.400 . S
C485 C484 1.400 . S
C485 C486 1.398 . S
C485 C491 1.491 . S
C486 H477 0.950 . S
C486 C485 1.398 . S
C486 C487 1.391 . S
C487 H475 0.950 . S
C487 C483 1.393 . S
C487 C486 1.391 . S
C488 H478 0.950 . S
C488 C489 1.386 . S
C488 C490 1.391 . S
C489 C488 1.386 . S
C489 C493 1.393 . S
C490 H479 0.950 . S
C490 C488 1.391 . S
C490 C491 1.400 . S
C491 C485 1.491 . S
C491 C490 1.400 . S
C491 C492 1.398 . S
C492 H480 0.950 . S
C492 C491 1.398 . S
C492 C493 1.391 . S
C493 H481 0.950 . S
C493 C489 1.393 . S
C493 C492 1.391 . S
H494 C502 0.950 . S
H495 C507 0.950 . S
H496 C504 0.950 . S
H497 C506 0.950 . S
H498 C508 0.950 . S
H499 C510 0.950 . S
H500 C512 0.950 . S
H501 C513 0.950 . S
C502 H494 0.950 . S
C502 C503 1.386 . S
C502 C504 1.391 . S
C503 C502 1.386 . S
C503 C507 1.393 . S
C504 H496 0.950 . S
C504 C502 1.391 . S
C504 C505 1.400 . S
C505 C504 1.400 . S
C505 C506 1.398 . S
C505 C511 1.491 . S
C506 H497 0.950 . S
C506 C505 1.398 . S
C506 C507 1.391 . S
C507 H495 0.950 . S
C507 C503 1.393 . S
C507 C506 1.391 . S
C508 H498 0.950 . S
C508 C509 1.386 . S
C508 C510 1.391 . S
C509 C508 1.386 . S
C509 C513 1.393 . S
C510 H499 0.950 . S
C510 C508 1.391 . S
C510 C511 1.400 . S
C511 C505 1.491 . S
C511 C510 1.400 . S
C511 C512 1.398 . S
C512 H500 0.950 . S
C512 C511 1.398 . S
C512 C513 1.391 . S
C513 H501 0.950 . S
C513 C509 1.393 . S
C513 C512 1.391 . S
H514 C522 0.950 . S
H515 C527 0.950 . S
H516 C524 0.950 . S
H517 C526 0.950 . S
H518 C528 0.950 . S
H519 C530 0.950 . S
H520 C532 0.950 . S
H521 C533 0.950 . S
C522 H514 0.950 . S
C522 C523 1.386 . S
C522 C524 1.391 . S
C523 C522 1.386 . S
C523 C527 1.393 . S
C524 H516 0.950 . S
C524 C522 1.391 . S
C524 C525 1.400 . S
C525 C524 1.400 . S
C525 C526 1.398 . S
C525 C531 1.491 . S
C526 H517 0.950 . S
C526 C525 1.398 . S
C526 C527 1.391 . S
C527 H515 0.950 . S
C527 C523 1.393 . S
C527 C526 1.391 . S
C528 H518 0.950 . S
C528 C529 1.386 . S
C528 C530 1.391 . S
C529 C528 1.386 . S
C529 C533 1.393 . S
C530 H519 0.950 . S
C530 C528 1.391 . S
C530 C531 1.400 . S
C531 C525 1.491 . S
C531 C530 1.400 . S
C531 C532 1.398 . S
C532 H520 0.950 . S
C532 C531 1.398 . S
C532 C533 1.391 . S
C533 H521 0.950 . S
C533 C529 1.393 . S
C533 C532 1.391 . S
H534 C542 0.950 . S
H535 C547 0.950 . S
H536 C544 0.950 . S
H537 C546 0.950 . S
H538 C548 0.950 . S
H539 C550 0.950 . S
H540 C552 0.950 . S
H541 C553 0.950 . S
C542 H534 0.950 . S
C542 C543 1.386 . S
C542 C544 1.391 . S
C543 C542 1.386 . S
C543 C547 1.393 1_455 S
C544 H536 0.950 . S
C544 C542 1.391 . S
C544 C545 1.400 . S
C545 C544 1.400 . S
C545 C546 1.398 1_455 S
C545 C551 1.491 1_455 S
C546 H537 0.950 . S
C546 C545 1.398 1_655 S
C546 C547 1.391 . S
C547 H535 0.950 . S
C547 C543 1.393 1_655 S
C547 C546 1.391 . S
C548 H538 0.950 . S
C548 C549 1.386 . S
C548 C550 1.391 . S
C549 C548 1.386 . S
C549 C553 1.393 1_655 S
C550 H539 0.950 . S
C550 C548 1.391 . S
C550 C551 1.400 . S
C551 C545 1.491 1_655 S
C551 C550 1.400 . S
C551 C552 1.398 1_655 S
C552 H540 0.950 . S
C552 C551 1.398 1_455 S
C552 C553 1.391 . S
C553 H541 0.950 . S
C553 C549 1.393 1_455 S
C553 C552 1.391 . S
H554 C562 0.950 . S
H555 C567 0.950 . S
H556 C564 0.950 . S
H557 C566 0.950 . S
H558 C568 0.950 . S
H559 C570 0.950 . S
H560 C572 0.950 . S
H561 C573 0.950 . S
C562 H554 0.950 . S
C562 C563 1.386 . S
C562 C564 1.391 . S
C563 C562 1.386 . S
C563 C567 1.393 . S
C564 H556 0.950 . S
C564 C562 1.391 . S
C564 C565 1.400 . S
C565 C564 1.400 . S
C565 C566 1.398 . S
C565 C571 1.491 . S
C566 H557 0.950 . S
C566 C565 1.398 . S
C566 C567 1.391 . S
C567 H555 0.950 . S
C567 C563 1.393 . S
C567 C566 1.391 . S
C568 H558 0.950 . S
C568 C569 1.386 . S
C568 C570 1.391 . S
C569 C568 1.386 . S
C569 C573 1.393 . S
C570 H559 0.950 . S
C570 C568 1.391 . S
C570 C571 1.400 . S
C571 C565 1.491 . S
C571 C570 1.400 . S
C571 C572 1.398 . S
C572 H560 0.950 . S
C572 C571 1.398 . S
C572 C573 1.391 . S
C573 H561 0.950 . S
C573 C569 1.393 . S
C573 C572 1.391 . S
H574 C582 0.950 . S
H575 C587 0.950 . S
H576 C584 0.950 . S
H577 C586 0.950 . S
H578 C588 0.950 . S
H579 C590 0.950 . S
H580 C592 0.950 . S
H581 C593 0.950 . S
C582 H574 0.950 . S
C582 C583 1.386 1_565 S
C582 C584 1.391 . S
C583 C582 1.386 1_545 S
C583 C587 1.393 . S
C584 H576 0.950 . S
C584 C582 1.391 . S
C584 C585 1.400 1_565 S
C585 C584 1.400 1_545 S
C585 C586 1.398 . S
C585 C591 1.491 1_545 S
C586 H577 0.950 . S
C586 C585 1.398 . S
C586 C587 1.391 . S
C587 H575 0.950 . S
C587 C583 1.393 . S
C587 C586 1.391 . S
C588 H578 0.950 . S
C588 C589 1.386 1_545 S
C588 C590 1.391 . S
C589 C588 1.386 1_565 S
C589 C593 1.393 . S
C590 H579 0.950 . S
C590 C588 1.391 . S
C590 C591 1.400 1_545 S
C591 C585 1.491 1_565 S
C591 C590 1.400 1_565 S
C591 C592 1.398 . S
C592 H580 0.950 . S
C592 C591 1.398 . S
C592 C593 1.391 . S
C593 H581 0.950 . S
C593 C589 1.393 . S
C593 C592 1.391 . S
H594 C602 0.950 . S
H595 C607 0.950 . S
H596 C604 0.950 . S
H597 C606 0.950 . S
H598 C608 0.950 . S
H599 C610 0.950 . S
H600 C612 0.950 . S
H601 C613 0.950 . S
C602 H594 0.950 . S
C602 C603 1.386 . S
C602 C604 1.391 . S
C603 C602 1.386 . S
C603 C607 1.393 1_554 S
C604 H596 0.950 . S
C604 C602 1.391 . S
C604 C605 1.400 . S
C605 C604 1.400 . S
C605 C606 1.398 1_554 S
C605 C611 1.491 1_554 S
C606 H597 0.950 . S
C606 C605 1.398 1_556 S
C606 C607 1.391 . S
C607 H595 0.950 . S
C607 C603 1.393 1_556 S
C607 C606 1.391 . S
C608 H598 0.950 . S
C608 C609 1.386 . S
C608 C610 1.391 . S
C609 C608 1.386 . S
C609 C613 1.393 1_556 S
C610 H599 0.950 . S
C610 C608 1.391 . S
C610 C611 1.400 . S
C611 C605 1.491 1_556 S
C611 C610 1.400 . S
C611 C612 1.398 1_556 S
C612 H600 0.950 . S
C612 C611 1.398 1_554 S
C612 C613 1.391 . S
C613 H601 0.950 . S
C613 C609 1.393 1_554 S
C613 C612 1.391 . S
H614 C622 0.950 . S
H615 C627 0.969 . S
H616 C624 0.950 . S
H617 C626 0.950 . S
H618 C628 0.950 . S
H619 C630 0.950 . S
H620 C632 0.950 . S
H621 C633 0.951 . S
C622 H614 0.950 . S
C622 C623 1.386 . S
C622 C624 1.391 . S
C623 C622 1.386 . S
C623 C627 1.362 1_554 S
C624 H616 0.950 . S
C624 C622 1.391 . S
C624 C625 1.400 . S
C625 C624 1.400 . S
C625 C626 1.398 1_554 S
C625 C631 1.491 1_554 S
C626 H617 0.950 . S
C626 C625 1.398 1_556 S
C626 C627 1.403 . S
C627 H615 0.969 . S
C627 C623 1.362 1_556 S
C627 C626 1.403 . S
C628 H618 0.950 . S
C628 C629 1.386 . S
C628 C630 1.391 . S
C629 C628 1.386 . S
C629 C633 1.391 1_556 S
C630 H619 0.950 . S
C630 C628 1.391 . S
C630 C631 1.400 . S
C631 C625 1.491 1_556 S
C631 C630 1.400 . S
C631 C632 1.398 1_556 S
C632 H620 0.950 . S
C632 C631 1.398 1_554 S
C632 C633 1.391 . S
C633 H621 0.951 . S
C633 C629 1.391 1_554 S
C633 C632 1.391 . S
H634 C642 0.950 . S
H635 C647 0.950 . S
H636 C644 0.950 . S
H637 C646 0.950 . S
H638 C648 0.950 . S
H639 C650 0.950 . S
H640 C652 0.950 . S
H641 C653 0.950 . S
C642 H634 0.950 . S
C642 C643 1.386 1_556 S
C642 C644 1.391 . S
C643 C642 1.386 1_554 S
C643 C647 1.393 . S
C644 H636 0.950 . S
C644 C642 1.391 . S
C644 C645 1.400 1_556 S
C645 C644 1.400 1_554 S
C645 C646 1.398 . S
C645 C651 1.491 1_554 S
C646 H637 0.950 . S
C646 C645 1.398 . S
C646 C647 1.391 . S
C647 H635 0.950 . S
C647 C643 1.393 . S
C647 C646 1.391 . S
C648 H638 0.950 . S
C648 C649 1.386 1_554 S
C648 C650 1.391 . S
C649 C648 1.386 1_556 S
C649 C653 1.393 . S
C650 H639 0.950 . S
C650 C648 1.391 . S
C650 C651 1.400 1_554 S
C651 C645 1.491 1_556 S
C651 C650 1.400 1_556 S
C651 C652 1.398 . S
C652 H640 0.950 . S
C652 C651 1.398 . S
C652 C653 1.391 . S
C653 H641 0.950 . S
C653 C649 1.393 . S
C653 C652 1.391 . S
H654 C662 0.956 . S
H655 C667 0.950 . S
H656 C664 0.950 . S
H657 C666 0.950 . S
H658 C668 0.950 . S
H659 C670 0.950 . S
H660 C672 0.950 . S
H661 C673 0.950 . S
C662 H654 0.956 . S
C662 C663 1.386 . S
C662 C664 1.391 1_556 S
C663 C662 1.386 . S
C663 C667 1.393 . S
C664 H656 0.950 . S
C664 C662 1.391 1_554 S
C664 C665 1.400 1_554 S
C665 C664 1.400 1_556 S
C665 C666 1.398 . S
C665 C671 1.491 1_556 S
C666 H657 0.950 . S
C666 C665 1.398 . S
C666 C667 1.391 . S
C667 H655 0.950 . S
C667 C663 1.393 . S
C667 C666 1.391 . S
C668 H658 0.950 . S
C668 C669 1.386 . S
C668 C670 1.391 1_554 S
C669 C668 1.386 . S
C669 C673 1.393 . S
C670 H659 0.950 . S
C670 C668 1.391 1_556 S
C670 C671 1.400 1_556 S
C671 C665 1.491 1_554 S
C671 C670 1.400 1_554 S
C671 C672 1.398 . S
C672 H660 0.950 . S
C672 C671 1.398 . S
C672 C673 1.391 . S
C673 H661 0.950 . S
C673 C669 1.393 . S
C673 C672 1.391 . S
H674 C682 0.950 . S
H675 C687 0.950 . S
H676 C684 0.950 . S
H677 C686 0.950 . S
H678 C688 0.950 . S
H679 C690 0.950 . S
H680 C692 0.950 . S
H681 C693 0.950 . S
C682 H674 0.950 . S
C682 C683 1.386 . S
C682 C684 1.391 . S
C683 C682 1.386 . S
C683 C687 1.393 1_554 S
C684 H676 0.950 . S
C684 C682 1.391 . S
C684 C685 1.400 . S
C685 C684 1.400 . S
C685 C686 1.398 1_554 S
C685 C691 1.491 1_554 S
C686 H677 0.950 . S
C686 C685 1.398 1_556 S
C686 C687 1.391 . S
C687 H675 0.950 . S
C687 C683 1.393 1_556 S
C687 C686 1.391 . S
C688 H678 0.950 . S
C688 C689 1.386 . S
C688 C690 1.391 . S
C689 C688 1.386 . S
C689 C693 1.393 1_556 S
C690 H679 0.950 . S
C690 C688 1.391 . S
C690 C691 1.400 . S
C691 C685 1.491 1_556 S
C691 C690 1.400 . S
C691 C692 1.398 1_556 S
C692 H680 0.950 . S
C692 C691 1.398 1_554 S
C692 C693 1.391 . S
C693 H681 0.950 . S
C693 C689 1.393 1_554 S
C693 C692 1.391 . S
H694 C702 0.950 . S
H695 C707 0.950 . S
H696 C704 0.950 . S
H697 C706 0.950 . S
H698 C708 0.950 . S
H699 C710 0.950 . S
H700 C712 0.950 . S
H701 C713 0.950 . S
C702 H694 0.950 . S
C702 C703 1.386 . S
C702 C704 1.391 . S
C703 C702 1.386 . S
C703 C707 1.393 . S
C704 H696 0.950 . S
C704 C702 1.391 . S
C704 C705 1.400 . S
C705 C704 1.400 . S
C705 C706 1.398 . S
C705 C711 1.491 1_556 S
C706 H697 0.950 . S
C706 C705 1.398 . S
C706 C707 1.391 . S
C707 H695 0.950 . S
C707 C703 1.393 . S
C707 C706 1.391 . S
C708 H698 0.950 . S
C708 C709 1.386 . S
C708 C710 1.391 . S
C709 C708 1.386 . S
C709 C713 1.393 . S
C710 H699 0.950 . S
C710 C708 1.391 . S
C710 C711 1.400 . S
C711 C705 1.491 1_554 S
C711 C710 1.400 . S
C711 C712 1.398 . S
C712 H700 0.950 . S
C712 C711 1.398 . S
C712 C713 1.391 . S
C713 H701 0.950 . S
C713 C709 1.393 . S
C713 C712 1.391 . S
H714 C722 0.950 . S
H715 C727 0.950 . S
H716 C724 0.950 . S
H717 C726 0.950 . S
H718 C728 0.950 . S
H719 C730 0.950 . S
H720 C732 0.950 . S
H721 C733 0.950 . S
C722 H714 0.950 . S
C722 C723 1.386 . S
C722 C724 1.391 . S
C723 C722 1.386 . S
C723 C727 1.393 . S
C724 H716 0.950 . S
C724 C722 1.391 . S
C724 C725 1.400 . S
C725 C724 1.400 . S
C725 C726 1.398 . S
C725 C731 1.491 . S
C726 H717 0.950 . S
C726 C725 1.398 . S
C726 C727 1.391 . S
C727 H715 0.950 . S
C727 C723 1.393 . S
C727 C726 1.391 . S
C728 H718 0.950 . S
C728 C729 1.386 . S
C728 C730 1.391 . S
C729 C728 1.386 . S
C729 C733 1.393 . S
C730 H719 0.950 . S
C730 C728 1.391 . S
C730 C731 1.400 . S
C731 C725 1.491 . S
C731 C730 1.400 . S
C731 C732 1.398 . S
C732 H720 0.950 . S
C732 C731 1.398 . S
C732 C733 1.391 . S
C733 H721 0.950 . S
C733 C729 1.393 . S
C733 C732 1.391 . S
H734 C742 0.950 . S
H735 C747 0.950 . S
H736 C744 0.950 . S
H737 C746 0.950 . S
H738 C748 0.950 . S
H739 C750 0.950 . S
H740 C752 0.950 . S
H741 C753 0.950 . S
C742 H734 0.950 . S
C742 C743 1.386 . S
C742 C744 1.391 . S
C743 C742 1.386 . S
C743 C747 1.393 . S
C744 H736 0.950 . S
C744 C742 1.391 . S
C744 C745 1.400 . S
C745 C744 1.400 . S
C745 C746 1.398 . S
C745 C751 1.491 . S
C746 H737 0.950 . S
C746 C745 1.398 . S
C746 C747 1.391 . S
C747 H735 0.950 . S
C747 C743 1.393 . S
C747 C746 1.391 . S
C748 H738 0.950 . S
C748 C749 1.386 . S
C748 C750 1.391 . S
C749 C748 1.386 . S
C749 C753 1.393 . S
C750 H739 0.950 . S
C750 C748 1.391 . S
C750 C751 1.400 . S
C751 C745 1.491 . S
C751 C750 1.400 . S
C751 C752 1.398 . S
C752 H740 0.950 . S
C752 C751 1.398 . S
C752 C753 1.391 . S
C753 H741 0.950 . S
C753 C749 1.393 . S
C753 C752 1.391 . S
H754 C762 0.950 . S
H755 C767 0.950 . S
H756 C764 0.950 . S
H757 C766 0.950 . S
H758 C768 0.950 . S
H759 C770 0.950 . S
H760 C772 0.950 . S
H761 C773 0.950 . S
C762 H754 0.950 . S
C762 C763 1.386 . S
C762 C764 1.391 . S
C763 C762 1.386 . S
C763 C767 1.393 . S
C764 H756 0.950 . S
C764 C762 1.391 . S
C764 C765 1.400 . S
C765 C764 1.400 . S
C765 C766 1.398 . S
C765 C771 1.491 . S
C766 H757 0.950 . S
C766 C765 1.398 . S
C766 C767 1.391 . S
C767 H755 0.950 . S
C767 C763 1.393 . S
C767 C766 1.391 . S
C768 H758 0.950 . S
C768 C769 1.386 . S
C768 C770 1.391 . S
C769 C768 1.386 . S
C769 C773 1.393 . S
C770 H759 0.950 . S
C770 C768 1.391 . S
C770 C771 1.400 . S
C771 C765 1.491 . S
C771 C770 1.400 . S
C771 C772 1.398 . S
C772 H760 0.950 . S
C772 C771 1.398 . S
C772 C773 1.391 . S
C773 H761 0.950 . S
C773 C769 1.393 . S
C773 C772 1.391 . S
H774 C782 0.950 . S
H775 C787 0.950 . S
H776 C784 0.950 . S
H777 C786 0.950 . S
H778 C788 0.950 . S
H779 C790 0.950 . S
H780 C792 0.950 . S
H781 C793 0.950 . S
C782 H774 0.950 . S
C782 C783 1.386 . S
C782 C784 1.391 . S
C783 C782 1.386 . S
C783 C787 1.393 . S
C784 H776 0.950 . S
C784 C782 1.391 . S
C784 C785 1.400 . S
C785 C784 1.400 . S
C785 C786 1.398 . S
C785 C791 1.491 . S
C786 H777 0.950 . S
C786 C785 1.398 . S
C786 C787 1.391 . S
C787 H775 0.950 . S
C787 C783 1.393 . S
C787 C786 1.391 . S
C788 H778 0.950 . S
C788 C789 1.386 . S
C788 C790 1.391 . S
C789 C788 1.386 . S
C789 C793 1.393 . S
C790 H779 0.950 . S
C790 C788 1.391 . S
C790 C791 1.400 . S
C791 C785 1.491 . S
C791 C790 1.400 . S
C791 C792 1.398 . S
C792 H780 0.950 . S
C792 C791 1.398 . S
C792 C793 1.391 . S
C793 H781 0.950 . S
C793 C789 1.393 . S
C793 C792 1.391 . S
H794 C802 0.950 . S
H795 C807 0.950 . S
H796 C804 0.950 . S
H797 C806 0.950 . S
H798 C808 0.950 . S
H799 C810 0.950 . S
H800 C812 0.950 . S
H801 C813 0.950 . S
C802 H794 0.950 . S
C802 C803 1.386 1_565 S
C802 C804 1.391 . S
C803 C802 1.386 1_545 S
C803 C807 1.393 . S
C804 H796 0.950 . S
C804 C802 1.391 . S
C804 C805 1.400 1_565 S
C805 C804 1.400 1_545 S
C805 C806 1.398 . S
C805 C811 1.491 . S
C806 H797 0.950 . S
C806 C805 1.398 . S
C806 C807 1.391 . S
C807 H795 0.950 . S
C807 C803 1.393 . S
C807 C806 1.391 . S
C808 H798 0.950 . S
C808 C809 1.386 1_545 S
C808 C810 1.391 . S
C809 C808 1.386 1_565 S
C809 C813 1.393 . S
C810 H799 0.950 . S
C810 C808 1.391 . S
C810 C811 1.400 . S
C811 C805 1.491 . S
C811 C810 1.400 . S
C811 C812 1.398 1_545 S
C812 H800 0.950 . S
C812 C811 1.398 1_565 S
C812 C813 1.391 . S
C813 H801 0.950 . S
C813 C809 1.393 . S
C813 C812 1.391 . S
H814 C822 0.950 . S
H815 C827 0.950 . S
H816 C824 0.950 . S
H817 C826 0.950 . S
H818 C828 0.950 . S
H819 C830 0.950 . S
H820 C832 0.948 . S
H821 C833 0.950 . S
C822 H814 0.950 . S
C822 C823 1.386 . S
C822 C824 1.391 . S
C823 C822 1.386 . S
C823 C827 1.393 . S
C824 H816 0.950 . S
C824 C822 1.391 . S
C824 C825 1.400 . S
C825 C824 1.400 . S
C825 C826 1.398 . S
C825 C831 1.491 . S
C826 H817 0.950 . S
C826 C825 1.398 . S
C826 C827 1.391 . S
C827 H815 0.950 . S
C827 C823 1.393 . S
C827 C826 1.391 . S
C828 H818 0.950 . S
C828 C829 1.386 1_655 S
C828 C830 1.391 . S
C829 C828 1.386 1_455 S
C829 C833 1.393 . S
C830 H819 0.950 . S
C830 C828 1.391 . S
C830 C831 1.400 . S
C831 C825 1.491 . S
C831 C830 1.400 . S
C831 C832 1.398 . S
C832 H820 0.948 . S
C832 C831 1.398 . S
C832 C833 1.391 1_655 S
C833 H821 0.950 . S
C833 C829 1.393 . S
C833 C832 1.391 1_455 S
H834 C842 0.950 . S
H835 C847 0.950 . S
H836 C844 0.950 . S
H837 C846 0.950 . S
H838 C848 0.950 . S
H839 C850 0.950 . S
H840 C852 0.950 . S
H841 C853 0.950 . S
C842 H834 0.950 . S
C842 C843 1.386 . S
C842 C844 1.391 . S
C843 C842 1.386 . S
C843 C847 1.393 . S
C844 H836 0.950 . S
C844 C842 1.391 . S
C844 C845 1.400 . S
C845 C844 1.400 . S
C845 C846 1.398 . S
C845 C851 1.491 . S
C846 H837 0.950 . S
C846 C845 1.398 . S
C846 C847 1.391 . S
C847 H835 0.950 . S
C847 C843 1.393 . S
C847 C846 1.391 . S
C848 H838 0.950 . S
C848 C849 1.386 . S
C848 C850 1.391 . S
C849 C848 1.386 . S
C849 C853 1.393 . S
C850 H839 0.950 . S
C850 C848 1.391 . S
C850 C851 1.400 . S
C851 C845 1.491 . S
C851 C850 1.400 . S
C851 C852 1.398 . S
C852 H840 0.950 . S
C852 C851 1.398 . S
C852 C853 1.391 . S
C853 H841 0.950 . S
C853 C849 1.393 . S
C853 C852 1.391 . S
H854 C862 0.950 . S
H855 C867 0.950 . S
H856 C864 0.950 . S
H857 C866 0.950 . S
H858 C868 0.950 1_545 S
H859 C870 0.950 . S
H860 C872 0.950 . S
H861 C873 0.950 . S
C862 H854 0.950 . S
C862 C863 1.386 1_565 S
C862 C864 1.391 . S
C863 C862 1.386 1_545 S
C863 C867 1.393 . S
C864 H856 0.950 . S
C864 C862 1.391 . S
C864 C865 1.400 . S
C865 C864 1.400 . S
C865 C866 1.398 1_565 S
C865 C871 1.491 . S
C866 H857 0.950 . S
C866 C865 1.398 1_545 S
C866 C867 1.391 . S
C867 H855 0.950 . S
C867 C863 1.393 . S
C867 C866 1.391 . S
C868 H858 0.950 1_565 S
C868 C869 1.386 . S
C868 C870 1.391 1_565 S
C869 C868 1.386 . S
C869 C873 1.393 . S
C870 H859 0.950 . S
C870 C868 1.391 1_545 S
C870 C871 1.400 1_545 S
C871 C865 1.491 . S
C871 C870 1.400 1_565 S
C871 C872 1.398 . S
C872 H860 0.950 . S
C872 C871 1.398 . S
C872 C873 1.391 . S
C873 H861 0.950 . S
C873 C869 1.393 . S
C873 C872 1.391 . S
H874 C882 0.952 . S
H875 C887 0.950 . S
H876 C884 0.950 1_655 S
H877 C886 0.950 . S
H878 C888 0.950 . S
H879 C890 0.950 . S
H880 C892 0.950 . S
H881 C893 0.950 . S
C882 H874 0.952 . S
C882 C883 1.386 . S
C882 C884 1.391 . S
C883 C882 1.386 . S
C883 C887 1.393 . S
C884 H876 0.950 1_455 S
C884 C882 1.391 . S
C884 C885 1.400 . S
C885 C884 1.400 . S
C885 C886 1.398 . S
C885 C891 1.491 . S
C886 H877 0.950 . S
C886 C885 1.398 . S
C886 C887 1.391 . S
C887 H875 0.950 . S
C887 C883 1.393 . S
C887 C886 1.391 . S
C888 H878 0.950 . S
C888 C889 1.386 1_455 S
C888 C890 1.391 . S
C889 C888 1.386 1_655 S
C889 C893 1.393 . S
C890 H879 0.950 . S
C890 C888 1.391 . S
C890 C891 1.400 . S
C891 C885 1.491 . S
C891 C890 1.400 . S
C891 C892 1.398 1_455 S
C892 H880 0.950 . S
C892 C891 1.398 1_655 S
C892 C893 1.391 . S
C893 H881 0.950 . S
C893 C889 1.393 . S
C893 C892 1.391 . S
H894 C902 0.950 . S
H895 C907 0.950 . S
H896 C904 0.950 . S
H897 C906 0.950 . S
H898 C908 0.950 . S
H899 C910 0.950 . S
H900 C912 0.950 . S
H901 C913 0.950 . S
C902 H894 0.950 . S
C902 C903 1.386 . S
C902 C904 1.391 . S
C903 C902 1.386 . S
C903 C907 1.393 . S
C904 H896 0.950 . S
C904 C902 1.391 . S
C904 C905 1.400 . S
C905 C904 1.400 . S
C905 C906 1.398 . S
C905 C911 1.491 . S
C906 H897 0.950 . S
C906 C905 1.398 . S
C906 C907 1.391 . S
C907 H895 0.950 . S
C907 C903 1.393 . S
C907 C906 1.391 . S
C908 H898 0.950 . S
C908 C909 1.386 . S
C908 C910 1.391 . S
C909 C908 1.386 . S
C909 C913 1.393 . S
C910 H899 0.950 . S
C910 C908 1.391 . S
C910 C911 1.400 . S
C911 C905 1.491 . S
C911 C910 1.400 . S
C911 C912 1.398 . S
C912 H900 0.950 . S
C912 C911 1.398 . S
C912 C913 1.391 . S
C913 H901 0.950 . S
C913 C909 1.393 . S
C913 C912 1.391 . S
H914 C922 0.950 . S
H915 C927 0.950 . S
H916 C924 0.950 . S
H917 C926 0.950 . S
H918 C928 0.950 . S
H919 C930 0.950 . S
H920 C932 0.950 . S
H921 C933 0.950 . S
C922 H914 0.950 . S
C922 C923 1.386 . S
C922 C924 1.391 . S
C923 C922 1.386 . S
C923 C927 1.393 . S
C924 H916 0.950 . S
C924 C922 1.391 . S
C924 C925 1.400 . S
C925 C924 1.400 . S
C925 C926 1.398 . S
C925 C931 1.491 . S
C926 H917 0.950 . S
C926 C925 1.398 . S
C926 C927 1.391 . S
C927 H915 0.950 . S
C927 C923 1.393 . S
C927 C926 1.391 . S
C928 H918 0.950 . S
C928 C929 1.386 . S
C928 C930 1.391 . S
C929 C928 1.386 . S
C929 C933 1.393 . S
C930 H919 0.950 . S
C930 C928 1.391 . S
C930 C931 1.400 . S
C931 C925 1.491 . S
C931 C930 1.400 . S
C931 C932 1.398 . S
C932 H920 0.950 . S
C932 C931 1.398 . S
C932 C933 1.391 . S
C933 H921 0.950 . S
C933 C929 1.393 . S
C933 C932 1.391 . S
H934 C942 0.950 . S
H935 C947 0.950 . S
H936 C944 0.950 . S
H937 C946 0.950 . S
H938 C948 0.950 . S
H939 C950 0.950 . S
H940 C952 0.950 . S
H941 C953 0.950 . S
C942 H934 0.950 . S
C942 C943 1.386 . S
C942 C944 1.391 . S
C943 C942 1.386 . S
C943 C947 1.393 . S
C944 H936 0.950 . S
C944 C942 1.391 . S
C944 C945 1.400 . S
C945 C944 1.400 . S
C945 C946 1.398 . S
C945 C951 1.491 . S
C946 H937 0.950 . S
C946 C945 1.398 . S
C946 C947 1.391 . S
C947 H935 0.950 . S
C947 C943 1.393 . S
C947 C946 1.391 . S
C948 H938 0.950 . S
C948 C949 1.386 . S
C948 C950 1.391 . S
C949 C948 1.386 . S
C949 C953 1.393 . S
C950 H939 0.950 . S
C950 C948 1.391 . S
C950 C951 1.400 . S
C951 C945 1.491 . S
C951 C950 1.400 . S
C951 C952 1.398 . S
C952 H940 0.950 . S
C952 C951 1.398 . S
C952 C953 1.391 . S
C953 H941 0.950 . S
C953 C949 1.393 . S
C953 C952 1.391 . S
C243 C5 1.930 . S
C249 C44 1.930 . S
C263 C18 1.935 . S
C269 C55 1.935 . S
C283 C70 1.930 . S
C289 C29 1.930 . S
C303 C83 1.942 . S
C309 C122 1.942 . S
C323 C94 1.938 . S
C329 C135 1.938 . S
C343 C146 1.939 . S
C349 C107 1.939 . S
C363 C198 1.938 . S
C369 C159 1.938 . S
C383 C213 1.942 . S
C389 C174 1.942 . S
C403 C224 1.943 . S
C409 C187 1.943 . S
C423 C10 1.637 . S
C429 C127 1.637 . S
C443 C23 1.638 . S
C449 C140 1.638 . S
C463 C147 1.655 . S
C469 C30 1.655 . S
C483 C49 1.648 . S
C489 C160 1.648 . S
C503 C56 1.657 . S
C509 C179 1.657 . S
C523 C75 1.646 . S
C529 C192 1.646 . S
C543 C88 1.636 . S
C549 C199 1.636 . S
C563 C95 1.639 . S
C569 C218 1.639 . S
C583 C225 1.635 . S
C589 C108 1.635 . S
C603 C3 0.815 1_565 S
C609 C62 0.831 . S
C623 C16 0.808 1_455 S
C629 C69 0.834 . S
C643 C31 0.836 . S
C649 C43 0.834 . S
C663 C42 0.817 1_545 S
C669 C17 0.835 . S
C683 C36 0.833 . S
C689 C57 0.807 1_655 S
C703 C68 0.831 . S
C709 C4 0.827 . S
C723 C81 0.829 . S
C729 C134 0.829 . S
C743 C153 0.839 . S
C749 C96 0.836 . S
C763 C121 0.832 . S
C769 C109 0.831 . S
C783 C101 0.829 . S
C789 C120 0.829 . S
C803 C133 0.837 . S
C809 C114 0.838 . S
C823 C148 0.836 . S
C829 C82 0.836 . S
C843 C212 0.834 . S
C849 C161 0.832 . S
C863 C231 0.838 . S
C869 C172 0.837 . S
C883 C185 0.829 . S
C889 C205 0.828 . S
C903 C173 0.828 . S
C909 C200 0.829 . S
C923 C186 0.838 . S
C929 C211 0.836 . S
C943 C166 0.834 . S
C949 C226 0.832 . S
