# Generated by pormake.
# Topology hbo, (4)-cn, num edge types: 1
# Building blocks:
#     Node 0, Type 0, BuildingBlock: QUQFOY_clean_sbu_1, # of connection points: 4
#     Node 1, Type 0, BuildingBlock: QUQFOY_clean_sbu_1, # of connection points: 4
#     Node 2, Type 0, BuildingBlock: QUQFOY_clean_sbu_1, # of connection points: 4
#     Node 3, Type 0, BuildingBlock: QUQFOY_clean_sbu_1, # of connection points: 4
#     Node 4, Type 0, BuildingBlock: QUQFOY_clean_sbu_1, # of connection points: 4
#     Node 5, Type 0, BuildingBlock: QUQFOY_clean_sbu_1, # of connection points: 4
#     Node 6, Type 0, BuildingBlock: QUQFOY_clean_sbu_1, # of connection points: 4
#     Node 7, Type 0, BuildingBlock: QUQFOY_clean_sbu_1, # of connection points: 4
#     Node 8, Type 0, BuildingBlock: QUQFOY_clean_sbu_1, # of connection points: 4
#     Node 9, Type 0, BuildingBlock: QUQFOY_clean_sbu_1, # of connection points: 4
#     Node 10, Type 0, BuildingBlock: QUQFOY_clean_sbu_1, # of connection points: 4
#     Node 11, Type 0, BuildingBlock: QUQFOY_clean_sbu_1, # of connection points: 4
#     Node 12, Type 0, BuildingBlock: QUQFOY_clean_sbu_1, # of connection points: 4
#     Node 13, Type 0, BuildingBlock: QUQFOY_clean_sbu_1, # of connection points: 4
#     Node 14, Type 0, BuildingBlock: QUQFOY_clean_sbu_1, # of connection points: 4
#     Node 15, Type 0, BuildingBlock: QUQFOY_clean_sbu_1, # of connection points: 4
#     Node 16, Type 0, BuildingBlock: QUQFOY_clean_sbu_1, # of connection points: 4
#     Node 17, Type 0, BuildingBlock: QUQFOY_clean_sbu_1, # of connection points: 4
#     Node 18, Type 0, BuildingBlock: QUQFOY_clean_sbu_1, # of connection points: 4
#     Node 19, Type 0, BuildingBlock: QUQFOY_clean_sbu_1, # of connection points: 4
#     Node 20, Type 0, BuildingBlock: QUQFOY_clean_sbu_1, # of connection points: 4
#     Node 21, Type 0, BuildingBlock: QUQFOY_clean_sbu_1, # of connection points: 4
#     Node 22, Type 0, BuildingBlock: QUQFOY_clean_sbu_1, # of connection points: 4
#     Node 23, Type 0, BuildingBlock: QUQFOY_clean_sbu_1, # of connection points: 4
#     Edge 24, Type (0, 0), BuildingBlock: UVAHIK_clean_linker_0, # of connection points: 2
#     Edge 25, Type (0, 0), BuildingBlock: UVAHIK_clean_linker_0, # of connection points: 2
#     Edge 26, Type (0, 0), BuildingBlock: UVAHIK_clean_linker_0, # of connection points: 2
#     Edge 27, Type (0, 0), BuildingBlock: UVAHIK_clean_linker_0, # of connection points: 2
#     Edge 28, Type (0, 0), BuildingBlock: UVAHIK_clean_linker_0, # of connection points: 2
#     Edge 29, Type (0, 0), BuildingBlock: UVAHIK_clean_linker_0, # of connection points: 2
#     Edge 30, Type (0, 0), BuildingBlock: UVAHIK_clean_linker_0, # of connection points: 2
#     Edge 31, Type (0, 0), BuildingBlock: UVAHIK_clean_linker_0, # of connection points: 2
#     Edge 32, Type (0, 0), BuildingBlock: UVAHIK_clean_linker_0, # of connection points: 2
#     Edge 33, Type (0, 0), BuildingBlock: UVAHIK_clean_linker_0, # of connection points: 2
#     Edge 34, Type (0, 0), BuildingBlock: UVAHIK_clean_linker_0, # of connection points: 2
#     Edge 35, Type (0, 0), BuildingBlock: UVAHIK_clean_linker_0, # of connection points: 2
#     Edge 36, Type (0, 0), BuildingBlock: UVAHIK_clean_linker_0, # of connection points: 2
#     Edge 37, Type (0, 0), BuildingBlock: UVAHIK_clean_linker_0, # of connection points: 2
#     Edge 38, Type (0, 0), BuildingBlock: UVAHIK_clean_linker_0, # of connection points: 2
#     Edge 39, Type (0, 0), BuildingBlock: UVAHIK_clean_linker_0, # of connection points: 2
#     Edge 40, Type (0, 0), BuildingBlock: UVAHIK_clean_linker_0, # of connection points: 2
#     Edge 41, Type (0, 0), BuildingBlock: UVAHIK_clean_linker_0, # of connection points: 2
#     Edge 42, Type (0, 0), BuildingBlock: UVAHIK_clean_linker_0, # of connection points: 2
#     Edge 43, Type (0, 0), BuildingBlock: UVAHIK_clean_linker_0, # of connection points: 2
#     Edge 44, Type (0, 0), BuildingBlock: UVAHIK_clean_linker_0, # of connection points: 2
#     Edge 45, Type (0, 0), BuildingBlock: UVAHIK_clean_linker_0, # of connection points: 2
#     Edge 46, Type (0, 0), BuildingBlock: UVAHIK_clean_linker_0, # of connection points: 2
#     Edge 47, Type (0, 0), BuildingBlock: UVAHIK_clean_linker_0, # of connection points: 2
#     Edge 48, Type (0, 0), BuildingBlock: UVAHIK_clean_linker_0, # of connection points: 2
#     Edge 49, Type (0, 0), BuildingBlock: UVAHIK_clean_linker_0, # of connection points: 2
#     Edge 50, Type (0, 0), BuildingBlock: UVAHIK_clean_linker_0, # of connection points: 2
#     Edge 51, Type (0, 0), BuildingBlock: UVAHIK_clean_linker_0, # of connection points: 2
#     Edge 52, Type (0, 0), BuildingBlock: UVAHIK_clean_linker_0, # of connection points: 2
#     Edge 53, Type (0, 0), BuildingBlock: UVAHIK_clean_linker_0, # of connection points: 2
#     Edge 54, Type (0, 0), BuildingBlock: UVAHIK_clean_linker_0, # of connection points: 2
#     Edge 55, Type (0, 0), BuildingBlock: UVAHIK_clean_linker_0, # of connection points: 2
#     Edge 56, Type (0, 0), BuildingBlock: UVAHIK_clean_linker_0, # of connection points: 2
#     Edge 57, Type (0, 0), BuildingBlock: UVAHIK_clean_linker_0, # of connection points: 2
#     Edge 58, Type (0, 0), BuildingBlock: UVAHIK_clean_linker_0, # of connection points: 2
#     Edge 59, Type (0, 0), BuildingBlock: UVAHIK_clean_linker_0, # of connection points: 2
#     Edge 60, Type (0, 0), BuildingBlock: UVAHIK_clean_linker_0, # of connection points: 2
#     Edge 61, Type (0, 0), BuildingBlock: UVAHIK_clean_linker_0, # of connection points: 2
#     Edge 62, Type (0, 0), BuildingBlock: UVAHIK_clean_linker_0, # of connection points: 2
#     Edge 63, Type (0, 0), BuildingBlock: UVAHIK_clean_linker_0, # of connection points: 2
#     Edge 64, Type (0, 0), BuildingBlock: UVAHIK_clean_linker_0, # of connection points: 2
#     Edge 65, Type (0, 0), BuildingBlock: UVAHIK_clean_linker_0, # of connection points: 2
#     Edge 66, Type (0, 0), BuildingBlock: UVAHIK_clean_linker_0, # of connection points: 2
#     Edge 67, Type (0, 0), BuildingBlock: UVAHIK_clean_linker_0, # of connection points: 2
#     Edge 68, Type (0, 0), BuildingBlock: UVAHIK_clean_linker_0, # of connection points: 2
#     Edge 69, Type (0, 0), BuildingBlock: UVAHIK_clean_linker_0, # of connection points: 2
#     Edge 70, Type (0, 0), BuildingBlock: UVAHIK_clean_linker_0, # of connection points: 2
#     Edge 71, Type (0, 0), BuildingBlock: UVAHIK_clean_linker_0, # of connection points: 2
# Relax obj value: 0.235
# Max RMSD: 0.214
# Mean RMSD: 0.214
data_MOF--net-hbo--node1-QUQFOY_clean_sbu_1--edge1-UVAHIK_clean_linker_0
_symmetry_space_group_name_H-M    P1
_symmetry_Int_Tables_number       1
_symmetry_cell_setting            triclinic
loop_
_symmetry_equiv_pos_as_xyz
'x, y, z'
_cell_length_a     70.135329
_cell_length_b     70.131042
_cell_length_c     70.090781
_cell_angle_alpha  89.991325
_cell_angle_beta   90.018604
_cell_angle_gamma 90.02518
loop_
_atom_site_label
_atom_site_type_symbol
_atom_site_fract_x
_atom_site_fract_y
_atom_site_fract_z
_atom_type_partial_charge
O0 O 0.13355 0.32733 0.25957 0.0
Cd1 Cd 0.13064 0.34659 0.23747 0.0
Cd2 Cd 0.15535 0.36671 0.25817 0.0
O3 O 0.15297 0.34455 0.2773 0.0
O4 O 0.10758 0.33821 0.22331 0.0
O5 O 0.10946 0.36583 0.23844 0.0
C6 C 0.09961 0.35397 0.22836 0.0
C7 C 0.14896 0.39769 0.26785 0.0
C8 C 0.14331 0.32944 0.27471 0.0
C9 C 0.16846 0.35502 0.21935 0.0
O10 O 0.17301 0.36304 0.23496 0.0
O11 O 0.15193 0.34791 0.21724 0.0
O12 O 0.1647 0.38934 0.27243 0.0
O13 O 0.13663 0.38821 0.25795 0.0
O14 O 0.13076 0.67005 0.73004 0.0
Cd15 Cd 0.12843 0.6548 0.75503 0.0
Cd16 Cd 0.15224 0.63065 0.73815 0.0
O17 O 0.15262 0.6514 0.71728 0.0
O18 O 0.10506 0.66387 0.76814 0.0
O19 O 0.10847 0.63447 0.75708 0.0
C20 C 0.09805 0.64706 0.76556 0.0
C21 C 0.14621 0.59929 0.72934 0.0
C22 C 0.14223 0.66622 0.71656 0.0
C23 C 0.16526 0.647 0.7752 0.0
O24 O 0.16859 0.63485 0.76219 0.0
O25 O 0.1502 0.65704 0.77473 0.0
O26 O 0.16239 0.60729 0.72582 0.0
O27 O 0.13322 0.60928 0.73773 0.0
O28 O 0.82896 0.63302 0.23053 0.0
Cd29 Cd 0.84894 0.63124 0.25213 0.0
Cd30 Cd 0.86838 0.65395 0.22828 0.0
O31 O 0.84563 0.6502 0.21014 0.0
O32 O 0.84008 0.60974 0.26852 0.0
O33 O 0.86718 0.60919 0.25245 0.0
C34 C 0.85529 0.60068 0.26361 0.0
C35 C 0.89877 0.64375 0.22026 0.0
C36 C 0.83048 0.64123 0.21443 0.0
C37 C 0.85848 0.67065 0.26614 0.0
O38 O 0.86547 0.67383 0.24972 0.0
O39 O 0.85183 0.65428 0.27023 0.0
O40 O 0.89202 0.65953 0.21354 0.0
O41 O 0.88797 0.63364 0.23123 0.0
O42 O 0.82519 0.36462 0.75873 0.0
Cd43 Cd 0.84523 0.3669 0.73732 0.0
Cd44 Cd 0.86618 0.34602 0.76105 0.0
O45 O 0.84323 0.349 0.77919 0.0
O46 O 0.83749 0.38901 0.72128 0.0
O47 O 0.86417 0.38828 0.73815 0.0
C48 C 0.85287 0.39743 0.72685 0.0
C49 C 0.89691 0.35371 0.77089 0.0
C50 C 0.82743 0.35679 0.77493 0.0
C51 C 0.85599 0.32808 0.72357 0.0
O52 O 0.86382 0.32587 0.73977 0.0
O53 O 0.84819 0.34387 0.7193 0.0
O54 O 0.88855 0.33841 0.77678 0.0
O55 O 0.88751 0.36499 0.75978 0.0
O56 O 0.23489 0.17034 0.36582 0.0
Cd57 Cd 0.25706 0.15103 0.36828 0.0
Cd58 Cd 0.23345 0.12947 0.34722 0.0
O59 O 0.21433 0.15122 0.35163 0.0
O60 O 0.2723 0.15842 0.39122 0.0
O61 O 0.25611 0.13143 0.38894 0.0
C62 C 0.26683 0.1426 0.39888 0.0
C63 C 0.22572 0.09819 0.35508 0.0
C64 C 0.21837 0.16731 0.35894 0.0
C65 C 0.27049 0.1413 0.32916 0.0
O66 O 0.25412 0.13386 0.32678 0.0
O67 O 0.27523 0.14812 0.34528 0.0
O68 O 0.21906 0.10604 0.33981 0.0
O69 O 0.2365 0.10832 0.36603 0.0
O70 O 0.364 0.76226 0.82591 0.0
Cd71 Cd 0.36717 0.73924 0.84383 0.0
Cd72 Cd 0.34621 0.76046 0.86782 0.0
O73 O 0.34697 0.77984 0.84565 0.0
O74 O 0.39006 0.72471 0.83528 0.0
O75 O 0.38791 0.73907 0.86332 0.0
C76 C 0.39777 0.7291 0.85142 0.0
C77 C 0.35567 0.76993 0.8982 0.0
C78 C 0.35497 0.77754 0.82953 0.0
C79 C 0.32957 0.72296 0.85549 0.0
O80 O 0.32744 0.73782 0.86565 0.0
O81 O 0.3446 0.72064 0.84564 0.0
O82 O 0.33927 0.77477 0.89141 0.0
O83 O 0.36681 0.75988 0.88756 0.0
O84 O 0.75896 0.82401 0.36447 0.0
Cd85 Cd 0.73569 0.84139 0.36851 0.0
Cd86 Cd 0.75436 0.86515 0.3455 0.0
O87 O 0.77425 0.84341 0.34504 0.0
O88 O 0.72267 0.83217 0.39193 0.0
O89 O 0.73604 0.86069 0.38961 0.0
C90 C 0.72697 0.84826 0.39975 0.0
C91 C 0.76443 0.89603 0.35223 0.0
C92 C 0.77324 0.82765 0.35393 0.0
C93 C 0.71622 0.85154 0.33194 0.0
O94 O 0.73045 0.86224 0.32857 0.0
O95 O 0.71547 0.84179 0.3472 0.0
O96 O 0.76795 0.88813 0.336 0.0
O97 O 0.75533 0.8862 0.36488 0.0
O98 O 0.62961 0.22728 0.82887 0.0
Cd99 Cd 0.62831 0.25106 0.84627 0.0
Cd100 Cd 0.6528 0.23089 0.86757 0.0
O101 O 0.65036 0.21109 0.84612 0.0
O102 O 0.60517 0.26543 0.83822 0.0
O103 O 0.60842 0.25235 0.86676 0.0
C104 C 0.59813 0.26189 0.85484 0.0
C105 C 0.6457 0.22246 0.89878 0.0
C106 C 0.63983 0.21253 0.83145 0.0
C107 C 0.66696 0.26842 0.85339 0.0
O108 O 0.67083 0.25357 0.86302 0.0
O109 O 0.65067 0.27029 0.84562 0.0
O110 O 0.66153 0.21734 0.89092 0.0
O111 O 0.63376 0.23222 0.88872 0.0
O112 O 0.25412 0.86453 0.66975 0.0
Cd113 Cd 0.23234 0.86692 0.65021 0.0
Cd114 Cd 0.25539 0.84507 0.62871 0.0
O115 O 0.27302 0.84647 0.65228 0.0
O116 O 0.21725 0.88987 0.65747 0.0
O117 O 0.23342 0.88742 0.63046 0.0
C118 C 0.22275 0.89744 0.64161 0.0
C119 C 0.26684 0.85403 0.59891 0.0
C120 C 0.26959 0.85532 0.66773 0.0
C121 C 0.21684 0.82905 0.63828 0.0
O122 O 0.23248 0.82657 0.62945 0.0
O123 O 0.21386 0.8443 0.6476 0.0
O124 O 0.27124 0.83775 0.60627 0.0
O125 O 0.25618 0.86537 0.60872 0.0
O126 O 0.66928 0.73555 0.13064 0.0
Cd127 Cd 0.651 0.75834 0.12836 0.0
Cd128 Cd 0.62787 0.73693 0.15001 0.0
O129 O 0.65013 0.71773 0.14808 0.0
O130 O 0.6579 0.77271 0.10485 0.0
O131 O 0.63036 0.75773 0.10877 0.0
C132 C 0.64151 0.76777 0.09808 0.0
C133 C 0.59715 0.72638 0.14317 0.0
C134 C 0.66594 0.72012 0.13954 0.0
C135 C 0.64049 0.77463 0.1662 0.0
O136 O 0.6305 0.75968 0.16862 0.0
O137 O 0.64995 0.77701 0.15093 0.0
O138 O 0.60547 0.72193 0.15896 0.0
O139 O 0.60643 0.73672 0.1311 0.0
O140 O 0.72707 0.13127 0.66752 0.0
Cd141 Cd 0.75069 0.13004 0.6499 0.0
Cd142 Cd 0.73058 0.15496 0.6291 0.0
O143 O 0.71093 0.15238 0.65067 0.0
O144 O 0.76497 0.10671 0.65754 0.0
O145 O 0.75166 0.1104 0.62916 0.0
C146 C 0.76124 0.09991 0.64086 0.0
C147 C 0.72192 0.14809 0.59791 0.0
C148 C 0.71239 0.14163 0.66518 0.0
C149 C 0.76833 0.16861 0.64315 0.0
O150 O 0.75344 0.17275 0.63368 0.0
O151 O 0.7701 0.15223 0.65071 0.0
O152 O 0.71694 0.16392 0.60588 0.0
O153 O 0.73169 0.13605 0.60784 0.0
O154 O 0.32547 0.25828 0.12894 0.0
Cd155 Cd 0.34557 0.23667 0.12808 0.0
Cd156 Cd 0.36534 0.26166 0.14954 0.0
O157 O 0.34274 0.27954 0.14443 0.0
O158 O 0.33929 0.22043 0.10549 0.0
O159 O 0.36574 0.23745 0.10796 0.0
C160 C 0.35514 0.22612 0.09807 0.0
C161 C 0.39618 0.27083 0.14162 0.0
C162 C 0.32736 0.27486 0.13606 0.0
C163 C 0.35463 0.22449 0.16793 0.0
O164 O 0.3616 0.24108 0.17017 0.0
O165 O 0.34822 0.2193 0.15177 0.0
O166 O 0.388 0.27731 0.15679 0.0
O167 O 0.38665 0.25933 0.13087 0.0
O168 O 0.86356 0.66886 0.74118 0.0
Cd169 Cd 0.8661 0.64778 0.76159 0.0
Cd170 Cd 0.8436 0.62875 0.7376 0.0
O171 O 0.84677 0.65232 0.72037 0.0
O172 O 0.88828 0.65543 0.77754 0.0
O173 O 0.88787 0.62933 0.75982 0.0
C174 C 0.89695 0.64046 0.77133 0.0
C175 C 0.85171 0.59857 0.72672 0.0
C176 C 0.85527 0.66761 0.72509 0.0
C177 C 0.82753 0.63682 0.77626 0.0
O178 O 0.8242 0.63041 0.75963 0.0
O179 O 0.84377 0.64379 0.78028 0.0
O180 O 0.83616 0.60677 0.72127 0.0
O181 O 0.8629 0.60779 0.73808 0.0
O182 O 0.86323 0.32844 0.26345 0.0
Cd183 Cd 0.86667 0.3448 0.23931 0.0
Cd184 Cd 0.84267 0.36848 0.25665 0.0
O185 O 0.84143 0.34687 0.27662 0.0
O186 O 0.89015 0.3355 0.22649 0.0
O187 O 0.88734 0.36454 0.23859 0.0
C188 C 0.89763 0.35195 0.22995 0.0
C189 C 0.84979 0.3993 0.26647 0.0
C190 C 0.85148 0.3318 0.27682 0.0
C191 C 0.83033 0.35387 0.21868 0.0
O192 O 0.82672 0.3654 0.23218 0.0
O193 O 0.84539 0.34382 0.21898 0.0
O194 O 0.83327 0.39185 0.26961 0.0
O195 O 0.86247 0.38904 0.25792 0.0
O196 O 0.17142 0.3607 0.76031 0.0
Cd197 Cd 0.1544 0.36536 0.73691 0.0
Cd198 Cd 0.12965 0.34297 0.75508 0.0
O199 O 0.15102 0.34221 0.77545 0.0
O200 O 0.16402 0.38879 0.72427 0.0
O201 O 0.13536 0.38661 0.7374 0.0
C202 C 0.14797 0.3967 0.72852 0.0
C203 C 0.09876 0.35013 0.76481 0.0
C204 C 0.16712 0.3505 0.77466 0.0
C205 C 0.14338 0.3295 0.71686 0.0
O206 O 0.13248 0.32622 0.73097 0.0
O207 O 0.1536 0.34445 0.71642 0.0
O208 O 0.10634 0.33375 0.76831 0.0
O209 O 0.10889 0.36266 0.7559 0.0
O210 O 0.17121 0.63472 0.23541 0.0
Cd211 Cd 0.15352 0.63093 0.25859 0.0
Cd212 Cd 0.12908 0.6514 0.23781 0.0
O213 O 0.15051 0.65043 0.21773 0.0
O214 O 0.16322 0.60843 0.27291 0.0
O215 O 0.13511 0.60913 0.25854 0.0
C216 C 0.14759 0.59984 0.2684 0.0
C217 C 0.09843 0.6423 0.22895 0.0
C218 C 0.16693 0.64309 0.2199 0.0
C219 C 0.14165 0.66836 0.2751 0.0
O220 O 0.13188 0.67059 0.25998 0.0
O221 O 0.15115 0.65314 0.27766 0.0
O222 O 0.10541 0.65855 0.22387 0.0
O223 O 0.109 0.63109 0.23902 0.0
O224 O 0.76266 0.82866 0.63723 0.0
Cd225 Cd 0.73984 0.84683 0.63348 0.0
Cd226 Cd 0.76133 0.87034 0.6544 0.0
O227 O 0.78105 0.84861 0.65313 0.0
O228 O 0.72517 0.83693 0.61121 0.0
O229 O 0.73984 0.86487 0.61132 0.0
C230 C 0.72979 0.85236 0.60231 0.0
C231 C 0.76943 0.90083 0.64426 0.0
C232 C 0.77831 0.83234 0.64562 0.0
C233 C 0.72393 0.85837 0.67135 0.0
O234 O 0.73936 0.86757 0.67378 0.0
O235 O 0.72095 0.84945 0.65584 0.0
O236 O 0.7751 0.89442 0.66057 0.0
O237 O 0.75937 0.88971 0.63359 0.0
O238 O 0.62899 0.23969 0.17347 0.0
Cd239 Cd 0.62657 0.26243 0.15511 0.0
Cd240 Cd 0.64688 0.24072 0.13118 0.0
O241 O 0.64485 0.22145 0.15339 0.0
O242 O 0.60322 0.27702 0.16187 0.0
O243 O 0.60697 0.26157 0.13453 0.0
C244 C 0.59639 0.27187 0.14555 0.0
C245 C 0.64063 0.22986 0.1004 0.0
C246 C 0.63716 0.224 0.16961 0.0
C247 C 0.6643 0.27801 0.14356 0.0
O248 O 0.66608 0.26297 0.13359 0.0
O249 O 0.64933 0.28078 0.15338 0.0
O250 O 0.65614 0.22537 0.10918 0.0
O251 O 0.62843 0.2404 0.10925 0.0
O252 O 0.23337 0.16818 0.63151 0.0
Cd253 Cd 0.2564 0.14973 0.63 0.0
Cd254 Cd 0.23422 0.1287 0.65326 0.0
O255 O 0.2151 0.15055 0.65012 0.0
O256 O 0.27132 0.1575 0.60702 0.0
O257 O 0.25666 0.12969 0.60967 0.0
C258 C 0.26676 0.1413 0.59957 0.0
C259 C 0.22569 0.09782 0.64497 0.0
C260 C 0.21785 0.16568 0.64055 0.0
C261 C 0.27172 0.14137 0.66917 0.0
O262 O 0.25601 0.13293 0.6724 0.0
O263 O 0.27512 0.1486 0.65287 0.0
O264 O 0.22006 0.10525 0.66085 0.0
O265 O 0.23608 0.1081 0.63377 0.0
O266 O 0.36472 0.75726 0.16806 0.0
Cd267 Cd 0.36616 0.73584 0.14795 0.0
Cd268 Cd 0.34554 0.76068 0.12739 0.0
O269 O 0.34858 0.77808 0.15087 0.0
O270 O 0.38761 0.71898 0.15592 0.0
O271 O 0.38773 0.73586 0.12925 0.0
C272 C 0.39638 0.72429 0.14064 0.0
C273 C 0.35573 0.77069 0.09751 0.0
C274 C 0.35692 0.77353 0.16632 0.0
C275 C 0.32705 0.72317 0.13628 0.0
O276 O 0.32519 0.73948 0.12859 0.0
O277 O 0.34258 0.71864 0.14447 0.0
O278 O 0.33989 0.77677 0.10465 0.0
O279 O 0.36594 0.75918 0.10761 0.0
O280 O 0.7365 0.13051 0.32452 0.0
Cd281 Cd 0.75884 0.12834 0.34344 0.0
Cd282 Cd 0.73692 0.15002 0.36561 0.0
O283 O 0.71817 0.14812 0.34299 0.0
O284 O 0.77388 0.10566 0.33558 0.0
O285 O 0.75837 0.10755 0.36304 0.0
C286 C 0.76881 0.09778 0.35143 0.0
C287 C 0.72609 0.14326 0.3962 0.0
C288 C 0.721 0.13944 0.32732 0.0
C289 C 0.77465 0.16645 0.35406 0.0
O290 O 0.75936 0.16894 0.36344 0.0
O291 O 0.77744 0.15101 0.34499 0.0
O292 O 0.72151 0.15889 0.38766 0.0
O293 O 0.73665 0.1312 0.38715 0.0
O294 O 0.32797 0.258 0.86641 0.0
Cd295 Cd 0.34901 0.23734 0.86764 0.0
Cd296 Cd 0.36767 0.26351 0.84653 0.0
O297 O 0.34438 0.2805 0.85174 0.0
O298 O 0.34251 0.22051 0.88977 0.0
O299 O 0.36841 0.23845 0.88852 0.0
C300 C 0.35788 0.22662 0.89786 0.0
C301 C 0.39827 0.27249 0.85549 0.0
C302 C 0.32909 0.27481 0.85965 0.0
C303 C 0.35872 0.22613 0.82767 0.0
O304 O 0.36463 0.24314 0.82558 0.0
O305 O 0.35284 0.22034 0.84384 0.0
O306 O 0.39047 0.27946 0.84032 0.0
O307 O 0.38843 0.26077 0.8657 0.0
O308 O 0.26576 0.86241 0.32771 0.0
Cd309 Cd 0.24314 0.86602 0.34621 0.0
Cd310 Cd 0.26427 0.84322 0.36865 0.0
O311 O 0.28376 0.84503 0.34678 0.0
O312 O 0.22909 0.88928 0.33774 0.0
O313 O 0.24388 0.88698 0.36553 0.0
C314 C 0.23394 0.89701 0.35373 0.0
C315 C 0.27294 0.85212 0.39939 0.0
C316 C 0.28117 0.8534 0.3309 0.0
C317 C 0.22608 0.82823 0.3565 0.0
O318 O 0.24158 0.82477 0.36526 0.0
O319 O 0.22356 0.84421 0.34833 0.0
O320 O 0.27805 0.83586 0.39244 0.0
O321 O 0.26307 0.86339 0.3887 0.0
O322 O 0.66826 0.7299 0.86598 0.0
Cd323 Cd 0.64981 0.75278 0.86798 0.0
Cd324 Cd 0.62931 0.73169 0.84332 0.0
O325 O 0.65118 0.71238 0.84619 0.0
O326 O 0.65741 0.7671 0.89137 0.0
O327 O 0.62948 0.75284 0.88805 0.0
C328 C 0.64101 0.76271 0.89844 0.0
C329 C 0.59831 0.72314 0.85109 0.0
C330 C 0.66607 0.71475 0.85626 0.0
C331 C 0.64217 0.76997 0.82946 0.0
O332 O 0.63352 0.75457 0.82535 0.0
O333 O 0.64942 0.77228 0.84593 0.0
O334 O 0.60578 0.71802 0.83506 0.0
O335 O 0.60865 0.73291 0.86278 0.0
C336 C 0.12941 0.56922 0.26559 0.0
C337 C 0.14464 0.5796 0.27345 0.0
C338 C 0.12795 0.54957 0.26866 0.0
C339 C 0.15885 0.50874 0.27924 0.0
H340 H 0.11126 0.48101 0.28421 0.0
C341 C 0.15869 0.42742 0.28485 0.0
C342 C 0.14572 0.41786 0.27294 0.0
C343 C 0.15692 0.44696 0.28808 0.0
C344 C 0.12464 0.48858 0.28276 0.0
H345 H 0.16957 0.57782 0.29169 0.0
H346 H 0.16685 0.54367 0.29729 0.0
H347 H 0.11103 0.5159 0.28437 0.0
H348 H 0.12015 0.4211 0.25583 0.0
H349 H 0.11724 0.45536 0.26121 0.0
H350 H 0.17246 0.48162 0.27717 0.0
C351 C 0.15628 0.55058 0.28838 0.0
C352 C 0.12451 0.50853 0.28285 0.0
C353 C 0.1578 0.57017 0.28524 0.0
C354 C 0.1304 0.42808 0.26505 0.0
C355 C 0.12867 0.4477 0.26821 0.0
C356 C 0.15897 0.48888 0.27915 0.0
C357 C 0.14165 0.53996 0.27971 0.0
C358 C 0.14162 0.51883 0.28094 0.0
C359 C 0.14219 0.45742 0.27939 0.0
C360 C 0.14188 0.47854 0.28077 0.0
H361 H 0.11902 0.5761 0.25646 0.0
H362 H 0.11658 0.54179 0.26166 0.0
H363 H 0.17224 0.5162 0.27731 0.0
H364 H 0.17053 0.4199 0.29133 0.0
H365 H 0.16734 0.45397 0.29708 0.0
C366 C 0.92647 0.64912 0.78923 0.0
C367 C 0.91713 0.63703 0.77627 0.0
C368 C 0.94609 0.64766 0.79205 0.0
C369 C 0.9888 0.61785 0.78335 0.0
H370 H 0.01392 0.66692 0.77905 0.0
C371 C 0.06852 0.62706 0.76378 0.0
C372 C 0.07829 0.6428 0.77139 0.0
C373 C 0.04911 0.62446 0.76759 0.0
C374 C 0.00721 0.6531 0.78069 0.0
H375 H 0.92082 0.61312 0.75699 0.0
H376 H 0.95523 0.61072 0.76175 0.0
H377 H 0.97943 0.66548 0.78036 0.0
H378 H 0.07588 0.66735 0.79004 0.0
H379 H 0.04227 0.66253 0.79711 0.0
H380 H 0.01675 0.60549 0.78335 0.0
C381 C 0.94733 0.62124 0.76982 0.0
C382 C 0.98739 0.65229 0.78141 0.0
C383 C 0.92764 0.62269 0.76702 0.0
C384 C 0.06863 0.65524 0.78374 0.0
C385 C 0.04935 0.65252 0.78771 0.0
C386 C 0.00873 0.61866 0.78272 0.0
C387 C 0.95682 0.6341 0.78193 0.0
C388 C 0.97794 0.63467 0.7826 0.0
C389 C 0.0392 0.63746 0.77922 0.0
C390 C 0.01815 0.63632 0.78122 0.0
H391 H 0.91874 0.66017 0.79675 0.0
H392 H 0.95298 0.65753 0.80174 0.0
H393 H 0.98188 0.60407 0.78438 0.0
H394 H 0.07562 0.61723 0.75422 0.0
H395 H 0.04172 0.61278 0.76069 0.0
C396 C 0.86943 0.42905 0.26411 0.0
C397 C 0.8536 0.41935 0.27164 0.0
C398 C 0.87167 0.44862 0.26722 0.0
C399 C 0.84221 0.49067 0.27748 0.0
H400 H 0.89082 0.51661 0.28225 0.0
C401 C 0.84532 0.57191 0.28208 0.0
C402 C 0.85826 0.58069 0.26956 0.0
C403 C 0.84659 0.55242 0.28586 0.0
C404 C 0.87716 0.50953 0.28089 0.0
H405 H 0.82844 0.42219 0.2894 0.0
H406 H 0.83258 0.45614 0.29518 0.0
H407 H 0.88972 0.48173 0.28266 0.0
H408 H 0.88337 0.57619 0.25207 0.0
H409 H 0.88542 0.54205 0.25847 0.0
H410 H 0.82963 0.51828 0.2753 0.0
C411 C 0.84298 0.44881 0.28643 0.0
C412 C 0.87652 0.48958 0.28111 0.0
C413 C 0.84065 0.42933 0.28319 0.0
C414 C 0.87314 0.56981 0.26173 0.0
C415 C 0.87438 0.55026 0.26548 0.0
C416 C 0.84283 0.51052 0.27732 0.0
C417 C 0.85819 0.45881 0.27802 0.0
C418 C 0.85903 0.47994 0.27923 0.0
C419 C 0.86079 0.54128 0.27716 0.0
C420 C 0.86031 0.52019 0.27885 0.0
H421 H 0.87965 0.42171 0.25516 0.0
H422 H 0.88347 0.4559 0.26042 0.0
H423 H 0.82854 0.48375 0.27555 0.0
H424 H 0.83381 0.57995 0.28851 0.0
H425 H 0.83612 0.54596 0.29521 0.0
C426 C 0.06913 0.34135 0.7824 0.0
C427 C 0.07875 0.35392 0.77015 0.0
C428 C 0.04972 0.34366 0.78603 0.0
C429 C 0.00867 0.37681 0.78078 0.0
H430 H 0.98001 0.32958 0.7784 0.0
C431 C 0.92731 0.37197 0.76643 0.0
C432 C 0.91713 0.35732 0.77558 0.0
C433 C 0.94704 0.37359 0.76886 0.0
C434 C 0.98778 0.34289 0.77945 0.0
H435 H 0.07582 0.37931 0.75274 0.0
H436 H 0.04172 0.3831 0.75868 0.0
H437 H 0.01452 0.32867 0.7769 0.0
H438 H 0.9194 0.33378 0.79554 0.0
H439 H 0.9537 0.33675 0.79993 0.0
H440 H 0.98163 0.391 0.78275 0.0
C441 C 0.04924 0.3716 0.76573 0.0
C442 C 0.00762 0.34237 0.7786 0.0
C443 C 0.06876 0.36938 0.76224 0.0
C444 C 0.92686 0.34508 0.7881 0.0
C445 C 0.94653 0.34672 0.79056 0.0
C446 C 0.98872 0.37733 0.78157 0.0
C447 C 0.03942 0.35848 0.77731 0.0
C448 C 0.01833 0.35931 0.77919 0.0
C449 C 0.95693 0.3606 0.78051 0.0
C450 C 0.97808 0.36035 0.78084 0.0
H451 H 0.07651 0.32945 0.78893 0.0
H452 H 0.0427 0.33357 0.79538 0.0
H453 H 0.01651 0.3901 0.78143 0.0
H454 H 0.9202 0.38166 0.75672 0.0
H455 H 0.95466 0.38438 0.76085 0.0
C456 C 0.15786 0.42713 0.713 0.0
C457 C 0.14465 0.41702 0.72414 0.0
C458 C 0.15597 0.44674 0.71043 0.0
C459 C 0.12325 0.48785 0.71586 0.0
H460 H 0.1705 0.51555 0.72352 0.0
C461 C 0.12761 0.56891 0.73231 0.0
C462 C 0.14318 0.57899 0.72472 0.0
C463 C 0.12612 0.54919 0.72966 0.0
C464 C 0.15721 0.50807 0.72101 0.0
H465 H 0.11855 0.41935 0.74056 0.0
H466 H 0.11543 0.45379 0.73634 0.0
H467 H 0.17082 0.48098 0.72339 0.0
H468 H 0.16866 0.57661 0.70734 0.0
H469 H 0.16587 0.5424 0.70245 0.0
H470 H 0.10964 0.51517 0.71384 0.0
C471 C 0.12714 0.44648 0.72944 0.0
C472 C 0.1574 0.48822 0.72094 0.0
C473 C 0.12898 0.42678 0.73193 0.0
C474 C 0.15664 0.5692 0.7136 0.0
C475 C 0.15509 0.54957 0.71086 0.0
C476 C 0.12306 0.50781 0.71592 0.0
C477 C 0.1409 0.45673 0.71905 0.0
C478 C 0.14045 0.47786 0.71837 0.0
C479 C 0.14013 0.53926 0.71931 0.0
C480 C 0.14007 0.51812 0.71851 0.0
H481 H 0.16996 0.41997 0.70659 0.0
H482 H 0.16658 0.45418 0.70201 0.0
H483 H 0.10997 0.48024 0.71374 0.0
H484 H 0.117 0.57609 0.74092 0.0
H485 H 0.11448 0.54163 0.73644 0.0
C486 C 0.93064 0.64975 0.20547 0.0
C487 C 0.91867 0.63802 0.21644 0.0
C488 C 0.94999 0.6455 0.20362 0.0
C489 C 0.98807 0.62155 0.22994 0.0
H490 H 0.01779 0.6337 0.18489 0.0
C491 C 0.07018 0.62052 0.23136 0.0
C492 C 0.07863 0.63712 0.22396 0.0
C493 C 0.05094 0.61658 0.22788 0.0
C494 C 0.00967 0.63022 0.19757 0.0
H495 H 0.91737 0.61203 0.2332 0.0
H496 H 0.95118 0.60454 0.22985 0.0
H497 H 0.98301 0.63382 0.18312 0.0
H498 H 0.07379 0.66215 0.20641 0.0
H499 H 0.04032 0.65538 0.2005 0.0
H500 H 0.01466 0.6186 0.24457 0.0
C501 C 0.94564 0.61718 0.22292 0.0
C502 C 0.98978 0.63029 0.19656 0.0
C503 C 0.92626 0.62144 0.22477 0.0
C504 C 0.06769 0.64927 0.21238 0.0
C505 C 0.04852 0.6453 0.20885 0.0
C506 C 0.00795 0.62145 0.23094 0.0
C507 C 0.9578 0.62941 0.21269 0.0
C508 C 0.97876 0.62648 0.21287 0.0
C509 C 0.03984 0.6291 0.21684 0.0
C510 C 0.01896 0.62631 0.21491 0.0
H511 H 0.92522 0.66261 0.19884 0.0
H512 H 0.95899 0.65534 0.19583 0.0
H513 H 0.98003 0.61878 0.24283 0.0
H514 H 0.07827 0.61082 0.24026 0.0
H515 H 0.04468 0.60389 0.23408 0.0
C516 C 0.84421 0.56938 0.70773 0.0
C517 C 0.85584 0.57869 0.72112 0.0
C518 C 0.84649 0.54994 0.70416 0.0
C519 C 0.87812 0.50815 0.71229 0.0
H520 H 0.83016 0.48064 0.71294 0.0
C521 C 0.87117 0.42791 0.73044 0.0
C522 C 0.8567 0.41741 0.72137 0.0
C523 C 0.87315 0.44745 0.72695 0.0
C524 C 0.8437 0.48806 0.71234 0.0
H525 H 0.8797 0.57518 0.7405 0.0
H526 H 0.88344 0.54112 0.73456 0.0
H527 H 0.82999 0.51519 0.71281 0.0
H528 H 0.83384 0.41883 0.70057 0.0
H529 H 0.83751 0.45276 0.69425 0.0
H530 H 0.89177 0.48079 0.71238 0.0
C531 C 0.8727 0.54888 0.72664 0.0
C532 C 0.8436 0.50792 0.71227 0.0
C533 C 0.87048 0.56839 0.73012 0.0
C534 C 0.84498 0.42657 0.70796 0.0
C535 C 0.84703 0.44604 0.7044 0.0
C536 C 0.87822 0.48819 0.71237 0.0
C537 C 0.86037 0.53934 0.71401 0.0
C538 C 0.86079 0.51823 0.71244 0.0
C539 C 0.86076 0.45682 0.71427 0.0
C540 C 0.86098 0.47793 0.7126 0.0
H541 H 0.83294 0.57698 0.70038 0.0
H542 H 0.83702 0.54309 0.69405 0.0
H543 H 0.8916 0.51568 0.71224 0.0
H544 H 0.88045 0.42124 0.74083 0.0
H545 H 0.88379 0.45535 0.73489 0.0
C546 C 0.92756 0.37123 0.23303 0.0
C547 C 0.91772 0.35574 0.22498 0.0
C548 C 0.94717 0.37336 0.23006 0.0
C549 C 0.98885 0.34369 0.21895 0.0
H550 H 0.01553 0.39196 0.21485 0.0
C551 C 0.06971 0.34529 0.2112 0.0
C552 C 0.07943 0.35764 0.22362 0.0
C553 C 0.05011 0.34714 0.20842 0.0
C554 C 0.00824 0.3784 0.21605 0.0
H555 H 0.92034 0.33115 0.20641 0.0
H556 H 0.95434 0.33511 0.20086 0.0
H557 H 0.9806 0.39146 0.2151 0.0
H558 H 0.07647 0.38231 0.24203 0.0
H559 H 0.04205 0.38535 0.23741 0.0
H560 H 0.01626 0.3306 0.22024 0.0
C561 C 0.9471 0.3453 0.20993 0.0
C562 C 0.98827 0.37811 0.2162 0.0
C563 C 0.9276 0.34307 0.21304 0.0
C564 C 0.06933 0.37254 0.23242 0.0
C565 C 0.04965 0.37435 0.2297 0.0
C566 C 0.00869 0.34398 0.21875 0.0
C567 C 0.95724 0.36011 0.21886 0.0
C568 C 0.97837 0.36072 0.21772 0.0
C569 C 0.03977 0.3613 0.2181 0.0
C570 C 0.01863 0.36131 0.21735 0.0
H571 H 0.9203 0.38124 0.24229 0.0
H572 H 0.95457 0.38486 0.23724 0.0
H573 H 0.98172 0.33009 0.22064 0.0
H574 H 0.07713 0.33382 0.204 0.0
H575 H 0.04296 0.33713 0.19908 0.0
C576 C 0.26562 0.11971 0.57113 0.0
C577 C 0.27193 0.13672 0.57965 0.0
C578 C 0.26865 0.11642 0.5517 0.0
C579 C 0.29537 0.13356 0.50918 0.0
H580 H 0.24996 0.11779 0.48185 0.0
C581 C 0.28209 0.15092 0.43006 0.0
C582 C 0.27179 0.1379 0.41883 0.0
C583 C 0.28507 0.14741 0.44944 0.0
C584 C 0.26292 0.12182 0.48923 0.0
H585 H 0.28719 0.16317 0.57471 0.0
H586 H 0.29227 0.15755 0.54084 0.0
H587 H 0.25007 0.11744 0.51651 0.0
H588 H 0.25742 0.11049 0.41889 0.0
H589 H 0.2628 0.10429 0.45272 0.0
H590 H 0.30798 0.13852 0.4818 0.0
C591 C 0.28515 0.14665 0.54916 0.0
C592 C 0.26298 0.12162 0.50914 0.0
C593 C 0.28211 0.14994 0.56856 0.0
C594 C 0.26528 0.12089 0.4272 0.0
C595 C 0.26829 0.11736 0.44659 0.0
C596 C 0.29532 0.13376 0.48924 0.0
C597 C 0.27807 0.13006 0.5404 0.0
C598 C 0.27905 0.1279 0.51935 0.0
C599 C 0.27785 0.13078 0.45803 0.0
C600 C 0.27893 0.1283 0.47905 0.0
H601 H 0.25784 0.10918 0.57932 0.0
H602 H 0.26326 0.10337 0.54542 0.0
H603 H 0.30808 0.1382 0.51665 0.0
H604 H 0.28731 0.16416 0.42404 0.0
H605 H 0.2923 0.15815 0.45787 0.0
C606 C 0.34874 0.78582 0.92935 0.0
C607 C 0.3611 0.77494 0.91794 0.0
C608 C 0.3529 0.78901 0.94855 0.0
C609 C 0.378 0.76626 0.98799 0.0
H610 H 0.36416 0.81243 0.01508 0.0
C611 C 0.3782 0.76842 0.06984 0.0
C612 C 0.36139 0.77581 0.07786 0.0
C613 C 0.38237 0.77146 0.05059 0.0
C614 C 0.36811 0.79944 0.00771 0.0
H615 H 0.388 0.75968 0.91747 0.0
H616 H 0.39527 0.76528 0.95108 0.0
H617 H 0.36396 0.81215 0.98023 0.0
H618 H 0.33632 0.79304 0.07227 0.0
H619 H 0.34342 0.79807 0.03871 0.0
H620 H 0.38137 0.75327 0.01534 0.0
C621 C 0.38227 0.77116 0.94518 0.0
C622 C 0.368 0.79929 0.98778 0.0
C623 C 0.37812 0.76802 0.92593 0.0
C624 C 0.34936 0.7871 0.06651 0.0
C625 C 0.35351 0.79011 0.04727 0.0
C626 C 0.37807 0.76639 0.0079 0.0
C627 C 0.3695 0.78136 0.95679 0.0
C628 C 0.37244 0.78254 0.97772 0.0
C629 C 0.36983 0.78194 0.03897 0.0
C630 C 0.37262 0.78283 0.01799 0.0
H631 H 0.33554 0.79141 0.9236 0.0
H632 H 0.34266 0.79672 0.95715 0.0
H633 H 0.38127 0.75304 0.98069 0.0
H634 H 0.38785 0.75979 0.07827 0.0
H635 H 0.3952 0.76521 0.04468 0.0
C636 C 0.71109 0.8388 0.43016 0.0
C637 C 0.7225 0.85178 0.42004 0.0
C638 C 0.70844 0.84084 0.44978 0.0
C639 C 0.71448 0.87382 0.49076 0.0
H640 H 0.72083 0.82666 0.51893 0.0
C641 C 0.73239 0.87017 0.57143 0.0
C642 C 0.72464 0.85503 0.58204 0.0
C643 C 0.72924 0.87137 0.55176 0.0
C644 C 0.71867 0.83993 0.51133 0.0
H645 H 0.73935 0.87761 0.42234 0.0
H646 H 0.73501 0.881 0.45675 0.0
H647 H 0.72046 0.82597 0.48435 0.0
H648 H 0.70654 0.82998 0.58062 0.0
H649 H 0.70082 0.83224 0.54643 0.0
H650 H 0.71314 0.88778 0.51795 0.0
C651 C 0.72793 0.86935 0.44947 0.0
C652 C 0.71846 0.83954 0.49146 0.0
C653 C 0.7305 0.86736 0.42978 0.0
C654 C 0.7129 0.84169 0.5728 0.0
C655 C 0.70969 0.84294 0.55319 0.0
C656 C 0.7147 0.87422 0.51073 0.0
C657 C 0.71725 0.85583 0.45975 0.0
C658 C 0.71645 0.85646 0.48091 0.0
C659 C 0.71824 0.85749 0.54236 0.0
C660 C 0.71689 0.85726 0.52122 0.0
H661 H 0.70453 0.82677 0.42303 0.0
H662 H 0.6998 0.83042 0.45721 0.0
H663 H 0.71275 0.88708 0.48303 0.0
H664 H 0.74148 0.88069 0.57816 0.0
H665 H 0.73613 0.88268 0.54381 0.0
C666 C 0.65018 0.21097 0.07181 0.0
C667 C 0.63757 0.22391 0.08043 0.0
C668 C 0.64877 0.20692 0.05239 0.0
C669 C 0.6182 0.21207 0.00945 0.0
H670 H 0.66693 0.21466 0.98347 0.0
C671 C 0.62656 0.22672 0.92862 0.0
C672 C 0.64186 0.21807 0.91902 0.0
C673 C 0.62424 0.22419 0.94827 0.0
C674 C 0.65322 0.21351 0.99047 0.0
H675 H 0.61294 0.24199 0.0757 0.0
H676 H 0.61069 0.2352 0.04161 0.0
H677 H 0.66594 0.21589 0.018 0.0
H678 H 0.66599 0.19898 0.92218 0.0
H679 H 0.66175 0.19429 0.95633 0.0
H680 H 0.6055 0.21015 0.98168 0.0
C681 C 0.62155 0.22801 0.04992 0.0
C682 C 0.65265 0.21423 0.01031 0.0
C683 C 0.6229 0.23199 0.06943 0.0
C684 C 0.6542 0.20604 0.92923 0.0
C685 C 0.65181 0.20342 0.94881 0.0
C686 C 0.61877 0.21133 0.9895 0.0
C687 C 0.6348 0.21582 0.04111 0.0
C688 C 0.63515 0.21367 0.02005 0.0
C689 C 0.63714 0.21287 0.95865 0.0
C690 C 0.6363 0.21221 0.9798 0.0
H691 H 0.66149 0.20431 0.07996 0.0
H692 H 0.65894 0.19716 0.04609 0.0
H693 H 0.60451 0.21145 0.01657 0.0
H694 H 0.61679 0.23605 0.92112 0.0
H695 H 0.61288 0.23179 0.95543 0.0
C696 C 0.28741 0.84448 0.43107 0.0
C697 C 0.27746 0.85728 0.41932 0.0
C698 C 0.29008 0.84849 0.4504 0.0
C699 C 0.26717 0.87486 0.48901 0.0
H700 H 0.31156 0.85873 0.51779 0.0
C701 C 0.26688 0.87617 0.57088 0.0
C702 C 0.27287 0.85902 0.57934 0.0
C703 C 0.27075 0.87985 0.55167 0.0
C704 C 0.29908 0.86333 0.50994 0.0
H705 H 0.26337 0.8848 0.41835 0.0
H706 H 0.26813 0.89184 0.45211 0.0
H707 H 0.31246 0.85825 0.48295 0.0
H708 H 0.2885 0.83275 0.57461 0.0
H709 H 0.295 0.83903 0.54112 0.0
H710 H 0.25351 0.87926 0.51588 0.0
C711 C 0.27363 0.87859 0.44642 0.0
C712 C 0.29959 0.86305 0.49001 0.0
C713 C 0.27097 0.87457 0.42708 0.0
C714 C 0.28363 0.84608 0.56849 0.0
C715 C 0.28749 0.84975 0.54931 0.0
C716 C 0.26666 0.87514 0.50891 0.0
C717 C 0.28286 0.8654 0.45838 0.0
C718 C 0.28346 0.86833 0.47934 0.0
C719 C 0.2807 0.86645 0.54056 0.0
C720 C 0.28242 0.8689 0.5196 0.0
H721 H 0.29264 0.83105 0.42551 0.0
H722 H 0.29705 0.83792 0.45925 0.0
H723 H 0.25441 0.87879 0.48124 0.0
H724 H 0.25869 0.88651 0.57892 0.0
H725 H 0.26556 0.89297 0.5454 0.0
C726 C 0.61899 0.76579 0.07041 0.0
C727 C 0.63617 0.7725 0.07824 0.0
C728 C 0.615 0.76845 0.05105 0.0
C729 C 0.63058 0.79453 0.00751 0.0
H730 H 0.61526 0.74815 0.98158 0.0
C731 C 0.64885 0.77866 0.92934 0.0
C732 C 0.63599 0.76809 0.91819 0.0
C733 C 0.64499 0.78228 0.94853 0.0
C734 C 0.61914 0.76136 0.98857 0.0
H735 H 0.66219 0.7881 0.07218 0.0
H736 H 0.65538 0.79249 0.03845 0.0
H737 H 0.61523 0.74919 0.01624 0.0
H738 H 0.60855 0.7538 0.91816 0.0
H739 H 0.60178 0.76017 0.95173 0.0
H740 H 0.6352 0.80641 0.97975 0.0
C741 C 0.64487 0.78536 0.04724 0.0
C742 C 0.61911 0.76197 0.00847 0.0
C743 C 0.64885 0.78271 0.06656 0.0
C744 C 0.61881 0.76188 0.92642 0.0
C745 C 0.61495 0.76547 0.94565 0.0
C746 C 0.63061 0.79392 0.98758 0.0
C747 C 0.62811 0.77787 0.03916 0.0
C748 C 0.62533 0.77838 0.01817 0.0
C749 C 0.62818 0.77539 0.957 0.0
C750 C 0.62539 0.77715 0.97791 0.0
H751 H 0.60886 0.75798 0.07908 0.0
H752 H 0.60185 0.76273 0.04529 0.0
H753 H 0.63514 0.80749 0.01458 0.0
H754 H 0.6622 0.78369 0.92341 0.0
H755 H 0.65559 0.78975 0.95692 0.0
C756 C 0.70524 0.15673 0.56764 0.0
C757 C 0.71735 0.14434 0.57769 0.0
C758 C 0.70235 0.15436 0.5481 0.0
C759 C 0.70954 0.1212 0.50735 0.0
H760 H 0.71351 0.16831 0.47866 0.0
C761 C 0.72868 0.12534 0.42702 0.0
C762 C 0.72034 0.13999 0.4162 0.0
C763 C 0.72505 0.12393 0.44659 0.0
C764 C 0.71201 0.15503 0.48641 0.0
H765 H 0.73522 0.11922 0.57536 0.0
H766 H 0.73052 0.11533 0.5411 0.0
H767 H 0.71299 0.16938 0.51321 0.0
H768 H 0.70059 0.16378 0.41704 0.0
H769 H 0.69404 0.16114 0.45102 0.0
H770 H 0.70913 0.10687 0.48032 0.0
C771 C 0.72305 0.12673 0.54836 0.0
C772 C 0.7117 0.15565 0.50627 0.0
C773 C 0.72584 0.12902 0.56797 0.0
C774 C 0.70744 0.15249 0.42505 0.0
C775 C 0.70374 0.15102 0.44453 0.0
C776 C 0.70989 0.12058 0.48739 0.0
C777 C 0.71163 0.13965 0.53813 0.0
C778 C 0.7106 0.13876 0.517 0.0
C779 C 0.71295 0.13712 0.45564 0.0
C780 C 0.71126 0.13751 0.47673 0.0
H781 H 0.6983 0.16854 0.57479 0.0
H782 H 0.69315 0.16432 0.5407 0.0
H783 H 0.70851 0.10795 0.51522 0.0
H784 H 0.73866 0.11548 0.42057 0.0
H785 H 0.73245 0.11313 0.45477 0.0
C786 C 0.3479 0.20998 0.06707 0.0
C787 C 0.36039 0.22087 0.07834 0.0
C788 C 0.35175 0.20694 0.04776 0.0
C789 C 0.37668 0.2301 0.00822 0.0
H790 H 0.36224 0.18446 0.98051 0.0
C791 C 0.37922 0.22832 0.92644 0.0
C792 C 0.36262 0.22126 0.9177 0.0
C793 C 0.38255 0.22516 0.94584 0.0
C794 C 0.36633 0.1973 0.98806 0.0
H795 H 0.38731 0.23613 0.07848 0.0
H796 H 0.3941 0.23067 0.0448 0.0
H797 H 0.36174 0.18437 0.01537 0.0
H798 H 0.337 0.20452 0.9222 0.0
H799 H 0.34265 0.19927 0.95606 0.0
H800 H 0.38062 0.24327 0.98104 0.0
C801 C 0.38117 0.22476 0.05082 0.0
C802 C 0.36604 0.19725 0.00801 0.0
C803 C 0.37731 0.22782 0.07014 0.0
C804 C 0.34991 0.21018 0.92852 0.0
C805 C 0.35322 0.20706 0.94792 0.0
C806 C 0.37695 0.23015 0.98832 0.0
C807 C 0.36819 0.2147 0.0393 0.0
C808 C 0.37082 0.21379 0.0183 0.0
C809 C 0.36934 0.21492 0.95691 0.0
C810 C 0.37138 0.2139 0.97799 0.0
H811 H 0.33476 0.20439 0.07297 0.0
H812 H 0.34136 0.19929 0.03926 0.0
H813 H 0.38015 0.24317 0.01567 0.0
H814 H 0.38938 0.23678 0.91844 0.0
H815 H 0.39526 0.23114 0.95227 0.0
C816 C 0.56511 0.2874 0.15259 0.0
C817 C 0.57662 0.27672 0.14015 0.0
C818 C 0.54584 0.29026 0.14854 0.0
C819 C 0.50676 0.26688 0.12335 0.0
H820 H 0.47878 0.31245 0.1374 0.0
C821 C 0.42496 0.26841 0.12068 0.0
C822 C 0.41619 0.27566 0.13718 0.0
C823 C 0.44437 0.27146 0.11742 0.0
C824 C 0.4864 0.29962 0.13342 0.0
H825 H 0.57721 0.26156 0.11317 0.0
H826 H 0.54352 0.26665 0.10606 0.0
H827 H 0.51361 0.31276 0.13796 0.0
H828 H 0.42067 0.29251 0.16275 0.0
H829 H 0.45456 0.29754 0.15722 0.0
H830 H 0.47968 0.25349 0.11949 0.0
C831 C 0.54937 0.27259 0.11908 0.0
C832 C 0.50633 0.29981 0.13373 0.0
C833 C 0.56868 0.26973 0.12312 0.0
C834 C 0.42702 0.2867 0.14992 0.0
C835 C 0.44644 0.28971 0.14667 0.0
C836 C 0.48687 0.26669 0.12306 0.0
C837 C 0.53765 0.28251 0.13196 0.0
C838 C 0.5167 0.28329 0.12912 0.0
C839 C 0.45542 0.28178 0.13059 0.0
C840 C 0.47645 0.28291 0.12852 0.0
H841 H 0.57082 0.29303 0.1658 0.0
H842 H 0.53717 0.29779 0.15887 0.0
H843 H 0.5143 0.25383 0.11999 0.0
H844 H 0.41696 0.25999 0.1105 0.0
H845 H 0.45082 0.26541 0.10475 0.0
C846 C 0.56671 0.70925 0.84215 0.0
C847 C 0.57819 0.71877 0.85553 0.0
C848 C 0.54725 0.70677 0.84551 0.0
C849 C 0.50816 0.72949 0.87143 0.0
H850 H 0.47939 0.68568 0.85376 0.0
C851 C 0.42626 0.7293 0.87294 0.0
C852 C 0.41764 0.72363 0.85575 0.0
C853 C 0.44557 0.72567 0.87623 0.0
C854 C 0.48724 0.69801 0.85876 0.0
H855 H 0.57849 0.73228 0.88338 0.0
H856 H 0.5445 0.72782 0.88929 0.0
H857 H 0.5142 0.6846 0.85374 0.0
H858 H 0.42227 0.70893 0.82892 0.0
H859 H 0.45596 0.70284 0.83454 0.0
H860 H 0.48131 0.74316 0.87587 0.0
C861 C 0.55051 0.72253 0.87608 0.0
C862 C 0.50715 0.69739 0.85875 0.0
C863 C 0.56998 0.72502 0.87272 0.0
C864 C 0.42851 0.71354 0.84228 0.0
C865 C 0.4478 0.70991 0.84557 0.0
C866 C 0.48828 0.7301 0.87146 0.0
C867 C 0.53885 0.71375 0.86232 0.0
C868 C 0.51783 0.7133 0.86467 0.0
C869 C 0.45664 0.71628 0.86241 0.0
C870 C 0.4776 0.71454 0.86471 0.0
H871 H 0.57262 0.70423 0.82879 0.0
H872 H 0.53864 0.70014 0.83452 0.0
H873 H 0.51593 0.7421 0.87583 0.0
H874 H 0.41823 0.73698 0.88367 0.0
H875 H 0.45192 0.73054 0.88945 0.0
C876 C 0.78208 0.92546 0.34289 0.0
C877 C 0.76987 0.91608 0.35569 0.0
C878 C 0.78567 0.94492 0.34479 0.0
C879 C 0.78038 0.98673 0.37698 0.0
H880 H 0.77706 0.01418 0.32906 0.0
C881 C 0.76504 0.06777 0.37048 0.0
C882 C 0.77375 0.07769 0.35539 0.0
C883 C 0.76774 0.04811 0.37251 0.0
C884 C 0.77839 0.00676 0.34256 0.0
H885 H 0.75256 0.9195 0.38108 0.0
H886 H 0.75847 0.95369 0.38416 0.0
H887 H 0.77601 0.97965 0.32901 0.0
H888 H 0.79321 0.07511 0.33148 0.0
H889 H 0.79812 0.04096 0.3352 0.0
H890 H 0.78219 0.01412 0.39049 0.0
C891 C 0.76549 0.94594 0.3728 0.0
C892 C 0.77779 0.98691 0.34253 0.0
C893 C 0.76202 0.92637 0.37098 0.0
C894 C 0.7861 0.06782 0.34311 0.0
C895 C 0.78886 0.04824 0.34518 0.0
C896 C 0.78093 0.00669 0.377 0.0
C897 C 0.77698 0.95552 0.35942 0.0
C898 C 0.77869 0.97663 0.35972 0.0
C899 C 0.77924 0.03806 0.35952 0.0
C900 C 0.77986 0.0169 0.35977 0.0
H901 H 0.78856 0.91786 0.3311 0.0
H902 H 0.79494 0.95177 0.3345 0.0
H903 H 0.78126 0.97921 0.39045 0.0
H904 H 0.75547 0.075 0.38021 0.0
H905 H 0.76006 0.04066 0.38365 0.0
C906 C 0.4299 0.28703 0.84767 0.0
C907 C 0.41831 0.27677 0.86038 0.0
C908 C 0.4494 0.28905 0.85118 0.0
C909 C 0.48806 0.26406 0.87598 0.0
H910 H 0.51793 0.30769 0.85977 0.0
C911 C 0.57002 0.26207 0.87689 0.0
C912 C 0.57851 0.26784 0.85968 0.0
C913 C 0.55085 0.26615 0.88054 0.0
C914 C 0.50976 0.29542 0.86438 0.0
H915 H 0.41782 0.26163 0.88738 0.0
H916 H 0.4518 0.26541 0.89365 0.0
H917 H 0.48315 0.30974 0.85999 0.0
H918 H 0.57386 0.28321 0.83322 0.0
H919 H 0.54048 0.29017 0.8395 0.0
H920 H 0.51456 0.24955 0.87983 0.0
C921 C 0.44591 0.27154 0.88076 0.0
C922 C 0.48986 0.29658 0.86449 0.0
C923 C 0.42642 0.26945 0.8772 0.0
C924 C 0.56772 0.2785 0.84659 0.0
C925 C 0.54861 0.28263 0.85026 0.0
C926 C 0.50792 0.26293 0.87592 0.0
C927 C 0.45772 0.28092 0.86754 0.0
C928 C 0.47878 0.28075 0.86985 0.0
C929 C 0.53985 0.27616 0.86709 0.0
C930 C 0.51898 0.27843 0.86968 0.0
H931 H 0.42408 0.29285 0.83459 0.0
H932 H 0.4581 0.29618 0.84059 0.0
H933 H 0.47999 0.2515 0.87991 0.0
H934 H 0.578 0.25392 0.88732 0.0
H935 H 0.54454 0.26116 0.89373 0.0
C936 C 0.21838 0.92784 0.34489 0.0
C937 C 0.22892 0.917 0.35804 0.0
C938 C 0.21493 0.94716 0.3482 0.0
C939 C 0.23585 0.98785 0.37314 0.0
H940 H 0.18912 0.01325 0.35802 0.0
C941 C 0.2295 0.06946 0.37593 0.0
C942 C 0.22199 0.0779 0.35936 0.0
C943 C 0.22762 0.04987 0.37901 0.0
C944 C 0.20227 0.00636 0.36228 0.0
H945 H 0.24342 0.91772 0.38539 0.0
H946 H 0.23732 0.95149 0.39119 0.0
H947 H 0.19073 0.97846 0.35761 0.0
H948 H 0.20589 0.07259 0.33347 0.0
H949 H 0.20288 0.03841 0.33868 0.0
H950 H 0.24764 0.01564 0.37719 0.0
C951 C 0.23193 0.94507 0.37821 0.0
C952 C 0.20318 0.98646 0.36205 0.0
C953 C 0.23535 0.92572 0.37491 0.0
C954 C 0.21186 0.06651 0.34636 0.0
C955 C 0.21002 0.04692 0.34942 0.0
C956 C 0.23495 0.00773 0.37334 0.0
C957 C 0.22196 0.95607 0.36473 0.0
C958 C 0.22012 0.97701 0.36711 0.0
C959 C 0.21822 0.03831 0.36557 0.0
C960 C 0.21828 0.01723 0.36753 0.0
H961 H 0.2132 0.92153 0.33177 0.0
H962 H 0.2074 0.95528 0.33743 0.0
H963 H 0.2492 0.98103 0.37687 0.0
H964 H 0.23725 0.07789 0.3863 0.0
H965 H 0.23384 0.04371 0.39174 0.0
C966 C 0.56687 0.72854 0.12436 0.0
C967 C 0.57725 0.72055 0.13953 0.0
C968 C 0.54745 0.72457 0.12224 0.0
C969 C 0.50648 0.71067 0.15163 0.0
H970 H 0.48004 0.70779 0.10311 0.0
C971 C 0.42525 0.70534 0.14937 0.0
C972 C 0.41627 0.71836 0.13708 0.0
C973 C 0.44472 0.70164 0.14764 0.0
C974 C 0.48725 0.70859 0.11675 0.0
H975 H 0.57576 0.70118 0.16362 0.0
H976 H 0.54203 0.694 0.15971 0.0
H977 H 0.51491 0.70843 0.10376 0.0
H978 H 0.42038 0.73686 0.11261 0.0
H979 H 0.45447 0.73066 0.10981 0.0
H980 H 0.479 0.71136 0.16464 0.0
C981 C 0.54874 0.70369 0.14973 0.0
C982 C 0.50719 0.70898 0.11713 0.0
C983 C 0.56809 0.70776 0.15193 0.0
C984 C 0.42692 0.72679 0.12234 0.0
C985 C 0.44644 0.72315 0.12066 0.0
C986 C 0.48662 0.71025 0.15125 0.0
C987 C 0.53807 0.71246 0.13519 0.0
C988 C 0.51702 0.71028 0.13458 0.0
C989 C 0.45565 0.71096 0.13365 0.0
C990 C 0.47676 0.70946 0.13382 0.0
H991 H 0.57356 0.73843 0.11455 0.0
H992 H 0.53962 0.73169 0.11098 0.0
H993 H 0.51354 0.71208 0.1653 0.0
H994 H 0.41738 0.69844 0.16073 0.0
H995 H 0.45134 0.69189 0.15763 0.0
C996 C 0.76625 0.92802 0.62129 0.0
C997 C 0.77352 0.92067 0.63848 0.0
C998 C 0.76851 0.94731 0.61681 0.0
C999 C 0.79453 0.99143 0.63073 0.0
H1000 H 0.74762 0.0166 0.61584 0.0
C1001 C 0.77786 0.06938 0.64852 0.0
C1002 C 0.76698 0.0803 0.63574 0.0
C1003 C 0.78175 0.05026 0.64467 0.0
C1004 C 0.76098 0.00981 0.61958 0.0
H1005 H 0.78963 0.92757 0.66399 0.0
H1006 H 0.79333 0.96116 0.65632 0.0
H1007 H 0.74898 0.98197 0.6165 0.0
H1008 H 0.75242 0.08003 0.60842 0.0
H1009 H 0.75923 0.04652 0.6017 0.0
H1010 H 0.80624 0.01938 0.63458 0.0
C1011 C 0.78608 0.95205 0.64618 0.0
C1012 C 0.76176 0.98993 0.61995 0.0
C1013 C 0.78382 0.93279 0.65066 0.0
C1014 C 0.76075 0.07194 0.61861 0.0
C1015 C 0.76459 0.05275 0.61479 0.0
C1016 C 0.79374 0.01133 0.63038 0.0
C1017 C 0.77811 0.95962 0.6294 0.0
C1018 C 0.77837 0.98052 0.62607 0.0
C1019 C 0.77481 0.04162 0.62797 0.0
C1020 C 0.77677 0.02072 0.62533 0.0
H1021 H 0.75835 0.919 0.61154 0.0
H1022 H 0.76241 0.95267 0.60366 0.0
H1023 H 0.80765 0.98459 0.63517 0.0
H1024 H 0.78292 0.07542 0.66182 0.0
H1025 H 0.78946 0.04203 0.65524 0.0
C1026 C 0.22781 0.06967 0.62313 0.0
C1027 C 0.22099 0.07788 0.64009 0.0
C1028 C 0.22466 0.05038 0.61927 0.0
C1029 C 0.19635 0.00814 0.63412 0.0
H1030 H 0.24156 0.98014 0.61904 0.0
C1031 C 0.20742 0.92852 0.64985 0.0
C1032 C 0.21798 0.91741 0.63696 0.0
C1033 C 0.20479 0.94797 0.64659 0.0
C1034 C 0.22866 0.98773 0.62284 0.0
H1035 H 0.20485 0.07252 0.66594 0.0
H1036 H 0.19958 0.03885 0.65935 0.0
H1037 H 0.2424 0.01476 0.6199 0.0
H1038 H 0.2331 0.91773 0.60996 0.0
H1039 H 0.22836 0.95171 0.6042 0.0
H1040 H 0.18284 0.98098 0.63767 0.0
C1041 C 0.20718 0.04733 0.64891 0.0
C1042 C 0.22915 0.0076 0.62335 0.0
C1043 C 0.21033 0.0666 0.65276 0.0
C1044 C 0.22503 0.92594 0.62025 0.0
C1045 C 0.22238 0.94542 0.61698 0.0
C1046 C 0.19586 0.98823 0.6336 0.0
C1047 C 0.21461 0.03892 0.6323 0.0
C1048 C 0.21315 0.01802 0.62942 0.0
C1049 C 0.21264 0.95673 0.63035 0.0
C1050 C 0.21216 0.97779 0.62838 0.0
H1051 H 0.23596 0.07803 0.613 0.0
H1052 H 0.23035 0.04436 0.60624 0.0
H1053 H 0.1837 0.01579 0.63856 0.0
H1054 H 0.20176 0.92235 0.66284 0.0
H1055 H 0.19739 0.9563 0.65729 0.0
C1056 C 0.15796 0.31425 0.30355 0.0
C1057 C 0.14449 0.31367 0.2887 0.0
C1058 C 0.16077 0.29839 0.31527 0.0
C1059 C 0.15601 0.24644 0.31301 0.0
H1060 H 0.17338 0.24903 0.36548 0.0
C1061 C 0.18651 0.18019 0.34919 0.0
C1062 C 0.20451 0.18316 0.35752 0.0
C1063 C 0.17473 0.19565 0.34481 0.0
C1064 C 0.1685 0.24808 0.35084 0.0
H1065 H 0.12245 0.29648 0.27542 0.0
H1066 H 0.12715 0.26893 0.29608 0.0
H1067 H 0.16039 0.27753 0.35015 0.0
H1068 H 0.22357 0.20459 0.36918 0.0
H1069 H 0.20319 0.2315 0.36128 0.0
H1070 H 0.16471 0.21729 0.31337 0.0
C1071 C 0.13585 0.28148 0.29837 0.0
C1072 C 0.16109 0.26439 0.34206 0.0
C1073 C 0.13312 0.2973 0.28657 0.0
C1074 C 0.20985 0.20179 0.36266 0.0
C1075 C 0.19808 0.21725 0.35824 0.0
C1076 C 0.16335 0.23017 0.32178 0.0
C1077 C 0.15011 0.28163 0.31248 0.0
C1078 C 0.15524 0.26387 0.32287 0.0
C1079 C 0.18071 0.21439 0.34864 0.0
C1080 C 0.17015 0.23091 0.34063 0.0
H1081 H 0.16694 0.32665 0.30562 0.0
H1082 H 0.17201 0.29895 0.32585 0.0
H1083 H 0.15195 0.24554 0.29813 0.0
H1084 H 0.18184 0.166 0.34526 0.0
H1085 H 0.16126 0.19296 0.33774 0.0
C1086 C 0.2988 0.7088 0.86697 0.0
C1087 C 0.31367 0.70926 0.85357 0.0
C1088 C 0.28263 0.69756 0.86374 0.0
C1089 C 0.24492 0.6857 0.84671 0.0
H1090 H 0.24606 0.64279 0.81197 0.0
C1091 C 0.18177 0.66871 0.79798 0.0
C1092 C 0.1797 0.65046 0.79009 0.0
C1093 C 0.19698 0.67276 0.81017 0.0
C1094 C 0.24527 0.65445 0.82203 0.0
H1095 H 0.32363 0.69777 0.82665 0.0
H1096 H 0.29532 0.6791 0.8205 0.0
H1097 H 0.2754 0.65391 0.82617 0.0
H1098 H 0.19097 0.62172 0.78982 0.0
H1099 H 0.21687 0.62839 0.81202 0.0
H1100 H 0.21469 0.68573 0.84322 0.0
C1101 C 0.29617 0.68677 0.83387 0.0
C1102 C 0.26228 0.66111 0.82993 0.0
C1103 C 0.31245 0.69765 0.83731 0.0
C1104 C 0.19242 0.636 0.79553 0.0
C1105 C 0.20736 0.6399 0.80815 0.0
C1106 C 0.22783 0.67871 0.83922 0.0
C1107 C 0.28082 0.68687 0.84682 0.0
C1108 C 0.26247 0.6774 0.84165 0.0
C1109 C 0.21024 0.65851 0.81516 0.0
C1110 C 0.22784 0.66355 0.82606 0.0
H1111 H 0.29946 0.71745 0.87976 0.0
H1112 H 0.27137 0.69767 0.87429 0.0
H1113 H 0.24432 0.69826 0.85565 0.0
H1114 H 0.17223 0.68017 0.79393 0.0
H1115 H 0.19877 0.68735 0.81486 0.0
C1116 C 0.8491 0.68301 0.29832 0.0
C1117 C 0.85646 0.68646 0.27998 0.0
C1118 C 0.8446 0.69817 0.31042 0.0
C1119 C 0.84923 0.75066 0.31717 0.0
H1120 H 0.79838 0.74569 0.33827 0.0
C1121 C 0.80117 0.81466 0.33584 0.0
C1122 C 0.78783 0.81275 0.35068 0.0
C1123 C 0.81305 0.79944 0.33092 0.0
C1124 C 0.81277 0.74725 0.3329 0.0
H1125 H 0.866 0.70852 0.26048 0.0
H1126 H 0.85782 0.73494 0.28144 0.0
H1127 H 0.81322 0.71848 0.32304 0.0
H1128 H 0.77757 0.79391 0.37299 0.0
H1129 H 0.79853 0.76752 0.36464 0.0
H1130 H 0.8484 0.77974 0.32653 0.0
C1131 C 0.85571 0.72053 0.28656 0.0
C1132 C 0.82131 0.73159 0.32413 0.0
C1133 C 0.86029 0.70536 0.27448 0.0
C1134 C 0.78751 0.79576 0.36131 0.0
C1135 C 0.79947 0.7806 0.35647 0.0
C1136 C 0.84067 0.76638 0.32599 0.0
C1137 C 0.84727 0.71712 0.30443 0.0
C1138 C 0.83947 0.73319 0.31582 0.0
C1139 C 0.81193 0.78203 0.34082 0.0
C1140 C 0.82218 0.76494 0.33362 0.0
H1141 H 0.84619 0.66862 0.30311 0.0
H1142 H 0.83845 0.69506 0.32425 0.0
H1143 H 0.86334 0.75228 0.3111 0.0
H1144 H 0.80182 0.82757 0.32738 0.0
H1145 H 0.82236 0.80101 0.3187 0.0
C1146 C 0.79347 0.36369 0.78354 0.0
C1147 C 0.81093 0.35491 0.78797 0.0
C1148 C 0.77706 0.35939 0.79398 0.0
C1149 C 0.744 0.33477 0.80625 0.0
H1150 H 0.74283 0.32169 0.85998 0.0
C1151 C 0.7005 0.28019 0.85708 0.0
C1152 C 0.68189 0.28301 0.85016 0.0
C1153 C 0.71511 0.29285 0.85226 0.0
C1154 C 0.74295 0.32529 0.84496 0.0
H1155 H 0.82511 0.33575 0.80772 0.0
H1156 H 0.79647 0.32799 0.82567 0.0
H1157 H 0.77085 0.33763 0.84672 0.0
H1158 H 0.66382 0.302 0.83371 0.0
H1159 H 0.68931 0.32417 0.82546 0.0
H1160 H 0.71648 0.3219 0.80426 0.0
C1161 C 0.79544 0.33836 0.81426 0.0
C1162 C 0.75898 0.33442 0.83736 0.0
C1163 C 0.81188 0.34273 0.80388 0.0
C1164 C 0.67803 0.2993 0.83912 0.0
C1165 C 0.69265 0.31197 0.83433 0.0
C1166 C 0.72801 0.32569 0.81382 0.0
C1167 C 0.77772 0.34614 0.80903 0.0
C1168 C 0.75985 0.33889 0.81782 0.0
C1169 C 0.71145 0.30863 0.84045 0.0
C1170 C 0.72745 0.32046 0.83317 0.0
H1171 H 0.79228 0.37333 0.77152 0.0
H1172 H 0.7637 0.36595 0.78984 0.0
H1173 H 0.74429 0.33767 0.79107 0.0
H1174 H 0.70397 0.26783 0.86566 0.0
H1175 H 0.72946 0.28973 0.85706 0.0
C1176 C 0.20266 0.79889 0.62537 0.0
C1177 C 0.20283 0.81337 0.63921 0.0
C1178 C 0.191 0.78287 0.62766 0.0
C1179 C 0.15343 0.76196 0.66 0.0
H1180 H 0.17815 0.7146 0.64611 0.0
C1181 C 0.12991 0.69231 0.69556 0.0
C1182 C 0.14476 0.68 0.70087 0.0
C1183 C 0.13313 0.70691 0.68236 0.0
C1184 C 0.17108 0.72767 0.65028 0.0
H1185 H 0.19042 0.82284 0.66588 0.0
H1186 H 0.17108 0.79471 0.6705 0.0
H1187 H 0.19073 0.74438 0.63424 0.0
H1188 H 0.17439 0.67278 0.6961 0.0
H1189 H 0.18043 0.69875 0.67423 0.0
H1190 H 0.13511 0.74549 0.67772 0.0
C1191 C 0.17925 0.79577 0.65746 0.0
C1192 C 0.1781 0.74487 0.64309 0.0
C1193 C 0.19053 0.81195 0.65492 0.0
C1194 C 0.16264 0.68201 0.69218 0.0
C1195 C 0.16603 0.69691 0.67943 0.0
C1196 C 0.14678 0.74483 0.66766 0.0
C1197 C 0.17962 0.78076 0.6441 0.0
C1198 C 0.16985 0.76235 0.64849 0.0
C1199 C 0.15145 0.70989 0.67466 0.0
C1200 C 0.15601 0.72748 0.66353 0.0
H1201 H 0.21184 0.79976 0.61298 0.0
H1202 H 0.19134 0.77192 0.61679 0.0
H1203 H 0.14617 0.775 0.66392 0.0
H1204 H 0.11589 0.69087 0.70188 0.0
H1205 H 0.12136 0.71617 0.67868 0.0
C1206 C 0.69945 0.70911 0.13399 0.0
C1207 C 0.68112 0.70555 0.14129 0.0
C1208 C 0.71448 0.69666 0.13794 0.0
C1209 C 0.72893 0.66357 0.17542 0.0
H1210 H 0.77256 0.65531 0.14247 0.0
C1211 C 0.7973 0.63131 0.2057 0.0
C1212 C 0.81386 0.64178 0.20142 0.0
C1213 C 0.78063 0.63402 0.19515 0.0
C1214 C 0.76047 0.65747 0.15183 0.0
H1215 H 0.6639 0.68535 0.15721 0.0
H1216 H 0.69011 0.66354 0.16391 0.0
H1217 H 0.74346 0.66932 0.12936 0.0
H1218 H 0.82625 0.66229 0.18185 0.0
H1219 H 0.79711 0.6673 0.16372 0.0
H1220 H 0.74603 0.65256 0.19805 0.0
C1221 C 0.69292 0.67617 0.15546 0.0
C1222 C 0.74381 0.66548 0.14432 0.0
C1223 C 0.67789 0.68864 0.15157 0.0
C1224 C 0.81373 0.65406 0.18558 0.0
C1225 C 0.79702 0.65684 0.17508 0.0
C1226 C 0.74553 0.65559 0.1829 0.0
C1227 C 0.71151 0.68035 0.14921 0.0
C1228 C 0.72804 0.66909 0.15617 0.0
C1229 C 0.78011 0.64732 0.18015 0.0
C1230 C 0.76168 0.65291 0.17133 0.0
H1231 H 0.70243 0.72195 0.12594 0.0
H1232 H 0.72863 0.70043 0.13304 0.0
H1233 H 0.71719 0.66642 0.18504 0.0
H1234 H 0.79698 0.62153 0.21766 0.0
H1235 H 0.76794 0.62618 0.19917 0.0
C1236 C 0.78041 0.20207 0.63974 0.0
C1237 C 0.78307 0.18338 0.64648 0.0
C1238 C 0.79318 0.21653 0.64471 0.0
C1239 C 0.82583 0.2288 0.68345 0.0
H1240 H 0.83806 0.27201 0.65115 0.0
C1241 C 0.86308 0.29417 0.71489 0.0
C1242 C 0.85426 0.31162 0.71047 0.0
C1243 C 0.85903 0.27783 0.70424 0.0
C1244 C 0.83477 0.26003 0.66033 0.0
H1245 H 0.80191 0.16498 0.66275 0.0
H1246 H 0.82426 0.19021 0.67129 0.0
H1247 H 0.82228 0.24412 0.63741 0.0
H1248 H 0.83527 0.32584 0.69059 0.0
H1249 H 0.82793 0.29731 0.6723 0.0
H1250 H 0.83753 0.24486 0.7065 0.0
C1251 C 0.81211 0.19373 0.66243 0.0
C1252 C 0.82574 0.24407 0.65247 0.0
C1253 C 0.79933 0.17927 0.65747 0.0
C1254 C 0.84227 0.31262 0.69442 0.0
C1255 C 0.83815 0.29625 0.68384 0.0
C1256 C 0.83481 0.24472 0.69129 0.0
C1257 C 0.80891 0.21262 0.65651 0.0
C1258 C 0.82078 0.22846 0.66405 0.0
C1259 C 0.846 0.27854 0.68901 0.0
C1260 C 0.839 0.26071 0.67994 0.0
H1261 H 0.76808 0.20573 0.63119 0.0
H1262 H 0.79018 0.23095 0.64007 0.0
H1263 H 0.82195 0.21717 0.69285 0.0
H1264 H 0.87258 0.29295 0.72702 0.0
H1265 H 0.86562 0.26448 0.70835 0.0
C1266 C 0.20166 0.35915 0.2068 0.0
C1267 C 0.1829 0.3526 0.20414 0.0
C1268 C 0.21589 0.35464 0.19361 0.0
C1269 C 0.24308 0.34731 0.16059 0.0
H1270 H 0.2435 0.2932 0.1493 0.0
C1271 C 0.29387 0.28338 0.12689 0.0
C1272 C 0.31093 0.28809 0.13631 0.0
C1273 C 0.27747 0.29435 0.12962 0.0
C1274 C 0.24347 0.30844 0.15181 0.0
H1275 H 0.16411 0.33736 0.18481 0.0
H1276 H 0.18896 0.32955 0.16181 0.0
H1277 H 0.2157 0.30726 0.16421 0.0
H1278 H 0.32447 0.30882 0.1549 0.0
H1279 H 0.29587 0.32757 0.16005 0.0
H1280 H 0.2712 0.34828 0.14874 0.0
C1281 C 0.19269 0.33793 0.17424 0.0
C1282 C 0.22748 0.31651 0.16043 0.0
C1283 C 0.17845 0.34245 0.18742 0.0
C1284 C 0.31155 0.30472 0.14749 0.0
C1285 C 0.29513 0.31559 0.15033 0.0
C1286 C 0.25908 0.33923 0.15186 0.0
C1287 C 0.21167 0.34349 0.17749 0.0
C1288 C 0.22732 0.3359 0.16545 0.0
C1289 C 0.27773 0.31018 0.14195 0.0
C1290 C 0.25969 0.31957 0.14792 0.0
H1291 H 0.20556 0.36708 0.21947 0.0
H1292 H 0.2304 0.359 0.19663 0.0
H1293 H 0.24324 0.36236 0.16404 0.0
H1294 H 0.29298 0.2708 0.11797 0.0
H1295 H 0.2644 0.29001 0.12263 0.0
C1296 C 0.35159 0.21974 0.20306 0.0
C1297 C 0.35237 0.21187 0.18467 0.0
C1298 C 0.34704 0.20839 0.21875 0.0
C1299 C 0.32303 0.16258 0.23025 0.0
H1300 H 0.33643 0.17818 0.28155 0.0
C1301 C 0.30293 0.1469 0.31515 0.0
C1302 C 0.28334 0.14359 0.31261 0.0
C1303 C 0.31459 0.15102 0.29949 0.0
C1304 C 0.33278 0.17322 0.26739 0.0
H1305 H 0.35025 0.18568 0.16842 0.0
H1306 H 0.34331 0.16557 0.19596 0.0
H1307 H 0.35254 0.19255 0.25466 0.0
H1308 H 0.2607 0.14153 0.29166 0.0
H1309 H 0.28058 0.14965 0.26466 0.0
H1310 H 0.3039 0.14264 0.243 0.0
C1311 C 0.34541 0.18069 0.19823 0.0
C1312 C 0.34182 0.18181 0.25185 0.0
C1313 C 0.34954 0.19217 0.18243 0.0
C1314 C 0.27578 0.14387 0.29407 0.0
C1315 C 0.28731 0.14841 0.27851 0.0
C1316 C 0.31436 0.15364 0.24581 0.0
C1317 C 0.34356 0.18873 0.21656 0.0
C1318 C 0.3365 0.1772 0.23303 0.0
C1319 C 0.30684 0.15237 0.28099 0.0
C1320 C 0.3185 0.15939 0.2646 0.0
H1321 H 0.35356 0.23491 0.20524 0.0
H1322 H 0.34541 0.21532 0.23244 0.0
H1323 H 0.31841 0.15857 0.21608 0.0
H1324 H 0.30919 0.14657 0.32928 0.0
H1325 H 0.32962 0.15349 0.302 0.0
C1326 C 0.35852 0.78814 0.7956 0.0
C1327 C 0.35214 0.79185 0.81425 0.0
C1328 C 0.35325 0.80006 0.78054 0.0
C1329 C 0.31379 0.83152 0.76763 0.0
H1330 H 0.34375 0.83999 0.72191 0.0
C1331 C 0.2795 0.86393 0.70097 0.0
C1332 C 0.28297 0.85381 0.684 0.0
C1333 C 0.29072 0.86078 0.71712 0.0
C1334 C 0.33522 0.83774 0.73459 0.0
H1335 H 0.33651 0.81186 0.83193 0.0
H1336 H 0.32755 0.83281 0.80566 0.0
H1337 H 0.359 0.8268 0.75037 0.0
H1338 H 0.30166 0.83325 0.67041 0.0
H1339 H 0.32101 0.82752 0.69867 0.0
H1340 H 0.2899 0.84174 0.75178 0.0
C1341 C 0.33627 0.82043 0.80264 0.0
C1342 C 0.34394 0.8302 0.75088 0.0
C1343 C 0.34148 0.80847 0.81771 0.0
C1344 C 0.29856 0.84124 0.68326 0.0
C1345 C 0.30975 0.83805 0.69944 0.0
C1346 C 0.3051 0.83905 0.7514 0.0
C1347 C 0.34155 0.816 0.7838 0.0
C1348 C 0.33321 0.82659 0.76744 0.0
C1349 C 0.30563 0.84741 0.7167 0.0
C1350 C 0.3156 0.84184 0.73455 0.0
H1351 H 0.36681 0.77551 0.79244 0.0
H1352 H 0.35744 0.79613 0.76621 0.0
H1353 H 0.305 0.82862 0.78 0.0
H1354 H 0.26774 0.87389 0.70198 0.0
H1355 H 0.28739 0.86846 0.7301 0.0
C1356 C 0.69796 0.86314 0.30352 0.0
C1357 C 0.70149 0.8489 0.31714 0.0
C1358 C 0.68581 0.85957 0.2881 0.0
C1359 C 0.65314 0.82211 0.26739 0.0
H1360 H 0.6709 0.8436 0.21971 0.0
C1361 C 0.62839 0.79002 0.1961 0.0
C1362 C 0.64245 0.78849 0.18193 0.0
C1363 C 0.63131 0.80168 0.21203 0.0
C1364 C 0.66584 0.83728 0.23285 0.0
H1365 H 0.69463 0.82004 0.32575 0.0
H1366 H 0.67456 0.81335 0.2985 0.0
H1367 H 0.68384 0.85527 0.2494 0.0
H1368 H 0.67034 0.79831 0.17301 0.0
H1369 H 0.67599 0.8176 0.20104 0.0
H1370 H 0.63666 0.80274 0.25077 0.0
C1371 C 0.68037 0.82758 0.29986 0.0
C1372 C 0.673 0.84431 0.25006 0.0
C1373 C 0.69206 0.83134 0.31552 0.0
C1374 C 0.65918 0.79931 0.18364 0.0
C1375 C 0.66232 0.81056 0.19975 0.0
C1376 C 0.6464 0.81469 0.25016 0.0
C1377 C 0.67739 0.84148 0.28565 0.0
C1378 C 0.66726 0.83638 0.26759 0.0
C1379 C 0.64859 0.81167 0.21438 0.0
C1380 C 0.65316 0.82172 0.23261 0.0
H1381 H 0.70488 0.87691 0.30459 0.0
H1382 H 0.68349 0.87088 0.27785 0.0
H1383 H 0.64778 0.81605 0.28054 0.0
H1384 H 0.61524 0.78198 0.19501 0.0
H1385 H 0.62016 0.8025 0.22266 0.0
C1386 C 0.68706 0.15924 0.68273 0.0
C1387 C 0.69778 0.14254 0.6803 0.0
C1388 C 0.67523 0.1614 0.69856 0.0
C1389 C 0.66986 0.14237 0.74768 0.0
H1390 H 0.63119 0.18174 0.7488 0.0
C1391 C 0.65766 0.1872 0.81414 0.0
C1392 C 0.6409 0.19786 0.8164 0.0
C1393 C 0.66004 0.17543 0.79829 0.0
C1394 C 0.64158 0.17034 0.74892 0.0
H1395 H 0.70337 0.11435 0.6916 0.0
H1396 H 0.68184 0.11759 0.71872 0.0
H1397 H 0.64204 0.16953 0.71851 0.0
H1398 H 0.6128 0.20334 0.80483 0.0
H1399 H 0.61642 0.18189 0.7777 0.0
H1400 H 0.66873 0.14251 0.77809 0.0
C1401 C 0.68319 0.12945 0.70893 0.0
C1402 C 0.64815 0.16358 0.73138 0.0
C1403 C 0.69544 0.12749 0.6933 0.0
C1404 C 0.626 0.19547 0.80325 0.0
C1405 C 0.62817 0.18327 0.78762 0.0
C1406 C 0.66285 0.14869 0.76522 0.0
C1407 C 0.67343 0.14671 0.71217 0.0
C1408 C 0.66319 0.15034 0.7305 0.0
C1409 C 0.64552 0.17362 0.78451 0.0
C1410 C 0.64944 0.16358 0.76612 0.0
H1411 H 0.68864 0.17113 0.67299 0.0
H1412 H 0.66838 0.17507 0.70056 0.0
H1413 H 0.68136 0.1321 0.74781 0.0
H1414 H 0.66944 0.18882 0.82401 0.0
H1415 H 0.67377 0.16866 0.79642 0.0
C1416 C 0.78905 0.79857 0.64126 0.0
C1417 C 0.79264 0.81704 0.64816 0.0
C1418 C 0.80112 0.78347 0.64605 0.0
C1419 C 0.83249 0.76942 0.68506 0.0
H1420 H 0.842 0.72524 0.65319 0.0
C1421 C 0.86413 0.70134 0.71725 0.0
C1422 C 0.85429 0.68453 0.71249 0.0
C1423 C 0.86133 0.71802 0.70671 0.0
C1424 C 0.83946 0.73748 0.66227 0.0
H1425 H 0.81254 0.8344 0.66434 0.0
H1426 H 0.83366 0.80804 0.67257 0.0
H1427 H 0.82864 0.75415 0.63904 0.0
H1428 H 0.83463 0.67179 0.69225 0.0
H1429 H 0.82945 0.70092 0.67416 0.0
H1430 H 0.84247 0.75264 0.70842 0.0
C1431 C 0.82131 0.8052 0.66373 0.0
C1432 C 0.83183 0.75403 0.65416 0.0
C1433 C 0.80924 0.82031 0.65894 0.0
C1434 C 0.8424 0.6845 0.69634 0.0
C1435 C 0.83953 0.7012 0.68587 0.0
C1436 C 0.84006 0.7529 0.69316 0.0
C1437 C 0.81705 0.78652 0.65782 0.0
C1438 C 0.82783 0.77002 0.66557 0.0
C1439 C 0.84857 0.71828 0.69124 0.0
C1440 C 0.84319 0.73657 0.68196 0.0
H1441 H 0.77645 0.79556 0.63284 0.0
H1442 H 0.79732 0.76924 0.64139 0.0
H1443 H 0.82931 0.78135 0.69434 0.0
H1444 H 0.87357 0.7018 0.72947 0.0
H1445 H 0.86878 0.73085 0.71101 0.0
C1446 C 0.68228 0.30306 0.16125 0.0
C1447 C 0.68039 0.29151 0.14503 0.0
C1448 C 0.69867 0.31397 0.16402 0.0
C1449 C 0.74932 0.31559 0.14881 0.0
H1450 H 0.74925 0.35843 0.18365 0.0
C1451 C 0.81398 0.33272 0.19529 0.0
C1452 C 0.81599 0.35079 0.2036 0.0
C1453 C 0.79857 0.32878 0.18332 0.0
C1454 C 0.74974 0.3468 0.17352 0.0
H1455 H 0.69353 0.28335 0.11827 0.0
H1456 H 0.72177 0.30318 0.12257 0.0
H1457 H 0.71945 0.347 0.17078 0.0
H1458 H 0.80451 0.37943 0.20468 0.0
H1459 H 0.77826 0.373 0.18281 0.0
H1460 H 0.77967 0.31593 0.15088 0.0
C1461 C 0.71098 0.30324 0.1336 0.0
C1462 C 0.73245 0.33994 0.16641 0.0
C1463 C 0.69473 0.29196 0.13105 0.0
C1464 C 0.80311 0.36527 0.19864 0.0
C1465 C 0.78796 0.3615 0.18623 0.0
C1466 C 0.76665 0.32279 0.1555 0.0
C1467 C 0.71346 0.31396 0.15042 0.0
C1468 C 0.73192 0.32365 0.15472 0.0
C1469 C 0.78504 0.34299 0.17897 0.0
C1470 C 0.76707 0.33791 0.1687 0.0
H1471 H 0.67153 0.30292 0.17235 0.0
H1472 H 0.70006 0.32164 0.17735 0.0
H1473 H 0.74966 0.30304 0.13984 0.0
H1474 H 0.82365 0.32125 0.19896 0.0
H1475 H 0.7968 0.31426 0.17841 0.0
C1476 C 0.16301 0.31309 0.69229 0.0
C1477 C 0.1455 0.31505 0.70173 0.0
C1478 C 0.16612 0.29787 0.67988 0.0
C1479 C 0.14728 0.2493 0.67012 0.0
H1480 H 0.18987 0.24983 0.63499 0.0
C1481 C 0.19176 0.18275 0.65747 0.0
C1482 C 0.20369 0.18121 0.6415 0.0
C1483 C 0.18026 0.19876 0.65995 0.0
C1484 C 0.17761 0.24928 0.64434 0.0
H1485 H 0.11696 0.30362 0.70448 0.0
H1486 H 0.12188 0.27768 0.68186 0.0
H1487 H 0.17712 0.2796 0.64658 0.0
H1488 H 0.21183 0.19439 0.61477 0.0
H1489 H 0.19088 0.2219 0.61845 0.0
H1490 H 0.1471 0.21904 0.66709 0.0
C1491 C 0.13362 0.28729 0.68469 0.0
C1492 C 0.17051 0.2665 0.65137 0.0
C1493 C 0.1307 0.30225 0.69756 0.0
C1494 C 0.20294 0.19538 0.62737 0.0
C1495 C 0.19101 0.21121 0.62959 0.0
C1496 C 0.15396 0.23212 0.66259 0.0
C1497 C 0.15161 0.28447 0.67617 0.0
C1498 C 0.156 0.26671 0.66524 0.0
C1499 C 0.17999 0.21347 0.64625 0.0
C1500 C 0.16996 0.23177 0.65048 0.0
H1501 H 0.17473 0.32271 0.69532 0.0
H1502 H 0.1803 0.29618 0.67407 0.0
H1503 H 0.13603 0.24863 0.68066 0.0
H1504 H 0.19211 0.1721 0.66867 0.0
H1505 H 0.17241 0.19995 0.67318 0.0
C1506 C 0.17746 0.65603 0.18827 0.0
C1507 C 0.1816 0.64564 0.20493 0.0
C1508 C 0.19192 0.66067 0.17539 0.0
C1509 C 0.24251 0.65125 0.16247 0.0
H1510 H 0.24307 0.70532 0.15099 0.0
C1511 C 0.31114 0.6938 0.14888 0.0
C1512 C 0.3105 0.7101 0.13723 0.0
C1513 C 0.29469 0.68305 0.15213 0.0
C1514 C 0.24301 0.6901 0.1536 0.0
H1515 H 0.20397 0.63091 0.22044 0.0
H1516 H 0.22919 0.63923 0.19812 0.0
H1517 H 0.21513 0.6913 0.16573 0.0
H1518 H 0.29245 0.72698 0.1186 0.0
H1519 H 0.26384 0.70802 0.12401 0.0
H1520 H 0.27076 0.65027 0.15089 0.0
C1521 C 0.21475 0.64367 0.19493 0.0
C1522 C 0.22694 0.68204 0.1621 0.0
C1523 C 0.20029 0.63902 0.20781 0.0
C1524 C 0.29337 0.71465 0.12786 0.0
C1525 C 0.27695 0.70383 0.13102 0.0
C1526 C 0.25861 0.65932 0.15389 0.0
C1527 C 0.21083 0.65502 0.17887 0.0
C1528 C 0.2267 0.66265 0.16712 0.0
C1529 C 0.27726 0.68829 0.14371 0.0
C1530 C 0.25924 0.67896 0.14985 0.0
H1531 H 0.16317 0.66119 0.1855 0.0
H1532 H 0.18841 0.6692 0.16299 0.0
H1533 H 0.24263 0.6362 0.16593 0.0
H1534 H 0.32411 0.68984 0.15627 0.0
H1535 H 0.29544 0.6713 0.16212 0.0
C1536 C 0.83014 0.31531 0.29994 0.0
C1537 C 0.84823 0.31724 0.29166 0.0
C1538 C 0.82608 0.29985 0.31181 0.0
C1539 C 0.84369 0.25086 0.32172 0.0
H1540 H 0.8004 0.2515 0.35599 0.0
C1541 C 0.79988 0.18369 0.3359 0.0
C1542 C 0.78841 0.18228 0.35223 0.0
C1543 C 0.81087 0.19995 0.33267 0.0
C1544 C 0.81282 0.25095 0.34685 0.0
H1545 H 0.87674 0.30547 0.29042 0.0
H1546 H 0.87009 0.2791 0.31209 0.0
H1547 H 0.81332 0.28127 0.34441 0.0
H1548 H 0.78051 0.19608 0.37872 0.0
H1549 H 0.80055 0.22405 0.37368 0.0
H1550 H 0.84375 0.2206 0.32486 0.0
C1551 C 0.85868 0.28894 0.30875 0.0
C1552 C 0.82003 0.26815 0.33985 0.0
C1553 C 0.86258 0.30415 0.29645 0.0
C1554 C 0.78907 0.19692 0.36587 0.0
C1555 C 0.80045 0.21302 0.36288 0.0
C1556 C 0.83682 0.2337 0.32915 0.0
C1557 C 0.84017 0.28618 0.31608 0.0
C1558 C 0.83499 0.26831 0.32647 0.0
C1559 C 0.81103 0.21507 0.34592 0.0
C1560 C 0.82071 0.23342 0.3411 0.0
H1561 H 0.81876 0.32513 0.29638 0.0
H1562 H 0.81156 0.2982 0.31675 0.0
H1563 H 0.85519 0.25019 0.31146 0.0
H1564 H 0.79956 0.17268 0.32505 0.0
H1565 H 0.81843 0.20098 0.31925 0.0
C1566 C 0.19972 0.35538 0.78844 0.0
C1567 C 0.18145 0.34722 0.78983 0.0
C1568 C 0.21398 0.35055 0.80149 0.0
C1569 C 0.22776 0.31057 0.83186 0.0
H1570 H 0.26837 0.3447 0.84754 0.0
C1571 C 0.29475 0.28077 0.86749 0.0
C1572 C 0.31187 0.287 0.85912 0.0
C1573 C 0.27774 0.29063 0.86425 0.0
C1574 C 0.25712 0.335 0.8433 0.0
H1575 H 0.16353 0.32851 0.80677 0.0
H1576 H 0.18842 0.3202 0.82961 0.0
H1577 H 0.23993 0.35765 0.83211 0.0
H1578 H 0.32477 0.30929 0.84194 0.0
H1579 H 0.29513 0.32623 0.83602 0.0
H1580 H 0.24515 0.28786 0.84223 0.0
C1581 C 0.19177 0.3301 0.81823 0.0
C1582 C 0.24084 0.34241 0.83447 0.0
C1583 C 0.17749 0.33491 0.80517 0.0
C1584 C 0.31183 0.30404 0.84855 0.0
C1585 C 0.29481 0.31384 0.84524 0.0
C1586 C 0.244 0.30318 0.84066 0.0
C1587 C 0.2103 0.33748 0.81624 0.0
C1588 C 0.22621 0.33021 0.8282 0.0
C1589 C 0.27747 0.30688 0.85252 0.0
C1590 C 0.2591 0.31523 0.84603 0.0
H1591 H 0.20325 0.36497 0.77685 0.0
H1592 H 0.22814 0.35635 0.7994 0.0
H1593 H 0.21691 0.30072 0.82697 0.0
H1594 H 0.29431 0.26783 0.87591 0.0
H1595 H 0.26468 0.28511 0.87038 0.0
C1596 C 0.19429 0.81672 0.34492 0.0
C1597 C 0.21158 0.81302 0.35436 0.0
C1598 C 0.18179 0.80186 0.34049 0.0
C1599 C 0.16841 0.76719 0.31879 0.0
H1600 H 0.16131 0.72157 0.34922 0.0
C1601 C 0.15667 0.68324 0.30391 0.0
C1602 C 0.14343 0.68426 0.28889 0.0
C1603 C 0.16049 0.69925 0.31514 0.0
C1604 C 0.16315 0.73423 0.34057 0.0
H1605 H 0.22871 0.79093 0.36764 0.0
H1606 H 0.20712 0.76499 0.3596 0.0
H1607 H 0.17627 0.74965 0.36348 0.0
H1608 H 0.12269 0.70247 0.27488 0.0
H1609 H 0.12918 0.7303 0.29466 0.0
H1610 H 0.15607 0.75169 0.29569 0.0
C1611 C 0.20308 0.7794 0.35579 0.0
C1612 C 0.17171 0.7503 0.34872 0.0
C1613 C 0.21554 0.79428 0.36029 0.0
C1614 C 0.13316 0.70126 0.28618 0.0
C1615 C 0.13693 0.71724 0.29746 0.0
C1616 C 0.15988 0.75117 0.31066 0.0
C1617 C 0.18634 0.78294 0.34533 0.0
C1618 C 0.17484 0.76681 0.33778 0.0
C1619 C 0.15109 0.7166 0.31166 0.0
C1620 C 0.15755 0.73434 0.32129 0.0
H1621 H 0.19067 0.83103 0.34035 0.0
H1622 H 0.16883 0.8051 0.33274 0.0
H1623 H 0.17088 0.77953 0.30982 0.0
H1624 H 0.16479 0.67035 0.30645 0.0
H1625 H 0.1716 0.69827 0.32583 0.0
C1626 C 0.81533 0.64537 0.80875 0.0
C1627 C 0.81198 0.63772 0.79051 0.0
C1628 C 0.80018 0.6488 0.82121 0.0
C1629 C 0.74823 0.64074 0.82893 0.0
H1630 H 0.7496 0.69272 0.84767 0.0
C1631 C 0.68127 0.68594 0.84167 0.0
C1632 C 0.68171 0.70061 0.85531 0.0
C1633 C 0.69724 0.67444 0.8387 0.0
C1634 C 0.74906 0.67801 0.84302 0.0
H1635 H 0.79023 0.62641 0.77161 0.0
H1636 H 0.76382 0.6327 0.79317 0.0
H1637 H 0.77794 0.67899 0.83352 0.0
H1638 H 0.69867 0.71363 0.8777 0.0
H1639 H 0.72642 0.69333 0.87274 0.0
H1640 H 0.71901 0.64012 0.83782 0.0
C1641 C 0.77815 0.63589 0.79795 0.0
C1642 C 0.76537 0.67011 0.83487 0.0
C1643 C 0.79331 0.63242 0.7855 0.0
C1644 C 0.69797 0.70263 0.86687 0.0
C1645 C 0.7139 0.69104 0.86398 0.0
C1646 C 0.73187 0.64864 0.83716 0.0
C1647 C 0.78135 0.64469 0.81569 0.0
C1648 C 0.765 0.6516 0.82721 0.0
C1649 C 0.71397 0.67727 0.8494 0.0
C1650 C 0.73195 0.66758 0.84377 0.0
H1651 H 0.82958 0.64939 0.81317 0.0
H1652 H 0.80313 0.6553 0.83491 0.0
H1653 H 0.74759 0.62633 0.82341 0.0
H1654 H 0.66895 0.68394 0.83256 0.0
H1655 H 0.69682 0.66411 0.82723 0.0
C1656 C 0.71355 0.86587 0.70474 0.0
C1657 C 0.7103 0.85639 0.68736 0.0
C1658 C 0.70247 0.86169 0.72077 0.0
C1659 C 0.68938 0.83762 0.75398 0.0
H1660 H 0.63626 0.82234 0.75271 0.0
C1661 C 0.6391 0.78139 0.79571 0.0
C1662 C 0.64504 0.7847 0.81458 0.0
C1663 C 0.6439 0.79418 0.7812 0.0
C1664 C 0.6511 0.82657 0.75328 0.0
H1665 H 0.69198 0.83605 0.67289 0.0
H1666 H 0.67296 0.82852 0.70087 0.0
H1667 H 0.6503 0.83822 0.72503 0.0
H1668 H 0.6596 0.8047 0.8332 0.0
H1669 H 0.6678 0.82708 0.8079 0.0
H1670 H 0.69046 0.82542 0.78186 0.0
C1671 C 0.68392 0.83933 0.70211 0.0
C1672 C 0.65914 0.83566 0.73744 0.0
C1673 C 0.69493 0.84357 0.68606 0.0
C1674 C 0.65497 0.80161 0.81879 0.0
C1675 C 0.65973 0.81441 0.80428 0.0
C1676 C 0.68136 0.82858 0.76978 0.0
C1677 C 0.68795 0.84789 0.7198 0.0
C1678 C 0.67851 0.84087 0.73744 0.0
C1679 C 0.6547 0.81058 0.78524 0.0
C1680 C 0.66226 0.82253 0.76946 0.0
H1681 H 0.72512 0.876 0.70618 0.0
H1682 H 0.7057 0.86881 0.7341 0.0
H1683 H 0.70442 0.84111 0.75439 0.0
H1684 H 0.63138 0.76854 0.79197 0.0
H1685 H 0.63995 0.7907 0.76668 0.0
C1686 C 0.69176 0.15412 0.31301 0.0
C1687 C 0.70694 0.1411 0.31167 0.0
C1688 C 0.68017 0.15776 0.29722 0.0
C1689 C 0.65408 0.16018 0.26273 0.0
H1690 H 0.68385 0.16809 0.21681 0.0
C1691 C 0.64828 0.19185 0.18052 0.0
C1692 C 0.63923 0.20927 0.1846 0.0
C1693 C 0.65276 0.17913 0.19518 0.0
C1694 C 0.67515 0.16556 0.22932 0.0
H1695 H 0.72085 0.12055 0.29319 0.0
H1696 H 0.7004 0.12669 0.26576 0.0
H1697 H 0.6986 0.15334 0.24435 0.0
H1698 H 0.62661 0.22635 0.2071 0.0
H1699 H 0.63474 0.20435 0.23267 0.0
H1700 H 0.63085 0.17326 0.24778 0.0
C1701 C 0.69777 0.13443 0.27887 0.0
C1702 C 0.68364 0.15706 0.24517 0.0
C1703 C 0.70945 0.13087 0.29461 0.0
C1704 C 0.63366 0.21311 0.20347 0.0
C1705 C 0.63821 0.20041 0.21814 0.0
C1706 C 0.64558 0.16873 0.24683 0.0
C1707 C 0.68342 0.14839 0.27979 0.0
C1708 C 0.67337 0.15471 0.26223 0.0
C1709 C 0.64835 0.18357 0.21423 0.0
C1710 C 0.65618 0.17193 0.23011 0.0
H1711 H 0.6894 0.1622 0.32595 0.0
H1712 H 0.66936 0.16873 0.2984 0.0
H1713 H 0.6457 0.1583 0.27557 0.0
H1714 H 0.65255 0.18833 0.16609 0.0
H1715 H 0.66027 0.1661 0.19167 0.0
C1716 C 0.30453 0.14873 0.68145 0.0
C1717 C 0.28535 0.14425 0.68501 0.0
C1718 C 0.31683 0.15321 0.69654 0.0
C1719 C 0.31949 0.15459 0.75021 0.0
H1720 H 0.35506 0.19566 0.74035 0.0
C1721 C 0.355 0.2218 0.79257 0.0
C1722 C 0.35683 0.21367 0.81077 0.0
C1723 C 0.35054 0.21048 0.77683 0.0
C1724 C 0.34508 0.1843 0.74345 0.0
H1725 H 0.26408 0.14055 0.70714 0.0
H1726 H 0.28498 0.14929 0.73315 0.0
H1727 H 0.3383 0.18104 0.71398 0.0
H1728 H 0.35681 0.18713 0.82658 0.0
H1729 H 0.35008 0.16713 0.79892 0.0
H1730 H 0.32483 0.15909 0.77979 0.0
C1731 C 0.29097 0.14868 0.71893 0.0
C1732 C 0.33568 0.17559 0.72818 0.0
C1733 C 0.27884 0.1438 0.70394 0.0
C1734 C 0.35526 0.19381 0.81273 0.0
C1735 C 0.35124 0.18238 0.79686 0.0
C1736 C 0.3285 0.16364 0.7655 0.0
C1737 C 0.31009 0.15374 0.71547 0.0
C1738 C 0.32229 0.16098 0.73138 0.0
C1739 C 0.34821 0.19062 0.77877 0.0
C1740 C 0.341 0.17903 0.7624 0.0
H1741 H 0.30998 0.14901 0.667 0.0
H1742 H 0.33154 0.15656 0.69326 0.0
H1743 H 0.30979 0.14298 0.75329 0.0
H1744 H 0.35599 0.23709 0.79061 0.0
H1745 H 0.34799 0.21756 0.76334 0.0
C1746 C 0.31218 0.84066 0.31855 0.0
C1747 C 0.29538 0.85115 0.31545 0.0
C1748 C 0.32418 0.8361 0.30333 0.0
C1749 C 0.33392 0.84552 0.25192 0.0
H1750 H 0.34542 0.79147 0.25094 0.0
C1751 C 0.34425 0.80261 0.18274 0.0
C1752 C 0.35624 0.78656 0.18291 0.0
C1753 C 0.34155 0.81337 0.1993 0.0
C1754 C 0.34278 0.80668 0.25107 0.0
H1755 H 0.27875 0.86623 0.29413 0.0
H1756 H 0.29949 0.85801 0.26758 0.0
H1757 H 0.33237 0.80558 0.27965 0.0
H1758 H 0.37598 0.77013 0.20018 0.0
H1759 H 0.37151 0.7891 0.22895 0.0
H1760 H 0.34374 0.84638 0.22298 0.0
C1761 C 0.3035 0.85343 0.28178 0.0
C1762 C 0.33527 0.8148 0.2676 0.0
C1763 C 0.29152 0.85803 0.29701 0.0
C1764 C 0.36643 0.78225 0.19964 0.0
C1765 C 0.36382 0.79308 0.21615 0.0
C1766 C 0.34149 0.83739 0.23535 0.0
C1767 C 0.31964 0.8419 0.28467 0.0
C1768 C 0.3303 0.8342 0.26807 0.0
C1769 C 0.35088 0.80838 0.21635 0.0
C1770 C 0.34556 0.81777 0.23459 0.0
H1771 H 0.31571 0.83533 0.33262 0.0
H1772 H 0.3367 0.82748 0.30606 0.0
H1773 H 0.33048 0.86058 0.25194 0.0
H1774 H 0.33622 0.80636 0.17008 0.0
H1775 H 0.33134 0.82495 0.19896 0.0
loop_
_geom_bond_atom_site_label_1
_geom_bond_atom_site_label_2
_geom_bond_distance
_geom_bond_site_symmetry_2
_ccdc_geom_bond_type
O0 Cd1 2.223 . S
O0 C8 1.315 . S
Cd1 O0 2.223 . S
Cd1 O4 2.297 . S
Cd1 O5 2.439 . S
Cd1 O11 2.240 . S
Cd2 O3 2.240 . S
Cd2 O10 2.223 . S
Cd2 O12 2.297 . S
Cd2 O13 2.439 . S
O3 Cd2 2.240 . S
O3 C8 1.279 . S
O4 Cd1 2.297 . S
O4 C6 1.247 . S
O5 Cd1 2.439 . S
O5 C6 1.208 . S
C6 O4 1.247 . S
C6 O5 1.208 . S
C7 O12 1.247 . S
C7 O13 1.208 . S
C8 O0 1.315 . S
C8 O3 1.279 . S
C9 O10 1.315 . S
C9 O11 1.279 . S
O10 Cd2 2.223 . S
O10 C9 1.315 . S
O11 Cd1 2.240 . S
O11 C9 1.279 . S
O12 Cd2 2.297 . S
O12 C7 1.247 . S
O13 Cd2 2.439 . S
O13 C7 1.208 . S
O14 Cd15 2.223 . S
O14 C22 1.315 . S
Cd15 O14 2.223 . S
Cd15 O18 2.297 . S
Cd15 O19 2.439 . S
Cd15 O25 2.240 . S
Cd16 O17 2.240 . S
Cd16 O24 2.223 . S
Cd16 O26 2.297 . S
Cd16 O27 2.439 . S
O17 Cd16 2.240 . S
O17 C22 1.279 . S
O18 Cd15 2.297 . S
O18 C20 1.247 . S
O19 Cd15 2.439 . S
O19 C20 1.208 . S
C20 O18 1.247 . S
C20 O19 1.208 . S
C21 O26 1.247 . S
C21 O27 1.208 . S
C22 O14 1.315 . S
C22 O17 1.279 . S
C23 O24 1.315 . S
C23 O25 1.279 . S
O24 Cd16 2.223 . S
O24 C23 1.315 . S
O25 Cd15 2.240 . S
O25 C23 1.279 . S
O26 Cd16 2.297 . S
O26 C21 1.247 . S
O27 Cd16 2.439 . S
O27 C21 1.208 . S
O28 Cd29 2.223 . S
O28 C36 1.315 . S
Cd29 O28 2.223 . S
Cd29 O32 2.297 . S
Cd29 O33 2.439 . S
Cd29 O39 2.240 . S
Cd30 O31 2.240 . S
Cd30 O38 2.223 . S
Cd30 O40 2.297 . S
Cd30 O41 2.439 . S
O31 Cd30 2.240 . S
O31 C36 1.279 . S
O32 Cd29 2.297 . S
O32 C34 1.247 . S
O33 Cd29 2.439 . S
O33 C34 1.208 . S
C34 O32 1.247 . S
C34 O33 1.208 . S
C35 O40 1.247 . S
C35 O41 1.208 . S
C36 O28 1.315 . S
C36 O31 1.279 . S
C37 O38 1.315 . S
C37 O39 1.279 . S
O38 Cd30 2.223 . S
O38 C37 1.315 . S
O39 Cd29 2.240 . S
O39 C37 1.279 . S
O40 Cd30 2.297 . S
O40 C35 1.247 . S
O41 Cd30 2.439 . S
O41 C35 1.208 . S
O42 Cd43 2.223 . S
O42 C50 1.315 . S
Cd43 O42 2.223 . S
Cd43 O46 2.297 . S
Cd43 O47 2.439 . S
Cd43 O53 2.240 . S
Cd44 O45 2.240 . S
Cd44 O52 2.223 . S
Cd44 O54 2.297 . S
Cd44 O55 2.439 . S
O45 Cd44 2.240 . S
O45 C50 1.279 . S
O46 Cd43 2.297 . S
O46 C48 1.247 . S
O47 Cd43 2.439 . S
O47 C48 1.208 . S
C48 O46 1.247 . S
C48 O47 1.208 . S
C49 O54 1.247 . S
C49 O55 1.208 . S
C50 O42 1.315 . S
C50 O45 1.279 . S
C51 O52 1.315 . S
C51 O53 1.279 . S
O52 Cd44 2.223 . S
O52 C51 1.315 . S
O53 Cd43 2.240 . S
O53 C51 1.279 . S
O54 Cd44 2.297 . S
O54 C49 1.247 . S
O55 Cd44 2.439 . S
O55 C49 1.208 . S
O56 Cd57 2.223 . S
O56 C64 1.315 . S
Cd57 O56 2.223 . S
Cd57 O60 2.297 . S
Cd57 O61 2.439 . S
Cd57 O67 2.240 . S
Cd58 O59 2.240 . S
Cd58 O66 2.223 . S
Cd58 O68 2.297 . S
Cd58 O69 2.439 . S
O59 Cd58 2.240 . S
O59 C64 1.279 . S
O60 Cd57 2.297 . S
O60 C62 1.247 . S
O61 Cd57 2.439 . S
O61 C62 1.208 . S
C62 O60 1.247 . S
C62 O61 1.208 . S
C63 O68 1.247 . S
C63 O69 1.208 . S
C64 O56 1.315 . S
C64 O59 1.279 . S
C65 O66 1.315 . S
C65 O67 1.279 . S
O66 Cd58 2.223 . S
O66 C65 1.315 . S
O67 Cd57 2.240 . S
O67 C65 1.279 . S
O68 Cd58 2.297 . S
O68 C63 1.247 . S
O69 Cd58 2.439 . S
O69 C63 1.208 . S
O70 Cd71 2.223 . S
O70 C78 1.315 . S
Cd71 O70 2.223 . S
Cd71 O74 2.297 . S
Cd71 O75 2.439 . S
Cd71 O81 2.240 . S
Cd72 O73 2.240 . S
Cd72 O80 2.223 . S
Cd72 O82 2.297 . S
Cd72 O83 2.439 . S
O73 Cd72 2.240 . S
O73 C78 1.279 . S
O74 Cd71 2.297 . S
O74 C76 1.247 . S
O75 Cd71 2.439 . S
O75 C76 1.208 . S
C76 O74 1.247 . S
C76 O75 1.208 . S
C77 O82 1.247 . S
C77 O83 1.208 . S
C78 O70 1.315 . S
C78 O73 1.279 . S
C79 O80 1.315 . S
C79 O81 1.279 . S
O80 Cd72 2.223 . S
O80 C79 1.315 . S
O81 Cd71 2.240 . S
O81 C79 1.279 . S
O82 Cd72 2.297 . S
O82 C77 1.247 . S
O83 Cd72 2.439 . S
O83 C77 1.208 . S
O84 Cd85 2.223 . S
O84 C92 1.315 . S
Cd85 O84 2.223 . S
Cd85 O88 2.297 . S
Cd85 O89 2.439 . S
Cd85 O95 2.240 . S
Cd86 O87 2.240 . S
Cd86 O94 2.223 . S
Cd86 O96 2.297 . S
Cd86 O97 2.439 . S
O87 Cd86 2.240 . S
O87 C92 1.279 . S
O88 Cd85 2.297 . S
O88 C90 1.247 . S
O89 Cd85 2.439 . S
O89 C90 1.208 . S
C90 O88 1.247 . S
C90 O89 1.208 . S
C91 O96 1.247 . S
C91 O97 1.208 . S
C92 O84 1.315 . S
C92 O87 1.279 . S
C93 O94 1.315 . S
C93 O95 1.279 . S
O94 Cd86 2.223 . S
O94 C93 1.315 . S
O95 Cd85 2.240 . S
O95 C93 1.279 . S
O96 Cd86 2.297 . S
O96 C91 1.247 . S
O97 Cd86 2.439 . S
O97 C91 1.208 . S
O98 Cd99 2.223 . S
O98 C106 1.315 . S
Cd99 O98 2.223 . S
Cd99 O102 2.297 . S
Cd99 O103 2.439 . S
Cd99 O109 2.240 . S
Cd100 O101 2.240 . S
Cd100 O108 2.223 . S
Cd100 O110 2.297 . S
Cd100 O111 2.439 . S
O101 Cd100 2.240 . S
O101 C106 1.279 . S
O102 Cd99 2.297 . S
O102 C104 1.247 . S
O103 Cd99 2.439 . S
O103 C104 1.208 . S
C104 O102 1.247 . S
C104 O103 1.208 . S
C105 O110 1.247 . S
C105 O111 1.208 . S
C106 O98 1.315 . S
C106 O101 1.279 . S
C107 O108 1.315 . S
C107 O109 1.279 . S
O108 Cd100 2.223 . S
O108 C107 1.315 . S
O109 Cd99 2.240 . S
O109 C107 1.279 . S
O110 Cd100 2.297 . S
O110 C105 1.247 . S
O111 Cd100 2.439 . S
O111 C105 1.208 . S
O112 Cd113 2.223 . S
O112 C120 1.315 . S
Cd113 O112 2.223 . S
Cd113 O116 2.297 . S
Cd113 O117 2.439 . S
Cd113 O123 2.240 . S
Cd114 O115 2.240 . S
Cd114 O122 2.223 . S
Cd114 O124 2.297 . S
Cd114 O125 2.439 . S
O115 Cd114 2.240 . S
O115 C120 1.279 . S
O116 Cd113 2.297 . S
O116 C118 1.247 . S
O117 Cd113 2.439 . S
O117 C118 1.208 . S
C118 O116 1.247 . S
C118 O117 1.208 . S
C119 O124 1.247 . S
C119 O125 1.208 . S
C120 O112 1.315 . S
C120 O115 1.279 . S
C121 O122 1.315 . S
C121 O123 1.279 . S
O122 Cd114 2.223 . S
O122 C121 1.315 . S
O123 Cd113 2.240 . S
O123 C121 1.279 . S
O124 Cd114 2.297 . S
O124 C119 1.247 . S
O125 Cd114 2.439 . S
O125 C119 1.208 . S
O126 Cd127 2.223 . S
O126 C134 1.315 . S
Cd127 O126 2.223 . S
Cd127 O130 2.297 . S
Cd127 O131 2.439 . S
Cd127 O137 2.240 . S
Cd128 O129 2.240 . S
Cd128 O136 2.223 . S
Cd128 O138 2.297 . S
Cd128 O139 2.439 . S
O129 Cd128 2.240 . S
O129 C134 1.279 . S
O130 Cd127 2.297 . S
O130 C132 1.247 . S
O131 Cd127 2.439 . S
O131 C132 1.208 . S
C132 O130 1.247 . S
C132 O131 1.208 . S
C133 O138 1.247 . S
C133 O139 1.208 . S
C134 O126 1.315 . S
C134 O129 1.279 . S
C135 O136 1.315 . S
C135 O137 1.279 . S
O136 Cd128 2.223 . S
O136 C135 1.315 . S
O137 Cd127 2.240 . S
O137 C135 1.279 . S
O138 Cd128 2.297 . S
O138 C133 1.247 . S
O139 Cd128 2.439 . S
O139 C133 1.208 . S
O140 Cd141 2.223 . S
O140 C148 1.315 . S
Cd141 O140 2.223 . S
Cd141 O144 2.297 . S
Cd141 O145 2.439 . S
Cd141 O151 2.240 . S
Cd142 O143 2.240 . S
Cd142 O150 2.223 . S
Cd142 O152 2.297 . S
Cd142 O153 2.439 . S
O143 Cd142 2.240 . S
O143 C148 1.279 . S
O144 Cd141 2.297 . S
O144 C146 1.247 . S
O145 Cd141 2.439 . S
O145 C146 1.208 . S
C146 O144 1.247 . S
C146 O145 1.208 . S
C147 O152 1.247 . S
C147 O153 1.208 . S
C148 O140 1.315 . S
C148 O143 1.279 . S
C149 O150 1.315 . S
C149 O151 1.279 . S
O150 Cd142 2.223 . S
O150 C149 1.315 . S
O151 Cd141 2.240 . S
O151 C149 1.279 . S
O152 Cd142 2.297 . S
O152 C147 1.247 . S
O153 Cd142 2.439 . S
O153 C147 1.208 . S
O154 Cd155 2.223 . S
O154 C162 1.315 . S
Cd155 O154 2.223 . S
Cd155 O158 2.297 . S
Cd155 O159 2.439 . S
Cd155 O165 2.240 . S
Cd156 O157 2.240 . S
Cd156 O164 2.223 . S
Cd156 O166 2.297 . S
Cd156 O167 2.439 . S
O157 Cd156 2.240 . S
O157 C162 1.279 . S
O158 Cd155 2.297 . S
O158 C160 1.247 . S
O159 Cd155 2.439 . S
O159 C160 1.208 . S
C160 O158 1.247 . S
C160 O159 1.208 . S
C161 O166 1.247 . S
C161 O167 1.208 . S
C162 O154 1.315 . S
C162 O157 1.279 . S
C163 O164 1.315 . S
C163 O165 1.279 . S
O164 Cd156 2.223 . S
O164 C163 1.315 . S
O165 Cd155 2.240 . S
O165 C163 1.279 . S
O166 Cd156 2.297 . S
O166 C161 1.247 . S
O167 Cd156 2.439 . S
O167 C161 1.208 . S
O168 Cd169 2.223 . S
O168 C176 1.315 . S
Cd169 O168 2.223 . S
Cd169 O172 2.297 . S
Cd169 O173 2.439 . S
Cd169 O179 2.240 . S
Cd170 O171 2.240 . S
Cd170 O178 2.223 . S
Cd170 O180 2.297 . S
Cd170 O181 2.439 . S
O171 Cd170 2.240 . S
O171 C176 1.279 . S
O172 Cd169 2.297 . S
O172 C174 1.247 . S
O173 Cd169 2.439 . S
O173 C174 1.208 . S
C174 O172 1.247 . S
C174 O173 1.208 . S
C175 O180 1.247 . S
C175 O181 1.208 . S
C176 O168 1.315 . S
C176 O171 1.279 . S
C177 O178 1.315 . S
C177 O179 1.279 . S
O178 Cd170 2.223 . S
O178 C177 1.315 . S
O179 Cd169 2.240 . S
O179 C177 1.279 . S
O180 Cd170 2.297 . S
O180 C175 1.247 . S
O181 Cd170 2.439 . S
O181 C175 1.208 . S
O182 Cd183 2.223 . S
O182 C190 1.315 . S
Cd183 O182 2.223 . S
Cd183 O186 2.297 . S
Cd183 O187 2.439 . S
Cd183 O193 2.240 . S
Cd184 O185 2.240 . S
Cd184 O192 2.223 . S
Cd184 O194 2.297 . S
Cd184 O195 2.439 . S
O185 Cd184 2.240 . S
O185 C190 1.279 . S
O186 Cd183 2.297 . S
O186 C188 1.247 . S
O187 Cd183 2.439 . S
O187 C188 1.208 . S
C188 O186 1.247 . S
C188 O187 1.208 . S
C189 O194 1.247 . S
C189 O195 1.208 . S
C190 O182 1.315 . S
C190 O185 1.279 . S
C191 O192 1.315 . S
C191 O193 1.279 . S
O192 Cd184 2.223 . S
O192 C191 1.315 . S
O193 Cd183 2.240 . S
O193 C191 1.279 . S
O194 Cd184 2.297 . S
O194 C189 1.247 . S
O195 Cd184 2.439 . S
O195 C189 1.208 . S
O196 Cd197 2.223 . S
O196 C204 1.315 . S
Cd197 O196 2.223 . S
Cd197 O200 2.297 . S
Cd197 O201 2.439 . S
Cd197 O207 2.240 . S
Cd198 O199 2.240 . S
Cd198 O206 2.223 . S
Cd198 O208 2.297 . S
Cd198 O209 2.439 . S
O199 Cd198 2.240 . S
O199 C204 1.279 . S
O200 Cd197 2.297 . S
O200 C202 1.247 . S
O201 Cd197 2.439 . S
O201 C202 1.208 . S
C202 O200 1.247 . S
C202 O201 1.208 . S
C203 O208 1.247 . S
C203 O209 1.208 . S
C204 O196 1.315 . S
C204 O199 1.279 . S
C205 O206 1.315 . S
C205 O207 1.279 . S
O206 Cd198 2.223 . S
O206 C205 1.315 . S
O207 Cd197 2.240 . S
O207 C205 1.279 . S
O208 Cd198 2.297 . S
O208 C203 1.247 . S
O209 Cd198 2.439 . S
O209 C203 1.208 . S
O210 Cd211 2.223 . S
O210 C218 1.315 . S
Cd211 O210 2.223 . S
Cd211 O214 2.297 . S
Cd211 O215 2.439 . S
Cd211 O221 2.240 . S
Cd212 O213 2.240 . S
Cd212 O220 2.223 . S
Cd212 O222 2.297 . S
Cd212 O223 2.439 . S
O213 Cd212 2.240 . S
O213 C218 1.279 . S
O214 Cd211 2.297 . S
O214 C216 1.247 . S
O215 Cd211 2.439 . S
O215 C216 1.208 . S
C216 O214 1.247 . S
C216 O215 1.208 . S
C217 O222 1.247 . S
C217 O223 1.208 . S
C218 O210 1.315 . S
C218 O213 1.279 . S
C219 O220 1.315 . S
C219 O221 1.279 . S
O220 Cd212 2.223 . S
O220 C219 1.315 . S
O221 Cd211 2.240 . S
O221 C219 1.279 . S
O222 Cd212 2.297 . S
O222 C217 1.247 . S
O223 Cd212 2.439 . S
O223 C217 1.208 . S
O224 Cd225 2.223 . S
O224 C232 1.315 . S
Cd225 O224 2.223 . S
Cd225 O228 2.297 . S
Cd225 O229 2.439 . S
Cd225 O235 2.240 . S
Cd226 O227 2.240 . S
Cd226 O234 2.223 . S
Cd226 O236 2.297 . S
Cd226 O237 2.439 . S
O227 Cd226 2.240 . S
O227 C232 1.279 . S
O228 Cd225 2.297 . S
O228 C230 1.247 . S
O229 Cd225 2.439 . S
O229 C230 1.208 . S
C230 O228 1.247 . S
C230 O229 1.208 . S
C231 O236 1.247 . S
C231 O237 1.208 . S
C232 O224 1.315 . S
C232 O227 1.279 . S
C233 O234 1.315 . S
C233 O235 1.279 . S
O234 Cd226 2.223 . S
O234 C233 1.315 . S
O235 Cd225 2.240 . S
O235 C233 1.279 . S
O236 Cd226 2.297 . S
O236 C231 1.247 . S
O237 Cd226 2.439 . S
O237 C231 1.208 . S
O238 Cd239 2.223 . S
O238 C246 1.315 . S
Cd239 O238 2.223 . S
Cd239 O242 2.297 . S
Cd239 O243 2.439 . S
Cd239 O249 2.240 . S
Cd240 O241 2.240 . S
Cd240 O248 2.223 . S
Cd240 O250 2.297 . S
Cd240 O251 2.439 . S
O241 Cd240 2.240 . S
O241 C246 1.279 . S
O242 Cd239 2.297 . S
O242 C244 1.247 . S
O243 Cd239 2.439 . S
O243 C244 1.208 . S
C244 O242 1.247 . S
C244 O243 1.208 . S
C245 O250 1.247 . S
C245 O251 1.208 . S
C246 O238 1.315 . S
C246 O241 1.279 . S
C247 O248 1.315 . S
C247 O249 1.279 . S
O248 Cd240 2.223 . S
O248 C247 1.315 . S
O249 Cd239 2.240 . S
O249 C247 1.279 . S
O250 Cd240 2.297 . S
O250 C245 1.247 . S
O251 Cd240 2.439 . S
O251 C245 1.208 . S
O252 Cd253 2.223 . S
O252 C260 1.315 . S
Cd253 O252 2.223 . S
Cd253 O256 2.297 . S
Cd253 O257 2.439 . S
Cd253 O263 2.240 . S
Cd254 O255 2.240 . S
Cd254 O262 2.223 . S
Cd254 O264 2.297 . S
Cd254 O265 2.439 . S
O255 Cd254 2.240 . S
O255 C260 1.279 . S
O256 Cd253 2.297 . S
O256 C258 1.247 . S
O257 Cd253 2.439 . S
O257 C258 1.208 . S
C258 O256 1.247 . S
C258 O257 1.208 . S
C259 O264 1.247 . S
C259 O265 1.208 . S
C260 O252 1.315 . S
C260 O255 1.279 . S
C261 O262 1.315 . S
C261 O263 1.279 . S
O262 Cd254 2.223 . S
O262 C261 1.315 . S
O263 Cd253 2.240 . S
O263 C261 1.279 . S
O264 Cd254 2.297 . S
O264 C259 1.247 . S
O265 Cd254 2.439 . S
O265 C259 1.208 . S
O266 Cd267 2.223 . S
O266 C274 1.315 . S
Cd267 O266 2.223 . S
Cd267 O270 2.297 . S
Cd267 O271 2.439 . S
Cd267 O277 2.240 . S
Cd268 O269 2.240 . S
Cd268 O276 2.223 . S
Cd268 O278 2.297 . S
Cd268 O279 2.439 . S
O269 Cd268 2.240 . S
O269 C274 1.279 . S
O270 Cd267 2.297 . S
O270 C272 1.247 . S
O271 Cd267 2.439 . S
O271 C272 1.208 . S
C272 O270 1.247 . S
C272 O271 1.208 . S
C273 O278 1.247 . S
C273 O279 1.208 . S
C274 O266 1.315 . S
C274 O269 1.279 . S
C275 O276 1.315 . S
C275 O277 1.279 . S
O276 Cd268 2.223 . S
O276 C275 1.315 . S
O277 Cd267 2.240 . S
O277 C275 1.279 . S
O278 Cd268 2.297 . S
O278 C273 1.247 . S
O279 Cd268 2.439 . S
O279 C273 1.208 . S
O280 Cd281 2.223 . S
O280 C288 1.315 . S
Cd281 O280 2.223 . S
Cd281 O284 2.297 . S
Cd281 O285 2.439 . S
Cd281 O291 2.240 . S
Cd282 O283 2.240 . S
Cd282 O290 2.223 . S
Cd282 O292 2.297 . S
Cd282 O293 2.439 . S
O283 Cd282 2.240 . S
O283 C288 1.279 . S
O284 Cd281 2.297 . S
O284 C286 1.247 . S
O285 Cd281 2.439 . S
O285 C286 1.208 . S
C286 O284 1.247 . S
C286 O285 1.208 . S
C287 O292 1.247 . S
C287 O293 1.208 . S
C288 O280 1.315 . S
C288 O283 1.279 . S
C289 O290 1.315 . S
C289 O291 1.279 . S
O290 Cd282 2.223 . S
O290 C289 1.315 . S
O291 Cd281 2.240 . S
O291 C289 1.279 . S
O292 Cd282 2.297 . S
O292 C287 1.247 . S
O293 Cd282 2.439 . S
O293 C287 1.208 . S
O294 Cd295 2.223 . S
O294 C302 1.315 . S
Cd295 O294 2.223 . S
Cd295 O298 2.297 . S
Cd295 O299 2.439 . S
Cd295 O305 2.240 . S
Cd296 O297 2.240 . S
Cd296 O304 2.223 . S
Cd296 O306 2.297 . S
Cd296 O307 2.439 . S
O297 Cd296 2.240 . S
O297 C302 1.279 . S
O298 Cd295 2.297 . S
O298 C300 1.247 . S
O299 Cd295 2.439 . S
O299 C300 1.208 . S
C300 O298 1.247 . S
C300 O299 1.208 . S
C301 O306 1.247 . S
C301 O307 1.208 . S
C302 O294 1.315 . S
C302 O297 1.279 . S
C303 O304 1.315 . S
C303 O305 1.279 . S
O304 Cd296 2.223 . S
O304 C303 1.315 . S
O305 Cd295 2.240 . S
O305 C303 1.279 . S
O306 Cd296 2.297 . S
O306 C301 1.247 . S
O307 Cd296 2.439 . S
O307 C301 1.208 . S
O308 Cd309 2.223 . S
O308 C316 1.315 . S
Cd309 O308 2.223 . S
Cd309 O312 2.297 . S
Cd309 O313 2.439 . S
Cd309 O319 2.240 . S
Cd310 O311 2.240 . S
Cd310 O318 2.223 . S
Cd310 O320 2.297 . S
Cd310 O321 2.439 . S
O311 Cd310 2.240 . S
O311 C316 1.279 . S
O312 Cd309 2.297 . S
O312 C314 1.247 . S
O313 Cd309 2.439 . S
O313 C314 1.208 . S
C314 O312 1.247 . S
C314 O313 1.208 . S
C315 O320 1.247 . S
C315 O321 1.208 . S
C316 O308 1.315 . S
C316 O311 1.279 . S
C317 O318 1.315 . S
C317 O319 1.279 . S
O318 Cd310 2.223 . S
O318 C317 1.315 . S
O319 Cd309 2.240 . S
O319 C317 1.279 . S
O320 Cd310 2.297 . S
O320 C315 1.247 . S
O321 Cd310 2.439 . S
O321 C315 1.208 . S
O322 Cd323 2.223 . S
O322 C330 1.315 . S
Cd323 O322 2.223 . S
Cd323 O326 2.297 . S
Cd323 O327 2.439 . S
Cd323 O333 2.240 . S
Cd324 O325 2.240 . S
Cd324 O332 2.223 . S
Cd324 O334 2.297 . S
Cd324 O335 2.439 . S
O325 Cd324 2.240 . S
O325 C330 1.279 . S
O326 Cd323 2.297 . S
O326 C328 1.247 . S
O327 Cd323 2.439 . S
O327 C328 1.208 . S
C328 O326 1.247 . S
C328 O327 1.208 . S
C329 O334 1.247 . S
C329 O335 1.208 . S
C330 O322 1.315 . S
C330 O325 1.279 . S
C331 O332 1.315 . S
C331 O333 1.279 . S
O332 Cd324 2.223 . S
O332 C331 1.315 . S
O333 Cd323 2.240 . S
O333 C331 1.279 . S
O334 Cd324 2.297 . S
O334 C329 1.247 . S
O335 Cd324 2.439 . S
O335 C329 1.208 . S
C336 C337 1.349 . S
C336 C338 1.327 . S
C336 H361 0.950 . S
C337 C336 1.349 . S
C337 C353 1.349 . S
C338 C336 1.327 . S
C338 C357 1.429 . S
C338 H362 0.950 . S
C339 C356 1.574 . S
C339 C358 1.368 . S
C339 H363 0.949 . S
H340 C344 0.949 . S
C341 C342 1.349 . S
C341 C343 1.327 . S
C341 H364 0.950 . S
C342 C341 1.349 . S
C342 C354 1.349 . S
C343 C341 1.327 . S
C343 C359 1.429 . S
C343 H365 0.950 . S
C344 H340 0.949 . S
C344 C352 1.574 . S
C344 C360 1.368 . S
H345 C353 0.950 . S
H346 C351 0.950 . S
H347 C352 0.949 . S
H348 C354 0.950 . S
H349 C355 0.950 . S
H350 C356 0.949 . S
C351 H346 0.950 . S
C351 C353 1.327 . S
C351 C357 1.429 . S
C352 C344 1.574 . S
C352 H347 0.949 . S
C352 C358 1.368 . S
C353 C337 1.349 . S
C353 H345 0.950 . S
C353 C351 1.327 . S
C354 C342 1.349 . S
C354 H348 0.950 . S
C354 C355 1.327 . S
C355 H349 0.950 . S
C355 C354 1.327 . S
C355 C359 1.429 . S
C356 C339 1.574 . S
C356 H350 0.949 . S
C356 C360 1.368 . S
C357 C338 1.429 . S
C357 C351 1.429 . S
C357 C358 1.523 . S
C358 C339 1.368 . S
C358 C352 1.368 . S
C358 C357 1.523 . S
C359 C343 1.429 . S
C359 C355 1.429 . S
C359 C360 1.523 . S
C360 C344 1.368 . S
C360 C356 1.368 . S
C360 C359 1.523 . S
H361 C336 0.950 . S
H362 C338 0.950 . S
H363 C339 0.949 . S
H364 C341 0.950 . S
H365 C343 0.950 . S
C366 C367 1.349 . S
C366 C368 1.327 . S
C366 H391 0.950 . S
C367 C366 1.349 . S
C367 C383 1.349 . S
C368 C366 1.327 . S
C368 C387 1.429 . S
C368 H392 0.950 . S
C369 C386 1.574 1_655 S
C369 C388 1.368 . S
C369 H393 0.949 . S
H370 C374 0.949 . S
C371 C372 1.349 . S
C371 C373 1.327 . S
C371 H394 0.950 . S
C372 C371 1.349 . S
C372 C384 1.349 . S
C373 C371 1.327 . S
C373 C389 1.429 . S
C373 H395 0.950 . S
C374 H370 0.949 . S
C374 C382 1.574 1_455 S
C374 C390 1.368 . S
H375 C383 0.950 . S
H376 C381 0.950 . S
H377 C382 0.949 . S
H378 C384 0.950 . S
H379 C385 0.950 . S
H380 C386 0.949 . S
C381 H376 0.950 . S
C381 C383 1.327 . S
C381 C387 1.429 . S
C382 C374 1.574 1_655 S
C382 H377 0.949 . S
C382 C388 1.368 . S
C383 C367 1.349 . S
C383 H375 0.950 . S
C383 C381 1.327 . S
C384 C372 1.349 . S
C384 H378 0.950 . S
C384 C385 1.327 . S
C385 H379 0.950 . S
C385 C384 1.327 . S
C385 C389 1.429 . S
C386 C369 1.574 1_455 S
C386 H380 0.949 . S
C386 C390 1.368 . S
C387 C368 1.429 . S
C387 C381 1.429 . S
C387 C388 1.523 . S
C388 C369 1.368 . S
C388 C382 1.368 . S
C388 C387 1.523 . S
C389 C373 1.429 . S
C389 C385 1.429 . S
C389 C390 1.523 . S
C390 C374 1.368 . S
C390 C386 1.368 . S
C390 C389 1.523 . S
H391 C366 0.950 . S
H392 C368 0.950 . S
H393 C369 0.949 . S
H394 C371 0.950 . S
H395 C373 0.950 . S
C396 C397 1.349 . S
C396 C398 1.327 . S
C396 H421 0.950 . S
C397 C396 1.349 . S
C397 C413 1.349 . S
C398 C396 1.327 . S
C398 C417 1.429 . S
C398 H422 0.950 . S
C399 C416 1.574 . S
C399 C418 1.368 . S
C399 H423 0.949 . S
H400 C404 0.949 . S
C401 C402 1.349 . S
C401 C403 1.327 . S
C401 H424 0.950 . S
C402 C401 1.349 . S
C402 C414 1.349 . S
C403 C401 1.327 . S
C403 C419 1.429 . S
C403 H425 0.950 . S
C404 H400 0.949 . S
C404 C412 1.574 . S
C404 C420 1.368 . S
H405 C413 0.950 . S
H406 C411 0.950 . S
H407 C412 0.949 . S
H408 C414 0.950 . S
H409 C415 0.950 . S
H410 C416 0.949 . S
C411 H406 0.950 . S
C411 C413 1.327 . S
C411 C417 1.429 . S
C412 C404 1.574 . S
C412 H407 0.949 . S
C412 C418 1.368 . S
C413 C397 1.349 . S
C413 H405 0.950 . S
C413 C411 1.327 . S
C414 C402 1.349 . S
C414 H408 0.950 . S
C414 C415 1.327 . S
C415 H409 0.950 . S
C415 C414 1.327 . S
C415 C419 1.429 . S
C416 C399 1.574 . S
C416 H410 0.949 . S
C416 C420 1.368 . S
C417 C398 1.429 . S
C417 C411 1.429 . S
C417 C418 1.523 . S
C418 C399 1.368 . S
C418 C412 1.368 . S
C418 C417 1.523 . S
C419 C403 1.429 . S
C419 C415 1.429 . S
C419 C420 1.523 . S
C420 C404 1.368 . S
C420 C416 1.368 . S
C420 C419 1.523 . S
H421 C396 0.950 . S
H422 C398 0.950 . S
H423 C399 0.949 . S
H424 C401 0.950 . S
H425 C403 0.950 . S
C426 C427 1.349 . S
C426 C428 1.327 . S
C426 H451 0.950 . S
C427 C426 1.349 . S
C427 C443 1.349 . S
C428 C426 1.327 . S
C428 C447 1.429 . S
C428 H452 0.950 . S
C429 C446 1.574 1_455 S
C429 C448 1.368 . S
C429 H453 0.949 . S
H430 C434 0.949 . S
C431 C432 1.349 . S
C431 C433 1.327 . S
C431 H454 0.950 . S
C432 C431 1.349 . S
C432 C444 1.349 . S
C433 C431 1.327 . S
C433 C449 1.429 . S
C433 H455 0.950 . S
C434 H430 0.949 . S
C434 C442 1.574 1_655 S
C434 C450 1.368 . S
H435 C443 0.950 . S
H436 C441 0.950 . S
H437 C442 0.949 . S
H438 C444 0.950 . S
H439 C445 0.950 . S
H440 C446 0.949 . S
C441 H436 0.950 . S
C441 C443 1.327 . S
C441 C447 1.429 . S
C442 C434 1.574 1_455 S
C442 H437 0.949 . S
C442 C448 1.368 . S
C443 C427 1.349 . S
C443 H435 0.950 . S
C443 C441 1.327 . S
C444 C432 1.349 . S
C444 H438 0.950 . S
C444 C445 1.327 . S
C445 H439 0.950 . S
C445 C444 1.327 . S
C445 C449 1.429 . S
C446 C429 1.574 1_655 S
C446 H440 0.949 . S
C446 C450 1.368 . S
C447 C428 1.429 . S
C447 C441 1.429 . S
C447 C448 1.523 . S
C448 C429 1.368 . S
C448 C442 1.368 . S
C448 C447 1.523 . S
C449 C433 1.429 . S
C449 C445 1.429 . S
C449 C450 1.523 . S
C450 C434 1.368 . S
C450 C446 1.368 . S
C450 C449 1.523 . S
H451 C426 0.950 . S
H452 C428 0.950 . S
H453 C429 0.949 . S
H454 C431 0.950 . S
H455 C433 0.950 . S
C456 C457 1.349 . S
C456 C458 1.327 . S
C456 H481 0.950 . S
C457 C456 1.349 . S
C457 C473 1.349 . S
C458 C456 1.327 . S
C458 C477 1.429 . S
C458 H482 0.950 . S
C459 C476 1.574 . S
C459 C478 1.368 . S
C459 H483 0.949 . S
H460 C464 0.949 . S
C461 C462 1.349 . S
C461 C463 1.327 . S
C461 H484 0.950 . S
C462 C461 1.349 . S
C462 C474 1.349 . S
C463 C461 1.327 . S
C463 C479 1.429 . S
C463 H485 0.950 . S
C464 H460 0.949 . S
C464 C472 1.574 . S
C464 C480 1.368 . S
H465 C473 0.950 . S
H466 C471 0.950 . S
H467 C472 0.949 . S
H468 C474 0.950 . S
H469 C475 0.950 . S
H470 C476 0.949 . S
C471 H466 0.950 . S
C471 C473 1.327 . S
C471 C477 1.429 . S
C472 C464 1.574 . S
C472 H467 0.949 . S
C472 C478 1.368 . S
C473 C457 1.349 . S
C473 H465 0.950 . S
C473 C471 1.327 . S
C474 C462 1.349 . S
C474 H468 0.950 . S
C474 C475 1.327 . S
C475 H469 0.950 . S
C475 C474 1.327 . S
C475 C479 1.429 . S
C476 C459 1.574 . S
C476 H470 0.949 . S
C476 C480 1.368 . S
C477 C458 1.429 . S
C477 C471 1.429 . S
C477 C478 1.523 . S
C478 C459 1.368 . S
C478 C472 1.368 . S
C478 C477 1.523 . S
C479 C463 1.429 . S
C479 C475 1.429 . S
C479 C480 1.523 . S
C480 C464 1.368 . S
C480 C476 1.368 . S
C480 C479 1.523 . S
H481 C456 0.950 . S
H482 C458 0.950 . S
H483 C459 0.949 . S
H484 C461 0.950 . S
H485 C463 0.950 . S
C486 C487 1.349 . S
C486 C488 1.327 . S
C486 H511 0.950 . S
C487 C486 1.349 . S
C487 C503 1.349 . S
C488 C486 1.327 . S
C488 C507 1.429 . S
C488 H512 0.950 . S
C489 C506 1.574 1_655 S
C489 C508 1.368 . S
C489 H513 0.949 . S
H490 C494 0.949 . S
C491 C492 1.349 . S
C491 C493 1.327 . S
C491 H514 0.950 . S
C492 C491 1.349 . S
C492 C504 1.349 . S
C493 C491 1.327 . S
C493 C509 1.429 . S
C493 H515 0.950 . S
C494 H490 0.949 . S
C494 C502 1.574 1_455 S
C494 C510 1.368 . S
H495 C503 0.950 . S
H496 C501 0.950 . S
H497 C502 0.949 . S
H498 C504 0.950 . S
H499 C505 0.950 . S
H500 C506 0.949 . S
C501 H496 0.950 . S
C501 C503 1.327 . S
C501 C507 1.429 . S
C502 C494 1.574 1_655 S
C502 H497 0.949 . S
C502 C508 1.368 . S
C503 C487 1.349 . S
C503 H495 0.950 . S
C503 C501 1.327 . S
C504 C492 1.349 . S
C504 H498 0.950 . S
C504 C505 1.327 . S
C505 H499 0.950 . S
C505 C504 1.327 . S
C505 C509 1.429 . S
C506 C489 1.574 1_455 S
C506 H500 0.949 . S
C506 C510 1.368 . S
C507 C488 1.429 . S
C507 C501 1.429 . S
C507 C508 1.523 . S
C508 C489 1.368 . S
C508 C502 1.368 . S
C508 C507 1.523 . S
C509 C493 1.429 . S
C509 C505 1.429 . S
C509 C510 1.523 . S
C510 C494 1.368 . S
C510 C506 1.368 . S
C510 C509 1.523 . S
H511 C486 0.950 . S
H512 C488 0.950 . S
H513 C489 0.949 . S
H514 C491 0.950 . S
H515 C493 0.950 . S
C516 C517 1.349 . S
C516 C518 1.327 . S
C516 H541 0.950 . S
C517 C516 1.349 . S
C517 C533 1.349 . S
C518 C516 1.327 . S
C518 C537 1.429 . S
C518 H542 0.950 . S
C519 C536 1.574 . S
C519 C538 1.368 . S
C519 H543 0.949 . S
H520 C524 0.949 . S
C521 C522 1.349 . S
C521 C523 1.327 . S
C521 H544 0.950 . S
C522 C521 1.349 . S
C522 C534 1.349 . S
C523 C521 1.327 . S
C523 C539 1.429 . S
C523 H545 0.950 . S
C524 H520 0.949 . S
C524 C532 1.574 . S
C524 C540 1.368 . S
H525 C533 0.950 . S
H526 C531 0.950 . S
H527 C532 0.949 . S
H528 C534 0.950 . S
H529 C535 0.950 . S
H530 C536 0.949 . S
C531 H526 0.950 . S
C531 C533 1.327 . S
C531 C537 1.429 . S
C532 C524 1.574 . S
C532 H527 0.949 . S
C532 C538 1.368 . S
C533 C517 1.349 . S
C533 H525 0.950 . S
C533 C531 1.327 . S
C534 C522 1.349 . S
C534 H528 0.950 . S
C534 C535 1.327 . S
C535 H529 0.950 . S
C535 C534 1.327 . S
C535 C539 1.429 . S
C536 C519 1.574 . S
C536 H530 0.949 . S
C536 C540 1.368 . S
C537 C518 1.429 . S
C537 C531 1.429 . S
C537 C538 1.523 . S
C538 C519 1.368 . S
C538 C532 1.368 . S
C538 C537 1.523 . S
C539 C523 1.429 . S
C539 C535 1.429 . S
C539 C540 1.523 . S
C540 C524 1.368 . S
C540 C536 1.368 . S
C540 C539 1.523 . S
H541 C516 0.950 . S
H542 C518 0.950 . S
H543 C519 0.949 . S
H544 C521 0.950 . S
H545 C523 0.950 . S
C546 C547 1.349 . S
C546 C548 1.327 . S
C546 H571 0.950 . S
C547 C546 1.349 . S
C547 C563 1.349 . S
C548 C546 1.327 . S
C548 C567 1.429 . S
C548 H572 0.950 . S
C549 C566 1.574 1_655 S
C549 C568 1.368 . S
C549 H573 0.949 . S
H550 C554 0.949 . S
C551 C552 1.349 . S
C551 C553 1.327 . S
C551 H574 0.950 . S
C552 C551 1.349 . S
C552 C564 1.349 . S
C553 C551 1.327 . S
C553 C569 1.429 . S
C553 H575 0.950 . S
C554 H550 0.949 . S
C554 C562 1.574 1_455 S
C554 C570 1.368 . S
H555 C563 0.950 . S
H556 C561 0.950 . S
H557 C562 0.949 . S
H558 C564 0.950 . S
H559 C565 0.950 . S
H560 C566 0.949 . S
C561 H556 0.950 . S
C561 C563 1.327 . S
C561 C567 1.429 . S
C562 C554 1.574 1_655 S
C562 H557 0.949 . S
C562 C568 1.368 . S
C563 C547 1.349 . S
C563 H555 0.950 . S
C563 C561 1.327 . S
C564 C552 1.349 . S
C564 H558 0.950 . S
C564 C565 1.327 . S
C565 H559 0.950 . S
C565 C564 1.327 . S
C565 C569 1.429 . S
C566 C549 1.574 1_455 S
C566 H560 0.949 . S
C566 C570 1.368 . S
C567 C548 1.429 . S
C567 C561 1.429 . S
C567 C568 1.523 . S
C568 C549 1.368 . S
C568 C562 1.368 . S
C568 C567 1.523 . S
C569 C553 1.429 . S
C569 C565 1.429 . S
C569 C570 1.523 . S
C570 C554 1.368 . S
C570 C566 1.368 . S
C570 C569 1.523 . S
H571 C546 0.950 . S
H572 C548 0.950 . S
H573 C549 0.949 . S
H574 C551 0.950 . S
H575 C553 0.950 . S
C576 C577 1.349 . S
C576 C578 1.327 . S
C576 H601 0.950 . S
C577 C576 1.349 . S
C577 C593 1.349 . S
C578 C576 1.327 . S
C578 C597 1.429 . S
C578 H602 0.950 . S
C579 C596 1.574 . S
C579 C598 1.368 . S
C579 H603 0.949 . S
H580 C584 0.949 . S
C581 C582 1.349 . S
C581 C583 1.327 . S
C581 H604 0.950 . S
C582 C581 1.349 . S
C582 C594 1.349 . S
C583 C581 1.327 . S
C583 C599 1.429 . S
C583 H605 0.950 . S
C584 H580 0.949 . S
C584 C592 1.574 . S
C584 C600 1.368 . S
H585 C593 0.950 . S
H586 C591 0.950 . S
H587 C592 0.949 . S
H588 C594 0.950 . S
H589 C595 0.950 . S
H590 C596 0.949 . S
C591 H586 0.950 . S
C591 C593 1.327 . S
C591 C597 1.429 . S
C592 C584 1.574 . S
C592 H587 0.949 . S
C592 C598 1.368 . S
C593 C577 1.349 . S
C593 H585 0.950 . S
C593 C591 1.327 . S
C594 C582 1.349 . S
C594 H588 0.950 . S
C594 C595 1.327 . S
C595 H589 0.950 . S
C595 C594 1.327 . S
C595 C599 1.429 . S
C596 C579 1.574 . S
C596 H590 0.949 . S
C596 C600 1.368 . S
C597 C578 1.429 . S
C597 C591 1.429 . S
C597 C598 1.523 . S
C598 C579 1.368 . S
C598 C592 1.368 . S
C598 C597 1.523 . S
C599 C583 1.429 . S
C599 C595 1.429 . S
C599 C600 1.523 . S
C600 C584 1.368 . S
C600 C596 1.368 . S
C600 C599 1.523 . S
H601 C576 0.950 . S
H602 C578 0.950 . S
H603 C579 0.949 . S
H604 C581 0.950 . S
H605 C583 0.950 . S
C606 C607 1.349 . S
C606 C608 1.327 . S
C606 H631 0.950 . S
C607 C606 1.349 . S
C607 C623 1.349 . S
C608 C606 1.327 . S
C608 C627 1.429 . S
C608 H632 0.950 . S
C609 C626 1.574 1_556 S
C609 C628 1.368 . S
C609 H633 0.949 . S
H610 C614 0.949 . S
C611 C612 1.349 . S
C611 C613 1.327 . S
C611 H634 0.950 . S
C612 C611 1.349 . S
C612 C624 1.349 . S
C613 C611 1.327 . S
C613 C629 1.429 . S
C613 H635 0.950 . S
C614 H610 0.949 . S
C614 C622 1.574 1_554 S
C614 C630 1.368 . S
H615 C623 0.950 . S
H616 C621 0.950 . S
H617 C622 0.949 . S
H618 C624 0.950 . S
H619 C625 0.950 . S
H620 C626 0.949 . S
C621 H616 0.950 . S
C621 C623 1.327 . S
C621 C627 1.429 . S
C622 C614 1.574 1_556 S
C622 H617 0.949 . S
C622 C628 1.368 . S
C623 C607 1.349 . S
C623 H615 0.950 . S
C623 C621 1.327 . S
C624 C612 1.349 . S
C624 H618 0.950 . S
C624 C625 1.327 . S
C625 H619 0.950 . S
C625 C624 1.327 . S
C625 C629 1.429 . S
C626 C609 1.574 1_554 S
C626 H620 0.949 . S
C626 C630 1.368 . S
C627 C608 1.429 . S
C627 C621 1.429 . S
C627 C628 1.523 . S
C628 C609 1.368 . S
C628 C622 1.368 . S
C628 C627 1.523 . S
C629 C613 1.429 . S
C629 C625 1.429 . S
C629 C630 1.523 . S
C630 C614 1.368 . S
C630 C626 1.368 . S
C630 C629 1.523 . S
H631 C606 0.950 . S
H632 C608 0.950 . S
H633 C609 0.949 . S
H634 C611 0.950 . S
H635 C613 0.950 . S
C636 C637 1.349 . S
C636 C638 1.327 . S
C636 H661 0.950 . S
C637 C636 1.349 . S
C637 C653 1.349 . S
C638 C636 1.327 . S
C638 C657 1.429 . S
C638 H662 0.950 . S
C639 C656 1.574 . S
C639 C658 1.368 . S
C639 H663 0.949 . S
H640 C644 0.949 . S
C641 C642 1.349 . S
C641 C643 1.327 . S
C641 H664 0.950 . S
C642 C641 1.349 . S
C642 C654 1.349 . S
C643 C641 1.327 . S
C643 C659 1.429 . S
C643 H665 0.950 . S
C644 H640 0.949 . S
C644 C652 1.574 . S
C644 C660 1.368 . S
H645 C653 0.950 . S
H646 C651 0.950 . S
H647 C652 0.949 . S
H648 C654 0.950 . S
H649 C655 0.950 . S
H650 C656 0.949 . S
C651 H646 0.950 . S
C651 C653 1.327 . S
C651 C657 1.429 . S
C652 C644 1.574 . S
C652 H647 0.949 . S
C652 C658 1.368 . S
C653 C637 1.349 . S
C653 H645 0.950 . S
C653 C651 1.327 . S
C654 C642 1.349 . S
C654 H648 0.950 . S
C654 C655 1.327 . S
C655 H649 0.950 . S
C655 C654 1.327 . S
C655 C659 1.429 . S
C656 C639 1.574 . S
C656 H650 0.949 . S
C656 C660 1.368 . S
C657 C638 1.429 . S
C657 C651 1.429 . S
C657 C658 1.523 . S
C658 C639 1.368 . S
C658 C652 1.368 . S
C658 C657 1.523 . S
C659 C643 1.429 . S
C659 C655 1.429 . S
C659 C660 1.523 . S
C660 C644 1.368 . S
C660 C656 1.368 . S
C660 C659 1.523 . S
H661 C636 0.950 . S
H662 C638 0.950 . S
H663 C639 0.949 . S
H664 C641 0.950 . S
H665 C643 0.950 . S
C666 C667 1.349 . S
C666 C668 1.327 . S
C666 H691 0.950 . S
C667 C666 1.349 . S
C667 C683 1.349 . S
C668 C666 1.327 . S
C668 C687 1.429 . S
C668 H692 0.950 . S
C669 C686 1.574 1_554 S
C669 C688 1.368 . S
C669 H693 0.949 . S
H670 C674 0.949 . S
C671 C672 1.349 . S
C671 C673 1.327 . S
C671 H694 0.950 . S
C672 C671 1.349 . S
C672 C684 1.349 . S
C673 C671 1.327 . S
C673 C689 1.429 . S
C673 H695 0.950 . S
C674 H670 0.949 . S
C674 C682 1.574 1_556 S
C674 C690 1.368 . S
H675 C683 0.950 . S
H676 C681 0.950 . S
H677 C682 0.949 . S
H678 C684 0.950 . S
H679 C685 0.950 . S
H680 C686 0.949 . S
C681 H676 0.950 . S
C681 C683 1.327 . S
C681 C687 1.429 . S
C682 C674 1.574 1_554 S
C682 H677 0.949 . S
C682 C688 1.368 . S
C683 C667 1.349 . S
C683 H675 0.950 . S
C683 C681 1.327 . S
C684 C672 1.349 . S
C684 H678 0.950 . S
C684 C685 1.327 . S
C685 H679 0.950 . S
C685 C684 1.327 . S
C685 C689 1.429 . S
C686 C669 1.574 1_556 S
C686 H680 0.949 . S
C686 C690 1.368 . S
C687 C668 1.429 . S
C687 C681 1.429 . S
C687 C688 1.523 . S
C688 C669 1.368 . S
C688 C682 1.368 . S
C688 C687 1.523 . S
C689 C673 1.429 . S
C689 C685 1.429 . S
C689 C690 1.523 . S
C690 C674 1.368 . S
C690 C686 1.368 . S
C690 C689 1.523 . S
H691 C666 0.950 . S
H692 C668 0.950 . S
H693 C669 0.949 . S
H694 C671 0.950 . S
H695 C673 0.950 . S
C696 C697 1.349 . S
C696 C698 1.327 . S
C696 H721 0.950 . S
C697 C696 1.349 . S
C697 C713 1.349 . S
C698 C696 1.327 . S
C698 C717 1.429 . S
C698 H722 0.950 . S
C699 C716 1.574 . S
C699 C718 1.368 . S
C699 H723 0.949 . S
H700 C704 0.949 . S
C701 C702 1.349 . S
C701 C703 1.327 . S
C701 H724 0.950 . S
C702 C701 1.349 . S
C702 C714 1.349 . S
C703 C701 1.327 . S
C703 C719 1.429 . S
C703 H725 0.950 . S
C704 H700 0.949 . S
C704 C712 1.574 . S
C704 C720 1.368 . S
H705 C713 0.950 . S
H706 C711 0.950 . S
H707 C712 0.949 . S
H708 C714 0.950 . S
H709 C715 0.950 . S
H710 C716 0.949 . S
C711 H706 0.950 . S
C711 C713 1.327 . S
C711 C717 1.429 . S
C712 C704 1.574 . S
C712 H707 0.949 . S
C712 C718 1.368 . S
C713 C697 1.349 . S
C713 H705 0.950 . S
C713 C711 1.327 . S
C714 C702 1.349 . S
C714 H708 0.950 . S
C714 C715 1.327 . S
C715 H709 0.950 . S
C715 C714 1.327 . S
C715 C719 1.429 . S
C716 C699 1.574 . S
C716 H710 0.949 . S
C716 C720 1.368 . S
C717 C698 1.429 . S
C717 C711 1.429 . S
C717 C718 1.523 . S
C718 C699 1.368 . S
C718 C712 1.368 . S
C718 C717 1.523 . S
C719 C703 1.429 . S
C719 C715 1.429 . S
C719 C720 1.523 . S
C720 C704 1.368 . S
C720 C716 1.368 . S
C720 C719 1.523 . S
H721 C696 0.950 . S
H722 C698 0.950 . S
H723 C699 0.949 . S
H724 C701 0.950 . S
H725 C703 0.950 . S
C726 C727 1.349 . S
C726 C728 1.327 . S
C726 H751 0.950 . S
C727 C726 1.349 . S
C727 C743 1.349 . S
C728 C726 1.327 . S
C728 C747 1.429 . S
C728 H752 0.950 . S
C729 C746 1.574 1_554 S
C729 C748 1.368 . S
C729 H753 0.949 . S
H730 C734 0.949 . S
C731 C732 1.349 . S
C731 C733 1.327 . S
C731 H754 0.950 . S
C732 C731 1.349 . S
C732 C744 1.349 . S
C733 C731 1.327 . S
C733 C749 1.429 . S
C733 H755 0.950 . S
C734 H730 0.949 . S
C734 C742 1.574 1_556 S
C734 C750 1.368 . S
H735 C743 0.950 . S
H736 C741 0.950 . S
H737 C742 0.949 . S
H738 C744 0.950 . S
H739 C745 0.950 . S
H740 C746 0.949 . S
C741 H736 0.950 . S
C741 C743 1.327 . S
C741 C747 1.429 . S
C742 C734 1.574 1_554 S
C742 H737 0.949 . S
C742 C748 1.368 . S
C743 C727 1.349 . S
C743 H735 0.950 . S
C743 C741 1.327 . S
C744 C732 1.349 . S
C744 H738 0.950 . S
C744 C745 1.327 . S
C745 H739 0.950 . S
C745 C744 1.327 . S
C745 C749 1.429 . S
C746 C729 1.574 1_556 S
C746 H740 0.949 . S
C746 C750 1.368 . S
C747 C728 1.429 . S
C747 C741 1.429 . S
C747 C748 1.523 . S
C748 C729 1.368 . S
C748 C742 1.368 . S
C748 C747 1.523 . S
C749 C733 1.429 . S
C749 C745 1.429 . S
C749 C750 1.523 . S
C750 C734 1.368 . S
C750 C746 1.368 . S
C750 C749 1.523 . S
H751 C726 0.950 . S
H752 C728 0.950 . S
H753 C729 0.949 . S
H754 C731 0.950 . S
H755 C733 0.950 . S
C756 C757 1.349 . S
C756 C758 1.327 . S
C756 H781 0.950 . S
C757 C756 1.349 . S
C757 C773 1.349 . S
C758 C756 1.327 . S
C758 C777 1.429 . S
C758 H782 0.950 . S
C759 C776 1.574 . S
C759 C778 1.368 . S
C759 H783 0.949 . S
H760 C764 0.949 . S
C761 C762 1.349 . S
C761 C763 1.327 . S
C761 H784 0.950 . S
C762 C761 1.349 . S
C762 C774 1.349 . S
C763 C761 1.327 . S
C763 C779 1.429 . S
C763 H785 0.950 . S
C764 H760 0.949 . S
C764 C772 1.574 . S
C764 C780 1.368 . S
H765 C773 0.950 . S
H766 C771 0.950 . S
H767 C772 0.949 . S
H768 C774 0.950 . S
H769 C775 0.950 . S
H770 C776 0.949 . S
C771 H766 0.950 . S
C771 C773 1.327 . S
C771 C777 1.429 . S
C772 C764 1.574 . S
C772 H767 0.949 . S
C772 C778 1.368 . S
C773 C757 1.349 . S
C773 H765 0.950 . S
C773 C771 1.327 . S
C774 C762 1.349 . S
C774 H768 0.950 . S
C774 C775 1.327 . S
C775 H769 0.950 . S
C775 C774 1.327 . S
C775 C779 1.429 . S
C776 C759 1.574 . S
C776 H770 0.949 . S
C776 C780 1.368 . S
C777 C758 1.429 . S
C777 C771 1.429 . S
C777 C778 1.523 . S
C778 C759 1.368 . S
C778 C772 1.368 . S
C778 C777 1.523 . S
C779 C763 1.429 . S
C779 C775 1.429 . S
C779 C780 1.523 . S
C780 C764 1.368 . S
C780 C776 1.368 . S
C780 C779 1.523 . S
H781 C756 0.950 . S
H782 C758 0.950 . S
H783 C759 0.949 . S
H784 C761 0.950 . S
H785 C763 0.950 . S
C786 C787 1.349 . S
C786 C788 1.327 . S
C786 H811 0.950 . S
C787 C786 1.349 . S
C787 C803 1.349 . S
C788 C786 1.327 . S
C788 C807 1.429 . S
C788 H812 0.950 . S
C789 C806 1.574 1_554 S
C789 C808 1.368 . S
C789 H813 0.949 . S
H790 C794 0.949 . S
C791 C792 1.349 . S
C791 C793 1.327 . S
C791 H814 0.950 . S
C792 C791 1.349 . S
C792 C804 1.349 . S
C793 C791 1.327 . S
C793 C809 1.429 . S
C793 H815 0.950 . S
C794 H790 0.949 . S
C794 C802 1.574 1_556 S
C794 C810 1.368 . S
H795 C803 0.950 . S
H796 C801 0.950 . S
H797 C802 0.949 . S
H798 C804 0.950 . S
H799 C805 0.950 . S
H800 C806 0.949 . S
C801 H796 0.950 . S
C801 C803 1.327 . S
C801 C807 1.429 . S
C802 C794 1.574 1_554 S
C802 H797 0.949 . S
C802 C808 1.368 . S
C803 C787 1.349 . S
C803 H795 0.950 . S
C803 C801 1.327 . S
C804 C792 1.349 . S
C804 H798 0.950 . S
C804 C805 1.327 . S
C805 H799 0.950 . S
C805 C804 1.327 . S
C805 C809 1.429 . S
C806 C789 1.574 1_556 S
C806 H800 0.949 . S
C806 C810 1.368 . S
C807 C788 1.429 . S
C807 C801 1.429 . S
C807 C808 1.523 . S
C808 C789 1.368 . S
C808 C802 1.368 . S
C808 C807 1.523 . S
C809 C793 1.429 . S
C809 C805 1.429 . S
C809 C810 1.523 . S
C810 C794 1.368 . S
C810 C806 1.368 . S
C810 C809 1.523 . S
H811 C786 0.950 . S
H812 C788 0.950 . S
H813 C789 0.949 . S
H814 C791 0.950 . S
H815 C793 0.950 . S
C816 C817 1.349 . S
C816 C818 1.327 . S
C816 H841 0.950 . S
C817 C816 1.349 . S
C817 C833 1.349 . S
C818 C816 1.327 . S
C818 C837 1.429 . S
C818 H842 0.950 . S
C819 C836 1.574 . S
C819 C838 1.368 . S
C819 H843 0.949 . S
H820 C824 0.949 . S
C821 C822 1.349 . S
C821 C823 1.327 . S
C821 H844 0.950 . S
C822 C821 1.349 . S
C822 C834 1.349 . S
C823 C821 1.327 . S
C823 C839 1.429 . S
C823 H845 0.950 . S
C824 H820 0.949 . S
C824 C832 1.574 . S
C824 C840 1.368 . S
H825 C833 0.950 . S
H826 C831 0.950 . S
H827 C832 0.949 . S
H828 C834 0.950 . S
H829 C835 0.950 . S
H830 C836 0.949 . S
C831 H826 0.950 . S
C831 C833 1.327 . S
C831 C837 1.429 . S
C832 C824 1.574 . S
C832 H827 0.949 . S
C832 C838 1.368 . S
C833 C817 1.349 . S
C833 H825 0.950 . S
C833 C831 1.327 . S
C834 C822 1.349 . S
C834 H828 0.950 . S
C834 C835 1.327 . S
C835 H829 0.950 . S
C835 C834 1.327 . S
C835 C839 1.429 . S
C836 C819 1.574 . S
C836 H830 0.949 . S
C836 C840 1.368 . S
C837 C818 1.429 . S
C837 C831 1.429 . S
C837 C838 1.523 . S
C838 C819 1.368 . S
C838 C832 1.368 . S
C838 C837 1.523 . S
C839 C823 1.429 . S
C839 C835 1.429 . S
C839 C840 1.523 . S
C840 C824 1.368 . S
C840 C836 1.368 . S
C840 C839 1.523 . S
H841 C816 0.950 . S
H842 C818 0.950 . S
H843 C819 0.949 . S
H844 C821 0.950 . S
H845 C823 0.950 . S
C846 C847 1.349 . S
C846 C848 1.327 . S
C846 H871 0.950 . S
C847 C846 1.349 . S
C847 C863 1.349 . S
C848 C846 1.327 . S
C848 C867 1.429 . S
C848 H872 0.950 . S
C849 C866 1.574 . S
C849 C868 1.368 . S
C849 H873 0.949 . S
H850 C854 0.949 . S
C851 C852 1.349 . S
C851 C853 1.327 . S
C851 H874 0.950 . S
C852 C851 1.349 . S
C852 C864 1.349 . S
C853 C851 1.327 . S
C853 C869 1.429 . S
C853 H875 0.950 . S
C854 H850 0.949 . S
C854 C862 1.574 . S
C854 C870 1.368 . S
H855 C863 0.950 . S
H856 C861 0.950 . S
H857 C862 0.949 . S
H858 C864 0.950 . S
H859 C865 0.950 . S
H860 C866 0.949 . S
C861 H856 0.950 . S
C861 C863 1.327 . S
C861 C867 1.429 . S
C862 C854 1.574 . S
C862 H857 0.949 . S
C862 C868 1.368 . S
C863 C847 1.349 . S
C863 H855 0.950 . S
C863 C861 1.327 . S
C864 C852 1.349 . S
C864 H858 0.950 . S
C864 C865 1.327 . S
C865 H859 0.950 . S
C865 C864 1.327 . S
C865 C869 1.429 . S
C866 C849 1.574 . S
C866 H860 0.949 . S
C866 C870 1.368 . S
C867 C848 1.429 . S
C867 C861 1.429 . S
C867 C868 1.523 . S
C868 C849 1.368 . S
C868 C862 1.368 . S
C868 C867 1.523 . S
C869 C853 1.429 . S
C869 C865 1.429 . S
C869 C870 1.523 . S
C870 C854 1.368 . S
C870 C866 1.368 . S
C870 C869 1.523 . S
H871 C846 0.950 . S
H872 C848 0.950 . S
H873 C849 0.949 . S
H874 C851 0.950 . S
H875 C853 0.950 . S
C876 C877 1.349 . S
C876 C878 1.327 . S
C876 H901 0.950 . S
C877 C876 1.349 . S
C877 C893 1.349 . S
C878 C876 1.327 . S
C878 C897 1.429 . S
C878 H902 0.950 . S
C879 C896 1.574 1_565 S
C879 C898 1.368 . S
C879 H903 0.949 . S
H880 C884 0.949 . S
C881 C882 1.349 . S
C881 C883 1.327 . S
C881 H904 0.950 . S
C882 C881 1.349 . S
C882 C894 1.349 . S
C883 C881 1.327 . S
C883 C899 1.429 . S
C883 H905 0.950 . S
C884 H880 0.949 . S
C884 C892 1.574 1_545 S
C884 C900 1.368 . S
H885 C893 0.950 . S
H886 C891 0.950 . S
H887 C892 0.949 . S
H888 C894 0.950 . S
H889 C895 0.950 . S
H890 C896 0.949 . S
C891 H886 0.950 . S
C891 C893 1.327 . S
C891 C897 1.429 . S
C892 C884 1.574 1_565 S
C892 H887 0.949 . S
C892 C898 1.368 . S
C893 C877 1.349 . S
C893 H885 0.950 . S
C893 C891 1.327 . S
C894 C882 1.349 . S
C894 H888 0.950 . S
C894 C895 1.327 . S
C895 H889 0.950 . S
C895 C894 1.327 . S
C895 C899 1.429 . S
C896 C879 1.574 1_545 S
C896 H890 0.949 . S
C896 C900 1.368 . S
C897 C878 1.429 . S
C897 C891 1.429 . S
C897 C898 1.523 . S
C898 C879 1.368 . S
C898 C892 1.368 . S
C898 C897 1.523 . S
C899 C883 1.429 . S
C899 C895 1.429 . S
C899 C900 1.523 . S
C900 C884 1.368 . S
C900 C896 1.368 . S
C900 C899 1.523 . S
H901 C876 0.950 . S
H902 C878 0.950 . S
H903 C879 0.949 . S
H904 C881 0.950 . S
H905 C883 0.950 . S
C906 C907 1.349 . S
C906 C908 1.327 . S
C906 H931 0.950 . S
C907 C906 1.349 . S
C907 C923 1.349 . S
C908 C906 1.327 . S
C908 C927 1.429 . S
C908 H932 0.950 . S
C909 C926 1.574 . S
C909 C928 1.368 . S
C909 H933 0.949 . S
H910 C914 0.949 . S
C911 C912 1.349 . S
C911 C913 1.327 . S
C911 H934 0.950 . S
C912 C911 1.349 . S
C912 C924 1.349 . S
C913 C911 1.327 . S
C913 C929 1.429 . S
C913 H935 0.950 . S
C914 H910 0.949 . S
C914 C922 1.574 . S
C914 C930 1.368 . S
H915 C923 0.950 . S
H916 C921 0.950 . S
H917 C922 0.949 . S
H918 C924 0.950 . S
H919 C925 0.950 . S
H920 C926 0.949 . S
C921 H916 0.950 . S
C921 C923 1.327 . S
C921 C927 1.429 . S
C922 C914 1.574 . S
C922 H917 0.949 . S
C922 C928 1.368 . S
C923 C907 1.349 . S
C923 H915 0.950 . S
C923 C921 1.327 . S
C924 C912 1.349 . S
C924 H918 0.950 . S
C924 C925 1.327 . S
C925 H919 0.950 . S
C925 C924 1.327 . S
C925 C929 1.429 . S
C926 C909 1.574 . S
C926 H920 0.949 . S
C926 C930 1.368 . S
C927 C908 1.429 . S
C927 C921 1.429 . S
C927 C928 1.523 . S
C928 C909 1.368 . S
C928 C922 1.368 . S
C928 C927 1.523 . S
C929 C913 1.429 . S
C929 C925 1.429 . S
C929 C930 1.523 . S
C930 C914 1.368 . S
C930 C926 1.368 . S
C930 C929 1.523 . S
H931 C906 0.950 . S
H932 C908 0.950 . S
H933 C909 0.949 . S
H934 C911 0.950 . S
H935 C913 0.950 . S
C936 C937 1.349 . S
C936 C938 1.327 . S
C936 H961 0.950 . S
C937 C936 1.349 . S
C937 C953 1.349 . S
C938 C936 1.327 . S
C938 C957 1.429 . S
C938 H962 0.950 . S
C939 C956 1.574 1_565 S
C939 C958 1.368 . S
C939 H963 0.949 . S
H940 C944 0.949 . S
C941 C942 1.349 . S
C941 C943 1.327 . S
C941 H964 0.950 . S
C942 C941 1.349 . S
C942 C954 1.349 . S
C943 C941 1.327 . S
C943 C959 1.429 . S
C943 H965 0.950 . S
C944 H940 0.949 . S
C944 C952 1.574 1_545 S
C944 C960 1.368 . S
H945 C953 0.950 . S
H946 C951 0.950 . S
H947 C952 0.949 . S
H948 C954 0.950 . S
H949 C955 0.950 . S
H950 C956 0.949 . S
C951 H946 0.950 . S
C951 C953 1.327 . S
C951 C957 1.429 . S
C952 C944 1.574 1_565 S
C952 H947 0.949 . S
C952 C958 1.368 . S
C953 C937 1.349 . S
C953 H945 0.950 . S
C953 C951 1.327 . S
C954 C942 1.349 . S
C954 H948 0.950 . S
C954 C955 1.327 . S
C955 H949 0.950 . S
C955 C954 1.327 . S
C955 C959 1.429 . S
C956 C939 1.574 1_545 S
C956 H950 0.949 . S
C956 C960 1.368 . S
C957 C938 1.429 . S
C957 C951 1.429 . S
C957 C958 1.523 . S
C958 C939 1.368 . S
C958 C952 1.368 . S
C958 C957 1.523 . S
C959 C943 1.429 . S
C959 C955 1.429 . S
C959 C960 1.523 . S
C960 C944 1.368 . S
C960 C956 1.368 . S
C960 C959 1.523 . S
H961 C936 0.950 . S
H962 C938 0.950 . S
H963 C939 0.949 . S
H964 C941 0.950 . S
H965 C943 0.950 . S
C966 C967 1.349 . S
C966 C968 1.327 . S
C966 H991 0.950 . S
C967 C966 1.349 . S
C967 C983 1.349 . S
C968 C966 1.327 . S
C968 C987 1.429 . S
C968 H992 0.950 . S
C969 C986 1.574 . S
C969 C988 1.368 . S
C969 H993 0.949 . S
H970 C974 0.949 . S
C971 C972 1.349 . S
C971 C973 1.327 . S
C971 H994 0.950 . S
C972 C971 1.349 . S
C972 C984 1.349 . S
C973 C971 1.327 . S
C973 C989 1.429 . S
C973 H995 0.950 . S
C974 H970 0.949 . S
C974 C982 1.574 . S
C974 C990 1.368 . S
H975 C983 0.950 . S
H976 C981 0.950 . S
H977 C982 0.949 . S
H978 C984 0.950 . S
H979 C985 0.950 . S
H980 C986 0.949 . S
C981 H976 0.950 . S
C981 C983 1.327 . S
C981 C987 1.429 . S
C982 C974 1.574 . S
C982 H977 0.949 . S
C982 C988 1.368 . S
C983 C967 1.349 . S
C983 H975 0.950 . S
C983 C981 1.327 . S
C984 C972 1.349 . S
C984 H978 0.950 . S
C984 C985 1.327 . S
C985 H979 0.950 . S
C985 C984 1.327 . S
C985 C989 1.429 . S
C986 C969 1.574 . S
C986 H980 0.949 . S
C986 C990 1.368 . S
C987 C968 1.429 . S
C987 C981 1.429 . S
C987 C988 1.523 . S
C988 C969 1.368 . S
C988 C982 1.368 . S
C988 C987 1.523 . S
C989 C973 1.429 . S
C989 C985 1.429 . S
C989 C990 1.523 . S
C990 C974 1.368 . S
C990 C986 1.368 . S
C990 C989 1.523 . S
H991 C966 0.950 . S
H992 C968 0.950 . S
H993 C969 0.949 . S
H994 C971 0.950 . S
H995 C973 0.950 . S
C996 C997 1.349 . S
C996 C998 1.327 . S
C996 H1021 0.950 . S
C997 C996 1.349 . S
C997 C1013 1.349 . S
C998 C996 1.327 . S
C998 C1017 1.429 . S
C998 H1022 0.950 . S
C999 C1016 1.574 1_565 S
C999 C1018 1.368 . S
C999 H1023 0.949 . S
H1000 C1004 0.949 . S
C1001 C1002 1.349 . S
C1001 C1003 1.327 . S
C1001 H1024 0.950 . S
C1002 C1001 1.349 . S
C1002 C1014 1.349 . S
C1003 C1001 1.327 . S
C1003 C1019 1.429 . S
C1003 H1025 0.950 . S
C1004 H1000 0.949 . S
C1004 C1012 1.574 1_545 S
C1004 C1020 1.368 . S
H1005 C1013 0.950 . S
H1006 C1011 0.950 . S
H1007 C1012 0.949 . S
H1008 C1014 0.950 . S
H1009 C1015 0.950 . S
H1010 C1016 0.949 . S
C1011 H1006 0.950 . S
C1011 C1013 1.327 . S
C1011 C1017 1.429 . S
C1012 C1004 1.574 1_565 S
C1012 H1007 0.949 . S
C1012 C1018 1.368 . S
C1013 C997 1.349 . S
C1013 H1005 0.950 . S
C1013 C1011 1.327 . S
C1014 C1002 1.349 . S
C1014 H1008 0.950 . S
C1014 C1015 1.327 . S
C1015 H1009 0.950 . S
C1015 C1014 1.327 . S
C1015 C1019 1.429 . S
C1016 C999 1.574 1_545 S
C1016 H1010 0.949 . S
C1016 C1020 1.368 . S
C1017 C998 1.429 . S
C1017 C1011 1.429 . S
C1017 C1018 1.523 . S
C1018 C999 1.368 . S
C1018 C1012 1.368 . S
C1018 C1017 1.523 . S
C1019 C1003 1.429 . S
C1019 C1015 1.429 . S
C1019 C1020 1.523 . S
C1020 C1004 1.368 . S
C1020 C1016 1.368 . S
C1020 C1019 1.523 . S
H1021 C996 0.950 . S
H1022 C998 0.950 . S
H1023 C999 0.949 . S
H1024 C1001 0.950 . S
H1025 C1003 0.950 . S
C1026 C1027 1.349 . S
C1026 C1028 1.327 . S
C1026 H1051 0.950 . S
C1027 C1026 1.349 . S
C1027 C1043 1.349 . S
C1028 C1026 1.327 . S
C1028 C1047 1.429 . S
C1028 H1052 0.950 . S
C1029 C1046 1.574 1_545 S
C1029 C1048 1.368 . S
C1029 H1053 0.949 . S
H1030 C1034 0.949 . S
C1031 C1032 1.349 . S
C1031 C1033 1.327 . S
C1031 H1054 0.950 . S
C1032 C1031 1.349 . S
C1032 C1044 1.349 . S
C1033 C1031 1.327 . S
C1033 C1049 1.429 . S
C1033 H1055 0.950 . S
C1034 H1030 0.949 . S
C1034 C1042 1.574 1_565 S
C1034 C1050 1.368 . S
H1035 C1043 0.950 . S
H1036 C1041 0.950 . S
H1037 C1042 0.949 . S
H1038 C1044 0.950 . S
H1039 C1045 0.950 . S
H1040 C1046 0.949 . S
C1041 H1036 0.950 . S
C1041 C1043 1.327 . S
C1041 C1047 1.429 . S
C1042 C1034 1.574 1_545 S
C1042 H1037 0.949 . S
C1042 C1048 1.368 . S
C1043 C1027 1.349 . S
C1043 H1035 0.950 . S
C1043 C1041 1.327 . S
C1044 C1032 1.349 . S
C1044 H1038 0.950 . S
C1044 C1045 1.327 . S
C1045 H1039 0.950 . S
C1045 C1044 1.327 . S
C1045 C1049 1.429 . S
C1046 C1029 1.574 1_565 S
C1046 H1040 0.949 . S
C1046 C1050 1.368 . S
C1047 C1028 1.429 . S
C1047 C1041 1.429 . S
C1047 C1048 1.523 . S
C1048 C1029 1.368 . S
C1048 C1042 1.368 . S
C1048 C1047 1.523 . S
C1049 C1033 1.429 . S
C1049 C1045 1.429 . S
C1049 C1050 1.523 . S
C1050 C1034 1.368 . S
C1050 C1046 1.368 . S
C1050 C1049 1.523 . S
H1051 C1026 0.950 . S
H1052 C1028 0.950 . S
H1053 C1029 0.949 . S
H1054 C1031 0.950 . S
H1055 C1033 0.950 . S
C1056 C1057 1.349 . S
C1056 C1058 1.327 . S
C1056 H1081 0.950 . S
C1057 C1056 1.349 . S
C1057 C1073 1.349 . S
C1058 C1056 1.327 . S
C1058 C1077 1.429 . S
C1058 H1082 0.950 . S
C1059 C1076 1.574 . S
C1059 C1078 1.368 . S
C1059 H1083 0.949 . S
H1060 C1064 0.949 . S
C1061 C1062 1.349 . S
C1061 C1063 1.327 . S
C1061 H1084 0.950 . S
C1062 C1061 1.349 . S
C1062 C1074 1.349 . S
C1063 C1061 1.327 . S
C1063 C1079 1.429 . S
C1063 H1085 0.950 . S
C1064 H1060 0.949 . S
C1064 C1072 1.574 . S
C1064 C1080 1.368 . S
H1065 C1073 0.950 . S
H1066 C1071 0.950 . S
H1067 C1072 0.949 . S
H1068 C1074 0.950 . S
H1069 C1075 0.950 . S
H1070 C1076 0.949 . S
C1071 H1066 0.950 . S
C1071 C1073 1.327 . S
C1071 C1077 1.429 . S
C1072 C1064 1.574 . S
C1072 H1067 0.949 . S
C1072 C1078 1.368 . S
C1073 C1057 1.349 . S
C1073 H1065 0.950 . S
C1073 C1071 1.327 . S
C1074 C1062 1.349 . S
C1074 H1068 0.950 . S
C1074 C1075 1.327 . S
C1075 H1069 0.950 . S
C1075 C1074 1.327 . S
C1075 C1079 1.429 . S
C1076 C1059 1.574 . S
C1076 H1070 0.949 . S
C1076 C1080 1.368 . S
C1077 C1058 1.429 . S
C1077 C1071 1.429 . S
C1077 C1078 1.523 . S
C1078 C1059 1.368 . S
C1078 C1072 1.368 . S
C1078 C1077 1.523 . S
C1079 C1063 1.429 . S
C1079 C1075 1.429 . S
C1079 C1080 1.523 . S
C1080 C1064 1.368 . S
C1080 C1076 1.368 . S
C1080 C1079 1.523 . S
H1081 C1056 0.950 . S
H1082 C1058 0.950 . S
H1083 C1059 0.949 . S
H1084 C1061 0.950 . S
H1085 C1063 0.950 . S
C1086 C1087 1.349 . S
C1086 C1088 1.327 . S
C1086 H1111 0.950 . S
C1087 C1086 1.349 . S
C1087 C1103 1.349 . S
C1088 C1086 1.327 . S
C1088 C1107 1.429 . S
C1088 H1112 0.950 . S
C1089 C1106 1.574 . S
C1089 C1108 1.368 . S
C1089 H1113 0.949 . S
H1090 C1094 0.949 . S
C1091 C1092 1.349 . S
C1091 C1093 1.327 . S
C1091 H1114 0.950 . S
C1092 C1091 1.349 . S
C1092 C1104 1.349 . S
C1093 C1091 1.327 . S
C1093 C1109 1.429 . S
C1093 H1115 0.950 . S
C1094 H1090 0.949 . S
C1094 C1102 1.574 . S
C1094 C1110 1.368 . S
H1095 C1103 0.950 . S
H1096 C1101 0.950 . S
H1097 C1102 0.949 . S
H1098 C1104 0.950 . S
H1099 C1105 0.950 . S
H1100 C1106 0.949 . S
C1101 H1096 0.950 . S
C1101 C1103 1.327 . S
C1101 C1107 1.429 . S
C1102 C1094 1.574 . S
C1102 H1097 0.949 . S
C1102 C1108 1.368 . S
C1103 C1087 1.349 . S
C1103 H1095 0.950 . S
C1103 C1101 1.327 . S
C1104 C1092 1.349 . S
C1104 H1098 0.950 . S
C1104 C1105 1.327 . S
C1105 H1099 0.950 . S
C1105 C1104 1.327 . S
C1105 C1109 1.429 . S
C1106 C1089 1.574 . S
C1106 H1100 0.949 . S
C1106 C1110 1.368 . S
C1107 C1088 1.429 . S
C1107 C1101 1.429 . S
C1107 C1108 1.523 . S
C1108 C1089 1.368 . S
C1108 C1102 1.368 . S
C1108 C1107 1.523 . S
C1109 C1093 1.429 . S
C1109 C1105 1.429 . S
C1109 C1110 1.523 . S
C1110 C1094 1.368 . S
C1110 C1106 1.368 . S
C1110 C1109 1.523 . S
H1111 C1086 0.950 . S
H1112 C1088 0.950 . S
H1113 C1089 0.949 . S
H1114 C1091 0.950 . S
H1115 C1093 0.950 . S
C1116 C1117 1.349 . S
C1116 C1118 1.327 . S
C1116 H1141 0.950 . S
C1117 C1116 1.349 . S
C1117 C1133 1.349 . S
C1118 C1116 1.327 . S
C1118 C1137 1.429 . S
C1118 H1142 0.950 . S
C1119 C1136 1.574 . S
C1119 C1138 1.368 . S
C1119 H1143 0.949 . S
H1120 C1124 0.949 . S
C1121 C1122 1.349 . S
C1121 C1123 1.327 . S
C1121 H1144 0.950 . S
C1122 C1121 1.349 . S
C1122 C1134 1.349 . S
C1123 C1121 1.327 . S
C1123 C1139 1.429 . S
C1123 H1145 0.950 . S
C1124 H1120 0.949 . S
C1124 C1132 1.574 . S
C1124 C1140 1.368 . S
H1125 C1133 0.950 . S
H1126 C1131 0.950 . S
H1127 C1132 0.949 . S
H1128 C1134 0.950 . S
H1129 C1135 0.950 . S
H1130 C1136 0.949 . S
C1131 H1126 0.950 . S
C1131 C1133 1.327 . S
C1131 C1137 1.429 . S
C1132 C1124 1.574 . S
C1132 H1127 0.949 . S
C1132 C1138 1.368 . S
C1133 C1117 1.349 . S
C1133 H1125 0.950 . S
C1133 C1131 1.327 . S
C1134 C1122 1.349 . S
C1134 H1128 0.950 . S
C1134 C1135 1.327 . S
C1135 H1129 0.950 . S
C1135 C1134 1.327 . S
C1135 C1139 1.429 . S
C1136 C1119 1.574 . S
C1136 H1130 0.949 . S
C1136 C1140 1.368 . S
C1137 C1118 1.429 . S
C1137 C1131 1.429 . S
C1137 C1138 1.523 . S
C1138 C1119 1.368 . S
C1138 C1132 1.368 . S
C1138 C1137 1.523 . S
C1139 C1123 1.429 . S
C1139 C1135 1.429 . S
C1139 C1140 1.523 . S
C1140 C1124 1.368 . S
C1140 C1136 1.368 . S
C1140 C1139 1.523 . S
H1141 C1116 0.950 . S
H1142 C1118 0.950 . S
H1143 C1119 0.949 . S
H1144 C1121 0.950 . S
H1145 C1123 0.950 . S
C1146 C1147 1.349 . S
C1146 C1148 1.327 . S
C1146 H1171 0.950 . S
C1147 C1146 1.349 . S
C1147 C1163 1.349 . S
C1148 C1146 1.327 . S
C1148 C1167 1.429 . S
C1148 H1172 0.950 . S
C1149 C1166 1.574 . S
C1149 C1168 1.368 . S
C1149 H1173 0.949 . S
H1150 C1154 0.949 . S
C1151 C1152 1.349 . S
C1151 C1153 1.327 . S
C1151 H1174 0.950 . S
C1152 C1151 1.349 . S
C1152 C1164 1.349 . S
C1153 C1151 1.327 . S
C1153 C1169 1.429 . S
C1153 H1175 0.950 . S
C1154 H1150 0.949 . S
C1154 C1162 1.574 . S
C1154 C1170 1.368 . S
H1155 C1163 0.950 . S
H1156 C1161 0.950 . S
H1157 C1162 0.949 . S
H1158 C1164 0.950 . S
H1159 C1165 0.950 . S
H1160 C1166 0.949 . S
C1161 H1156 0.950 . S
C1161 C1163 1.327 . S
C1161 C1167 1.429 . S
C1162 C1154 1.574 . S
C1162 H1157 0.949 . S
C1162 C1168 1.368 . S
C1163 C1147 1.349 . S
C1163 H1155 0.950 . S
C1163 C1161 1.327 . S
C1164 C1152 1.349 . S
C1164 H1158 0.950 . S
C1164 C1165 1.327 . S
C1165 H1159 0.950 . S
C1165 C1164 1.327 . S
C1165 C1169 1.429 . S
C1166 C1149 1.574 . S
C1166 H1160 0.949 . S
C1166 C1170 1.368 . S
C1167 C1148 1.429 . S
C1167 C1161 1.429 . S
C1167 C1168 1.523 . S
C1168 C1149 1.368 . S
C1168 C1162 1.368 . S
C1168 C1167 1.523 . S
C1169 C1153 1.429 . S
C1169 C1165 1.429 . S
C1169 C1170 1.523 . S
C1170 C1154 1.368 . S
C1170 C1166 1.368 . S
C1170 C1169 1.523 . S
H1171 C1146 0.950 . S
H1172 C1148 0.950 . S
H1173 C1149 0.949 . S
H1174 C1151 0.950 . S
H1175 C1153 0.950 . S
C1176 C1177 1.349 . S
C1176 C1178 1.327 . S
C1176 H1201 0.950 . S
C1177 C1176 1.349 . S
C1177 C1193 1.349 . S
C1178 C1176 1.327 . S
C1178 C1197 1.429 . S
C1178 H1202 0.950 . S
C1179 C1196 1.574 . S
C1179 C1198 1.368 . S
C1179 H1203 0.949 . S
H1180 C1184 0.949 . S
C1181 C1182 1.349 . S
C1181 C1183 1.327 . S
C1181 H1204 0.950 . S
C1182 C1181 1.349 . S
C1182 C1194 1.349 . S
C1183 C1181 1.327 . S
C1183 C1199 1.429 . S
C1183 H1205 0.950 . S
C1184 H1180 0.949 . S
C1184 C1192 1.574 . S
C1184 C1200 1.368 . S
H1185 C1193 0.950 . S
H1186 C1191 0.950 . S
H1187 C1192 0.949 . S
H1188 C1194 0.950 . S
H1189 C1195 0.950 . S
H1190 C1196 0.949 . S
C1191 H1186 0.950 . S
C1191 C1193 1.327 . S
C1191 C1197 1.429 . S
C1192 C1184 1.574 . S
C1192 H1187 0.949 . S
C1192 C1198 1.368 . S
C1193 C1177 1.349 . S
C1193 H1185 0.950 . S
C1193 C1191 1.327 . S
C1194 C1182 1.349 . S
C1194 H1188 0.950 . S
C1194 C1195 1.327 . S
C1195 H1189 0.950 . S
C1195 C1194 1.327 . S
C1195 C1199 1.429 . S
C1196 C1179 1.574 . S
C1196 H1190 0.949 . S
C1196 C1200 1.368 . S
C1197 C1178 1.429 . S
C1197 C1191 1.429 . S
C1197 C1198 1.523 . S
C1198 C1179 1.368 . S
C1198 C1192 1.368 . S
C1198 C1197 1.523 . S
C1199 C1183 1.429 . S
C1199 C1195 1.429 . S
C1199 C1200 1.523 . S
C1200 C1184 1.368 . S
C1200 C1196 1.368 . S
C1200 C1199 1.523 . S
H1201 C1176 0.950 . S
H1202 C1178 0.950 . S
H1203 C1179 0.949 . S
H1204 C1181 0.950 . S
H1205 C1183 0.950 . S
C1206 C1207 1.349 . S
C1206 C1208 1.327 . S
C1206 H1231 0.950 . S
C1207 C1206 1.349 . S
C1207 C1223 1.349 . S
C1208 C1206 1.327 . S
C1208 C1227 1.429 . S
C1208 H1232 0.950 . S
C1209 C1226 1.574 . S
C1209 C1228 1.368 . S
C1209 H1233 0.949 . S
H1210 C1214 0.949 . S
C1211 C1212 1.349 . S
C1211 C1213 1.327 . S
C1211 H1234 0.950 . S
C1212 C1211 1.349 . S
C1212 C1224 1.349 . S
C1213 C1211 1.327 . S
C1213 C1229 1.429 . S
C1213 H1235 0.950 . S
C1214 H1210 0.949 . S
C1214 C1222 1.574 . S
C1214 C1230 1.368 . S
H1215 C1223 0.950 . S
H1216 C1221 0.950 . S
H1217 C1222 0.949 . S
H1218 C1224 0.950 . S
H1219 C1225 0.950 . S
H1220 C1226 0.949 . S
C1221 H1216 0.950 . S
C1221 C1223 1.327 . S
C1221 C1227 1.429 . S
C1222 C1214 1.574 . S
C1222 H1217 0.949 . S
C1222 C1228 1.368 . S
C1223 C1207 1.349 . S
C1223 H1215 0.950 . S
C1223 C1221 1.327 . S
C1224 C1212 1.349 . S
C1224 H1218 0.950 . S
C1224 C1225 1.327 . S
C1225 H1219 0.950 . S
C1225 C1224 1.327 . S
C1225 C1229 1.429 . S
C1226 C1209 1.574 . S
C1226 H1220 0.949 . S
C1226 C1230 1.368 . S
C1227 C1208 1.429 . S
C1227 C1221 1.429 . S
C1227 C1228 1.523 . S
C1228 C1209 1.368 . S
C1228 C1222 1.368 . S
C1228 C1227 1.523 . S
C1229 C1213 1.429 . S
C1229 C1225 1.429 . S
C1229 C1230 1.523 . S
C1230 C1214 1.368 . S
C1230 C1226 1.368 . S
C1230 C1229 1.523 . S
H1231 C1206 0.950 . S
H1232 C1208 0.950 . S
H1233 C1209 0.949 . S
H1234 C1211 0.950 . S
H1235 C1213 0.950 . S
C1236 C1237 1.349 . S
C1236 C1238 1.327 . S
C1236 H1261 0.950 . S
C1237 C1236 1.349 . S
C1237 C1253 1.349 . S
C1238 C1236 1.327 . S
C1238 C1257 1.429 . S
C1238 H1262 0.950 . S
C1239 C1256 1.574 . S
C1239 C1258 1.368 . S
C1239 H1263 0.949 . S
H1240 C1244 0.949 . S
C1241 C1242 1.349 . S
C1241 C1243 1.327 . S
C1241 H1264 0.950 . S
C1242 C1241 1.349 . S
C1242 C1254 1.349 . S
C1243 C1241 1.327 . S
C1243 C1259 1.429 . S
C1243 H1265 0.950 . S
C1244 H1240 0.949 . S
C1244 C1252 1.574 . S
C1244 C1260 1.368 . S
H1245 C1253 0.950 . S
H1246 C1251 0.950 . S
H1247 C1252 0.949 . S
H1248 C1254 0.950 . S
H1249 C1255 0.950 . S
H1250 C1256 0.949 . S
C1251 H1246 0.950 . S
C1251 C1253 1.327 . S
C1251 C1257 1.429 . S
C1252 C1244 1.574 . S
C1252 H1247 0.949 . S
C1252 C1258 1.368 . S
C1253 C1237 1.349 . S
C1253 H1245 0.950 . S
C1253 C1251 1.327 . S
C1254 C1242 1.349 . S
C1254 H1248 0.950 . S
C1254 C1255 1.327 . S
C1255 H1249 0.950 . S
C1255 C1254 1.327 . S
C1255 C1259 1.429 . S
C1256 C1239 1.574 . S
C1256 H1250 0.949 . S
C1256 C1260 1.368 . S
C1257 C1238 1.429 . S
C1257 C1251 1.429 . S
C1257 C1258 1.523 . S
C1258 C1239 1.368 . S
C1258 C1252 1.368 . S
C1258 C1257 1.523 . S
C1259 C1243 1.429 . S
C1259 C1255 1.429 . S
C1259 C1260 1.523 . S
C1260 C1244 1.368 . S
C1260 C1256 1.368 . S
C1260 C1259 1.523 . S
H1261 C1236 0.950 . S
H1262 C1238 0.950 . S
H1263 C1239 0.949 . S
H1264 C1241 0.950 . S
H1265 C1243 0.950 . S
C1266 C1267 1.349 . S
C1266 C1268 1.327 . S
C1266 H1291 0.950 . S
C1267 C1266 1.349 . S
C1267 C1283 1.349 . S
C1268 C1266 1.327 . S
C1268 C1287 1.429 . S
C1268 H1292 0.950 . S
C1269 C1286 1.574 . S
C1269 C1288 1.368 . S
C1269 H1293 0.949 . S
H1270 C1274 0.949 . S
C1271 C1272 1.349 . S
C1271 C1273 1.327 . S
C1271 H1294 0.950 . S
C1272 C1271 1.349 . S
C1272 C1284 1.349 . S
C1273 C1271 1.327 . S
C1273 C1289 1.429 . S
C1273 H1295 0.950 . S
C1274 H1270 0.949 . S
C1274 C1282 1.574 . S
C1274 C1290 1.368 . S
H1275 C1283 0.950 . S
H1276 C1281 0.950 . S
H1277 C1282 0.949 . S
H1278 C1284 0.950 . S
H1279 C1285 0.950 . S
H1280 C1286 0.949 . S
C1281 H1276 0.950 . S
C1281 C1283 1.327 . S
C1281 C1287 1.429 . S
C1282 C1274 1.574 . S
C1282 H1277 0.949 . S
C1282 C1288 1.368 . S
C1283 C1267 1.349 . S
C1283 H1275 0.950 . S
C1283 C1281 1.327 . S
C1284 C1272 1.349 . S
C1284 H1278 0.950 . S
C1284 C1285 1.327 . S
C1285 H1279 0.950 . S
C1285 C1284 1.327 . S
C1285 C1289 1.429 . S
C1286 C1269 1.574 . S
C1286 H1280 0.949 . S
C1286 C1290 1.368 . S
C1287 C1268 1.429 . S
C1287 C1281 1.429 . S
C1287 C1288 1.523 . S
C1288 C1269 1.368 . S
C1288 C1282 1.368 . S
C1288 C1287 1.523 . S
C1289 C1273 1.429 . S
C1289 C1285 1.429 . S
C1289 C1290 1.523 . S
C1290 C1274 1.368 . S
C1290 C1286 1.368 . S
C1290 C1289 1.523 . S
H1291 C1266 0.950 . S
H1292 C1268 0.950 . S
H1293 C1269 0.949 . S
H1294 C1271 0.950 . S
H1295 C1273 0.950 . S
C1296 C1297 1.349 . S
C1296 C1298 1.327 . S
C1296 H1321 0.950 . S
C1297 C1296 1.349 . S
C1297 C1313 1.349 . S
C1298 C1296 1.327 . S
C1298 C1317 1.429 . S
C1298 H1322 0.950 . S
C1299 C1316 1.574 . S
C1299 C1318 1.368 . S
C1299 H1323 0.949 . S
H1300 C1304 0.949 . S
C1301 C1302 1.349 . S
C1301 C1303 1.327 . S
C1301 H1324 0.950 . S
C1302 C1301 1.349 . S
C1302 C1314 1.349 . S
C1303 C1301 1.327 . S
C1303 C1319 1.429 . S
C1303 H1325 0.950 . S
C1304 H1300 0.949 . S
C1304 C1312 1.574 . S
C1304 C1320 1.368 . S
H1305 C1313 0.950 . S
H1306 C1311 0.950 . S
H1307 C1312 0.949 . S
H1308 C1314 0.950 . S
H1309 C1315 0.950 . S
H1310 C1316 0.949 . S
C1311 H1306 0.950 . S
C1311 C1313 1.327 . S
C1311 C1317 1.429 . S
C1312 C1304 1.574 . S
C1312 H1307 0.949 . S
C1312 C1318 1.368 . S
C1313 C1297 1.349 . S
C1313 H1305 0.950 . S
C1313 C1311 1.327 . S
C1314 C1302 1.349 . S
C1314 H1308 0.950 . S
C1314 C1315 1.327 . S
C1315 H1309 0.950 . S
C1315 C1314 1.327 . S
C1315 C1319 1.429 . S
C1316 C1299 1.574 . S
C1316 H1310 0.949 . S
C1316 C1320 1.368 . S
C1317 C1298 1.429 . S
C1317 C1311 1.429 . S
C1317 C1318 1.523 . S
C1318 C1299 1.368 . S
C1318 C1312 1.368 . S
C1318 C1317 1.523 . S
C1319 C1303 1.429 . S
C1319 C1315 1.429 . S
C1319 C1320 1.523 . S
C1320 C1304 1.368 . S
C1320 C1316 1.368 . S
C1320 C1319 1.523 . S
H1321 C1296 0.950 . S
H1322 C1298 0.950 . S
H1323 C1299 0.949 . S
H1324 C1301 0.950 . S
H1325 C1303 0.950 . S
C1326 C1327 1.349 . S
C1326 C1328 1.327 . S
C1326 H1351 0.950 . S
C1327 C1326 1.349 . S
C1327 C1343 1.349 . S
C1328 C1326 1.327 . S
C1328 C1347 1.429 . S
C1328 H1352 0.950 . S
C1329 C1346 1.574 . S
C1329 C1348 1.368 . S
C1329 H1353 0.949 . S
H1330 C1334 0.949 . S
C1331 C1332 1.349 . S
C1331 C1333 1.327 . S
C1331 H1354 0.950 . S
C1332 C1331 1.349 . S
C1332 C1344 1.349 . S
C1333 C1331 1.327 . S
C1333 C1349 1.429 . S
C1333 H1355 0.950 . S
C1334 H1330 0.949 . S
C1334 C1342 1.574 . S
C1334 C1350 1.368 . S
H1335 C1343 0.950 . S
H1336 C1341 0.950 . S
H1337 C1342 0.949 . S
H1338 C1344 0.950 . S
H1339 C1345 0.950 . S
H1340 C1346 0.949 . S
C1341 H1336 0.950 . S
C1341 C1343 1.327 . S
C1341 C1347 1.429 . S
C1342 C1334 1.574 . S
C1342 H1337 0.949 . S
C1342 C1348 1.368 . S
C1343 C1327 1.349 . S
C1343 H1335 0.950 . S
C1343 C1341 1.327 . S
C1344 C1332 1.349 . S
C1344 H1338 0.950 . S
C1344 C1345 1.327 . S
C1345 H1339 0.950 . S
C1345 C1344 1.327 . S
C1345 C1349 1.429 . S
C1346 C1329 1.574 . S
C1346 H1340 0.949 . S
C1346 C1350 1.368 . S
C1347 C1328 1.429 . S
C1347 C1341 1.429 . S
C1347 C1348 1.523 . S
C1348 C1329 1.368 . S
C1348 C1342 1.368 . S
C1348 C1347 1.523 . S
C1349 C1333 1.429 . S
C1349 C1345 1.429 . S
C1349 C1350 1.523 . S
C1350 C1334 1.368 . S
C1350 C1346 1.368 . S
C1350 C1349 1.523 . S
H1351 C1326 0.950 . S
H1352 C1328 0.950 . S
H1353 C1329 0.949 . S
H1354 C1331 0.950 . S
H1355 C1333 0.950 . S
C1356 C1357 1.349 . S
C1356 C1358 1.327 . S
C1356 H1381 0.950 . S
C1357 C1356 1.349 . S
C1357 C1373 1.349 . S
C1358 C1356 1.327 . S
C1358 C1377 1.429 . S
C1358 H1382 0.950 . S
C1359 C1376 1.574 . S
C1359 C1378 1.368 . S
C1359 H1383 0.949 . S
H1360 C1364 0.949 . S
C1361 C1362 1.349 . S
C1361 C1363 1.327 . S
C1361 H1384 0.950 . S
C1362 C1361 1.349 . S
C1362 C1374 1.349 . S
C1363 C1361 1.327 . S
C1363 C1379 1.429 . S
C1363 H1385 0.950 . S
C1364 H1360 0.949 . S
C1364 C1372 1.574 . S
C1364 C1380 1.368 . S
H1365 C1373 0.950 . S
H1366 C1371 0.950 . S
H1367 C1372 0.949 . S
H1368 C1374 0.950 . S
H1369 C1375 0.950 . S
H1370 C1376 0.949 . S
C1371 H1366 0.950 . S
C1371 C1373 1.327 . S
C1371 C1377 1.429 . S
C1372 C1364 1.574 . S
C1372 H1367 0.949 . S
C1372 C1378 1.368 . S
C1373 C1357 1.349 . S
C1373 H1365 0.950 . S
C1373 C1371 1.327 . S
C1374 C1362 1.349 . S
C1374 H1368 0.950 . S
C1374 C1375 1.327 . S
C1375 H1369 0.950 . S
C1375 C1374 1.327 . S
C1375 C1379 1.429 . S
C1376 C1359 1.574 . S
C1376 H1370 0.949 . S
C1376 C1380 1.368 . S
C1377 C1358 1.429 . S
C1377 C1371 1.429 . S
C1377 C1378 1.523 . S
C1378 C1359 1.368 . S
C1378 C1372 1.368 . S
C1378 C1377 1.523 . S
C1379 C1363 1.429 . S
C1379 C1375 1.429 . S
C1379 C1380 1.523 . S
C1380 C1364 1.368 . S
C1380 C1376 1.368 . S
C1380 C1379 1.523 . S
H1381 C1356 0.950 . S
H1382 C1358 0.950 . S
H1383 C1359 0.949 . S
H1384 C1361 0.950 . S
H1385 C1363 0.950 . S
C1386 C1387 1.349 . S
C1386 C1388 1.327 . S
C1386 H1411 0.950 . S
C1387 C1386 1.349 . S
C1387 C1403 1.349 . S
C1388 C1386 1.327 . S
C1388 C1407 1.429 . S
C1388 H1412 0.950 . S
C1389 C1406 1.574 . S
C1389 C1408 1.368 . S
C1389 H1413 0.949 . S
H1390 C1394 0.949 . S
C1391 C1392 1.349 . S
C1391 C1393 1.327 . S
C1391 H1414 0.950 . S
C1392 C1391 1.349 . S
C1392 C1404 1.349 . S
C1393 C1391 1.327 . S
C1393 C1409 1.429 . S
C1393 H1415 0.950 . S
C1394 H1390 0.949 . S
C1394 C1402 1.574 . S
C1394 C1410 1.368 . S
H1395 C1403 0.950 . S
H1396 C1401 0.950 . S
H1397 C1402 0.949 . S
H1398 C1404 0.950 . S
H1399 C1405 0.950 . S
H1400 C1406 0.949 . S
C1401 H1396 0.950 . S
C1401 C1403 1.327 . S
C1401 C1407 1.429 . S
C1402 C1394 1.574 . S
C1402 H1397 0.949 . S
C1402 C1408 1.368 . S
C1403 C1387 1.349 . S
C1403 H1395 0.950 . S
C1403 C1401 1.327 . S
C1404 C1392 1.349 . S
C1404 H1398 0.950 . S
C1404 C1405 1.327 . S
C1405 H1399 0.950 . S
C1405 C1404 1.327 . S
C1405 C1409 1.429 . S
C1406 C1389 1.574 . S
C1406 H1400 0.949 . S
C1406 C1410 1.368 . S
C1407 C1388 1.429 . S
C1407 C1401 1.429 . S
C1407 C1408 1.523 . S
C1408 C1389 1.368 . S
C1408 C1402 1.368 . S
C1408 C1407 1.523 . S
C1409 C1393 1.429 . S
C1409 C1405 1.429 . S
C1409 C1410 1.523 . S
C1410 C1394 1.368 . S
C1410 C1406 1.368 . S
C1410 C1409 1.523 . S
H1411 C1386 0.950 . S
H1412 C1388 0.950 . S
H1413 C1389 0.949 . S
H1414 C1391 0.950 . S
H1415 C1393 0.950 . S
C1416 C1417 1.349 . S
C1416 C1418 1.327 . S
C1416 H1441 0.950 . S
C1417 C1416 1.349 . S
C1417 C1433 1.349 . S
C1418 C1416 1.327 . S
C1418 C1437 1.429 . S
C1418 H1442 0.950 . S
C1419 C1436 1.574 . S
C1419 C1438 1.368 . S
C1419 H1443 0.949 . S
H1420 C1424 0.949 . S
C1421 C1422 1.349 . S
C1421 C1423 1.327 . S
C1421 H1444 0.950 . S
C1422 C1421 1.349 . S
C1422 C1434 1.349 . S
C1423 C1421 1.327 . S
C1423 C1439 1.429 . S
C1423 H1445 0.950 . S
C1424 H1420 0.949 . S
C1424 C1432 1.574 . S
C1424 C1440 1.368 . S
H1425 C1433 0.950 . S
H1426 C1431 0.950 . S
H1427 C1432 0.949 . S
H1428 C1434 0.950 . S
H1429 C1435 0.950 . S
H1430 C1436 0.949 . S
C1431 H1426 0.950 . S
C1431 C1433 1.327 . S
C1431 C1437 1.429 . S
C1432 C1424 1.574 . S
C1432 H1427 0.949 . S
C1432 C1438 1.368 . S
C1433 C1417 1.349 . S
C1433 H1425 0.950 . S
C1433 C1431 1.327 . S
C1434 C1422 1.349 . S
C1434 H1428 0.950 . S
C1434 C1435 1.327 . S
C1435 H1429 0.950 . S
C1435 C1434 1.327 . S
C1435 C1439 1.429 . S
C1436 C1419 1.574 . S
C1436 H1430 0.949 . S
C1436 C1440 1.368 . S
C1437 C1418 1.429 . S
C1437 C1431 1.429 . S
C1437 C1438 1.523 . S
C1438 C1419 1.368 . S
C1438 C1432 1.368 . S
C1438 C1437 1.523 . S
C1439 C1423 1.429 . S
C1439 C1435 1.429 . S
C1439 C1440 1.523 . S
C1440 C1424 1.368 . S
C1440 C1436 1.368 . S
C1440 C1439 1.523 . S
H1441 C1416 0.950 . S
H1442 C1418 0.950 . S
H1443 C1419 0.949 . S
H1444 C1421 0.950 . S
H1445 C1423 0.950 . S
C1446 C1447 1.349 . S
C1446 C1448 1.327 . S
C1446 H1471 0.950 . S
C1447 C1446 1.349 . S
C1447 C1463 1.349 . S
C1448 C1446 1.327 . S
C1448 C1467 1.429 . S
C1448 H1472 0.950 . S
C1449 C1466 1.574 . S
C1449 C1468 1.368 . S
C1449 H1473 0.949 . S
H1450 C1454 0.949 . S
C1451 C1452 1.349 . S
C1451 C1453 1.327 . S
C1451 H1474 0.950 . S
C1452 C1451 1.349 . S
C1452 C1464 1.349 . S
C1453 C1451 1.327 . S
C1453 C1469 1.429 . S
C1453 H1475 0.950 . S
C1454 H1450 0.949 . S
C1454 C1462 1.574 . S
C1454 C1470 1.368 . S
H1455 C1463 0.950 . S
H1456 C1461 0.950 . S
H1457 C1462 0.949 . S
H1458 C1464 0.950 . S
H1459 C1465 0.950 . S
H1460 C1466 0.949 . S
C1461 H1456 0.950 . S
C1461 C1463 1.327 . S
C1461 C1467 1.429 . S
C1462 C1454 1.574 . S
C1462 H1457 0.949 . S
C1462 C1468 1.368 . S
C1463 C1447 1.349 . S
C1463 H1455 0.950 . S
C1463 C1461 1.327 . S
C1464 C1452 1.349 . S
C1464 H1458 0.950 . S
C1464 C1465 1.327 . S
C1465 H1459 0.950 . S
C1465 C1464 1.327 . S
C1465 C1469 1.429 . S
C1466 C1449 1.574 . S
C1466 H1460 0.949 . S
C1466 C1470 1.368 . S
C1467 C1448 1.429 . S
C1467 C1461 1.429 . S
C1467 C1468 1.523 . S
C1468 C1449 1.368 . S
C1468 C1462 1.368 . S
C1468 C1467 1.523 . S
C1469 C1453 1.429 . S
C1469 C1465 1.429 . S
C1469 C1470 1.523 . S
C1470 C1454 1.368 . S
C1470 C1466 1.368 . S
C1470 C1469 1.523 . S
H1471 C1446 0.950 . S
H1472 C1448 0.950 . S
H1473 C1449 0.949 . S
H1474 C1451 0.950 . S
H1475 C1453 0.950 . S
C1476 C1477 1.349 . S
C1476 C1478 1.327 . S
C1476 H1501 0.950 . S
C1477 C1476 1.349 . S
C1477 C1493 1.349 . S
C1478 C1476 1.327 . S
C1478 C1497 1.429 . S
C1478 H1502 0.950 . S
C1479 C1496 1.574 . S
C1479 C1498 1.368 . S
C1479 H1503 0.949 . S
H1480 C1484 0.949 . S
C1481 C1482 1.349 . S
C1481 C1483 1.327 . S
C1481 H1504 0.950 . S
C1482 C1481 1.349 . S
C1482 C1494 1.349 . S
C1483 C1481 1.327 . S
C1483 C1499 1.429 . S
C1483 H1505 0.950 . S
C1484 H1480 0.949 . S
C1484 C1492 1.574 . S
C1484 C1500 1.368 . S
H1485 C1493 0.950 . S
H1486 C1491 0.950 . S
H1487 C1492 0.949 . S
H1488 C1494 0.950 . S
H1489 C1495 0.950 . S
H1490 C1496 0.949 . S
C1491 H1486 0.950 . S
C1491 C1493 1.327 . S
C1491 C1497 1.429 . S
C1492 C1484 1.574 . S
C1492 H1487 0.949 . S
C1492 C1498 1.368 . S
C1493 C1477 1.349 . S
C1493 H1485 0.950 . S
C1493 C1491 1.327 . S
C1494 C1482 1.349 . S
C1494 H1488 0.950 . S
C1494 C1495 1.327 . S
C1495 H1489 0.950 . S
C1495 C1494 1.327 . S
C1495 C1499 1.429 . S
C1496 C1479 1.574 . S
C1496 H1490 0.949 . S
C1496 C1500 1.368 . S
C1497 C1478 1.429 . S
C1497 C1491 1.429 . S
C1497 C1498 1.523 . S
C1498 C1479 1.368 . S
C1498 C1492 1.368 . S
C1498 C1497 1.523 . S
C1499 C1483 1.429 . S
C1499 C1495 1.429 . S
C1499 C1500 1.523 . S
C1500 C1484 1.368 . S
C1500 C1496 1.368 . S
C1500 C1499 1.523 . S
H1501 C1476 0.950 . S
H1502 C1478 0.950 . S
H1503 C1479 0.949 . S
H1504 C1481 0.950 . S
H1505 C1483 0.950 . S
C1506 C1507 1.349 . S
C1506 C1508 1.327 . S
C1506 H1531 0.950 . S
C1507 C1506 1.349 . S
C1507 C1523 1.349 . S
C1508 C1506 1.327 . S
C1508 C1527 1.429 . S
C1508 H1532 0.950 . S
C1509 C1526 1.574 . S
C1509 C1528 1.368 . S
C1509 H1533 0.949 . S
H1510 C1514 0.949 . S
C1511 C1512 1.349 . S
C1511 C1513 1.327 . S
C1511 H1534 0.950 . S
C1512 C1511 1.349 . S
C1512 C1524 1.349 . S
C1513 C1511 1.327 . S
C1513 C1529 1.429 . S
C1513 H1535 0.950 . S
C1514 H1510 0.949 . S
C1514 C1522 1.574 . S
C1514 C1530 1.368 . S
H1515 C1523 0.950 . S
H1516 C1521 0.950 . S
H1517 C1522 0.949 . S
H1518 C1524 0.950 . S
H1519 C1525 0.950 . S
H1520 C1526 0.949 . S
C1521 H1516 0.950 . S
C1521 C1523 1.327 . S
C1521 C1527 1.429 . S
C1522 C1514 1.574 . S
C1522 H1517 0.949 . S
C1522 C1528 1.368 . S
C1523 C1507 1.349 . S
C1523 H1515 0.950 . S
C1523 C1521 1.327 . S
C1524 C1512 1.349 . S
C1524 H1518 0.950 . S
C1524 C1525 1.327 . S
C1525 H1519 0.950 . S
C1525 C1524 1.327 . S
C1525 C1529 1.429 . S
C1526 C1509 1.574 . S
C1526 H1520 0.949 . S
C1526 C1530 1.368 . S
C1527 C1508 1.429 . S
C1527 C1521 1.429 . S
C1527 C1528 1.523 . S
C1528 C1509 1.368 . S
C1528 C1522 1.368 . S
C1528 C1527 1.523 . S
C1529 C1513 1.429 . S
C1529 C1525 1.429 . S
C1529 C1530 1.523 . S
C1530 C1514 1.368 . S
C1530 C1526 1.368 . S
C1530 C1529 1.523 . S
H1531 C1506 0.950 . S
H1532 C1508 0.950 . S
H1533 C1509 0.949 . S
H1534 C1511 0.950 . S
H1535 C1513 0.950 . S
C1536 C1537 1.349 . S
C1536 C1538 1.327 . S
C1536 H1561 0.950 . S
C1537 C1536 1.349 . S
C1537 C1553 1.349 . S
C1538 C1536 1.327 . S
C1538 C1557 1.429 . S
C1538 H1562 0.950 . S
C1539 C1556 1.574 . S
C1539 C1558 1.368 . S
C1539 H1563 0.949 . S
H1540 C1544 0.949 . S
C1541 C1542 1.349 . S
C1541 C1543 1.327 . S
C1541 H1564 0.950 . S
C1542 C1541 1.349 . S
C1542 C1554 1.349 . S
C1543 C1541 1.327 . S
C1543 C1559 1.429 . S
C1543 H1565 0.950 . S
C1544 H1540 0.949 . S
C1544 C1552 1.574 . S
C1544 C1560 1.368 . S
H1545 C1553 0.950 . S
H1546 C1551 0.950 . S
H1547 C1552 0.949 . S
H1548 C1554 0.950 . S
H1549 C1555 0.950 . S
H1550 C1556 0.949 . S
C1551 H1546 0.950 . S
C1551 C1553 1.327 . S
C1551 C1557 1.429 . S
C1552 C1544 1.574 . S
C1552 H1547 0.949 . S
C1552 C1558 1.368 . S
C1553 C1537 1.349 . S
C1553 H1545 0.950 . S
C1553 C1551 1.327 . S
C1554 C1542 1.349 . S
C1554 H1548 0.950 . S
C1554 C1555 1.327 . S
C1555 H1549 0.950 . S
C1555 C1554 1.327 . S
C1555 C1559 1.429 . S
C1556 C1539 1.574 . S
C1556 H1550 0.949 . S
C1556 C1560 1.368 . S
C1557 C1538 1.429 . S
C1557 C1551 1.429 . S
C1557 C1558 1.523 . S
C1558 C1539 1.368 . S
C1558 C1552 1.368 . S
C1558 C1557 1.523 . S
C1559 C1543 1.429 . S
C1559 C1555 1.429 . S
C1559 C1560 1.523 . S
C1560 C1544 1.368 . S
C1560 C1556 1.368 . S
C1560 C1559 1.523 . S
H1561 C1536 0.950 . S
H1562 C1538 0.950 . S
H1563 C1539 0.949 . S
H1564 C1541 0.950 . S
H1565 C1543 0.950 . S
C1566 C1567 1.349 . S
C1566 C1568 1.327 . S
C1566 H1591 0.950 . S
C1567 C1566 1.349 . S
C1567 C1583 1.349 . S
C1568 C1566 1.327 . S
C1568 C1587 1.429 . S
C1568 H1592 0.950 . S
C1569 C1586 1.574 . S
C1569 C1588 1.368 . S
C1569 H1593 0.949 . S
H1570 C1574 0.949 . S
C1571 C1572 1.349 . S
C1571 C1573 1.327 . S
C1571 H1594 0.950 . S
C1572 C1571 1.349 . S
C1572 C1584 1.349 . S
C1573 C1571 1.327 . S
C1573 C1589 1.429 . S
C1573 H1595 0.950 . S
C1574 H1570 0.949 . S
C1574 C1582 1.574 . S
C1574 C1590 1.368 . S
H1575 C1583 0.950 . S
H1576 C1581 0.950 . S
H1577 C1582 0.949 . S
H1578 C1584 0.950 . S
H1579 C1585 0.950 . S
H1580 C1586 0.949 . S
C1581 H1576 0.950 . S
C1581 C1583 1.327 . S
C1581 C1587 1.429 . S
C1582 C1574 1.574 . S
C1582 H1577 0.949 . S
C1582 C1588 1.368 . S
C1583 C1567 1.349 . S
C1583 H1575 0.950 . S
C1583 C1581 1.327 . S
C1584 C1572 1.349 . S
C1584 H1578 0.950 . S
C1584 C1585 1.327 . S
C1585 H1579 0.950 . S
C1585 C1584 1.327 . S
C1585 C1589 1.429 . S
C1586 C1569 1.574 . S
C1586 H1580 0.949 . S
C1586 C1590 1.368 . S
C1587 C1568 1.429 . S
C1587 C1581 1.429 . S
C1587 C1588 1.523 . S
C1588 C1569 1.368 . S
C1588 C1582 1.368 . S
C1588 C1587 1.523 . S
C1589 C1573 1.429 . S
C1589 C1585 1.429 . S
C1589 C1590 1.523 . S
C1590 C1574 1.368 . S
C1590 C1586 1.368 . S
C1590 C1589 1.523 . S
H1591 C1566 0.950 . S
H1592 C1568 0.950 . S
H1593 C1569 0.949 . S
H1594 C1571 0.950 . S
H1595 C1573 0.950 . S
C1596 C1597 1.349 . S
C1596 C1598 1.327 . S
C1596 H1621 0.950 . S
C1597 C1596 1.349 . S
C1597 C1613 1.349 . S
C1598 C1596 1.327 . S
C1598 C1617 1.429 . S
C1598 H1622 0.950 . S
C1599 C1616 1.574 . S
C1599 C1618 1.368 . S
C1599 H1623 0.949 . S
H1600 C1604 0.949 . S
C1601 C1602 1.349 . S
C1601 C1603 1.327 . S
C1601 H1624 0.950 . S
C1602 C1601 1.349 . S
C1602 C1614 1.349 . S
C1603 C1601 1.327 . S
C1603 C1619 1.429 . S
C1603 H1625 0.950 . S
C1604 H1600 0.949 . S
C1604 C1612 1.574 . S
C1604 C1620 1.368 . S
H1605 C1613 0.950 . S
H1606 C1611 0.950 . S
H1607 C1612 0.949 . S
H1608 C1614 0.950 . S
H1609 C1615 0.950 . S
H1610 C1616 0.949 . S
C1611 H1606 0.950 . S
C1611 C1613 1.327 . S
C1611 C1617 1.429 . S
C1612 C1604 1.574 . S
C1612 H1607 0.949 . S
C1612 C1618 1.368 . S
C1613 C1597 1.349 . S
C1613 H1605 0.950 . S
C1613 C1611 1.327 . S
C1614 C1602 1.349 . S
C1614 H1608 0.950 . S
C1614 C1615 1.327 . S
C1615 H1609 0.950 . S
C1615 C1614 1.327 . S
C1615 C1619 1.429 . S
C1616 C1599 1.574 . S
C1616 H1610 0.949 . S
C1616 C1620 1.368 . S
C1617 C1598 1.429 . S
C1617 C1611 1.429 . S
C1617 C1618 1.523 . S
C1618 C1599 1.368 . S
C1618 C1612 1.368 . S
C1618 C1617 1.523 . S
C1619 C1603 1.429 . S
C1619 C1615 1.429 . S
C1619 C1620 1.523 . S
C1620 C1604 1.368 . S
C1620 C1616 1.368 . S
C1620 C1619 1.523 . S
H1621 C1596 0.950 . S
H1622 C1598 0.950 . S
H1623 C1599 0.949 . S
H1624 C1601 0.950 . S
H1625 C1603 0.950 . S
C1626 C1627 1.349 . S
C1626 C1628 1.327 . S
C1626 H1651 0.950 . S
C1627 C1626 1.349 . S
C1627 C1643 1.349 . S
C1628 C1626 1.327 . S
C1628 C1647 1.429 . S
C1628 H1652 0.950 . S
C1629 C1646 1.574 . S
C1629 C1648 1.368 . S
C1629 H1653 0.949 . S
H1630 C1634 0.949 . S
C1631 C1632 1.349 . S
C1631 C1633 1.327 . S
C1631 H1654 0.950 . S
C1632 C1631 1.349 . S
C1632 C1644 1.349 . S
C1633 C1631 1.327 . S
C1633 C1649 1.429 . S
C1633 H1655 0.950 . S
C1634 H1630 0.949 . S
C1634 C1642 1.574 . S
C1634 C1650 1.368 . S
H1635 C1643 0.950 . S
H1636 C1641 0.950 . S
H1637 C1642 0.949 . S
H1638 C1644 0.950 . S
H1639 C1645 0.950 . S
H1640 C1646 0.949 . S
C1641 H1636 0.950 . S
C1641 C1643 1.327 . S
C1641 C1647 1.429 . S
C1642 C1634 1.574 . S
C1642 H1637 0.949 . S
C1642 C1648 1.368 . S
C1643 C1627 1.349 . S
C1643 H1635 0.950 . S
C1643 C1641 1.327 . S
C1644 C1632 1.349 . S
C1644 H1638 0.950 . S
C1644 C1645 1.327 . S
C1645 H1639 0.950 . S
C1645 C1644 1.327 . S
C1645 C1649 1.429 . S
C1646 C1629 1.574 . S
C1646 H1640 0.949 . S
C1646 C1650 1.368 . S
C1647 C1628 1.429 . S
C1647 C1641 1.429 . S
C1647 C1648 1.523 . S
C1648 C1629 1.368 . S
C1648 C1642 1.368 . S
C1648 C1647 1.523 . S
C1649 C1633 1.429 . S
C1649 C1645 1.429 . S
C1649 C1650 1.523 . S
C1650 C1634 1.368 . S
C1650 C1646 1.368 . S
C1650 C1649 1.523 . S
H1651 C1626 0.950 . S
H1652 C1628 0.950 . S
H1653 C1629 0.949 . S
H1654 C1631 0.950 . S
H1655 C1633 0.950 . S
C1656 C1657 1.349 . S
C1656 C1658 1.327 . S
C1656 H1681 0.950 . S
C1657 C1656 1.349 . S
C1657 C1673 1.349 . S
C1658 C1656 1.327 . S
C1658 C1677 1.429 . S
C1658 H1682 0.950 . S
C1659 C1676 1.574 . S
C1659 C1678 1.368 . S
C1659 H1683 0.949 . S
H1660 C1664 0.949 . S
C1661 C1662 1.349 . S
C1661 C1663 1.327 . S
C1661 H1684 0.950 . S
C1662 C1661 1.349 . S
C1662 C1674 1.349 . S
C1663 C1661 1.327 . S
C1663 C1679 1.429 . S
C1663 H1685 0.950 . S
C1664 H1660 0.949 . S
C1664 C1672 1.574 . S
C1664 C1680 1.368 . S
H1665 C1673 0.950 . S
H1666 C1671 0.950 . S
H1667 C1672 0.949 . S
H1668 C1674 0.950 . S
H1669 C1675 0.950 . S
H1670 C1676 0.949 . S
C1671 H1666 0.950 . S
C1671 C1673 1.327 . S
C1671 C1677 1.429 . S
C1672 C1664 1.574 . S
C1672 H1667 0.949 . S
C1672 C1678 1.368 . S
C1673 C1657 1.349 . S
C1673 H1665 0.950 . S
C1673 C1671 1.327 . S
C1674 C1662 1.349 . S
C1674 H1668 0.950 . S
C1674 C1675 1.327 . S
C1675 H1669 0.950 . S
C1675 C1674 1.327 . S
C1675 C1679 1.429 . S
C1676 C1659 1.574 . S
C1676 H1670 0.949 . S
C1676 C1680 1.368 . S
C1677 C1658 1.429 . S
C1677 C1671 1.429 . S
C1677 C1678 1.523 . S
C1678 C1659 1.368 . S
C1678 C1672 1.368 . S
C1678 C1677 1.523 . S
C1679 C1663 1.429 . S
C1679 C1675 1.429 . S
C1679 C1680 1.523 . S
C1680 C1664 1.368 . S
C1680 C1676 1.368 . S
C1680 C1679 1.523 . S
H1681 C1656 0.950 . S
H1682 C1658 0.950 . S
H1683 C1659 0.949 . S
H1684 C1661 0.950 . S
H1685 C1663 0.950 . S
C1686 C1687 1.349 . S
C1686 C1688 1.327 . S
C1686 H1711 0.950 . S
C1687 C1686 1.349 . S
C1687 C1703 1.349 . S
C1688 C1686 1.327 . S
C1688 C1707 1.429 . S
C1688 H1712 0.950 . S
C1689 C1706 1.574 . S
C1689 C1708 1.368 . S
C1689 H1713 0.949 . S
H1690 C1694 0.949 . S
C1691 C1692 1.349 . S
C1691 C1693 1.327 . S
C1691 H1714 0.950 . S
C1692 C1691 1.349 . S
C1692 C1704 1.349 . S
C1693 C1691 1.327 . S
C1693 C1709 1.429 . S
C1693 H1715 0.950 . S
C1694 H1690 0.949 . S
C1694 C1702 1.574 . S
C1694 C1710 1.368 . S
H1695 C1703 0.950 . S
H1696 C1701 0.950 . S
H1697 C1702 0.949 . S
H1698 C1704 0.950 . S
H1699 C1705 0.950 . S
H1700 C1706 0.949 . S
C1701 H1696 0.950 . S
C1701 C1703 1.327 . S
C1701 C1707 1.429 . S
C1702 C1694 1.574 . S
C1702 H1697 0.949 . S
C1702 C1708 1.368 . S
C1703 C1687 1.349 . S
C1703 H1695 0.950 . S
C1703 C1701 1.327 . S
C1704 C1692 1.349 . S
C1704 H1698 0.950 . S
C1704 C1705 1.327 . S
C1705 H1699 0.950 . S
C1705 C1704 1.327 . S
C1705 C1709 1.429 . S
C1706 C1689 1.574 . S
C1706 H1700 0.949 . S
C1706 C1710 1.368 . S
C1707 C1688 1.429 . S
C1707 C1701 1.429 . S
C1707 C1708 1.523 . S
C1708 C1689 1.368 . S
C1708 C1702 1.368 . S
C1708 C1707 1.523 . S
C1709 C1693 1.429 . S
C1709 C1705 1.429 . S
C1709 C1710 1.523 . S
C1710 C1694 1.368 . S
C1710 C1706 1.368 . S
C1710 C1709 1.523 . S
H1711 C1686 0.950 . S
H1712 C1688 0.950 . S
H1713 C1689 0.949 . S
H1714 C1691 0.950 . S
H1715 C1693 0.950 . S
C1716 C1717 1.349 . S
C1716 C1718 1.327 . S
C1716 H1741 0.950 . S
C1717 C1716 1.349 . S
C1717 C1733 1.349 . S
C1718 C1716 1.327 . S
C1718 C1737 1.429 . S
C1718 H1742 0.950 . S
C1719 C1736 1.574 . S
C1719 C1738 1.368 . S
C1719 H1743 0.949 . S
H1720 C1724 0.949 . S
C1721 C1722 1.349 . S
C1721 C1723 1.327 . S
C1721 H1744 0.950 . S
C1722 C1721 1.349 . S
C1722 C1734 1.349 . S
C1723 C1721 1.327 . S
C1723 C1739 1.429 . S
C1723 H1745 0.950 . S
C1724 H1720 0.949 . S
C1724 C1732 1.574 . S
C1724 C1740 1.368 . S
H1725 C1733 0.950 . S
H1726 C1731 0.950 . S
H1727 C1732 0.949 . S
H1728 C1734 0.950 . S
H1729 C1735 0.950 . S
H1730 C1736 0.949 . S
C1731 H1726 0.950 . S
C1731 C1733 1.327 . S
C1731 C1737 1.429 . S
C1732 C1724 1.574 . S
C1732 H1727 0.949 . S
C1732 C1738 1.368 . S
C1733 C1717 1.349 . S
C1733 H1725 0.950 . S
C1733 C1731 1.327 . S
C1734 C1722 1.349 . S
C1734 H1728 0.950 . S
C1734 C1735 1.327 . S
C1735 H1729 0.950 . S
C1735 C1734 1.327 . S
C1735 C1739 1.429 . S
C1736 C1719 1.574 . S
C1736 H1730 0.949 . S
C1736 C1740 1.368 . S
C1737 C1718 1.429 . S
C1737 C1731 1.429 . S
C1737 C1738 1.523 . S
C1738 C1719 1.368 . S
C1738 C1732 1.368 . S
C1738 C1737 1.523 . S
C1739 C1723 1.429 . S
C1739 C1735 1.429 . S
C1739 C1740 1.523 . S
C1740 C1724 1.368 . S
C1740 C1736 1.368 . S
C1740 C1739 1.523 . S
H1741 C1716 0.950 . S
H1742 C1718 0.950 . S
H1743 C1719 0.949 . S
H1744 C1721 0.950 . S
H1745 C1723 0.950 . S
C1746 C1747 1.349 . S
C1746 C1748 1.327 . S
C1746 H1771 0.950 . S
C1747 C1746 1.349 . S
C1747 C1763 1.349 . S
C1748 C1746 1.327 . S
C1748 C1767 1.429 . S
C1748 H1772 0.950 . S
C1749 C1766 1.574 . S
C1749 C1768 1.368 . S
C1749 H1773 0.949 . S
H1750 C1754 0.949 . S
C1751 C1752 1.349 . S
C1751 C1753 1.327 . S
C1751 H1774 0.950 . S
C1752 C1751 1.349 . S
C1752 C1764 1.349 . S
C1753 C1751 1.327 . S
C1753 C1769 1.429 . S
C1753 H1775 0.950 . S
C1754 H1750 0.949 . S
C1754 C1762 1.574 . S
C1754 C1770 1.368 . S
H1755 C1763 0.950 . S
H1756 C1761 0.950 . S
H1757 C1762 0.949 . S
H1758 C1764 0.950 . S
H1759 C1765 0.950 . S
H1760 C1766 0.949 . S
C1761 H1756 0.950 . S
C1761 C1763 1.327 . S
C1761 C1767 1.429 . S
C1762 C1754 1.574 . S
C1762 H1757 0.949 . S
C1762 C1768 1.368 . S
C1763 C1747 1.349 . S
C1763 H1755 0.950 . S
C1763 C1761 1.327 . S
C1764 C1752 1.349 . S
C1764 H1758 0.950 . S
C1764 C1765 1.327 . S
C1765 H1759 0.950 . S
C1765 C1764 1.327 . S
C1765 C1769 1.429 . S
C1766 C1749 1.574 . S
C1766 H1760 0.949 . S
C1766 C1770 1.368 . S
C1767 C1748 1.429 . S
C1767 C1761 1.429 . S
C1767 C1768 1.523 . S
C1768 C1749 1.368 . S
C1768 C1762 1.368 . S
C1768 C1767 1.523 . S
C1769 C1753 1.429 . S
C1769 C1765 1.429 . S
C1769 C1770 1.523 . S
C1770 C1754 1.368 . S
C1770 C1766 1.368 . S
C1770 C1769 1.523 . S
H1771 C1746 0.950 . S
H1772 C1748 0.950 . S
H1773 C1749 0.949 . S
H1774 C1751 0.950 . S
H1775 C1753 0.950 . S
C337 C216 1.333 . S
C342 C7 1.333 . S
C367 C174 1.333 . S
C372 C20 1.333 . S
C397 C189 1.333 . S
C402 C34 1.333 . S
C427 C203 1.333 . S
C432 C49 1.333 . S
C457 C202 1.333 . S
C462 C21 1.333 . S
C487 C35 1.333 . S
C492 C217 1.333 . S
C517 C175 1.333 . S
C522 C48 1.333 . S
C547 C188 1.333 . S
C552 C6 1.333 . S
C577 C258 1.333 . S
C582 C62 1.333 . S
C607 C77 1.333 . S
C612 C273 1.333 . S
C637 C90 1.333 . S
C642 C230 1.333 . S
C667 C245 1.333 . S
C672 C105 1.333 . S
C697 C315 1.333 . S
C702 C119 1.333 . S
C727 C132 1.333 . S
C732 C328 1.333 . S
C757 C147 1.333 . S
C762 C287 1.333 . S
C787 C160 1.333 . S
C792 C300 1.333 . S
C817 C244 1.333 . S
C822 C161 1.333 . S
C847 C329 1.333 . S
C852 C76 1.333 . S
C877 C91 1.333 . S
C882 C286 1.333 . S
C907 C301 1.333 . S
C912 C104 1.333 . S
C937 C314 1.333 . S
C942 C63 1.333 . S
C967 C133 1.333 . S
C972 C272 1.333 . S
C997 C231 1.333 . S
C1002 C146 1.333 . S
C1027 C259 1.333 . S
C1032 C118 1.333 . S
C1057 C8 0.763 . S
C1062 C64 0.763 . S
C1087 C79 0.763 . S
C1092 C23 0.763 . S
C1117 C37 0.763 . S
C1122 C92 0.763 . S
C1147 C50 0.763 . S
C1152 C107 0.763 . S
C1177 C121 0.763 . S
C1182 C22 0.763 . S
C1207 C134 0.763 . S
C1212 C36 0.763 . S
C1237 C149 0.763 . S
C1242 C51 0.763 . S
C1267 C9 0.763 . S
C1272 C162 0.763 . S
C1297 C163 0.763 . S
C1302 C65 0.763 . S
C1327 C78 0.763 . S
C1332 C120 0.763 . S
C1357 C93 0.763 . S
C1362 C135 0.763 . S
C1387 C148 0.763 . S
C1392 C106 0.763 . S
C1417 C232 0.763 . S
C1422 C176 0.763 . S
C1447 C247 0.763 . S
C1452 C191 0.763 . S
C1477 C205 0.763 . S
C1482 C260 0.763 . S
C1507 C218 0.763 . S
C1512 C275 0.763 . S
C1537 C190 0.763 . S
C1542 C289 0.763 . S
C1567 C204 0.763 . S
C1572 C302 0.763 . S
C1597 C317 0.763 . S
C1602 C219 0.763 . S
C1627 C177 0.763 . S
C1632 C330 0.763 . S
C1657 C233 0.763 . S
C1662 C331 0.763 . S
C1687 C288 0.763 . S
C1692 C246 0.763 . S
C1717 C261 0.763 . S
C1722 C303 0.763 . S
C1747 C316 0.763 . S
C1752 C274 0.763 . S
