# Generated by pormake.
# Topology sxg, (6)-cn, num edge types: 1
# Building blocks:
#     Node 0, Type 0, BuildingBlock: VOLQOD_clean_sbu_1, # of connection points: 6
#     Node 1, Type 0, BuildingBlock: VOLQOD_clean_sbu_1, # of connection points: 6
#     Node 2, Type 0, BuildingBlock: VOLQOD_clean_sbu_1, # of connection points: 6
#     Node 3, Type 0, BuildingBlock: VOLQOD_clean_sbu_1, # of connection points: 6
#     Node 4, Type 0, BuildingBlock: VOLQOD_clean_sbu_1, # of connection points: 6
#     Node 5, Type 0, BuildingBlock: VOLQOD_clean_sbu_1, # of connection points: 6
#     Node 6, Type 0, BuildingBlock: VOLQOD_clean_sbu_1, # of connection points: 6
#     Node 7, Type 0, BuildingBlock: VOLQOD_clean_sbu_1, # of connection points: 6
#     Node 8, Type 0, BuildingBlock: VOLQOD_clean_sbu_1, # of connection points: 6
#     Node 9, Type 0, BuildingBlock: VOLQOD_clean_sbu_1, # of connection points: 6
#     Node 10, Type 0, BuildingBlock: VOLQOD_clean_sbu_1, # of connection points: 6
#     Node 11, Type 0, BuildingBlock: VOLQOD_clean_sbu_1, # of connection points: 6
#     Node 12, Type 0, BuildingBlock: VOLQOD_clean_sbu_1, # of connection points: 6
#     Node 13, Type 0, BuildingBlock: VOLQOD_clean_sbu_1, # of connection points: 6
#     Node 14, Type 0, BuildingBlock: VOLQOD_clean_sbu_1, # of connection points: 6
#     Node 15, Type 0, BuildingBlock: VOLQOD_clean_sbu_1, # of connection points: 6
#     Node 16, Type 0, BuildingBlock: VOLQOD_clean_sbu_1, # of connection points: 6
#     Node 17, Type 0, BuildingBlock: VOLQOD_clean_sbu_1, # of connection points: 6
#     Node 18, Type 0, BuildingBlock: VOLQOD_clean_sbu_1, # of connection points: 6
#     Node 19, Type 0, BuildingBlock: VOLQOD_clean_sbu_1, # of connection points: 6
#     Node 20, Type 0, BuildingBlock: VOLQOD_clean_sbu_1, # of connection points: 6
#     Node 21, Type 0, BuildingBlock: VOLQOD_clean_sbu_1, # of connection points: 6
#     Node 22, Type 0, BuildingBlock: VOLQOD_clean_sbu_1, # of connection points: 6
#     Node 23, Type 0, BuildingBlock: VOLQOD_clean_sbu_1, # of connection points: 6
#     Edge 24, Type (0, 0), BuildingBlock: OJICUG_clean_linker_0, # of connection points: 2
#     Edge 25, Type (0, 0), BuildingBlock: OJICUG_clean_linker_0, # of connection points: 2
#     Edge 26, Type (0, 0), BuildingBlock: OJICUG_clean_linker_0, # of connection points: 2
#     Edge 27, Type (0, 0), BuildingBlock: OJICUG_clean_linker_0, # of connection points: 2
#     Edge 28, Type (0, 0), BuildingBlock: OJICUG_clean_linker_0, # of connection points: 2
#     Edge 29, Type (0, 0), BuildingBlock: OJICUG_clean_linker_0, # of connection points: 2
#     Edge 30, Type (0, 0), BuildingBlock: OJICUG_clean_linker_0, # of connection points: 2
#     Edge 31, Type (0, 0), BuildingBlock: OJICUG_clean_linker_0, # of connection points: 2
#     Edge 32, Type (0, 0), BuildingBlock: OJICUG_clean_linker_0, # of connection points: 2
#     Edge 33, Type (0, 0), BuildingBlock: OJICUG_clean_linker_0, # of connection points: 2
#     Edge 34, Type (0, 0), BuildingBlock: OJICUG_clean_linker_0, # of connection points: 2
#     Edge 35, Type (0, 0), BuildingBlock: OJICUG_clean_linker_0, # of connection points: 2
#     Edge 36, Type (0, 0), BuildingBlock: OJICUG_clean_linker_0, # of connection points: 2
#     Edge 37, Type (0, 0), BuildingBlock: OJICUG_clean_linker_0, # of connection points: 2
#     Edge 38, Type (0, 0), BuildingBlock: OJICUG_clean_linker_0, # of connection points: 2
#     Edge 39, Type (0, 0), BuildingBlock: OJICUG_clean_linker_0, # of connection points: 2
#     Edge 40, Type (0, 0), BuildingBlock: OJICUG_clean_linker_0, # of connection points: 2
#     Edge 41, Type (0, 0), BuildingBlock: OJICUG_clean_linker_0, # of connection points: 2
#     Edge 42, Type (0, 0), BuildingBlock: OJICUG_clean_linker_0, # of connection points: 2
#     Edge 43, Type (0, 0), BuildingBlock: OJICUG_clean_linker_0, # of connection points: 2
#     Edge 44, Type (0, 0), BuildingBlock: OJICUG_clean_linker_0, # of connection points: 2
#     Edge 45, Type (0, 0), BuildingBlock: OJICUG_clean_linker_0, # of connection points: 2
#     Edge 46, Type (0, 0), BuildingBlock: OJICUG_clean_linker_0, # of connection points: 2
#     Edge 47, Type (0, 0), BuildingBlock: OJICUG_clean_linker_0, # of connection points: 2
#     Edge 48, Type (0, 0), BuildingBlock: OJICUG_clean_linker_0, # of connection points: 2
#     Edge 49, Type (0, 0), BuildingBlock: OJICUG_clean_linker_0, # of connection points: 2
#     Edge 50, Type (0, 0), BuildingBlock: OJICUG_clean_linker_0, # of connection points: 2
#     Edge 51, Type (0, 0), BuildingBlock: OJICUG_clean_linker_0, # of connection points: 2
#     Edge 52, Type (0, 0), BuildingBlock: OJICUG_clean_linker_0, # of connection points: 2
#     Edge 53, Type (0, 0), BuildingBlock: OJICUG_clean_linker_0, # of connection points: 2
#     Edge 54, Type (0, 0), BuildingBlock: OJICUG_clean_linker_0, # of connection points: 2
#     Edge 55, Type (0, 0), BuildingBlock: OJICUG_clean_linker_0, # of connection points: 2
#     Edge 56, Type (0, 0), BuildingBlock: OJICUG_clean_linker_0, # of connection points: 2
#     Edge 57, Type (0, 0), BuildingBlock: OJICUG_clean_linker_0, # of connection points: 2
#     Edge 58, Type (0, 0), BuildingBlock: OJICUG_clean_linker_0, # of connection points: 2
#     Edge 59, Type (0, 0), BuildingBlock: OJICUG_clean_linker_0, # of connection points: 2
#     Edge 60, Type (0, 0), BuildingBlock: OJICUG_clean_linker_0, # of connection points: 2
#     Edge 61, Type (0, 0), BuildingBlock: OJICUG_clean_linker_0, # of connection points: 2
#     Edge 62, Type (0, 0), BuildingBlock: OJICUG_clean_linker_0, # of connection points: 2
#     Edge 63, Type (0, 0), BuildingBlock: OJICUG_clean_linker_0, # of connection points: 2
#     Edge 64, Type (0, 0), BuildingBlock: OJICUG_clean_linker_0, # of connection points: 2
#     Edge 65, Type (0, 0), BuildingBlock: OJICUG_clean_linker_0, # of connection points: 2
#     Edge 66, Type (0, 0), BuildingBlock: OJICUG_clean_linker_0, # of connection points: 2
#     Edge 67, Type (0, 0), BuildingBlock: OJICUG_clean_linker_0, # of connection points: 2
#     Edge 68, Type (0, 0), BuildingBlock: OJICUG_clean_linker_0, # of connection points: 2
#     Edge 69, Type (0, 0), BuildingBlock: OJICUG_clean_linker_0, # of connection points: 2
#     Edge 70, Type (0, 0), BuildingBlock: OJICUG_clean_linker_0, # of connection points: 2
#     Edge 71, Type (0, 0), BuildingBlock: OJICUG_clean_linker_0, # of connection points: 2
#     Edge 72, Type (0, 0), BuildingBlock: OJICUG_clean_linker_0, # of connection points: 2
#     Edge 73, Type (0, 0), BuildingBlock: OJICUG_clean_linker_0, # of connection points: 2
#     Edge 74, Type (0, 0), BuildingBlock: OJICUG_clean_linker_0, # of connection points: 2
#     Edge 75, Type (0, 0), BuildingBlock: OJICUG_clean_linker_0, # of connection points: 2
#     Edge 76, Type (0, 0), BuildingBlock: OJICUG_clean_linker_0, # of connection points: 2
#     Edge 77, Type (0, 0), BuildingBlock: OJICUG_clean_linker_0, # of connection points: 2
#     Edge 78, Type (0, 0), BuildingBlock: OJICUG_clean_linker_0, # of connection points: 2
#     Edge 79, Type (0, 0), BuildingBlock: OJICUG_clean_linker_0, # of connection points: 2
#     Edge 80, Type (0, 0), BuildingBlock: OJICUG_clean_linker_0, # of connection points: 2
#     Edge 81, Type (0, 0), BuildingBlock: OJICUG_clean_linker_0, # of connection points: 2
#     Edge 82, Type (0, 0), BuildingBlock: OJICUG_clean_linker_0, # of connection points: 2
#     Edge 83, Type (0, 0), BuildingBlock: OJICUG_clean_linker_0, # of connection points: 2
#     Edge 84, Type (0, 0), BuildingBlock: OJICUG_clean_linker_0, # of connection points: 2
#     Edge 85, Type (0, 0), BuildingBlock: OJICUG_clean_linker_0, # of connection points: 2
#     Edge 86, Type (0, 0), BuildingBlock: OJICUG_clean_linker_0, # of connection points: 2
#     Edge 87, Type (0, 0), BuildingBlock: OJICUG_clean_linker_0, # of connection points: 2
#     Edge 88, Type (0, 0), BuildingBlock: OJICUG_clean_linker_0, # of connection points: 2
#     Edge 89, Type (0, 0), BuildingBlock: OJICUG_clean_linker_0, # of connection points: 2
#     Edge 90, Type (0, 0), BuildingBlock: OJICUG_clean_linker_0, # of connection points: 2
#     Edge 91, Type (0, 0), BuildingBlock: OJICUG_clean_linker_0, # of connection points: 2
#     Edge 92, Type (0, 0), BuildingBlock: OJICUG_clean_linker_0, # of connection points: 2
#     Edge 93, Type (0, 0), BuildingBlock: OJICUG_clean_linker_0, # of connection points: 2
#     Edge 94, Type (0, 0), BuildingBlock: OJICUG_clean_linker_0, # of connection points: 2
#     Edge 95, Type (0, 0), BuildingBlock: OJICUG_clean_linker_0, # of connection points: 2
# Relax obj value: 0.328
# Max RMSD: 0.256
# Mean RMSD: 0.256
data_MOF--net-sxg--node1-VOLQOD_clean_sbu_1--edge1-OJICUG_clean_linker_0
_symmetry_space_group_name_H-M    P1
_symmetry_Int_Tables_number       1
_symmetry_cell_setting            triclinic
loop_
_symmetry_equiv_pos_as_xyz
'x, y, z'
_cell_length_a     36.170397
_cell_length_b     36.112833
_cell_length_c     36.199431
_cell_angle_alpha  89.940722
_cell_angle_beta   90.066761
_cell_angle_gamma 90.116235
loop_
_atom_site_label
_atom_site_type_symbol
_atom_site_fract_x
_atom_site_fract_y
_atom_site_fract_z
_atom_type_partial_charge
O0 O 0.06299 0.22817 0.25077 0.0
Zn1 Zn 0.04335 0.27984 0.24765 0.0
O2 O 0.02636 0.28723 0.19904 0.0
Zn3 Zn 0.04428 0.32976 0.17283 0.0
Zn4 Zn 0.02864 0.24495 0.16913 0.0
Zn5 Zn 0.97782 0.30155 0.20367 0.0
O6 O 0.00195 0.36637 0.16051 0.0
O7 O 0.97844 0.35449 0.21516 0.0
O8 O 0.08078 0.31983 0.25934 0.0
O9 O 0.07619 0.35544 0.2089 0.0
O10 O 0.07745 0.31289 0.13046 0.0
O11 O 0.07173 0.25169 0.13644 0.0
O12 O 0.98592 0.24601 0.13308 0.0
O13 O 0.00038 0.2813 0.28324 0.0
O14 O 0.95511 0.29487 0.15426 0.0
O15 O 0.95208 0.2781 0.24529 0.0
C16 C 0.0563 0.19881 0.23224 0.0
C17 C 0.98143 0.3758 0.18763 0.0
C18 C 0.08677 0.27991 0.12165 0.0
C19 C 0.089 0.34897 0.24103 0.0
C20 C 0.96179 0.27148 0.12885 0.0
C21 C 0.96578 0.27719 0.27764 0.0
O22 O 0.03917 0.19979 0.20122 0.0
O23 O 0.43555 0.73145 0.75595 0.0
Zn24 Zn 0.45102 0.67853 0.74888 0.0
O25 O 0.45759 0.67056 0.69718 0.0
Zn26 Zn 0.43001 0.62869 0.67932 0.0
Zn27 Zn 0.45038 0.71295 0.66764 0.0
Zn28 Zn 0.5077 0.66022 0.69242 0.0
O29 O 0.46187 0.58089 0.68296 0.0
O30 O 0.51242 0.60855 0.70465 0.0
O31 O 0.411 0.64486 0.76876 0.0
O32 O 0.39096 0.61968 0.71615 0.0
O33 O 0.40121 0.64284 0.63215 0.0
O34 O 0.40515 0.70427 0.63839 0.0
O35 O 0.48901 0.71661 0.62723 0.0
O36 O 0.49944 0.67166 0.77582 0.0
O37 O 0.5237 0.6679 0.64077 0.0
O38 O 0.53805 0.68598 0.73027 0.0
C39 C 0.43497 0.75987 0.73499 0.0
C40 C 0.49344 0.57962 0.699 0.0
C41 C 0.39116 0.67571 0.62318 0.0
C42 C 0.38784 0.62544 0.7506 0.0
C43 C 0.51361 0.69297 0.61831 0.0
C44 C 0.5316 0.68063 0.76444 0.0
O45 O 0.4426 0.75764 0.70054 0.0
O46 O 0.55007 0.23774 0.70308 0.0
Zn47 Zn 0.53462 0.18577 0.71314 0.0
O48 O 0.52307 0.18339 0.76356 0.0
Zn49 Zn 0.54577 0.14522 0.79207 0.0
Zn50 Zn 0.52257 0.22842 0.78885 0.0
Zn51 Zn 0.47607 0.1648 0.76293 0.0
O52 O 0.50816 0.10351 0.80424 0.0
O53 O 0.48187 0.11259 0.75044 0.0
O54 O 0.57465 0.14855 0.70273 0.0
O55 O 0.58365 0.12413 0.75896 0.0
O56 O 0.57308 0.16849 0.83524 0.0
O57 O 0.56658 0.22848 0.82193 0.0
O58 O 0.48039 0.22698 0.82589 0.0
O59 O 0.48919 0.17862 0.68158 0.0
O60 O 0.45682 0.17125 0.81384 0.0
O61 O 0.44536 0.18609 0.72377 0.0
C62 C 0.54261 0.26861 0.71849 0.0
C63 C 0.4879 0.09175 0.77776 0.0
C64 C 0.58126 0.20252 0.84078 0.0
C65 C 0.59173 0.12699 0.72486 0.0
C66 C 0.46101 0.19882 0.83538 0.0
C67 C 0.45549 0.18421 0.69024 0.0
O68 O 0.52801 0.27022 0.75078 0.0
O69 O 0.92493 0.75031 0.23016 0.0
Zn70 Zn 0.94947 0.79865 0.24356 0.0
O71 O 0.9591 0.79996 0.2946 0.0
Zn72 Zn 0.9496 0.84687 0.31687 0.0
Zn73 Zn 0.92868 0.76643 0.31871 0.0
Zn74 Zn 0.00747 0.7821 0.30238 0.0
O75 O -0.00048 0.8725 0.32471 0.0
O76 O 0.0378 0.8262 0.31083 0.0
O77 O 0.91934 0.84273 0.22913 0.0
O78 O 0.92161 0.87752 0.27993 0.0
O79 O 0.91499 0.83767 0.36159 0.0
O80 O 0.88386 0.79298 0.33285 0.0
O81 O 0.95238 0.75347 0.36685 0.0
O82 O -0.0021 0.79897 0.21775 0.0
O83 O 0.0112 0.75268 0.34961 0.0
O84 O 0.02832 0.7607 0.25531 0.0
C85 C 0.91679 0.72234 0.25009 0.0
C86 C 0.03208 0.85975 0.31943 0.0
C87 C 0.88658 0.81655 0.35875 0.0
C88 C 0.91148 0.87234 0.24658 0.0
C89 C 0.98626 0.74806 0.37407 0.0
C90 C 0.025 0.7775 0.22437 0.0
O91 O 0.91848 0.72361 0.28529 0.0
O92 O 0.26832 0.05952 0.23769 0.0
Zn93 Zn 0.26759 0.04325 0.29046 0.0
O94 O 0.22131 0.02041 0.29861 0.0
Zn95 Zn 0.1908 0.03944 0.33717 0.0
Zn96 Zn 0.1925 0.01492 0.25577 0.0
Zn97 Zn 0.23184 0.97493 0.32001 0.0
O98 O 0.1784 -0.0022 0.3741 0.0
O99 O 0.23701 0.98313 0.37356 0.0
O100 O 0.27334 0.08435 0.32834 0.0
O101 O 0.22235 0.07608 0.36253 0.0
O102 O 0.14706 0.0672 0.31501 0.0
O103 O 0.15521 0.05528 0.25532 0.0
O104 O 0.16209 0.96821 0.26167 0.0
O105 O 0.30921 0.00551 0.29262 0.0
O106 O 0.18803 0.94298 0.31159 0.0
O107 O 0.27781 0.9534 0.30186 0.0
C108 C 0.25306 0.04566 0.20898 0.0
C109 C 0.20565 0.98076 0.38877 0.0
C110 C 0.13844 0.07223 0.28112 0.0
C111 C 0.25309 0.09215 0.35623 0.0
C112 C 0.16229 0.94417 0.28762 0.0
C113 C 0.30775 0.97026 0.2946 0.0
O114 O 0.22548 0.0234 0.21111 0.0
O115 O 0.2245 0.91562 0.73816 0.0
Zn116 Zn 0.23119 0.93726 0.78822 0.0
O117 O 0.28095 0.95079 0.79394 0.0
Zn118 Zn 0.30701 0.93097 0.83587 0.0
Zn119 Zn 0.30829 0.94811 0.75027 0.0
Zn120 Zn 0.27933 -0.00054 0.80853 0.0
O121 O 0.32268 0.97351 0.87136 0.0
O122 O 0.26814 -0.00215 0.8612 0.0
O123 O 0.21741 0.9034 0.82958 0.0
O124 O 0.26911 0.90163 0.86359 0.0
O125 O 0.34796 0.89654 0.81657 0.0
O126 O 0.34097 0.9048 0.75583 0.0
O127 O 0.345 -0.0094 0.74868 0.0
O128 O 0.19867 0.9821 0.78857 0.0
O129 O 0.32958 0.01994 0.80044 0.0
O130 O 0.23926 0.02822 0.78587 0.0
C131 C 0.24153 0.92172 0.70791 0.0
C132 C 0.29634 -0.00524 0.8815 0.0
C133 C 0.3562 0.88853 0.78309 0.0
C134 C 0.23528 0.89309 0.85817 0.0
C135 C 0.35243 0.01361 0.77449 0.0
C136 C 0.20624 0.0163 0.78445 0.0
O137 O 0.27308 0.93802 0.70718 0.0
O138 O 0.75487 0.42766 0.72763 0.0
Zn139 Zn 0.74115 0.45205 0.67903 0.0
O140 O 0.68964 0.46147 0.67822 0.0
Zn141 Zn 0.66618 0.45001 0.63257 0.0
Zn142 Zn 0.66562 0.43156 0.71252 0.0
Zn143 Zn 0.68129 0.51072 0.6928 0.0
O144 O 0.66052 0.49799 0.60299 0.0
O145 O 0.67306 0.53916 0.64715 0.0
O146 O 0.75454 0.4197 0.63573 0.0
O147 O 0.70061 0.41671 0.60575 0.0
O148 O 0.61977 0.41883 0.64364 0.0
O149 O 0.64928 0.3866 0.68679 0.0
O150 O 0.61813 0.45596 0.72646 0.0
O151 O 0.76724 0.50089 0.67846 0.0
O152 O 0.634 0.51517 0.72183 0.0
O153 O 0.7279 0.53228 0.71404 0.0
C154 C 0.73509 0.41916 0.75556 0.0
C155 C 0.66532 0.53136 0.61383 0.0
C156 C 0.62242 0.39024 0.66441 0.0
C157 C 0.73439 0.40753 0.60944 0.0
C158 C 0.61032 0.49006 0.72933 0.0
C159 C 0.75963 0.52855 0.69897 0.0
O160 O 0.69985 0.42083 0.75449 0.0
O161 O 0.72787 0.55943 0.24368 0.0
Zn162 Zn 0.72891 0.54193 0.19128 0.0
O163 O 0.77782 0.5269 0.18105 0.0
Zn164 Zn 0.80165 0.55056 0.13975 0.0
Zn165 Zn 0.80857 0.52631 0.22281 0.0
Zn166 Zn 0.77459 0.47932 0.1626 0.0
O167 O 0.81596 0.51183 0.10027 0.0
O168 O 0.76221 0.48549 0.1103 0.0
O169 O 0.71357 0.58107 0.1541 0.0
O170 O 0.76298 0.58202 0.117 0.0
O171 O 0.84244 0.58494 0.15855 0.0
O172 O 0.84077 0.56986 0.21816 0.0
O173 O 0.84355 0.48306 0.2201 0.0
O174 O 0.69466 0.4977 0.18976 0.0
O175 O 0.82462 0.45598 0.16817 0.0
O176 O 0.73354 0.45046 0.18425 0.0
C177 C 0.74772 0.552 0.27193 0.0
C178 C 0.7895 0.49107 0.08929 0.0
C179 C 0.85295 0.58985 0.19192 0.0
C180 C 0.73039 0.59241 0.1252 0.0
C181 C 0.84865 0.46028 0.19362 0.0
C182 C 0.70118 0.46298 0.18975 0.0
O183 O 0.77859 0.53498 0.26924 0.0
O184 O 0.24933 0.25437 0.05799 0.0
Zn185 Zn 0.30146 0.25018 0.03936 0.0
O186 O 0.30798 0.20163 0.02177 0.0
Zn187 Zn 0.34911 0.17381 0.04035 0.0
Zn188 Zn 0.26492 0.17318 0.0217 0.0
Zn189 Zn 0.32333 0.20716 0.97366 0.0
O190 O 0.38692 0.16417 -0.0019 0.0
O191 O 0.37568 0.22011 0.97773 0.0
O192 O 0.34053 0.25979 0.07801 0.0
O193 O 0.37255 0.20667 0.07766 0.0
O194 O 0.32957 0.12898 0.06871 0.0
O195 O 0.26881 0.13808 0.0635 0.0
O196 O 0.26507 0.13968 0.97757 0.0
O197 O 0.30385 0.28671 -0.00263 0.0
O198 O 0.31698 0.15736 0.94968 0.0
O199 O 0.29985 0.24959 0.94855 0.0
C200 C 0.21995 0.23694 0.04882 0.0
C201 C 0.39647 0.19213 0.97855 0.0
C202 C 0.29622 0.12093 0.07742 0.0
C203 C 0.36676 0.23926 0.08974 0.0
C204 C 0.29122 0.13372 0.95468 0.0
C205 C 0.29893 0.28176 0.96284 0.0
O206 O 0.22111 0.20653 0.03072 0.0
O207 O 0.73623 0.22693 0.92054 0.0
Zn208 Zn 0.78723 0.2297 0.94173 0.0
O209 O 0.79659 0.27949 0.95379 0.0
Zn210 Zn 0.8395 0.30237 0.93218 0.0
Zn211 Zn 0.75526 0.30992 0.95047 0.0
Zn212 Zn 0.812 0.27887 0.00213 0.0
O213 O 0.87767 0.31652 0.97248 0.0
O214 O 0.86368 0.26391 -0.00052 0.0
O215 O 0.82747 0.21185 0.9077 0.0
O216 O 0.8638 0.26199 0.90485 0.0
O217 O 0.82311 0.34222 0.89505 0.0
O218 O 0.76251 0.33993 0.90588 0.0
O219 O 0.75648 0.34787 -0.00874 0.0
O220 O 0.7863 0.19883 0.98793 0.0
O221 O 0.80764 0.33064 0.02082 0.0
O222 O 0.78777 0.24076 0.03276 0.0
C223 C 0.70763 0.247 0.92554 0.0
C224 C 0.8866 0.28963 -0.00632 0.0
C225 C 0.78996 0.35204 0.88754 0.0
C226 C 0.85695 0.22826 0.89726 0.0
C227 C 0.78287 0.35468 0.01377 0.0
C228 C 0.78394 0.20749 0.02198 0.0
O229 O 0.70954 0.27872 0.94126 0.0
O230 O 0.73076 0.77468 0.41476 0.0
Zn231 Zn 0.67769 0.76654 0.42626 0.0
O232 O 0.67407 0.71818 0.44569 0.0
Zn233 Zn 0.63939 0.68505 0.42328 0.0
Zn234 Zn 0.71927 0.69352 0.45357 0.0
Zn235 Zn 0.6485 0.72544 0.48917 0.0
O236 O 0.59834 0.67137 0.46034 0.0
O237 O 0.59593 0.72963 0.4757 0.0
O238 O 0.64432 0.76929 0.38146 0.0
O239 O 0.61884 0.71267 0.38066 0.0
O240 O 0.66621 0.64138 0.40188 0.0
O241 O 0.72501 0.65583 0.41305 0.0
O242 O 0.71287 0.66242 0.50036 0.0
O243 O 0.66804 0.80614 0.46512 0.0
O244 O 0.65757 0.68135 0.52011 0.0
O245 O 0.66266 0.77048 0.51469 0.0
C246 C 0.7605 0.76213 0.42903 0.0
C247 C 0.58146 0.69782 0.47641 0.0
C248 C 0.70069 0.63567 0.39724 0.0
C249 C 0.62316 0.74489 0.3669 0.0
C250 C 0.68479 0.65911 0.52167 0.0
C251 C 0.66634 0.80215 0.5001 0.0
O252 O 0.76078 0.73244 0.44866 0.0
O253 O 0.23227 0.70426 0.54864 0.0
Zn254 Zn 0.17992 0.71303 0.53174 0.0
O255 O 0.17391 0.76455 0.52169 0.0
Zn256 Zn 0.13427 0.78679 0.54929 0.0
Zn257 Zn 0.21865 0.79158 0.52463 0.0
Zn258 Zn 0.16075 0.76792 0.47215 0.0
O259 O 0.08563 0.78832 0.51846 0.0
O260 O 0.10847 0.7587 0.46989 0.0
O261 O 0.14357 0.69653 0.57098 0.0
O262 O 0.12141 0.75131 0.58889 0.0
O263 O 0.15366 0.83318 0.57595 0.0
O264 O 0.21422 0.82413 0.56798 0.0
O265 O 0.22305 0.82942 0.48324 0.0
O266 O 0.17379 0.68405 0.48479 0.0
O267 O 0.17076 0.81832 0.45322 0.0
O268 O 0.18227 0.72784 0.44239 0.0
C269 C 0.26201 0.72303 0.54527 0.0
C270 C 0.0812 0.76951 0.48881 0.0
C271 C 0.18748 0.84114 0.58317 0.0
C272 C 0.12437 0.71646 0.59275 0.0
C273 C 0.19828 0.83912 0.46002 0.0
C274 C 0.17942 0.6939 0.45141 0.0
O275 O 0.26165 0.75639 0.53323 0.0
O276 O 0.92334 0.73342 0.71414 0.0
Zn277 Zn 0.93932 0.68108 0.72469 0.0
O278 O 0.94998 0.67921 0.77584 0.0
Zn279 Zn 0.9282 0.64051 0.80445 0.0
Zn280 Zn 0.94932 0.72417 0.80118 0.0
Zn281 Zn -0.00226 0.66333 0.77622 0.0
O282 O 0.96693 0.60003 0.8169 0.0
O283 O -0.00474 0.61073 0.76437 0.0
O284 O 0.89785 0.64428 0.71517 0.0
O285 O 0.88999 0.61947 0.7714 0.0
O286 O 0.9005 0.66292 0.84787 0.0
O287 O 0.90575 0.72293 0.83429 0.0
O288 O -0.00836 0.72595 0.83781 0.0
O289 O 0.98614 0.67242 0.69404 0.0
O290 O 0.01705 0.67105 0.82701 0.0
O291 O 0.02734 0.68631 0.73731 0.0
C292 C 0.92855 0.76407 0.731 0.0
C293 C 0.98892 0.58954 0.79137 0.0
C294 C 0.89166 0.69676 0.85327 0.0
C295 C 0.8808 0.62281 0.73758 0.0
C296 C 0.01225 0.69901 0.8478 0.0
C297 C 0.01915 0.68086 0.70361 0.0
O298 O 0.94209 0.7653 0.76374 0.0
O299 O 0.56355 0.23852 0.22926 0.0
Zn300 Zn 0.54365 0.29041 0.23144 0.0
O301 O 0.52846 0.29852 0.28065 0.0
Zn302 Zn 0.54485 0.34313 0.30356 0.0
Zn303 Zn 0.53196 0.25752 0.31218 0.0
Zn304 Zn 0.47906 0.30825 0.27655 0.0
O305 O 0.50123 0.37844 0.31237 0.0
O306 O 0.47533 0.35973 0.26051 0.0
O307 O 0.58099 0.33014 0.21768 0.0
O308 O 0.57712 0.36753 0.26673 0.0
O309 O 0.57684 0.32995 0.34792 0.0
O310 O 0.57373 0.26822 0.34507 0.0
O311 O 0.48915 0.25626 0.34812 0.0
O312 O 0.49907 0.29087 0.19721 0.0
O313 O 0.45726 0.3041 0.32663 0.0
O314 O 0.45552 0.27758 0.23839 0.0
C315 C 0.55922 0.20998 0.24975 0.0
C316 C 0.47911 0.38401 0.28539 0.0
C317 C 0.58692 0.29784 0.35885 0.0
C318 C 0.58971 0.35985 0.23481 0.0
C319 C 0.46444 0.2811 0.35224 0.0
C320 C 0.46644 0.27994 0.20511 0.0
O321 O 0.54426 0.21203 0.28175 0.0
O322 O 0.42293 0.74768 0.24301 0.0
Zn323 Zn 0.44884 0.79585 0.23144 0.0
O324 O 0.45728 0.79984 0.1803 0.0
Zn325 Zn 0.44779 0.84812 0.1608 0.0
Zn326 Zn 0.42574 0.76809 0.15519 0.0
Zn327 Zn 0.5055 0.78282 0.17034 0.0
O328 O 0.49749 0.87455 0.15453 0.0
O329 O 0.53594 0.8276 0.16528 0.0
O330 O 0.42049 0.8399 0.24918 0.0
O331 O 0.42103 0.87674 0.19975 0.0
O332 O 0.41214 0.84197 0.11627 0.0
O333 O 0.38117 0.79656 0.14394 0.0
O334 O 0.4482 0.75645 0.1059 0.0
O335 O 0.4981 0.79381 0.25548 0.0
O336 O 0.50768 0.75675 0.12128 0.0
O337 O 0.52743 0.75784 0.21502 0.0
C338 C 0.41311 0.72113 0.22195 0.0
C339 C 0.5301 0.86174 0.15935 0.0
C340 C 0.38331 0.82146 0.11924 0.0
C341 C 0.41235 0.87033 0.23327 0.0
C342 C 0.48201 0.75199 0.09757 0.0
C343 C 0.52519 0.77314 0.24674 0.0
O344 O 0.41439 0.72408 0.18683 0.0
O345 O 0.05906 0.23508 0.77422 0.0
Zn346 Zn 0.04102 0.18305 0.76575 0.0
O347 O 0.02448 0.1796 0.71649 0.0
Zn348 Zn 0.04377 0.14141 0.68533 0.0
Zn349 Zn 0.02233 0.22494 0.69188 0.0
Zn350 Zn 0.97781 0.1601 0.71953 0.0
O351 O 0.00326 0.10307 0.67107 0.0
O352 O 0.98377 0.10687 0.72799 0.0
O353 O 0.08052 0.14427 0.77231 0.0
O354 O 0.07941 0.11533 0.7175 0.0
O355 O 0.0719 0.16544 0.64276 0.0
O356 O 0.06297 0.22522 0.65515 0.0
O357 O 0.97686 0.22624 0.66001 0.0
O358 O -0.00219 0.17637 0.80091 0.0
O359 O 0.95401 0.17001 0.671 0.0
O360 O 0.95043 0.17846 0.76178 0.0
C361 C 0.05001 0.26558 0.75878 0.0
C362 C 0.9851 0.08918 0.69801 0.0
C363 C 0.0783 0.19973 0.63637 0.0
C364 C 0.0916 0.11892 0.75034 0.0
C365 C 0.95625 0.19894 0.65096 0.0
C366 C 0.96316 0.17851 0.79446 0.0
O367 O 0.03181 0.26633 0.72841 0.0
O368 O 0.71351 0.92165 0.72992 0.0
Zn369 Zn 0.72195 0.94282 0.67918 0.0
O370 O 0.77295 0.9527 0.67474 0.0
Zn371 Zn 0.79746 0.9348 0.63156 0.0
Zn372 Zn 0.8007 0.94813 0.71785 0.0
Zn373 Zn 0.77347 0.00209 0.66422 0.0
O374 O 0.8115 0.97892 0.59758 0.0
O375 O 0.7588 0.005 0.61257 0.0
O376 O 0.70681 0.91006 0.63687 0.0
O377 O 0.75878 0.90702 0.60355 0.0
O378 O 0.839 0.89981 0.64872 0.0
O379 O 0.83271 0.90479 0.70999 0.0
O380 O 0.83857 0.98971 0.72171 0.0
O381 O 0.69256 -0.00964 0.67727 0.0
O382 O 0.82479 0.02034 0.67036 0.0
O383 O 0.73684 0.03 0.69258 0.0
C384 C 0.73196 0.92497 0.75989 0.0
C385 C 0.78523 0.00141 0.59013 0.0
C386 C 0.8477 0.8902 0.68172 0.0
C387 C 0.72458 0.89971 0.60822 0.0
C388 C 0.84718 0.0129 0.69641 0.0
C389 C 0.70288 0.02232 0.68809 0.0
O390 O 0.76503 0.93794 0.76021 0.0
O391 O 0.76439 0.06366 0.24699 0.0
Zn392 Zn 0.76409 0.04658 0.1947 0.0
O393 O 0.71748 0.02429 0.18657 0.0
Zn394 Zn 0.68744 0.0442 0.14802 0.0
Zn395 Zn 0.68806 0.0195 0.22913 0.0
Zn396 Zn 0.72758 0.97876 0.1651 0.0
O397 O 0.67301 0.0032 0.1116 0.0
O398 O 0.73125 0.98664 0.11135 0.0
O399 O 0.77107 0.08691 0.15616 0.0
O400 O 0.72002 0.07922 0.12192 0.0
O401 O 0.64518 0.074 0.16956 0.0
O402 O 0.65194 0.0611 0.22921 0.0
O403 O 0.65671 0.97299 0.22278 0.0
O404 O 0.80531 0.00843 0.19364 0.0
O405 O 0.6841 0.94687 0.17421 0.0
O406 O 0.77388 0.95677 0.18252 0.0
C407 C 0.74891 0.05035 0.27581 0.0
C408 C 0.69963 0.9858 0.09638 0.0
C409 C 0.63641 0.07918 0.20332 0.0
C410 C 0.75114 0.0946 0.12796 0.0
C411 C 0.65776 0.94834 0.19743 0.0
C412 C 0.80377 0.97327 0.19078 0.0
O413 O 0.72122 0.02812 0.27392 0.0
O414 O 0.21788 0.55397 0.2275 0.0
Zn415 Zn 0.22057 0.5367 0.27972 0.0
O416 O 0.27018 0.52435 0.28955 0.0
Zn417 Zn 0.29398 0.54912 0.33009 0.0
Zn418 Zn 0.30002 0.52443 0.24749 0.0
Zn419 Zn 0.26896 0.47716 0.30868 0.0
O420 O 0.3089 0.51176 0.37079 0.0
O421 O 0.25621 0.48328 0.36076 0.0
O422 O 0.20413 0.57507 0.31639 0.0
O423 O 0.25458 0.57975 0.35205 0.0
O424 O 0.33407 0.58397 0.31045 0.0
O425 O 0.33102 0.56909 0.25087 0.0
O426 O 0.33622 0.48257 0.25006 0.0
O427 O 0.18848 0.49125 0.28235 0.0
O428 O 0.31974 0.45651 0.30336 0.0
O429 O 0.22968 0.446 0.28736 0.0
C430 C 0.23756 0.54685 0.19916 0.0
C431 C 0.28287 0.49063 0.38207 0.0
C432 C 0.34358 0.58921 0.27682 0.0
C433 C 0.22127 0.58803 0.34434 0.0
C434 C 0.34292 0.46108 0.27726 0.0
C435 C 0.19667 0.45693 0.28245 0.0
O436 O 0.26896 0.53086 0.2017 0.0
O437 O 0.25934 0.42951 0.75011 0.0
Zn438 Zn 0.25293 0.44813 0.80213 0.0
O439 O 0.20242 0.45902 0.80886 0.0
Zn440 Zn 0.17888 0.44071 0.85256 0.0
Zn441 Zn 0.17309 0.45363 0.76679 0.0
Zn442 Zn 0.20255 0.50859 0.81926 0.0
O443 O 0.16662 0.48442 0.88799 0.0
O444 O 0.21786 0.5122 0.87077 0.0
O445 O 0.26717 0.41043 0.84064 0.0
O446 O 0.21714 0.40954 0.87705 0.0
O447 O 0.13633 0.40629 0.83664 0.0
O448 O 0.14234 0.40946 0.77526 0.0
O449 O 0.13472 0.49391 0.76435 0.0
O450 O 0.28353 0.49524 0.80606 0.0
O451 O 0.15081 0.52663 0.81373 0.0
O452 O 0.24007 0.53587 0.79105 0.0
C453 C 0.23937 0.43273 0.72116 0.0
C454 C 0.19224 0.50815 0.89406 0.0
C455 C 0.12762 0.39552 0.80404 0.0
C456 C 0.24995 0.39923 0.86936 0.0
C457 C 0.12717 0.51777 0.78919 0.0
C458 C 0.2739 0.52768 0.79583 0.0
O459 O 0.20617 0.4449 0.72266 0.0
O460 O 0.73436 0.7205 0.92797 0.0
Zn461 Zn 0.68122 0.72406 0.9427 0.0
O462 O 0.67023 0.7747 0.9539 0.0
Zn463 Zn 0.63008 0.79391 0.92413 0.0
Zn464 Zn 0.71275 0.8054 0.95054 0.0
Zn465 Zn 0.65597 0.77603 0.00382 0.0
O466 O 0.58055 0.79233 0.95311 0.0
O467 O 0.60326 0.76686 0.00432 0.0
O468 O 0.64934 0.70521 0.90083 0.0
O469 O 0.62207 0.75785 0.88385 0.0
O470 O 0.64599 0.84104 0.8965 0.0
O471 O 0.70668 0.8369 0.90648 0.0
O472 O 0.71442 0.84245 -0.0081 0.0
O473 O 0.67684 0.69251 0.98806 0.0
O474 O 0.66552 0.82609 0.02512 0.0
O475 O 0.67758 0.73444 0.03299 0.0
C476 C 0.76227 0.74177 0.93161 0.0
C477 C 0.57612 0.77539 0.98389 0.0
C478 C 0.67927 0.85115 0.88968 0.0
C479 C 0.62937 0.72388 0.87861 0.0
C480 C 0.69107 0.84907 0.01738 0.0
C481 C 0.67969 0.70098 0.02212 0.0
O482 O 0.7589 0.77501 0.94312 0.0
O483 O 0.22673 0.7788 0.0581 0.0
Zn484 Zn 0.17496 0.76769 0.04247 0.0
O485 O 0.17394 0.71813 0.02696 0.0
Zn486 Zn 0.13653 0.68651 0.0464 0.0
Zn487 Zn 0.21999 0.69478 0.02483 0.0
Zn488 Zn 0.15558 0.7206 0.98018 0.0
O489 O 0.09612 0.67519 0.00712 0.0
O490 O 0.10289 0.73119 0.9852 0.0
O491 O 0.13839 0.77257 0.08468 0.0
O492 O 0.11516 0.71505 0.08793 0.0
O493 O 0.16125 0.64172 0.06865 0.0
O494 O 0.22074 0.65825 0.06607 0.0
O495 O 0.22066 0.66079 0.98039 0.0
O496 O 0.16799 0.80234 -0.00128 0.0
O497 O 0.16419 0.67087 0.95818 0.0
O498 O 0.17672 0.76191 0.95319 0.0
C499 C 0.25793 0.76546 0.04851 0.0
C500 C 0.08382 0.70204 0.9877 0.0
C501 C 0.19512 0.63671 0.07739 0.0
C502 C 0.11784 0.74809 0.10003 0.0
C503 C 0.19287 0.65065 0.96096 0.0
C504 C 0.17472 0.79498 0.96487 0.0
O505 O 0.26042 0.73417 0.0319 0.0
O506 O 0.23123 0.23046 0.55689 0.0
Zn507 Zn 0.28273 0.23433 0.53792 0.0
O508 O 0.29133 0.28403 0.52467 0.0
Zn509 Zn 0.33408 0.30755 0.54581 0.0
Zn510 Zn 0.24934 0.31426 0.52797 0.0
Zn511 Zn 0.30578 0.28222 0.47587 0.0
O512 O 0.37276 0.3204 0.50565 0.0
O513 O 0.35805 0.26898 0.47656 0.0
O514 O 0.32112 0.21856 0.57486 0.0
O515 O 0.3577 0.26858 0.57619 0.0
O516 O 0.31736 0.34914 0.58049 0.0
O517 O 0.25639 0.34557 0.57202 0.0
O518 O 0.25007 0.35163 0.48637 0.0
O519 O 0.28453 0.20182 0.49291 0.0
O520 O 0.30006 0.33311 0.45575 0.0
O521 O 0.28185 0.24256 0.44699 0.0
C522 C 0.20232 0.25007 0.55205 0.0
C523 C 0.38125 0.29421 0.48351 0.0
C524 C 0.28437 0.35886 0.58875 0.0
C525 C 0.35013 0.23548 0.58574 0.0
C526 C 0.27577 0.35755 0.46287 0.0
C527 C 0.28074 0.20938 0.4587 0.0
O528 O 0.20381 0.28233 0.53733 0.0
O529 O 0.74765 0.26924 0.42428 0.0
Zn530 Zn 0.79914 0.26114 0.44337 0.0
O531 O 0.80168 0.21166 0.45957 0.0
Zn532 Zn 0.8427 0.1828 0.44464 0.0
Zn533 Zn 0.7577 0.18514 0.45686 0.0
Zn534 Zn 0.81112 0.21634 0.50878 0.0
O535 O 0.87653 0.17302 0.48963 0.0
O536 O 0.86356 0.22821 0.51193 0.0
O537 O 0.83921 0.26835 0.4052 0.0
O538 O 0.87051 0.21508 0.41003 0.0
O539 O 0.823 0.13832 0.41525 0.0
O540 O 0.76253 0.15092 0.41484 0.0
O541 O 0.75344 0.14989 0.49942 0.0
O542 O 0.80314 0.29674 0.4867 0.0
O543 O 0.80301 0.16675 0.53135 0.0
O544 O 0.78278 0.25774 0.52966 0.0
C545 C 0.71731 0.25282 0.43206 0.0
C546 C 0.88457 0.20028 0.51075 0.0
C547 C 0.79002 0.13192 0.40387 0.0
C548 C 0.86619 0.24732 0.39636 0.0
C549 C 0.77792 0.14321 0.52385 0.0
C550 C 0.78863 0.29053 0.51821 0.0
O551 O 0.71658 0.22119 0.44799 0.0
C552 C 0.1459 0.36575 0.27606 0.0
C553 C 0.11427 0.37651 0.25648 0.0
H554 H 0.19753 0.38316 0.29929 0.0
C555 C 0.10853 0.41401 0.24817 0.0
H556 H 0.15079 0.33688 0.28256 0.0
C557 C 0.13479 0.44035 0.25789 0.0
C558 C 0.16754 0.42949 0.27553 0.0
H559 H 0.08407 0.42286 0.23327 0.0
H560 H 0.13007 0.46897 0.25026 0.0
C561 C 0.17263 0.39211 0.28524 0.0
C562 C 0.294 0.58621 0.76583 0.0
C563 C 0.30223 0.55597 0.78878 0.0
H564 H 0.31551 0.63259 0.73591 0.0
C565 C 0.3379 0.55255 0.80383 0.0
H566 H 0.26669 0.58963 0.754 0.0
C567 C 0.3655 0.57789 0.79431 0.0
C568 C 0.35769 0.6064 0.76926 0.0
H569 H 0.34476 0.52971 0.822 0.0
H570 H 0.39341 0.57365 0.80434 0.0
C571 C 0.3217 0.61097 0.75576 0.0
C572 C 0.61509 0.07793 0.68344 0.0
C573 C 0.62163 0.10389 0.71138 0.0
H574 H 0.63597 0.03059 0.65466 0.0
C575 C 0.65544 0.10418 0.73026 0.0
H576 H 0.58881 0.07718 0.66906 0.0
C577 C 0.68238 0.07817 0.72184 0.0
C578 C 0.67529 0.05092 0.69519 0.0
H579 H 0.66061 0.12398 0.75217 0.0
H580 H 0.70813 0.07849 0.73715 0.0
C581 C 0.64172 0.05119 0.67565 0.0
C582 C 0.88574 0.93645 0.24295 0.0
C583 C 0.88804 0.90036 0.22859 0.0
H584 H 0.85749 0.98854 0.24137 0.0
C585 C 0.86575 0.89043 0.19841 0.0
H586 H 0.90294 0.94495 0.26596 0.0
C587 C 0.83966 0.91518 0.18468 0.0
C588 C 0.8359 0.95048 0.20041 0.0
H589 H 0.86703 0.8629 0.18665 0.0
H590 H 0.82143 0.90619 0.16265 0.0
C591 C 0.86003 0.96149 0.22871 0.0
C592 C 0.26181 0.14487 0.44475 0.0
C593 C 0.27566 0.17896 0.43236 0.0
H594 H 0.24407 0.09049 0.42991 0.0
C595 C 0.28498 0.18342 0.3949 0.0
H596 H 0.25459 0.14065 0.47349 0.0
C597 C 0.2797 0.15433 0.37004 0.0
C598 C 0.26436 0.12088 0.38235 0.0
H599 H 0.29618 0.20937 0.38483 0.0
H600 H 0.28608 0.15848 0.34109 0.0
C601 C 0.25589 0.11621 0.41988 0.0
C602 C 0.18895 0.8455 0.87583 0.0
C603 C 0.21624 0.87105 0.88623 0.0
H604 H 0.15414 0.80086 0.89337 0.0
C605 C 0.22601 0.87471 0.92361 0.0
H606 H 0.1809 0.84242 0.84715 0.0
C607 C 0.2099 0.85183 0.9501 0.0
C608 C 0.18459 0.82453 0.93924 0.0
H609 H 0.24666 0.89471 0.93222 0.0
H610 H 0.21901 0.85383 0.97856 0.0
C611 C 0.17359 0.82197 0.90216 0.0
C612 C 0.79807 0.35185 0.54848 0.0
C613 C 0.77528 0.32143 0.54042 0.0
H614 H 0.80308 0.40322 0.57805 0.0
C615 C 0.73921 0.31999 0.55433 0.0
H616 H 0.82606 0.35317 0.53793 0.0
C617 C 0.72588 0.34871 0.57599 0.0
C618 C 0.74879 0.37876 0.58498 0.0
H619 H 0.72125 0.29673 0.5482 0.0
H620 H 0.69789 0.34695 0.58653 0.0
C621 C 0.78507 0.38018 0.57133 0.0
C622 C 0.71668 0.61219 0.06151 0.0
C623 C 0.71223 0.61787 0.09954 0.0
H624 H 0.7093 0.63381 0.00723 0.0
C625 C 0.6941 0.64969 0.1122 0.0
H626 H 0.73051 0.58767 0.05125 0.0
C627 C 0.68256 0.67667 0.08695 0.0
C628 C 0.68836 0.67156 0.04887 0.0
H629 H 0.69065 0.65456 0.14152 0.0
H630 H 0.66988 0.70177 0.09723 0.0
C631 C 0.70451 0.63858 0.03637 0.0
C632 C 0.4165 0.28005 0.11363 0.0
C633 C 0.39024 0.25217 0.1197 0.0
H634 H 0.46231 0.31027 0.13625 0.0
C635 C 0.38887 0.23374 0.1537 0.0
H636 H 0.41805 0.29407 0.0872 0.0
C637 C 0.41352 0.24319 0.18166 0.0
C638 C 0.4405 0.27045 0.17551 0.0
H639 H 0.36893 0.2118 0.15845 0.0
H640 H 0.41204 0.22857 0.20777 0.0
C641 C 0.44187 0.28891 0.14136 0.0
C642 C 0.92209 0.21626 0.88126 0.0
C643 C 0.88445 0.20856 0.87545 0.0
H644 H 0.97705 0.21181 0.86016 0.0
C645 C 0.87359 0.18594 0.84603 0.0
H646 H 0.93092 0.23339 0.90422 0.0
C647 C 0.89987 0.17411 0.82056 0.0
C648 C 0.9372 0.18423 0.82484 0.0
H649 H 0.84466 0.17972 0.84124 0.0
H650 H 0.89077 0.15855 0.79662 0.0
C651 C 0.94842 0.20381 0.85627 0.0
C652 C 0.57091 0.73245 0.27799 0.0
C653 C 0.55399 0.76708 0.27447 0.0
H654 H 0.6062 0.69821 0.31085 0.0
C655 C 0.56287 0.79558 0.29939 0.0
H656 H 0.56443 0.71018 0.259 0.0
C657 C 0.58724 0.78907 0.32847 0.0
C658 C 0.60223 0.75371 0.33343 0.0
H659 H 0.55033 0.8227 0.29681 0.0
H660 H 0.59282 0.81103 0.34808 0.0
C661 C 0.59456 0.72566 0.30761 0.0
C662 C 0.10791 0.71096 0.6583 0.0
C663 C 0.10222 0.69956 0.62183 0.0
H664 H 0.08615 0.71361 0.71289 0.0
C665 C 0.07045 0.67928 0.61258 0.0
H666 H 0.132 0.72729 0.66562 0.0
C667 C 0.0435 0.67229 0.63936 0.0
C668 C 0.04839 0.6852 0.67565 0.0
H669 H 0.06535 0.67109 0.58423 0.0
H670 H 0.01847 0.65782 0.63142 0.0
C671 C 0.08144 0.70345 0.68513 0.0
C672 C 0.84777 0.58412 0.69096 0.0
C673 C 0.84832 0.60197 0.72527 0.0
H674 H 0.81896 0.54603 0.65585 0.0
C675 C 0.81835 0.59781 0.74955 0.0
H676 H 0.87069 0.58702 0.67192 0.0
C677 C 0.78868 0.57511 0.74025 0.0
C678 C 0.78895 0.55556 0.70685 0.0
H679 H 0.81816 0.61168 0.77609 0.0
H680 H 0.76632 0.5717 0.75986 0.0
C681 C 0.81839 0.56063 0.68197 0.0
C682 C 0.61202 0.42412 0.22661 0.0
C683 C 0.61579 0.3863 0.2185 0.0
H684 H 0.63594 0.47809 0.22349 0.0
C685 C 0.64642 0.37411 0.19823 0.0
H686 H 0.58842 0.43415 0.24205 0.0
C687 C 0.67404 0.39924 0.18813 0.0
C688 C 0.67092 0.43689 0.19759 0.0
H689 H 0.64989 0.34503 0.19184 0.0
H690 H 0.69812 0.3891 0.17356 0.0
C691 C 0.63917 0.44925 0.21597 0.0
C692 C 0.36881 0.88732 0.28364 0.0
C693 C 0.39036 0.89803 0.25324 0.0
H694 H 0.32557 0.90239 0.32087 0.0
C695 C 0.38849 0.93474 0.24039 0.0
H696 H 0.36986 0.8593 0.29429 0.0
C697 C 0.36359 0.95962 0.25609 0.0
C698 C 0.33987 0.94784 0.28437 0.0
H699 H 0.40522 0.94384 0.21728 0.0
H700 H 0.36113 0.98713 0.24439 0.0
C701 C 0.34351 0.91196 0.29887 0.0
C702 C 0.14416 0.03036 0.7595 0.0
C703 C 0.17614 0.04237 0.77781 0.0
H704 H 0.09212 0.04584 0.73633 0.0
C705 C 0.17912 0.07934 0.7895 0.0
H706 H 0.14129 0.00195 0.75032 0.0
C707 C 0.15058 0.10423 0.7823 0.0
C708 C 0.11938 0.09244 0.76257 0.0
H709 H 0.20349 0.08897 0.80406 0.0
H710 H 0.15351 0.13285 0.79076 0.0
C711 C 0.11615 0.05537 0.75154 0.0
C712 C 0.71803 0.88095 0.54246 0.0
C713 C 0.70523 0.87913 0.57908 0.0
H714 H 0.71441 0.85853 0.48787 0.0
C715 C 0.67502 0.85636 0.58768 0.0
H716 H 0.74087 0.89893 0.53504 0.0
C717 C 0.66005 0.83321 0.56074 0.0
C718 C 0.67461 0.83317 0.52477 0.0
H719 H 0.66444 0.8548 0.61563 0.0
H720 H 0.63844 0.81389 0.56851 0.0
C721 C 0.70255 0.85835 0.51535 0.0
C722 C 0.76124 0.14471 0.038 0.0
C723 C 0.77734 0.17818 0.04926 0.0
H724 H 0.74063 0.09186 0.0545 0.0
C725 C 0.78748 0.18303 0.08648 0.0
H726 H 0.75334 0.14019 0.00948 0.0
C727 C 0.78085 0.15495 0.11221 0.0
C728 C 0.76337 0.12217 0.10101 0.0
H729 H 0.80041 0.20849 0.09568 0.0
H730 H 0.78798 0.15941 0.14094 0.0
C731 C 0.75405 0.11709 0.06371 0.0
C732 C 0.18399 0.67486 0.38532 0.0
C733 C 0.18432 0.66538 0.42304 0.0
H734 H 0.19473 0.65661 0.32997 0.0
C735 C 0.19135 0.62866 0.43357 0.0
H736 H 0.17819 0.70292 0.37648 0.0
C737 C 0.20082 0.60257 0.40709 0.0
C738 C 0.20258 0.61266 0.3698 0.0
H739 H 0.19153 0.62049 0.46237 0.0
H740 H 0.20854 0.57493 0.41588 0.0
C741 C 0.19293 0.64846 0.35873 0.0
C742 C 0.27158 0.34415 0.95451 0.0
C743 C 0.29018 0.31369 0.93941 0.0
H744 H 0.244 0.39533 0.94365 0.0
C745 C 0.29868 0.31329 0.90157 0.0
H746 H 0.26472 0.34506 0.98363 0.0
C747 C 0.2876 0.34249 0.87888 0.0
C748 C 0.26711 0.37184 0.8937 0.0
H749 H 0.31332 0.29015 0.88945 0.0
H750 H 0.29335 0.34119 0.84955 0.0
C751 C 0.25972 0.37281 0.93172 0.0
C752 C 0.56029 0.66831 0.82585 0.0
C753 C 0.56113 0.68668 0.7916 0.0
H754 H 0.58305 0.66498 0.8805 0.0
C755 C 0.58899 0.7128 0.78451 0.0
H756 H 0.53928 0.64771 0.8317 0.0
C757 C 0.61354 0.72284 0.81243 0.0
C758 C 0.61122 0.70609 0.84731 0.0
H759 H 0.59026 0.72723 0.75829 0.0
H760 H 0.63304 0.74512 0.80744 0.0
C761 C 0.58552 0.67773 0.8535 0.0
C762 C 0.06923 0.73686 0.19113 0.0
C763 C 0.05188 0.77128 0.19476 0.0
H764 H 0.10357 0.70253 0.15761 0.0
C765 C 0.05854 0.79916 0.16841 0.0
H766 H 0.06447 0.71499 0.21109 0.0
C767 C 0.0814 0.79231 0.13818 0.0
C768 C 0.09707 0.75722 0.13354 0.0
H769 H 0.04562 0.82609 0.1709 0.0
H770 H 0.08556 0.81386 0.11775 0.0
C771 C 0.09133 0.72974 0.16049 0.0
C772 C 0.39056 0.18608 0.66735 0.0
C773 C 0.42849 0.19188 0.66111 0.0
H774 H 0.33543 0.19478 0.64723 0.0
C775 C 0.44027 0.20813 0.62797 0.0
H776 H 0.38096 0.17329 0.69269 0.0
C777 C 0.4144 0.2209 0.60263 0.0
C778 C 0.37652 0.21673 0.60968 0.0
H779 H 0.46935 0.21292 0.62257 0.0
H780 H 0.42394 0.2351 0.57801 0.0
C781 C 0.36464 0.19808 0.64145 0.0
C782 C 0.88016 0.27833 0.33669 0.0
C783 C 0.89246 0.25912 0.368 0.0
H784 H 0.89397 0.29842 0.28281 0.0
C785 C 0.92947 0.24769 0.37034 0.0
H786 H 0.85163 0.2871 0.3343 0.0
C787 C 0.95372 0.25453 0.34129 0.0
C788 C 0.94098 0.27205 0.30917 0.0
H789 H 0.93946 0.23285 0.39439 0.0
H790 H 0.98201 0.24495 0.34342 0.0
C791 C 0.9042 0.28437 0.30722 0.0
C792 C 0.09764 0.10284 0.23437 0.0
C793 C 0.1114 0.1011 0.27074 0.0
H794 H 0.06894 0.13494 0.1937 0.0
C795 C 0.10257 0.1296 0.2955 0.0
H796 H 0.10368 0.0811 0.21469 0.0
C797 C 0.08291 0.16056 0.28334 0.0
C798 C 0.07135 0.16345 0.2463 0.0
H799 H 0.11264 0.12906 0.32368 0.0
H800 H 0.07804 0.18291 0.30266 0.0
C801 C 0.07763 0.13363 0.22232 0.0
C802 C 0.399 0.85768 0.73916 0.0
C803 C 0.38251 0.85857 0.77434 0.0
H804 H 0.4289 0.82618 0.69933 0.0
C805 C 0.3881 0.82873 0.79852 0.0
H806 H 0.39574 0.88059 0.72007 0.0
C807 C 0.40724 0.79729 0.78651 0.0
C808 C 0.42115 0.79531 0.75017 0.0
H809 H 0.37583 0.82871 0.8258 0.0
H810 H 0.40939 0.77385 0.80507 0.0
C811 C 0.41812 0.82647 0.72723 0.0
C812 C 0.5913 0.33115 0.65037 0.0
C813 C 0.59153 0.36464 0.66966 0.0
H814 H 0.57483 0.27441 0.65043 0.0
C815 C 0.5702 0.3682 0.70185 0.0
H816 H 0.60824 0.32768 0.62595 0.0
C817 C 0.55173 0.33755 0.7166 0.0
C818 C 0.55447 0.30289 0.6993 0.0
H819 H 0.57067 0.39378 0.71747 0.0
H820 H 0.53769 0.34045 0.74285 0.0
C821 C 0.57261 0.30056 0.66488 0.0
C822 C 0.89304 0.62177 0.23737 0.0
C823 C 0.87614 0.62176 0.20238 0.0
H824 H 0.91876 0.65356 0.27984 0.0
C825 C 0.8766 0.65432 0.18114 0.0
H826 H 0.89361 0.59696 0.25422 0.0
C827 C 0.89123 0.68703 0.19598 0.0
C828 C 0.90527 0.6875 0.23226 0.0
H829 H 0.86366 0.65511 0.15415 0.0
H830 H 0.88982 0.71225 0.17982 0.0
C831 C 0.90722 0.65429 0.25222 0.0
C832 C 0.24271 0.05923 0.14208 0.0
C833 C 0.2666 0.05802 0.17258 0.0
H834 H 0.23368 0.08017 0.08752 0.0
C835 C 0.30263 0.07238 0.1691 0.0
H836 H 0.21488 0.04825 0.14394 0.0
C837 C 0.31362 0.09016 0.13664 0.0
C838 C 0.28852 0.09439 0.10741 0.0
H839 H 0.32183 0.07131 0.19207 0.0
H840 H 0.34075 0.10288 0.13552 0.0
C841 C 0.25348 0.07755 0.10985 0.0
C842 C 0.1887 0.89265 0.67356 0.0
C843 C 0.22493 0.9072 0.67346 0.0
H844 H 0.1479 0.86072 0.64451 0.0
C845 C 0.24595 0.90488 0.64104 0.0
H846 H 0.17152 0.8945 0.69798 0.0
C847 C 0.2323 0.88564 0.61053 0.0
C848 C 0.19728 0.86857 0.61171 0.0
H849 H 0.27371 0.91611 0.63985 0.0
H850 H 0.24998 0.88255 0.5866 0.0
C851 C 0.17493 0.8736 0.64286 0.0
C852 C 0.78814 0.39045 0.79037 0.0
C853 C 0.75294 0.40705 0.79017 0.0
H854 H 0.82812 0.35981 0.82206 0.0
C855 C 0.73357 0.41051 0.82348 0.0
H856 H 0.8038 0.38777 0.76504 0.0
C857 C 0.74764 0.3953 0.8558 0.0
C858 C 0.78124 0.37584 0.85559 0.0
H859 H 0.70684 0.42397 0.82441 0.0
H860 H 0.73112 0.39711 0.88069 0.0
C861 C 0.8022 0.37476 0.82297 0.0
C862 C 0.69786 0.573 0.31412 0.0
C863 C 0.7356 0.56659 0.30791 0.0
H864 H 0.65715 0.59914 0.34769 0.0
C865 C 0.76152 0.57862 0.3342 0.0
H866 H 0.67727 0.56367 0.29443 0.0
C867 C 0.75005 0.59949 0.36464 0.0
C868 C 0.71244 0.60812 0.36945 0.0
H869 H 0.79081 0.57406 0.33001 0.0
H870 H 0.77079 0.61024 0.38341 0.0
C871 C 0.68635 0.59329 0.34472 0.0
C872 C 0.18128 0.28613 0.07863 0.0
C873 C 0.18392 0.25109 0.06178 0.0
H874 H 0.14776 0.3233 0.11034 0.0
C875 C 0.15233 0.22853 0.05995 0.0
H876 H 0.20503 0.3044 0.08004 0.0
C877 C 0.11975 0.23938 0.07728 0.0
C878 C 0.11793 0.27315 0.09644 0.0
H879 H 0.15325 0.20159 0.04686 0.0
H880 H 0.09644 0.22047 0.07719 0.0
C881 C 0.14843 0.29717 0.09568 0.0
C882 C 0.64433 0.25994 0.90109 0.0
C883 C 0.67226 0.23436 0.90952 0.0
H884 H 0.59348 0.2698 0.87263 0.0
C885 C 0.6677 0.19715 0.89896 0.0
H886 H 0.647 0.28877 0.90891 0.0
C887 C 0.6369 0.18619 0.8784 0.0
C888 C 0.61035 0.21237 0.86764 0.0
H889 H 0.68863 0.17671 0.9054 0.0
H890 H 0.63494 0.15769 0.86931 0.0
C891 C 0.61378 0.24909 0.88014 0.0
C892 C 0.82995 0.76585 0.42697 0.0
C893 C 0.79533 0.78197 0.42018 0.0
H894 H 0.88759 0.76606 0.4134 0.0
C895 C 0.79389 0.816 0.40101 0.0
H896 H 0.83211 0.73995 0.44192 0.0
C897 C 0.82566 0.83103 0.38502 0.0
C898 C 0.85945 0.81265 0.38843 0.0
H899 H 0.76775 0.82968 0.39589 0.0
H900 H 0.8231 0.85486 0.36699 0.0
C901 C 0.86179 0.78111 0.41112 0.0
C902 C 0.32969 0.65985 0.59502 0.0
C903 C 0.36124 0.68244 0.59622 0.0
H904 H 0.27319 0.65503 0.57783 0.0
C905 C 0.36153 0.71569 0.57596 0.0
H906 H 0.32869 0.6342 0.61053 0.0
C907 C 0.32995 0.72775 0.55745 0.0
C908 C 0.29722 0.7069 0.55887 0.0
H909 H 0.38569 0.73349 0.57609 0.0
H910 H 0.33074 0.7544 0.5437 0.0
C911 C 0.29785 0.67203 0.57653 0.0
C912 C 0.89627 0.86268 0.72135 0.0
C913 C 0.87505 0.86089 0.68884 0.0
H914 H 0.93036 0.83381 0.75985 0.0
C915 C 0.87641 0.82884 0.6671 0.0
H916 H 0.89609 0.88736 0.73836 0.0
C917 C 0.89597 0.7978 0.67961 0.0
C918 C 0.91456 0.79859 0.71389 0.0
H919 H 0.86029 0.82683 0.64194 0.0
H920 H 0.89471 0.77262 0.66344 0.0
C921 C 0.91593 0.83195 0.73368 0.0
C922 C 0.60321 0.13798 0.18804 0.0
C923 C 0.61105 0.1096 0.21339 0.0
H924 H 0.58068 0.19202 0.17969 0.0
C925 C 0.598 0.1128 0.24985 0.0
H926 H 0.61283 0.13637 0.15976 0.0
C927 C 0.57947 0.14468 0.2613 0.0
C928 C 0.57392 0.17415 0.23659 0.0
H929 H 0.60335 0.09127 0.27001 0.0
H930 H 0.57108 0.14688 0.28993 0.0
C931 C 0.58499 0.17 0.19957 0.0
C932 C 0.38726 0.68455 0.27516 0.0
C933 C 0.39952 0.68623 0.23829 0.0
H934 H 0.35989 0.65209 0.31674 0.0
C935 C 0.39749 0.65434 0.21634 0.0
H936 H 0.3888 0.70869 0.29283 0.0
C937 C 0.38157 0.62212 0.23009 0.0
C938 C 0.36691 0.62101 0.26604 0.0
H939 H 0.4074 0.65446 0.18811 0.0
H940 H 0.37944 0.59843 0.21185 0.0
C941 C 0.37095 0.65213 0.28894 0.0
C942 C 0.08367 0.30102 0.80829 0.0
C943 C 0.06386 0.30072 0.7747 0.0
H944 H 0.1191 0.33203 0.84462 0.0
C945 C 0.06039 0.33384 0.7547 0.0
H946 H 0.0865 0.27603 0.82461 0.0
C947 C 0.07902 0.3656 0.76617 0.0
C948 C 0.10117 0.36509 0.79808 0.0
H949 H 0.04505 0.3348 0.72901 0.0
H950 H 0.07766 0.39014 0.74896 0.0
C951 C 0.10207 0.3331 0.82 0.0
C952 C 0.72186 0.89606 0.85973 0.0
C953 C 0.68793 0.87695 0.85922 0.0
H954 H 0.7623 0.92625 0.82901 0.0
C955 C 0.66632 0.87782 0.82704 0.0
H956 H 0.739 0.89614 0.8843 0.0
C957 C 0.67989 0.89493 0.79505 0.0
C958 C 0.71522 0.91156 0.79481 0.0
H959 H 0.64019 0.86315 0.8258 0.0
H960 H 0.66341 0.89359 0.77009 0.0
C961 C 0.73533 0.9132 0.82794 0.0
C962 C 0.73751 0.06702 0.3417 0.0
C963 C 0.76204 0.06385 0.31194 0.0
H964 H 0.72751 0.09127 0.39461 0.0
C965 C 0.79817 0.07805 0.31546 0.0
H966 H 0.70959 0.05627 0.33978 0.0
C967 C 0.80862 0.09769 0.34703 0.0
C968 C 0.78287 0.10389 0.37521 0.0
H969 H 0.8178 0.07555 0.29303 0.0
H970 H 0.83582 0.11026 0.34811 0.0
C971 C 0.74776 0.08717 0.37297 0.0
C972 C 0.24162 0.59587 0.10781 0.0
C973 C 0.20471 0.60736 0.10392 0.0
H974 H 0.28094 0.5666 0.14089 0.0
C975 C 0.17782 0.59338 0.12815 0.0
H976 H 0.26282 0.60581 0.08914 0.0
C977 C 0.18824 0.57117 0.15788 0.0
C978 C 0.2256 0.56217 0.16348 0.0
H979 H 0.14912 0.60154 0.12565 0.0
H980 H 0.16732 0.56267 0.17756 0.0
C981 C 0.25195 0.57318 0.13724 0.0
C982 C 0.28927 0.40283 0.68322 0.0
C983 C 0.25407 0.41938 0.68543 0.0
H984 H 0.32696 0.37093 0.65039 0.0
C985 C 0.2318 0.42044 0.65368 0.0
H986 H 0.30732 0.40188 0.7071 0.0
C987 C 0.24311 0.40286 0.62141 0.0
C988 C 0.27702 0.38393 0.62003 0.0
H989 H 0.20481 0.43337 0.65415 0.0
H990 H 0.22446 0.40269 0.59796 0.0
C991 C 0.30071 0.38531 0.6507 0.0
C992 C 0.83515 0.68014 0.88945 0.0
C993 C 0.8622 0.70626 0.8797 0.0
H994 H 0.78211 0.67094 0.91384 0.0
C995 C 0.85855 0.74299 0.89202 0.0
H996 H 0.83731 0.65163 0.88045 0.0
C997 C 0.8271 0.75405 0.91128 0.0
C998 C 0.79853 0.72866 0.91827 0.0
H999 H 0.87927 0.76364 0.88534 0.0
H1000 H 0.82431 0.78296 0.91871 0.0
C1001 C 0.80347 0.69129 0.90843 0.0
C1002 C 0.32704 0.77379 0.04902 0.0
C1003 C 0.29171 0.78639 0.05893 0.0
H1004 H 0.38526 0.77748 0.05943 0.0
C1005 C 0.28885 0.81809 0.08147 0.0
H1006 H 0.33029 0.74987 0.0313 0.0
C1007 C 0.32034 0.83399 0.09726 0.0
C1008 C 0.35525 0.81899 0.09024 0.0
H1009 H 0.26211 0.82901 0.08928 0.0
H1010 H 0.31705 0.85557 0.11778 0.0
C1011 C 0.35858 0.79009 0.06449 0.0
C1012 C 0.13832 0.26023 0.57597 0.0
C1013 C 0.16712 0.23587 0.56714 0.0
H1014 H 0.08736 0.26771 0.60477 0.0
C1015 C 0.16376 0.19823 0.5768 0.0
H1016 H 0.14002 0.28931 0.56878 0.0
C1017 C 0.13351 0.18576 0.59729 0.0
C1018 C 0.10627 0.21079 0.60878 0.0
H1019 H 0.18533 0.17865 0.56993 0.0
H1020 H 0.13264 0.15704 0.60591 0.0
C1021 C 0.10826 0.24784 0.59676 0.0
C1022 C 0.64937 0.3146 0.38222 0.0
C1023 C 0.61703 0.29347 0.38552 0.0
H1024 H 0.70715 0.31803 0.39443 0.0
C1025 C 0.61648 0.26266 0.40915 0.0
H1026 H 0.65035 0.33837 0.36396 0.0
C1027 C 0.64874 0.25086 0.42635 0.0
C1028 C 0.68218 0.26955 0.41996 0.0
H1029 H 0.5916 0.24616 0.41228 0.0
H1030 H 0.6478 0.22577 0.44276 0.0
C1031 C 0.68189 0.30263 0.39931 0.0
C1032 C 0.95226 0.2534 0.06266 0.0
C1033 C 0.94575 0.2781 0.09186 0.0
H1034 H 0.93963 0.23915 0.00665 0.0
C1035 C 0.92641 0.31115 0.08459 0.0
H1036 H 0.96775 0.22814 0.06704 0.0
C1037 C 0.91192 0.31823 0.04956 0.0
C1038 C 0.91583 0.29205 0.02138 0.0
H1039 H 0.92147 0.33115 0.10624 0.0
H1040 H 0.89463 0.34235 0.04558 0.0
C1041 C 0.9372 0.26023 0.0278 0.0
C1042 C 0.56462 0.66192 0.5324 0.0
C1043 C 0.55675 0.69089 0.50783 0.0
H1044 H 0.5582 0.64054 0.58707 0.0
C1045 C 0.53246 0.71911 0.51886 0.0
H1046 H 0.58391 0.64028 0.52491 0.0
C1047 C 0.51814 0.71969 0.55462 0.0
C1048 C 0.52809 0.69217 0.58014 0.0
H1049 H 0.52641 0.74204 0.50049 0.0
H1050 H 0.50029 0.74237 0.56256 0.0
C1051 C 0.55058 0.66265 0.56832 0.0
C1052 C 0.41986 0.159 0.92335 0.0
C1053 C 0.42208 0.1894 0.94723 0.0
H1054 H 0.42884 0.13868 0.86868 0.0
C1055 C 0.43961 0.22198 0.93501 0.0
H1056 H 0.40609 0.1338 0.93196 0.0
C1057 C 0.45223 0.2251 0.89874 0.0
C1058 C 0.44742 0.19574 0.87383 0.0
H1059 H 0.44122 0.24601 0.95285 0.0
H1060 H 0.4647 0.25095 0.88999 0.0
C1061 C 0.43215 0.16222 0.88687 0.0
C1062 C 0.02031 0.78769 0.46257 0.0
C1063 C 0.04489 0.7598 0.47333 0.0
H1064 H 0.98079 0.80478 0.42183 0.0
C1065 C 0.04161 0.72435 0.45733 0.0
H1066 H 0.02265 0.81528 0.47409 0.0
C1067 C 0.01905 0.71878 0.42658 0.0
C1068 C -0.00187 0.7481 0.41276 0.0
H1069 H 0.06038 0.70237 0.4653 0.0
H1070 H 0.02062 0.69282 0.41169 0.0
C1071 C -0.0033 0.78169 0.43245 0.0
C1072 C 0.09394 0.93505 0.28372 0.0
C1073 C 0.12885 0.922 0.29484 0.0
H1074 H 0.03526 0.9263 0.28463 0.0
C1075 C 0.13093 0.89056 0.31761 0.0
H1076 H 0.09143 0.95981 0.26699 0.0
C1077 C 0.09887 0.87182 0.328 0.0
C1078 C 0.06407 0.88454 0.31644 0.0
H1079 H 0.15737 0.88031 0.32724 0.0
H1080 H 0.1013 0.84673 0.34427 0.0
C1081 C 0.06175 0.9166 0.29468 0.0
C1082 C 0.45077 0.04112 0.75135 0.0
C1083 C 0.46057 0.06221 0.7825 0.0
H1084 H 0.40862 0.0098 0.72392 0.0
C1085 C 0.43601 0.06442 0.81223 0.0
H1086 H 0.46911 0.03972 0.72774 0.0
C1087 C 0.40083 0.04875 0.80941 0.0
C1088 C 0.38989 0.02986 0.77715 0.0
H1089 H 0.44262 0.0812 0.83613 0.0
H1090 H 0.38181 0.05256 0.83206 0.0
C1091 C 0.41581 0.02487 0.74877 0.0
C1092 C 0.55865 0.52625 0.75565 0.0
C1093 C 0.57134 0.50099 0.72946 0.0
H1094 H 0.52045 0.56961 0.76706 0.0
C1095 C 0.55015 0.49426 0.69746 0.0
H1096 H 0.5747 0.53195 0.7803 0.0
C1097 C 0.51969 0.5167 0.68911 0.0
C1098 C 0.51002 0.54534 0.71323 0.0
H1099 H 0.55987 0.47497 0.67673 0.0
H1100 H 0.50694 0.51468 0.66209 0.0
C1101 C 0.52757 0.54764 0.74796 0.0
C1102 C 0.94369 0.42397 0.2174 0.0
C1103 C 0.95331 0.40491 0.18501 0.0
H1104 H 0.90297 0.45586 0.24577 0.0
C1105 C 0.92952 0.40621 0.15449 0.0
H1106 H 0.96146 0.42287 0.24151 0.0
C1107 C 0.89529 0.42396 0.15734 0.0
C1108 C 0.88473 0.44133 0.19052 0.0
H1109 H 0.93615 0.39132 0.12943 0.0
H1110 H 0.87683 0.42338 0.13382 0.0
C1111 C 0.90989 0.44221 0.22006 0.0
C1112 C 0.26648 0.06998 0.94409 0.0
C1113 C 0.29443 0.09639 0.93817 0.0
H1114 H 0.24641 0.01562 0.93202 0.0
C1115 C 0.32673 0.08556 0.91938 0.0
H1116 H 0.24159 0.07697 0.95913 0.0
C1117 C 0.33002 0.04971 0.90507 0.0
C1118 C 0.3008 0.02445 0.90872 0.0
H1119 H 0.34912 0.10495 0.91501 0.0
H1120 H 0.35406 0.04272 0.88881 0.0
C1121 C 0.26962 0.03448 0.92944 0.0
C1122 C 0.81984 0.40313 0.047 0.0
C1123 C 0.78699 0.39245 0.02893 0.0
H1124 H 0.84761 0.44509 0.07846 0.0
C1125 C 0.75899 0.41882 0.02383 0.0
H1126 H 0.84239 0.38381 0.05051 0.0
C1127 C 0.76235 0.45395 0.0394 0.0
C1128 C 0.79384 0.46346 0.06009 0.0
H1129 H 0.73373 0.41185 0.0093 0.0
H1130 H 0.73898 0.47264 0.03796 0.0
C1131 C 0.82335 0.43852 0.0622 0.0
C1132 C 0.65758 0.62788 0.57657 0.0
C1133 C 0.6808 0.62629 0.54554 0.0
H1134 H 0.63398 0.5985 0.62219 0.0
C1135 C 0.69623 0.59213 0.53523 0.0
H1136 H 0.64484 0.65371 0.58482 0.0
C1137 C 0.68882 0.56018 0.5559 0.0
C1138 C 0.66644 0.5622 0.58746 0.0
H1139 H 0.71353 0.58999 0.51091 0.0
H1140 H 0.70183 0.53433 0.54818 0.0
C1141 C 0.65086 0.59625 0.59757 0.0
C1142 C 0.22937 0.90033 0.44986 0.0
C1143 C 0.19919 0.87666 0.44362 0.0
H1144 H 0.25434 0.95279 0.43818 0.0
C1145 C 0.16867 0.89001 0.42337 0.0
H1146 H 0.253 0.89121 0.46584 0.0
C1147 C 0.16904 0.92568 0.40837 0.0
C1148 C 0.20011 0.94849 0.41299 0.0
H1149 H 0.14463 0.87274 0.41856 0.0
H1150 H 0.14606 0.93445 0.39127 0.0
C1151 C 0.22987 0.93581 0.43456 0.0
C1152 C 0.04474 0.66606 0.8995 0.0
C1153 C 0.02737 0.69817 0.88577 0.0
H1154 H 0.07455 0.64119 0.94431 0.0
C1155 C 0.02253 0.72848 0.9095 0.0
H1156 H 0.04816 0.64185 0.88224 0.0
C1157 C 0.0372 0.72776 0.94513 0.0
C1158 C 0.05685 0.69671 0.95785 0.0
H1159 H 0.00853 0.75328 0.9002 0.0
H1160 H 0.03546 0.75255 0.96189 0.0
C1161 C 0.05913 0.66525 0.93535 0.0
C1162 C 0.4499 0.25929 0.41636 0.0
C1163 C 0.447 0.28643 0.38874 0.0
H1164 H 0.43195 0.24154 0.46987 0.0
C1165 C 0.4288 0.3199 0.39692 0.0
H1166 H 0.46434 0.23356 0.41122 0.0
C1167 C 0.41159 0.32502 0.43104 0.0
C1168 C 0.41187 0.29657 0.45731 0.0
H1169 H 0.42685 0.34178 0.37655 0.0
H1170 H 0.39526 0.34973 0.43549 0.0
C1171 C 0.4322 0.26422 0.45024 0.0
C1172 C 0.53723 0.72911 0.01448 0.0
C1173 C 0.53977 0.7646 -0.00155 0.0
H1174 H 0.51676 0.69718 0.06005 0.0
C1175 C 0.51434 0.79185 0.0088 0.0
H1176 H 0.55673 0.70767 0.00688 0.0
C1177 C 0.49062 0.78532 0.0387 0.0
C1178 C 0.49281 0.75185 0.05858 0.0
H1179 H 0.51612 0.81948 -0.00274 0.0
H1180 H 0.47419 0.80806 0.04917 0.0
C1181 C 0.51451 0.72302 0.04497 0.0
C1182 C 0.92693 0.22913 0.55558 0.0
C1183 C 0.91025 0.1968 0.54183 0.0
H1184 H 0.95358 0.25553 0.60114 0.0
C1185 C 0.91016 0.16464 0.56345 0.0
H1186 H 0.92687 0.25444 0.53945 0.0
C1187 C 0.92435 0.16555 0.59934 0.0
C1188 C 0.9394 0.19849 0.61384 0.0
H1189 H 0.89696 0.13958 0.55361 0.0
H1190 H 0.92306 0.14059 0.61584 0.0
C1191 C 0.94146 0.22996 0.59118 0.0
C1192 C 0.90942 0.02423 0.72476 0.0
C1193 C 0.88486 0.02887 0.69511 0.0
H1194 H 0.9618 0.03884 0.74808 0.0
C1195 C 0.89724 0.04762 0.66324 0.0
H1196 H 0.90113 0.00927 0.74936 0.0
C1197 C 0.93247 0.06354 0.66205 0.0
C1198 C 0.95569 0.06151 0.69295 0.0
H1199 H 0.87936 0.05091 0.6395 0.0
H1200 H 0.94033 0.07981 0.63817 0.0
C1201 C 0.94442 0.04053 0.72373 0.0
C1202 C 0.58933 0.93793 0.19878 0.0
C1203 C 0.62493 0.92532 0.18966 0.0
H1204 H 0.53086 0.92841 0.19464 0.0
C1205 C 0.62855 0.89349 0.16769 0.0
H1206 H 0.58567 0.96294 0.21486 0.0
C1207 C 0.59736 0.87425 0.15573 0.0
C1208 C 0.5618 0.88664 0.16499 0.0
H1209 H 0.65558 0.88349 0.1596 0.0
H1210 H 0.60105 0.84914 0.13978 0.0
C1211 C 0.55797 0.91886 0.18632 0.0
C1212 C 0.42733 0.41443 0.31768 0.0
C1213 C 0.45016 0.41207 0.28658 0.0
H1214 H 0.37461 0.4306 0.3387 0.0
C1215 C 0.43875 0.42815 0.25315 0.0
H1216 H 0.43534 0.40155 0.3435 0.0
C1217 C 0.40402 0.44442 0.25019 0.0
C1218 C 0.37991 0.4444 0.28052 0.0
H1219 H 0.45583 0.42602 0.22866 0.0
H1220 H 0.39558 0.45571 0.22377 0.0
C1221 C 0.39227 0.43023 0.3146 0.0
C1222 C 0.06302 0.52492 0.76424 0.0
C1223 C 0.08904 0.53208 0.79217 0.0
H1224 H 0.00896 0.53653 0.74322 0.0
C1225 C 0.07765 0.55126 0.82403 0.0
H1226 H 0.0706 0.50953 0.73974 0.0
C1227 C 0.04182 0.56542 0.82661 0.0
C1228 C 0.01706 0.56111 0.79714 0.0
H1229 H 0.09673 0.55645 0.84649 0.0
H1230 H 0.03475 0.58271 0.84997 0.0
C1231 C 0.02742 0.53948 0.76665 0.0
C1232 C 0.72085 0.91036 0.02921 0.0
C1233 C 0.69167 0.88553 0.03582 0.0
H1234 H 0.74544 0.96254 0.04259 0.0
C1235 C 0.66219 0.89671 0.05861 0.0
H1236 H 0.74369 0.90289 0.01139 0.0
C1237 C 0.66278 0.93141 0.0757 0.0
C1238 C 0.69303 0.95522 0.07056 0.0
H1239 H 0.63896 0.87846 0.06379 0.0
H1240 H 0.64083 0.93854 0.09474 0.0
C1241 C 0.72159 0.94475 0.04656 0.0
C1242 C 0.22047 0.5525 0.93725 0.0
C1243 C 0.18833 0.53895 0.92008 0.0
H1244 H 0.24754 0.59852 0.96275 0.0
C1245 C 0.15701 0.56161 0.9181 0.0
H1246 H 0.24526 0.53571 0.93832 0.0
C1247 C 0.15867 0.59813 0.93086 0.0
C1248 C 0.19157 0.61244 0.94621 0.0
H1249 H 0.13227 0.55211 0.90414 0.0
H1250 H 0.13441 0.61535 0.92791 0.0
C1251 C 0.22205 0.58878 0.95033 0.0
C1252 C 0.31292 0.40465 0.42811 0.0
C1253 C 0.28002 0.39483 0.44655 0.0
H1254 H 0.3408 0.4451 0.39489 0.0
C1255 C 0.25224 0.42156 0.45072 0.0
H1256 H 0.33535 0.38505 0.42532 0.0
C1257 C 0.25579 0.45608 0.43378 0.0
C1258 C 0.28727 0.46459 0.41268 0.0
H1259 H 0.22697 0.41523 0.4655 0.0
H1260 H 0.23252 0.47494 0.43442 0.0
C1261 C 0.31661 0.4394 0.41154 0.0
C1262 C 0.81374 0.09397 0.55681 0.0
C1263 C 0.78123 0.10521 0.53855 0.0
H1264 H 0.84179 0.05025 0.58536 0.0
C1265 C 0.75372 0.07875 0.53113 0.0
H1266 H 0.83584 0.11346 0.56222 0.0
C1267 C 0.75753 0.04255 0.54393 0.0
C1268 C 0.78904 0.03199 0.56399 0.0
H1269 H 0.72873 0.08623 0.51642 0.0
H1270 H 0.73463 0.02344 0.54049 0.0
C1271 C 0.81773 0.05754 0.56915 0.0
loop_
_geom_bond_atom_site_label_1
_geom_bond_atom_site_label_2
_geom_bond_distance
_geom_bond_site_symmetry_2
_ccdc_geom_bond_type
O0 Zn1 1.953 . S
O0 C16 1.225 . S
Zn1 O0 1.953 . S
Zn1 O2 1.949 . S
Zn1 O8 1.919 . S
Zn1 O13 1.924 . S
O2 Zn1 1.949 . S
O2 Zn3 1.923 . S
O2 Zn4 1.950 . S
O2 Zn5 1.945 1_455 S
Zn3 O2 1.923 . S
Zn3 O6 1.933 . S
Zn3 O9 1.941 . S
Zn3 O10 1.965 . S
Zn4 O2 1.950 . S
Zn4 O11 1.938 . S
Zn4 O12 1.906 . S
Zn4 O22 1.953 . S
Zn5 O2 1.945 1_655 S
Zn5 O7 1.932 . S
Zn5 O14 1.977 . S
Zn5 O15 1.910 . S
O6 Zn3 1.933 . S
O6 C17 1.226 1_455 S
O7 Zn5 1.932 . S
O7 C17 1.307 . S
O8 Zn1 1.919 . S
O8 C19 1.253 . S
O9 Zn3 1.941 . S
O9 C19 1.283 . S
O10 Zn3 1.965 . S
O10 C18 1.303 . S
O11 Zn4 1.938 . S
O11 C18 1.247 . S
O12 Zn4 1.906 . S
O12 C20 1.304 1_455 S
O13 Zn1 1.924 . S
O13 C21 1.311 1_455 S
O14 Zn5 1.977 . S
O14 C20 1.272 . S
O15 Zn5 1.910 . S
O15 C21 1.231 . S
C16 O0 1.225 . S
C16 O22 1.298 . S
C17 O6 1.226 1_655 S
C17 O7 1.307 . S
C18 O10 1.303 . S
C18 O11 1.247 . S
C19 O8 1.253 . S
C19 O9 1.283 . S
C20 O12 1.304 1_655 S
C20 O14 1.272 . S
C21 O13 1.311 1_655 S
C21 O15 1.231 . S
O22 Zn4 1.953 . S
O22 C16 1.298 . S
O23 Zn24 1.953 . S
O23 C39 1.225 . S
Zn24 O23 1.953 . S
Zn24 O25 1.949 . S
Zn24 O31 1.919 . S
Zn24 O36 1.924 . S
O25 Zn24 1.949 . S
O25 Zn26 1.923 . S
O25 Zn27 1.950 . S
O25 Zn28 1.945 . S
Zn26 O25 1.923 . S
Zn26 O29 1.933 . S
Zn26 O32 1.941 . S
Zn26 O33 1.965 . S
Zn27 O25 1.950 . S
Zn27 O34 1.938 . S
Zn27 O35 1.906 . S
Zn27 O45 1.953 . S
Zn28 O25 1.945 . S
Zn28 O30 1.932 . S
Zn28 O37 1.977 . S
Zn28 O38 1.910 . S
O29 Zn26 1.933 . S
O29 C40 1.226 . S
O30 Zn28 1.932 . S
O30 C40 1.307 . S
O31 Zn24 1.919 . S
O31 C42 1.253 . S
O32 Zn26 1.941 . S
O32 C42 1.283 . S
O33 Zn26 1.965 . S
O33 C41 1.303 . S
O34 Zn27 1.938 . S
O34 C41 1.247 . S
O35 Zn27 1.906 . S
O35 C43 1.304 . S
O36 Zn24 1.924 . S
O36 C44 1.311 . S
O37 Zn28 1.977 . S
O37 C43 1.272 . S
O38 Zn28 1.910 . S
O38 C44 1.231 . S
C39 O23 1.225 . S
C39 O45 1.298 . S
C40 O29 1.226 . S
C40 O30 1.307 . S
C41 O33 1.303 . S
C41 O34 1.247 . S
C42 O31 1.253 . S
C42 O32 1.283 . S
C43 O35 1.304 . S
C43 O37 1.272 . S
C44 O36 1.311 . S
C44 O38 1.231 . S
O45 Zn27 1.953 . S
O45 C39 1.298 . S
O46 Zn47 1.953 . S
O46 C62 1.225 . S
Zn47 O46 1.953 . S
Zn47 O48 1.949 . S
Zn47 O54 1.919 . S
Zn47 O59 1.924 . S
O48 Zn47 1.949 . S
O48 Zn49 1.923 . S
O48 Zn50 1.950 . S
O48 Zn51 1.945 . S
Zn49 O48 1.923 . S
Zn49 O52 1.933 . S
Zn49 O55 1.941 . S
Zn49 O56 1.965 . S
Zn50 O48 1.950 . S
Zn50 O57 1.938 . S
Zn50 O58 1.906 . S
Zn50 O68 1.953 . S
Zn51 O48 1.945 . S
Zn51 O53 1.932 . S
Zn51 O60 1.977 . S
Zn51 O61 1.910 . S
O52 Zn49 1.933 . S
O52 C63 1.226 . S
O53 Zn51 1.932 . S
O53 C63 1.307 . S
O54 Zn47 1.919 . S
O54 C65 1.253 . S
O55 Zn49 1.941 . S
O55 C65 1.283 . S
O56 Zn49 1.965 . S
O56 C64 1.303 . S
O57 Zn50 1.938 . S
O57 C64 1.247 . S
O58 Zn50 1.906 . S
O58 C66 1.304 . S
O59 Zn47 1.924 . S
O59 C67 1.311 . S
O60 Zn51 1.977 . S
O60 C66 1.272 . S
O61 Zn51 1.910 . S
O61 C67 1.231 . S
C62 O46 1.225 . S
C62 O68 1.298 . S
C63 O52 1.226 . S
C63 O53 1.307 . S
C64 O56 1.303 . S
C64 O57 1.247 . S
C65 O54 1.253 . S
C65 O55 1.283 . S
C66 O58 1.304 . S
C66 O60 1.272 . S
C67 O59 1.311 . S
C67 O61 1.231 . S
O68 Zn50 1.953 . S
O68 C62 1.298 . S
O69 Zn70 1.953 . S
O69 C85 1.225 . S
Zn70 O69 1.953 . S
Zn70 O71 1.949 . S
Zn70 O77 1.919 . S
Zn70 O82 1.924 . S
O71 Zn70 1.949 . S
O71 Zn72 1.923 . S
O71 Zn73 1.950 . S
O71 Zn74 1.945 1_655 S
Zn72 O71 1.923 . S
Zn72 O75 1.933 . S
Zn72 O78 1.941 . S
Zn72 O79 1.965 . S
Zn73 O71 1.950 . S
Zn73 O80 1.938 . S
Zn73 O81 1.906 . S
Zn73 O91 1.953 . S
Zn74 O71 1.945 1_455 S
Zn74 O76 1.932 . S
Zn74 O83 1.977 . S
Zn74 O84 1.910 . S
O75 Zn72 1.933 . S
O75 C86 1.226 1_655 S
O76 Zn74 1.932 . S
O76 C86 1.307 . S
O77 Zn70 1.919 . S
O77 C88 1.253 . S
O78 Zn72 1.941 . S
O78 C88 1.283 . S
O79 Zn72 1.965 . S
O79 C87 1.303 . S
O80 Zn73 1.938 . S
O80 C87 1.247 . S
O81 Zn73 1.906 . S
O81 C89 1.304 1_655 S
O82 Zn70 1.924 . S
O82 C90 1.311 1_655 S
O83 Zn74 1.977 . S
O83 C89 1.272 . S
O84 Zn74 1.910 . S
O84 C90 1.231 . S
C85 O69 1.225 . S
C85 O91 1.298 . S
C86 O75 1.226 1_455 S
C86 O76 1.307 . S
C87 O79 1.303 . S
C87 O80 1.247 . S
C88 O77 1.253 . S
C88 O78 1.283 . S
C89 O81 1.304 1_455 S
C89 O83 1.272 . S
C90 O82 1.311 1_455 S
C90 O84 1.231 . S
O91 Zn73 1.953 . S
O91 C85 1.298 . S
O92 Zn93 1.953 . S
O92 C108 1.225 . S
Zn93 O92 1.953 . S
Zn93 O94 1.949 . S
Zn93 O100 1.919 . S
Zn93 O105 1.924 . S
O94 Zn93 1.949 . S
O94 Zn95 1.923 . S
O94 Zn96 1.950 . S
O94 Zn97 1.945 1_545 S
Zn95 O94 1.923 . S
Zn95 O98 1.933 . S
Zn95 O101 1.941 . S
Zn95 O102 1.965 . S
Zn96 O94 1.950 . S
Zn96 O103 1.938 . S
Zn96 O104 1.906 . S
Zn96 O114 1.953 . S
Zn97 O94 1.945 1_565 S
Zn97 O99 1.932 . S
Zn97 O106 1.977 . S
Zn97 O107 1.910 . S
O98 Zn95 1.933 . S
O98 C109 1.226 1_545 S
O99 Zn97 1.932 . S
O99 C109 1.307 . S
O100 Zn93 1.919 . S
O100 C111 1.253 . S
O101 Zn95 1.941 . S
O101 C111 1.283 . S
O102 Zn95 1.965 . S
O102 C110 1.303 . S
O103 Zn96 1.938 . S
O103 C110 1.247 . S
O104 Zn96 1.906 . S
O104 C112 1.304 1_545 S
O105 Zn93 1.924 . S
O105 C113 1.311 1_545 S
O106 Zn97 1.977 . S
O106 C112 1.272 . S
O107 Zn97 1.910 . S
O107 C113 1.231 . S
C108 O92 1.225 . S
C108 O114 1.298 . S
C109 O98 1.226 1_565 S
C109 O99 1.307 . S
C110 O102 1.303 . S
C110 O103 1.247 . S
C111 O100 1.253 . S
C111 O101 1.283 . S
C112 O104 1.304 1_565 S
C112 O106 1.272 . S
C113 O105 1.311 1_565 S
C113 O107 1.231 . S
O114 Zn96 1.953 . S
O114 C108 1.298 . S
O115 Zn116 1.953 . S
O115 C131 1.225 . S
Zn116 O115 1.953 . S
Zn116 O117 1.949 . S
Zn116 O123 1.919 . S
Zn116 O128 1.924 . S
O117 Zn116 1.949 . S
O117 Zn118 1.923 . S
O117 Zn119 1.950 . S
O117 Zn120 1.945 1_565 S
Zn118 O117 1.923 . S
Zn118 O121 1.933 . S
Zn118 O124 1.941 . S
Zn118 O125 1.965 . S
Zn119 O117 1.950 . S
Zn119 O126 1.938 . S
Zn119 O127 1.906 . S
Zn119 O137 1.953 . S
Zn120 O117 1.945 1_545 S
Zn120 O122 1.932 . S
Zn120 O129 1.977 . S
Zn120 O130 1.910 . S
O121 Zn118 1.933 . S
O121 C132 1.226 1_565 S
O122 Zn120 1.932 . S
O122 C132 1.307 . S
O123 Zn116 1.919 . S
O123 C134 1.253 . S
O124 Zn118 1.941 . S
O124 C134 1.283 . S
O125 Zn118 1.965 . S
O125 C133 1.303 . S
O126 Zn119 1.938 . S
O126 C133 1.247 . S
O127 Zn119 1.906 . S
O127 C135 1.304 1_565 S
O128 Zn116 1.924 . S
O128 C136 1.311 1_565 S
O129 Zn120 1.977 . S
O129 C135 1.272 . S
O130 Zn120 1.910 . S
O130 C136 1.231 . S
C131 O115 1.225 . S
C131 O137 1.298 . S
C132 O121 1.226 1_545 S
C132 O122 1.307 . S
C133 O125 1.303 . S
C133 O126 1.247 . S
C134 O123 1.253 . S
C134 O124 1.283 . S
C135 O127 1.304 1_545 S
C135 O129 1.272 . S
C136 O128 1.311 1_545 S
C136 O130 1.231 . S
O137 Zn119 1.953 . S
O137 C131 1.298 . S
O138 Zn139 1.953 . S
O138 C154 1.225 . S
Zn139 O138 1.953 . S
Zn139 O140 1.949 . S
Zn139 O146 1.919 . S
Zn139 O151 1.924 . S
O140 Zn139 1.949 . S
O140 Zn141 1.923 . S
O140 Zn142 1.950 . S
O140 Zn143 1.945 . S
Zn141 O140 1.923 . S
Zn141 O144 1.933 . S
Zn141 O147 1.941 . S
Zn141 O148 1.965 . S
Zn142 O140 1.950 . S
Zn142 O149 1.938 . S
Zn142 O150 1.906 . S
Zn142 O160 1.953 . S
Zn143 O140 1.945 . S
Zn143 O145 1.932 . S
Zn143 O152 1.977 . S
Zn143 O153 1.910 . S
O144 Zn141 1.933 . S
O144 C155 1.226 . S
O145 Zn143 1.932 . S
O145 C155 1.307 . S
O146 Zn139 1.919 . S
O146 C157 1.253 . S
O147 Zn141 1.941 . S
O147 C157 1.283 . S
O148 Zn141 1.965 . S
O148 C156 1.303 . S
O149 Zn142 1.938 . S
O149 C156 1.247 . S
O150 Zn142 1.906 . S
O150 C158 1.304 . S
O151 Zn139 1.924 . S
O151 C159 1.311 . S
O152 Zn143 1.977 . S
O152 C158 1.272 . S
O153 Zn143 1.910 . S
O153 C159 1.231 . S
C154 O138 1.225 . S
C154 O160 1.298 . S
C155 O144 1.226 . S
C155 O145 1.307 . S
C156 O148 1.303 . S
C156 O149 1.247 . S
C157 O146 1.253 . S
C157 O147 1.283 . S
C158 O150 1.304 . S
C158 O152 1.272 . S
C159 O151 1.311 . S
C159 O153 1.231 . S
O160 Zn142 1.953 . S
O160 C154 1.298 . S
O161 Zn162 1.953 . S
O161 C177 1.225 . S
Zn162 O161 1.953 . S
Zn162 O163 1.949 . S
Zn162 O169 1.919 . S
Zn162 O174 1.924 . S
O163 Zn162 1.949 . S
O163 Zn164 1.923 . S
O163 Zn165 1.950 . S
O163 Zn166 1.945 . S
Zn164 O163 1.923 . S
Zn164 O167 1.933 . S
Zn164 O170 1.941 . S
Zn164 O171 1.965 . S
Zn165 O163 1.950 . S
Zn165 O172 1.938 . S
Zn165 O173 1.906 . S
Zn165 O183 1.953 . S
Zn166 O163 1.945 . S
Zn166 O168 1.932 . S
Zn166 O175 1.977 . S
Zn166 O176 1.910 . S
O167 Zn164 1.933 . S
O167 C178 1.226 . S
O168 Zn166 1.932 . S
O168 C178 1.307 . S
O169 Zn162 1.919 . S
O169 C180 1.253 . S
O170 Zn164 1.941 . S
O170 C180 1.283 . S
O171 Zn164 1.965 . S
O171 C179 1.303 . S
O172 Zn165 1.938 . S
O172 C179 1.247 . S
O173 Zn165 1.906 . S
O173 C181 1.304 . S
O174 Zn162 1.924 . S
O174 C182 1.311 . S
O175 Zn166 1.977 . S
O175 C181 1.272 . S
O176 Zn166 1.910 . S
O176 C182 1.231 . S
C177 O161 1.225 . S
C177 O183 1.298 . S
C178 O167 1.226 . S
C178 O168 1.307 . S
C179 O171 1.303 . S
C179 O172 1.247 . S
C180 O169 1.253 . S
C180 O170 1.283 . S
C181 O173 1.304 . S
C181 O175 1.272 . S
C182 O174 1.311 . S
C182 O176 1.231 . S
O183 Zn165 1.953 . S
O183 C177 1.298 . S
O184 Zn185 1.953 . S
O184 C200 1.225 . S
Zn185 O184 1.953 . S
Zn185 O186 1.949 . S
Zn185 O192 1.919 . S
Zn185 O197 1.924 . S
O186 Zn185 1.949 . S
O186 Zn187 1.923 . S
O186 Zn188 1.950 . S
O186 Zn189 1.945 1_554 S
Zn187 O186 1.923 . S
Zn187 O190 1.933 . S
Zn187 O193 1.941 . S
Zn187 O194 1.965 . S
Zn188 O186 1.950 . S
Zn188 O195 1.938 . S
Zn188 O196 1.906 . S
Zn188 O206 1.953 . S
Zn189 O186 1.945 1_556 S
Zn189 O191 1.932 . S
Zn189 O198 1.977 . S
Zn189 O199 1.910 . S
O190 Zn187 1.933 . S
O190 C201 1.226 1_554 S
O191 Zn189 1.932 . S
O191 C201 1.307 . S
O192 Zn185 1.919 . S
O192 C203 1.253 . S
O193 Zn187 1.941 . S
O193 C203 1.283 . S
O194 Zn187 1.965 . S
O194 C202 1.303 . S
O195 Zn188 1.938 . S
O195 C202 1.247 . S
O196 Zn188 1.906 . S
O196 C204 1.304 1_554 S
O197 Zn185 1.924 . S
O197 C205 1.311 1_554 S
O198 Zn189 1.977 . S
O198 C204 1.272 . S
O199 Zn189 1.910 . S
O199 C205 1.231 . S
C200 O184 1.225 . S
C200 O206 1.298 . S
C201 O190 1.226 1_556 S
C201 O191 1.307 . S
C202 O194 1.303 . S
C202 O195 1.247 . S
C203 O192 1.253 . S
C203 O193 1.283 . S
C204 O196 1.304 1_556 S
C204 O198 1.272 . S
C205 O197 1.311 1_556 S
C205 O199 1.231 . S
O206 Zn188 1.953 . S
O206 C200 1.298 . S
O207 Zn208 1.953 . S
O207 C223 1.225 . S
Zn208 O207 1.953 . S
Zn208 O209 1.949 . S
Zn208 O215 1.919 . S
Zn208 O220 1.924 . S
O209 Zn208 1.949 . S
O209 Zn210 1.923 . S
O209 Zn211 1.950 . S
O209 Zn212 1.945 1_556 S
Zn210 O209 1.923 . S
Zn210 O213 1.933 . S
Zn210 O216 1.941 . S
Zn210 O217 1.965 . S
Zn211 O209 1.950 . S
Zn211 O218 1.938 . S
Zn211 O219 1.906 . S
Zn211 O229 1.953 . S
Zn212 O209 1.945 1_554 S
Zn212 O214 1.932 . S
Zn212 O221 1.977 . S
Zn212 O222 1.910 . S
O213 Zn210 1.933 . S
O213 C224 1.226 1_556 S
O214 Zn212 1.932 . S
O214 C224 1.307 . S
O215 Zn208 1.919 . S
O215 C226 1.253 . S
O216 Zn210 1.941 . S
O216 C226 1.283 . S
O217 Zn210 1.965 . S
O217 C225 1.303 . S
O218 Zn211 1.938 . S
O218 C225 1.247 . S
O219 Zn211 1.906 . S
O219 C227 1.304 1_556 S
O220 Zn208 1.924 . S
O220 C228 1.311 1_556 S
O221 Zn212 1.977 . S
O221 C227 1.272 . S
O222 Zn212 1.910 . S
O222 C228 1.231 . S
C223 O207 1.225 . S
C223 O229 1.298 . S
C224 O213 1.226 1_554 S
C224 O214 1.307 . S
C225 O217 1.303 . S
C225 O218 1.247 . S
C226 O215 1.253 . S
C226 O216 1.283 . S
C227 O219 1.304 1_554 S
C227 O221 1.272 . S
C228 O220 1.311 1_554 S
C228 O222 1.231 . S
O229 Zn211 1.953 . S
O229 C223 1.298 . S
O230 Zn231 1.953 . S
O230 C246 1.225 . S
Zn231 O230 1.953 . S
Zn231 O232 1.949 . S
Zn231 O238 1.919 . S
Zn231 O243 1.924 . S
O232 Zn231 1.949 . S
O232 Zn233 1.923 . S
O232 Zn234 1.950 . S
O232 Zn235 1.945 . S
Zn233 O232 1.923 . S
Zn233 O236 1.933 . S
Zn233 O239 1.941 . S
Zn233 O240 1.965 . S
Zn234 O232 1.950 . S
Zn234 O241 1.938 . S
Zn234 O242 1.906 . S
Zn234 O252 1.953 . S
Zn235 O232 1.945 . S
Zn235 O237 1.932 . S
Zn235 O244 1.977 . S
Zn235 O245 1.910 . S
O236 Zn233 1.933 . S
O236 C247 1.226 . S
O237 Zn235 1.932 . S
O237 C247 1.307 . S
O238 Zn231 1.919 . S
O238 C249 1.253 . S
O239 Zn233 1.941 . S
O239 C249 1.283 . S
O240 Zn233 1.965 . S
O240 C248 1.303 . S
O241 Zn234 1.938 . S
O241 C248 1.247 . S
O242 Zn234 1.906 . S
O242 C250 1.304 . S
O243 Zn231 1.924 . S
O243 C251 1.311 . S
O244 Zn235 1.977 . S
O244 C250 1.272 . S
O245 Zn235 1.910 . S
O245 C251 1.231 . S
C246 O230 1.225 . S
C246 O252 1.298 . S
C247 O236 1.226 . S
C247 O237 1.307 . S
C248 O240 1.303 . S
C248 O241 1.247 . S
C249 O238 1.253 . S
C249 O239 1.283 . S
C250 O242 1.304 . S
C250 O244 1.272 . S
C251 O243 1.311 . S
C251 O245 1.231 . S
O252 Zn234 1.953 . S
O252 C246 1.298 . S
O253 Zn254 1.953 . S
O253 C269 1.225 . S
Zn254 O253 1.953 . S
Zn254 O255 1.949 . S
Zn254 O261 1.919 . S
Zn254 O266 1.924 . S
O255 Zn254 1.949 . S
O255 Zn256 1.923 . S
O255 Zn257 1.950 . S
O255 Zn258 1.945 . S
Zn256 O255 1.923 . S
Zn256 O259 1.933 . S
Zn256 O262 1.941 . S
Zn256 O263 1.965 . S
Zn257 O255 1.950 . S
Zn257 O264 1.938 . S
Zn257 O265 1.906 . S
Zn257 O275 1.953 . S
Zn258 O255 1.945 . S
Zn258 O260 1.932 . S
Zn258 O267 1.977 . S
Zn258 O268 1.910 . S
O259 Zn256 1.933 . S
O259 C270 1.226 . S
O260 Zn258 1.932 . S
O260 C270 1.307 . S
O261 Zn254 1.919 . S
O261 C272 1.253 . S
O262 Zn256 1.941 . S
O262 C272 1.283 . S
O263 Zn256 1.965 . S
O263 C271 1.303 . S
O264 Zn257 1.938 . S
O264 C271 1.247 . S
O265 Zn257 1.906 . S
O265 C273 1.304 . S
O266 Zn254 1.924 . S
O266 C274 1.311 . S
O267 Zn258 1.977 . S
O267 C273 1.272 . S
O268 Zn258 1.910 . S
O268 C274 1.231 . S
C269 O253 1.225 . S
C269 O275 1.298 . S
C270 O259 1.226 . S
C270 O260 1.307 . S
C271 O263 1.303 . S
C271 O264 1.247 . S
C272 O261 1.253 . S
C272 O262 1.283 . S
C273 O265 1.304 . S
C273 O267 1.272 . S
C274 O266 1.311 . S
C274 O268 1.231 . S
O275 Zn257 1.953 . S
O275 C269 1.298 . S
O276 Zn277 1.953 . S
O276 C292 1.225 . S
Zn277 O276 1.953 . S
Zn277 O278 1.949 . S
Zn277 O284 1.919 . S
Zn277 O289 1.924 . S
O278 Zn277 1.949 . S
O278 Zn279 1.923 . S
O278 Zn280 1.950 . S
O278 Zn281 1.945 1_655 S
Zn279 O278 1.923 . S
Zn279 O282 1.933 . S
Zn279 O285 1.941 . S
Zn279 O286 1.965 . S
Zn280 O278 1.950 . S
Zn280 O287 1.938 . S
Zn280 O288 1.906 . S
Zn280 O298 1.953 . S
Zn281 O278 1.945 1_455 S
Zn281 O283 1.932 . S
Zn281 O290 1.977 . S
Zn281 O291 1.910 . S
O282 Zn279 1.933 . S
O282 C293 1.226 1_655 S
O283 Zn281 1.932 . S
O283 C293 1.307 . S
O284 Zn277 1.919 . S
O284 C295 1.253 . S
O285 Zn279 1.941 . S
O285 C295 1.283 . S
O286 Zn279 1.965 . S
O286 C294 1.303 . S
O287 Zn280 1.938 . S
O287 C294 1.247 . S
O288 Zn280 1.906 . S
O288 C296 1.304 1_655 S
O289 Zn277 1.924 . S
O289 C297 1.311 1_655 S
O290 Zn281 1.977 . S
O290 C296 1.272 . S
O291 Zn281 1.910 . S
O291 C297 1.231 . S
C292 O276 1.225 . S
C292 O298 1.298 . S
C293 O282 1.226 1_455 S
C293 O283 1.307 . S
C294 O286 1.303 . S
C294 O287 1.247 . S
C295 O284 1.253 . S
C295 O285 1.283 . S
C296 O288 1.304 1_455 S
C296 O290 1.272 . S
C297 O289 1.311 1_455 S
C297 O291 1.231 . S
O298 Zn280 1.953 . S
O298 C292 1.298 . S
O299 Zn300 1.953 . S
O299 C315 1.225 . S
Zn300 O299 1.953 . S
Zn300 O301 1.949 . S
Zn300 O307 1.919 . S
Zn300 O312 1.924 . S
O301 Zn300 1.949 . S
O301 Zn302 1.923 . S
O301 Zn303 1.950 . S
O301 Zn304 1.945 . S
Zn302 O301 1.923 . S
Zn302 O305 1.933 . S
Zn302 O308 1.941 . S
Zn302 O309 1.965 . S
Zn303 O301 1.950 . S
Zn303 O310 1.938 . S
Zn303 O311 1.906 . S
Zn303 O321 1.953 . S
Zn304 O301 1.945 . S
Zn304 O306 1.932 . S
Zn304 O313 1.977 . S
Zn304 O314 1.910 . S
O305 Zn302 1.933 . S
O305 C316 1.226 . S
O306 Zn304 1.932 . S
O306 C316 1.307 . S
O307 Zn300 1.919 . S
O307 C318 1.253 . S
O308 Zn302 1.941 . S
O308 C318 1.283 . S
O309 Zn302 1.965 . S
O309 C317 1.303 . S
O310 Zn303 1.938 . S
O310 C317 1.247 . S
O311 Zn303 1.906 . S
O311 C319 1.304 . S
O312 Zn300 1.924 . S
O312 C320 1.311 . S
O313 Zn304 1.977 . S
O313 C319 1.272 . S
O314 Zn304 1.910 . S
O314 C320 1.231 . S
C315 O299 1.225 . S
C315 O321 1.298 . S
C316 O305 1.226 . S
C316 O306 1.307 . S
C317 O309 1.303 . S
C317 O310 1.247 . S
C318 O307 1.253 . S
C318 O308 1.283 . S
C319 O311 1.304 . S
C319 O313 1.272 . S
C320 O312 1.311 . S
C320 O314 1.231 . S
O321 Zn303 1.953 . S
O321 C315 1.298 . S
O322 Zn323 1.953 . S
O322 C338 1.225 . S
Zn323 O322 1.953 . S
Zn323 O324 1.949 . S
Zn323 O330 1.919 . S
Zn323 O335 1.924 . S
O324 Zn323 1.949 . S
O324 Zn325 1.923 . S
O324 Zn326 1.950 . S
O324 Zn327 1.945 . S
Zn325 O324 1.923 . S
Zn325 O328 1.933 . S
Zn325 O331 1.941 . S
Zn325 O332 1.965 . S
Zn326 O324 1.950 . S
Zn326 O333 1.938 . S
Zn326 O334 1.906 . S
Zn326 O344 1.953 . S
Zn327 O324 1.945 . S
Zn327 O329 1.932 . S
Zn327 O336 1.977 . S
Zn327 O337 1.910 . S
O328 Zn325 1.933 . S
O328 C339 1.226 . S
O329 Zn327 1.932 . S
O329 C339 1.307 . S
O330 Zn323 1.919 . S
O330 C341 1.253 . S
O331 Zn325 1.941 . S
O331 C341 1.283 . S
O332 Zn325 1.965 . S
O332 C340 1.303 . S
O333 Zn326 1.938 . S
O333 C340 1.247 . S
O334 Zn326 1.906 . S
O334 C342 1.304 . S
O335 Zn323 1.924 . S
O335 C343 1.311 . S
O336 Zn327 1.977 . S
O336 C342 1.272 . S
O337 Zn327 1.910 . S
O337 C343 1.231 . S
C338 O322 1.225 . S
C338 O344 1.298 . S
C339 O328 1.226 . S
C339 O329 1.307 . S
C340 O332 1.303 . S
C340 O333 1.247 . S
C341 O330 1.253 . S
C341 O331 1.283 . S
C342 O334 1.304 . S
C342 O336 1.272 . S
C343 O335 1.311 . S
C343 O337 1.231 . S
O344 Zn326 1.953 . S
O344 C338 1.298 . S
O345 Zn346 1.953 . S
O345 C361 1.225 . S
Zn346 O345 1.953 . S
Zn346 O347 1.949 . S
Zn346 O353 1.919 . S
Zn346 O358 1.924 . S
O347 Zn346 1.949 . S
O347 Zn348 1.923 . S
O347 Zn349 1.950 . S
O347 Zn350 1.945 1_455 S
Zn348 O347 1.923 . S
Zn348 O351 1.933 . S
Zn348 O354 1.941 . S
Zn348 O355 1.965 . S
Zn349 O347 1.950 . S
Zn349 O356 1.938 . S
Zn349 O357 1.906 . S
Zn349 O367 1.953 . S
Zn350 O347 1.945 1_655 S
Zn350 O352 1.932 . S
Zn350 O359 1.977 . S
Zn350 O360 1.910 . S
O351 Zn348 1.933 . S
O351 C362 1.226 1_455 S
O352 Zn350 1.932 . S
O352 C362 1.307 . S
O353 Zn346 1.919 . S
O353 C364 1.253 . S
O354 Zn348 1.941 . S
O354 C364 1.283 . S
O355 Zn348 1.965 . S
O355 C363 1.303 . S
O356 Zn349 1.938 . S
O356 C363 1.247 . S
O357 Zn349 1.906 . S
O357 C365 1.304 1_455 S
O358 Zn346 1.924 . S
O358 C366 1.311 1_455 S
O359 Zn350 1.977 . S
O359 C365 1.272 . S
O360 Zn350 1.910 . S
O360 C366 1.231 . S
C361 O345 1.225 . S
C361 O367 1.298 . S
C362 O351 1.226 1_655 S
C362 O352 1.307 . S
C363 O355 1.303 . S
C363 O356 1.247 . S
C364 O353 1.253 . S
C364 O354 1.283 . S
C365 O357 1.304 1_655 S
C365 O359 1.272 . S
C366 O358 1.311 1_655 S
C366 O360 1.231 . S
O367 Zn349 1.953 . S
O367 C361 1.298 . S
O368 Zn369 1.953 . S
O368 C384 1.225 . S
Zn369 O368 1.953 . S
Zn369 O370 1.949 . S
Zn369 O376 1.919 . S
Zn369 O381 1.924 . S
O370 Zn369 1.949 . S
O370 Zn371 1.923 . S
O370 Zn372 1.950 . S
O370 Zn373 1.945 1_565 S
Zn371 O370 1.923 . S
Zn371 O374 1.933 . S
Zn371 O377 1.941 . S
Zn371 O378 1.965 . S
Zn372 O370 1.950 . S
Zn372 O379 1.938 . S
Zn372 O380 1.906 . S
Zn372 O390 1.953 . S
Zn373 O370 1.945 1_545 S
Zn373 O375 1.932 . S
Zn373 O382 1.977 . S
Zn373 O383 1.910 . S
O374 Zn371 1.933 . S
O374 C385 1.226 1_565 S
O375 Zn373 1.932 . S
O375 C385 1.307 . S
O376 Zn369 1.919 . S
O376 C387 1.253 . S
O377 Zn371 1.941 . S
O377 C387 1.283 . S
O378 Zn371 1.965 . S
O378 C386 1.303 . S
O379 Zn372 1.938 . S
O379 C386 1.247 . S
O380 Zn372 1.906 . S
O380 C388 1.304 1_565 S
O381 Zn369 1.924 . S
O381 C389 1.311 1_565 S
O382 Zn373 1.977 . S
O382 C388 1.272 . S
O383 Zn373 1.910 . S
O383 C389 1.231 . S
C384 O368 1.225 . S
C384 O390 1.298 . S
C385 O374 1.226 1_545 S
C385 O375 1.307 . S
C386 O378 1.303 . S
C386 O379 1.247 . S
C387 O376 1.253 . S
C387 O377 1.283 . S
C388 O380 1.304 1_545 S
C388 O382 1.272 . S
C389 O381 1.311 1_545 S
C389 O383 1.231 . S
O390 Zn372 1.953 . S
O390 C384 1.298 . S
O391 Zn392 1.953 . S
O391 C407 1.225 . S
Zn392 O391 1.953 . S
Zn392 O393 1.949 . S
Zn392 O399 1.919 . S
Zn392 O404 1.924 . S
O393 Zn392 1.949 . S
O393 Zn394 1.923 . S
O393 Zn395 1.950 . S
O393 Zn396 1.945 1_545 S
Zn394 O393 1.923 . S
Zn394 O397 1.933 . S
Zn394 O400 1.941 . S
Zn394 O401 1.965 . S
Zn395 O393 1.950 . S
Zn395 O402 1.938 . S
Zn395 O403 1.906 . S
Zn395 O413 1.953 . S
Zn396 O393 1.945 1_565 S
Zn396 O398 1.932 . S
Zn396 O405 1.977 . S
Zn396 O406 1.910 . S
O397 Zn394 1.933 . S
O397 C408 1.226 1_545 S
O398 Zn396 1.932 . S
O398 C408 1.307 . S
O399 Zn392 1.919 . S
O399 C410 1.253 . S
O400 Zn394 1.941 . S
O400 C410 1.283 . S
O401 Zn394 1.965 . S
O401 C409 1.303 . S
O402 Zn395 1.938 . S
O402 C409 1.247 . S
O403 Zn395 1.906 . S
O403 C411 1.304 1_545 S
O404 Zn392 1.924 . S
O404 C412 1.311 1_545 S
O405 Zn396 1.977 . S
O405 C411 1.272 . S
O406 Zn396 1.910 . S
O406 C412 1.231 . S
C407 O391 1.225 . S
C407 O413 1.298 . S
C408 O397 1.226 1_565 S
C408 O398 1.307 . S
C409 O401 1.303 . S
C409 O402 1.247 . S
C410 O399 1.253 . S
C410 O400 1.283 . S
C411 O403 1.304 1_565 S
C411 O405 1.272 . S
C412 O404 1.311 1_565 S
C412 O406 1.231 . S
O413 Zn395 1.953 . S
O413 C407 1.298 . S
O414 Zn415 1.953 . S
O414 C430 1.225 . S
Zn415 O414 1.953 . S
Zn415 O416 1.949 . S
Zn415 O422 1.919 . S
Zn415 O427 1.924 . S
O416 Zn415 1.949 . S
O416 Zn417 1.923 . S
O416 Zn418 1.950 . S
O416 Zn419 1.945 . S
Zn417 O416 1.923 . S
Zn417 O420 1.933 . S
Zn417 O423 1.941 . S
Zn417 O424 1.965 . S
Zn418 O416 1.950 . S
Zn418 O425 1.938 . S
Zn418 O426 1.906 . S
Zn418 O436 1.953 . S
Zn419 O416 1.945 . S
Zn419 O421 1.932 . S
Zn419 O428 1.977 . S
Zn419 O429 1.910 . S
O420 Zn417 1.933 . S
O420 C431 1.226 . S
O421 Zn419 1.932 . S
O421 C431 1.307 . S
O422 Zn415 1.919 . S
O422 C433 1.253 . S
O423 Zn417 1.941 . S
O423 C433 1.283 . S
O424 Zn417 1.965 . S
O424 C432 1.303 . S
O425 Zn418 1.938 . S
O425 C432 1.247 . S
O426 Zn418 1.906 . S
O426 C434 1.304 . S
O427 Zn415 1.924 . S
O427 C435 1.311 . S
O428 Zn419 1.977 . S
O428 C434 1.272 . S
O429 Zn419 1.910 . S
O429 C435 1.231 . S
C430 O414 1.225 . S
C430 O436 1.298 . S
C431 O420 1.226 . S
C431 O421 1.307 . S
C432 O424 1.303 . S
C432 O425 1.247 . S
C433 O422 1.253 . S
C433 O423 1.283 . S
C434 O426 1.304 . S
C434 O428 1.272 . S
C435 O427 1.311 . S
C435 O429 1.231 . S
O436 Zn418 1.953 . S
O436 C430 1.298 . S
O437 Zn438 1.953 . S
O437 C453 1.225 . S
Zn438 O437 1.953 . S
Zn438 O439 1.949 . S
Zn438 O445 1.919 . S
Zn438 O450 1.924 . S
O439 Zn438 1.949 . S
O439 Zn440 1.923 . S
O439 Zn441 1.950 . S
O439 Zn442 1.945 . S
Zn440 O439 1.923 . S
Zn440 O443 1.933 . S
Zn440 O446 1.941 . S
Zn440 O447 1.965 . S
Zn441 O439 1.950 . S
Zn441 O448 1.938 . S
Zn441 O449 1.906 . S
Zn441 O459 1.953 . S
Zn442 O439 1.945 . S
Zn442 O444 1.932 . S
Zn442 O451 1.977 . S
Zn442 O452 1.910 . S
O443 Zn440 1.933 . S
O443 C454 1.226 . S
O444 Zn442 1.932 . S
O444 C454 1.307 . S
O445 Zn438 1.919 . S
O445 C456 1.253 . S
O446 Zn440 1.941 . S
O446 C456 1.283 . S
O447 Zn440 1.965 . S
O447 C455 1.303 . S
O448 Zn441 1.938 . S
O448 C455 1.247 . S
O449 Zn441 1.906 . S
O449 C457 1.304 . S
O450 Zn438 1.924 . S
O450 C458 1.311 . S
O451 Zn442 1.977 . S
O451 C457 1.272 . S
O452 Zn442 1.910 . S
O452 C458 1.231 . S
C453 O437 1.225 . S
C453 O459 1.298 . S
C454 O443 1.226 . S
C454 O444 1.307 . S
C455 O447 1.303 . S
C455 O448 1.247 . S
C456 O445 1.253 . S
C456 O446 1.283 . S
C457 O449 1.304 . S
C457 O451 1.272 . S
C458 O450 1.311 . S
C458 O452 1.231 . S
O459 Zn441 1.953 . S
O459 C453 1.298 . S
O460 Zn461 1.953 . S
O460 C476 1.225 . S
Zn461 O460 1.953 . S
Zn461 O462 1.949 . S
Zn461 O468 1.919 . S
Zn461 O473 1.924 . S
O462 Zn461 1.949 . S
O462 Zn463 1.923 . S
O462 Zn464 1.950 . S
O462 Zn465 1.945 1_556 S
Zn463 O462 1.923 . S
Zn463 O466 1.933 . S
Zn463 O469 1.941 . S
Zn463 O470 1.965 . S
Zn464 O462 1.950 . S
Zn464 O471 1.938 . S
Zn464 O472 1.906 . S
Zn464 O482 1.953 . S
Zn465 O462 1.945 1_554 S
Zn465 O467 1.932 . S
Zn465 O474 1.977 . S
Zn465 O475 1.910 . S
O466 Zn463 1.933 . S
O466 C477 1.226 1_556 S
O467 Zn465 1.932 . S
O467 C477 1.307 . S
O468 Zn461 1.919 . S
O468 C479 1.253 . S
O469 Zn463 1.941 . S
O469 C479 1.283 . S
O470 Zn463 1.965 . S
O470 C478 1.303 . S
O471 Zn464 1.938 . S
O471 C478 1.247 . S
O472 Zn464 1.906 . S
O472 C480 1.304 1_556 S
O473 Zn461 1.924 . S
O473 C481 1.311 1_556 S
O474 Zn465 1.977 . S
O474 C480 1.272 . S
O475 Zn465 1.910 . S
O475 C481 1.231 . S
C476 O460 1.225 . S
C476 O482 1.298 . S
C477 O466 1.226 1_554 S
C477 O467 1.307 . S
C478 O470 1.303 . S
C478 O471 1.247 . S
C479 O468 1.253 . S
C479 O469 1.283 . S
C480 O472 1.304 1_554 S
C480 O474 1.272 . S
C481 O473 1.311 1_554 S
C481 O475 1.231 . S
O482 Zn464 1.953 . S
O482 C476 1.298 . S
O483 Zn484 1.953 . S
O483 C499 1.225 . S
Zn484 O483 1.953 . S
Zn484 O485 1.949 . S
Zn484 O491 1.919 . S
Zn484 O496 1.924 . S
O485 Zn484 1.949 . S
O485 Zn486 1.923 . S
O485 Zn487 1.950 . S
O485 Zn488 1.945 1_554 S
Zn486 O485 1.923 . S
Zn486 O489 1.933 . S
Zn486 O492 1.941 . S
Zn486 O493 1.965 . S
Zn487 O485 1.950 . S
Zn487 O494 1.938 . S
Zn487 O495 1.906 . S
Zn487 O505 1.953 . S
Zn488 O485 1.945 1_556 S
Zn488 O490 1.932 . S
Zn488 O497 1.977 . S
Zn488 O498 1.910 . S
O489 Zn486 1.933 . S
O489 C500 1.226 1_554 S
O490 Zn488 1.932 . S
O490 C500 1.307 . S
O491 Zn484 1.919 . S
O491 C502 1.253 . S
O492 Zn486 1.941 . S
O492 C502 1.283 . S
O493 Zn486 1.965 . S
O493 C501 1.303 . S
O494 Zn487 1.938 . S
O494 C501 1.247 . S
O495 Zn487 1.906 . S
O495 C503 1.304 1_554 S
O496 Zn484 1.924 . S
O496 C504 1.311 1_554 S
O497 Zn488 1.977 . S
O497 C503 1.272 . S
O498 Zn488 1.910 . S
O498 C504 1.231 . S
C499 O483 1.225 . S
C499 O505 1.298 . S
C500 O489 1.226 1_556 S
C500 O490 1.307 . S
C501 O493 1.303 . S
C501 O494 1.247 . S
C502 O491 1.253 . S
C502 O492 1.283 . S
C503 O495 1.304 1_556 S
C503 O497 1.272 . S
C504 O496 1.311 1_556 S
C504 O498 1.231 . S
O505 Zn487 1.953 . S
O505 C499 1.298 . S
O506 Zn507 1.953 . S
O506 C522 1.225 . S
Zn507 O506 1.953 . S
Zn507 O508 1.949 . S
Zn507 O514 1.919 . S
Zn507 O519 1.924 . S
O508 Zn507 1.949 . S
O508 Zn509 1.923 . S
O508 Zn510 1.950 . S
O508 Zn511 1.945 . S
Zn509 O508 1.923 . S
Zn509 O512 1.933 . S
Zn509 O515 1.941 . S
Zn509 O516 1.965 . S
Zn510 O508 1.950 . S
Zn510 O517 1.938 . S
Zn510 O518 1.906 . S
Zn510 O528 1.953 . S
Zn511 O508 1.945 . S
Zn511 O513 1.932 . S
Zn511 O520 1.977 . S
Zn511 O521 1.910 . S
O512 Zn509 1.933 . S
O512 C523 1.226 . S
O513 Zn511 1.932 . S
O513 C523 1.307 . S
O514 Zn507 1.919 . S
O514 C525 1.253 . S
O515 Zn509 1.941 . S
O515 C525 1.283 . S
O516 Zn509 1.965 . S
O516 C524 1.303 . S
O517 Zn510 1.938 . S
O517 C524 1.247 . S
O518 Zn510 1.906 . S
O518 C526 1.304 . S
O519 Zn507 1.924 . S
O519 C527 1.311 . S
O520 Zn511 1.977 . S
O520 C526 1.272 . S
O521 Zn511 1.910 . S
O521 C527 1.231 . S
C522 O506 1.225 . S
C522 O528 1.298 . S
C523 O512 1.226 . S
C523 O513 1.307 . S
C524 O516 1.303 . S
C524 O517 1.247 . S
C525 O514 1.253 . S
C525 O515 1.283 . S
C526 O518 1.304 . S
C526 O520 1.272 . S
C527 O519 1.311 . S
C527 O521 1.231 . S
O528 Zn510 1.953 . S
O528 C522 1.298 . S
O529 Zn530 1.953 . S
O529 C545 1.225 . S
Zn530 O529 1.953 . S
Zn530 O531 1.949 . S
Zn530 O537 1.919 . S
Zn530 O542 1.924 . S
O531 Zn530 1.949 . S
O531 Zn532 1.923 . S
O531 Zn533 1.950 . S
O531 Zn534 1.945 . S
Zn532 O531 1.923 . S
Zn532 O535 1.933 . S
Zn532 O538 1.941 . S
Zn532 O539 1.965 . S
Zn533 O531 1.950 . S
Zn533 O540 1.938 . S
Zn533 O541 1.906 . S
Zn533 O551 1.953 . S
Zn534 O531 1.945 . S
Zn534 O536 1.932 . S
Zn534 O543 1.977 . S
Zn534 O544 1.910 . S
O535 Zn532 1.933 . S
O535 C546 1.226 . S
O536 Zn534 1.932 . S
O536 C546 1.307 . S
O537 Zn530 1.919 . S
O537 C548 1.253 . S
O538 Zn532 1.941 . S
O538 C548 1.283 . S
O539 Zn532 1.965 . S
O539 C547 1.303 . S
O540 Zn533 1.938 . S
O540 C547 1.247 . S
O541 Zn533 1.906 . S
O541 C549 1.304 . S
O542 Zn530 1.924 . S
O542 C550 1.311 . S
O543 Zn534 1.977 . S
O543 C549 1.272 . S
O544 Zn534 1.910 . S
O544 C550 1.231 . S
C545 O529 1.225 . S
C545 O551 1.298 . S
C546 O535 1.226 . S
C546 O536 1.307 . S
C547 O539 1.303 . S
C547 O540 1.247 . S
C548 O537 1.253 . S
C548 O538 1.283 . S
C549 O541 1.304 . S
C549 O543 1.272 . S
C550 O542 1.311 . S
C550 O544 1.231 . S
O551 Zn533 1.953 . S
O551 C545 1.298 . S
C552 C553 1.387 . S
C552 H556 0.950 . S
C552 C561 1.390 . S
C553 C552 1.387 . S
C553 C555 1.387 . S
H554 C561 0.950 . S
C555 C553 1.387 . S
C555 C557 1.390 . S
C555 H559 0.950 . S
H556 C552 0.950 . S
C557 C555 1.390 . S
C557 C558 1.387 . S
C557 H560 0.950 . S
C558 C557 1.387 . S
C558 C561 1.387 . S
H559 C555 0.950 . S
H560 C557 0.950 . S
C561 C552 1.390 . S
C561 H554 0.950 . S
C561 C558 1.387 . S
C562 C563 1.387 . S
C562 H566 0.950 . S
C562 C571 1.390 . S
C563 C562 1.387 . S
C563 C565 1.387 . S
H564 C571 0.950 . S
C565 C563 1.387 . S
C565 C567 1.390 . S
C565 H569 0.950 . S
H566 C562 0.950 . S
C567 C565 1.390 . S
C567 C568 1.387 . S
C567 H570 0.950 . S
C568 C567 1.387 . S
C568 C571 1.387 . S
H569 C565 0.950 . S
H570 C567 0.950 . S
C571 C562 1.390 . S
C571 H564 0.950 . S
C571 C568 1.387 . S
C572 C573 1.387 . S
C572 H576 0.950 . S
C572 C581 1.390 . S
C573 C572 1.387 . S
C573 C575 1.387 . S
H574 C581 0.950 . S
C575 C573 1.387 . S
C575 C577 1.390 . S
C575 H579 0.950 . S
H576 C572 0.950 . S
C577 C575 1.390 . S
C577 C578 1.387 . S
C577 H580 0.950 . S
C578 C577 1.387 . S
C578 C581 1.387 . S
H579 C575 0.950 . S
H580 C577 0.950 . S
C581 C572 1.390 . S
C581 H574 0.950 . S
C581 C578 1.387 . S
C582 C583 1.387 . S
C582 H586 0.950 . S
C582 C591 1.390 . S
C583 C582 1.387 . S
C583 C585 1.387 . S
H584 C591 0.950 . S
C585 C583 1.387 . S
C585 C587 1.390 . S
C585 H589 0.950 . S
H586 C582 0.950 . S
C587 C585 1.390 . S
C587 C588 1.387 . S
C587 H590 0.950 . S
C588 C587 1.387 . S
C588 C591 1.387 . S
H589 C585 0.950 . S
H590 C587 0.950 . S
C591 C582 1.390 . S
C591 H584 0.950 . S
C591 C588 1.387 . S
C592 C593 1.387 . S
C592 H596 0.950 . S
C592 C601 1.390 . S
C593 C592 1.387 . S
C593 C595 1.387 . S
H594 C601 0.950 . S
C595 C593 1.387 . S
C595 C597 1.390 . S
C595 H599 0.950 . S
H596 C592 0.950 . S
C597 C595 1.390 . S
C597 C598 1.387 . S
C597 H600 0.950 . S
C598 C597 1.387 . S
C598 C601 1.387 . S
H599 C595 0.950 . S
H600 C597 0.950 . S
C601 C592 1.390 . S
C601 H594 0.950 . S
C601 C598 1.387 . S
C602 C603 1.387 . S
C602 H606 0.950 . S
C602 C611 1.390 . S
C603 C602 1.387 . S
C603 C605 1.387 . S
H604 C611 0.950 . S
C605 C603 1.387 . S
C605 C607 1.390 . S
C605 H609 0.950 . S
H606 C602 0.950 . S
C607 C605 1.390 . S
C607 C608 1.387 . S
C607 H610 0.950 . S
C608 C607 1.387 . S
C608 C611 1.387 . S
H609 C605 0.950 . S
H610 C607 0.950 . S
C611 C602 1.390 . S
C611 H604 0.950 . S
C611 C608 1.387 . S
C612 C613 1.387 . S
C612 H616 0.950 . S
C612 C621 1.390 . S
C613 C612 1.387 . S
C613 C615 1.387 . S
H614 C621 0.950 . S
C615 C613 1.387 . S
C615 C617 1.390 . S
C615 H619 0.950 . S
H616 C612 0.950 . S
C617 C615 1.390 . S
C617 C618 1.387 . S
C617 H620 0.950 . S
C618 C617 1.387 . S
C618 C621 1.387 . S
H619 C615 0.950 . S
H620 C617 0.950 . S
C621 C612 1.390 . S
C621 H614 0.950 . S
C621 C618 1.387 . S
C622 C623 1.387 . S
C622 H626 0.950 . S
C622 C631 1.390 . S
C623 C622 1.387 . S
C623 C625 1.387 . S
H624 C631 0.961 . S
C625 C623 1.387 . S
C625 C627 1.390 . S
C625 H629 0.950 . S
H626 C622 0.950 . S
C627 C625 1.390 . S
C627 C628 1.387 . S
C627 H630 0.950 . S
C628 C627 1.387 . S
C628 C631 1.387 . S
H629 C625 0.950 . S
H630 C627 0.950 . S
C631 C622 1.390 . S
C631 H624 0.961 . S
C631 C628 1.387 . S
C632 C633 1.387 . S
C632 H636 0.950 . S
C632 C641 1.390 . S
C633 C632 1.387 . S
C633 C635 1.387 . S
H634 C641 0.950 . S
C635 C633 1.387 . S
C635 C637 1.390 . S
C635 H639 0.950 . S
H636 C632 0.950 . S
C637 C635 1.390 . S
C637 C638 1.387 . S
C637 H640 0.950 . S
C638 C637 1.387 . S
C638 C641 1.387 . S
H639 C635 0.950 . S
H640 C637 0.950 . S
C641 C632 1.390 . S
C641 H634 0.950 . S
C641 C638 1.387 . S
C642 C643 1.387 . S
C642 H646 0.950 . S
C642 C651 1.390 . S
C643 C642 1.387 . S
C643 C645 1.387 . S
H644 C651 0.950 . S
C645 C643 1.387 . S
C645 C647 1.390 . S
C645 H649 0.950 . S
H646 C642 0.950 . S
C647 C645 1.390 . S
C647 C648 1.387 . S
C647 H650 0.950 . S
C648 C647 1.387 . S
C648 C651 1.387 . S
H649 C645 0.950 . S
H650 C647 0.950 . S
C651 C642 1.390 . S
C651 H644 0.950 . S
C651 C648 1.387 . S
C652 C653 1.387 . S
C652 H656 0.950 . S
C652 C661 1.390 . S
C653 C652 1.387 . S
C653 C655 1.387 . S
H654 C661 0.950 . S
C655 C653 1.387 . S
C655 C657 1.390 . S
C655 H659 0.950 . S
H656 C652 0.950 . S
C657 C655 1.390 . S
C657 C658 1.387 . S
C657 H660 0.950 . S
C658 C657 1.387 . S
C658 C661 1.387 . S
H659 C655 0.950 . S
H660 C657 0.950 . S
C661 C652 1.390 . S
C661 H654 0.950 . S
C661 C658 1.387 . S
C662 C663 1.387 . S
C662 H666 0.950 . S
C662 C671 1.390 . S
C663 C662 1.387 . S
C663 C665 1.387 . S
H664 C671 0.950 . S
C665 C663 1.387 . S
C665 C667 1.390 . S
C665 H669 0.950 . S
H666 C662 0.950 . S
C667 C665 1.390 . S
C667 C668 1.387 . S
C667 H670 0.950 . S
C668 C667 1.387 . S
C668 C671 1.387 . S
H669 C665 0.950 . S
H670 C667 0.950 . S
C671 C662 1.390 . S
C671 H664 0.950 . S
C671 C668 1.387 . S
C672 C673 1.387 . S
C672 H676 0.950 . S
C672 C681 1.390 . S
C673 C672 1.387 . S
C673 C675 1.387 . S
H674 C681 0.950 . S
C675 C673 1.387 . S
C675 C677 1.390 . S
C675 H679 0.950 . S
H676 C672 0.950 . S
C677 C675 1.390 . S
C677 C678 1.387 . S
C677 H680 0.950 . S
C678 C677 1.387 . S
C678 C681 1.387 . S
H679 C675 0.950 . S
H680 C677 0.950 . S
C681 C672 1.390 . S
C681 H674 0.950 . S
C681 C678 1.387 . S
C682 C683 1.387 . S
C682 H686 0.950 . S
C682 C691 1.390 . S
C683 C682 1.387 . S
C683 C685 1.387 . S
H684 C691 0.950 . S
C685 C683 1.387 . S
C685 C687 1.390 . S
C685 H689 0.950 . S
H686 C682 0.950 . S
C687 C685 1.390 . S
C687 C688 1.387 . S
C687 H690 0.950 . S
C688 C687 1.387 . S
C688 C691 1.387 . S
H689 C685 0.950 . S
H690 C687 0.950 . S
C691 C682 1.390 . S
C691 H684 0.950 . S
C691 C688 1.387 . S
C692 C693 1.387 . S
C692 H696 0.950 . S
C692 C701 1.390 . S
C693 C692 1.387 . S
C693 C695 1.387 . S
H694 C701 0.950 . S
C695 C693 1.387 . S
C695 C697 1.390 . S
C695 H699 0.950 . S
H696 C692 0.950 . S
C697 C695 1.390 . S
C697 C698 1.387 . S
C697 H700 0.950 . S
C698 C697 1.387 . S
C698 C701 1.387 . S
H699 C695 0.950 . S
H700 C697 0.950 . S
C701 C692 1.390 . S
C701 H694 0.950 . S
C701 C698 1.387 . S
C702 C703 1.387 . S
C702 H706 0.950 . S
C702 C711 1.390 . S
C703 C702 1.387 . S
C703 C705 1.387 . S
H704 C711 0.950 . S
C705 C703 1.387 . S
C705 C707 1.390 . S
C705 H709 0.950 . S
H706 C702 0.950 . S
C707 C705 1.390 . S
C707 C708 1.387 . S
C707 H710 0.950 . S
C708 C707 1.387 . S
C708 C711 1.387 . S
H709 C705 0.950 . S
H710 C707 0.950 . S
C711 C702 1.390 . S
C711 H704 0.950 . S
C711 C708 1.387 . S
C712 C713 1.387 . S
C712 H716 0.950 . S
C712 C721 1.390 . S
C713 C712 1.387 . S
C713 C715 1.387 . S
H714 C721 0.950 . S
C715 C713 1.387 . S
C715 C717 1.390 . S
C715 H719 0.950 . S
H716 C712 0.950 . S
C717 C715 1.390 . S
C717 C718 1.387 . S
C717 H720 0.950 . S
C718 C717 1.387 . S
C718 C721 1.387 . S
H719 C715 0.950 . S
H720 C717 0.950 . S
C721 C712 1.390 . S
C721 H714 0.950 . S
C721 C718 1.387 . S
C722 C723 1.387 . S
C722 H726 0.950 . S
C722 C731 1.390 . S
C723 C722 1.387 . S
C723 C725 1.387 . S
H724 C731 0.950 . S
C725 C723 1.387 . S
C725 C727 1.390 . S
C725 H729 0.950 . S
H726 C722 0.950 . S
C727 C725 1.390 . S
C727 C728 1.387 . S
C727 H730 0.950 . S
C728 C727 1.387 . S
C728 C731 1.387 . S
H729 C725 0.950 . S
H730 C727 0.950 . S
C731 C722 1.390 . S
C731 H724 0.950 . S
C731 C728 1.387 . S
C732 C733 1.387 . S
C732 H736 0.950 . S
C732 C741 1.390 . S
C733 C732 1.387 . S
C733 C735 1.387 . S
H734 C741 0.950 . S
C735 C733 1.387 . S
C735 C737 1.390 . S
C735 H739 0.950 . S
H736 C732 0.950 . S
C737 C735 1.390 . S
C737 C738 1.387 . S
C737 H740 0.950 . S
C738 C737 1.387 . S
C738 C741 1.387 . S
H739 C735 0.950 . S
H740 C737 0.950 . S
C741 C732 1.390 . S
C741 H734 0.950 . S
C741 C738 1.387 . S
C742 C743 1.387 . S
C742 H746 0.950 . S
C742 C751 1.390 . S
C743 C742 1.387 . S
C743 C745 1.387 . S
H744 C751 0.950 . S
C745 C743 1.387 . S
C745 C747 1.390 . S
C745 H749 0.950 . S
H746 C742 0.950 . S
C747 C745 1.390 . S
C747 C748 1.387 . S
C747 H750 0.950 . S
C748 C747 1.387 . S
C748 C751 1.387 . S
H749 C745 0.950 . S
H750 C747 0.950 . S
C751 C742 1.390 . S
C751 H744 0.950 . S
C751 C748 1.387 . S
C752 C753 1.387 . S
C752 H756 0.950 . S
C752 C761 1.390 . S
C753 C752 1.387 . S
C753 C755 1.387 . S
H754 C761 0.950 . S
C755 C753 1.387 . S
C755 C757 1.390 . S
C755 H759 0.950 . S
H756 C752 0.950 . S
C757 C755 1.390 . S
C757 C758 1.387 . S
C757 H760 0.950 . S
C758 C757 1.387 . S
C758 C761 1.387 . S
H759 C755 0.950 . S
H760 C757 0.950 . S
C761 C752 1.390 . S
C761 H754 0.950 . S
C761 C758 1.387 . S
C762 C763 1.387 . S
C762 H766 0.950 . S
C762 C771 1.390 . S
C763 C762 1.387 . S
C763 C765 1.387 . S
H764 C771 0.950 . S
C765 C763 1.387 . S
C765 C767 1.390 . S
C765 H769 0.950 . S
H766 C762 0.950 . S
C767 C765 1.390 . S
C767 C768 1.387 . S
C767 H770 0.950 . S
C768 C767 1.387 . S
C768 C771 1.387 . S
H769 C765 0.950 . S
H770 C767 0.950 . S
C771 C762 1.390 . S
C771 H764 0.950 . S
C771 C768 1.387 . S
C772 C773 1.387 . S
C772 H776 0.950 . S
C772 C781 1.390 . S
C773 C772 1.387 . S
C773 C775 1.387 . S
H774 C781 0.950 . S
C775 C773 1.387 . S
C775 C777 1.390 . S
C775 H779 0.950 . S
H776 C772 0.950 . S
C777 C775 1.390 . S
C777 C778 1.387 . S
C777 H780 0.950 . S
C778 C777 1.387 . S
C778 C781 1.387 . S
H779 C775 0.950 . S
H780 C777 0.950 . S
C781 C772 1.390 . S
C781 H774 0.950 . S
C781 C778 1.387 . S
C782 C783 1.387 . S
C782 H786 0.950 . S
C782 C791 1.390 . S
C783 C782 1.387 . S
C783 C785 1.387 . S
H784 C791 0.950 . S
C785 C783 1.387 . S
C785 C787 1.390 . S
C785 H789 0.950 . S
H786 C782 0.950 . S
C787 C785 1.390 . S
C787 C788 1.387 . S
C787 H790 0.950 . S
C788 C787 1.387 . S
C788 C791 1.387 . S
H789 C785 0.950 . S
H790 C787 0.950 . S
C791 C782 1.390 . S
C791 H784 0.950 . S
C791 C788 1.387 . S
C792 C793 1.387 . S
C792 H796 0.950 . S
C792 C801 1.390 . S
C793 C792 1.387 . S
C793 C795 1.387 . S
H794 C801 0.950 . S
C795 C793 1.387 . S
C795 C797 1.390 . S
C795 H799 0.950 . S
H796 C792 0.950 . S
C797 C795 1.390 . S
C797 C798 1.387 . S
C797 H800 0.950 . S
C798 C797 1.387 . S
C798 C801 1.387 . S
H799 C795 0.950 . S
H800 C797 0.950 . S
C801 C792 1.390 . S
C801 H794 0.950 . S
C801 C798 1.387 . S
C802 C803 1.387 . S
C802 H806 0.950 . S
C802 C811 1.390 . S
C803 C802 1.387 . S
C803 C805 1.387 . S
H804 C811 0.950 . S
C805 C803 1.387 . S
C805 C807 1.390 . S
C805 H809 0.950 . S
H806 C802 0.950 . S
C807 C805 1.390 . S
C807 C808 1.387 . S
C807 H810 0.950 . S
C808 C807 1.387 . S
C808 C811 1.387 . S
H809 C805 0.950 . S
H810 C807 0.950 . S
C811 C802 1.390 . S
C811 H804 0.950 . S
C811 C808 1.387 . S
C812 C813 1.387 . S
C812 H816 0.950 . S
C812 C821 1.390 . S
C813 C812 1.387 . S
C813 C815 1.387 . S
H814 C821 0.950 . S
C815 C813 1.387 . S
C815 C817 1.390 . S
C815 H819 0.950 . S
H816 C812 0.950 . S
C817 C815 1.390 . S
C817 C818 1.387 . S
C817 H820 0.950 . S
C818 C817 1.387 . S
C818 C821 1.387 . S
H819 C815 0.950 . S
H820 C817 0.950 . S
C821 C812 1.390 . S
C821 H814 0.950 . S
C821 C818 1.387 . S
C822 C823 1.387 . S
C822 H826 0.950 . S
C822 C831 1.390 . S
C823 C822 1.387 . S
C823 C825 1.387 . S
H824 C831 0.950 . S
C825 C823 1.387 . S
C825 C827 1.390 . S
C825 H829 0.950 . S
H826 C822 0.950 . S
C827 C825 1.390 . S
C827 C828 1.387 . S
C827 H830 0.950 . S
C828 C827 1.387 . S
C828 C831 1.387 . S
H829 C825 0.950 . S
H830 C827 0.950 . S
C831 C822 1.390 . S
C831 H824 0.950 . S
C831 C828 1.387 . S
C832 C833 1.387 . S
C832 H836 0.950 . S
C832 C841 1.390 . S
C833 C832 1.387 . S
C833 C835 1.387 . S
H834 C841 0.950 . S
C835 C833 1.387 . S
C835 C837 1.390 . S
C835 H839 0.950 . S
H836 C832 0.950 . S
C837 C835 1.390 . S
C837 C838 1.387 . S
C837 H840 0.950 . S
C838 C837 1.387 . S
C838 C841 1.387 . S
H839 C835 0.950 . S
H840 C837 0.950 . S
C841 C832 1.390 . S
C841 H834 0.950 . S
C841 C838 1.387 . S
C842 C843 1.387 . S
C842 H846 0.950 . S
C842 C851 1.390 . S
C843 C842 1.387 . S
C843 C845 1.387 . S
H844 C851 0.950 . S
C845 C843 1.387 . S
C845 C847 1.390 . S
C845 H849 0.950 . S
H846 C842 0.950 . S
C847 C845 1.390 . S
C847 C848 1.387 . S
C847 H850 0.950 . S
C848 C847 1.387 . S
C848 C851 1.387 . S
H849 C845 0.950 . S
H850 C847 0.950 . S
C851 C842 1.390 . S
C851 H844 0.950 . S
C851 C848 1.387 . S
C852 C853 1.387 . S
C852 H856 0.950 . S
C852 C861 1.390 . S
C853 C852 1.387 . S
C853 C855 1.387 . S
H854 C861 0.950 . S
C855 C853 1.387 . S
C855 C857 1.390 . S
C855 H859 0.950 . S
H856 C852 0.950 . S
C857 C855 1.390 . S
C857 C858 1.387 . S
C857 H860 0.950 . S
C858 C857 1.387 . S
C858 C861 1.387 . S
H859 C855 0.950 . S
H860 C857 0.950 . S
C861 C852 1.390 . S
C861 H854 0.950 . S
C861 C858 1.387 . S
C862 C863 1.387 . S
C862 H866 0.950 . S
C862 C871 1.390 . S
C863 C862 1.387 . S
C863 C865 1.387 . S
H864 C871 0.950 . S
C865 C863 1.387 . S
C865 C867 1.390 . S
C865 H869 0.950 . S
H866 C862 0.950 . S
C867 C865 1.390 . S
C867 C868 1.387 . S
C867 H870 0.950 . S
C868 C867 1.387 . S
C868 C871 1.387 . S
H869 C865 0.950 . S
H870 C867 0.950 . S
C871 C862 1.390 . S
C871 H864 0.950 . S
C871 C868 1.387 . S
C872 C873 1.387 . S
C872 H876 0.950 . S
C872 C881 1.390 . S
C873 C872 1.387 . S
C873 C875 1.387 . S
H874 C881 0.950 . S
C875 C873 1.387 . S
C875 C877 1.390 . S
C875 H879 0.950 . S
H876 C872 0.950 . S
C877 C875 1.390 . S
C877 C878 1.387 . S
C877 H880 0.950 . S
C878 C877 1.387 . S
C878 C881 1.387 . S
H879 C875 0.950 . S
H880 C877 0.950 . S
C881 C872 1.390 . S
C881 H874 0.950 . S
C881 C878 1.387 . S
C882 C883 1.387 . S
C882 H886 0.950 . S
C882 C891 1.390 . S
C883 C882 1.387 . S
C883 C885 1.387 . S
H884 C891 0.950 . S
C885 C883 1.387 . S
C885 C887 1.390 . S
C885 H889 0.950 . S
H886 C882 0.950 . S
C887 C885 1.390 . S
C887 C888 1.387 . S
C887 H890 0.950 . S
C888 C887 1.387 . S
C888 C891 1.387 . S
H889 C885 0.950 . S
H890 C887 0.950 . S
C891 C882 1.390 . S
C891 H884 0.950 . S
C891 C888 1.387 . S
C892 C893 1.387 . S
C892 H896 0.950 . S
C892 C901 1.390 . S
C893 C892 1.387 . S
C893 C895 1.387 . S
H894 C901 0.950 . S
C895 C893 1.387 . S
C895 C897 1.390 . S
C895 H899 0.950 . S
H896 C892 0.950 . S
C897 C895 1.390 . S
C897 C898 1.387 . S
C897 H900 0.950 . S
C898 C897 1.387 . S
C898 C901 1.387 . S
H899 C895 0.950 . S
H900 C897 0.950 . S
C901 C892 1.390 . S
C901 H894 0.950 . S
C901 C898 1.387 . S
C902 C903 1.387 . S
C902 H906 0.950 . S
C902 C911 1.390 . S
C903 C902 1.387 . S
C903 C905 1.387 . S
H904 C911 0.950 . S
C905 C903 1.387 . S
C905 C907 1.390 . S
C905 H909 0.950 . S
H906 C902 0.950 . S
C907 C905 1.390 . S
C907 C908 1.387 . S
C907 H910 0.950 . S
C908 C907 1.387 . S
C908 C911 1.387 . S
H909 C905 0.950 . S
H910 C907 0.950 . S
C911 C902 1.390 . S
C911 H904 0.950 . S
C911 C908 1.387 . S
C912 C913 1.387 . S
C912 H916 0.950 . S
C912 C921 1.390 . S
C913 C912 1.387 . S
C913 C915 1.387 . S
H914 C921 0.950 . S
C915 C913 1.387 . S
C915 C917 1.390 . S
C915 H919 0.950 . S
H916 C912 0.950 . S
C917 C915 1.390 . S
C917 C918 1.387 . S
C917 H920 0.950 . S
C918 C917 1.387 . S
C918 C921 1.387 . S
H919 C915 0.950 . S
H920 C917 0.950 . S
C921 C912 1.390 . S
C921 H914 0.950 . S
C921 C918 1.387 . S
C922 C923 1.387 . S
C922 H926 0.950 . S
C922 C931 1.390 . S
C923 C922 1.387 . S
C923 C925 1.387 . S
H924 C931 0.950 . S
C925 C923 1.387 . S
C925 C927 1.390 . S
C925 H929 0.950 . S
H926 C922 0.950 . S
C927 C925 1.390 . S
C927 C928 1.387 . S
C927 H930 0.950 . S
C928 C927 1.387 . S
C928 C931 1.387 . S
H929 C925 0.950 . S
H930 C927 0.950 . S
C931 C922 1.390 . S
C931 H924 0.950 . S
C931 C928 1.387 . S
C932 C933 1.387 . S
C932 H936 0.950 . S
C932 C941 1.390 . S
C933 C932 1.387 . S
C933 C935 1.387 . S
H934 C941 0.950 . S
C935 C933 1.387 . S
C935 C937 1.390 . S
C935 H939 0.950 . S
H936 C932 0.950 . S
C937 C935 1.390 . S
C937 C938 1.387 . S
C937 H940 0.950 . S
C938 C937 1.387 . S
C938 C941 1.387 . S
H939 C935 0.950 . S
H940 C937 0.950 . S
C941 C932 1.390 . S
C941 H934 0.950 . S
C941 C938 1.387 . S
C942 C943 1.387 . S
C942 H946 0.950 . S
C942 C951 1.390 . S
C943 C942 1.387 . S
C943 C945 1.387 . S
H944 C951 0.950 . S
C945 C943 1.387 . S
C945 C947 1.390 . S
C945 H949 0.950 . S
H946 C942 0.950 . S
C947 C945 1.390 . S
C947 C948 1.387 . S
C947 H950 0.950 . S
C948 C947 1.387 . S
C948 C951 1.387 . S
H949 C945 0.950 . S
H950 C947 0.950 . S
C951 C942 1.390 . S
C951 H944 0.950 . S
C951 C948 1.387 . S
C952 C953 1.387 . S
C952 H956 0.950 . S
C952 C961 1.390 . S
C953 C952 1.387 . S
C953 C955 1.387 . S
H954 C961 0.950 . S
C955 C953 1.387 . S
C955 C957 1.390 . S
C955 H959 0.950 . S
H956 C952 0.950 . S
C957 C955 1.390 . S
C957 C958 1.387 . S
C957 H960 0.950 . S
C958 C957 1.387 . S
C958 C961 1.387 . S
H959 C955 0.950 . S
H960 C957 0.950 . S
C961 C952 1.390 . S
C961 H954 0.950 . S
C961 C958 1.387 . S
C962 C963 1.387 . S
C962 H966 0.950 . S
C962 C971 1.390 . S
C963 C962 1.387 . S
C963 C965 1.387 . S
H964 C971 0.950 . S
C965 C963 1.387 . S
C965 C967 1.390 . S
C965 H969 0.950 . S
H966 C962 0.950 . S
C967 C965 1.390 . S
C967 C968 1.387 . S
C967 H970 0.950 . S
C968 C967 1.387 . S
C968 C971 1.387 . S
H969 C965 0.950 . S
H970 C967 0.950 . S
C971 C962 1.390 . S
C971 H964 0.950 . S
C971 C968 1.387 . S
C972 C973 1.387 . S
C972 H976 0.950 . S
C972 C981 1.390 . S
C973 C972 1.387 . S
C973 C975 1.387 . S
H974 C981 0.950 . S
C975 C973 1.387 . S
C975 C977 1.390 . S
C975 H979 0.950 . S
H976 C972 0.950 . S
C977 C975 1.390 . S
C977 C978 1.387 . S
C977 H980 0.950 . S
C978 C977 1.387 . S
C978 C981 1.387 . S
H979 C975 0.950 . S
H980 C977 0.950 . S
C981 C972 1.390 . S
C981 H974 0.950 . S
C981 C978 1.387 . S
C982 C983 1.387 . S
C982 H986 0.950 . S
C982 C991 1.390 . S
C983 C982 1.387 . S
C983 C985 1.387 . S
H984 C991 0.950 . S
C985 C983 1.387 . S
C985 C987 1.390 . S
C985 H989 0.950 . S
H986 C982 0.950 . S
C987 C985 1.390 . S
C987 C988 1.387 . S
C987 H990 0.950 . S
C988 C987 1.387 . S
C988 C991 1.387 . S
H989 C985 0.950 . S
H990 C987 0.950 . S
C991 C982 1.390 . S
C991 H984 0.950 . S
C991 C988 1.387 . S
C992 C993 1.387 . S
C992 H996 0.950 . S
C992 C1001 1.390 . S
C993 C992 1.387 . S
C993 C995 1.387 . S
H994 C1001 0.950 . S
C995 C993 1.387 . S
C995 C997 1.390 . S
C995 H999 0.950 . S
H996 C992 0.950 . S
C997 C995 1.390 . S
C997 C998 1.387 . S
C997 H1000 0.950 . S
C998 C997 1.387 . S
C998 C1001 1.387 . S
H999 C995 0.950 . S
H1000 C997 0.950 . S
C1001 C992 1.390 . S
C1001 H994 0.950 . S
C1001 C998 1.387 . S
C1002 C1003 1.387 . S
C1002 H1006 0.950 . S
C1002 C1011 1.390 . S
C1003 C1002 1.387 . S
C1003 C1005 1.387 . S
H1004 C1011 0.950 . S
C1005 C1003 1.387 . S
C1005 C1007 1.390 . S
C1005 H1009 0.950 . S
H1006 C1002 0.950 . S
C1007 C1005 1.390 . S
C1007 C1008 1.387 . S
C1007 H1010 0.950 . S
C1008 C1007 1.387 . S
C1008 C1011 1.387 . S
H1009 C1005 0.950 . S
H1010 C1007 0.950 . S
C1011 C1002 1.390 . S
C1011 H1004 0.950 . S
C1011 C1008 1.387 . S
C1012 C1013 1.387 . S
C1012 H1016 0.950 . S
C1012 C1021 1.390 . S
C1013 C1012 1.387 . S
C1013 C1015 1.387 . S
H1014 C1021 0.950 . S
C1015 C1013 1.387 . S
C1015 C1017 1.390 . S
C1015 H1019 0.950 . S
H1016 C1012 0.950 . S
C1017 C1015 1.390 . S
C1017 C1018 1.387 . S
C1017 H1020 0.950 . S
C1018 C1017 1.387 . S
C1018 C1021 1.387 . S
H1019 C1015 0.950 . S
H1020 C1017 0.950 . S
C1021 C1012 1.390 . S
C1021 H1014 0.950 . S
C1021 C1018 1.387 . S
C1022 C1023 1.387 . S
C1022 H1026 0.950 . S
C1022 C1031 1.390 . S
C1023 C1022 1.387 . S
C1023 C1025 1.387 . S
H1024 C1031 0.950 . S
C1025 C1023 1.387 . S
C1025 C1027 1.390 . S
C1025 H1029 0.950 . S
H1026 C1022 0.950 . S
C1027 C1025 1.390 . S
C1027 C1028 1.387 . S
C1027 H1030 0.950 . S
C1028 C1027 1.387 . S
C1028 C1031 1.387 . S
H1029 C1025 0.950 . S
H1030 C1027 0.950 . S
C1031 C1022 1.390 . S
C1031 H1024 0.950 . S
C1031 C1028 1.387 . S
C1032 C1033 1.387 . S
C1032 H1036 0.950 . S
C1032 C1041 1.390 . S
C1033 C1032 1.387 . S
C1033 C1035 1.387 . S
H1034 C1041 0.950 . S
C1035 C1033 1.387 . S
C1035 C1037 1.390 . S
C1035 H1039 0.950 . S
H1036 C1032 0.950 . S
C1037 C1035 1.390 . S
C1037 C1038 1.387 . S
C1037 H1040 0.950 . S
C1038 C1037 1.387 . S
C1038 C1041 1.387 . S
H1039 C1035 0.950 . S
H1040 C1037 0.950 . S
C1041 C1032 1.390 . S
C1041 H1034 0.950 . S
C1041 C1038 1.387 . S
C1042 C1043 1.387 . S
C1042 H1046 0.950 . S
C1042 C1051 1.390 . S
C1043 C1042 1.387 . S
C1043 C1045 1.387 . S
H1044 C1051 0.950 . S
C1045 C1043 1.387 . S
C1045 C1047 1.390 . S
C1045 H1049 0.950 . S
H1046 C1042 0.950 . S
C1047 C1045 1.390 . S
C1047 C1048 1.387 . S
C1047 H1050 0.950 . S
C1048 C1047 1.387 . S
C1048 C1051 1.387 . S
H1049 C1045 0.950 . S
H1050 C1047 0.950 . S
C1051 C1042 1.390 . S
C1051 H1044 0.950 . S
C1051 C1048 1.387 . S
C1052 C1053 1.387 . S
C1052 H1056 0.950 . S
C1052 C1061 1.390 . S
C1053 C1052 1.387 . S
C1053 C1055 1.387 . S
H1054 C1061 0.950 . S
C1055 C1053 1.387 . S
C1055 C1057 1.390 . S
C1055 H1059 0.950 . S
H1056 C1052 0.950 . S
C1057 C1055 1.390 . S
C1057 C1058 1.387 . S
C1057 H1060 0.950 . S
C1058 C1057 1.387 . S
C1058 C1061 1.387 . S
H1059 C1055 0.950 . S
H1060 C1057 0.950 . S
C1061 C1052 1.390 . S
C1061 H1054 0.950 . S
C1061 C1058 1.387 . S
C1062 C1063 1.387 . S
C1062 H1066 0.950 . S
C1062 C1071 1.390 . S
C1063 C1062 1.387 . S
C1063 C1065 1.387 . S
H1064 C1071 0.950 1_655 S
C1065 C1063 1.387 . S
C1065 C1067 1.390 . S
C1065 H1069 0.950 . S
H1066 C1062 0.950 . S
C1067 C1065 1.390 . S
C1067 C1068 1.387 . S
C1067 H1070 0.950 . S
C1068 C1067 1.387 . S
C1068 C1071 1.387 . S
H1069 C1065 0.950 . S
H1070 C1067 0.950 . S
C1071 C1062 1.390 . S
C1071 H1064 0.950 1_455 S
C1071 C1068 1.387 . S
C1072 C1073 1.387 . S
C1072 H1076 0.950 1_565 S
C1072 C1081 1.390 . S
C1073 C1072 1.387 . S
C1073 C1075 1.387 . S
H1074 C1081 0.950 . S
C1075 C1073 1.387 . S
C1075 C1077 1.390 . S
C1075 H1079 0.950 . S
H1076 C1072 0.950 1_545 S
C1077 C1075 1.390 . S
C1077 C1078 1.387 . S
C1077 H1080 0.950 . S
C1078 C1077 1.387 . S
C1078 C1081 1.387 . S
H1079 C1075 0.950 . S
H1080 C1077 0.950 . S
C1081 C1072 1.390 . S
C1081 H1074 0.950 . S
C1081 C1078 1.387 . S
C1082 C1083 1.387 . S
C1082 H1086 0.950 . S
C1082 C1091 1.390 . S
C1083 C1082 1.387 . S
C1083 C1085 1.387 . S
H1084 C1091 0.950 . S
C1085 C1083 1.387 . S
C1085 C1087 1.390 . S
C1085 H1089 0.950 . S
H1086 C1082 0.950 . S
C1087 C1085 1.390 . S
C1087 C1088 1.387 . S
C1087 H1090 0.930 1_545 S
C1088 C1087 1.387 . S
C1088 C1091 1.387 . S
H1089 C1085 0.950 . S
H1090 C1087 0.930 1_565 S
C1091 C1082 1.390 . S
C1091 H1084 0.950 . S
C1091 C1088 1.387 . S
C1092 C1093 1.387 . S
C1092 H1096 0.950 . S
C1092 C1101 1.390 . S
C1093 C1092 1.387 . S
C1093 C1095 1.387 . S
H1094 C1101 0.950 . S
C1095 C1093 1.387 . S
C1095 C1097 1.390 . S
C1095 H1099 0.950 . S
H1096 C1092 0.950 . S
C1097 C1095 1.390 . S
C1097 C1098 1.387 . S
C1097 H1100 0.950 . S
C1098 C1097 1.387 . S
C1098 C1101 1.387 . S
H1099 C1095 0.950 . S
H1100 C1097 0.950 . S
C1101 C1092 1.390 . S
C1101 H1094 0.950 . S
C1101 C1098 1.387 . S
C1102 C1103 1.387 . S
C1102 H1106 0.950 . S
C1102 C1111 1.390 . S
C1103 C1102 1.387 . S
C1103 C1105 1.387 . S
H1104 C1111 0.950 . S
C1105 C1103 1.387 . S
C1105 C1107 1.390 . S
C1105 H1109 0.950 . S
H1106 C1102 0.950 . S
C1107 C1105 1.390 . S
C1107 C1108 1.387 . S
C1107 H1110 0.950 . S
C1108 C1107 1.387 . S
C1108 C1111 1.387 . S
H1109 C1105 0.950 . S
H1110 C1107 0.950 . S
C1111 C1102 1.390 . S
C1111 H1104 0.950 . S
C1111 C1108 1.387 . S
C1112 C1113 1.387 . S
C1112 H1116 0.950 . S
C1112 C1121 1.390 . S
C1113 C1112 1.387 . S
C1113 C1115 1.387 . S
H1114 C1121 0.950 . S
C1115 C1113 1.387 . S
C1115 C1117 1.390 . S
C1115 H1119 0.950 . S
H1116 C1112 0.950 . S
C1117 C1115 1.390 . S
C1117 C1118 1.387 . S
C1117 H1120 0.950 . S
C1118 C1117 1.387 . S
C1118 C1121 1.387 . S
H1119 C1115 0.950 . S
H1120 C1117 0.950 . S
C1121 C1112 1.390 . S
C1121 H1114 0.950 . S
C1121 C1118 1.387 . S
C1122 C1123 1.387 . S
C1122 H1126 0.950 . S
C1122 C1131 1.390 . S
C1123 C1122 1.387 . S
C1123 C1125 1.387 . S
H1124 C1131 0.950 . S
C1125 C1123 1.387 . S
C1125 C1127 1.390 . S
C1125 H1129 0.950 1_554 S
H1126 C1122 0.950 . S
C1127 C1125 1.390 . S
C1127 C1128 1.387 . S
C1127 H1130 0.950 . S
C1128 C1127 1.387 . S
C1128 C1131 1.387 . S
H1129 C1125 0.950 1_556 S
H1130 C1127 0.950 . S
C1131 C1122 1.390 . S
C1131 H1124 0.950 . S
C1131 C1128 1.387 . S
C1132 C1133 1.387 . S
C1132 H1136 0.950 . S
C1132 C1141 1.390 . S
C1133 C1132 1.387 . S
C1133 C1135 1.387 . S
H1134 C1141 0.950 . S
C1135 C1133 1.387 . S
C1135 C1137 1.390 . S
C1135 H1139 0.950 . S
H1136 C1132 0.950 . S
C1137 C1135 1.390 . S
C1137 C1138 1.387 . S
C1137 H1140 0.950 . S
C1138 C1137 1.387 . S
C1138 C1141 1.387 . S
H1139 C1135 0.950 . S
H1140 C1137 0.950 . S
C1141 C1132 1.390 . S
C1141 H1134 0.950 . S
C1141 C1138 1.387 . S
C1142 C1143 1.387 . S
C1142 H1146 0.950 . S
C1142 C1151 1.390 . S
C1143 C1142 1.387 . S
C1143 C1145 1.387 . S
H1144 C1151 0.950 . S
C1145 C1143 1.387 . S
C1145 C1147 1.390 . S
C1145 H1149 0.950 . S
H1146 C1142 0.950 . S
C1147 C1145 1.390 . S
C1147 C1148 1.387 . S
C1147 H1150 0.950 . S
C1148 C1147 1.387 . S
C1148 C1151 1.387 . S
H1149 C1145 0.950 . S
H1150 C1147 0.950 . S
C1151 C1142 1.390 . S
C1151 H1144 0.950 . S
C1151 C1148 1.387 . S
C1152 C1153 1.387 . S
C1152 H1156 0.950 . S
C1152 C1161 1.390 . S
C1153 C1152 1.387 . S
C1153 C1155 1.387 . S
H1154 C1161 0.950 . S
C1155 C1153 1.387 . S
C1155 C1157 1.390 . S
C1155 H1159 0.950 . S
H1156 C1152 0.950 . S
C1157 C1155 1.390 . S
C1157 C1158 1.387 . S
C1157 H1160 0.950 . S
C1158 C1157 1.387 . S
C1158 C1161 1.387 . S
H1159 C1155 0.950 . S
H1160 C1157 0.950 . S
C1161 C1152 1.390 . S
C1161 H1154 0.950 . S
C1161 C1158 1.387 . S
C1162 C1163 1.387 . S
C1162 H1166 0.950 . S
C1162 C1171 1.390 . S
C1163 C1162 1.387 . S
C1163 C1165 1.387 . S
H1164 C1171 0.950 . S
C1165 C1163 1.387 . S
C1165 C1167 1.390 . S
C1165 H1169 0.950 . S
H1166 C1162 0.950 . S
C1167 C1165 1.390 . S
C1167 C1168 1.387 . S
C1167 H1170 0.950 . S
C1168 C1167 1.387 . S
C1168 C1171 1.387 . S
H1169 C1165 0.950 . S
H1170 C1167 0.950 . S
C1171 C1162 1.390 . S
C1171 H1164 0.950 . S
C1171 C1168 1.387 . S
C1172 C1173 1.387 . S
C1172 H1176 0.950 . S
C1172 C1181 1.390 . S
C1173 C1172 1.387 . S
C1173 C1175 1.387 . S
H1174 C1181 0.950 . S
C1175 C1173 1.387 . S
C1175 C1177 1.390 . S
C1175 H1179 0.950 . S
H1176 C1172 0.950 . S
C1177 C1175 1.390 . S
C1177 C1178 1.387 . S
C1177 H1180 0.950 . S
C1178 C1177 1.387 . S
C1178 C1181 1.387 . S
H1179 C1175 0.950 . S
H1180 C1177 0.950 . S
C1181 C1172 1.390 . S
C1181 H1174 0.950 . S
C1181 C1178 1.387 . S
C1182 C1183 1.387 . S
C1182 H1186 0.950 . S
C1182 C1191 1.390 . S
C1183 C1182 1.387 . S
C1183 C1185 1.387 . S
H1184 C1191 0.950 . S
C1185 C1183 1.387 . S
C1185 C1187 1.390 . S
C1185 H1189 0.950 . S
H1186 C1182 0.950 . S
C1187 C1185 1.390 . S
C1187 C1188 1.387 . S
C1187 H1190 0.950 . S
C1188 C1187 1.387 . S
C1188 C1191 1.387 . S
H1189 C1185 0.950 . S
H1190 C1187 0.950 . S
C1191 C1182 1.390 . S
C1191 H1184 0.950 . S
C1191 C1188 1.387 . S
C1192 C1193 1.387 . S
C1192 H1196 0.950 1_545 S
C1192 C1201 1.390 . S
C1193 C1192 1.387 . S
C1193 C1195 1.387 . S
H1194 C1201 0.950 . S
C1195 C1193 1.387 . S
C1195 C1197 1.390 . S
C1195 H1199 0.950 . S
H1196 C1192 0.950 1_565 S
C1197 C1195 1.390 . S
C1197 C1198 1.387 . S
C1197 H1200 0.950 . S
C1198 C1197 1.387 . S
C1198 C1201 1.387 . S
H1199 C1195 0.950 . S
H1200 C1197 0.950 . S
C1201 C1192 1.390 . S
C1201 H1194 0.950 . S
C1201 C1198 1.387 . S
C1202 C1203 1.387 . S
C1202 H1206 0.950 . S
C1202 C1211 1.390 . S
C1203 C1202 1.387 . S
C1203 C1205 1.387 . S
H1204 C1211 0.950 . S
C1205 C1203 1.387 . S
C1205 C1207 1.390 . S
C1205 H1209 0.950 . S
H1206 C1202 0.950 . S
C1207 C1205 1.390 . S
C1207 C1208 1.387 . S
C1207 H1210 0.950 . S
C1208 C1207 1.387 . S
C1208 C1211 1.387 . S
H1209 C1205 0.950 . S
H1210 C1207 0.950 . S
C1211 C1202 1.390 . S
C1211 H1204 0.950 . S
C1211 C1208 1.387 . S
C1212 C1213 1.387 . S
C1212 H1216 0.950 . S
C1212 C1221 1.390 . S
C1213 C1212 1.387 . S
C1213 C1215 1.387 . S
H1214 C1221 0.950 . S
C1215 C1213 1.387 . S
C1215 C1217 1.390 . S
C1215 H1219 0.950 . S
H1216 C1212 0.950 . S
C1217 C1215 1.390 . S
C1217 C1218 1.387 . S
C1217 H1220 0.950 . S
C1218 C1217 1.387 . S
C1218 C1221 1.387 . S
H1219 C1215 0.950 . S
H1220 C1217 0.950 . S
C1221 C1212 1.390 . S
C1221 H1214 0.950 . S
C1221 C1218 1.387 . S
C1222 C1223 1.387 . S
C1222 H1226 0.950 . S
C1222 C1231 1.390 . S
C1223 C1222 1.387 . S
C1223 C1225 1.387 . S
H1224 C1231 0.950 . S
C1225 C1223 1.387 . S
C1225 C1227 1.390 . S
C1225 H1229 0.950 . S
H1226 C1222 0.950 . S
C1227 C1225 1.390 . S
C1227 C1228 1.387 . S
C1227 H1230 0.950 . S
C1228 C1227 1.387 . S
C1228 C1231 1.387 . S
H1229 C1225 0.950 . S
H1230 C1227 0.950 . S
C1231 C1222 1.390 . S
C1231 H1224 0.950 . S
C1231 C1228 1.387 . S
C1232 C1233 1.387 . S
C1232 H1236 0.950 1_554 S
C1232 C1241 1.390 . S
C1233 C1232 1.387 . S
C1233 C1235 1.387 . S
H1234 C1241 0.950 . S
C1235 C1233 1.387 . S
C1235 C1237 1.390 . S
C1235 H1239 0.950 . S
H1236 C1232 0.950 1_556 S
C1237 C1235 1.390 . S
C1237 C1238 1.387 . S
C1237 H1240 0.950 . S
C1238 C1237 1.387 . S
C1238 C1241 1.387 . S
H1239 C1235 0.950 . S
H1240 C1237 0.950 . S
C1241 C1232 1.390 . S
C1241 H1234 0.950 . S
C1241 C1238 1.387 . S
C1242 C1243 1.387 . S
C1242 H1246 0.950 . S
C1242 C1251 1.390 . S
C1243 C1242 1.387 . S
C1243 C1245 1.387 . S
H1244 C1251 0.950 1_554 S
C1245 C1243 1.387 . S
C1245 C1247 1.390 . S
C1245 H1249 0.950 . S
H1246 C1242 0.950 . S
C1247 C1245 1.390 . S
C1247 C1248 1.387 . S
C1247 H1250 0.950 . S
C1248 C1247 1.387 . S
C1248 C1251 1.387 . S
H1249 C1245 0.950 . S
H1250 C1247 0.950 . S
C1251 C1242 1.390 . S
C1251 H1244 0.950 1_556 S
C1251 C1248 1.387 . S
C1252 C1253 1.387 . S
C1252 H1256 0.950 . S
C1252 C1261 1.390 . S
C1253 C1252 1.387 . S
C1253 C1255 1.387 . S
H1254 C1261 0.950 . S
C1255 C1253 1.387 . S
C1255 C1257 1.390 . S
C1255 H1259 0.950 . S
H1256 C1252 0.950 . S
C1257 C1255 1.390 . S
C1257 C1258 1.387 . S
C1257 H1260 0.950 . S
C1258 C1257 1.387 . S
C1258 C1261 1.387 . S
H1259 C1255 0.950 . S
H1260 C1257 0.950 . S
C1261 C1252 1.390 . S
C1261 H1254 0.950 . S
C1261 C1258 1.387 . S
C1262 C1263 1.387 . S
C1262 H1266 0.950 . S
C1262 C1271 1.390 . S
C1263 C1262 1.387 . S
C1263 C1265 1.387 . S
H1264 C1271 0.950 . S
C1265 C1263 1.387 . S
C1265 C1267 1.390 . S
C1265 H1269 0.950 . S
H1266 C1262 0.950 . S
C1267 C1265 1.390 . S
C1267 C1268 1.387 . S
C1267 H1270 0.950 . S
C1268 C1267 1.387 . S
C1268 C1271 1.387 . S
H1269 C1265 0.950 . S
H1270 C1267 0.950 . S
C1271 C1262 1.390 . S
C1271 H1264 0.950 . S
C1271 C1268 1.387 . S
C553 C19 1.161 . S
C558 C435 1.202 . S
C563 C458 1.202 . S
C568 C42 1.165 . S
C573 C65 1.164 . S
C578 C389 1.201 . S
C583 C88 1.161 . S
C588 C412 1.202 . S
C593 C527 1.202 . S
C598 C111 1.165 . S
C603 C134 1.163 . S
C608 C504 1.200 . S
C613 C550 1.200 . S
C618 C157 1.162 . S
C623 C180 1.160 . S
C628 C481 1.201 . S
C633 C203 1.164 . S
C638 C320 1.201 . S
C643 C226 1.161 . S
C648 C366 1.202 . S
C653 C343 1.202 . S
C658 C249 1.161 . S
C663 C272 1.162 . S
C668 C297 1.203 . S
C673 C295 1.161 . S
C678 C159 1.202 . S
C683 C318 1.165 . S
C688 C182 1.202 . S
C693 C341 1.161 . S
C698 C113 1.202 . S
C703 C136 1.201 . S
C708 C364 1.165 . S
C713 C387 1.165 . S
C718 C251 1.202 . S
C723 C228 1.203 . S
C728 C410 1.162 . S
C733 C274 1.200 . S
C738 C433 1.162 . S
C743 C205 1.202 . S
C748 C456 1.165 . S
C753 C44 1.202 . S
C758 C479 1.161 . S
C763 C90 1.201 . S
C768 C502 1.164 . S
C773 C67 1.202 . S
C778 C525 1.161 . S
C783 C548 1.164 . S
C788 C21 1.201 . S
C793 C110 1.439 . S
C798 C16 1.470 . S
C803 C133 1.438 . S
C808 C39 1.469 . S
C813 C156 1.441 . S
C818 C62 1.470 . S
C823 C179 1.438 . S
C828 C85 1.469 . S
C833 C108 1.469 . S
C838 C202 1.438 . S
C843 C131 1.471 . S
C848 C271 1.441 . S
C853 C154 1.471 . S
C858 C225 1.441 . S
C863 C177 1.471 . S
C868 C248 1.441 . S
C873 C200 1.470 . S
C878 C18 1.439 . S
C883 C223 1.470 . S
C888 C64 1.440 . S
C893 C246 1.469 . S
C898 C87 1.438 . S
C903 C41 1.441 . S
C908 C269 1.471 . S
C913 C386 1.440 . S
C918 C292 1.471 . S
C923 C409 1.438 . S
C928 C315 1.469 . S
C933 C338 1.469 . S
C938 C432 1.438 . S
C943 C361 1.469 . S
C948 C455 1.438 . S
C953 C478 1.441 . S
C958 C384 1.471 . S
C963 C407 1.470 . S
C968 C547 1.440 . S
C973 C501 1.441 . S
C978 C430 1.471 . S
C983 C453 1.469 . S
C988 C524 1.438 . S
C993 C294 1.440 . S
C998 C476 1.470 . S
C1003 C499 1.471 . S
C1008 C340 1.441 . S
C1013 C522 1.469 . S
C1018 C363 1.439 . S
C1023 C317 1.438 . S
C1028 C545 1.469 . S
C1033 C20 1.762 . S
C1038 C224 1.636 . S
C1043 C247 1.640 . S
C1048 C43 1.765 . S
C1053 C201 1.640 . S
C1058 C66 1.764 . S
C1063 C270 1.638 . S
C1068 C89 1.763 . S
C1073 C112 1.763 . S
C1078 C86 1.637 . S
C1083 C63 1.638 . S
C1088 C135 1.764 . S
C1093 C158 1.764 . S
C1098 C40 1.638 . S
C1103 C17 1.637 . S
C1108 C181 1.763 . S
C1113 C204 1.762 . S
C1118 C132 1.636 . S
C1123 C227 1.765 . S
C1128 C178 1.639 . S
C1133 C250 1.764 . S
C1138 C155 1.639 . S
C1143 C273 1.762 . S
C1148 C109 1.636 . S
C1153 C296 1.763 . S
C1158 C500 1.637 . S
C1163 C319 1.764 . S
C1168 C523 1.640 . S
C1173 C477 1.640 . S
C1178 C342 1.765 . S
C1183 C546 1.640 . S
C1188 C365 1.764 . S
C1193 C388 1.765 . S
C1198 C362 1.639 . S
C1203 C411 1.764 . S
C1208 C339 1.639 . S
C1213 C316 1.638 . S
C1218 C434 1.764 . S
C1223 C457 1.764 . S
C1228 C293 1.639 . S
C1233 C480 1.765 . S
C1238 C408 1.639 . S
C1243 C454 1.639 . S
C1248 C503 1.764 . S
C1253 C526 1.763 . S
C1258 C431 1.637 . S
C1263 C549 1.764 . S
C1268 C385 1.638 . S
