# Generated by pormake.
# Topology pcu-h, (3)-cn, num edge types: 1
# Building blocks:
#     Node 0, Type 0, BuildingBlock: WUSLED_clean_sbu_0, # of connection points: 3
#     Node 1, Type 0, BuildingBlock: WUSLED_clean_sbu_0, # of connection points: 3
#     Node 2, Type 0, BuildingBlock: WUSLED_clean_sbu_0, # of connection points: 3
#     Node 3, Type 0, BuildingBlock: WUSLED_clean_sbu_0, # of connection points: 3
#     Node 4, Type 0, BuildingBlock: WUSLED_clean_sbu_0, # of connection points: 3
#     Node 5, Type 0, BuildingBlock: WUSLED_clean_sbu_0, # of connection points: 3
#     Node 6, Type 0, BuildingBlock: WUSLED_clean_sbu_0, # of connection points: 3
#     Node 7, Type 0, BuildingBlock: WUSLED_clean_sbu_0, # of connection points: 3
#     Node 8, Type 0, BuildingBlock: WUSLED_clean_sbu_0, # of connection points: 3
#     Node 9, Type 0, BuildingBlock: WUSLED_clean_sbu_0, # of connection points: 3
#     Node 10, Type 0, BuildingBlock: WUSLED_clean_sbu_0, # of connection points: 3
#     Node 11, Type 0, BuildingBlock: WUSLED_clean_sbu_0, # of connection points: 3
#     Node 12, Type 0, BuildingBlock: WUSLED_clean_sbu_0, # of connection points: 3
#     Node 13, Type 0, BuildingBlock: WUSLED_clean_sbu_0, # of connection points: 3
#     Node 14, Type 0, BuildingBlock: WUSLED_clean_sbu_0, # of connection points: 3
#     Node 15, Type 0, BuildingBlock: WUSLED_clean_sbu_0, # of connection points: 3
#     Node 16, Type 0, BuildingBlock: WUSLED_clean_sbu_0, # of connection points: 3
#     Node 17, Type 0, BuildingBlock: WUSLED_clean_sbu_0, # of connection points: 3
#     Edge 18, Type (0, 0), None
#     Edge 19, Type (0, 0), None
#     Edge 20, Type (0, 0), None
#     Edge 21, Type (0, 0), None
#     Edge 22, Type (0, 0), None
#     Edge 23, Type (0, 0), None
#     Edge 24, Type (0, 0), None
#     Edge 25, Type (0, 0), None
#     Edge 26, Type (0, 0), None
#     Edge 27, Type (0, 0), None
#     Edge 28, Type (0, 0), None
#     Edge 29, Type (0, 0), None
#     Edge 30, Type (0, 0), None
#     Edge 31, Type (0, 0), None
#     Edge 32, Type (0, 0), None
#     Edge 33, Type (0, 0), None
#     Edge 34, Type (0, 0), None
#     Edge 35, Type (0, 0), None
#     Edge 36, Type (0, 0), None
#     Edge 37, Type (0, 0), None
#     Edge 38, Type (0, 0), None
#     Edge 39, Type (0, 0), None
#     Edge 40, Type (0, 0), None
#     Edge 41, Type (0, 0), None
#     Edge 42, Type (0, 0), None
#     Edge 43, Type (0, 0), None
#     Edge 44, Type (0, 0), None
# Relax obj value: 0.000
# Max RMSD: 0.007
# Mean RMSD: 0.006
data_MOF--net-pcu-h--node1-WUSLED_clean_sbu_0--edge1-none
_symmetry_space_group_name_H-M    P1
_symmetry_Int_Tables_number       1
_symmetry_cell_setting            triclinic
loop_
_symmetry_equiv_pos_as_xyz
'x, y, z'
_cell_length_a     76.631575
_cell_length_b     76.018388
_cell_length_c     21.380983
_cell_angle_alpha  90.363802
_cell_angle_beta   89.987131
_cell_angle_gamma 120.20676
loop_
_atom_site_label
_atom_site_type_symbol
_atom_site_fract_x
_atom_site_fract_y
_atom_site_fract_z
_atom_type_partial_charge
C0 C 0.229 0.16804 0.00562 0.0
C1 C 0.21792 0.16289 0.94934 0.0
C2 C 0.20252 0.18337 -0.02115 0.0
C3 C 0.20484 0.17041 0.93624 0.0
C4 C 0.21349 0.18823 0.03541 0.0
C5 C 0.2265 0.18071 0.04843 0.0
U6 U 0.25069 0.13087 0.02359 0.0
O7 O 0.28118 0.13676 -0.00164 0.0
O8 O 0.27165 0.13191 0.09633 0.0
C9 C 0.28643 0.13641 0.05673 0.0
C10 C 0.24454 0.16213 0.01889 0.0
C11 C 0.30759 0.1516 0.07661 0.0
C12 C 0.33224 0.17153 0.15848 0.0
C13 C 0.31211 0.16012 0.13729 0.0
C14 C 0.34394 0.16671 0.05854 0.0
C15 C 0.34852 0.1747 0.11992 0.0
C16 C 0.32385 0.15533 0.03741 0.0
C17 C 0.21461 0.07176 -0.00987 0.0
C18 C 0.20801 0.04238 0.92484 0.0
C19 C 0.19446 0.03694 0.02939 0.0
C20 C 0.2034 0.05809 0.03809 0.0
C21 C 0.19626 0.02866 -0.02783 0.0
C22 C 0.21696 0.06356 0.93358 0.0
C23 C 0.2208 0.09384 -0.00426 0.0
O24 O 0.24232 0.15169 0.07 0.0
O25 O 0.25141 0.15624 -0.02837 0.0
O26 O 0.23336 0.10657 0.95403 0.0
O27 O 0.22395 0.10195 0.05209 0.0
H28 H 0.21958 0.15333 0.91492 0.0
H29 H 0.19689 0.16639 0.89192 0.0
H30 H 0.21196 0.19779 0.07012 0.0
H31 H 0.23493 0.18511 0.09197 0.0
H32 H 0.33498 0.1776 0.20567 0.0
H33 H 0.30008 0.15746 0.16927 0.0
H34 H 0.35582 0.16842 0.02741 0.0
H35 H 0.321 0.1487 -0.00911 0.0
H36 H 0.21004 0.03676 0.88038 0.0
H37 H 0.18533 0.02706 0.0668 0.0
H38 H 0.20081 0.0637 0.08177 0.0
H39 H 0.22519 0.07347 0.89507 0.0
C40 C 0.87715 0.07144 -0.00484 0.0
C41 C 0.87691 0.05795 0.04054 0.0
C42 C 0.85884 0.02871 -0.03056 0.0
C43 C 0.86798 0.03697 0.02783 0.0
C44 C 0.85963 0.04234 0.92352 0.0
C45 C 0.86855 0.06329 0.93625 0.0
U46 U 0.91423 0.13077 0.01844 0.0
O47 O 0.908 0.15544 -0.00433 0.0
O48 O 0.91322 0.15051 0.093 0.0
C49 C 0.90835 0.16079 0.05448 0.0
C50 C 0.88336 0.09304 0.01174 0.0
C51 C 0.89288 0.16618 0.07516 0.0
C52 C 0.8759 0.18576 0.05705 0.0
C53 C 0.88777 0.17765 0.03558 0.0
C54 C 0.8734 0.17077 0.15819 0.0
C55 C 0.8688 0.18281 0.11913 0.0
C56 C 0.88529 0.16265 0.13666 0.0
C57 C 0.97253 0.15444 -0.02038 0.0
C58 C 1.00612 0.17765 0.02308 0.0
C59 C 1.00231 0.17067 0.91208 0.0
C60 C 0.98143 0.15778 0.92007 0.0
C61 C 1.01511 0.18065 0.9635 0.0
C62 C 0.98518 0.16467 0.03108 0.0
C63 C 0.95081 0.13833 -0.01276 0.0
O64 O 0.8942 0.10106 0.06269 0.0
O65 O 0.88865 0.10621 0.96595 0.0
O66 O 0.93768 0.13795 0.94683 0.0
O67 O 0.94342 0.13349 0.04413 0.0
H68 H 0.88307 0.06348 0.08679 0.0
H69 H 0.86798 0.02716 0.06432 0.0
H70 H 0.85254 0.03673 0.87834 0.0
H71 H 0.86799 0.07301 0.90045 0.0
H72 H 0.87309 0.19515 0.02549 0.0
H73 H 0.89364 0.18107 -0.01161 0.0
H74 H 0.86806 0.16783 0.20598 0.0
H75 H 0.88902 0.15411 0.16896 0.0
H76 H 1.01535 0.18484 0.06405 0.0
H77 H 1.00842 0.17276 0.86529 0.0
H78 H 0.97225 0.14996 0.87949 0.0
H79 H 0.97901 0.16229 0.07786 0.0
C80 C 0.87722 0.81459 -0.00123 0.0
C81 C 0.88456 0.83306 0.03194 0.0
C82 C 0.86104 0.84074 -0.0231 0.0
C83 C 0.87662 0.84593 0.02108 0.0
C84 C 0.85412 0.82249 0.94268 0.0
C85 C 0.86204 0.80963 0.95363 0.0
U86 U 0.9142 0.79301 0.02282 0.0
O87 O 0.91353 0.77313 0.09907 0.0
O88 O 0.90803 0.76186 0.00242 0.0
C89 C 0.90867 0.75754 0.06157 0.0
C90 C 0.88323 0.79923 0.01516 0.0
C91 C 0.89354 0.73672 0.08447 0.0
C92 C 0.86723 0.70133 0.06452 0.0
C93 C 0.87906 0.72163 0.04449 0.0
C94 C 0.88367 0.71073 0.16539 0.0
C95 C 0.86958 0.69542 0.125 0.0
C96 C 0.89545 0.73098 0.1454 0.0
C97 C 0.97253 0.82854 -0.01281 0.0
C98 C 0.99957 0.82344 0.94688 0.0
C99 C 1.00799 0.85527 -0.00264 0.0
C100 C 0.98737 0.84804 0.00763 0.0
C101 C 1.01449 0.84322 0.96605 0.0
C102 C 0.97889 0.81621 0.95717 0.0
C103 C 0.95078 0.82258 -0.00758 0.0
O104 O 0.88867 0.79141 -0.03069 0.0
O105 O 0.89395 0.8023 0.06633 0.0
O106 O 0.94316 0.82041 0.04882 0.0
O107 O 0.93794 0.80913 0.95219 0.0
H108 H 0.89616 0.83741 0.06731 0.0
H109 H 0.88269 0.85996 0.0477 0.0
H110 H 0.84206 0.81774 0.90878 0.0
H111 H 0.8558 0.79539 0.92793 0.0
H112 H 0.85641 0.69019 0.03207 0.0
H113 H 0.87722 0.72533 -0.00297 0.0
H114 H 0.88631 0.70697 0.21185 0.0
H115 H 0.9067 0.74205 0.17711 0.0
H116 H 1.00383 0.81347 0.92362 0.0
H117 H 1.01879 0.87062 0.01225 0.0
H118 H 0.98296 0.85801 0.03018 0.0
H119 H 0.96789 0.80113 0.94064 0.0
C120 C 0.07993 0.22025 0.93382 0.0
C121 C 0.06893 0.2019 0.90002 0.0
C122 C 0.03762 0.19399 0.95474 0.0
C123 C 0.04813 0.18897 0.91042 0.0
C124 C 0.04882 0.21211 -0.01044 0.0
C125 C 0.0696 0.22504 -0.02092 0.0
U126 U 0.13851 0.24198 0.91029 0.0
O127 O 0.15781 0.26234 0.83511 0.0
O128 O 0.16341 0.273 0.93236 0.0
C129 C 0.16844 0.27771 0.87343 0.0
C130 C 0.10131 0.2357 0.91801 0.0
C131 C 0.1741 0.2987 0.85205 0.0
C132 C 0.18751 0.32439 0.76936 0.0
C133 C 0.17887 0.30405 0.78881 0.0
C134 C 0.1864 0.3347 0.87557 0.0
C135 C 0.19184 0.34018 0.81257 0.0
C136 C 0.17776 0.31434 0.89502 0.0
C137 C 0.16136 0.20634 0.94412 0.0
C138 C 0.19341 0.21133 -0.01519 0.0
C139 C 0.17021 0.17968 0.93315 0.0
C140 C 0.15681 0.18692 0.92302 0.0
C141 C 0.18865 0.19162 0.96499 0.0
C142 C 0.17995 0.21857 -0.02535 0.0
C143 C 0.14555 0.21228 0.9391 0.0
O144 O 0.11447 0.24328 0.96412 0.0
O145 O 0.10906 0.23288 0.86661 0.0
O146 O 0.14026 0.21476 0.8828 0.0
O147 O 0.14598 0.22549 -0.01998 0.0
H148 H 0.07627 0.19769 0.86454 0.0
H149 H 0.04025 0.17502 0.88333 0.0
H150 H 0.04142 0.21673 0.02359 0.0
H151 H 0.07751 0.23918 0.00526 0.0
H152 H 0.19166 0.3278 0.72069 0.0
H153 H 0.1767 0.29258 0.75447 0.0
H154 H 0.18914 0.34622 0.91039 0.0
H155 H 0.17457 0.31099 0.94424 0.0
H156 H 0.20755 0.22122 0.00848 0.0
H157 H 0.16574 0.16438 0.91775 0.0
H158 H 0.14251 0.17702 0.90007 0.0
H159 H 0.18395 0.23359 -0.0083 0.0
C160 C 0.82316 0.96327 0.93234 0.0
C161 C 0.82394 0.97128 -0.00746 0.0
C162 C 0.84754 1.00602 0.95751 0.0
C163 C 0.83597 0.99226 0.00498 0.0
C164 C 0.84723 0.99789 0.89774 0.0
C165 C 0.83519 0.9769 0.88532 0.0
U166 U 0.80072 0.90383 0.91095 0.0
O167 O 0.76984 0.87931 0.93425 0.0
O168 O 0.77993 0.88393 0.83685 0.0
C169 C 0.7648 0.8738 0.87557 0.0
C170 C 0.80769 0.94164 0.9165 0.0
C171 C 0.74396 0.86844 0.85486 0.0
C172 C 0.70744 0.84894 0.87306 0.0
C173 C 0.7274 0.85703 0.89449 0.0
C174 C 0.71991 0.86385 0.77182 0.0
C175 C 0.70329 0.85187 0.81095 0.0
C176 C 0.73991 0.87194 0.79332 0.0
C177 C 0.83534 0.88015 0.95065 0.0
C178 C 0.84574 0.85682 0.90797 0.0
C179 C 0.84901 0.86415 0.01877 0.0
C180 C 0.84097 0.877 0.01033 0.0
C181 C 0.8518 0.85402 -0.03232 0.0
C182 C 0.83773 0.86976 0.89952 0.0
C183 C 0.82971 0.89625 0.94249 0.0
O184 O 0.8104 0.93342 0.86578 0.0
O185 O 0.79984 0.92861 0.96266 0.0
O186 O 0.81703 0.89678 -0.01716 0.0
O187 O 0.82712 0.90093 0.88544 0.0
H188 H 0.81462 0.96145 0.02978 0.0
H189 H 0.83545 0.99777 0.05136 0.0
H190 H 0.85606 1.0078 0.85997 0.0
H191 H 0.83482 0.97146 0.83813 0.0
H192 H 0.69526 0.8396 0.90467 0.0
H193 H 0.72985 0.85363 0.94171 0.0
H194 H 0.71752 0.86677 0.72401 0.0
H195 H 0.75217 0.88044 0.76098 0.0
H196 H 0.84775 0.8495 0.86724 0.0
H197 H 0.85309 0.8622 0.06564 0.0
H198 H 0.83964 0.88494 0.05066 0.0
H199 H 0.83389 0.872 0.85265 0.0
C200 C 0.07835 0.86669 0.92515 0.0
C201 C 0.07245 0.87204 -0.01884 0.0
C202 C 0.03658 0.85143 0.95209 0.0
C203 C 0.05188 0.86456 -0.00566 0.0
C204 C 0.04266 0.84638 0.89578 0.0
C205 C 0.06317 0.85386 0.88267 0.0
U206 U 0.13717 0.90379 0.90763 0.0
O207 O 0.1617 0.89776 0.93276 0.0
O208 O 0.15712 0.9028 0.83487 0.0
C209 C 0.16734 0.89819 0.87441 0.0
C210 C 0.09978 0.87258 0.91184 0.0
C211 C 0.1733 0.88299 0.8543 0.0
C212 C 0.17802 0.86311 0.77217 0.0
C213 C 0.16933 0.87455 0.79352 0.0
C214 C 0.19445 0.86775 0.87214 0.0
C215 C 0.19108 0.85984 0.81067 0.0
C216 C 0.18576 0.87915 0.89344 0.0
C217 C 0.16026 0.96284 0.94251 0.0
C218 C 0.17598 0.99766 0.90238 0.0
C219 C 0.18194 0.99219 0.00943 0.0
C220 C 0.16975 0.97103 0.00045 0.0
C221 C 0.18495 1.00593 0.96092 0.0
C222 C 0.16379 0.97651 0.89343 0.0
C223 C 0.14435 0.9408 0.93628 0.0
O224 O 0.10803 0.88313 0.86092 0.0
O225 O 0.1125 0.87835 0.95915 0.0
O226 O 0.14407 0.92794 -0.02227 0.0
O227 O 0.13946 0.93282 0.87976 0.0
H228 H 0.08369 0.88174 0.0153 0.0
H229 H 0.04797 0.86873 0.03846 0.0
H230 H 0.03155 0.83668 0.86134 0.0
H231 H 0.06717 0.84932 0.83934 0.0
H232 H 0.17473 0.8571 0.7249 0.0
H233 H 0.16 0.87728 0.76159 0.0
H234 H 0.20459 0.86596 0.90324 0.0
H235 H 0.18952 0.88572 0.94003 0.0
H236 H 0.17756 1.00756 0.86395 0.0
H237 H 0.18873 0.99779 0.05497 0.0
H238 H 0.16721 0.96112 0.03978 0.0
H239 H 0.15644 0.97093 0.84854 0.0
C240 C 0.89581 0.50154 0.33899 0.0
C241 C 0.88449 0.49611 0.28314 0.0
C242 C 0.86928 0.5168 0.31215 0.0
C243 C 0.87139 0.50359 0.27001 0.0
C244 C 0.88049 0.52194 0.36827 0.0
C245 C 0.89353 0.51446 0.38133 0.0
U246 U 0.91748 0.46436 0.35686 0.0
O247 O 0.94798 0.47024 0.33163 0.0
O248 O 0.93843 0.46538 0.42959 0.0
C249 C 0.95321 0.46989 0.38999 0.0
C250 C 0.91135 0.49563 0.35225 0.0
C251 C 0.97437 0.48506 0.4099 0.0
C252 C 0.99901 0.50499 0.4918 0.0
C253 C 0.97889 0.49357 0.47059 0.0
C254 C 1.01072 0.50019 0.39185 0.0
C255 C 1.0153 0.50816 0.45324 0.0
C256 C 0.99063 0.48881 0.3707 0.0
C257 C 0.8814 0.40526 0.3232 0.0
C258 C 0.87477 0.3759 0.25778 0.0
C259 C 0.86128 0.37043 0.36241 0.0
C260 C 0.87023 0.39158 0.37118 0.0
C261 C 0.86305 0.36216 0.30512 0.0
C262 C 0.88373 0.39707 0.26658 0.0
C263 C 0.8876 0.42734 0.32889 0.0
O264 O 0.90911 0.48517 0.40333 0.0
O265 O 0.91822 0.48974 0.30497 0.0
O266 O 0.90016 0.44008 0.28722 0.0
O267 O 0.89074 0.43543 0.38527 0.0
H268 H 0.88598 0.48634 0.2491 0.0
H269 H 0.86325 0.49935 0.22602 0.0
H270 H 0.87913 0.53171 0.40262 0.0
H271 H 0.90213 0.51907 0.42453 0.0
H272 H 1.00176 0.51105 0.539 0.0
H273 H 0.96685 0.49091 0.50257 0.0
H274 H 1.02261 0.5019 0.36072 0.0
H275 H 0.98779 0.48218 0.32418 0.0
H276 H 0.87678 0.37029 0.21326 0.0
H277 H 0.85218 0.36054 0.39984 0.0
H278 H 0.86766 0.39718 0.41492 0.0
H279 H 0.89192 0.40699 0.22806 0.0
C280 C 0.54382 0.40466 0.32854 0.0
C281 C 0.54355 0.39117 0.37397 0.0
C282 C 0.52552 0.36193 0.30283 0.0
C283 C 0.53462 0.37019 0.36126 0.0
C284 C 0.52634 0.37556 0.25687 0.0
C285 C 0.53526 0.39651 0.26959 0.0
U286 U 0.58086 0.46401 0.35181 0.0
O287 O 0.57461 0.48866 0.32905 0.0
O288 O 0.57983 0.48372 0.42639 0.0
C289 C 0.57495 0.494 0.38787 0.0
C290 C 0.55002 0.42625 0.34511 0.0
C291 C 0.55947 0.49938 0.40856 0.0
C292 C 0.54249 0.51896 0.39047 0.0
C293 C 0.55436 0.51085 0.36899 0.0
C294 C 0.53999 0.50396 0.4916 0.0
C295 C 0.53539 0.516 0.45255 0.0
C296 C 0.55189 0.49584 0.47006 0.0
C297 C 0.63917 0.48774 0.31303 0.0
C298 C 0.67286 0.5106 0.35649 0.0
C299 C 0.66886 0.50431 0.24516 0.0
C300 C 0.64798 0.49142 0.25326 0.0
C301 C 0.68175 0.51393 0.29667 0.0
C302 C 0.65192 0.49763 0.3646 0.0
C303 C 0.61746 0.47161 0.32063 0.0
O304 O 0.56085 0.43429 0.39606 0.0
O305 O 0.5553 0.43943 0.29932 0.0
O306 O 0.60432 0.47121 0.28022 0.0
O307 O 0.61007 0.46675 0.37751 0.0
H308 H 0.54968 0.3967 0.42025 0.0
H309 H 0.53459 0.36038 0.39779 0.0
H310 H 0.51928 0.36996 0.21165 0.0
H311 H 0.53472 0.40624 0.23375 0.0
H312 H 0.53968 0.52835 0.35892 0.0
H313 H 0.56023 0.51428 0.3218 0.0
H314 H 0.53465 0.50102 0.53939 0.0
H315 H 0.55562 0.48731 0.50235 0.0
H316 H 0.68217 0.51751 0.39753 0.0
H317 H 0.67489 0.50667 0.19821 0.0
H318 H 0.63873 0.48387 0.21256 0.0
H319 H 0.64584 0.49497 0.41153 0.0
C320 C 0.5439 0.14782 0.33218 0.0
C321 C 0.55155 0.1665 0.36433 0.0
C322 C 0.52773 0.17397 0.3103 0.0
C323 C 0.54362 0.17937 0.35347 0.0
C324 C 0.52049 0.15551 0.27707 0.0
C325 C 0.5284 0.14264 0.28803 0.0
U326 U 0.58097 0.12636 0.35612 0.0
O327 O 0.5805 0.10666 0.43265 0.0
O328 O 0.57479 0.09518 0.33621 0.0
C329 C 0.5756 0.09101 0.3954 0.0
C330 C 0.54995 0.1325 0.34867 0.0
C331 C 0.56059 0.07024 0.41882 0.0
C332 C 0.53343 0.03509 0.40062 0.0
C333 C 0.54528 0.05536 0.38035 0.0
C334 C 0.55156 0.04411 0.49875 0.0
C335 C 0.53659 0.029 0.45983 0.0
C336 C 0.56334 0.06432 0.47853 0.0
C337 C 0.63924 0.16188 0.3198 0.0
C338 C 0.6663 0.157 0.27836 0.0
C339 C 0.67471 0.18851 0.33094 0.0
C340 C 0.65408 0.18125 0.34125 0.0
C341 C 0.68122 0.17665 0.29857 0.0
C342 C 0.64562 0.14973 0.28869 0.0
C343 C 0.61749 0.15591 0.32512 0.0
O344 O 0.55534 0.12463 0.30285 0.0
O345 O 0.56075 0.13568 0.39971 0.0
O346 O 0.60992 0.15385 0.38158 0.0
O347 O 0.60461 0.14239 0.28513 0.0
H348 H 0.56341 0.17103 0.3989 0.0
H349 H 0.54993 0.19358 0.37928 0.0
H350 H 0.50818 0.15059 0.24398 0.0
H351 H 0.52193 0.12824 0.26313 0.0
H352 H 0.52195 0.02411 0.36937 0.0
H353 H 0.54276 0.05922 0.33384 0.0
H354 H 0.55484 0.0402 0.54412 0.0
H355 H 0.57522 0.07522 0.50897 0.0
H356 H 0.67057 0.14717 0.25426 0.0
H357 H 0.68551 0.20377 0.34666 0.0
H358 H 0.64967 0.19109 0.36463 0.0
H359 H 0.63462 0.13476 0.27134 0.0
C360 C 0.74657 0.55347 0.26665 0.0
C361 C 0.73544 0.53533 0.23193 0.0
C362 C 0.70426 0.52724 0.28775 0.0
C363 C 0.71464 0.52242 0.24241 0.0
C364 C 0.71558 0.54514 0.32347 0.0
C365 C 0.73636 0.55805 0.3129 0.0
U366 U 0.80516 0.57526 0.2432 0.0
O367 O 0.82446 0.59555 0.16789 0.0
O368 O 0.83004 0.60631 0.26504 0.0
C369 C 0.83508 0.61096 0.20608 0.0
C370 C 0.76795 0.56894 0.25081 0.0
C371 C 0.84073 0.63192 0.18441 0.0
C372 C 0.85469 0.65766 0.10199 0.0
C373 C 0.84609 0.63734 0.12151 0.0
C374 C 0.85239 0.66781 0.20742 0.0
C375 C 0.8584 0.67337 0.1448 0.0
C376 C 0.84378 0.64746 0.22695 0.0
C377 C 0.82802 0.53964 0.27736 0.0
C378 C 0.86022 0.54481 0.31721 0.0
C379 C 0.83679 0.5129 0.26728 0.0
C380 C 0.82337 0.52011 0.25712 0.0
C381 C 0.85537 0.525 0.29827 0.0
C382 C 0.84673 0.55201 0.30704 0.0
C383 C 0.81221 0.54559 0.27228 0.0
O384 O 0.78111 0.57657 0.29692 0.0
O385 O 0.77571 0.56612 0.19945 0.0
O386 O 0.80691 0.54802 0.21595 0.0
O387 O 0.81267 0.55883 0.31309 0.0
H388 H 0.74268 0.53128 0.19566 0.0
H389 H 0.70667 0.50865 0.21459 0.0
H390 H 0.70827 0.54961 0.35831 0.0
H391 H 0.74436 0.57204 0.33981 0.0
H392 H 0.8593 0.66113 0.05365 0.0
H393 H 0.84439 0.62593 0.08757 0.0
H394 H 0.85465 0.67927 0.24189 0.0
H395 H 0.84012 0.64405 0.27593 0.0
H396 H 0.87447 0.55481 0.3402 0.0
H397 H 0.83224 0.49752 0.25258 0.0
H398 H 0.80897 0.51011 0.23484 0.0
H399 H 0.85081 0.56712 0.32338 0.0
C400 C 0.48984 0.29649 0.26573 0.0
C401 C 0.49059 0.30451 0.32591 0.0
C402 C 0.51422 0.33924 0.2909 0.0
C403 C 0.50262 0.32549 0.33834 0.0
C404 C 0.51393 0.3311 0.23117 0.0
C405 C 0.50189 0.31011 0.21875 0.0
U406 U 0.4674 0.23705 0.24438 0.0
O407 O 0.43652 0.21253 0.2677 0.0
O408 O 0.4466 0.21714 0.17029 0.0
C409 C 0.43148 0.20701 0.20902 0.0
C410 C 0.47437 0.27486 0.24988 0.0
C411 C 0.41064 0.20166 0.18831 0.0
C412 C 0.37412 0.18219 0.20655 0.0
C413 C 0.39408 0.19027 0.22797 0.0
C414 C 0.38659 0.19707 0.10528 0.0
C415 C 0.36996 0.18511 0.14443 0.0
C416 C 0.40658 0.20515 0.12676 0.0
C417 C 0.50204 0.21341 0.28423 0.0
C418 C 0.51202 0.18974 0.2417 0.0
C419 C 0.51613 0.19774 0.35207 0.0
C420 C 0.50809 0.21059 0.34368 0.0
C421 C 0.5185 0.18727 0.30115 0.0
C422 C 0.50401 0.20268 0.23329 0.0
C423 C 0.49639 0.22948 0.27599 0.0
O424 O 0.47708 0.26664 0.19918 0.0
O425 O 0.46652 0.26183 0.29605 0.0
O426 O 0.48371 0.23002 0.31632 0.0
O427 O 0.49379 0.23414 0.21891 0.0
H428 H 0.48124 0.29467 0.36312 0.0
H429 H 0.50207 0.33099 0.3847 0.0
H430 H 0.52279 0.34101 0.19342 0.0
H431 H 0.50155 0.30467 0.17158 0.0
H432 H 0.36194 0.17287 0.23818 0.0
H433 H 0.39653 0.18688 0.2752 0.0
H434 H 0.38419 0.19998 0.05746 0.0
H435 H 0.41884 0.21363 0.0944 0.0
H436 H 0.5137 0.18214 0.20109 0.0
H437 H 0.52053 0.19606 0.39878 0.0
H438 H 0.50707 0.2188 0.38384 0.0
H439 H 0.49983 0.20465 0.18658 0.0
C440 C 0.74511 0.20024 0.25785 0.0
C441 C 0.73915 0.20524 0.31438 0.0
C442 C 0.70332 0.18492 0.28465 0.0
C443 C 0.71857 0.19773 0.32749 0.0
C444 C 0.70945 0.18021 0.22783 0.0
C445 C 0.72997 0.18772 0.21479 0.0
U446 U 0.80394 0.2373 0.24042 0.0
O447 O 0.82846 0.23126 0.26564 0.0
O448 O 0.8239 0.2363 0.16773 0.0
C449 C 0.8341 0.23168 0.2073 0.0
C450 C 0.76654 0.20611 0.24457 0.0
C451 C 0.84005 0.21646 0.18725 0.0
C452 C 0.84475 0.19654 0.10519 0.0
C453 C 0.83607 0.208 0.1265 0.0
C454 C 0.86118 0.2012 0.20517 0.0
C455 C 0.8578 0.19327 0.14373 0.0
C456 C 0.85251 0.21263 0.22641 0.0
C457 C 0.82705 0.29636 0.27532 0.0
C458 C 0.84273 0.33119 0.2353 0.0
C459 C 0.84876 0.32569 0.34225 0.0
C460 C 0.83657 0.30453 0.33323 0.0
C461 C 0.85174 0.33944 0.29382 0.0
C462 C 0.83054 0.31004 0.22631 0.0
C463 C 0.81113 0.27431 0.26906 0.0
O464 O 0.77481 0.21665 0.19366 0.0
O465 O 0.77925 0.21186 0.2919 0.0
O466 O 0.81084 0.26145 0.31051 0.0
O467 O 0.80626 0.26635 0.21253 0.0
H468 H 0.75035 0.21468 0.34899 0.0
H469 H 0.71462 0.20163 0.37201 0.0
H470 H 0.69838 0.17076 0.19295 0.0
H471 H 0.73401 0.18344 0.17105 0.0
H472 H 0.84144 0.19051 0.05795 0.0
H473 H 0.82674 0.21073 0.09454 0.0
H474 H 0.87132 0.19941 0.23629 0.0
H475 H 0.85627 0.21921 0.27298 0.0
H476 H 0.84429 0.34109 0.19693 0.0
H477 H 0.85558 0.33127 0.38777 0.0
H478 H 0.83405 0.29461 0.37251 0.0
H479 H 0.82317 0.30447 0.18144 0.0
C480 C 0.56237 0.83478 0.67197 0.0
C481 C 0.55109 0.8294 0.61605 0.0
C482 C 0.53587 0.85008 0.64512 0.0
C483 C 0.538 0.8369 0.60292 0.0
C484 C 0.54704 0.85517 0.70132 0.0
C485 C 0.56007 0.84767 0.71438 0.0
U486 U 0.58403 0.79759 0.68994 0.0
O487 O 0.61453 0.80348 0.66476 0.0
O488 O 0.60498 0.79863 0.76271 0.0
C489 C 0.61977 0.80313 0.72313 0.0
C490 C 0.5779 0.82886 0.68524 0.0
C491 C 0.64092 0.81832 0.74304 0.0
C492 C 0.66555 0.83825 0.82497 0.0
C493 C 0.64543 0.82683 0.80374 0.0
C494 C 0.67728 0.83348 0.72501 0.0
C495 C 0.68184 0.84145 0.78641 0.0
C496 C 0.65719 0.82208 0.70385 0.0
C497 C 0.54796 0.73848 0.65643 0.0
C498 C 0.54138 0.70911 0.59116 0.0
C499 C 0.52781 0.70366 0.69567 0.0
C500 C 0.53675 0.72481 0.70437 0.0
C501 C 0.52963 0.69538 0.63847 0.0
C502 C 0.55033 0.73029 0.5999 0.0
C503 C 0.55415 0.76057 0.66205 0.0
O504 O 0.57566 0.81841 0.73635 0.0
O505 O 0.58476 0.82296 0.63798 0.0
O506 O 0.56671 0.77329 0.62035 0.0
O507 O 0.55729 0.76867 0.7184 0.0
H508 H 0.5526 0.81965 0.58196 0.0
H509 H 0.52989 0.83269 0.55888 0.0
H510 H 0.54566 0.86491 0.73572 0.0
H511 H 0.56864 0.85224 0.75763 0.0
H512 H 0.66829 0.84432 0.87217 0.0
H513 H 0.63339 0.82416 0.83572 0.0
H514 H 0.68917 0.83521 0.69388 0.0
H515 H 0.65435 0.81547 0.65732 0.0
H516 H 0.54343 0.70349 0.54671 0.0
H517 H 0.51868 0.69378 0.73307 0.0
H518 H 0.53414 0.73041 0.74804 0.0
H519 H 0.55857 0.7402 0.5614 0.0
C520 C 0.21055 0.73812 0.66178 0.0
C521 C 0.21034 0.72464 0.70712 0.0
C522 C 0.19226 0.6954 0.63604 0.0
C523 C 0.20142 0.70366 0.6944 0.0
C524 C 0.19302 0.70901 0.59016 0.0
C525 C 0.20193 0.72997 0.60289 0.0
U526 U 0.24759 0.79746 0.68508 0.0
O527 O 0.24134 0.82211 0.66238 0.0
O528 O 0.24658 0.81717 0.75969 0.0
C529 C 0.24169 0.82746 0.7212 0.0
C530 C 0.21674 0.75971 0.67838 0.0
C531 C 0.22621 0.83282 0.74194 0.0
C532 C 0.20921 0.85238 0.72394 0.0
C533 C 0.22109 0.84429 0.70242 0.0
C534 C 0.20671 0.83736 0.82502 0.0
C535 C 0.2021 0.8494 0.78602 0.0
C536 C 0.21861 0.82926 0.80344 0.0
C537 C 0.30589 0.82116 0.64621 0.0
C538 C 0.3395 0.84432 0.68966 0.0
C539 C 0.33566 0.83745 0.5786 0.0
C540 C 0.31478 0.82456 0.58662 0.0
C541 C 0.34847 0.84737 0.63004 0.0
C542 C 0.31856 0.83134 0.69769 0.0
C543 C 0.28418 0.80505 0.65383 0.0
O544 O 0.22759 0.76774 0.72932 0.0
O545 O 0.22202 0.77289 0.6326 0.0
O546 O 0.27104 0.80466 0.61344 0.0
O547 O 0.2768 0.80019 0.71072 0.0
H548 H 0.21652 0.73018 0.75335 0.0
H549 H 0.20145 0.69386 0.73087 0.0
H550 H 0.18591 0.7034 0.545 0.0
H551 H 0.20134 0.73968 0.56712 0.0
H552 H 0.20639 0.86177 0.69242 0.0
H553 H 0.22696 0.84773 0.65523 0.0
H554 H 0.20137 0.83439 0.8728 0.0
H555 H 0.22235 0.82072 0.8357 0.0
H556 H 0.34875 0.85147 0.73065 0.0
H557 H 0.34176 0.83959 0.53179 0.0
H558 H 0.30559 0.81678 0.54601 0.0
H559 H 0.3124 0.82891 0.74449 0.0
C560 C 0.21056 0.48119 0.66555 0.0
C561 C 0.21824 0.49988 0.69768 0.0
C562 C 0.19444 0.50738 0.64368 0.0
C563 C 0.21033 0.51277 0.68681 0.0
C564 C 0.18717 0.4889 0.61048 0.0
C565 C 0.19506 0.47602 0.62143 0.0
U566 U 0.24758 0.45967 0.68958 0.0
O567 O 0.24702 0.4399 0.76602 0.0
O568 O 0.2414 0.4285 0.6695 0.0
C569 C 0.24214 0.42427 0.72868 0.0
C570 C 0.21659 0.46585 0.68203 0.0
C571 C 0.22707 0.40348 0.75189 0.0
C572 C 0.20028 0.36822 0.7329 0.0
C573 C 0.21212 0.38851 0.71273 0.0
C574 C 0.21767 0.37742 0.8323 0.0
C575 C 0.20308 0.36222 0.79271 0.0
C576 C 0.22945 0.39765 0.81216 0.0
C577 C 0.30588 0.49518 0.65352 0.0
C578 C 0.33292 0.49021 0.61241 0.0
C579 C 0.34135 0.52183 0.66436 0.0
C580 C 0.32072 0.51458 0.67466 0.0
C581 C 0.34785 0.5099 0.6323 0.0
C582 C 0.31224 0.48297 0.62274 0.0
C583 C 0.28413 0.48922 0.65881 0.0
O584 O 0.222 0.458 0.6362 0.0
O585 O 0.22736 0.46899 0.73312 0.0
O586 O 0.27654 0.48712 0.71525 0.0
O587 O 0.27126 0.47573 0.61873 0.0
H588 H 0.2301 0.5044 0.73222 0.0
H589 H 0.21666 0.52698 0.71261 0.0
H590 H 0.17485 0.484 0.57741 0.0
H591 H 0.18857 0.46162 0.59655 0.0
H592 H 0.18908 0.35717 0.70111 0.0
H593 H 0.2099 0.39229 0.66578 0.0
H594 H 0.22067 0.37358 0.87818 0.0
H595 H 0.24106 0.40863 0.84318 0.0
H596 H 0.33718 0.48034 0.58857 0.0
H597 H 0.35216 0.53711 0.67982 0.0
H598 H 0.31632 0.52447 0.69779 0.0
H599 H 0.30124 0.46796 0.60564 0.0
C600 C 0.4133 0.88698 0.60034 0.0
C601 C 0.40228 0.86867 0.56637 0.0
C602 C 0.37099 0.86071 0.62126 0.0
C603 C 0.38147 0.85573 0.57676 0.0
C604 C 0.3822 0.8788 0.65624 0.0
C605 C 0.40298 0.89172 0.64576 0.0
U606 U 0.47187 0.90869 0.57681 0.0
O607 O 0.49119 0.92911 0.50177 0.0
O608 O 0.49679 0.93968 0.59911 0.0
C609 C 0.50183 0.94445 0.54021 0.0
C610 C 0.43468 0.90243 0.58458 0.0
C611 C 0.50749 0.96547 0.51907 0.0
C612 C 0.52048 0.99112 0.43625 0.0
C613 C 0.51181 0.97077 0.45562 0.0
C614 C 0.52031 1.00153 0.54299 0.0
C615 C 0.5253 1.00696 0.47974 0.0
C616 C 0.51165 0.98117 0.56236 0.0
C617 C 0.49467 0.87299 0.61039 0.0
C618 C 0.52684 0.87811 0.65031 0.0
C619 C 0.50342 0.84624 0.60015 0.0
C620 C 0.49001 0.85347 0.59002 0.0
C621 C 0.52198 0.8583 0.63124 0.0
C622 C 0.51337 0.88533 0.64016 0.0
C623 C 0.47887 0.87895 0.6054 0.0
O624 O 0.44783 0.90998 0.63071 0.0
O625 O 0.44242 0.89964 0.53314 0.0
O626 O 0.47361 0.88148 0.54911 0.0
O627 O 0.4793 0.89214 0.64641 0.0
H628 H 0.40961 0.86448 0.53077 0.0
H629 H 0.37359 0.84182 0.54955 0.0
H630 H 0.37481 0.88339 0.6904 0.0
H631 H 0.4109 0.90584 0.67208 0.0
H632 H 0.52426 0.99449 0.38734 0.0
H633 H 0.50925 0.95925 0.42098 0.0
H634 H 0.52344 1.0131 0.57805 0.0
H635 H 0.50883 0.97786 0.61172 0.0
H636 H 0.54108 0.88808 0.67338 0.0
H637 H 0.49887 0.83087 0.58534 0.0
H638 H 0.47562 0.84349 0.56766 0.0
H639 H 0.51745 0.90043 0.65662 0.0
C640 C 0.1566 0.62995 0.59898 0.0
C641 C 0.15741 0.63796 0.6592 0.0
C642 C 0.18098 0.6727 0.62412 0.0
C643 C 0.16943 0.65894 0.67162 0.0
C644 C 0.18064 0.66457 0.56433 0.0
C645 C 0.1686 0.64358 0.55193 0.0
U646 U 0.13417 0.5705 0.57772 0.0
O647 O 0.1033 0.54599 0.60106 0.0
O648 O 0.11337 0.55058 0.50365 0.0
C649 C 0.09825 0.54047 0.54238 0.0
C650 C 0.14114 0.60832 0.58316 0.0
C651 C 0.07742 0.53512 0.52167 0.0
C652 C 0.04089 0.51564 0.53988 0.0
C653 C 0.06085 0.52372 0.56131 0.0
C654 C 0.05337 0.53054 0.43863 0.0
C655 C 0.03674 0.51857 0.47777 0.0
C656 C 0.07336 0.53862 0.46013 0.0
C657 C 0.16881 0.54686 0.6176 0.0
C658 C 0.17874 0.52316 0.57508 0.0
C659 C 0.18289 0.53119 0.68544 0.0
C660 C 0.17487 0.54406 0.67705 0.0
C661 C 0.18523 0.52069 0.63453 0.0
C662 C 0.17075 0.53611 0.56667 0.0
C663 C 0.16316 0.56294 0.60935 0.0
O664 O 0.14385 0.60009 0.53248 0.0
O665 O 0.13329 0.59529 0.62935 0.0
O666 O 0.15048 0.56348 0.64968 0.0
O667 O 0.16056 0.5676 0.55227 0.0
H668 H 0.14811 0.62812 0.69647 0.0
H669 H 0.16893 0.66445 0.71802 0.0
H670 H 0.18945 0.67448 0.52654 0.0
H671 H 0.16821 0.63814 0.50473 0.0
H672 H 0.02871 0.50631 0.5715 0.0
H673 H 0.0633 0.52032 0.60854 0.0
H674 H 0.05097 0.53346 0.39082 0.0
H675 H 0.08562 0.54711 0.42778 0.0
H676 H 0.18039 0.51554 0.53448 0.0
H677 H 0.1873 0.52952 0.73214 0.0
H678 H 0.17387 0.55228 0.71719 0.0
H679 H 0.16656 0.53807 0.51997 0.0
C680 C 0.41172 0.53344 0.59146 0.0
C681 C 0.40579 0.53856 0.64784 0.0
C682 C 0.36995 0.51815 0.61835 0.0
C683 C 0.38521 0.53106 0.661 0.0
C684 C 0.37605 0.51333 0.56168 0.0
C685 C 0.39656 0.52083 0.54859 0.0
U686 U 0.47055 0.5705 0.57394 0.0
O687 O 0.49507 0.56446 0.59912 0.0
O688 O 0.4905 0.56949 0.50121 0.0
C689 C 0.5007 0.56488 0.54077 0.0
C690 C 0.43315 0.53931 0.57816 0.0
C691 C 0.50665 0.54966 0.52071 0.0
C692 C 0.51134 0.52974 0.43864 0.0
C693 C 0.50267 0.5412 0.45995 0.0
C694 C 0.52777 0.53439 0.53862 0.0
C695 C 0.52439 0.52646 0.47717 0.0
C696 C 0.5191 0.54582 0.55987 0.0
C697 C 0.49365 0.62957 0.60879 0.0
C698 C 0.50937 0.66438 0.56865 0.0
C699 C 0.51531 0.65892 0.67573 0.0
C700 C 0.50313 0.63776 0.66674 0.0
C701 C 0.51833 0.67265 0.62721 0.0
C702 C 0.49719 0.64323 0.5597 0.0
C703 C 0.47774 0.60752 0.60255 0.0
O704 O 0.44141 0.54985 0.52723 0.0
O705 O 0.44587 0.54508 0.62546 0.0
O706 O 0.47746 0.59467 0.64401 0.0
O707 O 0.47286 0.59955 0.54603 0.0
H708 H 0.417 0.54807 0.6823 0.0
H709 H 0.38128 0.53504 0.7054 0.0
H710 H 0.36497 0.50381 0.52694 0.0
H711 H 0.40059 0.51646 0.50497 0.0
H712 H 0.50804 0.52372 0.39139 0.0
H713 H 0.49334 0.54394 0.428 0.0
H714 H 0.53791 0.5326 0.56973 0.0
H715 H 0.52286 0.5524 0.60645 0.0
H716 H 0.51096 0.67428 0.53021 0.0
H717 H 0.52209 0.66451 0.72128 0.0
H718 H 0.50058 0.62785 0.70608 0.0
H719 H 0.48986 0.63765 0.51479 0.0
loop_
_geom_bond_atom_site_label_1
_geom_bond_atom_site_label_2
_geom_bond_distance
_geom_bond_site_symmetry_2
_ccdc_geom_bond_type
C0 C1 1.264 . S
C0 C5 1.479 1_556 S
C0 C10 1.465 . S
C1 C0 1.264 . S
C1 C3 1.339 . S
C1 H28 0.931 . S
C2 C3 1.395 . S
C2 C4 1.320 1_556 S
C3 C1 1.339 . S
C3 C2 1.395 . S
C3 H29 0.929 . S
C4 C2 1.320 1_554 S
C4 C5 1.405 . S
C4 H30 0.930 . S
C5 C0 1.479 1_554 S
C5 C4 1.405 . S
C5 H31 0.931 . S
U6 O7 2.454 . S
U6 O8 2.458 . S
U6 C9 2.984 . S
U6 C10 2.847 1_554 S
U6 C23 2.882 1_554 S
U6 O24 2.441 . S
U6 O25 2.420 1_554 S
U6 O26 2.455 1_554 S
U6 O27 2.449 1_554 S
O7 U6 2.454 . S
O7 C9 1.353 . S
O8 U6 2.458 . S
O8 C9 1.286 . S
C9 U6 2.984 . S
C9 O7 1.353 . S
C9 O8 1.286 . S
C9 C11 1.363 . S
C10 C0 1.465 . S
C10 U6 2.847 1_556 S
C10 O24 1.249 1_556 S
C10 O25 1.202 . S
C11 C9 1.363 . S
C11 C13 1.408 . S
C11 C16 1.342 . S
C12 C13 1.310 . S
C12 C15 1.461 . S
C12 H32 0.932 . S
C13 C11 1.408 . S
C13 C12 1.310 . S
C13 H33 0.930 . S
C14 C15 1.474 . S
C14 C16 1.285 . S
C14 H34 0.929 . S
C15 C12 1.461 . S
C15 C14 1.474 . S
C16 C11 1.342 . S
C16 C14 1.285 . S
C16 H35 0.930 . S
C17 C20 1.424 . S
C17 C22 1.245 . S
C17 C23 1.428 . S
C18 C21 1.260 . S
C18 C22 1.477 . S
C18 H36 0.932 . S
C19 C20 1.384 . S
C19 C21 1.479 . S
C19 H37 0.929 . S
C20 C17 1.424 . S
C20 C19 1.384 . S
C20 H38 0.928 . S
C21 C18 1.260 . S
C21 C19 1.479 . S
C22 C17 1.245 . S
C22 C18 1.477 . S
C22 H39 0.932 1_556 S
C23 U6 2.882 1_556 S
C23 C17 1.428 . S
C23 O26 1.301 . S
C23 O27 1.282 . S
O24 U6 2.441 . S
O24 C10 1.249 1_554 S
O25 U6 2.420 1_556 S
O25 C10 1.202 . S
O26 U6 2.455 1_556 S
O26 C23 1.301 . S
O27 U6 2.449 1_556 S
O27 C23 1.282 . S
H28 C1 0.931 . S
H29 C3 0.929 . S
H30 C4 0.930 . S
H31 C5 0.931 . S
H32 C12 0.932 . S
H33 C13 0.930 . S
H34 C14 0.929 . S
H35 C16 0.930 . S
H36 C18 0.932 . S
H37 C19 0.929 . S
H38 C20 0.928 . S
H39 C22 0.932 1_554 S
C40 C41 1.264 1_554 S
C40 C45 1.479 . S
C40 C50 1.465 . S
C41 C40 1.264 1_556 S
C41 C43 1.339 . S
C41 H68 0.931 . S
C42 C43 1.395 1_554 S
C42 C44 1.320 . S
C43 C41 1.339 . S
C43 C42 1.395 1_556 S
C43 H69 0.929 . S
C44 C42 1.320 . S
C44 C45 1.405 . S
C44 H70 0.930 . S
C45 C40 1.479 . S
C45 C44 1.405 . S
C45 H71 0.931 . S
U46 O47 2.454 . S
U46 O48 2.458 . S
U46 C49 2.984 . S
U46 C50 2.847 . S
U46 C63 2.882 . S
U46 O64 2.441 . S
U46 O65 2.420 . S
U46 O66 2.455 . S
U46 O67 2.449 . S
O47 U46 2.454 . S
O47 C49 1.353 . S
O48 U46 2.458 . S
O48 C49 1.286 . S
C49 U46 2.984 . S
C49 O47 1.353 . S
C49 O48 1.286 . S
C49 C51 1.363 . S
C50 C40 1.465 . S
C50 U46 2.847 . S
C50 O64 1.249 . S
C50 O65 1.202 . S
C51 C49 1.363 . S
C51 C53 1.408 . S
C51 C56 1.342 . S
C52 C53 1.310 . S
C52 C55 1.461 . S
C52 H72 0.932 . S
C53 C51 1.408 . S
C53 C52 1.310 . S
C53 H73 0.930 . S
C54 C55 1.474 . S
C54 C56 1.285 . S
C54 H74 0.929 . S
C55 C52 1.461 . S
C55 C54 1.474 . S
C56 C51 1.342 . S
C56 C54 1.285 . S
C56 H75 0.930 . S
C57 C60 1.424 . S
C57 C62 1.245 . S
C57 C63 1.428 . S
C58 C61 1.260 . S
C58 C62 1.477 . S
C58 H76 0.932 . S
C59 C60 1.384 . S
C59 C61 1.479 . S
C59 H77 0.924 1_554 S
C60 C57 1.424 . S
C60 C59 1.384 . S
C60 H78 0.928 . S
C61 C58 1.260 . S
C61 C59 1.479 . S
C62 C57 1.245 . S
C62 C58 1.477 . S
C62 H79 0.932 . S
C63 U46 2.882 . S
C63 C57 1.428 . S
C63 O66 1.301 . S
C63 O67 1.282 . S
O64 U46 2.441 . S
O64 C50 1.249 . S
O65 U46 2.420 . S
O65 C50 1.202 . S
O66 U46 2.455 . S
O66 C63 1.301 . S
O67 U46 2.449 . S
O67 C63 1.282 . S
H68 C41 0.931 . S
H69 C43 0.929 . S
H70 C44 0.930 . S
H71 C45 0.931 . S
H72 C52 0.932 . S
H73 C53 0.930 . S
H74 C54 0.929 . S
H75 C56 0.930 . S
H76 C58 0.932 . S
H77 C59 0.924 1_556 S
H78 C60 0.928 . S
H79 C62 0.932 . S
C80 C81 1.264 . S
C80 C85 1.479 . S
C80 C90 1.465 . S
C81 C80 1.264 . S
C81 C83 1.339 1_554 S
C81 H108 0.931 . S
C82 C83 1.395 . S
C82 C84 1.320 . S
C83 C81 1.339 1_556 S
C83 C82 1.395 . S
C83 H109 0.929 . S
C84 C82 1.320 . S
C84 C85 1.405 1_556 S
C84 H110 0.930 . S
C85 C80 1.479 . S
C85 C84 1.405 1_554 S
C85 H111 0.931 . S
U86 O87 2.454 . S
U86 O88 2.458 . S
U86 C89 2.984 . S
U86 C90 2.847 . S
U86 C103 2.882 . S
U86 O104 2.441 . S
U86 O105 2.420 . S
U86 O106 2.455 . S
U86 O107 2.449 . S
O87 U86 2.454 . S
O87 C89 1.353 . S
O88 U86 2.458 . S
O88 C89 1.286 . S
C89 U86 2.984 . S
C89 O87 1.353 . S
C89 O88 1.286 . S
C89 C91 1.363 . S
C90 C80 1.465 . S
C90 U86 2.847 . S
C90 O104 1.249 . S
C90 O105 1.202 . S
C91 C89 1.363 . S
C91 C93 1.408 . S
C91 C96 1.342 . S
C92 C93 1.310 . S
C92 C95 1.461 . S
C92 H112 0.932 . S
C93 C91 1.408 . S
C93 C92 1.310 . S
C93 H113 0.930 . S
C94 C95 1.474 . S
C94 C96 1.285 . S
C94 H114 0.929 . S
C95 C92 1.461 . S
C95 C94 1.474 . S
C96 C91 1.342 . S
C96 C94 1.285 . S
C96 H115 0.930 . S
C97 C100 1.424 . S
C97 C102 1.245 . S
C97 C103 1.428 . S
C98 C101 1.260 1_554 S
C98 C102 1.477 . S
C98 H116 0.932 . S
C99 C100 1.384 1_556 S
C99 C101 1.479 . S
C99 H117 0.929 . S
C100 C97 1.424 . S
C100 C99 1.384 1_554 S
C100 H118 0.928 1_554 S
C101 C98 1.260 1_556 S
C101 C99 1.479 . S
C102 C97 1.245 . S
C102 C98 1.477 . S
C102 H119 0.932 . S
C103 U86 2.882 . S
C103 C97 1.428 . S
C103 O106 1.301 . S
C103 O107 1.282 . S
O104 U86 2.441 . S
O104 C90 1.249 . S
O105 U86 2.420 . S
O105 C90 1.202 . S
O106 U86 2.455 . S
O106 C103 1.301 . S
O107 U86 2.449 . S
O107 C103 1.282 . S
H108 C81 0.931 . S
H109 C83 0.929 . S
H110 C84 0.930 . S
H111 C85 0.931 . S
H112 C92 0.932 . S
H113 C93 0.930 . S
H114 C94 0.929 . S
H115 C96 0.930 . S
H116 C98 0.932 . S
H117 C99 0.929 . S
H118 C100 0.928 1_556 S
H119 C102 0.932 . S
C120 C121 1.264 . S
C120 C125 1.479 . S
C120 C130 1.465 . S
C121 C120 1.264 . S
C121 C123 1.339 1_556 S
C121 H148 0.931 . S
C122 C123 1.395 . S
C122 C124 1.320 . S
C123 C121 1.339 1_554 S
C123 C122 1.395 . S
C123 H149 0.929 . S
C124 C122 1.320 . S
C124 C125 1.405 1_554 S
C124 H150 0.930 . S
C125 C120 1.479 . S
C125 C124 1.405 1_556 S
C125 H151 0.931 . S
U126 O127 2.454 . S
U126 O128 2.458 . S
U126 C129 2.984 . S
U126 C130 2.847 . S
U126 C143 2.882 . S
U126 O144 2.441 . S
U126 O145 2.420 . S
U126 O146 2.455 . S
U126 O147 2.449 . S
O127 U126 2.454 . S
O127 C129 1.353 . S
O128 U126 2.458 . S
O128 C129 1.286 . S
C129 U126 2.984 . S
C129 O127 1.353 . S
C129 O128 1.286 . S
C129 C131 1.363 . S
C130 C120 1.465 . S
C130 U126 2.847 . S
C130 O144 1.249 . S
C130 O145 1.202 . S
C131 C129 1.363 . S
C131 C133 1.408 . S
C131 C136 1.342 . S
C132 C133 1.310 . S
C132 C135 1.461 . S
C132 H152 0.932 . S
C133 C131 1.408 . S
C133 C132 1.310 . S
C133 H153 0.930 . S
C134 C135 1.474 . S
C134 C136 1.285 . S
C134 H154 0.929 . S
C135 C132 1.461 . S
C135 C134 1.474 . S
C136 C131 1.342 . S
C136 C134 1.285 . S
C136 H155 0.930 . S
C137 C140 1.424 . S
C137 C142 1.245 . S
C137 C143 1.428 . S
C138 C141 1.260 1_556 S
C138 C142 1.477 . S
C138 H156 0.932 . S
C139 C140 1.384 1_554 S
C139 C141 1.479 . S
C139 H157 0.929 . S
C140 C137 1.424 . S
C140 C139 1.384 1_556 S
C140 H158 0.928 1_556 S
C141 C138 1.260 1_554 S
C141 C139 1.479 . S
C142 C137 1.245 . S
C142 C138 1.477 . S
C142 H159 0.932 . S
C143 U126 2.882 . S
C143 C137 1.428 . S
C143 O146 1.301 . S
C143 O147 1.282 . S
O144 U126 2.441 . S
O144 C130 1.249 . S
O145 U126 2.420 . S
O145 C130 1.202 . S
O146 U126 2.455 . S
O146 C143 1.301 . S
O147 U126 2.449 . S
O147 C143 1.282 . S
H148 C121 0.931 . S
H149 C123 0.929 . S
H150 C124 0.930 . S
H151 C125 0.931 . S
H152 C132 0.932 . S
H153 C133 0.930 . S
H154 C134 0.929 . S
H155 C136 0.930 . S
H156 C138 0.932 . S
H157 C139 0.929 . S
H158 C140 0.928 1_554 S
H159 C142 0.932 . S
C160 C161 1.264 1_556 S
C160 C165 1.479 . S
C160 C170 1.465 . S
C161 C160 1.264 1_554 S
C161 C163 1.339 . S
C161 H188 0.931 . S
C162 C163 1.395 1_556 S
C162 C164 1.320 . S
C163 C161 1.339 . S
C163 C162 1.395 1_554 S
C163 H189 0.929 . S
C164 C162 1.320 . S
C164 C165 1.405 . S
C164 H190 0.930 . S
C165 C160 1.479 . S
C165 C164 1.405 . S
C165 H191 0.931 . S
U166 O167 2.454 . S
U166 O168 2.458 . S
U166 C169 2.984 . S
U166 C170 2.847 . S
U166 C183 2.882 . S
U166 O184 2.441 . S
U166 O185 2.420 . S
U166 O186 2.455 . S
U166 O187 2.449 . S
O167 U166 2.454 . S
O167 C169 1.353 . S
O168 U166 2.458 . S
O168 C169 1.286 . S
C169 U166 2.984 . S
C169 O167 1.353 . S
C169 O168 1.286 . S
C169 C171 1.363 . S
C170 C160 1.465 . S
C170 U166 2.847 . S
C170 O184 1.249 . S
C170 O185 1.202 . S
C171 C169 1.363 . S
C171 C173 1.408 . S
C171 C176 1.342 . S
C172 C173 1.310 . S
C172 C175 1.461 . S
C172 H192 0.932 . S
C173 C171 1.408 . S
C173 C172 1.310 . S
C173 H193 0.930 . S
C174 C175 1.474 . S
C174 C176 1.285 . S
C174 H194 0.929 . S
C175 C172 1.461 . S
C175 C174 1.474 . S
C176 C171 1.342 . S
C176 C174 1.285 . S
C176 H195 0.930 . S
C177 C180 1.424 . S
C177 C182 1.245 . S
C177 C183 1.428 . S
C178 C181 1.260 . S
C178 C182 1.477 . S
C178 H196 0.932 . S
C179 C180 1.384 . S
C179 C181 1.479 . S
C179 H197 0.929 . S
C180 C177 1.424 . S
C180 C179 1.384 . S
C180 H198 0.928 . S
C181 C178 1.260 . S
C181 C179 1.479 . S
C182 C177 1.245 . S
C182 C178 1.477 . S
C182 H199 0.932 . S
C183 U166 2.882 . S
C183 C177 1.428 . S
C183 O186 1.301 . S
C183 O187 1.282 . S
O184 U166 2.441 . S
O184 C170 1.249 . S
O185 U166 2.420 . S
O185 C170 1.202 . S
O186 U166 2.455 . S
O186 C183 1.301 . S
O187 U166 2.449 . S
O187 C183 1.282 . S
H188 C161 0.931 . S
H189 C163 0.929 . S
H190 C164 0.930 . S
H191 C165 0.931 . S
H192 C172 0.932 . S
H193 C173 0.930 . S
H194 C174 0.929 . S
H195 C176 0.930 . S
H196 C178 0.932 . S
H197 C179 0.929 . S
H198 C180 0.928 . S
H199 C182 0.932 . S
C200 C201 1.264 . S
C200 C205 1.479 1_554 S
C200 C210 1.465 . S
C201 C200 1.264 . S
C201 C203 1.339 . S
C201 H228 0.931 . S
C202 C203 1.395 . S
C202 C204 1.320 1_554 S
C203 C201 1.339 . S
C203 C202 1.395 . S
C203 H229 0.929 . S
C204 C202 1.320 1_556 S
C204 C205 1.405 . S
C204 H230 0.930 . S
C205 C200 1.479 1_556 S
C205 C204 1.405 . S
C205 H231 0.931 . S
U206 O207 2.454 . S
U206 O208 2.458 . S
U206 C209 2.984 . S
U206 C210 2.847 1_556 S
U206 C223 2.882 1_556 S
U206 O224 2.441 . S
U206 O225 2.420 1_556 S
U206 O226 2.455 1_556 S
U206 O227 2.449 1_556 S
O207 U206 2.454 . S
O207 C209 1.353 . S
O208 U206 2.458 . S
O208 C209 1.286 . S
C209 U206 2.984 . S
C209 O207 1.353 . S
C209 O208 1.286 . S
C209 C211 1.363 . S
C210 C200 1.465 . S
C210 U206 2.847 1_554 S
C210 O224 1.249 1_554 S
C210 O225 1.202 . S
C211 C209 1.363 . S
C211 C213 1.408 . S
C211 C216 1.342 . S
C212 C213 1.310 . S
C212 C215 1.461 . S
C212 H232 0.932 . S
C213 C211 1.408 . S
C213 C212 1.310 . S
C213 H233 0.930 . S
C214 C215 1.474 . S
C214 C216 1.285 . S
C214 H234 0.929 . S
C215 C212 1.461 . S
C215 C214 1.474 . S
C216 C211 1.342 . S
C216 C214 1.285 . S
C216 H235 0.930 . S
C217 C220 1.424 . S
C217 C222 1.245 . S
C217 C223 1.428 . S
C218 C221 1.260 . S
C218 C222 1.477 . S
C218 H236 0.932 . S
C219 C220 1.384 . S
C219 C221 1.479 . S
C219 H237 0.929 . S
C220 C217 1.424 . S
C220 C219 1.384 . S
C220 H238 0.928 . S
C221 C218 1.260 . S
C221 C219 1.479 . S
C222 C217 1.245 . S
C222 C218 1.477 . S
C222 H239 0.932 1_554 S
C223 U206 2.882 1_554 S
C223 C217 1.428 . S
C223 O226 1.301 . S
C223 O227 1.282 . S
O224 U206 2.441 . S
O224 C210 1.249 1_556 S
O225 U206 2.420 1_554 S
O225 C210 1.202 . S
O226 U206 2.455 1_554 S
O226 C223 1.301 . S
O227 U206 2.449 1_554 S
O227 C223 1.282 . S
H228 C201 0.931 . S
H229 C203 0.929 . S
H230 C204 0.930 . S
H231 C205 0.931 . S
H232 C212 0.932 . S
H233 C213 0.930 . S
H234 C214 0.929 . S
H235 C216 0.930 . S
H236 C218 0.932 . S
H237 C219 0.929 . S
H238 C220 0.928 . S
H239 C222 0.932 1_556 S
C240 C241 1.264 . S
C240 C245 1.479 . S
C240 C250 1.465 . S
C241 C240 1.264 . S
C241 C243 1.339 . S
C241 H268 0.931 . S
C242 C243 1.395 . S
C242 C244 1.320 . S
C243 C241 1.339 . S
C243 C242 1.395 . S
C243 H269 0.929 . S
C244 C242 1.320 . S
C244 C245 1.405 . S
C244 H270 0.930 . S
C245 C240 1.479 . S
C245 C244 1.405 . S
C245 H271 0.931 . S
U246 O247 2.454 . S
U246 O248 2.458 . S
U246 C249 2.984 . S
U246 C250 2.847 . S
U246 C263 2.882 . S
U246 O264 2.441 . S
U246 O265 2.420 . S
U246 O266 2.455 . S
U246 O267 2.449 . S
O247 U246 2.454 . S
O247 C249 1.353 . S
O248 U246 2.458 . S
O248 C249 1.286 . S
C249 U246 2.984 . S
C249 O247 1.353 . S
C249 O248 1.286 . S
C249 C251 1.363 . S
C250 C240 1.465 . S
C250 U246 2.847 . S
C250 O264 1.249 . S
C250 O265 1.202 . S
C251 C249 1.363 . S
C251 C253 1.408 . S
C251 C256 1.342 . S
C252 C253 1.310 . S
C252 C255 1.461 . S
C252 H272 0.932 . S
C253 C251 1.408 . S
C253 C252 1.310 . S
C253 H273 0.930 . S
C254 C255 1.474 . S
C254 C256 1.285 . S
C254 H274 0.929 . S
C255 C252 1.461 . S
C255 C254 1.474 . S
C256 C251 1.342 . S
C256 C254 1.285 . S
C256 H275 0.930 . S
C257 C260 1.424 . S
C257 C262 1.245 . S
C257 C263 1.428 . S
C258 C261 1.260 . S
C258 C262 1.477 . S
C258 H276 0.932 . S
C259 C260 1.384 . S
C259 C261 1.479 . S
C259 H277 0.929 . S
C260 C257 1.424 . S
C260 C259 1.384 . S
C260 H278 0.928 . S
C261 C258 1.260 . S
C261 C259 1.479 . S
C262 C257 1.245 . S
C262 C258 1.477 . S
C262 H279 0.932 . S
C263 U246 2.882 . S
C263 C257 1.428 . S
C263 O266 1.301 . S
C263 O267 1.282 . S
O264 U246 2.441 . S
O264 C250 1.249 . S
O265 U246 2.420 . S
O265 C250 1.202 . S
O266 U246 2.455 . S
O266 C263 1.301 . S
O267 U246 2.449 . S
O267 C263 1.282 . S
H268 C241 0.931 . S
H269 C243 0.929 . S
H270 C244 0.930 . S
H271 C245 0.931 . S
H272 C252 0.932 . S
H273 C253 0.930 . S
H274 C254 0.929 . S
H275 C256 0.930 . S
H276 C258 0.932 . S
H277 C259 0.929 . S
H278 C260 0.928 . S
H279 C262 0.932 . S
C280 C281 1.264 . S
C280 C285 1.479 . S
C280 C290 1.465 . S
C281 C280 1.264 . S
C281 C283 1.339 . S
C281 H308 0.931 . S
C282 C283 1.395 . S
C282 C284 1.320 . S
C283 C281 1.339 . S
C283 C282 1.395 . S
C283 H309 0.929 . S
C284 C282 1.320 . S
C284 C285 1.405 . S
C284 H310 0.930 . S
C285 C280 1.479 . S
C285 C284 1.405 . S
C285 H311 0.931 . S
U286 O287 2.454 . S
U286 O288 2.458 . S
U286 C289 2.984 . S
U286 C290 2.847 . S
U286 C303 2.882 . S
U286 O304 2.441 . S
U286 O305 2.420 . S
U286 O306 2.455 . S
U286 O307 2.449 . S
O287 U286 2.454 . S
O287 C289 1.353 . S
O288 U286 2.458 . S
O288 C289 1.286 . S
C289 U286 2.984 . S
C289 O287 1.353 . S
C289 O288 1.286 . S
C289 C291 1.363 . S
C290 C280 1.465 . S
C290 U286 2.847 . S
C290 O304 1.249 . S
C290 O305 1.202 . S
C291 C289 1.363 . S
C291 C293 1.408 . S
C291 C296 1.342 . S
C292 C293 1.310 . S
C292 C295 1.461 . S
C292 H312 0.932 . S
C293 C291 1.408 . S
C293 C292 1.310 . S
C293 H313 0.930 . S
C294 C295 1.474 . S
C294 C296 1.285 . S
C294 H314 0.929 . S
C295 C292 1.461 . S
C295 C294 1.474 . S
C296 C291 1.342 . S
C296 C294 1.285 . S
C296 H315 0.930 . S
C297 C300 1.424 . S
C297 C302 1.245 . S
C297 C303 1.428 . S
C298 C301 1.260 . S
C298 C302 1.477 . S
C298 H316 0.932 . S
C299 C300 1.384 . S
C299 C301 1.479 . S
C299 H317 0.929 . S
C300 C297 1.424 . S
C300 C299 1.384 . S
C300 H318 0.928 . S
C301 C298 1.260 . S
C301 C299 1.479 . S
C302 C297 1.245 . S
C302 C298 1.477 . S
C302 H319 0.932 . S
C303 U286 2.882 . S
C303 C297 1.428 . S
C303 O306 1.301 . S
C303 O307 1.282 . S
O304 U286 2.441 . S
O304 C290 1.249 . S
O305 U286 2.420 . S
O305 C290 1.202 . S
O306 U286 2.455 . S
O306 C303 1.301 . S
O307 U286 2.449 . S
O307 C303 1.282 . S
H308 C281 0.931 . S
H309 C283 0.929 . S
H310 C284 0.930 . S
H311 C285 0.931 . S
H312 C292 0.932 . S
H313 C293 0.930 . S
H314 C294 0.929 . S
H315 C296 0.930 . S
H316 C298 0.932 . S
H317 C299 0.929 . S
H318 C300 0.928 . S
H319 C302 0.932 . S
C320 C321 1.264 . S
C320 C325 1.479 . S
C320 C330 1.465 . S
C321 C320 1.264 . S
C321 C323 1.339 . S
C321 H348 0.931 . S
C322 C323 1.395 . S
C322 C324 1.320 . S
C323 C321 1.339 . S
C323 C322 1.395 . S
C323 H349 0.929 . S
C324 C322 1.320 . S
C324 C325 1.405 . S
C324 H350 0.930 . S
C325 C320 1.479 . S
C325 C324 1.405 . S
C325 H351 0.931 . S
U326 O327 2.454 . S
U326 O328 2.458 . S
U326 C329 2.984 . S
U326 C330 2.847 . S
U326 C343 2.882 . S
U326 O344 2.441 . S
U326 O345 2.420 . S
U326 O346 2.455 . S
U326 O347 2.449 . S
O327 U326 2.454 . S
O327 C329 1.353 . S
O328 U326 2.458 . S
O328 C329 1.286 . S
C329 U326 2.984 . S
C329 O327 1.353 . S
C329 O328 1.286 . S
C329 C331 1.363 . S
C330 C320 1.465 . S
C330 U326 2.847 . S
C330 O344 1.249 . S
C330 O345 1.202 . S
C331 C329 1.363 . S
C331 C333 1.408 . S
C331 C336 1.342 . S
C332 C333 1.310 . S
C332 C335 1.461 . S
C332 H352 0.932 . S
C333 C331 1.408 . S
C333 C332 1.310 . S
C333 H353 0.930 . S
C334 C335 1.474 . S
C334 C336 1.285 . S
C334 H354 0.929 . S
C335 C332 1.461 . S
C335 C334 1.474 . S
C336 C331 1.342 . S
C336 C334 1.285 . S
C336 H355 0.930 . S
C337 C340 1.424 . S
C337 C342 1.245 . S
C337 C343 1.428 . S
C338 C341 1.260 . S
C338 C342 1.477 . S
C338 H356 0.932 . S
C339 C340 1.384 . S
C339 C341 1.479 . S
C339 H357 0.929 . S
C340 C337 1.424 . S
C340 C339 1.384 . S
C340 H358 0.928 . S
C341 C338 1.260 . S
C341 C339 1.479 . S
C342 C337 1.245 . S
C342 C338 1.477 . S
C342 H359 0.932 . S
C343 U326 2.882 . S
C343 C337 1.428 . S
C343 O346 1.301 . S
C343 O347 1.282 . S
O344 U326 2.441 . S
O344 C330 1.249 . S
O345 U326 2.420 . S
O345 C330 1.202 . S
O346 U326 2.455 . S
O346 C343 1.301 . S
O347 U326 2.449 . S
O347 C343 1.282 . S
H348 C321 0.931 . S
H349 C323 0.929 . S
H350 C324 0.930 . S
H351 C325 0.931 . S
H352 C332 0.932 . S
H353 C333 0.930 . S
H354 C334 0.929 . S
H355 C336 0.930 . S
H356 C338 0.932 . S
H357 C339 0.929 . S
H358 C340 0.928 . S
H359 C342 0.932 . S
C360 C361 1.264 . S
C360 C365 1.479 . S
C360 C370 1.465 . S
C361 C360 1.264 . S
C361 C363 1.339 . S
C361 H388 0.931 . S
C362 C363 1.395 . S
C362 C364 1.320 . S
C363 C361 1.339 . S
C363 C362 1.395 . S
C363 H389 0.929 . S
C364 C362 1.320 . S
C364 C365 1.405 . S
C364 H390 0.930 . S
C365 C360 1.479 . S
C365 C364 1.405 . S
C365 H391 0.931 . S
U366 O367 2.454 . S
U366 O368 2.458 . S
U366 C369 2.984 . S
U366 C370 2.847 . S
U366 C383 2.882 . S
U366 O384 2.441 . S
U366 O385 2.420 . S
U366 O386 2.455 . S
U366 O387 2.449 . S
O367 U366 2.454 . S
O367 C369 1.353 . S
O368 U366 2.458 . S
O368 C369 1.286 . S
C369 U366 2.984 . S
C369 O367 1.353 . S
C369 O368 1.286 . S
C369 C371 1.363 . S
C370 C360 1.465 . S
C370 U366 2.847 . S
C370 O384 1.249 . S
C370 O385 1.202 . S
C371 C369 1.363 . S
C371 C373 1.408 . S
C371 C376 1.342 . S
C372 C373 1.310 . S
C372 C375 1.461 . S
C372 H392 0.932 . S
C373 C371 1.408 . S
C373 C372 1.310 . S
C373 H393 0.930 . S
C374 C375 1.474 . S
C374 C376 1.285 . S
C374 H394 0.929 . S
C375 C372 1.461 . S
C375 C374 1.474 . S
C376 C371 1.342 . S
C376 C374 1.285 . S
C376 H395 0.930 . S
C377 C380 1.424 . S
C377 C382 1.245 . S
C377 C383 1.428 . S
C378 C381 1.260 . S
C378 C382 1.477 . S
C378 H396 0.932 . S
C379 C380 1.384 . S
C379 C381 1.479 . S
C379 H397 0.929 . S
C380 C377 1.424 . S
C380 C379 1.384 . S
C380 H398 0.928 . S
C381 C378 1.260 . S
C381 C379 1.479 . S
C382 C377 1.245 . S
C382 C378 1.477 . S
C382 H399 0.932 . S
C383 U366 2.882 . S
C383 C377 1.428 . S
C383 O386 1.301 . S
C383 O387 1.282 . S
O384 U366 2.441 . S
O384 C370 1.249 . S
O385 U366 2.420 . S
O385 C370 1.202 . S
O386 U366 2.455 . S
O386 C383 1.301 . S
O387 U366 2.449 . S
O387 C383 1.282 . S
H388 C361 0.931 . S
H389 C363 0.929 . S
H390 C364 0.930 . S
H391 C365 0.931 . S
H392 C372 0.932 . S
H393 C373 0.930 . S
H394 C374 0.929 . S
H395 C376 0.930 . S
H396 C378 0.932 . S
H397 C379 0.929 . S
H398 C380 0.928 . S
H399 C382 0.932 . S
C400 C401 1.264 . S
C400 C405 1.479 . S
C400 C410 1.465 . S
C401 C400 1.264 . S
C401 C403 1.339 . S
C401 H428 0.931 . S
C402 C403 1.395 . S
C402 C404 1.320 . S
C403 C401 1.339 . S
C403 C402 1.395 . S
C403 H429 0.929 . S
C404 C402 1.320 . S
C404 C405 1.405 . S
C404 H430 0.930 . S
C405 C400 1.479 . S
C405 C404 1.405 . S
C405 H431 0.931 . S
U406 O407 2.454 . S
U406 O408 2.458 . S
U406 C409 2.984 . S
U406 C410 2.847 . S
U406 C423 2.882 . S
U406 O424 2.441 . S
U406 O425 2.420 . S
U406 O426 2.455 . S
U406 O427 2.449 . S
O407 U406 2.454 . S
O407 C409 1.353 . S
O408 U406 2.458 . S
O408 C409 1.286 . S
C409 U406 2.984 . S
C409 O407 1.353 . S
C409 O408 1.286 . S
C409 C411 1.363 . S
C410 C400 1.465 . S
C410 U406 2.847 . S
C410 O424 1.249 . S
C410 O425 1.202 . S
C411 C409 1.363 . S
C411 C413 1.408 . S
C411 C416 1.342 . S
C412 C413 1.310 . S
C412 C415 1.461 . S
C412 H432 0.932 . S
C413 C411 1.408 . S
C413 C412 1.310 . S
C413 H433 0.930 . S
C414 C415 1.474 . S
C414 C416 1.285 . S
C414 H434 0.929 . S
C415 C412 1.461 . S
C415 C414 1.474 . S
C416 C411 1.342 . S
C416 C414 1.285 . S
C416 H435 0.930 . S
C417 C420 1.424 . S
C417 C422 1.245 . S
C417 C423 1.428 . S
C418 C421 1.260 . S
C418 C422 1.477 . S
C418 H436 0.932 . S
C419 C420 1.384 . S
C419 C421 1.479 . S
C419 H437 0.929 . S
C420 C417 1.424 . S
C420 C419 1.384 . S
C420 H438 0.928 . S
C421 C418 1.260 . S
C421 C419 1.479 . S
C422 C417 1.245 . S
C422 C418 1.477 . S
C422 H439 0.932 . S
C423 U406 2.882 . S
C423 C417 1.428 . S
C423 O426 1.301 . S
C423 O427 1.282 . S
O424 U406 2.441 . S
O424 C410 1.249 . S
O425 U406 2.420 . S
O425 C410 1.202 . S
O426 U406 2.455 . S
O426 C423 1.301 . S
O427 U406 2.449 . S
O427 C423 1.282 . S
H428 C401 0.931 . S
H429 C403 0.929 . S
H430 C404 0.930 . S
H431 C405 0.931 . S
H432 C412 0.932 . S
H433 C413 0.930 . S
H434 C414 0.929 . S
H435 C416 0.930 . S
H436 C418 0.932 . S
H437 C419 0.929 . S
H438 C420 0.928 . S
H439 C422 0.932 . S
C440 C441 1.264 . S
C440 C445 1.479 . S
C440 C450 1.465 . S
C441 C440 1.264 . S
C441 C443 1.339 . S
C441 H468 0.931 . S
C442 C443 1.395 . S
C442 C444 1.320 . S
C443 C441 1.339 . S
C443 C442 1.395 . S
C443 H469 0.929 . S
C444 C442 1.320 . S
C444 C445 1.405 . S
C444 H470 0.930 . S
C445 C440 1.479 . S
C445 C444 1.405 . S
C445 H471 0.931 . S
U446 O447 2.454 . S
U446 O448 2.458 . S
U446 C449 2.984 . S
U446 C450 2.847 . S
U446 C463 2.882 . S
U446 O464 2.441 . S
U446 O465 2.420 . S
U446 O466 2.455 . S
U446 O467 2.449 . S
O447 U446 2.454 . S
O447 C449 1.353 . S
O448 U446 2.458 . S
O448 C449 1.286 . S
C449 U446 2.984 . S
C449 O447 1.353 . S
C449 O448 1.286 . S
C449 C451 1.363 . S
C450 C440 1.465 . S
C450 U446 2.847 . S
C450 O464 1.249 . S
C450 O465 1.202 . S
C451 C449 1.363 . S
C451 C453 1.408 . S
C451 C456 1.342 . S
C452 C453 1.310 . S
C452 C455 1.461 . S
C452 H472 0.932 . S
C453 C451 1.408 . S
C453 C452 1.310 . S
C453 H473 0.930 . S
C454 C455 1.474 . S
C454 C456 1.285 . S
C454 H474 0.929 . S
C455 C452 1.461 . S
C455 C454 1.474 . S
C456 C451 1.342 . S
C456 C454 1.285 . S
C456 H475 0.930 . S
C457 C460 1.424 . S
C457 C462 1.245 . S
C457 C463 1.428 . S
C458 C461 1.260 . S
C458 C462 1.477 . S
C458 H476 0.932 . S
C459 C460 1.384 . S
C459 C461 1.479 . S
C459 H477 0.929 . S
C460 C457 1.424 . S
C460 C459 1.384 . S
C460 H478 0.928 . S
C461 C458 1.260 . S
C461 C459 1.479 . S
C462 C457 1.245 . S
C462 C458 1.477 . S
C462 H479 0.932 . S
C463 U446 2.882 . S
C463 C457 1.428 . S
C463 O466 1.301 . S
C463 O467 1.282 . S
O464 U446 2.441 . S
O464 C450 1.249 . S
O465 U446 2.420 . S
O465 C450 1.202 . S
O466 U446 2.455 . S
O466 C463 1.301 . S
O467 U446 2.449 . S
O467 C463 1.282 . S
H468 C441 0.931 . S
H469 C443 0.929 . S
H470 C444 0.930 . S
H471 C445 0.931 . S
H472 C452 0.932 . S
H473 C453 0.930 . S
H474 C454 0.929 . S
H475 C456 0.930 . S
H476 C458 0.932 . S
H477 C459 0.929 . S
H478 C460 0.928 . S
H479 C462 0.932 . S
C480 C481 1.264 . S
C480 C485 1.479 . S
C480 C490 1.465 . S
C481 C480 1.264 . S
C481 C483 1.339 . S
C481 H508 0.931 . S
C482 C483 1.395 . S
C482 C484 1.320 . S
C483 C481 1.339 . S
C483 C482 1.395 . S
C483 H509 0.929 . S
C484 C482 1.320 . S
C484 C485 1.405 . S
C484 H510 0.930 . S
C485 C480 1.479 . S
C485 C484 1.405 . S
C485 H511 0.931 . S
U486 O487 2.454 . S
U486 O488 2.458 . S
U486 C489 2.984 . S
U486 C490 2.847 . S
U486 C503 2.882 . S
U486 O504 2.441 . S
U486 O505 2.420 . S
U486 O506 2.455 . S
U486 O507 2.449 . S
O487 U486 2.454 . S
O487 C489 1.353 . S
O488 U486 2.458 . S
O488 C489 1.286 . S
C489 U486 2.984 . S
C489 O487 1.353 . S
C489 O488 1.286 . S
C489 C491 1.363 . S
C490 C480 1.465 . S
C490 U486 2.847 . S
C490 O504 1.249 . S
C490 O505 1.202 . S
C491 C489 1.363 . S
C491 C493 1.408 . S
C491 C496 1.342 . S
C492 C493 1.310 . S
C492 C495 1.461 . S
C492 H512 0.932 . S
C493 C491 1.408 . S
C493 C492 1.310 . S
C493 H513 0.930 . S
C494 C495 1.474 . S
C494 C496 1.285 . S
C494 H514 0.929 . S
C495 C492 1.461 . S
C495 C494 1.474 . S
C496 C491 1.342 . S
C496 C494 1.285 . S
C496 H515 0.930 . S
C497 C500 1.424 . S
C497 C502 1.245 . S
C497 C503 1.428 . S
C498 C501 1.260 . S
C498 C502 1.477 . S
C498 H516 0.932 . S
C499 C500 1.384 . S
C499 C501 1.479 . S
C499 H517 0.929 . S
C500 C497 1.424 . S
C500 C499 1.384 . S
C500 H518 0.928 . S
C501 C498 1.260 . S
C501 C499 1.479 . S
C502 C497 1.245 . S
C502 C498 1.477 . S
C502 H519 0.932 . S
C503 U486 2.882 . S
C503 C497 1.428 . S
C503 O506 1.301 . S
C503 O507 1.282 . S
O504 U486 2.441 . S
O504 C490 1.249 . S
O505 U486 2.420 . S
O505 C490 1.202 . S
O506 U486 2.455 . S
O506 C503 1.301 . S
O507 U486 2.449 . S
O507 C503 1.282 . S
H508 C481 0.931 . S
H509 C483 0.929 . S
H510 C484 0.930 . S
H511 C485 0.931 . S
H512 C492 0.932 . S
H513 C493 0.930 . S
H514 C494 0.929 . S
H515 C496 0.930 . S
H516 C498 0.932 . S
H517 C499 0.929 . S
H518 C500 0.928 . S
H519 C502 0.932 . S
C520 C521 1.264 . S
C520 C525 1.479 . S
C520 C530 1.465 . S
C521 C520 1.264 . S
C521 C523 1.339 . S
C521 H548 0.931 . S
C522 C523 1.395 . S
C522 C524 1.320 . S
C523 C521 1.339 . S
C523 C522 1.395 . S
C523 H549 0.929 . S
C524 C522 1.320 . S
C524 C525 1.405 . S
C524 H550 0.930 . S
C525 C520 1.479 . S
C525 C524 1.405 . S
C525 H551 0.931 . S
U526 O527 2.454 . S
U526 O528 2.458 . S
U526 C529 2.984 . S
U526 C530 2.847 . S
U526 C543 2.882 . S
U526 O544 2.441 . S
U526 O545 2.420 . S
U526 O546 2.455 . S
U526 O547 2.449 . S
O527 U526 2.454 . S
O527 C529 1.353 . S
O528 U526 2.458 . S
O528 C529 1.286 . S
C529 U526 2.984 . S
C529 O527 1.353 . S
C529 O528 1.286 . S
C529 C531 1.363 . S
C530 C520 1.465 . S
C530 U526 2.847 . S
C530 O544 1.249 . S
C530 O545 1.202 . S
C531 C529 1.363 . S
C531 C533 1.408 . S
C531 C536 1.342 . S
C532 C533 1.310 . S
C532 C535 1.461 . S
C532 H552 0.932 . S
C533 C531 1.408 . S
C533 C532 1.310 . S
C533 H553 0.930 . S
C534 C535 1.474 . S
C534 C536 1.285 . S
C534 H554 0.929 . S
C535 C532 1.461 . S
C535 C534 1.474 . S
C536 C531 1.342 . S
C536 C534 1.285 . S
C536 H555 0.930 . S
C537 C540 1.424 . S
C537 C542 1.245 . S
C537 C543 1.428 . S
C538 C541 1.260 . S
C538 C542 1.477 . S
C538 H556 0.932 . S
C539 C540 1.384 . S
C539 C541 1.479 . S
C539 H557 0.929 . S
C540 C537 1.424 . S
C540 C539 1.384 . S
C540 H558 0.928 . S
C541 C538 1.260 . S
C541 C539 1.479 . S
C542 C537 1.245 . S
C542 C538 1.477 . S
C542 H559 0.932 . S
C543 U526 2.882 . S
C543 C537 1.428 . S
C543 O546 1.301 . S
C543 O547 1.282 . S
O544 U526 2.441 . S
O544 C530 1.249 . S
O545 U526 2.420 . S
O545 C530 1.202 . S
O546 U526 2.455 . S
O546 C543 1.301 . S
O547 U526 2.449 . S
O547 C543 1.282 . S
H548 C521 0.931 . S
H549 C523 0.929 . S
H550 C524 0.930 . S
H551 C525 0.931 . S
H552 C532 0.932 . S
H553 C533 0.930 . S
H554 C534 0.929 . S
H555 C536 0.930 . S
H556 C538 0.932 . S
H557 C539 0.929 . S
H558 C540 0.928 . S
H559 C542 0.932 . S
C560 C561 1.264 . S
C560 C565 1.479 . S
C560 C570 1.465 . S
C561 C560 1.264 . S
C561 C563 1.339 . S
C561 H588 0.931 . S
C562 C563 1.395 . S
C562 C564 1.320 . S
C563 C561 1.339 . S
C563 C562 1.395 . S
C563 H589 0.929 . S
C564 C562 1.320 . S
C564 C565 1.405 . S
C564 H590 0.930 . S
C565 C560 1.479 . S
C565 C564 1.405 . S
C565 H591 0.931 . S
U566 O567 2.454 . S
U566 O568 2.458 . S
U566 C569 2.984 . S
U566 C570 2.847 . S
U566 C583 2.882 . S
U566 O584 2.441 . S
U566 O585 2.420 . S
U566 O586 2.455 . S
U566 O587 2.449 . S
O567 U566 2.454 . S
O567 C569 1.353 . S
O568 U566 2.458 . S
O568 C569 1.286 . S
C569 U566 2.984 . S
C569 O567 1.353 . S
C569 O568 1.286 . S
C569 C571 1.363 . S
C570 C560 1.465 . S
C570 U566 2.847 . S
C570 O584 1.249 . S
C570 O585 1.202 . S
C571 C569 1.363 . S
C571 C573 1.408 . S
C571 C576 1.342 . S
C572 C573 1.310 . S
C572 C575 1.461 . S
C572 H592 0.932 . S
C573 C571 1.408 . S
C573 C572 1.310 . S
C573 H593 0.930 . S
C574 C575 1.474 . S
C574 C576 1.285 . S
C574 H594 0.929 . S
C575 C572 1.461 . S
C575 C574 1.474 . S
C576 C571 1.342 . S
C576 C574 1.285 . S
C576 H595 0.930 . S
C577 C580 1.424 . S
C577 C582 1.245 . S
C577 C583 1.428 . S
C578 C581 1.260 . S
C578 C582 1.477 . S
C578 H596 0.932 . S
C579 C580 1.384 . S
C579 C581 1.479 . S
C579 H597 0.929 . S
C580 C577 1.424 . S
C580 C579 1.384 . S
C580 H598 0.928 . S
C581 C578 1.260 . S
C581 C579 1.479 . S
C582 C577 1.245 . S
C582 C578 1.477 . S
C582 H599 0.932 . S
C583 U566 2.882 . S
C583 C577 1.428 . S
C583 O586 1.301 . S
C583 O587 1.282 . S
O584 U566 2.441 . S
O584 C570 1.249 . S
O585 U566 2.420 . S
O585 C570 1.202 . S
O586 U566 2.455 . S
O586 C583 1.301 . S
O587 U566 2.449 . S
O587 C583 1.282 . S
H588 C561 0.931 . S
H589 C563 0.929 . S
H590 C564 0.930 . S
H591 C565 0.931 . S
H592 C572 0.932 . S
H593 C573 0.930 . S
H594 C574 0.929 . S
H595 C576 0.930 . S
H596 C578 0.932 . S
H597 C579 0.929 . S
H598 C580 0.928 . S
H599 C582 0.932 . S
C600 C601 1.264 . S
C600 C605 1.479 . S
C600 C610 1.465 . S
C601 C600 1.264 . S
C601 C603 1.339 . S
C601 H628 0.931 . S
C602 C603 1.395 . S
C602 C604 1.320 . S
C603 C601 1.339 . S
C603 C602 1.395 . S
C603 H629 0.929 . S
C604 C602 1.320 . S
C604 C605 1.405 . S
C604 H630 0.930 . S
C605 C600 1.479 . S
C605 C604 1.405 . S
C605 H631 0.931 . S
U606 O607 2.454 . S
U606 O608 2.458 . S
U606 C609 2.984 . S
U606 C610 2.847 . S
U606 C623 2.882 . S
U606 O624 2.441 . S
U606 O625 2.420 . S
U606 O626 2.455 . S
U606 O627 2.449 . S
O607 U606 2.454 . S
O607 C609 1.353 . S
O608 U606 2.458 . S
O608 C609 1.286 . S
C609 U606 2.984 . S
C609 O607 1.353 . S
C609 O608 1.286 . S
C609 C611 1.363 . S
C610 C600 1.465 . S
C610 U606 2.847 . S
C610 O624 1.249 . S
C610 O625 1.202 . S
C611 C609 1.363 . S
C611 C613 1.408 . S
C611 C616 1.342 . S
C612 C613 1.310 . S
C612 C615 1.461 . S
C612 H632 0.932 . S
C613 C611 1.408 . S
C613 C612 1.310 . S
C613 H633 0.930 . S
C614 C615 1.474 . S
C614 C616 1.285 . S
C614 H634 0.929 . S
C615 C612 1.461 . S
C615 C614 1.474 . S
C616 C611 1.342 . S
C616 C614 1.285 . S
C616 H635 0.930 . S
C617 C620 1.424 . S
C617 C622 1.245 . S
C617 C623 1.428 . S
C618 C621 1.260 . S
C618 C622 1.477 . S
C618 H636 0.932 . S
C619 C620 1.384 . S
C619 C621 1.479 . S
C619 H637 0.929 . S
C620 C617 1.424 . S
C620 C619 1.384 . S
C620 H638 0.928 . S
C621 C618 1.260 . S
C621 C619 1.479 . S
C622 C617 1.245 . S
C622 C618 1.477 . S
C622 H639 0.932 . S
C623 U606 2.882 . S
C623 C617 1.428 . S
C623 O626 1.301 . S
C623 O627 1.282 . S
O624 U606 2.441 . S
O624 C610 1.249 . S
O625 U606 2.420 . S
O625 C610 1.202 . S
O626 U606 2.455 . S
O626 C623 1.301 . S
O627 U606 2.449 . S
O627 C623 1.282 . S
H628 C601 0.931 . S
H629 C603 0.929 . S
H630 C604 0.930 . S
H631 C605 0.931 . S
H632 C612 0.932 . S
H633 C613 0.930 . S
H634 C614 0.929 . S
H635 C616 0.930 . S
H636 C618 0.932 . S
H637 C619 0.929 . S
H638 C620 0.928 . S
H639 C622 0.932 . S
C640 C641 1.264 . S
C640 C645 1.479 . S
C640 C650 1.465 . S
C641 C640 1.264 . S
C641 C643 1.339 . S
C641 H668 0.931 . S
C642 C643 1.395 . S
C642 C644 1.320 . S
C643 C641 1.339 . S
C643 C642 1.395 . S
C643 H669 0.929 . S
C644 C642 1.320 . S
C644 C645 1.405 . S
C644 H670 0.930 . S
C645 C640 1.479 . S
C645 C644 1.405 . S
C645 H671 0.931 . S
U646 O647 2.454 . S
U646 O648 2.458 . S
U646 C649 2.984 . S
U646 C650 2.847 . S
U646 C663 2.882 . S
U646 O664 2.441 . S
U646 O665 2.420 . S
U646 O666 2.455 . S
U646 O667 2.449 . S
O647 U646 2.454 . S
O647 C649 1.353 . S
O648 U646 2.458 . S
O648 C649 1.286 . S
C649 U646 2.984 . S
C649 O647 1.353 . S
C649 O648 1.286 . S
C649 C651 1.363 . S
C650 C640 1.465 . S
C650 U646 2.847 . S
C650 O664 1.249 . S
C650 O665 1.202 . S
C651 C649 1.363 . S
C651 C653 1.408 . S
C651 C656 1.342 . S
C652 C653 1.310 . S
C652 C655 1.461 . S
C652 H672 0.932 . S
C653 C651 1.408 . S
C653 C652 1.310 . S
C653 H673 0.930 . S
C654 C655 1.474 . S
C654 C656 1.285 . S
C654 H674 0.929 . S
C655 C652 1.461 . S
C655 C654 1.474 . S
C656 C651 1.342 . S
C656 C654 1.285 . S
C656 H675 0.930 . S
C657 C660 1.424 . S
C657 C662 1.245 . S
C657 C663 1.428 . S
C658 C661 1.260 . S
C658 C662 1.477 . S
C658 H676 0.932 . S
C659 C660 1.384 . S
C659 C661 1.479 . S
C659 H677 0.929 . S
C660 C657 1.424 . S
C660 C659 1.384 . S
C660 H678 0.928 . S
C661 C658 1.260 . S
C661 C659 1.479 . S
C662 C657 1.245 . S
C662 C658 1.477 . S
C662 H679 0.932 . S
C663 U646 2.882 . S
C663 C657 1.428 . S
C663 O666 1.301 . S
C663 O667 1.282 . S
O664 U646 2.441 . S
O664 C650 1.249 . S
O665 U646 2.420 . S
O665 C650 1.202 . S
O666 U646 2.455 . S
O666 C663 1.301 . S
O667 U646 2.449 . S
O667 C663 1.282 . S
H668 C641 0.931 . S
H669 C643 0.929 . S
H670 C644 0.930 . S
H671 C645 0.931 . S
H672 C652 0.932 . S
H673 C653 0.930 . S
H674 C654 0.929 . S
H675 C656 0.930 . S
H676 C658 0.932 . S
H677 C659 0.929 . S
H678 C660 0.928 . S
H679 C662 0.932 . S
C680 C681 1.264 . S
C680 C685 1.479 . S
C680 C690 1.465 . S
C681 C680 1.264 . S
C681 C683 1.339 . S
C681 H708 0.931 . S
C682 C683 1.395 . S
C682 C684 1.320 . S
C683 C681 1.339 . S
C683 C682 1.395 . S
C683 H709 0.929 . S
C684 C682 1.320 . S
C684 C685 1.405 . S
C684 H710 0.930 . S
C685 C680 1.479 . S
C685 C684 1.405 . S
C685 H711 0.931 . S
U686 O687 2.454 . S
U686 O688 2.458 . S
U686 C689 2.984 . S
U686 C690 2.847 . S
U686 C703 2.882 . S
U686 O704 2.441 . S
U686 O705 2.420 . S
U686 O706 2.455 . S
U686 O707 2.449 . S
O687 U686 2.454 . S
O687 C689 1.353 . S
O688 U686 2.458 . S
O688 C689 1.286 . S
C689 U686 2.984 . S
C689 O687 1.353 . S
C689 O688 1.286 . S
C689 C691 1.363 . S
C690 C680 1.465 . S
C690 U686 2.847 . S
C690 O704 1.249 . S
C690 O705 1.202 . S
C691 C689 1.363 . S
C691 C693 1.408 . S
C691 C696 1.342 . S
C692 C693 1.310 . S
C692 C695 1.461 . S
C692 H712 0.932 . S
C693 C691 1.408 . S
C693 C692 1.310 . S
C693 H713 0.930 . S
C694 C695 1.474 . S
C694 C696 1.285 . S
C694 H714 0.929 . S
C695 C692 1.461 . S
C695 C694 1.474 . S
C696 C691 1.342 . S
C696 C694 1.285 . S
C696 H715 0.930 . S
C697 C700 1.424 . S
C697 C702 1.245 . S
C697 C703 1.428 . S
C698 C701 1.260 . S
C698 C702 1.477 . S
C698 H716 0.932 . S
C699 C700 1.384 . S
C699 C701 1.479 . S
C699 H717 0.929 . S
C700 C697 1.424 . S
C700 C699 1.384 . S
C700 H718 0.928 . S
C701 C698 1.260 . S
C701 C699 1.479 . S
C702 C697 1.245 . S
C702 C698 1.477 . S
C702 H719 0.932 . S
C703 U686 2.882 . S
C703 C697 1.428 . S
C703 O706 1.301 . S
C703 O707 1.282 . S
O704 U686 2.441 . S
O704 C690 1.249 . S
O705 U686 2.420 . S
O705 C690 1.202 . S
O706 U686 2.455 . S
O706 C703 1.301 . S
O707 U686 2.449 . S
O707 C703 1.282 . S
H708 C681 0.931 . S
H709 C683 0.929 . S
H710 C684 0.930 . S
H711 C685 0.931 . S
H712 C692 0.932 . S
H713 C693 0.930 . S
H714 C694 0.929 . S
H715 C696 0.930 . S
H716 C698 0.932 . S
H717 C699 0.929 . S
H718 C700 0.928 . S
H719 C702 0.932 . S
C21 C221 1.616 1_546 S
C61 C122 1.419 1_655 S
C82 C181 1.421 . S
C42 C162 1.433 1_544 S
C202 C101 1.544 1_454 S
C2 C141 1.534 1_556 S
C461 C261 1.622 . S
C301 C362 1.420 . S
C322 C421 1.421 . S
C282 C402 1.434 . S
C341 C442 1.544 . S
C242 C381 1.535 . S
C501 C701 1.627 . S
C602 C541 1.419 . S
C661 C562 1.422 . S
C642 C522 1.434 . S
C682 C581 1.545 . S
C621 C482 1.538 . S
C15 C415 1.516 . S
C455 C55 1.509 . S
C375 C95 1.604 . S
C135 C575 1.604 . S
C175 C495 1.515 . S
C535 C215 1.509 . S
C655 C255 1.515 1_455 S
C295 C695 1.511 . S
C335 C615 1.603 1_545 S
