# Generated by pormake.
# Topology umg, (4)-cn, num edge types: 1
# Building blocks:
#     Node 0, Type 0, BuildingBlock: GALJAG_clean_sbu_0, # of connection points: 4
#     Node 1, Type 0, BuildingBlock: GALJAG_clean_sbu_0, # of connection points: 4
#     Node 2, Type 0, BuildingBlock: GALJAG_clean_sbu_0, # of connection points: 4
#     Node 3, Type 0, BuildingBlock: GALJAG_clean_sbu_0, # of connection points: 4
#     Node 4, Type 0, BuildingBlock: GALJAG_clean_sbu_0, # of connection points: 4
#     Node 5, Type 0, BuildingBlock: GALJAG_clean_sbu_0, # of connection points: 4
#     Node 6, Type 0, BuildingBlock: GALJAG_clean_sbu_0, # of connection points: 4
#     Node 7, Type 0, BuildingBlock: GALJAG_clean_sbu_0, # of connection points: 4
#     Node 8, Type 0, BuildingBlock: GALJAG_clean_sbu_0, # of connection points: 4
#     Node 9, Type 0, BuildingBlock: GALJAG_clean_sbu_0, # of connection points: 4
#     Node 10, Type 0, BuildingBlock: GALJAG_clean_sbu_0, # of connection points: 4
#     Node 11, Type 0, BuildingBlock: GALJAG_clean_sbu_0, # of connection points: 4
#     Edge 12, Type (0, 0), BuildingBlock: XIVTED_clean_linker_0, # of connection points: 2
#     Edge 13, Type (0, 0), BuildingBlock: XIVTED_clean_linker_0, # of connection points: 2
#     Edge 14, Type (0, 0), BuildingBlock: XIVTED_clean_linker_0, # of connection points: 2
#     Edge 15, Type (0, 0), BuildingBlock: XIVTED_clean_linker_0, # of connection points: 2
#     Edge 16, Type (0, 0), BuildingBlock: XIVTED_clean_linker_0, # of connection points: 2
#     Edge 17, Type (0, 0), BuildingBlock: XIVTED_clean_linker_0, # of connection points: 2
#     Edge 18, Type (0, 0), BuildingBlock: XIVTED_clean_linker_0, # of connection points: 2
#     Edge 19, Type (0, 0), BuildingBlock: XIVTED_clean_linker_0, # of connection points: 2
#     Edge 20, Type (0, 0), BuildingBlock: XIVTED_clean_linker_0, # of connection points: 2
#     Edge 21, Type (0, 0), BuildingBlock: XIVTED_clean_linker_0, # of connection points: 2
#     Edge 22, Type (0, 0), BuildingBlock: XIVTED_clean_linker_0, # of connection points: 2
#     Edge 23, Type (0, 0), BuildingBlock: XIVTED_clean_linker_0, # of connection points: 2
#     Edge 24, Type (0, 0), BuildingBlock: XIVTED_clean_linker_0, # of connection points: 2
#     Edge 25, Type (0, 0), BuildingBlock: XIVTED_clean_linker_0, # of connection points: 2
#     Edge 26, Type (0, 0), BuildingBlock: XIVTED_clean_linker_0, # of connection points: 2
#     Edge 27, Type (0, 0), BuildingBlock: XIVTED_clean_linker_0, # of connection points: 2
#     Edge 28, Type (0, 0), BuildingBlock: XIVTED_clean_linker_0, # of connection points: 2
#     Edge 29, Type (0, 0), BuildingBlock: XIVTED_clean_linker_0, # of connection points: 2
#     Edge 30, Type (0, 0), BuildingBlock: XIVTED_clean_linker_0, # of connection points: 2
#     Edge 31, Type (0, 0), BuildingBlock: XIVTED_clean_linker_0, # of connection points: 2
#     Edge 32, Type (0, 0), BuildingBlock: XIVTED_clean_linker_0, # of connection points: 2
#     Edge 33, Type (0, 0), BuildingBlock: XIVTED_clean_linker_0, # of connection points: 2
#     Edge 34, Type (0, 0), BuildingBlock: XIVTED_clean_linker_0, # of connection points: 2
#     Edge 35, Type (0, 0), BuildingBlock: XIVTED_clean_linker_0, # of connection points: 2
# Relax obj value: 0.078
# Max RMSD: 0.206
# Mean RMSD: 0.205
data_MOF--net-umg--node1-GALJAG_clean_sbu_0--edge1-XIVTED_clean_linker_0
_symmetry_space_group_name_H-M    P1
_symmetry_Int_Tables_number       1
_symmetry_cell_setting            triclinic
loop_
_symmetry_equiv_pos_as_xyz
'x, y, z'
_cell_length_a     28.604424
_cell_length_b     28.644957
_cell_length_c     86.807048
_cell_angle_alpha  90.258619
_cell_angle_beta   89.706819
_cell_angle_gamma 120.03839
loop_
_atom_site_label
_atom_site_type_symbol
_atom_site_fract_x
_atom_site_fract_y
_atom_site_fract_z
_atom_type_partial_charge
In0 In 0.33938 0.6197 0.07476 0.0
O1 O 0.36804 0.69977 0.06202 0.0
O2 O 0.3582 0.63141 0.04935 0.0
C3 C 0.35381 0.642 0.10506 0.0
C4 C 0.40609 0.57948 0.07193 0.0
C5 C 0.23112 0.57623 0.07246 0.0
O6 O 0.37091 0.67904 0.09506 0.0
O7 O 0.32974 0.5947 0.09971 0.0
O8 O 0.25312 0.54736 0.07196 0.0
O9 O 0.26361 0.626 0.07394 0.0
C10 C 0.37096 0.68038 0.04917 0.0
O11 O 0.35559 0.55064 0.06984 0.0
O12 O 0.42235 0.62808 0.07548 0.0
In13 In 0.69639 0.31347 0.40798 0.0
O14 O 0.78119 0.32562 0.40343 0.0
O15 O 0.77121 0.3944 0.40378 0.0
C16 C 0.63169 0.20558 0.40965 0.0
C17 C 0.65874 0.33323 0.38196 0.0
C18 C 0.69128 0.33795 0.43767 0.0
O19 O 0.68174 0.22714 0.40673 0.0
O20 O 0.61505 0.23845 0.41184 0.0
O21 O 0.66287 0.34293 0.42739 0.0
O22 O 0.72163 0.32078 0.4329 0.0
C23 C 0.80316 0.37639 0.4023 0.0
O24 O 0.6675 0.36189 0.3939 0.0
O25 O 0.66856 0.29517 0.38327 0.0
In26 In 0.38603 0.68153 0.74183 0.0
O27 O 0.30783 0.65625 0.72845 0.0
O28 O 0.37258 0.65354 0.71704 0.0
C29 C 0.35902 0.67699 0.77175 0.0
C30 C 0.43234 0.78842 0.7367 0.0
C31 C 0.42871 0.61639 0.74195 0.0
O32 O 0.32488 0.64766 0.7617 0.0
O33 O 0.40595 0.7077 0.76666 0.0
O34 O 0.4566 0.66602 0.73865 0.0
O35 O 0.37998 0.60032 0.74535 0.0
C36 C 0.32548 0.64644 0.7162 0.0
O37 O 0.4603 0.76573 0.73827 0.0
O38 O 0.38201 0.75708 0.73741 0.0
In39 In 0.72253 0.39002 0.07422 0.0
O40 O 0.66948 0.31147 0.06095 0.0
O41 O 0.73607 0.37626 0.04935 0.0
C42 C 0.69978 0.3646 0.10417 0.0
C43 C 0.66226 0.43669 0.069 0.0
C44 C 0.83031 0.43073 0.07447 0.0
O45 O 0.69366 0.32962 0.0942 0.0
O46 O 0.71754 0.41153 0.09898 0.0
O47 O 0.80938 0.45933 0.07119 0.0
O48 O 0.79688 0.38225 0.07777 0.0
C49 C 0.69626 0.32903 0.0486 0.0
O50 O 0.71306 0.4644 0.07048 0.0
O51 O 0.64299 0.38643 0.06984 0.0
In52 In 0.30869 0.69778 0.40859 0.0
O53 O 0.22411 0.68482 0.40342 0.0
O54 O 0.23413 0.61622 0.40492 0.0
C55 C 0.37326 0.80575 0.40982 0.0
C56 C 0.34754 0.67616 0.38295 0.0
C57 C 0.31299 0.67668 0.43854 0.0
O58 O 0.32328 0.78398 0.40687 0.0
O59 O 0.38988 0.77305 0.41222 0.0
O60 O 0.34168 0.67053 0.42849 0.0
O61 O 0.2826 0.69307 0.43341 0.0
C62 C 0.20224 0.63394 0.40284 0.0
O63 O 0.33834 0.64842 0.39505 0.0
O64 O 0.33753 0.71421 0.38391 0.0
In65 In 0.61295 0.2936 0.74195 0.0
O66 O 0.54369 0.20777 0.73803 0.0
O67 O 0.62198 0.21954 0.74301 0.0
C68 C 0.56981 0.3583 0.73963 0.0
C69 C 0.66912 0.31683 0.71556 0.0
C70 C 0.63624 0.30361 0.77213 0.0
O71 O 0.54082 0.30743 0.73954 0.0
O72 O 0.61982 0.37583 0.74071 0.0
O73 O 0.67308 0.32504 0.76202 0.0
O74 O 0.58882 0.27798 0.76693 0.0
C75 C 0.57303 0.18666 0.73995 0.0
O76 O 0.69218 0.33917 0.72808 0.0
O77 O 0.61906 0.28435 0.7165 0.0
In78 In 0.38894 0.70841 0.58204 0.0
O79 O 0.46192 0.69712 0.5868 0.0
O80 O 0.38345 0.62778 0.58572 0.0
C81 C 0.42952 0.81595 0.58062 0.0
C82 C 0.32964 0.68523 0.60794 0.0
C83 C 0.36233 0.68511 0.5522 0.0
O84 O 0.45912 0.79566 0.58339 0.0
O85 O 0.38021 0.78201 0.57855 0.0
O86 O 0.32763 0.67868 0.56233 0.0
O87 O 0.40962 0.70311 0.55719 0.0
C88 C 0.43335 0.6462 0.58754 0.0
O89 O 0.3106 0.65822 0.59571 0.0
O90 O 0.37762 0.72368 0.60696 0.0
In91 In 0.68676 0.39415 0.91548 0.0
O92 O 0.77143 0.46802 0.91909 0.0
O93 O 0.76223 0.3896 0.91969 0.0
C94 C 0.62025 0.43544 0.91565 0.0
C95 C 0.65224 0.33293 0.94098 0.0
C96 C 0.68194 0.36773 0.88551 0.0
O97 O 0.67007 0.46396 0.91873 0.0
O98 O 0.60471 0.38686 0.91234 0.0
O99 O 0.65335 0.33334 0.8956 0.0
O100 O 0.71216 0.41476 0.89058 0.0
C101 C 0.79387 0.43978 0.92053 0.0
O102 O 0.66087 0.31539 0.92853 0.0
O103 O 0.66022 0.38035 0.94041 0.0
In104 In 0.31662 0.69606 0.24825 0.0
O105 O 0.32976 0.78102 0.2529 0.0
O106 O 0.398 0.76995 0.25264 0.0
C107 C 0.20859 0.63154 0.24672 0.0
C108 C 0.33609 0.65793 0.2742 0.0
C109 C 0.34068 0.69152 0.21848 0.0
O110 O 0.23019 0.68151 0.24964 0.0
O111 O 0.24149 0.61496 0.24443 0.0
O112 O 0.34502 0.66234 0.22862 0.0
O113 O 0.32445 0.72243 0.22342 0.0
C114 C 0.38051 0.80231 0.25414 0.0
O115 O 0.36466 0.66644 0.26224 0.0
O116 O 0.29829 0.66823 0.27295 0.0
In117 In 0.61521 0.32362 0.58077 0.0
O118 O 0.6934 0.36574 0.59505 0.0
O119 O 0.62103 0.30363 0.6054 0.0
C120 C 0.64302 0.34746 0.55102 0.0
C121 C 0.574 0.38846 0.5868 0.0
C122 C 0.57238 0.21585 0.57858 0.0
O123 O 0.67755 0.35479 0.56122 0.0
O124 O 0.59538 0.32873 0.55592 0.0
O125 O 0.54359 0.23689 0.58171 0.0
O126 O 0.62178 0.24917 0.57632 0.0
C127 C 0.6706 0.33732 0.60682 0.0
O128 O 0.54425 0.33779 0.5856 0.0
O129 O 0.62386 0.40562 0.58522 0.0
In130 In 0.30073 0.62442 0.91607 0.0
O131 O 0.21468 0.55627 0.92072 0.0
O132 O 0.22717 0.63444 0.9153 0.0
C133 C 0.36548 0.58113 0.91839 0.0
C134 C 0.33005 0.68463 0.9418 0.0
C135 C 0.3082 0.64499 0.88572 0.0
O136 O 0.38283 0.63081 0.9167 0.0
O137 O 0.31455 0.55227 0.91909 0.0
O138 O 0.28474 0.59802 0.89124 0.0
O139 O 0.32869 0.68267 0.89558 0.0
C140 C 0.19396 0.5859 0.91865 0.0
O141 O 0.3522 0.70439 0.92897 0.0
O142 O 0.2939 0.63558 0.94151 0.0
In143 In 0.70049 0.30717 0.24796 0.0
O144 O 0.68639 0.2225 0.25346 0.0
O145 O 0.61834 0.23352 0.25164 0.0
C146 C 0.80854 0.37205 0.247 0.0
C147 C 0.6783 0.34657 0.27335 0.0
C148 C 0.68109 0.31002 0.21782 0.0
O149 O 0.78689 0.32223 0.25007 0.0
O150 O 0.77568 0.38834 0.24435 0.0
O151 O 0.67432 0.33915 0.22756 0.0
O152 O 0.69711 0.27989 0.22336 0.0
C153 C 0.63546 0.20126 0.25394 0.0
O154 O 0.65128 0.33791 0.26111 0.0
O155 O 0.71591 0.33577 0.27263 0.0
H156 H 0.43254 0.74041 0.95294 0.0
H157 H 0.32724 0.73924 0.03838 0.0
H158 H 0.26733 0.69093 0.96422 0.0
H159 H 0.43886 0.68504 0.02661 0.0
H160 H 0.32831 0.7652 0.01132 0.0
H161 H 0.45681 0.76398 0.98019 0.0
C162 C 0.40196 0.73676 0.96105 0.0
C163 C 0.34793 0.7136 0.95651 0.0
C164 C 0.35399 0.74941 0.01484 0.0
C165 C 0.37518 0.74057 0.98731 0.0
C166 C 0.35362 0.73493 0.03022 0.0
C167 C 0.38278 0.70981 0.03456 0.0
C168 C 0.38461 0.73961 0.00396 0.0
C169 C 0.41567 0.70411 0.02359 0.0
C170 C 0.4157 0.74984 0.97653 0.0
C171 C 0.3094 0.70857 0.9674 0.0
N172 N 0.41541 0.71849 0.00872 0.0
N173 N 0.32366 0.7215 0.98237 0.0
H174 H 0.70018 0.43199 0.36856 0.0
H175 H 0.57845 0.30419 0.28634 0.0
H176 H 0.58745 0.26318 0.36118 0.0
H177 H 0.7462 0.4205 0.29395 0.0
H178 H 0.55999 0.31128 0.31372 0.0
H179 H 0.69411 0.44858 0.34103 0.0
C180 C 0.67258 0.3989 0.36126 0.0
C181 C 0.64455 0.34613 0.36697 0.0
C182 C 0.60038 0.3366 0.30921 0.0
C183 C 0.63697 0.36478 0.33587 0.0
C184 C 0.61085 0.33282 0.29365 0.0
C185 C 0.66391 0.36161 0.28806 0.0
C186 C 0.64317 0.37025 0.319 0.0
C187 C 0.70482 0.39751 0.29795 0.0
C188 C 0.66936 0.40831 0.34562 0.0
C189 C 0.60991 0.30435 0.35709 0.0
N190 N 0.6937 0.40055 0.31302 0.0
N191 N 0.60737 0.31447 0.34194 0.0
H192 H 0.27143 0.69384 0.70442 0.0
H193 H 0.26938 0.58394 0.61963 0.0
H194 H 0.31966 0.57669 0.69402 0.0
H195 H 0.32921 0.75149 0.63031 0.0
H196 H 0.2445 0.56155 0.64689 0.0
H197 H 0.24903 0.69389 0.67709 0.0
C198 C 0.27515 0.66655 0.69649 0.0
C199 C 0.29769 0.63548 0.70132 0.0
C200 C 0.26139 0.60289 0.6431 0.0
C201 C 0.27183 0.63493 0.6704 0.0
C202 C 0.27529 0.61563 0.62761 0.0
C203 C 0.30168 0.66961 0.62288 0.0
C204 C 0.27291 0.64439 0.6537 0.0
C205 C 0.30925 0.70943 0.63362 0.0
C206 C 0.26271 0.66684 0.68096 0.0
C207 C 0.30265 0.6014 0.69063 0.0
N208 N 0.2953 0.6961 0.6486 0.0
N209 N 0.29025 0.60232 0.6756 0.0
H210 H 0.59376 0.27265 0.03747 0.0
H211 H 0.69695 0.27498 0.95174 0.0
H212 H 0.75939 0.32483 0.02583 0.0
H213 H 0.58531 0.32889 0.96385 0.0
H214 H 0.69722 0.24984 0.97879 0.0
H215 H 0.56922 0.24967 0.01024 0.0
C216 C 0.62446 0.27714 0.02928 0.0
C217 C 0.67866 0.30096 0.03374 0.0
C218 C 0.67129 0.26543 0.97536 0.0
C219 C 0.651 0.27448 0.00293 0.0
C220 C 0.67089 0.27947 0.95998 0.0
C221 C 0.64138 0.30433 0.95572 0.0
C222 C 0.64102 0.27532 0.98632 0.0
C223 C 0.60885 0.31013 0.9668 0.0
C224 C 0.61053 0.26436 0.0138 0.0
C225 C 0.71721 0.30684 0.02273 0.0
N226 N 0.60984 0.29614 0.98167 0.0
N227 N 0.70274 0.29413 0.00776 0.0
H228 H 0.43474 0.69986 0.28774 0.0
H229 H 0.30582 0.57673 0.36981 0.0
H230 H 0.26584 0.58592 0.29482 0.0
H231 H 0.42092 0.74476 0.3623 0.0
H232 H 0.31349 0.5588 0.34242 0.0
H233 H 0.4508 0.69377 0.31531 0.0
C234 C 0.40155 0.67197 0.29499 0.0
C235 C 0.34889 0.64359 0.28918 0.0
C236 C 0.33839 0.59917 0.34696 0.0
C237 C 0.36692 0.63603 0.32033 0.0
C238 C 0.33427 0.60934 0.36252 0.0
C239 C 0.36254 0.6623 0.36814 0.0
C240 C 0.37192 0.64213 0.3372 0.0
C241 C 0.39827 0.70345 0.35828 0.0
C242 C 0.41066 0.66876 0.31065 0.0
C243 C 0.30695 0.60862 0.29899 0.0
N244 N 0.40169 0.69261 0.34321 0.0
N245 N 0.31676 0.60609 0.31416 0.0
H246 H 0.73507 0.41356 0.70137 0.0
H247 H 0.67278 0.25672 0.62187 0.0
H248 H 0.66312 0.2417 0.69579 0.0
H249 H 0.72813 0.42663 0.62496 0.0
H250 H 0.69702 0.25712 0.64876 0.0
H251 H 0.75882 0.42508 0.67377 0.0
C252 C 0.7261 0.37855 0.69443 0.0
C253 C 0.69684 0.32661 0.70067 0.0
C254 C 0.70501 0.29473 0.64356 0.0
C255 C 0.72311 0.33913 0.66939 0.0
C256 C 0.69141 0.29445 0.6282 0.0
C257 C 0.69828 0.34159 0.62137 0.0
C258 C 0.72381 0.34214 0.65233 0.0
C259 C 0.72242 0.38953 0.62994 0.0
C260 C 0.73925 0.38502 0.67871 0.0
C261 C 0.68535 0.28235 0.69129 0.0
N262 N 0.73319 0.38839 0.64517 0.0
N263 N 0.698 0.28957 0.67611 0.0
H264 H 0.35044 0.76151 0.19588 0.0
H265 H 0.33862 0.57044 0.12771 0.0
H266 H 0.35464 0.61492 0.20351 0.0
H267 H 0.38259 0.73643 0.12046 0.0
H268 H 0.34293 0.58543 0.15549 0.0
H269 H 0.36106 0.75294 0.16825 0.0
C270 C 0.35397 0.72767 0.19173 0.0
C271 C 0.35135 0.68864 0.20197 0.0
C272 C 0.35211 0.61874 0.14784 0.0
C273 C 0.36305 0.67839 0.17036 0.0
C274 C 0.34947 0.61019 0.13198 0.0
C275 C 0.35997 0.65224 0.1218 0.0
C276 C 0.36459 0.66953 0.15358 0.0
C277 C 0.37415 0.70295 0.12794 0.0
C278 C 0.36019 0.72292 0.17597 0.0
C279 C 0.3564 0.64582 0.196 0.0
N280 N 0.37549 0.71007 0.14347 0.0
N281 N 0.36143 0.64151 0.18055 0.0
H282 H 0.61807 0.35865 0.4521 0.0
H283 H 0.73666 0.36869 0.53631 0.0
H284 H 0.75782 0.34255 0.46067 0.0
H285 H 0.57834 0.34701 0.52806 0.0
H286 H 0.75287 0.37515 0.50844 0.0
H287 H 0.61062 0.37015 0.47984 0.0
C288 C 0.64742 0.35803 0.45981 0.0
C289 C 0.68829 0.34916 0.45413 0.0
C290 C 0.71476 0.36939 0.51275 0.0
C291 C 0.68017 0.36235 0.48576 0.0
C292 C 0.70561 0.3659 0.52864 0.0
C293 C 0.65595 0.35683 0.53445 0.0
C294 C 0.67406 0.3641 0.50267 0.0
C295 C 0.61705 0.35354 0.52403 0.0
C296 C 0.64311 0.36446 0.47562 0.0
C297 C 0.72537 0.34881 0.46459 0.0
N298 N 0.62683 0.35693 0.50864 0.0
N299 N 0.72032 0.35508 0.47991 0.0
H300 H 0.26832 0.60203 0.78704 0.0
H301 H 0.37375 0.73832 0.86991 0.0
H302 H 0.4209 0.74787 0.79407 0.0
H303 H 0.25047 0.57203 0.86341 0.0
H304 H 0.38217 0.7494 0.84182 0.0
H305 H 0.25167 0.59737 0.81489 0.0
C306 C 0.29805 0.63325 0.79443 0.0
C307 C 0.34621 0.6751 0.7883 0.0
C308 C 0.35309 0.71061 0.84658 0.0
C309 C 0.32747 0.67025 0.82002 0.0
C310 C 0.34819 0.70436 0.86257 0.0
C311 C 0.31171 0.65411 0.86895 0.0
C312 C 0.32082 0.66644 0.83697 0.0
C313 C 0.27948 0.61136 0.85895 0.0
C314 C 0.28865 0.63052 0.81029 0.0
C315 C 0.38342 0.71462 0.79836 0.0
N316 N 0.28483 0.61847 0.84347 0.0
N317 N 0.37333 0.71118 0.81373 0.0
H318 H 0.69594 0.42994 0.12636 0.0
H319 H 0.68041 0.24204 0.1957 0.0
H320 H 0.67808 0.27248 0.11962 0.0
H321 H 0.66616 0.38396 0.20189 0.0
H322 H 0.67709 0.25104 0.16784 0.0
H323 H 0.68294 0.4128 0.15399 0.0
C324 C 0.68902 0.39159 0.13071 0.0
C325 C 0.6885 0.35268 0.12072 0.0
C326 C 0.67416 0.27994 0.17527 0.0
C327 C 0.67384 0.33291 0.15236 0.0
C328 C 0.67615 0.2749 0.19118 0.0
C329 C 0.67396 0.31259 0.20109 0.0
C330 C 0.67057 0.32336 0.16921 0.0
C331 C 0.66812 0.35414 0.19464 0.0
C332 C 0.68142 0.38178 0.14648 0.0
C333 C 0.67896 0.3036 0.12694 0.0
N334 N 0.6672 0.35875 0.17907 0.0
N335 N 0.6725 0.29528 0.14241 0.0
H336 H 0.26896 0.66264 0.53734 0.0
H337 H 0.38667 0.65895 0.4536 0.0
H338 H 0.42745 0.68367 0.52945 0.0
H339 H 0.24631 0.67524 0.46126 0.0
H340 H 0.39474 0.65266 0.48152 0.0
H341 H 0.25259 0.65203 0.50951 0.0
C342 C 0.30007 0.66455 0.52977 0.0
C343 C 0.34977 0.67451 0.53566 0.0
C344 C 0.36197 0.65725 0.47706 0.0
C345 C 0.33142 0.66236 0.50393 0.0
C346 C 0.35729 0.66067 0.46115 0.0
C347 C 0.31608 0.66809 0.45516 0.0
C348 C 0.32495 0.66095 0.48699 0.0
C349 C 0.279 0.67 0.46543 0.0
C350 C 0.2908 0.65863 0.5139 0.0
C351 C 0.38871 0.67652 0.52536 0.0
N352 N 0.28443 0.66667 0.48084 0.0
N353 N 0.37879 0.6707 0.50999 0.0
H354 H 0.75031 0.43099 0.86284 0.0
H355 H 0.56638 0.24401 0.79485 0.0
H356 H 0.60842 0.27577 0.87053 0.0
H357 H 0.72917 0.37425 0.7874 0.0
H358 H 0.58069 0.25578 0.82259 0.0
H359 H 0.7432 0.41202 0.83522 0.0
C360 C 0.71778 0.39276 0.85871 0.0
C361 C 0.67964 0.35497 0.86896 0.0
C362 C 0.61349 0.28152 0.81492 0.0
C363 C 0.67113 0.33321 0.83737 0.0
C364 C 0.60532 0.27497 0.79908 0.0
C365 C 0.64661 0.30848 0.78884 0.0
C366 C 0.66309 0.32242 0.82061 0.0
C367 C 0.69631 0.34765 0.79493 0.0
C368 C 0.71389 0.38191 0.84295 0.0
C369 C 0.63856 0.30602 0.86301 0.0
N370 N 0.70302 0.35396 0.81045 0.0
N371 N 0.63507 0.29675 0.84757 0.0
H372 H 0.88294 0.37433 0.07883 0.0
H373 H 0.17808 0.63271 0.0704 0.0
H374 H 0.91182 0.53422 0.06909 0.0
H375 H 0.14963 0.47019 0.07334 0.0
H376 H 0.0808 0.59742 0.07061 0.0
H377 H 0.98025 0.4087 0.07775 0.0
C378 C 0.90979 0.41674 0.07649 0.0
C379 C 0.88924 0.45152 0.07407 0.0
C380 C 0.09568 0.56936 0.07115 0.0
C381 C 1.00078 0.49113 0.0728 0.0
C382 C 0.1513 0.58948 0.07104 0.0
C383 C 0.17202 0.55431 0.07187 0.0
C384 C 0.06023 0.51355 0.07221 0.0
C385 C 0.13537 0.49871 0.07265 0.0
C386 C 0.96535 0.43628 0.07583 0.0
C387 C 0.9259 0.50601 0.07104 0.0
N388 N 0.08122 0.48004 0.07288 0.0
N389 N 0.97987 0.52414 0.07053 0.0
H390 H 0.6569 0.12498 0.4077 0.0
H391 H 0.34808 0.88625 0.40751 0.0
H392 H 0.52185 0.15172 0.41232 0.0
H393 H 0.48297 0.85975 0.41261 0.0
H394 H 0.41112 0.9838 0.40767 0.0
H395 H 0.59383 0.02747 0.40791 0.0
C396 C 0.61402 0.11033 0.40878 0.0
C397 C 0.59462 0.1465 0.41002 0.0
C398 C 0.42688 0.9566 0.40879 0.0
C399 C 0.52219 0.03511 0.41017 0.0
C400 C 0.39091 0.90095 0.40867 0.0
C401 C 0.41029 0.86485 0.41007 0.0
C402 C 0.48266 0.97626 0.41017 0.0
C403 C 0.46623 0.88612 0.41154 0.0
C404 C 0.57803 0.0547 0.40892 0.0
C405 C 0.53861 0.1253 0.41138 0.0
N406 N 0.50041 0.94034 0.4115 0.0
N407 N 0.5044 0.07108 0.41136 0.0
H408 H 0.46357 0.33252 0.74066 0.0
H409 H 0.53281 0.64048 0.73621 0.0
H410 H 0.62568 0.46797 0.73744 0.0
H411 H 0.3738 0.50737 0.74629 0.0
H412 H 0.5669 0.57731 0.73497 0.0
H413 H 0.42887 0.39535 0.74089 0.0
C414 C 0.4918 0.37543 0.73992 0.0
C415 C 0.54756 0.39506 0.73907 0.0
C416 C 0.52455 0.56193 0.73747 0.0
C417 C 0.5083 0.46714 0.73935 0.0
C418 C 0.50512 0.59799 0.73818 0.0
C419 C 0.45046 0.57917 0.7414 0.0
C420 C 0.489 0.5066 0.73991 0.0
C421 C 0.4163 0.52366 0.74382 0.0
C422 C 0.47204 0.41129 0.74011 0.0
C423 C 0.58237 0.45107 0.73816 0.0
N424 N 0.4361 0.48935 0.743 0.0
N425 N 0.56219 0.48509 0.73833 0.0
H426 H 0.62966 0.16371 0.57532 0.0
H427 H 0.37113 0.86715 0.57808 0.0
H428 H 0.46705 0.13372 0.58125 0.0
H429 H 0.53476 0.89868 0.58188 0.0
H430 H 0.40518 0.96421 0.57727 0.0
H431 H 0.59527 0.06664 0.57564 0.0
C432 C 0.58661 0.13666 0.57663 0.0
C433 C 0.55113 0.15689 0.57826 0.0
C434 C 0.43367 0.94997 0.57829 0.0
C435 C 0.51146 0.04542 0.57864 0.0
C436 C 0.41429 0.89453 0.57872 0.0
C437 C 0.4502 0.87477 0.58005 0.0
C438 C 0.48947 0.98612 0.57907 0.0
C439 C 0.50566 0.91215 0.58086 0.0
C440 C 0.56705 0.0812 0.57686 0.0
C441 C 0.49582 0.11988 0.57996 0.0
N442 N 0.5236 0.96601 0.58032 0.0
N443 N 0.47766 0.06592 0.58008 0.0
H444 H 0.47527 0.63779 0.92005 0.0
H445 H 0.51081 0.37897 0.9119 0.0
H446 H 0.3407 0.47508 0.9179 0.0
H447 H 0.64299 0.53929 0.92093 0.0
H448 H 0.44812 0.41344 0.91325 0.0
H449 H 0.53721 0.60253 0.91977 0.0
C450 C 0.4587 0.59453 0.91957 0.0
C451 C 0.40267 0.55928 0.91897 0.0
C452 C 0.49079 0.4411 0.91496 0.0
C453 C 0.47364 0.51856 0.91855 0.0
C454 C 0.52668 0.4215 0.91414 0.0
C455 C 0.58228 0.45637 0.91627 0.0
C456 C 0.51058 0.49611 0.91785 0.0
C457 C 0.60048 0.51101 0.9192 0.0
C458 C 0.49417 0.57443 0.91942 0.0
C459 C 0.38358 0.50366 0.91839 0.0
N460 N 0.56475 0.52921 0.91986 0.0
N461 N 0.41902 0.485 0.91812 0.0
H462 H 0.12762 0.65637 0.24883 0.0
H463 H 0.88953 0.34755 0.24957 0.0
H464 H 0.15497 0.52187 0.24419 0.0
H465 H 0.8621 0.48156 0.24407 0.0
H466 H 0.98712 0.41091 0.24938 0.0
H467 H 0.03 0.59305 0.24882 0.0
C468 C 0.11309 0.61357 0.24779 0.0
C469 C 0.14945 0.59438 0.24648 0.0
C470 C 0.95971 0.42641 0.24818 0.0
C471 C 0.03798 0.5217 0.24657 0.0
C472 C 0.90404 0.39026 0.24832 0.0
C473 C 0.86767 0.40929 0.24681 0.0
C474 C 0.97912 0.48203 0.24666 0.0
C475 C 0.88869 0.46509 0.24523 0.0
C476 C 0.05741 0.57744 0.24777 0.0
C477 C 0.1284 0.53847 0.24518 0.0
N478 N 0.94294 0.49945 0.24525 0.0
N479 N 0.07414 0.50414 0.24532 0.0
H480 H 0.68969 0.54326 0.07094 0.0
H481 H 0.38219 0.4764 0.06504 0.0
H482 H 0.55392 0.38347 0.06382 0.0
H483 H 0.5158 0.63495 0.07511 0.0
H484 H 0.44555 0.44279 0.06284 0.0
H485 H 0.62779 0.5792 0.07057 0.0
C486 C 0.64698 0.51586 0.06915 0.0
C487 C 0.62689 0.46032 0.06748 0.0
C488 C 0.46106 0.48498 0.0655 0.0
C489 C 0.55588 0.50091 0.06713 0.0
C490 C 0.42487 0.50414 0.06676 0.0
C491 C 0.44373 0.55846 0.07033 0.0
C492 C 0.51657 0.52042 0.0678 0.0
C493 C 0.49949 0.59269 0.0724 0.0
C494 C 0.61163 0.53631 0.069 0.0
C495 C 0.57116 0.42656 0.06524 0.0
N496 N 0.53391 0.5731 0.07114 0.0
N497 N 0.53766 0.44733 0.06519 0.0
H498 H 0.88351 0.35043 0.40081 0.0
H499 H 0.12203 0.65953 0.3999 0.0
H500 H 0.85672 0.48579 0.39936 0.0
H501 H 0.14889 0.52419 0.40106 0.0
H502 H 0.02466 0.59646 0.39809 0.0
H503 H 0.98105 0.41326 0.39929 0.0
C504 C 0.89812 0.39329 0.40005 0.0
C505 C 0.86197 0.4129 0.40028 0.0
C506 C 0.0519 0.58057 0.39866 0.0
C507 C 0.9734 0.48507 0.39863 0.0
C508 C 0.10747 0.6166 0.39966 0.0
C509 C 0.14358 0.5971 0.4007 0.0
C510 C 0.03232 0.52465 0.39872 0.0
C511 C 0.1225 0.54103 0.40035 0.0
C512 C 0.95379 0.42919 0.39921 0.0
C513 C 0.88313 0.46888 0.39929 0.0
N514 N 0.06835 0.50684 0.39946 0.0
N515 N 0.93736 0.50294 0.39858 0.0
H516 H 0.46984 0.10684 0.73351 0.0
H517 H 0.53881 0.86807 0.73884 0.0
H518 H 0.62925 0.13327 0.743 0.0
H519 H 0.37869 0.84291 0.73154 0.0
H520 H 0.57426 0.96577 0.73866 0.0
H521 H 0.4368 0.01011 0.73127 0.0
C522 C 0.49787 0.09227 0.73512 0.0
C523 C 0.55228 0.12808 0.73851 0.0
C524 C 0.53141 0.93882 0.73701 0.0
C525 C 0.5149 0.01747 0.73593 0.0
C526 C 0.51124 0.88311 0.73705 0.0
C527 C 0.45574 0.84738 0.73527 0.0
C528 C 0.49576 0.95879 0.73516 0.0
C529 C 0.42176 0.869 0.73303 0.0
C530 C 0.47905 0.03705 0.73382 0.0
C531 C 0.58691 0.10702 0.74043 0.0
N532 N 0.44225 0.92319 0.7331 0.0
N533 N 0.56763 0.05311 0.73914 0.0
H534 H 0.53989 0.67258 0.5893 0.0
H535 H 0.46829 0.36343 0.58938 0.0
H536 H 0.3775 0.53682 0.59015 0.0
H537 H 0.6312 0.49828 0.58904 0.0
H538 H 0.43442 0.42664 0.59124 0.0
H539 H 0.57461 0.60984 0.59078 0.0
C540 C 0.51159 0.62966 0.58992 0.0
C541 C 0.45577 0.60991 0.58953 0.0
C542 C 0.47761 0.44243 0.59085 0.0
C543 C 0.49502 0.5379 0.59115 0.0
C544 C 0.49692 0.40631 0.5898 0.0
C545 C 0.5526 0.4256 0.58899 0.0
C546 C 0.51425 0.4983 0.59103 0.0
C547 C 0.5879 0.48162 0.58959 0.0
C548 C 0.53137 0.59384 0.59074 0.0
C549 C 0.42089 0.55388 0.59035 0.0
N550 N 0.56816 0.51596 0.5905 0.0
N551 N 0.44105 0.51993 0.59104 0.0
H552 H 0.14168 0.64315 0.91551 0.0
H553 H 0.84731 0.38529 0.92601 0.0
H554 H 0.11283 0.48304 0.92491 0.0
H555 H 0.87465 0.54587 0.91849 0.0
H556 H 0.9446 0.42133 0.92661 0.0
H557 H 0.04461 0.60926 0.91732 0.0
C558 C 0.1149 0.60083 0.91798 0.0
C559 C 0.13535 0.56578 0.92001 0.0
C560 C 0.9295 0.44885 0.92491 0.0
C561 C 0.02409 0.52672 0.9221 0.0
C562 C 0.87386 0.4283 0.92458 0.0
C563 C 0.85283 0.46264 0.92214 0.0
C564 C 0.96466 0.50425 0.9227 0.0
C565 C 0.88917 0.51799 0.9204 0.0
C566 C 0.05947 0.58154 0.91903 0.0
C567 C 0.0988 0.51143 0.92323 0.0
N568 N 0.94338 0.53707 0.92063 0.0
N569 N 0.04496 0.49356 0.92413 0.0
H570 H 0.48975 0.85415 0.25772 0.0
H571 H 0.52569 0.14962 0.25603 0.0
H572 H 0.35621 0.88382 0.25537 0.0
H573 H 0.65935 0.11986 0.25675 0.0
H574 H 0.46309 0.05278 0.25783 0.0
H575 H 0.55201 0.95109 0.25942 0.0
C576 C 0.47345 0.88109 0.25766 0.0
C577 C 0.41765 0.86085 0.25632 0.0
C578 C 0.50607 0.06733 0.25768 0.0
C579 C 0.48899 0.97223 0.2582 0.0
C580 C 0.54192 0.12269 0.25667 0.0
C581 C 0.5979 0.14286 0.25616 0.0
C582 C 0.52619 0.03161 0.25816 0.0
C583 C 0.61654 0.10605 0.25707 0.0
C584 C 0.50911 0.93652 0.25862 0.0
C585 C 0.39891 0.89768 0.25635 0.0
N586 N 0.58075 0.05217 0.25795 0.0
N587 N 0.43453 0.95162 0.25719 0.0
loop_
_geom_bond_atom_site_label_1
_geom_bond_atom_site_label_2
_geom_bond_distance
_geom_bond_site_symmetry_2
_ccdc_geom_bond_type
In0 O1 2.294 . S
In0 O2 2.326 . S
In0 O6 2.266 . S
In0 O7 2.326 . S
In0 O8 2.266 . S
In0 O9 2.326 . S
In0 O11 2.294 . S
In0 O12 2.326 . S
O1 In0 2.294 . S
O1 C10 1.240 . S
O2 In0 2.326 . S
O2 C10 1.252 . S
C3 O6 1.252 . S
C3 O7 1.260 . S
C4 O11 1.240 . S
C4 O12 1.252 . S
C5 O8 1.252 . S
C5 O9 1.260 . S
O6 In0 2.266 . S
O6 C3 1.252 . S
O7 In0 2.326 . S
O7 C3 1.260 . S
O8 In0 2.266 . S
O8 C5 1.252 . S
O9 In0 2.326 . S
O9 C5 1.260 . S
C10 O1 1.240 . S
C10 O2 1.252 . S
O11 In0 2.294 . S
O11 C4 1.240 . S
O12 In0 2.326 . S
O12 C4 1.252 . S
In13 O14 2.294 . S
In13 O15 2.326 . S
In13 O19 2.266 . S
In13 O20 2.326 . S
In13 O21 2.266 . S
In13 O22 2.326 . S
In13 O24 2.294 . S
In13 O25 2.326 . S
O14 In13 2.294 . S
O14 C23 1.240 . S
O15 In13 2.326 . S
O15 C23 1.252 . S
C16 O19 1.252 . S
C16 O20 1.260 . S
C17 O24 1.240 . S
C17 O25 1.252 . S
C18 O21 1.252 . S
C18 O22 1.260 . S
O19 In13 2.266 . S
O19 C16 1.252 . S
O20 In13 2.326 . S
O20 C16 1.260 . S
O21 In13 2.266 . S
O21 C18 1.252 . S
O22 In13 2.326 . S
O22 C18 1.260 . S
C23 O14 1.240 . S
C23 O15 1.252 . S
O24 In13 2.294 . S
O24 C17 1.240 . S
O25 In13 2.326 . S
O25 C17 1.252 . S
In26 O27 2.294 . S
In26 O28 2.326 . S
In26 O32 2.266 . S
In26 O33 2.326 . S
In26 O34 2.266 . S
In26 O35 2.326 . S
In26 O37 2.294 . S
In26 O38 2.326 . S
O27 In26 2.294 . S
O27 C36 1.240 . S
O28 In26 2.326 . S
O28 C36 1.252 . S
C29 O32 1.252 . S
C29 O33 1.260 . S
C30 O37 1.240 . S
C30 O38 1.252 . S
C31 O34 1.252 . S
C31 O35 1.260 . S
O32 In26 2.266 . S
O32 C29 1.252 . S
O33 In26 2.326 . S
O33 C29 1.260 . S
O34 In26 2.266 . S
O34 C31 1.252 . S
O35 In26 2.326 . S
O35 C31 1.260 . S
C36 O27 1.240 . S
C36 O28 1.252 . S
O37 In26 2.294 . S
O37 C30 1.240 . S
O38 In26 2.326 . S
O38 C30 1.252 . S
In39 O40 2.294 . S
In39 O41 2.326 . S
In39 O45 2.266 . S
In39 O46 2.326 . S
In39 O47 2.266 . S
In39 O48 2.326 . S
In39 O50 2.294 . S
In39 O51 2.326 . S
O40 In39 2.294 . S
O40 C49 1.240 . S
O41 In39 2.326 . S
O41 C49 1.252 . S
C42 O45 1.252 . S
C42 O46 1.260 . S
C43 O50 1.240 . S
C43 O51 1.252 . S
C44 O47 1.252 . S
C44 O48 1.260 . S
O45 In39 2.266 . S
O45 C42 1.252 . S
O46 In39 2.326 . S
O46 C42 1.260 . S
O47 In39 2.266 . S
O47 C44 1.252 . S
O48 In39 2.326 . S
O48 C44 1.260 . S
C49 O40 1.240 . S
C49 O41 1.252 . S
O50 In39 2.294 . S
O50 C43 1.240 . S
O51 In39 2.326 . S
O51 C43 1.252 . S
In52 O53 2.294 . S
In52 O54 2.326 . S
In52 O58 2.266 . S
In52 O59 2.326 . S
In52 O60 2.266 . S
In52 O61 2.326 . S
In52 O63 2.294 . S
In52 O64 2.326 . S
O53 In52 2.294 . S
O53 C62 1.240 . S
O54 In52 2.326 . S
O54 C62 1.252 . S
C55 O58 1.252 . S
C55 O59 1.260 . S
C56 O63 1.240 . S
C56 O64 1.252 . S
C57 O60 1.252 . S
C57 O61 1.260 . S
O58 In52 2.266 . S
O58 C55 1.252 . S
O59 In52 2.326 . S
O59 C55 1.260 . S
O60 In52 2.266 . S
O60 C57 1.252 . S
O61 In52 2.326 . S
O61 C57 1.260 . S
C62 O53 1.240 . S
C62 O54 1.252 . S
O63 In52 2.294 . S
O63 C56 1.240 . S
O64 In52 2.326 . S
O64 C56 1.252 . S
In65 O66 2.294 . S
In65 O67 2.326 . S
In65 O71 2.266 . S
In65 O72 2.326 . S
In65 O73 2.266 . S
In65 O74 2.326 . S
In65 O76 2.294 . S
In65 O77 2.326 . S
O66 In65 2.294 . S
O66 C75 1.240 . S
O67 In65 2.326 . S
O67 C75 1.252 . S
C68 O71 1.252 . S
C68 O72 1.260 . S
C69 O76 1.240 . S
C69 O77 1.252 . S
C70 O73 1.252 . S
C70 O74 1.260 . S
O71 In65 2.266 . S
O71 C68 1.252 . S
O72 In65 2.326 . S
O72 C68 1.260 . S
O73 In65 2.266 . S
O73 C70 1.252 . S
O74 In65 2.326 . S
O74 C70 1.260 . S
C75 O66 1.240 . S
C75 O67 1.252 . S
O76 In65 2.294 . S
O76 C69 1.240 . S
O77 In65 2.326 . S
O77 C69 1.252 . S
In78 O79 2.294 . S
In78 O80 2.326 . S
In78 O84 2.266 . S
In78 O85 2.326 . S
In78 O86 2.266 . S
In78 O87 2.326 . S
In78 O89 2.294 . S
In78 O90 2.326 . S
O79 In78 2.294 . S
O79 C88 1.240 . S
O80 In78 2.326 . S
O80 C88 1.252 . S
C81 O84 1.252 . S
C81 O85 1.260 . S
C82 O89 1.240 . S
C82 O90 1.252 . S
C83 O86 1.252 . S
C83 O87 1.260 . S
O84 In78 2.266 . S
O84 C81 1.252 . S
O85 In78 2.326 . S
O85 C81 1.260 . S
O86 In78 2.266 . S
O86 C83 1.252 . S
O87 In78 2.326 . S
O87 C83 1.260 . S
C88 O79 1.240 . S
C88 O80 1.252 . S
O89 In78 2.294 . S
O89 C82 1.240 . S
O90 In78 2.326 . S
O90 C82 1.252 . S
In91 O92 2.294 . S
In91 O93 2.326 . S
In91 O97 2.266 . S
In91 O98 2.326 . S
In91 O99 2.266 . S
In91 O100 2.326 . S
In91 O102 2.294 . S
In91 O103 2.326 . S
O92 In91 2.294 . S
O92 C101 1.240 . S
O93 In91 2.326 . S
O93 C101 1.252 . S
C94 O97 1.252 . S
C94 O98 1.260 . S
C95 O102 1.240 . S
C95 O103 1.252 . S
C96 O99 1.252 . S
C96 O100 1.260 . S
O97 In91 2.266 . S
O97 C94 1.252 . S
O98 In91 2.326 . S
O98 C94 1.260 . S
O99 In91 2.266 . S
O99 C96 1.252 . S
O100 In91 2.326 . S
O100 C96 1.260 . S
C101 O92 1.240 . S
C101 O93 1.252 . S
O102 In91 2.294 . S
O102 C95 1.240 . S
O103 In91 2.326 . S
O103 C95 1.252 . S
In104 O105 2.294 . S
In104 O106 2.326 . S
In104 O110 2.266 . S
In104 O111 2.326 . S
In104 O112 2.266 . S
In104 O113 2.326 . S
In104 O115 2.294 . S
In104 O116 2.326 . S
O105 In104 2.294 . S
O105 C114 1.240 . S
O106 In104 2.326 . S
O106 C114 1.252 . S
C107 O110 1.252 . S
C107 O111 1.260 . S
C108 O115 1.240 . S
C108 O116 1.252 . S
C109 O112 1.252 . S
C109 O113 1.260 . S
O110 In104 2.266 . S
O110 C107 1.252 . S
O111 In104 2.326 . S
O111 C107 1.260 . S
O112 In104 2.266 . S
O112 C109 1.252 . S
O113 In104 2.326 . S
O113 C109 1.260 . S
C114 O105 1.240 . S
C114 O106 1.252 . S
O115 In104 2.294 . S
O115 C108 1.240 . S
O116 In104 2.326 . S
O116 C108 1.252 . S
In117 O118 2.294 . S
In117 O119 2.326 . S
In117 O123 2.266 . S
In117 O124 2.326 . S
In117 O125 2.266 . S
In117 O126 2.326 . S
In117 O128 2.294 . S
In117 O129 2.326 . S
O118 In117 2.294 . S
O118 C127 1.240 . S
O119 In117 2.326 . S
O119 C127 1.252 . S
C120 O123 1.252 . S
C120 O124 1.260 . S
C121 O128 1.240 . S
C121 O129 1.252 . S
C122 O125 1.252 . S
C122 O126 1.260 . S
O123 In117 2.266 . S
O123 C120 1.252 . S
O124 In117 2.326 . S
O124 C120 1.260 . S
O125 In117 2.266 . S
O125 C122 1.252 . S
O126 In117 2.326 . S
O126 C122 1.260 . S
C127 O118 1.240 . S
C127 O119 1.252 . S
O128 In117 2.294 . S
O128 C121 1.240 . S
O129 In117 2.326 . S
O129 C121 1.252 . S
In130 O131 2.294 . S
In130 O132 2.326 . S
In130 O136 2.266 . S
In130 O137 2.326 . S
In130 O138 2.266 . S
In130 O139 2.326 . S
In130 O141 2.294 . S
In130 O142 2.326 . S
O131 In130 2.294 . S
O131 C140 1.240 . S
O132 In130 2.326 . S
O132 C140 1.252 . S
C133 O136 1.252 . S
C133 O137 1.260 . S
C134 O141 1.240 . S
C134 O142 1.252 . S
C135 O138 1.252 . S
C135 O139 1.260 . S
O136 In130 2.266 . S
O136 C133 1.252 . S
O137 In130 2.326 . S
O137 C133 1.260 . S
O138 In130 2.266 . S
O138 C135 1.252 . S
O139 In130 2.326 . S
O139 C135 1.260 . S
C140 O131 1.240 . S
C140 O132 1.252 . S
O141 In130 2.294 . S
O141 C134 1.240 . S
O142 In130 2.326 . S
O142 C134 1.252 . S
In143 O144 2.294 . S
In143 O145 2.326 . S
In143 O149 2.266 . S
In143 O150 2.326 . S
In143 O151 2.266 . S
In143 O152 2.326 . S
In143 O154 2.294 . S
In143 O155 2.326 . S
O144 In143 2.294 . S
O144 C153 1.240 . S
O145 In143 2.326 . S
O145 C153 1.252 . S
C146 O149 1.252 . S
C146 O150 1.260 . S
C147 O154 1.240 . S
C147 O155 1.252 . S
C148 O151 1.252 . S
C148 O152 1.260 . S
O149 In143 2.266 . S
O149 C146 1.252 . S
O150 In143 2.326 . S
O150 C146 1.260 . S
O151 In143 2.266 . S
O151 C148 1.252 . S
O152 In143 2.326 . S
O152 C148 1.260 . S
C153 O144 1.240 . S
C153 O145 1.252 . S
O154 In143 2.294 . S
O154 C147 1.240 . S
O155 In143 2.326 . S
O155 C147 1.252 . S
H156 C162 0.930 . S
H157 C166 0.930 . S
H158 C171 0.929 . S
H159 C169 0.929 . S
H160 C164 0.929 . S
H161 C170 0.929 . S
C162 H156 0.930 . S
C162 C163 1.367 . S
C162 C170 1.378 . S
C163 C162 1.367 . S
C163 C171 1.433 . S
C164 H160 0.929 . S
C164 C166 1.378 . S
C164 C168 1.350 . S
C165 C168 1.463 1_556 S
C165 C170 1.350 . S
C165 N173 1.427 . S
C166 H157 0.930 . S
C166 C164 1.378 . S
C166 C167 1.367 . S
C167 C166 1.367 . S
C167 C169 1.433 . S
C168 C164 1.350 . S
C168 C165 1.463 1_554 S
C168 N172 1.427 . S
C169 H159 0.929 . S
C169 C167 1.433 . S
C169 N172 1.384 . S
C170 H161 0.929 . S
C170 C162 1.378 . S
C170 C165 1.350 . S
C171 H158 0.929 . S
C171 C163 1.433 . S
C171 N173 1.384 . S
N172 C168 1.427 . S
N172 C169 1.384 . S
N173 C165 1.427 . S
N173 C171 1.384 . S
H174 C180 0.930 . S
H175 C184 0.930 . S
H176 C189 0.929 . S
H177 C187 0.929 . S
H178 C182 0.929 . S
H179 C188 0.929 . S
C180 H174 0.930 . S
C180 C181 1.367 . S
C180 C188 1.378 . S
C181 C180 1.367 . S
C181 C189 1.433 . S
C182 H178 0.929 . S
C182 C184 1.378 . S
C182 C186 1.350 . S
C183 C186 1.463 . S
C183 C188 1.350 . S
C183 N191 1.427 . S
C184 H175 0.930 . S
C184 C182 1.378 . S
C184 C185 1.367 . S
C185 C184 1.367 . S
C185 C187 1.433 . S
C186 C182 1.350 . S
C186 C183 1.463 . S
C186 N190 1.427 . S
C187 H177 0.929 . S
C187 C185 1.433 . S
C187 N190 1.384 . S
C188 H179 0.929 . S
C188 C180 1.378 . S
C188 C183 1.350 . S
C189 H176 0.929 . S
C189 C181 1.433 . S
C189 N191 1.384 . S
N190 C186 1.427 . S
N190 C187 1.384 . S
N191 C183 1.427 . S
N191 C189 1.384 . S
H192 C198 0.930 . S
H193 C202 0.930 . S
H194 C207 0.929 . S
H195 C205 0.929 . S
H196 C200 0.929 . S
H197 C206 0.929 . S
C198 H192 0.930 . S
C198 C199 1.367 . S
C198 C206 1.378 . S
C199 C198 1.367 . S
C199 C207 1.433 . S
C200 H196 0.929 . S
C200 C202 1.378 . S
C200 C204 1.350 . S
C201 C204 1.463 . S
C201 C206 1.350 . S
C201 N209 1.427 . S
C202 H193 0.930 . S
C202 C200 1.378 . S
C202 C203 1.367 . S
C203 C202 1.367 . S
C203 C205 1.433 . S
C204 C200 1.350 . S
C204 C201 1.463 . S
C204 N208 1.427 . S
C205 H195 0.929 . S
C205 C203 1.433 . S
C205 N208 1.384 . S
C206 H197 0.929 . S
C206 C198 1.378 . S
C206 C201 1.350 . S
C207 H194 0.929 . S
C207 C199 1.433 . S
C207 N209 1.384 . S
N208 C204 1.427 . S
N208 C205 1.384 . S
N209 C201 1.427 . S
N209 C207 1.384 . S
H210 C216 0.930 . S
H211 C220 0.930 . S
H212 C225 0.929 . S
H213 C223 0.929 . S
H214 C218 0.929 . S
H215 C224 0.929 . S
C216 H210 0.930 . S
C216 C217 1.367 . S
C216 C224 1.378 . S
C217 C216 1.367 . S
C217 C225 1.433 . S
C218 H214 0.929 . S
C218 C220 1.378 . S
C218 C222 1.350 . S
C219 C222 1.463 1_554 S
C219 C224 1.350 . S
C219 N227 1.427 . S
C220 H211 0.930 . S
C220 C218 1.378 . S
C220 C221 1.367 . S
C221 C220 1.367 . S
C221 C223 1.433 . S
C222 C218 1.350 . S
C222 C219 1.463 1_556 S
C222 N226 1.427 . S
C223 H213 0.929 . S
C223 C221 1.433 . S
C223 N226 1.384 . S
C224 H215 0.929 . S
C224 C216 1.378 . S
C224 C219 1.350 . S
C225 H212 0.929 . S
C225 C217 1.433 . S
C225 N227 1.384 . S
N226 C222 1.427 . S
N226 C223 1.384 . S
N227 C219 1.427 . S
N227 C225 1.384 . S
H228 C234 0.930 . S
H229 C238 0.930 . S
H230 C243 0.929 . S
H231 C241 0.929 . S
H232 C236 0.929 . S
H233 C242 0.929 . S
C234 H228 0.930 . S
C234 C235 1.367 . S
C234 C242 1.378 . S
C235 C234 1.367 . S
C235 C243 1.433 . S
C236 H232 0.929 . S
C236 C238 1.378 . S
C236 C240 1.350 . S
C237 C240 1.463 . S
C237 C242 1.350 . S
C237 N245 1.427 . S
C238 H229 0.930 . S
C238 C236 1.378 . S
C238 C239 1.367 . S
C239 C238 1.367 . S
C239 C241 1.433 . S
C240 C236 1.350 . S
C240 C237 1.463 . S
C240 N244 1.427 . S
C241 H231 0.929 . S
C241 C239 1.433 . S
C241 N244 1.384 . S
C242 H233 0.929 . S
C242 C234 1.378 . S
C242 C237 1.350 . S
C243 H230 0.929 . S
C243 C235 1.433 . S
C243 N245 1.384 . S
N244 C240 1.427 . S
N244 C241 1.384 . S
N245 C237 1.427 . S
N245 C243 1.384 . S
H246 C252 0.930 . S
H247 C256 0.930 . S
H248 C261 0.929 . S
H249 C259 0.929 . S
H250 C254 0.929 . S
H251 C260 0.929 . S
C252 H246 0.930 . S
C252 C253 1.367 . S
C252 C260 1.378 . S
C253 C252 1.367 . S
C253 C261 1.433 . S
C254 H250 0.929 . S
C254 C256 1.378 . S
C254 C258 1.350 . S
C255 C258 1.463 . S
C255 C260 1.350 . S
C255 N263 1.427 . S
C256 H247 0.930 . S
C256 C254 1.378 . S
C256 C257 1.367 . S
C257 C256 1.367 . S
C257 C259 1.433 . S
C258 C254 1.350 . S
C258 C255 1.463 . S
C258 N262 1.427 . S
C259 H249 0.929 . S
C259 C257 1.433 . S
C259 N262 1.384 . S
C260 H251 0.929 . S
C260 C252 1.378 . S
C260 C255 1.350 . S
C261 H248 0.929 . S
C261 C253 1.433 . S
C261 N263 1.384 . S
N262 C258 1.427 . S
N262 C259 1.384 . S
N263 C255 1.427 . S
N263 C261 1.384 . S
H264 C270 0.930 . S
H265 C274 0.930 . S
H266 C279 0.929 . S
H267 C277 0.929 . S
H268 C272 0.929 . S
H269 C278 0.929 . S
C270 H264 0.930 . S
C270 C271 1.367 . S
C270 C278 1.378 . S
C271 C270 1.367 . S
C271 C279 1.433 . S
C272 H268 0.929 . S
C272 C274 1.378 . S
C272 C276 1.350 . S
C273 C276 1.463 . S
C273 C278 1.350 . S
C273 N281 1.427 . S
C274 H265 0.930 . S
C274 C272 1.378 . S
C274 C275 1.367 . S
C275 C274 1.367 . S
C275 C277 1.433 . S
C276 C272 1.350 . S
C276 C273 1.463 . S
C276 N280 1.427 . S
C277 H267 0.929 . S
C277 C275 1.433 . S
C277 N280 1.384 . S
C278 H269 0.929 . S
C278 C270 1.378 . S
C278 C273 1.350 . S
C279 H266 0.929 . S
C279 C271 1.433 . S
C279 N281 1.384 . S
N280 C276 1.427 . S
N280 C277 1.384 . S
N281 C273 1.427 . S
N281 C279 1.384 . S
H282 C288 0.930 . S
H283 C292 0.930 . S
H284 C297 0.929 . S
H285 C295 0.929 . S
H286 C290 0.929 . S
H287 C296 0.929 . S
C288 H282 0.930 . S
C288 C289 1.367 . S
C288 C296 1.378 . S
C289 C288 1.367 . S
C289 C297 1.433 . S
C290 H286 0.929 . S
C290 C292 1.378 . S
C290 C294 1.350 . S
C291 C294 1.463 . S
C291 C296 1.350 . S
C291 N299 1.427 . S
C292 H283 0.930 . S
C292 C290 1.378 . S
C292 C293 1.367 . S
C293 C292 1.367 . S
C293 C295 1.433 . S
C294 C290 1.350 . S
C294 C291 1.463 . S
C294 N298 1.427 . S
C295 H285 0.929 . S
C295 C293 1.433 . S
C295 N298 1.384 . S
C296 H287 0.929 . S
C296 C288 1.378 . S
C296 C291 1.350 . S
C297 H284 0.929 . S
C297 C289 1.433 . S
C297 N299 1.384 . S
N298 C294 1.427 . S
N298 C295 1.384 . S
N299 C291 1.427 . S
N299 C297 1.384 . S
H300 C306 0.930 . S
H301 C310 0.930 . S
H302 C315 0.929 . S
H303 C313 0.929 . S
H304 C308 0.929 . S
H305 C314 0.929 . S
C306 H300 0.930 . S
C306 C307 1.367 . S
C306 C314 1.378 . S
C307 C306 1.367 . S
C307 C315 1.433 . S
C308 H304 0.929 . S
C308 C310 1.378 . S
C308 C312 1.350 . S
C309 C312 1.463 . S
C309 C314 1.350 . S
C309 N317 1.427 . S
C310 H301 0.930 . S
C310 C308 1.378 . S
C310 C311 1.367 . S
C311 C310 1.367 . S
C311 C313 1.433 . S
C312 C308 1.350 . S
C312 C309 1.463 . S
C312 N316 1.427 . S
C313 H303 0.929 . S
C313 C311 1.433 . S
C313 N316 1.384 . S
C314 H305 0.929 . S
C314 C306 1.378 . S
C314 C309 1.350 . S
C315 H302 0.929 . S
C315 C307 1.433 . S
C315 N317 1.384 . S
N316 C312 1.427 . S
N316 C313 1.384 . S
N317 C309 1.427 . S
N317 C315 1.384 . S
H318 C324 0.930 . S
H319 C328 0.930 . S
H320 C333 0.929 . S
H321 C331 0.929 . S
H322 C326 0.929 . S
H323 C332 0.929 . S
C324 H318 0.930 . S
C324 C325 1.367 . S
C324 C332 1.378 . S
C325 C324 1.367 . S
C325 C333 1.433 . S
C326 H322 0.929 . S
C326 C328 1.378 . S
C326 C330 1.350 . S
C327 C330 1.463 . S
C327 C332 1.350 . S
C327 N335 1.427 . S
C328 H319 0.930 . S
C328 C326 1.378 . S
C328 C329 1.367 . S
C329 C328 1.367 . S
C329 C331 1.433 . S
C330 C326 1.350 . S
C330 C327 1.463 . S
C330 N334 1.427 . S
C331 H321 0.929 . S
C331 C329 1.433 . S
C331 N334 1.384 . S
C332 H323 0.929 . S
C332 C324 1.378 . S
C332 C327 1.350 . S
C333 H320 0.929 . S
C333 C325 1.433 . S
C333 N335 1.384 . S
N334 C330 1.427 . S
N334 C331 1.384 . S
N335 C327 1.427 . S
N335 C333 1.384 . S
H336 C342 0.930 . S
H337 C346 0.930 . S
H338 C351 0.929 . S
H339 C349 0.929 . S
H340 C344 0.929 . S
H341 C350 0.929 . S
C342 H336 0.930 . S
C342 C343 1.367 . S
C342 C350 1.378 . S
C343 C342 1.367 . S
C343 C351 1.433 . S
C344 H340 0.929 . S
C344 C346 1.378 . S
C344 C348 1.350 . S
C345 C348 1.463 . S
C345 C350 1.350 . S
C345 N353 1.427 . S
C346 H337 0.930 . S
C346 C344 1.378 . S
C346 C347 1.367 . S
C347 C346 1.367 . S
C347 C349 1.433 . S
C348 C344 1.350 . S
C348 C345 1.463 . S
C348 N352 1.427 . S
C349 H339 0.929 . S
C349 C347 1.433 . S
C349 N352 1.384 . S
C350 H341 0.929 . S
C350 C342 1.378 . S
C350 C345 1.350 . S
C351 H338 0.929 . S
C351 C343 1.433 . S
C351 N353 1.384 . S
N352 C348 1.427 . S
N352 C349 1.384 . S
N353 C345 1.427 . S
N353 C351 1.384 . S
H354 C360 0.930 . S
H355 C364 0.930 . S
H356 C369 0.929 . S
H357 C367 0.929 . S
H358 C362 0.929 . S
H359 C368 0.929 . S
C360 H354 0.930 . S
C360 C361 1.367 . S
C360 C368 1.378 . S
C361 C360 1.367 . S
C361 C369 1.433 . S
C362 H358 0.929 . S
C362 C364 1.378 . S
C362 C366 1.350 . S
C363 C366 1.463 . S
C363 C368 1.350 . S
C363 N371 1.427 . S
C364 H355 0.930 . S
C364 C362 1.378 . S
C364 C365 1.367 . S
C365 C364 1.367 . S
C365 C367 1.433 . S
C366 C362 1.350 . S
C366 C363 1.463 . S
C366 N370 1.427 . S
C367 H357 0.929 . S
C367 C365 1.433 . S
C367 N370 1.384 . S
C368 H359 0.929 . S
C368 C360 1.378 . S
C368 C363 1.350 . S
C369 H356 0.929 . S
C369 C361 1.433 . S
C369 N371 1.384 . S
N370 C366 1.427 . S
N370 C367 1.384 . S
N371 C363 1.427 . S
N371 C369 1.384 . S
H372 C378 0.930 . S
H373 C382 0.930 . S
H374 C387 0.929 . S
H375 C385 0.929 . S
H376 C380 0.929 . S
H377 C386 0.929 . S
C378 H372 0.930 . S
C378 C379 1.367 . S
C378 C386 1.378 . S
C379 C378 1.367 . S
C379 C387 1.433 . S
C380 H376 0.929 . S
C380 C382 1.378 . S
C380 C384 1.350 . S
C381 C384 1.463 1_655 S
C381 C386 1.350 . S
C381 N389 1.427 . S
C382 H373 0.930 . S
C382 C380 1.378 . S
C382 C383 1.367 . S
C383 C382 1.367 . S
C383 C385 1.433 . S
C384 C380 1.350 . S
C384 C381 1.463 1_455 S
C384 N388 1.427 . S
C385 H375 0.929 . S
C385 C383 1.433 . S
C385 N388 1.384 . S
C386 H377 0.929 . S
C386 C378 1.378 . S
C386 C381 1.350 . S
C387 H374 0.929 . S
C387 C379 1.433 . S
C387 N389 1.384 . S
N388 C384 1.427 . S
N388 C385 1.384 . S
N389 C381 1.427 . S
N389 C387 1.384 . S
H390 C396 0.930 . S
H391 C400 0.930 . S
H392 C405 0.929 . S
H393 C403 0.929 . S
H394 C398 0.929 . S
H395 C404 0.929 . S
C396 H390 0.930 . S
C396 C397 1.367 . S
C396 C404 1.378 . S
C397 C396 1.367 . S
C397 C405 1.433 . S
C398 H394 0.929 . S
C398 C400 1.378 . S
C398 C402 1.350 . S
C399 C402 1.463 1_545 S
C399 C404 1.350 . S
C399 N407 1.427 . S
C400 H391 0.930 . S
C400 C398 1.378 . S
C400 C401 1.367 . S
C401 C400 1.367 . S
C401 C403 1.433 . S
C402 C398 1.350 . S
C402 C399 1.463 1_565 S
C402 N406 1.427 . S
C403 H393 0.929 . S
C403 C401 1.433 . S
C403 N406 1.384 . S
C404 H395 0.929 . S
C404 C396 1.378 . S
C404 C399 1.350 . S
C405 H392 0.929 . S
C405 C397 1.433 . S
C405 N407 1.384 . S
N406 C402 1.427 . S
N406 C403 1.384 . S
N407 C399 1.427 . S
N407 C405 1.384 . S
H408 C414 0.930 . S
H409 C418 0.930 . S
H410 C423 0.929 . S
H411 C421 0.929 . S
H412 C416 0.929 . S
H413 C422 0.929 . S
C414 H408 0.930 . S
C414 C415 1.367 . S
C414 C422 1.378 . S
C415 C414 1.367 . S
C415 C423 1.433 . S
C416 H412 0.929 . S
C416 C418 1.378 . S
C416 C420 1.350 . S
C417 C420 1.463 . S
C417 C422 1.350 . S
C417 N425 1.427 . S
C418 H409 0.930 . S
C418 C416 1.378 . S
C418 C419 1.367 . S
C419 C418 1.367 . S
C419 C421 1.433 . S
C420 C416 1.350 . S
C420 C417 1.463 . S
C420 N424 1.427 . S
C421 H411 0.929 . S
C421 C419 1.433 . S
C421 N424 1.384 . S
C422 H413 0.929 . S
C422 C414 1.378 . S
C422 C417 1.350 . S
C423 H410 0.929 . S
C423 C415 1.433 . S
C423 N425 1.384 . S
N424 C420 1.427 . S
N424 C421 1.384 . S
N425 C417 1.427 . S
N425 C423 1.384 . S
H426 C432 0.930 . S
H427 C436 0.930 . S
H428 C441 0.929 . S
H429 C439 0.929 . S
H430 C434 0.929 . S
H431 C440 0.929 . S
C432 H426 0.930 . S
C432 C433 1.367 . S
C432 C440 1.378 . S
C433 C432 1.367 . S
C433 C441 1.433 . S
C434 H430 0.929 . S
C434 C436 1.378 . S
C434 C438 1.350 . S
C435 C438 1.463 1_545 S
C435 C440 1.350 . S
C435 N443 1.427 . S
C436 H427 0.930 . S
C436 C434 1.378 . S
C436 C437 1.367 . S
C437 C436 1.367 . S
C437 C439 1.433 . S
C438 C434 1.350 . S
C438 C435 1.463 1_565 S
C438 N442 1.427 . S
C439 H429 0.929 . S
C439 C437 1.433 . S
C439 N442 1.384 . S
C440 H431 0.929 . S
C440 C432 1.378 . S
C440 C435 1.350 . S
C441 H428 0.929 . S
C441 C433 1.433 . S
C441 N443 1.384 . S
N442 C438 1.427 . S
N442 C439 1.384 . S
N443 C435 1.427 . S
N443 C441 1.384 . S
H444 C450 0.930 . S
H445 C454 0.930 . S
H446 C459 0.929 . S
H447 C457 0.929 . S
H448 C452 0.929 . S
H449 C458 0.929 . S
C450 H444 0.930 . S
C450 C451 1.367 . S
C450 C458 1.378 . S
C451 C450 1.367 . S
C451 C459 1.433 . S
C452 H448 0.929 . S
C452 C454 1.378 . S
C452 C456 1.350 . S
C453 C456 1.463 . S
C453 C458 1.350 . S
C453 N461 1.427 . S
C454 H445 0.930 . S
C454 C452 1.378 . S
C454 C455 1.367 . S
C455 C454 1.367 . S
C455 C457 1.433 . S
C456 C452 1.350 . S
C456 C453 1.463 . S
C456 N460 1.427 . S
C457 H447 0.929 . S
C457 C455 1.433 . S
C457 N460 1.384 . S
C458 H449 0.929 . S
C458 C450 1.378 . S
C458 C453 1.350 . S
C459 H446 0.929 . S
C459 C451 1.433 . S
C459 N461 1.384 . S
N460 C456 1.427 . S
N460 C457 1.384 . S
N461 C453 1.427 . S
N461 C459 1.384 . S
H462 C468 0.930 . S
H463 C472 0.930 . S
H464 C477 0.929 . S
H465 C475 0.929 . S
H466 C470 0.929 . S
H467 C476 0.929 . S
C468 H462 0.930 . S
C468 C469 1.367 . S
C468 C476 1.378 . S
C469 C468 1.367 . S
C469 C477 1.433 . S
C470 H466 0.929 . S
C470 C472 1.378 . S
C470 C474 1.350 . S
C471 C474 1.463 1_455 S
C471 C476 1.350 . S
C471 N479 1.427 . S
C472 H463 0.930 . S
C472 C470 1.378 . S
C472 C473 1.367 . S
C473 C472 1.367 . S
C473 C475 1.433 . S
C474 C470 1.350 . S
C474 C471 1.463 1_655 S
C474 N478 1.427 . S
C475 H465 0.929 . S
C475 C473 1.433 . S
C475 N478 1.384 . S
C476 H467 0.929 . S
C476 C468 1.378 . S
C476 C471 1.350 . S
C477 H464 0.929 . S
C477 C469 1.433 . S
C477 N479 1.384 . S
N478 C474 1.427 . S
N478 C475 1.384 . S
N479 C471 1.427 . S
N479 C477 1.384 . S
H480 C486 0.930 . S
H481 C490 0.930 . S
H482 C495 0.929 . S
H483 C493 0.929 . S
H484 C488 0.929 . S
H485 C494 0.929 . S
C486 H480 0.930 . S
C486 C487 1.367 . S
C486 C494 1.378 . S
C487 C486 1.367 . S
C487 C495 1.433 . S
C488 H484 0.929 . S
C488 C490 1.378 . S
C488 C492 1.350 . S
C489 C492 1.463 . S
C489 C494 1.350 . S
C489 N497 1.427 . S
C490 H481 0.930 . S
C490 C488 1.378 . S
C490 C491 1.367 . S
C491 C490 1.367 . S
C491 C493 1.433 . S
C492 C488 1.350 . S
C492 C489 1.463 . S
C492 N496 1.427 . S
C493 H483 0.929 . S
C493 C491 1.433 . S
C493 N496 1.384 . S
C494 H485 0.929 . S
C494 C486 1.378 . S
C494 C489 1.350 . S
C495 H482 0.929 . S
C495 C487 1.433 . S
C495 N497 1.384 . S
N496 C492 1.427 . S
N496 C493 1.384 . S
N497 C489 1.427 . S
N497 C495 1.384 . S
H498 C504 0.930 . S
H499 C508 0.930 . S
H500 C513 0.929 . S
H501 C511 0.929 . S
H502 C506 0.929 . S
H503 C512 0.929 . S
C504 H498 0.930 . S
C504 C505 1.367 . S
C504 C512 1.378 . S
C505 C504 1.367 . S
C505 C513 1.433 . S
C506 H502 0.929 . S
C506 C508 1.378 . S
C506 C510 1.350 . S
C507 C510 1.463 1_655 S
C507 C512 1.350 . S
C507 N515 1.427 . S
C508 H499 0.930 . S
C508 C506 1.378 . S
C508 C509 1.367 . S
C509 C508 1.367 . S
C509 C511 1.433 . S
C510 C506 1.350 . S
C510 C507 1.463 1_455 S
C510 N514 1.427 . S
C511 H501 0.929 . S
C511 C509 1.433 . S
C511 N514 1.384 . S
C512 H503 0.929 . S
C512 C504 1.378 . S
C512 C507 1.350 . S
C513 H500 0.929 . S
C513 C505 1.433 . S
C513 N515 1.384 . S
N514 C510 1.427 . S
N514 C511 1.384 . S
N515 C507 1.427 . S
N515 C513 1.384 . S
H516 C522 0.930 . S
H517 C526 0.930 . S
H518 C531 0.929 . S
H519 C529 0.929 . S
H520 C524 0.929 . S
H521 C530 0.929 . S
C522 H516 0.930 . S
C522 C523 1.367 . S
C522 C530 1.378 . S
C523 C522 1.367 . S
C523 C531 1.433 . S
C524 H520 0.929 . S
C524 C526 1.378 . S
C524 C528 1.350 . S
C525 C528 1.463 1_545 S
C525 C530 1.350 . S
C525 N533 1.427 . S
C526 H517 0.930 . S
C526 C524 1.378 . S
C526 C527 1.367 . S
C527 C526 1.367 . S
C527 C529 1.433 . S
C528 C524 1.350 . S
C528 C525 1.463 1_565 S
C528 N532 1.427 . S
C529 H519 0.929 . S
C529 C527 1.433 . S
C529 N532 1.384 . S
C530 H521 0.929 . S
C530 C522 1.378 . S
C530 C525 1.350 . S
C531 H518 0.929 . S
C531 C523 1.433 . S
C531 N533 1.384 . S
N532 C528 1.427 . S
N532 C529 1.384 . S
N533 C525 1.427 . S
N533 C531 1.384 . S
H534 C540 0.930 . S
H535 C544 0.930 . S
H536 C549 0.929 . S
H537 C547 0.929 . S
H538 C542 0.929 . S
H539 C548 0.929 . S
C540 H534 0.930 . S
C540 C541 1.367 . S
C540 C548 1.378 . S
C541 C540 1.367 . S
C541 C549 1.433 . S
C542 H538 0.929 . S
C542 C544 1.378 . S
C542 C546 1.350 . S
C543 C546 1.463 . S
C543 C548 1.350 . S
C543 N551 1.427 . S
C544 H535 0.930 . S
C544 C542 1.378 . S
C544 C545 1.367 . S
C545 C544 1.367 . S
C545 C547 1.433 . S
C546 C542 1.350 . S
C546 C543 1.463 . S
C546 N550 1.427 . S
C547 H537 0.929 . S
C547 C545 1.433 . S
C547 N550 1.384 . S
C548 H539 0.929 . S
C548 C540 1.378 . S
C548 C543 1.350 . S
C549 H536 0.929 . S
C549 C541 1.433 . S
C549 N551 1.384 . S
N550 C546 1.427 . S
N550 C547 1.384 . S
N551 C543 1.427 . S
N551 C549 1.384 . S
H552 C558 0.930 . S
H553 C562 0.930 . S
H554 C567 0.929 . S
H555 C565 0.929 . S
H556 C560 0.929 . S
H557 C566 0.929 . S
C558 H552 0.930 . S
C558 C559 1.367 . S
C558 C566 1.378 . S
C559 C558 1.367 . S
C559 C567 1.433 . S
C560 H556 0.929 . S
C560 C562 1.378 . S
C560 C564 1.350 . S
C561 C564 1.463 1_455 S
C561 C566 1.350 . S
C561 N569 1.427 . S
C562 H553 0.930 . S
C562 C560 1.378 . S
C562 C563 1.367 . S
C563 C562 1.367 . S
C563 C565 1.433 . S
C564 C560 1.350 . S
C564 C561 1.463 1_655 S
C564 N568 1.427 . S
C565 H555 0.929 . S
C565 C563 1.433 . S
C565 N568 1.384 . S
C566 H557 0.929 . S
C566 C558 1.378 . S
C566 C561 1.350 . S
C567 H554 0.929 . S
C567 C559 1.433 . S
C567 N569 1.384 . S
N568 C564 1.427 . S
N568 C565 1.384 . S
N569 C561 1.427 . S
N569 C567 1.384 . S
H570 C576 0.930 . S
H571 C580 0.930 . S
H572 C585 0.929 . S
H573 C583 0.929 . S
H574 C578 0.929 . S
H575 C584 0.929 . S
C576 H570 0.930 . S
C576 C577 1.367 . S
C576 C584 1.378 . S
C577 C576 1.367 . S
C577 C585 1.433 . S
C578 H574 0.929 . S
C578 C580 1.378 . S
C578 C582 1.350 . S
C579 C582 1.463 1_565 S
C579 C584 1.350 . S
C579 N587 1.427 . S
C580 H571 0.930 . S
C580 C578 1.378 . S
C580 C581 1.367 . S
C581 C580 1.367 . S
C581 C583 1.433 . S
C582 C578 1.350 . S
C582 C579 1.463 1_545 S
C582 N586 1.427 . S
C583 H573 0.929 . S
C583 C581 1.433 . S
C583 N586 1.384 . S
C584 H575 0.929 . S
C584 C576 1.378 . S
C584 C579 1.350 . S
C585 H572 0.929 . S
C585 C577 1.433 . S
C585 N587 1.384 . S
N586 C582 1.427 . S
N586 C583 1.384 . S
N587 C579 1.427 . S
N587 C585 1.384 . S
C163 C134 1.324 . S
C167 C10 1.333 . S
C181 C17 1.332 . S
C185 C147 1.331 . S
C199 C36 1.334 . S
C203 C82 1.326 . S
C217 C49 1.334 . S
C221 C95 1.326 . S
C235 C108 1.325 . S
C239 C56 1.334 . S
C253 C69 1.334 . S
C257 C127 1.324 . S
C271 C109 1.317 . S
C275 C3 1.315 . S
C289 C18 1.331 . S
C293 C120 1.328 . S
C307 C29 1.327 . S
C311 C135 1.323 . S
C325 C42 1.318 . S
C329 C148 1.316 . S
C343 C83 1.325 . S
C347 C57 1.321 . S
C361 C96 1.315 . S
C365 C70 1.314 . S
C379 C44 1.218 . S
C383 C5 1.217 . S
C397 C16 1.226 . S
C401 C55 1.226 . S
C415 C68 1.226 . S
C419 C31 1.226 . S
C433 C122 1.222 . S
C437 C81 1.219 . S
C451 C133 1.222 . S
C455 C94 1.219 . S
C469 C107 1.225 . S
C473 C146 1.226 . S
C487 C43 1.609 . S
C491 C4 1.608 . S
C505 C23 1.610 . S
C509 C62 1.609 . S
C523 C75 1.610 . S
C527 C30 1.609 . S
C541 C88 1.610 . S
C545 C121 1.611 . S
C559 C140 1.606 . S
C563 C101 1.606 . S
C577 C114 1.607 . S
C581 C153 1.607 . S
