# Generated by pormake.
# Topology ukc, (4)-cn, num edge types: 1
# Building blocks:
#     Node 0, Type 0, BuildingBlock: AZAVOO_clean_sbu_0, # of connection points: 4
#     Node 1, Type 0, BuildingBlock: AZAVOO_clean_sbu_0, # of connection points: 4
#     Node 2, Type 0, BuildingBlock: AZAVOO_clean_sbu_0, # of connection points: 4
#     Node 3, Type 0, BuildingBlock: AZAVOO_clean_sbu_0, # of connection points: 4
#     Node 4, Type 0, BuildingBlock: AZAVOO_clean_sbu_0, # of connection points: 4
#     Node 5, Type 0, BuildingBlock: AZAVOO_clean_sbu_0, # of connection points: 4
#     Node 6, Type 0, BuildingBlock: AZAVOO_clean_sbu_0, # of connection points: 4
#     Node 7, Type 0, BuildingBlock: AZAVOO_clean_sbu_0, # of connection points: 4
#     Node 8, Type 0, BuildingBlock: AZAVOO_clean_sbu_0, # of connection points: 4
#     Node 9, Type 0, BuildingBlock: AZAVOO_clean_sbu_0, # of connection points: 4
#     Node 10, Type 0, BuildingBlock: AZAVOO_clean_sbu_0, # of connection points: 4
#     Node 11, Type 0, BuildingBlock: AZAVOO_clean_sbu_0, # of connection points: 4
#     Node 12, Type 0, BuildingBlock: AZAVOO_clean_sbu_0, # of connection points: 4
#     Node 13, Type 0, BuildingBlock: AZAVOO_clean_sbu_0, # of connection points: 4
#     Node 14, Type 0, BuildingBlock: AZAVOO_clean_sbu_0, # of connection points: 4
#     Node 15, Type 0, BuildingBlock: AZAVOO_clean_sbu_0, # of connection points: 4
#     Node 16, Type 0, BuildingBlock: AZAVOO_clean_sbu_0, # of connection points: 4
#     Node 17, Type 0, BuildingBlock: AZAVOO_clean_sbu_0, # of connection points: 4
#     Node 18, Type 0, BuildingBlock: AZAVOO_clean_sbu_0, # of connection points: 4
#     Node 19, Type 0, BuildingBlock: AZAVOO_clean_sbu_0, # of connection points: 4
#     Node 20, Type 0, BuildingBlock: AZAVOO_clean_sbu_0, # of connection points: 4
#     Node 21, Type 0, BuildingBlock: AZAVOO_clean_sbu_0, # of connection points: 4
#     Node 22, Type 0, BuildingBlock: AZAVOO_clean_sbu_0, # of connection points: 4
#     Node 23, Type 0, BuildingBlock: AZAVOO_clean_sbu_0, # of connection points: 4
#     Node 24, Type 0, BuildingBlock: AZAVOO_clean_sbu_0, # of connection points: 4
#     Node 25, Type 0, BuildingBlock: AZAVOO_clean_sbu_0, # of connection points: 4
#     Node 26, Type 0, BuildingBlock: AZAVOO_clean_sbu_0, # of connection points: 4
#     Node 27, Type 0, BuildingBlock: AZAVOO_clean_sbu_0, # of connection points: 4
#     Node 28, Type 0, BuildingBlock: AZAVOO_clean_sbu_0, # of connection points: 4
#     Node 29, Type 0, BuildingBlock: AZAVOO_clean_sbu_0, # of connection points: 4
#     Node 30, Type 0, BuildingBlock: AZAVOO_clean_sbu_0, # of connection points: 4
#     Node 31, Type 0, BuildingBlock: AZAVOO_clean_sbu_0, # of connection points: 4
#     Edge 32, Type (0, 0), BuildingBlock: ZUJKAS_clean_linker_0, # of connection points: 2
#     Edge 33, Type (0, 0), BuildingBlock: ZUJKAS_clean_linker_0, # of connection points: 2
#     Edge 34, Type (0, 0), BuildingBlock: ZUJKAS_clean_linker_0, # of connection points: 2
#     Edge 35, Type (0, 0), BuildingBlock: ZUJKAS_clean_linker_0, # of connection points: 2
#     Edge 36, Type (0, 0), BuildingBlock: ZUJKAS_clean_linker_0, # of connection points: 2
#     Edge 37, Type (0, 0), BuildingBlock: ZUJKAS_clean_linker_0, # of connection points: 2
#     Edge 38, Type (0, 0), BuildingBlock: ZUJKAS_clean_linker_0, # of connection points: 2
#     Edge 39, Type (0, 0), BuildingBlock: ZUJKAS_clean_linker_0, # of connection points: 2
#     Edge 40, Type (0, 0), BuildingBlock: ZUJKAS_clean_linker_0, # of connection points: 2
#     Edge 41, Type (0, 0), BuildingBlock: ZUJKAS_clean_linker_0, # of connection points: 2
#     Edge 42, Type (0, 0), BuildingBlock: ZUJKAS_clean_linker_0, # of connection points: 2
#     Edge 43, Type (0, 0), BuildingBlock: ZUJKAS_clean_linker_0, # of connection points: 2
#     Edge 44, Type (0, 0), BuildingBlock: ZUJKAS_clean_linker_0, # of connection points: 2
#     Edge 45, Type (0, 0), BuildingBlock: ZUJKAS_clean_linker_0, # of connection points: 2
#     Edge 46, Type (0, 0), BuildingBlock: ZUJKAS_clean_linker_0, # of connection points: 2
#     Edge 47, Type (0, 0), BuildingBlock: ZUJKAS_clean_linker_0, # of connection points: 2
#     Edge 48, Type (0, 0), BuildingBlock: ZUJKAS_clean_linker_0, # of connection points: 2
#     Edge 49, Type (0, 0), BuildingBlock: ZUJKAS_clean_linker_0, # of connection points: 2
#     Edge 50, Type (0, 0), BuildingBlock: ZUJKAS_clean_linker_0, # of connection points: 2
#     Edge 51, Type (0, 0), BuildingBlock: ZUJKAS_clean_linker_0, # of connection points: 2
#     Edge 52, Type (0, 0), BuildingBlock: ZUJKAS_clean_linker_0, # of connection points: 2
#     Edge 53, Type (0, 0), BuildingBlock: ZUJKAS_clean_linker_0, # of connection points: 2
#     Edge 54, Type (0, 0), BuildingBlock: ZUJKAS_clean_linker_0, # of connection points: 2
#     Edge 55, Type (0, 0), BuildingBlock: ZUJKAS_clean_linker_0, # of connection points: 2
#     Edge 56, Type (0, 0), BuildingBlock: ZUJKAS_clean_linker_0, # of connection points: 2
#     Edge 57, Type (0, 0), BuildingBlock: ZUJKAS_clean_linker_0, # of connection points: 2
#     Edge 58, Type (0, 0), BuildingBlock: ZUJKAS_clean_linker_0, # of connection points: 2
#     Edge 59, Type (0, 0), BuildingBlock: ZUJKAS_clean_linker_0, # of connection points: 2
#     Edge 60, Type (0, 0), BuildingBlock: ZUJKAS_clean_linker_0, # of connection points: 2
#     Edge 61, Type (0, 0), BuildingBlock: ZUJKAS_clean_linker_0, # of connection points: 2
#     Edge 62, Type (0, 0), BuildingBlock: ZUJKAS_clean_linker_0, # of connection points: 2
#     Edge 63, Type (0, 0), BuildingBlock: ZUJKAS_clean_linker_0, # of connection points: 2
#     Edge 64, Type (0, 0), BuildingBlock: ZUJKAS_clean_linker_0, # of connection points: 2
#     Edge 65, Type (0, 0), BuildingBlock: ZUJKAS_clean_linker_0, # of connection points: 2
#     Edge 66, Type (0, 0), BuildingBlock: ZUJKAS_clean_linker_0, # of connection points: 2
#     Edge 67, Type (0, 0), BuildingBlock: ZUJKAS_clean_linker_0, # of connection points: 2
#     Edge 68, Type (0, 0), BuildingBlock: ZUJKAS_clean_linker_0, # of connection points: 2
#     Edge 69, Type (0, 0), BuildingBlock: ZUJKAS_clean_linker_0, # of connection points: 2
#     Edge 70, Type (0, 0), BuildingBlock: ZUJKAS_clean_linker_0, # of connection points: 2
#     Edge 71, Type (0, 0), BuildingBlock: ZUJKAS_clean_linker_0, # of connection points: 2
#     Edge 72, Type (0, 0), BuildingBlock: ZUJKAS_clean_linker_0, # of connection points: 2
#     Edge 73, Type (0, 0), BuildingBlock: ZUJKAS_clean_linker_0, # of connection points: 2
#     Edge 74, Type (0, 0), BuildingBlock: ZUJKAS_clean_linker_0, # of connection points: 2
#     Edge 75, Type (0, 0), BuildingBlock: ZUJKAS_clean_linker_0, # of connection points: 2
#     Edge 76, Type (0, 0), BuildingBlock: ZUJKAS_clean_linker_0, # of connection points: 2
#     Edge 77, Type (0, 0), BuildingBlock: ZUJKAS_clean_linker_0, # of connection points: 2
#     Edge 78, Type (0, 0), BuildingBlock: ZUJKAS_clean_linker_0, # of connection points: 2
#     Edge 79, Type (0, 0), BuildingBlock: ZUJKAS_clean_linker_0, # of connection points: 2
#     Edge 80, Type (0, 0), BuildingBlock: ZUJKAS_clean_linker_0, # of connection points: 2
#     Edge 81, Type (0, 0), BuildingBlock: ZUJKAS_clean_linker_0, # of connection points: 2
#     Edge 82, Type (0, 0), BuildingBlock: ZUJKAS_clean_linker_0, # of connection points: 2
#     Edge 83, Type (0, 0), BuildingBlock: ZUJKAS_clean_linker_0, # of connection points: 2
#     Edge 84, Type (0, 0), BuildingBlock: ZUJKAS_clean_linker_0, # of connection points: 2
#     Edge 85, Type (0, 0), BuildingBlock: ZUJKAS_clean_linker_0, # of connection points: 2
#     Edge 86, Type (0, 0), BuildingBlock: ZUJKAS_clean_linker_0, # of connection points: 2
#     Edge 87, Type (0, 0), BuildingBlock: ZUJKAS_clean_linker_0, # of connection points: 2
#     Edge 88, Type (0, 0), BuildingBlock: ZUJKAS_clean_linker_0, # of connection points: 2
#     Edge 89, Type (0, 0), BuildingBlock: ZUJKAS_clean_linker_0, # of connection points: 2
#     Edge 90, Type (0, 0), BuildingBlock: ZUJKAS_clean_linker_0, # of connection points: 2
#     Edge 91, Type (0, 0), BuildingBlock: ZUJKAS_clean_linker_0, # of connection points: 2
#     Edge 92, Type (0, 0), BuildingBlock: ZUJKAS_clean_linker_0, # of connection points: 2
#     Edge 93, Type (0, 0), BuildingBlock: ZUJKAS_clean_linker_0, # of connection points: 2
#     Edge 94, Type (0, 0), BuildingBlock: ZUJKAS_clean_linker_0, # of connection points: 2
#     Edge 95, Type (0, 0), BuildingBlock: ZUJKAS_clean_linker_0, # of connection points: 2
# Relax obj value: 0.063
# Max RMSD: 0.102
# Mean RMSD: 0.102
data_MOF--net-ukc--node1-AZAVOO_clean_sbu_0--edge1-ZUJKAS_clean_linker_0
_symmetry_space_group_name_H-M    P1
_symmetry_Int_Tables_number       1
_symmetry_cell_setting            triclinic
loop_
_symmetry_equiv_pos_as_xyz
'x, y, z'
_cell_length_a     59.030435
_cell_length_b     59.013151
_cell_length_c     108.47648
_cell_angle_alpha  90.001677
_cell_angle_beta   90.018577
_cell_angle_gamma 90.013478
loop_
_atom_site_label
_atom_site_type_symbol
_atom_site_fract_x
_atom_site_fract_y
_atom_site_fract_z
_atom_type_partial_charge
Mg0 Mg 0.09476 0.38477 0.03812 0.0
O1 O 0.07833 0.35288 0.02992 0.0
O2 O 0.09482 0.32286 0.03871 0.0
Mg3 Mg 0.12106 0.33533 0.05262 0.0
C4 C 0.08051 0.33148 0.03123 0.0
C5 C 0.07442 0.42685 0.02673 0.0
O6 O 0.08151 0.43349 0.03764 0.0
O7 O 0.12695 0.37933 0.02684 0.0
O8 O 0.14251 0.35032 0.03702 0.0
O9 O 0.06907 0.38469 0.05311 0.0
O10 O 0.1021 0.3672 0.05426 0.0
C11 C 0.14315 0.3653 0.02853 0.0
C12 C 0.08269 0.37154 0.05914 0.0
O13 O 0.07829 0.40658 0.0234 0.0
Mg14 Mg 0.86797 0.84275 0.28641 0.0
O15 O 0.89905 0.82697 0.27691 0.0
O16 O 0.92956 0.84563 0.28375 0.0
Mg17 Mg 0.9185 0.87234 0.29774 0.0
C18 C 0.92046 0.83032 0.27706 0.0
C19 C 0.82388 0.83195 0.27213 0.0
O20 O 0.81809 0.85075 0.2778 0.0
O21 O 0.87009 0.87425 0.2742 0.0
O22 O 0.89981 0.89186 0.28263 0.0
O23 O 0.87133 0.81841 0.30205 0.0
O24 O 0.88829 0.85178 0.30124 0.0
C25 C 0.8835 0.8912 0.2749 0.0
C26 C 0.88532 0.8328 0.30685 0.0
O27 O 0.84403 0.82467 0.27326 0.0
Mg28 Mg 0.40121 0.61739 0.53396 0.0
O29 O 0.41651 0.64977 0.52561 0.0
O30 O 0.39698 0.67905 0.53328 0.0
Mg31 Mg 0.37061 0.66586 0.54687 0.0
C32 C 0.41256 0.67102 0.52639 0.0
C33 C 0.42443 0.5757 0.52381 0.0
O34 O 0.41767 0.56972 0.53488 0.0
O35 O 0.36968 0.62016 0.52185 0.0
O36 O 0.35146 0.64868 0.53108 0.0
O37 O 0.42558 0.6199 0.54955 0.0
O38 O 0.39156 0.63549 0.54954 0.0
C39 C 0.35252 0.63321 0.52287 0.0
C40 C 0.41075 0.63263 0.55496 0.0
O41 O 0.4197 0.59549 0.51998 0.0
Mg42 Mg 0.63407 0.15021 0.78625 0.0
O43 O 0.60284 0.16652 0.77724 0.0
O44 O 0.57228 0.14835 0.78435 0.0
Mg45 Mg 0.58363 0.12108 0.79795 0.0
C46 C 0.58139 0.16364 0.77765 0.0
C47 C 0.67727 0.17225 0.77666 0.0
O48 O 0.68317 0.16467 0.78759 0.0
O49 O 0.63115 0.11896 0.77397 0.0
O50 O 0.60149 0.10152 0.78254 0.0
O51 O 0.63157 0.17444 0.80195 0.0
O52 O 0.61426 0.14121 0.80129 0.0
C53 C 0.61759 0.10215 0.77468 0.0
C54 C 0.61757 0.16019 0.80686 0.0
O55 O 0.65734 0.16828 0.77279 0.0
Mg56 Mg 0.09282 0.61545 0.44895 0.0
O57 O 0.07843 0.6472 0.45847 0.0
O58 O 0.09713 0.67691 0.45065 0.0
Mg59 Mg 0.12196 0.66478 0.43597 0.0
C60 C 0.08236 0.66848 0.45793 0.0
C61 C 0.06592 0.57546 0.45769 0.0
O62 O 0.06702 0.57364 0.44563 0.0
O63 O 0.12555 0.61761 0.46017 0.0
O64 O 0.14265 0.64676 0.45086 0.0
O65 O 0.06688 0.61896 0.43413 0.0
O66 O 0.10084 0.63458 0.43347 0.0
C67 C 0.14252 0.63085 0.45884 0.0
C68 C 0.08121 0.63193 0.42851 0.0
O69 O 0.07578 0.59211 0.46284 0.0
Mg70 Mg 0.62915 0.84326 0.70053 0.0
O71 O 0.59762 0.8292 0.71035 0.0
O72 O 0.56786 0.84901 0.70343 0.0
Mg73 Mg 0.5797 0.87399 0.68872 0.0
C74 C 0.57643 0.83367 0.71031 0.0
C75 C 0.67118 0.81866 0.70961 0.0
O76 O 0.67561 0.82292 0.69797 0.0
O77 O 0.62827 0.87572 0.71206 0.0
O78 O 0.59925 0.89389 0.70329 0.0
O79 O 0.62465 0.81782 0.68547 0.0
O80 O 0.60893 0.85183 0.6856 0.0
C81 C 0.61556 0.89314 0.71101 0.0
C82 C 0.61099 0.83228 0.68046 0.0
O83 O 0.65252 0.82553 0.7141 0.0
Mg84 Mg 0.40205 0.38044 0.95365 0.0
O85 O 0.42055 0.35017 0.96243 0.0
O86 O 0.40344 0.3187 0.95571 0.0
Mg87 Mg 0.37478 0.32843 0.94264 0.0
C88 C 0.41867 0.3286 0.96211 0.0
C89 C 0.42638 0.42332 0.96197 0.0
O90 O 0.42204 0.42709 0.95026 0.0
O91 O 0.37177 0.37604 0.96656 0.0
O92 O 0.35552 0.34526 0.95846 0.0
O93 O 0.42532 0.37892 0.93748 0.0
O94 O 0.39304 0.36007 0.93874 0.0
C95 C 0.35579 0.36146 0.96626 0.0
C96 C 0.41143 0.36432 0.93278 0.0
O97 O 0.41968 0.40484 0.96676 0.0
Mg98 Mg 0.87002 0.15067 0.20176 0.0
O99 O 0.90034 0.16599 0.21215 0.0
O100 O 0.93143 0.14806 0.20557 0.0
Mg101 Mg 0.92142 0.12207 0.19095 0.0
C102 C 0.92177 0.16288 0.21235 0.0
C103 C 0.82532 0.17067 0.21065 0.0
O104 O 0.82022 0.16245 0.19974 0.0
O105 O 0.87143 0.11842 0.21338 0.0
O106 O 0.9018 0.10146 0.20528 0.0
O107 O 0.87435 0.17616 0.18677 0.0
O108 O 0.89139 0.14279 0.18716 0.0
C109 C 0.88494 0.10157 0.21265 0.0
C110 C 0.88877 0.16222 0.18195 0.0
O111 O 0.84526 0.16781 0.21479 0.0
Mg112 Mg 0.89909 0.61404 0.95082 0.0
O113 O 0.91446 0.64516 0.96038 0.0
O114 O 0.89716 0.67584 0.95283 0.0
Mg115 Mg 0.87122 0.66457 0.93846 0.0
C116 C 0.9117 0.66662 0.95995 0.0
C117 C 0.92011 0.57082 0.96088 0.0
O118 O 0.91294 0.56493 0.94986 0.0
O119 O 0.86675 0.61675 0.96224 0.0
O120 O 0.85028 0.64664 0.95332 0.0
O121 O 0.92482 0.61717 0.93595 0.0
O122 O 0.89123 0.63368 0.93548 0.0
C123 C 0.85011 0.63043 0.96113 0.0
C124 C 0.91082 0.63076 0.93049 0.0
O125 O 0.91613 0.59079 0.96468 0.0
Mg126 Mg 0.13036 0.15548 0.70121 0.0
O127 O 0.09932 0.16946 0.71152 0.0
O128 O 0.06925 0.14964 0.70502 0.0
Mg129 Mg 0.08045 0.12459 0.69019 0.0
C130 C 0.07812 0.16499 0.71178 0.0
C131 C 0.17372 0.17812 0.70996 0.0
O132 O 0.17847 0.1717 0.69865 0.0
O133 O 0.13013 0.12314 0.71279 0.0
O134 O 0.10071 0.10475 0.70455 0.0
O135 O 0.12516 0.18083 0.68623 0.0
O136 O 0.10948 0.1468 0.68657 0.0
C137 C 0.11742 0.10567 0.71201 0.0
C138 C 0.11136 0.16632 0.68137 0.0
O139 O 0.15438 0.17333 0.71438 0.0
Mg140 Mg 0.59951 0.37943 0.45429 0.0
O141 O 0.57926 0.35016 0.46289 0.0
O142 O 0.59708 0.31787 0.45824 0.0
Mg143 Mg 0.62813 0.32621 0.44661 0.0
C144 C 0.58087 0.32859 0.4634 0.0
C145 C 0.57445 0.42347 0.46067 0.0
O146 O 0.58157 0.42744 0.4494 0.0
O147 O 0.62723 0.37651 0.46883 0.0
O148 O 0.64447 0.34455 0.46296 0.0
O149 O 0.5794 0.3761 0.43706 0.0
O150 O 0.61135 0.35767 0.44059 0.0
C151 C 0.64287 0.36175 0.47006 0.0
C152 C 0.59418 0.36126 0.43351 0.0
O153 O 0.57957 0.40475 0.46575 0.0
Mg154 Mg 0.37031 0.84752 0.20115 0.0
O155 O 0.4035 0.83271 0.20896 0.0
O156 O 0.43177 0.8514 0.19968 0.0
Mg157 Mg 0.41741 0.87824 0.18675 0.0
C158 C 0.42462 0.8362 0.20711 0.0
C159 C 0.32931 0.82475 0.2121 0.0
O160 O 0.32289 0.83138 0.20108 0.0
O161 O 0.37399 0.87923 0.21297 0.0
O162 O 0.40171 0.89741 0.20302 0.0
O163 O 0.37139 0.82282 0.18555 0.0
O164 O 0.3874 0.85671 0.18523 0.0
C165 C 0.38693 0.89639 0.2116 0.0
C166 C 0.38411 0.83744 0.17997 0.0
O167 O 0.3493 0.82939 0.21565 0.0
Mg168 Mg 0.90454 0.38226 0.53943 0.0
O169 O 0.92151 0.35126 0.53053 0.0
O170 O 0.90492 0.32025 0.53815 0.0
Mg171 Mg 0.87756 0.33109 0.55176 0.0
C172 C 0.91955 0.32973 0.53118 0.0
C173 C 0.94326 0.40586 0.52548 0.0
O174 O 0.95429 0.39223 0.53294 0.0
O175 O 0.87296 0.37811 0.52748 0.0
O176 O 0.85721 0.34755 0.53616 0.0
O177 O 0.92915 0.38043 0.55497 0.0
O178 O 0.8961 0.36289 0.55481 0.0
C179 C 0.85696 0.3636 0.52826 0.0
C180 C 0.91513 0.36664 0.56024 0.0
O181 O 0.92172 0.40546 0.5255 0.0
Mg182 Mg 0.36391 0.15512 0.28647 0.0
O183 O 0.399 0.16699 0.27991 0.0
O184 O 0.4248 0.14843 0.29114 0.0
Mg185 Mg 0.4067 0.12327 0.30373 0.0
C186 C 0.41956 0.16298 0.2829 0.0
C187 C 0.3259 0.16888 0.26907 0.0
O188 O 0.31675 0.15274 0.27578 0.0
O189 O 0.36731 0.12225 0.27549 0.0
O190 O 0.39302 0.10407 0.28696 0.0
O191 O 0.36545 0.18097 0.30159 0.0
O192 O 0.37718 0.14553 0.30332 0.0
C193 C 0.3796 0.1049 0.27772 0.0
C194 C 0.37524 0.16537 0.30808 0.0
O195 O 0.34668 0.17363 0.27069 0.0
Mg196 Mg 0.59248 0.62247 0.0366 0.0
O197 O 0.57696 0.65355 0.02698 0.0
O198 O 0.59687 0.68379 0.03317 0.0
Mg199 Mg 0.62342 0.67274 0.04723 0.0
C200 C 0.58107 0.67483 0.02677 0.0
C201 C 0.56684 0.5802 0.02862 0.0
O202 O 0.57137 0.57651 0.04031 0.0
O203 O 0.62373 0.62366 0.02416 0.0
O204 O 0.64225 0.65317 0.03223 0.0
O205 O 0.56869 0.62678 0.05245 0.0
O206 O 0.60232 0.64307 0.05114 0.0
C207 C 0.64101 0.63667 0.02465 0.0
C208 C 0.58352 0.64063 0.05698 0.0
O209 O 0.57381 0.59847 0.0237 0.0
Mg210 Mg 0.13462 0.84778 0.7864 0.0
O211 O 0.10198 0.83487 0.77723 0.0
O212 O 0.07319 0.85464 0.78524 0.0
Mg213 Mg 0.08699 0.87898 0.79977 0.0
C214 C 0.08088 0.83953 0.77793 0.0
C215 C 0.17615 0.82514 0.77569 0.0
O216 O 0.18262 0.83202 0.78667 0.0
O217 O 0.13363 0.88061 0.77527 0.0
O218 O 0.10556 0.899 0.7848 0.0
O219 O 0.13034 0.82185 0.8011 0.0
O220 O 0.11635 0.85654 0.80205 0.0
C221 C 0.12127 0.89818 0.77671 0.0
C222 C 0.11803 0.83664 0.80683 0.0
O223 O 0.15618 0.82975 0.77212 0.0
Mg224 Mg 0.59542 0.88508 0.5377 0.0
O225 O 0.57929 0.8536 0.52886 0.0
O226 O 0.59623 0.82313 0.53692 0.0
Mg227 Mg 0.62276 0.83488 0.55084 0.0
C228 C 0.58169 0.83214 0.5297 0.0
C229 C 0.57739 0.92871 0.52633 0.0
O230 O 0.58717 0.93567 0.53653 0.0
O231 O 0.62738 0.88098 0.52608 0.0
O232 O 0.64345 0.85121 0.53534 0.0
O233 O 0.57007 0.88323 0.55287 0.0
O234 O 0.60347 0.86633 0.55331 0.0
C235 C 0.64368 0.8669 0.52723 0.0
C236 C 0.5841 0.8698 0.55842 0.0
O237 O 0.57846 0.90782 0.52355 0.0
Mg238 Mg 0.36891 0.3456 0.78651 0.0
O239 O 0.40128 0.3304 0.77812 0.0
O240 O 0.43058 0.34961 0.786 0.0
Mg241 Mg 0.41738 0.37575 0.79974 0.0
C242 C 0.42253 0.33424 0.77897 0.0
C243 C 0.32739 0.32229 0.77634 0.0
O244 O 0.32157 0.32872 0.78749 0.0
O245 O 0.372 0.37725 0.77453 0.0
O246 O 0.40051 0.39519 0.78396 0.0
O247 O 0.37114 0.32109 0.80207 0.0
O248 O 0.3868 0.35508 0.80217 0.0
C249 C 0.38516 0.39432 0.77567 0.0
C250 C 0.38371 0.33593 0.80759 0.0
O251 O 0.34706 0.32729 0.77243 0.0
Mg252 Mg 0.90464 0.11361 0.03894 0.0
O253 O 0.91865 0.14641 0.03042 0.0
O254 O 0.89936 0.17523 0.03876 0.0
Mg255 Mg 0.87433 0.16126 0.05288 0.0
C256 C 0.91446 0.16757 0.03144 0.0
C257 C 0.92532 0.07175 0.02747 0.0
O258 O 0.91731 0.06473 0.03811 0.0
O259 O 0.87218 0.11617 0.02759 0.0
O260 O 0.85427 0.14428 0.03736 0.0
O261 O 0.93029 0.11631 0.05388 0.0
O262 O 0.89599 0.13123 0.05481 0.0
C263 C 0.85496 0.129 0.02903 0.0
C264 C 0.91571 0.12872 0.05971 0.0
O265 O 0.92229 0.09231 0.02441 0.0
Mg266 Mg 0.13503 0.65379 0.28613 0.0
O267 O 0.10398 0.66881 0.27615 0.0
O268 O 0.07391 0.64828 0.28196 0.0
Mg269 Mg 0.08506 0.62152 0.29582 0.0
C270 C 0.08279 0.66435 0.27573 0.0
C271 C 0.17826 0.67797 0.27829 0.0
O272 O 0.18286 0.67101 0.28952 0.0
O273 O 0.13526 0.62276 0.27355 0.0
O274 O 0.1052 0.60375 0.28065 0.0
O275 O 0.1294 0.67752 0.30177 0.0
O276 O 0.11393 0.64347 0.3004 0.0
C277 C 0.12218 0.60553 0.27342 0.0
C278 C 0.11556 0.66252 0.30614 0.0
O279 O 0.15912 0.67307 0.27363 0.0
Mg280 Mg 0.5982 0.11641 0.9517 0.0
O281 O 0.58453 0.14924 0.96037 0.0
O282 O 0.6043 0.17795 0.95226 0.0
Mg283 Mg 0.62943 0.16394 0.93823 0.0
C284 C 0.589 0.17037 0.95949 0.0
C285 C 0.57666 0.07455 0.96268 0.0
O286 O 0.58546 0.06757 0.95222 0.0
O287 O 0.63038 0.11832 0.96332 0.0
O288 O 0.64885 0.14637 0.9538 0.0
O289 O 0.57302 0.11955 0.93655 0.0
O290 O 0.60744 0.13422 0.93595 0.0
C291 C 0.64779 0.13097 0.96205 0.0
C292 C 0.58787 0.13183 0.93086 0.0
O293 O 0.57969 0.09504 0.96589 0.0
Mg294 Mg 0.12852 0.34594 0.20246 0.0
O295 O 0.09863 0.32983 0.21292 0.0
O296 O 0.06775 0.35003 0.20817 0.0
Mg297 Mg 0.07721 0.37753 0.19435 0.0
C298 C 0.07743 0.33386 0.21394 0.0
C299 C 0.1714 0.31966 0.20828 0.0
O300 O 0.17362 0.32514 0.1966 0.0
O301 O 0.12931 0.37649 0.21542 0.0
O302 O 0.0986 0.39525 0.20902 0.0
O303 O 0.12208 0.32299 0.18655 0.0
O304 O 0.10628 0.3567 0.18875 0.0
C305 C 0.11612 0.39362 0.21587 0.0
C306 C 0.10794 0.33809 0.1826 0.0
O307 O 0.15391 0.32635 0.21406 0.0
Mg308 Mg 0.90176 0.88254 0.45143 0.0
O309 O 0.9181 0.85096 0.46009 0.0
O310 O 0.90064 0.82068 0.45215 0.0
Mg311 Mg 0.87362 0.83256 0.43858 0.0
C312 C 0.91552 0.82952 0.45922 0.0
C313 C 0.92254 0.92549 0.46172 0.0
O314 O 0.91457 0.9316 0.45091 0.0
O315 O 0.87028 0.87859 0.46341 0.0
O316 O 0.85358 0.84899 0.45431 0.0
O317 O 0.92652 0.8808 0.43602 0.0
O318 O 0.89314 0.86383 0.43586 0.0
C319 C 0.85381 0.86466 0.46243 0.0
C320 C 0.91234 0.86739 0.43056 0.0
O321 O 0.91931 0.90528 0.46535 0.0
Mg322 Mg 0.3648 0.65164 0.6996 0.0
O323 O 0.39551 0.66848 0.70885 0.0
O324 O 0.42662 0.6513 0.70171 0.0
Mg325 Mg 0.41614 0.62437 0.68771 0.0
C326 C 0.41703 0.66608 0.70855 0.0
C327 C 0.32114 0.67276 0.70935 0.0
O328 O 0.31543 0.66594 0.69824 0.0
O329 O 0.36869 0.62016 0.71164 0.0
O330 O 0.39895 0.60391 0.70299 0.0
O331 O 0.36666 0.67636 0.68407 0.0
O332 O 0.38492 0.64364 0.68454 0.0
C333 C 0.38284 0.60385 0.71085 0.0
C334 C 0.38105 0.66261 0.67907 0.0
O335 O 0.34104 0.66864 0.71322 0.0
Mg336 Mg 0.40102 0.11678 0.45096 0.0
O337 O 0.41314 0.15036 0.45939 0.0
O338 O 0.39209 0.17812 0.45127 0.0
Mg339 Mg 0.36664 0.16252 0.43787 0.0
C340 C 0.40793 0.17129 0.45838 0.0
C341 C 0.4231 0.0756 0.46249 0.0
O342 O 0.41245 0.0676 0.45278 0.0
O343 O 0.36926 0.11683 0.46306 0.0
O344 O 0.34936 0.14434 0.45391 0.0
O345 O 0.42523 0.12221 0.43539 0.0
O346 O 0.38959 0.13374 0.43547 0.0
C347 C 0.35141 0.12897 0.46213 0.0
C348 C 0.40896 0.1332 0.43007 0.0
O349 O 0.42137 0.09658 0.46495 0.0
Mg350 Mg 0.63599 0.65142 0.20159 0.0
O351 O 0.60227 0.66609 0.20876 0.0
O352 O 0.57446 0.64896 0.1983 0.0
Mg353 Mg 0.58964 0.62236 0.18556 0.0
C354 C 0.58129 0.66339 0.20624 0.0
C355 C 0.6528 0.69035 0.21828 0.0
O356 O 0.63705 0.70059 0.21178 0.0
O357 O 0.6309 0.61919 0.21291 0.0
O358 O 0.60334 0.60247 0.20209 0.0
O359 O 0.63605 0.67691 0.18641 0.0
O360 O 0.62051 0.64297 0.18494 0.0
C361 C 0.61741 0.6026 0.21104 0.0
C362 C 0.62413 0.66258 0.18012 0.0
O363 O 0.65578 0.66918 0.21683 0.0
Mg364 Mg 0.09021 0.8786 0.9489 0.0
O365 O 0.0755 0.84716 0.95854 0.0
O366 O 0.0947 0.81712 0.95146 0.0
Mg367 Mg 0.11987 0.82878 0.9368 0.0
C368 C 0.07956 0.82588 0.95839 0.0
C369 C 0.07066 0.92246 0.95929 0.0
O370 O 0.07902 0.92878 0.9486 0.0
O371 O 0.12255 0.87672 0.96043 0.0
O372 O 0.1402 0.84746 0.95157 0.0
O373 O 0.06469 0.87506 0.93384 0.0
O374 O 0.09833 0.85856 0.93386 0.0
C375 C 0.13968 0.86364 0.95938 0.0
C376 C 0.07885 0.86121 0.92873 0.0
O377 O 0.07305 0.90197 0.96265 0.0
Mg378 Mg 0.86888 0.34796 0.70417 0.0
O379 O 0.89977 0.33162 0.71351 0.0
O380 O 0.93064 0.34898 0.70621 0.0
Mg381 Mg 0.91988 0.37574 0.69217 0.0
C382 C 0.92126 0.33418 0.71311 0.0
C383 C 0.8252 0.32713 0.7139 0.0
O384 O 0.81948 0.33452 0.70291 0.0
O385 O 0.87222 0.37974 0.71605 0.0
O386 O 0.90221 0.39624 0.70727 0.0
O387 O 0.87117 0.32299 0.68876 0.0
O388 O 0.88897 0.35597 0.68909 0.0
C389 C 0.88608 0.39627 0.71511 0.0
C390 C 0.88544 0.33683 0.68373 0.0
O391 O 0.84518 0.33083 0.71777 0.0
Mg392 Mg 0.39737 0.88587 0.03475 0.0
O393 O 0.41342 0.85421 0.02606 0.0
O394 O 0.39589 0.82396 0.03396 0.0
Mg395 Mg 0.36884 0.83599 0.04748 0.0
C396 C 0.41079 0.83277 0.0269 0.0
C397 C 0.41831 0.92876 0.02435 0.0
O398 O 0.40971 0.93523 0.03496 0.0
O399 O 0.3659 0.88228 0.02271 0.0
O400 O 0.34908 0.85267 0.03172 0.0
O401 O 0.42204 0.88376 0.0502 0.0
O402 O 0.38847 0.86717 0.05027 0.0
C403 C 0.34939 0.8684 0.02363 0.0
C404 C 0.40768 0.87048 0.0556 0.0
O405 O 0.41531 0.90842 0.02088 0.0
Mg406 Mg 0.86938 0.65685 0.78735 0.0
O407 O 0.89953 0.67398 0.77773 0.0
O408 O 0.93103 0.65684 0.78438 0.0
Mg409 Mg 0.92141 0.62976 0.79848 0.0
C410 C 0.92106 0.67168 0.77774 0.0
C411 C 0.82615 0.68021 0.7787 0.0
O412 O 0.82215 0.67606 0.7904 0.0
O413 O 0.87276 0.62533 0.77527 0.0
O414 O 0.90335 0.6091 0.78358 0.0
O415 O 0.8719 0.6815 0.80291 0.0
O416 O 0.89026 0.64887 0.80212 0.0
C417 C 0.88686 0.60896 0.77596 0.0
C418 C 0.88656 0.66777 0.80769 0.0
O419 O 0.84481 0.67367 0.77407 0.0
Mg420 Mg 0.09488 0.11503 0.53856 0.0
O421 O 0.08207 0.14793 0.52957 0.0
O422 O 0.10187 0.17646 0.53786 0.0
Mg423 Mg 0.12619 0.16226 0.55228 0.0
C424 C 0.08678 0.16901 0.53046 0.0
C425 C 0.07367 0.07323 0.52741 0.0
O426 O 0.0819 0.0664 0.53804 0.0
O427 O 0.12769 0.11621 0.52745 0.0
O428 O 0.14617 0.1441 0.53711 0.0
O429 O 0.06896 0.11892 0.55327 0.0
O430 O 0.10363 0.13293 0.55434 0.0
C431 C 0.14526 0.12855 0.52893 0.0
C432 C 0.08374 0.13107 0.55912 0.0
O433 O 0.07688 0.09367 0.52417 0.0
Mg434 Mg 0.63559 0.34413 0.28643 0.0
O435 O 0.60208 0.32819 0.27984 0.0
O436 O 0.57427 0.34579 0.29004 0.0
Mg437 Mg 0.58932 0.3731 0.30244 0.0
C438 C 0.5811 0.33087 0.28237 0.0
C439 C 0.67579 0.32278 0.27411 0.0
O440 O 0.68339 0.33095 0.2846 0.0
O441 O 0.62949 0.37562 0.27471 0.0
O442 O 0.60229 0.39274 0.28561 0.0
O443 O 0.63691 0.31958 0.30201 0.0
O444 O 0.62067 0.35324 0.30308 0.0
C445 C 0.61605 0.39226 0.27652 0.0
C446 C 0.62511 0.3341 0.30823 0.0
O447 O 0.65515 0.32611 0.2713 0.0
H448 H 0.9419 0.57923 0.9827 0.0
H449 H 0.96823 0.55422 0.99362 0.0
H450 H 0.95695 0.50206 0.96645 0.0
H451 H 0.93089 0.52698 0.9554 0.0
H452 H 0.9618 0.51078 0.00366 0.0
H453 H 0.02598 0.50974 0.96623 0.0
H454 H 0.00311 0.53002 0.96669 0.0
H455 H 0.998 0.50155 0.96149 0.0
C456 C 0.94492 0.5624 0.97909 0.0
C457 C 0.93445 0.55516 0.96812 0.0
C458 C 0.95998 0.54815 0.98532 0.0
C459 C 0.96487 0.5265 0.98069 0.0
C460 C 0.95381 0.51892 0.97001 0.0
H461 H 0.05275 0.41709 0.00501 0.0
H462 H 0.02622 0.44134 0.99371 0.0
C463 C 0.93881 0.53315 0.96376 0.0
C464 C 0.98158 0.51185 0.98701 0.0
H465 H 0.0323 0.48496 0.98308 0.0
C466 C 0.97725 0.50519 -0.00081 0.0
C467 C 0.00169 0.50458 0.98112 0.0
C468 C 0.00765 0.51197 0.9682 0.0
C469 C 0.99238 0.49115 0.00561 0.0
C470 C 0.01253 0.48395 -0.00027 0.0
C471 C 0.01682 0.49052 0.98753 0.0
C472 C 0.02947 0.46977 0.00618 0.0
C473 C 0.98648 0.48382 0.01854 0.0
C474 C 0.04054 0.47802 0.0167 0.0
C475 C 0.05567 0.46426 0.02316 0.0
C476 C 0.06011 0.44202 0.01917 0.0
C477 C 0.04965 0.43411 0.00834 0.0
C478 C 0.03448 0.44792 0.00188 0.0
H479 H 0.96813 0.48593 0.02051 0.0
H480 H 0.99117 0.46582 0.0201 0.0
H481 H 0.99605 0.49438 0.02522 0.0
H482 H 0.03727 0.49503 0.01999 0.0
H483 H 0.06357 0.47094 0.0314 0.0
H484 H 0.64965 0.73513 0.22438 0.0
H485 H 0.67859 0.75866 0.23424 0.0
H486 H 0.7215 0.70011 0.23856 0.0
H487 H 0.69265 0.67635 0.22874 0.0
H488 H 0.70254 0.75206 0.25875 0.0
H489 H 0.75784 0.74866 0.21721 0.0
H490 H 0.72787 0.74256 0.21656 0.0
H491 H 0.74707 0.72216 0.22297 0.0
C492 C 0.66512 0.72718 0.22756 0.0
C493 C 0.66892 0.7039 0.22569 0.0
C494 C 0.68161 0.74065 0.23319 0.0
C495 C 0.70222 0.73112 0.23695 0.0
C496 C 0.70574 0.70776 0.23558 0.0
H497 H 0.82838 0.78887 0.26314 0.0
H498 H 0.79863 0.76461 0.25468 0.0
C499 C 0.68919 0.69422 0.23003 0.0
C500 C 0.72041 0.74583 0.24181 0.0
H501 H 0.77186 0.76847 0.23445 0.0
C502 C 0.71771 0.7557 0.25347 0.0
C503 C 0.74013 0.75043 0.23486 0.0
C504 C 0.74349 0.74057 0.22216 0.0
C505 C 0.73447 0.76987 0.25848 0.0
C506 C 0.75411 0.77475 0.25145 0.0
C507 C 0.75677 0.76478 0.23979 0.0
C508 C 0.77223 0.78992 0.2561 0.0
C509 C 0.73121 0.77901 0.27135 0.0
C510 C 0.76743 0.81243 0.25935 0.0
C511 C 0.78437 0.82632 0.26426 0.0
C512 C 0.80651 0.81803 0.26584 0.0
C513 C 0.81149 0.79578 0.26206 0.0
C514 C 0.7945 0.78186 0.25725 0.0
H515 H 0.71883 0.76873 0.27666 0.0
H516 H 0.74748 0.77938 0.27649 0.0
H517 H 0.72458 0.79657 0.27079 0.0
H518 H 0.75051 0.81921 0.25821 0.0
H519 H 0.78002 0.84344 0.26697 0.0
H520 H 0.56115 0.46515 0.45244 0.0
H521 H 0.53539 0.49176 0.46252 0.0
H522 H 0.52851 0.446 0.49328 0.0
H523 H 0.55415 0.41915 0.48324 0.0
H524 H 0.4868 0.46265 0.48346 0.0
H525 H 0.54816 0.53201 0.4929 0.0
H526 H 0.54753 0.52202 0.47725 0.0
H527 H 0.557 0.50346 0.48932 0.0
C528 C 0.55431 0.46079 0.46139 0.0
C529 C 0.55974 0.44004 0.46705 0.0
C530 C 0.53967 0.47607 0.46716 0.0
C531 C 0.53027 0.47093 0.47869 0.0
C532 C 0.53569 0.45029 0.48439 0.0
H533 H 0.4372 0.53266 0.5297 0.0
H534 H 0.46191 0.50742 0.51804 0.0
C535 C 0.55037 0.43501 0.47865 0.0
C536 C 0.51414 0.48671 0.48463 0.0
H537 H 0.50959 0.53958 0.49715 0.0
C538 C 0.49176 0.47946 0.48647 0.0
C539 C 0.52067 0.50866 0.48845 0.0
C540 C 0.54468 0.51702 0.48699 0.0
C541 C 0.47565 0.49366 0.49202 0.0
C542 C 0.48227 0.51549 0.49603 0.0
C543 C 0.50458 0.52284 0.49403 0.0
C544 C 0.46657 0.53059 0.5028 0.0
C545 C 0.45164 0.48525 0.49342 0.0
C546 C 0.46128 0.55217 0.49818 0.0
C547 C 0.44721 0.56675 0.50487 0.0
C548 C 0.43836 0.56003 0.51634 0.0
C549 C 0.44363 0.53834 0.52088 0.0
C550 C 0.45766 0.52381 0.5142 0.0
H551 H 0.44783 0.47134 0.48683 0.0
H552 H 0.44927 0.47855 0.50289 0.0
H553 H 0.43927 0.49916 0.49195 0.0
H554 H 0.46813 0.55775 0.48942 0.0
H555 H 0.44354 0.58337 0.50114 0.0
H556 H 0.78137 0.31675 0.70821 0.0
H557 H 0.75597 0.29102 0.71918 0.0
H558 H 0.80767 0.2791 0.74652 0.0
H559 H 0.83313 0.30507 0.7357 0.0
H560 H 0.76387 0.24532 0.72374 0.0
H561 H 0.75174 0.29268 0.76747 0.0
H562 H 0.76317 0.30571 0.75376 0.0
H563 H 0.78085 0.28821 0.76332 0.0
C564 C 0.78727 0.30889 0.71664 0.0
C565 C 0.80927 0.31298 0.72109 0.0
C566 C 0.77274 0.29416 0.72288 0.0
C567 C 0.77986 0.28333 0.73371 0.0
C568 C 0.80169 0.28762 0.7383 0.0
H569 H 0.72097 0.18314 0.78235 0.0
H570 H 0.74604 0.20923 0.77141 0.0
C571 C 0.81624 0.3024 0.73207 0.0
C572 C 0.76487 0.26667 0.73984 0.0
H573 H 0.73783 0.25494 0.7669 0.0
C574 C 0.75806 0.24745 0.73316 0.0
C575 C 0.75741 0.2695 0.75212 0.0
C576 C 0.76347 0.29023 0.75957 0.0
C577 C 0.74428 0.23077 0.73851 0.0
C578 C 0.73684 0.23359 0.7508 0.0
C579 C 0.74363 0.25281 0.75748 0.0
C580 C 0.72197 0.21684 0.75695 0.0
C581 C 0.73822 0.21003 0.73106 0.0
C582 C 0.70015 0.21241 0.7524 0.0
C583 C 0.68579 0.19741 0.75861 0.0
C584 C 0.69295 0.18676 0.76953 0.0
C585 C 0.71493 0.19105 0.77396 0.0
C586 C 0.72927 0.20598 0.76774 0.0
H587 H 0.74989 0.20764 0.72313 0.0
H588 H 0.73864 0.19454 0.73687 0.0
H589 H 0.72081 0.21199 0.72736 0.0
H590 H 0.69404 0.22094 0.74421 0.0
H591 H 0.66891 0.1946 0.755 0.0
H592 H 0.926 0.43643 0.50894 0.0
H593 H 0.94691 0.46498 0.49715 0.0
H594 H 0.00949 0.44201 0.51342 0.0
H595 H 0.98888 0.4132 0.52503 0.0
H596 H 0.97325 0.50005 0.50596 0.0
H597 H 0.02449 0.44223 0.47687 0.0
H598 H 0.00027 0.43265 0.48558 0.0
H599 H 0.02715 0.43671 0.49307 0.0
C600 C 0.94424 0.4373 0.50991 0.0
C601 C 0.95579 0.42247 0.51788 0.0
C602 C 0.95614 0.45366 0.5032 0.0
C603 C 0.97977 0.45542 0.5043 0.0
C604 C 0.99132 0.44064 0.51224 0.0
H605 H 0.06269 0.57157 0.48286 0.0
H606 H 0.04171 0.5428 0.49451 0.0
C607 C 0.97947 0.42424 0.51891 0.0
C608 C 0.99229 0.47315 0.49745 0.0
H609 H 0.03494 0.48115 0.47668 0.0
C610 C 0.98669 0.49595 0.49951 0.0
C611 C 0.00966 0.46771 0.48897 0.0
C612 C 0.01563 0.4435 0.48588 0.0
C613 C 0.99816 0.51351 0.49341 0.0
C614 C 0.01599 0.50809 0.48522 0.0
C615 C 0.02143 0.48527 0.48307 0.0
C616 C 0.02862 0.52572 0.47834 0.0
C617 C 0.99077 0.53766 0.49559 0.0
C618 C 0.02864 0.52533 0.46542 0.0
C619 C 0.04076 0.54152 0.45878 0.0
C620 C 0.05316 0.55846 0.46491 0.0
C621 C 0.0532 0.55882 0.47787 0.0
C622 C 0.04111 0.54248 0.48454 0.0
H623 H 0.97346 0.53853 0.49959 0.0
H624 H 0.00261 0.54582 0.50218 0.0
H625 H 0.99102 0.54754 0.48688 0.0
H626 H 0.01917 0.51251 0.46046 0.0
H627 H 0.04034 0.54074 0.4488 0.0
H628 H 0.71224 0.80193 0.70253 0.0
H629 H 0.73805 0.77819 0.71449 0.0
H630 H 0.69256 0.78117 0.74554 0.0
H631 H 0.66642 0.80478 0.73359 0.0
H632 H 0.75956 0.78748 0.73709 0.0
H633 H 0.70254 0.71277 0.74038 0.0
H634 H 0.69773 0.73559 0.72961 0.0
H635 H 0.69044 0.73901 0.74559 0.0
C636 C 0.70768 0.79756 0.7119 0.0
C637 C 0.6872 0.80513 0.71709 0.0
C638 C 0.72247 0.78401 0.71872 0.0
C639 C 0.71703 0.77765 0.73081 0.0
C640 C 0.69684 0.78554 0.73613 0.0
H641 H 0.78502 0.69645 0.78604 0.0
H642 H 0.75879 0.72009 0.77428 0.0
C643 C 0.68201 0.79914 0.72931 0.0
C644 C 0.73265 0.76289 0.73785 0.0
H645 H 0.73682 0.7111 0.7517 0.0
C646 C 0.75464 0.77075 0.74026 0.0
C647 C 0.72613 0.7411 0.74195 0.0
C648 C 0.703 0.73146 0.73918 0.0
C649 C 0.77024 0.7575 0.74685 0.0
C650 C 0.76374 0.73568 0.75092 0.0
C651 C 0.74173 0.72784 0.74853 0.0
C652 C 0.77947 0.72083 0.75782 0.0
C653 C 0.79337 0.76714 0.74961 0.0
C654 C 0.79957 0.71306 0.75237 0.0
C655 C 0.81462 0.69953 0.75906 0.0
C656 C 0.80976 0.69348 0.77132 0.0
C657 C 0.78932 0.70086 0.77664 0.0
C658 C 0.7743 0.71436 0.76994 0.0
H659 H 0.79377 0.78585 0.7485 0.0
H660 H 0.79872 0.76287 0.75915 0.0
H661 H 0.8059 0.75973 0.74314 0.0
H662 H 0.80364 0.71752 0.74294 0.0
H663 H 0.83016 0.69403 0.75468 0.0
H664 H 0.44011 0.42017 0.98606 0.0
H665 H 0.46345 0.44723 -0.00243 0.0
H666 H 0.46669 0.49057 0.96562 0.0
H667 H 0.44323 0.46387 0.95411 0.0
H668 H 0.50744 0.4619 0.99161 0.0
H669 H 0.44726 0.53411 0.99304 0.0
H670 H 0.43852 0.50563 0.98924 0.0
H671 H 0.45221 0.52304 0.97786 0.0
C672 C 0.44562 0.43556 0.98152 0.0
C673 C 0.43973 0.43991 0.96918 0.0
C674 C 0.45897 0.45097 0.9881 0.0
C675 C 0.46652 0.47103 0.98249 0.0
C676 C 0.46065 0.47541 0.9702 0.0
H677 H 0.55282 0.58318 0.00457 0.0
H678 H 0.52919 0.55613 0.99323 0.0
C679 C 0.44733 0.46005 0.96361 0.0
C680 C 0.4813 0.48698 0.98931 0.0
H681 H 0.48505 0.54167 -0.00063 0.0
C682 C 0.50251 0.47931 0.99339 0.0
C683 C 0.47483 0.50969 0.99154 0.0
C684 C 0.45189 0.51861 0.9878 0.0
C685 C 0.51765 0.49388 -0.00054 0.0
C686 C 0.5112 0.5166 0.00167 0.0
C687 C 0.48997 0.52426 -0.00239 0.0
C688 C 0.52604 0.53259 0.00842 0.0
C689 C 0.5406 0.48496 0.00321 0.0
C690 C 0.53194 0.52835 0.02073 0.0
C691 C 0.54542 0.5437 0.02721 0.0
C692 C 0.55316 0.56369 0.02154 0.0
C693 C 0.54721 0.56791 0.0092 0.0
C694 C 0.53369 0.55251 0.00271 0.0
H695 H 0.54516 0.46937 -0.00196 0.0
H696 H 0.55398 0.49789 0.00169 0.0
H697 H 0.54032 0.48071 0.01317 0.0
H698 H 0.52584 0.51329 0.02538 0.0
H699 H 0.54958 0.53998 0.03673 0.0
H700 H 0.78135 0.17934 0.20437 0.0
H701 H 0.75502 0.20535 0.2145 0.0
H702 H 0.8053 0.22013 0.24219 0.0
H703 H 0.83186 0.19426 0.2321 0.0
H704 H 0.73848 0.20574 0.23935 0.0
H705 H 0.78802 0.2829 0.22779 0.0
H706 H 0.79261 0.256 0.22025 0.0
H707 H 0.80385 0.26098 0.23541 0.0
C708 C 0.7868 0.18802 0.21266 0.0
C709 C 0.80878 0.18487 0.21738 0.0
C710 C 0.77172 0.20287 0.21842 0.0
C711 C 0.77839 0.21492 0.22895 0.0
C712 C 0.80002 0.21127 0.23393 0.0
H713 H 0.72031 0.3129 0.27793 0.0
H714 H 0.74416 0.2869 0.26624 0.0
C715 C 0.81511 0.19638 0.2282 0.0
C716 C 0.76279 0.2315 0.23465 0.0
H717 H 0.75705 0.28766 0.24148 0.0
C718 C 0.74241 0.22368 0.23976 0.0
C719 C 0.768 0.25487 0.23509 0.0
C720 C 0.78921 0.2643 0.22925 0.0
C721 C 0.7274 0.23856 0.2457 0.0
C722 C 0.73278 0.2619 0.24629 0.0
C723 C 0.75299 0.26975 0.24099 0.0
C724 C 0.71825 0.2783 0.25294 0.0
C725 C 0.70632 0.22908 0.25164 0.0
C726 C 0.69589 0.28248 0.24915 0.0
C727 C 0.68214 0.29738 0.25584 0.0
C728 C 0.69059 0.30838 0.26638 0.0
C729 C 0.71322 0.30465 0.26989 0.0
C730 C 0.72691 0.28979 0.26322 0.0
H731 H 0.70722 0.21038 0.25271 0.0
H732 H 0.70351 0.2368 0.26084 0.0
H733 H 0.69144 0.23308 0.24577 0.0
H734 H 0.68905 0.27411 0.24108 0.0
H735 H 0.66481 0.29997 0.25286 0.0
H736 H 0.28452 0.30913 0.78234 0.0
H737 H 0.25922 0.28452 0.77062 0.0
H738 H 0.30906 0.27942 0.7417 0.0
H739 H 0.33472 0.3039 0.75346 0.0
H740 H 0.24141 0.29026 0.74683 0.0
H741 H 0.29484 0.21293 0.75012 0.0
H742 H 0.29941 0.23751 0.75972 0.0
H743 H 0.30884 0.23749 0.74397 0.0
C744 C 0.29015 0.30282 0.77348 0.0
C745 C 0.31171 0.30836 0.76887 0.0
C746 C 0.27563 0.28876 0.76679 0.0
C747 C 0.28242 0.27988 0.7554 0.0
C748 C 0.3037 0.28577 0.7506 0.0
H749 H 0.21633 0.19074 0.703 0.0
H750 H 0.24259 0.21548 0.71406 0.0
C751 C 0.31827 0.29986 0.75729 0.0
C752 C 0.26706 0.26453 0.74857 0.0
H753 H 0.26183 0.2104 0.73781 0.0
C754 C 0.24584 0.27279 0.74486 0.0
C755 C 0.27293 0.24176 0.74605 0.0
C756 C 0.29515 0.23176 0.75025 0.0
C757 C 0.23037 0.25893 0.73857 0.0
C758 C 0.23617 0.23612 0.73612 0.0
C759 C 0.25745 0.2279 0.73974 0.0
C760 C 0.22043 0.22059 0.72969 0.0
C761 C 0.20811 0.26891 0.7344 0.0
C762 C 0.19948 0.2149 0.73496 0.0
C763 C 0.1844 0.20074 0.72867 0.0
C764 C 0.1901 0.19198 0.71701 0.0
C765 C 0.21137 0.19727 0.71193 0.0
C766 C 0.22642 0.21139 0.71823 0.0
H767 H 0.20855 0.28773 0.73433 0.0
H768 H 0.2036 0.26286 0.72502 0.0
H769 H 0.19452 0.2635 0.74083 0.0
H770 H 0.19474 0.22149 0.74391 0.0
H771 H 0.1682 0.19691 0.73286 0.0
H772 H 0.17303 0.69766 0.2556 0.0
H773 H 0.19972 0.72265 0.24493 0.0
H774 H 0.24693 0.71598 0.27505 0.0
H775 H 0.22052 0.69088 0.28574 0.0
H776 H 0.21733 0.76435 0.25411 0.0
H777 H 0.28557 0.70201 0.24431 0.0
H778 H 0.25715 0.69357 0.24841 0.0
H779 H 0.27642 0.70321 0.2601 0.0
C780 C 0.18918 0.70134 0.25991 0.0
C781 C 0.19468 0.69224 0.27151 0.0
C782 C 0.20437 0.71565 0.25381 0.0
C783 C 0.22536 0.72094 0.25915 0.0
C784 C 0.23096 0.71179 0.27069 0.0
H785 H 0.33772 0.80606 0.23481 0.0
H786 H 0.31235 0.78194 0.24698 0.0
C787 C 0.21579 0.69753 0.2768 0.0
C788 C 0.24104 0.73673 0.25288 0.0
H789 H 0.29347 0.74044 0.23977 0.0
C790 C 0.23396 0.75914 0.25094 0.0
C791 C 0.26277 0.72987 0.24887 0.0
C792 C 0.27095 0.70582 0.25042 0.0
C793 C 0.24811 0.77497 0.24512 0.0
C794 C 0.26971 0.76803 0.24094 0.0
C795 C 0.27691 0.74569 0.24302 0.0
C796 C 0.28471 0.78341 0.2339 0.0
C797 C 0.23991 0.79903 0.24365 0.0
C798 C 0.27758 0.7921 0.22251 0.0
C799 C 0.29196 0.80586 0.21557 0.0
C800 C 0.31385 0.81108 0.21984 0.0
C801 C 0.32094 0.80242 0.23129 0.0
C802 C 0.3065 0.78862 0.23824 0.0
H803 H 0.22629 0.80314 0.25036 0.0
H804 H 0.25399 0.8113 0.24487 0.0
H805 H 0.23288 0.80125 0.23424 0.0
H806 H 0.26102 0.78789 0.21887 0.0
H807 H 0.28599 0.81213 0.20677 0.0
H808 H 0.33814 0.20671 0.25601 0.0
H809 H 0.31312 0.2324 0.24466 0.0
H810 H 0.25608 0.1893 0.25284 0.0
H811 H 0.28091 0.16342 0.26408 0.0
H812 H 0.25707 0.20529 0.22831 0.0
H813 H 0.26795 0.27468 0.26247 0.0
H814 H 0.29377 0.26376 0.25602 0.0
H815 H 0.27649 0.24586 0.26556 0.0
C816 C 0.32032 0.20256 0.25528 0.0
C817 C 0.31148 0.18312 0.26104 0.0
C818 C 0.30604 0.21734 0.24886 0.0
C819 C 0.28271 0.21294 0.24813 0.0
C820 C 0.27403 0.19305 0.25339 0.0
H821 H 0.17127 0.30352 0.23198 0.0
H822 H 0.19868 0.27765 0.24144 0.0
C823 C 0.28826 0.17829 0.25981 0.0
C824 C 0.26716 0.22931 0.2422 0.0
H825 H 0.24591 0.28291 0.24483 0.0
C826 C 0.25466 0.22229 0.23188 0.0
C827 C 0.26383 0.25133 0.24703 0.0
C828 C 0.27604 0.25938 0.25844 0.0
C829 C 0.23899 0.23679 0.22619 0.0
C830 C 0.23601 0.25898 0.23086 0.0
C831 C 0.24839 0.26594 0.24123 0.0
C832 C 0.21985 0.27509 0.22522 0.0
C833 C 0.22541 0.2281 0.21539 0.0
C834 C 0.22296 0.28253 0.21306 0.0
C835 C 0.20737 0.29727 0.20764 0.0
C836 C 0.18842 0.30494 0.2143 0.0
C837 C 0.18564 0.29788 0.22659 0.0
C838 C 0.20127 0.28312 0.23201 0.0
H839 H 0.2257 0.2093 0.21485 0.0
H840 H 0.20751 0.2338 0.21599 0.0
H841 H 0.23271 0.23488 0.20672 0.0
H842 H 0.23743 0.27687 0.20775 0.0
H843 H 0.2101 0.30248 0.19818 0.0
H844 H 0.2197 0.81297 0.78086 0.0
H845 H 0.24399 0.78726 0.76922 0.0
H846 H 0.19151 0.77895 0.74193 0.0
H847 H 0.16688 0.80457 0.7536 0.0
H848 H 0.21025 0.73789 0.75062 0.0
H849 H 0.27733 0.79858 0.73663 0.0
H850 H 0.27125 0.79866 0.75284 0.0
H851 H 0.24989 0.80764 0.74208 0.0
C852 C 0.21335 0.80588 0.77232 0.0
C853 C 0.19135 0.81085 0.76814 0.0
C854 C 0.22733 0.79126 0.76565 0.0
C855 C 0.21964 0.78144 0.75465 0.0
C856 C 0.19777 0.78648 0.75038 0.0
H857 H 0.27757 0.68419 0.70364 0.0
H858 H 0.25245 0.70967 0.71494 0.0
C859 C 0.18376 0.80115 0.75704 0.0
C860 C 0.23409 0.76507 0.74795 0.0
H861 H 0.28519 0.75947 0.73356 0.0
C862 C 0.22657 0.74261 0.7468 0.0
C863 C 0.25539 0.77131 0.74305 0.0
C864 C 0.26391 0.7954 0.74359 0.0
C865 C 0.24003 0.72605 0.74109 0.0
C866 C 0.26138 0.73227 0.73625 0.0
C867 C 0.26885 0.75476 0.73735 0.0
C868 C 0.27611 0.71582 0.7298 0.0
C869 C 0.23153 0.70196 0.74053 0.0
C870 C 0.29781 0.71098 0.73438 0.0
C871 C 0.31227 0.69645 0.72792 0.0
C872 C 0.30531 0.68669 0.71672 0.0
C873 C 0.28343 0.69136 0.71226 0.0
C874 C 0.26899 0.70584 0.71873 0.0
H875 H 0.21776 0.69886 0.74731 0.0
H876 H 0.2247 0.69855 0.73118 0.0
H877 H 0.24549 0.68976 0.7423 0.0
H878 H 0.30363 0.71862 0.74289 0.0
H879 H 0.32904 0.69326 0.73159 0.0
H880 H 0.55086 0.91899 0.50629 0.0
H881 H 0.52544 0.94479 0.49529 0.0
H882 H 0.54651 -0.00025 0.51884 0.0
H883 H 0.57207 0.97422 0.52982 0.0
H884 H 0.48944 0.96931 0.50633 0.0
H885 H 0.55167 0.02672 0.48395 0.0
H886 H 0.55938 0.99924 0.48996 0.0
H887 H 0.55568 0.02284 0.50023 0.0
C888 C 0.55033 0.93664 0.50902 0.0
C889 C 0.5635 0.94455 0.51893 0.0
C890 C 0.53576 0.95132 0.50274 0.0
C891 C 0.53427 0.97419 0.50619 0.0
C892 C 0.5477 0.98224 0.51591 0.0
H893 H 0.4505 0.08716 0.48192 0.0
H894 H 0.47675 0.06247 0.49315 0.0
C895 C 0.56222 0.96758 0.52221 0.0
C896 C 0.5177 0.98933 0.50009 0.0
H897 H 0.51304 0.03766 0.483 0.0
C898 C 0.49458 0.9842 0.50117 0.0
C899 C 0.5245 0.00882 0.49348 0.0
C900 C 0.54916 0.0147 0.49172 0.0
C901 C 0.47799 0.9982 0.49591 0.0
C902 C 0.48478 0.0176 0.4892 0.0
C903 C 0.50791 0.02281 0.48819 0.0
C904 C 0.46819 0.0323 0.48282 0.0
C905 C 0.45334 0.99232 0.49774 0.0
C906 C 0.45475 0.02349 0.47329 0.0
C907 C 0.43976 0.0375 0.46689 0.0
C908 C 0.43802 0.06064 0.46984 0.0
C909 C 0.45138 0.0694 0.47946 0.0
C910 C 0.46642 0.05535 0.48586 0.0
H911 H 0.45086 0.98089 0.50576 0.0
H912 H 0.44298 0.00782 0.49912 0.0
H913 H 0.44695 0.98346 0.48941 0.0
H914 H 0.45617 0.00585 0.47065 0.0
H915 H 0.4298 0.03022 0.4595 0.0
H916 H 0.06244 0.96713 0.95451 0.0
H917 H 0.03809 0.99299 0.96606 0.0
H918 H 0.024 0.9402 0.99246 0.0
H919 H 0.04818 0.91407 0.98089 0.0
H920 H 0.98513 0.96234 0.98315 0.0
H921 H 0.0497 0.02398 -0.00059 0.0
H922 H 0.05024 0.0185 0.98312 0.0
H923 H 0.05704 0.99616 0.99375 0.0
C924 C 0.05436 0.96105 0.96284 0.0
C925 C 0.05725 0.93853 0.96679 0.0
C926 C 0.04054 0.9759 0.96946 0.0
C927 C 0.02946 0.96856 0.98017 0.0
C928 C 0.0325 0.94619 0.98423 0.0
H929 H 0.93435 0.02707 0.03159 0.0
H930 H 0.95885 0.00213 0.01959 0.0
C931 C 0.04635 0.93131 0.97762 0.0
C932 C 0.01381 0.98388 0.98679 0.0
H933 H 0.01118 0.03395 0.00248 0.0
C934 C 0.99082 0.97795 0.98743 0.0
C935 C 0.0213 0.00429 0.99228 0.0
C936 C 0.04594 0.01109 0.99223 0.0
C937 C 0.97502 0.99203 0.99331 0.0
C938 C 0.98252 0.01237 -0.00114 0.0
C939 C 0.00549 0.01837 -0.00183 0.0
C940 C 0.96694 0.02732 0.00578 0.0
C941 C 0.95038 0.98521 0.99335 0.0
C942 C 0.96361 0.04985 0.00207 0.0
C943 C 0.94964 0.06423 0.00894 0.0
C944 C 0.93896 0.05633 0.01971 0.0
C945 C 0.94224 0.03368 0.02332 0.0
C946 C 0.95615 0.01934 0.01645 0.0
H947 H 0.94656 0.9727 0.98598 0.0
H948 H 0.94623 0.97728 0.00235 0.0
H949 H 0.93922 0.00018 0.99211 0.0
H950 H 0.97191 0.05633 0.99389 0.0
H951 H 0.94753 0.0816 0.00594 0.0
H952 H 0.56732 0.03006 0.95816 0.0
H953 H 0.54019 0.0058 0.96887 0.0
H954 H 0.52505 0.06013 0.99414 0.0
H955 H 0.55204 0.0847 0.98339 0.0
H956 H 0.53821 0.99235 0.9938 0.0
H957 H 0.46264 0.04249 0.98 0.0
H958 H 0.48994 0.046 0.97275 0.0
H959 H 0.48456 0.05835 0.9876 0.0
C960 C 0.55832 0.03686 0.96603 0.0
C961 C 0.56171 0.05938 0.96987 0.0
C962 C 0.54282 0.02296 0.97214 0.0
C963 C 0.53035 0.03132 0.98214 0.0
C964 C 0.53421 0.05353 0.98627 0.0
H965 H 0.42744 0.97318 0.0293 0.0
H966 H 0.45446 0.99789 0.01879 0.0
C967 C 0.54975 0.06747 0.98018 0.0
C968 C 0.51319 0.01676 0.98815 0.0
H969 H 0.45647 0.01199 0.99377 0.0
C970 C 0.52033 0.99659 0.99378 0.0
C971 C 0.48989 0.02237 0.98806 0.0
C972 C 0.48118 0.04337 0.98169 0.0
C973 C 0.5048 0.98199 -0.00049 0.0
C974 C 0.4815 0.98758 -0.0006 0.0
C975 C 0.47436 0.00777 0.9938 0.0
C976 C 0.46433 0.97284 0.00527 0.0
C977 C 0.51349 0.96096 0.00585 0.0
C978 C 0.46051 0.95077 0.00092 0.0
C979 C 0.44504 0.93658 0.00689 0.0
C980 C 0.4331 0.94428 0.01729 0.0
C981 C 0.43643 0.96668 0.02135 0.0
C982 C 0.45185 0.98084 0.01536 0.0
H983 H 0.53202 0.96185 0.00758 0.0
H984 H 0.50468 0.95826 0.01478 0.0
H985 H 0.51016 0.94601 -9e-05 0.0
H986 H 0.46969 0.94445 0.99298 0.0
H987 H 0.4428 0.91946 0.0035 0.0
H988 H 0.05074 0.08284 0.50606 0.0
H989 H 0.02464 0.05797 0.49484 0.0
H990 H 0.03813 0.00416 0.52071 0.0
H991 H 0.064 0.02885 0.53203 0.0
H992 H 0.03224 0.0148 0.48391 0.0
H993 H 0.96869 0.01058 0.52158 0.0
H994 H 0.99091 0.03159 0.5212 0.0
H995 H 0.99698 0.00316 0.52614 0.0
C996 C 0.04823 0.06568 0.50932 0.0
C997 C 0.05929 0.05788 0.51999 0.0
C998 C 0.03331 0.05152 0.50291 0.0
C999 C 0.02915 0.02941 0.50711 0.0
C1000 C 0.04074 0.02135 0.5175 0.0
H1001 H 0.94533 0.91715 0.48326 0.0
H1002 H 0.97107 0.94277 0.4942 0.0
C1003 C 0.05562 0.03546 0.5239 0.0
C1004 C 0.01267 0.01473 0.50064 0.0
H1005 H 0.96311 0.98579 0.50462 0.0
C1006 C 0.01705 0.00855 0.48839 0.0
C1007 C 0.99292 0.0066 0.50656 0.0
C1008 C 0.98691 0.01345 0.51956 0.0
C1009 C 0.00242 0.99401 0.48195 0.0
C1010 C 0.98269 0.98582 0.48788 0.0
C1011 C 0.97827 0.99208 0.50012 0.0
C1012 C 0.96644 0.97071 0.48153 0.0
C1013 C 0.00847 0.9871 0.46897 0.0
C1014 C 0.9549 0.97817 0.47099 0.0
C1015 C 0.94023 0.96361 0.46472 0.0
C1016 C 0.93671 0.94135 0.46894 0.0
C1017 C 0.94772 0.93417 0.47976 0.0
C1018 C 0.96244 0.94876 0.48601 0.0
H1019 H 0.02668 0.99009 0.46694 0.0
H1020 H 0.00461 0.96892 0.46737 0.0
H1021 H 0.99834 0.99726 0.46237 0.0
H1022 H 0.95737 0.99523 0.46755 0.0
H1023 H 0.93189 0.96974 0.45648 0.0
H1024 H 0.95891 0.16244 0.02522 0.0
H1025 H 0.98524 0.19251 0.01927 0.0
H1026 H 0.92973 0.23988 0.01713 0.0
H1027 H 0.90348 0.21013 0.02368 0.0
H1028 H 0.99203 0.22312 0.00097 0.0
H1029 H 0.96713 0.26722 0.04419 0.0
H1030 H 0.95769 0.23897 0.04061 0.0
H1031 H 0.9442 0.26309 0.03358 0.0
C1032 C 0.95225 0.17915 0.02322 0.0
C1033 C 0.92924 0.1841 0.02514 0.0
C1034 C 0.96732 0.19633 0.01982 0.0
C1035 C 0.95954 0.2186 0.01812 0.0
C1036 C 0.9362 0.22299 0.01879 0.0
H1037 H 0.04022 0.34251 0.02023 0.0
H1038 H 0.01042 0.31629 0.01371 0.0
C1039 C 0.92121 0.20596 0.02246 0.0
C1040 C 0.97607 0.23744 0.01705 0.0
H1041 H 0.9948 0.28474 0.03204 0.0
C1042 C 0.99251 0.23673 0.00769 0.0
C1043 C 0.97681 0.2551 0.0259 0.0
C1044 C 0.96068 0.25611 0.0367 0.0
C1045 C 0.00988 0.253 0.00708 0.0
C1046 C 0.01072 0.27035 0.01603 0.0
C1047 C 0.99388 0.27153 0.02511 0.0
C1048 C 0.03013 0.28606 0.01716 0.0
C1049 C 0.02741 0.25136 -0.00298 0.0
C1050 C 0.05122 0.27771 0.02099 0.0
C1051 C 0.06819 0.2926 0.02486 0.0
C1052 C 0.06435 0.31613 0.02495 0.0
C1053 C 0.04375 0.3245 0.02028 0.0
C1054 C 0.0267 0.30956 0.01652 0.0
H1055 H 0.0213 0.24096 0.98915 0.0
H1056 H 0.03212 0.26846 0.99359 0.0
H1057 H 0.0429 0.24325 0.00078 0.0
H1058 H 0.05407 0.25963 0.02175 0.0
H1059 H 0.0839 0.28559 0.02833 0.0
H1060 H 0.0886 0.70952 0.2713 0.0
H1061 H 0.05918 0.73644 0.26511 0.0
H1062 H 0.01284 0.68111 0.25883 0.0
H1063 H 0.04187 0.65418 0.26549 0.0
H1064 H 0.0298 0.7449 0.24558 0.0
H1065 H 0.9832 0.71482 0.28704 0.0
H1066 H 0.01196 0.70651 0.28386 0.0
H1067 H 0.98883 0.69324 0.27582 0.0
C1068 C 0.07233 0.70306 0.2683 0.0
C1069 C 0.06735 0.67982 0.2691 0.0
C1070 C 0.05553 0.71846 0.26476 0.0
C1071 C 0.03365 0.71079 0.26185 0.0
C1072 C 0.02943 0.68741 0.26138 0.0
H1073 H 0.90923 0.78999 0.26606 0.0
H1074 H 0.93539 0.76073 0.25884 0.0
C1075 C 0.04605 0.67205 0.26513 0.0
C1076 C 0.01475 0.72723 0.26091 0.0
H1077 H 0.96645 0.74391 0.27562 0.0
C1078 C 0.0158 0.74457 0.25205 0.0
C1079 C 0.99656 0.72686 0.26943 0.0
C1080 C 0.99508 0.70951 0.27965 0.0
C1081 C 0.99931 0.76175 0.25163 0.0
C1082 C 0.98148 0.76158 0.26033 0.0
C1083 C 0.98002 0.74383 0.26887 0.0
C1084 C 0.96557 0.78078 0.26182 0.0
C1085 C 0.00126 0.78008 0.24201 0.0
C1086 C 0.97386 0.80196 0.26559 0.0
C1087 C 0.959 0.81866 0.26979 0.0
C1088 C 0.93555 0.81446 0.27037 0.0
C1089 C 0.92717 0.79379 0.26577 0.0
C1090 C 0.94209 0.77705 0.26161 0.0
H1091 H 0.01109 0.7742 0.23388 0.0
H1092 H 0.98429 0.78582 0.23889 0.0
H1093 H 0.01027 0.79484 0.24603 0.0
H1094 H 0.99192 0.80507 0.26606 0.0
H1095 H 0.96604 0.83441 0.27319 0.0
H1096 H 0.45734 0.66491 0.52115 0.0
H1097 H 0.48476 0.69443 0.51586 0.0
H1098 H 0.4305 0.743 0.51253 0.0
H1099 H 0.40312 0.7138 0.5184 0.0
H1100 H 0.49343 0.72527 0.49769 0.0
H1101 H 0.4665 0.76901 0.54066 0.0
H1102 H 0.45685 0.74097 0.53673 0.0
H1103 H 0.44421 0.76544 0.52959 0.0
C1104 C 0.45121 0.68176 0.51902 0.0
C1105 C 0.42817 0.68719 0.52041 0.0
C1106 C 0.46689 0.69863 0.516 0.0
C1107 C 0.45973 0.72106 0.51416 0.0
C1108 C 0.43646 0.72595 0.51429 0.0
H1109 H 0.54172 0.84378 0.51853 0.0
H1110 H 0.51196 0.818 0.5115 0.0
C1111 C 0.42083 0.70924 0.51758 0.0
C1112 C 0.4767 0.73957 0.51354 0.0
H1113 H 0.49519 0.78632 0.52912 0.0
C1114 C 0.49371 0.73875 0.50449 0.0
C1115 C 0.47717 0.75705 0.5225 0.0
C1116 C 0.46036 0.75813 0.53299 0.0
C1117 C 0.51133 0.75479 0.50427 0.0
C1118 C 0.51187 0.77199 0.51332 0.0
C1119 C 0.49452 0.77323 0.5221 0.0
C1120 C 0.53135 0.78752 0.51482 0.0
C1121 C 0.52939 0.75307 0.49449 0.0
C1122 C 0.55227 0.77889 0.51875 0.0
C1123 C 0.56923 0.79354 0.52289 0.0
C1124 C 0.56556 0.81709 0.52318 0.0
C1125 C 0.54513 0.82575 0.51844 0.0
C1126 C 0.52809 0.81105 0.51439 0.0
H1127 H 0.52351 0.74305 0.48643 0.0
H1128 H 0.53467 0.77016 0.4913 0.0
H1129 H 0.54447 0.74449 0.49843 0.0
H1130 H 0.55498 0.76077 0.51936 0.0
H1131 H 0.58481 0.7863 0.52641 0.0
H1132 H 0.59346 0.20296 0.76583 0.0
H1133 H 0.56816 0.23372 0.75957 0.0
H1134 H 0.51023 0.19305 0.76933 0.0
H1135 H 0.53522 0.16215 0.77553 0.0
H1136 H 0.50519 0.22316 0.74714 0.0
H1137 H 0.53667 0.26537 0.78983 0.0
H1138 H 0.55751 0.25633 0.77879 0.0
H1139 H 0.54108 0.2356 0.78695 0.0
C1140 C 0.57533 0.20029 0.76635 0.0
C1141 C 0.56639 0.18023 0.77142 0.0
C1142 C 0.56092 0.21791 0.76277 0.0
C1143 C 0.5374 0.2157 0.76417 0.0
C1144 C 0.52836 0.19504 0.76821 0.0
H1145 H 0.41555 0.29057 0.77152 0.0
H1146 H 0.44433 0.26346 0.76495 0.0
C1147 C 0.54271 0.17745 0.77181 0.0
C1148 C 0.52243 0.23571 0.76325 0.0
H1149 H 0.50725 0.28303 0.77922 0.0
C1150 C 0.50577 0.23649 0.75403 0.0
C1151 C 0.52327 0.25297 0.77227 0.0
C1152 C 0.54046 0.25261 0.78259 0.0
C1153 C 0.48964 0.25402 0.75371 0.0
C1154 C 0.48991 0.27077 0.76305 0.0
C1155 C 0.50708 0.27029 0.77201 0.0
C1156 C 0.4717 0.28792 0.76451 0.0
C1157 C 0.4725 0.25433 0.7434 0.0
C1158 C 0.47735 0.31078 0.76638 0.0
C1159 C 0.46103 0.32618 0.77044 0.0
C1160 C 0.43865 0.31908 0.77258 0.0
C1161 C 0.43262 0.29658 0.76986 0.0
C1162 C 0.44906 0.28108 0.76601 0.0
H1163 H 0.47939 0.24621 0.73496 0.0
H1164 H 0.45733 0.24455 0.74626 0.0
H1165 H 0.46717 0.27188 0.74112 0.0
H1166 H 0.49469 0.31647 0.7653 0.0
H1167 H 0.46614 0.34346 0.77236 0.0
H1168 H 0.95442 0.84109 0.47161 0.0
H1169 H 0.98465 0.81543 0.47822 0.0
H1170 H 0.94412 0.75798 0.46745 0.0
H1171 H 0.91377 0.78332 0.46091 0.0
H1172 H 0.97255 0.7521 0.49003 0.0
H1173 H 0.01817 0.78435 0.44858 0.0
H1174 H 0.00867 0.80494 0.45964 0.0
H1175 H 0.98829 0.78913 0.45088 0.0
C1176 C 0.95167 0.82298 0.47092 0.0
C1177 C 0.93183 0.81428 0.46549 0.0
C1178 C 0.96898 0.80837 0.47471 0.0
C1179 C 0.96667 0.78488 0.47315 0.0
C1180 C 0.9462 0.77608 0.4687 0.0
H1181 H 0.0386 0.66202 0.46528 0.0
H1182 H 0.01222 0.69115 0.47225 0.0
C1183 C 0.92892 0.79063 0.4649 0.0
C1184 C 0.98645 0.76967 0.47437 0.0
H1185 H 0.03445 0.75412 0.45915 0.0
C1186 C 0.98632 0.75268 0.48342 0.0
C1187 C 0.00432 0.77053 0.46572 0.0
C1188 C 0.00497 0.78808 0.45559 0.0
C1189 C 0.00348 0.73617 0.48389 0.0
C1190 C 0.0208 0.73641 0.47486 0.0
C1191 C 0.02128 0.75396 0.46612 0.0
C1192 C 0.03746 0.71774 0.4734 0.0
C1193 C 0.00277 0.71863 0.49398 0.0
C1194 C 0.06054 0.7228 0.47186 0.0
C1195 C 0.07552 0.7063 0.46756 0.0
C1196 C 0.06777 0.68433 0.46487 0.0
C1197 C 0.04509 0.67876 0.46736 0.0
C1198 C 0.03 0.69541 0.47145 0.0
H1199 H 0.99446 0.72546 0.50239 0.0
H1200 H 0.99267 0.70388 0.49081 0.0
H1201 H 0.02002 0.71266 0.49646 0.0
H1202 H 0.06671 0.73989 0.47329 0.0
H1203 H 0.09296 0.71102 0.4658 0.0
H1204 H 0.58218 0.78902 0.71593 0.0
H1205 H 0.5526 0.76246 0.72226 0.0
H1206 H 0.50575 0.81798 0.72662 0.0
H1207 H 0.53498 0.84451 0.71972 0.0
H1208 H 0.52272 0.75463 0.74113 0.0
H1209 H 0.47713 0.78275 0.6989 0.0
H1210 H 0.50564 0.79163 0.7023 0.0
H1211 H 0.48203 0.80476 0.70999 0.0
C1212 C 0.56574 0.79563 0.71853 0.0
C1213 C 0.56071 0.81875 0.7171 0.0
C1214 C 0.54884 0.78043 0.72215 0.0
C1215 C 0.52679 0.78818 0.72454 0.0
C1216 C 0.52247 0.81157 0.72445 0.0
H1217 H 0.40431 0.70585 0.71962 0.0
H1218 H 0.42934 0.73586 0.72712 0.0
C1219 C 0.5392 0.82672 0.72057 0.0
C1220 C 0.50794 0.77166 0.7255 0.0
H1221 H 0.46059 0.75362 0.71033 0.0
C1222 C 0.50897 0.75455 0.73449 0.0
C1223 C 0.49007 0.77148 0.71677 0.0
C1224 C 0.48867 0.78848 0.70637 0.0
C1225 C 0.49288 0.73699 0.7348 0.0
C1226 C 0.47544 0.73658 0.72588 0.0
C1227 C 0.47388 0.75416 0.71724 0.0
C1228 C 0.46022 0.71689 0.72421 0.0
C1229 C 0.49488 0.71881 0.7445 0.0
C1230 C 0.46928 0.69609 0.72037 0.0
C1231 C 0.45508 0.67899 0.71598 0.0
C1232 C 0.43152 0.68239 0.71531 0.0
C1233 C 0.42237 0.70267 0.71998 0.0
C1234 C 0.43663 0.71984 0.7243 0.0
H1235 H 0.50443 0.72492 0.75267 0.0
H1236 H 0.47792 0.71285 0.74751 0.0
H1237 H 0.50418 0.70413 0.74058 0.0
H1238 H 0.48745 0.69362 0.71999 0.0
H1239 H 0.46269 0.66354 0.71253 0.0
H1240 H 0.59949 0.21401 0.96553 0.0
H1241 H 0.57354 0.24329 0.97285 0.0
H1242 H 0.51974 0.19391 0.9748 0.0
H1243 H 0.54581 0.16442 0.96794 0.0
H1244 H 0.5393 0.25595 0.95949 0.0
H1245 H 0.50533 0.23037 0.00478 0.0
H1246 H 0.53038 0.21755 -0.00176 0.0
H1247 H 0.5026 0.20779 0.99383 0.0
C1248 C 0.58229 0.20927 0.96786 0.0
C1249 C 0.57463 0.18695 0.96606 0.0
C1250 C 0.56749 0.22601 0.97207 0.0
C1251 C 0.54469 0.22084 0.97447 0.0
C1252 C 0.53734 0.19828 0.97334 0.0
H1253 H 0.41838 0.28263 0.96519 0.0
H1254 H 0.4502 0.25869 0.97119 0.0
C1255 C 0.55225 0.18143 0.96931 0.0
C1256 C 0.52796 0.23938 0.97608 0.0
H1257 H 0.48145 0.25557 0.99264 0.0
C1258 C 0.52702 0.25618 0.96693 0.0
C1259 C 0.51184 0.23965 0.98575 0.0
C1260 C 0.51274 0.22298 -0.00373 0.0
C1261 C 0.50973 0.27241 0.96675 0.0
C1262 C 0.49299 0.272 0.97607 0.0
C1263 C 0.49435 0.25582 0.98552 0.0
C1264 C 0.47273 0.28663 0.97518 0.0
C1265 C 0.50875 0.28907 0.95619 0.0
C1266 C 0.4746 0.31029 0.97599 0.0
C1267 C 0.45643 0.3241 0.97251 0.0
C1268 C 0.43616 0.31441 0.96816 0.0
C1269 C 0.43383 0.29068 0.96835 0.0
C1270 C 0.45196 0.27693 0.97184 0.0
H1271 H 0.52114 0.28497 0.94881 0.0
H1272 H 0.49151 0.28938 0.95209 0.0
H1273 H 0.51257 0.30633 0.95967 0.0
H1274 H 0.4905 0.31804 0.97865 0.0
H1275 H 0.45877 0.34231 0.97257 0.0
H1276 H 0.08484 0.28876 0.21787 0.0
H1277 H 0.05665 0.26078 0.22433 0.0
H1278 H 0.00908 0.31445 0.23193 0.0
H1279 H 0.03686 0.34245 0.22501 0.0
H1280 H 0.02865 0.25081 0.24428 0.0
H1281 H 0.97889 0.28074 0.20385 0.0
H1282 H 0.00756 0.28983 0.20665 0.0
H1283 H 0.98452 0.30208 0.21522 0.0
C1284 C 0.06858 0.29463 0.22121 0.0
C1285 C 0.06286 0.31773 0.2207 0.0
C1286 C 0.05248 0.27862 0.22491 0.0
C1287 C 0.03058 0.28552 0.22827 0.0
C1288 C 0.02569 0.30875 0.22904 0.0
H1289 H 0.90911 0.202 0.22414 0.0
H1290 H 0.93421 0.23183 0.23176 0.0
C1291 C 0.0416 0.32472 0.22513 0.0
C1292 C 0.01224 0.26846 0.22936 0.0
H1293 H 0.96389 0.25056 0.21512 0.0
C1294 C 0.01433 0.25087 0.23801 0.0
C1295 C 0.99363 0.2685 0.22111 0.0
C1296 C 0.99103 0.28615 0.21111 0.0
C1297 C 0.99849 0.23308 0.23846 0.0
C1298 C 0.98027 0.23288 0.23 0.0
C1299 C 0.97775 0.2509 0.22169 0.0
C1300 C 0.9651 0.2131 0.22843 0.0
C1301 C 0.00155 0.21451 0.24786 0.0
C1302 C 0.97412 0.19241 0.22438 0.0
C1303 C 0.95985 0.17536 0.21997 0.0
C1304 C 0.93627 0.17875 0.21944 0.0
C1305 C 0.92717 0.19883 0.22437 0.0
C1306 C 0.94149 0.21591 0.22876 0.0
H1307 H 0.01131 0.22058 0.25598 0.0
H1308 H 0.98496 0.20784 0.25104 0.0
H1309 H 0.01117 0.20037 0.24361 0.0
H1310 H 0.99228 0.19001 0.22381 0.0
H1311 H 0.96744 0.16007 0.21632 0.0
H1312 H 0.95134 0.65462 0.97138 0.0
H1313 H 0.98132 0.68019 0.97833 0.0
H1314 H 0.93869 0.73771 0.97046 0.0
H1315 H 0.90863 0.71239 0.96352 0.0
H1316 H 0.99804 0.71046 0.96049 0.0
H1317 H 0.97156 0.75684 0.00249 0.0
H1318 H 0.9595 0.72985 -0.00192 0.0
H1319 H 0.95017 0.7555 0.99072 0.0
C1320 C 0.94804 0.67268 0.97149 0.0
C1321 C 0.92769 0.68148 0.96671 0.0
C1322 C 0.9652 0.68725 0.97549 0.0
C1323 C 0.96217 0.71082 0.97498 0.0
C1324 C 0.94124 0.71957 0.97114 0.0
H1325 H 0.0351 0.83223 0.96426 0.0
H1326 H 0.00836 0.80315 0.97106 0.0
C1327 C 0.92414 0.70505 0.96706 0.0
C1328 C 0.98191 0.72615 0.97607 0.0
H1329 H 0.00093 0.7741 0.99032 0.0
C1330 C 0.99899 0.72409 0.96718 0.0
C1331 C 0.98282 0.74406 0.9847 0.0
C1332 C 0.96513 0.74664 -0.00538 0.0
C1333 C 0.01633 0.74018 0.9662 0.0
C1334 C 0.01708 0.75845 0.97467 0.0
C1335 C 0.00043 0.76004 0.98389 0.0
C1336 C 0.0338 0.77703 0.97326 0.0
C1337 C 0.03276 0.73819 0.95556 0.0
C1338 C 0.05711 0.77237 0.97292 0.0
C1339 C 0.07233 0.7888 0.96876 0.0
C1340 C 0.06455 0.81036 0.96526 0.0
C1341 C 0.04156 0.81574 0.96688 0.0
C1342 C 0.02626 0.79913 0.97078 0.0
H1343 H 0.02647 0.72647 0.94831 0.0
H1344 H 0.03592 0.75497 0.95126 0.0
H1345 H 0.04912 0.73142 0.95899 0.0
H1346 H 0.06337 0.75562 0.97516 0.0
H1347 H 0.09004 0.78433 0.96778 0.0
H1348 H 0.96745 0.33492 0.71511 0.0
H1349 H 0.99189 0.3041 0.72197 0.0
H1350 H 0.9333 0.26536 0.73283 0.0
H1351 H 0.90853 0.29604 0.72586 0.0
H1352 H 0.99735 0.27619 0.74444 0.0
H1353 H 0.96299 0.23005 0.70365 0.0
H1354 H 0.95882 0.26007 0.70575 0.0
H1355 H 0.94287 0.2402 0.71479 0.0
C1356 C 0.95969 0.32008 0.71919 0.0
C1357 C 0.93597 0.31777 0.71968 0.0
C1358 C 0.97374 0.30252 0.72318 0.0
C1359 C 0.96435 0.28237 0.72772 0.0
C1360 C 0.94081 0.28074 0.72922 0.0
H1361 H 0.03598 0.15469 0.72044 0.0
H1362 H 0.0077 0.18125 0.72827 0.0
C1363 C 0.9267 0.29831 0.72524 0.0
C1364 C 0.97901 0.26221 0.72906 0.0
H1365 H 0.9931 0.21342 0.71412 0.0
C1366 C 0.99626 0.26222 0.73797 0.0
C1367 C 0.9775 0.24407 0.72058 0.0
C1368 C 0.95968 0.2435 0.71058 0.0
C1369 C 0.01244 0.24475 0.73842 0.0
C1370 C 0.01159 0.22721 0.72953 0.0
C1371 C 0.99372 0.22678 0.72098 0.0
C1372 C 0.03003 0.21035 0.72793 0.0
C1373 C 0.03034 0.24542 0.74833 0.0
C1374 C 0.05229 0.21764 0.72561 0.0
C1375 C 0.0686 0.20239 0.7213 0.0
C1376 C 0.06276 0.17971 0.71896 0.0
C1377 C 0.04091 0.17213 0.72205 0.0
C1378 C 0.02475 0.18728 0.72656 0.0
H1379 H 0.0239 0.25397 0.75676 0.0
H1380 H 0.03619 0.22814 0.75083 0.0
H1381 H 0.04508 0.25531 0.74496 0.0
H1382 H 0.0567 0.23541 0.72627 0.0
H1383 H 0.08524 0.20878 0.71893 0.0
H1384 H 0.53844 0.34333 0.4698 0.0
H1385 H 0.50573 0.31978 0.47506 0.0
H1386 H 0.54803 0.26025 0.47442 0.0
H1387 H 0.58077 0.28353 0.46921 0.0
H1388 H 0.49262 0.28628 0.45815 0.0
H1389 H 0.50654 0.24868 0.50431 0.0
H1390 H 0.52072 0.27418 0.49923 0.0
H1391 H 0.53079 0.24685 0.49437 0.0
C1392 C 0.54094 0.32532 0.47113 0.0
C1393 C 0.56219 0.31528 0.46894 0.0
C1394 C 0.52222 0.3119 0.47415 0.0
C1395 C 0.5245 0.28831 0.47523 0.0
C1396 C 0.54597 0.27846 0.47386 0.0
H1397 H 0.45131 0.16637 0.46674 0.0
H1398 H 0.47718 0.19656 0.47302 0.0
C1399 C 0.56464 0.2918 0.47076 0.0
C1400 C 0.50419 0.27363 0.47565 0.0
H1401 H 0.48031 0.22918 0.49103 0.0
C1402 C 0.48958 0.27411 0.46546 0.0
C1403 C 0.50052 0.25764 0.48513 0.0
C1404 C 0.51536 0.25689 0.49644 0.0
C1405 C 0.47214 0.25819 0.46413 0.0
C1406 C 0.46877 0.24175 0.47347 0.0
C1407 C 0.48285 0.24183 0.48391 0.0
C1408 C 0.45206 0.2232 0.47192 0.0
C1409 C 0.45849 0.25828 0.45234 0.0
C1410 C 0.4291 0.22798 0.46981 0.0
C1411 C 0.41436 0.21082 0.466 0.0
C1412 C 0.42223 0.1885 0.46453 0.0
C1413 C 0.44474 0.18341 0.46775 0.0
C1414 C 0.45956 0.20065 0.47135 0.0
H1415 H 0.46674 0.26849 0.445 0.0
H1416 H 0.45601 0.24079 0.44882 0.0
H1417 H 0.44159 0.26579 0.45416 0.0
H1418 H 0.42282 0.24517 0.47053 0.0
H1419 H 0.39701 0.2152 0.46378 0.0
H1420 H 0.46677 0.82707 0.19853 0.0
H1421 H 0.49266 0.79783 0.20545 0.0
H1422 H 0.44734 0.78113 0.23533 0.0
H1423 H 0.42042 0.80973 0.22789 0.0
H1424 H 0.51628 0.78912 0.22485 0.0
H1425 H 0.45194 0.72068 0.21988 0.0
H1426 H 0.44639 0.74931 0.21503 0.0
H1427 H 0.44561 0.74201 0.23114 0.0
C1428 C 0.46232 0.81736 0.20665 0.0
C1429 C 0.4414 0.82054 0.21257 0.0
C1430 C 0.47722 0.80061 0.21063 0.0
C1431 C 0.47182 0.78684 0.22077 0.0
C1432 C 0.4516 0.79098 0.22725 0.0
H1433 H 0.58454 0.68825 0.22764 0.0
H1434 H 0.55746 0.71649 0.2353 0.0
C1435 C 0.43631 0.80745 0.22305 0.0
C1436 C 0.48699 0.76749 0.22378 0.0
H1437 H 0.48922 0.70969 0.2234 0.0
C1438 C 0.51037 0.77171 0.22468 0.0
C1439 C 0.47923 0.74477 0.22368 0.0
C1440 C 0.45447 0.73881 0.2223 0.0
C1441 C 0.52628 0.75405 0.2242 0.0
C1442 C 0.51853 0.73137 0.22348 0.0
C1443 C 0.49512 0.72708 0.22386 0.0
C1444 C 0.53387 0.71232 0.22016 0.0
C1445 C 0.5511 0.76011 0.22343 0.0
C1446 C 0.52902 0.69957 0.20955 0.0
C1447 C 0.54399 0.68301 0.20542 0.0
C1448 C 0.56444 0.67902 0.21167 0.0
C1449 C 0.56901 0.69115 0.22256 0.0
C1450 C 0.55364 0.70743 0.22688 0.0
H1451 H 0.55376 0.77844 0.2216 0.0
H1452 H 0.55946 0.756 0.23231 0.0
H1453 H 0.5596 0.75034 0.21601 0.0
H1454 H 0.51394 0.70297 0.20416 0.0
H1455 H 0.53996 0.67405 0.19698 0.0
H1456 H 0.91858 0.28368 0.52852 0.0
H1457 H 0.94952 0.25928 0.52175 0.0
H1458 H 0.98956 0.31805 0.5127 0.0
H1459 H 0.95871 0.34276 0.51952 0.0
H1460 H 0.97884 0.25592 0.49915 0.0
H1461 H 0.02245 0.28471 0.542 0.0
H1462 H 0.99255 0.28916 0.53955 0.0
H1463 H 0.01286 0.30611 0.53141 0.0
C1464 C 0.93376 0.29149 0.52486 0.0
C1465 C 0.93631 0.3152 0.52479 0.0
C1466 C 0.95137 0.27748 0.52092 0.0
C1467 C 0.97186 0.2869 0.51688 0.0
C1468 C 0.97388 0.31051 0.51588 0.0
H1469 H 0.09796 0.21235 0.52414 0.0
H1470 H 0.07225 0.24211 0.51713 0.0
C1471 C 0.95621 0.32459 0.51978 0.0
C1472 C 0.99186 0.27205 0.51548 0.0
H1473 H 0.0392 0.25532 0.53096 0.0
C1474 C 0.99229 0.25595 0.50596 0.0
C1475 C 0.00932 0.27221 0.52439 0.0
C1476 C 0.00938 0.28884 0.53498 0.0
C1477 C 0.00957 0.2396 0.5053 0.0
C1478 C 0.02641 0.23902 0.51459 0.0
C1479 C 0.02638 0.25576 0.5238 0.0
C1480 C 0.04293 0.22017 0.51584 0.0
C1481 C 0.00948 0.22306 0.4947 0.0
C1482 C 0.03527 0.19772 0.517 0.0
C1483 C 0.05005 0.1806 0.52082 0.0
C1484 C 0.07263 0.18574 0.52385 0.0
C1485 C 0.08061 0.20792 0.52197 0.0
C1486 C 0.06593 0.22493 0.51794 0.0
H1487 H 0.00172 0.23074 0.48635 0.0
H1488 H 0.02686 0.21728 0.49238 0.0
H1489 H 0.99914 0.20807 0.49725 0.0
H1490 H 0.01753 0.19366 0.51577 0.0
H1491 H 0.04336 0.16371 0.52227 0.0
H1492 H 0.41843 0.18836 0.26168 0.0
H1493 H 0.44751 0.21468 0.25425 0.0
H1494 H 0.48992 0.19703 0.28522 0.0
H1495 H 0.46172 0.17009 0.29225 0.0
H1496 H 0.46093 0.25094 0.26409 0.0
H1497 H 0.53727 0.19877 0.25989 0.0
H1498 H 0.50959 0.18616 0.26156 0.0
H1499 H 0.52599 0.194 0.27497 0.0
C1500 C 0.43423 0.18973 0.26672 0.0
C1501 C 0.4378 0.17707 0.27753 0.0
C1502 C 0.45083 0.20477 0.26246 0.0
C1503 C 0.4712 0.20759 0.26901 0.0
C1504 C 0.47485 0.19463 0.27969 0.0
H1505 H 0.53794 0.32379 0.29026 0.0
H1506 H 0.51147 0.29504 0.28341 0.0
C1507 C 0.45852 0.17932 0.28379 0.0
C1508 C 0.48743 0.22593 0.26576 0.0
H1509 H 0.54383 0.23834 0.2666 0.0
C1510 C 0.47907 0.24805 0.2643 0.0
C1511 C 0.51116 0.22236 0.26554 0.0
C1512 C 0.52142 0.19895 0.26542 0.0
C1513 C 0.4937 0.26677 0.2639 0.0
C1514 C 0.51725 0.26336 0.26556 0.0
C1515 C 0.52575 0.24113 0.26571 0.0
C1516 C 0.53283 0.2823 0.26871 0.0
C1517 C 0.48361 0.29 0.26204 0.0
C1518 C 0.5541 0.28447 0.26301 0.0
C1519 C 0.56969 0.30067 0.26717 0.0
C1520 C 0.5642 0.31507 0.27707 0.0
C1521 C 0.54267 0.31323 0.28251 0.0
C1522 C 0.52734 0.29687 0.2785 0.0
H1523 H 0.46875 0.28914 0.25577 0.0
H1524 H 0.47751 0.29663 0.27102 0.0
H1525 H 0.49611 0.30208 0.25812 0.0
H1526 H 0.55884 0.27331 0.25551 0.0
H1527 H 0.58614 0.30165 0.26279 0.0
H1528 H 0.40978 0.78646 0.02582 0.0
H1529 H 0.44018 0.76137 0.01909 0.0
H1530 H 0.47911 0.81903 0.007 0.0
H1531 H 0.44885 0.84445 0.01382 0.0
H1532 H 0.46709 0.75485 -0.00377 0.0
H1533 H 0.51523 0.78986 0.03616 0.0
H1534 H 0.48516 0.79419 0.03439 0.0
H1535 H 0.50474 0.80981 0.02501 0.0
C1536 C 0.42458 0.79387 0.02151 0.0
C1537 C 0.42705 0.81753 0.0206 0.0
C1538 C 0.44189 0.77945 0.0176 0.0
C1539 C 0.46196 0.7884 0.01272 0.0
C1540 C 0.46378 0.81185 0.01087 0.0
H1541 H 0.59016 0.71715 0.01798 0.0
H1542 H 0.56273 0.74517 0.01078 0.0
C1543 C 0.44646 0.82633 0.01477 0.0
C1544 C 0.48188 0.77346 0.01129 0.0
H1545 H 0.53136 0.75956 0.02558 0.0
C1546 C 0.48137 0.75602 0.0025 0.0
C1547 C 0.50041 0.77507 0.01951 0.0
C1548 C 0.50151 0.79311 0.02937 0.0
C1549 C 0.49878 0.7398 0.00188 0.0
C1550 C 0.5168 0.74082 0.01047 0.0
C1551 C 0.51764 0.75881 0.01894 0.0
C1552 C 0.53392 0.72254 0.0118 0.0
C1553 C 0.49759 0.72172 0.99208 0.0
C1554 C 0.52703 0.70022 0.01431 0.0
C1555 C 0.54277 0.68406 0.01825 0.0
C1556 C 0.56556 0.69012 0.02004 0.0
C1557 C 0.57266 0.71205 0.01679 0.0
C1558 C 0.55701 0.72807 0.01265 0.0
H1559 H 0.48843 0.72793 0.98379 0.0
H1560 H 0.51474 0.71597 0.98926 0.0
H1561 H 0.4881 0.70694 -0.00428 0.0
H1562 H 0.50928 0.69563 0.01405 0.0
H1563 H 0.53676 0.66734 0.02077 0.0
H1564 H 0.90778 0.71218 0.76772 0.0
H1565 H 0.93248 0.74289 0.76075 0.0
H1566 H 0.99089 0.70011 0.76597 0.0
H1567 H 0.96645 0.66934 0.77292 0.0
H1568 H 0.96459 0.75872 0.77791 0.0
H1569 H 0.00637 0.73504 0.73404 0.0
H1570 H 0.97996 0.72257 0.73908 0.0
H1571 H 0.0064 0.7129 0.7454 0.0
C1572 C 0.92582 0.70904 0.76703 0.0
C1573 C 0.93518 0.68839 0.77104 0.0
C1574 C 0.93989 0.72662 0.76302 0.0
C1575 C 0.96348 0.72372 0.76277 0.0
C1576 C 0.97271 0.70259 0.76588 0.0
H1577 H 0.08601 0.79542 0.77097 0.0
H1578 H 0.05596 0.76942 0.76463 0.0
C1579 C 0.9587 0.68507 0.76997 0.0
C1580 C 0.97861 0.7436 0.76157 0.0
H1581 H 0.025 0.76356 0.74624 0.0
C1582 C 0.9775 0.76012 0.77083 0.0
C1583 C 0.99556 0.7451 0.75242 0.0
C1584 C 0.99708 0.72806 0.7421 0.0
C1585 C 0.99369 0.7774 0.77165 0.0
C1586 C 0.01106 0.77868 0.76266 0.0
C1587 C 0.01163 0.76265 0.75308 0.0
C1588 C 0.0299 0.79518 0.76385 0.0
C1589 C 0.99284 0.79313 0.78263 0.0
C1590 C 0.02552 0.81849 0.76484 0.0
C1591 C 0.04254 0.8333 0.76874 0.0
C1592 C 0.06439 0.82512 0.77133 0.0
C1593 C 0.06932 0.8022 0.76906 0.0
C1594 C 0.05216 0.78732 0.76543 0.0
H1595 H 0.98182 0.78641 0.79009 0.0
H1596 H 0.01003 0.79595 0.7865 0.0
H1597 H 0.98584 0.80973 0.77973 0.0
H1598 H 0.00862 0.82504 0.7633 0.0
H1599 H 0.03837 0.85097 0.77022 0.0
H1600 H 0.34331 0.39869 0.97993 0.0
H1601 H 0.30736 0.40428 0.99088 0.0
H1602 H 0.28717 0.33614 0.98165 0.0
H1603 H 0.32269 0.33041 0.9707 0.0
H1604 H 0.25518 0.37078 0.97523 0.0
H1605 H 0.28458 0.37629 0.02396 0.0
H1606 H 0.2985 0.39406 0.0128 0.0
H1607 H 0.30177 0.36388 0.01195 0.0
C1608 C 0.33138 0.38477 0.98043 0.0
C1609 C 0.33582 0.36414 0.97438 0.0
C1610 C 0.31086 0.38801 0.98667 0.0
C1611 C 0.29465 0.37062 0.98702 0.0
C1612 C 0.29943 0.3498 0.9814 0.0
H1613 H 0.179 0.33623 0.02835 0.0
H1614 H 0.21505 0.34073 0.01776 0.0
C1615 C 0.3198 0.34656 0.97518 0.0
C1616 C 0.27217 0.37409 0.9927 0.0
H1617 H 0.24532 0.37837 0.02043 0.0
C1618 C 0.25296 0.37274 0.9851 0.0
C1619 C 0.26947 0.37658 0.00556 0.0
C1620 C 0.2896 0.37767 0.01411 0.0
C1621 C 0.23104 0.37297 0.99007 0.0
C1622 C 0.22834 0.37484 0.00297 0.0
C1623 C 0.24753 0.37702 0.01053 0.0
C1624 C 0.20596 0.37227 0.00891 0.0
C1625 C 0.21098 0.37007 0.98159 0.0
C1626 C 0.18876 0.38842 0.00728 0.0
C1627 C 0.16794 0.38587 0.01331 0.0
C1628 C 0.16412 0.36718 0.02111 0.0
C1629 C 0.18132 0.35087 0.02247 0.0
C1630 C 0.20201 0.35343 0.01646 0.0
H1631 H 0.21618 0.36537 0.97208 0.0
H1632 H 0.19936 0.35683 0.98518 0.0
H1633 H 0.2014 0.38622 0.98112 0.0
H1634 H 0.1916 0.40318 0.00155 0.0
H1635 H 0.15512 0.3988 0.01212 0.0
H1636 H 0.91145 0.0639 0.21423 0.0
H1637 H 0.90277 0.02819 0.22434 0.0
H1638 H 0.83936 0.05548 0.2373 0.0
H1639 H 0.84792 0.09171 0.22716 0.0
H1640 H 0.86457 0.03158 0.25534 0.0
H1641 H 0.85588 0.98128 0.21258 0.0
H1642 H 0.88159 0.99752 0.21282 0.0
H1643 H 0.85469 0.01189 0.21272 0.0
C1644 C 0.89563 0.06246 0.21923 0.0
C1645 C 0.88029 0.08068 0.21979 0.0
C1646 C 0.89063 0.04192 0.22492 0.0
C1647 C 0.87017 0.03903 0.23126 0.0
C1648 C 0.85511 0.05734 0.23227 0.0
H1649 H 0.84684 0.90067 0.26003 0.0
H1650 H 0.83882 0.93654 0.24937 0.0
C1651 C 0.86008 0.07802 0.22653 0.0
C1652 C 0.86528 0.01698 0.23715 0.0
H1653 H 0.86496 0.96022 0.23109 0.0
C1654 C 0.86412 0.016 0.25004 0.0
C1655 C 0.86427 0.9967 0.23021 0.0
C1656 C 0.86392 0.99688 0.2163 0.0
C1657 C 0.86386 0.99511 0.25621 0.0
C1658 C 0.86509 0.97484 0.24928 0.0
C1659 C 0.86435 0.97582 0.23638 0.0
C1660 C 0.86983 0.95284 0.25525 0.0
C1661 C 0.86313 0.99493 0.27011 0.0
C1662 C 0.89025 0.94996 0.26163 0.0
C1663 C 0.89493 0.92963 0.26761 0.0
C1664 C 0.87931 0.91163 0.26731 0.0
C1665 C 0.85921 0.91421 0.26046 0.0
C1666 C 0.85454 0.93468 0.25443 0.0
H1667 H 0.85516 0.0106 0.27377 0.0
H1668 H 0.85362 0.98001 0.2736 0.0
H1669 H 0.88068 0.99406 0.27374 0.0
H1670 H 0.90253 0.96359 0.26208 0.0
H1671 H 0.9107 0.92823 0.27267 0.0
H1672 H 0.15356 0.59456 0.47364 0.0
H1673 H 0.1896 0.58811 0.48441 0.0
H1674 H 0.2143 0.6526 0.47141 0.0
H1675 H 0.1788 0.6591 0.46062 0.0
H1676 H 0.24461 0.61603 0.46763 0.0
H1677 H 0.21251 0.62058 0.51588 0.0
H1678 H 0.19876 0.60099 0.5056 0.0
H1679 H 0.19622 0.6309 0.50296 0.0
C1680 C 0.1666 0.60745 0.47319 0.0
C1681 C 0.16329 0.62733 0.46625 0.0
C1682 C 0.18716 0.60372 0.47933 0.0
C1683 C 0.20456 0.6199 0.47868 0.0
C1684 C 0.20112 0.63985 0.47195 0.0
H1685 H 0.31648 0.66149 0.52005 0.0
H1686 H 0.28148 0.65434 0.50887 0.0
C1687 C 0.18074 0.64355 0.46582 0.0
C1688 C 0.22659 0.61642 0.48488 0.0
H1689 H 0.2518 0.61729 0.51317 0.0
C1690 C 0.24624 0.61592 0.47759 0.0
C1691 C 0.22854 0.61637 0.49786 0.0
C1692 C 0.20796 0.61737 0.5061 0.0
C1693 C 0.26788 0.61648 0.48294 0.0
C1694 C 0.26981 0.61728 0.49591 0.0
C1695 C 0.25017 0.61665 0.50321 0.0
C1696 C 0.29175 0.62145 0.50208 0.0
C1697 C 0.28844 0.61756 0.4747 0.0
C1698 C 0.30932 0.60544 0.50177 0.0
C1699 C 0.32957 0.60954 0.50813 0.0
C1700 C 0.3324 0.62963 0.51496 0.0
C1701 C 0.31488 0.64579 0.51495 0.0
C1702 C 0.2948 0.64171 0.5086 0.0
H1703 H 0.28384 0.62014 0.46487 0.0
H1704 H 0.29984 0.63153 0.47763 0.0
H1705 H 0.29803 0.60145 0.47546 0.0
H1706 H 0.30718 0.5896 0.49687 0.0
H1707 H 0.34267 0.5967 0.50802 0.0
H1708 H 0.58993 0.06546 0.77226 0.0
H1709 H 0.59782 0.03011 0.76157 0.0
H1710 H 0.66189 0.05666 0.74911 0.0
H1711 H 0.65412 0.09249 0.75981 0.0
H1712 H 0.63684 0.03366 0.73077 0.0
H1713 H 0.64369 0.98218 0.7732 0.0
H1714 H 0.61819 0.99872 0.77289 0.0
H1715 H 0.64526 0.01277 0.77331 0.0
C1716 C 0.60571 0.06393 0.76723 0.0
C1717 C 0.6215 0.08178 0.767 0.0
C1718 C 0.61025 0.0436 0.7612 0.0
C1719 C 0.63071 0.04058 0.75487 0.0
C1720 C 0.64615 0.05861 0.75413 0.0
H1721 H 0.65199 0.90191 0.7262 0.0
H1722 H 0.66067 0.93774 0.73674 0.0
C1723 C 0.64162 0.07908 0.76018 0.0
C1724 C 0.63535 0.01861 0.74883 0.0
H1725 H 0.63488 0.96172 0.75447 0.0
C1726 C 0.63692 0.01794 0.73595 0.0
C1727 C 0.63595 0.99815 0.75563 0.0
C1728 C 0.63593 0.99797 0.76954 0.0
C1729 C 0.63718 0.99721 0.72963 0.0
C1730 C 0.63549 0.97677 0.7364 0.0
C1731 C 0.63583 0.97743 0.74931 0.0
C1732 C 0.6306 0.95497 0.73024 0.0
C1733 C 0.63846 0.99738 0.71574 0.0
C1734 C 0.6105 0.95265 0.7235 0.0
C1735 C 0.60544 0.93236 0.71758 0.0
C1736 C 0.62035 0.9138 0.71831 0.0
C1737 C 0.64018 0.91588 0.72543 0.0
C1738 C 0.64522 0.93633 0.73141 0.0
H1739 H 0.64703 0.01291 0.71231 0.0
H1740 H 0.64765 0.98229 0.71222 0.0
H1741 H 0.62103 0.99717 0.7119 0.0
H1742 H 0.59867 0.96663 0.7228 0.0
H1743 H 0.5899 0.93137 0.7123 0.0
H1744 H 0.64967 0.59901 0.01039 0.0
H1745 H 0.68517 0.58994 -0.00037 0.0
H1746 H 0.71313 0.6542 0.01087 0.0
H1747 H 0.67815 0.6634 0.02156 0.0
H1748 H 0.7087 0.61437 0.98071 0.0
H1749 H 0.75989 0.6073 0.02327 0.0
H1750 H 0.72929 0.60615 0.02333 0.0
H1751 H 0.74369 0.63302 0.02275 0.0
C1752 C 0.66332 0.61128 0.01047 0.0
C1753 C 0.66114 0.63183 0.01694 0.0
C1754 C 0.68359 0.60601 0.00438 0.0
C1755 C 0.70191 0.62116 0.00477 0.0
C1756 C 0.69939 0.64203 0.01076 0.0
H1757 H 0.81281 0.65757 0.96197 0.0
H1758 H 0.77711 0.65043 0.97244 0.0
C1759 C 0.67928 0.6473 0.0168 0.0
C1760 C 0.72372 0.61576 -0.00122 0.0
H1761 H 0.78056 0.61499 0.00451 0.0
C1762 C 0.7244 0.61399 0.98591 0.0
C1763 C 0.74412 0.61483 0.00561 0.0
C1764 C 0.74424 0.61518 0.01952 0.0
C1765 C 0.74513 0.61314 0.97962 0.0
C1766 C 0.76557 0.61443 0.98641 0.0
C1767 C 0.76485 0.61434 -0.00068 0.0
C1768 C 0.78757 0.61839 0.98027 0.0
C1769 C 0.74499 0.61162 0.96574 0.0
C1770 C 0.80566 0.60318 0.98167 0.0
C1771 C 0.82633 0.60729 0.97573 0.0
C1772 C 0.8292 0.62676 0.9684 0.0
C1773 C 0.8112 0.64228 0.96743 0.0
C1774 C 0.79066 0.63816 0.97332 0.0
H1775 H 0.72922 0.60345 0.96232 0.0
H1776 H 0.74574 0.62896 0.96181 0.0
H1777 H 0.7598 0.60191 0.96229 0.0
H1778 H 0.80366 0.58799 0.98717 0.0
H1779 H 0.83985 0.59501 0.97669 0.0
H1780 H 0.15666 0.90662 0.7608 0.0
H1781 H 0.16483 0.94224 0.74997 0.0
H1782 H 0.10418 0.97181 0.76519 0.0
H1783 H 0.09598 0.93675 0.77603 0.0
H1784 H 0.13889 0.96559 0.73273 0.0
H1785 H 0.1525 0.01857 0.77405 0.0
H1786 H 0.15279 0.98797 0.7746 0.0
H1787 H 0.12635 0.00319 0.77502 0.0
C1788 C 0.14505 0.92071 0.76181 0.0
C1789 C 0.12576 0.91886 0.76937 0.0
C1790 C 0.14981 0.94105 0.75567 0.0
C1791 C 0.13544 0.95982 0.75708 0.0
C1792 C 0.11587 0.95776 0.7643 0.0
H1793 H 0.09165 0.06763 0.71427 0.0
H1794 H 0.10109 0.03265 0.7249 0.0
C1795 C 0.11112 0.93757 0.77041 0.0
C1796 C 0.13993 0.98142 0.75062 0.0
H1797 H 0.141 0.03854 0.7555 0.0
C1798 C 0.13989 0.98152 0.7377 0.0
C1799 C 0.14174 0.00216 0.7571 0.0
C1800 C 0.14361 0.00297 0.77096 0.0
C1801 C 0.13965 0.00196 0.73111 0.0
C1802 C 0.13905 0.02271 0.73764 0.0
C1803 C 0.14107 0.0226 0.75052 0.0
C1804 C 0.13372 0.04433 0.7314 0.0
C1805 C 0.13927 0.00114 0.71721 0.0
C1806 C 0.14853 0.06291 0.732 0.0
C1807 C 0.14309 0.0832 0.72598 0.0
C1808 C 0.12268 0.08517 0.71934 0.0
C1809 C 0.10763 0.06669 0.71916 0.0
C1810 C 0.11306 0.04656 0.72515 0.0
H1811 H 0.14743 0.98544 0.71371 0.0
H1812 H 0.12142 0.00115 0.71399 0.0
H1813 H 0.14802 0.01604 0.71315 0.0
H1814 H 0.16442 0.06158 0.73695 0.0
H1815 H 0.15503 0.09712 0.72632 0.0
H1816 H 0.8263 0.33112 0.52221 0.0
H1817 H 0.78911 0.33652 0.51289 0.0
H1818 H 0.80279 0.40792 0.5087 0.0
H1819 H 0.84044 0.40253 0.5178 0.0
H1820 H 0.75595 0.36328 0.52296 0.0
H1821 H 0.77624 0.39142 0.47524 0.0
H1822 H 0.79703 0.37831 0.48514 0.0
H1823 H 0.78926 0.40743 0.48742 0.0
C1824 C 0.8216 0.34791 0.51908 0.0
C1825 C 0.83627 0.36641 0.52076 0.0
C1826 C 0.80031 0.35098 0.5138 0.0
C1827 C 0.79318 0.37261 0.51012 0.0
C1828 C 0.80809 0.39102 0.51131 0.0
H1829 H 0.65857 0.40225 0.47889 0.0
H1830 H 0.69385 0.4085 0.49042 0.0
C1831 C 0.82959 0.38791 0.51651 0.0
C1832 C 0.76958 0.37575 0.50581 0.0
H1833 H 0.73763 0.38921 0.48063 0.0
C1834 C 0.75194 0.36915 0.51373 0.0
C1835 C 0.76439 0.38364 0.49383 0.0
C1836 C 0.78268 0.39046 0.48485 0.0
C1837 C 0.72933 0.36932 0.50981 0.0
C1838 C 0.72426 0.37626 0.49768 0.0
C1839 C 0.74169 0.38399 0.48996 0.0
C1840 C 0.70154 0.37284 0.49232 0.0
C1841 C 0.71103 0.36149 0.51853 0.0
C1842 C 0.69413 0.35075 0.48983 0.0
C1843 C 0.67424 0.34715 0.48319 0.0
C1844 C 0.66132 0.36559 0.479 0.0
C1845 C 0.6681 0.38772 0.4821 0.0
C1846 C 0.68826 0.39133 0.48861 0.0
H1847 H 0.71676 0.36207 0.52829 0.0
H1848 H 0.69558 0.37207 0.51754 0.0
H1849 H 0.70642 0.34372 0.5163 0.0
H1850 H 0.70431 0.3363 0.49253 0.0
H1851 H 0.66942 0.32992 0.48094 0.0
H1852 H 0.34693 0.09478 0.26046 0.0
H1853 H 0.34227 0.05891 0.24925 0.0
H1854 H 0.40311 0.0331 0.26619 0.0
H1855 H 0.40779 0.06842 0.27745 0.0
H1856 H 0.37079 0.03672 0.23283 0.0
H1857 H 0.35668 0.98408 0.27428 0.0
H1858 H 0.35499 0.01464 0.27458 0.0
H1859 H 0.38206 0.00066 0.27552 0.0
C1860 C 0.35937 0.08149 0.26173 0.0
C1861 C 0.37759 0.08438 0.26995 0.0
C1862 C 0.35662 0.06101 0.25538 0.0
C1863 C 0.372 0.04317 0.25719 0.0
C1864 C 0.39066 0.0464 0.26497 0.0
H1865 H 0.41513 0.93274 0.21377 0.0
H1866 H 0.40816 0.968 0.22479 0.0
C1867 C 0.39338 0.06671 0.27133 0.0
C1868 C 0.36918 0.02123 0.25078 0.0
H1869 H 0.36872 0.96419 0.25598 0.0
C1870 C 0.36994 0.02087 0.23786 0.0
C1871 C 0.36758 0.00058 0.25736 0.0
C1872 C 0.36503 -1e-05 0.2712 0.0
C1873 C 0.37067 0.00031 0.23139 0.0
C1874 C 0.37111 0.97968 0.23805 0.0
C1875 C 0.3688 0.98003 0.25091 0.0
C1876 C 0.37548 0.95775 0.23189 0.0
C1877 C 0.37133 0.0009 0.21749 0.0
C1878 C 0.35993 0.93982 0.23278 0.0
C1879 C 0.364 0.9194 0.22659 0.0
C1880 C 0.3837 0.91666 0.21944 0.0
C1881 C 0.39964 0.93436 0.21905 0.0
C1882 C 0.39561 0.95463 0.22526 0.0
H1883 H 0.36356 0.01668 0.21385 0.0
H1884 H 0.38923 0.00046 0.21438 0.0
H1885 H 0.36236 0.98611 0.21345 0.0
H1886 H 0.34443 0.94182 0.238 0.0
H1887 H 0.35139 0.9061 0.22708 0.0
H1888 H 0.84292 0.90033 0.47765 0.0
H1889 H 0.80728 0.90603 0.48885 0.0
H1890 H 0.78321 0.84117 0.47606 0.0
H1891 H 0.8184 0.83538 0.46481 0.0
H1892 H 0.75258 0.87755 0.47225 0.0
H1893 H 0.78485 0.87364 0.52047 0.0
H1894 H 0.79865 0.89316 0.51018 0.0
H1895 H 0.80108 0.86324 0.50755 0.0
C1896 C 0.83016 0.88715 0.47736 0.0
C1897 C 0.83351 0.86742 0.4703 0.0
C1898 C 0.80982 0.89046 0.48376 0.0
C1899 C 0.79268 0.87401 0.48326 0.0
C1900 C 0.79622 0.85411 0.47649 0.0
H1901 H 0.67882 0.83722 0.52528 0.0
H1902 H 0.71428 0.84233 0.51421 0.0
C1903 C 0.8164 0.85082 0.4701 0.0
C1904 C 0.77067 0.87742 0.48949 0.0
H1905 H 0.7456 0.87819 0.5178 0.0
C1906 C 0.751 0.87799 0.48221 0.0
C1907 C 0.7688 0.87791 0.50246 0.0
C1908 C 0.7894 0.87682 0.51068 0.0
C1909 C 0.72939 0.87816 0.48758 0.0
C1910 C 0.72751 0.87804 0.50056 0.0
C1911 C 0.74719 0.87835 0.50784 0.0
C1912 C 0.70543 0.87517 0.50679 0.0
C1913 C 0.70877 0.8773 0.47937 0.0
C1914 C 0.68855 0.89187 0.50614 0.0
C1915 C 0.66804 0.88896 0.51244 0.0
C1916 C 0.66426 0.86937 0.51955 0.0
C1917 C 0.68114 0.85256 0.51995 0.0
C1918 C 0.70149 0.85546 0.51366 0.0
H1919 H 0.71325 0.8738 0.4696 0.0
H1920 H 0.69681 0.86404 0.48259 0.0
H1921 H 0.69986 0.89384 0.47975 0.0
H1922 H 0.6914 0.90731 0.50097 0.0
H1923 H 0.65546 0.90229 0.512 0.0
H1924 H 0.34651 0.59226 0.72544 0.0
H1925 H 0.34076 0.55639 0.73646 0.0
H1926 H 0.40659 0.53344 0.72459 0.0
H1927 H 0.41245 0.56884 0.71356 0.0
H1928 H 0.37057 0.50219 0.72024 0.0
H1929 H 0.37251 0.53452 0.7685 0.0
H1930 H 0.35331 0.54803 0.75792 0.0
H1931 H 0.38329 0.55085 0.75571 0.0
C1932 C 0.35987 0.57968 0.72532 0.0
C1933 C 0.37992 0.58341 0.71859 0.0
C1934 C 0.35653 0.55921 0.7316 0.0
C1935 C 0.37326 0.54232 0.7313 0.0
C1936 C 0.39343 0.54624 0.72485 0.0
H1937 H 0.41356 0.43039 0.77329 0.0
H1938 H 0.40697 0.46541 0.76202 0.0
C1939 C 0.39676 0.56655 0.71858 0.0
C1940 C 0.36998 0.52025 0.73748 0.0
H1941 H 0.36964 0.49515 0.76579 0.0
C1942 C 0.37002 0.50058 0.7302 0.0
C1943 C 0.36933 0.51836 0.75045 0.0
C1944 C 0.36973 0.53899 0.75867 0.0
C1945 C 0.37043 0.47896 0.73557 0.0
C1946 C 0.37056 0.47709 0.74855 0.0
C1947 C 0.36949 0.49674 0.75583 0.0
C1948 C 0.37439 0.45517 0.75479 0.0
C1949 C 0.372 0.45837 0.72737 0.0
C1950 C 0.35837 0.43762 0.75428 0.0
C1951 C 0.36213 0.41737 0.76069 0.0
C1952 C 0.38191 0.41451 0.76777 0.0
C1953 C 0.39809 0.43201 0.76799 0.0
C1954 C 0.39434 0.4521 0.76159 0.0
H1955 H 0.37508 0.46295 0.71758 0.0
H1956 H 0.38585 0.44703 0.73053 0.0
H1957 H 0.3559 0.44872 0.72789 0.0
H1958 H 0.34277 0.43978 0.74915 0.0
H1959 H 0.34928 0.40427 0.76039 0.0
H1960 H 0.84486 0.09321 0.01373 0.0
H1961 H 0.80945 0.08691 0.00237 0.0
H1962 H 0.78372 0.15084 0.01559 0.0
H1963 H 0.8186 0.15713 0.02704 0.0
H1964 H 0.75332 0.11484 0.01846 0.0
H1965 H 0.78826 0.11926 0.97082 0.0
H1966 H 0.80118 0.09921 0.98114 0.0
H1967 H 0.80399 0.12901 0.98407 0.0
C1968 C 0.83173 0.10601 0.01411 0.0
C1969 C 0.83456 0.12566 0.0213 0.0
C1970 C 0.81154 0.10238 0.00762 0.0
C1971 C 0.79403 0.11845 0.00814 0.0
C1972 C 0.79699 0.13818 0.01514 0.0
H1973 H 0.68442 0.15865 0.96439 0.0
H1974 H 0.71906 0.1517 0.97592 0.0
C1975 C 0.81701 0.14176 0.02164 0.0
C1976 C 0.77237 0.11502 0.00154 0.0
H1977 H 0.74888 0.11516 0.97282 0.0
C1978 C 0.75229 0.11458 0.00848 0.0
C1979 C 0.77121 0.11473 0.98853 0.0
C1980 C 0.79224 0.11572 0.98065 0.0
C1981 C 0.73099 0.11496 0.00275 0.0
C1982 C 0.72984 0.11542 0.98974 0.0
C1983 C 0.74991 0.11475 0.9828 0.0
C1984 C 0.70825 0.1193 0.98315 0.0
C1985 C 0.70996 0.11617 0.01063 0.0
C1986 C 0.69052 0.10346 0.98353 0.0
C1987 C 0.67045 0.10746 0.97699 0.0
C1988 C 0.66798 0.12727 0.96988 0.0
C1989 C 0.68574 0.14317 0.96971 0.0
C1990 C 0.70562 0.13921 0.97627 0.0
H1991 H 0.71399 0.11941 0.02048 0.0
H1992 H 0.69848 0.12975 0.00728 0.0
H1993 H 0.7007 0.09984 0.01002 0.0
H1994 H 0.69235 0.08787 0.9887 0.0
H1995 H 0.65717 0.09481 0.97724 0.0
H1996 H 0.16357 0.59148 0.26483 0.0
H1997 H 0.17177 0.55591 0.25382 0.0
H1998 H 0.10041 0.54044 0.25292 0.0
H1999 H 0.09214 0.57546 0.26398 0.0
H2000 H 0.15244 0.5091 0.26418 0.0
H2001 H 0.12885 0.5323 0.21624 0.0
H2002 H 0.1392 0.55277 0.22731 0.0
H2003 H 0.11045 0.54295 0.22813 0.0
C2004 C 0.14965 0.58066 0.26206 0.0
C2005 C 0.12722 0.58616 0.26528 0.0
C2006 C 0.15437 0.56037 0.25586 0.0
C2007 C 0.13665 0.5457 0.2526 0.0
C2008 C 0.11425 0.55165 0.25535 0.0
H2009 H 0.08756 0.42612 0.22428 0.0
H2010 H 0.09765 0.46225 0.23364 0.0
C2011 C 0.10957 0.57163 0.26167 0.0
C2012 C 0.14107 0.52338 0.247 0.0
H2013 H 0.12833 0.49288 0.22127 0.0
C2014 C 0.14783 0.5055 0.2547 0.0
C2015 C 0.13495 0.51893 0.23467 0.0
C2016 C 0.12811 0.53775 0.22603 0.0
C2017 C 0.14691 0.48292 0.2506 0.0
C2018 C 0.13924 0.47839 0.23851 0.0
C2019 C 0.13408 0.49645 0.23057 0.0
C2020 C 0.13359 0.45522 0.23435 0.0
C2021 C 0.15251 0.46402 0.25944 0.0
C2022 C 0.15044 0.43899 0.23204 0.0
C2023 C 0.14467 0.41809 0.22675 0.0
C2024 C 0.12203 0.41339 0.22359 0.0
C2025 C 0.10517 0.4293 0.22652 0.0
C2026 C 0.1109 0.44998 0.23184 0.0
H2027 H 0.15615 0.47038 0.26888 0.0
H2028 H 0.13823 0.4518 0.25993 0.0
H2029 H 0.16761 0.45471 0.25607 0.0
H2030 H 0.16807 0.44283 0.23384 0.0
H2031 H 0.15804 0.40622 0.22451 0.0
H2032 H 0.18284 0.15513 0.52728 0.0
H2033 H 0.21773 0.14743 0.51613 0.0
H2034 H 0.18986 0.08447 0.50279 0.0
H2035 H 0.15444 0.0922 0.51385 0.0
H2036 H 0.24695 0.11027 0.51899 0.0
H2037 H 0.21217 0.11636 0.47133 0.0
H2038 H 0.19677 0.12655 0.48458 0.0
H2039 H 0.19865 0.09669 0.48164 0.0
C2040 C 0.18397 0.13967 0.52193 0.0
C2041 C 0.16579 0.12429 0.52145 0.0
C2042 C 0.204 0.13526 0.5156 0.0
C2043 C 0.20636 0.11541 0.50864 0.0
C2044 C 0.18826 0.10002 0.50802 0.0
H2045 H 0.34275 0.09166 0.47665 0.0
H2046 H 0.30796 0.08383 0.48835 0.0
C2047 C 0.16806 0.10447 0.51433 0.0
C2048 C 0.22792 0.11131 0.50206 0.0
H2049 H 0.25144 0.11188 0.47336 0.0
C2050 C 0.24798 0.11022 0.509 0.0
C2051 C 0.22909 0.11129 0.48905 0.0
C2052 C 0.2081 0.11292 0.48116 0.0
C2053 C 0.2693 0.11038 0.50328 0.0
C2054 C 0.27046 0.11133 0.49029 0.0
C2055 C 0.2504 0.11111 0.48333 0.0
C2056 C 0.292 0.11577 0.48377 0.0
C2057 C 0.29036 0.11096 0.51116 0.0
C2058 C 0.29452 0.13629 0.47744 0.0
C2059 C 0.31415 0.14075 0.47078 0.0
C2060 C 0.33178 0.12474 0.47028 0.0
C2061 C 0.32954 0.10437 0.47692 0.0
C2062 C 0.30969 0.09987 0.48358 0.0
H2063 H 0.2864 0.1131 0.5211 0.0
H2064 H 0.29983 0.09486 0.50999 0.0
H2065 H 0.30164 0.12502 0.50821 0.0
H2066 H 0.28112 0.14884 0.47756 0.0
H2067 H 0.31534 0.15668 0.46586 0.0
H2068 H 0.6491 0.40319 0.25969 0.0
H2069 H 0.65344 0.43916 0.24861 0.0
H2070 H 0.59073 0.46312 0.26427 0.0
H2071 H 0.58637 0.42759 0.27545 0.0
H2072 H 0.62589 0.46123 0.23168 0.0
H2073 H 0.63567 0.51265 0.27403 0.0
H2074 H 0.63769 0.48212 0.27406 0.0
H2075 H 0.61041 0.49573 0.27422 0.0
C2076 C 0.63613 0.41604 0.26069 0.0
C2077 C 0.61752 0.41261 0.26857 0.0
C2078 C 0.6387 0.4366 0.2544 0.0
C2079 C 0.62272 0.45399 0.25592 0.0
C2080 C 0.6036 0.45016 0.26328 0.0
H2081 H 0.58742 0.56756 0.21202 0.0
H2082 H 0.59143 0.53185 0.22302 0.0
C2083 C 0.60106 0.42975 0.26959 0.0
C2084 C 0.62575 0.47618 0.24978 0.0
H2085 H 0.62686 0.53308 0.25549 0.0
C2086 C 0.6264 0.47693 0.23687 0.0
C2087 C 0.62691 0.49661 0.2566 0.0
C2088 C 0.62788 0.49678 0.2705 0.0
C2089 C 0.62691 0.49768 0.23057 0.0
C2090 C 0.62632 0.51813 0.23738 0.0
C2091 C 0.62696 0.51737 0.25029 0.0
C2092 C 0.6237 0.54038 0.23126 0.0
C2093 C 0.62784 0.49749 0.21667 0.0
C2094 C 0.63999 0.5575 0.23275 0.0
C2095 C 0.63764 0.57818 0.22655 0.0
C2096 C 0.61892 0.58201 0.21879 0.0
C2097 C 0.60221 0.56511 0.21778 0.0
C2098 C 0.60453 0.54458 0.22399 0.0
H2099 H 0.63526 0.48146 0.21314 0.0
H2100 H 0.61038 0.49892 0.21295 0.0
H2101 H 0.63796 0.51194 0.2131 0.0
H2102 H 0.65477 0.55465 0.23847 0.0
H2103 H 0.6508 0.59085 0.22754 0.0
H2104 H 0.17659 0.83628 0.96148 0.0
H2105 H 0.2118 0.8439 0.97235 0.0
H2106 H 0.18535 0.90799 0.98488 0.0
H2107 H 0.14962 0.90043 0.97403 0.0
H2108 H 0.24108 0.88157 0.96837 0.0
H2109 H 0.20892 0.87643 0.01659 0.0
H2110 H 0.1931 0.8653 0.0037 0.0
H2111 H 0.19454 0.89532 0.00618 0.0
C2112 C 0.17808 0.85197 0.9666 0.0
C2113 C 0.16024 0.86776 0.96687 0.0
C2114 C 0.19828 0.85631 0.97277 0.0
C2115 C 0.20115 0.87649 0.97939 0.0
C2116 C 0.18334 0.89222 0.97989 0.0
H2117 H 0.3382 0.90457 0.00883 0.0
H2118 H 0.30249 0.91038 -0.00232 0.0
C2119 C 0.16297 0.88786 0.97371 0.0
C2120 C 0.22302 0.8807 0.9856 0.0
H2121 H 0.24812 0.88084 0.01392 0.0
C2122 C 0.24267 0.8818 0.97833 0.0
C2123 C 0.2249 0.8809 -0.00142 0.0
C2124 C 0.20432 0.8793 0.00679 0.0
C2125 C 0.26429 0.882 0.98371 0.0
C2126 C 0.26618 0.88135 -0.00332 0.0
C2127 C 0.24651 0.88137 0.00396 0.0
C2128 C 0.28822 0.87798 0.00288 0.0
C2129 C 0.28491 0.88158 0.9755 0.0
C2130 C 0.29198 0.85783 0.00939 0.0
C2131 C 0.31219 0.85448 0.01575 0.0
C2132 C 0.32911 0.87126 0.01576 0.0
C2133 C 0.32557 0.89125 0.00894 0.0
C2134 C 0.30519 0.89462 0.00258 0.0
H2135 H 0.28044 0.87881 0.96566 0.0
H2136 H 0.29397 0.898 0.97625 0.0
H2137 H 0.29675 0.868 0.97846 0.0
H2138 H 0.27911 0.84473 0.00965 0.0
H2139 H 0.31435 0.83884 0.02084 0.0
H2140 H 0.85022 0.40694 0.73029 0.0
H2141 H 0.84316 0.44337 0.74054 0.0
H2142 H 0.90675 0.46889 0.7268 0.0
H2143 H 0.91399 0.43294 0.71659 0.0
H2144 H 0.8703 0.46741 0.75821 0.0
H2145 H 0.85956 0.516 0.71495 0.0
H2146 H 0.8577 0.48546 0.71555 0.0
H2147 H 0.8849 0.49919 0.71504 0.0
C2148 C 0.86278 0.42025 0.72954 0.0
C2149 C 0.88257 0.41707 0.72251 0.0
C2150 C 0.85865 0.44105 0.73535 0.0
C2151 C 0.87417 0.45893 0.73412 0.0
C2152 C 0.8943 0.45547 0.72756 0.0
H2153 H 0.91519 0.57274 0.77384 0.0
H2154 H 0.90774 0.53672 0.76373 0.0
C2155 C 0.89845 0.43481 0.7218 0.0
C2156 C 0.86991 0.48125 0.73984 0.0
H2157 H 0.86898 0.53772 0.73308 0.0
C2158 C 0.86953 0.48277 0.75273 0.0
C2159 C 0.86851 0.50121 0.73266 0.0
C2160 C 0.86745 0.50042 0.71878 0.0
C2161 C 0.8695 0.50391 0.75864 0.0
C2162 C 0.87016 0.52389 0.75143 0.0
C2163 C 0.8688 0.52236 0.73856 0.0
C2164 C 0.87456 0.54627 0.75706 0.0
C2165 C 0.86948 0.50469 0.77254 0.0
C2166 C 0.85875 0.56395 0.75615 0.0
C2167 C 0.863 0.58478 0.7619 0.0
C2168 C 0.8832 0.5882 0.76855 0.0
C2169 C 0.89935 0.57068 0.76892 0.0
C2170 C 0.89508 0.54998 0.76322 0.0
H2171 H 0.86204 0.48903 0.77653 0.0
H2172 H 0.88719 0.5061 0.77588 0.0
H2173 H 0.85984 0.51956 0.77598 0.0
H2174 H 0.84294 0.56144 0.75127 0.0
H2175 H 0.85023 0.59791 0.76142 0.0
H2176 H 0.04319 0.3779 0.07188 0.0
H2177 H 0.03516 0.36636 0.09315 0.0
H2178 H 0.09984 0.33263 0.09503 0.0
H2179 H 0.1081 0.34413 0.07394 0.0
H2180 H 0.0598 0.30935 0.10725 0.0
H2181 H 0.0747 0.39969 0.1202 0.0
H2182 H 0.05423 0.39353 0.10836 0.0
H2183 H 0.08373 0.38851 0.10552 0.0
C2184 C 0.05553 0.36768 0.07675 0.0
C2185 C 0.07638 0.36209 0.07126 0.0
C2186 C 0.05087 0.36107 0.08887 0.0
C2187 C 0.06697 0.34875 0.0956 0.0
C2188 C 0.08716 0.34202 0.08991 0.0
H2189 H 0.11859 0.30989 0.16368 0.0
H2190 H 0.10196 0.30964 0.14312 0.0
C2191 C 0.09188 0.34869 0.07786 0.0
C2192 C 0.06448 0.3454 0.109 0.0
H2193 H 0.07293 0.37325 0.13608 0.0
C2194 C 0.06218 0.32332 0.11362 0.0
C2195 C 0.06746 0.36371 0.11722 0.0
C2196 C 0.07028 0.38773 0.11266 0.0
C2197 C 0.06377 0.31897 0.12632 0.0
C2198 C 0.06844 0.33711 0.13447 0.0
C2199 C 0.06934 0.35932 0.12985 0.0
C2200 C 0.07526 0.33354 0.14748 0.0
C2201 C 0.06086 0.29496 0.13081 0.0
C2202 C 0.06579 0.34693 0.15685 0.0
C2203 C 0.07571 0.34758 0.16852 0.0
C2204 C 0.09513 0.33465 0.17108 0.0
C2205 C 0.10357 0.31998 0.16199 0.0
C2206 C 0.0939 0.31964 0.15024 0.0
H2207 H 0.04883 0.28551 0.12484 0.0
H2208 H 0.07741 0.28609 0.13037 0.0
H2209 H 0.05459 0.29442 0.14046 0.0
H2210 H 0.05144 0.35782 0.15494 0.0
H2211 H 0.0686 0.35879 0.17537 0.0
H2212 H 0.88604 0.83845 0.4171 0.0
H2213 H 0.89288 0.82491 0.39626 0.0
H2214 H 0.95739 0.8592 0.39577 0.0
H2215 H 0.95078 0.87276 0.4168 0.0
H2216 H 0.92708 0.87217 0.37724 0.0
H2217 H 0.93442 0.77876 0.37895 0.0
H2218 H 0.9111 0.78941 0.38784 0.0
H2219 H 0.93962 0.79662 0.3922 0.0
C2220 C 0.90199 0.84261 0.41275 0.0
C2221 C 0.91784 0.85674 0.41861 0.0
C2222 C 0.90595 0.83468 0.40084 0.0
C2223 C 0.92579 0.84076 0.39456 0.0
C2224 C 0.9421 0.85409 0.40055 0.0
H2225 H 0.92788 0.84546 0.31389 0.0
H2226 H 0.94362 0.84397 0.33474 0.0
C2227 C 0.93823 0.8619 0.41253 0.0
C2228 C 0.92739 0.83645 0.38118 0.0
H2229 H 0.92197 0.79479 0.35958 0.0
C2230 C 0.92656 0.85526 0.37331 0.0
C2231 C 0.92652 0.81438 0.37618 0.0
C2232 C 0.92818 0.79362 0.38423 0.0
C2233 C 0.92316 0.85268 0.36062 0.0
C2234 C 0.92129 0.83057 0.35563 0.0
C2235 C 0.92343 0.81169 0.36343 0.0
C2236 C 0.91454 0.82698 0.34264 0.0
C2237 C 0.91989 0.87371 0.35287 0.0
C2238 C 0.89381 0.81636 0.34001 0.0
C2239 C 0.885 0.81683 0.32806 0.0
C2240 C 0.89668 0.82823 0.31866 0.0
C2241 C 0.91824 0.83721 0.32108 0.0
C2242 C 0.92726 0.83632 0.33297 0.0
H2243 H 0.91696 0.88903 0.35861 0.0
H2244 H 0.93533 0.87672 0.34727 0.0
H2245 H 0.9053 0.8717 0.34651 0.0
H2246 H 0.88378 0.80892 0.34733 0.0
H2247 H 0.86838 0.80967 0.32638 0.0
H2248 H 0.36275 0.68519 0.65971 0.0
H2249 H 0.37795 0.68725 0.63874 0.0
H2250 H 0.43959 0.65506 0.651 0.0
H2251 H 0.42411 0.65227 0.67186 0.0
H2252 H 0.41543 0.70371 0.62659 0.0
H2253 H 0.41508 0.60933 0.62677 0.0
H2254 H 0.40257 0.62572 0.63901 0.0
H2255 H 0.43281 0.62219 0.63824 0.0
C2256 C 0.3797 0.67894 0.65795 0.0
C2257 C 0.39202 0.66795 0.66726 0.0
C2258 C 0.38839 0.68016 0.646 0.0
C2259 C 0.40963 0.6707 0.64327 0.0
C2260 C 0.42287 0.66179 0.65285 0.0
H2261 H 0.44909 0.62873 0.56897 0.0
H2262 H 0.45457 0.64205 0.59015 0.0
C2263 C 0.414 0.66015 0.66474 0.0
C2264 C 0.41653 0.66783 0.63025 0.0
H2265 H 0.42463 0.62719 0.60832 0.0
C2266 C 0.41777 0.68701 0.62261 0.0
C2267 C 0.41953 0.64599 0.62508 0.0
C2268 C 0.41726 0.6246 0.63264 0.0
C2269 C 0.42115 0.68485 0.60985 0.0
C2270 C 0.42321 0.66298 0.60467 0.0
C2271 C 0.42321 0.64394 0.61238 0.0
C2272 C 0.42213 0.65898 0.59125 0.0
C2273 C 0.42188 0.70589 0.60198 0.0
C2274 C 0.40219 0.6643 0.58485 0.0
C2275 C 0.3989 0.65652 0.57285 0.0
C2276 C 0.4155 0.64326 0.56702 0.0
C2277 C 0.43596 0.63889 0.57322 0.0
C2278 C 0.43918 0.64657 0.58528 0.0
H2279 H 0.42732 0.72089 0.60742 0.0
H2280 H 0.43355 0.7037 0.59404 0.0
H2281 H 0.40466 0.70936 0.59833 0.0
H2282 H 0.38858 0.67334 0.5894 0.0
H2283 H 0.38288 0.66005 0.56841 0.0
H2284 H 0.63493 0.18331 0.82628 0.0
H2285 H 0.61925 0.1853 0.84713 0.0
H2286 H 0.55876 0.15119 0.83467 0.0
H2287 H 0.57477 0.14843 0.81393 0.0
H2288 H 0.58143 0.2012 0.85883 0.0
H2289 H 0.58319 0.10683 0.85953 0.0
H2290 H 0.59564 0.12302 0.8472 0.0
H2291 H 0.56545 0.11907 0.84787 0.0
C2292 C 0.61814 0.17657 0.82797 0.0
C2293 C 0.60632 0.16511 0.81864 0.0
C2294 C 0.60917 0.17776 0.83986 0.0
C2295 C 0.58812 0.1678 0.84251 0.0
C2296 C 0.57535 0.15831 0.8329 0.0
H2297 H 0.54915 0.12769 0.91721 0.0
H2298 H 0.54313 0.14049 0.89598 0.0
C2299 C 0.58453 0.15669 0.82107 0.0
C2300 C 0.58095 0.1652 0.8555 0.0
H2301 H 0.57328 0.12514 0.87778 0.0
C2302 C 0.5793 0.18459 0.86296 0.0
C2303 C 0.5782 0.14348 0.86086 0.0
C2304 C 0.58088 0.12189 0.85351 0.0
C2305 C 0.5759 0.18278 0.87572 0.0
C2306 C 0.57417 0.16105 0.8811 0.0
C2307 C 0.57446 0.14177 0.87357 0.0
C2308 C 0.57549 0.15749 0.89455 0.0
C2309 C 0.57487 0.20403 0.88341 0.0
C2310 C 0.59556 0.16305 0.90076 0.0
C2311 C 0.59917 0.15553 0.91279 0.0
C2312 C 0.58275 0.14234 0.91882 0.0
C2313 C 0.56213 0.13781 0.9128 0.0
C2314 C 0.55861 0.14519 0.90071 0.0
H2315 H 0.56931 0.21881 0.87784 0.0
H2316 H 0.56315 0.20193 0.89134 0.0
H2317 H 0.59201 0.20779 0.88708 0.0
H2318 H 0.60903 0.17202 0.89606 0.0
H2319 H 0.61529 0.15919 0.91708 0.0
H2320 H 0.07416 0.64541 0.31257 0.0
H2321 H 0.05569 0.64814 0.33263 0.0
H2322 H 0.10959 0.69158 0.34549 0.0
H2323 H 0.12764 0.68949 0.3253 0.0
H2324 H 0.0741 0.63117 0.35207 0.0
H2325 H 0.05751 0.72102 0.36231 0.0
H2326 H 0.06361 0.71124 0.34689 0.0
H2327 H 0.08631 0.71766 0.35747 0.0
C2328 C 0.08185 0.65584 0.3196 0.0
C2329 C 0.10253 0.6669 0.31747 0.0
C2330 C 0.07117 0.65757 0.33103 0.0
C2331 C 0.08111 0.67021 0.34057 0.0
C2332 C 0.10119 0.68224 0.33822 0.0
H2333 H 0.10841 0.65883 0.4144 0.0
H2334 H 0.10161 0.67127 0.39333 0.0
C2335 C 0.11166 0.68084 0.3267 0.0
C2336 C 0.07293 0.6676 0.35341 0.0
H2337 H 0.06493 0.69669 0.38026 0.0
C2338 C 0.07137 0.64551 0.35815 0.0
C2339 C 0.06935 0.68629 0.36135 0.0
C2340 C 0.06905 0.71035 0.35668 0.0
C2341 C 0.0682 0.64162 0.37075 0.0
C2342 C 0.06636 0.66033 0.37881 0.0
C2343 C 0.06643 0.6824 0.37402 0.0
C2344 C 0.06788 0.65709 0.39227 0.0
C2345 C 0.06855 0.61753 0.37547 0.0
C2346 C 0.05078 0.64573 0.39877 0.0
C2347 C 0.05462 0.63854 0.41087 0.0
C2348 C 0.07562 0.64263 0.41659 0.0
C2349 C 0.09206 0.65539 0.41029 0.0
C2350 C 0.08818 0.6626 0.39825 0.0
H2351 H 0.07262 0.6051 0.3681 0.0
H2352 H 0.08122 0.61573 0.38298 0.0
H2353 H 0.05168 0.61318 0.37931 0.0
H2354 H 0.03495 0.64145 0.39428 0.0
H2355 H 0.04156 0.62888 0.41552 0.0
H2356 H 0.56837 0.84552 0.67398 0.0
H2357 H 0.55126 0.84304 0.65352 0.0
H2358 H 0.60923 0.8053 0.64062 0.0
H2359 H 0.62598 0.80718 0.66118 0.0
H2360 H 0.57019 0.86371 0.63522 0.0
H2361 H 0.56066 0.77443 0.62144 0.0
H2362 H 0.56473 0.78269 0.63733 0.0
H2363 H 0.58871 0.77912 0.6272 0.0
C2364 C 0.57721 0.83633 0.66683 0.0
C2365 C 0.59868 0.82696 0.66903 0.0
C2366 C 0.56733 0.83472 0.65518 0.0
C2367 C 0.57887 0.82391 0.64552 0.0
C2368 C 0.59968 0.81323 0.64796 0.0
H2369 H 0.61128 0.84334 0.57274 0.0
H2370 H 0.60346 0.8292 0.59337 0.0
C2371 C 0.60937 0.81449 0.65969 0.0
C2372 C 0.57155 0.82753 0.6326 0.0
H2373 H 0.56784 0.80136 0.60461 0.0
C2374 C 0.56895 0.85001 0.62859 0.0
C2375 C 0.56994 0.80968 0.62394 0.0
C2376 C 0.57092 0.78514 0.62775 0.0
C2377 C 0.56668 0.85526 0.61607 0.0
C2378 C 0.56678 0.8375 0.60734 0.0
C2379 C 0.56785 0.81492 0.61136 0.0
C2380 C 0.56931 0.84241 0.59407 0.0
C2381 C 0.56596 0.87985 0.61223 0.0
C2382 C 0.5524 0.85393 0.58749 0.0
C2383 C 0.55685 0.86216 0.57565 0.0
C2384 C 0.57825 0.85886 0.57024 0.0
C2385 C 0.59462 0.84615 0.5766 0.0
C2386 C 0.59016 0.83796 0.5884 0.0
H2387 H 0.5689 0.89155 0.6201 0.0
H2388 H 0.57893 0.88328 0.60506 0.0
H2389 H 0.5491 0.88375 0.60824 0.0
H2390 H 0.53614 0.85736 0.59172 0.0
H2391 H 0.54383 0.87174 0.57092 0.0
H2392 H 0.38019 0.29731 0.82143 0.0
H2393 H 0.39192 0.29228 0.84293 0.0
H2394 H 0.4209 0.35935 0.84296 0.0
H2395 H 0.40929 0.36457 0.8216 0.0
H2396 H 0.44662 0.32382 0.85661 0.0
H2397 H 0.35496 0.33074 0.86851 0.0
H2398 H 0.36305 0.3094 0.85753 0.0
H2399 H 0.3657 0.33881 0.85358 0.0
C2400 C 0.38944 0.31081 0.82594 0.0
C2401 C 0.39361 0.33143 0.81985 0.0
C2402 C 0.39615 0.30789 0.8382 0.0
C2403 C 0.40709 0.32553 0.8445 0.0
C2404 C 0.41254 0.34552 0.83821 0.0
H2405 H 0.43768 0.38059 0.91418 0.0
H2406 H 0.44001 0.36611 0.89313 0.0
C2407 C 0.40582 0.34849 0.826 0.0
C2408 C 0.41025 0.32462 0.85798 0.0
H2409 H 0.38079 0.33077 0.88475 0.0
C2410 C 0.43228 0.32494 0.86283 0.0
C2411 C 0.39145 0.3261 0.866 0.0
C2412 C 0.36742 0.32639 0.86121 0.0
C2413 C 0.43602 0.32731 0.87555 0.0
C2414 C 0.41722 0.32999 0.8835 0.0
C2415 C 0.3952 0.32865 0.87866 0.0
C2416 C 0.4196 0.33629 0.89666 0.0
C2417 C 0.46003 0.32717 0.8803 0.0
C2418 C 0.40747 0.32434 0.90568 0.0
C2419 C 0.40567 0.3329 0.91763 0.0
C2420 C 0.4161 0.35347 0.9208 0.0
C2421 C 0.42952 0.36464 0.912 0.0
C2422 C 0.43103 0.35626 0.89998 0.0
H2423 H 0.47122 0.31691 0.87424 0.0
H2424 H 0.46667 0.34476 0.88035 0.0
H2425 H 0.46098 0.32032 0.88982 0.0
H2426 H 0.39852 0.3089 0.90333 0.0
H2427 H 0.39559 0.32366 0.92423 0.0
H2428 H 0.93146 0.14923 0.17532 0.0
H2429 H 0.94862 0.15265 0.15493 0.0
H2430 H 0.89052 0.19067 0.14243 0.0
H2431 H 0.87376 0.18793 0.16292 0.0
H2432 H 0.93019 0.13272 0.13638 0.0
H2433 H 0.93868 0.22257 0.12363 0.0
H2434 H 0.93456 0.21371 0.13941 0.0
H2435 H 0.91063 0.21748 0.12926 0.0
C2436 C 0.9226 0.15871 0.16829 0.0
C2437 C 0.9011 0.16793 0.17059 0.0
C2438 C 0.93251 0.16084 0.15667 0.0
C2439 C 0.92096 0.17201 0.14713 0.0
C2440 C 0.90011 0.18249 0.14968 0.0
H2441 H 0.88782 0.15364 0.07445 0.0
H2442 H 0.8956 0.16742 0.09518 0.0
C2443 C 0.8904 0.18072 0.16138 0.0
C2444 C 0.92832 0.16898 0.13417 0.0
H2445 H 0.93135 0.19624 0.10647 0.0
C2446 C 0.93119 0.14669 0.12991 0.0
C2447 C 0.92963 0.18718 0.12571 0.0
C2448 C 0.92845 0.21157 0.1298 0.0
C2449 C 0.9334 0.14196 0.11733 0.0
C2450 C 0.93292 0.16004 0.1088 0.0
C2451 C 0.93161 0.18244 0.11307 0.0
C2452 C 0.93026 0.15556 0.0955 0.0
C2453 C 0.93448 0.11754 0.1132 0.0
C2454 C 0.94745 0.14494 0.08871 0.0
C2455 C 0.94303 0.13695 0.07681 0.0
C2456 C 0.92138 0.13955 0.07158 0.0
C2457 C 0.90467 0.15138 0.07818 0.0
C2458 C 0.90911 0.15936 0.09002 0.0
H2459 H 0.9321 0.10548 0.12095 0.0
H2460 H 0.92129 0.11413 0.10613 0.0
H2461 H 0.95124 0.11416 0.10895 0.0
H2462 H 0.96392 0.14197 0.0928 0.0
H2463 H 0.95631 0.12805 0.07191 0.0
H2464 H 0.92976 0.65721 0.81457 0.0
H2465 H 0.94552 0.65914 0.8354 0.0
H2466 H 0.8842 0.69121 0.84821 0.0
H2467 H 0.86875 0.69004 0.82728 0.0
H2468 H 0.92185 0.7066 0.86065 0.0
H2469 H 0.92054 0.61224 0.8588 0.0
H2470 H 0.93844 0.62573 0.84763 0.0
H2471 H 0.90823 0.62945 0.84684 0.0
C2472 C 0.91981 0.66493 0.8218 0.0
C2473 C 0.89783 0.67291 0.81945 0.0
C2474 C 0.92883 0.66608 0.83368 0.0
C2475 C 0.91573 0.67465 0.84341 0.0
C2476 C 0.89454 0.68438 0.84084 0.0
H2477 H 0.88491 0.66009 0.91709 0.0
H2478 H 0.8927 0.67483 0.8966 0.0
C2479 C 0.8857 0.68366 0.8289 0.0
C2480 C 0.92255 0.67095 0.85638 0.0
H2481 H 0.92926 0.62892 0.87765 0.0
C2482 C 0.92385 0.68964 0.86436 0.0
C2483 C 0.92514 0.64877 0.86118 0.0
C2484 C 0.92285 0.62787 0.85322 0.0
C2485 C 0.92669 0.68667 0.8771 0.0
C2486 C 0.92815 0.66449 0.88192 0.0
C2487 C 0.92828 0.64591 0.87388 0.0
C2488 C 0.92599 0.65968 0.89523 0.0
C2489 C 0.9274 0.70723 0.88535 0.0
C2490 C 0.9422 0.64636 0.90131 0.0
C2491 C 0.93776 0.63783 0.91309 0.0
C2492 C 0.91691 0.64227 0.91887 0.0
C2493 C 0.90119 0.65647 0.91297 0.0
C2494 C 0.9057 0.66509 0.90126 0.0
H2495 H 0.93363 0.72236 0.88028 0.0
H2496 H 0.91002 0.71098 0.88867 0.0
H2497 H 0.93841 0.70429 0.89349 0.0
H2498 H 0.95783 0.64176 0.89672 0.0
H2499 H 0.95023 0.62695 0.9174 0.0
H2500 H 0.11173 0.15628 0.57369 0.0
H2501 H 0.10414 0.1702 0.59441 0.0
H2502 H 0.03584 0.14462 0.59228 0.0
H2503 H 0.04323 0.13062 0.57138 0.0
H2504 H 0.06762 0.19893 0.60585 0.0
H2505 H 0.06918 0.10813 0.62025 0.0
H2506 H 0.07986 0.11709 0.60546 0.0
H2507 H 0.04991 0.11645 0.60822 0.0
C2508 C 0.09492 0.15405 0.57746 0.0
C2509 C 0.07815 0.14215 0.57093 0.0
C2510 C 0.09059 0.16211 0.5893 0.0
C2511 C 0.0695 0.1583 0.59485 0.0
C2512 C 0.05225 0.14763 0.58812 0.0
H2513 H 0.06921 0.15177 0.67468 0.0
H2514 H 0.05196 0.15459 0.65427 0.0
C2515 C 0.05654 0.13959 0.57622 0.0
C2516 C 0.06701 0.1627 0.60816 0.0
H2517 H 0.07082 0.13538 0.6357 0.0
C2518 C 0.06781 0.18511 0.61244 0.0
C2519 C 0.06712 0.14459 0.61667 0.0
C2520 C 0.06657 0.12017 0.61251 0.0
C2521 C 0.06979 0.18987 0.62508 0.0
C2522 C 0.07167 0.17169 0.63353 0.0
C2523 C 0.06938 0.14934 0.62925 0.0
C2524 C 0.07897 0.17489 0.64649 0.0
C2525 C 0.07031 0.21427 0.62919 0.0
C2526 C 0.09946 0.18608 0.64906 0.0
C2527 C 0.10919 0.18466 0.66076 0.0
C2528 C 0.0989 0.17153 0.66997 0.0
C2529 C 0.07774 0.16154 0.66765 0.0
C2530 C 0.06779 0.16332 0.65602 0.0
H2531 H 0.05972 0.22499 0.62305 0.0
H2532 H 0.06422 0.21622 0.63881 0.0
H2533 H 0.08795 0.2207 0.62861 0.0
H2534 H 0.10877 0.19457 0.64181 0.0
H2535 H 0.12556 0.19245 0.66233 0.0
H2536 H 0.56627 0.37238 0.41446 0.0
H2537 H 0.56683 0.35689 0.39363 0.0
H2538 H 0.61693 0.30772 0.40475 0.0
H2539 H 0.61721 0.32381 0.42541 0.0
H2540 H 0.63105 0.33002 0.38581 0.0
H2541 H 0.54367 0.30306 0.3755 0.0
H2542 H 0.54375 0.33163 0.38107 0.0
H2543 H 0.55303 0.30896 0.39102 0.0
C2544 C 0.57704 0.35794 0.41254 0.0
C2545 C 0.59184 0.34945 0.42158 0.0
C2546 C 0.57716 0.34892 0.40064 0.0
C2547 C 0.59169 0.33089 0.39764 0.0
C2548 C 0.6055 0.32156 0.40686 0.0
H2549 H 0.63223 0.29554 0.32174 0.0
H2550 H 0.62236 0.28923 0.34344 0.0
C2551 C 0.60567 0.33082 0.41869 0.0
C2552 C 0.59503 0.32433 0.38458 0.0
H2553 H 0.56674 0.31391 0.35771 0.0
C2554 C 0.61705 0.32584 0.37974 0.0
C2555 C 0.57679 0.31886 0.37664 0.0
C2556 C 0.55305 0.3153 0.38138 0.0
C2557 C 0.6211 0.3236 0.36709 0.0
C2558 C 0.60265 0.31972 0.35908 0.0
C2559 C 0.5808 0.31697 0.36393 0.0
C2560 C 0.60555 0.32152 0.34563 0.0
C2561 C 0.64486 0.32684 0.36224 0.0
C2562 C 0.5989 0.34154 0.33973 0.0
C2563 C 0.60468 0.34531 0.32744 0.0
C2564 C 0.61704 0.329 0.32082 0.0
C2565 C 0.62274 0.30845 0.32661 0.0
C2566 C 0.61708 0.30476 0.33897 0.0
H2567 H 0.65706 0.33135 0.36965 0.0
H2568 H 0.6507 0.31096 0.35778 0.0
H2569 H 0.64508 0.34042 0.35516 0.0
H2570 H 0.59016 0.35472 0.3448 0.0
H2571 H 0.60015 0.36137 0.32333 0.0
H2572 H 0.44643 0.87467 0.06924 0.0
H2573 H 0.45284 0.8609 0.09025 0.0
H2574 H 0.38729 0.82865 0.08996 0.0
H2575 H 0.38067 0.84236 0.06913 0.0
H2576 H 0.42349 0.8749 0.10882 0.0
H2577 H 0.42718 0.78127 0.10725 0.0
H2578 H 0.43264 0.79882 0.09391 0.0
H2579 H 0.404 0.7927 0.09852 0.0
C2580 C 0.4336 0.86421 0.07355 0.0
C2581 C 0.413 0.85967 0.06753 0.0
C2582 C 0.43736 0.85627 0.08552 0.0
C2583 C 0.4207 0.84347 0.09156 0.0
C2584 C 0.40062 0.838 0.08534 0.0
H2585 H 0.3647 0.81529 0.16078 0.0
H2586 H 0.3787 0.81383 0.13953 0.0
C2587 C 0.39679 0.84602 0.07343 0.0
C2588 C 0.42231 0.83917 0.10494 0.0
H2589 H 0.41582 0.79787 0.12667 0.0
C2590 C 0.4224 0.85804 0.11278 0.0
C2591 C 0.42067 0.81717 0.11 0.0
C2592 C 0.42133 0.79631 0.10198 0.0
C2593 C 0.41927 0.85566 0.1255 0.0
C2594 C 0.41671 0.83367 0.13055 0.0
C2595 C 0.41782 0.81468 0.12277 0.0
C2596 C 0.41054 0.83045 0.14365 0.0
C2597 C 0.41712 0.87685 0.13324 0.0
C2598 C 0.42429 0.83919 0.15306 0.0
C2599 C 0.41609 0.84048 0.1651 0.0
C2600 C 0.39431 0.83249 0.16793 0.0
C2601 C 0.3815 0.82168 0.15877 0.0
C2602 C 0.38951 0.82081 0.14666 0.0
H2603 H 0.4145 0.89223 0.12751 0.0
H2604 H 0.40276 0.87541 0.1398 0.0
H2605 H 0.4329 0.87932 0.13864 0.0
H2606 H 0.44086 0.84607 0.15098 0.0
H2607 H 0.42658 0.84822 0.17212 0.0
H2608 H 0.9287 0.3471 0.67689 0.0
H2609 H 0.9448 0.34415 0.65618 0.0
H2610 H 0.88359 0.31168 0.64348 0.0
H2611 H 0.86775 0.31395 0.6643 0.0
H2612 H 0.9218 0.29531 0.63167 0.0
H2613 H 0.92034 0.38971 0.63173 0.0
H2614 H 0.93782 0.377 0.64336 0.0
H2615 H 0.90759 0.37322 0.64386 0.0
C2616 C 0.91882 0.33913 0.66971 0.0
C2617 C 0.89677 0.33133 0.67205 0.0
C2618 C 0.92805 0.33738 0.6579 0.0
C2619 C 0.9151 0.32834 0.64824 0.0
C2620 C 0.8938 0.31886 0.65081 0.0
H2621 H 0.88858 0.33778 0.57357 0.0
H2622 H 0.89498 0.3244 0.59447 0.0
C2623 C 0.88475 0.3202 0.66268 0.0
C2624 C 0.92231 0.33122 0.63527 0.0
H2625 H 0.9301 0.37187 0.61333 0.0
C2626 C 0.92397 0.31202 0.62768 0.0
C2627 C 0.92511 0.35307 0.63009 0.0
C2628 C 0.92246 0.37446 0.63762 0.0
C2629 C 0.9275 0.31417 0.61493 0.0
C2630 C 0.92925 0.33604 0.60972 0.0
C2631 C 0.92891 0.35512 0.61741 0.0
C2632 C 0.92801 0.33999 0.59629 0.0
C2633 C 0.9287 0.29309 0.60711 0.0
C2634 C 0.94453 0.3531 0.59033 0.0
C2635 C 0.94088 0.36087 0.57832 0.0
C2636 C 0.92052 0.35585 0.57217 0.0
C2637 C 0.90451 0.34182 0.57797 0.0
C2638 C 0.90823 0.33398 0.58992 0.0
H2639 H 0.93472 0.27833 0.61256 0.0
H2640 H 0.91151 0.28903 0.6036 0.0
H2641 H 0.94012 0.29553 0.59908 0.0
H2642 H 0.95978 0.35814 0.59516 0.0
H2643 H 0.95355 0.37162 0.57408 0.0
H2644 H 0.38263 0.13476 0.32602 0.0
H2645 H 0.39816 0.1411 0.34644 0.0
H2646 H 0.40674 0.21217 0.33817 0.0
H2647 H 0.3899 0.20596 0.31768 0.0
H2648 H 0.43832 0.15537 0.35393 0.0
H2649 H 0.37233 0.21635 0.36979 0.0
H2650 H 0.3695 0.20113 0.35547 0.0
H2651 H 0.38916 0.22428 0.35669 0.0
C2652 C 0.38776 0.15177 0.32853 0.0
C2653 C 0.38492 0.16991 0.32033 0.0
C2654 C 0.39677 0.15538 0.3402 0.0
C2655 C 0.40353 0.17714 0.3439 0.0
C2656 C 0.40123 0.19532 0.33562 0.0
H2657 H 0.44851 0.14941 0.42005 0.0
H2658 H 0.45309 0.16786 0.39989 0.0
C2659 C 0.39168 0.19177 0.32393 0.0
C2660 C 0.41204 0.1801 0.35666 0.0
H2661 H 0.39516 0.19976 0.38474 0.0
C2662 C 0.42922 0.16539 0.3607 0.0
C2663 C 0.40041 0.19356 0.3654 0.0
C2664 C 0.38175 0.20967 0.3617 0.0
C2665 C 0.43291 0.16137 0.37327 0.0
C2666 C 0.41982 0.17336 0.38205 0.0
C2667 C 0.4049 0.19036 0.37798 0.0
C2668 C 0.41759 0.16537 0.39497 0.0
C2669 C 0.44908 0.14269 0.37691 0.0
C2670 C 0.39602 0.15898 0.39918 0.0
C2671 C 0.39333 0.14916 0.41074 0.0
C2672 C 0.4122 0.14509 0.41827 0.0
C2673 C 0.43376 0.15205 0.41429 0.0
C2674 C 0.43638 0.16249 0.40277 0.0
H2675 H 0.45506 0.13277 0.36884 0.0
H2676 H 0.46415 0.15018 0.38146 0.0
H2677 H 0.4409 0.13082 0.38349 0.0
H2678 H 0.38124 0.16089 0.39335 0.0
H2679 H 0.37651 0.14398 0.41358 0.0
H2680 H 0.62901 0.70243 0.16743 0.0
H2681 H 0.61545 0.71091 0.14655 0.0
H2682 H 0.584 0.64506 0.14466 0.0
H2683 H 0.59783 0.63624 0.16519 0.0
H2684 H 0.62843 0.68225 0.12629 0.0
H2685 H 0.5352 0.68871 0.13031 0.0
H2686 H 0.55413 0.69347 0.14317 0.0
H2687 H 0.54695 0.66509 0.13857 0.0
C2688 C 0.6189 0.68991 0.16263 0.0
C2689 C 0.61441 0.66868 0.16801 0.0
C2690 C 0.61107 0.69485 0.15076 0.0
C2691 C 0.59832 0.67879 0.14421 0.0
C2692 C 0.59327 0.65792 0.14971 0.0
H2693 H 0.56165 0.62424 0.07704 0.0
H2694 H 0.56266 0.63993 0.0979 0.0
C2695 C 0.6013 0.65286 0.16146 0.0
C2696 C 0.59309 0.68205 0.13103 0.0
H2697 H 0.54976 0.67776 0.11037 0.0
C2698 C 0.61125 0.68193 0.12273 0.0
C2699 C 0.57065 0.68149 0.12653 0.0
C2700 C 0.55059 0.68241 0.13512 0.0
C2701 C 0.60766 0.67922 0.11005 0.0
C2702 C 0.58518 0.67737 0.10556 0.0
C2703 C 0.56695 0.67915 0.11382 0.0
C2704 C 0.58053 0.67053 0.09267 0.0
C2705 C 0.62807 0.67645 0.10178 0.0
C2706 C 0.58913 0.68307 0.08273 0.0
C2707 C 0.58902 0.67386 0.07087 0.0
C2708 C 0.57973 0.65231 0.06876 0.0
C2709 C 0.56901 0.64085 0.07847 0.0
C2710 C 0.56956 0.64983 0.09037 0.0
H2711 H 0.64391 0.67368 0.10711 0.0
H2712 H 0.62576 0.66192 0.0954 0.0
H2713 H 0.63034 0.69203 0.09619 0.0
H2714 H 0.59698 0.69943 0.08424 0.0
H2715 H 0.59678 0.68332 0.06345 0.0
H2716 H 0.09307 0.86489 0.82135 0.0
H2717 H 0.07792 0.85703 0.84178 0.0
H2718 H 0.10158 0.78806 0.83933 0.0
H2719 H 0.11687 0.79575 0.81874 0.0
H2720 H 0.04753 0.82184 0.85237 0.0
H2721 H 0.1374 0.81832 0.86826 0.0
H2722 H 0.12983 0.82967 0.85338 0.0
H2723 H 0.12888 0.79966 0.856 0.0
C2724 C 0.09464 0.84789 0.82499 0.0
C2725 C 0.10638 0.831 0.81847 0.0
C2726 C 0.08588 0.84342 0.83666 0.0
C2727 C 0.08878 0.82204 0.84205 0.0
C2728 C 0.0993 0.80471 0.83531 0.0
H2729 H 0.09098 0.81844 0.9219 0.0
H2730 H 0.0881 0.802 0.90129 0.0
C2731 C 0.10807 0.80916 0.82358 0.0
C2732 C 0.08353 0.81922 0.85525 0.0
H2733 H 0.10942 0.82051 0.88327 0.0
C2734 C 0.06096 0.82104 0.85918 0.0
C2735 C 0.10112 0.81805 0.86406 0.0
C2736 C 0.12571 0.81642 0.8603 0.0
C2737 C 0.0556 0.82282 0.87175 0.0
C2738 C 0.07336 0.8234 0.88051 0.0
C2739 C 0.09578 0.82006 0.87657 0.0
C2740 C 0.06984 0.83041 0.89349 0.0
C2741 C 0.03105 0.82455 0.87547 0.0
C2742 C 0.05975 0.85144 0.8961 0.0
C2743 C 0.06119 0.86073 0.90792 0.0
C2744 C 0.07328 0.8494 0.91719 0.0
C2745 C 0.08206 0.82774 0.91482 0.0
C2746 C 0.08023 0.81825 0.90308 0.0
H2747 H 0.02011 0.81481 0.86903 0.0
H2748 H 0.02824 0.81821 0.88498 0.0
H2749 H 0.02566 0.84254 0.87501 0.0
H2750 H 0.05218 0.86147 0.88883 0.0
H2751 H 0.05435 0.8775 0.90954 0.0
loop_
_geom_bond_atom_site_label_1
_geom_bond_atom_site_label_2
_geom_bond_distance
_geom_bond_site_symmetry_2
_ccdc_geom_bond_type
Mg0 O1 2.028 . S
Mg0 O7 1.986 . S
Mg0 O9 2.114 . S
Mg0 O10 2.251 . S
Mg0 O13 2.010 . S
O1 Mg0 2.028 . S
O1 C4 1.250 . S
O2 Mg3 2.028 . S
O2 C4 1.248 . S
Mg3 O2 2.028 . S
Mg3 O8 2.032 . S
Mg3 O10 2.079 . S
C4 O1 1.250 . S
C4 O2 1.248 . S
C5 O6 1.264 . S
C5 O13 1.249 . S
O6 C5 1.264 . S
O7 Mg0 1.986 . S
O7 C11 1.246 . S
O8 Mg3 2.032 . S
O8 C11 1.259 . S
O9 Mg0 2.114 . S
O9 C12 1.252 . S
O10 Mg0 2.251 . S
O10 Mg3 2.079 . S
O10 C12 1.273 . S
C11 O7 1.246 . S
C11 O8 1.259 . S
C12 O9 1.252 . S
C12 O10 1.273 . S
O13 Mg0 2.010 . S
O13 C5 1.249 . S
Mg14 O15 2.028 . S
Mg14 O21 1.986 . S
Mg14 O23 2.114 . S
Mg14 O24 2.251 . S
Mg14 O27 2.010 . S
O15 Mg14 2.028 . S
O15 C18 1.250 . S
O16 Mg17 2.028 . S
O16 C18 1.248 . S
Mg17 O16 2.028 . S
Mg17 O22 2.032 . S
Mg17 O24 2.079 . S
C18 O15 1.250 . S
C18 O16 1.248 . S
C19 O20 1.264 . S
C19 O27 1.249 . S
O20 C19 1.264 . S
O21 Mg14 1.986 . S
O21 C25 1.246 . S
O22 Mg17 2.032 . S
O22 C25 1.259 . S
O23 Mg14 2.114 . S
O23 C26 1.252 . S
O24 Mg14 2.251 . S
O24 Mg17 2.079 . S
O24 C26 1.273 . S
C25 O21 1.246 . S
C25 O22 1.259 . S
C26 O23 1.252 . S
C26 O24 1.273 . S
O27 Mg14 2.010 . S
O27 C19 1.249 . S
Mg28 O29 2.028 . S
Mg28 O35 1.986 . S
Mg28 O37 2.114 . S
Mg28 O38 2.251 . S
Mg28 O41 2.010 . S
O29 Mg28 2.028 . S
O29 C32 1.250 . S
O30 Mg31 2.028 . S
O30 C32 1.248 . S
Mg31 O30 2.028 . S
Mg31 O36 2.032 . S
Mg31 O38 2.079 . S
C32 O29 1.250 . S
C32 O30 1.248 . S
C33 O34 1.264 . S
C33 O41 1.249 . S
O34 C33 1.264 . S
O35 Mg28 1.986 . S
O35 C39 1.246 . S
O36 Mg31 2.032 . S
O36 C39 1.259 . S
O37 Mg28 2.114 . S
O37 C40 1.252 . S
O38 Mg28 2.251 . S
O38 Mg31 2.079 . S
O38 C40 1.273 . S
C39 O35 1.246 . S
C39 O36 1.259 . S
C40 O37 1.252 . S
C40 O38 1.273 . S
O41 Mg28 2.010 . S
O41 C33 1.249 . S
Mg42 O43 2.028 . S
Mg42 O49 1.986 . S
Mg42 O51 2.114 . S
Mg42 O52 2.251 . S
Mg42 O55 2.010 . S
O43 Mg42 2.028 . S
O43 C46 1.250 . S
O44 Mg45 2.028 . S
O44 C46 1.248 . S
Mg45 O44 2.028 . S
Mg45 O50 2.032 . S
Mg45 O52 2.079 . S
C46 O43 1.250 . S
C46 O44 1.248 . S
C47 O48 1.264 . S
C47 O55 1.249 . S
O48 C47 1.264 . S
O49 Mg42 1.986 . S
O49 C53 1.246 . S
O50 Mg45 2.032 . S
O50 C53 1.259 . S
O51 Mg42 2.114 . S
O51 C54 1.252 . S
O52 Mg42 2.251 . S
O52 Mg45 2.079 . S
O52 C54 1.273 . S
C53 O49 1.246 . S
C53 O50 1.259 . S
C54 O51 1.252 . S
C54 O52 1.273 . S
O55 Mg42 2.010 . S
O55 C47 1.249 . S
Mg56 O57 2.028 . S
Mg56 O63 1.986 . S
Mg56 O65 2.114 . S
Mg56 O66 2.251 . S
Mg56 O69 2.010 . S
O57 Mg56 2.028 . S
O57 C60 1.250 . S
O58 Mg59 2.028 . S
O58 C60 1.248 . S
Mg59 O58 2.028 . S
Mg59 O64 2.032 . S
Mg59 O66 2.079 . S
C60 O57 1.250 . S
C60 O58 1.248 . S
C61 O62 1.264 . S
C61 O69 1.249 . S
O62 C61 1.264 . S
O63 Mg56 1.986 . S
O63 C67 1.246 . S
O64 Mg59 2.032 . S
O64 C67 1.259 . S
O65 Mg56 2.114 . S
O65 C68 1.252 . S
O66 Mg56 2.251 . S
O66 Mg59 2.079 . S
O66 C68 1.273 . S
C67 O63 1.246 . S
C67 O64 1.259 . S
C68 O65 1.252 . S
C68 O66 1.273 . S
O69 Mg56 2.010 . S
O69 C61 1.249 . S
Mg70 O71 2.028 . S
Mg70 O77 1.986 . S
Mg70 O79 2.114 . S
Mg70 O80 2.251 . S
Mg70 O83 2.010 . S
O71 Mg70 2.028 . S
O71 C74 1.250 . S
O72 Mg73 2.028 . S
O72 C74 1.248 . S
Mg73 O72 2.028 . S
Mg73 O78 2.032 . S
Mg73 O80 2.079 . S
C74 O71 1.250 . S
C74 O72 1.248 . S
C75 O76 1.264 . S
C75 O83 1.249 . S
O76 C75 1.264 . S
O77 Mg70 1.986 . S
O77 C81 1.246 . S
O78 Mg73 2.032 . S
O78 C81 1.259 . S
O79 Mg70 2.114 . S
O79 C82 1.252 . S
O80 Mg70 2.251 . S
O80 Mg73 2.079 . S
O80 C82 1.273 . S
C81 O77 1.246 . S
C81 O78 1.259 . S
C82 O79 1.252 . S
C82 O80 1.273 . S
O83 Mg70 2.010 . S
O83 C75 1.249 . S
Mg84 O85 2.028 . S
Mg84 O91 1.986 . S
Mg84 O93 2.114 . S
Mg84 O94 2.251 . S
Mg84 O97 2.010 . S
O85 Mg84 2.028 . S
O85 C88 1.250 . S
O86 Mg87 2.028 . S
O86 C88 1.248 . S
Mg87 O86 2.028 . S
Mg87 O92 2.032 . S
Mg87 O94 2.079 . S
C88 O85 1.250 . S
C88 O86 1.248 . S
C89 O90 1.264 . S
C89 O97 1.249 . S
O90 C89 1.264 . S
O91 Mg84 1.986 . S
O91 C95 1.246 . S
O92 Mg87 2.032 . S
O92 C95 1.259 . S
O93 Mg84 2.114 . S
O93 C96 1.252 . S
O94 Mg84 2.251 . S
O94 Mg87 2.079 . S
O94 C96 1.273 . S
C95 O91 1.246 . S
C95 O92 1.259 . S
C96 O93 1.252 . S
C96 O94 1.273 . S
O97 Mg84 2.010 . S
O97 C89 1.249 . S
Mg98 O99 2.028 . S
Mg98 O105 1.986 . S
Mg98 O107 2.114 . S
Mg98 O108 2.251 . S
Mg98 O111 2.010 . S
O99 Mg98 2.028 . S
O99 C102 1.250 . S
O100 Mg101 2.028 . S
O100 C102 1.248 . S
Mg101 O100 2.028 . S
Mg101 O106 2.032 . S
Mg101 O108 2.079 . S
C102 O99 1.250 . S
C102 O100 1.248 . S
C103 O104 1.264 . S
C103 O111 1.249 . S
O104 C103 1.264 . S
O105 Mg98 1.986 . S
O105 C109 1.246 . S
O106 Mg101 2.032 . S
O106 C109 1.259 . S
O107 Mg98 2.114 . S
O107 C110 1.252 . S
O108 Mg98 2.251 . S
O108 Mg101 2.079 . S
O108 C110 1.273 . S
C109 O105 1.246 . S
C109 O106 1.259 . S
C110 O107 1.252 . S
C110 O108 1.273 . S
O111 Mg98 2.010 . S
O111 C103 1.249 . S
Mg112 O113 2.028 . S
Mg112 O119 1.986 . S
Mg112 O121 2.114 . S
Mg112 O122 2.251 . S
Mg112 O125 2.010 . S
O113 Mg112 2.028 . S
O113 C116 1.250 . S
O114 Mg115 2.028 . S
O114 C116 1.248 . S
Mg115 O114 2.028 . S
Mg115 O120 2.032 . S
Mg115 O122 2.079 . S
C116 O113 1.250 . S
C116 O114 1.248 . S
C117 O118 1.264 . S
C117 O125 1.249 . S
O118 C117 1.264 . S
O119 Mg112 1.986 . S
O119 C123 1.246 . S
O120 Mg115 2.032 . S
O120 C123 1.259 . S
O121 Mg112 2.114 . S
O121 C124 1.252 . S
O122 Mg112 2.251 . S
O122 Mg115 2.079 . S
O122 C124 1.273 . S
C123 O119 1.246 . S
C123 O120 1.259 . S
C124 O121 1.252 . S
C124 O122 1.273 . S
O125 Mg112 2.010 . S
O125 C117 1.249 . S
Mg126 O127 2.028 . S
Mg126 O133 1.986 . S
Mg126 O135 2.114 . S
Mg126 O136 2.251 . S
Mg126 O139 2.010 . S
O127 Mg126 2.028 . S
O127 C130 1.250 . S
O128 Mg129 2.028 . S
O128 C130 1.248 . S
Mg129 O128 2.028 . S
Mg129 O134 2.032 . S
Mg129 O136 2.079 . S
C130 O127 1.250 . S
C130 O128 1.248 . S
C131 O132 1.264 . S
C131 O139 1.249 . S
O132 C131 1.264 . S
O133 Mg126 1.986 . S
O133 C137 1.246 . S
O134 Mg129 2.032 . S
O134 C137 1.259 . S
O135 Mg126 2.114 . S
O135 C138 1.252 . S
O136 Mg126 2.251 . S
O136 Mg129 2.079 . S
O136 C138 1.273 . S
C137 O133 1.246 . S
C137 O134 1.259 . S
C138 O135 1.252 . S
C138 O136 1.273 . S
O139 Mg126 2.010 . S
O139 C131 1.249 . S
Mg140 O141 2.028 . S
Mg140 O147 1.986 . S
Mg140 O149 2.114 . S
Mg140 O150 2.251 . S
Mg140 O153 2.010 . S
O141 Mg140 2.028 . S
O141 C144 1.250 . S
O142 Mg143 2.028 . S
O142 C144 1.248 . S
Mg143 O142 2.028 . S
Mg143 O148 2.032 . S
Mg143 O150 2.079 . S
C144 O141 1.250 . S
C144 O142 1.248 . S
C145 O146 1.264 . S
C145 O153 1.249 . S
O146 C145 1.264 . S
O147 Mg140 1.986 . S
O147 C151 1.246 . S
O148 Mg143 2.032 . S
O148 C151 1.259 . S
O149 Mg140 2.114 . S
O149 C152 1.252 . S
O150 Mg140 2.251 . S
O150 Mg143 2.079 . S
O150 C152 1.273 . S
C151 O147 1.246 . S
C151 O148 1.259 . S
C152 O149 1.252 . S
C152 O150 1.273 . S
O153 Mg140 2.010 . S
O153 C145 1.249 . S
Mg154 O155 2.028 . S
Mg154 O161 1.986 . S
Mg154 O163 2.114 . S
Mg154 O164 2.251 . S
Mg154 O167 2.010 . S
O155 Mg154 2.028 . S
O155 C158 1.250 . S
O156 Mg157 2.028 . S
O156 C158 1.248 . S
Mg157 O156 2.028 . S
Mg157 O162 2.032 . S
Mg157 O164 2.079 . S
C158 O155 1.250 . S
C158 O156 1.248 . S
C159 O160 1.264 . S
C159 O167 1.249 . S
O160 C159 1.264 . S
O161 Mg154 1.986 . S
O161 C165 1.246 . S
O162 Mg157 2.032 . S
O162 C165 1.259 . S
O163 Mg154 2.114 . S
O163 C166 1.252 . S
O164 Mg154 2.251 . S
O164 Mg157 2.079 . S
O164 C166 1.273 . S
C165 O161 1.246 . S
C165 O162 1.259 . S
C166 O163 1.252 . S
C166 O164 1.273 . S
O167 Mg154 2.010 . S
O167 C159 1.249 . S
Mg168 O169 2.028 . S
Mg168 O175 1.986 . S
Mg168 O177 2.114 . S
Mg168 O178 2.251 . S
Mg168 O181 2.010 . S
O169 Mg168 2.028 . S
O169 C172 1.250 . S
O170 Mg171 2.028 . S
O170 C172 1.248 . S
Mg171 O170 2.028 . S
Mg171 O176 2.032 . S
Mg171 O178 2.079 . S
C172 O169 1.250 . S
C172 O170 1.248 . S
C173 O174 1.264 . S
C173 O181 1.249 . S
O174 C173 1.264 . S
O175 Mg168 1.986 . S
O175 C179 1.246 . S
O176 Mg171 2.032 . S
O176 C179 1.259 . S
O177 Mg168 2.114 . S
O177 C180 1.252 . S
O178 Mg168 2.251 . S
O178 Mg171 2.079 . S
O178 C180 1.273 . S
C179 O175 1.246 . S
C179 O176 1.259 . S
C180 O177 1.252 . S
C180 O178 1.273 . S
O181 Mg168 2.010 . S
O181 C173 1.249 . S
Mg182 O183 2.028 . S
Mg182 O189 1.986 . S
Mg182 O191 2.114 . S
Mg182 O192 2.251 . S
Mg182 O195 2.010 . S
O183 Mg182 2.028 . S
O183 C186 1.250 . S
O184 Mg185 2.028 . S
O184 C186 1.248 . S
Mg185 O184 2.028 . S
Mg185 O190 2.032 . S
Mg185 O192 2.079 . S
C186 O183 1.250 . S
C186 O184 1.248 . S
C187 O188 1.264 . S
C187 O195 1.249 . S
O188 C187 1.264 . S
O189 Mg182 1.986 . S
O189 C193 1.246 . S
O190 Mg185 2.032 . S
O190 C193 1.259 . S
O191 Mg182 2.114 . S
O191 C194 1.252 . S
O192 Mg182 2.251 . S
O192 Mg185 2.079 . S
O192 C194 1.273 . S
C193 O189 1.246 . S
C193 O190 1.259 . S
C194 O191 1.252 . S
C194 O192 1.273 . S
O195 Mg182 2.010 . S
O195 C187 1.249 . S
Mg196 O197 2.028 . S
Mg196 O203 1.986 . S
Mg196 O205 2.114 . S
Mg196 O206 2.251 . S
Mg196 O209 2.010 . S
O197 Mg196 2.028 . S
O197 C200 1.250 . S
O198 Mg199 2.028 . S
O198 C200 1.248 . S
Mg199 O198 2.028 . S
Mg199 O204 2.032 . S
Mg199 O206 2.079 . S
C200 O197 1.250 . S
C200 O198 1.248 . S
C201 O202 1.264 . S
C201 O209 1.249 . S
O202 C201 1.264 . S
O203 Mg196 1.986 . S
O203 C207 1.246 . S
O204 Mg199 2.032 . S
O204 C207 1.259 . S
O205 Mg196 2.114 . S
O205 C208 1.252 . S
O206 Mg196 2.251 . S
O206 Mg199 2.079 . S
O206 C208 1.273 . S
C207 O203 1.246 . S
C207 O204 1.259 . S
C208 O205 1.252 . S
C208 O206 1.273 . S
O209 Mg196 2.010 . S
O209 C201 1.249 . S
Mg210 O211 2.028 . S
Mg210 O217 1.986 . S
Mg210 O219 2.114 . S
Mg210 O220 2.251 . S
Mg210 O223 2.010 . S
O211 Mg210 2.028 . S
O211 C214 1.250 . S
O212 Mg213 2.028 . S
O212 C214 1.248 . S
Mg213 O212 2.028 . S
Mg213 O218 2.032 . S
Mg213 O220 2.079 . S
C214 O211 1.250 . S
C214 O212 1.248 . S
C215 O216 1.264 . S
C215 O223 1.249 . S
O216 C215 1.264 . S
O217 Mg210 1.986 . S
O217 C221 1.246 . S
O218 Mg213 2.032 . S
O218 C221 1.259 . S
O219 Mg210 2.114 . S
O219 C222 1.252 . S
O220 Mg210 2.251 . S
O220 Mg213 2.079 . S
O220 C222 1.273 . S
C221 O217 1.246 . S
C221 O218 1.259 . S
C222 O219 1.252 . S
C222 O220 1.273 . S
O223 Mg210 2.010 . S
O223 C215 1.249 . S
Mg224 O225 2.028 . S
Mg224 O231 1.986 . S
Mg224 O233 2.114 . S
Mg224 O234 2.251 . S
Mg224 O237 2.010 . S
O225 Mg224 2.028 . S
O225 C228 1.250 . S
O226 Mg227 2.028 . S
O226 C228 1.248 . S
Mg227 O226 2.028 . S
Mg227 O232 2.032 . S
Mg227 O234 2.079 . S
C228 O225 1.250 . S
C228 O226 1.248 . S
C229 O230 1.264 . S
C229 O237 1.249 . S
O230 C229 1.264 . S
O231 Mg224 1.986 . S
O231 C235 1.246 . S
O232 Mg227 2.032 . S
O232 C235 1.259 . S
O233 Mg224 2.114 . S
O233 C236 1.252 . S
O234 Mg224 2.251 . S
O234 Mg227 2.079 . S
O234 C236 1.273 . S
C235 O231 1.246 . S
C235 O232 1.259 . S
C236 O233 1.252 . S
C236 O234 1.273 . S
O237 Mg224 2.010 . S
O237 C229 1.249 . S
Mg238 O239 2.028 . S
Mg238 O245 1.986 . S
Mg238 O247 2.114 . S
Mg238 O248 2.251 . S
Mg238 O251 2.010 . S
O239 Mg238 2.028 . S
O239 C242 1.250 . S
O240 Mg241 2.028 . S
O240 C242 1.248 . S
Mg241 O240 2.028 . S
Mg241 O246 2.032 . S
Mg241 O248 2.079 . S
C242 O239 1.250 . S
C242 O240 1.248 . S
C243 O244 1.264 . S
C243 O251 1.249 . S
O244 C243 1.264 . S
O245 Mg238 1.986 . S
O245 C249 1.246 . S
O246 Mg241 2.032 . S
O246 C249 1.259 . S
O247 Mg238 2.114 . S
O247 C250 1.252 . S
O248 Mg238 2.251 . S
O248 Mg241 2.079 . S
O248 C250 1.273 . S
C249 O245 1.246 . S
C249 O246 1.259 . S
C250 O247 1.252 . S
C250 O248 1.273 . S
O251 Mg238 2.010 . S
O251 C243 1.249 . S
Mg252 O253 2.028 . S
Mg252 O259 1.986 . S
Mg252 O261 2.114 . S
Mg252 O262 2.251 . S
Mg252 O265 2.010 . S
O253 Mg252 2.028 . S
O253 C256 1.250 . S
O254 Mg255 2.028 . S
O254 C256 1.248 . S
Mg255 O254 2.028 . S
Mg255 O260 2.032 . S
Mg255 O262 2.079 . S
C256 O253 1.250 . S
C256 O254 1.248 . S
C257 O258 1.264 . S
C257 O265 1.249 . S
O258 C257 1.264 . S
O259 Mg252 1.986 . S
O259 C263 1.246 . S
O260 Mg255 2.032 . S
O260 C263 1.259 . S
O261 Mg252 2.114 . S
O261 C264 1.252 . S
O262 Mg252 2.251 . S
O262 Mg255 2.079 . S
O262 C264 1.273 . S
C263 O259 1.246 . S
C263 O260 1.259 . S
C264 O261 1.252 . S
C264 O262 1.273 . S
O265 Mg252 2.010 . S
O265 C257 1.249 . S
Mg266 O267 2.028 . S
Mg266 O273 1.986 . S
Mg266 O275 2.114 . S
Mg266 O276 2.251 . S
Mg266 O279 2.010 . S
O267 Mg266 2.028 . S
O267 C270 1.250 . S
O268 Mg269 2.028 . S
O268 C270 1.248 . S
Mg269 O268 2.028 . S
Mg269 O274 2.032 . S
Mg269 O276 2.079 . S
C270 O267 1.250 . S
C270 O268 1.248 . S
C271 O272 1.264 . S
C271 O279 1.249 . S
O272 C271 1.264 . S
O273 Mg266 1.986 . S
O273 C277 1.246 . S
O274 Mg269 2.032 . S
O274 C277 1.259 . S
O275 Mg266 2.114 . S
O275 C278 1.252 . S
O276 Mg266 2.251 . S
O276 Mg269 2.079 . S
O276 C278 1.273 . S
C277 O273 1.246 . S
C277 O274 1.259 . S
C278 O275 1.252 . S
C278 O276 1.273 . S
O279 Mg266 2.010 . S
O279 C271 1.249 . S
Mg280 O281 2.028 . S
Mg280 O287 1.986 . S
Mg280 O289 2.114 . S
Mg280 O290 2.251 . S
Mg280 O293 2.010 . S
O281 Mg280 2.028 . S
O281 C284 1.250 . S
O282 Mg283 2.028 . S
O282 C284 1.248 . S
Mg283 O282 2.028 . S
Mg283 O288 2.032 . S
Mg283 O290 2.079 . S
C284 O281 1.250 . S
C284 O282 1.248 . S
C285 O286 1.264 . S
C285 O293 1.249 . S
O286 C285 1.264 . S
O287 Mg280 1.986 . S
O287 C291 1.246 . S
O288 Mg283 2.032 . S
O288 C291 1.259 . S
O289 Mg280 2.114 . S
O289 C292 1.252 . S
O290 Mg280 2.251 . S
O290 Mg283 2.079 . S
O290 C292 1.273 . S
C291 O287 1.246 . S
C291 O288 1.259 . S
C292 O289 1.252 . S
C292 O290 1.273 . S
O293 Mg280 2.010 . S
O293 C285 1.249 . S
Mg294 O295 2.028 . S
Mg294 O301 1.986 . S
Mg294 O303 2.114 . S
Mg294 O304 2.251 . S
Mg294 O307 2.010 . S
O295 Mg294 2.028 . S
O295 C298 1.250 . S
O296 Mg297 2.028 . S
O296 C298 1.248 . S
Mg297 O296 2.028 . S
Mg297 O302 2.032 . S
Mg297 O304 2.079 . S
C298 O295 1.250 . S
C298 O296 1.248 . S
C299 O300 1.264 . S
C299 O307 1.249 . S
O300 C299 1.264 . S
O301 Mg294 1.986 . S
O301 C305 1.246 . S
O302 Mg297 2.032 . S
O302 C305 1.259 . S
O303 Mg294 2.114 . S
O303 C306 1.252 . S
O304 Mg294 2.251 . S
O304 Mg297 2.079 . S
O304 C306 1.273 . S
C305 O301 1.246 . S
C305 O302 1.259 . S
C306 O303 1.252 . S
C306 O304 1.273 . S
O307 Mg294 2.010 . S
O307 C299 1.249 . S
Mg308 O309 2.028 . S
Mg308 O315 1.986 . S
Mg308 O317 2.114 . S
Mg308 O318 2.251 . S
Mg308 O321 2.010 . S
O309 Mg308 2.028 . S
O309 C312 1.250 . S
O310 Mg311 2.028 . S
O310 C312 1.248 . S
Mg311 O310 2.028 . S
Mg311 O316 2.032 . S
Mg311 O318 2.079 . S
C312 O309 1.250 . S
C312 O310 1.248 . S
C313 O314 1.264 . S
C313 O321 1.249 . S
O314 C313 1.264 . S
O315 Mg308 1.986 . S
O315 C319 1.246 . S
O316 Mg311 2.032 . S
O316 C319 1.259 . S
O317 Mg308 2.114 . S
O317 C320 1.252 . S
O318 Mg308 2.251 . S
O318 Mg311 2.079 . S
O318 C320 1.273 . S
C319 O315 1.246 . S
C319 O316 1.259 . S
C320 O317 1.252 . S
C320 O318 1.273 . S
O321 Mg308 2.010 . S
O321 C313 1.249 . S
Mg322 O323 2.028 . S
Mg322 O329 1.986 . S
Mg322 O331 2.114 . S
Mg322 O332 2.251 . S
Mg322 O335 2.010 . S
O323 Mg322 2.028 . S
O323 C326 1.250 . S
O324 Mg325 2.028 . S
O324 C326 1.248 . S
Mg325 O324 2.028 . S
Mg325 O330 2.032 . S
Mg325 O332 2.079 . S
C326 O323 1.250 . S
C326 O324 1.248 . S
C327 O328 1.264 . S
C327 O335 1.249 . S
O328 C327 1.264 . S
O329 Mg322 1.986 . S
O329 C333 1.246 . S
O330 Mg325 2.032 . S
O330 C333 1.259 . S
O331 Mg322 2.114 . S
O331 C334 1.252 . S
O332 Mg322 2.251 . S
O332 Mg325 2.079 . S
O332 C334 1.273 . S
C333 O329 1.246 . S
C333 O330 1.259 . S
C334 O331 1.252 . S
C334 O332 1.273 . S
O335 Mg322 2.010 . S
O335 C327 1.249 . S
Mg336 O337 2.028 . S
Mg336 O343 1.986 . S
Mg336 O345 2.114 . S
Mg336 O346 2.251 . S
Mg336 O349 2.010 . S
O337 Mg336 2.028 . S
O337 C340 1.250 . S
O338 Mg339 2.028 . S
O338 C340 1.248 . S
Mg339 O338 2.028 . S
Mg339 O344 2.032 . S
Mg339 O346 2.079 . S
C340 O337 1.250 . S
C340 O338 1.248 . S
C341 O342 1.264 . S
C341 O349 1.249 . S
O342 C341 1.264 . S
O343 Mg336 1.986 . S
O343 C347 1.246 . S
O344 Mg339 2.032 . S
O344 C347 1.259 . S
O345 Mg336 2.114 . S
O345 C348 1.252 . S
O346 Mg336 2.251 . S
O346 Mg339 2.079 . S
O346 C348 1.273 . S
C347 O343 1.246 . S
C347 O344 1.259 . S
C348 O345 1.252 . S
C348 O346 1.273 . S
O349 Mg336 2.010 . S
O349 C341 1.249 . S
Mg350 O351 2.028 . S
Mg350 O357 1.986 . S
Mg350 O359 2.114 . S
Mg350 O360 2.251 . S
Mg350 O363 2.010 . S
O351 Mg350 2.028 . S
O351 C354 1.250 . S
O352 Mg353 2.028 . S
O352 C354 1.248 . S
Mg353 O352 2.028 . S
Mg353 O358 2.032 . S
Mg353 O360 2.079 . S
C354 O351 1.250 . S
C354 O352 1.248 . S
C355 O356 1.264 . S
C355 O363 1.249 . S
O356 C355 1.264 . S
O357 Mg350 1.986 . S
O357 C361 1.246 . S
O358 Mg353 2.032 . S
O358 C361 1.259 . S
O359 Mg350 2.114 . S
O359 C362 1.252 . S
O360 Mg350 2.251 . S
O360 Mg353 2.079 . S
O360 C362 1.273 . S
C361 O357 1.246 . S
C361 O358 1.259 . S
C362 O359 1.252 . S
C362 O360 1.273 . S
O363 Mg350 2.010 . S
O363 C355 1.249 . S
Mg364 O365 2.028 . S
Mg364 O371 1.986 . S
Mg364 O373 2.114 . S
Mg364 O374 2.251 . S
Mg364 O377 2.010 . S
O365 Mg364 2.028 . S
O365 C368 1.250 . S
O366 Mg367 2.028 . S
O366 C368 1.248 . S
Mg367 O366 2.028 . S
Mg367 O372 2.032 . S
Mg367 O374 2.079 . S
C368 O365 1.250 . S
C368 O366 1.248 . S
C369 O370 1.264 . S
C369 O377 1.249 . S
O370 C369 1.264 . S
O371 Mg364 1.986 . S
O371 C375 1.246 . S
O372 Mg367 2.032 . S
O372 C375 1.259 . S
O373 Mg364 2.114 . S
O373 C376 1.252 . S
O374 Mg364 2.251 . S
O374 Mg367 2.079 . S
O374 C376 1.273 . S
C375 O371 1.246 . S
C375 O372 1.259 . S
C376 O373 1.252 . S
C376 O374 1.273 . S
O377 Mg364 2.010 . S
O377 C369 1.249 . S
Mg378 O379 2.028 . S
Mg378 O385 1.986 . S
Mg378 O387 2.114 . S
Mg378 O388 2.251 . S
Mg378 O391 2.010 . S
O379 Mg378 2.028 . S
O379 C382 1.250 . S
O380 Mg381 2.028 . S
O380 C382 1.248 . S
Mg381 O380 2.028 . S
Mg381 O386 2.032 . S
Mg381 O388 2.079 . S
C382 O379 1.250 . S
C382 O380 1.248 . S
C383 O384 1.264 . S
C383 O391 1.249 . S
O384 C383 1.264 . S
O385 Mg378 1.986 . S
O385 C389 1.246 . S
O386 Mg381 2.032 . S
O386 C389 1.259 . S
O387 Mg378 2.114 . S
O387 C390 1.252 . S
O388 Mg378 2.251 . S
O388 Mg381 2.079 . S
O388 C390 1.273 . S
C389 O385 1.246 . S
C389 O386 1.259 . S
C390 O387 1.252 . S
C390 O388 1.273 . S
O391 Mg378 2.010 . S
O391 C383 1.249 . S
Mg392 O393 2.028 . S
Mg392 O399 1.986 . S
Mg392 O401 2.114 . S
Mg392 O402 2.251 . S
Mg392 O405 2.010 . S
O393 Mg392 2.028 . S
O393 C396 1.250 . S
O394 Mg395 2.028 . S
O394 C396 1.248 . S
Mg395 O394 2.028 . S
Mg395 O400 2.032 . S
Mg395 O402 2.079 . S
C396 O393 1.250 . S
C396 O394 1.248 . S
C397 O398 1.264 . S
C397 O405 1.249 . S
O398 C397 1.264 . S
O399 Mg392 1.986 . S
O399 C403 1.246 . S
O400 Mg395 2.032 . S
O400 C403 1.259 . S
O401 Mg392 2.114 . S
O401 C404 1.252 . S
O402 Mg392 2.251 . S
O402 Mg395 2.079 . S
O402 C404 1.273 . S
C403 O399 1.246 . S
C403 O400 1.259 . S
C404 O401 1.252 . S
C404 O402 1.273 . S
O405 Mg392 2.010 . S
O405 C397 1.249 . S
Mg406 O407 2.028 . S
Mg406 O413 1.986 . S
Mg406 O415 2.114 . S
Mg406 O416 2.251 . S
Mg406 O419 2.010 . S
O407 Mg406 2.028 . S
O407 C410 1.250 . S
O408 Mg409 2.028 . S
O408 C410 1.248 . S
Mg409 O408 2.028 . S
Mg409 O414 2.032 . S
Mg409 O416 2.079 . S
C410 O407 1.250 . S
C410 O408 1.248 . S
C411 O412 1.264 . S
C411 O419 1.249 . S
O412 C411 1.264 . S
O413 Mg406 1.986 . S
O413 C417 1.246 . S
O414 Mg409 2.032 . S
O414 C417 1.259 . S
O415 Mg406 2.114 . S
O415 C418 1.252 . S
O416 Mg406 2.251 . S
O416 Mg409 2.079 . S
O416 C418 1.273 . S
C417 O413 1.246 . S
C417 O414 1.259 . S
C418 O415 1.252 . S
C418 O416 1.273 . S
O419 Mg406 2.010 . S
O419 C411 1.249 . S
Mg420 O421 2.028 . S
Mg420 O427 1.986 . S
Mg420 O429 2.114 . S
Mg420 O430 2.251 . S
Mg420 O433 2.010 . S
O421 Mg420 2.028 . S
O421 C424 1.250 . S
O422 Mg423 2.028 . S
O422 C424 1.248 . S
Mg423 O422 2.028 . S
Mg423 O428 2.032 . S
Mg423 O430 2.079 . S
C424 O421 1.250 . S
C424 O422 1.248 . S
C425 O426 1.264 . S
C425 O433 1.249 . S
O426 C425 1.264 . S
O427 Mg420 1.986 . S
O427 C431 1.246 . S
O428 Mg423 2.032 . S
O428 C431 1.259 . S
O429 Mg420 2.114 . S
O429 C432 1.252 . S
O430 Mg420 2.251 . S
O430 Mg423 2.079 . S
O430 C432 1.273 . S
C431 O427 1.246 . S
C431 O428 1.259 . S
C432 O429 1.252 . S
C432 O430 1.273 . S
O433 Mg420 2.010 . S
O433 C425 1.249 . S
Mg434 O435 2.028 . S
Mg434 O441 1.986 . S
Mg434 O443 2.114 . S
Mg434 O444 2.251 . S
Mg434 O447 2.010 . S
O435 Mg434 2.028 . S
O435 C438 1.250 . S
O436 Mg437 2.028 . S
O436 C438 1.248 . S
Mg437 O436 2.028 . S
Mg437 O442 2.032 . S
Mg437 O444 2.079 . S
C438 O435 1.250 . S
C438 O436 1.248 . S
C439 O440 1.264 . S
C439 O447 1.249 . S
O440 C439 1.264 . S
O441 Mg434 1.986 . S
O441 C445 1.246 . S
O442 Mg437 2.032 . S
O442 C445 1.259 . S
O443 Mg434 2.114 . S
O443 C446 1.252 . S
O444 Mg434 2.251 . S
O444 Mg437 2.079 . S
O444 C446 1.273 . S
C445 O441 1.246 . S
C445 O442 1.259 . S
C446 O443 1.252 . S
C446 O444 1.273 . S
O447 Mg434 2.010 . S
O447 C439 1.249 . S
H448 C456 0.929 . S
H449 C458 0.930 1_554 S
H450 C460 0.930 . S
H451 C463 0.929 . S
H452 C466 0.930 . S
H453 C468 0.960 . S
H454 C468 0.960 . S
H455 C468 0.960 1_655 S
C456 H448 0.929 . S
C456 C457 1.377 . S
C456 C458 1.384 . S
C457 C456 1.377 . S
C457 C463 1.390 . S
C458 H449 0.930 1_556 S
C458 C456 1.384 . S
C458 C459 1.372 . S
C459 C458 1.372 . S
C459 C460 1.400 . S
C459 C464 1.490 . S
C460 H450 0.930 . S
C460 C459 1.400 . S
C460 C463 1.386 . S
H461 C477 0.930 . S
H462 C478 0.931 . S
C463 H451 0.929 . S
C463 C457 1.390 . S
C463 C460 1.386 . S
C464 C459 1.490 . S
C464 C466 1.395 1_556 S
C464 C467 1.403 1_655 S
H465 C471 0.930 . S
C466 H452 0.930 . S
C466 C464 1.395 1_554 S
C466 C469 1.403 . S
C467 C464 1.403 1_455 S
C467 C468 1.524 . S
C467 C471 1.400 . S
C468 H453 0.960 . S
C468 H454 0.960 . S
C468 H455 0.960 1_455 S
C468 C467 1.524 . S
C469 C466 1.403 . S
C469 C470 1.392 1_655 S
C469 C473 1.495 . S
C470 C469 1.392 1_455 S
C470 C471 1.385 1_554 S
C470 C472 1.478 . S
C471 H465 0.930 . S
C471 C467 1.400 . S
C471 C470 1.385 1_556 S
C472 C470 1.478 . S
C472 C474 1.381 . S
C472 C478 1.383 . S
C473 C469 1.495 . S
C473 H479 0.959 . S
C473 H480 0.961 . S
C473 H481 0.960 1_655 S
C474 C472 1.381 . S
C474 C475 1.394 . S
C474 H482 0.930 . S
C475 C474 1.394 . S
C475 C476 1.383 . S
C475 H483 0.929 . S
C476 C475 1.383 . S
C476 C477 1.377 . S
C477 H461 0.930 . S
C477 C476 1.377 . S
C477 C478 1.379 . S
C478 H462 0.931 . S
C478 C472 1.383 . S
C478 C477 1.379 . S
H479 C473 0.959 . S
H480 C473 0.961 . S
H481 C473 0.960 1_455 S
H482 C474 0.930 . S
H483 C475 0.929 . S
H484 C492 0.929 . S
H485 C494 0.930 . S
H486 C496 0.930 . S
H487 C499 0.929 . S
H488 C502 0.930 . S
H489 C504 0.960 . S
H490 C504 0.960 . S
H491 C504 0.960 . S
C492 H484 0.929 . S
C492 C493 1.377 . S
C492 C494 1.384 . S
C493 C492 1.377 . S
C493 C499 1.390 . S
C494 H485 0.930 . S
C494 C492 1.384 . S
C494 C495 1.372 . S
C495 C494 1.372 . S
C495 C496 1.400 . S
C495 C500 1.490 . S
C496 H486 0.930 . S
C496 C495 1.400 . S
C496 C499 1.386 . S
H497 C513 0.930 . S
H498 C514 0.931 . S
C499 H487 0.929 . S
C499 C493 1.390 . S
C499 C496 1.386 . S
C500 C495 1.490 . S
C500 C502 1.395 . S
C500 C503 1.403 . S
H501 C507 0.930 . S
C502 H488 0.930 . S
C502 C500 1.395 . S
C502 C505 1.403 . S
C503 C500 1.403 . S
C503 C504 1.524 . S
C503 C507 1.400 . S
C504 H489 0.960 . S
C504 H490 0.960 . S
C504 H491 0.960 . S
C504 C503 1.524 . S
C505 C502 1.403 . S
C505 C506 1.392 . S
C505 C509 1.495 . S
C506 C505 1.392 . S
C506 C507 1.385 . S
C506 C508 1.478 . S
C507 H501 0.930 . S
C507 C503 1.400 . S
C507 C506 1.385 . S
C508 C506 1.478 . S
C508 C510 1.381 . S
C508 C514 1.383 . S
C509 C505 1.495 . S
C509 H515 0.959 . S
C509 H516 0.961 . S
C509 H517 0.960 . S
C510 C508 1.381 . S
C510 C511 1.394 . S
C510 H518 0.930 . S
C511 C510 1.394 . S
C511 C512 1.383 . S
C511 H519 0.929 . S
C512 C511 1.383 . S
C512 C513 1.377 . S
C513 H497 0.930 . S
C513 C512 1.377 . S
C513 C514 1.379 . S
C514 H498 0.931 . S
C514 C508 1.383 . S
C514 C513 1.379 . S
H515 C509 0.959 . S
H516 C509 0.961 . S
H517 C509 0.960 . S
H518 C510 0.930 . S
H519 C511 0.929 . S
H520 C528 0.929 . S
H521 C530 0.930 . S
H522 C532 0.930 . S
H523 C535 0.929 . S
H524 C538 0.930 . S
H525 C540 0.960 . S
H526 C540 0.960 . S
H527 C540 0.960 . S
C528 H520 0.929 . S
C528 C529 1.377 . S
C528 C530 1.384 . S
C529 C528 1.377 . S
C529 C535 1.390 . S
C530 H521 0.930 . S
C530 C528 1.384 . S
C530 C531 1.372 . S
C531 C530 1.372 . S
C531 C532 1.400 . S
C531 C536 1.490 . S
C532 H522 0.930 . S
C532 C531 1.400 . S
C532 C535 1.386 . S
H533 C549 0.930 . S
H534 C550 0.931 . S
C535 H523 0.929 . S
C535 C529 1.390 . S
C535 C532 1.386 . S
C536 C531 1.490 . S
C536 C538 1.395 . S
C536 C539 1.403 . S
H537 C543 0.930 . S
C538 H524 0.930 . S
C538 C536 1.395 . S
C538 C541 1.403 . S
C539 C536 1.403 . S
C539 C540 1.524 . S
C539 C543 1.400 . S
C540 H525 0.960 . S
C540 H526 0.960 . S
C540 H527 0.960 . S
C540 C539 1.524 . S
C541 C538 1.403 . S
C541 C542 1.392 . S
C541 C545 1.495 . S
C542 C541 1.392 . S
C542 C543 1.385 . S
C542 C544 1.478 . S
C543 H537 0.930 . S
C543 C539 1.400 . S
C543 C542 1.385 . S
C544 C542 1.478 . S
C544 C546 1.381 . S
C544 C550 1.383 . S
C545 C541 1.495 . S
C545 H551 0.959 . S
C545 H552 0.961 . S
C545 H553 0.960 . S
C546 C544 1.381 . S
C546 C547 1.394 . S
C546 H554 0.930 . S
C547 C546 1.394 . S
C547 C548 1.383 . S
C547 H555 0.929 . S
C548 C547 1.383 . S
C548 C549 1.377 . S
C549 H533 0.930 . S
C549 C548 1.377 . S
C549 C550 1.379 . S
C550 H534 0.931 . S
C550 C544 1.383 . S
C550 C549 1.379 . S
H551 C545 0.959 . S
H552 C545 0.961 . S
H553 C545 0.960 . S
H554 C546 0.930 . S
H555 C547 0.929 . S
H556 C564 0.929 . S
H557 C566 0.930 . S
H558 C568 0.930 . S
H559 C571 0.929 . S
H560 C574 0.930 . S
H561 C576 0.960 . S
H562 C576 0.960 . S
H563 C576 0.960 . S
C564 H556 0.929 . S
C564 C565 1.377 . S
C564 C566 1.384 . S
C565 C564 1.377 . S
C565 C571 1.390 . S
C566 H557 0.930 . S
C566 C564 1.384 . S
C566 C567 1.372 . S
C567 C566 1.372 . S
C567 C568 1.400 . S
C567 C572 1.490 . S
C568 H558 0.930 . S
C568 C567 1.400 . S
C568 C571 1.386 . S
H569 C585 0.930 . S
H570 C586 0.931 . S
C571 H559 0.929 . S
C571 C565 1.390 . S
C571 C568 1.386 . S
C572 C567 1.490 . S
C572 C574 1.395 . S
C572 C575 1.403 . S
H573 C579 0.930 . S
C574 H560 0.930 . S
C574 C572 1.395 . S
C574 C577 1.403 . S
C575 C572 1.403 . S
C575 C576 1.524 . S
C575 C579 1.400 . S
C576 H561 0.960 . S
C576 H562 0.960 . S
C576 H563 0.960 . S
C576 C575 1.524 . S
C577 C574 1.403 . S
C577 C578 1.392 . S
C577 C581 1.495 . S
C578 C577 1.392 . S
C578 C579 1.385 . S
C578 C580 1.478 . S
C579 H573 0.930 . S
C579 C575 1.400 . S
C579 C578 1.385 . S
C580 C578 1.478 . S
C580 C582 1.381 . S
C580 C586 1.383 . S
C581 C577 1.495 . S
C581 H587 0.959 . S
C581 H588 0.961 . S
C581 H589 0.960 . S
C582 C580 1.381 . S
C582 C583 1.394 . S
C582 H590 0.930 . S
C583 C582 1.394 . S
C583 C584 1.383 . S
C583 H591 0.929 . S
C584 C583 1.383 . S
C584 C585 1.377 . S
C585 H569 0.930 . S
C585 C584 1.377 . S
C585 C586 1.379 . S
C586 H570 0.931 . S
C586 C580 1.383 . S
C586 C585 1.379 . S
H587 C581 0.959 . S
H588 C581 0.961 . S
H589 C581 0.960 . S
H590 C582 0.930 . S
H591 C583 0.929 . S
H592 C600 0.929 . S
H593 C602 0.930 . S
H594 C604 0.930 . S
H595 C607 0.929 . S
H596 C610 0.930 . S
H597 C612 0.960 . S
H598 C612 0.960 . S
H599 C612 0.960 . S
C600 H592 0.929 . S
C600 C601 1.377 . S
C600 C602 1.384 . S
C601 C600 1.377 . S
C601 C607 1.390 . S
C602 H593 0.930 . S
C602 C600 1.384 . S
C602 C603 1.372 . S
C603 C602 1.372 . S
C603 C604 1.400 . S
C603 C608 1.490 . S
C604 H594 0.930 . S
C604 C603 1.400 . S
C604 C607 1.386 . S
H605 C621 0.930 . S
H606 C622 0.931 . S
C607 H595 0.929 . S
C607 C601 1.390 . S
C607 C604 1.386 . S
C608 C603 1.490 . S
C608 C610 1.395 . S
C608 C611 1.403 1_655 S
H609 C615 0.930 . S
C610 H596 0.930 . S
C610 C608 1.395 . S
C610 C613 1.403 . S
C611 C608 1.403 1_455 S
C611 C612 1.524 . S
C611 C615 1.400 . S
C612 H597 0.960 . S
C612 H598 0.960 . S
C612 H599 0.960 . S
C612 C611 1.524 . S
C613 C610 1.403 . S
C613 C614 1.392 1_655 S
C613 C617 1.495 . S
C614 C613 1.392 1_455 S
C614 C615 1.385 . S
C614 C616 1.478 . S
C615 H609 0.930 . S
C615 C611 1.400 . S
C615 C614 1.385 . S
C616 C614 1.478 . S
C616 C618 1.381 . S
C616 C622 1.383 . S
C617 C613 1.495 . S
C617 H623 0.959 . S
C617 H624 0.961 . S
C617 H625 0.960 . S
C618 C616 1.381 . S
C618 C619 1.394 . S
C618 H626 0.930 . S
C619 C618 1.394 . S
C619 C620 1.383 . S
C619 H627 0.929 . S
C620 C619 1.383 . S
C620 C621 1.377 . S
C621 H605 0.930 . S
C621 C620 1.377 . S
C621 C622 1.379 . S
C622 H606 0.931 . S
C622 C616 1.383 . S
C622 C621 1.379 . S
H623 C617 0.959 . S
H624 C617 0.961 . S
H625 C617 0.960 . S
H626 C618 0.930 . S
H627 C619 0.929 . S
H628 C636 0.929 . S
H629 C638 0.930 . S
H630 C640 0.930 . S
H631 C643 0.929 . S
H632 C646 0.930 . S
H633 C648 0.960 . S
H634 C648 0.960 . S
H635 C648 0.960 . S
C636 H628 0.929 . S
C636 C637 1.377 . S
C636 C638 1.384 . S
C637 C636 1.377 . S
C637 C643 1.390 . S
C638 H629 0.930 . S
C638 C636 1.384 . S
C638 C639 1.372 . S
C639 C638 1.372 . S
C639 C640 1.400 . S
C639 C644 1.490 . S
C640 H630 0.930 . S
C640 C639 1.400 . S
C640 C643 1.386 . S
H641 C657 0.930 . S
H642 C658 0.931 . S
C643 H631 0.929 . S
C643 C637 1.390 . S
C643 C640 1.386 . S
C644 C639 1.490 . S
C644 C646 1.395 . S
C644 C647 1.403 . S
H645 C651 0.930 . S
C646 H632 0.930 . S
C646 C644 1.395 . S
C646 C649 1.403 . S
C647 C644 1.403 . S
C647 C648 1.524 . S
C647 C651 1.400 . S
C648 H633 0.960 . S
C648 H634 0.960 . S
C648 H635 0.960 . S
C648 C647 1.524 . S
C649 C646 1.403 . S
C649 C650 1.392 . S
C649 C653 1.495 . S
C650 C649 1.392 . S
C650 C651 1.385 . S
C650 C652 1.478 . S
C651 H645 0.930 . S
C651 C647 1.400 . S
C651 C650 1.385 . S
C652 C650 1.478 . S
C652 C654 1.381 . S
C652 C658 1.383 . S
C653 C649 1.495 . S
C653 H659 0.959 . S
C653 H660 0.961 . S
C653 H661 0.960 . S
C654 C652 1.381 . S
C654 C655 1.394 . S
C654 H662 0.930 . S
C655 C654 1.394 . S
C655 C656 1.383 . S
C655 H663 0.929 . S
C656 C655 1.383 . S
C656 C657 1.377 . S
C657 H641 0.930 . S
C657 C656 1.377 . S
C657 C658 1.379 . S
C658 H642 0.931 . S
C658 C652 1.383 . S
C658 C657 1.379 . S
H659 C653 0.959 . S
H660 C653 0.961 . S
H661 C653 0.960 . S
H662 C654 0.930 . S
H663 C655 0.929 . S
H664 C672 0.968 . S
H665 C674 0.930 1_554 S
H666 C676 0.930 . S
H667 C679 0.929 . S
H668 C682 0.930 . S
H669 C684 0.960 . S
H670 C684 0.960 . S
H671 C684 0.960 . S
C672 H664 0.968 . S
C672 C673 1.377 . S
C672 C674 1.384 . S
C673 C672 1.377 . S
C673 C679 1.390 . S
C674 H665 0.930 1_556 S
C674 C672 1.384 . S
C674 C675 1.372 . S
C675 C674 1.372 . S
C675 C676 1.400 . S
C675 C680 1.490 . S
C676 H666 0.930 . S
C676 C675 1.400 . S
C676 C679 1.386 . S
H677 C693 0.930 . S
H678 C694 0.931 1_556 S
C679 H667 0.929 . S
C679 C673 1.390 . S
C679 C676 1.386 . S
C680 C675 1.490 . S
C680 C682 1.395 1_556 S
C680 C683 1.403 . S
H681 C687 0.930 . S
C682 H668 0.930 . S
C682 C680 1.395 1_554 S
C682 C685 1.403 . S
C683 C680 1.403 . S
C683 C684 1.524 . S
C683 C687 1.400 . S
C684 H669 0.960 . S
C684 H670 0.960 . S
C684 H671 0.960 . S
C684 C683 1.524 . S
C685 C682 1.403 . S
C685 C686 1.392 . S
C685 C689 1.495 . S
C686 C685 1.392 . S
C686 C687 1.385 1_554 S
C686 C688 1.478 . S
C687 H681 0.930 . S
C687 C683 1.400 . S
C687 C686 1.385 1_556 S
C688 C686 1.478 . S
C688 C690 1.381 . S
C688 C694 1.383 . S
C689 C685 1.495 . S
C689 H695 0.959 . S
C689 H696 0.961 . S
C689 H697 0.960 . S
C690 C688 1.381 . S
C690 C691 1.394 . S
C690 H698 0.930 . S
C691 C690 1.394 . S
C691 C692 1.383 . S
C691 H699 0.929 . S
C692 C691 1.383 . S
C692 C693 1.377 . S
C693 H677 0.930 . S
C693 C692 1.377 . S
C693 C694 1.379 . S
C694 H678 0.931 1_554 S
C694 C688 1.383 . S
C694 C693 1.379 . S
H695 C689 0.959 . S
H696 C689 0.961 . S
H697 C689 0.960 . S
H698 C690 0.930 . S
H699 C691 0.929 . S
H700 C708 0.929 . S
H701 C710 0.930 . S
H702 C712 0.930 . S
H703 C715 0.929 . S
H704 C718 0.930 . S
H705 C720 0.960 . S
H706 C720 0.960 . S
H707 C720 0.960 . S
C708 H700 0.929 . S
C708 C709 1.377 . S
C708 C710 1.384 . S
C709 C708 1.377 . S
C709 C715 1.390 . S
C710 H701 0.930 . S
C710 C708 1.384 . S
C710 C711 1.372 . S
C711 C710 1.372 . S
C711 C712 1.400 . S
C711 C716 1.490 . S
C712 H702 0.930 . S
C712 C711 1.400 . S
C712 C715 1.386 . S
H713 C729 0.930 . S
H714 C730 0.931 . S
C715 H703 0.929 . S
C715 C709 1.390 . S
C715 C712 1.386 . S
C716 C711 1.490 . S
C716 C718 1.395 . S
C716 C719 1.403 . S
H717 C723 0.930 . S
C718 H704 0.930 . S
C718 C716 1.395 . S
C718 C721 1.403 . S
C719 C716 1.403 . S
C719 C720 1.524 . S
C719 C723 1.400 . S
C720 H705 0.960 . S
C720 H706 0.960 . S
C720 H707 0.960 . S
C720 C719 1.524 . S
C721 C718 1.403 . S
C721 C722 1.392 . S
C721 C725 1.495 . S
C722 C721 1.392 . S
C722 C723 1.385 . S
C722 C724 1.478 . S
C723 H717 0.930 . S
C723 C719 1.400 . S
C723 C722 1.385 . S
C724 C722 1.478 . S
C724 C726 1.381 . S
C724 C730 1.383 . S
C725 C721 1.495 . S
C725 H731 0.959 . S
C725 H732 0.961 . S
C725 H733 0.960 . S
C726 C724 1.381 . S
C726 C727 1.394 . S
C726 H734 0.930 . S
C727 C726 1.394 . S
C727 C728 1.383 . S
C727 H735 0.929 . S
C728 C727 1.383 . S
C728 C729 1.377 . S
C729 H713 0.930 . S
C729 C728 1.377 . S
C729 C730 1.379 . S
C730 H714 0.931 . S
C730 C724 1.383 . S
C730 C729 1.379 . S
H731 C725 0.959 . S
H732 C725 0.961 . S
H733 C725 0.960 . S
H734 C726 0.930 . S
H735 C727 0.929 . S
H736 C744 0.929 . S
H737 C746 0.930 . S
H738 C748 0.930 . S
H739 C751 0.929 . S
H740 C754 0.930 . S
H741 C756 0.960 . S
H742 C756 0.960 . S
H743 C756 0.960 . S
C744 H736 0.929 . S
C744 C745 1.377 . S
C744 C746 1.384 . S
C745 C744 1.377 . S
C745 C751 1.390 . S
C746 H737 0.930 . S
C746 C744 1.384 . S
C746 C747 1.372 . S
C747 C746 1.372 . S
C747 C748 1.400 . S
C747 C752 1.490 . S
C748 H738 0.930 . S
C748 C747 1.400 . S
C748 C751 1.386 . S
H749 C765 0.930 . S
H750 C766 0.931 . S
C751 H739 0.929 . S
C751 C745 1.390 . S
C751 C748 1.386 . S
C752 C747 1.490 . S
C752 C754 1.395 . S
C752 C755 1.403 . S
H753 C759 0.930 . S
C754 H740 0.930 . S
C754 C752 1.395 . S
C754 C757 1.403 . S
C755 C752 1.403 . S
C755 C756 1.524 . S
C755 C759 1.400 . S
C756 H741 0.960 . S
C756 H742 0.960 . S
C756 H743 0.960 . S
C756 C755 1.524 . S
C757 C754 1.403 . S
C757 C758 1.392 . S
C757 C761 1.495 . S
C758 C757 1.392 . S
C758 C759 1.385 . S
C758 C760 1.478 . S
C759 H753 0.930 . S
C759 C755 1.400 . S
C759 C758 1.385 . S
C760 C758 1.478 . S
C760 C762 1.381 . S
C760 C766 1.383 . S
C761 C757 1.495 . S
C761 H767 0.959 . S
C761 H768 0.961 . S
C761 H769 0.960 . S
C762 C760 1.381 . S
C762 C763 1.394 . S
C762 H770 0.930 . S
C763 C762 1.394 . S
C763 C764 1.383 . S
C763 H771 0.929 . S
C764 C763 1.383 . S
C764 C765 1.377 . S
C765 H749 0.930 . S
C765 C764 1.377 . S
C765 C766 1.379 . S
C766 H750 0.931 . S
C766 C760 1.383 . S
C766 C765 1.379 . S
H767 C761 0.959 . S
H768 C761 0.961 . S
H769 C761 0.960 . S
H770 C762 0.930 . S
H771 C763 0.929 . S
H772 C780 0.929 . S
H773 C782 0.930 . S
H774 C784 0.930 . S
H775 C787 0.929 . S
H776 C790 0.930 . S
H777 C792 0.960 . S
H778 C792 0.960 . S
H779 C792 0.960 . S
C780 H772 0.929 . S
C780 C781 1.377 . S
C780 C782 1.384 . S
C781 C780 1.377 . S
C781 C787 1.390 . S
C782 H773 0.930 . S
C782 C780 1.384 . S
C782 C783 1.372 . S
C783 C782 1.372 . S
C783 C784 1.400 . S
C783 C788 1.490 . S
C784 H774 0.930 . S
C784 C783 1.400 . S
C784 C787 1.386 . S
H785 C801 0.930 . S
H786 C802 0.931 . S
C787 H775 0.929 . S
C787 C781 1.390 . S
C787 C784 1.386 . S
C788 C783 1.490 . S
C788 C790 1.395 . S
C788 C791 1.403 . S
H789 C795 0.930 . S
C790 H776 0.930 . S
C790 C788 1.395 . S
C790 C793 1.403 . S
C791 C788 1.403 . S
C791 C792 1.524 . S
C791 C795 1.400 . S
C792 H777 0.960 . S
C792 H778 0.960 . S
C792 H779 0.960 . S
C792 C791 1.524 . S
C793 C790 1.403 . S
C793 C794 1.392 . S
C793 C797 1.495 . S
C794 C793 1.392 . S
C794 C795 1.385 . S
C794 C796 1.478 . S
C795 H789 0.930 . S
C795 C791 1.400 . S
C795 C794 1.385 . S
C796 C794 1.478 . S
C796 C798 1.381 . S
C796 C802 1.383 . S
C797 C793 1.495 . S
C797 H803 0.959 . S
C797 H804 0.961 . S
C797 H805 0.960 . S
C798 C796 1.381 . S
C798 C799 1.394 . S
C798 H806 0.930 . S
C799 C798 1.394 . S
C799 C800 1.383 . S
C799 H807 0.929 . S
C800 C799 1.383 . S
C800 C801 1.377 . S
C801 H785 0.930 . S
C801 C800 1.377 . S
C801 C802 1.379 . S
C802 H786 0.931 . S
C802 C796 1.383 . S
C802 C801 1.379 . S
H803 C797 0.959 . S
H804 C797 0.961 . S
H805 C797 0.960 . S
H806 C798 0.930 . S
H807 C799 0.929 . S
H808 C816 0.929 . S
H809 C818 0.930 . S
H810 C820 0.930 . S
H811 C823 0.929 . S
H812 C826 0.930 . S
H813 C828 0.960 . S
H814 C828 0.960 . S
H815 C828 0.960 . S
C816 H808 0.929 . S
C816 C817 1.377 . S
C816 C818 1.384 . S
C817 C816 1.377 . S
C817 C823 1.390 . S
C818 H809 0.930 . S
C818 C816 1.384 . S
C818 C819 1.372 . S
C819 C818 1.372 . S
C819 C820 1.400 . S
C819 C824 1.490 . S
C820 H810 0.930 . S
C820 C819 1.400 . S
C820 C823 1.386 . S
H821 C837 0.930 . S
H822 C838 0.931 . S
C823 H811 0.929 . S
C823 C817 1.390 . S
C823 C820 1.386 . S
C824 C819 1.490 . S
C824 C826 1.395 . S
C824 C827 1.403 . S
H825 C831 0.930 . S
C826 H812 0.930 . S
C826 C824 1.395 . S
C826 C829 1.403 . S
C827 C824 1.403 . S
C827 C828 1.524 . S
C827 C831 1.400 . S
C828 H813 0.960 . S
C828 H814 0.960 . S
C828 H815 0.960 . S
C828 C827 1.524 . S
C829 C826 1.403 . S
C829 C830 1.392 . S
C829 C833 1.495 . S
C830 C829 1.392 . S
C830 C831 1.385 . S
C830 C832 1.478 . S
C831 H825 0.930 . S
C831 C827 1.400 . S
C831 C830 1.385 . S
C832 C830 1.478 . S
C832 C834 1.381 . S
C832 C838 1.383 . S
C833 C829 1.495 . S
C833 H839 0.959 . S
C833 H840 0.961 . S
C833 H841 0.960 . S
C834 C832 1.381 . S
C834 C835 1.394 . S
C834 H842 0.930 . S
C835 C834 1.394 . S
C835 C836 1.383 . S
C835 H843 0.929 . S
C836 C835 1.383 . S
C836 C837 1.377 . S
C837 H821 0.930 . S
C837 C836 1.377 . S
C837 C838 1.379 . S
C838 H822 0.931 . S
C838 C832 1.383 . S
C838 C837 1.379 . S
H839 C833 0.959 . S
H840 C833 0.961 . S
H841 C833 0.960 . S
H842 C834 0.930 . S
H843 C835 0.929 . S
H844 C852 0.929 . S
H845 C854 0.930 . S
H846 C856 0.930 . S
H847 C859 0.929 . S
H848 C862 0.930 . S
H849 C864 0.960 . S
H850 C864 0.960 . S
H851 C864 0.960 . S
C852 H844 0.929 . S
C852 C853 1.377 . S
C852 C854 1.384 . S
C853 C852 1.377 . S
C853 C859 1.390 . S
C854 H845 0.930 . S
C854 C852 1.384 . S
C854 C855 1.372 . S
C855 C854 1.372 . S
C855 C856 1.400 . S
C855 C860 1.490 . S
C856 H846 0.930 . S
C856 C855 1.400 . S
C856 C859 1.386 . S
H857 C873 0.930 . S
H858 C874 0.931 . S
C859 H847 0.929 . S
C859 C853 1.390 . S
C859 C856 1.386 . S
C860 C855 1.490 . S
C860 C862 1.395 . S
C860 C863 1.403 . S
H861 C867 0.930 . S
C862 H848 0.930 . S
C862 C860 1.395 . S
C862 C865 1.403 . S
C863 C860 1.403 . S
C863 C864 1.524 . S
C863 C867 1.400 . S
C864 H849 0.960 . S
C864 H850 0.960 . S
C864 H851 0.960 . S
C864 C863 1.524 . S
C865 C862 1.403 . S
C865 C866 1.392 . S
C865 C869 1.495 . S
C866 C865 1.392 . S
C866 C867 1.385 . S
C866 C868 1.478 . S
C867 H861 0.930 . S
C867 C863 1.400 . S
C867 C866 1.385 . S
C868 C866 1.478 . S
C868 C870 1.381 . S
C868 C874 1.383 . S
C869 C865 1.495 . S
C869 H875 0.959 . S
C869 H876 0.961 . S
C869 H877 0.960 . S
C870 C868 1.381 . S
C870 C871 1.394 . S
C870 H878 0.930 . S
C871 C870 1.394 . S
C871 C872 1.383 . S
C871 H879 0.929 . S
C872 C871 1.383 . S
C872 C873 1.377 . S
C873 H857 0.930 . S
C873 C872 1.377 . S
C873 C874 1.379 . S
C874 H858 0.931 . S
C874 C868 1.383 . S
C874 C873 1.379 . S
H875 C869 0.959 . S
H876 C869 0.961 . S
H877 C869 0.960 . S
H878 C870 0.930 . S
H879 C871 0.929 . S
H880 C888 0.929 . S
H881 C890 0.930 . S
H882 C892 0.930 . S
H883 C895 0.929 . S
H884 C898 0.930 . S
H885 C900 0.960 . S
H886 C900 0.960 1_565 S
H887 C900 0.960 . S
C888 H880 0.929 . S
C888 C889 1.377 . S
C888 C890 1.384 . S
C889 C888 1.377 . S
C889 C895 1.390 . S
C890 H881 0.930 . S
C890 C888 1.384 . S
C890 C891 1.372 . S
C891 C890 1.372 . S
C891 C892 1.400 . S
C891 C896 1.490 . S
C892 H882 0.930 . S
C892 C891 1.400 . S
C892 C895 1.386 . S
H893 C909 0.930 . S
H894 C910 0.931 . S
C895 H883 0.929 . S
C895 C889 1.390 . S
C895 C892 1.386 . S
C896 C891 1.490 . S
C896 C898 1.395 . S
C896 C899 1.372 1_565 S
H897 C903 0.930 . S
C898 H884 0.930 . S
C898 C896 1.395 . S
C898 C901 1.403 . S
C899 C896 1.372 1_545 S
C899 C900 1.529 . S
C899 C903 1.427 . S
C900 H885 0.960 . S
C900 H886 0.960 1_545 S
C900 H887 0.960 . S
C900 C899 1.529 . S
C901 C898 1.403 . S
C901 C902 1.392 1_565 S
C901 C905 1.495 . S
C902 C901 1.392 1_545 S
C902 C903 1.385 . S
C902 C904 1.478 . S
C903 H897 0.930 . S
C903 C899 1.427 . S
C903 C902 1.385 . S
C904 C902 1.478 . S
C904 C906 1.381 . S
C904 C910 1.383 . S
C905 C901 1.495 . S
C905 H911 0.959 . S
C905 H912 0.961 1_565 S
C905 H913 0.960 . S
C906 C904 1.381 . S
C906 C907 1.394 . S
C906 H914 0.930 . S
C907 C906 1.394 . S
C907 C908 1.383 . S
C907 H915 0.929 . S
C908 C907 1.383 . S
C908 C909 1.377 . S
C909 H893 0.930 . S
C909 C908 1.377 . S
C909 C910 1.379 . S
C910 H894 0.931 . S
C910 C904 1.383 . S
C910 C909 1.379 . S
H911 C905 0.959 . S
H912 C905 0.961 1_545 S
H913 C905 0.960 . S
H914 C906 0.930 . S
H915 C907 0.929 . S
H916 C924 0.929 . S
H917 C926 0.930 . S
H918 C928 0.930 1_554 S
H919 C931 0.929 . S
H920 C934 0.930 . S
H921 C936 0.956 1_554 S
H922 C936 0.968 . S
H923 C936 0.956 1_564 S
C924 H916 0.929 . S
C924 C925 1.377 . S
C924 C926 1.384 . S
C925 C924 1.377 . S
C925 C931 1.390 . S
C926 H917 0.930 . S
C926 C924 1.384 . S
C926 C927 1.372 . S
C927 C926 1.372 . S
C927 C928 1.400 . S
C927 C932 1.490 . S
C928 H918 0.930 1_556 S
C928 C927 1.400 . S
C928 C931 1.386 . S
H929 C945 0.930 . S
H930 C946 0.931 . S
C931 H919 0.929 . S
C931 C925 1.390 . S
C931 C928 1.386 . S
C932 C927 1.490 . S
C932 C934 1.395 1_455 S
C932 C935 1.416 1_565 S
H933 C939 0.930 . S
C934 H920 0.930 . S
C934 C932 1.395 1_655 S
C934 C937 1.403 . S
C935 C932 1.416 1_545 S
C935 C936 1.523 . S
C935 C939 1.388 1_556 S
C936 H921 0.956 1_556 S
C936 H922 0.968 . S
C936 H923 0.956 1_546 S
C936 C935 1.523 . S
C937 C934 1.403 . S
C937 C938 1.392 1_566 S
C937 C941 1.495 . S
C938 C937 1.392 1_544 S
C938 C939 1.385 1_655 S
C938 C940 1.478 . S
C939 H933 0.930 . S
C939 C935 1.388 1_554 S
C939 C938 1.385 1_455 S
C940 C938 1.478 . S
C940 C942 1.381 . S
C940 C946 1.383 . S
C941 C937 1.495 . S
C941 H947 0.959 . S
C941 H948 0.961 1_556 S
C941 H949 0.960 1_565 S
C942 C940 1.381 . S
C942 C943 1.394 . S
C942 H950 0.930 1_554 S
C943 C942 1.394 . S
C943 C944 1.383 . S
C943 H951 0.968 . S
C944 C943 1.383 . S
C944 C945 1.377 . S
C945 H929 0.930 . S
C945 C944 1.377 . S
C945 C946 1.379 . S
C946 H930 0.931 . S
C946 C940 1.383 . S
C946 C945 1.379 . S
H947 C941 0.959 . S
H948 C941 0.961 1_554 S
H949 C941 0.960 1_545 S
H950 C942 0.930 1_556 S
H951 C943 0.968 . S
H952 C960 0.929 . S
H953 C962 0.930 . S
H954 C964 0.930 . S
H955 C967 0.929 . S
H956 C970 0.930 . S
H957 C972 0.960 . S
H958 C972 0.960 . S
H959 C972 0.960 . S
C960 H952 0.929 . S
C960 C961 1.377 . S
C960 C962 1.384 . S
C961 C960 1.377 . S
C961 C967 1.390 . S
C962 H953 0.930 . S
C962 C960 1.384 . S
C962 C963 1.372 . S
C963 C962 1.372 . S
C963 C964 1.400 . S
C963 C968 1.490 . S
C964 H954 0.930 . S
C964 C963 1.400 . S
C964 C967 1.386 . S
H965 C981 0.930 . S
H966 C982 0.931 . S
C967 H955 0.929 . S
C967 C961 1.390 . S
C967 C964 1.386 . S
C968 C963 1.490 . S
C968 C970 1.395 1_556 S
C968 C971 1.403 . S
H969 C975 0.930 . S
C970 H956 0.930 . S
C970 C968 1.395 1_554 S
C970 C973 1.403 1_545 S
C971 C968 1.403 . S
C971 C972 1.524 . S
C971 C975 1.400 1_545 S
C972 H957 0.960 . S
C972 H958 0.960 . S
C972 H959 0.960 . S
C972 C971 1.524 . S
C973 C970 1.403 1_565 S
C973 C974 1.392 . S
C973 C977 1.495 . S
C974 C973 1.392 . S
C974 C975 1.385 1_554 S
C974 C976 1.478 . S
C975 H969 0.930 . S
C975 C971 1.400 1_565 S
C975 C974 1.385 1_556 S
C976 C974 1.478 . S
C976 C978 1.381 . S
C976 C982 1.383 . S
C977 C973 1.495 . S
C977 H983 0.959 . S
C977 H984 0.961 . S
C977 H985 0.960 . S
C978 C976 1.381 . S
C978 C979 1.394 . S
C978 H986 0.930 . S
C979 C978 1.394 . S
C979 C980 1.383 . S
C979 H987 0.929 . S
C980 C979 1.383 . S
C980 C981 1.377 . S
C981 H965 0.930 . S
C981 C980 1.377 . S
C981 C982 1.379 . S
C982 H966 0.931 . S
C982 C976 1.383 . S
C982 C981 1.379 . S
H983 C977 0.959 . S
H984 C977 0.961 . S
H985 C977 0.960 . S
H986 C978 0.930 . S
H987 C979 0.929 . S
H988 C996 0.929 . S
H989 C998 0.930 . S
H990 C1000 0.930 . S
H991 C1003 0.929 . S
H992 C1006 0.930 . S
H993 C1008 0.960 . S
H994 C1008 0.960 . S
H995 C1008 0.993 . S
C996 H988 0.929 . S
C996 C997 1.377 . S
C996 C998 1.384 . S
C997 C996 1.377 . S
C997 C1003 1.390 . S
C998 H989 0.930 . S
C998 C996 1.384 . S
C998 C999 1.372 . S
C999 C998 1.372 . S
C999 C1000 1.400 . S
C999 C1004 1.490 . S
C1000 H990 0.930 . S
C1000 C999 1.400 . S
C1000 C1003 1.386 . S
H1001 C1017 0.930 . S
H1002 C1018 0.931 . S
C1003 H991 0.929 . S
C1003 C997 1.390 . S
C1003 C1000 1.386 . S
C1004 C999 1.490 . S
C1004 C1006 1.395 . S
C1004 C1007 1.403 1_455 S
H1005 C1011 0.930 . S
C1006 H992 0.930 . S
C1006 C1004 1.395 . S
C1006 C1009 1.403 1_545 S
C1007 C1004 1.403 1_655 S
C1007 C1008 1.524 . S
C1007 C1011 1.400 1_545 S
C1008 H993 0.960 . S
C1008 H994 0.960 . S
C1008 H995 0.993 . S
C1008 C1007 1.524 . S
C1009 C1006 1.403 1_565 S
C1009 C1010 1.392 1_455 S
C1009 C1013 1.495 . S
C1010 C1009 1.392 1_655 S
C1010 C1011 1.385 . S
C1010 C1012 1.478 . S
C1011 H1005 0.930 . S
C1011 C1007 1.400 1_565 S
C1011 C1010 1.385 . S
C1012 C1010 1.478 . S
C1012 C1014 1.381 . S
C1012 C1018 1.383 . S
C1013 C1009 1.495 . S
C1013 H1019 0.959 . S
C1013 H1020 0.961 . S
C1013 H1021 0.995 . S
C1014 C1012 1.381 . S
C1014 C1015 1.394 . S
C1014 H1022 0.930 . S
C1015 C1014 1.394 . S
C1015 C1016 1.383 . S
C1015 H1023 0.929 . S
C1016 C1015 1.383 . S
C1016 C1017 1.377 . S
C1017 H1001 0.930 . S
C1017 C1016 1.377 . S
C1017 C1018 1.379 . S
C1018 H1002 0.931 . S
C1018 C1012 1.383 . S
C1018 C1017 1.379 . S
H1019 C1013 0.959 . S
H1020 C1013 0.961 . S
H1021 C1013 0.995 . S
H1022 C1014 0.930 . S
H1023 C1015 0.929 . S
H1024 C1032 0.929 . S
H1025 C1034 0.930 . S
H1026 C1036 0.930 . S
H1027 C1039 0.929 . S
H1028 C1042 0.930 . S
H1029 C1044 0.960 . S
H1030 C1044 0.960 . S
H1031 C1044 0.960 . S
C1032 H1024 0.929 . S
C1032 C1033 1.377 . S
C1032 C1034 1.384 . S
C1033 C1032 1.377 . S
C1033 C1039 1.390 . S
C1034 H1025 0.930 . S
C1034 C1032 1.384 . S
C1034 C1035 1.372 . S
C1035 C1034 1.372 . S
C1035 C1036 1.400 . S
C1035 C1040 1.490 . S
C1036 H1026 0.930 . S
C1036 C1035 1.400 . S
C1036 C1039 1.386 . S
H1037 C1053 0.930 . S
H1038 C1054 0.931 . S
C1039 H1027 0.929 . S
C1039 C1033 1.390 . S
C1039 C1036 1.386 . S
C1040 C1035 1.490 . S
C1040 C1042 1.395 1_655 S
C1040 C1043 1.403 . S
H1041 C1047 0.927 1_655 S
C1042 H1028 0.930 . S
C1042 C1040 1.395 1_455 S
C1042 C1045 1.403 . S
C1043 C1040 1.403 . S
C1043 C1044 1.524 . S
C1043 C1047 1.391 1_655 S
C1044 H1029 0.960 . S
C1044 H1030 0.960 . S
C1044 H1031 0.960 . S
C1044 C1043 1.524 . S
C1045 C1042 1.403 . S
C1045 C1046 1.392 . S
C1045 C1049 1.495 . S
C1046 C1045 1.392 . S
C1046 C1047 1.395 . S
C1046 C1048 1.478 . S
C1047 H1041 0.927 1_455 S
C1047 C1043 1.391 1_455 S
C1047 C1046 1.395 . S
C1048 C1046 1.478 . S
C1048 C1050 1.381 . S
C1048 C1054 1.383 . S
C1049 C1045 1.495 . S
C1049 H1055 0.959 . S
C1049 H1056 0.961 . S
C1049 H1057 0.960 . S
C1050 C1048 1.381 . S
C1050 C1051 1.394 . S
C1050 H1058 0.930 . S
C1051 C1050 1.394 . S
C1051 C1052 1.383 . S
C1051 H1059 0.929 . S
C1052 C1051 1.383 . S
C1052 C1053 1.377 . S
C1053 H1037 0.930 . S
C1053 C1052 1.377 . S
C1053 C1054 1.379 . S
C1054 H1038 0.931 . S
C1054 C1048 1.383 . S
C1054 C1053 1.379 . S
H1055 C1049 0.959 . S
H1056 C1049 0.961 . S
H1057 C1049 0.960 . S
H1058 C1050 0.930 . S
H1059 C1051 0.929 . S
H1060 C1068 0.929 . S
H1061 C1070 0.930 . S
H1062 C1072 0.930 . S
H1063 C1075 0.929 . S
H1064 C1078 0.930 . S
H1065 C1080 0.960 . S
H1066 C1080 0.960 . S
H1067 C1080 0.960 . S
C1068 H1060 0.929 . S
C1068 C1069 1.377 . S
C1068 C1070 1.384 . S
C1069 C1068 1.377 . S
C1069 C1075 1.390 . S
C1070 H1061 0.930 . S
C1070 C1068 1.384 . S
C1070 C1071 1.372 . S
C1071 C1070 1.372 . S
C1071 C1072 1.400 . S
C1071 C1076 1.490 . S
C1072 H1062 0.930 . S
C1072 C1071 1.400 . S
C1072 C1075 1.386 . S
H1073 C1089 0.930 . S
H1074 C1090 0.931 . S
C1075 H1063 0.929 . S
C1075 C1069 1.390 . S
C1075 C1072 1.386 . S
C1076 C1071 1.490 . S
C1076 C1078 1.395 . S
C1076 C1079 1.403 1_455 S
H1077 C1083 0.930 . S
C1078 H1064 0.930 . S
C1078 C1076 1.395 . S
C1078 C1081 1.403 . S
C1079 C1076 1.403 1_655 S
C1079 C1080 1.524 . S
C1079 C1083 1.400 . S
C1080 H1065 0.960 . S
C1080 H1066 0.960 . S
C1080 H1067 0.960 . S
C1080 C1079 1.524 . S
C1081 C1078 1.403 . S
C1081 C1082 1.392 1_455 S
C1081 C1085 1.495 . S
C1082 C1081 1.392 1_655 S
C1082 C1083 1.385 . S
C1082 C1084 1.478 . S
C1083 H1077 0.930 . S
C1083 C1079 1.400 . S
C1083 C1082 1.385 . S
C1084 C1082 1.478 . S
C1084 C1086 1.381 . S
C1084 C1090 1.383 . S
C1085 C1081 1.495 . S
C1085 H1091 0.959 . S
C1085 H1092 0.961 . S
C1085 H1093 0.960 . S
C1086 C1084 1.381 . S
C1086 C1087 1.394 . S
C1086 H1094 0.930 . S
C1087 C1086 1.394 . S
C1087 C1088 1.383 . S
C1087 H1095 0.929 . S
C1088 C1087 1.383 . S
C1088 C1089 1.377 . S
C1089 H1073 0.930 . S
C1089 C1088 1.377 . S
C1089 C1090 1.379 . S
C1090 H1074 0.931 . S
C1090 C1084 1.383 . S
C1090 C1089 1.379 . S
H1091 C1085 0.959 . S
H1092 C1085 0.961 . S
H1093 C1085 0.960 . S
H1094 C1086 0.930 . S
H1095 C1087 0.929 . S
H1096 C1104 0.929 . S
H1097 C1106 0.930 . S
H1098 C1108 0.930 . S
H1099 C1111 0.929 . S
H1100 C1114 0.930 . S
H1101 C1116 0.960 . S
H1102 C1116 0.960 . S
H1103 C1116 0.960 . S
C1104 H1096 0.929 . S
C1104 C1105 1.377 . S
C1104 C1106 1.384 . S
C1105 C1104 1.377 . S
C1105 C1111 1.390 . S
C1106 H1097 0.930 . S
C1106 C1104 1.384 . S
C1106 C1107 1.372 . S
C1107 C1106 1.372 . S
C1107 C1108 1.400 . S
C1107 C1112 1.490 . S
C1108 H1098 0.930 . S
C1108 C1107 1.400 . S
C1108 C1111 1.386 . S
H1109 C1125 0.930 . S
H1110 C1126 0.931 . S
C1111 H1099 0.929 . S
C1111 C1105 1.390 . S
C1111 C1108 1.386 . S
C1112 C1107 1.490 . S
C1112 C1114 1.395 . S
C1112 C1115 1.403 . S
H1113 C1119 0.930 . S
C1114 H1100 0.930 . S
C1114 C1112 1.395 . S
C1114 C1117 1.403 . S
C1115 C1112 1.403 . S
C1115 C1116 1.524 . S
C1115 C1119 1.400 . S
C1116 H1101 0.960 . S
C1116 H1102 0.960 . S
C1116 H1103 0.960 . S
C1116 C1115 1.524 . S
C1117 C1114 1.403 . S
C1117 C1118 1.392 . S
C1117 C1121 1.495 . S
C1118 C1117 1.392 . S
C1118 C1119 1.385 . S
C1118 C1120 1.478 . S
C1119 H1113 0.930 . S
C1119 C1115 1.400 . S
C1119 C1118 1.385 . S
C1120 C1118 1.478 . S
C1120 C1122 1.381 . S
C1120 C1126 1.383 . S
C1121 C1117 1.495 . S
C1121 H1127 0.959 . S
C1121 H1128 0.961 . S
C1121 H1129 0.960 . S
C1122 C1120 1.381 . S
C1122 C1123 1.394 . S
C1122 H1130 0.930 . S
C1123 C1122 1.394 . S
C1123 C1124 1.383 . S
C1123 H1131 0.929 . S
C1124 C1123 1.383 . S
C1124 C1125 1.377 . S
C1125 H1109 0.930 . S
C1125 C1124 1.377 . S
C1125 C1126 1.379 . S
C1126 H1110 0.931 . S
C1126 C1120 1.383 . S
C1126 C1125 1.379 . S
H1127 C1121 0.959 . S
H1128 C1121 0.961 . S
H1129 C1121 0.960 . S
H1130 C1122 0.930 . S
H1131 C1123 0.929 . S
H1132 C1140 0.929 . S
H1133 C1142 0.930 . S
H1134 C1144 0.930 . S
H1135 C1147 0.929 . S
H1136 C1150 0.930 . S
H1137 C1152 0.960 . S
H1138 C1152 0.960 . S
H1139 C1152 0.960 . S
C1140 H1132 0.929 . S
C1140 C1141 1.377 . S
C1140 C1142 1.384 . S
C1141 C1140 1.377 . S
C1141 C1147 1.390 . S
C1142 H1133 0.930 . S
C1142 C1140 1.384 . S
C1142 C1143 1.372 . S
C1143 C1142 1.372 . S
C1143 C1144 1.400 . S
C1143 C1148 1.490 . S
C1144 H1134 0.930 . S
C1144 C1143 1.400 . S
C1144 C1147 1.386 . S
H1145 C1161 0.930 . S
H1146 C1162 0.931 . S
C1147 H1135 0.929 . S
C1147 C1141 1.390 . S
C1147 C1144 1.386 . S
C1148 C1143 1.490 . S
C1148 C1150 1.395 . S
C1148 C1151 1.403 . S
H1149 C1155 0.930 . S
C1150 H1136 0.930 . S
C1150 C1148 1.395 . S
C1150 C1153 1.403 . S
C1151 C1148 1.403 . S
C1151 C1152 1.524 . S
C1151 C1155 1.400 . S
C1152 H1137 0.960 . S
C1152 H1138 0.960 . S
C1152 H1139 0.960 . S
C1152 C1151 1.524 . S
C1153 C1150 1.403 . S
C1153 C1154 1.392 . S
C1153 C1157 1.495 . S
C1154 C1153 1.392 . S
C1154 C1155 1.385 . S
C1154 C1156 1.478 . S
C1155 H1149 0.930 . S
C1155 C1151 1.400 . S
C1155 C1154 1.385 . S
C1156 C1154 1.478 . S
C1156 C1158 1.381 . S
C1156 C1162 1.383 . S
C1157 C1153 1.495 . S
C1157 H1163 0.959 . S
C1157 H1164 0.961 . S
C1157 H1165 0.960 . S
C1158 C1156 1.381 . S
C1158 C1159 1.394 . S
C1158 H1166 0.930 . S
C1159 C1158 1.394 . S
C1159 C1160 1.383 . S
C1159 H1167 0.929 . S
C1160 C1159 1.383 . S
C1160 C1161 1.377 . S
C1161 H1145 0.930 . S
C1161 C1160 1.377 . S
C1161 C1162 1.379 . S
C1162 H1146 0.931 . S
C1162 C1156 1.383 . S
C1162 C1161 1.379 . S
H1163 C1157 0.959 . S
H1164 C1157 0.961 . S
H1165 C1157 0.960 . S
H1166 C1158 0.930 . S
H1167 C1159 0.929 . S
H1168 C1176 0.929 . S
H1169 C1178 0.930 . S
H1170 C1180 0.930 . S
H1171 C1183 0.929 . S
H1172 C1186 0.930 . S
H1173 C1188 0.960 1_455 S
H1174 C1188 0.960 . S
H1175 C1188 0.960 . S
C1176 H1168 0.929 . S
C1176 C1177 1.377 . S
C1176 C1178 1.384 . S
C1177 C1176 1.377 . S
C1177 C1183 1.390 . S
C1178 H1169 0.930 . S
C1178 C1176 1.384 . S
C1178 C1179 1.372 . S
C1179 C1178 1.372 . S
C1179 C1180 1.400 . S
C1179 C1184 1.490 . S
C1180 H1170 0.930 . S
C1180 C1179 1.400 . S
C1180 C1183 1.386 . S
H1181 C1197 0.930 . S
H1182 C1198 0.931 . S
C1183 H1171 0.929 . S
C1183 C1177 1.390 . S
C1183 C1180 1.386 . S
C1184 C1179 1.490 . S
C1184 C1186 1.395 . S
C1184 C1187 1.403 . S
H1185 C1191 0.930 . S
C1186 H1172 0.930 . S
C1186 C1184 1.395 . S
C1186 C1189 1.403 1_655 S
C1187 C1184 1.403 . S
C1187 C1188 1.524 . S
C1187 C1191 1.400 1_655 S
C1188 H1173 0.960 1_655 S
C1188 H1174 0.960 . S
C1188 H1175 0.960 . S
C1188 C1187 1.524 . S
C1189 C1186 1.403 1_455 S
C1189 C1190 1.392 . S
C1189 C1193 1.495 . S
C1190 C1189 1.392 . S
C1190 C1191 1.385 . S
C1190 C1192 1.478 . S
C1191 H1185 0.930 . S
C1191 C1187 1.400 1_455 S
C1191 C1190 1.385 . S
C1192 C1190 1.478 . S
C1192 C1194 1.381 . S
C1192 C1198 1.383 . S
C1193 C1189 1.495 . S
C1193 H1199 0.941 1_455 S
C1193 H1200 0.961 . S
C1193 H1201 0.960 . S
C1194 C1192 1.381 . S
C1194 C1195 1.394 . S
C1194 H1202 0.930 . S
C1195 C1194 1.394 . S
C1195 C1196 1.383 . S
C1195 H1203 0.929 . S
C1196 C1195 1.383 . S
C1196 C1197 1.377 . S
C1197 H1181 0.930 . S
C1197 C1196 1.377 . S
C1197 C1198 1.379 . S
C1198 H1182 0.931 . S
C1198 C1192 1.383 . S
C1198 C1197 1.379 . S
H1199 C1193 0.941 1_655 S
H1200 C1193 0.961 . S
H1201 C1193 0.960 . S
H1202 C1194 0.930 . S
H1203 C1195 0.929 . S
H1204 C1212 0.929 . S
H1205 C1214 0.930 . S
H1206 C1216 0.930 . S
H1207 C1219 0.929 . S
H1208 C1222 0.930 . S
H1209 C1224 0.960 . S
H1210 C1224 0.960 . S
H1211 C1224 0.960 . S
C1212 H1204 0.929 . S
C1212 C1213 1.377 . S
C1212 C1214 1.384 . S
C1213 C1212 1.377 . S
C1213 C1219 1.390 . S
C1214 H1205 0.930 . S
C1214 C1212 1.384 . S
C1214 C1215 1.372 . S
C1215 C1214 1.372 . S
C1215 C1216 1.400 . S
C1215 C1220 1.490 . S
C1216 H1206 0.930 . S
C1216 C1215 1.400 . S
C1216 C1219 1.386 . S
H1217 C1233 0.930 . S
H1218 C1234 0.931 . S
C1219 H1207 0.929 . S
C1219 C1213 1.390 . S
C1219 C1216 1.386 . S
C1220 C1215 1.490 . S
C1220 C1222 1.395 . S
C1220 C1223 1.403 . S
H1221 C1227 0.930 . S
C1222 H1208 0.930 . S
C1222 C1220 1.395 . S
C1222 C1225 1.403 . S
C1223 C1220 1.403 . S
C1223 C1224 1.524 . S
C1223 C1227 1.400 . S
C1224 H1209 0.960 . S
C1224 H1210 0.960 . S
C1224 H1211 0.960 . S
C1224 C1223 1.524 . S
C1225 C1222 1.403 . S
C1225 C1226 1.392 . S
C1225 C1229 1.495 . S
C1226 C1225 1.392 . S
C1226 C1227 1.385 . S
C1226 C1228 1.478 . S
C1227 H1221 0.930 . S
C1227 C1223 1.400 . S
C1227 C1226 1.385 . S
C1228 C1226 1.478 . S
C1228 C1230 1.381 . S
C1228 C1234 1.383 . S
C1229 C1225 1.495 . S
C1229 H1235 0.959 . S
C1229 H1236 0.961 . S
C1229 H1237 0.960 . S
C1230 C1228 1.381 . S
C1230 C1231 1.394 . S
C1230 H1238 0.930 . S
C1231 C1230 1.394 . S
C1231 C1232 1.383 . S
C1231 H1239 0.929 . S
C1232 C1231 1.383 . S
C1232 C1233 1.377 . S
C1233 H1217 0.930 . S
C1233 C1232 1.377 . S
C1233 C1234 1.379 . S
C1234 H1218 0.931 . S
C1234 C1228 1.383 . S
C1234 C1233 1.379 . S
H1235 C1229 0.959 . S
H1236 C1229 0.961 . S
H1237 C1229 0.960 . S
H1238 C1230 0.930 . S
H1239 C1231 0.929 . S
H1240 C1248 0.929 . S
H1241 C1250 0.930 . S
H1242 C1252 0.930 . S
H1243 C1255 0.929 . S
H1244 C1258 0.930 . S
H1245 C1260 0.913 1_554 S
H1246 C1260 0.960 . S
H1247 C1260 0.960 . S
C1248 H1240 0.929 . S
C1248 C1249 1.377 . S
C1248 C1250 1.384 . S
C1249 C1248 1.377 . S
C1249 C1255 1.390 . S
C1250 H1241 0.930 . S
C1250 C1248 1.384 . S
C1250 C1251 1.372 . S
C1251 C1250 1.372 . S
C1251 C1252 1.400 . S
C1251 C1256 1.490 . S
C1252 H1242 0.930 . S
C1252 C1251 1.400 . S
C1252 C1255 1.386 . S
H1253 C1269 0.930 . S
H1254 C1270 0.931 . S
C1255 H1243 0.929 . S
C1255 C1249 1.390 . S
C1255 C1252 1.386 . S
C1256 C1251 1.490 . S
C1256 C1258 1.395 . S
C1256 C1259 1.403 . S
H1257 C1263 0.930 . S
C1258 H1244 0.930 . S
C1258 C1256 1.395 . S
C1258 C1261 1.403 . S
C1259 C1256 1.403 . S
C1259 C1260 1.524 . S
C1259 C1263 1.400 . S
C1260 H1245 0.913 1_556 S
C1260 H1246 0.960 . S
C1260 H1247 0.960 . S
C1260 C1259 1.524 . S
C1261 C1258 1.403 . S
C1261 C1262 1.392 . S
C1261 C1265 1.495 . S
C1262 C1261 1.392 . S
C1262 C1263 1.385 . S
C1262 C1264 1.478 . S
C1263 H1257 0.930 . S
C1263 C1259 1.400 . S
C1263 C1262 1.385 . S
C1264 C1262 1.478 . S
C1264 C1266 1.381 . S
C1264 C1270 1.383 . S
C1265 C1261 1.495 . S
C1265 H1271 0.959 . S
C1265 H1272 0.961 . S
C1265 H1273 0.960 . S
C1266 C1264 1.381 . S
C1266 C1267 1.394 . S
C1266 H1274 0.930 . S
C1267 C1266 1.394 . S
C1267 C1268 1.383 . S
C1267 H1275 0.929 . S
C1268 C1267 1.383 . S
C1268 C1269 1.377 . S
C1269 H1253 0.930 . S
C1269 C1268 1.377 . S
C1269 C1270 1.379 . S
C1270 H1254 0.931 . S
C1270 C1264 1.383 . S
C1270 C1269 1.379 . S
H1271 C1265 0.959 . S
H1272 C1265 0.961 . S
H1273 C1265 0.960 . S
H1274 C1266 0.930 . S
H1275 C1267 0.929 . S
H1276 C1284 0.929 . S
H1277 C1286 0.930 . S
H1278 C1288 0.930 . S
H1279 C1291 0.929 . S
H1280 C1294 0.930 . S
H1281 C1296 0.960 . S
H1282 C1296 0.960 1_455 S
H1283 C1296 0.960 . S
C1284 H1276 0.929 . S
C1284 C1285 1.377 . S
C1284 C1286 1.384 . S
C1285 C1284 1.377 . S
C1285 C1291 1.390 . S
C1286 H1277 0.930 . S
C1286 C1284 1.384 . S
C1286 C1287 1.372 . S
C1287 C1286 1.372 . S
C1287 C1288 1.400 . S
C1287 C1292 1.490 . S
C1288 H1278 0.930 . S
C1288 C1287 1.400 . S
C1288 C1291 1.386 . S
H1289 C1305 0.930 . S
H1290 C1306 0.931 . S
C1291 H1279 0.929 . S
C1291 C1285 1.390 . S
C1291 C1288 1.386 . S
C1292 C1287 1.490 . S
C1292 C1294 1.395 . S
C1292 C1295 1.403 1_455 S
H1293 C1299 0.930 . S
C1294 H1280 0.930 . S
C1294 C1292 1.395 . S
C1294 C1297 1.403 . S
C1295 C1292 1.403 1_655 S
C1295 C1296 1.524 . S
C1295 C1299 1.400 . S
C1296 H1281 0.960 . S
C1296 H1282 0.960 1_655 S
C1296 H1283 0.960 . S
C1296 C1295 1.524 . S
C1297 C1294 1.403 . S
C1297 C1298 1.392 1_455 S
C1297 C1301 1.495 . S
C1298 C1297 1.392 1_655 S
C1298 C1299 1.385 . S
C1298 C1300 1.478 . S
C1299 H1293 0.930 . S
C1299 C1295 1.400 . S
C1299 C1298 1.385 . S
C1300 C1298 1.478 . S
C1300 C1302 1.381 . S
C1300 C1306 1.383 . S
C1301 C1297 1.495 . S
C1301 H1307 0.959 . S
C1301 H1308 0.944 1_455 S
C1301 H1309 0.960 . S
C1302 C1300 1.381 . S
C1302 C1303 1.394 . S
C1302 H1310 0.930 . S
C1303 C1302 1.394 . S
C1303 C1304 1.383 . S
C1303 H1311 0.929 . S
C1304 C1303 1.383 . S
C1304 C1305 1.377 . S
C1305 H1289 0.930 . S
C1305 C1304 1.377 . S
C1305 C1306 1.379 . S
C1306 H1290 0.931 . S
C1306 C1300 1.383 . S
C1306 C1305 1.379 . S
H1307 C1301 0.959 . S
H1308 C1301 0.944 1_655 S
H1309 C1301 0.960 . S
H1310 C1302 0.930 . S
H1311 C1303 0.929 . S
H1312 C1320 0.929 . S
H1313 C1322 0.930 . S
H1314 C1324 0.930 . S
H1315 C1327 0.929 . S
H1316 C1330 0.932 . S
H1317 C1332 0.960 . S
H1318 C1332 0.960 . S
H1319 C1332 0.960 . S
C1320 H1312 0.929 . S
C1320 C1321 1.377 . S
C1320 C1322 1.384 . S
C1321 C1320 1.377 . S
C1321 C1327 1.390 . S
C1322 H1313 0.930 . S
C1322 C1320 1.384 . S
C1322 C1323 1.372 . S
C1323 C1322 1.372 . S
C1323 C1324 1.400 . S
C1323 C1328 1.490 . S
C1324 H1314 0.930 . S
C1324 C1323 1.400 . S
C1324 C1327 1.386 . S
H1325 C1341 0.930 . S
H1326 C1342 0.931 . S
C1327 H1315 0.929 . S
C1327 C1321 1.390 . S
C1327 C1324 1.386 . S
C1328 C1323 1.490 . S
C1328 C1330 1.408 . S
C1328 C1331 1.403 . S
H1329 C1335 0.930 . S
C1330 H1316 0.932 . S
C1330 C1328 1.408 . S
C1330 C1333 1.388 1_655 S
C1331 C1328 1.403 . S
C1331 C1332 1.524 . S
C1331 C1335 1.400 1_655 S
C1332 H1317 0.960 . S
C1332 H1318 0.960 . S
C1332 H1319 0.960 . S
C1332 C1331 1.524 . S
C1333 C1330 1.388 1_455 S
C1333 C1334 1.392 . S
C1333 C1337 1.495 . S
C1334 C1333 1.392 . S
C1334 C1335 1.385 . S
C1334 C1336 1.478 . S
C1335 H1329 0.930 . S
C1335 C1331 1.400 1_455 S
C1335 C1334 1.385 . S
C1336 C1334 1.478 . S
C1336 C1338 1.381 . S
C1336 C1342 1.383 . S
C1337 C1333 1.495 . S
C1337 H1343 0.959 . S
C1337 H1344 0.961 . S
C1337 H1345 0.960 . S
C1338 C1336 1.381 . S
C1338 C1339 1.394 . S
C1338 H1346 0.930 . S
C1339 C1338 1.394 . S
C1339 C1340 1.383 . S
C1339 H1347 0.929 . S
C1340 C1339 1.383 . S
C1340 C1341 1.377 . S
C1341 H1325 0.930 . S
C1341 C1340 1.377 . S
C1341 C1342 1.379 . S
C1342 H1326 0.931 . S
C1342 C1336 1.383 . S
C1342 C1341 1.379 . S
H1343 C1337 0.959 . S
H1344 C1337 0.961 . S
H1345 C1337 0.960 . S
H1346 C1338 0.930 . S
H1347 C1339 0.929 . S
H1348 C1356 0.929 . S
H1349 C1358 0.930 . S
H1350 C1360 0.930 . S
H1351 C1363 0.929 . S
H1352 C1366 0.930 . S
H1353 C1368 0.960 . S
H1354 C1368 0.960 . S
H1355 C1368 0.960 . S
C1356 H1348 0.929 . S
C1356 C1357 1.377 . S
C1356 C1358 1.384 . S
C1357 C1356 1.377 . S
C1357 C1363 1.390 . S
C1358 H1349 0.930 . S
C1358 C1356 1.384 . S
C1358 C1359 1.372 . S
C1359 C1358 1.372 . S
C1359 C1360 1.400 . S
C1359 C1364 1.490 . S
C1360 H1350 0.930 . S
C1360 C1359 1.400 . S
C1360 C1363 1.386 . S
H1361 C1377 0.930 . S
H1362 C1378 0.931 . S
C1363 H1351 0.929 . S
C1363 C1357 1.390 . S
C1363 C1360 1.386 . S
C1364 C1359 1.490 . S
C1364 C1366 1.395 1_655 S
C1364 C1367 1.403 . S
H1365 C1371 0.935 . S
C1366 H1352 0.930 . S
C1366 C1364 1.395 1_455 S
C1366 C1369 1.403 . S
C1367 C1364 1.403 . S
C1367 C1368 1.524 . S
C1367 C1371 1.427 . S
C1368 H1353 0.960 . S
C1368 H1354 0.960 . S
C1368 H1355 0.960 . S
C1368 C1367 1.524 . S
C1369 C1366 1.403 . S
C1369 C1370 1.392 . S
C1369 C1373 1.495 . S
C1370 C1369 1.392 . S
C1370 C1371 1.355 1_455 S
C1370 C1372 1.478 . S
C1371 H1365 0.935 . S
C1371 C1367 1.427 . S
C1371 C1370 1.355 1_655 S
C1372 C1370 1.478 . S
C1372 C1374 1.381 . S
C1372 C1378 1.383 . S
C1373 C1369 1.495 . S
C1373 H1379 0.959 . S
C1373 H1380 0.961 . S
C1373 H1381 0.960 . S
C1374 C1372 1.381 . S
C1374 C1375 1.394 . S
C1374 H1382 0.930 . S
C1375 C1374 1.394 . S
C1375 C1376 1.383 . S
C1375 H1383 0.929 . S
C1376 C1375 1.383 . S
C1376 C1377 1.377 . S
C1377 H1361 0.930 . S
C1377 C1376 1.377 . S
C1377 C1378 1.379 . S
C1378 H1362 0.931 . S
C1378 C1372 1.383 . S
C1378 C1377 1.379 . S
H1379 C1373 0.959 . S
H1380 C1373 0.961 . S
H1381 C1373 0.960 . S
H1382 C1374 0.930 . S
H1383 C1375 0.929 . S
H1384 C1392 0.929 . S
H1385 C1394 0.930 . S
H1386 C1396 0.930 . S
H1387 C1399 0.929 . S
H1388 C1402 0.930 . S
H1389 C1404 0.960 . S
H1390 C1404 0.960 . S
H1391 C1404 0.960 . S
C1392 H1384 0.929 . S
C1392 C1393 1.377 . S
C1392 C1394 1.384 . S
C1393 C1392 1.377 . S
C1393 C1399 1.390 . S
C1394 H1385 0.930 . S
C1394 C1392 1.384 . S
C1394 C1395 1.372 . S
C1395 C1394 1.372 . S
C1395 C1396 1.400 . S
C1395 C1400 1.490 . S
C1396 H1386 0.930 . S
C1396 C1395 1.400 . S
C1396 C1399 1.386 . S
H1397 C1413 0.930 . S
H1398 C1414 0.931 . S
C1399 H1387 0.929 . S
C1399 C1393 1.390 . S
C1399 C1396 1.386 . S
C1400 C1395 1.490 . S
C1400 C1402 1.395 . S
C1400 C1403 1.403 . S
H1401 C1407 0.930 . S
C1402 H1388 0.930 . S
C1402 C1400 1.395 . S
C1402 C1405 1.403 . S
C1403 C1400 1.403 . S
C1403 C1404 1.524 . S
C1403 C1407 1.400 . S
C1404 H1389 0.960 . S
C1404 H1390 0.960 . S
C1404 H1391 0.960 . S
C1404 C1403 1.524 . S
C1405 C1402 1.403 . S
C1405 C1406 1.392 . S
C1405 C1409 1.495 . S
C1406 C1405 1.392 . S
C1406 C1407 1.385 . S
C1406 C1408 1.478 . S
C1407 H1401 0.930 . S
C1407 C1403 1.400 . S
C1407 C1406 1.385 . S
C1408 C1406 1.478 . S
C1408 C1410 1.381 . S
C1408 C1414 1.383 . S
C1409 C1405 1.495 . S
C1409 H1415 0.959 . S
C1409 H1416 0.961 . S
C1409 H1417 0.960 . S
C1410 C1408 1.381 . S
C1410 C1411 1.394 . S
C1410 H1418 0.930 . S
C1411 C1410 1.394 . S
C1411 C1412 1.383 . S
C1411 H1419 0.929 . S
C1412 C1411 1.383 . S
C1412 C1413 1.377 . S
C1413 H1397 0.930 . S
C1413 C1412 1.377 . S
C1413 C1414 1.379 . S
C1414 H1398 0.931 . S
C1414 C1408 1.383 . S
C1414 C1413 1.379 . S
H1415 C1409 0.959 . S
H1416 C1409 0.961 . S
H1417 C1409 0.960 . S
H1418 C1410 0.930 . S
H1419 C1411 0.929 . S
H1420 C1428 0.929 . S
H1421 C1430 0.930 . S
H1422 C1432 0.930 . S
H1423 C1435 0.929 . S
H1424 C1438 0.930 . S
H1425 C1440 0.960 . S
H1426 C1440 0.960 . S
H1427 C1440 0.960 . S
C1428 H1420 0.929 . S
C1428 C1429 1.377 . S
C1428 C1430 1.384 . S
C1429 C1428 1.377 . S
C1429 C1435 1.390 . S
C1430 H1421 0.930 . S
C1430 C1428 1.384 . S
C1430 C1431 1.372 . S
C1431 C1430 1.372 . S
C1431 C1432 1.400 . S
C1431 C1436 1.490 . S
C1432 H1422 0.930 . S
C1432 C1431 1.400 . S
C1432 C1435 1.386 . S
H1433 C1449 0.930 . S
H1434 C1450 0.931 . S
C1435 H1423 0.929 . S
C1435 C1429 1.390 . S
C1435 C1432 1.386 . S
C1436 C1431 1.490 . S
C1436 C1438 1.395 . S
C1436 C1439 1.403 . S
H1437 C1443 0.930 . S
C1438 H1424 0.930 . S
C1438 C1436 1.395 . S
C1438 C1441 1.403 . S
C1439 C1436 1.403 . S
C1439 C1440 1.524 . S
C1439 C1443 1.400 . S
C1440 H1425 0.960 . S
C1440 H1426 0.960 . S
C1440 H1427 0.960 . S
C1440 C1439 1.524 . S
C1441 C1438 1.403 . S
C1441 C1442 1.392 . S
C1441 C1445 1.495 . S
C1442 C1441 1.392 . S
C1442 C1443 1.385 . S
C1442 C1444 1.478 . S
C1443 H1437 0.930 . S
C1443 C1439 1.400 . S
C1443 C1442 1.385 . S
C1444 C1442 1.478 . S
C1444 C1446 1.381 . S
C1444 C1450 1.383 . S
C1445 C1441 1.495 . S
C1445 H1451 0.959 . S
C1445 H1452 0.961 . S
C1445 H1453 0.960 . S
C1446 C1444 1.381 . S
C1446 C1447 1.394 . S
C1446 H1454 0.930 . S
C1447 C1446 1.394 . S
C1447 C1448 1.383 . S
C1447 H1455 0.929 . S
C1448 C1447 1.383 . S
C1448 C1449 1.377 . S
C1449 H1433 0.930 . S
C1449 C1448 1.377 . S
C1449 C1450 1.379 . S
C1450 H1434 0.931 . S
C1450 C1444 1.383 . S
C1450 C1449 1.379 . S
H1451 C1445 0.959 . S
H1452 C1445 0.961 . S
H1453 C1445 0.960 . S
H1454 C1446 0.930 . S
H1455 C1447 0.929 . S
H1456 C1464 0.929 . S
H1457 C1466 0.930 . S
H1458 C1468 0.930 . S
H1459 C1471 0.929 . S
H1460 C1474 0.930 . S
H1461 C1476 0.960 . S
H1462 C1476 0.960 . S
H1463 C1476 0.960 . S
C1464 H1456 0.929 . S
C1464 C1465 1.377 . S
C1464 C1466 1.384 . S
C1465 C1464 1.377 . S
C1465 C1471 1.390 . S
C1466 H1457 0.930 . S
C1466 C1464 1.384 . S
C1466 C1467 1.372 . S
C1467 C1466 1.372 . S
C1467 C1468 1.400 . S
C1467 C1472 1.490 . S
C1468 H1458 0.930 . S
C1468 C1467 1.400 . S
C1468 C1471 1.386 . S
H1469 C1485 0.930 . S
H1470 C1486 0.931 . S
C1471 H1459 0.929 . S
C1471 C1465 1.390 . S
C1471 C1468 1.386 . S
C1472 C1467 1.490 . S
C1472 C1474 1.395 . S
C1472 C1475 1.403 1_655 S
H1473 C1479 0.930 . S
C1474 H1460 0.930 . S
C1474 C1472 1.395 . S
C1474 C1477 1.403 . S
C1475 C1472 1.403 1_455 S
C1475 C1476 1.524 . S
C1475 C1479 1.400 . S
C1476 H1461 0.960 . S
C1476 H1462 0.960 . S
C1476 H1463 0.960 . S
C1476 C1475 1.524 . S
C1477 C1474 1.403 . S
C1477 C1478 1.392 1_655 S
C1477 C1481 1.495 . S
C1478 C1477 1.392 1_455 S
C1478 C1479 1.385 . S
C1478 C1480 1.478 . S
C1479 H1473 0.930 . S
C1479 C1475 1.400 . S
C1479 C1478 1.385 . S
C1480 C1478 1.478 . S
C1480 C1482 1.381 . S
C1480 C1486 1.383 . S
C1481 C1477 1.495 . S
C1481 H1487 0.959 . S
C1481 H1488 0.961 . S
C1481 H1489 0.960 . S
C1482 C1480 1.381 . S
C1482 C1483 1.394 . S
C1482 H1490 0.930 . S
C1483 C1482 1.394 . S
C1483 C1484 1.383 . S
C1483 H1491 0.929 . S
C1484 C1483 1.383 . S
C1484 C1485 1.377 . S
C1485 H1469 0.930 . S
C1485 C1484 1.377 . S
C1485 C1486 1.379 . S
C1486 H1470 0.931 . S
C1486 C1480 1.383 . S
C1486 C1485 1.379 . S
H1487 C1481 0.959 . S
H1488 C1481 0.961 . S
H1489 C1481 0.960 . S
H1490 C1482 0.930 . S
H1491 C1483 0.929 . S
H1492 C1500 0.929 . S
H1493 C1502 0.930 . S
H1494 C1504 0.930 . S
H1495 C1507 0.929 . S
H1496 C1510 0.930 . S
H1497 C1512 0.960 . S
H1498 C1512 0.960 . S
H1499 C1512 0.960 . S
C1500 H1492 0.929 . S
C1500 C1501 1.377 . S
C1500 C1502 1.384 . S
C1501 C1500 1.377 . S
C1501 C1507 1.390 . S
C1502 H1493 0.930 . S
C1502 C1500 1.384 . S
C1502 C1503 1.372 . S
C1503 C1502 1.372 . S
C1503 C1504 1.400 . S
C1503 C1508 1.490 . S
C1504 H1494 0.930 . S
C1504 C1503 1.400 . S
C1504 C1507 1.386 . S
H1505 C1521 0.930 . S
H1506 C1522 0.931 . S
C1507 H1495 0.929 . S
C1507 C1501 1.390 . S
C1507 C1504 1.386 . S
C1508 C1503 1.490 . S
C1508 C1510 1.395 . S
C1508 C1511 1.403 . S
H1509 C1515 0.930 . S
C1510 H1496 0.930 . S
C1510 C1508 1.395 . S
C1510 C1513 1.403 . S
C1511 C1508 1.403 . S
C1511 C1512 1.524 . S
C1511 C1515 1.400 . S
C1512 H1497 0.960 . S
C1512 H1498 0.960 . S
C1512 H1499 0.960 . S
C1512 C1511 1.524 . S
C1513 C1510 1.403 . S
C1513 C1514 1.392 . S
C1513 C1517 1.495 . S
C1514 C1513 1.392 . S
C1514 C1515 1.385 . S
C1514 C1516 1.478 . S
C1515 H1509 0.930 . S
C1515 C1511 1.400 . S
C1515 C1514 1.385 . S
C1516 C1514 1.478 . S
C1516 C1518 1.381 . S
C1516 C1522 1.383 . S
C1517 C1513 1.495 . S
C1517 H1523 0.959 . S
C1517 H1524 0.961 . S
C1517 H1525 0.960 . S
C1518 C1516 1.381 . S
C1518 C1519 1.394 . S
C1518 H1526 0.930 . S
C1519 C1518 1.394 . S
C1519 C1520 1.383 . S
C1519 H1527 0.929 . S
C1520 C1519 1.383 . S
C1520 C1521 1.377 . S
C1521 H1505 0.930 . S
C1521 C1520 1.377 . S
C1521 C1522 1.379 . S
C1522 H1506 0.931 . S
C1522 C1516 1.383 . S
C1522 C1521 1.379 . S
H1523 C1517 0.959 . S
H1524 C1517 0.961 . S
H1525 C1517 0.960 . S
H1526 C1518 0.930 . S
H1527 C1519 0.929 . S
H1528 C1536 0.929 . S
H1529 C1538 0.930 . S
H1530 C1540 0.930 . S
H1531 C1543 0.929 . S
H1532 C1546 0.930 . S
H1533 C1548 0.960 . S
H1534 C1548 0.960 . S
H1535 C1548 0.960 . S
C1536 H1528 0.929 . S
C1536 C1537 1.377 . S
C1536 C1538 1.384 . S
C1537 C1536 1.377 . S
C1537 C1543 1.390 . S
C1538 H1529 0.930 . S
C1538 C1536 1.384 . S
C1538 C1539 1.372 . S
C1539 C1538 1.372 . S
C1539 C1540 1.400 . S
C1539 C1544 1.490 . S
C1540 H1530 0.930 . S
C1540 C1539 1.400 . S
C1540 C1543 1.386 . S
H1541 C1557 0.930 . S
H1542 C1558 0.931 . S
C1543 H1531 0.929 . S
C1543 C1537 1.390 . S
C1543 C1540 1.386 . S
C1544 C1539 1.490 . S
C1544 C1546 1.395 . S
C1544 C1547 1.403 . S
H1545 C1551 0.930 . S
C1546 H1532 0.930 . S
C1546 C1544 1.395 . S
C1546 C1549 1.403 . S
C1547 C1544 1.403 . S
C1547 C1548 1.524 . S
C1547 C1551 1.400 . S
C1548 H1533 0.960 . S
C1548 H1534 0.960 . S
C1548 H1535 0.960 . S
C1548 C1547 1.524 . S
C1549 C1546 1.403 . S
C1549 C1550 1.392 . S
C1549 C1553 1.495 . S
C1550 C1549 1.392 . S
C1550 C1551 1.385 . S
C1550 C1552 1.478 . S
C1551 H1545 0.930 . S
C1551 C1547 1.400 . S
C1551 C1550 1.385 . S
C1552 C1550 1.478 . S
C1552 C1554 1.381 . S
C1552 C1558 1.383 . S
C1553 C1549 1.495 . S
C1553 H1559 0.959 . S
C1553 H1560 0.961 . S
C1553 H1561 0.960 . S
C1554 C1552 1.381 . S
C1554 C1555 1.394 . S
C1554 H1562 0.930 . S
C1555 C1554 1.394 . S
C1555 C1556 1.383 . S
C1555 H1563 0.929 . S
C1556 C1555 1.383 . S
C1556 C1557 1.377 . S
C1557 H1541 0.930 . S
C1557 C1556 1.377 . S
C1557 C1558 1.379 . S
C1558 H1542 0.931 . S
C1558 C1552 1.383 . S
C1558 C1557 1.379 . S
H1559 C1553 0.959 . S
H1560 C1553 0.961 . S
H1561 C1553 0.960 . S
H1562 C1554 0.930 . S
H1563 C1555 0.929 . S
H1564 C1572 0.929 . S
H1565 C1574 0.930 . S
H1566 C1576 0.930 . S
H1567 C1579 0.929 . S
H1568 C1582 0.930 . S
H1569 C1584 0.960 . S
H1570 C1584 0.960 . S
H1571 C1584 0.960 . S
C1572 H1564 0.929 . S
C1572 C1573 1.377 . S
C1572 C1574 1.384 . S
C1573 C1572 1.377 . S
C1573 C1579 1.390 . S
C1574 H1565 0.930 . S
C1574 C1572 1.384 . S
C1574 C1575 1.372 . S
C1575 C1574 1.372 . S
C1575 C1576 1.400 . S
C1575 C1580 1.490 . S
C1576 H1566 0.930 . S
C1576 C1575 1.400 . S
C1576 C1579 1.386 . S
H1577 C1593 0.930 . S
H1578 C1594 0.931 . S
C1579 H1567 0.929 . S
C1579 C1573 1.390 . S
C1579 C1576 1.386 . S
C1580 C1575 1.490 . S
C1580 C1582 1.395 . S
C1580 C1583 1.403 1_655 S
H1581 C1587 0.930 . S
C1582 H1568 0.930 . S
C1582 C1580 1.395 . S
C1582 C1585 1.403 . S
C1583 C1580 1.403 1_455 S
C1583 C1584 1.524 . S
C1583 C1587 1.400 . S
C1584 H1569 0.960 . S
C1584 H1570 0.960 . S
C1584 H1571 0.960 . S
C1584 C1583 1.524 . S
C1585 C1582 1.403 . S
C1585 C1586 1.392 1_655 S
C1585 C1589 1.495 . S
C1586 C1585 1.392 1_455 S
C1586 C1587 1.385 . S
C1586 C1588 1.478 . S
C1587 H1581 0.930 . S
C1587 C1583 1.400 . S
C1587 C1586 1.385 . S
C1588 C1586 1.478 . S
C1588 C1590 1.381 . S
C1588 C1594 1.383 . S
C1589 C1585 1.495 . S
C1589 H1595 0.959 . S
C1589 H1596 0.961 . S
C1589 H1597 0.960 . S
C1590 C1588 1.381 . S
C1590 C1591 1.394 . S
C1590 H1598 0.930 . S
C1591 C1590 1.394 . S
C1591 C1592 1.383 . S
C1591 H1599 0.929 . S
C1592 C1591 1.383 . S
C1592 C1593 1.377 . S
C1593 H1577 0.930 . S
C1593 C1592 1.377 . S
C1593 C1594 1.379 . S
C1594 H1578 0.931 . S
C1594 C1588 1.383 . S
C1594 C1593 1.379 . S
H1595 C1589 0.959 . S
H1596 C1589 0.961 . S
H1597 C1589 0.960 . S
H1598 C1590 0.930 . S
H1599 C1591 0.929 . S
H1600 C1608 0.929 . S
H1601 C1610 0.930 . S
H1602 C1612 0.930 1_554 S
H1603 C1615 0.929 . S
H1604 C1618 0.930 . S
H1605 C1620 0.960 . S
H1606 C1620 0.960 . S
H1607 C1620 0.960 . S
C1608 H1600 0.929 . S
C1608 C1609 1.377 . S
C1608 C1610 1.384 . S
C1609 C1608 1.377 . S
C1609 C1615 1.390 . S
C1610 H1601 0.930 . S
C1610 C1608 1.384 . S
C1610 C1611 1.372 . S
C1611 C1610 1.372 . S
C1611 C1612 1.400 . S
C1611 C1616 1.490 . S
C1612 H1602 0.930 1_556 S
C1612 C1611 1.400 . S
C1612 C1615 1.386 . S
H1613 C1629 0.930 . S
H1614 C1630 0.931 . S
C1615 H1603 0.929 . S
C1615 C1609 1.390 . S
C1615 C1612 1.386 . S
C1616 C1611 1.490 . S
C1616 C1618 1.395 . S
C1616 C1619 1.403 1_556 S
H1617 C1623 0.930 . S
C1618 H1604 0.930 . S
C1618 C1616 1.395 . S
C1618 C1621 1.403 . S
C1619 C1616 1.403 1_554 S
C1619 C1620 1.524 . S
C1619 C1623 1.400 . S
C1620 H1605 0.960 . S
C1620 H1606 0.960 . S
C1620 H1607 0.960 . S
C1620 C1619 1.524 . S
C1621 C1618 1.403 . S
C1621 C1622 1.392 1_556 S
C1621 C1625 1.495 . S
C1622 C1621 1.392 1_554 S
C1622 C1623 1.385 . S
C1622 C1624 1.478 . S
C1623 H1617 0.930 . S
C1623 C1619 1.400 . S
C1623 C1622 1.385 . S
C1624 C1622 1.478 . S
C1624 C1626 1.381 . S
C1624 C1630 1.383 . S
C1625 C1621 1.495 . S
C1625 H1631 0.959 . S
C1625 H1632 0.961 . S
C1625 H1633 0.960 . S
C1626 C1624 1.381 . S
C1626 C1627 1.394 . S
C1626 H1634 0.930 1_554 S
C1627 C1626 1.394 . S
C1627 C1628 1.383 . S
C1627 H1635 0.929 . S
C1628 C1627 1.383 . S
C1628 C1629 1.377 . S
C1629 H1613 0.930 . S
C1629 C1628 1.377 . S
C1629 C1630 1.379 . S
C1630 H1614 0.931 . S
C1630 C1624 1.383 . S
C1630 C1629 1.379 . S
H1631 C1625 0.959 . S
H1632 C1625 0.961 . S
H1633 C1625 0.960 . S
H1634 C1626 0.930 1_556 S
H1635 C1627 0.929 . S
H1636 C1644 0.929 . S
H1637 C1646 0.930 . S
H1638 C1648 0.930 . S
H1639 C1651 0.929 . S
H1640 C1654 0.930 . S
H1641 C1656 0.960 1_565 S
H1642 C1656 0.960 . S
H1643 C1656 0.960 . S
C1644 H1636 0.929 . S
C1644 C1645 1.377 . S
C1644 C1646 1.384 . S
C1645 C1644 1.377 . S
C1645 C1651 1.390 . S
C1646 H1637 0.930 . S
C1646 C1644 1.384 . S
C1646 C1647 1.372 . S
C1647 C1646 1.372 . S
C1647 C1648 1.400 . S
C1647 C1652 1.490 . S
C1648 H1638 0.930 . S
C1648 C1647 1.400 . S
C1648 C1651 1.386 . S
H1649 C1665 0.930 . S
H1650 C1666 0.931 . S
C1651 H1639 0.929 . S
C1651 C1645 1.390 . S
C1651 C1648 1.386 . S
C1652 C1647 1.490 . S
C1652 C1654 1.395 . S
C1652 C1655 1.403 . S
H1653 C1659 0.930 . S
C1654 H1640 0.930 . S
C1654 C1652 1.395 . S
C1654 C1657 1.403 1_545 S
C1655 C1652 1.403 . S
C1655 C1656 1.524 . S
C1655 C1659 1.400 1_545 S
C1656 H1641 0.960 1_545 S
C1656 H1642 0.960 . S
C1656 H1643 0.960 . S
C1656 C1655 1.524 . S
C1657 C1654 1.403 1_565 S
C1657 C1658 1.392 . S
C1657 C1661 1.495 . S
C1658 C1657 1.392 . S
C1658 C1659 1.385 . S
C1658 C1660 1.478 . S
C1659 H1653 0.930 . S
C1659 C1655 1.400 1_565 S
C1659 C1658 1.385 . S
C1660 C1658 1.478 . S
C1660 C1662 1.381 . S
C1660 C1666 1.383 . S
C1661 C1657 1.495 . S
C1661 H1667 0.959 1_565 S
C1661 H1668 0.961 . S
C1661 H1669 0.960 . S
C1662 C1660 1.381 . S
C1662 C1663 1.394 . S
C1662 H1670 0.930 . S
C1663 C1662 1.394 . S
C1663 C1664 1.383 . S
C1663 H1671 0.929 . S
C1664 C1663 1.383 . S
C1664 C1665 1.377 . S
C1665 H1649 0.930 . S
C1665 C1664 1.377 . S
C1665 C1666 1.379 . S
C1666 H1650 0.931 . S
C1666 C1660 1.383 . S
C1666 C1665 1.379 . S
H1667 C1661 0.959 1_545 S
H1668 C1661 0.961 . S
H1669 C1661 0.960 . S
H1670 C1662 0.930 . S
H1671 C1663 0.929 . S
H1672 C1680 0.929 . S
H1673 C1682 0.930 . S
H1674 C1684 0.930 . S
H1675 C1687 0.929 . S
H1676 C1690 0.930 . S
H1677 C1692 0.960 . S
H1678 C1692 0.960 . S
H1679 C1692 0.960 . S
C1680 H1672 0.929 . S
C1680 C1681 1.377 . S
C1680 C1682 1.384 . S
C1681 C1680 1.377 . S
C1681 C1687 1.390 . S
C1682 H1673 0.930 . S
C1682 C1680 1.384 . S
C1682 C1683 1.372 . S
C1683 C1682 1.372 . S
C1683 C1684 1.400 . S
C1683 C1688 1.490 . S
C1684 H1674 0.930 . S
C1684 C1683 1.400 . S
C1684 C1687 1.386 . S
H1685 C1701 0.930 . S
H1686 C1702 0.931 . S
C1687 H1675 0.929 . S
C1687 C1681 1.390 . S
C1687 C1684 1.386 . S
C1688 C1683 1.490 . S
C1688 C1690 1.395 . S
C1688 C1691 1.403 . S
H1689 C1695 0.930 . S
C1690 H1676 0.930 . S
C1690 C1688 1.395 . S
C1690 C1693 1.403 . S
C1691 C1688 1.403 . S
C1691 C1692 1.524 . S
C1691 C1695 1.400 . S
C1692 H1677 0.960 . S
C1692 H1678 0.960 . S
C1692 H1679 0.960 . S
C1692 C1691 1.524 . S
C1693 C1690 1.403 . S
C1693 C1694 1.392 . S
C1693 C1697 1.495 . S
C1694 C1693 1.392 . S
C1694 C1695 1.385 . S
C1694 C1696 1.478 . S
C1695 H1689 0.930 . S
C1695 C1691 1.400 . S
C1695 C1694 1.385 . S
C1696 C1694 1.478 . S
C1696 C1698 1.381 . S
C1696 C1702 1.383 . S
C1697 C1693 1.495 . S
C1697 H1703 0.959 . S
C1697 H1704 0.961 . S
C1697 H1705 0.960 . S
C1698 C1696 1.381 . S
C1698 C1699 1.394 . S
C1698 H1706 0.930 . S
C1699 C1698 1.394 . S
C1699 C1700 1.383 . S
C1699 H1707 0.929 . S
C1700 C1699 1.383 . S
C1700 C1701 1.377 . S
C1701 H1685 0.930 . S
C1701 C1700 1.377 . S
C1701 C1702 1.379 . S
C1702 H1686 0.931 . S
C1702 C1696 1.383 . S
C1702 C1701 1.379 . S
H1703 C1697 0.959 . S
H1704 C1697 0.961 . S
H1705 C1697 0.960 . S
H1706 C1698 0.930 . S
H1707 C1699 0.929 . S
H1708 C1716 0.929 . S
H1709 C1718 0.930 . S
H1710 C1720 0.930 . S
H1711 C1723 0.929 . S
H1712 C1726 0.930 . S
H1713 C1728 0.960 1_565 S
H1714 C1728 0.960 . S
H1715 C1728 0.960 . S
C1716 H1708 0.929 . S
C1716 C1717 1.377 . S
C1716 C1718 1.384 . S
C1717 C1716 1.377 . S
C1717 C1723 1.390 . S
C1718 H1709 0.930 . S
C1718 C1716 1.384 . S
C1718 C1719 1.372 . S
C1719 C1718 1.372 . S
C1719 C1720 1.400 . S
C1719 C1724 1.490 . S
C1720 H1710 0.930 . S
C1720 C1719 1.400 . S
C1720 C1723 1.386 . S
H1721 C1737 0.930 . S
H1722 C1738 0.931 . S
C1723 H1711 0.929 . S
C1723 C1717 1.390 . S
C1723 C1720 1.386 . S
C1724 C1719 1.490 . S
C1724 C1726 1.395 . S
C1724 C1727 1.403 . S
H1725 C1731 0.930 . S
C1726 H1712 0.930 . S
C1726 C1724 1.395 . S
C1726 C1729 1.403 1_545 S
C1727 C1724 1.403 . S
C1727 C1728 1.524 . S
C1727 C1731 1.400 1_545 S
C1728 H1713 0.960 1_545 S
C1728 H1714 0.960 . S
C1728 H1715 0.960 . S
C1728 C1727 1.524 . S
C1729 C1726 1.403 1_565 S
C1729 C1730 1.392 . S
C1729 C1733 1.495 . S
C1730 C1729 1.392 . S
C1730 C1731 1.385 . S
C1730 C1732 1.478 . S
C1731 H1725 0.930 . S
C1731 C1727 1.400 1_565 S
C1731 C1730 1.385 . S
C1732 C1730 1.478 . S
C1732 C1734 1.381 . S
C1732 C1738 1.383 . S
C1733 C1729 1.495 . S
C1733 H1739 0.959 1_565 S
C1733 H1740 0.961 . S
C1733 H1741 0.960 . S
C1734 C1732 1.381 . S
C1734 C1735 1.394 . S
C1734 H1742 0.930 . S
C1735 C1734 1.394 . S
C1735 C1736 1.383 . S
C1735 H1743 0.929 . S
C1736 C1735 1.383 . S
C1736 C1737 1.377 . S
C1737 H1721 0.930 . S
C1737 C1736 1.377 . S
C1737 C1738 1.379 . S
C1738 H1722 0.931 . S
C1738 C1732 1.383 . S
C1738 C1737 1.379 . S
H1739 C1733 0.959 1_545 S
H1740 C1733 0.961 . S
H1741 C1733 0.960 . S
H1742 C1734 0.930 . S
H1743 C1735 0.929 . S
H1744 C1752 0.929 . S
H1745 C1754 0.930 . S
H1746 C1756 0.930 1_556 S
H1747 C1759 0.929 . S
H1748 C1762 0.930 . S
H1749 C1764 0.960 . S
H1750 C1764 0.960 . S
H1751 C1764 0.960 . S
C1752 H1744 0.929 . S
C1752 C1753 1.377 . S
C1752 C1754 1.384 . S
C1753 C1752 1.377 . S
C1753 C1759 1.390 . S
C1754 H1745 0.930 . S
C1754 C1752 1.384 . S
C1754 C1755 1.372 . S
C1755 C1754 1.372 . S
C1755 C1756 1.400 . S
C1755 C1760 1.490 . S
C1756 H1746 0.930 1_554 S
C1756 C1755 1.400 . S
C1756 C1759 1.386 . S
H1757 C1773 0.930 . S
H1758 C1774 0.931 . S
C1759 H1747 0.929 . S
C1759 C1753 1.390 . S
C1759 C1756 1.386 . S
C1760 C1755 1.490 . S
C1760 C1762 1.395 . S
C1760 C1763 1.403 . S
H1761 C1767 0.930 . S
C1762 H1748 0.930 . S
C1762 C1760 1.395 . S
C1762 C1765 1.403 1_554 S
C1763 C1760 1.403 . S
C1763 C1764 1.524 . S
C1763 C1767 1.400 1_554 S
C1764 H1749 0.960 . S
C1764 H1750 0.960 . S
C1764 H1751 0.960 . S
C1764 C1763 1.524 . S
C1765 C1762 1.403 1_556 S
C1765 C1766 1.392 . S
C1765 C1769 1.495 . S
C1766 C1765 1.392 . S
C1766 C1767 1.385 . S
C1766 C1768 1.478 . S
C1767 H1761 0.930 . S
C1767 C1763 1.400 1_556 S
C1767 C1766 1.385 . S
C1768 C1766 1.478 . S
C1768 C1770 1.381 . S
C1768 C1774 1.383 . S
C1769 C1765 1.495 . S
C1769 H1775 0.959 . S
C1769 H1776 0.961 . S
C1769 H1777 0.963 1_556 S
C1770 C1768 1.381 . S
C1770 C1771 1.394 . S
C1770 H1778 0.930 1_556 S
C1771 C1770 1.394 . S
C1771 C1772 1.383 . S
C1771 H1779 0.929 . S
C1772 C1771 1.383 . S
C1772 C1773 1.377 . S
C1773 H1757 0.930 . S
C1773 C1772 1.377 . S
C1773 C1774 1.379 . S
C1774 H1758 0.931 . S
C1774 C1768 1.383 . S
C1774 C1773 1.379 . S
H1775 C1769 0.959 . S
H1776 C1769 0.961 . S
H1777 C1769 0.963 1_554 S
H1778 C1770 0.930 1_554 S
H1779 C1771 0.929 . S
H1780 C1788 0.929 . S
H1781 C1790 0.930 . S
H1782 C1792 0.930 . S
H1783 C1795 0.929 . S
H1784 C1798 0.930 . S
H1785 C1800 0.960 1_545 S
H1786 C1800 0.960 . S
H1787 C1800 0.960 . S
C1788 H1780 0.929 . S
C1788 C1789 1.377 . S
C1788 C1790 1.384 . S
C1789 C1788 1.377 . S
C1789 C1795 1.390 . S
C1790 H1781 0.930 . S
C1790 C1788 1.384 . S
C1790 C1791 1.372 . S
C1791 C1790 1.372 . S
C1791 C1792 1.400 . S
C1791 C1796 1.490 . S
C1792 H1782 0.930 . S
C1792 C1791 1.400 . S
C1792 C1795 1.386 . S
H1793 C1809 0.930 . S
H1794 C1810 0.931 . S
C1795 H1783 0.929 . S
C1795 C1789 1.390 . S
C1795 C1792 1.386 . S
C1796 C1791 1.490 . S
C1796 C1798 1.395 . S
C1796 C1799 1.403 . S
H1797 C1803 0.930 . S
C1798 H1784 0.930 . S
C1798 C1796 1.395 . S
C1798 C1801 1.403 1_565 S
C1799 C1796 1.403 . S
C1799 C1800 1.524 . S
C1799 C1803 1.400 1_565 S
C1800 H1785 0.960 1_565 S
C1800 H1786 0.960 . S
C1800 H1787 0.960 . S
C1800 C1799 1.524 . S
C1801 C1798 1.403 1_545 S
C1801 C1802 1.392 . S
C1801 C1805 1.495 . S
C1802 C1801 1.392 . S
C1802 C1803 1.385 . S
C1802 C1804 1.478 . S
C1803 H1797 0.930 . S
C1803 C1799 1.400 1_545 S
C1803 C1802 1.385 . S
C1804 C1802 1.478 . S
C1804 C1806 1.381 . S
C1804 C1810 1.383 . S
C1805 C1801 1.495 . S
C1805 H1811 0.959 1_545 S
C1805 H1812 0.961 . S
C1805 H1813 0.960 . S
C1806 C1804 1.381 . S
C1806 C1807 1.394 . S
C1806 H1814 0.930 . S
C1807 C1806 1.394 . S
C1807 C1808 1.383 . S
C1807 H1815 0.929 . S
C1808 C1807 1.383 . S
C1808 C1809 1.377 . S
C1809 H1793 0.930 . S
C1809 C1808 1.377 . S
C1809 C1810 1.379 . S
C1810 H1794 0.931 . S
C1810 C1804 1.383 . S
C1810 C1809 1.379 . S
H1811 C1805 0.959 1_565 S
H1812 C1805 0.961 . S
H1813 C1805 0.960 . S
H1814 C1806 0.930 . S
H1815 C1807 0.929 . S
H1816 C1824 0.929 . S
H1817 C1826 0.930 . S
H1818 C1828 0.930 . S
H1819 C1831 0.929 . S
H1820 C1834 0.930 . S
H1821 C1836 0.960 . S
H1822 C1836 0.960 . S
H1823 C1836 0.960 . S
C1824 H1816 0.929 . S
C1824 C1825 1.377 . S
C1824 C1826 1.384 . S
C1825 C1824 1.377 . S
C1825 C1831 1.390 . S
C1826 H1817 0.930 . S
C1826 C1824 1.384 . S
C1826 C1827 1.372 . S
C1827 C1826 1.372 . S
C1827 C1828 1.400 . S
C1827 C1832 1.490 . S
C1828 H1818 0.930 . S
C1828 C1827 1.400 . S
C1828 C1831 1.386 . S
H1829 C1845 0.930 . S
H1830 C1846 0.931 . S
C1831 H1819 0.929 . S
C1831 C1825 1.390 . S
C1831 C1828 1.386 . S
C1832 C1827 1.490 . S
C1832 C1834 1.395 . S
C1832 C1835 1.403 . S
H1833 C1839 0.930 . S
C1834 H1820 0.930 . S
C1834 C1832 1.395 . S
C1834 C1837 1.403 . S
C1835 C1832 1.403 . S
C1835 C1836 1.524 . S
C1835 C1839 1.400 . S
C1836 H1821 0.960 . S
C1836 H1822 0.960 . S
C1836 H1823 0.960 . S
C1836 C1835 1.524 . S
C1837 C1834 1.403 . S
C1837 C1838 1.392 . S
C1837 C1841 1.495 . S
C1838 C1837 1.392 . S
C1838 C1839 1.385 . S
C1838 C1840 1.478 . S
C1839 H1833 0.930 . S
C1839 C1835 1.400 . S
C1839 C1838 1.385 . S
C1840 C1838 1.478 . S
C1840 C1842 1.381 . S
C1840 C1846 1.383 . S
C1841 C1837 1.495 . S
C1841 H1847 0.959 . S
C1841 H1848 0.961 . S
C1841 H1849 0.960 . S
C1842 C1840 1.381 . S
C1842 C1843 1.394 . S
C1842 H1850 0.930 . S
C1843 C1842 1.394 . S
C1843 C1844 1.383 . S
C1843 H1851 0.929 . S
C1844 C1843 1.383 . S
C1844 C1845 1.377 . S
C1845 H1829 0.930 . S
C1845 C1844 1.377 . S
C1845 C1846 1.379 . S
C1846 H1830 0.931 . S
C1846 C1840 1.383 . S
C1846 C1845 1.379 . S
H1847 C1841 0.959 . S
H1848 C1841 0.961 . S
H1849 C1841 0.960 . S
H1850 C1842 0.930 . S
H1851 C1843 0.929 . S
H1852 C1860 0.929 . S
H1853 C1862 0.930 . S
H1854 C1864 0.930 . S
H1855 C1867 0.929 . S
H1856 C1870 0.930 . S
H1857 C1872 0.960 1_565 S
H1858 C1872 0.960 . S
H1859 C1872 0.960 . S
C1860 H1852 0.929 . S
C1860 C1861 1.377 . S
C1860 C1862 1.384 . S
C1861 C1860 1.377 . S
C1861 C1867 1.390 . S
C1862 H1853 0.930 . S
C1862 C1860 1.384 . S
C1862 C1863 1.372 . S
C1863 C1862 1.372 . S
C1863 C1864 1.400 . S
C1863 C1868 1.490 . S
C1864 H1854 0.930 . S
C1864 C1863 1.400 . S
C1864 C1867 1.386 . S
H1865 C1881 0.930 . S
H1866 C1882 0.931 . S
C1867 H1855 0.929 . S
C1867 C1861 1.390 . S
C1867 C1864 1.386 . S
C1868 C1863 1.490 . S
C1868 C1870 1.395 . S
C1868 C1871 1.403 . S
H1869 C1875 0.930 . S
C1870 H1856 0.930 . S
C1870 C1868 1.395 . S
C1870 C1873 1.403 1_545 S
C1871 C1868 1.403 . S
C1871 C1872 1.524 . S
C1871 C1875 1.400 1_545 S
C1872 H1857 0.960 1_545 S
C1872 H1858 0.960 . S
C1872 H1859 0.960 . S
C1872 C1871 1.524 . S
C1873 C1870 1.403 1_565 S
C1873 C1874 1.392 . S
C1873 C1877 1.495 . S
C1874 C1873 1.392 . S
C1874 C1875 1.385 . S
C1874 C1876 1.478 . S
C1875 H1869 0.930 . S
C1875 C1871 1.400 1_565 S
C1875 C1874 1.385 . S
C1876 C1874 1.478 . S
C1876 C1878 1.381 . S
C1876 C1882 1.383 . S
C1877 C1873 1.495 . S
C1877 H1883 0.959 1_565 S
C1877 H1884 0.961 . S
C1877 H1885 0.960 . S
C1878 C1876 1.381 . S
C1878 C1879 1.394 . S
C1878 H1886 0.930 . S
C1879 C1878 1.394 . S
C1879 C1880 1.383 . S
C1879 H1887 0.929 . S
C1880 C1879 1.383 . S
C1880 C1881 1.377 . S
C1881 H1865 0.930 . S
C1881 C1880 1.377 . S
C1881 C1882 1.379 . S
C1882 H1866 0.931 . S
C1882 C1876 1.383 . S
C1882 C1881 1.379 . S
H1883 C1877 0.959 1_545 S
H1884 C1877 0.961 . S
H1885 C1877 0.960 . S
H1886 C1878 0.930 . S
H1887 C1879 0.929 . S
H1888 C1896 0.929 . S
H1889 C1898 0.930 . S
H1890 C1900 0.930 . S
H1891 C1903 0.929 . S
H1892 C1906 0.930 . S
H1893 C1908 0.960 . S
H1894 C1908 0.960 . S
H1895 C1908 0.960 . S
C1896 H1888 0.929 . S
C1896 C1897 1.377 . S
C1896 C1898 1.384 . S
C1897 C1896 1.377 . S
C1897 C1903 1.390 . S
C1898 H1889 0.930 . S
C1898 C1896 1.384 . S
C1898 C1899 1.372 . S
C1899 C1898 1.372 . S
C1899 C1900 1.400 . S
C1899 C1904 1.490 . S
C1900 H1890 0.930 . S
C1900 C1899 1.400 . S
C1900 C1903 1.386 . S
H1901 C1917 0.930 . S
H1902 C1918 0.931 . S
C1903 H1891 0.929 . S
C1903 C1897 1.390 . S
C1903 C1900 1.386 . S
C1904 C1899 1.490 . S
C1904 C1906 1.395 . S
C1904 C1907 1.403 . S
H1905 C1911 0.930 . S
C1906 H1892 0.930 . S
C1906 C1904 1.395 . S
C1906 C1909 1.403 . S
C1907 C1904 1.403 . S
C1907 C1908 1.524 . S
C1907 C1911 1.400 . S
C1908 H1893 0.960 . S
C1908 H1894 0.960 . S
C1908 H1895 0.960 . S
C1908 C1907 1.524 . S
C1909 C1906 1.403 . S
C1909 C1910 1.392 . S
C1909 C1913 1.495 . S
C1910 C1909 1.392 . S
C1910 C1911 1.385 . S
C1910 C1912 1.478 . S
C1911 H1905 0.930 . S
C1911 C1907 1.400 . S
C1911 C1910 1.385 . S
C1912 C1910 1.478 . S
C1912 C1914 1.381 . S
C1912 C1918 1.383 . S
C1913 C1909 1.495 . S
C1913 H1919 0.959 . S
C1913 H1920 0.961 . S
C1913 H1921 0.960 . S
C1914 C1912 1.381 . S
C1914 C1915 1.394 . S
C1914 H1922 0.930 . S
C1915 C1914 1.394 . S
C1915 C1916 1.383 . S
C1915 H1923 0.929 . S
C1916 C1915 1.383 . S
C1916 C1917 1.377 . S
C1917 H1901 0.930 . S
C1917 C1916 1.377 . S
C1917 C1918 1.379 . S
C1918 H1902 0.931 . S
C1918 C1912 1.383 . S
C1918 C1917 1.379 . S
H1919 C1913 0.959 . S
H1920 C1913 0.961 . S
H1921 C1913 0.960 . S
H1922 C1914 0.930 . S
H1923 C1915 0.929 . S
H1924 C1932 0.929 . S
H1925 C1934 0.930 . S
H1926 C1936 0.930 . S
H1927 C1939 0.929 . S
H1928 C1942 0.930 . S
H1929 C1944 0.960 . S
H1930 C1944 0.960 . S
H1931 C1944 0.960 . S
C1932 H1924 0.929 . S
C1932 C1933 1.377 . S
C1932 C1934 1.384 . S
C1933 C1932 1.377 . S
C1933 C1939 1.390 . S
C1934 H1925 0.930 . S
C1934 C1932 1.384 . S
C1934 C1935 1.372 . S
C1935 C1934 1.372 . S
C1935 C1936 1.400 . S
C1935 C1940 1.490 . S
C1936 H1926 0.930 . S
C1936 C1935 1.400 . S
C1936 C1939 1.386 . S
H1937 C1953 0.930 . S
H1938 C1954 0.931 . S
C1939 H1927 0.929 . S
C1939 C1933 1.390 . S
C1939 C1936 1.386 . S
C1940 C1935 1.490 . S
C1940 C1942 1.395 . S
C1940 C1943 1.403 . S
H1941 C1947 0.930 . S
C1942 H1928 0.930 . S
C1942 C1940 1.395 . S
C1942 C1945 1.403 . S
C1943 C1940 1.403 . S
C1943 C1944 1.524 . S
C1943 C1947 1.400 . S
C1944 H1929 0.960 . S
C1944 H1930 0.960 . S
C1944 H1931 0.960 . S
C1944 C1943 1.524 . S
C1945 C1942 1.403 . S
C1945 C1946 1.392 . S
C1945 C1949 1.495 . S
C1946 C1945 1.392 . S
C1946 C1947 1.385 . S
C1946 C1948 1.478 . S
C1947 H1941 0.930 . S
C1947 C1943 1.400 . S
C1947 C1946 1.385 . S
C1948 C1946 1.478 . S
C1948 C1950 1.381 . S
C1948 C1954 1.383 . S
C1949 C1945 1.495 . S
C1949 H1955 0.959 . S
C1949 H1956 0.961 . S
C1949 H1957 0.960 . S
C1950 C1948 1.381 . S
C1950 C1951 1.394 . S
C1950 H1958 0.930 . S
C1951 C1950 1.394 . S
C1951 C1952 1.383 . S
C1951 H1959 0.929 . S
C1952 C1951 1.383 . S
C1952 C1953 1.377 . S
C1953 H1937 0.930 . S
C1953 C1952 1.377 . S
C1953 C1954 1.379 . S
C1954 H1938 0.931 . S
C1954 C1948 1.383 . S
C1954 C1953 1.379 . S
H1955 C1949 0.959 . S
H1956 C1949 0.961 . S
H1957 C1949 0.960 . S
H1958 C1950 0.930 . S
H1959 C1951 0.929 . S
H1960 C1968 0.929 . S
H1961 C1970 0.930 . S
H1962 C1972 0.930 1_556 S
H1963 C1975 0.929 . S
H1964 C1978 0.930 . S
H1965 C1980 0.960 . S
H1966 C1980 0.960 . S
H1967 C1980 0.960 . S
C1968 H1960 0.929 . S
C1968 C1969 1.377 . S
C1968 C1970 1.384 . S
C1969 C1968 1.377 . S
C1969 C1975 1.390 . S
C1970 H1961 0.930 . S
C1970 C1968 1.384 . S
C1970 C1971 1.372 . S
C1971 C1970 1.372 . S
C1971 C1972 1.400 . S
C1971 C1976 1.490 . S
C1972 H1962 0.930 1_554 S
C1972 C1971 1.400 . S
C1972 C1975 1.386 . S
H1973 C1989 0.930 . S
H1974 C1990 0.931 . S
C1975 H1963 0.929 . S
C1975 C1969 1.390 . S
C1975 C1972 1.386 . S
C1976 C1971 1.490 . S
C1976 C1978 1.395 . S
C1976 C1979 1.403 1_554 S
H1977 C1983 0.930 . S
C1978 H1964 0.930 . S
C1978 C1976 1.395 . S
C1978 C1981 1.403 . S
C1979 C1976 1.403 1_556 S
C1979 C1980 1.524 . S
C1979 C1983 1.400 . S
C1980 H1965 0.960 . S
C1980 H1966 0.960 . S
C1980 H1967 0.960 . S
C1980 C1979 1.524 . S
C1981 C1978 1.403 . S
C1981 C1982 1.392 1_554 S
C1981 C1985 1.495 . S
C1982 C1981 1.392 1_556 S
C1982 C1983 1.385 . S
C1982 C1984 1.478 . S
C1983 H1977 0.930 . S
C1983 C1979 1.400 . S
C1983 C1982 1.385 . S
C1984 C1982 1.478 . S
C1984 C1986 1.381 . S
C1984 C1990 1.383 . S
C1985 C1981 1.495 . S
C1985 H1991 0.959 . S
C1985 H1992 0.961 . S
C1985 H1993 0.960 . S
C1986 C1984 1.381 . S
C1986 C1987 1.394 . S
C1986 H1994 0.930 1_556 S
C1987 C1986 1.394 . S
C1987 C1988 1.383 . S
C1987 H1995 0.929 . S
C1988 C1987 1.383 . S
C1988 C1989 1.377 . S
C1989 H1973 0.930 . S
C1989 C1988 1.377 . S
C1989 C1990 1.379 . S
C1990 H1974 0.931 . S
C1990 C1984 1.383 . S
C1990 C1989 1.379 . S
H1991 C1985 0.959 . S
H1992 C1985 0.961 . S
H1993 C1985 0.960 . S
H1994 C1986 0.930 1_554 S
H1995 C1987 0.929 . S
H1996 C2004 0.929 . S
H1997 C2006 0.930 . S
H1998 C2008 0.930 . S
H1999 C2011 0.929 . S
H2000 C2014 0.930 . S
H2001 C2016 0.960 . S
H2002 C2016 0.960 . S
H2003 C2016 0.960 . S
C2004 H1996 0.929 . S
C2004 C2005 1.377 . S
C2004 C2006 1.384 . S
C2005 C2004 1.377 . S
C2005 C2011 1.390 . S
C2006 H1997 0.930 . S
C2006 C2004 1.384 . S
C2006 C2007 1.372 . S
C2007 C2006 1.372 . S
C2007 C2008 1.400 . S
C2007 C2012 1.490 . S
C2008 H1998 0.930 . S
C2008 C2007 1.400 . S
C2008 C2011 1.386 . S
H2009 C2025 0.930 . S
H2010 C2026 0.931 . S
C2011 H1999 0.929 . S
C2011 C2005 1.390 . S
C2011 C2008 1.386 . S
C2012 C2007 1.490 . S
C2012 C2014 1.395 . S
C2012 C2015 1.403 . S
H2013 C2019 0.930 . S
C2014 H2000 0.930 . S
C2014 C2012 1.395 . S
C2014 C2017 1.403 . S
C2015 C2012 1.403 . S
C2015 C2016 1.524 . S
C2015 C2019 1.400 . S
C2016 H2001 0.960 . S
C2016 H2002 0.960 . S
C2016 H2003 0.960 . S
C2016 C2015 1.524 . S
C2017 C2014 1.403 . S
C2017 C2018 1.392 . S
C2017 C2021 1.495 . S
C2018 C2017 1.392 . S
C2018 C2019 1.385 . S
C2018 C2020 1.478 . S
C2019 H2013 0.930 . S
C2019 C2015 1.400 . S
C2019 C2018 1.385 . S
C2020 C2018 1.478 . S
C2020 C2022 1.381 . S
C2020 C2026 1.383 . S
C2021 C2017 1.495 . S
C2021 H2027 0.959 . S
C2021 H2028 0.961 . S
C2021 H2029 0.960 . S
C2022 C2020 1.381 . S
C2022 C2023 1.394 . S
C2022 H2030 0.930 . S
C2023 C2022 1.394 . S
C2023 C2024 1.383 . S
C2023 H2031 0.929 . S
C2024 C2023 1.383 . S
C2024 C2025 1.377 . S
C2025 H2009 0.930 . S
C2025 C2024 1.377 . S
C2025 C2026 1.379 . S
C2026 H2010 0.931 . S
C2026 C2020 1.383 . S
C2026 C2025 1.379 . S
H2027 C2021 0.959 . S
H2028 C2021 0.961 . S
H2029 C2021 0.960 . S
H2030 C2022 0.930 . S
H2031 C2023 0.929 . S
H2032 C2040 0.929 . S
H2033 C2042 0.930 . S
H2034 C2044 0.930 . S
H2035 C2047 0.929 . S
H2036 C2050 0.930 . S
H2037 C2052 0.960 . S
H2038 C2052 0.960 . S
H2039 C2052 0.960 . S
C2040 H2032 0.929 . S
C2040 C2041 1.377 . S
C2040 C2042 1.384 . S
C2041 C2040 1.377 . S
C2041 C2047 1.390 . S
C2042 H2033 0.930 . S
C2042 C2040 1.384 . S
C2042 C2043 1.372 . S
C2043 C2042 1.372 . S
C2043 C2044 1.400 . S
C2043 C2048 1.490 . S
C2044 H2034 0.930 . S
C2044 C2043 1.400 . S
C2044 C2047 1.386 . S
H2045 C2061 0.930 . S
H2046 C2062 0.931 . S
C2047 H2035 0.929 . S
C2047 C2041 1.390 . S
C2047 C2044 1.386 . S
C2048 C2043 1.490 . S
C2048 C2050 1.395 . S
C2048 C2051 1.403 . S
H2049 C2055 0.930 . S
C2050 H2036 0.930 . S
C2050 C2048 1.395 . S
C2050 C2053 1.403 . S
C2051 C2048 1.403 . S
C2051 C2052 1.524 . S
C2051 C2055 1.400 . S
C2052 H2037 0.960 . S
C2052 H2038 0.960 . S
C2052 H2039 0.960 . S
C2052 C2051 1.524 . S
C2053 C2050 1.403 . S
C2053 C2054 1.392 . S
C2053 C2057 1.495 . S
C2054 C2053 1.392 . S
C2054 C2055 1.385 . S
C2054 C2056 1.478 . S
C2055 H2049 0.930 . S
C2055 C2051 1.400 . S
C2055 C2054 1.385 . S
C2056 C2054 1.478 . S
C2056 C2058 1.381 . S
C2056 C2062 1.383 . S
C2057 C2053 1.495 . S
C2057 H2063 0.959 . S
C2057 H2064 0.961 . S
C2057 H2065 0.960 . S
C2058 C2056 1.381 . S
C2058 C2059 1.394 . S
C2058 H2066 0.930 . S
C2059 C2058 1.394 . S
C2059 C2060 1.383 . S
C2059 H2067 0.929 . S
C2060 C2059 1.383 . S
C2060 C2061 1.377 . S
C2061 H2045 0.930 . S
C2061 C2060 1.377 . S
C2061 C2062 1.379 . S
C2062 H2046 0.931 . S
C2062 C2056 1.383 . S
C2062 C2061 1.379 . S
H2063 C2057 0.959 . S
H2064 C2057 0.961 . S
H2065 C2057 0.960 . S
H2066 C2058 0.930 . S
H2067 C2059 0.929 . S
H2068 C2076 0.929 . S
H2069 C2078 0.930 . S
H2070 C2080 0.930 . S
H2071 C2083 0.929 . S
H2072 C2086 0.930 . S
H2073 C2088 0.960 . S
H2074 C2088 0.960 . S
H2075 C2088 0.960 . S
C2076 H2068 0.929 . S
C2076 C2077 1.377 . S
C2076 C2078 1.384 . S
C2077 C2076 1.377 . S
C2077 C2083 1.390 . S
C2078 H2069 0.930 . S
C2078 C2076 1.384 . S
C2078 C2079 1.372 . S
C2079 C2078 1.372 . S
C2079 C2080 1.400 . S
C2079 C2084 1.490 . S
C2080 H2070 0.930 . S
C2080 C2079 1.400 . S
C2080 C2083 1.386 . S
H2081 C2097 0.930 . S
H2082 C2098 0.931 . S
C2083 H2071 0.929 . S
C2083 C2077 1.390 . S
C2083 C2080 1.386 . S
C2084 C2079 1.490 . S
C2084 C2086 1.395 . S
C2084 C2087 1.403 . S
H2085 C2091 0.930 . S
C2086 H2072 0.930 . S
C2086 C2084 1.395 . S
C2086 C2089 1.403 . S
C2087 C2084 1.403 . S
C2087 C2088 1.524 . S
C2087 C2091 1.400 . S
C2088 H2073 0.960 . S
C2088 H2074 0.960 . S
C2088 H2075 0.960 . S
C2088 C2087 1.524 . S
C2089 C2086 1.403 . S
C2089 C2090 1.392 . S
C2089 C2093 1.495 . S
C2090 C2089 1.392 . S
C2090 C2091 1.385 . S
C2090 C2092 1.478 . S
C2091 H2085 0.930 . S
C2091 C2087 1.400 . S
C2091 C2090 1.385 . S
C2092 C2090 1.478 . S
C2092 C2094 1.381 . S
C2092 C2098 1.383 . S
C2093 C2089 1.495 . S
C2093 H2099 0.959 . S
C2093 H2100 0.961 . S
C2093 H2101 0.960 . S
C2094 C2092 1.381 . S
C2094 C2095 1.394 . S
C2094 H2102 0.930 . S
C2095 C2094 1.394 . S
C2095 C2096 1.383 . S
C2095 H2103 0.929 . S
C2096 C2095 1.383 . S
C2096 C2097 1.377 . S
C2097 H2081 0.930 . S
C2097 C2096 1.377 . S
C2097 C2098 1.379 . S
C2098 H2082 0.931 . S
C2098 C2092 1.383 . S
C2098 C2097 1.379 . S
H2099 C2093 0.959 . S
H2100 C2093 0.961 . S
H2101 C2093 0.960 . S
H2102 C2094 0.930 . S
H2103 C2095 0.929 . S
H2104 C2112 0.929 . S
H2105 C2114 0.930 . S
H2106 C2116 0.857 1_554 S
H2107 C2119 0.929 1_554 S
H2108 C2122 0.930 . S
H2109 C2124 0.960 . S
H2110 C2124 0.915 1_556 S
H2111 C2124 0.960 . S
C2112 H2104 0.929 . S
C2112 C2113 1.377 . S
C2112 C2114 1.384 . S
C2113 C2112 1.377 . S
C2113 C2119 1.390 . S
C2114 H2105 0.930 . S
C2114 C2112 1.384 . S
C2114 C2115 1.372 . S
C2115 C2114 1.372 . S
C2115 C2116 1.450 . S
C2115 C2120 1.490 . S
C2116 H2106 0.857 1_556 S
C2116 C2115 1.450 . S
C2116 C2119 1.410 . S
H2117 C2133 0.930 . S
H2118 C2134 0.931 . S
C2119 H2107 0.929 1_556 S
C2119 C2113 1.390 . S
C2119 C2116 1.410 . S
C2120 C2115 1.490 . S
C2120 C2122 1.395 . S
C2120 C2123 1.403 1_556 S
H2121 C2127 0.930 . S
C2122 H2108 0.930 . S
C2122 C2120 1.395 . S
C2122 C2125 1.403 . S
C2123 C2120 1.403 1_554 S
C2123 C2124 1.524 . S
C2123 C2127 1.400 . S
C2124 H2109 0.960 . S
C2124 H2110 0.915 1_554 S
C2124 H2111 0.960 . S
C2124 C2123 1.524 . S
C2125 C2122 1.403 . S
C2125 C2126 1.392 1_556 S
C2125 C2129 1.495 . S
C2126 C2125 1.392 1_554 S
C2126 C2127 1.385 . S
C2126 C2128 1.478 . S
C2127 H2121 0.930 . S
C2127 C2123 1.400 . S
C2127 C2126 1.385 . S
C2128 C2126 1.478 . S
C2128 C2130 1.364 1_554 S
C2128 C2134 1.383 . S
C2129 C2125 1.495 . S
C2129 H2135 0.959 . S
C2129 H2136 0.961 . S
C2129 H2137 0.960 . S
C2130 C2128 1.364 1_556 S
C2130 C2131 1.384 1_556 S
C2130 H2138 0.958 . S
C2131 C2130 1.384 1_554 S
C2131 C2132 1.383 . S
C2131 H2139 0.929 1_554 S
C2132 C2131 1.383 . S
C2132 C2133 1.377 . S
C2133 H2117 0.930 . S
C2133 C2132 1.377 . S
C2133 C2134 1.379 . S
C2134 H2118 0.931 . S
C2134 C2128 1.383 . S
C2134 C2133 1.379 . S
H2135 C2129 0.959 . S
H2136 C2129 0.961 . S
H2137 C2129 0.960 . S
H2138 C2130 0.958 . S
H2139 C2131 0.929 1_556 S
H2140 C2148 0.929 . S
H2141 C2150 0.930 . S
H2142 C2152 0.930 . S
H2143 C2155 0.929 . S
H2144 C2158 0.930 . S
H2145 C2160 0.960 . S
H2146 C2160 0.960 . S
H2147 C2160 0.960 . S
C2148 H2140 0.929 . S
C2148 C2149 1.377 . S
C2148 C2150 1.384 . S
C2149 C2148 1.377 . S
C2149 C2155 1.390 . S
C2150 H2141 0.930 . S
C2150 C2148 1.384 . S
C2150 C2151 1.372 . S
C2151 C2150 1.372 . S
C2151 C2152 1.400 . S
C2151 C2156 1.490 . S
C2152 H2142 0.930 . S
C2152 C2151 1.400 . S
C2152 C2155 1.386 . S
H2153 C2169 0.930 . S
H2154 C2170 0.931 . S
C2155 H2143 0.929 . S
C2155 C2149 1.390 . S
C2155 C2152 1.386 . S
C2156 C2151 1.490 . S
C2156 C2158 1.395 . S
C2156 C2159 1.403 . S
H2157 C2163 0.930 . S
C2158 H2144 0.930 . S
C2158 C2156 1.395 . S
C2158 C2161 1.403 . S
C2159 C2156 1.403 . S
C2159 C2160 1.524 . S
C2159 C2163 1.400 . S
C2160 H2145 0.960 . S
C2160 H2146 0.960 . S
C2160 H2147 0.960 . S
C2160 C2159 1.524 . S
C2161 C2158 1.403 . S
C2161 C2162 1.392 . S
C2161 C2165 1.495 . S
C2162 C2161 1.392 . S
C2162 C2163 1.385 . S
C2162 C2164 1.478 . S
C2163 H2157 0.930 . S
C2163 C2159 1.400 . S
C2163 C2162 1.385 . S
C2164 C2162 1.478 . S
C2164 C2166 1.381 . S
C2164 C2170 1.383 . S
C2165 C2161 1.495 . S
C2165 H2171 0.959 . S
C2165 H2172 0.961 . S
C2165 H2173 0.960 . S
C2166 C2164 1.381 . S
C2166 C2167 1.394 . S
C2166 H2174 0.930 . S
C2167 C2166 1.394 . S
C2167 C2168 1.383 . S
C2167 H2175 0.929 . S
C2168 C2167 1.383 . S
C2168 C2169 1.377 . S
C2169 H2153 0.930 . S
C2169 C2168 1.377 . S
C2169 C2170 1.379 . S
C2170 H2154 0.931 . S
C2170 C2164 1.383 . S
C2170 C2169 1.379 . S
H2171 C2165 0.959 . S
H2172 C2165 0.961 . S
H2173 C2165 0.960 . S
H2174 C2166 0.930 . S
H2175 C2167 0.929 . S
H2176 C2184 0.929 . S
H2177 C2186 0.930 . S
H2178 C2188 0.930 . S
H2179 C2191 0.929 . S
H2180 C2194 0.930 . S
H2181 C2196 0.960 . S
H2182 C2196 0.960 . S
H2183 C2196 0.960 . S
C2184 H2176 0.929 . S
C2184 C2185 1.377 . S
C2184 C2186 1.384 . S
C2185 C2184 1.377 . S
C2185 C2191 1.390 . S
C2186 H2177 0.930 . S
C2186 C2184 1.384 . S
C2186 C2187 1.372 . S
C2187 C2186 1.372 . S
C2187 C2188 1.400 . S
C2187 C2192 1.490 . S
C2188 H2178 0.930 . S
C2188 C2187 1.400 . S
C2188 C2191 1.386 . S
H2189 C2205 0.930 . S
H2190 C2206 0.931 . S
C2191 H2179 0.929 . S
C2191 C2185 1.390 . S
C2191 C2188 1.386 . S
C2192 C2187 1.490 . S
C2192 C2194 1.395 . S
C2192 C2195 1.403 . S
H2193 C2199 0.930 . S
C2194 H2180 0.930 . S
C2194 C2192 1.395 . S
C2194 C2197 1.403 . S
C2195 C2192 1.403 . S
C2195 C2196 1.524 . S
C2195 C2199 1.400 . S
C2196 H2181 0.960 . S
C2196 H2182 0.960 . S
C2196 H2183 0.960 . S
C2196 C2195 1.524 . S
C2197 C2194 1.403 . S
C2197 C2198 1.392 . S
C2197 C2201 1.495 . S
C2198 C2197 1.392 . S
C2198 C2199 1.385 . S
C2198 C2200 1.478 . S
C2199 H2193 0.930 . S
C2199 C2195 1.400 . S
C2199 C2198 1.385 . S
C2200 C2198 1.478 . S
C2200 C2202 1.381 . S
C2200 C2206 1.383 . S
C2201 C2197 1.495 . S
C2201 H2207 0.959 . S
C2201 H2208 0.961 . S
C2201 H2209 0.960 . S
C2202 C2200 1.381 . S
C2202 C2203 1.394 . S
C2202 H2210 0.930 . S
C2203 C2202 1.394 . S
C2203 C2204 1.383 . S
C2203 H2211 0.929 . S
C2204 C2203 1.383 . S
C2204 C2205 1.377 . S
C2205 H2189 0.930 . S
C2205 C2204 1.377 . S
C2205 C2206 1.379 . S
C2206 H2190 0.931 . S
C2206 C2200 1.383 . S
C2206 C2205 1.379 . S
H2207 C2201 0.959 . S
H2208 C2201 0.961 . S
H2209 C2201 0.960 . S
H2210 C2202 0.930 . S
H2211 C2203 0.929 . S
H2212 C2220 0.929 . S
H2213 C2222 0.930 . S
H2214 C2224 0.930 . S
H2215 C2227 0.929 . S
H2216 C2230 0.930 . S
H2217 C2232 0.960 . S
H2218 C2232 0.960 . S
H2219 C2232 0.960 . S
C2220 H2212 0.929 . S
C2220 C2221 1.377 . S
C2220 C2222 1.384 . S
C2221 C2220 1.377 . S
C2221 C2227 1.390 . S
C2222 H2213 0.930 . S
C2222 C2220 1.384 . S
C2222 C2223 1.372 . S
C2223 C2222 1.372 . S
C2223 C2224 1.400 . S
C2223 C2228 1.490 . S
C2224 H2214 0.930 . S
C2224 C2223 1.400 . S
C2224 C2227 1.386 . S
H2225 C2241 0.930 . S
H2226 C2242 0.931 . S
C2227 H2215 0.929 . S
C2227 C2221 1.390 . S
C2227 C2224 1.386 . S
C2228 C2223 1.490 . S
C2228 C2230 1.395 . S
C2228 C2231 1.403 . S
H2229 C2235 0.930 . S
C2230 H2216 0.930 . S
C2230 C2228 1.395 . S
C2230 C2233 1.403 . S
C2231 C2228 1.403 . S
C2231 C2232 1.524 . S
C2231 C2235 1.400 . S
C2232 H2217 0.960 . S
C2232 H2218 0.960 . S
C2232 H2219 0.960 . S
C2232 C2231 1.524 . S
C2233 C2230 1.403 . S
C2233 C2234 1.392 . S
C2233 C2237 1.495 . S
C2234 C2233 1.392 . S
C2234 C2235 1.385 . S
C2234 C2236 1.478 . S
C2235 H2229 0.930 . S
C2235 C2231 1.400 . S
C2235 C2234 1.385 . S
C2236 C2234 1.478 . S
C2236 C2238 1.381 . S
C2236 C2242 1.383 . S
C2237 C2233 1.495 . S
C2237 H2243 0.959 . S
C2237 H2244 0.961 . S
C2237 H2245 0.960 . S
C2238 C2236 1.381 . S
C2238 C2239 1.394 . S
C2238 H2246 0.930 . S
C2239 C2238 1.394 . S
C2239 C2240 1.383 . S
C2239 H2247 0.929 . S
C2240 C2239 1.383 . S
C2240 C2241 1.377 . S
C2241 H2225 0.930 . S
C2241 C2240 1.377 . S
C2241 C2242 1.379 . S
C2242 H2226 0.931 . S
C2242 C2236 1.383 . S
C2242 C2241 1.379 . S
H2243 C2237 0.959 . S
H2244 C2237 0.961 . S
H2245 C2237 0.960 . S
H2246 C2238 0.930 . S
H2247 C2239 0.929 . S
H2248 C2256 0.929 . S
H2249 C2258 0.930 . S
H2250 C2260 0.930 . S
H2251 C2263 0.929 . S
H2252 C2266 0.930 . S
H2253 C2268 0.960 . S
H2254 C2268 0.960 . S
H2255 C2268 0.960 . S
C2256 H2248 0.929 . S
C2256 C2257 1.377 . S
C2256 C2258 1.384 . S
C2257 C2256 1.377 . S
C2257 C2263 1.390 . S
C2258 H2249 0.930 . S
C2258 C2256 1.384 . S
C2258 C2259 1.372 . S
C2259 C2258 1.372 . S
C2259 C2260 1.400 . S
C2259 C2264 1.490 . S
C2260 H2250 0.930 . S
C2260 C2259 1.400 . S
C2260 C2263 1.386 . S
H2261 C2277 0.930 . S
H2262 C2278 0.931 . S
C2263 H2251 0.929 . S
C2263 C2257 1.390 . S
C2263 C2260 1.386 . S
C2264 C2259 1.490 . S
C2264 C2266 1.395 . S
C2264 C2267 1.403 . S
H2265 C2271 0.930 . S
C2266 H2252 0.930 . S
C2266 C2264 1.395 . S
C2266 C2269 1.403 . S
C2267 C2264 1.403 . S
C2267 C2268 1.524 . S
C2267 C2271 1.400 . S
C2268 H2253 0.960 . S
C2268 H2254 0.960 . S
C2268 H2255 0.960 . S
C2268 C2267 1.524 . S
C2269 C2266 1.403 . S
C2269 C2270 1.392 . S
C2269 C2273 1.495 . S
C2270 C2269 1.392 . S
C2270 C2271 1.385 . S
C2270 C2272 1.478 . S
C2271 H2265 0.930 . S
C2271 C2267 1.400 . S
C2271 C2270 1.385 . S
C2272 C2270 1.478 . S
C2272 C2274 1.381 . S
C2272 C2278 1.383 . S
C2273 C2269 1.495 . S
C2273 H2279 0.959 . S
C2273 H2280 0.961 . S
C2273 H2281 0.960 . S
C2274 C2272 1.381 . S
C2274 C2275 1.394 . S
C2274 H2282 0.930 . S
C2275 C2274 1.394 . S
C2275 C2276 1.383 . S
C2275 H2283 0.929 . S
C2276 C2275 1.383 . S
C2276 C2277 1.377 . S
C2277 H2261 0.930 . S
C2277 C2276 1.377 . S
C2277 C2278 1.379 . S
C2278 H2262 0.931 . S
C2278 C2272 1.383 . S
C2278 C2277 1.379 . S
H2279 C2273 0.959 . S
H2280 C2273 0.961 . S
H2281 C2273 0.960 . S
H2282 C2274 0.930 . S
H2283 C2275 0.929 . S
H2284 C2292 0.929 . S
H2285 C2294 0.930 . S
H2286 C2296 0.930 . S
H2287 C2299 0.929 . S
H2288 C2302 0.930 . S
H2289 C2304 0.960 . S
H2290 C2304 0.960 . S
H2291 C2304 0.960 . S
C2292 H2284 0.929 . S
C2292 C2293 1.377 . S
C2292 C2294 1.384 . S
C2293 C2292 1.377 . S
C2293 C2299 1.390 . S
C2294 H2285 0.930 . S
C2294 C2292 1.384 . S
C2294 C2295 1.372 . S
C2295 C2294 1.372 . S
C2295 C2296 1.400 . S
C2295 C2300 1.490 . S
C2296 H2286 0.930 . S
C2296 C2295 1.400 . S
C2296 C2299 1.386 . S
H2297 C2313 0.930 . S
H2298 C2314 0.931 . S
C2299 H2287 0.929 . S
C2299 C2293 1.390 . S
C2299 C2296 1.386 . S
C2300 C2295 1.490 . S
C2300 C2302 1.395 . S
C2300 C2303 1.403 . S
H2301 C2307 0.930 . S
C2302 H2288 0.930 . S
C2302 C2300 1.395 . S
C2302 C2305 1.403 . S
C2303 C2300 1.403 . S
C2303 C2304 1.524 . S
C2303 C2307 1.400 . S
C2304 H2289 0.960 . S
C2304 H2290 0.960 . S
C2304 H2291 0.960 . S
C2304 C2303 1.524 . S
C2305 C2302 1.403 . S
C2305 C2306 1.392 . S
C2305 C2309 1.495 . S
C2306 C2305 1.392 . S
C2306 C2307 1.385 . S
C2306 C2308 1.478 . S
C2307 H2301 0.930 . S
C2307 C2303 1.400 . S
C2307 C2306 1.385 . S
C2308 C2306 1.478 . S
C2308 C2310 1.381 . S
C2308 C2314 1.383 . S
C2309 C2305 1.495 . S
C2309 H2315 0.959 . S
C2309 H2316 0.961 . S
C2309 H2317 0.960 . S
C2310 C2308 1.381 . S
C2310 C2311 1.394 . S
C2310 H2318 0.930 . S
C2311 C2310 1.394 . S
C2311 C2312 1.383 . S
C2311 H2319 0.929 . S
C2312 C2311 1.383 . S
C2312 C2313 1.377 . S
C2313 H2297 0.930 . S
C2313 C2312 1.377 . S
C2313 C2314 1.379 . S
C2314 H2298 0.931 . S
C2314 C2308 1.383 . S
C2314 C2313 1.379 . S
H2315 C2309 0.959 . S
H2316 C2309 0.961 . S
H2317 C2309 0.960 . S
H2318 C2310 0.930 . S
H2319 C2311 0.929 . S
H2320 C2328 0.929 . S
H2321 C2330 0.930 . S
H2322 C2332 0.930 . S
H2323 C2335 0.929 . S
H2324 C2338 0.930 . S
H2325 C2340 0.960 . S
H2326 C2340 0.960 . S
H2327 C2340 0.960 . S
C2328 H2320 0.929 . S
C2328 C2329 1.377 . S
C2328 C2330 1.384 . S
C2329 C2328 1.377 . S
C2329 C2335 1.390 . S
C2330 H2321 0.930 . S
C2330 C2328 1.384 . S
C2330 C2331 1.372 . S
C2331 C2330 1.372 . S
C2331 C2332 1.400 . S
C2331 C2336 1.490 . S
C2332 H2322 0.930 . S
C2332 C2331 1.400 . S
C2332 C2335 1.386 . S
H2333 C2349 0.930 . S
H2334 C2350 0.931 . S
C2335 H2323 0.929 . S
C2335 C2329 1.390 . S
C2335 C2332 1.386 . S
C2336 C2331 1.490 . S
C2336 C2338 1.395 . S
C2336 C2339 1.403 . S
H2337 C2343 0.930 . S
C2338 H2324 0.930 . S
C2338 C2336 1.395 . S
C2338 C2341 1.403 . S
C2339 C2336 1.403 . S
C2339 C2340 1.524 . S
C2339 C2343 1.400 . S
C2340 H2325 0.960 . S
C2340 H2326 0.960 . S
C2340 H2327 0.960 . S
C2340 C2339 1.524 . S
C2341 C2338 1.403 . S
C2341 C2342 1.392 . S
C2341 C2345 1.495 . S
C2342 C2341 1.392 . S
C2342 C2343 1.385 . S
C2342 C2344 1.478 . S
C2343 H2337 0.930 . S
C2343 C2339 1.400 . S
C2343 C2342 1.385 . S
C2344 C2342 1.478 . S
C2344 C2346 1.381 . S
C2344 C2350 1.383 . S
C2345 C2341 1.495 . S
C2345 H2351 0.959 . S
C2345 H2352 0.961 . S
C2345 H2353 0.960 . S
C2346 C2344 1.381 . S
C2346 C2347 1.394 . S
C2346 H2354 0.930 . S
C2347 C2346 1.394 . S
C2347 C2348 1.383 . S
C2347 H2355 0.929 . S
C2348 C2347 1.383 . S
C2348 C2349 1.377 . S
C2349 H2333 0.930 . S
C2349 C2348 1.377 . S
C2349 C2350 1.379 . S
C2350 H2334 0.931 . S
C2350 C2344 1.383 . S
C2350 C2349 1.379 . S
H2351 C2345 0.959 . S
H2352 C2345 0.961 . S
H2353 C2345 0.960 . S
H2354 C2346 0.930 . S
H2355 C2347 0.929 . S
H2356 C2364 0.929 . S
H2357 C2366 0.930 . S
H2358 C2368 0.930 . S
H2359 C2371 0.929 . S
H2360 C2374 0.930 . S
H2361 C2376 0.960 . S
H2362 C2376 0.960 . S
H2363 C2376 0.960 . S
C2364 H2356 0.929 . S
C2364 C2365 1.377 . S
C2364 C2366 1.384 . S
C2365 C2364 1.377 . S
C2365 C2371 1.390 . S
C2366 H2357 0.930 . S
C2366 C2364 1.384 . S
C2366 C2367 1.372 . S
C2367 C2366 1.372 . S
C2367 C2368 1.400 . S
C2367 C2372 1.490 . S
C2368 H2358 0.930 . S
C2368 C2367 1.400 . S
C2368 C2371 1.386 . S
H2369 C2385 0.930 . S
H2370 C2386 0.931 . S
C2371 H2359 0.929 . S
C2371 C2365 1.390 . S
C2371 C2368 1.386 . S
C2372 C2367 1.490 . S
C2372 C2374 1.395 . S
C2372 C2375 1.403 . S
H2373 C2379 0.930 . S
C2374 H2360 0.930 . S
C2374 C2372 1.395 . S
C2374 C2377 1.403 . S
C2375 C2372 1.403 . S
C2375 C2376 1.524 . S
C2375 C2379 1.400 . S
C2376 H2361 0.960 . S
C2376 H2362 0.960 . S
C2376 H2363 0.960 . S
C2376 C2375 1.524 . S
C2377 C2374 1.403 . S
C2377 C2378 1.392 . S
C2377 C2381 1.495 . S
C2378 C2377 1.392 . S
C2378 C2379 1.385 . S
C2378 C2380 1.478 . S
C2379 H2373 0.930 . S
C2379 C2375 1.400 . S
C2379 C2378 1.385 . S
C2380 C2378 1.478 . S
C2380 C2382 1.381 . S
C2380 C2386 1.383 . S
C2381 C2377 1.495 . S
C2381 H2387 0.959 . S
C2381 H2388 0.961 . S
C2381 H2389 0.960 . S
C2382 C2380 1.381 . S
C2382 C2383 1.394 . S
C2382 H2390 0.930 . S
C2383 C2382 1.394 . S
C2383 C2384 1.383 . S
C2383 H2391 0.929 . S
C2384 C2383 1.383 . S
C2384 C2385 1.377 . S
C2385 H2369 0.930 . S
C2385 C2384 1.377 . S
C2385 C2386 1.379 . S
C2386 H2370 0.931 . S
C2386 C2380 1.383 . S
C2386 C2385 1.379 . S
H2387 C2381 0.959 . S
H2388 C2381 0.961 . S
H2389 C2381 0.960 . S
H2390 C2382 0.930 . S
H2391 C2383 0.929 . S
H2392 C2400 0.929 . S
H2393 C2402 0.930 . S
H2394 C2404 0.930 . S
H2395 C2407 0.929 . S
H2396 C2410 0.930 . S
H2397 C2412 0.960 . S
H2398 C2412 0.960 . S
H2399 C2412 0.960 . S
C2400 H2392 0.929 . S
C2400 C2401 1.377 . S
C2400 C2402 1.384 . S
C2401 C2400 1.377 . S
C2401 C2407 1.390 . S
C2402 H2393 0.930 . S
C2402 C2400 1.384 . S
C2402 C2403 1.372 . S
C2403 C2402 1.372 . S
C2403 C2404 1.400 . S
C2403 C2408 1.490 . S
C2404 H2394 0.930 . S
C2404 C2403 1.400 . S
C2404 C2407 1.386 . S
H2405 C2421 0.930 . S
H2406 C2422 0.931 . S
C2407 H2395 0.929 . S
C2407 C2401 1.390 . S
C2407 C2404 1.386 . S
C2408 C2403 1.490 . S
C2408 C2410 1.395 . S
C2408 C2411 1.403 . S
H2409 C2415 0.930 . S
C2410 H2396 0.930 . S
C2410 C2408 1.395 . S
C2410 C2413 1.403 . S
C2411 C2408 1.403 . S
C2411 C2412 1.524 . S
C2411 C2415 1.400 . S
C2412 H2397 0.960 . S
C2412 H2398 0.960 . S
C2412 H2399 0.960 . S
C2412 C2411 1.524 . S
C2413 C2410 1.403 . S
C2413 C2414 1.392 . S
C2413 C2417 1.495 . S
C2414 C2413 1.392 . S
C2414 C2415 1.385 . S
C2414 C2416 1.478 . S
C2415 H2409 0.930 . S
C2415 C2411 1.400 . S
C2415 C2414 1.385 . S
C2416 C2414 1.478 . S
C2416 C2418 1.381 . S
C2416 C2422 1.383 . S
C2417 C2413 1.495 . S
C2417 H2423 0.959 . S
C2417 H2424 0.961 . S
C2417 H2425 0.960 . S
C2418 C2416 1.381 . S
C2418 C2419 1.394 . S
C2418 H2426 0.930 . S
C2419 C2418 1.394 . S
C2419 C2420 1.383 . S
C2419 H2427 0.929 . S
C2420 C2419 1.383 . S
C2420 C2421 1.377 . S
C2421 H2405 0.930 . S
C2421 C2420 1.377 . S
C2421 C2422 1.379 . S
C2422 H2406 0.931 . S
C2422 C2416 1.383 . S
C2422 C2421 1.379 . S
H2423 C2417 0.959 . S
H2424 C2417 0.961 . S
H2425 C2417 0.960 . S
H2426 C2418 0.930 . S
H2427 C2419 0.929 . S
H2428 C2436 0.929 . S
H2429 C2438 0.930 . S
H2430 C2440 0.930 . S
H2431 C2443 0.929 . S
H2432 C2446 0.930 . S
H2433 C2448 0.960 . S
H2434 C2448 0.960 . S
H2435 C2448 0.960 . S
C2436 H2428 0.929 . S
C2436 C2437 1.377 . S
C2436 C2438 1.384 . S
C2437 C2436 1.377 . S
C2437 C2443 1.390 . S
C2438 H2429 0.930 . S
C2438 C2436 1.384 . S
C2438 C2439 1.372 . S
C2439 C2438 1.372 . S
C2439 C2440 1.400 . S
C2439 C2444 1.490 . S
C2440 H2430 0.930 . S
C2440 C2439 1.400 . S
C2440 C2443 1.386 . S
H2441 C2457 0.930 . S
H2442 C2458 0.931 . S
C2443 H2431 0.929 . S
C2443 C2437 1.390 . S
C2443 C2440 1.386 . S
C2444 C2439 1.490 . S
C2444 C2446 1.395 . S
C2444 C2447 1.403 . S
H2445 C2451 0.930 . S
C2446 H2432 0.930 . S
C2446 C2444 1.395 . S
C2446 C2449 1.403 . S
C2447 C2444 1.403 . S
C2447 C2448 1.524 . S
C2447 C2451 1.400 . S
C2448 H2433 0.960 . S
C2448 H2434 0.960 . S
C2448 H2435 0.960 . S
C2448 C2447 1.524 . S
C2449 C2446 1.403 . S
C2449 C2450 1.392 . S
C2449 C2453 1.495 . S
C2450 C2449 1.392 . S
C2450 C2451 1.385 . S
C2450 C2452 1.478 . S
C2451 H2445 0.930 . S
C2451 C2447 1.400 . S
C2451 C2450 1.385 . S
C2452 C2450 1.478 . S
C2452 C2454 1.381 . S
C2452 C2458 1.383 . S
C2453 C2449 1.495 . S
C2453 H2459 0.959 . S
C2453 H2460 0.961 . S
C2453 H2461 0.960 . S
C2454 C2452 1.381 . S
C2454 C2455 1.394 . S
C2454 H2462 0.930 . S
C2455 C2454 1.394 . S
C2455 C2456 1.383 . S
C2455 H2463 0.929 . S
C2456 C2455 1.383 . S
C2456 C2457 1.377 . S
C2457 H2441 0.930 . S
C2457 C2456 1.377 . S
C2457 C2458 1.379 . S
C2458 H2442 0.931 . S
C2458 C2452 1.383 . S
C2458 C2457 1.379 . S
H2459 C2453 0.959 . S
H2460 C2453 0.961 . S
H2461 C2453 0.960 . S
H2462 C2454 0.930 . S
H2463 C2455 0.929 . S
H2464 C2472 0.929 . S
H2465 C2474 0.930 . S
H2466 C2476 0.930 . S
H2467 C2479 0.929 . S
H2468 C2482 0.930 . S
H2469 C2484 0.960 . S
H2470 C2484 0.960 . S
H2471 C2484 0.960 . S
C2472 H2464 0.929 . S
C2472 C2473 1.377 . S
C2472 C2474 1.384 . S
C2473 C2472 1.377 . S
C2473 C2479 1.390 . S
C2474 H2465 0.930 . S
C2474 C2472 1.384 . S
C2474 C2475 1.372 . S
C2475 C2474 1.372 . S
C2475 C2476 1.400 . S
C2475 C2480 1.490 . S
C2476 H2466 0.930 . S
C2476 C2475 1.400 . S
C2476 C2479 1.386 . S
H2477 C2493 0.930 . S
H2478 C2494 0.931 . S
C2479 H2467 0.929 . S
C2479 C2473 1.390 . S
C2479 C2476 1.386 . S
C2480 C2475 1.490 . S
C2480 C2482 1.395 . S
C2480 C2483 1.403 . S
H2481 C2487 0.930 . S
C2482 H2468 0.930 . S
C2482 C2480 1.395 . S
C2482 C2485 1.403 . S
C2483 C2480 1.403 . S
C2483 C2484 1.524 . S
C2483 C2487 1.400 . S
C2484 H2469 0.960 . S
C2484 H2470 0.960 . S
C2484 H2471 0.960 . S
C2484 C2483 1.524 . S
C2485 C2482 1.403 . S
C2485 C2486 1.392 . S
C2485 C2489 1.495 . S
C2486 C2485 1.392 . S
C2486 C2487 1.385 . S
C2486 C2488 1.478 . S
C2487 H2481 0.930 . S
C2487 C2483 1.400 . S
C2487 C2486 1.385 . S
C2488 C2486 1.478 . S
C2488 C2490 1.381 . S
C2488 C2494 1.383 . S
C2489 C2485 1.495 . S
C2489 H2495 0.959 . S
C2489 H2496 0.961 . S
C2489 H2497 0.960 . S
C2490 C2488 1.381 . S
C2490 C2491 1.394 . S
C2490 H2498 0.930 . S
C2491 C2490 1.394 . S
C2491 C2492 1.383 . S
C2491 H2499 0.929 . S
C2492 C2491 1.383 . S
C2492 C2493 1.377 . S
C2493 H2477 0.930 . S
C2493 C2492 1.377 . S
C2493 C2494 1.379 . S
C2494 H2478 0.931 . S
C2494 C2488 1.383 . S
C2494 C2493 1.379 . S
H2495 C2489 0.959 . S
H2496 C2489 0.961 . S
H2497 C2489 0.960 . S
H2498 C2490 0.930 . S
H2499 C2491 0.929 . S
H2500 C2508 0.929 . S
H2501 C2510 0.930 . S
H2502 C2512 0.930 . S
H2503 C2515 0.929 . S
H2504 C2518 0.930 . S
H2505 C2520 0.960 . S
H2506 C2520 0.960 . S
H2507 C2520 0.960 . S
C2508 H2500 0.929 . S
C2508 C2509 1.377 . S
C2508 C2510 1.384 . S
C2509 C2508 1.377 . S
C2509 C2515 1.390 . S
C2510 H2501 0.930 . S
C2510 C2508 1.384 . S
C2510 C2511 1.372 . S
C2511 C2510 1.372 . S
C2511 C2512 1.400 . S
C2511 C2516 1.490 . S
C2512 H2502 0.930 . S
C2512 C2511 1.400 . S
C2512 C2515 1.386 . S
H2513 C2529 0.930 . S
H2514 C2530 0.931 . S
C2515 H2503 0.929 . S
C2515 C2509 1.390 . S
C2515 C2512 1.386 . S
C2516 C2511 1.490 . S
C2516 C2518 1.395 . S
C2516 C2519 1.403 . S
H2517 C2523 0.930 . S
C2518 H2504 0.930 . S
C2518 C2516 1.395 . S
C2518 C2521 1.403 . S
C2519 C2516 1.403 . S
C2519 C2520 1.524 . S
C2519 C2523 1.400 . S
C2520 H2505 0.960 . S
C2520 H2506 0.960 . S
C2520 H2507 0.960 . S
C2520 C2519 1.524 . S
C2521 C2518 1.403 . S
C2521 C2522 1.392 . S
C2521 C2525 1.495 . S
C2522 C2521 1.392 . S
C2522 C2523 1.385 . S
C2522 C2524 1.478 . S
C2523 H2517 0.930 . S
C2523 C2519 1.400 . S
C2523 C2522 1.385 . S
C2524 C2522 1.478 . S
C2524 C2526 1.381 . S
C2524 C2530 1.383 . S
C2525 C2521 1.495 . S
C2525 H2531 0.959 . S
C2525 H2532 0.961 . S
C2525 H2533 0.960 . S
C2526 C2524 1.381 . S
C2526 C2527 1.394 . S
C2526 H2534 0.930 . S
C2527 C2526 1.394 . S
C2527 C2528 1.383 . S
C2527 H2535 0.929 . S
C2528 C2527 1.383 . S
C2528 C2529 1.377 . S
C2529 H2513 0.930 . S
C2529 C2528 1.377 . S
C2529 C2530 1.379 . S
C2530 H2514 0.931 . S
C2530 C2524 1.383 . S
C2530 C2529 1.379 . S
H2531 C2525 0.959 . S
H2532 C2525 0.961 . S
H2533 C2525 0.960 . S
H2534 C2526 0.930 . S
H2535 C2527 0.929 . S
H2536 C2544 0.929 . S
H2537 C2546 0.930 . S
H2538 C2548 0.930 . S
H2539 C2551 0.929 . S
H2540 C2554 0.930 . S
H2541 C2556 0.960 . S
H2542 C2556 0.960 . S
H2543 C2556 0.960 . S
C2544 H2536 0.929 . S
C2544 C2545 1.377 . S
C2544 C2546 1.384 . S
C2545 C2544 1.377 . S
C2545 C2551 1.390 . S
C2546 H2537 0.930 . S
C2546 C2544 1.384 . S
C2546 C2547 1.372 . S
C2547 C2546 1.372 . S
C2547 C2548 1.400 . S
C2547 C2552 1.490 . S
C2548 H2538 0.930 . S
C2548 C2547 1.400 . S
C2548 C2551 1.386 . S
H2549 C2565 0.930 . S
H2550 C2566 0.931 . S
C2551 H2539 0.929 . S
C2551 C2545 1.390 . S
C2551 C2548 1.386 . S
C2552 C2547 1.490 . S
C2552 C2554 1.395 . S
C2552 C2555 1.403 . S
H2553 C2559 0.930 . S
C2554 H2540 0.930 . S
C2554 C2552 1.395 . S
C2554 C2557 1.403 . S
C2555 C2552 1.403 . S
C2555 C2556 1.524 . S
C2555 C2559 1.400 . S
C2556 H2541 0.960 . S
C2556 H2542 0.960 . S
C2556 H2543 0.960 . S
C2556 C2555 1.524 . S
C2557 C2554 1.403 . S
C2557 C2558 1.392 . S
C2557 C2561 1.495 . S
C2558 C2557 1.392 . S
C2558 C2559 1.385 . S
C2558 C2560 1.478 . S
C2559 H2553 0.930 . S
C2559 C2555 1.400 . S
C2559 C2558 1.385 . S
C2560 C2558 1.478 . S
C2560 C2562 1.381 . S
C2560 C2566 1.383 . S
C2561 C2557 1.495 . S
C2561 H2567 0.959 . S
C2561 H2568 0.961 . S
C2561 H2569 0.960 . S
C2562 C2560 1.381 . S
C2562 C2563 1.394 . S
C2562 H2570 0.930 . S
C2563 C2562 1.394 . S
C2563 C2564 1.383 . S
C2563 H2571 0.929 . S
C2564 C2563 1.383 . S
C2564 C2565 1.377 . S
C2565 H2549 0.930 . S
C2565 C2564 1.377 . S
C2565 C2566 1.379 . S
C2566 H2550 0.931 . S
C2566 C2560 1.383 . S
C2566 C2565 1.379 . S
H2567 C2561 0.959 . S
H2568 C2561 0.961 . S
H2569 C2561 0.960 . S
H2570 C2562 0.930 . S
H2571 C2563 0.929 . S
H2572 C2580 0.929 . S
H2573 C2582 0.930 . S
H2574 C2584 0.930 . S
H2575 C2587 0.929 . S
H2576 C2590 0.930 . S
H2577 C2592 0.960 . S
H2578 C2592 0.960 . S
H2579 C2592 0.960 . S
C2580 H2572 0.929 . S
C2580 C2581 1.377 . S
C2580 C2582 1.384 . S
C2581 C2580 1.377 . S
C2581 C2587 1.390 . S
C2582 H2573 0.930 . S
C2582 C2580 1.384 . S
C2582 C2583 1.372 . S
C2583 C2582 1.372 . S
C2583 C2584 1.400 . S
C2583 C2588 1.490 . S
C2584 H2574 0.930 . S
C2584 C2583 1.400 . S
C2584 C2587 1.386 . S
H2585 C2601 0.930 . S
H2586 C2602 0.931 . S
C2587 H2575 0.929 . S
C2587 C2581 1.390 . S
C2587 C2584 1.386 . S
C2588 C2583 1.490 . S
C2588 C2590 1.395 . S
C2588 C2591 1.403 . S
H2589 C2595 0.930 . S
C2590 H2576 0.930 . S
C2590 C2588 1.395 . S
C2590 C2593 1.403 . S
C2591 C2588 1.403 . S
C2591 C2592 1.524 . S
C2591 C2595 1.400 . S
C2592 H2577 0.960 . S
C2592 H2578 0.960 . S
C2592 H2579 0.960 . S
C2592 C2591 1.524 . S
C2593 C2590 1.403 . S
C2593 C2594 1.392 . S
C2593 C2597 1.495 . S
C2594 C2593 1.392 . S
C2594 C2595 1.385 . S
C2594 C2596 1.478 . S
C2595 H2589 0.930 . S
C2595 C2591 1.400 . S
C2595 C2594 1.385 . S
C2596 C2594 1.478 . S
C2596 C2598 1.381 . S
C2596 C2602 1.383 . S
C2597 C2593 1.495 . S
C2597 H2603 0.959 . S
C2597 H2604 0.961 . S
C2597 H2605 0.960 . S
C2598 C2596 1.381 . S
C2598 C2599 1.394 . S
C2598 H2606 0.930 . S
C2599 C2598 1.394 . S
C2599 C2600 1.383 . S
C2599 H2607 0.929 . S
C2600 C2599 1.383 . S
C2600 C2601 1.377 . S
C2601 H2585 0.930 . S
C2601 C2600 1.377 . S
C2601 C2602 1.379 . S
C2602 H2586 0.931 . S
C2602 C2596 1.383 . S
C2602 C2601 1.379 . S
H2603 C2597 0.959 . S
H2604 C2597 0.961 . S
H2605 C2597 0.960 . S
H2606 C2598 0.930 . S
H2607 C2599 0.929 . S
H2608 C2616 0.929 . S
H2609 C2618 0.930 . S
H2610 C2620 0.930 . S
H2611 C2623 0.929 . S
H2612 C2626 0.930 . S
H2613 C2628 0.960 . S
H2614 C2628 0.960 . S
H2615 C2628 0.960 . S
C2616 H2608 0.929 . S
C2616 C2617 1.377 . S
C2616 C2618 1.384 . S
C2617 C2616 1.377 . S
C2617 C2623 1.390 . S
C2618 H2609 0.930 . S
C2618 C2616 1.384 . S
C2618 C2619 1.372 . S
C2619 C2618 1.372 . S
C2619 C2620 1.400 . S
C2619 C2624 1.490 . S
C2620 H2610 0.930 . S
C2620 C2619 1.400 . S
C2620 C2623 1.386 . S
H2621 C2637 0.930 . S
H2622 C2638 0.931 . S
C2623 H2611 0.929 . S
C2623 C2617 1.390 . S
C2623 C2620 1.386 . S
C2624 C2619 1.490 . S
C2624 C2626 1.395 . S
C2624 C2627 1.403 . S
H2625 C2631 0.930 . S
C2626 H2612 0.930 . S
C2626 C2624 1.395 . S
C2626 C2629 1.403 . S
C2627 C2624 1.403 . S
C2627 C2628 1.524 . S
C2627 C2631 1.400 . S
C2628 H2613 0.960 . S
C2628 H2614 0.960 . S
C2628 H2615 0.960 . S
C2628 C2627 1.524 . S
C2629 C2626 1.403 . S
C2629 C2630 1.392 . S
C2629 C2633 1.495 . S
C2630 C2629 1.392 . S
C2630 C2631 1.385 . S
C2630 C2632 1.478 . S
C2631 H2625 0.930 . S
C2631 C2627 1.400 . S
C2631 C2630 1.385 . S
C2632 C2630 1.478 . S
C2632 C2634 1.381 . S
C2632 C2638 1.383 . S
C2633 C2629 1.495 . S
C2633 H2639 0.959 . S
C2633 H2640 0.961 . S
C2633 H2641 0.960 . S
C2634 C2632 1.381 . S
C2634 C2635 1.394 . S
C2634 H2642 0.930 . S
C2635 C2634 1.394 . S
C2635 C2636 1.383 . S
C2635 H2643 0.929 . S
C2636 C2635 1.383 . S
C2636 C2637 1.377 . S
C2637 H2621 0.930 . S
C2637 C2636 1.377 . S
C2637 C2638 1.379 . S
C2638 H2622 0.931 . S
C2638 C2632 1.383 . S
C2638 C2637 1.379 . S
H2639 C2633 0.959 . S
H2640 C2633 0.961 . S
H2641 C2633 0.960 . S
H2642 C2634 0.930 . S
H2643 C2635 0.929 . S
H2644 C2652 0.929 . S
H2645 C2654 0.930 . S
H2646 C2656 0.930 . S
H2647 C2659 0.929 . S
H2648 C2662 0.930 . S
H2649 C2664 0.960 . S
H2650 C2664 0.960 . S
H2651 C2664 0.960 . S
C2652 H2644 0.929 . S
C2652 C2653 1.377 . S
C2652 C2654 1.384 . S
C2653 C2652 1.377 . S
C2653 C2659 1.390 . S
C2654 H2645 0.930 . S
C2654 C2652 1.384 . S
C2654 C2655 1.372 . S
C2655 C2654 1.372 . S
C2655 C2656 1.400 . S
C2655 C2660 1.490 . S
C2656 H2646 0.930 . S
C2656 C2655 1.400 . S
C2656 C2659 1.386 . S
H2657 C2673 0.930 . S
H2658 C2674 0.931 . S
C2659 H2647 0.929 . S
C2659 C2653 1.390 . S
C2659 C2656 1.386 . S
C2660 C2655 1.490 . S
C2660 C2662 1.395 . S
C2660 C2663 1.403 . S
H2661 C2667 0.930 . S
C2662 H2648 0.930 . S
C2662 C2660 1.395 . S
C2662 C2665 1.403 . S
C2663 C2660 1.403 . S
C2663 C2664 1.524 . S
C2663 C2667 1.400 . S
C2664 H2649 0.960 . S
C2664 H2650 0.960 . S
C2664 H2651 0.960 . S
C2664 C2663 1.524 . S
C2665 C2662 1.403 . S
C2665 C2666 1.392 . S
C2665 C2669 1.495 . S
C2666 C2665 1.392 . S
C2666 C2667 1.385 . S
C2666 C2668 1.478 . S
C2667 H2661 0.930 . S
C2667 C2663 1.400 . S
C2667 C2666 1.385 . S
C2668 C2666 1.478 . S
C2668 C2670 1.381 . S
C2668 C2674 1.383 . S
C2669 C2665 1.495 . S
C2669 H2675 0.959 . S
C2669 H2676 0.961 . S
C2669 H2677 0.960 . S
C2670 C2668 1.381 . S
C2670 C2671 1.394 . S
C2670 H2678 0.930 . S
C2671 C2670 1.394 . S
C2671 C2672 1.383 . S
C2671 H2679 0.929 . S
C2672 C2671 1.383 . S
C2672 C2673 1.377 . S
C2673 H2657 0.930 . S
C2673 C2672 1.377 . S
C2673 C2674 1.379 . S
C2674 H2658 0.931 . S
C2674 C2668 1.383 . S
C2674 C2673 1.379 . S
H2675 C2669 0.959 . S
H2676 C2669 0.961 . S
H2677 C2669 0.960 . S
H2678 C2670 0.930 . S
H2679 C2671 0.929 . S
H2680 C2688 0.929 . S
H2681 C2690 0.930 . S
H2682 C2692 0.930 . S
H2683 C2695 0.929 . S
H2684 C2698 0.930 . S
H2685 C2700 0.960 . S
H2686 C2700 0.960 . S
H2687 C2700 0.960 . S
C2688 H2680 0.929 . S
C2688 C2689 1.377 . S
C2688 C2690 1.384 . S
C2689 C2688 1.377 . S
C2689 C2695 1.390 . S
C2690 H2681 0.930 . S
C2690 C2688 1.384 . S
C2690 C2691 1.372 . S
C2691 C2690 1.372 . S
C2691 C2692 1.400 . S
C2691 C2696 1.490 . S
C2692 H2682 0.930 . S
C2692 C2691 1.400 . S
C2692 C2695 1.386 . S
H2693 C2709 0.930 . S
H2694 C2710 0.931 . S
C2695 H2683 0.929 . S
C2695 C2689 1.390 . S
C2695 C2692 1.386 . S
C2696 C2691 1.490 . S
C2696 C2698 1.395 . S
C2696 C2699 1.403 . S
H2697 C2703 0.930 . S
C2698 H2684 0.930 . S
C2698 C2696 1.395 . S
C2698 C2701 1.403 . S
C2699 C2696 1.403 . S
C2699 C2700 1.524 . S
C2699 C2703 1.400 . S
C2700 H2685 0.960 . S
C2700 H2686 0.960 . S
C2700 H2687 0.960 . S
C2700 C2699 1.524 . S
C2701 C2698 1.403 . S
C2701 C2702 1.392 . S
C2701 C2705 1.495 . S
C2702 C2701 1.392 . S
C2702 C2703 1.385 . S
C2702 C2704 1.478 . S
C2703 H2697 0.930 . S
C2703 C2699 1.400 . S
C2703 C2702 1.385 . S
C2704 C2702 1.478 . S
C2704 C2706 1.381 . S
C2704 C2710 1.383 . S
C2705 C2701 1.495 . S
C2705 H2711 0.959 . S
C2705 H2712 0.961 . S
C2705 H2713 0.960 . S
C2706 C2704 1.381 . S
C2706 C2707 1.394 . S
C2706 H2714 0.930 . S
C2707 C2706 1.394 . S
C2707 C2708 1.383 . S
C2707 H2715 0.929 . S
C2708 C2707 1.383 . S
C2708 C2709 1.377 . S
C2709 H2693 0.930 . S
C2709 C2708 1.377 . S
C2709 C2710 1.379 . S
C2710 H2694 0.931 . S
C2710 C2704 1.383 . S
C2710 C2709 1.379 . S
H2711 C2705 0.959 . S
H2712 C2705 0.961 . S
H2713 C2705 0.960 . S
H2714 C2706 0.930 . S
H2715 C2707 0.929 . S
H2716 C2724 0.929 . S
H2717 C2726 0.930 . S
H2718 C2728 0.930 . S
H2719 C2731 0.929 . S
H2720 C2734 0.930 . S
H2721 C2736 0.960 . S
H2722 C2736 0.960 . S
H2723 C2736 0.960 . S
C2724 H2716 0.929 . S
C2724 C2725 1.377 . S
C2724 C2726 1.384 . S
C2725 C2724 1.377 . S
C2725 C2731 1.390 . S
C2726 H2717 0.930 . S
C2726 C2724 1.384 . S
C2726 C2727 1.372 . S
C2727 C2726 1.372 . S
C2727 C2728 1.400 . S
C2727 C2732 1.490 . S
C2728 H2718 0.930 . S
C2728 C2727 1.400 . S
C2728 C2731 1.386 . S
H2729 C2745 0.930 . S
H2730 C2746 0.931 . S
C2731 H2719 0.929 . S
C2731 C2725 1.390 . S
C2731 C2728 1.386 . S
C2732 C2727 1.490 . S
C2732 C2734 1.395 . S
C2732 C2735 1.403 . S
H2733 C2739 0.930 . S
C2734 H2720 0.930 . S
C2734 C2732 1.395 . S
C2734 C2737 1.403 . S
C2735 C2732 1.403 . S
C2735 C2736 1.524 . S
C2735 C2739 1.400 . S
C2736 H2721 0.960 . S
C2736 H2722 0.960 . S
C2736 H2723 0.960 . S
C2736 C2735 1.524 . S
C2737 C2734 1.403 . S
C2737 C2738 1.392 . S
C2737 C2741 1.495 . S
C2738 C2737 1.392 . S
C2738 C2739 1.385 . S
C2738 C2740 1.478 . S
C2739 H2733 0.930 . S
C2739 C2735 1.400 . S
C2739 C2738 1.385 . S
C2740 C2738 1.478 . S
C2740 C2742 1.381 . S
C2740 C2746 1.383 . S
C2741 C2737 1.495 . S
C2741 H2747 0.959 . S
C2741 H2748 0.961 . S
C2741 H2749 0.960 . S
C2742 C2740 1.381 . S
C2742 C2743 1.394 . S
C2742 H2750 0.930 . S
C2743 C2742 1.394 . S
C2743 C2744 1.383 . S
C2743 H2751 0.929 . S
C2744 C2743 1.383 . S
C2744 C2745 1.377 . S
C2745 H2729 0.930 . S
C2745 C2744 1.377 . S
C2745 C2746 1.379 . S
C2746 H2730 0.931 . S
C2746 C2740 1.383 . S
C2746 C2745 1.379 . S
H2747 C2741 0.959 . S
H2748 C2741 0.961 . S
H2749 C2741 0.960 . S
H2750 C2742 0.930 . S
H2751 C2743 0.929 . S
C457 C117 1.222 . S
C476 C5 1.207 . S
C493 C355 1.211 . S
C512 C19 1.158 . S
C529 C145 1.202 . S
C548 C33 1.158 . S
C565 C383 1.206 . S
C584 C47 1.239 . S
C601 C173 1.219 . S
C620 C61 1.266 . S
C637 C75 1.213 . S
C656 C411 1.262 . S
C673 C89 1.204 . S
C692 C201 1.154 . S
C709 C103 1.212 . S
C728 C439 1.259 . S
C745 C243 1.208 . S
C764 C131 1.248 . S
C781 C271 1.204 . S
C800 C159 1.154 . S
C817 C187 1.223 . S
C836 C299 1.251 . S
C853 C215 1.202 . S
C872 C327 1.162 . S
C889 C229 1.215 . S
C908 C341 1.168 . S
C925 C369 1.202 . S
C944 C257 1.160 . S
C961 C285 1.206 . S
C980 C397 1.238 . S
C997 C425 1.223 . S
C1016 C313 1.220 . S
C1033 C256 1.198 . S
C1052 C4 1.206 . S
C1069 C270 1.196 . S
C1088 C18 1.193 . S
C1105 C32 1.196 . S
C1124 C228 1.190 . S
C1141 C46 1.205 . S
C1160 C242 1.228 . S
C1177 C312 1.204 . S
C1196 C60 1.226 . S
C1213 C74 1.196 . S
C1232 C326 1.187 . S
C1249 C284 1.201 . S
C1268 C88 1.177 . S
C1285 C298 1.197 . S
C1304 C102 1.200 . S
C1321 C116 1.207 . S
C1340 C368 1.171 . S
C1357 C382 1.198 . S
C1376 C130 1.218 . S
C1393 C144 1.207 . S
C1412 C340 1.172 . S
C1429 C158 1.201 . S
C1448 C354 1.205 . S
C1465 C172 1.198 . S
C1484 C424 1.220 . S
C1501 C186 1.203 . S
C1520 C438 1.186 . S
C1537 C396 1.199 . S
C1556 C200 1.216 . S
C1573 C410 1.206 . S
C1592 C214 1.174 . S
C1609 C95 1.332 . S
C1628 C11 1.341 . S
C1645 C109 1.326 . S
C1664 C25 1.307 . S
C1681 C67 1.332 . S
C1700 C39 1.339 . S
C1717 C53 1.327 . S
C1736 C81 1.315 . S
C1753 C207 1.325 . S
C1772 C123 1.335 . S
C1789 C221 1.331 . S
C1808 C137 1.307 . S
C1825 C179 1.330 . S
C1844 C151 1.340 . S
C1861 C193 1.330 . S
C1880 C165 1.311 . S
C1897 C319 1.334 . S
C1916 C235 1.347 . S
C1933 C333 1.332 . S
C1952 C249 1.340 . S
C1969 C263 1.332 . S
C1988 C291 1.338 . S
C2005 C277 1.334 . S
C2024 C305 1.348 . S
C2041 C431 1.327 . S
C2060 C347 1.347 . S
C2077 C445 1.330 . S
C2096 C361 1.310 . S
C2113 C375 1.325 . S
C2132 C403 1.344 . S
C2149 C389 1.329 . S
C2168 C417 1.314 . S
C2185 C12 1.515 . S
C2204 C306 1.508 . S
C2221 C320 1.515 . S
C2240 C26 1.512 . S
C2257 C334 1.515 . S
C2276 C40 1.508 . S
C2293 C54 1.515 . S
C2312 C292 1.508 . S
C2329 C278 1.514 . S
C2348 C68 1.515 . S
C2365 C82 1.514 . S
C2384 C236 1.513 . S
C2401 C250 1.515 . S
C2420 C96 1.508 . S
C2437 C110 1.514 . S
C2456 C264 1.514 . S
C2473 C418 1.514 . S
C2492 C124 1.508 . S
C2509 C432 1.515 . S
C2528 C138 1.508 . S
C2545 C152 1.515 . S
C2564 C446 1.515 . S
C2581 C404 1.514 . S
C2600 C166 1.511 . S
C2617 C390 1.514 . S
C2636 C180 1.508 . S
C2653 C194 1.515 . S
C2672 C348 1.514 . S
C2689 C362 1.514 . S
C2708 C208 1.512 . S
C2725 C222 1.515 . S
C2744 C376 1.511 . S
