# Generated by pormake.
# Topology unw, (4)-cn, num edge types: 1
# Building blocks:
#     Node 0, Type 0, BuildingBlock: NAWXER_clean_sbu_0, # of connection points: 4
#     Node 1, Type 0, BuildingBlock: NAWXER_clean_sbu_0, # of connection points: 4
#     Node 2, Type 0, BuildingBlock: NAWXER_clean_sbu_0, # of connection points: 4
#     Node 3, Type 0, BuildingBlock: NAWXER_clean_sbu_0, # of connection points: 4
#     Node 4, Type 0, BuildingBlock: NAWXER_clean_sbu_0, # of connection points: 4
#     Node 5, Type 0, BuildingBlock: NAWXER_clean_sbu_0, # of connection points: 4
#     Node 6, Type 0, BuildingBlock: NAWXER_clean_sbu_0, # of connection points: 4
#     Node 7, Type 0, BuildingBlock: NAWXER_clean_sbu_0, # of connection points: 4
#     Node 8, Type 0, BuildingBlock: NAWXER_clean_sbu_0, # of connection points: 4
#     Node 9, Type 0, BuildingBlock: NAWXER_clean_sbu_0, # of connection points: 4
#     Node 10, Type 0, BuildingBlock: NAWXER_clean_sbu_0, # of connection points: 4
#     Node 11, Type 0, BuildingBlock: NAWXER_clean_sbu_0, # of connection points: 4
#     Node 12, Type 0, BuildingBlock: NAWXER_clean_sbu_0, # of connection points: 4
#     Node 13, Type 0, BuildingBlock: NAWXER_clean_sbu_0, # of connection points: 4
#     Node 14, Type 0, BuildingBlock: NAWXER_clean_sbu_0, # of connection points: 4
#     Node 15, Type 0, BuildingBlock: NAWXER_clean_sbu_0, # of connection points: 4
#     Node 16, Type 0, BuildingBlock: NAWXER_clean_sbu_0, # of connection points: 4
#     Node 17, Type 0, BuildingBlock: NAWXER_clean_sbu_0, # of connection points: 4
#     Node 18, Type 0, BuildingBlock: NAWXER_clean_sbu_0, # of connection points: 4
#     Node 19, Type 0, BuildingBlock: NAWXER_clean_sbu_0, # of connection points: 4
#     Node 20, Type 0, BuildingBlock: NAWXER_clean_sbu_0, # of connection points: 4
#     Node 21, Type 0, BuildingBlock: NAWXER_clean_sbu_0, # of connection points: 4
#     Node 22, Type 0, BuildingBlock: NAWXER_clean_sbu_0, # of connection points: 4
#     Node 23, Type 0, BuildingBlock: NAWXER_clean_sbu_0, # of connection points: 4
#     Edge 24, Type (0, 0), BuildingBlock: UVAHIK_clean_linker_0, # of connection points: 2
#     Edge 25, Type (0, 0), BuildingBlock: UVAHIK_clean_linker_0, # of connection points: 2
#     Edge 26, Type (0, 0), BuildingBlock: UVAHIK_clean_linker_0, # of connection points: 2
#     Edge 27, Type (0, 0), BuildingBlock: UVAHIK_clean_linker_0, # of connection points: 2
#     Edge 28, Type (0, 0), BuildingBlock: UVAHIK_clean_linker_0, # of connection points: 2
#     Edge 29, Type (0, 0), BuildingBlock: UVAHIK_clean_linker_0, # of connection points: 2
#     Edge 30, Type (0, 0), BuildingBlock: UVAHIK_clean_linker_0, # of connection points: 2
#     Edge 31, Type (0, 0), BuildingBlock: UVAHIK_clean_linker_0, # of connection points: 2
#     Edge 32, Type (0, 0), BuildingBlock: UVAHIK_clean_linker_0, # of connection points: 2
#     Edge 33, Type (0, 0), BuildingBlock: UVAHIK_clean_linker_0, # of connection points: 2
#     Edge 34, Type (0, 0), BuildingBlock: UVAHIK_clean_linker_0, # of connection points: 2
#     Edge 35, Type (0, 0), BuildingBlock: UVAHIK_clean_linker_0, # of connection points: 2
#     Edge 36, Type (0, 0), BuildingBlock: UVAHIK_clean_linker_0, # of connection points: 2
#     Edge 37, Type (0, 0), BuildingBlock: UVAHIK_clean_linker_0, # of connection points: 2
#     Edge 38, Type (0, 0), BuildingBlock: UVAHIK_clean_linker_0, # of connection points: 2
#     Edge 39, Type (0, 0), BuildingBlock: UVAHIK_clean_linker_0, # of connection points: 2
#     Edge 40, Type (0, 0), BuildingBlock: UVAHIK_clean_linker_0, # of connection points: 2
#     Edge 41, Type (0, 0), BuildingBlock: UVAHIK_clean_linker_0, # of connection points: 2
#     Edge 42, Type (0, 0), BuildingBlock: UVAHIK_clean_linker_0, # of connection points: 2
#     Edge 43, Type (0, 0), BuildingBlock: UVAHIK_clean_linker_0, # of connection points: 2
#     Edge 44, Type (0, 0), BuildingBlock: UVAHIK_clean_linker_0, # of connection points: 2
#     Edge 45, Type (0, 0), BuildingBlock: UVAHIK_clean_linker_0, # of connection points: 2
#     Edge 46, Type (0, 0), BuildingBlock: UVAHIK_clean_linker_0, # of connection points: 2
#     Edge 47, Type (0, 0), BuildingBlock: UVAHIK_clean_linker_0, # of connection points: 2
#     Edge 48, Type (0, 0), BuildingBlock: UVAHIK_clean_linker_0, # of connection points: 2
#     Edge 49, Type (0, 0), BuildingBlock: UVAHIK_clean_linker_0, # of connection points: 2
#     Edge 50, Type (0, 0), BuildingBlock: UVAHIK_clean_linker_0, # of connection points: 2
#     Edge 51, Type (0, 0), BuildingBlock: UVAHIK_clean_linker_0, # of connection points: 2
#     Edge 52, Type (0, 0), BuildingBlock: UVAHIK_clean_linker_0, # of connection points: 2
#     Edge 53, Type (0, 0), BuildingBlock: UVAHIK_clean_linker_0, # of connection points: 2
#     Edge 54, Type (0, 0), BuildingBlock: UVAHIK_clean_linker_0, # of connection points: 2
#     Edge 55, Type (0, 0), BuildingBlock: UVAHIK_clean_linker_0, # of connection points: 2
#     Edge 56, Type (0, 0), BuildingBlock: UVAHIK_clean_linker_0, # of connection points: 2
#     Edge 57, Type (0, 0), BuildingBlock: UVAHIK_clean_linker_0, # of connection points: 2
#     Edge 58, Type (0, 0), BuildingBlock: UVAHIK_clean_linker_0, # of connection points: 2
#     Edge 59, Type (0, 0), BuildingBlock: UVAHIK_clean_linker_0, # of connection points: 2
#     Edge 60, Type (0, 0), BuildingBlock: UVAHIK_clean_linker_0, # of connection points: 2
#     Edge 61, Type (0, 0), BuildingBlock: UVAHIK_clean_linker_0, # of connection points: 2
#     Edge 62, Type (0, 0), BuildingBlock: UVAHIK_clean_linker_0, # of connection points: 2
#     Edge 63, Type (0, 0), BuildingBlock: UVAHIK_clean_linker_0, # of connection points: 2
#     Edge 64, Type (0, 0), BuildingBlock: UVAHIK_clean_linker_0, # of connection points: 2
#     Edge 65, Type (0, 0), BuildingBlock: UVAHIK_clean_linker_0, # of connection points: 2
#     Edge 66, Type (0, 0), BuildingBlock: UVAHIK_clean_linker_0, # of connection points: 2
#     Edge 67, Type (0, 0), BuildingBlock: UVAHIK_clean_linker_0, # of connection points: 2
#     Edge 68, Type (0, 0), BuildingBlock: UVAHIK_clean_linker_0, # of connection points: 2
#     Edge 69, Type (0, 0), BuildingBlock: UVAHIK_clean_linker_0, # of connection points: 2
#     Edge 70, Type (0, 0), BuildingBlock: UVAHIK_clean_linker_0, # of connection points: 2
#     Edge 71, Type (0, 0), BuildingBlock: UVAHIK_clean_linker_0, # of connection points: 2
# Relax obj value: 0.404
# Max RMSD: 0.268
# Mean RMSD: 0.268
data_MOF--net-unw--node1-NAWXER_clean_sbu_0--edge1-UVAHIK_clean_linker_0
_symmetry_space_group_name_H-M    P1
_symmetry_Int_Tables_number       1
_symmetry_cell_setting            triclinic
loop_
_symmetry_equiv_pos_as_xyz
'x, y, z'
_cell_length_a     60.483099
_cell_length_b     60.471515
_cell_length_c     60.491559
_cell_angle_alpha  89.961796
_cell_angle_beta   90.017413
_cell_angle_gamma 90.02579
loop_
_atom_site_label
_atom_site_type_symbol
_atom_site_fract_x
_atom_site_fract_y
_atom_site_fract_z
_atom_type_partial_charge
C0 C 0.18595 0.37641 0.26332 0.0
C1 C 0.10942 0.38256 0.28922 0.0
O2 O 0.17134 0.37407 0.24821 0.0
Zn3 Zn 0.13626 0.37419 0.24424 0.0
O4 O 0.18019 0.38175 0.28288 0.0
Zn5 Zn 0.14848 0.38325 0.27634 0.0
O6 O 0.14482 0.34875 0.2704 0.0
O7 O 0.13404 0.34289 0.23595 0.0
O8 O 0.12677 0.38827 0.29963 0.0
O9 O 0.11091 0.37739 0.26871 0.0
O10 O 0.13204 0.39772 0.22259 0.0
O11 O 0.14701 0.41024 0.25335 0.0
C12 C 0.14004 0.33542 0.25473 0.0
C13 C 0.14069 0.41356 0.23336 0.0
C14 C 0.64053 0.18649 0.26741 0.0
C15 C 0.6385 0.10877 0.29072 0.0
O16 O 0.64511 0.17259 0.25219 0.0
Zn17 Zn 0.64785 0.13789 0.24722 0.0
O18 O 0.63413 0.17972 0.28633 0.0
Zn19 Zn 0.63555 0.14811 0.27893 0.0
O20 O 0.67058 0.14725 0.27541 0.0
O21 O 0.67974 0.1383 0.24116 0.0
O22 O 0.63084 0.12528 0.30123 0.0
O23 O 0.64483 0.11138 0.27063 0.0
O24 O 0.62643 0.13319 0.22373 0.0
O25 O 0.61026 0.14493 0.25417 0.0
C26 C 0.68535 0.1441 0.26064 0.0
C27 C 0.60903 0.13948 0.2337 0.0
C28 C 0.91533 0.63711 0.28688 0.0
C29 C 0.83804 0.64111 0.2624 0.0
O30 O 0.91307 0.6437 0.26684 0.0
Zn31 Zn 0.88707 0.64775 0.24315 0.0
O32 O 0.89852 0.62984 0.29723 0.0
Zn33 Zn 0.87608 0.63529 0.27467 0.0
O34 O 0.87944 0.61026 0.24972 0.0
O35 O 0.89183 0.62648 0.21952 0.0
O36 O 0.84426 0.63438 0.2814 0.0
O37 O 0.85235 0.64558 0.24754 0.0
O38 O 0.88752 0.67975 0.23764 0.0
O39 O 0.87781 0.67033 0.27163 0.0
C40 C 0.88525 0.60908 0.22934 0.0
C41 C 0.88156 0.68522 0.25711 0.0
C42 C 0.33639 0.88544 0.25466 0.0
C43 C 0.41443 0.88583 0.23274 0.0
O44 O 0.34989 0.87985 0.26992 0.0
Zn45 Zn 0.38434 0.8757 0.27534 0.0
O46 O 0.34364 0.8922 0.23606 0.0
Zn47 Zn 0.37504 0.88935 0.24383 0.0
O48 O 0.37475 0.85421 0.24614 0.0
O49 O 0.38287 0.84363 0.28019 0.0
O50 O 0.39831 0.89414 0.2221 0.0
O51 O 0.41129 0.8789 0.25255 0.0
O52 O 0.38953 0.89615 0.2996 0.0
O53 O 0.37892 0.91364 0.26944 0.0
C54 C 0.37721 0.83885 0.26046 0.0
C55 C 0.38416 0.91408 0.29 0.0
C56 C 0.13967 0.68741 0.76949 0.0
C57 C 0.13651 0.61026 0.79437 0.0
O58 O 0.14465 0.67316 0.75472 0.0
Zn59 Zn 0.14744 0.63835 0.75059 0.0
O60 O 0.13278 0.6811 0.78838 0.0
Zn61 Zn 0.1344 0.64936 0.78174 0.0
O62 O 0.16948 0.64826 0.77928 0.0
O63 O 0.17951 0.63847 0.74552 0.0
O64 O 0.12892 0.62713 0.80435 0.0
O65 O 0.1434 0.6123 0.77441 0.0
O66 O 0.12659 0.63323 0.7266 0.0
O67 O 0.10977 0.64561 0.75643 0.0
C68 C 0.18463 0.64469 0.765 0.0
C69 C 0.10898 0.63972 0.73606 0.0
C70 C 0.33676 0.14341 0.7666 0.0
C71 C 0.41469 0.14153 0.78884 0.0
O72 O 0.35047 0.14751 0.75105 0.0
Zn73 Zn 0.38508 0.15 0.74549 0.0
O74 O 0.34377 0.13745 0.78558 0.0
Zn75 Zn 0.37527 0.13853 0.77774 0.0
O76 O 0.37634 0.17344 0.77333 0.0
O77 O 0.38471 0.18178 0.73871 0.0
O78 O 0.39839 0.13394 0.79975 0.0
O79 O 0.41176 0.14757 0.76871 0.0
O80 O 0.38964 0.12775 0.72257 0.0
O81 O 0.37812 0.11274 0.75369 0.0
C82 C 0.37933 0.18786 0.75816 0.0
C83 C 0.38345 0.11073 0.73327 0.0
C84 C 0.88488 0.33635 0.76863 0.0
C85 C 0.88331 0.41442 0.79038 0.0
O86 O 0.87936 0.34973 0.75324 0.0
Zn87 Zn 0.8748 0.38409 0.74757 0.0
O88 O 0.89125 0.34376 0.78731 0.0
Zn89 Zn 0.88815 0.37513 0.77938 0.0
O90 O 0.85306 0.37426 0.77647 0.0
O91 O 0.84284 0.38185 0.74216 0.0
O92 O 0.89248 0.39871 0.80095 0.0
O93 O 0.87652 0.41099 0.77058 0.0
O94 O 0.8959 0.38959 0.7237 0.0
O95 O 0.91268 0.37905 0.75426 0.0
C96 C 0.83789 0.37632 0.7619 0.0
C97 C 0.91361 0.38428 0.73373 0.0
C98 C 0.64073 0.91457 0.7311 0.0
C99 C 0.64931 0.83959 0.76089 0.0
O100 O 0.64579 0.91431 0.75169 0.0
Zn101 Zn 0.6497 0.89025 0.77743 0.0
O102 O 0.63567 0.89651 0.72159 0.0
Zn103 Zn 0.64124 0.87613 0.74594 0.0
O104 O 0.61409 0.8778 0.76864 0.0
O105 O 0.62583 0.89463 0.79873 0.0
O106 O 0.64387 0.84419 0.74104 0.0
O107 O 0.65106 0.855 0.77526 0.0
O108 O 0.68092 0.89393 0.78569 0.0
O109 O 0.67549 0.88126 0.75182 0.0
C110 C 0.61038 0.88493 0.78826 0.0
C111 C 0.68861 0.88727 0.76724 0.0
C112 C 0.26287 0.18473 0.37612 0.0
C113 C 0.29248 0.10959 0.3838 0.0
O114 O 0.24849 0.16934 0.37426 0.0
Zn115 Zn 0.24617 0.13416 0.37517 0.0
O116 O 0.28271 0.18006 0.38152 0.0
Zn117 Zn 0.27783 0.14805 0.38378 0.0
O118 O 0.27186 0.14341 0.34955 0.0
O119 O 0.23792 0.13099 0.34384 0.0
O120 O 0.30213 0.12756 0.38892 0.0
O121 O 0.27185 0.10998 0.37883 0.0
O122 O 0.22492 0.12953 0.39903 0.0
O123 O 0.25533 0.14564 0.411 0.0
C124 C 0.25645 0.13769 0.33629 0.0
C125 C 0.23566 0.13858 0.41469 0.0
C126 C 0.91346 0.28852 0.38398 0.0
C127 C 0.83559 0.26608 0.38229 0.0
O128 O 0.91055 0.26868 0.37703 0.0
Zn129 Zn 0.88381 0.24569 0.37343 0.0
O130 O 0.89714 0.29906 0.39198 0.0
Zn131 Zn 0.8741 0.27716 0.38681 0.0
O132 O 0.87771 0.25162 0.41125 0.0
O133 O 0.88872 0.22148 0.394 0.0
O134 O 0.84261 0.28475 0.38912 0.0
O135 O 0.84927 0.2509 0.37696 0.0
O136 O 0.88299 0.24072 0.34141 0.0
O137 O 0.87445 0.27477 0.35165 0.0
C138 C 0.88303 0.23108 0.41181 0.0
C139 C 0.8773 0.2604 0.33643 0.0
C140 C 0.79549 0.88583 0.41455 0.0
C141 C 0.76876 0.88164 0.33811 0.0
O142 O 0.77522 0.87967 0.41318 0.0
Zn143 Zn 0.75062 0.87594 0.38779 0.0
O144 O 0.80535 0.89259 0.39726 0.0
Zn145 Zn 0.78205 0.88741 0.37574 0.0
O146 O 0.75786 0.91307 0.3793 0.0
O147 O 0.7276 0.89797 0.39285 0.0
O148 O 0.78805 0.88793 0.34385 0.0
O149 O 0.75409 0.87766 0.35279 0.0
O150 O 0.7443 0.84403 0.3886 0.0
O151 O 0.77819 0.85255 0.37783 0.0
C152 C 0.73769 0.91496 0.38562 0.0
C153 C 0.76343 0.83804 0.38209 0.0
C154 C 0.18566 0.76186 0.37496 0.0
C155 C 0.10988 0.73349 0.38149 0.0
O156 O 0.17053 0.77646 0.37288 0.0
Zn157 Zn 0.13539 0.77932 0.37328 0.0
O158 O 0.18061 0.74204 0.38017 0.0
Zn159 Zn 0.14865 0.74745 0.38201 0.0
O160 O 0.14456 0.75358 0.34765 0.0
O161 O 0.13272 0.78773 0.34203 0.0
O162 O 0.12754 0.72348 0.38695 0.0
O163 O 0.11081 0.75409 0.37652 0.0
O164 O 0.13072 0.80061 0.39702 0.0
O165 O 0.14661 0.77014 0.40917 0.0
C166 C 0.13922 0.76917 0.33443 0.0
C167 C 0.13974 0.7899 0.41272 0.0
C168 C 0.26264 0.83714 0.64662 0.0
C169 C 0.28935 0.91361 0.64111 0.0
O170 O 0.24772 0.85193 0.64891 0.0
Zn171 Zn 0.24408 0.88696 0.64901 0.0
O172 O 0.28232 0.84269 0.64148 0.0
Zn173 Zn 0.27627 0.87458 0.64015 0.0
O174 O 0.27006 0.87804 0.67455 0.0
O175 O 0.23565 0.889 0.6803 0.0
O176 O 0.29979 0.89622 0.63555 0.0
O177 O 0.26877 0.91215 0.64604 0.0
O178 O 0.22268 0.89148 0.62532 0.0
O179 O 0.25366 0.87686 0.61295 0.0
C180 C 0.25436 0.88283 0.68783 0.0
C181 C 0.23374 0.88328 0.60945 0.0
C182 C 0.14034 0.23439 0.60934 0.0
C183 C 0.14043 0.25858 0.6867 0.0
O184 O 0.14652 0.25453 0.61194 0.0
Zn185 Zn 0.14821 0.27844 0.63802 0.0
O186 O 0.13199 0.22403 0.62563 0.0
Zn187 Zn 0.13622 0.2465 0.6484 0.0
O188 O 0.11073 0.27067 0.64449 0.0
O189 O 0.12616 0.30139 0.63242 0.0
O190 O 0.13446 0.23946 0.68011 0.0
O191 O 0.14492 0.27372 0.67265 0.0
O192 O 0.18002 0.285 0.6391 0.0
O193 O 0.17119 0.25062 0.64807 0.0
C194 C 0.10896 0.29098 0.63862 0.0
C195 C 0.1858 0.26562 0.6451 0.0
C196 C 0.77002 0.13764 0.68637 0.0
C197 C 0.79363 0.13641 0.60883 0.0
O198 O 0.75512 0.14334 0.67251 0.0
Zn199 Zn 0.75051 0.14734 0.63788 0.0
O200 O 0.78869 0.13064 0.67956 0.0
Zn201 Zn 0.78163 0.13343 0.648 0.0
O202 O 0.77976 0.16856 0.64803 0.0
O203 O 0.74605 0.17951 0.63908 0.0
O204 O 0.80378 0.12822 0.62533 0.0
O205 O 0.77383 0.14361 0.61138 0.0
O206 O 0.72608 0.12705 0.63245 0.0
O207 O 0.75587 0.10939 0.64377 0.0
C208 C 0.76571 0.18408 0.64517 0.0
C209 C 0.73541 0.10908 0.63815 0.0
C210 C 0.88636 0.77041 0.68896 0.0
C211 C 0.88918 0.79541 0.6118 0.0
O212 O 0.88109 0.75578 0.67467 0.0
Zn213 Zn 0.87795 0.75173 0.63992 0.0
O214 O 0.89343 0.78927 0.68269 0.0
Zn215 Zn 0.8915 0.78277 0.65089 0.0
O216 O 0.85642 0.7807 0.65007 0.0
O217 O 0.84578 0.7471 0.64033 0.0
O218 O 0.89699 0.80535 0.6286 0.0
O219 O 0.8821 0.77551 0.61391 0.0
O220 O 0.89848 0.72751 0.63463 0.0
O221 O 0.91576 0.75717 0.64686 0.0
C222 C 0.84102 0.76665 0.64661 0.0
C223 C 0.91626 0.73679 0.64095 0.0
C224 C 0.37646 0.26122 0.18555 0.0
C225 C 0.38189 0.28928 0.10966 0.0
O226 O 0.37364 0.24658 0.17059 0.0
Zn227 Zn 0.37329 0.2436 0.13547 0.0
O228 O 0.38224 0.2808 0.18024 0.0
Zn229 Zn 0.3832 0.27518 0.1483 0.0
O230 O 0.34858 0.2699 0.145 0.0
O231 O 0.34179 0.23584 0.13349 0.0
O232 O 0.38798 0.29905 0.12725 0.0
O233 O 0.37653 0.26876 0.11057 0.0
O234 O 0.39626 0.22162 0.13071 0.0
O235 O 0.40996 0.25203 0.14534 0.0
C236 C 0.33484 0.25463 0.14004 0.0
C237 C 0.41266 0.23205 0.13872 0.0
C238 C 0.3373 0.76643 0.88517 0.0
C239 C 0.41551 0.78812 0.88358 0.0
O240 O 0.35069 0.75117 0.87938 0.0
Zn241 Zn 0.38494 0.74558 0.87453 0.0
O242 O 0.34468 0.78506 0.89173 0.0
Zn243 Zn 0.3761 0.77722 0.88837 0.0
O244 O 0.37501 0.77481 0.85324 0.0
O245 O 0.38255 0.74065 0.84254 0.0
O246 O 0.39982 0.79876 0.8927 0.0
O247 O 0.41194 0.76839 0.87666 0.0
O248 O 0.39046 0.7214 0.89513 0.0
O249 O 0.38022 0.75167 0.9126 0.0
C250 C 0.37695 0.76044 0.83786 0.0
C251 C 0.38539 0.7311 0.91308 0.0
C252 C 0.22936 0.41319 0.88605 0.0
C253 C 0.25604 0.33676 0.88149 0.0
O254 O 0.24959 0.41182 0.8798 0.0
Zn255 Zn 0.27413 0.38645 0.87589 0.0
O256 O 0.21954 0.39588 0.89287 0.0
Zn257 Zn 0.24284 0.37437 0.88756 0.0
O258 O 0.26724 0.37792 0.91314 0.0
O259 O 0.29729 0.3915 0.89764 0.0
O260 O 0.23681 0.34246 0.88796 0.0
O261 O 0.27068 0.35146 0.87748 0.0
O262 O 0.2803 0.38747 0.84402 0.0
O263 O 0.24645 0.37662 0.85264 0.0
C264 C 0.28743 0.38427 0.91475 0.0
C265 C 0.26113 0.38098 0.8381 0.0
C266 C 0.68855 0.25654 0.88634 0.0
C267 C 0.6103 0.23559 0.8841 0.0
O268 O 0.67548 0.27177 0.87977 0.0
Zn269 Zn 0.64135 0.27759 0.8742 0.0
O270 O 0.68079 0.23825 0.89344 0.0
Zn271 Zn 0.6496 0.2464 0.88925 0.0
O272 O 0.6512 0.24761 0.854 0.0
O273 O 0.64421 0.28152 0.84212 0.0
O274 O 0.62568 0.22529 0.89409 0.0
O275 O 0.61412 0.25502 0.87646 0.0
O276 O 0.63577 0.30249 0.89387 0.0
O277 O 0.64544 0.27274 0.91254 0.0
C278 C 0.6496 0.26152 0.83815 0.0
C279 C 0.64048 0.29336 0.91222 0.0
C280 C 0.76849 0.68889 0.88599 0.0
C281 C 0.78876 0.61039 0.88509 0.0
O282 O 0.75293 0.67575 0.88039 0.0
Zn283 Zn 0.74671 0.64151 0.87589 0.0
O284 O 0.78697 0.6812 0.89261 0.0
Zn285 Zn 0.77846 0.64995 0.88953 0.0
O286 O 0.77593 0.65077 0.85432 0.0
O287 O 0.74157 0.64361 0.84397 0.0
O288 O 0.79963 0.62599 0.89408 0.0
O289 O 0.76907 0.61417 0.87816 0.0
O290 O 0.72251 0.63646 0.89644 0.0
O291 O 0.75289 0.64643 0.9139 0.0
C292 C 0.76139 0.64887 0.83909 0.0
C293 C 0.73224 0.64153 0.91437 0.0
C294 C 0.68766 0.76455 0.14203 0.0
C295 C 0.61044 0.78925 0.14003 0.0
O296 O 0.67346 0.74967 0.14689 0.0
Zn297 Zn 0.63875 0.74539 0.15001 0.0
O298 O 0.68128 0.78356 0.13553 0.0
Zn299 Zn 0.64952 0.7769 0.13735 0.0
O300 O 0.64875 0.77378 0.17236 0.0
O301 O 0.63916 0.73982 0.18202 0.0
O302 O 0.62715 0.79956 0.13248 0.0
O303 O 0.61271 0.76918 0.14655 0.0
O304 O 0.63337 0.7218 0.1288 0.0
O305 O 0.64538 0.75205 0.11239 0.0
C306 C 0.64535 0.75926 0.18734 0.0
C307 C 0.63949 0.73169 0.11128 0.0
C308 C 0.26309 0.64824 0.18456 0.0
C309 C 0.29325 0.64001 0.10969 0.0
O310 O 0.24884 0.64996 0.16903 0.0
Zn311 Zn 0.24678 0.64878 0.13387 0.0
O312 O 0.28299 0.64291 0.1801 0.0
Zn313 Zn 0.27839 0.6404 0.14807 0.0
O314 O 0.27237 0.67457 0.14306 0.0
O315 O 0.23853 0.68008 0.13034 0.0
O316 O 0.30283 0.63513 0.12776 0.0
O317 O 0.27262 0.64493 0.10992 0.0
O318 O 0.22561 0.62479 0.12937 0.0
O319 O 0.25597 0.61311 0.14579 0.0
C320 C 0.25698 0.68774 0.13709 0.0
C321 C 0.23636 0.60927 0.13866 0.0
C322 C 0.73042 0.38752 0.10841 0.0
C323 C 0.75589 0.38437 0.18541 0.0
O324 O 0.75031 0.38039 0.1104 0.0
Zn325 Zn 0.77423 0.37608 0.13625 0.0
O326 O 0.72055 0.3952 0.12531 0.0
Zn327 Zn 0.74324 0.38956 0.14744 0.0
O328 O 0.76876 0.41386 0.14318 0.0
O329 O 0.79841 0.39666 0.13082 0.0
O330 O 0.73699 0.39144 0.17929 0.0
O331 O 0.77042 0.37915 0.17101 0.0
O332 O 0.77886 0.34391 0.13657 0.0
O333 O 0.74531 0.35446 0.14654 0.0
C334 C 0.7891 0.41443 0.13713 0.0
C335 C 0.75936 0.3391 0.143 0.0
C336 C 0.23628 0.57275 0.15814 0.0
C337 C 0.22573 0.58762 0.14371 0.0
C338 C 0.2257 0.55345 0.16512 0.0
C339 C 0.16982 0.52764 0.17013 0.0
H340 H 0.20496 0.47663 0.18673 0.0
C341 C 0.1378 0.44029 0.20132 0.0
C342 C 0.14638 0.43477 0.22225 0.0
C343 C 0.14546 0.45909 0.18998 0.0
C344 C 0.19494 0.49074 0.18209 0.0
H345 H 0.19587 0.59334 0.12475 0.0
H346 H 0.17763 0.55909 0.13626 0.0
H347 H 0.22264 0.50789 0.16853 0.0
H348 H 0.16946 0.44504 0.24778 0.0
H349 H 0.18309 0.47726 0.22777 0.0
H350 H 0.14201 0.5098 0.18343 0.0
C351 C 0.19395 0.56269 0.14267 0.0
C352 C 0.20507 0.50881 0.17182 0.0
C353 C 0.20449 0.58227 0.13588 0.0
C354 C 0.16235 0.44878 0.23177 0.0
C355 C 0.17028 0.4672 0.22029 0.0
C356 C 0.15959 0.50928 0.18006 0.0
C357 C 0.2043 0.5481 0.15765 0.0
C358 C 0.19282 0.52783 0.16622 0.0
C359 C 0.16217 0.47237 0.19918 0.0
C360 C 0.17219 0.49091 0.18659 0.0
H361 H 0.25253 0.57636 0.16476 0.0
H362 H 0.23415 0.54309 0.17703 0.0
H363 H 0.15978 0.54195 0.16632 0.0
H364 H 0.12554 0.42984 0.1935 0.0
H365 H 0.13898 0.46276 0.17369 0.0
C366 C 0.58824 0.14558 0.19818 0.0
C367 C 0.58812 0.14341 0.22134 0.0
C368 C 0.56929 0.15273 0.18687 0.0
C369 C 0.53269 0.18444 0.17152 0.0
H370 H 0.47383 0.16336 0.18577 0.0
C371 C 0.45259 0.23268 0.15021 0.0
C372 C 0.43403 0.22061 0.14302 0.0
C373 C 0.47183 0.22181 0.15715 0.0
C374 C 0.49016 0.16929 0.18143 0.0
H375 H 0.5676 0.14608 0.25061 0.0
H376 H 0.53451 0.15807 0.23085 0.0
H377 H 0.50605 0.14603 0.20302 0.0
H378 H 0.42152 0.18755 0.1369 0.0
H379 H 0.45511 0.16862 0.14911 0.0
H380 H 0.51679 0.20801 0.15031 0.0
C381 C 0.54928 0.15437 0.22144 0.0
C382 C 0.50861 0.15948 0.19146 0.0
C383 C 0.56829 0.14753 0.23277 0.0
C384 C 0.4355 0.1974 0.14225 0.0
C385 C 0.45468 0.18652 0.14943 0.0
C386 C 0.51423 0.19443 0.16171 0.0
C387 C 0.54969 0.15756 0.19841 0.0
C388 C 0.5301 0.16702 0.18674 0.0
C389 C 0.47296 0.19859 0.1573 0.0
C390 C 0.49271 0.18709 0.16665 0.0
H391 H 0.60324 0.14268 0.18884 0.0
H392 H 0.57008 0.15481 0.1691 0.0
H393 H 0.54898 0.19079 0.16767 0.0
H394 H 0.45206 0.25055 0.15109 0.0
H395 H 0.48553 0.23163 0.16324 0.0
C396 C 0.82527 0.43474 0.14107 0.0
C397 C 0.80203 0.43514 0.14022 0.0
C398 C 0.83721 0.45361 0.14742 0.0
C399 C 0.833 0.5145 0.1551 0.0
H400 H 0.87738 0.50566 0.20054 0.0
C401 C 0.88104 0.58797 0.19368 0.0
C402 C 0.88163 0.58813 0.21693 0.0
C403 C 0.87433 0.56898 0.18216 0.0
C404 C 0.86508 0.50842 0.18781 0.0
H405 H 0.77323 0.45609 0.14435 0.0
H406 H 0.79397 0.4889 0.15511 0.0
H407 H 0.85953 0.47368 0.18349 0.0
H408 H 0.87664 0.56802 0.24621 0.0
H409 H 0.86525 0.53497 0.22619 0.0
H410 H 0.83808 0.54925 0.15987 0.0
C411 C 0.80303 0.47404 0.15091 0.0
C412 C 0.85499 0.49007 0.17788 0.0
C413 C 0.79111 0.45516 0.14481 0.0
C414 C 0.8764 0.56852 0.22831 0.0
C415 C 0.86993 0.5495 0.21681 0.0
C416 C 0.84323 0.53284 0.16489 0.0
C417 C 0.8262 0.47339 0.1528 0.0
C418 C 0.83852 0.49287 0.16168 0.0
C419 C 0.86832 0.54962 0.19361 0.0
C420 C 0.85912 0.53006 0.18166 0.0
H421 H 0.83423 0.4196 0.13774 0.0
H422 H 0.85505 0.4526 0.14847 0.0
H423 H 0.82052 0.51726 0.14256 0.0
H424 H 0.88488 0.60279 0.18437 0.0
H425 H 0.87352 0.56957 0.16429 0.0
C426 C 0.58772 0.82406 0.14354 0.0
C427 C 0.5891 0.80083 0.14401 0.0
C428 C 0.56856 0.83491 0.15088 0.0
C429 C 0.52121 0.82517 0.18835 0.0
H430 H 0.49781 0.87943 0.16349 0.0
C431 C 0.45403 0.87375 0.23426 0.0
C432 C 0.43601 0.88146 0.22176 0.0
C433 C 0.47325 0.86618 0.2239 0.0
C434 C 0.50408 0.86423 0.17057 0.0
H435 H 0.5708 0.77083 0.15121 0.0
H436 H 0.53745 0.78961 0.16347 0.0
H437 H 0.52919 0.86107 0.14567 0.0
H438 H 0.4246 0.88827 0.18846 0.0
H439 H 0.45814 0.87486 0.17032 0.0
H440 H 0.49605 0.82793 0.21296 0.0
C441 C 0.55133 0.79953 0.15803 0.0
C442 C 0.52219 0.8538 0.16046 0.0
C443 C 0.57044 0.78873 0.1508 0.0
C444 C 0.43818 0.8825 0.19862 0.0
C445 C 0.45745 0.87482 0.1882 0.0
C446 C 0.50322 0.83556 0.19844 0.0
C447 C 0.55034 0.82277 0.15882 0.0
C448 C 0.53094 0.83406 0.16919 0.0
C449 C 0.47499 0.86597 0.2007 0.0
C450 C 0.49441 0.85527 0.18977 0.0
H451 H 0.6018 0.83391 0.13849 0.0
H452 H 0.56844 0.85281 0.15131 0.0
H453 H 0.52765 0.81021 0.19581 0.0
H454 H 0.45306 0.87288 0.25212 0.0
H455 H 0.48661 0.86003 0.23411 0.0
C456 C 0.2285 0.45389 0.87781 0.0
C457 C 0.21704 0.43421 0.8826 0.0
C458 C 0.21709 0.47302 0.87147 0.0
C459 C 0.16586 0.49018 0.844 0.0
H460 H 0.18304 0.54898 0.86295 0.0
C461 C 0.14579 0.56979 0.79456 0.0
C462 C 0.14003 0.58902 0.8063 0.0
C463 C 0.15213 0.55052 0.80574 0.0
C464 C 0.17785 0.53268 0.85765 0.0
H465 H 0.18442 0.41951 0.88509 0.0
H466 H 0.16452 0.4529 0.87386 0.0
H467 H 0.20013 0.51659 0.88009 0.0
H468 H 0.13579 0.60275 0.83913 0.0
H469 H 0.14703 0.56912 0.85864 0.0
H470 H 0.14397 0.50627 0.82119 0.0
C471 C 0.18238 0.45346 0.875 0.0
C472 C 0.18779 0.51412 0.86735 0.0
C473 C 0.19379 0.43438 0.88163 0.0
C474 C 0.14003 0.58823 0.82955 0.0
C475 C 0.14665 0.56901 0.84074 0.0
C476 C 0.15611 0.50874 0.83412 0.0
C477 C 0.19392 0.47291 0.86949 0.0
C478 C 0.18209 0.49263 0.86049 0.0
C479 C 0.15314 0.55003 0.82896 0.0
C480 C 0.16215 0.53024 0.84066 0.0
H481 H 0.2464 0.45436 0.87834 0.0
H482 H 0.22652 0.48764 0.8672 0.0
H483 H 0.16122 0.47389 0.83818 0.0
H484 H 0.14602 0.56979 0.77665 0.0
H485 H 0.15717 0.53628 0.79613 0.0
C486 C 0.57567 0.23311 0.86163 0.0
C487 C 0.58911 0.2244 0.87852 0.0
C488 C 0.55725 0.22146 0.85398 0.0
C489 C 0.51372 0.1838 0.86588 0.0
H490 H 0.51734 0.16627 0.80433 0.0
C491 C 0.44041 0.13965 0.82176 0.0
C492 C 0.43631 0.14598 0.79976 0.0
C493 C 0.45996 0.14615 0.83251 0.0
C494 C 0.51583 0.17123 0.82146 0.0
H495 H 0.59302 0.19694 0.90127 0.0
H496 H 0.56008 0.17686 0.88826 0.0
H497 H 0.5487 0.18454 0.8218 0.0
H498 H 0.44985 0.16389 0.77177 0.0
H499 H 0.48316 0.17567 0.79041 0.0
H500 H 0.48042 0.17175 0.86533 0.0
C501 C 0.56422 0.19264 0.88086 0.0
C502 C 0.53394 0.18152 0.83148 0.0
C503 C 0.58302 0.20413 0.88827 0.0
C504 C 0.45245 0.15849 0.78864 0.0
C505 C 0.47177 0.16517 0.79939 0.0
C506 C 0.49536 0.17385 0.85572 0.0
C507 C 0.55151 0.20101 0.8633 0.0
C508 C 0.53296 0.18818 0.85366 0.0
C509 C 0.4758 0.15931 0.82156 0.0
C510 C 0.496 0.16779 0.8332 0.0
H511 H 0.57985 0.24859 0.85362 0.0
H512 H 0.54764 0.22827 0.84048 0.0
H513 H 0.51258 0.1889 0.883 0.0
H514 H 0.42833 0.13001 0.83084 0.0
H515 H 0.46254 0.14098 0.84944 0.0
C516 C 0.82066 0.58345 0.88772 0.0
C517 C 0.79929 0.58869 0.88016 0.0
C518 C 0.83112 0.56383 0.88099 0.0
C519 C 0.81963 0.50964 0.85263 0.0
H520 H 0.88246 0.51076 0.83985 0.0
C521 C 0.86134 0.4494 0.79235 0.0
C522 C 0.87764 0.43557 0.80157 0.0
C523 C 0.85354 0.46781 0.8039 0.0
C524 C 0.86495 0.5102 0.84356 0.0
H525 H 0.77218 0.57717 0.85966 0.0
H526 H 0.7904 0.5438 0.8475 0.0
H527 H 0.86492 0.54299 0.85697 0.0
H528 H 0.89919 0.43096 0.82986 0.0
H529 H 0.88595 0.46387 0.84977 0.0
H530 H 0.81956 0.47734 0.83802 0.0
C531 C 0.79903 0.55429 0.85915 0.0
C532 C 0.85485 0.5286 0.85348 0.0
C533 C 0.78853 0.57366 0.86607 0.0
C534 C 0.88666 0.44127 0.82227 0.0
C535 C 0.87912 0.46006 0.83367 0.0
C536 C 0.82962 0.49152 0.84235 0.0
C537 C 0.82054 0.54907 0.86634 0.0
C538 C 0.83192 0.52876 0.8578 0.0
C539 C 0.86211 0.47316 0.82477 0.0
C540 C 0.85228 0.49174 0.83743 0.0
H541 H 0.82944 0.59466 0.89858 0.0
H542 H 0.84753 0.56032 0.88719 0.0
H543 H 0.80213 0.5087 0.85623 0.0
H544 H 0.8539 0.44553 0.77653 0.0
H545 H 0.8405 0.47773 0.79664 0.0
C546 C 0.57578 0.86233 0.79039 0.0
C547 C 0.58925 0.87903 0.79943 0.0
C548 C 0.55746 0.85433 0.80196 0.0
C549 C 0.51474 0.86553 0.84149 0.0
H550 H 0.51693 0.80275 0.85439 0.0
C551 C 0.44203 0.82043 0.88596 0.0
C552 C 0.43704 0.79897 0.8785 0.0
C553 C 0.4615 0.83114 0.87912 0.0
C554 C 0.51579 0.82024 0.85072 0.0
H555 H 0.59329 0.90106 0.82741 0.0
H556 H 0.56052 0.88747 0.84735 0.0
H557 H 0.54808 0.8205 0.8361 0.0
H558 H 0.44885 0.77195 0.85809 0.0
H559 H 0.48196 0.79057 0.84577 0.0
H560 H 0.48197 0.86515 0.85495 0.0
C561 C 0.56455 0.88048 0.83137 0.0
C562 C 0.53379 0.83042 0.84039 0.0
C563 C 0.58327 0.88823 0.81996 0.0
C564 C 0.45217 0.78837 0.86441 0.0
C565 C 0.47139 0.7991 0.8574 0.0
C566 C 0.49646 0.85524 0.85148 0.0
C567 C 0.55182 0.86309 0.82267 0.0
C568 C 0.53334 0.85307 0.83539 0.0
C569 C 0.47637 0.82071 0.86449 0.0
C570 C 0.49655 0.83232 0.85588 0.0
H571 H 0.57987 0.85474 0.7747 0.0
H572 H 0.54782 0.841 0.79484 0.0
H573 H 0.51399 0.88303 0.83773 0.0
H574 H 0.43074 0.82911 0.89681 0.0
H575 H 0.46482 0.84763 0.88524 0.0
C576 C 0.16124 0.2322 0.57373 0.0
C577 C 0.14585 0.22273 0.5884 0.0
C578 C 0.16902 0.22036 0.5555 0.0
C579 C 0.15874 0.18004 0.51423 0.0
H580 H 0.22147 0.16699 0.51644 0.0
C581 C 0.20358 0.13585 0.44138 0.0
C582 C 0.22499 0.14341 0.43633 0.0
C583 C 0.19297 0.14251 0.46095 0.0
C584 C 0.204 0.17068 0.51532 0.0
H585 H 0.12586 0.19362 0.59472 0.0
H586 H 0.13905 0.17314 0.56213 0.0
H587 H 0.20377 0.18531 0.54761 0.0
H588 H 0.25206 0.16377 0.44817 0.0
H589 H 0.23361 0.17581 0.48146 0.0
H590 H 0.15908 0.16666 0.48145 0.0
C591 C 0.14519 0.18969 0.56515 0.0
C592 C 0.19385 0.181 0.53333 0.0
C593 C 0.13767 0.20141 0.58375 0.0
C594 C 0.23567 0.15739 0.45153 0.0
C595 C 0.22504 0.16423 0.47084 0.0
C596 C 0.16899 0.17005 0.49595 0.0
C597 C 0.16131 0.19892 0.55119 0.0
C598 C 0.17123 0.18605 0.53284 0.0
C599 C 0.20346 0.15707 0.47585 0.0
C600 C 0.1919 0.1656 0.49606 0.0
H601 H 0.16803 0.24849 0.57678 0.0
H602 H 0.18141 0.22782 0.54492 0.0
H603 H 0.14127 0.18388 0.51348 0.0
H604 H 0.19485 0.12506 0.43005 0.0
H605 H 0.17651 0.13634 0.46429 0.0
C606 C 0.82841 0.13944 0.58615 0.0
C607 C 0.80519 0.14011 0.58744 0.0
C608 C 0.83936 0.14612 0.56682 0.0
C609 C 0.83159 0.15703 0.50693 0.0
H610 H 0.87916 0.19938 0.51455 0.0
C611 C 0.87807 0.1951 0.4322 0.0
C612 C 0.87982 0.2183 0.43259 0.0
C613 C 0.87167 0.1834 0.45118 0.0
C614 C 0.86596 0.18751 0.51214 0.0
H615 H 0.7753 0.14736 0.56899 0.0
H616 H 0.79435 0.15864 0.5353 0.0
H617 H 0.86229 0.18211 0.54697 0.0
H618 H 0.87723 0.24723 0.4536 0.0
H619 H 0.86645 0.22684 0.48666 0.0
H620 H 0.8349 0.16283 0.47212 0.0
C621 C 0.80412 0.15302 0.54922 0.0
C622 C 0.85642 0.17747 0.53071 0.0
C623 C 0.79319 0.14662 0.5686 0.0
C624 C 0.87607 0.22938 0.45268 0.0
C625 C 0.86994 0.21767 0.47169 0.0
C626 C 0.8413 0.16689 0.48834 0.0
C627 C 0.82735 0.15333 0.54824 0.0
C628 C 0.83886 0.16237 0.52837 0.0
C629 C 0.86717 0.19458 0.47107 0.0
C630 C 0.85835 0.18255 0.49073 0.0
H631 H 0.83818 0.13461 0.60036 0.0
H632 H 0.85726 0.14595 0.56653 0.0
H633 H 0.81821 0.14536 0.50453 0.0
H634 H 0.88073 0.18603 0.417 0.0
H635 H 0.86991 0.1656 0.4502 0.0
C636 C 0.79637 0.87749 0.45524 0.0
C637 C 0.80781 0.88243 0.4356 0.0
C638 C 0.80782 0.87132 0.4744 0.0
C639 C 0.85943 0.84464 0.49171 0.0
H640 H 0.8419 0.86337 0.55044 0.0
C641 C 0.87999 0.7955 0.57133 0.0
C642 C 0.88561 0.80731 0.59056 0.0
C643 C 0.87354 0.8066 0.55206 0.0
C644 C 0.84718 0.85814 0.53416 0.0
H645 H 0.84042 0.88538 0.421 0.0
H646 H 0.8604 0.87445 0.45443 0.0
H647 H 0.82458 0.88022 0.51802 0.0
H648 H 0.88947 0.8402 0.6043 0.0
H649 H 0.87803 0.85959 0.57066 0.0
H650 H 0.88164 0.82218 0.50786 0.0
C651 C 0.84252 0.87533 0.45495 0.0
C652 C 0.83711 0.86766 0.51558 0.0
C653 C 0.83107 0.88178 0.43584 0.0
C654 C 0.88537 0.83057 0.58978 0.0
C655 C 0.87862 0.84169 0.57056 0.0
C656 C 0.86931 0.83493 0.5103 0.0
C657 C 0.83102 0.86968 0.47436 0.0
C658 C 0.84294 0.86087 0.49412 0.0
C659 C 0.87228 0.82982 0.55157 0.0
C660 C 0.86314 0.84139 0.53176 0.0
H661 H 0.77846 0.87778 0.45566 0.0
H662 H 0.79842 0.86692 0.48899 0.0
H663 H 0.86418 0.83887 0.47544 0.0
H664 H 0.87996 0.77759 0.57133 0.0
H665 H 0.86863 0.79693 0.53782 0.0
C666 C 0.16139 0.79162 0.44791 0.0
C667 C 0.1452 0.80092 0.43402 0.0
C668 C 0.16907 0.80307 0.46644 0.0
C669 C 0.15761 0.84189 0.50923 0.0
H670 H 0.22005 0.85632 0.50721 0.0
C671 C 0.20158 0.88571 0.58282 0.0
C672 C 0.22318 0.8786 0.58771 0.0
C673 C 0.1911 0.87914 0.56316 0.0
C674 C 0.20266 0.85222 0.50829 0.0
H675 H 0.12368 0.82923 0.4294 0.0
H676 H 0.13669 0.84896 0.46252 0.0
H677 H 0.20268 0.83825 0.47571 0.0
H678 H 0.25072 0.85914 0.57548 0.0
H679 H 0.23249 0.84725 0.542 0.0
H680 H 0.15773 0.85463 0.54226 0.0
C681 C 0.14354 0.83288 0.45866 0.0
C682 C 0.1927 0.84204 0.49009 0.0
C683 C 0.13613 0.82158 0.43976 0.0
C684 C 0.23417 0.86518 0.57225 0.0
C685 C 0.22366 0.85842 0.55283 0.0
C686 C 0.16769 0.85172 0.52769 0.0
C687 C 0.16045 0.82391 0.47183 0.0
C688 C 0.17018 0.8365 0.49049 0.0
C689 C 0.2019 0.86512 0.54799 0.0
C690 C 0.19049 0.85668 0.52765 0.0
H691 H 0.16887 0.77583 0.444 0.0
H692 H 0.18205 0.79579 0.47641 0.0
H693 H 0.14022 0.83768 0.50992 0.0
H694 H 0.19262 0.89606 0.59435 0.0
H695 H 0.17449 0.88497 0.55995 0.0
C696 C 0.6478 0.95542 0.72917 0.0
C697 C 0.64366 0.93533 0.71819 0.0
C698 C 0.65393 0.97436 0.71734 0.0
C699 C 0.68147 0.99051 0.6656 0.0
H700 H 0.66409 0.04966 0.68316 0.0
C701 C 0.7333 0.06831 0.64559 0.0
C702 C 0.72242 0.08836 0.64103 0.0
C703 C 0.72133 0.0494 0.65154 0.0
C704 C 0.66893 0.03327 0.67781 0.0
H705 H 0.64186 0.91977 0.68596 0.0
H706 H 0.65251 0.95289 0.6653 0.0
H707 H 0.64628 0.01766 0.70018 0.0
H708 H 0.69024 0.10393 0.63837 0.0
H709 H 0.66933 0.07087 0.64874 0.0
H710 H 0.70438 1.00612 0.6435 0.0
C711 C 0.65118 0.95389 0.68313 0.0
C712 C 0.65886 0.01491 0.68775 0.0
C713 C 0.64487 0.93495 0.69497 0.0
C714 C 0.69917 0.08877 0.6417 0.0
C715 C 0.68718 0.06986 0.64785 0.0
C716 C 0.69164 1.00888 0.65577 0.0
C717 C 0.65622 0.97373 0.69421 0.0
C718 C 0.66525 0.99327 0.68204 0.0
C719 C 0.69815 0.05004 0.65325 0.0
C720 C 0.68576 0.03051 0.662 0.0
H721 H 0.64706 0.95636 0.74703 0.0
H722 H 0.65786 0.98925 0.72648 0.0
H723 H 0.68696 0.97413 0.66091 0.0
H724 H 0.75118 0.06735 0.64527 0.0
H725 H 0.73037 0.03453 0.65576 0.0
C726 C 0.93636 0.70051 0.64503 0.0
C727 C 0.93689 0.72377 0.64426 0.0
C728 C 0.95508 0.68847 0.65161 0.0
C729 C 0.01588 0.69243 0.66033 0.0
H730 H 1.0061 0.64773 0.70527 0.0
C731 C 0.08855 0.64402 0.7 0.0
C732 C 0.08826 0.64325 0.72325 0.0
C733 C 0.06978 0.6508 0.68815 0.0
C734 C 1.00912 0.66011 0.69269 0.0
H735 H 0.95792 0.75247 0.6488 0.0
H736 H 0.99047 0.73154 0.65997 0.0
H737 H 0.97449 0.66581 0.6878 0.0
H738 H 0.06758 0.64799 0.75214 0.0
H739 H 0.03494 0.65951 0.73155 0.0
H740 H 0.05052 0.68721 0.66569 0.0
C741 C 0.97563 0.72256 0.65552 0.0
C742 C 0.99099 0.67034 0.68251 0.0
C743 C 0.95689 0.73459 0.64917 0.0
C744 C 0.06842 0.64836 0.73426 0.0
C745 C 0.04963 0.65491 0.72242 0.0
C746 C 0.03401 0.68207 0.67038 0.0
C747 C 0.97484 0.69938 0.65734 0.0
C748 C 0.99412 0.68693 0.66648 0.0
C749 C 0.0502 0.65672 0.69924 0.0
C750 C 0.03088 0.66606 0.68698 0.0
H751 H 0.92123 0.69162 0.64145 0.0
H752 H 0.95397 0.67062 0.65259 0.0
H753 H 0.01891 0.705 0.64793 0.0
H754 H 0.10354 0.64029 0.69097 0.0
H755 H 0.07072 0.65177 0.6703 0.0
C756 C 0.37997 0.08754 0.69871 0.0
C757 C 0.37961 0.08922 0.72192 0.0
C758 C 0.37279 0.06813 0.68815 0.0
C759 C 0.33511 0.02137 0.69837 0.0
H760 H 0.36104 0.99546 0.64581 0.0
C761 C 0.289 0.95397 0.65043 0.0
C762 C 0.3011 0.93495 0.64473 0.0
C763 C 0.29976 0.97318 0.65744 0.0
C764 C 0.35365 1.00248 0.66052 0.0
H765 H 0.37278 0.07117 0.75218 0.0
H766 H 0.36059 0.03752 0.73388 0.0
H767 H 0.37887 0.02739 0.66342 0.0
H768 H 0.3342 0.92176 0.64078 0.0
H769 H 0.35304 0.95544 0.65307 0.0
H770 H 0.31006 0.99659 0.69575 0.0
C771 C 0.36595 0.05131 0.72377 0.0
C772 C 0.36378 0.02086 0.67052 0.0
C773 C 0.3731 0.07061 0.73428 0.0
C774 C 0.32435 0.9361 0.64501 0.0
C775 C 0.33516 0.95542 0.65205 0.0
C776 C 0.32496 1.00321 0.68835 0.0
C777 C 0.36506 0.05002 0.70058 0.0
C778 C 0.35467 0.03045 0.68966 0.0
C779 C 0.32295 0.97397 0.65899 0.0
C780 C 0.33403 0.99351 0.66927 0.0
H781 H 0.38483 0.10155 0.68866 0.0
H782 H 0.37229 0.06773 0.67026 0.0
H783 H 0.32743 0.02848 0.71289 0.0
H784 H 0.27109 0.95381 0.65025 0.0
H785 H 0.28984 0.98731 0.66218 0.0
C786 C 0.08612 0.32584 0.64153 0.0
C787 C 0.08753 0.3026 0.64205 0.0
C788 C 0.06682 0.33667 0.64859 0.0
C789 C 0.0204 0.32717 0.68665 0.0
H790 H 0.99436 0.37963 0.66052 0.0
C791 C 0.95414 0.37586 0.7333 0.0
C792 C 0.93476 0.38108 0.72155 0.0
C793 C 0.97318 0.36889 0.72224 0.0
C794 C 1.00143 0.36495 0.66796 0.0
H795 H 0.0691 0.27258 0.64895 0.0
H796 H 0.03567 0.29135 0.66097 0.0
H797 H 0.02599 0.36167 0.64245 0.0
H798 H 0.92076 0.38433 0.6887 0.0
H799 H 0.95417 0.37216 0.66932 0.0
H800 H 0.99603 0.3302 0.71203 0.0
C801 C 0.04958 0.30126 0.65556 0.0
C802 C 0.01962 0.35475 0.65769 0.0
C803 C 0.06875 0.29049 0.64851 0.0
C804 C 0.93538 0.38048 0.69829 0.0
C805 C 0.95454 0.3735 0.68717 0.0
C806 C 1.00246 0.33741 0.69695 0.0
C807 C 0.04858 0.32448 0.65637 0.0
C808 C 0.02923 0.33564 0.66688 0.0
C809 C 0.97343 0.36693 0.69908 0.0
C810 C 0.99273 0.35645 0.68781 0.0
H811 H 0.10027 0.33571 0.6367 0.0
H812 H 0.06662 0.35457 0.64903 0.0
H813 H 0.02754 0.31267 0.69438 0.0
H814 H 0.95439 0.37631 0.7512 0.0
H815 H 0.98758 0.36444 0.73192 0.0
C816 C 0.73757 0.95493 0.37459 0.0
C817 C 0.72578 0.93614 0.38161 0.0
C818 C 0.72647 0.97383 0.36721 0.0
C819 C 0.67196 1.00242 0.36478 0.0
H820 H 0.69689 0.02779 0.31145 0.0
C821 C 0.64243 0.08573 0.32533 0.0
C822 C 0.643 0.0874 0.30212 0.0
C823 C 0.65031 0.06668 0.33605 0.0
C824 C 0.68952 0.02084 0.32621 0.0
H825 H 0.69291 0.92305 0.38742 0.0
H826 H 0.67348 0.95609 0.37442 0.0
H827 H 0.71508 0.99663 0.32898 0.0
H828 H 0.65097 0.06964 0.27202 0.0
H829 H 0.66421 0.0365 0.29057 0.0
H830 H 0.64615 0.02663 0.36166 0.0
C831 C 0.69138 0.9562 0.37474 0.0
C832 C 0.70019 1.0031 0.3365 0.0
C833 C 0.70254 0.93723 0.3822 0.0
C834 C 0.65044 0.06907 0.28991 0.0
C835 C 0.65823 0.05008 0.30058 0.0
C836 C 0.66128 0.02031 0.35448 0.0
C837 C 0.70323 0.97451 0.36653 0.0
C838 C 0.69163 0.99364 0.35596 0.0
C839 C 0.65892 0.04886 0.3238 0.0
C840 C 0.66989 0.0297 0.33498 0.0
H841 H 0.75547 0.95481 0.37407 0.0
H842 H 0.73617 0.98778 0.36155 0.0
H843 H 0.66494 0.99562 0.37979 0.0
H844 H 0.63689 0.09954 0.33528 0.0
H845 H 0.65062 0.06638 0.35395 0.0
C846 C 0.95523 0.6482 0.28626 0.0
C847 C 0.93679 0.64085 0.29836 0.0
C848 C 0.97435 0.65545 0.29704 0.0
C849 C 1.00469 0.65683 0.35043 0.0
H850 H 0.02737 0.712 0.32685 0.0
C851 C 0.08832 0.69798 0.37708 0.0
C852 C 0.08882 0.72124 0.37791 0.0
C853 C 0.06927 0.68681 0.36984 0.0
C854 C 0.02119 0.69669 0.3338 0.0
H855 H 0.92458 0.63419 0.33141 0.0
H856 H 0.95808 0.64691 0.35028 0.0
H857 H 0.99603 0.69423 0.30913 0.0
H858 H 0.06908 0.75084 0.37324 0.0
H859 H 0.03606 0.73147 0.36099 0.0
H860 H 0.02998 0.65958 0.37528 0.0
C861 C 0.9577 0.647 0.33238 0.0
C862 C 1.00335 0.68631 0.32343 0.0
C863 C 0.93848 0.6397 0.32155 0.0
C864 C 0.06943 0.73294 0.37262 0.0
C865 C 0.05048 0.72182 0.36542 0.0
C866 C 0.02275 0.66719 0.36078 0.0
C867 C 0.97561 0.65561 0.32025 0.0
C868 C 0.99485 0.66624 0.33154 0.0
C869 C 0.05035 0.69867 0.36325 0.0
C870 C 0.03114 0.68734 0.35263 0.0
H871 H 0.95466 0.64914 0.26839 0.0
H872 H 0.988 0.66149 0.28714 0.0
H873 H 0.99859 0.64135 0.35707 0.0
H874 H 0.10296 0.68844 0.38097 0.0
H875 H 0.06976 0.66897 0.36834 0.0
C876 C 0.37674 0.95488 0.29171 0.0
C877 C 0.38126 0.93491 0.30277 0.0
C878 C 0.37088 0.9739 0.30351 0.0
C879 C 0.34484 0.99052 0.35585 0.0
H880 H 0.36202 0.04948 0.33733 0.0
C881 C 0.29409 0.06874 0.37673 0.0
C882 C 0.30522 0.08876 0.38078 0.0
C883 C 0.30575 0.04972 0.37061 0.0
C884 C 0.35725 0.03315 0.34295 0.0
H885 H 0.38395 0.91962 0.33509 0.0
H886 H 0.37374 0.95287 0.3557 0.0
H887 H 0.37917 0.0173 0.32006 0.0
H888 H 0.33758 0.10414 0.38241 0.0
H889 H 0.35796 0.07088 0.37175 0.0
H890 H 0.32267 1.00637 0.37848 0.0
C891 C 0.37458 0.95372 0.33784 0.0
C892 C 0.36693 0.01468 0.33287 0.0
C893 C 0.38063 0.93471 0.32602 0.0
C894 C 0.32845 0.08901 0.37947 0.0
C895 C 0.34013 0.06999 0.37316 0.0
C896 C 0.33506 1.00899 0.36583 0.0
C897 C 0.36922 0.97346 0.3267 0.0
C898 C 0.3606 0.99311 0.33893 0.0
C899 C 0.32888 0.0502 0.36823 0.0
C900 C 0.34087 0.03056 0.35927 0.0
H901 H 0.37703 0.95568 0.27382 0.0
H902 H 0.36668 0.9887 0.29434 0.0
H903 H 0.33942 0.97419 0.36083 0.0
H904 H 0.27622 0.0679 0.37755 0.0
H905 H 0.29649 0.03488 0.36677 0.0
C906 C 0.08723 0.37803 0.32425 0.0
C907 C 0.08814 0.37888 0.30101 0.0
C908 C 0.06802 0.37072 0.33507 0.0
C909 C 0.01979 0.33494 0.32426 0.0
H910 H 0.99739 0.35751 0.37989 0.0
C911 C 0.95307 0.28739 0.37188 0.0
C912 C 0.93504 0.29966 0.37993 0.0
C913 C 0.97227 0.298 0.36459 0.0
C914 C 1.0034 0.35108 0.36431 0.0
H915 H 0.06898 0.37418 0.27106 0.0
H916 H 0.03561 0.36188 0.28982 0.0
H917 H 0.02887 0.37576 0.36199 0.0
H918 H 0.92364 0.33275 0.38769 0.0
H919 H 0.95722 0.35131 0.37484 0.0
H920 H 0.99436 0.3105 0.32627 0.0
C921 C 0.04986 0.36631 0.29973 0.0
C922 C 0.02154 0.36143 0.35414 0.0
C923 C 0.06899 0.37354 0.28896 0.0
C924 C 0.93721 0.32277 0.38164 0.0
C925 C 0.95649 0.33342 0.37428 0.0
C926 C 1.00182 0.32458 0.33443 0.0
C927 C 0.04932 0.36411 0.32287 0.0
C928 C 0.0299 0.35353 0.33391 0.0
C929 C 0.97401 0.32119 0.36506 0.0
C930 C 0.99338 0.33243 0.35461 0.0
H931 H 0.10168 0.38195 0.33407 0.0
H932 H 0.06823 0.3692 0.3529 0.0
H933 H 0.02594 0.32814 0.30889 0.0
H934 H 0.9521 0.26956 0.37049 0.0
H935 H 0.98562 0.288 0.3581 0.0
C936 C 0.69633 0.64559 0.93508 0.0
C937 C 0.71956 0.64446 0.93525 0.0
C938 C 0.68465 0.65165 0.95417 0.0
C939 C 0.68965 0.6582 0.01517 0.0
H940 H 0.64524 0.7038 1.00754 0.0
C941 C 0.64314 0.69614 0.08987 0.0
C942 C 0.64254 0.7194 0.09019 0.0
C943 C 0.64941 0.68476 0.07066 0.0
C944 C 0.65756 0.69103 1.00996 0.0
H945 H 0.74861 0.6478 0.95603 0.0
H946 H 0.72832 0.65814 0.98921 0.0
H947 H 0.66263 0.68722 0.97512 0.0
H948 H 0.64703 0.74883 0.07017 0.0
H949 H 0.65771 0.72906 0.03678 0.0
H950 H 0.68508 0.66251 0.05003 0.0
C951 C 0.71906 0.65435 0.97436 0.0
C952 C 0.66738 0.68136 0.99136 0.0
C953 C 0.73073 0.64849 0.95526 0.0
C954 C 0.6473 0.73092 0.07054 0.0
C955 C 0.65335 0.71956 0.05133 0.0
C956 C 0.6797 0.66775 0.03377 0.0
C957 C 0.69591 0.6565 0.97396 0.0
C958 C 0.68386 0.6651 0.99372 0.0
C959 C 0.65499 0.69636 0.05125 0.0
C960 C 0.66382 0.68459 0.03143 0.0
H961 H 0.68717 0.64266 0.91997 0.0
H962 H 0.66681 0.6529 0.95335 0.0
H963 H 0.70213 0.64559 0.0176 0.0
H964 H 0.63965 0.68672 0.1047 0.0
H965 H 0.65025 0.66688 0.0711 0.0
C966 C 0.32931 0.64391 0.08912 0.0
C967 C 0.30607 0.64276 0.08885 0.0
C968 C 0.34107 0.64988 0.07003 0.0
C969 C 0.33605 0.65651 1.00892 0.0
H970 H 0.38085 0.70175 0.01658 0.0
C971 C 0.38164 0.69519 0.93397 0.0
C972 C 0.38265 0.71844 0.93402 0.0
C973 C 0.3756 0.68356 0.95313 0.0
C974 C 0.36842 0.68909 0.01413 0.0
H975 H 0.27713 0.64596 0.06791 0.0
H976 H 0.29753 0.65619 0.03479 0.0
H977 H 0.36352 0.68506 0.04898 0.0
H978 H 0.37913 0.74755 0.95465 0.0
H979 H 0.36879 0.72738 0.98789 0.0
H980 H 0.34037 0.66112 0.97406 0.0
C981 C 0.30674 0.65246 0.04969 0.0
C982 C 0.35863 0.67934 0.03274 0.0
C983 C 0.295 0.64666 0.06877 0.0
C984 C 0.37854 0.72966 0.95397 0.0
C985 C 0.37268 0.71806 0.97311 0.0
C986 C 0.34593 0.66618 0.99031 0.0
C987 C 0.3299 0.65464 0.05016 0.0
C988 C 0.342 0.66322 0.03039 0.0
C989 C 0.37062 0.69489 0.97285 0.0
C990 C 0.36194 0.68291 0.99266 0.0
H991 H 0.33839 0.64107 0.1043 0.0
H992 H 0.35891 0.65114 0.07092 0.0
H993 H 0.32348 0.644 1.00647 0.0
H994 H 0.38463 0.686 0.91891 0.0
H995 H 0.37445 0.66571 0.9524 0.0
C996 C 0.32294 0.38026 0.93617 0.0
C997 C 0.29968 0.3805 0.93577 0.0
C998 C 0.33438 0.37341 0.95517 0.0
C999 C 0.35179 0.34206 0.99109 0.0
H1000 H 0.33293 0.35796 0.05024 0.0
C1001 C 0.37349 0.29067 0.06901 0.0
C1002 C 0.37815 0.30189 0.08884 0.0
C1003 C 0.36684 0.30227 0.0501 0.0
C1004 C 0.3386 0.35352 0.03385 0.0
H1005 H 0.27029 0.37467 0.95547 0.0
H1006 H 0.29019 0.36308 0.98856 0.0
H1007 H 0.31555 0.37553 0.01826 0.0
H1008 H 0.38009 0.33432 0.10402 0.0
H1009 H 0.36838 0.35455 0.071 0.0
H1010 H 0.37452 0.31973 1.00667 0.0
C1011 C 0.29962 0.36813 0.9742 0.0
C1012 C 0.32848 0.36345 0.01551 0.0
C1013 C 0.2882 0.37473 0.95517 0.0
C1014 C 0.37674 0.32512 0.08903 0.0
C1015 C 0.36983 0.33672 0.07015 0.0
C1016 C 0.36175 0.33196 1.00943 0.0
C1017 C 0.32285 0.3669 0.9743 0.0
C1018 C 0.33478 0.35768 0.99388 0.0
C1019 C 0.36443 0.3254 0.05055 0.0
C1020 C 0.35512 0.33739 0.03105 0.0
H1021 H 0.33234 0.3845 0.92153 0.0
H1022 H 0.35227 0.37289 0.95476 0.0
H1023 H 0.35693 0.33706 0.97469 0.0
H1024 H 0.37435 0.27279 0.06825 0.0
H1025 H 0.36266 0.29299 0.03537 0.0
C1026 C 0.69528 0.38531 0.08611 0.0
C1027 C 0.7185 0.38433 0.08712 0.0
C1028 C 0.684 0.37909 0.06681 0.0
C1029 C 0.69125 0.36839 1.00666 0.0
H1030 H 0.64272 0.32719 0.01443 0.0
C1031 C 0.64549 0.32981 0.93178 0.0
C1032 C 0.64313 0.30668 0.93273 0.0
C1033 C 0.65161 0.34184 0.95065 0.0
C1034 C 0.65619 0.33874 1.01196 0.0
H1035 H 0.74806 0.37702 0.06819 0.0
H1036 H 0.72848 0.36645 0.03463 0.0
H1037 H 0.65989 0.34422 0.04676 0.0
H1038 H 0.64425 0.27827 0.95461 0.0
H1039 H 0.65462 0.2992 0.9874 0.0
H1040 H 0.68801 0.36237 0.9719 0.0
C1041 C 0.71893 0.372 0.04871 0.0
C1042 C 0.66591 0.34867 0.0305 0.0
C1043 C 0.73017 0.37799 0.06803 0.0
C1044 C 0.64591 0.29606 0.95325 0.0
C1045 C 0.65179 0.30809 0.97211 0.0
C1046 C 0.68141 0.35859 0.98811 0.0
C1047 C 0.69569 0.37199 0.04798 0.0
C1048 C 0.68385 0.3633 0.02812 0.0
C1049 C 0.65525 0.33107 0.97096 0.0
C1050 C 0.66403 0.34331 0.99054 0.0
H1051 H 0.68574 0.39003 0.1005 0.0
H1052 H 0.6661 0.37951 0.06674 0.0
H1053 H 0.7049 0.37973 1.0042 0.0
H1054 H 0.64357 0.33853 0.91625 0.0
H1055 H 0.6539 0.35955 0.94924 0.0
C1056 C 0.13974 0.30167 0.27746 0.0
C1057 C 0.14682 0.31236 0.25814 0.0
C1058 C 0.15274 0.28527 0.28722 0.0
C1059 C 0.21166 0.27232 0.29256 0.0
H1060 H 0.18969 0.22467 0.32934 0.0
C1061 C 0.26601 0.21326 0.34694 0.0
C1062 C 0.2565 0.20632 0.36698 0.0
C1063 C 0.25423 0.22717 0.33259 0.0
C1064 C 0.19607 0.23809 0.31933 0.0
H1065 H 0.17223 0.3133 0.23298 0.0
H1066 H 0.1948 0.28419 0.24973 0.0
H1067 H 0.16479 0.24294 0.30354 0.0
H1068 H 0.22828 0.20987 0.38861 0.0
H1069 H 0.20822 0.23494 0.36422 0.0
H1070 H 0.24298 0.26744 0.3086 0.0
C1071 C 0.17925 0.28857 0.25744 0.0
C1072 C 0.18181 0.24846 0.30442 0.0
C1073 C 0.16607 0.30486 0.24755 0.0
C1074 C 0.23613 0.2153 0.37344 0.0
C1075 C 0.22445 0.22925 0.35924 0.0
C1076 C 0.22601 0.26183 0.30746 0.0
C1077 C 0.17326 0.27939 0.27798 0.0
C1078 C 0.18925 0.26606 0.29119 0.0
C1079 C 0.2328 0.23431 0.33813 0.0
C1080 C 0.2182 0.24498 0.32142 0.0
H1081 H 0.12529 0.3076 0.28625 0.0
H1082 H 0.14762 0.27875 0.30309 0.0
H1083 H 0.21792 0.28599 0.28284 0.0
H1084 H 0.28138 0.20601 0.34127 0.0
H1085 H 0.26111 0.23076 0.31645 0.0
C1086 C 0.80215 0.24299 0.38255 0.0
C1087 C 0.81264 0.26238 0.37538 0.0
C1088 C 0.78613 0.2328 0.36942 0.0
C1089 C 0.77395 0.22667 0.31034 0.0
H1090 H 0.72658 0.18945 0.3322 0.0
C1091 C 0.7144 0.17246 0.25644 0.0
C1092 C 0.70751 0.15243 0.266 0.0
C1093 C 0.72871 0.1866 0.26796 0.0
C1094 C 0.73993 0.19958 0.32587 0.0
H1095 H 0.81362 0.28721 0.34963 0.0
H1096 H 0.78514 0.26975 0.32682 0.0
H1097 H 0.74436 0.21561 0.35706 0.0
H1098 H 0.7117 0.13046 0.29389 0.0
H1099 H 0.73746 0.1545 0.3135 0.0
H1100 H 0.76937 0.21046 0.27907 0.0
C1101 C 0.78937 0.2623 0.34255 0.0
C1102 C 0.75003 0.21469 0.3401 0.0
C1103 C 0.80529 0.27261 0.35586 0.0
C1104 C 0.71709 0.14563 0.286 0.0
C1105 C 0.73144 0.15963 0.29742 0.0
C1106 C 0.7637 0.2116 0.29602 0.0
C1107 C 0.78043 0.2417 0.34868 0.0
C1108 C 0.76749 0.22811 0.33269 0.0
C1109 C 0.73632 0.18082 0.28917 0.0
C1110 C 0.74695 0.1975 0.30379 0.0
H1111 H 0.80801 0.23447 0.3972 0.0
H1112 H 0.77978 0.21689 0.37466 0.0
H1113 H 0.78754 0.23652 0.30412 0.0
H1114 H 0.70672 0.17839 0.24137 0.0
H1115 H 0.73217 0.20282 0.26118 0.0
C1116 C 0.88157 0.71688 0.2827 0.0
C1117 C 0.8742 0.70765 0.26276 0.0
C1118 C 0.86885 0.73269 0.2937 0.0
C1119 C 0.84111 0.7696 0.31272 0.0
H1120 H 0.77924 0.75301 0.31669 0.0
C1121 C 0.78803 0.80568 0.38115 0.0
C1122 C 0.76823 0.81558 0.37424 0.0
C1123 C 0.79905 0.79076 0.36742 0.0
C1124 C 0.79644 0.75792 0.31565 0.0
H1125 H 0.84833 0.7084 0.23806 0.0
H1126 H 0.82618 0.73647 0.25703 0.0
H1127 H 0.80348 0.73398 0.2905 0.0
H1128 H 0.74359 0.81649 0.34832 0.0
H1129 H 0.76268 0.79015 0.32435 0.0
H1130 H 0.83424 0.79324 0.33803 0.0
C1131 C 0.84181 0.73147 0.26421 0.0
C1132 C 0.81031 0.74716 0.30051 0.0
C1133 C 0.85473 0.71579 0.25308 0.0
C1134 C 0.75847 0.80855 0.35436 0.0
C1135 C 0.76961 0.79371 0.34047 0.0
C1136 C 0.82731 0.78023 0.32786 0.0
C1137 C 0.84829 0.7394 0.28512 0.0
C1138 C 0.83292 0.75265 0.29911 0.0
C1139 C 0.79063 0.78566 0.34635 0.0
C1140 C 0.80491 0.77426 0.32983 0.0
H1141 H 0.89618 0.71038 0.2908 0.0
H1142 H 0.87431 0.73821 0.30983 0.0
H1143 H 0.85831 0.77452 0.31184 0.0
H1144 H 0.7961 0.81118 0.39617 0.0
H1145 H 0.81496 0.78442 0.37266 0.0
C1146 C 0.3028 0.88575 0.27752 0.0
C1147 C 0.31334 0.87871 0.25813 0.0
C1148 C 0.2866 0.87262 0.28747 0.0
C1149 C 0.27417 0.81356 0.29303 0.0
H1150 H 0.22646 0.83511 0.32989 0.0
C1151 C 0.2148 0.75871 0.34643 0.0
C1152 C 0.20755 0.76806 0.36642 0.0
C1153 C 0.22901 0.77059 0.33247 0.0
C1154 C 0.23991 0.82886 0.31987 0.0
H1155 H 0.31425 0.85324 0.23304 0.0
H1156 H 0.28552 0.83043 0.2501 0.0
H1157 H 0.24453 0.86021 0.30414 0.0
H1158 H 0.21092 0.796 0.38844 0.0
H1159 H 0.23646 0.81624 0.36469 0.0
H1160 H 0.26947 0.78215 0.30897 0.0
C1161 C 0.28982 0.84605 0.25773 0.0
C1162 C 0.25017 0.84323 0.30499 0.0
C1163 C 0.30589 0.85937 0.24765 0.0
C1164 C 0.21657 0.78829 0.37329 0.0
C1165 C 0.2308 0.80007 0.35945 0.0
C1166 C 0.26379 0.7991 0.3079 0.0
C1167 C 0.28081 0.85201 0.27833 0.0
C1168 C 0.26774 0.83593 0.29169 0.0
C1169 C 0.23613 0.79195 0.33834 0.0
C1170 C 0.24689 0.80675 0.32186 0.0
H1171 H 0.30872 0.90025 0.28623 0.0
H1172 H 0.2802 0.87771 0.30338 0.0
H1173 H 0.28786 0.80742 0.28327 0.0
H1174 H 0.20756 0.74345 0.34045 0.0
H1175 H 0.23286 0.76388 0.31634 0.0
C1176 C 0.16641 0.71767 0.77521 0.0
C1177 C 0.14693 0.71014 0.76504 0.0
C1178 C 0.17979 0.73339 0.76466 0.0
C1179 C 0.18232 0.77219 0.71666 0.0
H1180 H 0.24351 0.75323 0.71297 0.0
C1181 C 0.23692 0.80565 0.64813 0.0
C1182 C 0.25696 0.81506 0.65504 0.0
C1183 C 0.22534 0.79128 0.662 0.0
C1184 C 0.22652 0.7588 0.71395 0.0
H1185 H 0.12532 0.71414 0.73688 0.0
H1186 H 0.14798 0.74205 0.71887 0.0
H1187 H 0.21839 0.73503 0.73895 0.0
H1188 H 0.28151 0.81552 0.68107 0.0
H1189 H 0.26145 0.78998 0.70524 0.0
H1190 H 0.19026 0.79561 0.69142 0.0
C1191 C 0.15311 0.736 0.73493 0.0
C1192 C 0.21215 0.74853 0.72897 0.0
C1193 C 0.13992 0.72016 0.74535 0.0
C1194 C 0.2664 0.80799 0.67506 0.0
C1195 C 0.25472 0.79364 0.68906 0.0
C1196 C 0.19661 0.78233 0.70162 0.0
C1197 C 0.17376 0.74195 0.74387 0.0
C1198 C 0.18975 0.75485 0.73022 0.0
C1199 C 0.23348 0.7862 0.68318 0.0
C1200 C 0.21875 0.77547 0.69974 0.0
H1201 H 0.17252 0.70967 0.79004 0.0
H1202 H 0.19545 0.73781 0.77213 0.0
H1203 H 0.16532 0.77774 0.71744 0.0
H1204 H 0.22913 0.81113 0.63294 0.0
H1205 H 0.20926 0.78536 0.65676 0.0
C1206 C 0.30685 0.17042 0.77299 0.0
C1207 C 0.31398 0.15084 0.76274 0.0
C1208 C 0.29092 0.18383 0.7628 0.0
C1209 C 0.25109 0.18632 0.71552 0.0
H1210 H 0.26986 0.24758 0.71162 0.0
C1211 C 0.21782 0.24067 0.64671 0.0
C1212 C 0.20796 0.26049 0.65359 0.0
C1213 C 0.23219 0.22927 0.66073 0.0
C1214 C 0.26434 0.23057 0.71266 0.0
H1215 H 0.30903 0.1291 0.73485 0.0
H1216 H 0.28084 0.15183 0.71747 0.0
H1217 H 0.2884 0.22248 0.73736 0.0
H1218 H 0.20664 0.28484 0.67976 0.0
H1219 H 0.2322 0.26513 0.7042 0.0
H1220 H 0.22745 0.19421 0.69045 0.0
C1221 C 0.28733 0.15702 0.73332 0.0
C1222 C 0.27481 0.2162 0.72756 0.0
C1223 C 0.30335 0.14379 0.74339 0.0
C1224 C 0.21456 0.26993 0.67377 0.0
C1225 C 0.22892 0.25845 0.68791 0.0
C1226 C 0.24078 0.20059 0.70057 0.0
C1227 C 0.28175 0.17776 0.74228 0.0
C1228 C 0.26858 0.19376 0.72887 0.0
C1229 C 0.23683 0.23739 0.68201 0.0
C1230 C 0.24759 0.22275 0.69861 0.0
H1231 H 0.31529 0.17657 0.78756 0.0
H1232 H 0.28681 0.19955 0.77031 0.0
H1233 H 0.24555 0.1693 0.71636 0.0
H1234 H 0.21266 0.23285 0.63144 0.0
H1235 H 0.23843 0.21331 0.65553 0.0
C1236 C 0.79274 0.21443 0.64786 0.0
C1237 C 0.77207 0.20584 0.65393 0.0
C1238 C 0.80412 0.22869 0.662 0.0
C1239 C 0.80111 0.26263 0.7129 0.0
H1240 H 0.86212 0.24376 0.71921 0.0
C1241 C 0.85881 0.30572 0.77492 0.0
C1242 C 0.8785 0.3132 0.76513 0.0
C1243 C 0.84598 0.28949 0.76448 0.0
C1244 C 0.84516 0.24928 0.71765 0.0
H1245 H 0.74641 0.20648 0.67884 0.0
H1246 H 0.76617 0.23172 0.70355 0.0
H1247 H 0.83807 0.22511 0.69287 0.0
H1248 H 0.90109 0.30851 0.73788 0.0
H1249 H 0.8794 0.27967 0.72015 0.0
H1250 H 0.8084 0.28714 0.7374 0.0
C1251 C 0.77351 0.22762 0.68775 0.0
C1252 C 0.83139 0.23869 0.70243 0.0
C1253 C 0.76203 0.21342 0.67345 0.0
C1254 C 0.88632 0.30255 0.74609 0.0
C1255 C 0.87367 0.28619 0.7358 0.0
C1256 C 0.81496 0.27332 0.72811 0.0
C1257 C 0.79518 0.23444 0.68267 0.0
C1258 C 0.80933 0.24551 0.69952 0.0
C1259 C 0.85277 0.28034 0.7442 0.0
C1260 C 0.83728 0.26702 0.73039 0.0
H1261 H 0.80099 0.20851 0.6331 0.0
H1262 H 0.82055 0.2341 0.65735 0.0
H1263 H 0.7842 0.26823 0.7111 0.0
H1264 H 0.85207 0.31417 0.7892 0.0
H1265 H 0.8301 0.28517 0.77155 0.0
C1266 C 0.81033 0.79328 0.64847 0.0
C1267 C 0.81908 0.77281 0.65498 0.0
C1268 C 0.79603 0.80485 0.66241 0.0
C1269 C 0.78631 0.83286 0.70237 0.0
H1270 H 0.73804 0.81054 0.73806 0.0
C1271 C 0.7226 0.88858 0.74502 0.0
C1272 C 0.71185 0.88107 0.76414 0.0
C1273 C 0.73903 0.87579 0.73505 0.0
C1274 C 0.75181 0.81692 0.72857 0.0
H1275 H 0.81865 0.74767 0.68045 0.0
H1276 H 0.79335 0.76774 0.70478 0.0
H1277 H 0.75678 0.78585 0.71213 0.0
H1278 H 0.71088 0.85513 0.78877 0.0
H1279 H 0.74 0.83291 0.77168 0.0
H1280 H 0.78137 0.86391 0.71858 0.0
C1281 C 0.79734 0.77478 0.68881 0.0
C1282 C 0.7624 0.80279 0.71356 0.0
C1283 C 0.81158 0.7631 0.67471 0.0
C1284 C 0.71937 0.86163 0.77439 0.0
C1285 C 0.73567 0.84864 0.76428 0.0
C1286 C 0.77582 0.84692 0.71738 0.0
C1287 C 0.79041 0.7963 0.68329 0.0
C1288 C 0.77943 0.81076 0.69992 0.0
C1289 C 0.74486 0.85505 0.74388 0.0
C1290 C 0.75814 0.83929 0.73037 0.0
H1291 H 0.81621 0.80129 0.63356 0.0
H1292 H 0.79054 0.82116 0.65744 0.0
H1293 H 0.79984 0.83937 0.6926 0.0
H1294 H 0.71663 0.90316 0.73647 0.0
H1295 H 0.74558 0.88123 0.7193 0.0
C1296 C 0.25004 0.16452 0.30646 0.0
C1297 C 0.25966 0.14447 0.31322 0.0
C1298 C 0.26102 0.17828 0.29135 0.0
C1299 C 0.28834 0.20308 0.25556 0.0
H1300 H 0.34985 0.20611 0.27359 0.0
C1301 C 0.34844 0.26529 0.21508 0.0
C1302 C 0.36815 0.25552 0.20765 0.0
C1303 C 0.3349 0.2542 0.2303 0.0
C1304 C 0.33277 0.20544 0.26823 0.0
H1305 H 0.28681 0.12191 0.30775 0.0
H1306 H 0.3054 0.14526 0.28062 0.0
H1307 H 0.32514 0.17983 0.29136 0.0
H1308 H 0.38986 0.22737 0.21117 0.0
H1309 H 0.36688 0.20839 0.23813 0.0
H1310 H 0.29617 0.22846 0.23207 0.0
C1311 C 0.28973 0.15071 0.28736 0.0
C1312 C 0.31861 0.19026 0.27834 0.0
C1313 C 0.27884 0.13708 0.3025 0.0
C1314 C 0.37506 0.23552 0.21713 0.0
C1315 C 0.36171 0.22456 0.23245 0.0
C1316 C 0.30261 0.21822 0.24527 0.0
C1317 C 0.28172 0.17206 0.28279 0.0
C1318 C 0.29634 0.18858 0.27185 0.0
C1319 C 0.34097 0.23325 0.23845 0.0
C1320 C 0.32512 0.21932 0.25125 0.0
H1321 H 0.23563 0.17091 0.31497 0.0
H1322 H 0.2544 0.19461 0.28814 0.0
H1323 H 0.27123 0.20229 0.25033 0.0
H1324 H 0.3424 0.28036 0.20748 0.0
H1325 H 0.31917 0.26149 0.23475 0.0
C1326 C 0.87613 0.28682 0.30542 0.0
C1327 C 0.86928 0.26654 0.31434 0.0
C1328 C 0.86304 0.29783 0.28993 0.0
C1329 C 0.8043 0.30373 0.27594 0.0
H1330 H 0.82718 0.34229 0.23016 0.0
C1331 C 0.75117 0.35696 0.21513 0.0
C1332 C 0.76054 0.37702 0.20806 0.0
C1333 C 0.76257 0.3433 0.22999 0.0
C1334 C 0.82055 0.33184 0.24311 0.0
H1335 H 0.84393 0.24129 0.31337 0.0
H1336 H 0.8211 0.26034 0.28585 0.0
H1337 H 0.85186 0.31631 0.2484 0.0
H1338 H 0.78794 0.39954 0.21245 0.0
H1339 H 0.80724 0.37643 0.2393 0.0
H1340 H 0.77289 0.3194 0.27049 0.0
C1341 C 0.83661 0.26776 0.29086 0.0
C1342 C 0.83469 0.31681 0.25346 0.0
C1343 C 0.84992 0.2566 0.30623 0.0
C1344 C 0.78015 0.38438 0.218 0.0
C1345 C 0.79143 0.37088 0.23297 0.0
C1346 C 0.79007 0.31875 0.26547 0.0
C1347 C 0.8426 0.28894 0.28323 0.0
C1348 C 0.82688 0.30282 0.27028 0.0
C1349 C 0.78347 0.34961 0.23804 0.0
C1350 C 0.79816 0.3333 0.24924 0.0
H1351 H 0.89068 0.29507 0.31188 0.0
H1352 H 0.86812 0.31417 0.28462 0.0
H1353 H 0.79776 0.2934 0.28904 0.0
H1354 H 0.73644 0.35058 0.20714 0.0
H1355 H 0.75599 0.32702 0.23352 0.0
C1356 C 0.67366 0.75546 0.21652 0.0
C1357 C 0.6536 0.76484 0.20948 0.0
C1358 C 0.68755 0.76705 0.23102 0.0
C1359 C 0.69969 0.82512 0.24334 0.0
H1360 H 0.73708 0.80264 0.29024 0.0
C1361 C 0.74365 0.88103 0.30607 0.0
C1362 C 0.76357 0.87405 0.31565 0.0
C1363 C 0.73301 0.86794 0.29031 0.0
C1364 C 0.72707 0.80908 0.27686 0.0
H1365 H 0.63142 0.79257 0.21344 0.0
H1366 H 0.65498 0.81226 0.23958 0.0
H1367 H 0.71123 0.77772 0.27158 0.0
H1368 H 0.78863 0.84852 0.31555 0.0
H1369 H 0.77029 0.82573 0.28758 0.0
H1370 H 0.71536 0.85641 0.2485 0.0
C1371 C 0.66033 0.79627 0.23354 0.0
C1372 C 0.71213 0.79482 0.26632 0.0
C1373 C 0.64659 0.78479 0.21897 0.0
C1374 C 0.77363 0.85462 0.30789 0.0
C1375 C 0.76285 0.84133 0.29226 0.0
C1376 C 0.71464 0.83929 0.25375 0.0
C1377 C 0.68151 0.78817 0.23869 0.0
C1378 C 0.69792 0.80282 0.24976 0.0
C1379 C 0.74193 0.84739 0.28401 0.0
C1380 C 0.72825 0.8316 0.27094 0.0
H1381 H 0.67976 0.74045 0.20888 0.0
H1382 H 0.70376 0.76037 0.23464 0.0
H1383 H 0.68948 0.83167 0.23015 0.0
H1384 H 0.73528 0.8956 0.31228 0.0
H1385 H 0.71687 0.87308 0.28453 0.0
C1386 C 0.23592 0.65088 0.21474 0.0
C1387 C 0.25644 0.65735 0.20607 0.0
C1388 C 0.22411 0.66502 0.22862 0.0
C1389 C 0.22547 0.71638 0.26171 0.0
H1390 H 0.16461 0.72105 0.24189 0.0
C1391 C 0.16555 0.77651 0.30426 0.0
C1392 C 0.14604 0.76609 0.31136 0.0
C1393 C 0.17887 0.7666 0.28812 0.0
C1394 C 0.18152 0.71995 0.24768 0.0
H1395 H 0.28141 0.68299 0.20623 0.0
H1396 H 0.26092 0.70769 0.23089 0.0
H1397 H 0.18958 0.69524 0.22375 0.0
H1398 H 0.12422 0.73831 0.30603 0.0
H1399 H 0.14677 0.72146 0.27737 0.0
H1400 H 0.21721 0.74073 0.28602 0.0
C1401 C 0.25402 0.69159 0.22709 0.0
C1402 C 0.19582 0.70505 0.23737 0.0
C1403 C 0.26593 0.67731 0.21324 0.0
C1404 C 0.13886 0.74698 0.30038 0.0
C1405 C 0.15199 0.73721 0.28411 0.0
C1406 C 0.21109 0.73126 0.27214 0.0
C1407 C 0.23248 0.68605 0.23393 0.0
C1408 C 0.21783 0.70272 0.24457 0.0
C1409 C 0.17275 0.74622 0.27867 0.0
C1410 C 0.1888 0.73292 0.26551 0.0
H1411 H 0.2281 0.63576 0.20913 0.0
H1412 H 0.20779 0.66006 0.23406 0.0
H1413 H 0.24234 0.71503 0.26757 0.0
H1414 H 0.1718 0.79088 0.31295 0.0
H1415 H 0.19462 0.77414 0.2841 0.0
C1416 C 0.37402 0.78729 0.8074 0.0
C1417 C 0.36778 0.76678 0.81627 0.0
C1418 C 0.35971 0.79886 0.79347 0.0
C1419 C 0.30828 0.79686 0.76054 0.0
H1420 H 0.30293 0.85769 0.78025 0.0
C1421 C 0.24748 0.85612 0.71783 0.0
C1422 C 0.25761 0.87582 0.71083 0.0
C1423 C 0.25755 0.84287 0.73396 0.0
C1424 C 0.30421 0.84079 0.77449 0.0
H1425 H 0.34238 0.74155 0.81639 0.0
H1426 H 0.3174 0.76163 0.79164 0.0
H1427 H 0.32907 0.83304 0.79841 0.0
H1428 H 0.28509 0.898 0.71628 0.0
H1429 H 0.30223 0.87556 0.74488 0.0
H1430 H 0.28381 0.80481 0.73622 0.0
C1431 C 0.33344 0.7687 0.79533 0.0
C1432 C 0.3193 0.82667 0.78481 0.0
C1433 C 0.34789 0.75703 0.80923 0.0
C1434 C 0.27663 0.88321 0.72185 0.0
C1435 C 0.28657 0.87014 0.73809 0.0
C1436 C 0.29323 0.81106 0.75009 0.0
C1437 C 0.33874 0.79025 0.7883 0.0
C1438 C 0.32188 0.80469 0.77766 0.0
C1439 C 0.27783 0.84924 0.74348 0.0
C1440 C 0.29132 0.83334 0.75666 0.0
H1441 H 0.38907 0.7953 0.8129 0.0
H1442 H 0.36448 0.8152 0.7879 0.0
H1443 H 0.30982 0.77999 0.75472 0.0
H1444 H 0.23319 0.84972 0.70911 0.0
H1445 H 0.25022 0.82701 0.73793 0.0
C1446 C 0.23616 0.38022 0.80597 0.0
C1447 C 0.25618 0.37352 0.81554 0.0
C1448 C 0.22567 0.36698 0.79024 0.0
C1449 C 0.20735 0.33797 0.75399 0.0
H1450 H 0.20531 0.27632 0.77177 0.0
C1451 C 0.14013 0.28248 0.7195 0.0
C1452 C 0.14769 0.26303 0.70942 0.0
C1453 C 0.1536 0.29394 0.73435 0.0
C1454 C 0.20581 0.29345 0.76654 0.0
H1455 H 0.28163 0.34838 0.81533 0.0
H1456 H 0.26358 0.32536 0.78736 0.0
H1457 H 0.23094 0.30169 0.79013 0.0
H1458 H 0.1744 0.23925 0.70834 0.0
H1459 H 0.19786 0.25905 0.73462 0.0
H1460 H 0.182 0.32991 0.73074 0.0
C1461 C 0.25591 0.34083 0.79207 0.0
C1462 C 0.22064 0.30797 0.7769 0.0
C1463 C 0.26652 0.35427 0.8077 0.0
C1464 C 0.16788 0.25387 0.7164 0.0
C1465 C 0.18148 0.26543 0.73119 0.0
C1466 C 0.1925 0.32353 0.74378 0.0
C1467 C 0.23486 0.34656 0.78393 0.0
C1468 C 0.22132 0.33051 0.77099 0.0
C1469 C 0.175 0.28626 0.73924 0.0
C1470 C 0.19122 0.3012 0.7502 0.0
H1471 H 0.22757 0.39465 0.81223 0.0
H1472 H 0.20942 0.37188 0.78453 0.0
H1473 H 0.20769 0.35509 0.74873 0.0
H1474 H 0.12485 0.2901 0.71407 0.0
H1475 H 0.14792 0.30969 0.74071 0.0
C1476 C 0.7766 0.16364 0.717 0.0
C1477 C 0.76613 0.14438 0.70933 0.0
C1478 C 0.76649 0.17679 0.73316 0.0
C1479 C 0.71961 0.17906 0.77314 0.0
H1480 H 0.71518 0.2403 0.75444 0.0
C1481 C 0.65184 0.23376 0.80844 0.0
C1482 C 0.65853 0.25436 0.81673 0.0
C1483 C 0.66557 0.22185 0.79424 0.0
C1484 C 0.7164 0.22332 0.75999 0.0
H1485 H 0.73789 0.12289 0.71351 0.0
H1486 H 0.72069 0.14512 0.74226 0.0
H1487 H 0.74062 0.21532 0.73542 0.0
H1488 H 0.68417 0.27931 0.8157 0.0
H1489 H 0.70818 0.25859 0.79057 0.0
H1490 H 0.69518 0.18687 0.79742 0.0
C1491 C 0.73664 0.15025 0.73595 0.0
C1492 C 0.7311 0.20901 0.74922 0.0
C1493 C 0.7466 0.13731 0.71963 0.0
C1494 C 0.67832 0.26375 0.80901 0.0
C1495 C 0.69222 0.25173 0.79487 0.0
C1496 C 0.70493 0.1933 0.78384 0.0
C1497 C 0.74585 0.17073 0.74205 0.0
C1498 C 0.7326 0.1866 0.75543 0.0
C1499 C 0.68646 0.23016 0.78827 0.0
C1500 C 0.70278 0.21548 0.77711 0.0
H1501 H 0.7913 0.16982 0.70881 0.0
H1502 H 0.77414 0.19234 0.73768 0.0
H1503 H 0.72058 0.16201 0.77857 0.0
H1504 H 0.63683 0.22602 0.81446 0.0
H1505 H 0.66039 0.20553 0.78899 0.0
C1506 C 0.8862 0.74626 0.72162 0.0
C1507 C 0.87904 0.76593 0.71164 0.0
C1508 C 0.87261 0.73512 0.73661 0.0
C1509 C 0.82072 0.73685 0.76926 0.0
H1510 H 0.81713 0.67533 0.75139 0.0
C1511 C 0.75801 0.6772 0.80969 0.0
C1512 C 0.76764 0.65746 0.81724 0.0
C1513 C 0.76928 0.69068 0.79455 0.0
C1514 C 0.81796 0.69242 0.75668 0.0
H1515 H 0.85289 0.79032 0.71076 0.0
H1516 H 0.82918 0.77104 0.73723 0.0
H1517 H 0.84336 0.69987 0.73329 0.0
H1518 H 0.79575 0.63565 0.81409 0.0
H1519 H 0.81505 0.65853 0.78723 0.0
H1520 H 0.79548 0.72921 0.79295 0.0
C1521 C 0.84538 0.76429 0.73367 0.0
C1522 C 0.83311 0.70648 0.7464 0.0
C1523 C 0.85912 0.77554 0.71876 0.0
C1524 C 0.78773 0.6505 0.80804 0.0
C1525 C 0.79885 0.66377 0.79278 0.0
C1526 C 0.80558 0.7227 0.77968 0.0
C1527 C 0.85145 0.74331 0.74169 0.0
C1528 C 0.83499 0.72876 0.75282 0.0
C1529 C 0.79026 0.68449 0.78659 0.0
C1530 C 0.80427 0.7002 0.77374 0.0
H1531 H 0.90125 0.73829 0.71605 0.0
H1532 H 0.87798 0.71923 0.74292 0.0
H1533 H 0.82168 0.75396 0.77448 0.0
H1534 H 0.74286 0.68327 0.81707 0.0
H1535 H 0.76209 0.70642 0.78995 0.0
C1536 C 0.21772 0.37496 0.23797 0.0
C1537 C 0.20817 0.36823 0.25798 0.0
C1538 C 0.23314 0.36156 0.22728 0.0
C1539 C 0.24573 0.30242 0.2218 0.0
H1540 H 0.29144 0.3243 0.18261 0.0
C1541 C 0.30559 0.24896 0.16767 0.0
C1542 C 0.31205 0.25837 0.14743 0.0
C1543 C 0.29085 0.26019 0.18159 0.0
C1544 C 0.27853 0.31796 0.19327 0.0
H1545 H 0.20816 0.34291 0.28328 0.0
H1546 H 0.23573 0.31964 0.2649 0.0
H1547 H 0.2742 0.34937 0.20885 0.0
H1548 H 0.30646 0.28542 0.12474 0.0
H1549 H 0.27993 0.30444 0.14838 0.0
H1550 H 0.25034 0.27086 0.20612 0.0
C1551 C 0.23113 0.3352 0.25735 0.0
C1552 C 0.26874 0.33232 0.20843 0.0
C1553 C 0.21575 0.34877 0.26815 0.0
C1554 C 0.30142 0.27762 0.14007 0.0
C1555 C 0.28663 0.28875 0.15385 0.0
C1556 C 0.2557 0.28795 0.20668 0.0
C1557 C 0.23922 0.34098 0.2363 0.0
C1558 C 0.25186 0.3249 0.22257 0.0
C1559 C 0.28236 0.28091 0.17533 0.0
C1560 C 0.27183 0.29573 0.19188 0.0
H1561 H 0.21171 0.38961 0.22956 0.0
H1562 H 0.23881 0.36653 0.21104 0.0
H1563 H 0.23262 0.29616 0.23226 0.0
H1564 H 0.31405 0.23449 0.17401 0.0
H1565 H 0.28787 0.25372 0.19802 0.0
C1566 C 0.30717 0.77186 0.85847 0.0
C1567 C 0.31418 0.76286 0.87872 0.0
C1568 C 0.29188 0.76048 0.84527 0.0
C1569 C 0.2559 0.73285 0.82151 0.0
H1570 H 0.27243 0.67085 0.82075 0.0
C1571 C 0.21497 0.67181 0.76062 0.0
C1572 C 0.20683 0.65261 0.77087 0.0
C1573 C 0.23033 0.6853 0.77156 0.0
C1574 C 0.2675 0.68807 0.8208 0.0
H1575 H 0.30904 0.73635 0.90214 0.0
H1576 H 0.28149 0.71715 0.87982 0.0
H1577 H 0.29069 0.69602 0.84622 0.0
H1578 H 0.20923 0.63172 0.79976 0.0
H1579 H 0.23643 0.6546 0.81852 0.0
H1580 H 0.23242 0.72472 0.79622 0.0
C1581 C 0.28821 0.73261 0.87375 0.0
C1582 C 0.27787 0.7025 0.83553 0.0
C1583 C 0.30359 0.74388 0.88681 0.0
C1584 C 0.21573 0.6461 0.79126 0.0
C1585 C 0.23119 0.6594 0.80208 0.0
C1586 C 0.24538 0.71832 0.80679 0.0
C1587 C 0.28333 0.74 0.85224 0.0
C1588 C 0.27196 0.72499 0.83636 0.0
C1589 C 0.2379 0.6797 0.79286 0.0
C1590 C 0.25085 0.69567 0.80649 0.0
H1591 H 0.3156 0.78608 0.85153 0.0
H1592 H 0.28847 0.76664 0.8288 0.0
H1593 H 0.25107 0.75009 0.82165 0.0
H1594 H 0.20784 0.67755 0.74521 0.0
H1595 H 0.23535 0.70068 0.76387 0.0
C1596 C 0.28113 0.30475 0.88048 0.0
C1597 C 0.26115 0.31435 0.87371 0.0
C1598 C 0.29178 0.28923 0.86714 0.0
C1599 C 0.31038 0.25336 0.8379 0.0
H1600 H 0.31315 0.27196 0.77654 0.0
C1601 C 0.35113 0.21704 0.7539 0.0
C1602 C 0.3713 0.2102 0.76321 0.0
C1603 C 0.33726 0.23156 0.76548 0.0
C1604 C 0.31244 0.26651 0.79359 0.0
H1605 H 0.23596 0.31445 0.8483 0.0
H1606 H 0.25429 0.28684 0.82509 0.0
H1607 H 0.28719 0.28996 0.80182 0.0
H1608 H 0.39379 0.21476 0.7906 0.0
H1609 H 0.37019 0.24084 0.81028 0.0
H1610 H 0.33585 0.23025 0.82986 0.0
C1611 C 0.2618 0.29136 0.8407 0.0
C1612 C 0.29743 0.27666 0.80805 0.0
C1613 C 0.25102 0.30677 0.85424 0.0
C1614 C 0.3785 0.22008 0.78291 0.0
C1615 C 0.36475 0.23462 0.79439 0.0
C1616 C 0.32541 0.24336 0.82353 0.0
C1617 C 0.28279 0.28317 0.84655 0.0
C1618 C 0.2965 0.27044 0.8305 0.0
C1619 C 0.34342 0.23941 0.78649 0.0
C1620 C 0.32696 0.25009 0.80132 0.0
H1621 H 0.28956 0.31081 0.89509 0.0
H1622 H 0.30798 0.28348 0.87214 0.0
H1623 H 0.30984 0.24787 0.85494 0.0
H1624 H 0.34489 0.20916 0.73907 0.0
H1625 H 0.32095 0.23498 0.75895 0.0
C1626 C 0.72243 0.27892 0.88709 0.0
C1627 C 0.71182 0.25949 0.8802 0.0
C1628 C 0.73868 0.2887 0.87391 0.0
C1629 C 0.75093 0.29348 0.81474 0.0
H1630 H 0.7981 0.33147 0.83561 0.0
C1631 C 0.8095 0.34703 0.7591 0.0
C1632 C 0.81613 0.36742 0.76805 0.0
C1633 C 0.79561 0.33291 0.77118 0.0
C1634 C 0.78482 0.3211 0.82955 0.0
H1635 H 0.71104 0.23405 0.85507 0.0
H1636 H 0.73991 0.25078 0.83224 0.0
H1637 H 0.78048 0.30582 0.86116 0.0
H1638 H 0.81203 0.38992 0.7955 0.0
H1639 H 0.78704 0.36586 0.81609 0.0
H1640 H 0.75537 0.30895 0.78307 0.0
C1641 C 0.73556 0.25861 0.84774 0.0
C1642 C 0.77481 0.30629 0.84418 0.0
C1643 C 0.71942 0.24871 0.8611 0.0
C1644 C 0.80682 0.37446 0.78807 0.0
C1645 C 0.79291 0.36047 0.80006 0.0
C1646 C 0.76109 0.30824 0.80003 0.0
C1647 C 0.7445 0.27934 0.85343 0.0
C1648 C 0.75741 0.2926 0.83712 0.0
C1649 C 0.78821 0.33904 0.79236 0.0
C1650 C 0.77778 0.3226 0.80742 0.0
H1651 H 0.71641 0.28785 0.9014 0.0
H1652 H 0.74505 0.30471 0.87882 0.0
H1653 H 0.73737 0.28344 0.80878 0.0
H1654 H 0.81701 0.34092 0.74403 0.0
H1655 H 0.79228 0.31651 0.76481 0.0
C1656 C 0.7751 0.71855 0.85902 0.0
C1657 C 0.76549 0.71198 0.87914 0.0
C1658 C 0.76426 0.73379 0.8453 0.0
C1659 C 0.70681 0.7477 0.83372 0.0
H1660 H 0.72983 0.79312 0.79481 0.0
C1661 C 0.65107 0.80898 0.78772 0.0
C1662 C 0.65793 0.81784 0.76743 0.0
C1663 C 0.66433 0.79381 0.79898 0.0
C1664 C 0.72323 0.78016 0.80527 0.0
H1665 H 0.73857 0.71789 0.90184 0.0
H1666 H 0.72028 0.74531 0.87859 0.0
H1667 H 0.75461 0.77474 0.82107 0.0
H1668 H 0.68351 0.81715 0.74243 0.0
H1669 H 0.70661 0.7901 0.76188 0.0
H1670 H 0.67558 0.75279 0.81799 0.0
C1671 C 0.7358 0.7383 0.87304 0.0
C1672 C 0.7374 0.76981 0.82045 0.0
C1673 C 0.74653 0.723 0.88662 0.0
C1674 C 0.67753 0.81003 0.75775 0.0
C1675 C 0.69098 0.79495 0.76914 0.0
C1676 C 0.69274 0.75786 0.81851 0.0
C1677 C 0.74375 0.7427 0.85164 0.0
C1678 C 0.7292 0.75381 0.83518 0.0
C1679 C 0.68492 0.78734 0.79031 0.0
C1680 C 0.70062 0.77453 0.80437 0.0
H1681 H 0.78934 0.70981 0.85256 0.0
H1682 H 0.77082 0.73684 0.82892 0.0
H1683 H 0.70012 0.7349 0.84432 0.0
H1684 H 0.63633 0.81521 0.79576 0.0
H1685 H 0.65918 0.78856 0.8153 0.0
C1686 C 0.72027 0.74028 0.14189 0.0
C1687 C 0.71043 0.76 0.14906 0.0
C1688 C 0.73605 0.72963 0.15494 0.0
C1689 C 0.74892 0.72333 0.21396 0.0
H1690 H 0.79514 0.68506 0.19161 0.0
C1691 C 0.80892 0.66914 0.26731 0.0
C1692 C 0.81552 0.64896 0.25788 0.0
C1693 C 0.79439 0.68318 0.25593 0.0
C1694 C 0.7821 0.69547 0.19809 0.0
H1695 H 0.71031 0.78482 0.1748 0.0
H1696 H 0.73839 0.76654 0.19747 0.0
H1697 H 0.77742 0.71134 0.16683 0.0
H1698 H 0.81058 0.62665 0.23042 0.0
H1699 H 0.78441 0.6505 0.21111 0.0
H1700 H 0.7538 0.70734 0.24532 0.0
C1701 C 0.73383 0.7592 0.18179 0.0
C1702 C 0.77203 0.71065 0.18389 0.0
C1703 C 0.71815 0.76998 0.16855 0.0
C1704 C 0.80539 0.64191 0.23825 0.0
C1705 C 0.79081 0.65581 0.22697 0.0
C1706 C 0.75915 0.7082 0.22825 0.0
C1707 C 0.74217 0.73836 0.17563 0.0
C1708 C 0.755 0.72449 0.19149 0.0
C1709 C 0.78626 0.67715 0.23499 0.0
C1710 C 0.7755 0.69375 0.22033 0.0
H1711 H 0.7141 0.73195 0.12727 0.0
H1712 H 0.74191 0.71355 0.14969 0.0
H1713 H 0.73565 0.7335 0.22035 0.0
H1714 H 0.81705 0.67528 0.28206 0.0
H1715 H 0.79122 0.69952 0.26254 0.0
C1716 C 0.34944 0.80892 0.26399 0.0
C1717 C 0.36889 0.81692 0.25412 0.0
C1718 C 0.33596 0.79379 0.25271 0.0
C1719 C 0.33375 0.75693 0.20323 0.0
H1720 H 0.27184 0.77366 0.20143 0.0
C1721 C 0.27909 0.72174 0.13593 0.0
C1722 C 0.26011 0.71088 0.14366 0.0
C1723 C 0.29005 0.73706 0.1493 0.0
C1724 C 0.28905 0.76876 0.20183 0.0
H1725 H 0.3902 0.81453 0.22556 0.0
H1726 H 0.36732 0.78775 0.20622 0.0
H1727 H 0.29688 0.792 0.22742 0.0
H1728 H 0.23649 0.70903 0.17046 0.0
H1729 H 0.2554 0.7361 0.19373 0.0
H1730 H 0.32611 0.734 0.1775 0.0
C1731 C 0.36231 0.79292 0.22261 0.0
C1732 C 0.30338 0.7791 0.21687 0.0
C1733 C 0.3756 0.80814 0.23376 0.0
C1734 C 0.25073 0.71765 0.16381 0.0
C1735 C 0.2618 0.7329 0.17732 0.0
C1736 C 0.31952 0.74676 0.18818 0.0
C1737 C 0.34183 0.78631 0.23146 0.0
C1738 C 0.32601 0.77353 0.21751 0.0
C1739 C 0.28233 0.74165 0.17074 0.0
C1740 C 0.29709 0.7528 0.18699 0.0
H1741 H 0.34356 0.81597 0.27937 0.0
H1742 H 0.32044 0.78883 0.26012 0.0
H1743 H 0.35093 0.75191 0.20354 0.0
H1744 H 0.28688 0.71648 0.12068 0.0
H1745 H 0.30556 0.74394 0.14355 0.0
C1746 C 0.73267 0.30844 0.14546 0.0
C1747 C 0.75333 0.31711 0.15143 0.0
C1748 C 0.72153 0.29394 0.15956 0.0
C1749 C 0.69473 0.28364 0.20021 0.0
H1750 H 0.71802 0.23483 0.23457 0.0
C1751 C 0.63988 0.21996 0.24428 0.0
C1752 C 0.64773 0.20931 0.26332 0.0
C1753 C 0.65265 0.2361 0.23377 0.0
C1754 C 0.71138 0.24874 0.22544 0.0
H1755 H 0.77923 0.31636 0.17612 0.0
H1756 H 0.75988 0.29072 0.20075 0.0
H1757 H 0.74195 0.25395 0.20814 0.0
H1758 H 0.67449 0.2079 0.28702 0.0
H1759 H 0.69671 0.23652 0.26897 0.0
H1760 H 0.66419 0.2785 0.2173 0.0
C1761 C 0.75237 0.29492 0.18504 0.0
C1762 C 0.72507 0.25955 0.21016 0.0
C1763 C 0.76362 0.30936 0.17078 0.0
C1764 C 0.66772 0.2164 0.27276 0.0
C1765 C 0.68068 0.23241 0.26211 0.0
C1766 C 0.68111 0.27294 0.2155 0.0
C1767 C 0.73069 0.28803 0.18009 0.0
C1768 C 0.71673 0.2768 0.197 0.0
C1769 C 0.67372 0.2417 0.24192 0.0
C1770 C 0.68909 0.25506 0.22801 0.0
H1771 H 0.72423 0.31449 0.13085 0.0
H1772 H 0.70508 0.28849 0.15501 0.0
H1773 H 0.68796 0.29732 0.19084 0.0
H1774 H 0.62487 0.21427 0.23632 0.0
H1775 H 0.6468 0.2427 0.21819 0.0
loop_
_geom_bond_atom_site_label_1
_geom_bond_atom_site_label_2
_geom_bond_distance
_geom_bond_site_symmetry_2
_ccdc_geom_bond_type
C0 O2 1.247 . S
C0 O4 1.258 . S
C1 O8 1.247 . S
C1 O9 1.258 . S
O2 C0 1.247 . S
O2 Zn3 2.028 . S
Zn3 O2 2.028 . S
Zn3 O7 2.035 . S
Zn3 O9 2.035 . S
Zn3 O10 2.028 . S
O4 C0 1.258 . S
O4 Zn5 2.035 . S
Zn5 O4 2.035 . S
Zn5 O6 2.028 . S
Zn5 O8 2.028 . S
Zn5 O11 2.035 . S
O6 Zn5 2.028 . S
O6 C12 1.247 . S
O7 Zn3 2.035 . S
O7 C12 1.258 . S
O8 C1 1.247 . S
O8 Zn5 2.028 . S
O9 C1 1.258 . S
O9 Zn3 2.035 . S
O10 Zn3 2.028 . S
O10 C13 1.247 . S
O11 Zn5 2.035 . S
O11 C13 1.258 . S
C12 O6 1.247 . S
C12 O7 1.258 . S
C13 O10 1.247 . S
C13 O11 1.258 . S
C14 O16 1.247 . S
C14 O18 1.258 . S
C15 O22 1.247 . S
C15 O23 1.258 . S
O16 C14 1.247 . S
O16 Zn17 2.028 . S
Zn17 O16 2.028 . S
Zn17 O21 2.035 . S
Zn17 O23 2.035 . S
Zn17 O24 2.028 . S
O18 C14 1.258 . S
O18 Zn19 2.035 . S
Zn19 O18 2.035 . S
Zn19 O20 2.028 . S
Zn19 O22 2.028 . S
Zn19 O25 2.035 . S
O20 Zn19 2.028 . S
O20 C26 1.247 . S
O21 Zn17 2.035 . S
O21 C26 1.258 . S
O22 C15 1.247 . S
O22 Zn19 2.028 . S
O23 C15 1.258 . S
O23 Zn17 2.035 . S
O24 Zn17 2.028 . S
O24 C27 1.247 . S
O25 Zn19 2.035 . S
O25 C27 1.258 . S
C26 O20 1.247 . S
C26 O21 1.258 . S
C27 O24 1.247 . S
C27 O25 1.258 . S
C28 O30 1.247 . S
C28 O32 1.258 . S
C29 O36 1.247 . S
C29 O37 1.258 . S
O30 C28 1.247 . S
O30 Zn31 2.028 . S
Zn31 O30 2.028 . S
Zn31 O35 2.035 . S
Zn31 O37 2.035 . S
Zn31 O38 2.028 . S
O32 C28 1.258 . S
O32 Zn33 2.035 . S
Zn33 O32 2.035 . S
Zn33 O34 2.028 . S
Zn33 O36 2.028 . S
Zn33 O39 2.035 . S
O34 Zn33 2.028 . S
O34 C40 1.247 . S
O35 Zn31 2.035 . S
O35 C40 1.258 . S
O36 C29 1.247 . S
O36 Zn33 2.028 . S
O37 C29 1.258 . S
O37 Zn31 2.035 . S
O38 Zn31 2.028 . S
O38 C41 1.247 . S
O39 Zn33 2.035 . S
O39 C41 1.258 . S
C40 O34 1.247 . S
C40 O35 1.258 . S
C41 O38 1.247 . S
C41 O39 1.258 . S
C42 O44 1.247 . S
C42 O46 1.258 . S
C43 O50 1.247 . S
C43 O51 1.258 . S
O44 C42 1.247 . S
O44 Zn45 2.028 . S
Zn45 O44 2.028 . S
Zn45 O49 2.035 . S
Zn45 O51 2.035 . S
Zn45 O52 2.028 . S
O46 C42 1.258 . S
O46 Zn47 2.035 . S
Zn47 O46 2.035 . S
Zn47 O48 2.028 . S
Zn47 O50 2.028 . S
Zn47 O53 2.035 . S
O48 Zn47 2.028 . S
O48 C54 1.247 . S
O49 Zn45 2.035 . S
O49 C54 1.258 . S
O50 C43 1.247 . S
O50 Zn47 2.028 . S
O51 C43 1.258 . S
O51 Zn45 2.035 . S
O52 Zn45 2.028 . S
O52 C55 1.247 . S
O53 Zn47 2.035 . S
O53 C55 1.258 . S
C54 O48 1.247 . S
C54 O49 1.258 . S
C55 O52 1.247 . S
C55 O53 1.258 . S
C56 O58 1.247 . S
C56 O60 1.258 . S
C57 O64 1.247 . S
C57 O65 1.258 . S
O58 C56 1.247 . S
O58 Zn59 2.028 . S
Zn59 O58 2.028 . S
Zn59 O63 2.035 . S
Zn59 O65 2.035 . S
Zn59 O66 2.028 . S
O60 C56 1.258 . S
O60 Zn61 2.035 . S
Zn61 O60 2.035 . S
Zn61 O62 2.028 . S
Zn61 O64 2.028 . S
Zn61 O67 2.035 . S
O62 Zn61 2.028 . S
O62 C68 1.247 . S
O63 Zn59 2.035 . S
O63 C68 1.258 . S
O64 C57 1.247 . S
O64 Zn61 2.028 . S
O65 C57 1.258 . S
O65 Zn59 2.035 . S
O66 Zn59 2.028 . S
O66 C69 1.247 . S
O67 Zn61 2.035 . S
O67 C69 1.258 . S
C68 O62 1.247 . S
C68 O63 1.258 . S
C69 O66 1.247 . S
C69 O67 1.258 . S
C70 O72 1.247 . S
C70 O74 1.258 . S
C71 O78 1.247 . S
C71 O79 1.258 . S
O72 C70 1.247 . S
O72 Zn73 2.028 . S
Zn73 O72 2.028 . S
Zn73 O77 2.035 . S
Zn73 O79 2.035 . S
Zn73 O80 2.028 . S
O74 C70 1.258 . S
O74 Zn75 2.035 . S
Zn75 O74 2.035 . S
Zn75 O76 2.028 . S
Zn75 O78 2.028 . S
Zn75 O81 2.035 . S
O76 Zn75 2.028 . S
O76 C82 1.247 . S
O77 Zn73 2.035 . S
O77 C82 1.258 . S
O78 C71 1.247 . S
O78 Zn75 2.028 . S
O79 C71 1.258 . S
O79 Zn73 2.035 . S
O80 Zn73 2.028 . S
O80 C83 1.247 . S
O81 Zn75 2.035 . S
O81 C83 1.258 . S
C82 O76 1.247 . S
C82 O77 1.258 . S
C83 O80 1.247 . S
C83 O81 1.258 . S
C84 O86 1.247 . S
C84 O88 1.258 . S
C85 O92 1.247 . S
C85 O93 1.258 . S
O86 C84 1.247 . S
O86 Zn87 2.028 . S
Zn87 O86 2.028 . S
Zn87 O91 2.035 . S
Zn87 O93 2.035 . S
Zn87 O94 2.028 . S
O88 C84 1.258 . S
O88 Zn89 2.035 . S
Zn89 O88 2.035 . S
Zn89 O90 2.028 . S
Zn89 O92 2.028 . S
Zn89 O95 2.035 . S
O90 Zn89 2.028 . S
O90 C96 1.247 . S
O91 Zn87 2.035 . S
O91 C96 1.258 . S
O92 C85 1.247 . S
O92 Zn89 2.028 . S
O93 C85 1.258 . S
O93 Zn87 2.035 . S
O94 Zn87 2.028 . S
O94 C97 1.247 . S
O95 Zn89 2.035 . S
O95 C97 1.258 . S
C96 O90 1.247 . S
C96 O91 1.258 . S
C97 O94 1.247 . S
C97 O95 1.258 . S
C98 O100 1.247 . S
C98 O102 1.258 . S
C99 O106 1.247 . S
C99 O107 1.258 . S
O100 C98 1.247 . S
O100 Zn101 2.028 . S
Zn101 O100 2.028 . S
Zn101 O105 2.035 . S
Zn101 O107 2.035 . S
Zn101 O108 2.028 . S
O102 C98 1.258 . S
O102 Zn103 2.035 . S
Zn103 O102 2.035 . S
Zn103 O104 2.028 . S
Zn103 O106 2.028 . S
Zn103 O109 2.035 . S
O104 Zn103 2.028 . S
O104 C110 1.247 . S
O105 Zn101 2.035 . S
O105 C110 1.258 . S
O106 C99 1.247 . S
O106 Zn103 2.028 . S
O107 C99 1.258 . S
O107 Zn101 2.035 . S
O108 Zn101 2.028 . S
O108 C111 1.247 . S
O109 Zn103 2.035 . S
O109 C111 1.258 . S
C110 O104 1.247 . S
C110 O105 1.258 . S
C111 O108 1.247 . S
C111 O109 1.258 . S
C112 O114 1.247 . S
C112 O116 1.258 . S
C113 O120 1.247 . S
C113 O121 1.258 . S
O114 C112 1.247 . S
O114 Zn115 2.028 . S
Zn115 O114 2.028 . S
Zn115 O119 2.035 . S
Zn115 O121 2.035 . S
Zn115 O122 2.028 . S
O116 C112 1.258 . S
O116 Zn117 2.035 . S
Zn117 O116 2.035 . S
Zn117 O118 2.028 . S
Zn117 O120 2.028 . S
Zn117 O123 2.035 . S
O118 Zn117 2.028 . S
O118 C124 1.247 . S
O119 Zn115 2.035 . S
O119 C124 1.258 . S
O120 C113 1.247 . S
O120 Zn117 2.028 . S
O121 C113 1.258 . S
O121 Zn115 2.035 . S
O122 Zn115 2.028 . S
O122 C125 1.247 . S
O123 Zn117 2.035 . S
O123 C125 1.258 . S
C124 O118 1.247 . S
C124 O119 1.258 . S
C125 O122 1.247 . S
C125 O123 1.258 . S
C126 O128 1.247 . S
C126 O130 1.258 . S
C127 O134 1.247 . S
C127 O135 1.258 . S
O128 C126 1.247 . S
O128 Zn129 2.028 . S
Zn129 O128 2.028 . S
Zn129 O133 2.035 . S
Zn129 O135 2.035 . S
Zn129 O136 2.028 . S
O130 C126 1.258 . S
O130 Zn131 2.035 . S
Zn131 O130 2.035 . S
Zn131 O132 2.028 . S
Zn131 O134 2.028 . S
Zn131 O137 2.035 . S
O132 Zn131 2.028 . S
O132 C138 1.247 . S
O133 Zn129 2.035 . S
O133 C138 1.258 . S
O134 C127 1.247 . S
O134 Zn131 2.028 . S
O135 C127 1.258 . S
O135 Zn129 2.035 . S
O136 Zn129 2.028 . S
O136 C139 1.247 . S
O137 Zn131 2.035 . S
O137 C139 1.258 . S
C138 O132 1.247 . S
C138 O133 1.258 . S
C139 O136 1.247 . S
C139 O137 1.258 . S
C140 O142 1.247 . S
C140 O144 1.258 . S
C141 O148 1.247 . S
C141 O149 1.258 . S
O142 C140 1.247 . S
O142 Zn143 2.028 . S
Zn143 O142 2.028 . S
Zn143 O147 2.035 . S
Zn143 O149 2.035 . S
Zn143 O150 2.028 . S
O144 C140 1.258 . S
O144 Zn145 2.035 . S
Zn145 O144 2.035 . S
Zn145 O146 2.028 . S
Zn145 O148 2.028 . S
Zn145 O151 2.035 . S
O146 Zn145 2.028 . S
O146 C152 1.247 . S
O147 Zn143 2.035 . S
O147 C152 1.258 . S
O148 C141 1.247 . S
O148 Zn145 2.028 . S
O149 C141 1.258 . S
O149 Zn143 2.035 . S
O150 Zn143 2.028 . S
O150 C153 1.247 . S
O151 Zn145 2.035 . S
O151 C153 1.258 . S
C152 O146 1.247 . S
C152 O147 1.258 . S
C153 O150 1.247 . S
C153 O151 1.258 . S
C154 O156 1.247 . S
C154 O158 1.258 . S
C155 O162 1.247 . S
C155 O163 1.258 . S
O156 C154 1.247 . S
O156 Zn157 2.028 . S
Zn157 O156 2.028 . S
Zn157 O161 2.035 . S
Zn157 O163 2.035 . S
Zn157 O164 2.028 . S
O158 C154 1.258 . S
O158 Zn159 2.035 . S
Zn159 O158 2.035 . S
Zn159 O160 2.028 . S
Zn159 O162 2.028 . S
Zn159 O165 2.035 . S
O160 Zn159 2.028 . S
O160 C166 1.247 . S
O161 Zn157 2.035 . S
O161 C166 1.258 . S
O162 C155 1.247 . S
O162 Zn159 2.028 . S
O163 C155 1.258 . S
O163 Zn157 2.035 . S
O164 Zn157 2.028 . S
O164 C167 1.247 . S
O165 Zn159 2.035 . S
O165 C167 1.258 . S
C166 O160 1.247 . S
C166 O161 1.258 . S
C167 O164 1.247 . S
C167 O165 1.258 . S
C168 O170 1.247 . S
C168 O172 1.258 . S
C169 O176 1.247 . S
C169 O177 1.258 . S
O170 C168 1.247 . S
O170 Zn171 2.028 . S
Zn171 O170 2.028 . S
Zn171 O175 2.035 . S
Zn171 O177 2.035 . S
Zn171 O178 2.028 . S
O172 C168 1.258 . S
O172 Zn173 2.035 . S
Zn173 O172 2.035 . S
Zn173 O174 2.028 . S
Zn173 O176 2.028 . S
Zn173 O179 2.035 . S
O174 Zn173 2.028 . S
O174 C180 1.247 . S
O175 Zn171 2.035 . S
O175 C180 1.258 . S
O176 C169 1.247 . S
O176 Zn173 2.028 . S
O177 C169 1.258 . S
O177 Zn171 2.035 . S
O178 Zn171 2.028 . S
O178 C181 1.247 . S
O179 Zn173 2.035 . S
O179 C181 1.258 . S
C180 O174 1.247 . S
C180 O175 1.258 . S
C181 O178 1.247 . S
C181 O179 1.258 . S
C182 O184 1.247 . S
C182 O186 1.258 . S
C183 O190 1.247 . S
C183 O191 1.258 . S
O184 C182 1.247 . S
O184 Zn185 2.028 . S
Zn185 O184 2.028 . S
Zn185 O189 2.035 . S
Zn185 O191 2.035 . S
Zn185 O192 2.028 . S
O186 C182 1.258 . S
O186 Zn187 2.035 . S
Zn187 O186 2.035 . S
Zn187 O188 2.028 . S
Zn187 O190 2.028 . S
Zn187 O193 2.035 . S
O188 Zn187 2.028 . S
O188 C194 1.247 . S
O189 Zn185 2.035 . S
O189 C194 1.258 . S
O190 C183 1.247 . S
O190 Zn187 2.028 . S
O191 C183 1.258 . S
O191 Zn185 2.035 . S
O192 Zn185 2.028 . S
O192 C195 1.247 . S
O193 Zn187 2.035 . S
O193 C195 1.258 . S
C194 O188 1.247 . S
C194 O189 1.258 . S
C195 O192 1.247 . S
C195 O193 1.258 . S
C196 O198 1.247 . S
C196 O200 1.258 . S
C197 O204 1.247 . S
C197 O205 1.258 . S
O198 C196 1.247 . S
O198 Zn199 2.028 . S
Zn199 O198 2.028 . S
Zn199 O203 2.035 . S
Zn199 O205 2.035 . S
Zn199 O206 2.028 . S
O200 C196 1.258 . S
O200 Zn201 2.035 . S
Zn201 O200 2.035 . S
Zn201 O202 2.028 . S
Zn201 O204 2.028 . S
Zn201 O207 2.035 . S
O202 Zn201 2.028 . S
O202 C208 1.247 . S
O203 Zn199 2.035 . S
O203 C208 1.258 . S
O204 C197 1.247 . S
O204 Zn201 2.028 . S
O205 C197 1.258 . S
O205 Zn199 2.035 . S
O206 Zn199 2.028 . S
O206 C209 1.247 . S
O207 Zn201 2.035 . S
O207 C209 1.258 . S
C208 O202 1.247 . S
C208 O203 1.258 . S
C209 O206 1.247 . S
C209 O207 1.258 . S
C210 O212 1.247 . S
C210 O214 1.258 . S
C211 O218 1.247 . S
C211 O219 1.258 . S
O212 C210 1.247 . S
O212 Zn213 2.028 . S
Zn213 O212 2.028 . S
Zn213 O217 2.035 . S
Zn213 O219 2.035 . S
Zn213 O220 2.028 . S
O214 C210 1.258 . S
O214 Zn215 2.035 . S
Zn215 O214 2.035 . S
Zn215 O216 2.028 . S
Zn215 O218 2.028 . S
Zn215 O221 2.035 . S
O216 Zn215 2.028 . S
O216 C222 1.247 . S
O217 Zn213 2.035 . S
O217 C222 1.258 . S
O218 C211 1.247 . S
O218 Zn215 2.028 . S
O219 C211 1.258 . S
O219 Zn213 2.035 . S
O220 Zn213 2.028 . S
O220 C223 1.247 . S
O221 Zn215 2.035 . S
O221 C223 1.258 . S
C222 O216 1.247 . S
C222 O217 1.258 . S
C223 O220 1.247 . S
C223 O221 1.258 . S
C224 O226 1.247 . S
C224 O228 1.258 . S
C225 O232 1.247 . S
C225 O233 1.258 . S
O226 C224 1.247 . S
O226 Zn227 2.028 . S
Zn227 O226 2.028 . S
Zn227 O231 2.035 . S
Zn227 O233 2.035 . S
Zn227 O234 2.028 . S
O228 C224 1.258 . S
O228 Zn229 2.035 . S
Zn229 O228 2.035 . S
Zn229 O230 2.028 . S
Zn229 O232 2.028 . S
Zn229 O235 2.035 . S
O230 Zn229 2.028 . S
O230 C236 1.247 . S
O231 Zn227 2.035 . S
O231 C236 1.258 . S
O232 C225 1.247 . S
O232 Zn229 2.028 . S
O233 C225 1.258 . S
O233 Zn227 2.035 . S
O234 Zn227 2.028 . S
O234 C237 1.247 . S
O235 Zn229 2.035 . S
O235 C237 1.258 . S
C236 O230 1.247 . S
C236 O231 1.258 . S
C237 O234 1.247 . S
C237 O235 1.258 . S
C238 O240 1.247 . S
C238 O242 1.258 . S
C239 O246 1.247 . S
C239 O247 1.258 . S
O240 C238 1.247 . S
O240 Zn241 2.028 . S
Zn241 O240 2.028 . S
Zn241 O245 2.035 . S
Zn241 O247 2.035 . S
Zn241 O248 2.028 . S
O242 C238 1.258 . S
O242 Zn243 2.035 . S
Zn243 O242 2.035 . S
Zn243 O244 2.028 . S
Zn243 O246 2.028 . S
Zn243 O249 2.035 . S
O244 Zn243 2.028 . S
O244 C250 1.247 . S
O245 Zn241 2.035 . S
O245 C250 1.258 . S
O246 C239 1.247 . S
O246 Zn243 2.028 . S
O247 C239 1.258 . S
O247 Zn241 2.035 . S
O248 Zn241 2.028 . S
O248 C251 1.247 . S
O249 Zn243 2.035 . S
O249 C251 1.258 . S
C250 O244 1.247 . S
C250 O245 1.258 . S
C251 O248 1.247 . S
C251 O249 1.258 . S
C252 O254 1.247 . S
C252 O256 1.258 . S
C253 O260 1.247 . S
C253 O261 1.258 . S
O254 C252 1.247 . S
O254 Zn255 2.028 . S
Zn255 O254 2.028 . S
Zn255 O259 2.035 . S
Zn255 O261 2.035 . S
Zn255 O262 2.028 . S
O256 C252 1.258 . S
O256 Zn257 2.035 . S
Zn257 O256 2.035 . S
Zn257 O258 2.028 . S
Zn257 O260 2.028 . S
Zn257 O263 2.035 . S
O258 Zn257 2.028 . S
O258 C264 1.247 . S
O259 Zn255 2.035 . S
O259 C264 1.258 . S
O260 C253 1.247 . S
O260 Zn257 2.028 . S
O261 C253 1.258 . S
O261 Zn255 2.035 . S
O262 Zn255 2.028 . S
O262 C265 1.247 . S
O263 Zn257 2.035 . S
O263 C265 1.258 . S
C264 O258 1.247 . S
C264 O259 1.258 . S
C265 O262 1.247 . S
C265 O263 1.258 . S
C266 O268 1.247 . S
C266 O270 1.258 . S
C267 O274 1.247 . S
C267 O275 1.258 . S
O268 C266 1.247 . S
O268 Zn269 2.028 . S
Zn269 O268 2.028 . S
Zn269 O273 2.035 . S
Zn269 O275 2.035 . S
Zn269 O276 2.028 . S
O270 C266 1.258 . S
O270 Zn271 2.035 . S
Zn271 O270 2.035 . S
Zn271 O272 2.028 . S
Zn271 O274 2.028 . S
Zn271 O277 2.035 . S
O272 Zn271 2.028 . S
O272 C278 1.247 . S
O273 Zn269 2.035 . S
O273 C278 1.258 . S
O274 C267 1.247 . S
O274 Zn271 2.028 . S
O275 C267 1.258 . S
O275 Zn269 2.035 . S
O276 Zn269 2.028 . S
O276 C279 1.247 . S
O277 Zn271 2.035 . S
O277 C279 1.258 . S
C278 O272 1.247 . S
C278 O273 1.258 . S
C279 O276 1.247 . S
C279 O277 1.258 . S
C280 O282 1.247 . S
C280 O284 1.258 . S
C281 O288 1.247 . S
C281 O289 1.258 . S
O282 C280 1.247 . S
O282 Zn283 2.028 . S
Zn283 O282 2.028 . S
Zn283 O287 2.035 . S
Zn283 O289 2.035 . S
Zn283 O290 2.028 . S
O284 C280 1.258 . S
O284 Zn285 2.035 . S
Zn285 O284 2.035 . S
Zn285 O286 2.028 . S
Zn285 O288 2.028 . S
Zn285 O291 2.035 . S
O286 Zn285 2.028 . S
O286 C292 1.247 . S
O287 Zn283 2.035 . S
O287 C292 1.258 . S
O288 C281 1.247 . S
O288 Zn285 2.028 . S
O289 C281 1.258 . S
O289 Zn283 2.035 . S
O290 Zn283 2.028 . S
O290 C293 1.247 . S
O291 Zn285 2.035 . S
O291 C293 1.258 . S
C292 O286 1.247 . S
C292 O287 1.258 . S
C293 O290 1.247 . S
C293 O291 1.258 . S
C294 O296 1.247 . S
C294 O298 1.258 . S
C295 O302 1.247 . S
C295 O303 1.258 . S
O296 C294 1.247 . S
O296 Zn297 2.028 . S
Zn297 O296 2.028 . S
Zn297 O301 2.035 . S
Zn297 O303 2.035 . S
Zn297 O304 2.028 . S
O298 C294 1.258 . S
O298 Zn299 2.035 . S
Zn299 O298 2.035 . S
Zn299 O300 2.028 . S
Zn299 O302 2.028 . S
Zn299 O305 2.035 . S
O300 Zn299 2.028 . S
O300 C306 1.247 . S
O301 Zn297 2.035 . S
O301 C306 1.258 . S
O302 C295 1.247 . S
O302 Zn299 2.028 . S
O303 C295 1.258 . S
O303 Zn297 2.035 . S
O304 Zn297 2.028 . S
O304 C307 1.247 . S
O305 Zn299 2.035 . S
O305 C307 1.258 . S
C306 O300 1.247 . S
C306 O301 1.258 . S
C307 O304 1.247 . S
C307 O305 1.258 . S
C308 O310 1.247 . S
C308 O312 1.258 . S
C309 O316 1.247 . S
C309 O317 1.258 . S
O310 C308 1.247 . S
O310 Zn311 2.028 . S
Zn311 O310 2.028 . S
Zn311 O315 2.035 . S
Zn311 O317 2.035 . S
Zn311 O318 2.028 . S
O312 C308 1.258 . S
O312 Zn313 2.035 . S
Zn313 O312 2.035 . S
Zn313 O314 2.028 . S
Zn313 O316 2.028 . S
Zn313 O319 2.035 . S
O314 Zn313 2.028 . S
O314 C320 1.247 . S
O315 Zn311 2.035 . S
O315 C320 1.258 . S
O316 C309 1.247 . S
O316 Zn313 2.028 . S
O317 C309 1.258 . S
O317 Zn311 2.035 . S
O318 Zn311 2.028 . S
O318 C321 1.247 . S
O319 Zn313 2.035 . S
O319 C321 1.258 . S
C320 O314 1.247 . S
C320 O315 1.258 . S
C321 O318 1.247 . S
C321 O319 1.258 . S
C322 O324 1.247 . S
C322 O326 1.258 . S
C323 O330 1.247 . S
C323 O331 1.258 . S
O324 C322 1.247 . S
O324 Zn325 2.028 . S
Zn325 O324 2.028 . S
Zn325 O329 2.035 . S
Zn325 O331 2.035 . S
Zn325 O332 2.028 . S
O326 C322 1.258 . S
O326 Zn327 2.035 . S
Zn327 O326 2.035 . S
Zn327 O328 2.028 . S
Zn327 O330 2.028 . S
Zn327 O333 2.035 . S
O328 Zn327 2.028 . S
O328 C334 1.247 . S
O329 Zn325 2.035 . S
O329 C334 1.258 . S
O330 C323 1.247 . S
O330 Zn327 2.028 . S
O331 C323 1.258 . S
O331 Zn325 2.035 . S
O332 Zn325 2.028 . S
O332 C335 1.247 . S
O333 Zn327 2.035 . S
O333 C335 1.258 . S
C334 O328 1.247 . S
C334 O329 1.258 . S
C335 O332 1.247 . S
C335 O333 1.258 . S
C336 C337 1.349 . S
C336 C338 1.327 . S
C336 H361 0.950 . S
C337 C336 1.349 . S
C337 C353 1.349 . S
C338 C336 1.327 . S
C338 C357 1.429 . S
C338 H362 0.950 . S
C339 C356 1.574 . S
C339 C358 1.368 . S
C339 H363 0.949 . S
H340 C344 0.949 . S
C341 C342 1.349 . S
C341 C343 1.327 . S
C341 H364 0.950 . S
C342 C341 1.349 . S
C342 C354 1.349 . S
C343 C341 1.327 . S
C343 C359 1.429 . S
C343 H365 0.950 . S
C344 H340 0.949 . S
C344 C352 1.574 . S
C344 C360 1.368 . S
H345 C353 0.950 . S
H346 C351 0.950 . S
H347 C352 0.949 . S
H348 C354 0.950 . S
H349 C355 0.950 . S
H350 C356 0.949 . S
C351 H346 0.950 . S
C351 C353 1.327 . S
C351 C357 1.429 . S
C352 C344 1.574 . S
C352 H347 0.949 . S
C352 C358 1.368 . S
C353 C337 1.349 . S
C353 H345 0.950 . S
C353 C351 1.327 . S
C354 C342 1.349 . S
C354 H348 0.950 . S
C354 C355 1.327 . S
C355 H349 0.950 . S
C355 C354 1.327 . S
C355 C359 1.429 . S
C356 C339 1.574 . S
C356 H350 0.949 . S
C356 C360 1.368 . S
C357 C338 1.429 . S
C357 C351 1.429 . S
C357 C358 1.523 . S
C358 C339 1.368 . S
C358 C352 1.368 . S
C358 C357 1.523 . S
C359 C343 1.429 . S
C359 C355 1.429 . S
C359 C360 1.523 . S
C360 C344 1.368 . S
C360 C356 1.368 . S
C360 C359 1.523 . S
H361 C336 0.950 . S
H362 C338 0.950 . S
H363 C339 0.949 . S
H364 C341 0.950 . S
H365 C343 0.950 . S
C366 C367 1.349 . S
C366 C368 1.327 . S
C366 H391 0.950 . S
C367 C366 1.349 . S
C367 C383 1.349 . S
C368 C366 1.327 . S
C368 C387 1.429 . S
C368 H392 0.950 . S
C369 C386 1.574 . S
C369 C388 1.368 . S
C369 H393 0.949 . S
H370 C374 0.949 . S
C371 C372 1.349 . S
C371 C373 1.327 . S
C371 H394 0.950 . S
C372 C371 1.349 . S
C372 C384 1.349 . S
C373 C371 1.327 . S
C373 C389 1.429 . S
C373 H395 0.950 . S
C374 H370 0.949 . S
C374 C382 1.574 . S
C374 C390 1.368 . S
H375 C383 0.950 . S
H376 C381 0.950 . S
H377 C382 0.949 . S
H378 C384 0.950 . S
H379 C385 0.950 . S
H380 C386 0.949 . S
C381 H376 0.950 . S
C381 C383 1.327 . S
C381 C387 1.429 . S
C382 C374 1.574 . S
C382 H377 0.949 . S
C382 C388 1.368 . S
C383 C367 1.349 . S
C383 H375 0.950 . S
C383 C381 1.327 . S
C384 C372 1.349 . S
C384 H378 0.950 . S
C384 C385 1.327 . S
C385 H379 0.950 . S
C385 C384 1.327 . S
C385 C389 1.429 . S
C386 C369 1.574 . S
C386 H380 0.949 . S
C386 C390 1.368 . S
C387 C368 1.429 . S
C387 C381 1.429 . S
C387 C388 1.523 . S
C388 C369 1.368 . S
C388 C382 1.368 . S
C388 C387 1.523 . S
C389 C373 1.429 . S
C389 C385 1.429 . S
C389 C390 1.523 . S
C390 C374 1.368 . S
C390 C386 1.368 . S
C390 C389 1.523 . S
H391 C366 0.950 . S
H392 C368 0.950 . S
H393 C369 0.949 . S
H394 C371 0.950 . S
H395 C373 0.950 . S
C396 C397 1.349 . S
C396 C398 1.327 . S
C396 H421 0.950 . S
C397 C396 1.349 . S
C397 C413 1.349 . S
C398 C396 1.327 . S
C398 C417 1.429 . S
C398 H422 0.950 . S
C399 C416 1.574 . S
C399 C418 1.368 . S
C399 H423 0.949 . S
H400 C404 0.949 . S
C401 C402 1.349 . S
C401 C403 1.327 . S
C401 H424 0.950 . S
C402 C401 1.349 . S
C402 C414 1.349 . S
C403 C401 1.327 . S
C403 C419 1.429 . S
C403 H425 0.950 . S
C404 H400 0.949 . S
C404 C412 1.574 . S
C404 C420 1.368 . S
H405 C413 0.950 . S
H406 C411 0.950 . S
H407 C412 0.949 . S
H408 C414 0.950 . S
H409 C415 0.950 . S
H410 C416 0.949 . S
C411 H406 0.950 . S
C411 C413 1.327 . S
C411 C417 1.429 . S
C412 C404 1.574 . S
C412 H407 0.949 . S
C412 C418 1.368 . S
C413 C397 1.349 . S
C413 H405 0.950 . S
C413 C411 1.327 . S
C414 C402 1.349 . S
C414 H408 0.950 . S
C414 C415 1.327 . S
C415 H409 0.950 . S
C415 C414 1.327 . S
C415 C419 1.429 . S
C416 C399 1.574 . S
C416 H410 0.949 . S
C416 C420 1.368 . S
C417 C398 1.429 . S
C417 C411 1.429 . S
C417 C418 1.523 . S
C418 C399 1.368 . S
C418 C412 1.368 . S
C418 C417 1.523 . S
C419 C403 1.429 . S
C419 C415 1.429 . S
C419 C420 1.523 . S
C420 C404 1.368 . S
C420 C416 1.368 . S
C420 C419 1.523 . S
H421 C396 0.950 . S
H422 C398 0.950 . S
H423 C399 0.949 . S
H424 C401 0.950 . S
H425 C403 0.950 . S
C426 C427 1.349 . S
C426 C428 1.327 . S
C426 H451 0.950 . S
C427 C426 1.349 . S
C427 C443 1.349 . S
C428 C426 1.327 . S
C428 C447 1.429 . S
C428 H452 0.950 . S
C429 C446 1.574 . S
C429 C448 1.368 . S
C429 H453 0.949 . S
H430 C434 0.949 . S
C431 C432 1.349 . S
C431 C433 1.327 . S
C431 H454 0.950 . S
C432 C431 1.349 . S
C432 C444 1.349 . S
C433 C431 1.327 . S
C433 C449 1.429 . S
C433 H455 0.950 . S
C434 H430 0.949 . S
C434 C442 1.574 . S
C434 C450 1.368 . S
H435 C443 0.950 . S
H436 C441 0.950 . S
H437 C442 0.949 . S
H438 C444 0.950 . S
H439 C445 0.950 . S
H440 C446 0.949 . S
C441 H436 0.950 . S
C441 C443 1.327 . S
C441 C447 1.429 . S
C442 C434 1.574 . S
C442 H437 0.949 . S
C442 C448 1.368 . S
C443 C427 1.349 . S
C443 H435 0.950 . S
C443 C441 1.327 . S
C444 C432 1.349 . S
C444 H438 0.950 . S
C444 C445 1.327 . S
C445 H439 0.950 . S
C445 C444 1.327 . S
C445 C449 1.429 . S
C446 C429 1.574 . S
C446 H440 0.949 . S
C446 C450 1.368 . S
C447 C428 1.429 . S
C447 C441 1.429 . S
C447 C448 1.523 . S
C448 C429 1.368 . S
C448 C442 1.368 . S
C448 C447 1.523 . S
C449 C433 1.429 . S
C449 C445 1.429 . S
C449 C450 1.523 . S
C450 C434 1.368 . S
C450 C446 1.368 . S
C450 C449 1.523 . S
H451 C426 0.950 . S
H452 C428 0.950 . S
H453 C429 0.949 . S
H454 C431 0.950 . S
H455 C433 0.950 . S
C456 C457 1.349 . S
C456 C458 1.327 . S
C456 H481 0.950 . S
C457 C456 1.349 . S
C457 C473 1.349 . S
C458 C456 1.327 . S
C458 C477 1.429 . S
C458 H482 0.950 . S
C459 C476 1.574 . S
C459 C478 1.368 . S
C459 H483 0.949 . S
H460 C464 0.949 . S
C461 C462 1.349 . S
C461 C463 1.327 . S
C461 H484 0.950 . S
C462 C461 1.349 . S
C462 C474 1.349 . S
C463 C461 1.327 . S
C463 C479 1.429 . S
C463 H485 0.950 . S
C464 H460 0.949 . S
C464 C472 1.574 . S
C464 C480 1.368 . S
H465 C473 0.950 . S
H466 C471 0.950 . S
H467 C472 0.949 . S
H468 C474 0.950 . S
H469 C475 0.950 . S
H470 C476 0.949 . S
C471 H466 0.950 . S
C471 C473 1.327 . S
C471 C477 1.429 . S
C472 C464 1.574 . S
C472 H467 0.949 . S
C472 C478 1.368 . S
C473 C457 1.349 . S
C473 H465 0.950 . S
C473 C471 1.327 . S
C474 C462 1.349 . S
C474 H468 0.950 . S
C474 C475 1.327 . S
C475 H469 0.950 . S
C475 C474 1.327 . S
C475 C479 1.429 . S
C476 C459 1.574 . S
C476 H470 0.949 . S
C476 C480 1.368 . S
C477 C458 1.429 . S
C477 C471 1.429 . S
C477 C478 1.523 . S
C478 C459 1.368 . S
C478 C472 1.368 . S
C478 C477 1.523 . S
C479 C463 1.429 . S
C479 C475 1.429 . S
C479 C480 1.523 . S
C480 C464 1.368 . S
C480 C476 1.368 . S
C480 C479 1.523 . S
H481 C456 0.950 . S
H482 C458 0.950 . S
H483 C459 0.949 . S
H484 C461 0.950 . S
H485 C463 0.950 . S
C486 C487 1.349 . S
C486 C488 1.327 . S
C486 H511 0.950 . S
C487 C486 1.349 . S
C487 C503 1.349 . S
C488 C486 1.327 . S
C488 C507 1.429 . S
C488 H512 0.950 . S
C489 C506 1.574 . S
C489 C508 1.368 . S
C489 H513 0.949 . S
H490 C494 0.949 . S
C491 C492 1.349 . S
C491 C493 1.327 . S
C491 H514 0.950 . S
C492 C491 1.349 . S
C492 C504 1.349 . S
C493 C491 1.327 . S
C493 C509 1.429 . S
C493 H515 0.950 . S
C494 H490 0.949 . S
C494 C502 1.574 . S
C494 C510 1.368 . S
H495 C503 0.950 . S
H496 C501 0.950 . S
H497 C502 0.949 . S
H498 C504 0.950 . S
H499 C505 0.950 . S
H500 C506 0.949 . S
C501 H496 0.950 . S
C501 C503 1.327 . S
C501 C507 1.429 . S
C502 C494 1.574 . S
C502 H497 0.949 . S
C502 C508 1.368 . S
C503 C487 1.349 . S
C503 H495 0.950 . S
C503 C501 1.327 . S
C504 C492 1.349 . S
C504 H498 0.950 . S
C504 C505 1.327 . S
C505 H499 0.950 . S
C505 C504 1.327 . S
C505 C509 1.429 . S
C506 C489 1.574 . S
C506 H500 0.949 . S
C506 C510 1.368 . S
C507 C488 1.429 . S
C507 C501 1.429 . S
C507 C508 1.523 . S
C508 C489 1.368 . S
C508 C502 1.368 . S
C508 C507 1.523 . S
C509 C493 1.429 . S
C509 C505 1.429 . S
C509 C510 1.523 . S
C510 C494 1.368 . S
C510 C506 1.368 . S
C510 C509 1.523 . S
H511 C486 0.950 . S
H512 C488 0.950 . S
H513 C489 0.949 . S
H514 C491 0.950 . S
H515 C493 0.950 . S
C516 C517 1.349 . S
C516 C518 1.327 . S
C516 H541 0.950 . S
C517 C516 1.349 . S
C517 C533 1.349 . S
C518 C516 1.327 . S
C518 C537 1.429 . S
C518 H542 0.950 . S
C519 C536 1.574 . S
C519 C538 1.368 . S
C519 H543 0.949 . S
H520 C524 0.949 . S
C521 C522 1.349 . S
C521 C523 1.327 . S
C521 H544 0.950 . S
C522 C521 1.349 . S
C522 C534 1.349 . S
C523 C521 1.327 . S
C523 C539 1.429 . S
C523 H545 0.950 . S
C524 H520 0.949 . S
C524 C532 1.574 . S
C524 C540 1.368 . S
H525 C533 0.950 . S
H526 C531 0.950 . S
H527 C532 0.949 . S
H528 C534 0.950 . S
H529 C535 0.950 . S
H530 C536 0.949 . S
C531 H526 0.950 . S
C531 C533 1.327 . S
C531 C537 1.429 . S
C532 C524 1.574 . S
C532 H527 0.949 . S
C532 C538 1.368 . S
C533 C517 1.349 . S
C533 H525 0.950 . S
C533 C531 1.327 . S
C534 C522 1.349 . S
C534 H528 0.950 . S
C534 C535 1.327 . S
C535 H529 0.950 . S
C535 C534 1.327 . S
C535 C539 1.429 . S
C536 C519 1.574 . S
C536 H530 0.949 . S
C536 C540 1.368 . S
C537 C518 1.429 . S
C537 C531 1.429 . S
C537 C538 1.523 . S
C538 C519 1.368 . S
C538 C532 1.368 . S
C538 C537 1.523 . S
C539 C523 1.429 . S
C539 C535 1.429 . S
C539 C540 1.523 . S
C540 C524 1.368 . S
C540 C536 1.368 . S
C540 C539 1.523 . S
H541 C516 0.950 . S
H542 C518 0.950 . S
H543 C519 0.949 . S
H544 C521 0.950 . S
H545 C523 0.950 . S
C546 C547 1.349 . S
C546 C548 1.327 . S
C546 H571 0.950 . S
C547 C546 1.349 . S
C547 C563 1.349 . S
C548 C546 1.327 . S
C548 C567 1.429 . S
C548 H572 0.950 . S
C549 C566 1.574 . S
C549 C568 1.368 . S
C549 H573 0.949 . S
H550 C554 0.949 . S
C551 C552 1.349 . S
C551 C553 1.327 . S
C551 H574 0.950 . S
C552 C551 1.349 . S
C552 C564 1.349 . S
C553 C551 1.327 . S
C553 C569 1.429 . S
C553 H575 0.950 . S
C554 H550 0.949 . S
C554 C562 1.574 . S
C554 C570 1.368 . S
H555 C563 0.950 . S
H556 C561 0.950 . S
H557 C562 0.949 . S
H558 C564 0.950 . S
H559 C565 0.950 . S
H560 C566 0.949 . S
C561 H556 0.950 . S
C561 C563 1.327 . S
C561 C567 1.429 . S
C562 C554 1.574 . S
C562 H557 0.949 . S
C562 C568 1.368 . S
C563 C547 1.349 . S
C563 H555 0.950 . S
C563 C561 1.327 . S
C564 C552 1.349 . S
C564 H558 0.950 . S
C564 C565 1.327 . S
C565 H559 0.950 . S
C565 C564 1.327 . S
C565 C569 1.429 . S
C566 C549 1.574 . S
C566 H560 0.949 . S
C566 C570 1.368 . S
C567 C548 1.429 . S
C567 C561 1.429 . S
C567 C568 1.523 . S
C568 C549 1.368 . S
C568 C562 1.368 . S
C568 C567 1.523 . S
C569 C553 1.429 . S
C569 C565 1.429 . S
C569 C570 1.523 . S
C570 C554 1.368 . S
C570 C566 1.368 . S
C570 C569 1.523 . S
H571 C546 0.950 . S
H572 C548 0.950 . S
H573 C549 0.949 . S
H574 C551 0.950 . S
H575 C553 0.950 . S
C576 C577 1.349 . S
C576 C578 1.327 . S
C576 H601 0.950 . S
C577 C576 1.349 . S
C577 C593 1.349 . S
C578 C576 1.327 . S
C578 C597 1.429 . S
C578 H602 0.950 . S
C579 C596 1.574 . S
C579 C598 1.368 . S
C579 H603 0.949 . S
H580 C584 0.949 . S
C581 C582 1.349 . S
C581 C583 1.327 . S
C581 H604 0.950 . S
C582 C581 1.349 . S
C582 C594 1.349 . S
C583 C581 1.327 . S
C583 C599 1.429 . S
C583 H605 0.950 . S
C584 H580 0.949 . S
C584 C592 1.574 . S
C584 C600 1.368 . S
H585 C593 0.950 . S
H586 C591 0.950 . S
H587 C592 0.949 . S
H588 C594 0.950 . S
H589 C595 0.950 . S
H590 C596 0.949 . S
C591 H586 0.950 . S
C591 C593 1.327 . S
C591 C597 1.429 . S
C592 C584 1.574 . S
C592 H587 0.949 . S
C592 C598 1.368 . S
C593 C577 1.349 . S
C593 H585 0.950 . S
C593 C591 1.327 . S
C594 C582 1.349 . S
C594 H588 0.950 . S
C594 C595 1.327 . S
C595 H589 0.950 . S
C595 C594 1.327 . S
C595 C599 1.429 . S
C596 C579 1.574 . S
C596 H590 0.949 . S
C596 C600 1.368 . S
C597 C578 1.429 . S
C597 C591 1.429 . S
C597 C598 1.523 . S
C598 C579 1.368 . S
C598 C592 1.368 . S
C598 C597 1.523 . S
C599 C583 1.429 . S
C599 C595 1.429 . S
C599 C600 1.523 . S
C600 C584 1.368 . S
C600 C596 1.368 . S
C600 C599 1.523 . S
H601 C576 0.950 . S
H602 C578 0.950 . S
H603 C579 0.949 . S
H604 C581 0.950 . S
H605 C583 0.950 . S
C606 C607 1.349 . S
C606 C608 1.327 . S
C606 H631 0.950 . S
C607 C606 1.349 . S
C607 C623 1.349 . S
C608 C606 1.327 . S
C608 C627 1.429 . S
C608 H632 0.950 . S
C609 C626 1.574 . S
C609 C628 1.368 . S
C609 H633 0.949 . S
H610 C614 0.949 . S
C611 C612 1.349 . S
C611 C613 1.327 . S
C611 H634 0.950 . S
C612 C611 1.349 . S
C612 C624 1.349 . S
C613 C611 1.327 . S
C613 C629 1.429 . S
C613 H635 0.950 . S
C614 H610 0.949 . S
C614 C622 1.574 . S
C614 C630 1.368 . S
H615 C623 0.950 . S
H616 C621 0.950 . S
H617 C622 0.949 . S
H618 C624 0.950 . S
H619 C625 0.950 . S
H620 C626 0.949 . S
C621 H616 0.950 . S
C621 C623 1.327 . S
C621 C627 1.429 . S
C622 C614 1.574 . S
C622 H617 0.949 . S
C622 C628 1.368 . S
C623 C607 1.349 . S
C623 H615 0.950 . S
C623 C621 1.327 . S
C624 C612 1.349 . S
C624 H618 0.950 . S
C624 C625 1.327 . S
C625 H619 0.950 . S
C625 C624 1.327 . S
C625 C629 1.429 . S
C626 C609 1.574 . S
C626 H620 0.949 . S
C626 C630 1.368 . S
C627 C608 1.429 . S
C627 C621 1.429 . S
C627 C628 1.523 . S
C628 C609 1.368 . S
C628 C622 1.368 . S
C628 C627 1.523 . S
C629 C613 1.429 . S
C629 C625 1.429 . S
C629 C630 1.523 . S
C630 C614 1.368 . S
C630 C626 1.368 . S
C630 C629 1.523 . S
H631 C606 0.950 . S
H632 C608 0.950 . S
H633 C609 0.949 . S
H634 C611 0.950 . S
H635 C613 0.950 . S
C636 C637 1.349 . S
C636 C638 1.327 . S
C636 H661 0.950 . S
C637 C636 1.349 . S
C637 C653 1.349 . S
C638 C636 1.327 . S
C638 C657 1.429 . S
C638 H662 0.950 . S
C639 C656 1.574 . S
C639 C658 1.368 . S
C639 H663 0.949 . S
H640 C644 0.949 . S
C641 C642 1.349 . S
C641 C643 1.327 . S
C641 H664 0.950 . S
C642 C641 1.349 . S
C642 C654 1.349 . S
C643 C641 1.327 . S
C643 C659 1.429 . S
C643 H665 0.950 . S
C644 H640 0.949 . S
C644 C652 1.574 . S
C644 C660 1.368 . S
H645 C653 0.950 . S
H646 C651 0.950 . S
H647 C652 0.949 . S
H648 C654 0.950 . S
H649 C655 0.950 . S
H650 C656 0.949 . S
C651 H646 0.950 . S
C651 C653 1.327 . S
C651 C657 1.429 . S
C652 C644 1.574 . S
C652 H647 0.949 . S
C652 C658 1.368 . S
C653 C637 1.349 . S
C653 H645 0.950 . S
C653 C651 1.327 . S
C654 C642 1.349 . S
C654 H648 0.950 . S
C654 C655 1.327 . S
C655 H649 0.950 . S
C655 C654 1.327 . S
C655 C659 1.429 . S
C656 C639 1.574 . S
C656 H650 0.949 . S
C656 C660 1.368 . S
C657 C638 1.429 . S
C657 C651 1.429 . S
C657 C658 1.523 . S
C658 C639 1.368 . S
C658 C652 1.368 . S
C658 C657 1.523 . S
C659 C643 1.429 . S
C659 C655 1.429 . S
C659 C660 1.523 . S
C660 C644 1.368 . S
C660 C656 1.368 . S
C660 C659 1.523 . S
H661 C636 0.950 . S
H662 C638 0.950 . S
H663 C639 0.949 . S
H664 C641 0.950 . S
H665 C643 0.950 . S
C666 C667 1.349 . S
C666 C668 1.327 . S
C666 H691 0.950 . S
C667 C666 1.349 . S
C667 C683 1.349 . S
C668 C666 1.327 . S
C668 C687 1.429 . S
C668 H692 0.950 . S
C669 C686 1.574 . S
C669 C688 1.368 . S
C669 H693 0.949 . S
H670 C674 0.949 . S
C671 C672 1.349 . S
C671 C673 1.327 . S
C671 H694 0.950 . S
C672 C671 1.349 . S
C672 C684 1.349 . S
C673 C671 1.327 . S
C673 C689 1.429 . S
C673 H695 0.950 . S
C674 H670 0.949 . S
C674 C682 1.574 . S
C674 C690 1.368 . S
H675 C683 0.950 . S
H676 C681 0.950 . S
H677 C682 0.949 . S
H678 C684 0.950 . S
H679 C685 0.950 . S
H680 C686 0.949 . S
C681 H676 0.950 . S
C681 C683 1.327 . S
C681 C687 1.429 . S
C682 C674 1.574 . S
C682 H677 0.949 . S
C682 C688 1.368 . S
C683 C667 1.349 . S
C683 H675 0.950 . S
C683 C681 1.327 . S
C684 C672 1.349 . S
C684 H678 0.950 . S
C684 C685 1.327 . S
C685 H679 0.950 . S
C685 C684 1.327 . S
C685 C689 1.429 . S
C686 C669 1.574 . S
C686 H680 0.949 . S
C686 C690 1.368 . S
C687 C668 1.429 . S
C687 C681 1.429 . S
C687 C688 1.523 . S
C688 C669 1.368 . S
C688 C682 1.368 . S
C688 C687 1.523 . S
C689 C673 1.429 . S
C689 C685 1.429 . S
C689 C690 1.523 . S
C690 C674 1.368 . S
C690 C686 1.368 . S
C690 C689 1.523 . S
H691 C666 0.950 . S
H692 C668 0.950 . S
H693 C669 0.949 . S
H694 C671 0.950 . S
H695 C673 0.950 . S
C696 C697 1.349 . S
C696 C698 1.327 . S
C696 H721 0.950 . S
C697 C696 1.349 . S
C697 C713 1.349 . S
C698 C696 1.327 . S
C698 C717 1.429 . S
C698 H722 0.950 . S
C699 C716 1.574 . S
C699 C718 1.368 . S
C699 H723 0.949 . S
H700 C704 0.949 . S
C701 C702 1.349 . S
C701 C703 1.327 . S
C701 H724 0.950 . S
C702 C701 1.349 . S
C702 C714 1.349 . S
C703 C701 1.327 . S
C703 C719 1.429 . S
C703 H725 0.950 . S
C704 H700 0.949 . S
C704 C712 1.574 . S
C704 C720 1.368 . S
H705 C713 0.950 . S
H706 C711 0.950 . S
H707 C712 0.949 . S
H708 C714 0.950 . S
H709 C715 0.950 . S
H710 C716 0.949 . S
C711 H706 0.950 . S
C711 C713 1.327 . S
C711 C717 1.429 . S
C712 C704 1.574 . S
C712 H707 0.949 . S
C712 C718 1.368 1_545 S
C713 C697 1.349 . S
C713 H705 0.950 . S
C713 C711 1.327 . S
C714 C702 1.349 . S
C714 H708 0.950 . S
C714 C715 1.327 . S
C715 H709 0.950 . S
C715 C714 1.327 . S
C715 C719 1.429 . S
C716 C699 1.574 . S
C716 H710 0.949 . S
C716 C720 1.368 1_565 S
C717 C698 1.429 . S
C717 C711 1.429 . S
C717 C718 1.523 . S
C718 C699 1.368 . S
C718 C712 1.368 1_565 S
C718 C717 1.523 . S
C719 C703 1.429 . S
C719 C715 1.429 . S
C719 C720 1.523 . S
C720 C704 1.368 . S
C720 C716 1.368 1_545 S
C720 C719 1.523 . S
H721 C696 0.950 . S
H722 C698 0.950 . S
H723 C699 0.949 . S
H724 C701 0.950 . S
H725 C703 0.950 . S
C726 C727 1.349 . S
C726 C728 1.327 . S
C726 H751 0.950 . S
C727 C726 1.349 . S
C727 C743 1.349 . S
C728 C726 1.327 . S
C728 C747 1.429 . S
C728 H752 0.950 . S
C729 C746 1.574 . S
C729 C748 1.368 1_455 S
C729 H753 0.949 . S
H730 C734 0.949 . S
C731 C732 1.349 . S
C731 C733 1.327 . S
C731 H754 0.950 . S
C732 C731 1.349 . S
C732 C744 1.349 . S
C733 C731 1.327 . S
C733 C749 1.429 . S
C733 H755 0.950 . S
C734 H730 0.949 . S
C734 C742 1.574 . S
C734 C750 1.368 1_655 S
H735 C743 0.950 . S
H736 C741 0.950 . S
H737 C742 0.949 . S
H738 C744 0.950 . S
H739 C745 0.950 . S
H740 C746 0.949 . S
C741 H736 0.950 . S
C741 C743 1.327 . S
C741 C747 1.429 . S
C742 C734 1.574 . S
C742 H737 0.949 . S
C742 C748 1.368 . S
C743 C727 1.349 . S
C743 H735 0.950 . S
C743 C741 1.327 . S
C744 C732 1.349 . S
C744 H738 0.950 . S
C744 C745 1.327 . S
C745 H739 0.950 . S
C745 C744 1.327 . S
C745 C749 1.429 . S
C746 C729 1.574 . S
C746 H740 0.949 . S
C746 C750 1.368 . S
C747 C728 1.429 . S
C747 C741 1.429 . S
C747 C748 1.523 . S
C748 C729 1.368 1_655 S
C748 C742 1.368 . S
C748 C747 1.523 . S
C749 C733 1.429 . S
C749 C745 1.429 . S
C749 C750 1.523 . S
C750 C734 1.368 1_455 S
C750 C746 1.368 . S
C750 C749 1.523 . S
H751 C726 0.950 . S
H752 C728 0.950 . S
H753 C729 0.949 . S
H754 C731 0.950 . S
H755 C733 0.950 . S
C756 C757 1.349 . S
C756 C758 1.327 . S
C756 H781 0.950 . S
C757 C756 1.349 . S
C757 C773 1.349 . S
C758 C756 1.327 . S
C758 C777 1.429 . S
C758 H782 0.950 . S
C759 C776 1.574 1_545 S
C759 C778 1.368 . S
C759 H783 0.949 . S
H760 C764 0.949 . S
C761 C762 1.349 . S
C761 C763 1.327 . S
C761 H784 0.950 . S
C762 C761 1.349 . S
C762 C774 1.349 . S
C763 C761 1.327 . S
C763 C779 1.429 . S
C763 H785 0.950 . S
C764 H760 0.949 . S
C764 C772 1.574 1_565 S
C764 C780 1.368 . S
H765 C773 0.950 . S
H766 C771 0.950 . S
H767 C772 0.949 . S
H768 C774 0.950 . S
H769 C775 0.950 . S
H770 C776 0.949 . S
C771 H766 0.950 . S
C771 C773 1.327 . S
C771 C777 1.429 . S
C772 C764 1.574 1_545 S
C772 H767 0.949 . S
C772 C778 1.368 . S
C773 C757 1.349 . S
C773 H765 0.950 . S
C773 C771 1.327 . S
C774 C762 1.349 . S
C774 H768 0.950 . S
C774 C775 1.327 . S
C775 H769 0.950 . S
C775 C774 1.327 . S
C775 C779 1.429 . S
C776 C759 1.574 1_565 S
C776 H770 0.949 . S
C776 C780 1.368 . S
C777 C758 1.429 . S
C777 C771 1.429 . S
C777 C778 1.523 . S
C778 C759 1.368 . S
C778 C772 1.368 . S
C778 C777 1.523 . S
C779 C763 1.429 . S
C779 C775 1.429 . S
C779 C780 1.523 . S
C780 C764 1.368 . S
C780 C776 1.368 . S
C780 C779 1.523 . S
H781 C756 0.950 . S
H782 C758 0.950 . S
H783 C759 0.949 . S
H784 C761 0.950 . S
H785 C763 0.950 . S
C786 C787 1.349 . S
C786 C788 1.327 . S
C786 H811 0.950 . S
C787 C786 1.349 . S
C787 C803 1.349 . S
C788 C786 1.327 . S
C788 C807 1.429 . S
C788 H812 0.950 . S
C789 C806 1.574 1_455 S
C789 C808 1.368 . S
C789 H813 0.949 . S
H790 C794 0.949 . S
C791 C792 1.349 . S
C791 C793 1.327 . S
C791 H814 0.950 . S
C792 C791 1.349 . S
C792 C804 1.349 . S
C793 C791 1.327 . S
C793 C809 1.429 . S
C793 H815 0.950 . S
C794 H790 0.949 . S
C794 C802 1.574 1_655 S
C794 C810 1.368 . S
H795 C803 0.950 . S
H796 C801 0.950 . S
H797 C802 0.949 . S
H798 C804 0.950 . S
H799 C805 0.950 . S
H800 C806 0.949 . S
C801 H796 0.950 . S
C801 C803 1.327 . S
C801 C807 1.429 . S
C802 C794 1.574 1_455 S
C802 H797 0.949 . S
C802 C808 1.368 . S
C803 C787 1.349 . S
C803 H795 0.950 . S
C803 C801 1.327 . S
C804 C792 1.349 . S
C804 H798 0.950 . S
C804 C805 1.327 . S
C805 H799 0.950 . S
C805 C804 1.327 . S
C805 C809 1.429 . S
C806 C789 1.574 1_655 S
C806 H800 0.949 . S
C806 C810 1.368 . S
C807 C788 1.429 . S
C807 C801 1.429 . S
C807 C808 1.523 . S
C808 C789 1.368 . S
C808 C802 1.368 . S
C808 C807 1.523 . S
C809 C793 1.429 . S
C809 C805 1.429 . S
C809 C810 1.523 . S
C810 C794 1.368 . S
C810 C806 1.368 . S
C810 C809 1.523 . S
H811 C786 0.950 . S
H812 C788 0.950 . S
H813 C789 0.949 . S
H814 C791 0.950 . S
H815 C793 0.950 . S
C816 C817 1.349 . S
C816 C818 1.327 . S
C816 H841 0.950 . S
C817 C816 1.349 . S
C817 C833 1.349 . S
C818 C816 1.327 . S
C818 C837 1.429 . S
C818 H842 0.950 . S
C819 C836 1.574 1_565 S
C819 C838 1.368 . S
C819 H843 0.949 . S
H820 C824 0.949 . S
C821 C822 1.349 . S
C821 C823 1.327 . S
C821 H844 0.950 . S
C822 C821 1.349 . S
C822 C834 1.349 . S
C823 C821 1.327 . S
C823 C839 1.429 . S
C823 H845 0.950 . S
C824 H820 0.949 . S
C824 C832 1.574 1_545 S
C824 C840 1.368 . S
H825 C833 0.950 . S
H826 C831 0.950 . S
H827 C832 0.949 . S
H828 C834 0.950 . S
H829 C835 0.950 . S
H830 C836 0.949 . S
C831 H826 0.950 . S
C831 C833 1.327 . S
C831 C837 1.429 . S
C832 C824 1.574 1_565 S
C832 H827 0.949 . S
C832 C838 1.368 . S
C833 C817 1.349 . S
C833 H825 0.950 . S
C833 C831 1.327 . S
C834 C822 1.349 . S
C834 H828 0.950 . S
C834 C835 1.327 . S
C835 H829 0.950 . S
C835 C834 1.327 . S
C835 C839 1.429 . S
C836 C819 1.574 1_545 S
C836 H830 0.949 . S
C836 C840 1.368 . S
C837 C818 1.429 . S
C837 C831 1.429 . S
C837 C838 1.523 . S
C838 C819 1.368 . S
C838 C832 1.368 . S
C838 C837 1.523 . S
C839 C823 1.429 . S
C839 C835 1.429 . S
C839 C840 1.523 . S
C840 C824 1.368 . S
C840 C836 1.368 . S
C840 C839 1.523 . S
H841 C816 0.950 . S
H842 C818 0.950 . S
H843 C819 0.949 . S
H844 C821 0.950 . S
H845 C823 0.950 . S
C846 C847 1.349 . S
C846 C848 1.327 . S
C846 H871 0.950 . S
C847 C846 1.349 . S
C847 C863 1.349 . S
C848 C846 1.327 . S
C848 C867 1.429 . S
C848 H872 0.950 . S
C849 C866 1.574 1_655 S
C849 C868 1.368 . S
C849 H873 0.949 . S
H850 C854 0.949 . S
C851 C852 1.349 . S
C851 C853 1.327 . S
C851 H874 0.950 . S
C852 C851 1.349 . S
C852 C864 1.349 . S
C853 C851 1.327 . S
C853 C869 1.429 . S
C853 H875 0.950 . S
C854 H850 0.949 . S
C854 C862 1.574 1_455 S
C854 C870 1.368 . S
H855 C863 0.950 . S
H856 C861 0.950 . S
H857 C862 0.949 . S
H858 C864 0.950 . S
H859 C865 0.950 . S
H860 C866 0.949 . S
C861 H856 0.950 . S
C861 C863 1.327 . S
C861 C867 1.429 . S
C862 C854 1.574 1_655 S
C862 H857 0.949 . S
C862 C868 1.368 . S
C863 C847 1.349 . S
C863 H855 0.950 . S
C863 C861 1.327 . S
C864 C852 1.349 . S
C864 H858 0.950 . S
C864 C865 1.327 . S
C865 H859 0.950 . S
C865 C864 1.327 . S
C865 C869 1.429 . S
C866 C849 1.574 1_455 S
C866 H860 0.949 . S
C866 C870 1.368 . S
C867 C848 1.429 . S
C867 C861 1.429 . S
C867 C868 1.523 . S
C868 C849 1.368 . S
C868 C862 1.368 . S
C868 C867 1.523 . S
C869 C853 1.429 . S
C869 C865 1.429 . S
C869 C870 1.523 . S
C870 C854 1.368 . S
C870 C866 1.368 . S
C870 C869 1.523 . S
H871 C846 0.950 . S
H872 C848 0.950 . S
H873 C849 0.949 . S
H874 C851 0.950 . S
H875 C853 0.950 . S
C876 C877 1.349 . S
C876 C878 1.327 . S
C876 H901 0.950 . S
C877 C876 1.349 . S
C877 C893 1.349 . S
C878 C876 1.327 . S
C878 C897 1.429 . S
C878 H902 0.950 . S
C879 C896 1.574 . S
C879 C898 1.368 . S
C879 H903 0.949 . S
H880 C884 0.949 . S
C881 C882 1.349 . S
C881 C883 1.327 . S
C881 H904 0.950 . S
C882 C881 1.349 . S
C882 C894 1.349 . S
C883 C881 1.327 . S
C883 C899 1.429 . S
C883 H905 0.950 . S
C884 H880 0.949 . S
C884 C892 1.574 . S
C884 C900 1.368 . S
H885 C893 0.950 . S
H886 C891 0.950 . S
H887 C892 0.949 . S
H888 C894 0.950 . S
H889 C895 0.950 . S
H890 C896 0.949 . S
C891 H886 0.950 . S
C891 C893 1.327 . S
C891 C897 1.429 . S
C892 C884 1.574 . S
C892 H887 0.949 . S
C892 C898 1.368 1_545 S
C893 C877 1.349 . S
C893 H885 0.950 . S
C893 C891 1.327 . S
C894 C882 1.349 . S
C894 H888 0.950 . S
C894 C895 1.327 . S
C895 H889 0.950 . S
C895 C894 1.327 . S
C895 C899 1.429 . S
C896 C879 1.574 . S
C896 H890 0.949 . S
C896 C900 1.368 1_565 S
C897 C878 1.429 . S
C897 C891 1.429 . S
C897 C898 1.523 . S
C898 C879 1.368 . S
C898 C892 1.368 1_565 S
C898 C897 1.523 . S
C899 C883 1.429 . S
C899 C895 1.429 . S
C899 C900 1.523 . S
C900 C884 1.368 . S
C900 C896 1.368 1_545 S
C900 C899 1.523 . S
H901 C876 0.950 . S
H902 C878 0.950 . S
H903 C879 0.949 . S
H904 C881 0.950 . S
H905 C883 0.950 . S
C906 C907 1.349 . S
C906 C908 1.327 . S
C906 H931 0.950 . S
C907 C906 1.349 . S
C907 C923 1.349 . S
C908 C906 1.327 . S
C908 C927 1.429 . S
C908 H932 0.950 . S
C909 C926 1.574 1_455 S
C909 C928 1.368 . S
C909 H933 0.949 . S
H910 C914 0.949 . S
C911 C912 1.349 . S
C911 C913 1.327 . S
C911 H934 0.950 . S
C912 C911 1.349 . S
C912 C924 1.349 . S
C913 C911 1.327 . S
C913 C929 1.429 . S
C913 H935 0.950 . S
C914 H910 0.949 . S
C914 C922 1.574 1_655 S
C914 C930 1.368 . S
H915 C923 0.950 . S
H916 C921 0.950 . S
H917 C922 0.949 . S
H918 C924 0.950 . S
H919 C925 0.950 . S
H920 C926 0.949 . S
C921 H916 0.950 . S
C921 C923 1.327 . S
C921 C927 1.429 . S
C922 C914 1.574 1_455 S
C922 H917 0.949 . S
C922 C928 1.368 . S
C923 C907 1.349 . S
C923 H915 0.950 . S
C923 C921 1.327 . S
C924 C912 1.349 . S
C924 H918 0.950 . S
C924 C925 1.327 . S
C925 H919 0.950 . S
C925 C924 1.327 . S
C925 C929 1.429 . S
C926 C909 1.574 1_655 S
C926 H920 0.949 . S
C926 C930 1.368 . S
C927 C908 1.429 . S
C927 C921 1.429 . S
C927 C928 1.523 . S
C928 C909 1.368 . S
C928 C922 1.368 . S
C928 C927 1.523 . S
C929 C913 1.429 . S
C929 C925 1.429 . S
C929 C930 1.523 . S
C930 C914 1.368 . S
C930 C926 1.368 . S
C930 C929 1.523 . S
H931 C906 0.950 . S
H932 C908 0.950 . S
H933 C909 0.949 . S
H934 C911 0.950 . S
H935 C913 0.950 . S
C936 C937 1.349 . S
C936 C938 1.327 . S
C936 H961 0.950 . S
C937 C936 1.349 . S
C937 C953 1.349 . S
C938 C936 1.327 . S
C938 C957 1.429 . S
C938 H962 0.950 . S
C939 C956 1.574 . S
C939 C958 1.368 1_554 S
C939 H963 0.949 . S
H940 C944 0.949 . S
C941 C942 1.349 . S
C941 C943 1.327 . S
C941 H964 0.950 . S
C942 C941 1.349 . S
C942 C954 1.349 . S
C943 C941 1.327 . S
C943 C959 1.429 . S
C943 H965 0.950 . S
C944 H940 0.949 . S
C944 C952 1.574 . S
C944 C960 1.368 1_556 S
H945 C953 0.950 . S
H946 C951 0.950 . S
H947 C952 0.949 . S
H948 C954 0.950 . S
H949 C955 0.950 . S
H950 C956 0.949 . S
C951 H946 0.950 . S
C951 C953 1.327 . S
C951 C957 1.429 . S
C952 C944 1.574 . S
C952 H947 0.949 . S
C952 C958 1.368 . S
C953 C937 1.349 . S
C953 H945 0.950 . S
C953 C951 1.327 . S
C954 C942 1.349 . S
C954 H948 0.950 . S
C954 C955 1.327 . S
C955 H949 0.950 . S
C955 C954 1.327 . S
C955 C959 1.429 . S
C956 C939 1.574 . S
C956 H950 0.949 . S
C956 C960 1.368 . S
C957 C938 1.429 . S
C957 C951 1.429 . S
C957 C958 1.523 . S
C958 C939 1.368 1_556 S
C958 C952 1.368 . S
C958 C957 1.523 . S
C959 C943 1.429 . S
C959 C955 1.429 . S
C959 C960 1.523 . S
C960 C944 1.368 1_554 S
C960 C956 1.368 . S
C960 C959 1.523 . S
H961 C936 0.950 . S
H962 C938 0.950 . S
H963 C939 0.949 . S
H964 C941 0.950 . S
H965 C943 0.950 . S
C966 C967 1.349 . S
C966 C968 1.327 . S
C966 H991 0.950 . S
C967 C966 1.349 . S
C967 C983 1.349 . S
C968 C966 1.327 . S
C968 C987 1.429 . S
C968 H992 0.950 . S
C969 C986 1.574 . S
C969 C988 1.368 1_556 S
C969 H993 0.949 . S
H970 C974 0.949 . S
C971 C972 1.349 . S
C971 C973 1.327 . S
C971 H994 0.950 . S
C972 C971 1.349 . S
C972 C984 1.349 . S
C973 C971 1.327 . S
C973 C989 1.429 . S
C973 H995 0.950 . S
C974 H970 0.949 . S
C974 C982 1.574 . S
C974 C990 1.368 1_554 S
H975 C983 0.950 . S
H976 C981 0.950 . S
H977 C982 0.949 . S
H978 C984 0.950 . S
H979 C985 0.950 . S
H980 C986 0.949 . S
C981 H976 0.950 . S
C981 C983 1.327 . S
C981 C987 1.429 . S
C982 C974 1.574 . S
C982 H977 0.949 . S
C982 C988 1.368 . S
C983 C967 1.349 . S
C983 H975 0.950 . S
C983 C981 1.327 . S
C984 C972 1.349 . S
C984 H978 0.950 . S
C984 C985 1.327 . S
C985 H979 0.950 . S
C985 C984 1.327 . S
C985 C989 1.429 . S
C986 C969 1.574 . S
C986 H980 0.949 . S
C986 C990 1.368 . S
C987 C968 1.429 . S
C987 C981 1.429 . S
C987 C988 1.523 . S
C988 C969 1.368 1_554 S
C988 C982 1.368 . S
C988 C987 1.523 . S
C989 C973 1.429 . S
C989 C985 1.429 . S
C989 C990 1.523 . S
C990 C974 1.368 1_556 S
C990 C986 1.368 . S
C990 C989 1.523 . S
H991 C966 0.950 . S
H992 C968 0.950 . S
H993 C969 0.949 . S
H994 C971 0.950 . S
H995 C973 0.950 . S
C996 C997 1.349 . S
C996 C998 1.327 . S
C996 H1021 0.950 . S
C997 C996 1.349 . S
C997 C1013 1.349 . S
C998 C996 1.327 . S
C998 C1017 1.429 . S
C998 H1022 0.950 . S
C999 C1016 1.574 1_556 S
C999 C1018 1.368 . S
C999 H1023 0.949 . S
H1000 C1004 0.949 . S
C1001 C1002 1.349 . S
C1001 C1003 1.327 . S
C1001 H1024 0.950 . S
C1002 C1001 1.349 . S
C1002 C1014 1.349 . S
C1003 C1001 1.327 . S
C1003 C1019 1.429 . S
C1003 H1025 0.950 . S
C1004 H1000 0.949 . S
C1004 C1012 1.574 1_554 S
C1004 C1020 1.368 . S
H1005 C1013 0.950 . S
H1006 C1011 0.950 . S
H1007 C1012 0.949 . S
H1008 C1014 0.950 . S
H1009 C1015 0.950 . S
H1010 C1016 0.949 . S
C1011 H1006 0.950 . S
C1011 C1013 1.327 . S
C1011 C1017 1.429 . S
C1012 C1004 1.574 1_556 S
C1012 H1007 0.949 . S
C1012 C1018 1.368 . S
C1013 C997 1.349 . S
C1013 H1005 0.950 . S
C1013 C1011 1.327 . S
C1014 C1002 1.349 . S
C1014 H1008 0.950 . S
C1014 C1015 1.327 . S
C1015 H1009 0.950 . S
C1015 C1014 1.327 . S
C1015 C1019 1.429 . S
C1016 C999 1.574 1_554 S
C1016 H1010 0.949 . S
C1016 C1020 1.368 . S
C1017 C998 1.429 . S
C1017 C1011 1.429 . S
C1017 C1018 1.523 . S
C1018 C999 1.368 . S
C1018 C1012 1.368 . S
C1018 C1017 1.523 . S
C1019 C1003 1.429 . S
C1019 C1015 1.429 . S
C1019 C1020 1.523 . S
C1020 C1004 1.368 . S
C1020 C1016 1.368 . S
C1020 C1019 1.523 . S
H1021 C996 0.950 . S
H1022 C998 0.950 . S
H1023 C999 0.949 . S
H1024 C1001 0.950 . S
H1025 C1003 0.950 . S
C1026 C1027 1.349 . S
C1026 C1028 1.327 . S
C1026 H1051 0.950 . S
C1027 C1026 1.349 . S
C1027 C1043 1.349 . S
C1028 C1026 1.327 . S
C1028 C1047 1.429 . S
C1028 H1052 0.950 . S
C1029 C1046 1.574 . S
C1029 C1048 1.368 1_556 S
C1029 H1053 0.949 . S
H1030 C1034 0.949 . S
C1031 C1032 1.349 . S
C1031 C1033 1.327 . S
C1031 H1054 0.950 . S
C1032 C1031 1.349 . S
C1032 C1044 1.349 . S
C1033 C1031 1.327 . S
C1033 C1049 1.429 . S
C1033 H1055 0.950 . S
C1034 H1030 0.949 . S
C1034 C1042 1.574 . S
C1034 C1050 1.368 1_554 S
H1035 C1043 0.950 . S
H1036 C1041 0.950 . S
H1037 C1042 0.949 . S
H1038 C1044 0.950 . S
H1039 C1045 0.950 . S
H1040 C1046 0.949 . S
C1041 H1036 0.950 . S
C1041 C1043 1.327 . S
C1041 C1047 1.429 . S
C1042 C1034 1.574 . S
C1042 H1037 0.949 . S
C1042 C1048 1.368 . S
C1043 C1027 1.349 . S
C1043 H1035 0.950 . S
C1043 C1041 1.327 . S
C1044 C1032 1.349 . S
C1044 H1038 0.950 . S
C1044 C1045 1.327 . S
C1045 H1039 0.950 . S
C1045 C1044 1.327 . S
C1045 C1049 1.429 . S
C1046 C1029 1.574 . S
C1046 H1040 0.949 . S
C1046 C1050 1.368 . S
C1047 C1028 1.429 . S
C1047 C1041 1.429 . S
C1047 C1048 1.523 . S
C1048 C1029 1.368 1_554 S
C1048 C1042 1.368 . S
C1048 C1047 1.523 . S
C1049 C1033 1.429 . S
C1049 C1045 1.429 . S
C1049 C1050 1.523 . S
C1050 C1034 1.368 1_556 S
C1050 C1046 1.368 . S
C1050 C1049 1.523 . S
H1051 C1026 0.950 . S
H1052 C1028 0.950 . S
H1053 C1029 0.949 . S
H1054 C1031 0.950 . S
H1055 C1033 0.950 . S
C1056 C1057 1.349 . S
C1056 C1058 1.327 . S
C1056 H1081 0.950 . S
C1057 C1056 1.349 . S
C1057 C1073 1.349 . S
C1058 C1056 1.327 . S
C1058 C1077 1.429 . S
C1058 H1082 0.950 . S
C1059 C1076 1.574 . S
C1059 C1078 1.368 . S
C1059 H1083 0.949 . S
H1060 C1064 0.949 . S
C1061 C1062 1.349 . S
C1061 C1063 1.327 . S
C1061 H1084 0.950 . S
C1062 C1061 1.349 . S
C1062 C1074 1.349 . S
C1063 C1061 1.327 . S
C1063 C1079 1.429 . S
C1063 H1085 0.950 . S
C1064 H1060 0.949 . S
C1064 C1072 1.574 . S
C1064 C1080 1.368 . S
H1065 C1073 0.950 . S
H1066 C1071 0.950 . S
H1067 C1072 0.949 . S
H1068 C1074 0.950 . S
H1069 C1075 0.950 . S
H1070 C1076 0.949 . S
C1071 H1066 0.950 . S
C1071 C1073 1.327 . S
C1071 C1077 1.429 . S
C1072 C1064 1.574 . S
C1072 H1067 0.949 . S
C1072 C1078 1.368 . S
C1073 C1057 1.349 . S
C1073 H1065 0.950 . S
C1073 C1071 1.327 . S
C1074 C1062 1.349 . S
C1074 H1068 0.950 . S
C1074 C1075 1.327 . S
C1075 H1069 0.950 . S
C1075 C1074 1.327 . S
C1075 C1079 1.429 . S
C1076 C1059 1.574 . S
C1076 H1070 0.949 . S
C1076 C1080 1.368 . S
C1077 C1058 1.429 . S
C1077 C1071 1.429 . S
C1077 C1078 1.523 . S
C1078 C1059 1.368 . S
C1078 C1072 1.368 . S
C1078 C1077 1.523 . S
C1079 C1063 1.429 . S
C1079 C1075 1.429 . S
C1079 C1080 1.523 . S
C1080 C1064 1.368 . S
C1080 C1076 1.368 . S
C1080 C1079 1.523 . S
H1081 C1056 0.950 . S
H1082 C1058 0.950 . S
H1083 C1059 0.949 . S
H1084 C1061 0.950 . S
H1085 C1063 0.950 . S
C1086 C1087 1.349 . S
C1086 C1088 1.327 . S
C1086 H1111 0.950 . S
C1087 C1086 1.349 . S
C1087 C1103 1.349 . S
C1088 C1086 1.327 . S
C1088 C1107 1.429 . S
C1088 H1112 0.950 . S
C1089 C1106 1.574 . S
C1089 C1108 1.368 . S
C1089 H1113 0.949 . S
H1090 C1094 0.949 . S
C1091 C1092 1.349 . S
C1091 C1093 1.327 . S
C1091 H1114 0.950 . S
C1092 C1091 1.349 . S
C1092 C1104 1.349 . S
C1093 C1091 1.327 . S
C1093 C1109 1.429 . S
C1093 H1115 0.950 . S
C1094 H1090 0.949 . S
C1094 C1102 1.574 . S
C1094 C1110 1.368 . S
H1095 C1103 0.950 . S
H1096 C1101 0.950 . S
H1097 C1102 0.949 . S
H1098 C1104 0.950 . S
H1099 C1105 0.950 . S
H1100 C1106 0.949 . S
C1101 H1096 0.950 . S
C1101 C1103 1.327 . S
C1101 C1107 1.429 . S
C1102 C1094 1.574 . S
C1102 H1097 0.949 . S
C1102 C1108 1.368 . S
C1103 C1087 1.349 . S
C1103 H1095 0.950 . S
C1103 C1101 1.327 . S
C1104 C1092 1.349 . S
C1104 H1098 0.950 . S
C1104 C1105 1.327 . S
C1105 H1099 0.950 . S
C1105 C1104 1.327 . S
C1105 C1109 1.429 . S
C1106 C1089 1.574 . S
C1106 H1100 0.949 . S
C1106 C1110 1.368 . S
C1107 C1088 1.429 . S
C1107 C1101 1.429 . S
C1107 C1108 1.523 . S
C1108 C1089 1.368 . S
C1108 C1102 1.368 . S
C1108 C1107 1.523 . S
C1109 C1093 1.429 . S
C1109 C1105 1.429 . S
C1109 C1110 1.523 . S
C1110 C1094 1.368 . S
C1110 C1106 1.368 . S
C1110 C1109 1.523 . S
H1111 C1086 0.950 . S
H1112 C1088 0.950 . S
H1113 C1089 0.949 . S
H1114 C1091 0.950 . S
H1115 C1093 0.950 . S
C1116 C1117 1.349 . S
C1116 C1118 1.327 . S
C1116 H1141 0.950 . S
C1117 C1116 1.349 . S
C1117 C1133 1.349 . S
C1118 C1116 1.327 . S
C1118 C1137 1.429 . S
C1118 H1142 0.950 . S
C1119 C1136 1.574 . S
C1119 C1138 1.368 . S
C1119 H1143 0.949 . S
H1120 C1124 0.949 . S
C1121 C1122 1.349 . S
C1121 C1123 1.327 . S
C1121 H1144 0.950 . S
C1122 C1121 1.349 . S
C1122 C1134 1.349 . S
C1123 C1121 1.327 . S
C1123 C1139 1.429 . S
C1123 H1145 0.950 . S
C1124 H1120 0.949 . S
C1124 C1132 1.574 . S
C1124 C1140 1.368 . S
H1125 C1133 0.950 . S
H1126 C1131 0.950 . S
H1127 C1132 0.949 . S
H1128 C1134 0.950 . S
H1129 C1135 0.950 . S
H1130 C1136 0.949 . S
C1131 H1126 0.950 . S
C1131 C1133 1.327 . S
C1131 C1137 1.429 . S
C1132 C1124 1.574 . S
C1132 H1127 0.949 . S
C1132 C1138 1.368 . S
C1133 C1117 1.349 . S
C1133 H1125 0.950 . S
C1133 C1131 1.327 . S
C1134 C1122 1.349 . S
C1134 H1128 0.950 . S
C1134 C1135 1.327 . S
C1135 H1129 0.950 . S
C1135 C1134 1.327 . S
C1135 C1139 1.429 . S
C1136 C1119 1.574 . S
C1136 H1130 0.949 . S
C1136 C1140 1.368 . S
C1137 C1118 1.429 . S
C1137 C1131 1.429 . S
C1137 C1138 1.523 . S
C1138 C1119 1.368 . S
C1138 C1132 1.368 . S
C1138 C1137 1.523 . S
C1139 C1123 1.429 . S
C1139 C1135 1.429 . S
C1139 C1140 1.523 . S
C1140 C1124 1.368 . S
C1140 C1136 1.368 . S
C1140 C1139 1.523 . S
H1141 C1116 0.950 . S
H1142 C1118 0.950 . S
H1143 C1119 0.949 . S
H1144 C1121 0.950 . S
H1145 C1123 0.950 . S
C1146 C1147 1.349 . S
C1146 C1148 1.327 . S
C1146 H1171 0.950 . S
C1147 C1146 1.349 . S
C1147 C1163 1.349 . S
C1148 C1146 1.327 . S
C1148 C1167 1.429 . S
C1148 H1172 0.950 . S
C1149 C1166 1.574 . S
C1149 C1168 1.368 . S
C1149 H1173 0.949 . S
H1150 C1154 0.949 . S
C1151 C1152 1.349 . S
C1151 C1153 1.327 . S
C1151 H1174 0.950 . S
C1152 C1151 1.349 . S
C1152 C1164 1.349 . S
C1153 C1151 1.327 . S
C1153 C1169 1.429 . S
C1153 H1175 0.950 . S
C1154 H1150 0.949 . S
C1154 C1162 1.574 . S
C1154 C1170 1.368 . S
H1155 C1163 0.950 . S
H1156 C1161 0.950 . S
H1157 C1162 0.949 . S
H1158 C1164 0.950 . S
H1159 C1165 0.950 . S
H1160 C1166 0.949 . S
C1161 H1156 0.950 . S
C1161 C1163 1.327 . S
C1161 C1167 1.429 . S
C1162 C1154 1.574 . S
C1162 H1157 0.949 . S
C1162 C1168 1.368 . S
C1163 C1147 1.349 . S
C1163 H1155 0.950 . S
C1163 C1161 1.327 . S
C1164 C1152 1.349 . S
C1164 H1158 0.950 . S
C1164 C1165 1.327 . S
C1165 H1159 0.950 . S
C1165 C1164 1.327 . S
C1165 C1169 1.429 . S
C1166 C1149 1.574 . S
C1166 H1160 0.949 . S
C1166 C1170 1.368 . S
C1167 C1148 1.429 . S
C1167 C1161 1.429 . S
C1167 C1168 1.523 . S
C1168 C1149 1.368 . S
C1168 C1162 1.368 . S
C1168 C1167 1.523 . S
C1169 C1153 1.429 . S
C1169 C1165 1.429 . S
C1169 C1170 1.523 . S
C1170 C1154 1.368 . S
C1170 C1166 1.368 . S
C1170 C1169 1.523 . S
H1171 C1146 0.950 . S
H1172 C1148 0.950 . S
H1173 C1149 0.949 . S
H1174 C1151 0.950 . S
H1175 C1153 0.950 . S
C1176 C1177 1.349 . S
C1176 C1178 1.327 . S
C1176 H1201 0.950 . S
C1177 C1176 1.349 . S
C1177 C1193 1.349 . S
C1178 C1176 1.327 . S
C1178 C1197 1.429 . S
C1178 H1202 0.950 . S
C1179 C1196 1.574 . S
C1179 C1198 1.368 . S
C1179 H1203 0.949 . S
H1180 C1184 0.949 . S
C1181 C1182 1.349 . S
C1181 C1183 1.327 . S
C1181 H1204 0.950 . S
C1182 C1181 1.349 . S
C1182 C1194 1.349 . S
C1183 C1181 1.327 . S
C1183 C1199 1.429 . S
C1183 H1205 0.950 . S
C1184 H1180 0.949 . S
C1184 C1192 1.574 . S
C1184 C1200 1.368 . S
H1185 C1193 0.950 . S
H1186 C1191 0.950 . S
H1187 C1192 0.949 . S
H1188 C1194 0.950 . S
H1189 C1195 0.950 . S
H1190 C1196 0.949 . S
C1191 H1186 0.950 . S
C1191 C1193 1.327 . S
C1191 C1197 1.429 . S
C1192 C1184 1.574 . S
C1192 H1187 0.949 . S
C1192 C1198 1.368 . S
C1193 C1177 1.349 . S
C1193 H1185 0.950 . S
C1193 C1191 1.327 . S
C1194 C1182 1.349 . S
C1194 H1188 0.950 . S
C1194 C1195 1.327 . S
C1195 H1189 0.950 . S
C1195 C1194 1.327 . S
C1195 C1199 1.429 . S
C1196 C1179 1.574 . S
C1196 H1190 0.949 . S
C1196 C1200 1.368 . S
C1197 C1178 1.429 . S
C1197 C1191 1.429 . S
C1197 C1198 1.523 . S
C1198 C1179 1.368 . S
C1198 C1192 1.368 . S
C1198 C1197 1.523 . S
C1199 C1183 1.429 . S
C1199 C1195 1.429 . S
C1199 C1200 1.523 . S
C1200 C1184 1.368 . S
C1200 C1196 1.368 . S
C1200 C1199 1.523 . S
H1201 C1176 0.950 . S
H1202 C1178 0.950 . S
H1203 C1179 0.949 . S
H1204 C1181 0.950 . S
H1205 C1183 0.950 . S
C1206 C1207 1.349 . S
C1206 C1208 1.327 . S
C1206 H1231 0.950 . S
C1207 C1206 1.349 . S
C1207 C1223 1.349 . S
C1208 C1206 1.327 . S
C1208 C1227 1.429 . S
C1208 H1232 0.950 . S
C1209 C1226 1.574 . S
C1209 C1228 1.368 . S
C1209 H1233 0.949 . S
H1210 C1214 0.949 . S
C1211 C1212 1.349 . S
C1211 C1213 1.327 . S
C1211 H1234 0.950 . S
C1212 C1211 1.349 . S
C1212 C1224 1.349 . S
C1213 C1211 1.327 . S
C1213 C1229 1.429 . S
C1213 H1235 0.950 . S
C1214 H1210 0.949 . S
C1214 C1222 1.574 . S
C1214 C1230 1.368 . S
H1215 C1223 0.950 . S
H1216 C1221 0.950 . S
H1217 C1222 0.949 . S
H1218 C1224 0.950 . S
H1219 C1225 0.950 . S
H1220 C1226 0.949 . S
C1221 H1216 0.950 . S
C1221 C1223 1.327 . S
C1221 C1227 1.429 . S
C1222 C1214 1.574 . S
C1222 H1217 0.949 . S
C1222 C1228 1.368 . S
C1223 C1207 1.349 . S
C1223 H1215 0.950 . S
C1223 C1221 1.327 . S
C1224 C1212 1.349 . S
C1224 H1218 0.950 . S
C1224 C1225 1.327 . S
C1225 H1219 0.950 . S
C1225 C1224 1.327 . S
C1225 C1229 1.429 . S
C1226 C1209 1.574 . S
C1226 H1220 0.949 . S
C1226 C1230 1.368 . S
C1227 C1208 1.429 . S
C1227 C1221 1.429 . S
C1227 C1228 1.523 . S
C1228 C1209 1.368 . S
C1228 C1222 1.368 . S
C1228 C1227 1.523 . S
C1229 C1213 1.429 . S
C1229 C1225 1.429 . S
C1229 C1230 1.523 . S
C1230 C1214 1.368 . S
C1230 C1226 1.368 . S
C1230 C1229 1.523 . S
H1231 C1206 0.950 . S
H1232 C1208 0.950 . S
H1233 C1209 0.949 . S
H1234 C1211 0.950 . S
H1235 C1213 0.950 . S
C1236 C1237 1.349 . S
C1236 C1238 1.327 . S
C1236 H1261 0.950 . S
C1237 C1236 1.349 . S
C1237 C1253 1.349 . S
C1238 C1236 1.327 . S
C1238 C1257 1.429 . S
C1238 H1262 0.950 . S
C1239 C1256 1.574 . S
C1239 C1258 1.368 . S
C1239 H1263 0.949 . S
H1240 C1244 0.949 . S
C1241 C1242 1.349 . S
C1241 C1243 1.327 . S
C1241 H1264 0.950 . S
C1242 C1241 1.349 . S
C1242 C1254 1.349 . S
C1243 C1241 1.327 . S
C1243 C1259 1.429 . S
C1243 H1265 0.950 . S
C1244 H1240 0.949 . S
C1244 C1252 1.574 . S
C1244 C1260 1.368 . S
H1245 C1253 0.950 . S
H1246 C1251 0.950 . S
H1247 C1252 0.949 . S
H1248 C1254 0.950 . S
H1249 C1255 0.950 . S
H1250 C1256 0.949 . S
C1251 H1246 0.950 . S
C1251 C1253 1.327 . S
C1251 C1257 1.429 . S
C1252 C1244 1.574 . S
C1252 H1247 0.949 . S
C1252 C1258 1.368 . S
C1253 C1237 1.349 . S
C1253 H1245 0.950 . S
C1253 C1251 1.327 . S
C1254 C1242 1.349 . S
C1254 H1248 0.950 . S
C1254 C1255 1.327 . S
C1255 H1249 0.950 . S
C1255 C1254 1.327 . S
C1255 C1259 1.429 . S
C1256 C1239 1.574 . S
C1256 H1250 0.949 . S
C1256 C1260 1.368 . S
C1257 C1238 1.429 . S
C1257 C1251 1.429 . S
C1257 C1258 1.523 . S
C1258 C1239 1.368 . S
C1258 C1252 1.368 . S
C1258 C1257 1.523 . S
C1259 C1243 1.429 . S
C1259 C1255 1.429 . S
C1259 C1260 1.523 . S
C1260 C1244 1.368 . S
C1260 C1256 1.368 . S
C1260 C1259 1.523 . S
H1261 C1236 0.950 . S
H1262 C1238 0.950 . S
H1263 C1239 0.949 . S
H1264 C1241 0.950 . S
H1265 C1243 0.950 . S
C1266 C1267 1.349 . S
C1266 C1268 1.327 . S
C1266 H1291 0.950 . S
C1267 C1266 1.349 . S
C1267 C1283 1.349 . S
C1268 C1266 1.327 . S
C1268 C1287 1.429 . S
C1268 H1292 0.950 . S
C1269 C1286 1.574 . S
C1269 C1288 1.368 . S
C1269 H1293 0.949 . S
H1270 C1274 0.949 . S
C1271 C1272 1.349 . S
C1271 C1273 1.327 . S
C1271 H1294 0.950 . S
C1272 C1271 1.349 . S
C1272 C1284 1.349 . S
C1273 C1271 1.327 . S
C1273 C1289 1.429 . S
C1273 H1295 0.950 . S
C1274 H1270 0.949 . S
C1274 C1282 1.574 . S
C1274 C1290 1.368 . S
H1275 C1283 0.950 . S
H1276 C1281 0.950 . S
H1277 C1282 0.949 . S
H1278 C1284 0.950 . S
H1279 C1285 0.950 . S
H1280 C1286 0.949 . S
C1281 H1276 0.950 . S
C1281 C1283 1.327 . S
C1281 C1287 1.429 . S
C1282 C1274 1.574 . S
C1282 H1277 0.949 . S
C1282 C1288 1.368 . S
C1283 C1267 1.349 . S
C1283 H1275 0.950 . S
C1283 C1281 1.327 . S
C1284 C1272 1.349 . S
C1284 H1278 0.950 . S
C1284 C1285 1.327 . S
C1285 H1279 0.950 . S
C1285 C1284 1.327 . S
C1285 C1289 1.429 . S
C1286 C1269 1.574 . S
C1286 H1280 0.949 . S
C1286 C1290 1.368 . S
C1287 C1268 1.429 . S
C1287 C1281 1.429 . S
C1287 C1288 1.523 . S
C1288 C1269 1.368 . S
C1288 C1282 1.368 . S
C1288 C1287 1.523 . S
C1289 C1273 1.429 . S
C1289 C1285 1.429 . S
C1289 C1290 1.523 . S
C1290 C1274 1.368 . S
C1290 C1286 1.368 . S
C1290 C1289 1.523 . S
H1291 C1266 0.950 . S
H1292 C1268 0.950 . S
H1293 C1269 0.949 . S
H1294 C1271 0.950 . S
H1295 C1273 0.950 . S
C1296 C1297 1.349 . S
C1296 C1298 1.327 . S
C1296 H1321 0.950 . S
C1297 C1296 1.349 . S
C1297 C1313 1.349 . S
C1298 C1296 1.327 . S
C1298 C1317 1.429 . S
C1298 H1322 0.950 . S
C1299 C1316 1.574 . S
C1299 C1318 1.368 . S
C1299 H1323 0.949 . S
H1300 C1304 0.949 . S
C1301 C1302 1.349 . S
C1301 C1303 1.327 . S
C1301 H1324 0.950 . S
C1302 C1301 1.349 . S
C1302 C1314 1.349 . S
C1303 C1301 1.327 . S
C1303 C1319 1.429 . S
C1303 H1325 0.950 . S
C1304 H1300 0.949 . S
C1304 C1312 1.574 . S
C1304 C1320 1.368 . S
H1305 C1313 0.950 . S
H1306 C1311 0.950 . S
H1307 C1312 0.949 . S
H1308 C1314 0.950 . S
H1309 C1315 0.950 . S
H1310 C1316 0.949 . S
C1311 H1306 0.950 . S
C1311 C1313 1.327 . S
C1311 C1317 1.429 . S
C1312 C1304 1.574 . S
C1312 H1307 0.949 . S
C1312 C1318 1.368 . S
C1313 C1297 1.349 . S
C1313 H1305 0.950 . S
C1313 C1311 1.327 . S
C1314 C1302 1.349 . S
C1314 H1308 0.950 . S
C1314 C1315 1.327 . S
C1315 H1309 0.950 . S
C1315 C1314 1.327 . S
C1315 C1319 1.429 . S
C1316 C1299 1.574 . S
C1316 H1310 0.949 . S
C1316 C1320 1.368 . S
C1317 C1298 1.429 . S
C1317 C1311 1.429 . S
C1317 C1318 1.523 . S
C1318 C1299 1.368 . S
C1318 C1312 1.368 . S
C1318 C1317 1.523 . S
C1319 C1303 1.429 . S
C1319 C1315 1.429 . S
C1319 C1320 1.523 . S
C1320 C1304 1.368 . S
C1320 C1316 1.368 . S
C1320 C1319 1.523 . S
H1321 C1296 0.950 . S
H1322 C1298 0.950 . S
H1323 C1299 0.949 . S
H1324 C1301 0.950 . S
H1325 C1303 0.950 . S
C1326 C1327 1.349 . S
C1326 C1328 1.327 . S
C1326 H1351 0.950 . S
C1327 C1326 1.349 . S
C1327 C1343 1.349 . S
C1328 C1326 1.327 . S
C1328 C1347 1.429 . S
C1328 H1352 0.950 . S
C1329 C1346 1.574 . S
C1329 C1348 1.368 . S
C1329 H1353 0.949 . S
H1330 C1334 0.949 . S
C1331 C1332 1.349 . S
C1331 C1333 1.327 . S
C1331 H1354 0.950 . S
C1332 C1331 1.349 . S
C1332 C1344 1.349 . S
C1333 C1331 1.327 . S
C1333 C1349 1.429 . S
C1333 H1355 0.950 . S
C1334 H1330 0.949 . S
C1334 C1342 1.574 . S
C1334 C1350 1.368 . S
H1335 C1343 0.950 . S
H1336 C1341 0.950 . S
H1337 C1342 0.949 . S
H1338 C1344 0.950 . S
H1339 C1345 0.950 . S
H1340 C1346 0.949 . S
C1341 H1336 0.950 . S
C1341 C1343 1.327 . S
C1341 C1347 1.429 . S
C1342 C1334 1.574 . S
C1342 H1337 0.949 . S
C1342 C1348 1.368 . S
C1343 C1327 1.349 . S
C1343 H1335 0.950 . S
C1343 C1341 1.327 . S
C1344 C1332 1.349 . S
C1344 H1338 0.950 . S
C1344 C1345 1.327 . S
C1345 H1339 0.950 . S
C1345 C1344 1.327 . S
C1345 C1349 1.429 . S
C1346 C1329 1.574 . S
C1346 H1340 0.949 . S
C1346 C1350 1.368 . S
C1347 C1328 1.429 . S
C1347 C1341 1.429 . S
C1347 C1348 1.523 . S
C1348 C1329 1.368 . S
C1348 C1342 1.368 . S
C1348 C1347 1.523 . S
C1349 C1333 1.429 . S
C1349 C1345 1.429 . S
C1349 C1350 1.523 . S
C1350 C1334 1.368 . S
C1350 C1346 1.368 . S
C1350 C1349 1.523 . S
H1351 C1326 0.950 . S
H1352 C1328 0.950 . S
H1353 C1329 0.949 . S
H1354 C1331 0.950 . S
H1355 C1333 0.950 . S
C1356 C1357 1.349 . S
C1356 C1358 1.327 . S
C1356 H1381 0.950 . S
C1357 C1356 1.349 . S
C1357 C1373 1.349 . S
C1358 C1356 1.327 . S
C1358 C1377 1.429 . S
C1358 H1382 0.950 . S
C1359 C1376 1.574 . S
C1359 C1378 1.368 . S
C1359 H1383 0.949 . S
H1360 C1364 0.949 . S
C1361 C1362 1.349 . S
C1361 C1363 1.327 . S
C1361 H1384 0.950 . S
C1362 C1361 1.349 . S
C1362 C1374 1.349 . S
C1363 C1361 1.327 . S
C1363 C1379 1.429 . S
C1363 H1385 0.950 . S
C1364 H1360 0.949 . S
C1364 C1372 1.574 . S
C1364 C1380 1.368 . S
H1365 C1373 0.950 . S
H1366 C1371 0.950 . S
H1367 C1372 0.949 . S
H1368 C1374 0.950 . S
H1369 C1375 0.950 . S
H1370 C1376 0.949 . S
C1371 H1366 0.950 . S
C1371 C1373 1.327 . S
C1371 C1377 1.429 . S
C1372 C1364 1.574 . S
C1372 H1367 0.949 . S
C1372 C1378 1.368 . S
C1373 C1357 1.349 . S
C1373 H1365 0.950 . S
C1373 C1371 1.327 . S
C1374 C1362 1.349 . S
C1374 H1368 0.950 . S
C1374 C1375 1.327 . S
C1375 H1369 0.950 . S
C1375 C1374 1.327 . S
C1375 C1379 1.429 . S
C1376 C1359 1.574 . S
C1376 H1370 0.949 . S
C1376 C1380 1.368 . S
C1377 C1358 1.429 . S
C1377 C1371 1.429 . S
C1377 C1378 1.523 . S
C1378 C1359 1.368 . S
C1378 C1372 1.368 . S
C1378 C1377 1.523 . S
C1379 C1363 1.429 . S
C1379 C1375 1.429 . S
C1379 C1380 1.523 . S
C1380 C1364 1.368 . S
C1380 C1376 1.368 . S
C1380 C1379 1.523 . S
H1381 C1356 0.950 . S
H1382 C1358 0.950 . S
H1383 C1359 0.949 . S
H1384 C1361 0.950 . S
H1385 C1363 0.950 . S
C1386 C1387 1.349 . S
C1386 C1388 1.327 . S
C1386 H1411 0.950 . S
C1387 C1386 1.349 . S
C1387 C1403 1.349 . S
C1388 C1386 1.327 . S
C1388 C1407 1.429 . S
C1388 H1412 0.950 . S
C1389 C1406 1.574 . S
C1389 C1408 1.368 . S
C1389 H1413 0.949 . S
H1390 C1394 0.949 . S
C1391 C1392 1.349 . S
C1391 C1393 1.327 . S
C1391 H1414 0.950 . S
C1392 C1391 1.349 . S
C1392 C1404 1.349 . S
C1393 C1391 1.327 . S
C1393 C1409 1.429 . S
C1393 H1415 0.950 . S
C1394 H1390 0.949 . S
C1394 C1402 1.574 . S
C1394 C1410 1.368 . S
H1395 C1403 0.950 . S
H1396 C1401 0.950 . S
H1397 C1402 0.949 . S
H1398 C1404 0.950 . S
H1399 C1405 0.950 . S
H1400 C1406 0.949 . S
C1401 H1396 0.950 . S
C1401 C1403 1.327 . S
C1401 C1407 1.429 . S
C1402 C1394 1.574 . S
C1402 H1397 0.949 . S
C1402 C1408 1.368 . S
C1403 C1387 1.349 . S
C1403 H1395 0.950 . S
C1403 C1401 1.327 . S
C1404 C1392 1.349 . S
C1404 H1398 0.950 . S
C1404 C1405 1.327 . S
C1405 H1399 0.950 . S
C1405 C1404 1.327 . S
C1405 C1409 1.429 . S
C1406 C1389 1.574 . S
C1406 H1400 0.949 . S
C1406 C1410 1.368 . S
C1407 C1388 1.429 . S
C1407 C1401 1.429 . S
C1407 C1408 1.523 . S
C1408 C1389 1.368 . S
C1408 C1402 1.368 . S
C1408 C1407 1.523 . S
C1409 C1393 1.429 . S
C1409 C1405 1.429 . S
C1409 C1410 1.523 . S
C1410 C1394 1.368 . S
C1410 C1406 1.368 . S
C1410 C1409 1.523 . S
H1411 C1386 0.950 . S
H1412 C1388 0.950 . S
H1413 C1389 0.949 . S
H1414 C1391 0.950 . S
H1415 C1393 0.950 . S
C1416 C1417 1.349 . S
C1416 C1418 1.327 . S
C1416 H1441 0.950 . S
C1417 C1416 1.349 . S
C1417 C1433 1.349 . S
C1418 C1416 1.327 . S
C1418 C1437 1.429 . S
C1418 H1442 0.950 . S
C1419 C1436 1.574 . S
C1419 C1438 1.368 . S
C1419 H1443 0.949 . S
H1420 C1424 0.949 . S
C1421 C1422 1.349 . S
C1421 C1423 1.327 . S
C1421 H1444 0.950 . S
C1422 C1421 1.349 . S
C1422 C1434 1.349 . S
C1423 C1421 1.327 . S
C1423 C1439 1.429 . S
C1423 H1445 0.950 . S
C1424 H1420 0.949 . S
C1424 C1432 1.574 . S
C1424 C1440 1.368 . S
H1425 C1433 0.950 . S
H1426 C1431 0.950 . S
H1427 C1432 0.949 . S
H1428 C1434 0.950 . S
H1429 C1435 0.950 . S
H1430 C1436 0.949 . S
C1431 H1426 0.950 . S
C1431 C1433 1.327 . S
C1431 C1437 1.429 . S
C1432 C1424 1.574 . S
C1432 H1427 0.949 . S
C1432 C1438 1.368 . S
C1433 C1417 1.349 . S
C1433 H1425 0.950 . S
C1433 C1431 1.327 . S
C1434 C1422 1.349 . S
C1434 H1428 0.950 . S
C1434 C1435 1.327 . S
C1435 H1429 0.950 . S
C1435 C1434 1.327 . S
C1435 C1439 1.429 . S
C1436 C1419 1.574 . S
C1436 H1430 0.949 . S
C1436 C1440 1.368 . S
C1437 C1418 1.429 . S
C1437 C1431 1.429 . S
C1437 C1438 1.523 . S
C1438 C1419 1.368 . S
C1438 C1432 1.368 . S
C1438 C1437 1.523 . S
C1439 C1423 1.429 . S
C1439 C1435 1.429 . S
C1439 C1440 1.523 . S
C1440 C1424 1.368 . S
C1440 C1436 1.368 . S
C1440 C1439 1.523 . S
H1441 C1416 0.950 . S
H1442 C1418 0.950 . S
H1443 C1419 0.949 . S
H1444 C1421 0.950 . S
H1445 C1423 0.950 . S
C1446 C1447 1.349 . S
C1446 C1448 1.327 . S
C1446 H1471 0.950 . S
C1447 C1446 1.349 . S
C1447 C1463 1.349 . S
C1448 C1446 1.327 . S
C1448 C1467 1.429 . S
C1448 H1472 0.950 . S
C1449 C1466 1.574 . S
C1449 C1468 1.368 . S
C1449 H1473 0.949 . S
H1450 C1454 0.949 . S
C1451 C1452 1.349 . S
C1451 C1453 1.327 . S
C1451 H1474 0.950 . S
C1452 C1451 1.349 . S
C1452 C1464 1.349 . S
C1453 C1451 1.327 . S
C1453 C1469 1.429 . S
C1453 H1475 0.950 . S
C1454 H1450 0.949 . S
C1454 C1462 1.574 . S
C1454 C1470 1.368 . S
H1455 C1463 0.950 . S
H1456 C1461 0.950 . S
H1457 C1462 0.949 . S
H1458 C1464 0.950 . S
H1459 C1465 0.950 . S
H1460 C1466 0.949 . S
C1461 H1456 0.950 . S
C1461 C1463 1.327 . S
C1461 C1467 1.429 . S
C1462 C1454 1.574 . S
C1462 H1457 0.949 . S
C1462 C1468 1.368 . S
C1463 C1447 1.349 . S
C1463 H1455 0.950 . S
C1463 C1461 1.327 . S
C1464 C1452 1.349 . S
C1464 H1458 0.950 . S
C1464 C1465 1.327 . S
C1465 H1459 0.950 . S
C1465 C1464 1.327 . S
C1465 C1469 1.429 . S
C1466 C1449 1.574 . S
C1466 H1460 0.949 . S
C1466 C1470 1.368 . S
C1467 C1448 1.429 . S
C1467 C1461 1.429 . S
C1467 C1468 1.523 . S
C1468 C1449 1.368 . S
C1468 C1462 1.368 . S
C1468 C1467 1.523 . S
C1469 C1453 1.429 . S
C1469 C1465 1.429 . S
C1469 C1470 1.523 . S
C1470 C1454 1.368 . S
C1470 C1466 1.368 . S
C1470 C1469 1.523 . S
H1471 C1446 0.950 . S
H1472 C1448 0.950 . S
H1473 C1449 0.949 . S
H1474 C1451 0.950 . S
H1475 C1453 0.950 . S
C1476 C1477 1.349 . S
C1476 C1478 1.327 . S
C1476 H1501 0.950 . S
C1477 C1476 1.349 . S
C1477 C1493 1.349 . S
C1478 C1476 1.327 . S
C1478 C1497 1.429 . S
C1478 H1502 0.950 . S
C1479 C1496 1.574 . S
C1479 C1498 1.368 . S
C1479 H1503 0.949 . S
H1480 C1484 0.949 . S
C1481 C1482 1.349 . S
C1481 C1483 1.327 . S
C1481 H1504 0.950 . S
C1482 C1481 1.349 . S
C1482 C1494 1.349 . S
C1483 C1481 1.327 . S
C1483 C1499 1.429 . S
C1483 H1505 0.950 . S
C1484 H1480 0.949 . S
C1484 C1492 1.574 . S
C1484 C1500 1.368 . S
H1485 C1493 0.950 . S
H1486 C1491 0.950 . S
H1487 C1492 0.949 . S
H1488 C1494 0.950 . S
H1489 C1495 0.950 . S
H1490 C1496 0.949 . S
C1491 H1486 0.950 . S
C1491 C1493 1.327 . S
C1491 C1497 1.429 . S
C1492 C1484 1.574 . S
C1492 H1487 0.949 . S
C1492 C1498 1.368 . S
C1493 C1477 1.349 . S
C1493 H1485 0.950 . S
C1493 C1491 1.327 . S
C1494 C1482 1.349 . S
C1494 H1488 0.950 . S
C1494 C1495 1.327 . S
C1495 H1489 0.950 . S
C1495 C1494 1.327 . S
C1495 C1499 1.429 . S
C1496 C1479 1.574 . S
C1496 H1490 0.949 . S
C1496 C1500 1.368 . S
C1497 C1478 1.429 . S
C1497 C1491 1.429 . S
C1497 C1498 1.523 . S
C1498 C1479 1.368 . S
C1498 C1492 1.368 . S
C1498 C1497 1.523 . S
C1499 C1483 1.429 . S
C1499 C1495 1.429 . S
C1499 C1500 1.523 . S
C1500 C1484 1.368 . S
C1500 C1496 1.368 . S
C1500 C1499 1.523 . S
H1501 C1476 0.950 . S
H1502 C1478 0.950 . S
H1503 C1479 0.949 . S
H1504 C1481 0.950 . S
H1505 C1483 0.950 . S
C1506 C1507 1.349 . S
C1506 C1508 1.327 . S
C1506 H1531 0.950 . S
C1507 C1506 1.349 . S
C1507 C1523 1.349 . S
C1508 C1506 1.327 . S
C1508 C1527 1.429 . S
C1508 H1532 0.950 . S
C1509 C1526 1.574 . S
C1509 C1528 1.368 . S
C1509 H1533 0.949 . S
H1510 C1514 0.949 . S
C1511 C1512 1.349 . S
C1511 C1513 1.327 . S
C1511 H1534 0.950 . S
C1512 C1511 1.349 . S
C1512 C1524 1.349 . S
C1513 C1511 1.327 . S
C1513 C1529 1.429 . S
C1513 H1535 0.950 . S
C1514 H1510 0.949 . S
C1514 C1522 1.574 . S
C1514 C1530 1.368 . S
H1515 C1523 0.950 . S
H1516 C1521 0.950 . S
H1517 C1522 0.949 . S
H1518 C1524 0.950 . S
H1519 C1525 0.950 . S
H1520 C1526 0.949 . S
C1521 H1516 0.950 . S
C1521 C1523 1.327 . S
C1521 C1527 1.429 . S
C1522 C1514 1.574 . S
C1522 H1517 0.949 . S
C1522 C1528 1.368 . S
C1523 C1507 1.349 . S
C1523 H1515 0.950 . S
C1523 C1521 1.327 . S
C1524 C1512 1.349 . S
C1524 H1518 0.950 . S
C1524 C1525 1.327 . S
C1525 H1519 0.950 . S
C1525 C1524 1.327 . S
C1525 C1529 1.429 . S
C1526 C1509 1.574 . S
C1526 H1520 0.949 . S
C1526 C1530 1.368 . S
C1527 C1508 1.429 . S
C1527 C1521 1.429 . S
C1527 C1528 1.523 . S
C1528 C1509 1.368 . S
C1528 C1522 1.368 . S
C1528 C1527 1.523 . S
C1529 C1513 1.429 . S
C1529 C1525 1.429 . S
C1529 C1530 1.523 . S
C1530 C1514 1.368 . S
C1530 C1526 1.368 . S
C1530 C1529 1.523 . S
H1531 C1506 0.950 . S
H1532 C1508 0.950 . S
H1533 C1509 0.949 . S
H1534 C1511 0.950 . S
H1535 C1513 0.950 . S
C1536 C1537 1.349 . S
C1536 C1538 1.327 . S
C1536 H1561 0.950 . S
C1537 C1536 1.349 . S
C1537 C1553 1.349 . S
C1538 C1536 1.327 . S
C1538 C1557 1.429 . S
C1538 H1562 0.950 . S
C1539 C1556 1.574 . S
C1539 C1558 1.368 . S
C1539 H1563 0.949 . S
H1540 C1544 0.949 . S
C1541 C1542 1.349 . S
C1541 C1543 1.327 . S
C1541 H1564 0.950 . S
C1542 C1541 1.349 . S
C1542 C1554 1.349 . S
C1543 C1541 1.327 . S
C1543 C1559 1.429 . S
C1543 H1565 0.950 . S
C1544 H1540 0.949 . S
C1544 C1552 1.574 . S
C1544 C1560 1.368 . S
H1545 C1553 0.950 . S
H1546 C1551 0.950 . S
H1547 C1552 0.949 . S
H1548 C1554 0.950 . S
H1549 C1555 0.950 . S
H1550 C1556 0.949 . S
C1551 H1546 0.950 . S
C1551 C1553 1.327 . S
C1551 C1557 1.429 . S
C1552 C1544 1.574 . S
C1552 H1547 0.949 . S
C1552 C1558 1.368 . S
C1553 C1537 1.349 . S
C1553 H1545 0.950 . S
C1553 C1551 1.327 . S
C1554 C1542 1.349 . S
C1554 H1548 0.950 . S
C1554 C1555 1.327 . S
C1555 H1549 0.950 . S
C1555 C1554 1.327 . S
C1555 C1559 1.429 . S
C1556 C1539 1.574 . S
C1556 H1550 0.949 . S
C1556 C1560 1.368 . S
C1557 C1538 1.429 . S
C1557 C1551 1.429 . S
C1557 C1558 1.523 . S
C1558 C1539 1.368 . S
C1558 C1552 1.368 . S
C1558 C1557 1.523 . S
C1559 C1543 1.429 . S
C1559 C1555 1.429 . S
C1559 C1560 1.523 . S
C1560 C1544 1.368 . S
C1560 C1556 1.368 . S
C1560 C1559 1.523 . S
H1561 C1536 0.950 . S
H1562 C1538 0.950 . S
H1563 C1539 0.949 . S
H1564 C1541 0.950 . S
H1565 C1543 0.950 . S
C1566 C1567 1.349 . S
C1566 C1568 1.327 . S
C1566 H1591 0.950 . S
C1567 C1566 1.349 . S
C1567 C1583 1.349 . S
C1568 C1566 1.327 . S
C1568 C1587 1.429 . S
C1568 H1592 0.950 . S
C1569 C1586 1.574 . S
C1569 C1588 1.368 . S
C1569 H1593 0.949 . S
H1570 C1574 0.949 . S
C1571 C1572 1.349 . S
C1571 C1573 1.327 . S
C1571 H1594 0.950 . S
C1572 C1571 1.349 . S
C1572 C1584 1.349 . S
C1573 C1571 1.327 . S
C1573 C1589 1.429 . S
C1573 H1595 0.950 . S
C1574 H1570 0.949 . S
C1574 C1582 1.574 . S
C1574 C1590 1.368 . S
H1575 C1583 0.950 . S
H1576 C1581 0.950 . S
H1577 C1582 0.949 . S
H1578 C1584 0.950 . S
H1579 C1585 0.950 . S
H1580 C1586 0.949 . S
C1581 H1576 0.950 . S
C1581 C1583 1.327 . S
C1581 C1587 1.429 . S
C1582 C1574 1.574 . S
C1582 H1577 0.949 . S
C1582 C1588 1.368 . S
C1583 C1567 1.349 . S
C1583 H1575 0.950 . S
C1583 C1581 1.327 . S
C1584 C1572 1.349 . S
C1584 H1578 0.950 . S
C1584 C1585 1.327 . S
C1585 H1579 0.950 . S
C1585 C1584 1.327 . S
C1585 C1589 1.429 . S
C1586 C1569 1.574 . S
C1586 H1580 0.949 . S
C1586 C1590 1.368 . S
C1587 C1568 1.429 . S
C1587 C1581 1.429 . S
C1587 C1588 1.523 . S
C1588 C1569 1.368 . S
C1588 C1582 1.368 . S
C1588 C1587 1.523 . S
C1589 C1573 1.429 . S
C1589 C1585 1.429 . S
C1589 C1590 1.523 . S
C1590 C1574 1.368 . S
C1590 C1586 1.368 . S
C1590 C1589 1.523 . S
H1591 C1566 0.950 . S
H1592 C1568 0.950 . S
H1593 C1569 0.949 . S
H1594 C1571 0.950 . S
H1595 C1573 0.950 . S
C1596 C1597 1.349 . S
C1596 C1598 1.327 . S
C1596 H1621 0.950 . S
C1597 C1596 1.349 . S
C1597 C1613 1.349 . S
C1598 C1596 1.327 . S
C1598 C1617 1.429 . S
C1598 H1622 0.950 . S
C1599 C1616 1.574 . S
C1599 C1618 1.368 . S
C1599 H1623 0.949 . S
H1600 C1604 0.949 . S
C1601 C1602 1.349 . S
C1601 C1603 1.327 . S
C1601 H1624 0.950 . S
C1602 C1601 1.349 . S
C1602 C1614 1.349 . S
C1603 C1601 1.327 . S
C1603 C1619 1.429 . S
C1603 H1625 0.950 . S
C1604 H1600 0.949 . S
C1604 C1612 1.574 . S
C1604 C1620 1.368 . S
H1605 C1613 0.950 . S
H1606 C1611 0.950 . S
H1607 C1612 0.949 . S
H1608 C1614 0.950 . S
H1609 C1615 0.950 . S
H1610 C1616 0.949 . S
C1611 H1606 0.950 . S
C1611 C1613 1.327 . S
C1611 C1617 1.429 . S
C1612 C1604 1.574 . S
C1612 H1607 0.949 . S
C1612 C1618 1.368 . S
C1613 C1597 1.349 . S
C1613 H1605 0.950 . S
C1613 C1611 1.327 . S
C1614 C1602 1.349 . S
C1614 H1608 0.950 . S
C1614 C1615 1.327 . S
C1615 H1609 0.950 . S
C1615 C1614 1.327 . S
C1615 C1619 1.429 . S
C1616 C1599 1.574 . S
C1616 H1610 0.949 . S
C1616 C1620 1.368 . S
C1617 C1598 1.429 . S
C1617 C1611 1.429 . S
C1617 C1618 1.523 . S
C1618 C1599 1.368 . S
C1618 C1612 1.368 . S
C1618 C1617 1.523 . S
C1619 C1603 1.429 . S
C1619 C1615 1.429 . S
C1619 C1620 1.523 . S
C1620 C1604 1.368 . S
C1620 C1616 1.368 . S
C1620 C1619 1.523 . S
H1621 C1596 0.950 . S
H1622 C1598 0.950 . S
H1623 C1599 0.949 . S
H1624 C1601 0.950 . S
H1625 C1603 0.950 . S
C1626 C1627 1.349 . S
C1626 C1628 1.327 . S
C1626 H1651 0.950 . S
C1627 C1626 1.349 . S
C1627 C1643 1.349 . S
C1628 C1626 1.327 . S
C1628 C1647 1.429 . S
C1628 H1652 0.950 . S
C1629 C1646 1.574 . S
C1629 C1648 1.368 . S
C1629 H1653 0.949 . S
H1630 C1634 0.949 . S
C1631 C1632 1.349 . S
C1631 C1633 1.327 . S
C1631 H1654 0.950 . S
C1632 C1631 1.349 . S
C1632 C1644 1.349 . S
C1633 C1631 1.327 . S
C1633 C1649 1.429 . S
C1633 H1655 0.950 . S
C1634 H1630 0.949 . S
C1634 C1642 1.574 . S
C1634 C1650 1.368 . S
H1635 C1643 0.950 . S
H1636 C1641 0.950 . S
H1637 C1642 0.949 . S
H1638 C1644 0.950 . S
H1639 C1645 0.950 . S
H1640 C1646 0.949 . S
C1641 H1636 0.950 . S
C1641 C1643 1.327 . S
C1641 C1647 1.429 . S
C1642 C1634 1.574 . S
C1642 H1637 0.949 . S
C1642 C1648 1.368 . S
C1643 C1627 1.349 . S
C1643 H1635 0.950 . S
C1643 C1641 1.327 . S
C1644 C1632 1.349 . S
C1644 H1638 0.950 . S
C1644 C1645 1.327 . S
C1645 H1639 0.950 . S
C1645 C1644 1.327 . S
C1645 C1649 1.429 . S
C1646 C1629 1.574 . S
C1646 H1640 0.949 . S
C1646 C1650 1.368 . S
C1647 C1628 1.429 . S
C1647 C1641 1.429 . S
C1647 C1648 1.523 . S
C1648 C1629 1.368 . S
C1648 C1642 1.368 . S
C1648 C1647 1.523 . S
C1649 C1633 1.429 . S
C1649 C1645 1.429 . S
C1649 C1650 1.523 . S
C1650 C1634 1.368 . S
C1650 C1646 1.368 . S
C1650 C1649 1.523 . S
H1651 C1626 0.950 . S
H1652 C1628 0.950 . S
H1653 C1629 0.949 . S
H1654 C1631 0.950 . S
H1655 C1633 0.950 . S
C1656 C1657 1.349 . S
C1656 C1658 1.327 . S
C1656 H1681 0.950 . S
C1657 C1656 1.349 . S
C1657 C1673 1.349 . S
C1658 C1656 1.327 . S
C1658 C1677 1.429 . S
C1658 H1682 0.950 . S
C1659 C1676 1.574 . S
C1659 C1678 1.368 . S
C1659 H1683 0.949 . S
H1660 C1664 0.949 . S
C1661 C1662 1.349 . S
C1661 C1663 1.327 . S
C1661 H1684 0.950 . S
C1662 C1661 1.349 . S
C1662 C1674 1.349 . S
C1663 C1661 1.327 . S
C1663 C1679 1.429 . S
C1663 H1685 0.950 . S
C1664 H1660 0.949 . S
C1664 C1672 1.574 . S
C1664 C1680 1.368 . S
H1665 C1673 0.950 . S
H1666 C1671 0.950 . S
H1667 C1672 0.949 . S
H1668 C1674 0.950 . S
H1669 C1675 0.950 . S
H1670 C1676 0.949 . S
C1671 H1666 0.950 . S
C1671 C1673 1.327 . S
C1671 C1677 1.429 . S
C1672 C1664 1.574 . S
C1672 H1667 0.949 . S
C1672 C1678 1.368 . S
C1673 C1657 1.349 . S
C1673 H1665 0.950 . S
C1673 C1671 1.327 . S
C1674 C1662 1.349 . S
C1674 H1668 0.950 . S
C1674 C1675 1.327 . S
C1675 H1669 0.950 . S
C1675 C1674 1.327 . S
C1675 C1679 1.429 . S
C1676 C1659 1.574 . S
C1676 H1670 0.949 . S
C1676 C1680 1.368 . S
C1677 C1658 1.429 . S
C1677 C1671 1.429 . S
C1677 C1678 1.523 . S
C1678 C1659 1.368 . S
C1678 C1672 1.368 . S
C1678 C1677 1.523 . S
C1679 C1663 1.429 . S
C1679 C1675 1.429 . S
C1679 C1680 1.523 . S
C1680 C1664 1.368 . S
C1680 C1676 1.368 . S
C1680 C1679 1.523 . S
H1681 C1656 0.950 . S
H1682 C1658 0.950 . S
H1683 C1659 0.949 . S
H1684 C1661 0.950 . S
H1685 C1663 0.950 . S
C1686 C1687 1.349 . S
C1686 C1688 1.327 . S
C1686 H1711 0.950 . S
C1687 C1686 1.349 . S
C1687 C1703 1.349 . S
C1688 C1686 1.327 . S
C1688 C1707 1.429 . S
C1688 H1712 0.950 . S
C1689 C1706 1.574 . S
C1689 C1708 1.368 . S
C1689 H1713 0.949 . S
H1690 C1694 0.949 . S
C1691 C1692 1.349 . S
C1691 C1693 1.327 . S
C1691 H1714 0.950 . S
C1692 C1691 1.349 . S
C1692 C1704 1.349 . S
C1693 C1691 1.327 . S
C1693 C1709 1.429 . S
C1693 H1715 0.950 . S
C1694 H1690 0.949 . S
C1694 C1702 1.574 . S
C1694 C1710 1.368 . S
H1695 C1703 0.950 . S
H1696 C1701 0.950 . S
H1697 C1702 0.949 . S
H1698 C1704 0.950 . S
H1699 C1705 0.950 . S
H1700 C1706 0.949 . S
C1701 H1696 0.950 . S
C1701 C1703 1.327 . S
C1701 C1707 1.429 . S
C1702 C1694 1.574 . S
C1702 H1697 0.949 . S
C1702 C1708 1.368 . S
C1703 C1687 1.349 . S
C1703 H1695 0.950 . S
C1703 C1701 1.327 . S
C1704 C1692 1.349 . S
C1704 H1698 0.950 . S
C1704 C1705 1.327 . S
C1705 H1699 0.950 . S
C1705 C1704 1.327 . S
C1705 C1709 1.429 . S
C1706 C1689 1.574 . S
C1706 H1700 0.949 . S
C1706 C1710 1.368 . S
C1707 C1688 1.429 . S
C1707 C1701 1.429 . S
C1707 C1708 1.523 . S
C1708 C1689 1.368 . S
C1708 C1702 1.368 . S
C1708 C1707 1.523 . S
C1709 C1693 1.429 . S
C1709 C1705 1.429 . S
C1709 C1710 1.523 . S
C1710 C1694 1.368 . S
C1710 C1706 1.368 . S
C1710 C1709 1.523 . S
H1711 C1686 0.950 . S
H1712 C1688 0.950 . S
H1713 C1689 0.949 . S
H1714 C1691 0.950 . S
H1715 C1693 0.950 . S
C1716 C1717 1.349 . S
C1716 C1718 1.327 . S
C1716 H1741 0.950 . S
C1717 C1716 1.349 . S
C1717 C1733 1.349 . S
C1718 C1716 1.327 . S
C1718 C1737 1.429 . S
C1718 H1742 0.950 . S
C1719 C1736 1.574 . S
C1719 C1738 1.368 . S
C1719 H1743 0.949 . S
H1720 C1724 0.949 . S
C1721 C1722 1.349 . S
C1721 C1723 1.327 . S
C1721 H1744 0.950 . S
C1722 C1721 1.349 . S
C1722 C1734 1.349 . S
C1723 C1721 1.327 . S
C1723 C1739 1.429 . S
C1723 H1745 0.950 . S
C1724 H1720 0.949 . S
C1724 C1732 1.574 . S
C1724 C1740 1.368 . S
H1725 C1733 0.950 . S
H1726 C1731 0.950 . S
H1727 C1732 0.949 . S
H1728 C1734 0.950 . S
H1729 C1735 0.950 . S
H1730 C1736 0.949 . S
C1731 H1726 0.950 . S
C1731 C1733 1.327 . S
C1731 C1737 1.429 . S
C1732 C1724 1.574 . S
C1732 H1727 0.949 . S
C1732 C1738 1.368 . S
C1733 C1717 1.349 . S
C1733 H1725 0.950 . S
C1733 C1731 1.327 . S
C1734 C1722 1.349 . S
C1734 H1728 0.950 . S
C1734 C1735 1.327 . S
C1735 H1729 0.950 . S
C1735 C1734 1.327 . S
C1735 C1739 1.429 . S
C1736 C1719 1.574 . S
C1736 H1730 0.949 . S
C1736 C1740 1.368 . S
C1737 C1718 1.429 . S
C1737 C1731 1.429 . S
C1737 C1738 1.523 . S
C1738 C1719 1.368 . S
C1738 C1732 1.368 . S
C1738 C1737 1.523 . S
C1739 C1723 1.429 . S
C1739 C1735 1.429 . S
C1739 C1740 1.523 . S
C1740 C1724 1.368 . S
C1740 C1736 1.368 . S
C1740 C1739 1.523 . S
H1741 C1716 0.950 . S
H1742 C1718 0.950 . S
H1743 C1719 0.949 . S
H1744 C1721 0.950 . S
H1745 C1723 0.950 . S
C1746 C1747 1.349 . S
C1746 C1748 1.327 . S
C1746 H1771 0.950 . S
C1747 C1746 1.349 . S
C1747 C1763 1.349 . S
C1748 C1746 1.327 . S
C1748 C1767 1.429 . S
C1748 H1772 0.950 . S
C1749 C1766 1.574 . S
C1749 C1768 1.368 . S
C1749 H1773 0.949 . S
H1750 C1754 0.949 . S
C1751 C1752 1.349 . S
C1751 C1753 1.327 . S
C1751 H1774 0.950 . S
C1752 C1751 1.349 . S
C1752 C1764 1.349 . S
C1753 C1751 1.327 . S
C1753 C1769 1.429 . S
C1753 H1775 0.950 . S
C1754 H1750 0.949 . S
C1754 C1762 1.574 . S
C1754 C1770 1.368 . S
H1755 C1763 0.950 . S
H1756 C1761 0.950 . S
H1757 C1762 0.949 . S
H1758 C1764 0.950 . S
H1759 C1765 0.950 . S
H1760 C1766 0.949 . S
C1761 H1756 0.950 . S
C1761 C1763 1.327 . S
C1761 C1767 1.429 . S
C1762 C1754 1.574 . S
C1762 H1757 0.949 . S
C1762 C1768 1.368 . S
C1763 C1747 1.349 . S
C1763 H1755 0.950 . S
C1763 C1761 1.327 . S
C1764 C1752 1.349 . S
C1764 H1758 0.950 . S
C1764 C1765 1.327 . S
C1765 H1759 0.950 . S
C1765 C1764 1.327 . S
C1765 C1769 1.429 . S
C1766 C1749 1.574 . S
C1766 H1760 0.949 . S
C1766 C1770 1.368 . S
C1767 C1748 1.429 . S
C1767 C1761 1.429 . S
C1767 C1768 1.523 . S
C1768 C1749 1.368 . S
C1768 C1762 1.368 . S
C1768 C1767 1.523 . S
C1769 C1753 1.429 . S
C1769 C1765 1.429 . S
C1769 C1770 1.523 . S
C1770 C1754 1.368 . S
C1770 C1766 1.368 . S
C1770 C1769 1.523 . S
H1771 C1746 0.950 . S
H1772 C1748 0.950 . S
H1773 C1749 0.949 . S
H1774 C1751 0.950 . S
H1775 C1753 0.950 . S
C337 C321 1.841 . S
C342 C13 1.841 . S
C367 C27 1.841 . S
C372 C237 1.841 . S
C397 C334 1.840 . S
C402 C40 1.840 . S
C427 C295 1.841 . S
C432 C43 1.841 . S
C457 C252 1.840 . S
C462 C57 1.841 . S
C487 C267 1.841 . S
C492 C71 1.841 . S
C517 C281 1.841 . S
C522 C85 1.841 . S
C547 C110 1.840 . S
C552 C239 1.841 . S
C577 C182 1.840 . S
C582 C125 1.841 . S
C607 C197 1.841 . S
C612 C138 1.840 . S
C637 C140 1.840 . S
C642 C211 1.841 . S
C667 C167 1.841 . S
C672 C181 1.841 . S
C697 C98 1.840 . S
C702 C209 1.841 . S
C727 C223 1.841 . S
C732 C69 1.841 . S
C757 C83 1.841 . S
C762 C169 1.841 . S
C787 C194 1.840 . S
C792 C97 1.841 . S
C817 C152 1.840 . S
C822 C15 1.841 . S
C847 C28 1.840 . S
C852 C155 1.841 . S
C877 C55 1.841 . S
C882 C113 1.841 . S
C907 C1 1.841 . S
C912 C126 1.840 . S
C937 C293 1.841 . S
C942 C307 1.841 . S
C967 C309 1.841 . S
C972 C251 1.841 . S
C997 C264 1.840 . S
C1002 C225 1.841 . S
C1027 C322 1.840 . S
C1032 C279 1.841 . S
C1057 C12 0.921 . S
C1062 C112 0.921 . S
C1087 C127 0.922 . S
C1092 C26 0.921 . S
C1117 C41 0.922 . S
C1122 C153 0.922 . S
C1147 C42 0.921 . S
C1152 C154 0.921 . S
C1177 C56 0.921 . S
C1182 C168 0.921 . S
C1207 C70 0.921 . S
C1212 C195 0.922 . S
C1237 C208 0.921 . S
C1242 C84 0.921 . S
C1267 C222 0.921 . S
C1272 C111 0.922 . S
C1297 C124 0.921 . S
C1302 C224 0.921 . S
C1327 C139 0.922 . S
C1332 C323 0.922 . S
C1357 C306 0.921 . S
C1362 C141 0.922 . S
C1387 C308 0.921 . S
C1392 C166 0.921 . S
C1417 C250 0.921 . S
C1422 C180 0.921 . S
C1447 C265 0.922 . S
C1452 C183 0.922 . S
C1477 C196 0.921 . S
C1482 C278 0.921 . S
C1507 C210 0.921 . S
C1512 C292 0.921 . S
C1537 C0 0.921 . S
C1542 C236 0.921 . S
C1567 C238 0.921 . S
C1572 C68 0.921 . S
C1597 C253 0.922 . S
C1602 C82 0.921 . S
C1627 C266 0.921 . S
C1632 C96 0.921 . S
C1657 C280 0.921 . S
C1662 C99 0.922 . S
C1687 C294 0.921 . S
C1692 C29 0.922 . S
C1717 C54 0.921 . S
C1722 C320 0.921 . S
C1747 C335 0.922 . S
C1752 C14 0.921 . S
