# Generated by pormake.
# Topology fcp, (5)-cn, num edge types: 1
# Building blocks:
#     Node 0, Type 0, BuildingBlock: XOMCOT_clean_sbu_0, # of connection points: 5
#     Node 1, Type 0, BuildingBlock: XOMCOT_clean_sbu_0, # of connection points: 5
#     Node 2, Type 0, BuildingBlock: XOMCOT_clean_sbu_0, # of connection points: 5
#     Node 3, Type 0, BuildingBlock: XOMCOT_clean_sbu_0, # of connection points: 5
#     Node 4, Type 0, BuildingBlock: XOMCOT_clean_sbu_0, # of connection points: 5
#     Node 5, Type 0, BuildingBlock: XOMCOT_clean_sbu_0, # of connection points: 5
#     Node 6, Type 0, BuildingBlock: XOMCOT_clean_sbu_0, # of connection points: 5
#     Node 7, Type 0, BuildingBlock: XOMCOT_clean_sbu_0, # of connection points: 5
#     Node 8, Type 0, BuildingBlock: XOMCOT_clean_sbu_0, # of connection points: 5
#     Node 9, Type 0, BuildingBlock: XOMCOT_clean_sbu_0, # of connection points: 5
#     Node 10, Type 0, BuildingBlock: XOMCOT_clean_sbu_0, # of connection points: 5
#     Node 11, Type 0, BuildingBlock: XOMCOT_clean_sbu_0, # of connection points: 5
#     Node 12, Type 0, BuildingBlock: XOMCOT_clean_sbu_0, # of connection points: 5
#     Node 13, Type 0, BuildingBlock: XOMCOT_clean_sbu_0, # of connection points: 5
#     Node 14, Type 0, BuildingBlock: XOMCOT_clean_sbu_0, # of connection points: 5
#     Node 15, Type 0, BuildingBlock: XOMCOT_clean_sbu_0, # of connection points: 5
#     Node 16, Type 0, BuildingBlock: XOMCOT_clean_sbu_0, # of connection points: 5
#     Node 17, Type 0, BuildingBlock: XOMCOT_clean_sbu_0, # of connection points: 5
#     Node 18, Type 0, BuildingBlock: XOMCOT_clean_sbu_0, # of connection points: 5
#     Node 19, Type 0, BuildingBlock: XOMCOT_clean_sbu_0, # of connection points: 5
#     Node 20, Type 0, BuildingBlock: XOMCOT_clean_sbu_0, # of connection points: 5
#     Node 21, Type 0, BuildingBlock: XOMCOT_clean_sbu_0, # of connection points: 5
#     Node 22, Type 0, BuildingBlock: XOMCOT_clean_sbu_0, # of connection points: 5
#     Node 23, Type 0, BuildingBlock: XOMCOT_clean_sbu_0, # of connection points: 5
#     Edge 24, Type (0, 0), BuildingBlock: XUDNAN_clean_linker_2, # of connection points: 2
#     Edge 25, Type (0, 0), BuildingBlock: XUDNAN_clean_linker_2, # of connection points: 2
#     Edge 26, Type (0, 0), BuildingBlock: XUDNAN_clean_linker_2, # of connection points: 2
#     Edge 27, Type (0, 0), BuildingBlock: XUDNAN_clean_linker_2, # of connection points: 2
#     Edge 28, Type (0, 0), BuildingBlock: XUDNAN_clean_linker_2, # of connection points: 2
#     Edge 29, Type (0, 0), BuildingBlock: XUDNAN_clean_linker_2, # of connection points: 2
#     Edge 30, Type (0, 0), BuildingBlock: XUDNAN_clean_linker_2, # of connection points: 2
#     Edge 31, Type (0, 0), BuildingBlock: XUDNAN_clean_linker_2, # of connection points: 2
#     Edge 32, Type (0, 0), BuildingBlock: XUDNAN_clean_linker_2, # of connection points: 2
#     Edge 33, Type (0, 0), BuildingBlock: XUDNAN_clean_linker_2, # of connection points: 2
#     Edge 34, Type (0, 0), BuildingBlock: XUDNAN_clean_linker_2, # of connection points: 2
#     Edge 35, Type (0, 0), BuildingBlock: XUDNAN_clean_linker_2, # of connection points: 2
#     Edge 36, Type (0, 0), BuildingBlock: XUDNAN_clean_linker_2, # of connection points: 2
#     Edge 37, Type (0, 0), BuildingBlock: XUDNAN_clean_linker_2, # of connection points: 2
#     Edge 38, Type (0, 0), BuildingBlock: XUDNAN_clean_linker_2, # of connection points: 2
#     Edge 39, Type (0, 0), BuildingBlock: XUDNAN_clean_linker_2, # of connection points: 2
#     Edge 40, Type (0, 0), BuildingBlock: XUDNAN_clean_linker_2, # of connection points: 2
#     Edge 41, Type (0, 0), BuildingBlock: XUDNAN_clean_linker_2, # of connection points: 2
#     Edge 42, Type (0, 0), BuildingBlock: XUDNAN_clean_linker_2, # of connection points: 2
#     Edge 43, Type (0, 0), BuildingBlock: XUDNAN_clean_linker_2, # of connection points: 2
#     Edge 44, Type (0, 0), BuildingBlock: XUDNAN_clean_linker_2, # of connection points: 2
#     Edge 45, Type (0, 0), BuildingBlock: XUDNAN_clean_linker_2, # of connection points: 2
#     Edge 46, Type (0, 0), BuildingBlock: XUDNAN_clean_linker_2, # of connection points: 2
#     Edge 47, Type (0, 0), BuildingBlock: XUDNAN_clean_linker_2, # of connection points: 2
#     Edge 48, Type (0, 0), BuildingBlock: XUDNAN_clean_linker_2, # of connection points: 2
#     Edge 49, Type (0, 0), BuildingBlock: XUDNAN_clean_linker_2, # of connection points: 2
#     Edge 50, Type (0, 0), BuildingBlock: XUDNAN_clean_linker_2, # of connection points: 2
#     Edge 51, Type (0, 0), BuildingBlock: XUDNAN_clean_linker_2, # of connection points: 2
#     Edge 52, Type (0, 0), BuildingBlock: XUDNAN_clean_linker_2, # of connection points: 2
#     Edge 53, Type (0, 0), BuildingBlock: XUDNAN_clean_linker_2, # of connection points: 2
#     Edge 54, Type (0, 0), BuildingBlock: XUDNAN_clean_linker_2, # of connection points: 2
#     Edge 55, Type (0, 0), BuildingBlock: XUDNAN_clean_linker_2, # of connection points: 2
#     Edge 56, Type (0, 0), BuildingBlock: XUDNAN_clean_linker_2, # of connection points: 2
#     Edge 57, Type (0, 0), BuildingBlock: XUDNAN_clean_linker_2, # of connection points: 2
#     Edge 58, Type (0, 0), BuildingBlock: XUDNAN_clean_linker_2, # of connection points: 2
#     Edge 59, Type (0, 0), BuildingBlock: XUDNAN_clean_linker_2, # of connection points: 2
#     Edge 60, Type (0, 0), BuildingBlock: XUDNAN_clean_linker_2, # of connection points: 2
#     Edge 61, Type (0, 0), BuildingBlock: XUDNAN_clean_linker_2, # of connection points: 2
#     Edge 62, Type (0, 0), BuildingBlock: XUDNAN_clean_linker_2, # of connection points: 2
#     Edge 63, Type (0, 0), BuildingBlock: XUDNAN_clean_linker_2, # of connection points: 2
#     Edge 64, Type (0, 0), BuildingBlock: XUDNAN_clean_linker_2, # of connection points: 2
#     Edge 65, Type (0, 0), BuildingBlock: XUDNAN_clean_linker_2, # of connection points: 2
#     Edge 66, Type (0, 0), BuildingBlock: XUDNAN_clean_linker_2, # of connection points: 2
#     Edge 67, Type (0, 0), BuildingBlock: XUDNAN_clean_linker_2, # of connection points: 2
#     Edge 68, Type (0, 0), BuildingBlock: XUDNAN_clean_linker_2, # of connection points: 2
#     Edge 69, Type (0, 0), BuildingBlock: XUDNAN_clean_linker_2, # of connection points: 2
#     Edge 70, Type (0, 0), BuildingBlock: XUDNAN_clean_linker_2, # of connection points: 2
#     Edge 71, Type (0, 0), BuildingBlock: XUDNAN_clean_linker_2, # of connection points: 2
#     Edge 72, Type (0, 0), BuildingBlock: XUDNAN_clean_linker_2, # of connection points: 2
#     Edge 73, Type (0, 0), BuildingBlock: XUDNAN_clean_linker_2, # of connection points: 2
#     Edge 74, Type (0, 0), BuildingBlock: XUDNAN_clean_linker_2, # of connection points: 2
#     Edge 75, Type (0, 0), BuildingBlock: XUDNAN_clean_linker_2, # of connection points: 2
#     Edge 76, Type (0, 0), BuildingBlock: XUDNAN_clean_linker_2, # of connection points: 2
#     Edge 77, Type (0, 0), BuildingBlock: XUDNAN_clean_linker_2, # of connection points: 2
#     Edge 78, Type (0, 0), BuildingBlock: XUDNAN_clean_linker_2, # of connection points: 2
#     Edge 79, Type (0, 0), BuildingBlock: XUDNAN_clean_linker_2, # of connection points: 2
#     Edge 80, Type (0, 0), BuildingBlock: XUDNAN_clean_linker_2, # of connection points: 2
#     Edge 81, Type (0, 0), BuildingBlock: XUDNAN_clean_linker_2, # of connection points: 2
#     Edge 82, Type (0, 0), BuildingBlock: XUDNAN_clean_linker_2, # of connection points: 2
#     Edge 83, Type (0, 0), BuildingBlock: XUDNAN_clean_linker_2, # of connection points: 2
# Relax obj value: 0.054
# Max RMSD: 0.111
# Mean RMSD: 0.111
data_MOF--net-fcp--node1-XOMCOT_clean_sbu_0--edge1-XUDNAN_clean_linker_2
_symmetry_space_group_name_H-M    P1
_symmetry_Int_Tables_number       1
_symmetry_cell_setting            triclinic
loop_
_symmetry_equiv_pos_as_xyz
'x, y, z'
_cell_length_a     51.605719
_cell_length_b     51.438973
_cell_length_c     51.560665
_cell_angle_alpha  90.201057
_cell_angle_beta   89.933363
_cell_angle_gamma 90.24791
loop_
_atom_site_label
_atom_site_type_symbol
_atom_site_fract_x
_atom_site_fract_y
_atom_site_fract_z
_atom_type_partial_charge
Co0 Co 0.08546 0.33045 0.17824 0.0
C1 C 0.13044 0.31143 0.147 0.0
C2 C 0.14187 0.3349 0.17939 0.0
C3 C 0.16376 0.32466 0.16822 0.0
N4 N 0.1209 0.32707 0.16583 0.0
N5 N 0.15659 0.30974 0.14788 0.0
H6 H 0.11864 0.30025 0.13389 0.0
H7 H 0.14118 0.34602 0.19721 0.0
C8 C 0.10647 0.38538 0.17885 0.0
O9 O 0.11914 0.38127 0.15713 0.0
N10 N 0.05077 0.33359 0.19166 0.0
C11 C 0.02972 0.31934 0.18536 0.0
C12 C 0.00936 0.32704 0.20096 0.0
C13 C 0.04308 0.3497 0.21079 0.0
N14 N 0.0179 0.34619 0.21676 0.0
C15 C 0.07079 0.32153 0.12526 0.0
C16 C 0.04906 0.36961 0.11646 0.0
C17 C 0.04815 0.35093 0.0965 0.0
C18 C 0.05944 0.32665 0.10126 0.0
C19 C 0.06109 0.36381 0.14008 0.0
N20 N 0.07248 0.34021 0.14406 0.0
H21 H 0.07721 0.30201 0.12897 0.0
H22 H 0.05999 0.37797 0.1555 0.0
H23 H 0.02928 0.30427 0.17068 0.0
H24 H 0.05574 0.36328 0.22069 0.0
O25 O 0.08125 0.29312 0.17581 0.0
O26 O 0.09595 0.31432 0.2103 0.0
O27 O 0.09218 0.36771 0.18877 0.0
C28 C 0.09008 0.29222 0.19941 0.0
H29 H 0.18325 0.32661 0.17572 0.0
H30 H 0.98979 0.31938 0.20059 0.0
H31 H 0.03972 0.38828 0.11434 0.0
H32 H 0.05927 0.3114 0.08675 0.0
Co33 Co 0.8364 0.43005 0.33273 0.0
C34 C 0.82056 0.38052 0.3595 0.0
C35 C 0.8449 0.37424 0.32632 0.0
C36 C 0.83874 0.35049 0.33682 0.0
N37 N 0.83416 0.39319 0.34089 0.0
N38 N 0.82341 0.35449 0.35758 0.0
H39 H 0.80881 0.38977 0.37412 0.0
H40 H 0.85656 0.37752 0.30918 0.0
C41 C 0.89127 0.41226 0.33884 0.0
O42 O 0.8844 0.39783 0.35868 0.0
N43 N 0.83828 0.46636 0.32373 0.0
C44 C 0.82254 0.48521 0.33261 0.0
C45 C 0.82722 0.50751 0.31865 0.0
C46 C 0.85245 0.47735 0.30462 0.0
N47 N 0.84599 0.5025 0.30113 0.0
C48 C 0.81822 0.43945 0.38497 0.0
C49 C 0.86465 0.45854 0.40398 0.0
C50 C 0.84341 0.45684 0.42072 0.0
C51 C 0.81976 0.44768 0.41089 0.0
C52 C 0.86211 0.45072 0.3782 0.0
N53 N 0.83954 0.43994 0.36923 0.0
H54 H 0.79974 0.43303 0.37746 0.0
H55 H 0.87825 0.45424 0.36543 0.0
H56 H 0.80786 0.48259 0.34736 0.0
H57 H 0.866 0.46681 0.29253 0.0
O58 O 0.79886 0.43064 0.32816 0.0
O59 O 0.82783 0.42197 0.29756 0.0
O60 O 0.87501 0.42727 0.32788 0.0
C61 C 0.80371 0.42475 0.304 0.0
H62 H 0.84471 0.33167 0.32955 0.0
H63 H 0.8171 0.5258 0.32067 0.0
H64 H 0.88293 0.46659 0.4106 0.0
H65 H 0.80272 0.44676 0.42313 0.0
Co66 Co 0.93736 0.68831 0.18056 0.0
C67 C 0.89093 0.71784 0.16259 0.0
C68 C 0.88836 0.6771 0.15399 0.0
C69 C 0.86672 0.68904 0.14428 0.0
N70 N 0.90345 0.69503 0.16581 0.0
N71 N 0.86836 0.71464 0.14965 0.0
H72 H 0.89822 0.73646 0.16913 0.0
H73 H 0.89314 0.65681 0.15151 0.0
C74 C 0.93588 0.63014 0.19464 0.0
O75 O 0.96108 0.62812 0.19725 0.0
N76 N 0.9714 0.68171 0.19496 0.0
C77 C 0.99436 0.68423 0.18271 0.0
C78 C 0.01381 0.67734 0.1995 0.0
C79 C 0.97731 0.67441 0.21941 0.0
N80 N 1.00308 0.67095 0.22248 0.0
C81 C 0.95251 0.70265 0.12907 0.0
C82 C 0.96561 0.65361 0.11151 0.0
C83 C 0.96819 0.67468 0.0945 0.0
C84 C 0.96168 0.69951 0.10365 0.0
C85 C 0.95674 0.65763 0.13686 0.0
N86 N 0.95021 0.6819 0.14542 0.0
H87 H 0.94709 0.72184 0.13562 0.0
H88 H 0.95541 0.64108 0.14938 0.0
H89 H 0.99695 0.69053 0.1629 0.0
H90 H 0.96294 0.67035 0.23418 0.0
O91 O 0.94427 0.72561 0.18394 0.0
O92 O 0.92597 0.70077 0.21388 0.0
O93 O 0.92564 0.65106 0.18613 0.0
C94 C 0.93425 0.7236 0.20709 0.0
H95 H 0.85151 0.67976 0.1331 0.0
H96 H 0.03432 0.67704 0.19508 0.0
H97 H 0.97066 0.63413 0.10535 0.0
H98 H 0.96309 0.7163 0.0911 0.0
Co99 Co 0.18205 0.58314 0.34332 0.0
C100 C 0.20421 0.62671 0.37431 0.0
C101 C 0.1729 0.63919 0.35042 0.0
C102 C 0.18467 0.6608 0.36097 0.0
N103 N 0.18471 0.61758 0.35922 0.0
N104 N 0.20458 0.65296 0.37588 0.0
H105 H 0.21932 0.61465 0.38203 0.0
H106 H 0.1584 0.63959 0.33534 0.0
C107 C 0.12637 0.5998 0.34655 0.0
O108 O 0.12958 0.60522 0.37127 0.0
N109 N 0.17993 0.54949 0.32659 0.0
C110 C 0.19535 0.52891 0.331 0.0
C111 C 0.18843 0.50913 0.31425 0.0
C112 C 0.16374 0.54198 0.30739 0.0
N113 N 0.16854 0.51739 0.29954 0.0
C114 C 0.18901 0.56742 0.39631 0.0
C115 C 0.14374 0.53892 0.40069 0.0
C116 C 0.16044 0.54036 0.42215 0.0
C117 C 0.18336 0.55487 0.4196 0.0
C118 C 0.15011 0.55198 0.37772 0.0
N119 N 0.1721 0.56682 0.37601 0.0
H120 H 0.20753 0.5768 0.39446 0.0
H121 H 0.13756 0.54967 0.36112 0.0
H122 H 0.21061 0.52834 0.34535 0.0
H123 H 0.14904 0.5543 0.29901 0.0
O124 O 0.2193 0.57975 0.34574 0.0
O125 O 0.19822 0.59727 0.31269 0.0
O126 O 0.14497 0.59013 0.33335 0.0
C127 C 0.22026 0.59136 0.32336 0.0
H128 H 0.18029 0.68073 0.35606 0.0
H129 H 0.19704 0.48999 0.31326 0.0
H130 H 0.12625 0.52725 0.40133 0.0
H131 H 0.19705 0.55648 0.43542 0.0
Co132 Co 0.07958 0.68793 0.83397 0.0
C133 C 0.1253 0.70763 0.86284 0.0
C134 C 0.13614 0.68662 0.82859 0.0
C135 C 0.15807 0.69771 0.83914 0.0
N136 N 0.11561 0.69246 0.8437 0.0
N137 N 0.15118 0.7111 0.86058 0.0
H138 H 0.1136 0.71709 0.87734 0.0
H139 H 0.13502 0.67617 0.81039 0.0
C140 C 0.10241 0.63387 0.833 0.0
O141 O 0.11747 0.6398 0.85268 0.0
N142 N 0.04387 0.68418 0.82375 0.0
C143 C 0.02387 0.69828 0.83284 0.0
C144 C 1.00234 0.69285 0.81804 0.0
C145 C 0.03432 0.67022 0.80369 0.0
N146 N 1.00898 0.67521 0.79986 0.0
C147 C 0.06511 0.70104 0.88634 0.0
C148 C 0.05083 0.65175 0.90187 0.0
C149 C 0.04625 0.6726 0.91894 0.0
C150 C 0.0539 0.69751 0.91084 0.0
C151 C 0.06166 0.65618 0.87736 0.0
N152 N 0.06914 0.68056 0.86985 0.0
H153 H 0.06944 0.72062 0.88025 0.0
H154 H 0.06268 0.63994 0.86423 0.0
H155 H 0.02515 0.71247 0.84831 0.0
H156 H 0.04595 0.65794 0.79122 0.0
O157 O 0.0761 0.72568 0.83369 0.0
O158 O 0.08757 0.70147 0.80001 0.0
O159 O 0.08545 0.64999 0.82492 0.0
C160 C 0.08291 0.72443 0.80941 0.0
H161 H 0.17726 0.69737 0.83066 0.0
H162 H 0.98345 0.70174 0.81992 0.0
H163 H 0.04552 0.63205 0.90701 0.0
H164 H 0.05021 0.71446 0.92276 0.0
Co165 Co 0.182 0.42822 0.6787 0.0
C166 C 0.20104 0.38378 0.64635 0.0
C167 C 0.1708 0.37277 0.67289 0.0
C168 C 0.17815 0.35115 0.65916 0.0
N169 N 0.1848 0.39334 0.66466 0.0
N170 N 0.19713 0.35801 0.64257 0.0
H171 H 0.21527 0.39534 0.63605 0.0
H172 H 0.15655 0.37319 0.68824 0.0
C173 C 0.12351 0.43169 0.68578 0.0
O174 O 0.12239 0.45516 0.67591 0.0
N175 N 0.17927 0.46303 0.69408 0.0
C176 C 0.19635 0.48288 0.69163 0.0
C177 C 0.18923 0.50292 0.70786 0.0
C178 C 0.16266 0.47112 0.71282 0.0
N179 N 0.16793 0.49555 0.72103 0.0
C180 C 0.18787 0.45877 0.63266 0.0
C181 C 0.14549 0.43918 0.60623 0.0
C182 C 0.16076 0.4584 0.59436 0.0
C183 C 0.18232 0.468 0.60788 0.0
C184 C 0.15187 0.43034 0.6311 0.0
N185 N 0.17224 0.44092 0.64447 0.0
H186 H 0.20523 0.46558 0.64198 0.0
H187 H 0.14065 0.41464 0.63934 0.0
H188 H 0.21367 0.48266 0.6799 0.0
H189 H 0.14772 0.45911 0.72134 0.0
O190 O 0.21913 0.43224 0.67603 0.0
O191 O 0.19824 0.41649 0.71021 0.0
O192 O 0.14504 0.41992 0.68828 0.0
C193 C 0.2202 0.42252 0.69926 0.0
H194 H 0.17061 0.33164 0.66165 0.0
H195 H 0.19905 0.52145 0.70991 0.0
H196 H 0.12915 0.43058 0.59616 0.0
H197 H 0.19489 0.48262 0.59944 0.0
Co198 Co 0.929 0.34242 0.84129 0.0
C199 C 0.88476 0.31541 0.86561 0.0
C200 C 0.87259 0.34858 0.84366 0.0
C201 C 0.85107 0.33702 0.85444 0.0
N202 N 0.89363 0.33507 0.85078 0.0
N203 N 0.85866 0.31605 0.86822 0.0
H204 H 0.89728 0.30084 0.8739 0.0
H205 H 0.87281 0.36559 0.8314 0.0
C206 C 0.92481 0.39413 0.81974 0.0
O207 O 0.93605 0.38322 0.79966 0.0
N208 N 0.96479 0.35057 0.83204 0.0
C209 C 0.97992 0.36722 0.84561 0.0
C210 C 1.00072 0.37443 0.83068 0.0
C211 C 0.97697 0.34775 0.80889 0.0
N212 N 0.99867 0.36252 0.80749 0.0
C213 C 0.95614 0.32711 0.88708 0.0
C214 C 0.93766 0.3665 0.91868 0.0
C215 C 0.95734 0.35031 0.92805 0.0
C216 C 0.96599 0.32988 0.91221 0.0
C217 C 0.9281 0.36286 0.89356 0.0
N218 N 0.93819 0.34409 0.87778 0.0
H219 H 0.96389 0.31216 0.87453 0.0
H220 H 0.91314 0.37567 0.88657 0.0
H221 H 0.9751 0.37557 0.86425 0.0
H222 H 0.96882 0.33752 0.79244 0.0
O223 O 0.93435 0.3054 0.83436 0.0
O224 O 0.92057 0.33427 0.80588 0.0
O225 O 0.9207 0.38071 0.84015 0.0
C226 C 0.92617 0.31025 0.81097 0.0
H227 H 0.83141 0.34382 0.85227 0.0
H228 H 0.01532 0.3887 0.83587 0.0
H229 H 0.93003 0.38214 0.93052 0.0
H230 H 0.98118 0.31697 0.91868 0.0
Co231 Co 0.82781 0.58467 0.67245 0.0
C232 C 0.8004 0.63049 0.65018 0.0
C233 C 0.84137 0.63176 0.64323 0.0
C234 C 0.83043 0.65356 0.63254 0.0
N235 N 0.82262 0.61742 0.65463 0.0
N236 N 0.80472 0.65268 0.6369 0.0
H237 H 0.78144 0.62413 0.65651 0.0
H238 H 0.86162 0.62659 0.64228 0.0
C239 C 0.88468 0.58593 0.68974 0.0
O240 O 0.88601 0.56065 0.69281 0.0
N241 N 0.83283 0.55193 0.6901 0.0
C242 C 0.83087 0.52788 0.67976 0.0
C243 C 0.8365 0.50998 0.69867 0.0
C244 C 0.83855 0.5483 0.7154 0.0
N245 N 0.84116 0.52288 0.72094 0.0
C246 C 0.81641 0.56451 0.62235 0.0
C247 C 0.86558 0.54859 0.60872 0.0
C248 C 0.84489 0.54266 0.59196 0.0
C249 C 0.82009 0.55121 0.59901 0.0
C250 C 0.86097 0.56163 0.63216 0.0
N251 N 0.83648 0.56888 0.63906 0.0
H252 H 0.7971 0.57084 0.62719 0.0
H253 H 0.8772 0.56542 0.64457 0.0
H254 H 0.82628 0.52351 0.65978 0.0
H255 H 0.84235 0.56393 0.72901 0.0
O256 O 0.79089 0.57769 0.67285 0.0
O257 O 0.81233 0.59887 0.70356 0.0
O258 O 0.86446 0.59651 0.68013 0.0
C259 C 0.79038 0.58972 0.69508 0.0
H260 H 0.84052 0.66858 0.62181 0.0
H261 H 0.83799 0.48914 0.6961 0.0
H262 H 0.88525 0.54314 0.60392 0.0
H263 H 0.80335 0.54709 0.58703 0.0
Co264 Co 0.17904 0.08067 0.33212 0.0
C265 C 0.14868 0.12384 0.31017 0.0
C266 C 0.17512 0.13693 0.33958 0.0
C267 C 0.16364 0.15827 0.32861 0.0
N268 N 0.16572 0.11539 0.32804 0.0
N269 N 0.1471 0.15011 0.30995 0.0
H270 H 0.13856 0.11099 0.29695 0.0
H271 H 0.19043 0.13727 0.35387 0.0
C272 C 0.18676 0.07774 0.39037 0.0
O273 O 0.17457 0.05527 0.39128 0.0
N274 N 0.19353 0.04599 0.33604 0.0
C275 C 0.18956 0.0248 0.32096 0.0
C276 C 0.20603 1.00529 0.32867 0.0
C277 C 0.21322 0.03927 0.3519 0.0
N278 N 0.22065 0.01446 0.34827 0.0
C279 C 0.13177 0.05211 0.32542 0.0
C280 C 0.1058 0.07159 0.36803 0.0
C281 C 0.09294 0.05362 0.35189 0.0
C282 C 0.10634 0.04416 0.33017 0.0
C283 C 0.13127 0.07931 0.36233 0.0
N284 N 0.14437 0.06875 0.34181 0.0
H285 H 0.14084 0.04567 0.30777 0.0
H286 H 0.14017 0.09423 0.37414 0.0
H287 H 0.17661 0.02365 0.30461 0.0
H288 H 0.22287 0.05245 0.36512 0.0
O289 O 0.1768 0.07549 0.29499 0.0
O290 O 0.21094 0.09147 0.31576 0.0
O291 O 0.18904 0.08983 0.3689 0.0
C292 C 0.20018 0.08495 0.29385 0.0
H293 H 0.16852 0.17828 0.33297 0.0
H294 H 0.20724 0.98592 0.32049 0.0
H295 H 0.0963 0.07986 0.38485 0.0
H296 H 0.09702 0.03137 0.31628 0.0
Co297 Co 0.58527 0.3429 0.18979 0.0
C298 C 0.63852 0.36319 0.2013 0.0
C299 C 0.62482 0.37619 0.16442 0.0
C300 C 0.64869 0.38718 0.16885 0.0
N301 N 0.61828 0.36097 0.1847 0.0
N302 N 0.65727 0.37905 0.19207 0.0
H303 H 0.63961 0.35379 0.21994 0.0
H304 H 0.61271 0.38043 0.14808 0.0
C305 C 0.58291 0.33989 0.13002 0.0
O306 O 0.57463 0.36378 0.1272 0.0
N307 N 0.55262 0.32471 0.19498 0.0
C308 C 0.53706 0.32755 0.21579 0.0
C309 C 0.51469 0.3137 0.21173 0.0
C310 C 0.53943 0.30895 0.17851 0.0
N311 N 0.51591 0.30232 0.18813 0.0
C312 C 0.57441 0.39716 0.19441 0.0
C313 C 0.52851 0.39718 0.16687 0.0
C314 C 0.53684 0.42031 0.17874 0.0
C315 C 0.56025 0.42015 0.19245 0.0
C316 C 0.54341 0.37466 0.16907 0.0
N317 N 0.56633 0.37484 0.18237 0.0
H318 H 0.5916 0.39711 0.20635 0.0
H319 H 0.53641 0.3571 0.15995 0.0
H320 H 0.54113 0.33968 0.23246 0.0
H321 H 0.54607 0.30382 0.15928 0.0
O322 O 0.58835 0.34734 0.22696 0.0
O323 O 0.60304 0.31353 0.20465 0.0
O324 O 0.58679 0.33033 0.15254 0.0
C325 C 0.59951 0.32466 0.2271 0.0
H326 H 0.65843 0.40102 0.15638 0.0
H327 H 0.49844 0.31277 0.22498 0.0
H328 H 0.51051 0.39642 0.15611 0.0
H329 H 0.56704 0.43738 0.20254 0.0
Co330 Co 0.83697 0.93689 0.32892 0.0
C331 C 0.86834 0.89049 0.31112 0.0
C332 C 0.83716 0.88074 0.33685 0.0
C333 C 0.84913 0.85816 0.32938 0.0
N334 N 0.84967 0.90125 0.32628 0.0
N335 N 0.86861 0.86429 0.31316 0.0
H336 H 0.88103 0.90114 0.29834 0.0
H337 H 0.81992 0.88203 0.34872 0.0
C338 C 0.83778 0.91867 0.3844 0.0
O339 O 0.86035 0.90752 0.38072 0.0
N340 N 0.82298 0.97164 0.33148 0.0
C341 C 0.82922 0.99267 0.31724 0.0
C342 C 0.81363 0.0131 0.32488 0.0
C343 C 0.80382 0.97946 0.34751 0.0
N344 N 0.7978 1.0047 0.34399 0.0
C345 C 0.89044 0.95089 0.32087 0.0
C346 C 0.89732 0.97656 0.36754 0.0
C347 C 0.91781 0.97631 0.34965 0.0
C348 C 0.91414 0.96311 0.3261 0.0
C349 C 0.87398 0.96397 0.36159 0.0
N350 N 0.8709 0.95069 0.33876 0.0
H351 H 0.88741 0.94284 0.30182 0.0
H352 H 0.85804 0.96602 0.37498 0.0
H353 H 0.84399 0.9931 0.30235 0.0
H354 H 0.79408 0.96686 0.36119 0.0
O355 O 0.83952 0.94024 0.29168 0.0
O356 O 0.80517 0.9254 0.31299 0.0
O357 O 0.8266 0.93097 0.36616 0.0
C358 C 0.81604 0.93094 0.29089 0.0
H359 H 0.8435 0.83861 0.33479 0.0
H360 H 0.81416 0.03269 0.3173 0.0
H361 H 0.89907 0.98684 0.38582 0.0
H362 H 0.929 0.96328 0.31124 0.0
Co363 Co 0.43359 0.68293 0.18888 0.0
C364 C 0.38606 0.66839 0.21893 0.0
C365 C 0.38474 0.65502 0.17951 0.0
C366 C 0.36292 0.64627 0.19204 0.0
N367 N 0.3992 0.66918 0.19621 0.0
N368 N 0.36382 0.65458 0.21683 0.0
H369 H 0.39289 0.67695 0.23685 0.0
H370 H 0.3903 0.64998 0.15994 0.0
C371 C 0.43355 0.69013 0.12944 0.0
O372 O 0.4587 0.69325 0.12726 0.0
N373 N 0.46787 0.69664 0.18181 0.0
C374 C 0.49063 0.68647 0.18943 0.0
C375 C 0.51034 0.70303 0.18208 0.0
C376 C 0.47394 0.71971 0.17091 0.0
N377 N 0.49979 0.72378 0.17024 0.0
C378 C 0.44186 0.63154 0.20718 0.0
C379 C 0.46607 0.61198 0.16343 0.0
C380 C 0.46077 0.59524 0.18417 0.0
C381 C 0.44869 0.60534 0.20632 0.0
C382 C 0.45838 0.63802 0.16487 0.0
N383 N 0.44614 0.6474 0.18643 0.0
H384 H 0.4326 0.63909 0.22442 0.0
H385 H 0.46245 0.65052 0.14871 0.0
H386 H 0.49281 0.66833 0.19973 0.0
H387 H 0.45971 0.73306 0.16328 0.0
O388 O 0.4396 0.68967 0.22556 0.0
O389 O 0.42229 0.71736 0.19761 0.0
O390 O 0.42309 0.68418 0.15112 0.0
C391 C 0.42997 0.71264 0.2211 0.0
H392 H 0.34828 0.63349 0.18394 0.0
H393 H 0.53087 0.69975 0.18471 0.0
H394 H 0.47549 0.60486 0.14604 0.0
H395 H 0.44458 0.59307 0.22287 0.0
Co396 Co 0.18659 0.93812 0.69019 0.0
C397 C 0.15452 0.89471 0.7128 0.0
C398 C 0.18631 0.88162 0.68925 0.0
C399 C 0.17325 0.86021 0.69831 0.0
N400 N 0.17444 0.90328 0.69791 0.0
N401 N 0.15345 0.86844 0.71314 0.0
H402 H 0.14107 0.90716 0.72297 0.0
H403 H 0.2035 0.88141 0.67725 0.0
C404 C 0.20066 0.93499 0.63205 0.0
O405 O 0.1998 0.96017 0.62811 0.0
N406 N 0.19973 0.97268 0.68266 0.0
C407 C 0.18858 0.99562 0.68854 0.0
C408 C 0.20524 0.01546 0.68158 0.0
C409 C 0.22328 0.97888 0.67287 0.0
N410 N 0.2269 1.00486 0.67153 0.0
C411 C 0.13544 0.95625 0.70204 0.0
C412 C 0.11642 0.95858 0.65214 0.0
C413 C 0.1002 0.9663 0.67264 0.0
C414 C 0.11009 0.96474 0.6979 0.0
C415 C 0.14156 0.94976 0.65717 0.0
N416 N 0.15108 0.94895 0.68189 0.0
H417 H 0.14234 0.95554 0.72174 0.0
H418 H 0.15296 0.94373 0.64088 0.0
H419 H 0.16977 0.99789 0.69745 0.0
H420 H 0.23736 0.96464 0.66658 0.0
O421 O 0.1871 0.94647 0.72682 0.0
O422 O 0.21973 0.92912 0.70504 0.0
O423 O 0.19424 0.92521 0.65391 0.0
C424 C 0.21047 0.93716 0.72709 0.0
H425 H 0.17789 0.84006 0.69439 0.0
H426 H 0.20149 0.03609 0.68319 0.0
H427 H 0.10998 0.9596 0.6322 0.0
H428 H 0.09834 0.96976 0.71457 0.0
Co429 Co 0.43425 0.33539 0.83206 0.0
C430 C 0.38975 0.36343 0.80795 0.0
C431 C 0.37795 0.33383 0.83466 0.0
C432 C 0.35622 0.34367 0.82305 0.0
N433 N 0.399 0.3465 0.82562 0.0
N434 N 0.3636 0.36226 0.80617 0.0
H435 H 0.40177 0.37543 0.79576 0.0
H436 H 0.37847 0.31749 0.84778 0.0
C437 C 0.41101 0.34166 0.88538 0.0
O438 O 0.40109 0.36416 0.87874 0.0
N439 N 0.46876 0.32317 0.83869 0.0
C440 C 0.49129 0.33189 0.82876 0.0
C441 C 0.51117 0.31753 0.83929 0.0
C442 C 0.47505 0.30367 0.85481 0.0
N443 N 0.50088 0.29983 0.85571 0.0
C444 C 0.44955 0.38744 0.81799 0.0
C445 C 0.46749 0.40212 0.86632 0.0
C446 C 0.47079 0.41948 0.84561 0.0
C447 C 0.46148 0.41177 0.82115 0.0
C448 C 0.45603 0.37782 0.86219 0.0
N449 N 0.44638 0.37093 0.83845 0.0
H450 H 0.44422 0.38138 0.79868 0.0
H451 H 0.45617 0.3642 0.87801 0.0
H452 H 0.49313 0.34767 0.81507 0.0
H453 H 0.46087 0.29236 0.8654 0.0
O454 O 0.44016 0.33283 0.79483 0.0
O455 O 0.42497 0.30125 0.81988 0.0
O456 O 0.42545 0.32916 0.86958 0.0
C457 C 0.43178 0.309 0.79692 0.0
H458 H 0.33667 0.33647 0.82569 0.0
H459 H 0.53162 0.32028 0.83548 0.0
H460 H 0.47423 0.40686 0.88564 0.0
H461 H 0.46437 0.42385 0.80424 0.0
Co462 Co 0.84649 0.08944 0.69036 0.0
C463 C 0.86973 0.14038 0.70818 0.0
C464 C 0.8754 0.13297 0.66761 0.0
C465 C 0.88598 0.15671 0.67346 0.0
N466 N 0.86518 0.12247 0.68927 0.0
N467 N 0.88224 0.16163 0.69888 0.0
H468 H 0.86335 0.13844 0.72805 0.0
H469 H 0.87472 0.12447 0.64848 0.0
C470 C 0.83229 0.07908 0.63405 0.0
O471 O 0.8392 0.0546 0.63611 0.0
N472 N 0.82736 0.05672 0.69126 0.0
C473 C 0.83349 0.03458 0.70377 0.0
C474 C 0.81498 0.01594 0.69826 0.0
C475 C 0.80464 0.05146 0.67926 0.0
N476 N 0.7971 0.02654 0.68255 0.0
C477 C 0.89232 0.06014 0.70175 0.0
C478 C 0.9132 0.05859 0.65249 0.0
C479 C 0.92646 0.04624 0.67264 0.0
C480 C 0.91586 0.04742 0.6976 0.0
C481 C 0.88985 0.07143 0.65755 0.0
N482 N 0.87901 0.07139 0.68181 0.0
H483 H 0.88488 0.06079 0.72127 0.0
H484 H 0.88113 0.0817 0.64176 0.0
H485 H 0.85036 0.03179 0.71574 0.0
H486 H 0.79419 0.06535 0.66758 0.0
O487 O 0.84876 0.08867 0.72786 0.0
O488 O 0.81675 0.10641 0.70568 0.0
O489 O 0.83577 0.09486 0.65297 0.0
C490 C 0.82654 0.1005 0.72811 0.0
H491 H 0.89547 0.1695 0.65977 0.0
H492 H 0.81537 0.99579 0.70422 0.0
H493 H 0.92109 0.05885 0.63302 0.0
H494 H 0.9255 0.03829 0.71382 0.0
Co495 Co 0.57748 0.68172 0.82653 0.0
C496 C 0.62293 0.65269 0.80543 0.0
C497 C 0.63377 0.68669 0.82701 0.0
C498 C 0.65568 0.67637 0.81601 0.0
N499 N 0.61323 0.67166 0.82078 0.0
N500 N 0.64889 0.65502 0.80232 0.0
H501 H 0.61126 0.63823 0.79576 0.0
H502 H 0.63266 0.70472 0.83783 0.0
C503 C 0.60188 0.68048 0.87968 0.0
O504 O 0.61597 0.66029 0.87312 0.0
N505 N 0.54227 0.69274 0.83201 0.0
C506 C 0.52137 0.68696 0.8174 0.0
C507 C 0.50051 0.70089 0.82671 0.0
C508 C 0.53395 0.70983 0.85001 0.0
N509 N 0.50856 0.71506 0.84724 0.0
C510 C 0.56333 0.62917 0.8137 0.0
C511 C 0.55084 0.61317 0.86325 0.0
C512 C 0.54833 0.59541 0.84273 0.0
C513 C 0.55433 0.60381 0.81763 0.0
C514 C 0.55946 0.63852 0.85839 0.0
N515 N 0.56674 0.646 0.834 0.0
H516 H 0.56725 0.63529 0.7941 0.0
H517 H 0.55941 0.65214 0.8743 0.0
H518 H 0.52142 0.67399 0.80085 0.0
H519 H 0.54632 0.71904 0.8643 0.0
O520 O 0.5722 0.68213 0.78931 0.0
O521 O 0.58585 0.71561 0.81277 0.0
O522 O 0.58528 0.68994 0.86402 0.0
C523 C 0.58011 0.70617 0.79006 0.0
H524 H 0.67484 0.68496 0.81676 0.0
H525 H 0.48098 0.70064 0.81906 0.0
H526 H 0.54552 0.6077 0.88282 0.0
H527 H 0.5523 0.59082 0.80117 0.0
Co528 Co 0.33561 0.17976 0.08408 0.0
C529 C 0.30908 0.15089 0.1265 0.0
C530 C 0.33637 0.17914 0.14066 0.0
C531 C 0.32443 0.16776 0.1615 0.0
N532 N 0.32694 0.16849 0.11872 0.0
N533 N 0.30725 0.14996 0.15269 0.0
H534 H 0.29737 0.13946 0.1133 0.0
H535 H 0.35029 0.19484 0.14156 0.0
C536 C 0.39225 0.19726 0.08763 0.0
O537 O 0.39756 0.19386 0.06295 0.0
N538 N 0.34436 0.19168 0.04951 0.0
C539 C 0.34647 0.17752 0.02753 0.0
C540 C 0.35375 0.1937 1.00762 0.0
C541 C 0.34988 0.21638 0.04248 0.0
N542 N 0.35595 0.21808 0.01706 0.0
C543 C 0.32549 0.12841 0.06542 0.0
C544 C 0.3753 0.10931 0.06813 0.0
C545 C 0.35583 0.09353 0.05722 0.0
C546 C 0.33058 0.1034 0.05633 0.0
C547 C 0.36939 0.13443 0.07694 0.0
N548 N 0.34481 0.14403 0.07487 0.0
H549 H 0.30593 0.13545 0.06389 0.0
H550 H 0.38479 0.14593 0.08516 0.0
H551 H 0.3432 0.15687 0.02579 0.0
H552 H 0.3504 0.2326 0.05589 0.0
O553 O 0.29915 0.17947 0.07477 0.0
O554 O 0.32005 0.21299 0.09181 0.0
O555 O 0.37101 0.18914 0.09748 0.0
C556 C 0.29835 0.20319 0.08352 0.0
H557 H 0.32738 0.17314 0.18159 0.0
H558 H 0.35699 0.18798 0.98766 0.0
H559 H 0.395 0.10237 0.06983 0.0
H560 H 0.31485 0.0923 0.04784 0.0
Co561 Co 0.32932 0.83688 0.94131 0.0
C562 C 0.31345 0.86879 0.89584 0.0
C563 C 0.334 0.83438 0.88491 0.0
C564 C 0.32497 0.84608 0.8628 0.0
N565 N 0.32716 0.8488 0.90568 0.0
N566 N 0.31188 0.86769 0.86966 0.0
H567 H 0.30364 0.88305 0.9075 0.0
H568 H 0.34367 0.8158 0.88589 0.0
C569 C 0.38379 0.83563 0.92107 0.0
O570 O 0.37977 0.85744 0.90857 0.0
N571 N 0.33104 0.82417 0.97631 0.0
C572 C 0.31629 0.83189 0.99646 0.0
C573 C 0.32127 0.81594 0.01725 0.0
C574 C 0.34496 0.80387 0.98503 0.0
N575 N 0.33931 0.79849 0.00997 0.0
C576 C 0.3207 0.89008 0.9562 0.0
C577 C 0.36983 0.90003 0.9751 0.0
C578 C 0.35134 0.91988 0.97613 0.0
C579 C 0.3264 0.91453 0.96672 0.0
C580 C 0.36325 0.87577 0.96459 0.0
N581 N 0.33926 0.87132 0.95419 0.0
H582 H 0.30105 0.88612 0.95027 0.0
H583 H 0.37735 0.86044 0.96582 0.0
H584 H 0.30231 0.84748 0.9958 0.0
H585 H 0.35799 0.79251 0.97311 0.0
O586 O 0.2919 0.83933 0.94401 0.0
O587 O 0.31338 0.80465 0.93048 0.0
O588 O 0.36636 0.82592 0.93574 0.0
C589 C 0.2912 0.81562 0.93509 0.0
H590 H 0.32647 0.83819 0.84338 0.0
H591 H 0.3121 0.81678 0.03613 0.0
H592 H 0.38902 0.9029 0.98314 0.0
H593 H 0.31133 0.9291 0.96749 0.0
Co594 Co 0.3388 0.18801 0.58001 0.0
C595 C 0.36724 0.20885 0.62696 0.0
C596 C 0.33228 0.18796 0.63601 0.0
C597 C 0.34322 0.19631 0.65882 0.0
N598 N 0.34749 0.19532 0.61599 0.0
N599 N 0.365 0.2095 0.65305 0.0
H600 H 0.38306 0.21775 0.61654 0.0
H601 H 0.31455 0.17681 0.63413 0.0
C602 C 0.34639 0.13563 0.60516 0.0
O603 O 0.36506 0.14501 0.61977 0.0
N604 N 0.32871 0.18039 0.54481 0.0
C605 C 0.33736 0.19077 0.52248 0.0
C606 C 0.32357 0.17977 0.50222 0.0
C607 C 0.30986 0.16353 0.538 0.0
N608 N 0.30629 0.16259 0.51208 0.0
C609 C 0.38856 0.20865 0.56648 0.0
C610 C 0.41078 0.16297 0.54915 0.0
C611 C 0.42413 0.18645 0.54519 0.0
C612 C 0.41287 0.20937 0.55456 0.0
C613 C 0.38621 0.16311 0.56105 0.0
N614 N 0.37533 0.18582 0.56963 0.0
H615 H 0.37994 0.22684 0.57227 0.0
H616 H 0.3755 0.14509 0.56183 0.0
H617 H 0.35244 0.20536 0.52102 0.0
H618 H 0.29854 0.15266 0.55196 0.0
O619 O 0.33301 0.22497 0.57452 0.0
O620 O 0.30322 0.1968 0.58759 0.0
O621 O 0.33576 0.1496 0.58778 0.0
C622 C 0.30921 0.22061 0.58167 0.0
H623 H 0.33586 0.19294 0.6782 0.0
H624 H 0.32621 0.18401 0.48185 0.0
H625 H 0.41852 0.14488 0.5417 0.0
H626 H 0.42242 0.22797 0.55187 0.0
Co627 Co 0.68332 0.18092 0.93891 0.0
C628 C 0.71081 0.15656 0.89467 0.0
C629 C 0.67384 0.17147 0.88316 0.0
C630 C 0.68613 0.16164 0.8616 0.0
N631 N 0.68934 0.16833 0.90392 0.0
N632 N 0.70951 0.15244 0.86876 0.0
H633 H 0.72745 0.15204 0.90651 0.0
H634 H 0.65512 0.18076 0.88332 0.0
C635 C 0.6253 0.18718 0.94258 0.0
O636 O 0.62513 0.17622 0.96557 0.0
N637 N 0.67733 0.19428 0.97376 0.0
C638 C 0.6864 0.18549 0.99661 0.0
C639 C 0.67753 0.20138 0.0162 0.0
C640 C 0.66388 0.21597 0.9798 0.0
N641 N 0.66317 0.22048 1.00565 0.0
C642 C 0.69327 0.13194 0.96348 0.0
C643 C 0.64912 0.10655 0.94661 0.0
C644 C 0.66645 0.09311 0.96261 0.0
C645 C 0.689 0.10612 0.9707 0.0
C646 C 0.65427 0.13233 0.93969 0.0
N647 N 0.67541 0.14525 0.94929 0.0
H648 H 0.71133 0.14102 0.96893 0.0
H649 H 0.64143 0.14151 0.92608 0.0
H650 H 0.69902 0.16912 0.99926 0.0
H651 H 0.65438 0.22789 0.96547 0.0
O652 O 0.72037 0.18158 0.94523 0.0
O653 O 0.69754 0.21415 0.92917 0.0
O654 O 0.64632 0.1889 0.9296 0.0
C655 C 0.71999 0.20509 0.93596 0.0
H656 H 0.6784 0.1616 0.84211 0.0
H657 H 0.68181 0.19921 0.03661 0.0
H658 H 0.63169 0.09728 0.93934 0.0
H659 H 0.70365 0.09627 0.98196 0.0
Co660 Co 0.68008 0.84222 0.5849 0.0
C661 C 0.64828 0.82217 0.62879 0.0
C662 C 0.68228 0.84254 0.6415 0.0
C663 C 0.67066 0.83138 0.66273 0.0
N664 N 0.66804 0.83718 0.62022 0.0
N665 N 0.64934 0.81839 0.65472 0.0
H666 H 0.63426 0.81296 0.6163 0.0
H667 H 0.70072 0.85262 0.64135 0.0
C668 C 0.68128 0.89543 0.60958 0.0
O669 O 0.65997 0.88999 0.62244 0.0
N670 N 0.69286 0.84666 0.55003 0.0
C671 C 0.68614 0.8325 0.52903 0.0
C672 C 0.70147 0.84003 0.50846 0.0
C673 C 0.71198 0.8627 0.54202 0.0
N674 N 0.71758 0.85901 0.51671 0.0
C675 C 0.62818 0.83243 0.56817 0.0
C676 C 0.61563 0.8824 0.55379 0.0
C677 C 0.59753 0.8624 0.54905 0.0
C678 C 0.60435 0.83712 0.55643 0.0
C679 C 0.63968 0.87672 0.56508 0.0
N680 N 0.64553 0.85203 0.57282 0.0
H681 H 0.63292 0.81255 0.57251 0.0
H682 H 0.65375 0.89217 0.56652 0.0
H683 H 0.67148 0.81741 0.52881 0.0
H684 H 0.72219 0.87618 0.55456 0.0
O685 O 0.67764 0.80517 0.57939 0.0
O686 O 0.71238 0.82548 0.59445 0.0
O687 O 0.69065 0.87929 0.59319 0.0
C688 C 0.70112 0.80365 0.58819 0.0
H689 H 0.67841 0.8313 0.68222 0.0
H690 H 0.70082 0.83223 0.48894 0.0
H691 H 0.61161 0.90229 0.54844 0.0
H692 H 0.59192 0.82063 0.55232 0.0
Co693 Co 0.68451 0.83785 0.07939 0.0
C694 C 0.70451 0.87001 0.12331 0.0
C695 C 0.67761 0.84078 0.13547 0.0
C696 C 0.68846 0.85187 0.15716 0.0
N697 N 0.68718 0.85248 0.11413 0.0
N698 N 0.70557 0.87018 0.14952 0.0
H699 H 0.71764 0.88087 0.11127 0.0
H700 H 0.6655 0.82362 0.13528 0.0
C701 C 0.62954 0.84065 0.09782 0.0
O702 O 0.6338 0.86458 0.10572 0.0
N703 N 0.68218 0.82229 0.04535 0.0
C704 C 0.69745 0.82732 0.02474 0.0
C705 C 0.68992 0.81145 1.00448 0.0
C706 C 0.66552 0.80364 0.03742 0.0
N707 N 0.66981 0.7967 0.01253 0.0
C708 C 0.69281 0.89055 0.0632 0.0
C709 C 0.64596 0.89707 0.03829 0.0
C710 C 0.66391 0.91765 0.03821 0.0
C711 C 0.68764 0.91402 0.05081 0.0
C712 C 0.65192 0.87386 0.05104 0.0
N713 N 0.67474 0.87113 0.06421 0.0
H714 H 0.71198 0.88765 0.07074 0.0
H715 H 0.63844 0.85782 0.04952 0.0
H716 H 0.71295 0.84153 0.02445 0.0
H717 H 0.65078 0.795 0.04964 0.0
O718 O 0.7217 0.84061 0.07584 0.0
O719 O 0.70085 0.80672 0.09233 0.0
O720 O 0.64733 0.82764 0.08652 0.0
C721 C 0.72284 0.81785 0.08666 0.0
H722 H 0.68564 0.84524 0.17686 0.0
H723 H 0.69822 0.8111 0.98519 0.0
H724 H 0.62759 0.89873 0.02832 0.0
H725 H 0.70266 0.92879 0.05016 0.0
Co726 Co 0.34111 0.83211 0.4369 0.0
C727 C 0.36864 0.81761 0.38743 0.0
C728 C 0.33396 0.83964 0.38139 0.0
C729 C 0.34431 0.8336 0.35762 0.0
N730 N 0.34958 0.83041 0.40019 0.0
N731 N 0.36598 0.81972 0.36147 0.0
H732 H 0.3838 0.80659 0.39656 0.0
H733 H 0.31596 0.84979 0.38478 0.0
C734 C 0.33967 0.88714 0.41843 0.0
O735 O 0.36112 0.88294 0.40534 0.0
N736 N 0.33161 0.83353 0.47299 0.0
C737 C 0.34123 0.8188 0.49224 0.0
C738 C 0.32722 0.82366 0.51448 0.0
C739 C 0.31213 0.84731 0.48369 0.0
N740 N 0.30908 0.84161 0.50901 0.0
C741 C 0.39548 0.82365 0.44589 0.0
C742 C 0.40622 0.87209 0.46676 0.0
C743 C 0.42611 0.85378 0.46521 0.0
C744 C 0.42047 0.82917 0.45494 0.0
C745 C 0.38136 0.86555 0.45811 0.0
N746 N 0.37642 0.842 0.44667 0.0
H747 H 0.3913 0.80424 0.43909 0.0
H748 H 0.366 0.87925 0.46162 0.0
H749 H 0.35676 0.80492 0.49002 0.0
H750 H 0.29965 0.86025 0.47295 0.0
O751 O 0.34394 0.79461 0.43883 0.0
O752 O 0.30816 0.81606 0.42899 0.0
O753 O 0.32992 0.86944 0.43282 0.0
C754 C 0.31958 0.79383 0.43231 0.0
H755 H 0.33613 0.83829 0.33889 0.0
H756 H 0.32982 0.81444 0.53313 0.0
H757 H 0.40962 0.89097 0.47552 0.0
H758 H 0.43523 0.81427 0.45405 0.0
Co759 Co 0.68758 0.18715 0.43883 0.0
C760 C 0.66307 0.21256 0.39314 0.0
C761 C 0.69311 0.18604 0.38236 0.0
C762 C 0.68507 0.19886 0.36048 0.0
N763 N 0.679 0.19422 0.40285 0.0
N764 N 0.66626 0.21568 0.36728 0.0
H765 H 0.65028 0.2243 0.40476 0.0
H766 H 0.7091 0.17256 0.3835 0.0
C767 C 0.6795 0.13431 0.41401 0.0
O768 O 0.66151 0.14338 0.39854 0.0
N769 N 0.69725 0.18024 0.47421 0.0
C770 C 0.68969 0.19264 0.49595 0.0
C771 C 0.7027 0.182 0.51674 0.0
C772 C 0.71469 0.16245 0.4819 0.0
N773 N 0.71839 0.16298 0.50782 0.0
C774 C 0.6384 0.2093 0.45239 0.0
C775 C 0.61232 0.16367 0.46357 0.0
C776 C 0.59884 0.18725 0.46561 0.0
C777 C 0.61251 0.21025 0.46026 0.0
C778 C 0.63837 0.16356 0.45546 0.0
N779 N 0.65089 0.18618 0.44903 0.0
H780 H 0.64845 0.22743 0.44912 0.0
H781 H 0.64836 0.14523 0.45492 0.0
H782 H 0.67597 0.20846 0.4966 0.0
H783 H 0.72503 0.14988 0.46861 0.0
O784 O 0.69513 0.22408 0.44348 0.0
O785 O 0.72337 0.19434 0.43087 0.0
O786 O 0.68933 0.14856 0.4318 0.0
C787 C 0.71858 0.21858 0.43594 0.0
H788 H 0.69356 0.19706 0.34137 0.0
H789 H 0.70067 0.18777 0.53684 0.0
H790 H 0.60278 0.1454 0.46792 0.0
H791 H 0.60336 0.22904 0.46245 0.0
H792 H 0.18915 0.48381 0.26462 0.0
H793 H 0.11683 0.51718 0.29106 0.0
H794 H 0.09272 0.48909 0.26021 0.0
H795 H 0.17011 0.47799 0.19583 0.0
H796 H 0.18736 0.4479 0.19144 0.0
H797 H 0.19882 0.4716 0.21461 0.0
H798 H 0.19728 0.43683 0.25083 0.0
H799 H 0.18584 0.41306 0.22781 0.0
H800 H 0.16745 0.41948 0.25686 0.0
H801 H 0.0765 0.45326 0.23069 0.0
H802 H 0.06958 0.41545 0.20155 0.0
H803 H 0.15256 0.4083 0.19119 0.0
C804 C 0.16825 0.48531 0.26368 0.0
C805 C 0.15476 0.50253 0.28022 0.0
C806 C 0.12746 0.50421 0.27839 0.0
C807 C 0.11365 0.4883 0.261 0.0
C808 C 0.12752 0.47124 0.24518 0.0
C809 C 0.15426 0.46999 0.24603 0.0
C810 C 0.16451 0.44981 0.22719 0.0
C811 C 0.18118 0.4626 0.20601 0.0
C812 C 0.17966 0.42854 0.24154 0.0
C813 C 0.13935 0.43932 0.21615 0.0
C814 C 0.1182 0.45185 0.22688 0.0
C815 C 0.09289 0.44381 0.22162 0.0
C816 C 0.08913 0.42237 0.20511 0.0
C817 C 0.11052 0.4096 0.19366 0.0
C818 C 0.13589 0.41841 0.19899 0.0
H819 H 0.982 0.32654 0.24976 0.0
H820 H 0.02116 0.39756 0.22702 0.0
H821 H 0.99562 0.42225 0.25938 0.0
H822 H 0.91983 0.35321 0.25965 0.0
H823 H 0.91227 0.33365 0.28761 0.0
H824 H 0.93445 0.32168 0.26346 0.0
H825 H 0.96933 0.31514 0.29898 0.0
H826 H 0.94726 0.32731 0.32322 0.0
H827 H 0.97869 0.3422 0.31926 0.0
H828 H 0.96224 0.43967 0.29036 0.0
H829 H 0.92512 0.44811 0.31971 0.0
H830 H 0.91074 0.36531 0.32544 0.0
C831 C 0.98517 0.34727 0.25173 0.0
C832 C 1.00337 0.36027 0.23594 0.0
C833 C 1.00733 0.38734 0.23912 0.0
C834 C 0.99295 0.40146 0.2574 0.0
C835 C 0.97509 0.38808 0.2727 0.0
C836 C 0.97138 0.36154 0.27029 0.0
C837 C 0.95073 0.35191 0.28883 0.0
C838 C 0.92798 0.33939 0.274 0.0
C839 C 0.9622 0.33302 0.30876 0.0
C840 C 0.94287 0.37728 0.30151 0.0
C841 C 0.9571 0.39795 0.29188 0.0
C842 C 0.95147 0.4236 0.29861 0.0
C843 C 0.93047 0.42824 0.31528 0.0
C844 C 0.91583 0.4073 0.32538 0.0
C845 C 0.92242 0.38153 0.3188 0.0
H846 H 0.89571 0.51139 0.2861 0.0
H847 H 0.81605 0.53284 0.27125 0.0
H848 H 0.83068 0.56439 0.23823 0.0
H849 H 0.92062 0.57513 0.28311 0.0
H850 H 0.95087 0.5665 0.2679 0.0
H851 H 0.93411 0.54322 0.28785 0.0
H852 H 0.93398 0.51028 0.24973 0.0
H853 H 0.95071 0.53354 0.22962 0.0
H854 H 0.92042 0.51962 0.21895 0.0
H855 H 0.8536 0.59545 0.20942 0.0
H856 H 0.88334 0.62651 0.18867 0.0
H857 H 0.94892 0.58654 0.22277 0.0
C858 C 0.88146 0.52241 0.27542 0.0
C859 C 0.85476 0.51967 0.28096 0.0
C860 C 0.83656 0.53479 0.26722 0.0
C861 C 0.84469 0.55257 0.24835 0.0
C862 C 0.87114 0.55515 0.24355 0.0
C863 C 0.88932 0.54064 0.25676 0.0
C864 C 0.91664 0.54905 0.24957 0.0
C865 C 0.93142 0.55908 0.27353 0.0
C866 C 0.9313 0.52679 0.23616 0.0
C867 C 0.91091 0.57089 0.23071 0.0
C868 C 0.88453 0.57372 0.22723 0.0
C869 C 0.87431 0.59329 0.21178 0.0
C870 C 0.89144 0.61088 0.20004 0.0
C871 C 0.91856 0.60899 0.20392 0.0
C872 C 0.92836 0.58833 0.21907 0.0
H873 H 0.11741 0.59884 0.2943 0.0
H874 H 0.08223 0.62124 0.36751 0.0
H875 H 0.0451 0.63991 0.34372 0.0
H876 H 0.10184 0.65538 0.26088 0.0
H877 H 0.09578 0.63944 0.23028 0.0
H878 H 0.11794 0.6253 0.2531 0.0
H879 H 0.09153 0.58232 0.25265 0.0
H880 H 0.06941 0.59622 0.22957 0.0
H881 H 0.05729 0.58307 0.25961 0.0
H882 H 0.01301 0.65874 0.31123 0.0
H883 H 0.98944 0.67611 0.27322 0.0
H884 H 0.04672 0.64183 0.22208 0.0
C885 C 0.1017 0.6072 0.30546 0.0
C886 C 0.1027 0.60844 0.33283 0.0
C887 C 0.08185 0.61993 0.34655 0.0
C888 C 0.06068 0.63059 0.3332 0.0
C889 C 0.06066 0.62958 0.30615 0.0
C890 C 0.08063 0.61805 0.29249 0.0
C891 C 0.07694 0.62079 0.26354 0.0
C892 C 0.09946 0.63615 0.25124 0.0
C893 C 0.07359 0.59401 0.25059 0.0
C894 C 0.05201 0.63611 0.26296 0.0
C895 C 0.04269 0.64078 0.28766 0.0
C896 C 0.02009 0.65503 0.29181 0.0
C897 C 1.0068 0.66478 0.27014 0.0
C898 C 0.01632 0.66049 0.24471 0.0
C899 C 0.03914 0.64579 0.24126 0.0
H900 H 0.1872 0.53011 0.75606 0.0
H901 H 0.11577 0.49662 0.72684 0.0
H902 H 0.09057 0.52664 0.75473 0.0
H903 H 0.16399 0.54006 0.82315 0.0
H904 H 0.18188 0.57001 0.82692 0.0
H905 H 0.19401 0.5448 0.80585 0.0
H906 H 0.19585 0.57751 0.76778 0.0
H907 H 0.18367 0.60275 0.78867 0.0
H908 H 0.167 0.59499 0.75892 0.0
H909 H 0.07349 0.56448 0.7816 0.0
H910 H 0.06593 0.60359 0.80877 0.0
H911 H 0.14844 0.60983 0.8232 0.0
C912 C 0.16626 0.52894 0.75578 0.0
C913 C 0.15339 0.51112 0.73924 0.0
C914 C 0.12597 0.50999 0.73953 0.0
C915 C 0.11153 0.52704 0.75521 0.0
C916 C 0.12483 0.54476 0.77092 0.0
C917 C 0.1516 0.54545 0.77169 0.0
C918 C 0.16125 0.56649 0.78998 0.0
C919 C 0.17616 0.55462 0.81283 0.0
C920 C 0.17792 0.58662 0.77546 0.0
C921 C 0.13578 0.57807 0.79886 0.0
C922 C 0.11496 0.56539 0.78754 0.0
C923 C 0.08961 0.57413 0.79104 0.0
C924 C 0.08549 0.59636 0.80644 0.0
C925 C 0.10654 0.60932 0.81852 0.0
C926 C 0.13192 0.59981 0.81485 0.0
H927 H 0.01737 0.40986 0.79396 0.0
H928 H 0.01329 0.32932 0.76938 0.0
H929 H 0.04106 0.33969 0.73144 0.0
H930 H 0.0173 0.43837 0.7282 0.0
H931 H 0.0394 0.46401 0.73742 0.0
H932 H 0.0173 0.45061 0.76101 0.0
H933 H 0.05591 0.44015 0.79131 0.0
H934 H 0.07801 0.4536 0.76789 0.0
H935 H 0.08233 0.42077 0.77915 0.0
H936 H 0.07381 0.35775 0.70007 0.0
H937 H 0.10779 0.38228 0.67661 0.0
H938 H 0.08859 0.4517 0.72019 0.0
C939 C 0.02223 0.39443 0.78052 0.0
C940 C 0.01349 0.36868 0.78465 0.0
C941 C 0.01983 0.34911 0.76643 0.0
C942 C 0.03552 0.35487 0.7449 0.0
C943 C 0.04419 0.38041 0.74165 0.0
C944 C 0.03752 0.39994 0.75882 0.0
C945 C 0.05025 0.42554 0.75168 0.0
C946 C 0.02984 0.44583 0.74412 0.0
C947 C 0.06766 0.43559 0.77381 0.0
C948 C 0.06607 0.41718 0.72838 0.0
C949 C 0.06215 0.3911 0.7228 0.0
C950 C 0.07654 0.37829 0.70383 0.0
C951 C 0.09578 0.39233 0.69063 0.0
C952 C 0.10024 0.41891 0.69627 0.0
C953 C 0.08482 0.43163 0.71493 0.0
H954 H 0.94038 0.43032 0.78521 0.0
H955 H 0.88324 0.41601 0.84517 0.0
H956 H 0.85861 0.45451 0.83059 0.0
H957 H 0.93419 0.50424 0.78342 0.0
H958 H 0.93818 0.50397 0.74869 0.0
H959 H 0.95455 0.48017 0.76828 0.0
H960 H 0.93377 0.44335 0.74084 0.0
H961 H 0.9171 0.46681 0.72146 0.0
H962 H 0.89898 0.44173 0.73786 0.0
H963 H 0.83576 0.48837 0.80339 0.0
H964 H 0.81788 0.51444 0.76706 0.0
H965 H 0.88953 0.50529 0.72476 0.0
C966 C 0.92322 0.43591 0.79595 0.0
C967 C 0.9137 0.4203 0.81632 0.0
C968 C 0.89103 0.42794 0.82972 0.0
C969 C 0.87691 0.44976 0.82151 0.0
C970 C 0.88604 0.46387 0.80023 0.0
C971 C 0.90901 0.45744 0.78795 0.0
C972 C 0.91299 0.47301 0.76342 0.0
C973 C 0.93636 0.49145 0.76613 0.0
C974 C 0.91585 0.45515 0.73951 0.0
C975 C 0.8879 0.48798 0.76277 0.0
C976 C 0.87283 0.48308 0.78447 0.0
C977 C 0.8477 0.49287 0.78672 0.0
C978 C 0.83766 0.50757 0.76612 0.0
C979 C 0.85264 0.51189 0.74361 0.0
C980 C 0.87813 0.50249 0.74218 0.0
H981 H 1.00025 0.62535 0.78502 0.0
H982 H 0.98112 0.70534 0.76803 0.0
H983 H 0.95107 0.6907 0.73356 0.0
H984 H 0.99432 0.59924 0.71776 0.0
H985 H 0.97933 0.56942 0.72845 0.0
H986 H 1.00215 0.58612 0.74915 0.0
H987 H 0.9679 0.58755 0.78592 0.0
H988 H 0.9451 0.57083 0.76535 0.0
H989 H 0.93663 0.60169 0.77963 0.0
H990 H 0.92091 0.66784 0.70387 0.0
H991 H 0.88986 0.63831 0.68266 0.0
H992 H 0.92671 0.57237 0.71969 0.0
C993 C 0.99011 0.63963 0.77352 0.0
C994 C 0.99302 0.66643 0.77878 0.0
C995 C 0.97904 0.68475 0.76406 0.0
C996 C 0.96212 0.67661 0.74441 0.0
C997 C 0.95927 0.65003 0.7399 0.0
C998 C 0.97271 0.63175 0.75409 0.0
C999 C 0.96397 0.60439 0.74711 0.0
C1000 C 0.98628 0.58888 0.73488 0.0
C1001 C 0.95273 0.5903 0.77091 0.0
C1002 C 0.94309 0.61025 0.72728 0.0
C1003 C 0.94111 0.63669 0.72311 0.0
C1004 C 0.92242 0.64708 0.70675 0.0
C1005 C 0.90483 0.63009 0.69479 0.0
C1006 C 0.90584 0.60296 0.69939 0.0
C1007 C 0.92563 0.59294 0.71545 0.0
H1008 H 0.21526 0.1227 0.39402 0.0
H1009 H 0.19197 0.05477 0.43821 0.0
H1010 H 0.21953 0.06959 0.47464 0.0
H1011 H 0.28078 0.12327 0.41356 0.0
H1012 H 0.28345 0.1582 0.415 0.0
H1013 H 0.26068 0.14315 0.39313 0.0
H1014 H 0.22325 0.1696 0.41369 0.0
H1015 H 0.24594 0.18494 0.43547 0.0
H1016 H 0.218 0.16814 0.44823 0.0
H1017 H 0.25155 0.09087 0.50532 0.0
H1018 H 0.28413 0.11734 0.52837 0.0
H1019 H 0.28598 0.17157 0.46405 0.0
C1020 C 0.2156 0.11104 0.41146 0.0
C1021 C 0.20128 0.08758 0.41325 0.0
C1022 C 0.20258 0.07288 0.4364 0.0
C1023 C 0.21826 0.08112 0.45717 0.0
C1024 C 0.23245 0.10411 0.45452 0.0
C1025 C 0.23112 0.11893 0.43229 0.0
C1026 C 0.24877 0.1425 0.43396 0.0
C1027 C 0.26965 0.14172 0.41265 0.0
C1028 C 0.23305 0.16779 0.43277 0.0
C1029 C 0.26047 0.13856 0.46056 0.0
C1030 C 0.25078 0.11634 0.47212 0.0
C1031 C 0.25905 0.10845 0.49654 0.0
C1032 C 0.27753 0.12374 0.50956 0.0
C1033 C 0.28762 0.14678 0.49821 0.0
C1034 C 0.2789 0.15408 0.47328 0.0
H1035 H 0.60069 0.2897 0.12853 0.0
H1036 H 0.58358 0.3556 0.07912 0.0
H1037 H 0.60076 0.33151 0.04135 0.0
H1038 H 0.6601 0.27336 0.09992 0.0
H1039 H 0.65571 0.2387 0.10278 0.0
H1040 H 0.64014 0.26023 0.12548 0.0
H1041 H 0.59543 0.24009 0.11412 0.0
H1042 H 0.61088 0.21828 0.09154 0.0
H1043 H 0.585 0.23904 0.08078 0.0
H1044 H 0.62287 0.30118 1.00949 0.0
H1045 H 0.6465 0.26675 0.98608 0.0
H1046 H 0.6482 0.22061 0.05644 0.0
C1047 C 0.60019 0.299 0.10973 0.0
C1048 C 0.59076 0.3246 0.10686 0.0
C1049 C 0.5906 0.336 0.08186 0.0
C1050 C 0.60037 0.32247 0.06027 0.0
C1051 C 0.61005 0.2975 0.06393 0.0
C1052 C 0.6098 0.28579 0.08801 0.0
C1053 C 0.62208 0.25913 0.087 0.0
C1054 C 0.64592 0.2578 0.10485 0.0
C1055 C 0.60216 0.23788 0.09375 0.0
C1056 C 0.6298 0.25785 0.05869 0.0
C1057 C 0.62259 0.28008 0.04565 0.0
C1058 C 0.62834 0.28357 0.01947 0.0
C1059 C 0.64175 0.2638 1.00629 0.0
C1060 C 0.64934 0.24079 0.01927 0.0
C1061 C 0.64307 0.23795 0.04585 0.0
H1062 H 0.75036 0.83762 0.48172 0.0
H1063 H 0.72817 0.91046 0.51756 0.0
H1064 H 0.75948 0.93396 0.48953 0.0
H1065 H 0.81969 0.85385 0.47536 0.0
H1066 H 0.82277 0.837 0.44481 0.0
H1067 H 0.79946 0.82602 0.46845 0.0
H1068 H 0.76283 0.82985 0.43435 0.0
H1069 H 0.786 0.84078 0.41063 0.0
H1070 H 0.75802 0.86035 0.41795 0.0
H1071 H 0.78897 0.94967 0.45371 0.0
H1072 H 0.81767 0.95608 0.41564 0.0
H1073 H 0.82401 0.87266 0.40624 0.0
C1074 C 0.7523 0.85849 0.48372 0.0
C1075 C 0.73687 0.87237 0.5016 0.0
C1076 C 0.73999 0.8996 0.504 0.0
C1077 C 0.75764 0.91304 0.48816 0.0
C1078 C 0.77243 0.89881 0.47049 0.0
C1079 C 0.77027 0.87207 0.46852 0.0
C1080 C 0.78823 0.86138 0.44786 0.0
C1081 C 0.80876 0.84351 0.45984 0.0
C1082 C 0.77285 0.84727 0.42643 0.0
C1083 C 0.8003 0.88633 0.43796 0.0
C1084 C 0.79081 0.90774 0.45116 0.0
C1085 C 0.79711 0.93305 0.44374 0.0
C1086 C 0.81337 0.93653 0.42218 0.0
C1087 C 0.82355 0.91484 0.40876 0.0
C1088 C 0.81721 0.88948 0.41693 0.0
H1089 H 0.38944 0.7848 0.01656 0.0
H1090 H 0.31071 0.76508 0.0381 0.0
H1091 H 0.3269 0.72979 0.06616 0.0
H1092 H 0.41707 0.71797 0.01908 0.0
H1093 H 0.44696 0.72914 0.03343 0.0
H1094 H 0.42921 0.75006 0.01187 0.0
H1095 H 0.4279 0.78582 0.04737 0.0
H1096 H 0.44573 0.7651 0.0689 0.0
H1097 H 0.41491 0.77812 0.07891 0.0
H1098 H 0.35122 0.6997 0.09434 0.0
H1099 H 0.3819 0.67952 0.12451 0.0
H1100 H 0.44565 0.71963 0.0866 0.0
C1101 C 0.37575 0.77255 0.02678 0.0
C1102 C 0.34887 0.77725 0.0251 0.0
C1103 C 0.33135 0.76155 0.03922 0.0
C1104 C 0.34037 0.74141 0.05497 0.0
C1105 C 0.36701 0.73739 0.05653 0.0
C1106 C 0.38452 0.75265 0.04303 0.0
C1107 C 0.41217 0.74627 0.0506 0.0
C1108 C 0.42724 0.7352 0.02736 0.0
C1109 C 0.42597 0.77025 0.06214 0.0
C1110 C 0.40741 0.7256 0.07099 0.0
C1111 C 0.38124 0.72041 0.07361 0.0
C1112 C 0.37179 0.70336 0.09229 0.0
C1113 C 0.38943 0.69197 0.10938 0.0
C1114 C 0.41625 0.69785 0.10792 0.0
C1115 C 0.42537 0.71431 0.08792 0.0
H1116 H 0.29424 0.89161 0.51632 0.0
H1117 H 0.27943 0.8124 0.54053 0.0
H1118 H 0.24588 0.82791 0.57113 0.0
H1119 H 0.29022 0.91878 0.5792 0.0
H1120 H 0.2752 0.9487 0.56927 0.0
H1121 H 0.29563 0.93121 0.54699 0.0
H1122 H 0.25823 0.92972 0.51352 0.0
H1123 H 0.23763 0.94714 0.5358 0.0
H1124 H 0.2273 0.91622 0.5228 0.0
H1125 H 0.21594 0.8517 0.60025 0.0
H1126 H 0.1942 0.88243 0.6296 0.0
H1127 H 0.22975 0.94711 0.58875 0.0
C1128 C 0.28351 0.87764 0.5278 0.0
C1129 C 0.28909 0.85082 0.52607 0.0
C1130 C 0.2753 0.83299 0.54173 0.0
C1131 C 0.25615 0.84161 0.55894 0.0
C1132 C 0.25121 0.86819 0.56043 0.0
C1133 C 0.26463 0.88602 0.54551 0.0
C1134 C 0.25727 0.91365 0.55279 0.0
C1135 C 0.28099 0.92898 0.56265 0.0
C1136 C 0.24434 0.92749 0.52986 0.0
C1137 C 0.23799 0.90852 0.57445 0.0
C1138 C 0.23447 0.88213 0.57811 0.0
C1139 C 0.21846 0.87241 0.59754 0.0
C1140 C 0.20626 0.89007 0.6142 0.0
C1141 C 0.21036 0.91721 0.61161 0.0
C1142 C 0.22597 0.92652 0.59103 0.0
H1143 H 0.42263 0.29243 0.90092 0.0
H1144 H 0.38174 0.36195 0.92528 0.0
H1145 H 0.36583 0.33869 0.96419 0.0
H1146 H 0.37392 0.24883 0.91709 0.0
H1147 H 0.39535 0.22344 0.92772 0.0
H1148 H 0.4062 0.2465 0.90388 0.0
H1149 H 0.44553 0.25866 0.9327 0.0
H1150 H 0.43497 0.23546 0.95663 0.0
H1151 H 0.44026 0.26892 0.96575 0.0
H1152 H 0.35181 0.30633 0.99884 0.0
H1153 H 0.34015 0.26777 0.02514 0.0
H1154 H 0.3895 0.21989 0.9767 0.0
C1155 C 0.41078 0.30305 0.91465 0.0
C1156 C 0.40356 0.32911 0.91011 0.0
C1157 C 0.38764 0.34203 0.92842 0.0
C1158 C 0.37855 0.32898 0.95058 0.0
C1159 C 0.38558 0.30306 0.95411 0.0
C1160 C 0.40141 0.29031 0.93662 0.0
C1161 C 0.40461 0.26197 0.94356 0.0
C1162 C 0.3944 0.24415 0.92177 0.0
C1163 C 0.43303 0.25591 0.95006 0.0
C1164 C 0.38763 0.26053 0.96742 0.0
C1165 C 0.37709 0.28446 0.97348 0.0
C1166 C 0.36015 0.28757 0.99437 0.0
C1167 C 0.35367 0.26561 1.00922 0.0
C1168 C 0.36383 0.24086 1.00287 0.0
C1169 C 0.38123 0.2385 0.98186 0.0
H1170 H 0.80943 0.12649 0.62648 0.0
H1171 H 0.82187 0.05163 0.58944 0.0
H1172 H 0.79482 0.06543 0.55247 0.0
H1173 H 0.74348 0.13241 0.60905 0.0
H1174 H 0.7449 0.16702 0.60389 0.0
H1175 H 0.7667 0.15201 0.62654 0.0
H1176 H 0.80605 0.17154 0.60204 0.0
H1177 H 0.78437 0.18682 0.57943 0.0
H1178 H 0.80956 0.16561 0.56774 0.0
H1179 H 0.76491 0.08694 0.5203 0.0
H1180 H 0.73476 0.11434 0.49543 0.0
H1181 H 0.74161 0.17492 0.55385 0.0
C1182 C 0.80683 0.11308 0.61044 0.0
C1183 C 0.81799 0.08801 0.61081 0.0
C1184 C 0.81372 0.07099 0.58955 0.0
C1185 C 0.79833 0.07865 0.56848 0.0
C1186 C 0.78732 0.10336 0.56896 0.0
C1187 C 0.79144 0.12034 0.58937 0.0
C1188 C 0.77662 0.14542 0.58569 0.0
C1189 C 0.75675 0.14944 0.60759 0.0
C1190 C 0.79526 0.16873 0.58359 0.0
C1191 C 0.76336 0.13988 0.56006 0.0
C1192 C 0.76987 0.11557 0.55066 0.0
C1193 C 0.75983 0.10607 0.5274 0.0
C1194 C 0.74278 0.12185 0.51335 0.0
C1195 C 0.73581 0.14688 0.52258 0.0
C1196 C 0.7463 0.15585 0.54633 0.0
H1197 H 0.68887 0.76316 0.9767 0.0
H1198 H 0.61802 0.78863 0.01389 0.0
H1199 H 0.59268 0.75862 0.98601 0.0
H1200 H 0.66444 0.75752 0.91321 0.0
H1201 H 0.68247 0.72869 0.90505 0.0
H1202 H 0.69493 0.75108 0.9289 0.0
H1203 H 0.69783 0.71368 0.96232 0.0
H1204 H 0.68529 0.69116 0.93855 0.0
H1205 H 0.66935 0.69458 0.9695 0.0
H1206 H 0.57492 0.72983 0.95056 0.0
H1207 H 0.5663 0.70178 0.91237 0.0
H1208 H 0.64888 0.69217 0.90074 0.0
C1209 C 0.66804 0.76222 0.97903 0.0
C1210 C 0.65532 0.77818 0.99734 0.0
C1211 C 0.62808 0.77636 1.00009 0.0
C1212 C 0.61357 0.75945 0.98432 0.0
C1213 C 0.62668 0.74411 0.96627 0.0
C1214 C 0.65335 0.74506 0.96382 0.0
C1215 C 0.66269 0.72685 0.94265 0.0
C1216 C 0.67696 0.74194 0.92119 0.0
C1217 C 0.6798 0.70529 0.95394 0.0
C1218 C 0.63706 0.71604 0.93309 0.0
C1219 C 0.6165 0.72633 0.9469 0.0
C1220 C 0.59086 0.72115 0.94004 0.0
C1221 C 0.58613 0.70525 0.91837 0.0
C1222 C 0.60693 0.69438 0.90417 0.0
C1223 C 0.63267 0.69954 0.91188 0.0
H1224 H 0.51891 0.26656 0.14852 0.0
H1225 H 0.4647 0.30913 0.19711 0.0
H1226 H 0.42842 0.28694 0.176 0.0
H1227 H 0.47875 0.26816 0.09002 0.0
H1228 H 0.48747 0.23586 0.07963 0.0
H1229 H 0.50999 0.25508 0.09839 0.0
H1230 H 0.5129 0.21828 0.13234 0.0
H1231 H 0.49037 0.19895 0.11375 0.0
H1232 H 0.48366 0.20621 0.14731 0.0
H1233 H 0.39807 0.26051 0.15147 0.0
H1234 H 0.37394 0.2308 0.12317 0.0
H1235 H 0.4459 0.2047 0.0881 0.0
C1236 C 0.4994 0.27129 0.15456 0.0
C1237 C 0.49483 0.28935 0.17492 0.0
C1238 C 0.46895 0.29493 0.18221 0.0
C1239 C 0.44808 0.28259 0.17012 0.0
C1240 C 0.45321 0.26478 0.1505 0.0
C1241 C 0.4781 0.25911 0.14253 0.0
C1242 C 0.47771 0.23892 0.12086 0.0
C1243 C 0.48916 0.25018 0.09573 0.0
C1244 C 0.49201 0.21412 0.12907 0.0
C1245 C 0.44871 0.23407 0.11826 0.0
C1246 C 0.43518 0.24934 0.13568 0.0
C1247 C 0.40838 0.24837 0.13777 0.0
C1248 C 0.39487 0.23119 0.12175 0.0
C1249 C 0.40805 0.21504 0.10378 0.0
C1250 C 0.43537 0.21676 0.10172 0.0
H1251 H 0.40386 0.82462 0.87366 0.0
H1252 H 0.41405 0.80994 0.95569 0.0
H1253 H 0.44965 0.7793 0.94564 0.0
H1254 H 0.41033 0.75944 0.85505 0.0
H1255 H 0.42658 0.766 0.82479 0.0
H1256 H 0.4049 0.7897 0.83843 0.0
H1257 H 0.44138 0.82446 0.83744 0.0
H1258 H 0.46315 0.80092 0.82352 0.0
H1259 H 0.47192 0.81779 0.85295 0.0
H1260 H 0.48313 0.74931 0.92637 0.0
H1261 H 0.50949 0.71949 0.89934 0.0
H1262 H 0.47405 0.75045 0.82998 0.0
C1263 C 0.41421 0.81554 0.88947 0.0
C1264 C 0.40692 0.82005 0.91545 0.0
C1265 C 0.41988 0.80699 0.9357 0.0
C1266 C 0.44004 0.78961 0.93016 0.0
C1267 C 0.44652 0.78517 0.90425 0.0
C1268 C 0.43382 0.79759 0.88422 0.0
C1269 C 0.44249 0.78733 0.85806 0.0
C1270 C 0.41972 0.77488 0.84322 0.0
C1271 C 0.45551 0.80891 0.84205 0.0
C1272 C 0.46192 0.7671 0.86647 0.0
C1273 C 0.46434 0.7665 0.89317 0.0
C1274 C 0.48136 0.74957 0.90546 0.0
C1275 C 0.49622 0.73277 0.89004 0.0
C1276 C 0.49351 0.73264 0.86274 0.0
C1277 C 0.47615 0.75002 0.85086 0.0
H1278 H 0.25054 0.04868 0.68904 0.0
H1279 H 0.25061 0.99238 0.62641 0.0
H1280 H 0.28401 0.01826 0.60335 0.0
H1281 H 0.25771 0.10499 0.65142 0.0
H1282 H 0.27917 0.12155 0.6736 0.0
H1283 H 0.25642 0.09786 0.68561 0.0
H1284 H 0.29399 0.07227 0.70674 0.0
H1285 H 0.31688 0.09594 0.6948 0.0
H1286 H 0.321 0.06201 0.68707 0.0
H1287 H 0.31297 0.05365 0.58469 0.0
H1288 H 0.33881 0.09309 0.57426 0.0
H1289 H 0.32344 0.12383 0.65098 0.0
C1290 C 0.2579 0.04171 0.67063 0.0
C1291 C 0.24807 0.01859 0.65944 0.0
C1292 C 0.25812 1.00993 0.63537 0.0
C1293 C 0.27699 0.02455 0.62213 0.0
C1294 C 0.28605 0.04749 0.63352 0.0
C1295 C 0.27719 0.05574 0.65749 0.0
C1296 C 0.28992 0.08116 0.66544 0.0
C1297 C 0.26959 0.10265 0.66923 0.0
C1298 C 0.30643 0.07762 0.68997 0.0
C1299 C 0.30678 0.08634 0.64191 0.0
C1300 C 0.30413 0.0668 0.62359 0.0
C1301 C 0.31579 0.06865 0.59919 0.0
C1302 C 0.33043 0.09103 0.59341 0.0
C1303 C 0.33375 0.11088 0.61215 0.0
C1304 C 0.32198 0.10835 0.63674 0.0
H1305 H 0.54876 0.27977 0.84663 0.0
H1306 H 0.48413 0.27739 0.90055 0.0
H1307 H 0.50765 0.24575 0.9274 0.0
H1308 H 0.56642 0.21192 0.85126 0.0
H1309 H 0.6007 0.21858 0.84957 0.0
H1310 H 0.57811 0.23996 0.83384 0.0
H1311 H 0.59696 0.27919 0.85943 0.0
H1312 H 0.61968 0.25796 0.87508 0.0
H1313 H 0.59831 0.27785 0.89434 0.0
H1314 H 0.53951 0.21572 0.94964 0.0
H1315 H 0.57717 0.19069 0.96542 0.0
H1316 H 0.62053 0.21343 0.89686 0.0
C1317 C 0.53951 0.27269 0.86408 0.0
C1318 C 0.51449 0.28107 0.87132 0.0
C1319 C 0.50307 0.27102 0.89427 0.0
C1320 C 0.51634 0.25308 0.90976 0.0
C1321 C 0.54101 0.24531 0.90204 0.0
C1322 C 0.55246 0.25482 0.87973 0.0
C1323 C 0.57947 0.2441 0.87613 0.0
C1324 C 0.58127 0.22766 0.85122 0.0
C1325 C 0.5998 0.26608 0.87626 0.0
C1326 C 0.58158 0.22734 0.90006 0.0
C1327 C 0.55919 0.22812 0.91474 0.0
C1328 C 0.55707 0.21481 0.93819 0.0
C1329 C 0.57854 0.20061 0.94697 0.0
C1330 C 0.60178 0.19993 0.93235 0.0
C1331 C 0.60302 0.21327 0.90845 0.0
H1332 H 0.76473 0.98896 0.70049 0.0
H1333 H 0.78605 0.03213 0.63166 0.0
H1334 H 0.75646 1.00479 0.6054 0.0
H1335 H 0.76052 0.92722 0.67195 0.0
H1336 H 0.73256 0.91657 0.69007 0.0
H1337 H 0.75412 0.94057 0.70369 0.0
H1338 H 0.71567 0.97222 0.7099 0.0
H1339 H 0.69393 0.94823 0.69641 0.0
H1340 H 0.6956 0.98029 0.6825 0.0
H1341 H 0.72931 0.96868 0.58588 0.0
H1342 H 0.70215 0.93013 0.57549 0.0
H1343 H 0.6948 0.91329 0.65743 0.0
C1344 C 0.76275 0.99285 0.67997 0.0
C1345 C 0.77757 0.01265 0.66807 0.0
C1346 C 0.77462 0.01726 0.64117 0.0
C1347 C 0.75797 1.00174 0.6261 0.0
C1348 C 0.74395 0.98205 0.63833 0.0
C1349 C 0.74572 0.97794 0.66476 0.0
C1350 C 0.7287 0.95536 0.67309 0.0
C1351 C 0.74495 0.93365 0.68542 0.0
C1352 C 0.7072 0.96458 0.69157 0.0
C1353 C 0.71767 0.94693 0.64714 0.0
C1354 C 0.72689 0.96243 0.62727 0.0
C1355 C 0.7214 0.95687 0.60133 0.0
C1356 C 0.70605 0.93497 0.59558 0.0
C1357 C 0.69593 0.91932 0.61571 0.0
C1358 C 0.70165 0.92553 0.64177 0.0
H1359 H 0.54568 0.74508 0.18469 0.0
H1360 H 0.4853 0.74901 0.12648 0.0
H1361 H 0.51083 0.78186 0.10242 0.0
H1362 H 0.56323 0.81441 0.18311 0.0
H1363 H 0.59719 0.80789 0.18778 0.0
H1364 H 0.57317 0.78623 0.20119 0.0
H1365 H 0.59436 0.74748 0.17702 0.0
H1366 H 0.61834 0.769 0.16347 0.0
H1367 H 0.59868 0.7491 0.14235 0.0
H1368 H 0.54521 0.81137 0.08267 0.0
H1369 H 0.58457 0.83656 0.07036 0.0
H1370 H 0.62131 0.81396 0.14223 0.0
C1371 C 0.53775 0.75304 0.167 0.0
C1372 C 0.51352 0.74455 0.15746 0.0
C1373 C 0.50367 0.75552 0.13432 0.0
C1374 C 0.5181 0.77408 0.12047 0.0
C1375 C 0.54216 0.78172 0.13022 0.0
C1376 C 0.55175 0.77174 0.15314 0.0
C1377 C 0.57838 0.78257 0.15917 0.0
C1378 C 0.57796 0.79874 0.1843 0.0
C1379 C 0.59863 0.76073 0.16057 0.0
C1380 C 0.58264 0.79962 0.1357 0.0
C1381 C 0.56153 0.79901 0.11922 0.0
C1382 C 0.56166 0.8123 0.09563 0.0
C1383 C 0.58398 0.8265 0.08878 0.0
C1384 C 0.60561 0.82725 0.10552 0.0
C1385 C 0.60485 0.81383 0.12926 0.0
H1386 H 0.25651 0.98079 0.32991 0.0
H1387 H 0.22684 0.01622 0.40016 0.0
H1388 H 0.25672 0.98946 0.42639 0.0
H1389 H 0.26398 0.91742 0.35357 0.0
H1390 H 0.29387 0.91096 0.33666 0.0
H1391 H 0.27118 0.93389 0.32358 0.0
H1392 H 0.30703 0.96933 0.32279 0.0
H1393 H 0.32987 0.94646 0.33588 0.0
H1394 H 0.3244 0.97702 0.35217 0.0
H1395 H 0.28554 0.95456 0.44483 0.0
H1396 H 0.31475 0.91752 0.45391 0.0
H1397 H 0.32892 0.90822 0.37158 0.0
C1398 C 0.25658 0.98301 0.35079 0.0
C1399 C 0.23943 1.00038 0.36314 0.0
C1400 C 0.24003 1.00306 0.39046 0.0
C1401 C 0.25685 0.98793 0.40545 0.0
C1402 C 0.27334 0.97069 0.39271 0.0
C1403 C 0.2737 0.96853 0.36596 0.0
C1404 C 0.29314 0.94842 0.35706 0.0
C1405 C 0.27973 0.92637 0.34183 0.0
C1406 C 0.3149 0.96107 0.34103 0.0
C1407 C 0.30309 0.93902 0.38297 0.0
C1408 C 0.29131 0.95197 0.40334 0.0
C1409 C 0.29544 0.9448 0.42908 0.0
C1410 C 0.31197 0.9238 0.43408 0.0
C1411 C 0.3245 0.9107 0.41347 0.0
C1412 C 0.32025 0.91863 0.38768 0.0
H1413 H 0.76678 0.04303 0.32551 0.0
H1414 H 0.78633 1.0002 0.39498 0.0
H1415 H 0.75501 0.02641 0.42013 0.0
H1416 H 0.75974 0.10495 0.35505 0.0
H1417 H 0.73259 0.11462 0.33541 0.0
H1418 H 0.75577 0.09176 0.32284 0.0
H1419 H 0.7187 0.05878 0.31394 0.0
H1420 H 0.69541 0.08151 0.32667 0.0
H1421 H 0.69747 0.04927 0.34006 0.0
H1422 H 0.72502 0.06037 0.4385 0.0
H1423 H 0.69682 0.09803 0.44816 0.0
H1424 H 0.69383 0.11647 0.3663 0.0
C1425 C 0.76435 0.03917 0.346 0.0
C1426 C 0.77898 0.01962 0.35833 0.0
C1427 C 0.77515 0.01493 0.38513 0.0
C1428 C 0.75745 0.02975 0.39956 0.0
C1429 C 0.74335 0.04891 0.38684 0.0
C1430 C 0.74638 0.05348 0.3606 0.0
C1431 C 0.72907 0.07545 0.35169 0.0
C1432 C 0.74526 0.09803 0.3406 0.0
C1433 C 0.70897 0.06566 0.33192 0.0
C1434 C 0.71629 0.08295 0.37712 0.0
C1435 C 0.72487 0.06746 0.39719 0.0
C1436 C 0.71766 0.0722 0.42286 0.0
C1437 C 0.7016 0.09354 0.42818 0.0
C1438 C 0.69253 0.10955 0.4079 0.0
C1439 C 0.69965 0.10388 0.38203 0.0
H1440 H 0.96939 0.31571 0.96686 0.0
H1441 H 0.97426 0.39728 0.94627 0.0
H1442 H 0.99742 0.40654 0.98721 0.0
H1443 H 0.95874 0.32634 0.03595 0.0
H1444 H 0.97772 0.29861 0.04539 0.0
H1445 H 0.96113 0.29857 0.01467 0.0
H1446 H 1.00453 0.28923 0.99115 0.0
H1447 H 0.02126 0.2894 0.02178 0.0
H1448 H 0.03173 0.31077 0.99616 0.0
H1449 H 0.02237 0.40644 0.02924 0.0
H1450 H 0.04478 0.39755 0.07042 0.0
H1451 H 0.02105 0.31651 0.06506 0.0
C1452 C 0.97528 0.33552 0.97104 0.0
C1453 C 0.96997 0.3558 0.95341 0.0
C1454 C 0.97784 0.38151 0.95964 0.0
C1455 C 0.99114 0.38693 0.98277 0.0
C1456 C 0.99622 0.36649 0.99965 0.0
C1457 C 0.98828 0.34134 0.99423 0.0
C1458 C 0.99602 0.32297 0.01576 0.0
C1459 C 0.97197 0.31092 0.02871 0.0
C1460 C 0.01449 0.30185 1.0056 0.0
C1461 C 0.00985 0.34163 0.03394 0.0
C1462 C 0.00986 0.36661 0.02424 0.0
C1463 C 0.02218 0.387 0.03721 0.0
C1464 C 0.03474 0.38176 0.06075 0.0
C1465 C 0.03475 0.35632 0.07135 0.0
C1466 C 0.02192 0.33612 0.05759 0.0
H1467 H 0.81544 0.49393 0.4468 0.0
H1468 H 0.87836 0.43918 0.45582 0.0
H1469 H 0.8854 0.45479 0.50073 0.0
H1470 H 0.84633 0.546 0.48119 0.0
H1471 H 0.81693 0.55788 0.49585 0.0
H1472 H 0.81568 0.54128 0.46506 0.0
H1473 H 0.78257 0.50827 0.48376 0.0
H1474 H 0.78363 0.52485 0.51458 0.0
H1475 H 0.7905 0.49057 0.51279 0.0
H1476 H 0.88559 0.4764 0.5445 0.0
H1477 H 0.87968 0.50297 0.58384 0.0
H1478 H 0.81886 0.54628 0.54512 0.0
C1479 C 0.8304 0.48502 0.45845 0.0
C1480 C 0.84621 0.46518 0.4481 0.0
C1481 C 0.86602 0.45432 0.46357 0.0
C1482 C 0.87013 0.46305 0.48903 0.0
C1483 C 0.85446 0.48288 0.49862 0.0
C1484 C 0.83506 0.49383 0.4838 0.0
C1485 C 0.82177 0.51568 0.49838 0.0
C1486 C 0.82541 0.54175 0.48428 0.0
C1487 C 0.79291 0.50946 0.50263 0.0
C1488 C 0.83665 0.51522 0.52371 0.0
C1489 C 0.8553 0.49606 0.52349 0.0
C1490 C 0.87118 0.49162 0.54483 0.0
C1491 C 0.86783 0.50707 0.56705 0.0
C1492 C 0.84891 0.52701 0.56779 0.0
C1493 C 0.8333 0.53109 0.54557 0.0
H1494 H 0.0518 0.69972 0.96545 0.0
H1495 H 1.00778 0.63687 0.92972 0.0
H1496 H 0.98427 0.63022 0.9706 0.0
H1497 H 0.05645 0.67243 0.02943 0.0
H1498 H 0.05193 0.70306 0.04588 0.0
H1499 H 0.06642 0.70229 0.01409 0.0
H1500 H 0.03157 0.73418 0.99736 0.0
H1501 H 0.01697 0.73504 0.02911 0.0
H1502 H 0.99776 0.72613 1.00126 0.0
H1503 H 0.96529 0.63001 0.01539 0.0
H1504 H 0.95109 0.63758 0.06054 0.0
H1505 H 1.00497 0.70227 0.06684 0.0
C1506 C 0.03714 0.68463 0.96604 0.0
C1507 C 0.03215 0.66859 0.94412 0.0
C1508 C 0.01278 0.64899 0.94618 0.0
C1509 C 0.99902 0.64518 0.96935 0.0
C1510 C 1.00446 0.66128 0.99042 0.0
C1511 C 0.02291 0.68075 0.98897 0.0
C1512 C 0.02443 0.69581 0.01433 0.0
C1513 C 0.05141 0.69323 0.02666 0.0
C1514 C 0.01725 0.72449 0.01026 0.0
C1515 C 1.00396 0.68174 0.03022 0.0
C1516 C 0.99284 0.66176 0.01606 0.0
C1517 C 0.97382 0.64564 0.02663 0.0
C1518 C 0.96595 0.65002 0.05234 0.0
C1519 C 0.97688 0.67051 0.06723 0.0
C1520 C 0.99608 0.68662 0.05587 0.0
H1521 H 0.19473 0.46844 0.55459 0.0
H1522 H 0.11308 0.47104 0.5745 0.0
H1523 H 0.1035 0.49026 0.53164 0.0
H1524 H 0.19751 0.52886 0.52247 0.0
H1525 H 0.21996 0.51822 0.49786 0.0
H1526 H 0.22 0.50305 0.52926 0.0
H1527 H 0.21323 0.45793 0.50771 0.0
H1528 H 0.21328 0.47296 0.47621 0.0
H1529 H 0.18626 0.45295 0.48603 0.0
H1530 H 0.1035 0.51216 0.48745 0.0
H1531 H 0.11291 0.53373 0.44571 0.0
H1532 H 0.19448 0.51554 0.45479 0.0
C1533 C 0.1748 0.47298 0.54995 0.0
C1534 C 0.15465 0.46829 0.56796 0.0
C1535 C 0.1288 0.47422 0.56093 0.0
C1536 C 0.1232 0.48524 0.53668 0.0
C1537 C 0.14362 0.49001 0.51957 0.0
C1538 C 0.16888 0.48386 0.52586 0.0
C1539 C 0.18745 0.49147 0.50441 0.0
C1540 C 0.20739 0.5116 0.51409 0.0
C1541 C 0.20084 0.46739 0.49291 0.0
C1542 C 0.16879 0.50335 0.48523 0.0
C1543 C 0.14358 0.50227 0.49421 0.0
C1544 C 0.12315 0.51285 0.48012 0.0
C1545 C 0.12868 0.52496 0.45633 0.0
C1546 C 0.15445 0.52644 0.44682 0.0
C1547 C 0.1746 0.51515 0.46152 0.0
H1548 H 0.96806 0.96164 0.33922 0.0
H1549 H 0.92258 0.02507 0.37085 0.0
H1550 H 0.96256 0.05083 0.37723 0.0
H1551 H 0.02398 0.97012 0.38186 0.0
H1552 H 0.04698 0.96221 0.35673 0.0
H1553 H 0.01491 0.94824 0.35599 0.0
H1554 H 1.00815 0.96635 0.30966 0.0
H1555 H 0.04015 0.9804 0.31029 0.0
H1556 H 0.01248 1.00064 0.30389 0.0
H1557 H 1.00729 0.07091 0.37728 0.0
H1558 H 0.05315 0.08332 0.37189 0.0
H1559 H 0.06978 1.00608 0.34196 0.0
C1560 C 0.96651 0.9809 0.34759 0.0
C1561 C 0.94213 0.99125 0.35466 0.0
C1562 C 0.94102 0.01652 0.36567 0.0
C1563 C 0.96363 0.03138 0.36925 0.0
C1564 C 0.9873 0.02067 0.36189 0.0
C1565 C 0.98891 0.99594 0.35145 0.0
C1566 C 0.01666 0.98921 0.34462 0.0
C1567 C 0.02619 0.96607 0.36077 0.0
C1568 C 0.01951 0.98384 0.31538 0.0
C1569 C 0.03033 0.01418 0.35241 0.0
C1570 C 0.01308 0.03207 0.36237 0.0
C1571 C 0.02104 0.05691 0.36985 0.0
C1572 C 0.04727 0.06372 0.36688 0.0
C1573 C 0.06539 0.04573 0.3566 0.0
C1574 C 0.0566 0.02051 0.34964 0.0
H1575 H 0.55224 0.47082 0.16997 0.0
H1576 H 0.4846 0.42339 0.18688 0.0
H1577 H 0.45758 0.46287 0.18852 0.0
H1578 H 0.53649 0.52361 0.21166 0.0
H1579 H 0.54829 0.54845 0.19003 0.0
H1580 H 0.56217 0.5164 0.18904 0.0
H1581 H 0.55173 0.51296 0.14001 0.0
H1582 H 0.53786 0.54504 0.14083 0.0
H1583 H 0.51895 0.51792 0.12907 0.0
H1584 H 0.43855 0.50753 0.19147 0.0
H1585 H 0.42821 0.55443 0.19285 0.0
H1586 H 0.50768 0.57301 0.17245 0.0
C1587 C 0.53171 0.46877 0.1739 0.0
C1588 C 0.52049 0.44402 0.17823 0.0
C1589 C 0.49354 0.4421 0.18317 0.0
C1590 C 0.47806 0.46443 0.18427 0.0
C1591 C 0.48977 0.48852 0.18014 0.0
C1592 C 0.51592 0.49084 0.1748 0.0
C1593 C 0.52368 0.51909 0.17133 0.0
C1594 C 0.54385 0.52737 0.19174 0.0
C1595 C 0.53364 0.52404 0.14366 0.0
C1596 C 0.49788 0.53231 0.17597 0.0
C1597 C 0.4786 0.5143 0.18111 0.0
C1598 C 0.4534 0.5218 0.18719 0.0
C1599 C 0.44774 0.54843 0.18804 0.0
C1600 C 0.46711 0.56721 0.18261 0.0
C1601 C 0.49244 0.55899 0.17631 0.0
H1602 H 0.07259 1.00334 0.70014 0.0
H1603 H 0.06606 0.95066 0.63435 0.0
H1604 H 0.02182 0.96645 0.62633 0.0
H1605 H 1.00742 0.99326 0.72306 0.0
H1606 H 1.00347 0.02646 0.73359 0.0
H1607 H 0.03519 0.012 0.73334 0.0
H1608 H 0.05214 0.04936 0.70422 0.0
H1609 H 0.02045 0.0639 0.70432 0.0
H1610 H 0.03603 0.0561 0.67399 0.0
H1611 H 0.97791 0.98811 0.6254 0.0
H1612 H 0.93726 0.01226 0.63313 0.0
H1613 H 0.97153 0.04863 0.701 0.0
C1614 C 0.06191 0.99482 0.68417 0.0
C1615 C 0.07322 0.97576 0.66781 0.0
C1616 C 0.05834 0.96564 0.6469 0.0
C1617 C 0.03301 0.97436 0.64227 0.0
C1618 C 0.02257 0.99306 0.65882 0.0
C1619 C 0.03649 1.00301 0.67948 0.0
C1620 C 0.02052 0.02236 0.69487 0.0
C1621 C 0.01641 0.01295 0.72287 0.0
C1622 C 0.03303 0.04954 0.6943 0.0
C1623 C 0.99542 0.02173 0.67966 0.0
C1624 C 0.99706 1.00488 0.6588 0.0
C1625 C 0.97641 1.00131 0.64172 0.0
C1626 C 0.95344 0.01519 0.64619 0.0
C1627 C 0.95118 0.03226 0.66769 0.0
C1628 C 0.97256 0.03552 0.68456 0.0
H1629 H 0.51009 0.56811 0.81718 0.0
H1630 H 0.56659 0.56167 0.87899 0.0
H1631 H 0.5529 0.51616 0.88647 0.0
H1632 H 0.46007 0.52997 0.84895 0.0
H1633 H 0.44881 0.51514 0.81929 0.0
H1634 H 0.46323 0.54709 0.81865 0.0
H1635 H 0.4967 0.53128 0.78465 0.0
H1636 H 0.48244 0.49926 0.78525 0.0
H1637 H 0.51652 0.50342 0.79176 0.0
H1638 H 0.5347 0.47087 0.88564 0.0
H1639 H 0.51133 0.42974 0.879 0.0
H1640 H 0.46384 0.46637 0.81997 0.0
C1641 C 0.51959 0.55705 0.83223 0.0
C1642 C 0.53949 0.56832 0.84747 0.0
C1643 C 0.55124 0.55341 0.86722 0.0
C1644 C 0.54366 0.52755 0.87152 0.0
C1645 C 0.52406 0.51698 0.85611 0.0
C1646 C 0.51196 0.53131 0.83706 0.0
C1647 C 0.49102 0.51543 0.82366 0.0
C1648 C 0.46419 0.52764 0.8279 0.0
C1649 C 0.49704 0.51215 0.79461 0.0
C1650 C 0.49345 0.48983 0.83795 0.0
C1651 C 0.51273 0.49114 0.85646 0.0
C1652 C 0.51923 0.46975 0.87152 0.0
C1653 C 0.50555 0.44644 0.86773 0.0
C1654 C 0.48519 0.4446 0.84926 0.0
C1655 C 0.47924 0.4668 0.83419 0.0
H1656 H 0.32522 0.0494 0.05777 0.0
H1657 H 0.39939 0.07853 0.03022 0.0
H1658 H 0.40737 0.03653 1.0084 0.0
H1659 H 0.34441 0.98216 0.06754 0.0
H1660 H 0.3139 0.96939 0.05608 0.0
H1661 H 0.31519 1.00086 0.07149 0.0
H1662 H 0.29354 0.0214 0.03117 0.0
H1663 H 0.29231 0.99005 0.01559 0.0
H1664 H 0.30811 0.01694 0.99968 0.0
H1665 H 0.40611 0.99194 0.98738 0.0
H1666 H 0.39564 0.94868 0.96903 0.0
H1667 H 0.32166 0.94962 1.00909 0.0
C1668 C 0.3432 0.04706 0.04721 0.0
C1669 C 0.36168 0.06745 0.04586 0.0
C1670 C 0.38508 0.06319 0.03203 0.0
C1671 C 0.38972 0.03942 0.01938 0.0
C1672 C 0.37081 0.02002 0.02067 0.0
C1673 C 0.34804 0.02359 0.0343 0.0
C1674 C 0.33029 1.00017 0.03177 0.0
C1675 C 0.32569 0.98739 0.0583 0.0
C1676 C 0.30455 1.0076 0.01878 0.0
C1677 C 0.34647 0.98298 0.01426 0.0
C1678 C 0.36988 0.99465 1.00825 0.0
C1679 C 0.3879 0.98257 0.99211 0.0
C1680 C 0.38182 0.95796 0.98184 0.0
C1681 C 0.35782 0.94574 0.98756 0.0
C1682 C 0.34004 0.95852 1.00409 0.0
H1683 H 0.46977 0.15821 0.54981 0.0
H1684 H 0.43274 0.21813 0.50409 0.0
H1685 H 0.47239 0.22289 0.47783 0.0
H1686 H 0.53229 0.18864 0.55178 0.0
H1687 H 0.55041 0.15885 0.5493 0.0
H1688 H 0.51858 0.15865 0.56366 0.0
H1689 H 0.50386 0.12331 0.53091 0.0
H1690 H 0.53568 0.12341 0.51644 0.0
H1691 H 0.50752 0.12909 0.49663 0.0
H1692 H 0.51592 0.22252 0.45731 0.0
H1693 H 0.56155 0.21793 0.44427 0.0
H1694 H 0.57229 0.15906 0.50341 0.0
C1695 C 0.47 0.17208 0.53406 0.0
C1696 C 0.44813 0.18787 0.52904 0.0
C1697 C 0.44928 0.20601 0.50845 0.0
C1698 C 0.47169 0.20877 0.49332 0.0
C1699 C 0.49301 0.19328 0.49894 0.0
C1700 C 0.4925 0.17531 0.51881 0.0
C1701 C 0.51871 0.16205 0.5213 0.0
C1702 C 0.5307 0.16737 0.5481 0.0
C1703 C 0.51629 0.13272 0.516 0.0
C1704 C 0.53398 0.17558 0.49992 0.0
C1705 C 0.51859 0.19337 0.48722 0.0
C1706 C 0.52818 0.20867 0.46713 0.0
C1707 C 0.55424 0.20603 0.45996 0.0
C1708 C 0.57075 0.18831 0.47288 0.0
C1709 C 0.56023 0.17264 0.49296 0.0
H1710 H 0.67765 0.06937 1.00907 0.0
H1711 H 0.64475 0.05398 0.93302 0.0
H1712 H 0.63768 1.00818 0.9452 0.0
H1713 H 0.71271 1.01021 0.01337 0.0
H1714 H 0.70748 1.00639 0.04772 0.0
H1715 H 0.7081 0.03839 0.03372 0.0
H1716 H 0.66261 0.04764 0.05293 0.0
H1717 H 0.66183 0.01561 0.06695 0.0
H1718 H 0.63614 0.02582 0.04569 0.0
H1719 H 0.63601 0.96336 0.96501 0.0
H1720 H 0.64122 0.92305 0.99034 0.0
H1721 H 0.67592 0.96764 0.05304 0.0
C1722 C 0.669 0.05643 0.99489 0.0
C1723 C 0.66163 0.0655 0.97009 0.0
C1724 C 0.65012 0.04779 0.95232 0.0
C1725 C 0.64614 0.02163 0.959 0.0
C1726 C 0.65378 0.01339 0.98353 0.0
C1727 C 0.66502 0.03026 1.00117 0.0
C1728 C 0.67252 0.01629 0.02585 0.0
C1729 C 0.70194 0.01792 0.03042 0.0
C1730 C 0.65736 0.02698 0.04924 0.0
C1731 C 0.66407 0.98884 0.0192 0.0
C1732 C 0.65309 0.98759 0.9948 0.0
C1733 C 0.64439 0.96415 0.98423 0.0
C1734 C 0.64728 0.94136 0.99885 0.0
C1735 C 0.65891 0.94212 0.02374 0.0
C1736 C 0.6671 0.96633 0.03403 0.0
H1737 H 0.45333 0.82796 0.50256 0.0
H1738 H 0.45757 0.89395 0.4507 0.0
H1739 H 0.50151 0.90444 0.46722 0.0
H1740 H 0.48565 0.85992 0.55659 0.0
H1741 H 0.502 0.83083 0.56686 0.0
H1742 H 0.47116 0.8285 0.55066 0.0
H1743 H 0.49132 0.79797 0.51608 0.0
H1744 H 0.52219 0.80021 0.53217 0.0
H1745 H 0.51957 0.80854 0.49835 0.0
H1746 H 0.54614 0.90585 0.48778 0.0
H1747 H 0.58668 0.89974 0.51203 0.0
H1748 H 0.55104 0.83564 0.55398 0.0
C1749 C 0.46361 0.84456 0.49467 0.0
C1750 C 0.45231 0.86005 0.47522 0.0
C1751 C 0.46604 0.88187 0.46559 0.0
C1752 C 0.49095 0.88793 0.47484 0.0
C1753 C 0.50161 0.87224 0.49406 0.0
C1754 C 0.48824 0.85119 0.50408 0.0
C1755 C 0.50377 0.8378 0.52502 0.0
C1756 C 0.48981 0.83937 0.55134 0.0
C1757 C 0.50955 0.80945 0.51744 0.0
C1758 C 0.52817 0.85429 0.52488 0.0
C1759 C 0.52664 0.87395 0.50682 0.0
C1760 C 0.54738 0.89078 0.50231 0.0
C1761 C 0.57036 0.88726 0.51646 0.0
C1762 C 0.57243 0.86724 0.53525 0.0
C1763 C 0.55064 0.85092 0.53963 0.0
H1764 H 0.10462 0.28487 0.24987 0.0
H1765 H 0.08513 0.24321 0.17916 0.0
H1766 H 0.09444 0.20155 0.20094 0.0
H1767 H 0.15735 0.24616 0.2678 0.0
H1768 H 0.15076 0.24739 0.30212 0.0
H1769 H 0.14062 0.27364 0.28159 0.0
H1770 H 0.09332 0.26797 0.29766 0.0
H1771 H 0.10334 0.24169 0.31832 0.0
H1772 H 0.07778 0.23661 0.29503 0.0
H1773 H 0.10936 0.16478 0.22948 0.0
H1774 H 0.1283 0.13596 0.26232 0.0
H1775 H 0.13602 0.20168 0.31497 0.0
C1776 C 0.102 0.26697 0.23905 0.0
C1777 C 0.09412 0.26725 0.21284 0.0
C1778 C 0.09105 0.24342 0.1993 0.0
C1779 C 0.09627 0.21967 0.21151 0.0
C1780 C 0.10428 0.22009 0.23732 0.0
C1781 C 0.10694 0.24312 0.25097 0.0
C1782 C 0.1168 0.23837 0.27817 0.0
C1783 C 0.14293 0.25221 0.28267 0.0
C1784 C 0.0966 0.24665 0.29849 0.0
C1785 C 0.1199 0.20914 0.27747 0.0
C1786 C 0.11244 0.19891 0.25383 0.0
C1787 C 0.1149 0.17252 0.24822 0.0
C1788 C 0.12561 0.15623 0.26715 0.0
C1789 C 0.13378 0.16636 0.29147 0.0
C1790 C 0.13029 0.19316 0.29665 0.0
H1791 H 0.7522 0.4109 0.31061 0.0
H1792 H 0.80988 0.4304 0.25239 0.0
H1793 H 0.77828 0.42145 0.21785 0.0
H1794 H 0.72432 0.35776 0.27574 0.0
H1795 H 0.69138 0.36414 0.28543 0.0
H1796 H 0.71779 0.37376 0.30621 0.0
H1797 H 0.70128 0.42125 0.30625 0.0
H1798 H 0.67466 0.4117 0.28567 0.0
H1799 H 0.69613 0.43759 0.27583 0.0
H1800 H 0.742 0.40875 0.18954 0.0
H1801 H 0.7018 0.39377 0.16857 0.0
H1802 H 0.66666 0.38206 0.24422 0.0
C1803 C 0.75792 0.41367 0.29059 0.0
C1804 C 0.78344 0.42139 0.28413 0.0
C1805 C 0.79045 0.42441 0.25775 0.0
C1806 C 0.77265 0.41942 0.23796 0.0
C1807 C 0.74787 0.41131 0.24482 0.0
C1808 C 0.74034 0.4085 0.27042 0.0
C1809 C 0.71264 0.39854 0.27211 0.0
C1810 C 0.71148 0.37197 0.28568 0.0
C1811 C 0.69515 0.41847 0.28577 0.0
C1812 C 0.70603 0.39611 0.24351 0.0
C1813 C 0.72667 0.40368 0.22822 0.0
C1814 C 0.72557 0.40297 0.20126 0.0
C1815 C 0.7026 0.39452 0.18952 0.0
C1816 C 0.68099 0.38686 0.20467 0.0
C1817 C 0.68287 0.38756 0.23207 0.0
H1818 H 0.87737 0.8574 0.26146 0.0
H1819 H 0.89673 0.82853 0.3377 0.0
H1820 H 0.92093 0.79218 0.31788 0.0
H1821 H 0.86441 0.79689 0.23407 0.0
H1822 H 0.87762 0.80352 0.20239 0.0
H1823 H 0.86556 0.82976 0.22209 0.0
H1824 H 0.90981 0.85339 0.21857 0.0
H1825 H 0.922 0.82723 0.1987 0.0
H1826 H 0.93897 0.83664 0.22781 0.0
H1827 H 0.93722 0.75621 0.29093 0.0
H1828 H 0.94563 0.72243 0.25796 0.0
H1829 H 0.91692 0.77354 0.19792 0.0
C1830 C 0.88757 0.84386 0.27378 0.0
C1831 C 0.88573 0.84586 0.30109 0.0
C1832 C 0.89832 0.82735 0.31679 0.0
C1833 C 0.91209 0.80672 0.30568 0.0
C1834 C 0.91304 0.80478 0.27875 0.0
C1835 C 0.90126 0.82286 0.26288 0.0
C1836 C 0.90317 0.81457 0.23457 0.0
C1837 C 0.87608 0.81097 0.22259 0.0
C1838 C 0.91946 0.83413 0.21899 0.0
C1839 C 0.91711 0.78872 0.23717 0.0
C1840 C 0.92277 0.78368 0.26287 0.0
C1841 C 0.93343 0.76015 0.27068 0.0
C1842 C 0.93809 0.74106 0.25185 0.0
C1843 C 0.93235 0.7456 0.22546 0.0
C1844 C 0.92218 0.76992 0.21791 0.0
H1845 H 0.31228 0.64613 0.21193 0.0
H1846 H 0.3752 0.64614 0.26756 0.0
H1847 H 0.3452 0.62984 0.30133 0.0
H1848 H 0.26199 0.66667 0.25699 0.0
H1849 H 0.23757 0.64643 0.24206 0.0
H1850 H 0.26393 0.65908 0.22288 0.0
H1851 H 0.27556 0.61223 0.20842 0.0
H1852 H 0.24943 0.59942 0.22776 0.0
H1853 H 0.28199 0.58792 0.23265 0.0
H1854 H 0.30862 0.61071 0.32813 0.0
H1855 H 0.26765 0.59412 0.3469 0.0
H1856 H 0.22875 0.60758 0.27363 0.0
C1857 C 0.3197 0.6428 0.23125 0.0
C1858 C 0.34606 0.64733 0.23713 0.0
C1859 C 0.35502 0.64305 0.26271 0.0
C1860 C 0.33817 0.63362 0.28194 0.0
C1861 C 0.31239 0.62882 0.27529 0.0
C1862 C 0.30314 0.63361 0.25064 0.0
C1863 C 0.27465 0.62689 0.24839 0.0
C1864 C 0.25859 0.65122 0.24222 0.0
C1865 C 0.27016 0.60534 0.2281 0.0
C1866 C 0.26934 0.61722 0.27554 0.0
C1867 C 0.29135 0.61835 0.29077 0.0
C1868 C 0.29125 0.60988 0.31642 0.0
C1869 C 0.26795 0.60034 0.32685 0.0
C1870 C 0.24509 0.59953 0.31168 0.0
C1871 C 0.24592 0.60801 0.2857 0.0
H1872 H 0.10643 0.77085 0.82162 0.0
H1873 H 0.0669 0.72952 0.7598 0.0
H1874 H 0.07507 0.76627 0.73014 0.0
H1875 H 0.08819 0.83853 0.80217 0.0
H1876 H 0.11982 0.85133 0.80999 0.0
H1877 H 0.10694 0.82405 0.82778 0.0
H1878 H 0.14771 0.79717 0.81631 0.0
H1879 H 0.16071 0.82431 0.79858 0.0
H1880 H 0.15685 0.79323 0.78277 0.0
H1881 H 0.0915 0.80441 0.70597 0.0
H1882 H 0.11788 0.84034 0.68791 0.0
H1883 H 0.14847 0.85715 0.76418 0.0
C1884 C 0.09882 0.77005 0.80206 0.0
C1885 C 0.08558 0.7477 0.793 0.0
C1886 C 0.07682 0.74666 0.76706 0.0
C1887 C 0.08126 0.76748 0.75016 0.0
C1888 C 0.09479 0.78911 0.75942 0.0
C1889 C 0.10362 0.79053 0.78471 0.0
C1890 C 0.12052 0.81448 0.78868 0.0
C1891 C 0.10812 0.83321 0.80832 0.0
C1892 C 0.14807 0.80683 0.79707 0.0
C1893 C 0.12035 0.82587 0.76153 0.0
C1894 C 0.10493 0.81113 0.74513 0.0
C1895 C 0.10318 0.81641 0.7187 0.0
C1896 C 0.11809 0.83684 0.7086 0.0
C1897 C 0.13447 0.85174 0.72483 0.0
C1898 C 0.13528 0.84653 0.75169 0.0
H1899 H 0.31197 0.37096 0.81141 0.0
H1900 H 0.37714 0.38336 0.75951 0.0
H1901 H 0.34778 0.40316 0.72753 0.0
H1902 H 0.268 0.35112 0.76311 0.0
H1903 H 0.24028 0.36641 0.7779 0.0
H1904 H 0.26683 0.3558 0.79776 0.0
H1905 H 0.27164 0.40231 0.81673 0.0
H1906 H 0.24504 0.41308 0.79694 0.0
H1907 H 0.27594 0.42943 0.79506 0.0
H1908 H 0.31063 0.41898 0.69996 0.0
H1909 H 0.26883 0.42918 0.67906 0.0
H1910 H 0.22809 0.40476 0.74858 0.0
C1911 C 0.32018 0.37789 0.7934 0.0
C1912 C 0.34697 0.37558 0.78812 0.0
C1913 C 0.35683 0.38522 0.76431 0.0
C1914 C 0.34025 0.3964 0.74592 0.0
C1915 C 0.31389 0.39785 0.75163 0.0
C1916 C 0.30395 0.3889 0.77483 0.0
C1917 C 0.27475 0.39137 0.77575 0.0
C1918 C 0.26171 0.36458 0.7788 0.0
C1919 C 0.26636 0.41017 0.7974 0.0
C1920 C 0.26971 0.40271 0.74923 0.0
C1921 C 0.29254 0.40656 0.73568 0.0
C1922 C 0.29267 0.41622 0.71046 0.0
C1923 C 0.26883 0.42194 0.69876 0.0
C1924 C 0.24523 0.41779 0.71222 0.0
C1925 C 0.2458 0.40823 0.73783 0.0
H1926 H 0.92021 0.25683 0.81697 0.0
H1927 H 0.92302 0.31816 0.75935 0.0
H1928 H 0.91241 0.2865 0.72518 0.0
H1929 H 0.94769 0.20545 0.77516 0.0
H1930 H 0.92679 0.18037 0.78785 0.0
H1931 H 0.93607 0.20748 0.80809 0.0
H1932 H 0.88768 0.21751 0.81665 0.0
H1933 H 0.87825 0.1906 0.79624 0.0
H1934 H 0.86627 0.22276 0.78958 0.0
H1935 H 0.89907 0.25005 0.6977 0.0
H1936 H 0.88609 0.2092 0.67695 0.0
H1937 H 0.89221 0.16931 0.75082 0.0
C1938 C 0.91903 0.2634 0.79708 0.0
C1939 C 0.92249 0.29 0.79081 0.0
C1940 C 0.92039 0.29796 0.76464 0.0
C1941 C 0.91436 0.28011 0.74505 0.0
C1942 C 0.91045 0.25425 0.75184 0.0
C1943 C 0.91285 0.2457 0.77709 0.0
C1944 C 0.90692 0.21672 0.77874 0.0
C1945 C 0.93079 0.20161 0.78801 0.0
C1946 C 0.88338 0.21161 0.79635 0.0
C1947 C 0.90069 0.21055 0.75052 0.0
C1948 C 0.90288 0.23265 0.73553 0.0
C1949 C 0.89767 0.23248 0.70911 0.0
C1950 C 0.89044 0.20901 0.69745 0.0
C1951 C 0.88859 0.18573 0.71203 0.0
C1952 C 0.8935 0.18667 0.73909 0.0
H1953 H 0.70137 0.65085 0.80526 0.0
H1954 H 0.6346 0.62563 0.7604 0.0
H1955 H 0.6636 0.60311 0.72983 0.0
H1956 H 0.74079 0.66579 0.75178 0.0
H1957 H 0.77047 0.65502 0.76659 0.0
H1958 H 0.74434 0.66666 0.78656 0.0
H1959 H 0.74442 0.62343 0.81225 0.0
H1960 H 0.77062 0.61165 0.79236 0.0
H1961 H 0.74108 0.59303 0.79505 0.0
H1962 H 0.70019 0.58611 0.70215 0.0
H1963 H 0.74137 0.57618 0.67976 0.0
H1964 H 0.78401 0.61376 0.74208 0.0
C1965 C 0.69272 0.64053 0.78912 0.0
C1966 C 0.66557 0.64009 0.78542 0.0
C1967 C 0.65522 0.62604 0.76406 0.0
C1968 C 0.67158 0.61324 0.74644 0.0
C1969 C 0.69825 0.61458 0.75044 0.0
C1970 C 0.70874 0.62781 0.77131 0.0
C1971 C 0.73806 0.62761 0.77047 0.0
C1972 C 0.74905 0.65542 0.76874 0.0
C1973 C 0.7492 0.61306 0.79393 0.0
C1974 C 0.74247 0.61265 0.74556 0.0
C1975 C 0.71928 0.60506 0.73441 0.0
C1976 C 0.71846 0.59175 0.71083 0.0
C1977 C 0.74194 0.58621 0.69826 0.0
C1978 C 0.76587 0.59415 0.70922 0.0
C1979 C 0.76604 0.60732 0.73328 0.0
H1980 H 0.25021 0.10071 0.28606 0.0
H1981 H 0.17968 0.07983 0.24513 0.0
H1982 H 0.20077 0.09071 0.20344 0.0
H1983 H 0.26595 0.15495 0.24885 0.0
H1984 H 0.30045 0.14968 0.24936 0.0
H1985 H 0.28061 0.13788 0.27552 0.0
H1986 H 0.29816 0.09127 0.26817 0.0
H1987 H 0.31817 0.10297 0.24199 0.0
H1988 H 0.29572 0.07659 0.23646 0.0
H1989 H 0.22856 0.10788 0.16659 0.0
H1990 H 0.26057 0.12944 0.13811 0.0
H1991 H 0.31315 0.13708 0.20336 0.0
C1992 C 0.23932 0.09803 0.2683 0.0
C1993 C 0.21335 0.08937 0.26879 0.0
C1994 C 0.19967 0.0863 0.24516 0.0
C1995 C 0.21149 0.09241 0.22139 0.0
C1996 C 0.23705 0.10129 0.22161 0.0
C1997 C 0.25084 0.10386 0.24447 0.0
C1998 C 0.27759 0.11496 0.23967 0.0
C1999 C 0.28135 0.1409 0.2542 0.0
C2000 C 0.29865 0.09527 0.247 0.0
C2001 C 0.27645 0.11894 0.21065 0.0
C2002 C 0.25304 0.11079 0.20048 0.0
C2003 C 0.24712 0.11397 0.17429 0.0
C2004 C 0.2655 0.12615 0.15821 0.0
C2005 C 0.28944 0.13509 0.16841 0.0
C2006 C 0.295 0.13081 0.1949 0.0
H2007 H 0.65995 0.2129 0.31496 0.0
H2008 H 0.64585 0.26235 0.38186 0.0
H2009 H 0.62684 0.29553 0.3533 0.0
H2010 H 0.6789 0.2641 0.27179 0.0
H2011 H 0.66371 0.2495 0.24382 0.0
H2012 H 0.67543 0.22927 0.26967 0.0
H2013 H 0.62985 0.20844 0.27443 0.0
H2014 H 0.61801 0.22858 0.24855 0.0
H2015 H 0.60216 0.22905 0.27972 0.0
H2016 H 0.61005 0.32383 0.31712 0.0
H2017 H 0.59623 0.34459 0.27628 0.0
H2018 H 0.62224 0.27698 0.23307 0.0
C2019 C 0.65297 0.23072 0.32366 0.0
C2020 C 0.65435 0.23485 0.35076 0.0
C2021 C 0.64467 0.25841 0.36128 0.0
C2022 C 0.63399 0.27751 0.34517 0.0
C2023 C 0.63313 0.27283 0.31855 0.0
C2024 C 0.64233 0.24999 0.30787 0.0
C2025 C 0.63937 0.2498 0.27865 0.0
C2026 C 0.66594 0.24807 0.2652 0.0
C2027 C 0.62126 0.22766 0.26983 0.0
C2028 C 0.62708 0.27613 0.27452 0.0
C2029 C 0.62364 0.28913 0.29776 0.0
C2030 C 0.61264 0.31381 0.29882 0.0
C2031 C 0.60487 0.32545 0.27552 0.0
C2032 C 0.60816 0.31241 0.2515 0.0
C2033 C 0.61949 0.28746 0.2511 0.0
H2034 H 0.76632 0.91373 0.28397 0.0
H2035 H 0.83551 0.93677 0.24183 0.0
H2036 H 0.81362 0.92634 0.20043 0.0
H2037 H 0.75028 0.85991 0.24483 0.0
H2038 H 0.71576 0.86479 0.24661 0.0
H2039 H 0.73624 0.87578 0.27269 0.0
H2040 H 0.71802 0.92242 0.26802 0.0
H2041 H 0.6974 0.91155 0.24193 0.0
H2042 H 0.71945 0.93835 0.23695 0.0
H2043 H 0.78516 0.9104 0.16397 0.0
H2044 H 0.75255 0.89058 0.13528 0.0
H2045 H 0.70132 0.87963 0.20131 0.0
C2046 C 0.77679 0.91687 0.26603 0.0
C2047 C 0.80259 0.92609 0.26608 0.0
C2048 C 0.81568 0.9298 0.24221 0.0
C2049 C 0.80341 0.92395 0.21862 0.0
C2050 C 0.77801 0.91464 0.21927 0.0
C2051 C 0.76481 0.91126 0.24236 0.0
C2052 C 0.73802 0.90008 0.23785 0.0
C2053 C 0.73491 0.87357 0.25129 0.0
C2054 C 0.71698 0.91925 0.24671 0.0
C2055 C 0.73837 0.89721 0.20865 0.0
C2056 C 0.76154 0.90581 0.19827 0.0
C2057 C 0.76679 0.90395 0.17183 0.0
C2058 C 0.74796 0.89275 0.15562 0.0
C2059 C 0.7241 0.88354 0.16587 0.0
C2060 C 0.7193 0.88625 0.19275 0.0
H2061 H 0.42001 0.70571 0.27315 0.0
H2062 H 0.43239 0.76462 0.21442 0.0
H2063 H 0.42284 0.79891 0.24648 0.0
H2064 H 0.36598 0.73497 0.30073 0.0
H2065 H 0.373 0.72641 0.33385 0.0
H2066 H 0.38498 0.70652 0.30773 0.0
H2067 H 0.43182 0.71214 0.32494 0.0
H2068 H 0.41994 0.73207 0.35119 0.0
H2069 H 0.44481 0.74438 0.32987 0.0
H2070 H 0.40677 0.82621 0.28222 0.0
H2071 H 0.38448 0.84523 0.3202 0.0
H2072 H 0.38197 0.76966 0.35681 0.0
C2073 C 0.42146 0.72588 0.26738 0.0
C2074 C 0.42719 0.73264 0.24145 0.0
C2075 C 0.42811 0.75913 0.23424 0.0
C2076 C 0.42285 0.77873 0.25233 0.0
C2077 C 0.4166 0.77153 0.27758 0.0
C2078 C 0.41588 0.74579 0.28523 0.0
C2079 C 0.4059 0.74341 0.31286 0.0
C2080 C 0.38099 0.72685 0.31383 0.0
C2081 C 0.42688 0.73234 0.33078 0.0
C2082 C 0.40045 0.77173 0.31917 0.0
C2083 C 0.40711 0.78757 0.29858 0.0
C2084 C 0.40196 0.81413 0.29869 0.0
C2085 C 0.38928 0.82475 0.32023 0.0
C2086 C 0.38199 0.80894 0.34139 0.0
C2087 C 0.38808 0.78219 0.34111 0.0
H2088 H 0.31675 0.87282 0.81726 0.0
H2089 H 0.27133 0.89902 0.8833 0.0
H2090 H 0.24322 0.92369 0.85399 0.0
H2091 H 0.31082 0.93191 0.77799 0.0
H2092 H 0.3078 0.9138 0.74814 0.0
H2093 H 0.32644 0.9008 0.7746 0.0
H2094 H 0.29853 0.85878 0.7737 0.0
H2095 H 0.27986 0.87162 0.74727 0.0
H2096 H 0.26379 0.8612 0.77653 0.0
H2097 H 0.21736 0.94217 0.81721 0.0
H2098 H 0.1957 0.95236 0.77579 0.0
H2099 H 0.25725 0.91324 0.73379 0.0
C2100 C 0.30105 0.88385 0.8257 0.0
C2101 C 0.29652 0.88388 0.85277 0.0
C2102 C 0.27572 0.89885 0.86281 0.0
C2103 C 0.25948 0.91293 0.84624 0.0
C2104 C 0.26424 0.91198 0.81967 0.0
C2105 C 0.28457 0.89786 0.80946 0.0
C2106 C 0.28441 0.89846 0.7801 0.0
C2107 C 0.30882 0.91206 0.7696 0.0
C2108 C 0.28146 0.87088 0.76874 0.0
C2109 C 0.26043 0.9146 0.77537 0.0
C2110 C 0.24923 0.92247 0.79845 0.0
C2111 C 0.22613 0.9364 0.79902 0.0
C2112 C 0.21396 0.94208 0.7754 0.0
C2113 C 0.22487 0.93373 0.75158 0.0
C2114 C 0.24861 0.92019 0.75166 0.0
H2115 H 0.41527 0.32004 0.74752 0.0
H2116 H 0.44204 0.25761 0.79681 0.0
H2117 H 0.43364 0.22593 0.76176 0.0
H2118 H 0.36277 0.28598 0.7227 0.0
H2119 H 0.36427 0.29911 0.69036 0.0
H2120 H 0.3768 0.31766 0.71723 0.0
H2121 H 0.42133 0.32124 0.69425 0.0
H2122 H 0.40889 0.30269 0.66722 0.0
H2123 H 0.43768 0.29211 0.68383 0.0
H2124 H 0.41722 0.20052 0.72465 0.0
H2125 H 0.39243 0.18259 0.68758 0.0
H2126 H 0.37533 0.26046 0.66154 0.0
C2127 C 0.42015 0.2998 0.75046 0.0
C2128 C 0.4297 0.29118 0.7746 0.0
C2129 C 0.43493 0.2645 0.77832 0.0
C2130 C 0.43033 0.24642 0.7585 0.0
C2131 C 0.4203 0.25531 0.7351 0.0
C2132 C 0.41521 0.28135 0.73091 0.0
C2133 C 0.40153 0.28517 0.70514 0.0
C2134 C 0.37476 0.29771 0.70911 0.0
C2135 C 0.41837 0.30126 0.68651 0.0
C2136 C 0.39908 0.25719 0.69595 0.0
C2137 C 0.41044 0.24037 0.71342 0.0
C2138 C 0.40879 0.21347 0.71053 0.0
C2139 C 0.39475 0.20345 0.68951 0.0
C2140 C 0.38268 0.22022 0.67165 0.0
C2141 C 0.38522 0.2474 0.6746 0.0
H2142 H 0.78199 0.12863 0.73451 0.0
H2143 H 0.8403 0.08588 0.77715 0.0
H2144 H 0.81668 0.09447 0.818 0.0
H2145 H 0.77173 0.17844 0.78324 0.0
H2146 H 0.73742 0.18049 0.7771 0.0
H2147 H 0.75918 0.17116 0.7514 0.0
H2148 H 0.73263 0.12886 0.74416 0.0
H2149 H 0.71089 0.13798 0.76994 0.0
H2150 H 0.72725 0.10711 0.771 0.0
H2151 H 0.78571 0.10662 0.85408 0.0
H2152 H 0.75097 0.12278 0.88266 0.0
H2153 H 0.71394 0.15885 0.81633 0.0
C2154 C 0.78985 0.12116 0.75244 0.0
C2155 C 0.81296 0.10656 0.75266 0.0
C2156 C 0.82264 0.09716 0.77654 0.0
C2157 C 0.80934 0.1019 0.79984 0.0
C2158 C 0.78648 0.11618 0.79892 0.0
C2159 C 0.77692 0.12583 0.77586 0.0
C2160 C 0.75201 0.14068 0.78016 0.0
C2161 C 0.7553 0.16939 0.77253 0.0
C2162 C 0.72936 0.12788 0.76544 0.0
C2163 C 0.74891 0.1377 0.8092 0.0
C2164 C 0.76894 0.12349 0.81968 0.0
C2165 C 0.77003 0.11797 0.8461 0.0
C2166 C 0.7502 0.12736 0.86223 0.0
C2167 C 0.72955 0.14225 0.85196 0.0
C2168 C 0.7291 0.14734 0.82499 0.0
H2169 H 0.60172 0.75461 0.78604 0.0
H2170 H 0.56896 0.69177 0.74008 0.0
H2171 H 0.57988 0.71566 0.69997 0.0
H2172 H 0.58194 0.80835 0.74334 0.0
H2173 H 0.61163 0.8261 0.74887 0.0
H2174 H 0.59872 0.80528 0.77382 0.0
H2175 H 0.64227 0.78043 0.77551 0.0
H2176 H 0.65526 0.80103 0.75051 0.0
H2177 H 0.65512 0.76625 0.74619 0.0
H2178 H 0.59786 0.74476 0.66494 0.0
H2179 H 0.62154 0.77631 0.6379 0.0
H2180 H 0.64194 0.82041 0.70692 0.0
C2181 C 0.59635 0.74609 0.76756 0.0
C2182 C 0.58433 0.72141 0.76616 0.0
C2183 C 0.57804 0.71073 0.7416 0.0
C2184 C 0.58414 0.72417 0.71872 0.0
C2185 C 0.59642 0.74829 0.72078 0.0
C2186 C 0.60235 0.75919 0.7446 0.0
C2187 C 0.61706 0.78453 0.74155 0.0
C2188 C 0.60139 0.80741 0.75254 0.0
C2189 C 0.64402 0.78294 0.75418 0.0
C2190 C 0.61901 0.78591 0.7123 0.0
C2191 C 0.60679 0.76498 0.70064 0.0
C2192 C 0.60715 0.76144 0.67384 0.0
C2193 C 0.62059 0.77961 0.6586 0.0
C2194 C 0.63362 0.80104 0.67018 0.0
C2195 C 0.63236 0.80426 0.6974 0.0
H2196 H 0.29159 0.25198 0.10343 0.0
H2197 H 0.24945 0.18635 0.07097 0.0
H2198 H 0.20805 0.20843 0.0806 0.0
H2199 H 0.25055 0.26256 0.15575 0.0
H2200 H 0.25301 0.29752 0.15533 0.0
H2201 H 0.27922 0.2781 0.14302 0.0
H2202 H 0.27684 0.30202 0.09894 0.0
H2203 H 0.25071 0.32171 0.11118 0.0
H2204 H 0.24648 0.30321 0.08173 0.0
H2205 H 0.17137 0.23575 0.09797 0.0
H2206 H 0.14248 0.26603 0.12086 0.0
H2207 H 0.20877 0.31433 0.14103 0.0
C2208 C 0.27368 0.24247 0.09781 0.0
C2209 C 0.27372 0.21751 0.08631 0.0
C2210 C 0.24987 0.20556 0.07962 0.0
C2211 C 0.22626 0.21796 0.08502 0.0
C2212 C 0.2269 0.24234 0.09694 0.0
C2213 C 0.25001 0.25455 0.10305 0.0
C2214 C 0.24546 0.27992 0.11728 0.0
C2215 C 0.25779 0.27948 0.14445 0.0
C2216 C 0.25546 0.30308 0.10132 0.0
C2217 C 0.21618 0.27978 0.11883 0.0
C2218 C 0.2058 0.25807 0.10682 0.0
C2219 C 0.17926 0.25304 0.10705 0.0
C2220 C 0.16294 0.27053 0.12007 0.0
C2221 C 0.17317 0.29283 0.13281 0.0
C2222 C 0.20019 0.29751 0.13171 0.0
H2223 H 0.28493 0.7685 0.91121 0.0
H2224 H 0.24181 0.83296 0.94406 0.0
H2225 H 0.20076 0.81184 0.93066 0.0
H2226 H 0.24615 0.76033 0.85565 0.0
H2227 H 0.24846 0.72538 0.85499 0.0
H2228 H 0.27418 0.74448 0.86904 0.0
H2229 H 0.26977 0.71894 0.91207 0.0
H2230 H 0.24408 0.69965 0.89811 0.0
H2231 H 0.23869 0.71712 0.92798 0.0
H2232 H 0.16464 0.78477 0.91133 0.0
H2233 H 0.13635 0.7543 0.88747 0.0
H2234 H 0.20327 0.70744 0.8675 0.0
C2235 C 0.26685 0.77801 0.91595 0.0
C2236 C 0.26653 0.8023 0.92883 0.0
C2237 C 0.24248 0.81428 0.93433 0.0
C2238 C 0.21909 0.80243 0.92681 0.0
C2239 C 0.22012 0.77861 0.91383 0.0
C2240 C 0.24339 0.76652 0.90851 0.0
C2241 C 0.23933 0.74163 0.89325 0.0
C2242 C 0.25283 0.74306 0.86666 0.0
C2243 C 0.24851 0.71794 0.90879 0.0
C2244 C 0.21014 0.74176 0.89048 0.0
C2245 C 0.19939 0.76314 0.90263 0.0
C2246 C 0.17283 0.7678 0.90201 0.0
C2247 C 0.15687 0.75024 0.8885 0.0
C2248 C 0.1675 0.72828 0.87568 0.0
C2249 C 0.19452 0.72404 0.87695 0.0
H2250 H 0.31593 0.27045 0.5999 0.0
H2251 H 0.2585 0.21708 0.5689 0.0
H2252 H 0.2245 0.25013 0.57535 0.0
H2253 H 0.27689 0.29308 0.65039 0.0
H2254 H 0.28842 0.3262 0.64985 0.0
H2255 H 0.30906 0.30035 0.63873 0.0
H2256 H 0.31467 0.32359 0.59459 0.0
H2257 H 0.29395 0.34953 0.60558 0.0
H2258 H 0.28641 0.33224 0.57605 0.0
H2259 H 0.19628 0.28628 0.58892 0.0
H2260 H 0.17468 0.32235 0.61191 0.0
H2261 H 0.24925 0.35268 0.63608 0.0
C2262 C 0.29629 0.26614 0.5938 0.0
C2263 C 0.28977 0.24147 0.58347 0.0
C2264 C 0.26381 0.23599 0.57662 0.0
C2265 C 0.24444 0.25467 0.58008 0.0
C2266 C 0.2513 0.27868 0.59071 0.0
C2267 C 0.27654 0.28448 0.59768 0.0
C2268 C 0.278 0.31054 0.61163 0.0
C2269 C 0.28872 0.30734 0.63928 0.0
C2270 C 0.29422 0.33014 0.59602 0.0
C2271 C 0.24957 0.31811 0.61198 0.0
C2272 C 0.23466 0.2996 0.59933 0.0
C2273 C 0.20775 0.30109 0.59854 0.0
C2274 C 0.19565 0.32159 0.61163 0.0
C2275 C 0.21033 0.34034 0.62543 0.0
C2276 C 0.23769 0.33896 0.62506 0.0
H2277 H 0.80597 0.31117 0.86478 0.0
H2278 H 0.87346 0.27933 0.90358 0.0
H2279 H 0.84529 0.24803 0.92623 0.0
H2280 H 0.76275 0.30666 0.91973 0.0
H2281 H 0.73513 0.29837 0.89995 0.0
H2282 H 0.76075 0.31829 0.88685 0.0
H2283 H 0.76638 0.28583 0.84869 0.0
H2284 H 0.7408 0.26583 0.86165 0.0
H2285 H 0.77226 0.25202 0.85551 0.0
H2286 H 0.80938 0.2187 0.94344 0.0
H2287 H 0.76886 0.19504 0.95423 0.0
H2288 H 0.72546 0.2482 0.9059 0.0
C2289 C 0.81505 0.29799 0.87822 0.0
C2290 C 0.8422 0.29797 0.88214 0.0
C2291 C 0.85288 0.27978 0.89978 0.0
C2292 C 0.83697 0.26193 0.91295 0.0
C2293 C 0.81036 0.26259 0.90851 0.0
C2294 C 0.79951 0.28029 0.89167 0.0
C2295 C 0.77042 0.27699 0.89006 0.0
C2296 C 0.75645 0.30154 0.89973 0.0
C2297 C 0.76198 0.26973 0.86233 0.0
C2298 C 0.76655 0.25453 0.90851 0.0
C2299 C 0.78978 0.24637 0.91893 0.0
C2300 C 0.79106 0.22512 0.9356 0.0
C2301 C 0.76798 0.21181 0.94162 0.0
C2302 C 0.74403 0.21998 0.93114 0.0
C2303 C 0.74341 0.24175 0.91457 0.0
H2304 H 0.75091 0.79356 0.60433 0.0
H2305 H 0.67864 0.756 0.58239 0.0
H2306 H 0.69746 0.71324 0.59231 0.0
H2307 H 0.79336 0.74368 0.57786 0.0
H2308 H 0.81655 0.74657 0.60384 0.0
H2309 H 0.79757 0.77431 0.59448 0.0
H2310 H 0.78125 0.77921 0.6418 0.0
H2311 H 0.80007 0.75142 0.65127 0.0
H2312 H 0.76569 0.752 0.65744 0.0
H2313 H 0.72318 0.67474 0.60669 0.0
H2314 H 0.75541 0.64275 0.62177 0.0
H2315 H 0.8113 0.7049 0.63325 0.0
C2316 C 0.73915 0.77632 0.60141 0.0
C2317 C 0.71333 0.77811 0.59256 0.0
C2318 C 0.69851 0.7551 0.58905 0.0
C2319 C 0.70899 0.73071 0.5947 0.0
C2320 C 0.73438 0.7296 0.60366 0.0
C2321 C 0.74938 0.75173 0.60677 0.0
C2322 C 0.77613 0.74506 0.61675 0.0
C2323 C 0.79714 0.75287 0.59705 0.0
C2324 C 0.78106 0.75767 0.6434 0.0
C2325 C 0.77373 0.71577 0.61889 0.0
C2326 C 0.74943 0.70728 0.61141 0.0
C2327 C 0.74234 0.68112 0.61244 0.0
C2328 C 0.76067 0.66313 0.62118 0.0
C2329 C 0.78583 0.67135 0.62854 0.0
C2330 C 0.79234 0.69804 0.62737 0.0
H2331 H 0.81654 0.70905 0.14313 0.0
H2332 H 0.87957 0.76474 0.13714 0.0
H2333 H 0.84909 0.79744 0.12 0.0
H2334 H 0.78406 0.72642 0.08497 0.0
H2335 H 0.75198 0.72215 0.0982 0.0
H2336 H 0.77857 0.70351 0.11081 0.0
H2337 H 0.76884 0.72056 0.15716 0.0
H2338 H 0.74208 0.73908 0.14473 0.0
H2339 H 0.76734 0.75511 0.16293 0.0
H2340 H 0.81194 0.8232 0.10135 0.0
H2341 H 0.77045 0.84126 0.08598 0.0
H2342 H 0.73172 0.76868 0.10487 0.0
C2343 C 0.82394 0.72812 0.13821 0.0
C2344 C 0.85045 0.73433 0.14136 0.0
C2345 C 0.85931 0.75964 0.1351 0.0
C2346 C 0.84218 0.77826 0.12518 0.0
C2347 C 0.81624 0.77129 0.12187 0.0
C2348 C 0.80711 0.74692 0.12849 0.0
C2349 C 0.77835 0.74431 0.12323 0.0
C2350 C 0.77293 0.72283 0.1031 0.0
C2351 C 0.76327 0.73949 0.14852 0.0
C2352 C 0.77272 0.77096 0.11234 0.0
C2353 C 0.79484 0.78621 0.1116 0.0
C2354 C 0.79449 0.81147 0.10195 0.0
C2355 C 0.77086 0.8215 0.09314 0.0
C2356 C 0.74789 0.80634 0.09418 0.0
C2357 C 0.74896 0.78072 0.10382 0.0
H2358 H 0.20102 0.70453 0.38797 0.0
H2359 H 0.25399 0.63907 0.38935 0.0
H2360 H 0.28811 0.66746 0.40685 0.0
H2361 H 0.24727 0.75041 0.36566 0.0
H2362 H 0.23456 0.77703 0.38454 0.0
H2363 H 0.21342 0.75103 0.37433 0.0
H2364 H 0.19997 0.74307 0.42211 0.0
H2365 H 0.22111 0.76906 0.43248 0.0
H2366 H 0.2246 0.73704 0.44609 0.0
H2367 H 0.31752 0.70353 0.42222 0.0
H2368 H 0.33986 0.74474 0.43315 0.0
H2369 H 0.26837 0.78685 0.4201 0.0
C2370 C 0.21972 0.69603 0.39196 0.0
C2371 C 0.22445 0.66932 0.38733 0.0
C2372 C 0.24936 0.6592 0.39308 0.0
C2373 C 0.26907 0.67527 0.40295 0.0
C2374 C 0.26374 0.70148 0.40696 0.0
C2375 C 0.23969 0.71181 0.4016 0.0
C2376 C 0.23935 0.74088 0.40637 0.0
C2377 C 0.2333 0.7557 0.38123 0.0
C2378 C 0.22012 0.74792 0.42806 0.0
C2379 C 0.26708 0.74534 0.41492 0.0
C2380 C 0.28079 0.72233 0.41536 0.0
C2381 C 0.30694 0.72165 0.42208 0.0
C2382 C 0.31946 0.74514 0.42828 0.0
C2383 C 0.30586 0.76898 0.42753 0.0
C2384 C 0.27928 0.76893 0.42096 0.0
H2385 H 0.7115 0.2698 0.42224 0.0
H2386 H 0.7706 0.21204 0.43706 0.0
H2387 H 0.80433 0.24287 0.42271 0.0
H2388 H 0.73817 0.29235 0.36456 0.0
H2389 H 0.73013 0.32611 0.3692 0.0
H2390 H 0.71076 0.30125 0.38434 0.0
H2391 H 0.71856 0.32243 0.42931 0.0
H2392 H 0.73786 0.34751 0.41428 0.0
H2393 H 0.75126 0.32835 0.44018 0.0
H2394 H 0.83087 0.27698 0.40183 0.0
H2395 H 0.84908 0.31348 0.37655 0.0
H2396 H 0.77375 0.35023 0.37506 0.0
C2397 C 0.73164 0.26405 0.42327 0.0
C2398 C 0.73854 0.23867 0.43108 0.0
C2399 C 0.76496 0.23145 0.43131 0.0
C2400 C 0.78426 0.24884 0.42324 0.0
C2401 C 0.77685 0.27344 0.41493 0.0
C2402 C 0.75123 0.2812 0.415 0.0
C2403 C 0.74846 0.30794 0.40287 0.0
C2404 C 0.73084 0.30683 0.37882 0.0
C2405 C 0.73845 0.32773 0.42286 0.0
C2406 C 0.77642 0.31363 0.39546 0.0
C2407 C 0.79242 0.29347 0.40279 0.0
C2408 C 0.81865 0.29312 0.3964 0.0
C2409 C 0.82881 0.3138 0.38197 0.0
C2410 C 0.81287 0.33465 0.37418 0.0
C2411 C 0.78641 0.33476 0.38135 0.0
loop_
_geom_bond_atom_site_label_1
_geom_bond_atom_site_label_2
_geom_bond_distance
_geom_bond_site_symmetry_2
_ccdc_geom_bond_type
Co0 N4 2.148 . S
Co0 N10 2.128 . S
Co0 N20 2.194 . S
Co0 O25 2.351 . S
Co0 O26 2.155 . S
Co0 O27 2.096 . S
C1 N4 1.301 . S
C1 N5 1.328 . S
C1 H6 0.930 . S
C2 C3 1.333 . S
C2 N4 1.317 . S
C2 H7 0.930 . S
C3 C2 1.333 . S
C3 N5 1.350 . S
C3 H29 0.931 . S
N4 Co0 2.148 . S
N4 C1 1.301 . S
N4 C2 1.317 . S
N5 C1 1.328 . S
N5 C3 1.350 . S
H6 C1 0.930 . S
H7 C2 0.930 . S
C8 O9 1.224 . S
C8 O27 1.247 . S
O9 C8 1.224 . S
N10 Co0 2.128 . S
N10 C11 1.355 . S
N10 C13 1.311 . S
C11 N10 1.355 . S
C11 C12 1.363 1_455 S
C11 H23 0.929 . S
C12 C11 1.363 1_655 S
C12 N14 1.375 1_655 S
C12 H30 0.931 . S
C13 N10 1.311 . S
C13 N14 1.347 . S
C13 H24 0.929 . S
N14 C12 1.375 1_455 S
N14 C13 1.347 . S
C15 C18 1.365 . S
C15 N20 1.328 . S
C15 H21 0.929 . S
C16 C17 1.362 . S
C16 C19 1.378 . S
C16 H31 0.929 . S
C17 C16 1.362 . S
C17 C18 1.366 . S
C18 C15 1.365 . S
C18 C17 1.366 . S
C18 H32 0.930 . S
C19 C16 1.378 . S
C19 N20 1.315 . S
C19 H22 0.930 . S
N20 Co0 2.194 . S
N20 C15 1.328 . S
N20 C19 1.315 . S
H21 C15 0.929 . S
H22 C19 0.930 . S
H23 C11 0.929 . S
H24 C13 0.929 . S
O25 Co0 2.351 . S
O25 C28 1.244 . S
O26 Co0 2.155 . S
O26 C28 1.240 . S
O27 Co0 2.096 . S
O27 C8 1.247 . S
C28 O25 1.244 . S
C28 O26 1.240 . S
H29 C3 0.931 . S
H30 C12 0.931 . S
H31 C16 0.929 . S
H32 C18 0.930 . S
Co33 N37 2.148 . S
Co33 N43 2.128 . S
Co33 N53 2.194 . S
Co33 O58 2.351 . S
Co33 O59 2.155 . S
Co33 O60 2.096 . S
C34 N37 1.301 . S
C34 N38 1.328 . S
C34 H39 0.930 . S
C35 C36 1.333 . S
C35 N37 1.317 . S
C35 H40 0.930 . S
C36 C35 1.333 . S
C36 N38 1.350 . S
C36 H62 0.931 . S
N37 Co33 2.148 . S
N37 C34 1.301 . S
N37 C35 1.317 . S
N38 C34 1.328 . S
N38 C36 1.350 . S
H39 C34 0.930 . S
H40 C35 0.930 . S
C41 O42 1.224 . S
C41 O60 1.247 . S
O42 C41 1.224 . S
N43 Co33 2.128 . S
N43 C44 1.355 . S
N43 C46 1.311 . S
C44 N43 1.355 . S
C44 C45 1.363 . S
C44 H56 0.929 . S
C45 C44 1.363 . S
C45 N47 1.375 . S
C45 H63 0.931 . S
C46 N43 1.311 . S
C46 N47 1.347 . S
C46 H57 0.929 . S
N47 C45 1.375 . S
N47 C46 1.347 . S
C48 C51 1.365 . S
C48 N53 1.328 . S
C48 H54 0.929 . S
C49 C50 1.362 . S
C49 C52 1.378 . S
C49 H64 0.929 . S
C50 C49 1.362 . S
C50 C51 1.366 . S
C51 C48 1.365 . S
C51 C50 1.366 . S
C51 H65 0.930 . S
C52 C49 1.378 . S
C52 N53 1.315 . S
C52 H55 0.930 . S
N53 Co33 2.194 . S
N53 C48 1.328 . S
N53 C52 1.315 . S
H54 C48 0.929 . S
H55 C52 0.930 . S
H56 C44 0.929 . S
H57 C46 0.929 . S
O58 Co33 2.351 . S
O58 C61 1.244 . S
O59 Co33 2.155 . S
O59 C61 1.240 . S
O60 Co33 2.096 . S
O60 C41 1.247 . S
C61 O58 1.244 . S
C61 O59 1.240 . S
H62 C36 0.931 . S
H63 C45 0.931 . S
H64 C49 0.929 . S
H65 C51 0.930 . S
Co66 N70 2.148 . S
Co66 N76 2.128 . S
Co66 N86 2.194 . S
Co66 O91 2.351 . S
Co66 O92 2.155 . S
Co66 O93 2.096 . S
C67 N70 1.301 . S
C67 N71 1.328 . S
C67 H72 0.930 . S
C68 C69 1.333 . S
C68 N70 1.317 . S
C68 H73 0.930 . S
C69 C68 1.333 . S
C69 N71 1.350 . S
C69 H95 0.931 . S
N70 Co66 2.148 . S
N70 C67 1.301 . S
N70 C68 1.317 . S
N71 C67 1.328 . S
N71 C69 1.350 . S
H72 C67 0.930 . S
H73 C68 0.930 . S
C74 O75 1.224 . S
C74 O93 1.247 . S
O75 C74 1.224 . S
N76 Co66 2.128 . S
N76 C77 1.355 . S
N76 C79 1.311 . S
C77 N76 1.355 . S
C77 C78 1.363 1_655 S
C77 H89 0.929 . S
C78 C77 1.363 1_455 S
C78 N80 1.375 1_455 S
C78 H96 0.931 . S
C79 N76 1.311 . S
C79 N80 1.347 . S
C79 H90 0.929 . S
N80 C78 1.375 1_655 S
N80 C79 1.347 . S
C81 C84 1.365 . S
C81 N86 1.328 . S
C81 H87 0.929 . S
C82 C83 1.362 . S
C82 C85 1.378 . S
C82 H97 0.929 . S
C83 C82 1.362 . S
C83 C84 1.366 . S
C84 C81 1.365 . S
C84 C83 1.366 . S
C84 H98 0.930 . S
C85 C82 1.378 . S
C85 N86 1.315 . S
C85 H88 0.930 . S
N86 Co66 2.194 . S
N86 C81 1.328 . S
N86 C85 1.315 . S
H87 C81 0.929 . S
H88 C85 0.930 . S
H89 C77 0.929 . S
H90 C79 0.929 . S
O91 Co66 2.351 . S
O91 C94 1.244 . S
O92 Co66 2.155 . S
O92 C94 1.240 . S
O93 Co66 2.096 . S
O93 C74 1.247 . S
C94 O91 1.244 . S
C94 O92 1.240 . S
H95 C69 0.931 . S
H96 C78 0.931 . S
H97 C82 0.929 . S
H98 C84 0.930 . S
Co99 N103 2.148 . S
Co99 N109 2.128 . S
Co99 N119 2.194 . S
Co99 O124 2.351 . S
Co99 O125 2.155 . S
Co99 O126 2.096 . S
C100 N103 1.301 . S
C100 N104 1.328 . S
C100 H105 0.930 . S
C101 C102 1.333 . S
C101 N103 1.317 . S
C101 H106 0.930 . S
C102 C101 1.333 . S
C102 N104 1.350 . S
C102 H128 0.931 . S
N103 Co99 2.148 . S
N103 C100 1.301 . S
N103 C101 1.317 . S
N104 C100 1.328 . S
N104 C102 1.350 . S
H105 C100 0.930 . S
H106 C101 0.930 . S
C107 O108 1.224 . S
C107 O126 1.247 . S
O108 C107 1.224 . S
N109 Co99 2.128 . S
N109 C110 1.355 . S
N109 C112 1.311 . S
C110 N109 1.355 . S
C110 C111 1.363 . S
C110 H122 0.929 . S
C111 C110 1.363 . S
C111 N113 1.375 . S
C111 H129 0.931 . S
C112 N109 1.311 . S
C112 N113 1.347 . S
C112 H123 0.929 . S
N113 C111 1.375 . S
N113 C112 1.347 . S
C114 C117 1.365 . S
C114 N119 1.328 . S
C114 H120 0.929 . S
C115 C116 1.362 . S
C115 C118 1.378 . S
C115 H130 0.929 . S
C116 C115 1.362 . S
C116 C117 1.366 . S
C117 C114 1.365 . S
C117 C116 1.366 . S
C117 H131 0.930 . S
C118 C115 1.378 . S
C118 N119 1.315 . S
C118 H121 0.930 . S
N119 Co99 2.194 . S
N119 C114 1.328 . S
N119 C118 1.315 . S
H120 C114 0.929 . S
H121 C118 0.930 . S
H122 C110 0.929 . S
H123 C112 0.929 . S
O124 Co99 2.351 . S
O124 C127 1.244 . S
O125 Co99 2.155 . S
O125 C127 1.240 . S
O126 Co99 2.096 . S
O126 C107 1.247 . S
C127 O124 1.244 . S
C127 O125 1.240 . S
H128 C102 0.931 . S
H129 C111 0.931 . S
H130 C115 0.929 . S
H131 C117 0.930 . S
Co132 N136 2.148 . S
Co132 N142 2.128 . S
Co132 N152 2.194 . S
Co132 O157 2.351 . S
Co132 O158 2.155 . S
Co132 O159 2.096 . S
C133 N136 1.301 . S
C133 N137 1.328 . S
C133 H138 0.930 . S
C134 C135 1.333 . S
C134 N136 1.317 . S
C134 H139 0.930 . S
C135 C134 1.333 . S
C135 N137 1.350 . S
C135 H161 0.931 . S
N136 Co132 2.148 . S
N136 C133 1.301 . S
N136 C134 1.317 . S
N137 C133 1.328 . S
N137 C135 1.350 . S
H138 C133 0.930 . S
H139 C134 0.930 . S
C140 O141 1.224 . S
C140 O159 1.247 . S
O141 C140 1.224 . S
N142 Co132 2.128 . S
N142 C143 1.355 . S
N142 C145 1.311 . S
C143 N142 1.355 . S
C143 C144 1.363 1_455 S
C143 H155 0.929 . S
C144 C143 1.363 1_655 S
C144 N146 1.375 1_655 S
C144 H162 0.931 . S
C145 N142 1.311 . S
C145 N146 1.347 . S
C145 H156 0.929 . S
N146 C144 1.375 1_455 S
N146 C145 1.347 . S
C147 C150 1.365 . S
C147 N152 1.328 . S
C147 H153 0.929 . S
C148 C149 1.362 . S
C148 C151 1.378 . S
C148 H163 0.929 . S
C149 C148 1.362 . S
C149 C150 1.366 . S
C150 C147 1.365 . S
C150 C149 1.366 . S
C150 H164 0.930 . S
C151 C148 1.378 . S
C151 N152 1.315 . S
C151 H154 0.930 . S
N152 Co132 2.194 . S
N152 C147 1.328 . S
N152 C151 1.315 . S
H153 C147 0.929 . S
H154 C151 0.930 . S
H155 C143 0.929 . S
H156 C145 0.929 . S
O157 Co132 2.351 . S
O157 C160 1.244 . S
O158 Co132 2.155 . S
O158 C160 1.240 . S
O159 Co132 2.096 . S
O159 C140 1.247 . S
C160 O157 1.244 . S
C160 O158 1.240 . S
H161 C135 0.931 . S
H162 C144 0.931 . S
H163 C148 0.929 . S
H164 C150 0.930 . S
Co165 N169 2.148 . S
Co165 N175 2.128 . S
Co165 N185 2.194 . S
Co165 O190 2.351 . S
Co165 O191 2.155 . S
Co165 O192 2.096 . S
C166 N169 1.301 . S
C166 N170 1.328 . S
C166 H171 0.930 . S
C167 C168 1.333 . S
C167 N169 1.317 . S
C167 H172 0.930 . S
C168 C167 1.333 . S
C168 N170 1.350 . S
C168 H194 0.931 . S
N169 Co165 2.148 . S
N169 C166 1.301 . S
N169 C167 1.317 . S
N170 C166 1.328 . S
N170 C168 1.350 . S
H171 C166 0.930 . S
H172 C167 0.930 . S
C173 O174 1.224 . S
C173 O192 1.247 . S
O174 C173 1.224 . S
N175 Co165 2.128 . S
N175 C176 1.355 . S
N175 C178 1.311 . S
C176 N175 1.355 . S
C176 C177 1.363 . S
C176 H188 0.929 . S
C177 C176 1.363 . S
C177 N179 1.375 . S
C177 H195 0.931 . S
C178 N175 1.311 . S
C178 N179 1.347 . S
C178 H189 0.929 . S
N179 C177 1.375 . S
N179 C178 1.347 . S
C180 C183 1.365 . S
C180 N185 1.328 . S
C180 H186 0.929 . S
C181 C182 1.362 . S
C181 C184 1.378 . S
C181 H196 0.929 . S
C182 C181 1.362 . S
C182 C183 1.366 . S
C183 C180 1.365 . S
C183 C182 1.366 . S
C183 H197 0.930 . S
C184 C181 1.378 . S
C184 N185 1.315 . S
C184 H187 0.930 . S
N185 Co165 2.194 . S
N185 C180 1.328 . S
N185 C184 1.315 . S
H186 C180 0.929 . S
H187 C184 0.930 . S
H188 C176 0.929 . S
H189 C178 0.929 . S
O190 Co165 2.351 . S
O190 C193 1.244 . S
O191 Co165 2.155 . S
O191 C193 1.240 . S
O192 Co165 2.096 . S
O192 C173 1.247 . S
C193 O190 1.244 . S
C193 O191 1.240 . S
H194 C168 0.931 . S
H195 C177 0.931 . S
H196 C181 0.929 . S
H197 C183 0.930 . S
Co198 N202 2.148 . S
Co198 N208 2.128 . S
Co198 N218 2.194 . S
Co198 O223 2.351 . S
Co198 O224 2.155 . S
Co198 O225 2.096 . S
C199 N202 1.301 . S
C199 N203 1.328 . S
C199 H204 0.930 . S
C200 C201 1.333 . S
C200 N202 1.317 . S
C200 H205 0.930 . S
C201 C200 1.333 . S
C201 N203 1.350 . S
C201 H227 0.931 . S
N202 Co198 2.148 . S
N202 C199 1.301 . S
N202 C200 1.317 . S
N203 C199 1.328 . S
N203 C201 1.350 . S
H204 C199 0.930 . S
H205 C200 0.930 . S
C206 O207 1.224 . S
C206 O225 1.247 . S
O207 C206 1.224 . S
N208 Co198 2.128 . S
N208 C209 1.355 . S
N208 C211 1.311 . S
C209 N208 1.355 . S
C209 C210 1.363 1_655 S
C209 H221 0.929 . S
C210 C209 1.363 1_455 S
C210 N212 1.375 1_455 S
C210 H228 0.931 . S
C211 N208 1.311 . S
C211 N212 1.347 . S
C211 H222 0.929 . S
N212 C210 1.375 1_655 S
N212 C211 1.347 . S
C213 C216 1.365 . S
C213 N218 1.328 . S
C213 H219 0.929 . S
C214 C215 1.362 . S
C214 C217 1.378 . S
C214 H229 0.929 . S
C215 C214 1.362 . S
C215 C216 1.366 . S
C216 C213 1.365 . S
C216 C215 1.366 . S
C216 H230 0.930 . S
C217 C214 1.378 . S
C217 N218 1.315 . S
C217 H220 0.930 . S
N218 Co198 2.194 . S
N218 C213 1.328 . S
N218 C217 1.315 . S
H219 C213 0.929 . S
H220 C217 0.930 . S
H221 C209 0.929 . S
H222 C211 0.929 . S
O223 Co198 2.351 . S
O223 C226 1.244 . S
O224 Co198 2.155 . S
O224 C226 1.240 . S
O225 Co198 2.096 . S
O225 C206 1.247 . S
C226 O223 1.244 . S
C226 O224 1.240 . S
H227 C201 0.931 . S
H228 C210 0.931 . S
H229 C214 0.929 . S
H230 C216 0.930 . S
Co231 N235 2.148 . S
Co231 N241 2.128 . S
Co231 N251 2.194 . S
Co231 O256 2.351 . S
Co231 O257 2.155 . S
Co231 O258 2.096 . S
C232 N235 1.301 . S
C232 N236 1.328 . S
C232 H237 0.930 . S
C233 C234 1.333 . S
C233 N235 1.317 . S
C233 H238 0.930 . S
C234 C233 1.333 . S
C234 N236 1.350 . S
C234 H260 0.931 . S
N235 Co231 2.148 . S
N235 C232 1.301 . S
N235 C233 1.317 . S
N236 C232 1.328 . S
N236 C234 1.350 . S
H237 C232 0.930 . S
H238 C233 0.930 . S
C239 O240 1.224 . S
C239 O258 1.247 . S
O240 C239 1.224 . S
N241 Co231 2.128 . S
N241 C242 1.355 . S
N241 C244 1.311 . S
C242 N241 1.355 . S
C242 C243 1.363 . S
C242 H254 0.929 . S
C243 C242 1.363 . S
C243 N245 1.375 . S
C243 H261 0.931 . S
C244 N241 1.311 . S
C244 N245 1.347 . S
C244 H255 0.929 . S
N245 C243 1.375 . S
N245 C244 1.347 . S
C246 C249 1.365 . S
C246 N251 1.328 . S
C246 H252 0.929 . S
C247 C248 1.362 . S
C247 C250 1.378 . S
C247 H262 0.929 . S
C248 C247 1.362 . S
C248 C249 1.366 . S
C249 C246 1.365 . S
C249 C248 1.366 . S
C249 H263 0.930 . S
C250 C247 1.378 . S
C250 N251 1.315 . S
C250 H253 0.930 . S
N251 Co231 2.194 . S
N251 C246 1.328 . S
N251 C250 1.315 . S
H252 C246 0.929 . S
H253 C250 0.930 . S
H254 C242 0.929 . S
H255 C244 0.929 . S
O256 Co231 2.351 . S
O256 C259 1.244 . S
O257 Co231 2.155 . S
O257 C259 1.240 . S
O258 Co231 2.096 . S
O258 C239 1.247 . S
C259 O256 1.244 . S
C259 O257 1.240 . S
H260 C234 0.931 . S
H261 C243 0.931 . S
H262 C247 0.929 . S
H263 C249 0.930 . S
Co264 N268 2.148 . S
Co264 N274 2.128 . S
Co264 N284 2.194 . S
Co264 O289 2.351 . S
Co264 O290 2.155 . S
Co264 O291 2.096 . S
C265 N268 1.301 . S
C265 N269 1.328 . S
C265 H270 0.930 . S
C266 C267 1.333 . S
C266 N268 1.317 . S
C266 H271 0.930 . S
C267 C266 1.333 . S
C267 N269 1.350 . S
C267 H293 0.931 . S
N268 Co264 2.148 . S
N268 C265 1.301 . S
N268 C266 1.317 . S
N269 C265 1.328 . S
N269 C267 1.350 . S
H270 C265 0.930 . S
H271 C266 0.930 . S
C272 O273 1.224 . S
C272 O291 1.247 . S
O273 C272 1.224 . S
N274 Co264 2.128 . S
N274 C275 1.355 . S
N274 C277 1.311 . S
C275 N274 1.355 . S
C275 C276 1.363 1_545 S
C275 H287 0.929 . S
C276 C275 1.363 1_565 S
C276 N278 1.375 1_565 S
C276 H294 0.931 . S
C277 N274 1.311 . S
C277 N278 1.347 . S
C277 H288 0.929 . S
N278 C276 1.375 1_545 S
N278 C277 1.347 . S
C279 C282 1.365 . S
C279 N284 1.328 . S
C279 H285 0.929 . S
C280 C281 1.362 . S
C280 C283 1.378 . S
C280 H295 0.929 . S
C281 C280 1.362 . S
C281 C282 1.366 . S
C282 C279 1.365 . S
C282 C281 1.366 . S
C282 H296 0.930 . S
C283 C280 1.378 . S
C283 N284 1.315 . S
C283 H286 0.930 . S
N284 Co264 2.194 . S
N284 C279 1.328 . S
N284 C283 1.315 . S
H285 C279 0.929 . S
H286 C283 0.930 . S
H287 C275 0.929 . S
H288 C277 0.929 . S
O289 Co264 2.351 . S
O289 C292 1.244 . S
O290 Co264 2.155 . S
O290 C292 1.240 . S
O291 Co264 2.096 . S
O291 C272 1.247 . S
C292 O289 1.244 . S
C292 O290 1.240 . S
H293 C267 0.931 . S
H294 C276 0.931 . S
H295 C280 0.929 . S
H296 C282 0.930 . S
Co297 N301 2.148 . S
Co297 N307 2.128 . S
Co297 N317 2.194 . S
Co297 O322 2.351 . S
Co297 O323 2.155 . S
Co297 O324 2.096 . S
C298 N301 1.301 . S
C298 N302 1.328 . S
C298 H303 0.930 . S
C299 C300 1.333 . S
C299 N301 1.317 . S
C299 H304 0.930 . S
C300 C299 1.333 . S
C300 N302 1.350 . S
C300 H326 0.931 . S
N301 Co297 2.148 . S
N301 C298 1.301 . S
N301 C299 1.317 . S
N302 C298 1.328 . S
N302 C300 1.350 . S
H303 C298 0.930 . S
H304 C299 0.930 . S
C305 O306 1.224 . S
C305 O324 1.247 . S
O306 C305 1.224 . S
N307 Co297 2.128 . S
N307 C308 1.355 . S
N307 C310 1.311 . S
C308 N307 1.355 . S
C308 C309 1.363 . S
C308 H320 0.929 . S
C309 C308 1.363 . S
C309 N311 1.375 . S
C309 H327 0.931 . S
C310 N307 1.311 . S
C310 N311 1.347 . S
C310 H321 0.929 . S
N311 C309 1.375 . S
N311 C310 1.347 . S
C312 C315 1.365 . S
C312 N317 1.328 . S
C312 H318 0.929 . S
C313 C314 1.362 . S
C313 C316 1.378 . S
C313 H328 0.929 . S
C314 C313 1.362 . S
C314 C315 1.366 . S
C315 C312 1.365 . S
C315 C314 1.366 . S
C315 H329 0.930 . S
C316 C313 1.378 . S
C316 N317 1.315 . S
C316 H319 0.930 . S
N317 Co297 2.194 . S
N317 C312 1.328 . S
N317 C316 1.315 . S
H318 C312 0.929 . S
H319 C316 0.930 . S
H320 C308 0.929 . S
H321 C310 0.929 . S
O322 Co297 2.351 . S
O322 C325 1.244 . S
O323 Co297 2.155 . S
O323 C325 1.240 . S
O324 Co297 2.096 . S
O324 C305 1.247 . S
C325 O322 1.244 . S
C325 O323 1.240 . S
H326 C300 0.931 . S
H327 C309 0.931 . S
H328 C313 0.929 . S
H329 C315 0.930 . S
Co330 N334 2.148 . S
Co330 N340 2.128 . S
Co330 N350 2.194 . S
Co330 O355 2.351 . S
Co330 O356 2.155 . S
Co330 O357 2.096 . S
C331 N334 1.301 . S
C331 N335 1.328 . S
C331 H336 0.930 . S
C332 C333 1.333 . S
C332 N334 1.317 . S
C332 H337 0.930 . S
C333 C332 1.333 . S
C333 N335 1.350 . S
C333 H359 0.931 . S
N334 Co330 2.148 . S
N334 C331 1.301 . S
N334 C332 1.317 . S
N335 C331 1.328 . S
N335 C333 1.350 . S
H336 C331 0.930 . S
H337 C332 0.930 . S
C338 O339 1.224 . S
C338 O357 1.247 . S
O339 C338 1.224 . S
N340 Co330 2.128 . S
N340 C341 1.355 . S
N340 C343 1.311 . S
C341 N340 1.355 . S
C341 C342 1.363 1_565 S
C341 H353 0.929 . S
C342 C341 1.363 1_545 S
C342 N344 1.375 1_545 S
C342 H360 0.931 . S
C343 N340 1.311 . S
C343 N344 1.347 . S
C343 H354 0.929 . S
N344 C342 1.375 1_565 S
N344 C343 1.347 . S
C345 C348 1.365 . S
C345 N350 1.328 . S
C345 H351 0.929 . S
C346 C347 1.362 . S
C346 C349 1.378 . S
C346 H361 0.929 . S
C347 C346 1.362 . S
C347 C348 1.366 . S
C348 C345 1.365 . S
C348 C347 1.366 . S
C348 H362 0.930 . S
C349 C346 1.378 . S
C349 N350 1.315 . S
C349 H352 0.930 . S
N350 Co330 2.194 . S
N350 C345 1.328 . S
N350 C349 1.315 . S
H351 C345 0.929 . S
H352 C349 0.930 . S
H353 C341 0.929 . S
H354 C343 0.929 . S
O355 Co330 2.351 . S
O355 C358 1.244 . S
O356 Co330 2.155 . S
O356 C358 1.240 . S
O357 Co330 2.096 . S
O357 C338 1.247 . S
C358 O355 1.244 . S
C358 O356 1.240 . S
H359 C333 0.931 . S
H360 C342 0.931 . S
H361 C346 0.929 . S
H362 C348 0.930 . S
Co363 N367 2.148 . S
Co363 N373 2.128 . S
Co363 N383 2.194 . S
Co363 O388 2.351 . S
Co363 O389 2.155 . S
Co363 O390 2.096 . S
C364 N367 1.301 . S
C364 N368 1.328 . S
C364 H369 0.930 . S
C365 C366 1.333 . S
C365 N367 1.317 . S
C365 H370 0.930 . S
C366 C365 1.333 . S
C366 N368 1.350 . S
C366 H392 0.931 . S
N367 Co363 2.148 . S
N367 C364 1.301 . S
N367 C365 1.317 . S
N368 C364 1.328 . S
N368 C366 1.350 . S
H369 C364 0.930 . S
H370 C365 0.930 . S
C371 O372 1.224 . S
C371 O390 1.247 . S
O372 C371 1.224 . S
N373 Co363 2.128 . S
N373 C374 1.355 . S
N373 C376 1.311 . S
C374 N373 1.355 . S
C374 C375 1.363 . S
C374 H386 0.929 . S
C375 C374 1.363 . S
C375 N377 1.375 . S
C375 H393 0.931 . S
C376 N373 1.311 . S
C376 N377 1.347 . S
C376 H387 0.929 . S
N377 C375 1.375 . S
N377 C376 1.347 . S
C378 C381 1.365 . S
C378 N383 1.328 . S
C378 H384 0.929 . S
C379 C380 1.362 . S
C379 C382 1.378 . S
C379 H394 0.929 . S
C380 C379 1.362 . S
C380 C381 1.366 . S
C381 C378 1.365 . S
C381 C380 1.366 . S
C381 H395 0.930 . S
C382 C379 1.378 . S
C382 N383 1.315 . S
C382 H385 0.930 . S
N383 Co363 2.194 . S
N383 C378 1.328 . S
N383 C382 1.315 . S
H384 C378 0.929 . S
H385 C382 0.930 . S
H386 C374 0.929 . S
H387 C376 0.929 . S
O388 Co363 2.351 . S
O388 C391 1.244 . S
O389 Co363 2.155 . S
O389 C391 1.240 . S
O390 Co363 2.096 . S
O390 C371 1.247 . S
C391 O388 1.244 . S
C391 O389 1.240 . S
H392 C366 0.931 . S
H393 C375 0.931 . S
H394 C379 0.929 . S
H395 C381 0.930 . S
Co396 N400 2.148 . S
Co396 N406 2.128 . S
Co396 N416 2.194 . S
Co396 O421 2.351 . S
Co396 O422 2.155 . S
Co396 O423 2.096 . S
C397 N400 1.301 . S
C397 N401 1.328 . S
C397 H402 0.930 . S
C398 C399 1.333 . S
C398 N400 1.317 . S
C398 H403 0.930 . S
C399 C398 1.333 . S
C399 N401 1.350 . S
C399 H425 0.931 . S
N400 Co396 2.148 . S
N400 C397 1.301 . S
N400 C398 1.317 . S
N401 C397 1.328 . S
N401 C399 1.350 . S
H402 C397 0.930 . S
H403 C398 0.930 . S
C404 O405 1.224 . S
C404 O423 1.247 . S
O405 C404 1.224 . S
N406 Co396 2.128 . S
N406 C407 1.355 . S
N406 C409 1.311 . S
C407 N406 1.355 . S
C407 C408 1.363 1_565 S
C407 H419 0.929 . S
C408 C407 1.363 1_545 S
C408 N410 1.375 1_545 S
C408 H426 0.931 . S
C409 N406 1.311 . S
C409 N410 1.347 . S
C409 H420 0.929 . S
N410 C408 1.375 1_565 S
N410 C409 1.347 . S
C411 C414 1.365 . S
C411 N416 1.328 . S
C411 H417 0.929 . S
C412 C413 1.362 . S
C412 C415 1.378 . S
C412 H427 0.929 . S
C413 C412 1.362 . S
C413 C414 1.366 . S
C414 C411 1.365 . S
C414 C413 1.366 . S
C414 H428 0.930 . S
C415 C412 1.378 . S
C415 N416 1.315 . S
C415 H418 0.930 . S
N416 Co396 2.194 . S
N416 C411 1.328 . S
N416 C415 1.315 . S
H417 C411 0.929 . S
H418 C415 0.930 . S
H419 C407 0.929 . S
H420 C409 0.929 . S
O421 Co396 2.351 . S
O421 C424 1.244 . S
O422 Co396 2.155 . S
O422 C424 1.240 . S
O423 Co396 2.096 . S
O423 C404 1.247 . S
C424 O421 1.244 . S
C424 O422 1.240 . S
H425 C399 0.931 . S
H426 C408 0.931 . S
H427 C412 0.929 . S
H428 C414 0.930 . S
Co429 N433 2.148 . S
Co429 N439 2.128 . S
Co429 N449 2.194 . S
Co429 O454 2.351 . S
Co429 O455 2.155 . S
Co429 O456 2.096 . S
C430 N433 1.301 . S
C430 N434 1.328 . S
C430 H435 0.930 . S
C431 C432 1.333 . S
C431 N433 1.317 . S
C431 H436 0.930 . S
C432 C431 1.333 . S
C432 N434 1.350 . S
C432 H458 0.931 . S
N433 Co429 2.148 . S
N433 C430 1.301 . S
N433 C431 1.317 . S
N434 C430 1.328 . S
N434 C432 1.350 . S
H435 C430 0.930 . S
H436 C431 0.930 . S
C437 O438 1.224 . S
C437 O456 1.247 . S
O438 C437 1.224 . S
N439 Co429 2.128 . S
N439 C440 1.355 . S
N439 C442 1.311 . S
C440 N439 1.355 . S
C440 C441 1.363 . S
C440 H452 0.929 . S
C441 C440 1.363 . S
C441 N443 1.375 . S
C441 H459 0.931 . S
C442 N439 1.311 . S
C442 N443 1.347 . S
C442 H453 0.929 . S
N443 C441 1.375 . S
N443 C442 1.347 . S
C444 C447 1.365 . S
C444 N449 1.328 . S
C444 H450 0.929 . S
C445 C446 1.362 . S
C445 C448 1.378 . S
C445 H460 0.929 . S
C446 C445 1.362 . S
C446 C447 1.366 . S
C447 C444 1.365 . S
C447 C446 1.366 . S
C447 H461 0.930 . S
C448 C445 1.378 . S
C448 N449 1.315 . S
C448 H451 0.930 . S
N449 Co429 2.194 . S
N449 C444 1.328 . S
N449 C448 1.315 . S
H450 C444 0.929 . S
H451 C448 0.930 . S
H452 C440 0.929 . S
H453 C442 0.929 . S
O454 Co429 2.351 . S
O454 C457 1.244 . S
O455 Co429 2.155 . S
O455 C457 1.240 . S
O456 Co429 2.096 . S
O456 C437 1.247 . S
C457 O454 1.244 . S
C457 O455 1.240 . S
H458 C432 0.931 . S
H459 C441 0.931 . S
H460 C445 0.929 . S
H461 C447 0.930 . S
Co462 N466 2.148 . S
Co462 N472 2.128 . S
Co462 N482 2.194 . S
Co462 O487 2.351 . S
Co462 O488 2.155 . S
Co462 O489 2.096 . S
C463 N466 1.301 . S
C463 N467 1.328 . S
C463 H468 0.930 . S
C464 C465 1.333 . S
C464 N466 1.317 . S
C464 H469 0.930 . S
C465 C464 1.333 . S
C465 N467 1.350 . S
C465 H491 0.931 . S
N466 Co462 2.148 . S
N466 C463 1.301 . S
N466 C464 1.317 . S
N467 C463 1.328 . S
N467 C465 1.350 . S
H468 C463 0.930 . S
H469 C464 0.930 . S
C470 O471 1.224 . S
C470 O489 1.247 . S
O471 C470 1.224 . S
N472 Co462 2.128 . S
N472 C473 1.355 . S
N472 C475 1.311 . S
C473 N472 1.355 . S
C473 C474 1.363 1_545 S
C473 H485 0.929 . S
C474 C473 1.363 1_565 S
C474 N476 1.375 1_565 S
C474 H492 0.931 . S
C475 N472 1.311 . S
C475 N476 1.347 . S
C475 H486 0.929 . S
N476 C474 1.375 1_545 S
N476 C475 1.347 . S
C477 C480 1.365 . S
C477 N482 1.328 . S
C477 H483 0.929 . S
C478 C479 1.362 . S
C478 C481 1.378 . S
C478 H493 0.929 . S
C479 C478 1.362 . S
C479 C480 1.366 . S
C480 C477 1.365 . S
C480 C479 1.366 . S
C480 H494 0.930 . S
C481 C478 1.378 . S
C481 N482 1.315 . S
C481 H484 0.930 . S
N482 Co462 2.194 . S
N482 C477 1.328 . S
N482 C481 1.315 . S
H483 C477 0.929 . S
H484 C481 0.930 . S
H485 C473 0.929 . S
H486 C475 0.929 . S
O487 Co462 2.351 . S
O487 C490 1.244 . S
O488 Co462 2.155 . S
O488 C490 1.240 . S
O489 Co462 2.096 . S
O489 C470 1.247 . S
C490 O487 1.244 . S
C490 O488 1.240 . S
H491 C465 0.931 . S
H492 C474 0.931 . S
H493 C478 0.929 . S
H494 C480 0.930 . S
Co495 N499 2.148 . S
Co495 N505 2.128 . S
Co495 N515 2.194 . S
Co495 O520 2.351 . S
Co495 O521 2.155 . S
Co495 O522 2.096 . S
C496 N499 1.301 . S
C496 N500 1.328 . S
C496 H501 0.930 . S
C497 C498 1.333 . S
C497 N499 1.317 . S
C497 H502 0.930 . S
C498 C497 1.333 . S
C498 N500 1.350 . S
C498 H524 0.931 . S
N499 Co495 2.148 . S
N499 C496 1.301 . S
N499 C497 1.317 . S
N500 C496 1.328 . S
N500 C498 1.350 . S
H501 C496 0.930 . S
H502 C497 0.930 . S
C503 O504 1.224 . S
C503 O522 1.247 . S
O504 C503 1.224 . S
N505 Co495 2.128 . S
N505 C506 1.355 . S
N505 C508 1.311 . S
C506 N505 1.355 . S
C506 C507 1.363 . S
C506 H518 0.929 . S
C507 C506 1.363 . S
C507 N509 1.375 . S
C507 H525 0.931 . S
C508 N505 1.311 . S
C508 N509 1.347 . S
C508 H519 0.929 . S
N509 C507 1.375 . S
N509 C508 1.347 . S
C510 C513 1.365 . S
C510 N515 1.328 . S
C510 H516 0.929 . S
C511 C512 1.362 . S
C511 C514 1.378 . S
C511 H526 0.929 . S
C512 C511 1.362 . S
C512 C513 1.366 . S
C513 C510 1.365 . S
C513 C512 1.366 . S
C513 H527 0.930 . S
C514 C511 1.378 . S
C514 N515 1.315 . S
C514 H517 0.930 . S
N515 Co495 2.194 . S
N515 C510 1.328 . S
N515 C514 1.315 . S
H516 C510 0.929 . S
H517 C514 0.930 . S
H518 C506 0.929 . S
H519 C508 0.929 . S
O520 Co495 2.351 . S
O520 C523 1.244 . S
O521 Co495 2.155 . S
O521 C523 1.240 . S
O522 Co495 2.096 . S
O522 C503 1.247 . S
C523 O520 1.244 . S
C523 O521 1.240 . S
H524 C498 0.931 . S
H525 C507 0.931 . S
H526 C511 0.929 . S
H527 C513 0.930 . S
Co528 N532 2.148 . S
Co528 N538 2.128 . S
Co528 N548 2.194 . S
Co528 O553 2.351 . S
Co528 O554 2.155 . S
Co528 O555 2.096 . S
C529 N532 1.301 . S
C529 N533 1.328 . S
C529 H534 0.930 . S
C530 C531 1.333 . S
C530 N532 1.317 . S
C530 H535 0.930 . S
C531 C530 1.333 . S
C531 N533 1.350 . S
C531 H557 0.931 . S
N532 Co528 2.148 . S
N532 C529 1.301 . S
N532 C530 1.317 . S
N533 C529 1.328 . S
N533 C531 1.350 . S
H534 C529 0.930 . S
H535 C530 0.930 . S
C536 O537 1.224 . S
C536 O555 1.247 . S
O537 C536 1.224 . S
N538 Co528 2.128 . S
N538 C539 1.355 . S
N538 C541 1.311 . S
C539 N538 1.355 . S
C539 C540 1.363 1_554 S
C539 H551 0.929 . S
C540 C539 1.363 1_556 S
C540 N542 1.375 1_556 S
C540 H558 0.931 . S
C541 N538 1.311 . S
C541 N542 1.347 . S
C541 H552 0.929 . S
N542 C540 1.375 1_554 S
N542 C541 1.347 . S
C543 C546 1.365 . S
C543 N548 1.328 . S
C543 H549 0.929 . S
C544 C545 1.362 . S
C544 C547 1.378 . S
C544 H559 0.929 . S
C545 C544 1.362 . S
C545 C546 1.366 . S
C546 C543 1.365 . S
C546 C545 1.366 . S
C546 H560 0.930 . S
C547 C544 1.378 . S
C547 N548 1.315 . S
C547 H550 0.930 . S
N548 Co528 2.194 . S
N548 C543 1.328 . S
N548 C547 1.315 . S
H549 C543 0.929 . S
H550 C547 0.930 . S
H551 C539 0.929 . S
H552 C541 0.929 . S
O553 Co528 2.351 . S
O553 C556 1.244 . S
O554 Co528 2.155 . S
O554 C556 1.240 . S
O555 Co528 2.096 . S
O555 C536 1.247 . S
C556 O553 1.244 . S
C556 O554 1.240 . S
H557 C531 0.931 . S
H558 C540 0.931 . S
H559 C544 0.929 . S
H560 C546 0.930 . S
Co561 N565 2.148 . S
Co561 N571 2.128 . S
Co561 N581 2.194 . S
Co561 O586 2.351 . S
Co561 O587 2.155 . S
Co561 O588 2.096 . S
C562 N565 1.301 . S
C562 N566 1.328 . S
C562 H567 0.930 . S
C563 C564 1.333 . S
C563 N565 1.317 . S
C563 H568 0.930 . S
C564 C563 1.333 . S
C564 N566 1.350 . S
C564 H590 0.931 . S
N565 Co561 2.148 . S
N565 C562 1.301 . S
N565 C563 1.317 . S
N566 C562 1.328 . S
N566 C564 1.350 . S
H567 C562 0.930 . S
H568 C563 0.930 . S
C569 O570 1.224 . S
C569 O588 1.247 . S
O570 C569 1.224 . S
N571 Co561 2.128 . S
N571 C572 1.355 . S
N571 C574 1.311 . S
C572 N571 1.355 . S
C572 C573 1.363 1_556 S
C572 H584 0.929 . S
C573 C572 1.363 1_554 S
C573 N575 1.375 1_554 S
C573 H591 0.931 . S
C574 N571 1.311 . S
C574 N575 1.347 . S
C574 H585 0.929 . S
N575 C573 1.375 1_556 S
N575 C574 1.347 . S
C576 C579 1.365 . S
C576 N581 1.328 . S
C576 H582 0.929 . S
C577 C578 1.362 . S
C577 C580 1.378 . S
C577 H592 0.929 . S
C578 C577 1.362 . S
C578 C579 1.366 . S
C579 C576 1.365 . S
C579 C578 1.366 . S
C579 H593 0.930 . S
C580 C577 1.378 . S
C580 N581 1.315 . S
C580 H583 0.930 . S
N581 Co561 2.194 . S
N581 C576 1.328 . S
N581 C580 1.315 . S
H582 C576 0.929 . S
H583 C580 0.930 . S
H584 C572 0.929 . S
H585 C574 0.929 . S
O586 Co561 2.351 . S
O586 C589 1.244 . S
O587 Co561 2.155 . S
O587 C589 1.240 . S
O588 Co561 2.096 . S
O588 C569 1.247 . S
C589 O586 1.244 . S
C589 O587 1.240 . S
H590 C564 0.931 . S
H591 C573 0.931 . S
H592 C577 0.929 . S
H593 C579 0.930 . S
Co594 N598 2.148 . S
Co594 N604 2.128 . S
Co594 N614 2.194 . S
Co594 O619 2.351 . S
Co594 O620 2.155 . S
Co594 O621 2.096 . S
C595 N598 1.301 . S
C595 N599 1.328 . S
C595 H600 0.930 . S
C596 C597 1.333 . S
C596 N598 1.317 . S
C596 H601 0.930 . S
C597 C596 1.333 . S
C597 N599 1.350 . S
C597 H623 0.931 . S
N598 Co594 2.148 . S
N598 C595 1.301 . S
N598 C596 1.317 . S
N599 C595 1.328 . S
N599 C597 1.350 . S
H600 C595 0.930 . S
H601 C596 0.930 . S
C602 O603 1.224 . S
C602 O621 1.247 . S
O603 C602 1.224 . S
N604 Co594 2.128 . S
N604 C605 1.355 . S
N604 C607 1.311 . S
C605 N604 1.355 . S
C605 C606 1.363 . S
C605 H617 0.929 . S
C606 C605 1.363 . S
C606 N608 1.375 . S
C606 H624 0.931 . S
C607 N604 1.311 . S
C607 N608 1.347 . S
C607 H618 0.929 . S
N608 C606 1.375 . S
N608 C607 1.347 . S
C609 C612 1.365 . S
C609 N614 1.328 . S
C609 H615 0.929 . S
C610 C611 1.362 . S
C610 C613 1.378 . S
C610 H625 0.929 . S
C611 C610 1.362 . S
C611 C612 1.366 . S
C612 C609 1.365 . S
C612 C611 1.366 . S
C612 H626 0.930 . S
C613 C610 1.378 . S
C613 N614 1.315 . S
C613 H616 0.930 . S
N614 Co594 2.194 . S
N614 C609 1.328 . S
N614 C613 1.315 . S
H615 C609 0.929 . S
H616 C613 0.930 . S
H617 C605 0.929 . S
H618 C607 0.929 . S
O619 Co594 2.351 . S
O619 C622 1.244 . S
O620 Co594 2.155 . S
O620 C622 1.240 . S
O621 Co594 2.096 . S
O621 C602 1.247 . S
C622 O619 1.244 . S
C622 O620 1.240 . S
H623 C597 0.931 . S
H624 C606 0.931 . S
H625 C610 0.929 . S
H626 C612 0.930 . S
Co627 N631 2.148 . S
Co627 N637 2.128 . S
Co627 N647 2.194 . S
Co627 O652 2.351 . S
Co627 O653 2.155 . S
Co627 O654 2.096 . S
C628 N631 1.301 . S
C628 N632 1.328 . S
C628 H633 0.930 . S
C629 C630 1.333 . S
C629 N631 1.317 . S
C629 H634 0.930 . S
C630 C629 1.333 . S
C630 N632 1.350 . S
C630 H656 0.931 . S
N631 Co627 2.148 . S
N631 C628 1.301 . S
N631 C629 1.317 . S
N632 C628 1.328 . S
N632 C630 1.350 . S
H633 C628 0.930 . S
H634 C629 0.930 . S
C635 O636 1.224 . S
C635 O654 1.247 . S
O636 C635 1.224 . S
N637 Co627 2.128 . S
N637 C638 1.355 . S
N637 C640 1.311 . S
C638 N637 1.355 . S
C638 C639 1.363 1_556 S
C638 H650 0.929 . S
C639 C638 1.363 1_554 S
C639 N641 1.375 1_554 S
C639 H657 0.931 . S
C640 N637 1.311 . S
C640 N641 1.347 . S
C640 H651 0.929 . S
N641 C639 1.375 1_556 S
N641 C640 1.347 . S
C642 C645 1.365 . S
C642 N647 1.328 . S
C642 H648 0.929 . S
C643 C644 1.362 . S
C643 C646 1.378 . S
C643 H658 0.929 . S
C644 C643 1.362 . S
C644 C645 1.366 . S
C645 C642 1.365 . S
C645 C644 1.366 . S
C645 H659 0.930 . S
C646 C643 1.378 . S
C646 N647 1.315 . S
C646 H649 0.930 . S
N647 Co627 2.194 . S
N647 C642 1.328 . S
N647 C646 1.315 . S
H648 C642 0.929 . S
H649 C646 0.930 . S
H650 C638 0.929 . S
H651 C640 0.929 . S
O652 Co627 2.351 . S
O652 C655 1.244 . S
O653 Co627 2.155 . S
O653 C655 1.240 . S
O654 Co627 2.096 . S
O654 C635 1.247 . S
C655 O652 1.244 . S
C655 O653 1.240 . S
H656 C630 0.931 . S
H657 C639 0.931 . S
H658 C643 0.929 . S
H659 C645 0.930 . S
Co660 N664 2.148 . S
Co660 N670 2.128 . S
Co660 N680 2.194 . S
Co660 O685 2.351 . S
Co660 O686 2.155 . S
Co660 O687 2.096 . S
C661 N664 1.301 . S
C661 N665 1.328 . S
C661 H666 0.930 . S
C662 C663 1.333 . S
C662 N664 1.317 . S
C662 H667 0.930 . S
C663 C662 1.333 . S
C663 N665 1.350 . S
C663 H689 0.931 . S
N664 Co660 2.148 . S
N664 C661 1.301 . S
N664 C662 1.317 . S
N665 C661 1.328 . S
N665 C663 1.350 . S
H666 C661 0.930 . S
H667 C662 0.930 . S
C668 O669 1.224 . S
C668 O687 1.247 . S
O669 C668 1.224 . S
N670 Co660 2.128 . S
N670 C671 1.355 . S
N670 C673 1.311 . S
C671 N670 1.355 . S
C671 C672 1.363 . S
C671 H683 0.929 . S
C672 C671 1.363 . S
C672 N674 1.375 . S
C672 H690 0.931 . S
C673 N670 1.311 . S
C673 N674 1.347 . S
C673 H684 0.929 . S
N674 C672 1.375 . S
N674 C673 1.347 . S
C675 C678 1.365 . S
C675 N680 1.328 . S
C675 H681 0.929 . S
C676 C677 1.362 . S
C676 C679 1.378 . S
C676 H691 0.929 . S
C677 C676 1.362 . S
C677 C678 1.366 . S
C678 C675 1.365 . S
C678 C677 1.366 . S
C678 H692 0.930 . S
C679 C676 1.378 . S
C679 N680 1.315 . S
C679 H682 0.930 . S
N680 Co660 2.194 . S
N680 C675 1.328 . S
N680 C679 1.315 . S
H681 C675 0.929 . S
H682 C679 0.930 . S
H683 C671 0.929 . S
H684 C673 0.929 . S
O685 Co660 2.351 . S
O685 C688 1.244 . S
O686 Co660 2.155 . S
O686 C688 1.240 . S
O687 Co660 2.096 . S
O687 C668 1.247 . S
C688 O685 1.244 . S
C688 O686 1.240 . S
H689 C663 0.931 . S
H690 C672 0.931 . S
H691 C676 0.929 . S
H692 C678 0.930 . S
Co693 N697 2.148 . S
Co693 N703 2.128 . S
Co693 N713 2.194 . S
Co693 O718 2.351 . S
Co693 O719 2.155 . S
Co693 O720 2.096 . S
C694 N697 1.301 . S
C694 N698 1.328 . S
C694 H699 0.930 . S
C695 C696 1.333 . S
C695 N697 1.317 . S
C695 H700 0.930 . S
C696 C695 1.333 . S
C696 N698 1.350 . S
C696 H722 0.931 . S
N697 Co693 2.148 . S
N697 C694 1.301 . S
N697 C695 1.317 . S
N698 C694 1.328 . S
N698 C696 1.350 . S
H699 C694 0.930 . S
H700 C695 0.930 . S
C701 O702 1.224 . S
C701 O720 1.247 . S
O702 C701 1.224 . S
N703 Co693 2.128 . S
N703 C704 1.355 . S
N703 C706 1.311 . S
C704 N703 1.355 . S
C704 C705 1.363 1_554 S
C704 H716 0.929 . S
C705 C704 1.363 1_556 S
C705 N707 1.375 1_556 S
C705 H723 0.931 . S
C706 N703 1.311 . S
C706 N707 1.347 . S
C706 H717 0.929 . S
N707 C705 1.375 1_554 S
N707 C706 1.347 . S
C708 C711 1.365 . S
C708 N713 1.328 . S
C708 H714 0.929 . S
C709 C710 1.362 . S
C709 C712 1.378 . S
C709 H724 0.929 . S
C710 C709 1.362 . S
C710 C711 1.366 . S
C711 C708 1.365 . S
C711 C710 1.366 . S
C711 H725 0.930 . S
C712 C709 1.378 . S
C712 N713 1.315 . S
C712 H715 0.930 . S
N713 Co693 2.194 . S
N713 C708 1.328 . S
N713 C712 1.315 . S
H714 C708 0.929 . S
H715 C712 0.930 . S
H716 C704 0.929 . S
H717 C706 0.929 . S
O718 Co693 2.351 . S
O718 C721 1.244 . S
O719 Co693 2.155 . S
O719 C721 1.240 . S
O720 Co693 2.096 . S
O720 C701 1.247 . S
C721 O718 1.244 . S
C721 O719 1.240 . S
H722 C696 0.931 . S
H723 C705 0.931 . S
H724 C709 0.929 . S
H725 C711 0.930 . S
Co726 N730 2.148 . S
Co726 N736 2.128 . S
Co726 N746 2.194 . S
Co726 O751 2.351 . S
Co726 O752 2.155 . S
Co726 O753 2.096 . S
C727 N730 1.301 . S
C727 N731 1.328 . S
C727 H732 0.930 . S
C728 C729 1.333 . S
C728 N730 1.317 . S
C728 H733 0.930 . S
C729 C728 1.333 . S
C729 N731 1.350 . S
C729 H755 0.931 . S
N730 Co726 2.148 . S
N730 C727 1.301 . S
N730 C728 1.317 . S
N731 C727 1.328 . S
N731 C729 1.350 . S
H732 C727 0.930 . S
H733 C728 0.930 . S
C734 O735 1.224 . S
C734 O753 1.247 . S
O735 C734 1.224 . S
N736 Co726 2.128 . S
N736 C737 1.355 . S
N736 C739 1.311 . S
C737 N736 1.355 . S
C737 C738 1.363 . S
C737 H749 0.929 . S
C738 C737 1.363 . S
C738 N740 1.375 . S
C738 H756 0.931 . S
C739 N736 1.311 . S
C739 N740 1.347 . S
C739 H750 0.929 . S
N740 C738 1.375 . S
N740 C739 1.347 . S
C741 C744 1.365 . S
C741 N746 1.328 . S
C741 H747 0.929 . S
C742 C743 1.362 . S
C742 C745 1.378 . S
C742 H757 0.929 . S
C743 C742 1.362 . S
C743 C744 1.366 . S
C744 C741 1.365 . S
C744 C743 1.366 . S
C744 H758 0.930 . S
C745 C742 1.378 . S
C745 N746 1.315 . S
C745 H748 0.930 . S
N746 Co726 2.194 . S
N746 C741 1.328 . S
N746 C745 1.315 . S
H747 C741 0.929 . S
H748 C745 0.930 . S
H749 C737 0.929 . S
H750 C739 0.929 . S
O751 Co726 2.351 . S
O751 C754 1.244 . S
O752 Co726 2.155 . S
O752 C754 1.240 . S
O753 Co726 2.096 . S
O753 C734 1.247 . S
C754 O751 1.244 . S
C754 O752 1.240 . S
H755 C729 0.931 . S
H756 C738 0.931 . S
H757 C742 0.929 . S
H758 C744 0.930 . S
Co759 N763 2.148 . S
Co759 N769 2.128 . S
Co759 N779 2.194 . S
Co759 O784 2.351 . S
Co759 O785 2.155 . S
Co759 O786 2.096 . S
C760 N763 1.301 . S
C760 N764 1.328 . S
C760 H765 0.930 . S
C761 C762 1.333 . S
C761 N763 1.317 . S
C761 H766 0.930 . S
C762 C761 1.333 . S
C762 N764 1.350 . S
C762 H788 0.931 . S
N763 Co759 2.148 . S
N763 C760 1.301 . S
N763 C761 1.317 . S
N764 C760 1.328 . S
N764 C762 1.350 . S
H765 C760 0.930 . S
H766 C761 0.930 . S
C767 O768 1.224 . S
C767 O786 1.247 . S
O768 C767 1.224 . S
N769 Co759 2.128 . S
N769 C770 1.355 . S
N769 C772 1.311 . S
C770 N769 1.355 . S
C770 C771 1.363 . S
C770 H782 0.929 . S
C771 C770 1.363 . S
C771 N773 1.375 . S
C771 H789 0.931 . S
C772 N769 1.311 . S
C772 N773 1.347 . S
C772 H783 0.929 . S
N773 C771 1.375 . S
N773 C772 1.347 . S
C774 C777 1.365 . S
C774 N779 1.328 . S
C774 H780 0.929 . S
C775 C776 1.362 . S
C775 C778 1.378 . S
C775 H790 0.929 . S
C776 C775 1.362 . S
C776 C777 1.366 . S
C777 C774 1.365 . S
C777 C776 1.366 . S
C777 H791 0.930 . S
C778 C775 1.378 . S
C778 N779 1.315 . S
C778 H781 0.930 . S
N779 Co759 2.194 . S
N779 C774 1.328 . S
N779 C778 1.315 . S
H780 C774 0.929 . S
H781 C778 0.930 . S
H782 C770 0.929 . S
H783 C772 0.929 . S
O784 Co759 2.351 . S
O784 C787 1.244 . S
O785 Co759 2.155 . S
O785 C787 1.240 . S
O786 Co759 2.096 . S
O786 C767 1.247 . S
C787 O784 1.244 . S
C787 O785 1.240 . S
H788 C762 0.931 . S
H789 C771 0.931 . S
H790 C775 0.929 . S
H791 C777 0.930 . S
H792 C804 0.930 . S
H793 C806 0.930 . S
H794 C807 0.930 . S
H795 C811 0.959 . S
H796 C811 0.959 . S
H797 C811 0.961 . S
H798 C812 0.960 . S
H799 C812 0.961 . S
H800 C812 0.959 . S
H801 C815 0.929 . S
H802 C816 0.931 . S
H803 C818 0.930 . S
C804 H792 0.930 . S
C804 C805 1.399 . S
C804 C809 1.399 . S
C805 C804 1.399 . S
C805 C806 1.376 . S
C806 H793 0.930 . S
C806 C805 1.376 . S
C806 C807 1.388 . S
C807 H794 0.930 . S
C807 C806 1.388 . S
C807 C808 1.390 . S
C808 C807 1.390 . S
C808 C809 1.394 . S
C808 C814 1.465 . S
C809 C804 1.399 . S
C809 C808 1.394 . S
C809 C810 1.516 . S
C810 C809 1.516 . S
C810 C811 1.502 . S
C810 C812 1.561 . S
C810 C813 1.526 . S
C811 H795 0.959 . S
C811 H796 0.959 . S
C811 H797 0.961 . S
C811 C810 1.502 . S
C812 H798 0.960 . S
C812 H799 0.961 . S
C812 H800 0.959 . S
C812 C810 1.561 . S
C813 C810 1.526 . S
C813 C814 1.396 . S
C813 C818 1.390 . S
C814 C808 1.465 . S
C814 C813 1.396 . S
C814 C815 1.399 . S
C815 H801 0.929 . S
C815 C814 1.399 . S
C815 C816 1.385 . S
C816 H802 0.931 . S
C816 C815 1.385 . S
C816 C817 1.389 . S
C817 C816 1.389 . S
C817 C818 1.387 . S
C818 H803 0.930 . S
C818 C813 1.390 . S
C818 C817 1.387 . S
H819 C831 0.930 . S
H820 C833 0.930 . S
H821 C834 0.930 . S
H822 C838 0.959 . S
H823 C838 0.959 . S
H824 C838 0.961 . S
H825 C839 0.960 . S
H826 C839 0.961 . S
H827 C839 0.959 . S
H828 C842 0.929 . S
H829 C843 0.931 . S
H830 C845 0.930 . S
C831 H819 0.930 . S
C831 C832 1.399 . S
C831 C836 1.399 . S
C832 C831 1.399 . S
C832 C833 1.376 . S
C833 H820 0.930 . S
C833 C832 1.376 . S
C833 C834 1.388 . S
C834 H821 0.930 . S
C834 C833 1.388 . S
C834 C835 1.390 . S
C835 C834 1.390 . S
C835 C836 1.394 . S
C835 C841 1.465 . S
C836 C831 1.399 . S
C836 C835 1.394 . S
C836 C837 1.516 . S
C837 C836 1.516 . S
C837 C838 1.502 . S
C837 C839 1.561 . S
C837 C840 1.526 . S
C838 H822 0.959 . S
C838 H823 0.959 . S
C838 H824 0.961 . S
C838 C837 1.502 . S
C839 H825 0.960 . S
C839 H826 0.961 . S
C839 H827 0.959 . S
C839 C837 1.561 . S
C840 C837 1.526 . S
C840 C841 1.396 . S
C840 C845 1.390 . S
C841 C835 1.465 . S
C841 C840 1.396 . S
C841 C842 1.399 . S
C842 H828 0.929 . S
C842 C841 1.399 . S
C842 C843 1.385 . S
C843 H829 0.931 . S
C843 C842 1.385 . S
C843 C844 1.389 . S
C844 C843 1.389 . S
C844 C845 1.387 . S
C845 H830 0.930 . S
C845 C840 1.390 . S
C845 C844 1.387 . S
H846 C858 0.930 . S
H847 C860 0.930 . S
H848 C861 0.930 . S
H849 C865 0.959 . S
H850 C865 0.959 . S
H851 C865 0.961 . S
H852 C866 0.960 . S
H853 C866 0.961 . S
H854 C866 0.959 . S
H855 C869 0.929 . S
H856 C870 0.931 . S
H857 C872 0.930 . S
C858 H846 0.930 . S
C858 C859 1.399 . S
C858 C863 1.399 . S
C859 C858 1.399 . S
C859 C860 1.376 . S
C860 H847 0.930 . S
C860 C859 1.376 . S
C860 C861 1.388 . S
C861 H848 0.930 . S
C861 C860 1.388 . S
C861 C862 1.390 . S
C862 C861 1.390 . S
C862 C863 1.394 . S
C862 C868 1.465 . S
C863 C858 1.399 . S
C863 C862 1.394 . S
C863 C864 1.516 . S
C864 C863 1.516 . S
C864 C865 1.502 . S
C864 C866 1.561 . S
C864 C867 1.526 . S
C865 H849 0.959 . S
C865 H850 0.959 . S
C865 H851 0.961 . S
C865 C864 1.502 . S
C866 H852 0.960 . S
C866 H853 0.961 . S
C866 H854 0.959 . S
C866 C864 1.561 . S
C867 C864 1.526 . S
C867 C868 1.396 . S
C867 C872 1.390 . S
C868 C862 1.465 . S
C868 C867 1.396 . S
C868 C869 1.399 . S
C869 H855 0.929 . S
C869 C868 1.399 . S
C869 C870 1.385 . S
C870 H856 0.931 . S
C870 C869 1.385 . S
C870 C871 1.389 . S
C871 C870 1.389 . S
C871 C872 1.387 . S
C872 H857 0.930 . S
C872 C867 1.390 . S
C872 C871 1.387 . S
H873 C885 0.930 . S
H874 C887 0.930 . S
H875 C888 0.930 . S
H876 C892 0.959 . S
H877 C892 0.959 . S
H878 C892 0.961 . S
H879 C893 0.960 . S
H880 C893 0.961 . S
H881 C893 0.959 . S
H882 C896 0.929 . S
H883 C897 0.931 1_655 S
H884 C899 0.930 . S
C885 H873 0.930 . S
C885 C886 1.399 . S
C885 C890 1.399 . S
C886 C885 1.399 . S
C886 C887 1.376 . S
C887 H874 0.930 . S
C887 C886 1.376 . S
C887 C888 1.388 . S
C888 H875 0.930 . S
C888 C887 1.388 . S
C888 C889 1.390 . S
C889 C888 1.390 . S
C889 C890 1.394 . S
C889 C895 1.465 . S
C890 C885 1.399 . S
C890 C889 1.394 . S
C890 C891 1.516 . S
C891 C890 1.516 . S
C891 C892 1.502 . S
C891 C893 1.561 . S
C891 C894 1.526 . S
C892 H876 0.959 . S
C892 H877 0.959 . S
C892 H878 0.961 . S
C892 C891 1.502 . S
C893 H879 0.960 . S
C893 H880 0.961 . S
C893 H881 0.959 . S
C893 C891 1.561 . S
C894 C891 1.526 . S
C894 C895 1.396 . S
C894 C899 1.390 . S
C895 C889 1.465 . S
C895 C894 1.396 . S
C895 C896 1.399 . S
C896 H882 0.929 . S
C896 C895 1.399 . S
C896 C897 1.385 . S
C897 H883 0.931 1_455 S
C897 C896 1.385 . S
C897 C898 1.389 . S
C898 C897 1.389 . S
C898 C899 1.387 . S
C899 H884 0.930 . S
C899 C894 1.390 . S
C899 C898 1.387 . S
H900 C912 0.930 . S
H901 C914 0.930 . S
H902 C915 0.930 . S
H903 C919 0.959 . S
H904 C919 0.959 . S
H905 C919 0.961 . S
H906 C920 0.960 . S
H907 C920 0.961 . S
H908 C920 0.959 . S
H909 C923 0.929 . S
H910 C924 0.931 . S
H911 C926 0.930 . S
C912 H900 0.930 . S
C912 C913 1.399 . S
C912 C917 1.399 . S
C913 C912 1.399 . S
C913 C914 1.376 . S
C914 H901 0.930 . S
C914 C913 1.376 . S
C914 C915 1.388 . S
C915 H902 0.930 . S
C915 C914 1.388 . S
C915 C916 1.390 . S
C916 C915 1.390 . S
C916 C917 1.394 . S
C916 C922 1.465 . S
C917 C912 1.399 . S
C917 C916 1.394 . S
C917 C918 1.516 . S
C918 C917 1.516 . S
C918 C919 1.502 . S
C918 C920 1.561 . S
C918 C921 1.526 . S
C919 H903 0.959 . S
C919 H904 0.959 . S
C919 H905 0.961 . S
C919 C918 1.502 . S
C920 H906 0.960 . S
C920 H907 0.961 . S
C920 H908 0.959 . S
C920 C918 1.561 . S
C921 C918 1.526 . S
C921 C922 1.396 . S
C921 C926 1.390 . S
C922 C916 1.465 . S
C922 C921 1.396 . S
C922 C923 1.399 . S
C923 H909 0.929 . S
C923 C922 1.399 . S
C923 C924 1.385 . S
C924 H910 0.931 . S
C924 C923 1.385 . S
C924 C925 1.389 . S
C925 C924 1.389 . S
C925 C926 1.387 . S
C926 H911 0.930 . S
C926 C921 1.390 . S
C926 C925 1.387 . S
H927 C939 0.930 . S
H928 C941 0.930 . S
H929 C942 0.930 . S
H930 C946 0.959 . S
H931 C946 0.959 . S
H932 C946 0.961 . S
H933 C947 0.960 . S
H934 C947 0.961 . S
H935 C947 0.959 . S
H936 C950 0.929 . S
H937 C951 0.931 . S
H938 C953 0.930 . S
C939 H927 0.930 . S
C939 C940 1.399 . S
C939 C944 1.399 . S
C940 C939 1.399 . S
C940 C941 1.376 . S
C941 H928 0.930 . S
C941 C940 1.376 . S
C941 C942 1.388 . S
C942 H929 0.930 . S
C942 C941 1.388 . S
C942 C943 1.390 . S
C943 C942 1.390 . S
C943 C944 1.394 . S
C943 C949 1.465 . S
C944 C939 1.399 . S
C944 C943 1.394 . S
C944 C945 1.516 . S
C945 C944 1.516 . S
C945 C946 1.502 . S
C945 C947 1.561 . S
C945 C948 1.526 . S
C946 H930 0.959 . S
C946 H931 0.959 . S
C946 H932 0.961 . S
C946 C945 1.502 . S
C947 H933 0.960 . S
C947 H934 0.961 . S
C947 H935 0.959 . S
C947 C945 1.561 . S
C948 C945 1.526 . S
C948 C949 1.396 . S
C948 C953 1.390 . S
C949 C943 1.465 . S
C949 C948 1.396 . S
C949 C950 1.399 . S
C950 H936 0.929 . S
C950 C949 1.399 . S
C950 C951 1.385 . S
C951 H937 0.931 . S
C951 C950 1.385 . S
C951 C952 1.389 . S
C952 C951 1.389 . S
C952 C953 1.387 . S
C953 H938 0.930 . S
C953 C948 1.390 . S
C953 C952 1.387 . S
H954 C966 0.930 . S
H955 C968 0.930 . S
H956 C969 0.930 . S
H957 C973 0.959 . S
H958 C973 0.959 . S
H959 C973 0.961 . S
H960 C974 0.960 . S
H961 C974 0.961 . S
H962 C974 0.959 . S
H963 C977 0.929 . S
H964 C978 0.931 . S
H965 C980 0.930 . S
C966 H954 0.930 . S
C966 C967 1.399 . S
C966 C971 1.399 . S
C967 C966 1.399 . S
C967 C968 1.376 . S
C968 H955 0.930 . S
C968 C967 1.376 . S
C968 C969 1.388 . S
C969 H956 0.930 . S
C969 C968 1.388 . S
C969 C970 1.390 . S
C970 C969 1.390 . S
C970 C971 1.394 . S
C970 C976 1.465 . S
C971 C966 1.399 . S
C971 C970 1.394 . S
C971 C972 1.516 . S
C972 C971 1.516 . S
C972 C973 1.502 . S
C972 C974 1.561 . S
C972 C975 1.526 . S
C973 H957 0.959 . S
C973 H958 0.959 . S
C973 H959 0.961 . S
C973 C972 1.502 . S
C974 H960 0.960 . S
C974 H961 0.961 . S
C974 H962 0.959 . S
C974 C972 1.561 . S
C975 C972 1.526 . S
C975 C976 1.396 . S
C975 C980 1.390 . S
C976 C970 1.465 . S
C976 C975 1.396 . S
C976 C977 1.399 . S
C977 H963 0.929 . S
C977 C976 1.399 . S
C977 C978 1.385 . S
C978 H964 0.931 . S
C978 C977 1.385 . S
C978 C979 1.389 . S
C979 C978 1.389 . S
C979 C980 1.387 . S
C980 H965 0.930 . S
C980 C975 1.390 . S
C980 C979 1.387 . S
H981 C993 0.930 . S
H982 C995 0.930 . S
H983 C996 0.930 . S
H984 C1000 0.959 . S
H985 C1000 0.959 . S
H986 C1000 0.961 . S
H987 C1001 0.960 . S
H988 C1001 0.961 . S
H989 C1001 0.959 . S
H990 C1004 0.929 . S
H991 C1005 0.931 . S
H992 C1007 0.930 . S
C993 H981 0.930 . S
C993 C994 1.399 . S
C993 C998 1.399 . S
C994 C993 1.399 . S
C994 C995 1.376 . S
C995 H982 0.930 . S
C995 C994 1.376 . S
C995 C996 1.388 . S
C996 H983 0.930 . S
C996 C995 1.388 . S
C996 C997 1.390 . S
C997 C996 1.390 . S
C997 C998 1.394 . S
C997 C1003 1.465 . S
C998 C993 1.399 . S
C998 C997 1.394 . S
C998 C999 1.516 . S
C999 C998 1.516 . S
C999 C1000 1.502 . S
C999 C1001 1.561 . S
C999 C1002 1.526 . S
C1000 H984 0.959 . S
C1000 H985 0.959 . S
C1000 H986 0.961 . S
C1000 C999 1.502 . S
C1001 H987 0.960 . S
C1001 H988 0.961 . S
C1001 H989 0.959 . S
C1001 C999 1.561 . S
C1002 C999 1.526 . S
C1002 C1003 1.396 . S
C1002 C1007 1.390 . S
C1003 C997 1.465 . S
C1003 C1002 1.396 . S
C1003 C1004 1.399 . S
C1004 H990 0.929 . S
C1004 C1003 1.399 . S
C1004 C1005 1.385 . S
C1005 H991 0.931 . S
C1005 C1004 1.385 . S
C1005 C1006 1.389 . S
C1006 C1005 1.389 . S
C1006 C1007 1.387 . S
C1007 H992 0.930 . S
C1007 C1002 1.390 . S
C1007 C1006 1.387 . S
H1008 C1020 0.930 . S
H1009 C1022 0.930 . S
H1010 C1023 0.930 . S
H1011 C1027 0.959 . S
H1012 C1027 0.959 . S
H1013 C1027 0.961 . S
H1014 C1028 0.960 . S
H1015 C1028 0.961 . S
H1016 C1028 0.959 . S
H1017 C1031 0.929 . S
H1018 C1032 0.931 . S
H1019 C1034 0.930 . S
C1020 H1008 0.930 . S
C1020 C1021 1.399 . S
C1020 C1025 1.399 . S
C1021 C1020 1.399 . S
C1021 C1022 1.376 . S
C1022 H1009 0.930 . S
C1022 C1021 1.376 . S
C1022 C1023 1.388 . S
C1023 H1010 0.930 . S
C1023 C1022 1.388 . S
C1023 C1024 1.390 . S
C1024 C1023 1.390 . S
C1024 C1025 1.394 . S
C1024 C1030 1.465 . S
C1025 C1020 1.399 . S
C1025 C1024 1.394 . S
C1025 C1026 1.516 . S
C1026 C1025 1.516 . S
C1026 C1027 1.502 . S
C1026 C1028 1.561 . S
C1026 C1029 1.526 . S
C1027 H1011 0.959 . S
C1027 H1012 0.959 . S
C1027 H1013 0.961 . S
C1027 C1026 1.502 . S
C1028 H1014 0.960 . S
C1028 H1015 0.961 . S
C1028 H1016 0.959 . S
C1028 C1026 1.561 . S
C1029 C1026 1.526 . S
C1029 C1030 1.396 . S
C1029 C1034 1.390 . S
C1030 C1024 1.465 . S
C1030 C1029 1.396 . S
C1030 C1031 1.399 . S
C1031 H1017 0.929 . S
C1031 C1030 1.399 . S
C1031 C1032 1.385 . S
C1032 H1018 0.931 . S
C1032 C1031 1.385 . S
C1032 C1033 1.389 . S
C1033 C1032 1.389 . S
C1033 C1034 1.387 . S
C1034 H1019 0.930 . S
C1034 C1029 1.390 . S
C1034 C1033 1.387 . S
H1035 C1047 0.930 . S
H1036 C1049 0.930 . S
H1037 C1050 0.930 . S
H1038 C1054 0.959 . S
H1039 C1054 0.959 . S
H1040 C1054 0.961 . S
H1041 C1055 0.960 . S
H1042 C1055 0.961 . S
H1043 C1055 0.959 . S
H1044 C1058 0.929 . S
H1045 C1059 0.931 . S
H1046 C1061 0.930 . S
C1047 H1035 0.930 . S
C1047 C1048 1.399 . S
C1047 C1052 1.399 . S
C1048 C1047 1.399 . S
C1048 C1049 1.376 . S
C1049 H1036 0.930 . S
C1049 C1048 1.376 . S
C1049 C1050 1.388 . S
C1050 H1037 0.930 . S
C1050 C1049 1.388 . S
C1050 C1051 1.390 . S
C1051 C1050 1.390 . S
C1051 C1052 1.394 . S
C1051 C1057 1.465 . S
C1052 C1047 1.399 . S
C1052 C1051 1.394 . S
C1052 C1053 1.516 . S
C1053 C1052 1.516 . S
C1053 C1054 1.502 . S
C1053 C1055 1.561 . S
C1053 C1056 1.526 . S
C1054 H1038 0.959 . S
C1054 H1039 0.959 . S
C1054 H1040 0.961 . S
C1054 C1053 1.502 . S
C1055 H1041 0.960 . S
C1055 H1042 0.961 . S
C1055 H1043 0.959 . S
C1055 C1053 1.561 . S
C1056 C1053 1.526 . S
C1056 C1057 1.396 . S
C1056 C1061 1.390 . S
C1057 C1051 1.465 . S
C1057 C1056 1.396 . S
C1057 C1058 1.399 . S
C1058 H1044 0.929 . S
C1058 C1057 1.399 . S
C1058 C1059 1.385 1_554 S
C1059 H1045 0.931 . S
C1059 C1058 1.385 1_556 S
C1059 C1060 1.389 1_556 S
C1060 C1059 1.389 1_554 S
C1060 C1061 1.387 . S
C1061 H1046 0.930 . S
C1061 C1056 1.390 . S
C1061 C1060 1.387 . S
H1062 C1074 0.930 . S
H1063 C1076 0.930 . S
H1064 C1077 0.930 . S
H1065 C1081 0.959 . S
H1066 C1081 0.959 . S
H1067 C1081 0.961 . S
H1068 C1082 0.960 . S
H1069 C1082 0.961 . S
H1070 C1082 0.959 . S
H1071 C1085 0.929 . S
H1072 C1086 0.931 . S
H1073 C1088 0.930 . S
C1074 H1062 0.930 . S
C1074 C1075 1.399 . S
C1074 C1079 1.399 . S
C1075 C1074 1.399 . S
C1075 C1076 1.376 . S
C1076 H1063 0.930 . S
C1076 C1075 1.376 . S
C1076 C1077 1.388 . S
C1077 H1064 0.930 . S
C1077 C1076 1.388 . S
C1077 C1078 1.390 . S
C1078 C1077 1.390 . S
C1078 C1079 1.394 . S
C1078 C1084 1.465 . S
C1079 C1074 1.399 . S
C1079 C1078 1.394 . S
C1079 C1080 1.516 . S
C1080 C1079 1.516 . S
C1080 C1081 1.502 . S
C1080 C1082 1.561 . S
C1080 C1083 1.526 . S
C1081 H1065 0.959 . S
C1081 H1066 0.959 . S
C1081 H1067 0.961 . S
C1081 C1080 1.502 . S
C1082 H1068 0.960 . S
C1082 H1069 0.961 . S
C1082 H1070 0.959 . S
C1082 C1080 1.561 . S
C1083 C1080 1.526 . S
C1083 C1084 1.396 . S
C1083 C1088 1.390 . S
C1084 C1078 1.465 . S
C1084 C1083 1.396 . S
C1084 C1085 1.399 . S
C1085 H1071 0.929 . S
C1085 C1084 1.399 . S
C1085 C1086 1.385 . S
C1086 H1072 0.931 . S
C1086 C1085 1.385 . S
C1086 C1087 1.389 . S
C1087 C1086 1.389 . S
C1087 C1088 1.387 . S
C1088 H1073 0.930 . S
C1088 C1083 1.390 . S
C1088 C1087 1.387 . S
H1089 C1101 0.930 . S
H1090 C1103 0.930 . S
H1091 C1104 0.930 . S
H1092 C1108 0.959 . S
H1093 C1108 0.959 . S
H1094 C1108 0.961 . S
H1095 C1109 0.960 . S
H1096 C1109 0.961 . S
H1097 C1109 0.959 . S
H1098 C1112 0.929 . S
H1099 C1113 0.931 . S
H1100 C1115 0.930 . S
C1101 H1089 0.930 . S
C1101 C1102 1.399 . S
C1101 C1106 1.399 . S
C1102 C1101 1.399 . S
C1102 C1103 1.376 . S
C1103 H1090 0.930 . S
C1103 C1102 1.376 . S
C1103 C1104 1.388 . S
C1104 H1091 0.930 . S
C1104 C1103 1.388 . S
C1104 C1105 1.390 . S
C1105 C1104 1.390 . S
C1105 C1106 1.394 . S
C1105 C1111 1.465 . S
C1106 C1101 1.399 . S
C1106 C1105 1.394 . S
C1106 C1107 1.516 . S
C1107 C1106 1.516 . S
C1107 C1108 1.502 . S
C1107 C1109 1.561 . S
C1107 C1110 1.526 . S
C1108 H1092 0.959 . S
C1108 H1093 0.959 . S
C1108 H1094 0.961 . S
C1108 C1107 1.502 . S
C1109 H1095 0.960 . S
C1109 H1096 0.961 . S
C1109 H1097 0.959 . S
C1109 C1107 1.561 . S
C1110 C1107 1.526 . S
C1110 C1111 1.396 . S
C1110 C1115 1.390 . S
C1111 C1105 1.465 . S
C1111 C1110 1.396 . S
C1111 C1112 1.399 . S
C1112 H1098 0.929 . S
C1112 C1111 1.399 . S
C1112 C1113 1.385 . S
C1113 H1099 0.931 . S
C1113 C1112 1.385 . S
C1113 C1114 1.389 . S
C1114 C1113 1.389 . S
C1114 C1115 1.387 . S
C1115 H1100 0.930 . S
C1115 C1110 1.390 . S
C1115 C1114 1.387 . S
H1116 C1128 0.930 . S
H1117 C1130 0.930 . S
H1118 C1131 0.930 . S
H1119 C1135 0.959 . S
H1120 C1135 0.959 . S
H1121 C1135 0.961 . S
H1122 C1136 0.960 . S
H1123 C1136 0.961 . S
H1124 C1136 0.959 . S
H1125 C1139 0.929 . S
H1126 C1140 0.931 . S
H1127 C1142 0.930 . S
C1128 H1116 0.930 . S
C1128 C1129 1.399 . S
C1128 C1133 1.399 . S
C1129 C1128 1.399 . S
C1129 C1130 1.376 . S
C1130 H1117 0.930 . S
C1130 C1129 1.376 . S
C1130 C1131 1.388 . S
C1131 H1118 0.930 . S
C1131 C1130 1.388 . S
C1131 C1132 1.390 . S
C1132 C1131 1.390 . S
C1132 C1133 1.394 . S
C1132 C1138 1.465 . S
C1133 C1128 1.399 . S
C1133 C1132 1.394 . S
C1133 C1134 1.516 . S
C1134 C1133 1.516 . S
C1134 C1135 1.502 . S
C1134 C1136 1.561 . S
C1134 C1137 1.526 . S
C1135 H1119 0.959 . S
C1135 H1120 0.959 . S
C1135 H1121 0.961 . S
C1135 C1134 1.502 . S
C1136 H1122 0.960 . S
C1136 H1123 0.961 . S
C1136 H1124 0.959 . S
C1136 C1134 1.561 . S
C1137 C1134 1.526 . S
C1137 C1138 1.396 . S
C1137 C1142 1.390 . S
C1138 C1132 1.465 . S
C1138 C1137 1.396 . S
C1138 C1139 1.399 . S
C1139 H1125 0.929 . S
C1139 C1138 1.399 . S
C1139 C1140 1.385 . S
C1140 H1126 0.931 . S
C1140 C1139 1.385 . S
C1140 C1141 1.389 . S
C1141 C1140 1.389 . S
C1141 C1142 1.387 . S
C1142 H1127 0.930 . S
C1142 C1137 1.390 . S
C1142 C1141 1.387 . S
H1143 C1155 0.930 . S
H1144 C1157 0.930 . S
H1145 C1158 0.930 . S
H1146 C1162 0.959 . S
H1147 C1162 0.959 . S
H1148 C1162 0.961 . S
H1149 C1163 0.960 . S
H1150 C1163 0.961 . S
H1151 C1163 0.959 . S
H1152 C1166 0.929 . S
H1153 C1167 0.931 . S
H1154 C1169 0.930 . S
C1155 H1143 0.930 . S
C1155 C1156 1.399 . S
C1155 C1160 1.399 . S
C1156 C1155 1.399 . S
C1156 C1157 1.376 . S
C1157 H1144 0.930 . S
C1157 C1156 1.376 . S
C1157 C1158 1.388 . S
C1158 H1145 0.930 . S
C1158 C1157 1.388 . S
C1158 C1159 1.390 . S
C1159 C1158 1.390 . S
C1159 C1160 1.394 . S
C1159 C1165 1.465 . S
C1160 C1155 1.399 . S
C1160 C1159 1.394 . S
C1160 C1161 1.516 . S
C1161 C1160 1.516 . S
C1161 C1162 1.502 . S
C1161 C1163 1.561 . S
C1161 C1164 1.526 . S
C1162 H1146 0.959 . S
C1162 H1147 0.959 . S
C1162 H1148 0.961 . S
C1162 C1161 1.502 . S
C1163 H1149 0.960 . S
C1163 H1150 0.961 . S
C1163 H1151 0.959 . S
C1163 C1161 1.561 . S
C1164 C1161 1.526 . S
C1164 C1165 1.396 . S
C1164 C1169 1.390 . S
C1165 C1159 1.465 . S
C1165 C1164 1.396 . S
C1165 C1166 1.399 . S
C1166 H1152 0.929 . S
C1166 C1165 1.399 . S
C1166 C1167 1.385 1_556 S
C1167 H1153 0.931 . S
C1167 C1166 1.385 1_554 S
C1167 C1168 1.389 1_554 S
C1168 C1167 1.389 1_556 S
C1168 C1169 1.387 . S
C1169 H1154 0.930 . S
C1169 C1164 1.390 . S
C1169 C1168 1.387 . S
H1170 C1182 0.930 . S
H1171 C1184 0.930 . S
H1172 C1185 0.930 . S
H1173 C1189 0.959 . S
H1174 C1189 0.959 . S
H1175 C1189 0.961 . S
H1176 C1190 0.960 . S
H1177 C1190 0.961 . S
H1178 C1190 0.959 . S
H1179 C1193 0.929 . S
H1180 C1194 0.931 . S
H1181 C1196 0.930 . S
C1182 H1170 0.930 . S
C1182 C1183 1.399 . S
C1182 C1187 1.399 . S
C1183 C1182 1.399 . S
C1183 C1184 1.376 . S
C1184 H1171 0.930 . S
C1184 C1183 1.376 . S
C1184 C1185 1.388 . S
C1185 H1172 0.930 . S
C1185 C1184 1.388 . S
C1185 C1186 1.390 . S
C1186 C1185 1.390 . S
C1186 C1187 1.394 . S
C1186 C1192 1.465 . S
C1187 C1182 1.399 . S
C1187 C1186 1.394 . S
C1187 C1188 1.516 . S
C1188 C1187 1.516 . S
C1188 C1189 1.502 . S
C1188 C1190 1.561 . S
C1188 C1191 1.526 . S
C1189 H1173 0.959 . S
C1189 H1174 0.959 . S
C1189 H1175 0.961 . S
C1189 C1188 1.502 . S
C1190 H1176 0.960 . S
C1190 H1177 0.961 . S
C1190 H1178 0.959 . S
C1190 C1188 1.561 . S
C1191 C1188 1.526 . S
C1191 C1192 1.396 . S
C1191 C1196 1.390 . S
C1192 C1186 1.465 . S
C1192 C1191 1.396 . S
C1192 C1193 1.399 . S
C1193 H1179 0.929 . S
C1193 C1192 1.399 . S
C1193 C1194 1.385 . S
C1194 H1180 0.931 . S
C1194 C1193 1.385 . S
C1194 C1195 1.389 . S
C1195 C1194 1.389 . S
C1195 C1196 1.387 . S
C1196 H1181 0.930 . S
C1196 C1191 1.390 . S
C1196 C1195 1.387 . S
H1197 C1209 0.930 . S
H1198 C1211 0.930 1_554 S
H1199 C1212 0.930 . S
H1200 C1216 0.959 . S
H1201 C1216 0.959 . S
H1202 C1216 0.961 . S
H1203 C1217 0.960 . S
H1204 C1217 0.961 . S
H1205 C1217 0.959 . S
H1206 C1220 0.929 . S
H1207 C1221 0.931 . S
H1208 C1223 0.930 . S
C1209 H1197 0.930 . S
C1209 C1210 1.399 . S
C1209 C1214 1.399 . S
C1210 C1209 1.399 . S
C1210 C1211 1.376 . S
C1211 H1198 0.930 1_556 S
C1211 C1210 1.376 . S
C1211 C1212 1.388 . S
C1212 H1199 0.930 . S
C1212 C1211 1.388 . S
C1212 C1213 1.390 . S
C1213 C1212 1.390 . S
C1213 C1214 1.394 . S
C1213 C1219 1.465 . S
C1214 C1209 1.399 . S
C1214 C1213 1.394 . S
C1214 C1215 1.516 . S
C1215 C1214 1.516 . S
C1215 C1216 1.502 . S
C1215 C1217 1.561 . S
C1215 C1218 1.526 . S
C1216 H1200 0.959 . S
C1216 H1201 0.959 . S
C1216 H1202 0.961 . S
C1216 C1215 1.502 . S
C1217 H1203 0.960 . S
C1217 H1204 0.961 . S
C1217 H1205 0.959 . S
C1217 C1215 1.561 . S
C1218 C1215 1.526 . S
C1218 C1219 1.396 . S
C1218 C1223 1.390 . S
C1219 C1213 1.465 . S
C1219 C1218 1.396 . S
C1219 C1220 1.399 . S
C1220 H1206 0.929 . S
C1220 C1219 1.399 . S
C1220 C1221 1.385 . S
C1221 H1207 0.931 . S
C1221 C1220 1.385 . S
C1221 C1222 1.389 . S
C1222 C1221 1.389 . S
C1222 C1223 1.387 . S
C1223 H1208 0.930 . S
C1223 C1218 1.390 . S
C1223 C1222 1.387 . S
H1224 C1236 0.930 . S
H1225 C1238 0.930 . S
H1226 C1239 0.930 . S
H1227 C1243 0.959 . S
H1228 C1243 0.959 . S
H1229 C1243 0.961 . S
H1230 C1244 0.960 . S
H1231 C1244 0.961 . S
H1232 C1244 0.959 . S
H1233 C1247 0.929 . S
H1234 C1248 0.931 . S
H1235 C1250 0.930 . S
C1236 H1224 0.930 . S
C1236 C1237 1.399 . S
C1236 C1241 1.399 . S
C1237 C1236 1.399 . S
C1237 C1238 1.376 . S
C1238 H1225 0.930 . S
C1238 C1237 1.376 . S
C1238 C1239 1.388 . S
C1239 H1226 0.930 . S
C1239 C1238 1.388 . S
C1239 C1240 1.390 . S
C1240 C1239 1.390 . S
C1240 C1241 1.394 . S
C1240 C1246 1.465 . S
C1241 C1236 1.399 . S
C1241 C1240 1.394 . S
C1241 C1242 1.516 . S
C1242 C1241 1.516 . S
C1242 C1243 1.502 . S
C1242 C1244 1.561 . S
C1242 C1245 1.526 . S
C1243 H1227 0.959 . S
C1243 H1228 0.959 . S
C1243 H1229 0.961 . S
C1243 C1242 1.502 . S
C1244 H1230 0.960 . S
C1244 H1231 0.961 . S
C1244 H1232 0.959 . S
C1244 C1242 1.561 . S
C1245 C1242 1.526 . S
C1245 C1246 1.396 . S
C1245 C1250 1.390 . S
C1246 C1240 1.465 . S
C1246 C1245 1.396 . S
C1246 C1247 1.399 . S
C1247 H1233 0.929 . S
C1247 C1246 1.399 . S
C1247 C1248 1.385 . S
C1248 H1234 0.931 . S
C1248 C1247 1.385 . S
C1248 C1249 1.389 . S
C1249 C1248 1.389 . S
C1249 C1250 1.387 . S
C1250 H1235 0.930 . S
C1250 C1245 1.390 . S
C1250 C1249 1.387 . S
H1251 C1263 0.930 . S
H1252 C1265 0.930 . S
H1253 C1266 0.930 . S
H1254 C1270 0.959 . S
H1255 C1270 0.959 . S
H1256 C1270 0.961 . S
H1257 C1271 0.960 . S
H1258 C1271 0.961 . S
H1259 C1271 0.959 . S
H1260 C1274 0.929 . S
H1261 C1275 0.931 . S
H1262 C1277 0.930 . S
C1263 H1251 0.930 . S
C1263 C1264 1.399 . S
C1263 C1268 1.399 . S
C1264 C1263 1.399 . S
C1264 C1265 1.376 . S
C1265 H1252 0.930 . S
C1265 C1264 1.376 . S
C1265 C1266 1.388 . S
C1266 H1253 0.930 . S
C1266 C1265 1.388 . S
C1266 C1267 1.390 . S
C1267 C1266 1.390 . S
C1267 C1268 1.394 . S
C1267 C1273 1.465 . S
C1268 C1263 1.399 . S
C1268 C1267 1.394 . S
C1268 C1269 1.516 . S
C1269 C1268 1.516 . S
C1269 C1270 1.502 . S
C1269 C1271 1.561 . S
C1269 C1272 1.526 . S
C1270 H1254 0.959 . S
C1270 H1255 0.959 . S
C1270 H1256 0.961 . S
C1270 C1269 1.502 . S
C1271 H1257 0.960 . S
C1271 H1258 0.961 . S
C1271 H1259 0.959 . S
C1271 C1269 1.561 . S
C1272 C1269 1.526 . S
C1272 C1273 1.396 . S
C1272 C1277 1.390 . S
C1273 C1267 1.465 . S
C1273 C1272 1.396 . S
C1273 C1274 1.399 . S
C1274 H1260 0.929 . S
C1274 C1273 1.399 . S
C1274 C1275 1.385 . S
C1275 H1261 0.931 . S
C1275 C1274 1.385 . S
C1275 C1276 1.389 . S
C1276 C1275 1.389 . S
C1276 C1277 1.387 . S
C1277 H1262 0.930 . S
C1277 C1272 1.390 . S
C1277 C1276 1.387 . S
H1278 C1290 0.930 1_565 S
H1279 C1292 0.930 . S
H1280 C1293 0.930 . S
H1281 C1297 0.959 . S
H1282 C1297 0.959 . S
H1283 C1297 0.961 . S
H1284 C1298 0.960 . S
H1285 C1298 0.961 . S
H1286 C1298 0.959 . S
H1287 C1301 0.929 . S
H1288 C1302 0.931 . S
H1289 C1304 0.930 . S
C1290 H1278 0.930 1_545 S
C1290 C1291 1.399 . S
C1290 C1295 1.399 . S
C1291 C1290 1.399 . S
C1291 C1292 1.376 . S
C1292 H1279 0.930 . S
C1292 C1291 1.376 . S
C1292 C1293 1.388 . S
C1293 H1280 0.930 . S
C1293 C1292 1.388 . S
C1293 C1294 1.390 . S
C1294 C1293 1.390 . S
C1294 C1295 1.394 . S
C1294 C1300 1.465 . S
C1295 C1290 1.399 . S
C1295 C1294 1.394 . S
C1295 C1296 1.516 . S
C1296 C1295 1.516 . S
C1296 C1297 1.502 . S
C1296 C1298 1.561 . S
C1296 C1299 1.526 . S
C1297 H1281 0.959 . S
C1297 H1282 0.959 . S
C1297 H1283 0.961 . S
C1297 C1296 1.502 . S
C1298 H1284 0.960 . S
C1298 H1285 0.961 . S
C1298 H1286 0.959 . S
C1298 C1296 1.561 . S
C1299 C1296 1.526 . S
C1299 C1300 1.396 . S
C1299 C1304 1.390 . S
C1300 C1294 1.465 . S
C1300 C1299 1.396 . S
C1300 C1301 1.399 . S
C1301 H1287 0.929 . S
C1301 C1300 1.399 . S
C1301 C1302 1.385 . S
C1302 H1288 0.931 . S
C1302 C1301 1.385 . S
C1302 C1303 1.389 . S
C1303 C1302 1.389 . S
C1303 C1304 1.387 . S
C1304 H1289 0.930 . S
C1304 C1299 1.390 . S
C1304 C1303 1.387 . S
H1305 C1317 0.930 . S
H1306 C1319 0.930 . S
H1307 C1320 0.930 . S
H1308 C1324 0.959 . S
H1309 C1324 0.959 . S
H1310 C1324 0.961 . S
H1311 C1325 0.960 . S
H1312 C1325 0.961 . S
H1313 C1325 0.959 . S
H1314 C1328 0.929 . S
H1315 C1329 0.931 . S
H1316 C1331 0.930 . S
C1317 H1305 0.930 . S
C1317 C1318 1.399 . S
C1317 C1322 1.399 . S
C1318 C1317 1.399 . S
C1318 C1319 1.376 . S
C1319 H1306 0.930 . S
C1319 C1318 1.376 . S
C1319 C1320 1.388 . S
C1320 H1307 0.930 . S
C1320 C1319 1.388 . S
C1320 C1321 1.390 . S
C1321 C1320 1.390 . S
C1321 C1322 1.394 . S
C1321 C1327 1.465 . S
C1322 C1317 1.399 . S
C1322 C1321 1.394 . S
C1322 C1323 1.516 . S
C1323 C1322 1.516 . S
C1323 C1324 1.502 . S
C1323 C1325 1.561 . S
C1323 C1326 1.526 . S
C1324 H1308 0.959 . S
C1324 H1309 0.959 . S
C1324 H1310 0.961 . S
C1324 C1323 1.502 . S
C1325 H1311 0.960 . S
C1325 H1312 0.961 . S
C1325 H1313 0.959 . S
C1325 C1323 1.561 . S
C1326 C1323 1.526 . S
C1326 C1327 1.396 . S
C1326 C1331 1.390 . S
C1327 C1321 1.465 . S
C1327 C1326 1.396 . S
C1327 C1328 1.399 . S
C1328 H1314 0.929 . S
C1328 C1327 1.399 . S
C1328 C1329 1.385 . S
C1329 H1315 0.931 . S
C1329 C1328 1.385 . S
C1329 C1330 1.389 . S
C1330 C1329 1.389 . S
C1330 C1331 1.387 . S
C1331 H1316 0.930 . S
C1331 C1326 1.390 . S
C1331 C1330 1.387 . S
H1332 C1344 0.930 . S
H1333 C1346 0.930 1_545 S
H1334 C1347 0.930 . S
H1335 C1351 0.959 . S
H1336 C1351 0.959 . S
H1337 C1351 0.961 . S
H1338 C1352 0.960 . S
H1339 C1352 0.961 . S
H1340 C1352 0.959 . S
H1341 C1355 0.929 . S
H1342 C1356 0.931 . S
H1343 C1358 0.930 . S
C1344 H1332 0.930 . S
C1344 C1345 1.399 . S
C1344 C1349 1.399 . S
C1345 C1344 1.399 . S
C1345 C1346 1.376 . S
C1346 H1333 0.930 1_565 S
C1346 C1345 1.376 . S
C1346 C1347 1.388 . S
C1347 H1334 0.930 . S
C1347 C1346 1.388 . S
C1347 C1348 1.390 . S
C1348 C1347 1.390 . S
C1348 C1349 1.394 . S
C1348 C1354 1.465 . S
C1349 C1344 1.399 . S
C1349 C1348 1.394 . S
C1349 C1350 1.516 . S
C1350 C1349 1.516 . S
C1350 C1351 1.502 . S
C1350 C1352 1.561 . S
C1350 C1353 1.526 . S
C1351 H1335 0.959 . S
C1351 H1336 0.959 . S
C1351 H1337 0.961 . S
C1351 C1350 1.502 . S
C1352 H1338 0.960 . S
C1352 H1339 0.961 . S
C1352 H1340 0.959 . S
C1352 C1350 1.561 . S
C1353 C1350 1.526 . S
C1353 C1354 1.396 . S
C1353 C1358 1.390 . S
C1354 C1348 1.465 . S
C1354 C1353 1.396 . S
C1354 C1355 1.399 . S
C1355 H1341 0.929 . S
C1355 C1354 1.399 . S
C1355 C1356 1.385 . S
C1356 H1342 0.931 . S
C1356 C1355 1.385 . S
C1356 C1357 1.389 . S
C1357 C1356 1.389 . S
C1357 C1358 1.387 . S
C1358 H1343 0.930 . S
C1358 C1353 1.390 . S
C1358 C1357 1.387 . S
H1359 C1371 0.930 . S
H1360 C1373 0.930 . S
H1361 C1374 0.930 . S
H1362 C1378 0.959 . S
H1363 C1378 0.959 . S
H1364 C1378 0.961 . S
H1365 C1379 0.960 . S
H1366 C1379 0.961 . S
H1367 C1379 0.959 . S
H1368 C1382 0.929 . S
H1369 C1383 0.931 . S
H1370 C1385 0.930 . S
C1371 H1359 0.930 . S
C1371 C1372 1.399 . S
C1371 C1376 1.399 . S
C1372 C1371 1.399 . S
C1372 C1373 1.376 . S
C1373 H1360 0.930 . S
C1373 C1372 1.376 . S
C1373 C1374 1.388 . S
C1374 H1361 0.930 . S
C1374 C1373 1.388 . S
C1374 C1375 1.390 . S
C1375 C1374 1.390 . S
C1375 C1376 1.394 . S
C1375 C1381 1.465 . S
C1376 C1371 1.399 . S
C1376 C1375 1.394 . S
C1376 C1377 1.516 . S
C1377 C1376 1.516 . S
C1377 C1378 1.502 . S
C1377 C1379 1.561 . S
C1377 C1380 1.526 . S
C1378 H1362 0.959 . S
C1378 H1363 0.959 . S
C1378 H1364 0.961 . S
C1378 C1377 1.502 . S
C1379 H1365 0.960 . S
C1379 H1366 0.961 . S
C1379 H1367 0.959 . S
C1379 C1377 1.561 . S
C1380 C1377 1.526 . S
C1380 C1381 1.396 . S
C1380 C1385 1.390 . S
C1381 C1375 1.465 . S
C1381 C1380 1.396 . S
C1381 C1382 1.399 . S
C1382 H1368 0.929 . S
C1382 C1381 1.399 . S
C1382 C1383 1.385 . S
C1383 H1369 0.931 . S
C1383 C1382 1.385 . S
C1383 C1384 1.389 . S
C1384 C1383 1.389 . S
C1384 C1385 1.387 . S
C1385 H1370 0.930 . S
C1385 C1380 1.390 . S
C1385 C1384 1.387 . S
H1386 C1398 0.930 . S
H1387 C1400 0.929 . S
H1388 C1401 0.930 . S
H1389 C1405 0.959 . S
H1390 C1405 0.959 . S
H1391 C1405 0.961 . S
H1392 C1406 0.960 . S
H1393 C1406 0.961 . S
H1394 C1406 0.959 . S
H1395 C1409 0.929 . S
H1396 C1410 0.931 . S
H1397 C1412 0.930 . S
C1398 H1386 0.930 . S
C1398 C1399 1.399 . S
C1398 C1403 1.399 . S
C1399 C1398 1.399 . S
C1399 C1400 1.377 1_565 S
C1400 H1387 0.929 . S
C1400 C1399 1.377 1_545 S
C1400 C1401 1.389 1_545 S
C1401 H1388 0.930 . S
C1401 C1400 1.389 1_565 S
C1401 C1402 1.390 . S
C1402 C1401 1.390 . S
C1402 C1403 1.394 . S
C1402 C1408 1.465 . S
C1403 C1398 1.399 . S
C1403 C1402 1.394 . S
C1403 C1404 1.516 . S
C1404 C1403 1.516 . S
C1404 C1405 1.502 . S
C1404 C1406 1.561 . S
C1404 C1407 1.526 . S
C1405 H1389 0.959 . S
C1405 H1390 0.959 . S
C1405 H1391 0.961 . S
C1405 C1404 1.502 . S
C1406 H1392 0.960 . S
C1406 H1393 0.961 . S
C1406 H1394 0.959 . S
C1406 C1404 1.561 . S
C1407 C1404 1.526 . S
C1407 C1408 1.396 . S
C1407 C1412 1.390 . S
C1408 C1402 1.465 . S
C1408 C1407 1.396 . S
C1408 C1409 1.399 . S
C1409 H1395 0.929 . S
C1409 C1408 1.399 . S
C1409 C1410 1.385 . S
C1410 H1396 0.931 . S
C1410 C1409 1.385 . S
C1410 C1411 1.389 . S
C1411 C1410 1.389 . S
C1411 C1412 1.387 . S
C1412 H1397 0.930 . S
C1412 C1407 1.390 . S
C1412 C1411 1.387 . S
H1413 C1425 0.930 . S
H1414 C1427 0.930 . S
H1415 C1428 0.930 . S
H1416 C1432 0.959 . S
H1417 C1432 0.959 . S
H1418 C1432 0.961 . S
H1419 C1433 0.960 . S
H1420 C1433 0.961 . S
H1421 C1433 0.959 . S
H1422 C1436 0.929 . S
H1423 C1437 0.931 . S
H1424 C1439 0.930 . S
C1425 H1413 0.930 . S
C1425 C1426 1.399 . S
C1425 C1430 1.399 . S
C1426 C1425 1.399 . S
C1426 C1427 1.376 . S
C1427 H1414 0.930 . S
C1427 C1426 1.376 . S
C1427 C1428 1.388 . S
C1428 H1415 0.930 . S
C1428 C1427 1.388 . S
C1428 C1429 1.390 . S
C1429 C1428 1.390 . S
C1429 C1430 1.394 . S
C1429 C1435 1.465 . S
C1430 C1425 1.399 . S
C1430 C1429 1.394 . S
C1430 C1431 1.516 . S
C1431 C1430 1.516 . S
C1431 C1432 1.502 . S
C1431 C1433 1.561 . S
C1431 C1434 1.526 . S
C1432 H1416 0.959 . S
C1432 H1417 0.959 . S
C1432 H1418 0.961 . S
C1432 C1431 1.502 . S
C1433 H1419 0.960 . S
C1433 H1420 0.961 . S
C1433 H1421 0.959 . S
C1433 C1431 1.561 . S
C1434 C1431 1.526 . S
C1434 C1435 1.396 . S
C1434 C1439 1.390 . S
C1435 C1429 1.465 . S
C1435 C1434 1.396 . S
C1435 C1436 1.399 . S
C1436 H1422 0.929 . S
C1436 C1435 1.399 . S
C1436 C1437 1.385 . S
C1437 H1423 0.931 . S
C1437 C1436 1.385 . S
C1437 C1438 1.389 . S
C1438 C1437 1.389 . S
C1438 C1439 1.387 . S
C1439 H1424 0.930 . S
C1439 C1434 1.390 . S
C1439 C1438 1.387 . S
H1440 C1452 0.930 . S
H1441 C1454 0.930 . S
H1442 C1455 0.930 . S
H1443 C1459 0.959 . S
H1444 C1459 0.959 . S
H1445 C1459 0.961 . S
H1446 C1460 0.962 . S
H1447 C1460 0.961 1_554 S
H1448 C1460 0.959 . S
H1449 C1463 0.929 . S
H1450 C1464 0.931 . S
H1451 C1466 0.930 . S
C1452 H1440 0.930 . S
C1452 C1453 1.399 . S
C1452 C1457 1.399 . S
C1453 C1452 1.399 . S
C1453 C1454 1.376 . S
C1454 H1441 0.930 . S
C1454 C1453 1.376 . S
C1454 C1455 1.388 1_655 S
C1455 H1442 0.930 . S
C1455 C1454 1.388 1_455 S
C1455 C1456 1.390 . S
C1456 C1455 1.390 . S
C1456 C1457 1.394 1_455 S
C1456 C1462 1.465 1_556 S
C1457 C1452 1.399 . S
C1457 C1456 1.394 1_655 S
C1457 C1458 1.516 1_556 S
C1458 C1457 1.516 1_554 S
C1458 C1459 1.502 . S
C1458 C1460 1.561 1_654 S
C1458 C1461 1.526 1_655 S
C1459 H1443 0.959 . S
C1459 H1444 0.959 . S
C1459 H1445 0.961 . S
C1459 C1458 1.502 . S
C1460 H1446 0.962 . S
C1460 H1447 0.961 1_556 S
C1460 H1448 0.959 . S
C1460 C1458 1.561 1_456 S
C1461 C1458 1.526 1_455 S
C1461 C1462 1.396 . S
C1461 C1466 1.390 . S
C1462 C1456 1.465 1_554 S
C1462 C1461 1.396 . S
C1462 C1463 1.399 . S
C1463 H1449 0.929 . S
C1463 C1462 1.399 . S
C1463 C1464 1.385 . S
C1464 H1450 0.931 . S
C1464 C1463 1.385 . S
C1464 C1465 1.389 . S
C1465 C1464 1.389 . S
C1465 C1466 1.387 . S
C1466 H1451 0.930 . S
C1466 C1461 1.390 . S
C1466 C1465 1.387 . S
H1467 C1479 0.930 . S
H1468 C1481 0.930 . S
H1469 C1482 0.930 . S
H1470 C1486 0.959 . S
H1471 C1486 0.959 . S
H1472 C1486 0.961 . S
H1473 C1487 0.960 . S
H1474 C1487 0.961 . S
H1475 C1487 0.959 . S
H1476 C1490 0.929 . S
H1477 C1491 0.931 . S
H1478 C1493 0.930 . S
C1479 H1467 0.930 . S
C1479 C1480 1.399 . S
C1479 C1484 1.399 . S
C1480 C1479 1.399 . S
C1480 C1481 1.376 . S
C1481 H1468 0.930 . S
C1481 C1480 1.376 . S
C1481 C1482 1.388 . S
C1482 H1469 0.930 . S
C1482 C1481 1.388 . S
C1482 C1483 1.390 . S
C1483 C1482 1.390 . S
C1483 C1484 1.394 . S
C1483 C1489 1.465 . S
C1484 C1479 1.399 . S
C1484 C1483 1.394 . S
C1484 C1485 1.516 . S
C1485 C1484 1.516 . S
C1485 C1486 1.502 . S
C1485 C1487 1.561 . S
C1485 C1488 1.526 . S
C1486 H1470 0.959 . S
C1486 H1471 0.959 . S
C1486 H1472 0.961 . S
C1486 C1485 1.502 . S
C1487 H1473 0.960 . S
C1487 H1474 0.961 . S
C1487 H1475 0.959 . S
C1487 C1485 1.561 . S
C1488 C1485 1.526 . S
C1488 C1489 1.396 . S
C1488 C1493 1.390 . S
C1489 C1483 1.465 . S
C1489 C1488 1.396 . S
C1489 C1490 1.399 . S
C1490 H1476 0.929 . S
C1490 C1489 1.399 . S
C1490 C1491 1.385 . S
C1491 H1477 0.931 . S
C1491 C1490 1.385 . S
C1491 C1492 1.389 . S
C1492 C1491 1.389 . S
C1492 C1493 1.387 . S
C1493 H1478 0.930 . S
C1493 C1488 1.390 . S
C1493 C1492 1.387 . S
H1494 C1506 0.930 . S
H1495 C1508 0.928 1_655 S
H1496 C1509 0.930 . S
H1497 C1513 0.959 . S
H1498 C1513 0.959 . S
H1499 C1513 0.961 . S
H1500 C1514 0.960 1_556 S
H1501 C1514 0.961 . S
H1502 C1514 0.959 1_656 S
H1503 C1517 0.929 . S
H1504 C1518 0.931 . S
H1505 C1520 0.950 . S
C1506 H1494 0.930 . S
C1506 C1507 1.399 . S
C1506 C1511 1.399 . S
C1507 C1506 1.399 . S
C1507 C1508 1.376 . S
C1508 H1495 0.928 1_455 S
C1508 C1507 1.376 . S
C1508 C1509 1.388 1_455 S
C1509 H1496 0.930 . S
C1509 C1508 1.388 1_655 S
C1509 C1510 1.390 . S
C1510 C1509 1.390 . S
C1510 C1511 1.394 1_655 S
C1510 C1516 1.465 1_556 S
C1511 C1506 1.399 . S
C1511 C1510 1.394 1_455 S
C1511 C1512 1.516 1_556 S
C1512 C1511 1.516 1_554 S
C1512 C1513 1.502 . S
C1512 C1514 1.561 . S
C1512 C1515 1.526 1_455 S
C1513 H1497 0.959 . S
C1513 H1498 0.959 . S
C1513 H1499 0.961 . S
C1513 C1512 1.502 . S
C1514 H1500 0.960 1_554 S
C1514 H1501 0.961 . S
C1514 H1502 0.959 1_454 S
C1514 C1512 1.561 . S
C1515 C1512 1.526 1_655 S
C1515 C1516 1.396 . S
C1515 C1520 1.390 . S
C1516 C1510 1.465 1_554 S
C1516 C1515 1.396 . S
C1516 C1517 1.399 . S
C1517 H1503 0.929 . S
C1517 C1516 1.399 . S
C1517 C1518 1.385 . S
C1518 H1504 0.931 . S
C1518 C1517 1.385 . S
C1518 C1519 1.389 . S
C1519 C1518 1.389 . S
C1519 C1520 1.387 . S
C1520 H1505 0.950 . S
C1520 C1515 1.390 . S
C1520 C1519 1.387 . S
H1521 C1533 0.930 . S
H1522 C1535 0.930 . S
H1523 C1536 0.930 . S
H1524 C1540 0.959 . S
H1525 C1540 0.959 . S
H1526 C1540 0.961 . S
H1527 C1541 0.960 . S
H1528 C1541 0.961 . S
H1529 C1541 0.959 . S
H1530 C1544 0.929 . S
H1531 C1545 0.931 . S
H1532 C1547 0.930 . S
C1533 H1521 0.930 . S
C1533 C1534 1.399 . S
C1533 C1538 1.399 . S
C1534 C1533 1.399 . S
C1534 C1535 1.376 . S
C1535 H1522 0.930 . S
C1535 C1534 1.376 . S
C1535 C1536 1.388 . S
C1536 H1523 0.930 . S
C1536 C1535 1.388 . S
C1536 C1537 1.390 . S
C1537 C1536 1.390 . S
C1537 C1538 1.394 . S
C1537 C1543 1.465 . S
C1538 C1533 1.399 . S
C1538 C1537 1.394 . S
C1538 C1539 1.516 . S
C1539 C1538 1.516 . S
C1539 C1540 1.502 . S
C1539 C1541 1.561 . S
C1539 C1542 1.526 . S
C1540 H1524 0.959 . S
C1540 H1525 0.959 . S
C1540 H1526 0.961 . S
C1540 C1539 1.502 . S
C1541 H1527 0.960 . S
C1541 H1528 0.961 . S
C1541 H1529 0.959 . S
C1541 C1539 1.561 . S
C1542 C1539 1.526 . S
C1542 C1543 1.396 . S
C1542 C1547 1.390 . S
C1543 C1537 1.465 . S
C1543 C1542 1.396 . S
C1543 C1544 1.399 . S
C1544 H1530 0.929 . S
C1544 C1543 1.399 . S
C1544 C1545 1.385 . S
C1545 H1531 0.931 . S
C1545 C1544 1.385 . S
C1545 C1546 1.389 . S
C1546 C1545 1.389 . S
C1546 C1547 1.387 . S
C1547 H1532 0.930 . S
C1547 C1542 1.390 . S
C1547 C1546 1.387 . S
H1548 C1560 0.930 . S
H1549 C1562 0.927 1_545 S
H1550 C1563 0.930 . S
H1551 C1567 0.959 . S
H1552 C1567 0.959 . S
H1553 C1567 0.961 . S
H1554 C1568 0.960 1_655 S
H1555 C1568 0.961 . S
H1556 C1568 0.965 1_545 S
H1557 C1571 0.929 . S
H1558 C1572 0.931 . S
H1559 C1574 0.930 1_565 S
C1560 H1548 0.930 . S
C1560 C1561 1.399 . S
C1560 C1565 1.399 . S
C1561 C1560 1.399 . S
C1561 C1562 1.387 . S
C1562 H1549 0.927 1_565 S
C1562 C1561 1.387 . S
C1562 C1563 1.382 1_565 S
C1563 H1550 0.930 . S
C1563 C1562 1.382 1_545 S
C1563 C1564 1.390 . S
C1564 C1563 1.390 . S
C1564 C1565 1.394 1_545 S
C1564 C1570 1.465 1_655 S
C1565 C1560 1.399 . S
C1565 C1564 1.394 1_565 S
C1565 C1566 1.516 1_655 S
C1566 C1565 1.516 1_455 S
C1566 C1567 1.502 . S
C1566 C1568 1.561 . S
C1566 C1569 1.526 1_565 S
C1567 H1551 0.959 . S
C1567 H1552 0.959 . S
C1567 H1553 0.961 . S
C1567 C1566 1.502 . S
C1568 H1554 0.960 1_455 S
C1568 H1555 0.961 . S
C1568 H1556 0.965 1_565 S
C1568 C1566 1.561 . S
C1569 C1566 1.526 1_545 S
C1569 C1570 1.396 . S
C1569 C1574 1.390 . S
C1570 C1564 1.465 1_455 S
C1570 C1569 1.396 . S
C1570 C1571 1.399 . S
C1571 H1557 0.929 . S
C1571 C1570 1.399 . S
C1571 C1572 1.385 . S
C1572 H1558 0.931 . S
C1572 C1571 1.385 . S
C1572 C1573 1.389 . S
C1573 C1572 1.389 . S
C1573 C1574 1.387 . S
C1574 H1559 0.930 1_545 S
C1574 C1569 1.390 . S
C1574 C1573 1.387 . S
H1575 C1587 0.930 . S
H1576 C1589 0.930 . S
H1577 C1590 0.930 . S
H1578 C1594 0.959 . S
H1579 C1594 0.959 . S
H1580 C1594 0.961 . S
H1581 C1595 0.960 . S
H1582 C1595 0.961 . S
H1583 C1595 0.959 . S
H1584 C1598 0.929 . S
H1585 C1599 0.931 . S
H1586 C1601 0.930 . S
C1587 H1575 0.930 . S
C1587 C1588 1.399 . S
C1587 C1592 1.399 . S
C1588 C1587 1.399 . S
C1588 C1589 1.376 . S
C1589 H1576 0.930 . S
C1589 C1588 1.376 . S
C1589 C1590 1.388 . S
C1590 H1577 0.930 . S
C1590 C1589 1.388 . S
C1590 C1591 1.390 . S
C1591 C1590 1.390 . S
C1591 C1592 1.394 . S
C1591 C1597 1.465 . S
C1592 C1587 1.399 . S
C1592 C1591 1.394 . S
C1592 C1593 1.516 . S
C1593 C1592 1.516 . S
C1593 C1594 1.502 . S
C1593 C1595 1.561 . S
C1593 C1596 1.526 . S
C1594 H1578 0.959 . S
C1594 H1579 0.959 . S
C1594 H1580 0.961 . S
C1594 C1593 1.502 . S
C1595 H1581 0.960 . S
C1595 H1582 0.961 . S
C1595 H1583 0.959 . S
C1595 C1593 1.561 . S
C1596 C1593 1.526 . S
C1596 C1597 1.396 . S
C1596 C1601 1.390 . S
C1597 C1591 1.465 . S
C1597 C1596 1.396 . S
C1597 C1598 1.399 . S
C1598 H1584 0.929 . S
C1598 C1597 1.399 . S
C1598 C1599 1.385 . S
C1599 H1585 0.931 . S
C1599 C1598 1.385 . S
C1599 C1600 1.389 . S
C1600 C1599 1.389 . S
C1600 C1601 1.387 . S
C1601 H1586 0.930 . S
C1601 C1596 1.390 . S
C1601 C1600 1.387 . S
H1602 C1614 0.930 1_545 S
H1603 C1616 0.930 . S
H1604 C1617 0.930 . S
H1605 C1621 0.959 . S
H1606 C1621 0.959 . S
H1607 C1621 0.961 . S
H1608 C1622 0.960 . S
H1609 C1622 0.961 . S
H1610 C1622 0.959 . S
H1611 C1625 0.929 . S
H1612 C1626 0.931 . S
H1613 C1628 0.930 . S
C1614 H1602 0.930 1_565 S
C1614 C1615 1.399 . S
C1614 C1619 1.399 1_565 S
C1615 C1614 1.399 . S
C1615 C1616 1.376 . S
C1616 H1603 0.930 . S
C1616 C1615 1.376 . S
C1616 C1617 1.388 . S
C1617 H1604 0.930 . S
C1617 C1616 1.388 . S
C1617 C1618 1.390 . S
C1618 C1617 1.390 . S
C1618 C1619 1.394 1_565 S
C1618 C1624 1.465 1_455 S
C1619 C1614 1.399 1_545 S
C1619 C1618 1.394 1_545 S
C1619 C1620 1.516 . S
C1620 C1619 1.516 . S
C1620 C1621 1.502 . S
C1620 C1622 1.561 . S
C1620 C1623 1.526 1_455 S
C1621 H1605 0.959 . S
C1621 H1606 0.959 . S
C1621 H1607 0.961 . S
C1621 C1620 1.502 . S
C1622 H1608 0.960 . S
C1622 H1609 0.961 . S
C1622 H1610 0.959 . S
C1622 C1620 1.561 . S
C1623 C1620 1.526 1_655 S
C1623 C1624 1.396 1_545 S
C1623 C1628 1.390 . S
C1624 C1618 1.465 1_655 S
C1624 C1623 1.396 1_565 S
C1624 C1625 1.399 . S
C1625 H1611 0.929 . S
C1625 C1624 1.399 . S
C1625 C1626 1.385 . S
C1626 H1612 0.931 . S
C1626 C1625 1.385 . S
C1626 C1627 1.389 1_565 S
C1627 C1626 1.389 1_545 S
C1627 C1628 1.387 . S
C1628 H1613 0.930 . S
C1628 C1623 1.390 . S
C1628 C1627 1.387 . S
H1629 C1641 0.930 . S
H1630 C1643 0.930 . S
H1631 C1644 0.930 . S
H1632 C1648 0.959 . S
H1633 C1648 0.959 . S
H1634 C1648 0.961 . S
H1635 C1649 0.960 . S
H1636 C1649 0.961 . S
H1637 C1649 0.959 . S
H1638 C1652 0.929 . S
H1639 C1653 0.931 . S
H1640 C1655 0.930 . S
C1641 H1629 0.930 . S
C1641 C1642 1.399 . S
C1641 C1646 1.399 . S
C1642 C1641 1.399 . S
C1642 C1643 1.376 . S
C1643 H1630 0.930 . S
C1643 C1642 1.376 . S
C1643 C1644 1.388 . S
C1644 H1631 0.930 . S
C1644 C1643 1.388 . S
C1644 C1645 1.390 . S
C1645 C1644 1.390 . S
C1645 C1646 1.394 . S
C1645 C1651 1.465 . S
C1646 C1641 1.399 . S
C1646 C1645 1.394 . S
C1646 C1647 1.516 . S
C1647 C1646 1.516 . S
C1647 C1648 1.502 . S
C1647 C1649 1.561 . S
C1647 C1650 1.526 . S
C1648 H1632 0.959 . S
C1648 H1633 0.959 . S
C1648 H1634 0.961 . S
C1648 C1647 1.502 . S
C1649 H1635 0.960 . S
C1649 H1636 0.961 . S
C1649 H1637 0.959 . S
C1649 C1647 1.561 . S
C1650 C1647 1.526 . S
C1650 C1651 1.396 . S
C1650 C1655 1.390 . S
C1651 C1645 1.465 . S
C1651 C1650 1.396 . S
C1651 C1652 1.399 . S
C1652 H1638 0.929 . S
C1652 C1651 1.399 . S
C1652 C1653 1.385 . S
C1653 H1639 0.931 . S
C1653 C1652 1.385 . S
C1653 C1654 1.389 . S
C1654 C1653 1.389 . S
C1654 C1655 1.387 . S
C1655 H1640 0.930 . S
C1655 C1650 1.390 . S
C1655 C1654 1.387 . S
H1656 C1668 0.930 . S
H1657 C1670 0.930 . S
H1658 C1671 0.930 . S
H1659 C1675 0.959 . S
H1660 C1675 0.959 . S
H1661 C1675 0.961 . S
H1662 C1676 0.967 1_545 S
H1663 C1676 0.984 . S
H1664 C1676 0.907 1_546 S
H1665 C1679 0.929 . S
H1666 C1680 0.931 . S
H1667 C1682 0.930 . S
C1668 H1656 0.930 . S
C1668 C1669 1.399 . S
C1668 C1673 1.399 . S
C1669 C1668 1.399 . S
C1669 C1670 1.376 . S
C1670 H1657 0.930 . S
C1670 C1669 1.376 . S
C1670 C1671 1.388 1_554 S
C1671 H1658 0.930 . S
C1671 C1670 1.388 1_556 S
C1671 C1672 1.390 . S
C1672 C1671 1.390 . S
C1672 C1673 1.394 1_556 S
C1672 C1678 1.465 1_545 S
C1673 C1668 1.399 . S
C1673 C1672 1.394 1_554 S
C1673 C1674 1.516 1_545 S
C1674 C1673 1.516 1_565 S
C1674 C1675 1.502 . S
C1674 C1676 1.586 . S
C1674 C1677 1.526 1_554 S
C1675 H1659 0.959 . S
C1675 H1660 0.959 . S
C1675 H1661 0.961 . S
C1675 C1674 1.502 . S
C1676 H1662 0.967 1_565 S
C1676 H1663 0.984 . S
C1676 H1664 0.907 1_564 S
C1676 C1674 1.586 . S
C1677 C1674 1.526 1_556 S
C1677 C1678 1.396 . S
C1677 C1682 1.390 . S
C1678 C1672 1.465 1_565 S
C1678 C1677 1.396 . S
C1678 C1679 1.399 . S
C1679 H1665 0.929 . S
C1679 C1678 1.399 . S
C1679 C1680 1.385 . S
C1680 H1666 0.931 . S
C1680 C1679 1.385 . S
C1680 C1681 1.389 . S
C1681 C1680 1.389 . S
C1681 C1682 1.387 . S
C1682 H1667 0.930 . S
C1682 C1677 1.390 . S
C1682 C1681 1.387 . S
H1683 C1695 0.930 . S
H1684 C1697 0.930 . S
H1685 C1698 0.930 . S
H1686 C1702 0.959 . S
H1687 C1702 0.959 . S
H1688 C1702 0.961 . S
H1689 C1703 0.960 . S
H1690 C1703 0.961 . S
H1691 C1703 0.959 . S
H1692 C1706 0.929 . S
H1693 C1707 0.931 . S
H1694 C1709 0.930 . S
C1695 H1683 0.930 . S
C1695 C1696 1.399 . S
C1695 C1700 1.399 . S
C1696 C1695 1.399 . S
C1696 C1697 1.376 . S
C1697 H1684 0.930 . S
C1697 C1696 1.376 . S
C1697 C1698 1.388 . S
C1698 H1685 0.930 . S
C1698 C1697 1.388 . S
C1698 C1699 1.390 . S
C1699 C1698 1.390 . S
C1699 C1700 1.394 . S
C1699 C1705 1.465 . S
C1700 C1695 1.399 . S
C1700 C1699 1.394 . S
C1700 C1701 1.516 . S
C1701 C1700 1.516 . S
C1701 C1702 1.502 . S
C1701 C1703 1.561 . S
C1701 C1704 1.526 . S
C1702 H1686 0.959 . S
C1702 H1687 0.959 . S
C1702 H1688 0.961 . S
C1702 C1701 1.502 . S
C1703 H1689 0.960 . S
C1703 H1690 0.961 . S
C1703 H1691 0.959 . S
C1703 C1701 1.561 . S
C1704 C1701 1.526 . S
C1704 C1705 1.396 . S
C1704 C1709 1.390 . S
C1705 C1699 1.465 . S
C1705 C1704 1.396 . S
C1705 C1706 1.399 . S
C1706 H1692 0.929 . S
C1706 C1705 1.399 . S
C1706 C1707 1.385 . S
C1707 H1693 0.931 . S
C1707 C1706 1.385 . S
C1707 C1708 1.389 . S
C1708 C1707 1.389 . S
C1708 C1709 1.387 . S
C1709 H1694 0.930 . S
C1709 C1704 1.390 . S
C1709 C1708 1.387 . S
H1710 C1722 0.930 1_554 S
H1711 C1724 0.930 . S
H1712 C1725 0.930 . S
H1713 C1729 0.959 . S
H1714 C1729 0.959 . S
H1715 C1729 0.961 . S
H1716 C1730 0.960 . S
H1717 C1730 0.961 . S
H1718 C1730 0.959 . S
H1719 C1733 0.929 . S
H1720 C1734 0.931 . S
H1721 C1736 0.930 . S
C1722 H1710 0.930 1_556 S
C1722 C1723 1.399 . S
C1722 C1727 1.399 1_556 S
C1723 C1722 1.399 . S
C1723 C1724 1.376 . S
C1724 H1711 0.930 . S
C1724 C1723 1.376 . S
C1724 C1725 1.388 . S
C1725 H1712 0.930 . S
C1725 C1724 1.388 . S
C1725 C1726 1.390 . S
C1726 C1725 1.390 . S
C1726 C1727 1.394 1_556 S
C1726 C1732 1.465 1_545 S
C1727 C1722 1.399 1_554 S
C1727 C1726 1.394 1_554 S
C1727 C1728 1.516 . S
C1728 C1727 1.516 . S
C1728 C1729 1.502 . S
C1728 C1730 1.561 . S
C1728 C1731 1.526 1_545 S
C1729 H1713 0.959 . S
C1729 H1714 0.959 . S
C1729 H1715 0.961 . S
C1729 C1728 1.502 . S
C1730 H1716 0.960 . S
C1730 H1717 0.961 . S
C1730 H1718 0.959 . S
C1730 C1728 1.561 . S
C1731 C1728 1.526 1_565 S
C1731 C1732 1.396 1_554 S
C1731 C1736 1.390 . S
C1732 C1726 1.465 1_565 S
C1732 C1731 1.396 1_556 S
C1732 C1733 1.399 . S
C1733 H1719 0.929 . S
C1733 C1732 1.399 . S
C1733 C1734 1.385 . S
C1734 H1720 0.931 . S
C1734 C1733 1.385 . S
C1734 C1735 1.389 1_556 S
C1735 C1734 1.389 1_554 S
C1735 C1736 1.387 . S
C1736 H1721 0.930 . S
C1736 C1731 1.390 . S
C1736 C1735 1.387 . S
H1737 C1749 0.930 . S
H1738 C1751 0.930 . S
H1739 C1752 0.930 . S
H1740 C1756 0.959 . S
H1741 C1756 0.959 . S
H1742 C1756 0.961 . S
H1743 C1757 0.960 . S
H1744 C1757 0.961 . S
H1745 C1757 0.959 . S
H1746 C1760 0.929 . S
H1747 C1761 0.931 . S
H1748 C1763 0.930 . S
C1749 H1737 0.930 . S
C1749 C1750 1.399 . S
C1749 C1754 1.399 . S
C1750 C1749 1.399 . S
C1750 C1751 1.376 . S
C1751 H1738 0.930 . S
C1751 C1750 1.376 . S
C1751 C1752 1.388 . S
C1752 H1739 0.930 . S
C1752 C1751 1.388 . S
C1752 C1753 1.390 . S
C1753 C1752 1.390 . S
C1753 C1754 1.394 . S
C1753 C1759 1.465 . S
C1754 C1749 1.399 . S
C1754 C1753 1.394 . S
C1754 C1755 1.516 . S
C1755 C1754 1.516 . S
C1755 C1756 1.502 . S
C1755 C1757 1.561 . S
C1755 C1758 1.526 . S
C1756 H1740 0.959 . S
C1756 H1741 0.959 . S
C1756 H1742 0.961 . S
C1756 C1755 1.502 . S
C1757 H1743 0.960 . S
C1757 H1744 0.961 . S
C1757 H1745 0.959 . S
C1757 C1755 1.561 . S
C1758 C1755 1.526 . S
C1758 C1759 1.396 . S
C1758 C1763 1.390 . S
C1759 C1753 1.465 . S
C1759 C1758 1.396 . S
C1759 C1760 1.399 . S
C1760 H1746 0.929 . S
C1760 C1759 1.399 . S
C1760 C1761 1.385 . S
C1761 H1747 0.931 . S
C1761 C1760 1.385 . S
C1761 C1762 1.389 . S
C1762 C1761 1.389 . S
C1762 C1763 1.387 . S
C1763 H1748 0.930 . S
C1763 C1758 1.390 . S
C1763 C1762 1.387 . S
H1764 C1776 0.930 . S
H1765 C1778 0.930 . S
H1766 C1779 0.930 . S
H1767 C1783 0.959 . S
H1768 C1783 0.959 . S
H1769 C1783 0.961 . S
H1770 C1784 0.960 . S
H1771 C1784 0.961 . S
H1772 C1784 0.959 . S
H1773 C1787 0.929 . S
H1774 C1788 0.931 . S
H1775 C1790 0.930 . S
C1776 H1764 0.930 . S
C1776 C1777 1.399 . S
C1776 C1781 1.399 . S
C1777 C1776 1.399 . S
C1777 C1778 1.376 . S
C1778 H1765 0.930 . S
C1778 C1777 1.376 . S
C1778 C1779 1.388 . S
C1779 H1766 0.930 . S
C1779 C1778 1.388 . S
C1779 C1780 1.390 . S
C1780 C1779 1.390 . S
C1780 C1781 1.394 . S
C1780 C1786 1.465 . S
C1781 C1776 1.399 . S
C1781 C1780 1.394 . S
C1781 C1782 1.516 . S
C1782 C1781 1.516 . S
C1782 C1783 1.502 . S
C1782 C1784 1.561 . S
C1782 C1785 1.526 . S
C1783 H1767 0.959 . S
C1783 H1768 0.959 . S
C1783 H1769 0.961 . S
C1783 C1782 1.502 . S
C1784 H1770 0.960 . S
C1784 H1771 0.961 . S
C1784 H1772 0.959 . S
C1784 C1782 1.561 . S
C1785 C1782 1.526 . S
C1785 C1786 1.396 . S
C1785 C1790 1.390 . S
C1786 C1780 1.465 . S
C1786 C1785 1.396 . S
C1786 C1787 1.399 . S
C1787 H1773 0.929 . S
C1787 C1786 1.399 . S
C1787 C1788 1.385 . S
C1788 H1774 0.931 . S
C1788 C1787 1.385 . S
C1788 C1789 1.389 . S
C1789 C1788 1.389 . S
C1789 C1790 1.387 . S
C1790 H1775 0.930 . S
C1790 C1785 1.390 . S
C1790 C1789 1.387 . S
H1791 C1803 0.930 . S
H1792 C1805 0.930 . S
H1793 C1806 0.930 . S
H1794 C1810 0.959 . S
H1795 C1810 0.959 . S
H1796 C1810 0.961 . S
H1797 C1811 0.960 . S
H1798 C1811 0.961 . S
H1799 C1811 0.959 . S
H1800 C1814 0.929 . S
H1801 C1815 0.931 . S
H1802 C1817 0.930 . S
C1803 H1791 0.930 . S
C1803 C1804 1.399 . S
C1803 C1808 1.399 . S
C1804 C1803 1.399 . S
C1804 C1805 1.376 . S
C1805 H1792 0.930 . S
C1805 C1804 1.376 . S
C1805 C1806 1.388 . S
C1806 H1793 0.930 . S
C1806 C1805 1.388 . S
C1806 C1807 1.390 . S
C1807 C1806 1.390 . S
C1807 C1808 1.394 . S
C1807 C1813 1.465 . S
C1808 C1803 1.399 . S
C1808 C1807 1.394 . S
C1808 C1809 1.516 . S
C1809 C1808 1.516 . S
C1809 C1810 1.502 . S
C1809 C1811 1.561 . S
C1809 C1812 1.526 . S
C1810 H1794 0.959 . S
C1810 H1795 0.959 . S
C1810 H1796 0.961 . S
C1810 C1809 1.502 . S
C1811 H1797 0.960 . S
C1811 H1798 0.961 . S
C1811 H1799 0.959 . S
C1811 C1809 1.561 . S
C1812 C1809 1.526 . S
C1812 C1813 1.396 . S
C1812 C1817 1.390 . S
C1813 C1807 1.465 . S
C1813 C1812 1.396 . S
C1813 C1814 1.399 . S
C1814 H1800 0.929 . S
C1814 C1813 1.399 . S
C1814 C1815 1.385 . S
C1815 H1801 0.931 . S
C1815 C1814 1.385 . S
C1815 C1816 1.389 . S
C1816 C1815 1.389 . S
C1816 C1817 1.387 . S
C1817 H1802 0.930 . S
C1817 C1812 1.390 . S
C1817 C1816 1.387 . S
H1818 C1830 0.930 . S
H1819 C1832 0.930 . S
H1820 C1833 0.930 . S
H1821 C1837 0.959 . S
H1822 C1837 0.959 . S
H1823 C1837 0.961 . S
H1824 C1838 0.960 . S
H1825 C1838 0.961 . S
H1826 C1838 0.959 . S
H1827 C1841 0.929 . S
H1828 C1842 0.931 . S
H1829 C1844 0.930 . S
C1830 H1818 0.930 . S
C1830 C1831 1.399 . S
C1830 C1835 1.399 . S
C1831 C1830 1.399 . S
C1831 C1832 1.376 . S
C1832 H1819 0.930 . S
C1832 C1831 1.376 . S
C1832 C1833 1.388 . S
C1833 H1820 0.930 . S
C1833 C1832 1.388 . S
C1833 C1834 1.390 . S
C1834 C1833 1.390 . S
C1834 C1835 1.394 . S
C1834 C1840 1.465 . S
C1835 C1830 1.399 . S
C1835 C1834 1.394 . S
C1835 C1836 1.516 . S
C1836 C1835 1.516 . S
C1836 C1837 1.502 . S
C1836 C1838 1.561 . S
C1836 C1839 1.526 . S
C1837 H1821 0.959 . S
C1837 H1822 0.959 . S
C1837 H1823 0.961 . S
C1837 C1836 1.502 . S
C1838 H1824 0.960 . S
C1838 H1825 0.961 . S
C1838 H1826 0.959 . S
C1838 C1836 1.561 . S
C1839 C1836 1.526 . S
C1839 C1840 1.396 . S
C1839 C1844 1.390 . S
C1840 C1834 1.465 . S
C1840 C1839 1.396 . S
C1840 C1841 1.399 . S
C1841 H1827 0.929 . S
C1841 C1840 1.399 . S
C1841 C1842 1.385 . S
C1842 H1828 0.931 . S
C1842 C1841 1.385 . S
C1842 C1843 1.389 . S
C1843 C1842 1.389 . S
C1843 C1844 1.387 . S
C1844 H1829 0.930 . S
C1844 C1839 1.390 . S
C1844 C1843 1.387 . S
H1845 C1857 0.930 . S
H1846 C1859 0.930 . S
H1847 C1860 0.930 . S
H1848 C1864 0.959 . S
H1849 C1864 0.959 . S
H1850 C1864 0.961 . S
H1851 C1865 0.960 . S
H1852 C1865 0.961 . S
H1853 C1865 0.959 . S
H1854 C1868 0.929 . S
H1855 C1869 0.931 . S
H1856 C1871 0.930 . S
C1857 H1845 0.930 . S
C1857 C1858 1.399 . S
C1857 C1862 1.399 . S
C1858 C1857 1.399 . S
C1858 C1859 1.376 . S
C1859 H1846 0.930 . S
C1859 C1858 1.376 . S
C1859 C1860 1.388 . S
C1860 H1847 0.930 . S
C1860 C1859 1.388 . S
C1860 C1861 1.390 . S
C1861 C1860 1.390 . S
C1861 C1862 1.394 . S
C1861 C1867 1.465 . S
C1862 C1857 1.399 . S
C1862 C1861 1.394 . S
C1862 C1863 1.516 . S
C1863 C1862 1.516 . S
C1863 C1864 1.502 . S
C1863 C1865 1.561 . S
C1863 C1866 1.526 . S
C1864 H1848 0.959 . S
C1864 H1849 0.959 . S
C1864 H1850 0.961 . S
C1864 C1863 1.502 . S
C1865 H1851 0.960 . S
C1865 H1852 0.961 . S
C1865 H1853 0.959 . S
C1865 C1863 1.561 . S
C1866 C1863 1.526 . S
C1866 C1867 1.396 . S
C1866 C1871 1.390 . S
C1867 C1861 1.465 . S
C1867 C1866 1.396 . S
C1867 C1868 1.399 . S
C1868 H1854 0.929 . S
C1868 C1867 1.399 . S
C1868 C1869 1.385 . S
C1869 H1855 0.931 . S
C1869 C1868 1.385 . S
C1869 C1870 1.389 . S
C1870 C1869 1.389 . S
C1870 C1871 1.387 . S
C1871 H1856 0.930 . S
C1871 C1866 1.390 . S
C1871 C1870 1.387 . S
H1872 C1884 0.930 . S
H1873 C1886 0.930 . S
H1874 C1887 0.930 . S
H1875 C1891 0.959 . S
H1876 C1891 0.959 . S
H1877 C1891 0.961 . S
H1878 C1892 0.960 . S
H1879 C1892 0.961 . S
H1880 C1892 0.959 . S
H1881 C1895 0.929 . S
H1882 C1896 0.931 . S
H1883 C1898 0.930 . S
C1884 H1872 0.930 . S
C1884 C1885 1.399 . S
C1884 C1889 1.399 . S
C1885 C1884 1.399 . S
C1885 C1886 1.376 . S
C1886 H1873 0.930 . S
C1886 C1885 1.376 . S
C1886 C1887 1.388 . S
C1887 H1874 0.930 . S
C1887 C1886 1.388 . S
C1887 C1888 1.390 . S
C1888 C1887 1.390 . S
C1888 C1889 1.394 . S
C1888 C1894 1.465 . S
C1889 C1884 1.399 . S
C1889 C1888 1.394 . S
C1889 C1890 1.516 . S
C1890 C1889 1.516 . S
C1890 C1891 1.502 . S
C1890 C1892 1.561 . S
C1890 C1893 1.526 . S
C1891 H1875 0.959 . S
C1891 H1876 0.959 . S
C1891 H1877 0.961 . S
C1891 C1890 1.502 . S
C1892 H1878 0.960 . S
C1892 H1879 0.961 . S
C1892 H1880 0.959 . S
C1892 C1890 1.561 . S
C1893 C1890 1.526 . S
C1893 C1894 1.396 . S
C1893 C1898 1.390 . S
C1894 C1888 1.465 . S
C1894 C1893 1.396 . S
C1894 C1895 1.399 . S
C1895 H1881 0.929 . S
C1895 C1894 1.399 . S
C1895 C1896 1.385 . S
C1896 H1882 0.931 . S
C1896 C1895 1.385 . S
C1896 C1897 1.389 . S
C1897 C1896 1.389 . S
C1897 C1898 1.387 . S
C1898 H1883 0.930 . S
C1898 C1893 1.390 . S
C1898 C1897 1.387 . S
H1899 C1911 0.930 . S
H1900 C1913 0.930 . S
H1901 C1914 0.930 . S
H1902 C1918 0.959 . S
H1903 C1918 0.959 . S
H1904 C1918 0.961 . S
H1905 C1919 0.960 . S
H1906 C1919 0.961 . S
H1907 C1919 0.959 . S
H1908 C1922 0.929 . S
H1909 C1923 0.931 . S
H1910 C1925 0.930 . S
C1911 H1899 0.930 . S
C1911 C1912 1.399 . S
C1911 C1916 1.399 . S
C1912 C1911 1.399 . S
C1912 C1913 1.376 . S
C1913 H1900 0.930 . S
C1913 C1912 1.376 . S
C1913 C1914 1.388 . S
C1914 H1901 0.930 . S
C1914 C1913 1.388 . S
C1914 C1915 1.390 . S
C1915 C1914 1.390 . S
C1915 C1916 1.394 . S
C1915 C1921 1.465 . S
C1916 C1911 1.399 . S
C1916 C1915 1.394 . S
C1916 C1917 1.516 . S
C1917 C1916 1.516 . S
C1917 C1918 1.502 . S
C1917 C1919 1.561 . S
C1917 C1920 1.526 . S
C1918 H1902 0.959 . S
C1918 H1903 0.959 . S
C1918 H1904 0.961 . S
C1918 C1917 1.502 . S
C1919 H1905 0.960 . S
C1919 H1906 0.961 . S
C1919 H1907 0.959 . S
C1919 C1917 1.561 . S
C1920 C1917 1.526 . S
C1920 C1921 1.396 . S
C1920 C1925 1.390 . S
C1921 C1915 1.465 . S
C1921 C1920 1.396 . S
C1921 C1922 1.399 . S
C1922 H1908 0.929 . S
C1922 C1921 1.399 . S
C1922 C1923 1.385 . S
C1923 H1909 0.931 . S
C1923 C1922 1.385 . S
C1923 C1924 1.389 . S
C1924 C1923 1.389 . S
C1924 C1925 1.387 . S
C1925 H1910 0.930 . S
C1925 C1920 1.390 . S
C1925 C1924 1.387 . S
H1926 C1938 0.930 . S
H1927 C1940 0.930 . S
H1928 C1941 0.930 . S
H1929 C1945 0.959 . S
H1930 C1945 0.959 . S
H1931 C1945 0.961 . S
H1932 C1946 0.960 . S
H1933 C1946 0.961 . S
H1934 C1946 0.959 . S
H1935 C1949 0.929 . S
H1936 C1950 0.931 . S
H1937 C1952 0.930 . S
C1938 H1926 0.930 . S
C1938 C1939 1.399 . S
C1938 C1943 1.399 . S
C1939 C1938 1.399 . S
C1939 C1940 1.376 . S
C1940 H1927 0.930 . S
C1940 C1939 1.376 . S
C1940 C1941 1.388 . S
C1941 H1928 0.930 . S
C1941 C1940 1.388 . S
C1941 C1942 1.390 . S
C1942 C1941 1.390 . S
C1942 C1943 1.394 . S
C1942 C1948 1.465 . S
C1943 C1938 1.399 . S
C1943 C1942 1.394 . S
C1943 C1944 1.516 . S
C1944 C1943 1.516 . S
C1944 C1945 1.502 . S
C1944 C1946 1.561 . S
C1944 C1947 1.526 . S
C1945 H1929 0.959 . S
C1945 H1930 0.959 . S
C1945 H1931 0.961 . S
C1945 C1944 1.502 . S
C1946 H1932 0.960 . S
C1946 H1933 0.961 . S
C1946 H1934 0.959 . S
C1946 C1944 1.561 . S
C1947 C1944 1.526 . S
C1947 C1948 1.396 . S
C1947 C1952 1.390 . S
C1948 C1942 1.465 . S
C1948 C1947 1.396 . S
C1948 C1949 1.399 . S
C1949 H1935 0.929 . S
C1949 C1948 1.399 . S
C1949 C1950 1.385 . S
C1950 H1936 0.931 . S
C1950 C1949 1.385 . S
C1950 C1951 1.389 . S
C1951 C1950 1.389 . S
C1951 C1952 1.387 . S
C1952 H1937 0.930 . S
C1952 C1947 1.390 . S
C1952 C1951 1.387 . S
H1953 C1965 0.930 . S
H1954 C1967 0.930 . S
H1955 C1968 0.930 . S
H1956 C1972 0.959 . S
H1957 C1972 0.959 . S
H1958 C1972 0.961 . S
H1959 C1973 0.960 . S
H1960 C1973 0.961 . S
H1961 C1973 0.959 . S
H1962 C1976 0.929 . S
H1963 C1977 0.931 . S
H1964 C1979 0.930 . S
C1965 H1953 0.930 . S
C1965 C1966 1.399 . S
C1965 C1970 1.399 . S
C1966 C1965 1.399 . S
C1966 C1967 1.376 . S
C1967 H1954 0.930 . S
C1967 C1966 1.376 . S
C1967 C1968 1.388 . S
C1968 H1955 0.930 . S
C1968 C1967 1.388 . S
C1968 C1969 1.390 . S
C1969 C1968 1.390 . S
C1969 C1970 1.394 . S
C1969 C1975 1.465 . S
C1970 C1965 1.399 . S
C1970 C1969 1.394 . S
C1970 C1971 1.516 . S
C1971 C1970 1.516 . S
C1971 C1972 1.502 . S
C1971 C1973 1.561 . S
C1971 C1974 1.526 . S
C1972 H1956 0.959 . S
C1972 H1957 0.959 . S
C1972 H1958 0.961 . S
C1972 C1971 1.502 . S
C1973 H1959 0.960 . S
C1973 H1960 0.961 . S
C1973 H1961 0.959 . S
C1973 C1971 1.561 . S
C1974 C1971 1.526 . S
C1974 C1975 1.396 . S
C1974 C1979 1.390 . S
C1975 C1969 1.465 . S
C1975 C1974 1.396 . S
C1975 C1976 1.399 . S
C1976 H1962 0.929 . S
C1976 C1975 1.399 . S
C1976 C1977 1.385 . S
C1977 H1963 0.931 . S
C1977 C1976 1.385 . S
C1977 C1978 1.389 . S
C1978 C1977 1.389 . S
C1978 C1979 1.387 . S
C1979 H1964 0.930 . S
C1979 C1974 1.390 . S
C1979 C1978 1.387 . S
H1980 C1992 0.930 . S
H1981 C1994 0.930 . S
H1982 C1995 0.930 . S
H1983 C1999 0.959 . S
H1984 C1999 0.959 . S
H1985 C1999 0.961 . S
H1986 C2000 0.960 . S
H1987 C2000 0.961 . S
H1988 C2000 0.959 . S
H1989 C2003 0.929 . S
H1990 C2004 0.931 . S
H1991 C2006 0.930 . S
C1992 H1980 0.930 . S
C1992 C1993 1.399 . S
C1992 C1997 1.399 . S
C1993 C1992 1.399 . S
C1993 C1994 1.376 . S
C1994 H1981 0.930 . S
C1994 C1993 1.376 . S
C1994 C1995 1.388 . S
C1995 H1982 0.930 . S
C1995 C1994 1.388 . S
C1995 C1996 1.390 . S
C1996 C1995 1.390 . S
C1996 C1997 1.394 . S
C1996 C2002 1.465 . S
C1997 C1992 1.399 . S
C1997 C1996 1.394 . S
C1997 C1998 1.516 . S
C1998 C1997 1.516 . S
C1998 C1999 1.502 . S
C1998 C2000 1.561 . S
C1998 C2001 1.526 . S
C1999 H1983 0.959 . S
C1999 H1984 0.959 . S
C1999 H1985 0.961 . S
C1999 C1998 1.502 . S
C2000 H1986 0.960 . S
C2000 H1987 0.961 . S
C2000 H1988 0.959 . S
C2000 C1998 1.561 . S
C2001 C1998 1.526 . S
C2001 C2002 1.396 . S
C2001 C2006 1.390 . S
C2002 C1996 1.465 . S
C2002 C2001 1.396 . S
C2002 C2003 1.399 . S
C2003 H1989 0.929 . S
C2003 C2002 1.399 . S
C2003 C2004 1.385 . S
C2004 H1990 0.931 . S
C2004 C2003 1.385 . S
C2004 C2005 1.389 . S
C2005 C2004 1.389 . S
C2005 C2006 1.387 . S
C2006 H1991 0.930 . S
C2006 C2001 1.390 . S
C2006 C2005 1.387 . S
H2007 C2019 0.930 . S
H2008 C2021 0.930 . S
H2009 C2022 0.930 . S
H2010 C2026 0.959 . S
H2011 C2026 0.959 . S
H2012 C2026 0.961 . S
H2013 C2027 0.960 . S
H2014 C2027 0.961 . S
H2015 C2027 0.959 . S
H2016 C2030 0.929 . S
H2017 C2031 0.931 . S
H2018 C2033 0.930 . S
C2019 H2007 0.930 . S
C2019 C2020 1.399 . S
C2019 C2024 1.399 . S
C2020 C2019 1.399 . S
C2020 C2021 1.376 . S
C2021 H2008 0.930 . S
C2021 C2020 1.376 . S
C2021 C2022 1.388 . S
C2022 H2009 0.930 . S
C2022 C2021 1.388 . S
C2022 C2023 1.390 . S
C2023 C2022 1.390 . S
C2023 C2024 1.394 . S
C2023 C2029 1.465 . S
C2024 C2019 1.399 . S
C2024 C2023 1.394 . S
C2024 C2025 1.516 . S
C2025 C2024 1.516 . S
C2025 C2026 1.502 . S
C2025 C2027 1.561 . S
C2025 C2028 1.526 . S
C2026 H2010 0.959 . S
C2026 H2011 0.959 . S
C2026 H2012 0.961 . S
C2026 C2025 1.502 . S
C2027 H2013 0.960 . S
C2027 H2014 0.961 . S
C2027 H2015 0.959 . S
C2027 C2025 1.561 . S
C2028 C2025 1.526 . S
C2028 C2029 1.396 . S
C2028 C2033 1.390 . S
C2029 C2023 1.465 . S
C2029 C2028 1.396 . S
C2029 C2030 1.399 . S
C2030 H2016 0.929 . S
C2030 C2029 1.399 . S
C2030 C2031 1.385 . S
C2031 H2017 0.931 . S
C2031 C2030 1.385 . S
C2031 C2032 1.389 . S
C2032 C2031 1.389 . S
C2032 C2033 1.387 . S
C2033 H2018 0.930 . S
C2033 C2028 1.390 . S
C2033 C2032 1.387 . S
H2034 C2046 0.930 . S
H2035 C2048 0.930 . S
H2036 C2049 0.930 . S
H2037 C2053 0.959 . S
H2038 C2053 0.959 . S
H2039 C2053 0.961 . S
H2040 C2054 0.960 . S
H2041 C2054 0.961 . S
H2042 C2054 0.959 . S
H2043 C2057 0.929 . S
H2044 C2058 0.931 . S
H2045 C2060 0.930 . S
C2046 H2034 0.930 . S
C2046 C2047 1.399 . S
C2046 C2051 1.399 . S
C2047 C2046 1.399 . S
C2047 C2048 1.376 . S
C2048 H2035 0.930 . S
C2048 C2047 1.376 . S
C2048 C2049 1.388 . S
C2049 H2036 0.930 . S
C2049 C2048 1.388 . S
C2049 C2050 1.390 . S
C2050 C2049 1.390 . S
C2050 C2051 1.394 . S
C2050 C2056 1.465 . S
C2051 C2046 1.399 . S
C2051 C2050 1.394 . S
C2051 C2052 1.516 . S
C2052 C2051 1.516 . S
C2052 C2053 1.502 . S
C2052 C2054 1.561 . S
C2052 C2055 1.526 . S
C2053 H2037 0.959 . S
C2053 H2038 0.959 . S
C2053 H2039 0.961 . S
C2053 C2052 1.502 . S
C2054 H2040 0.960 . S
C2054 H2041 0.961 . S
C2054 H2042 0.959 . S
C2054 C2052 1.561 . S
C2055 C2052 1.526 . S
C2055 C2056 1.396 . S
C2055 C2060 1.390 . S
C2056 C2050 1.465 . S
C2056 C2055 1.396 . S
C2056 C2057 1.399 . S
C2057 H2043 0.929 . S
C2057 C2056 1.399 . S
C2057 C2058 1.385 . S
C2058 H2044 0.931 . S
C2058 C2057 1.385 . S
C2058 C2059 1.389 . S
C2059 C2058 1.389 . S
C2059 C2060 1.387 . S
C2060 H2045 0.930 . S
C2060 C2055 1.390 . S
C2060 C2059 1.387 . S
H2061 C2073 0.930 . S
H2062 C2075 0.930 . S
H2063 C2076 0.930 . S
H2064 C2080 0.959 . S
H2065 C2080 0.959 . S
H2066 C2080 0.961 . S
H2067 C2081 0.960 . S
H2068 C2081 0.961 . S
H2069 C2081 0.959 . S
H2070 C2084 0.929 . S
H2071 C2085 0.931 . S
H2072 C2087 0.930 . S
C2073 H2061 0.930 . S
C2073 C2074 1.399 . S
C2073 C2078 1.399 . S
C2074 C2073 1.399 . S
C2074 C2075 1.376 . S
C2075 H2062 0.930 . S
C2075 C2074 1.376 . S
C2075 C2076 1.388 . S
C2076 H2063 0.930 . S
C2076 C2075 1.388 . S
C2076 C2077 1.390 . S
C2077 C2076 1.390 . S
C2077 C2078 1.394 . S
C2077 C2083 1.465 . S
C2078 C2073 1.399 . S
C2078 C2077 1.394 . S
C2078 C2079 1.516 . S
C2079 C2078 1.516 . S
C2079 C2080 1.502 . S
C2079 C2081 1.561 . S
C2079 C2082 1.526 . S
C2080 H2064 0.959 . S
C2080 H2065 0.959 . S
C2080 H2066 0.961 . S
C2080 C2079 1.502 . S
C2081 H2067 0.960 . S
C2081 H2068 0.961 . S
C2081 H2069 0.959 . S
C2081 C2079 1.561 . S
C2082 C2079 1.526 . S
C2082 C2083 1.396 . S
C2082 C2087 1.390 . S
C2083 C2077 1.465 . S
C2083 C2082 1.396 . S
C2083 C2084 1.399 . S
C2084 H2070 0.929 . S
C2084 C2083 1.399 . S
C2084 C2085 1.385 . S
C2085 H2071 0.931 . S
C2085 C2084 1.385 . S
C2085 C2086 1.389 . S
C2086 C2085 1.389 . S
C2086 C2087 1.387 . S
C2087 H2072 0.930 . S
C2087 C2082 1.390 . S
C2087 C2086 1.387 . S
H2088 C2100 0.930 . S
H2089 C2102 0.930 . S
H2090 C2103 0.930 . S
H2091 C2107 0.959 . S
H2092 C2107 0.959 . S
H2093 C2107 0.961 . S
H2094 C2108 0.960 . S
H2095 C2108 0.961 . S
H2096 C2108 0.959 . S
H2097 C2111 0.929 . S
H2098 C2112 0.931 . S
H2099 C2114 0.930 . S
C2100 H2088 0.930 . S
C2100 C2101 1.399 . S
C2100 C2105 1.399 . S
C2101 C2100 1.399 . S
C2101 C2102 1.376 . S
C2102 H2089 0.930 . S
C2102 C2101 1.376 . S
C2102 C2103 1.388 . S
C2103 H2090 0.930 . S
C2103 C2102 1.388 . S
C2103 C2104 1.390 . S
C2104 C2103 1.390 . S
C2104 C2105 1.394 . S
C2104 C2110 1.465 . S
C2105 C2100 1.399 . S
C2105 C2104 1.394 . S
C2105 C2106 1.516 . S
C2106 C2105 1.516 . S
C2106 C2107 1.502 . S
C2106 C2108 1.561 . S
C2106 C2109 1.526 . S
C2107 H2091 0.959 . S
C2107 H2092 0.959 . S
C2107 H2093 0.961 . S
C2107 C2106 1.502 . S
C2108 H2094 0.960 . S
C2108 H2095 0.961 . S
C2108 H2096 0.959 . S
C2108 C2106 1.561 . S
C2109 C2106 1.526 . S
C2109 C2110 1.396 . S
C2109 C2114 1.390 . S
C2110 C2104 1.465 . S
C2110 C2109 1.396 . S
C2110 C2111 1.399 . S
C2111 H2097 0.929 . S
C2111 C2110 1.399 . S
C2111 C2112 1.385 . S
C2112 H2098 0.931 . S
C2112 C2111 1.385 . S
C2112 C2113 1.389 . S
C2113 C2112 1.389 . S
C2113 C2114 1.387 . S
C2114 H2099 0.930 . S
C2114 C2109 1.390 . S
C2114 C2113 1.387 . S
H2115 C2127 0.930 . S
H2116 C2129 0.930 . S
H2117 C2130 0.930 . S
H2118 C2134 0.959 . S
H2119 C2134 0.959 . S
H2120 C2134 0.961 . S
H2121 C2135 0.960 . S
H2122 C2135 0.961 . S
H2123 C2135 0.959 . S
H2124 C2138 0.929 . S
H2125 C2139 0.931 . S
H2126 C2141 0.930 . S
C2127 H2115 0.930 . S
C2127 C2128 1.399 . S
C2127 C2132 1.399 . S
C2128 C2127 1.399 . S
C2128 C2129 1.376 . S
C2129 H2116 0.930 . S
C2129 C2128 1.376 . S
C2129 C2130 1.388 . S
C2130 H2117 0.930 . S
C2130 C2129 1.388 . S
C2130 C2131 1.390 . S
C2131 C2130 1.390 . S
C2131 C2132 1.394 . S
C2131 C2137 1.465 . S
C2132 C2127 1.399 . S
C2132 C2131 1.394 . S
C2132 C2133 1.516 . S
C2133 C2132 1.516 . S
C2133 C2134 1.502 . S
C2133 C2135 1.561 . S
C2133 C2136 1.526 . S
C2134 H2118 0.959 . S
C2134 H2119 0.959 . S
C2134 H2120 0.961 . S
C2134 C2133 1.502 . S
C2135 H2121 0.960 . S
C2135 H2122 0.961 . S
C2135 H2123 0.959 . S
C2135 C2133 1.561 . S
C2136 C2133 1.526 . S
C2136 C2137 1.396 . S
C2136 C2141 1.390 . S
C2137 C2131 1.465 . S
C2137 C2136 1.396 . S
C2137 C2138 1.399 . S
C2138 H2124 0.929 . S
C2138 C2137 1.399 . S
C2138 C2139 1.385 . S
C2139 H2125 0.931 . S
C2139 C2138 1.385 . S
C2139 C2140 1.389 . S
C2140 C2139 1.389 . S
C2140 C2141 1.387 . S
C2141 H2126 0.930 . S
C2141 C2136 1.390 . S
C2141 C2140 1.387 . S
H2142 C2154 0.930 . S
H2143 C2156 0.930 . S
H2144 C2157 0.930 . S
H2145 C2161 0.959 . S
H2146 C2161 0.959 . S
H2147 C2161 0.961 . S
H2148 C2162 0.960 . S
H2149 C2162 0.961 . S
H2150 C2162 0.959 . S
H2151 C2165 0.929 . S
H2152 C2166 0.931 . S
H2153 C2168 0.930 . S
C2154 H2142 0.930 . S
C2154 C2155 1.399 . S
C2154 C2159 1.399 . S
C2155 C2154 1.399 . S
C2155 C2156 1.376 . S
C2156 H2143 0.930 . S
C2156 C2155 1.376 . S
C2156 C2157 1.388 . S
C2157 H2144 0.930 . S
C2157 C2156 1.388 . S
C2157 C2158 1.390 . S
C2158 C2157 1.390 . S
C2158 C2159 1.394 . S
C2158 C2164 1.465 . S
C2159 C2154 1.399 . S
C2159 C2158 1.394 . S
C2159 C2160 1.516 . S
C2160 C2159 1.516 . S
C2160 C2161 1.502 . S
C2160 C2162 1.561 . S
C2160 C2163 1.526 . S
C2161 H2145 0.959 . S
C2161 H2146 0.959 . S
C2161 H2147 0.961 . S
C2161 C2160 1.502 . S
C2162 H2148 0.960 . S
C2162 H2149 0.961 . S
C2162 H2150 0.959 . S
C2162 C2160 1.561 . S
C2163 C2160 1.526 . S
C2163 C2164 1.396 . S
C2163 C2168 1.390 . S
C2164 C2158 1.465 . S
C2164 C2163 1.396 . S
C2164 C2165 1.399 . S
C2165 H2151 0.929 . S
C2165 C2164 1.399 . S
C2165 C2166 1.385 . S
C2166 H2152 0.931 . S
C2166 C2165 1.385 . S
C2166 C2167 1.389 . S
C2167 C2166 1.389 . S
C2167 C2168 1.387 . S
C2168 H2153 0.930 . S
C2168 C2163 1.390 . S
C2168 C2167 1.387 . S
H2169 C2181 0.930 . S
H2170 C2183 0.930 . S
H2171 C2184 0.930 . S
H2172 C2188 0.959 . S
H2173 C2188 0.959 . S
H2174 C2188 0.961 . S
H2175 C2189 0.960 . S
H2176 C2189 0.961 . S
H2177 C2189 0.959 . S
H2178 C2192 0.929 . S
H2179 C2193 0.931 . S
H2180 C2195 0.930 . S
C2181 H2169 0.930 . S
C2181 C2182 1.399 . S
C2181 C2186 1.399 . S
C2182 C2181 1.399 . S
C2182 C2183 1.376 . S
C2183 H2170 0.930 . S
C2183 C2182 1.376 . S
C2183 C2184 1.388 . S
C2184 H2171 0.930 . S
C2184 C2183 1.388 . S
C2184 C2185 1.390 . S
C2185 C2184 1.390 . S
C2185 C2186 1.394 . S
C2185 C2191 1.465 . S
C2186 C2181 1.399 . S
C2186 C2185 1.394 . S
C2186 C2187 1.516 . S
C2187 C2186 1.516 . S
C2187 C2188 1.502 . S
C2187 C2189 1.561 . S
C2187 C2190 1.526 . S
C2188 H2172 0.959 . S
C2188 H2173 0.959 . S
C2188 H2174 0.961 . S
C2188 C2187 1.502 . S
C2189 H2175 0.960 . S
C2189 H2176 0.961 . S
C2189 H2177 0.959 . S
C2189 C2187 1.561 . S
C2190 C2187 1.526 . S
C2190 C2191 1.396 . S
C2190 C2195 1.390 . S
C2191 C2185 1.465 . S
C2191 C2190 1.396 . S
C2191 C2192 1.399 . S
C2192 H2178 0.929 . S
C2192 C2191 1.399 . S
C2192 C2193 1.385 . S
C2193 H2179 0.931 . S
C2193 C2192 1.385 . S
C2193 C2194 1.389 . S
C2194 C2193 1.389 . S
C2194 C2195 1.387 . S
C2195 H2180 0.930 . S
C2195 C2190 1.390 . S
C2195 C2194 1.387 . S
H2196 C2208 0.930 . S
H2197 C2210 0.930 . S
H2198 C2211 0.930 . S
H2199 C2215 0.959 . S
H2200 C2215 0.959 . S
H2201 C2215 0.961 . S
H2202 C2216 0.960 . S
H2203 C2216 0.961 . S
H2204 C2216 0.959 . S
H2205 C2219 0.929 . S
H2206 C2220 0.931 . S
H2207 C2222 0.930 . S
C2208 H2196 0.930 . S
C2208 C2209 1.399 . S
C2208 C2213 1.399 . S
C2209 C2208 1.399 . S
C2209 C2210 1.376 . S
C2210 H2197 0.930 . S
C2210 C2209 1.376 . S
C2210 C2211 1.388 . S
C2211 H2198 0.930 . S
C2211 C2210 1.388 . S
C2211 C2212 1.390 . S
C2212 C2211 1.390 . S
C2212 C2213 1.394 . S
C2212 C2218 1.465 . S
C2213 C2208 1.399 . S
C2213 C2212 1.394 . S
C2213 C2214 1.516 . S
C2214 C2213 1.516 . S
C2214 C2215 1.502 . S
C2214 C2216 1.561 . S
C2214 C2217 1.526 . S
C2215 H2199 0.959 . S
C2215 H2200 0.959 . S
C2215 H2201 0.961 . S
C2215 C2214 1.502 . S
C2216 H2202 0.960 . S
C2216 H2203 0.961 . S
C2216 H2204 0.959 . S
C2216 C2214 1.561 . S
C2217 C2214 1.526 . S
C2217 C2218 1.396 . S
C2217 C2222 1.390 . S
C2218 C2212 1.465 . S
C2218 C2217 1.396 . S
C2218 C2219 1.399 . S
C2219 H2205 0.929 . S
C2219 C2218 1.399 . S
C2219 C2220 1.385 . S
C2220 H2206 0.931 . S
C2220 C2219 1.385 . S
C2220 C2221 1.389 . S
C2221 C2220 1.389 . S
C2221 C2222 1.387 . S
C2222 H2207 0.930 . S
C2222 C2217 1.390 . S
C2222 C2221 1.387 . S
H2223 C2235 0.930 . S
H2224 C2237 0.930 . S
H2225 C2238 0.930 . S
H2226 C2242 0.959 . S
H2227 C2242 0.959 . S
H2228 C2242 0.961 . S
H2229 C2243 0.960 . S
H2230 C2243 0.961 . S
H2231 C2243 0.959 . S
H2232 C2246 0.929 . S
H2233 C2247 0.931 . S
H2234 C2249 0.930 . S
C2235 H2223 0.930 . S
C2235 C2236 1.399 . S
C2235 C2240 1.399 . S
C2236 C2235 1.399 . S
C2236 C2237 1.376 . S
C2237 H2224 0.930 . S
C2237 C2236 1.376 . S
C2237 C2238 1.388 . S
C2238 H2225 0.930 . S
C2238 C2237 1.388 . S
C2238 C2239 1.390 . S
C2239 C2238 1.390 . S
C2239 C2240 1.394 . S
C2239 C2245 1.465 . S
C2240 C2235 1.399 . S
C2240 C2239 1.394 . S
C2240 C2241 1.516 . S
C2241 C2240 1.516 . S
C2241 C2242 1.502 . S
C2241 C2243 1.561 . S
C2241 C2244 1.526 . S
C2242 H2226 0.959 . S
C2242 H2227 0.959 . S
C2242 H2228 0.961 . S
C2242 C2241 1.502 . S
C2243 H2229 0.960 . S
C2243 H2230 0.961 . S
C2243 H2231 0.959 . S
C2243 C2241 1.561 . S
C2244 C2241 1.526 . S
C2244 C2245 1.396 . S
C2244 C2249 1.390 . S
C2245 C2239 1.465 . S
C2245 C2244 1.396 . S
C2245 C2246 1.399 . S
C2246 H2232 0.929 . S
C2246 C2245 1.399 . S
C2246 C2247 1.385 . S
C2247 H2233 0.931 . S
C2247 C2246 1.385 . S
C2247 C2248 1.389 . S
C2248 C2247 1.389 . S
C2248 C2249 1.387 . S
C2249 H2234 0.930 . S
C2249 C2244 1.390 . S
C2249 C2248 1.387 . S
H2250 C2262 0.930 . S
H2251 C2264 0.930 . S
H2252 C2265 0.930 . S
H2253 C2269 0.959 . S
H2254 C2269 0.959 . S
H2255 C2269 0.961 . S
H2256 C2270 0.960 . S
H2257 C2270 0.961 . S
H2258 C2270 0.959 . S
H2259 C2273 0.929 . S
H2260 C2274 0.931 . S
H2261 C2276 0.930 . S
C2262 H2250 0.930 . S
C2262 C2263 1.399 . S
C2262 C2267 1.399 . S
C2263 C2262 1.399 . S
C2263 C2264 1.376 . S
C2264 H2251 0.930 . S
C2264 C2263 1.376 . S
C2264 C2265 1.388 . S
C2265 H2252 0.930 . S
C2265 C2264 1.388 . S
C2265 C2266 1.390 . S
C2266 C2265 1.390 . S
C2266 C2267 1.394 . S
C2266 C2272 1.465 . S
C2267 C2262 1.399 . S
C2267 C2266 1.394 . S
C2267 C2268 1.516 . S
C2268 C2267 1.516 . S
C2268 C2269 1.502 . S
C2268 C2270 1.561 . S
C2268 C2271 1.526 . S
C2269 H2253 0.959 . S
C2269 H2254 0.959 . S
C2269 H2255 0.961 . S
C2269 C2268 1.502 . S
C2270 H2256 0.960 . S
C2270 H2257 0.961 . S
C2270 H2258 0.959 . S
C2270 C2268 1.561 . S
C2271 C2268 1.526 . S
C2271 C2272 1.396 . S
C2271 C2276 1.390 . S
C2272 C2266 1.465 . S
C2272 C2271 1.396 . S
C2272 C2273 1.399 . S
C2273 H2259 0.929 . S
C2273 C2272 1.399 . S
C2273 C2274 1.385 . S
C2274 H2260 0.931 . S
C2274 C2273 1.385 . S
C2274 C2275 1.389 . S
C2275 C2274 1.389 . S
C2275 C2276 1.387 . S
C2276 H2261 0.930 . S
C2276 C2271 1.390 . S
C2276 C2275 1.387 . S
H2277 C2289 0.930 . S
H2278 C2291 0.930 . S
H2279 C2292 0.930 . S
H2280 C2296 0.959 . S
H2281 C2296 0.959 . S
H2282 C2296 0.961 . S
H2283 C2297 0.960 . S
H2284 C2297 0.961 . S
H2285 C2297 0.959 . S
H2286 C2300 0.929 . S
H2287 C2301 0.931 . S
H2288 C2303 0.930 . S
C2289 H2277 0.930 . S
C2289 C2290 1.399 . S
C2289 C2294 1.399 . S
C2290 C2289 1.399 . S
C2290 C2291 1.376 . S
C2291 H2278 0.930 . S
C2291 C2290 1.376 . S
C2291 C2292 1.388 . S
C2292 H2279 0.930 . S
C2292 C2291 1.388 . S
C2292 C2293 1.390 . S
C2293 C2292 1.390 . S
C2293 C2294 1.394 . S
C2293 C2299 1.465 . S
C2294 C2289 1.399 . S
C2294 C2293 1.394 . S
C2294 C2295 1.516 . S
C2295 C2294 1.516 . S
C2295 C2296 1.502 . S
C2295 C2297 1.561 . S
C2295 C2298 1.526 . S
C2296 H2280 0.959 . S
C2296 H2281 0.959 . S
C2296 H2282 0.961 . S
C2296 C2295 1.502 . S
C2297 H2283 0.960 . S
C2297 H2284 0.961 . S
C2297 H2285 0.959 . S
C2297 C2295 1.561 . S
C2298 C2295 1.526 . S
C2298 C2299 1.396 . S
C2298 C2303 1.390 . S
C2299 C2293 1.465 . S
C2299 C2298 1.396 . S
C2299 C2300 1.399 . S
C2300 H2286 0.929 . S
C2300 C2299 1.399 . S
C2300 C2301 1.385 . S
C2301 H2287 0.931 . S
C2301 C2300 1.385 . S
C2301 C2302 1.389 . S
C2302 C2301 1.389 . S
C2302 C2303 1.387 . S
C2303 H2288 0.930 . S
C2303 C2298 1.390 . S
C2303 C2302 1.387 . S
H2304 C2316 0.930 . S
H2305 C2318 0.930 . S
H2306 C2319 0.930 . S
H2307 C2323 0.959 . S
H2308 C2323 0.959 . S
H2309 C2323 0.961 . S
H2310 C2324 0.960 . S
H2311 C2324 0.961 . S
H2312 C2324 0.959 . S
H2313 C2327 0.929 . S
H2314 C2328 0.931 . S
H2315 C2330 0.930 . S
C2316 H2304 0.930 . S
C2316 C2317 1.399 . S
C2316 C2321 1.399 . S
C2317 C2316 1.399 . S
C2317 C2318 1.376 . S
C2318 H2305 0.930 . S
C2318 C2317 1.376 . S
C2318 C2319 1.388 . S
C2319 H2306 0.930 . S
C2319 C2318 1.388 . S
C2319 C2320 1.390 . S
C2320 C2319 1.390 . S
C2320 C2321 1.394 . S
C2320 C2326 1.465 . S
C2321 C2316 1.399 . S
C2321 C2320 1.394 . S
C2321 C2322 1.516 . S
C2322 C2321 1.516 . S
C2322 C2323 1.502 . S
C2322 C2324 1.561 . S
C2322 C2325 1.526 . S
C2323 H2307 0.959 . S
C2323 H2308 0.959 . S
C2323 H2309 0.961 . S
C2323 C2322 1.502 . S
C2324 H2310 0.960 . S
C2324 H2311 0.961 . S
C2324 H2312 0.959 . S
C2324 C2322 1.561 . S
C2325 C2322 1.526 . S
C2325 C2326 1.396 . S
C2325 C2330 1.390 . S
C2326 C2320 1.465 . S
C2326 C2325 1.396 . S
C2326 C2327 1.399 . S
C2327 H2313 0.929 . S
C2327 C2326 1.399 . S
C2327 C2328 1.385 . S
C2328 H2314 0.931 . S
C2328 C2327 1.385 . S
C2328 C2329 1.389 . S
C2329 C2328 1.389 . S
C2329 C2330 1.387 . S
C2330 H2315 0.930 . S
C2330 C2325 1.390 . S
C2330 C2329 1.387 . S
H2331 C2343 0.930 . S
H2332 C2345 0.930 . S
H2333 C2346 0.930 . S
H2334 C2350 0.959 . S
H2335 C2350 0.959 . S
H2336 C2350 0.961 . S
H2337 C2351 0.960 . S
H2338 C2351 0.961 . S
H2339 C2351 0.959 . S
H2340 C2354 0.929 . S
H2341 C2355 0.931 . S
H2342 C2357 0.930 . S
C2343 H2331 0.930 . S
C2343 C2344 1.399 . S
C2343 C2348 1.399 . S
C2344 C2343 1.399 . S
C2344 C2345 1.376 . S
C2345 H2332 0.930 . S
C2345 C2344 1.376 . S
C2345 C2346 1.388 . S
C2346 H2333 0.930 . S
C2346 C2345 1.388 . S
C2346 C2347 1.390 . S
C2347 C2346 1.390 . S
C2347 C2348 1.394 . S
C2347 C2353 1.465 . S
C2348 C2343 1.399 . S
C2348 C2347 1.394 . S
C2348 C2349 1.516 . S
C2349 C2348 1.516 . S
C2349 C2350 1.502 . S
C2349 C2351 1.561 . S
C2349 C2352 1.526 . S
C2350 H2334 0.959 . S
C2350 H2335 0.959 . S
C2350 H2336 0.961 . S
C2350 C2349 1.502 . S
C2351 H2337 0.960 . S
C2351 H2338 0.961 . S
C2351 H2339 0.959 . S
C2351 C2349 1.561 . S
C2352 C2349 1.526 . S
C2352 C2353 1.396 . S
C2352 C2357 1.390 . S
C2353 C2347 1.465 . S
C2353 C2352 1.396 . S
C2353 C2354 1.399 . S
C2354 H2340 0.929 . S
C2354 C2353 1.399 . S
C2354 C2355 1.385 . S
C2355 H2341 0.931 . S
C2355 C2354 1.385 . S
C2355 C2356 1.389 . S
C2356 C2355 1.389 . S
C2356 C2357 1.387 . S
C2357 H2342 0.930 . S
C2357 C2352 1.390 . S
C2357 C2356 1.387 . S
H2358 C2370 0.930 . S
H2359 C2372 0.930 . S
H2360 C2373 0.930 . S
H2361 C2377 0.959 . S
H2362 C2377 0.959 . S
H2363 C2377 0.961 . S
H2364 C2378 0.960 . S
H2365 C2378 0.961 . S
H2366 C2378 0.959 . S
H2367 C2381 0.929 . S
H2368 C2382 0.931 . S
H2369 C2384 0.930 . S
C2370 H2358 0.930 . S
C2370 C2371 1.399 . S
C2370 C2375 1.399 . S
C2371 C2370 1.399 . S
C2371 C2372 1.376 . S
C2372 H2359 0.930 . S
C2372 C2371 1.376 . S
C2372 C2373 1.388 . S
C2373 H2360 0.930 . S
C2373 C2372 1.388 . S
C2373 C2374 1.390 . S
C2374 C2373 1.390 . S
C2374 C2375 1.394 . S
C2374 C2380 1.465 . S
C2375 C2370 1.399 . S
C2375 C2374 1.394 . S
C2375 C2376 1.516 . S
C2376 C2375 1.516 . S
C2376 C2377 1.502 . S
C2376 C2378 1.561 . S
C2376 C2379 1.526 . S
C2377 H2361 0.959 . S
C2377 H2362 0.959 . S
C2377 H2363 0.961 . S
C2377 C2376 1.502 . S
C2378 H2364 0.960 . S
C2378 H2365 0.961 . S
C2378 H2366 0.959 . S
C2378 C2376 1.561 . S
C2379 C2376 1.526 . S
C2379 C2380 1.396 . S
C2379 C2384 1.390 . S
C2380 C2374 1.465 . S
C2380 C2379 1.396 . S
C2380 C2381 1.399 . S
C2381 H2367 0.929 . S
C2381 C2380 1.399 . S
C2381 C2382 1.385 . S
C2382 H2368 0.931 . S
C2382 C2381 1.385 . S
C2382 C2383 1.389 . S
C2383 C2382 1.389 . S
C2383 C2384 1.387 . S
C2384 H2369 0.930 . S
C2384 C2379 1.390 . S
C2384 C2383 1.387 . S
H2385 C2397 0.930 . S
H2386 C2399 0.930 . S
H2387 C2400 0.930 . S
H2388 C2404 0.959 . S
H2389 C2404 0.959 . S
H2390 C2404 0.961 . S
H2391 C2405 0.960 . S
H2392 C2405 0.961 . S
H2393 C2405 0.959 . S
H2394 C2408 0.929 . S
H2395 C2409 0.931 . S
H2396 C2411 0.930 . S
C2397 H2385 0.930 . S
C2397 C2398 1.399 . S
C2397 C2402 1.399 . S
C2398 C2397 1.399 . S
C2398 C2399 1.376 . S
C2399 H2386 0.930 . S
C2399 C2398 1.376 . S
C2399 C2400 1.388 . S
C2400 H2387 0.930 . S
C2400 C2399 1.388 . S
C2400 C2401 1.390 . S
C2401 C2400 1.390 . S
C2401 C2402 1.394 . S
C2401 C2407 1.465 . S
C2402 C2397 1.399 . S
C2402 C2401 1.394 . S
C2402 C2403 1.516 . S
C2403 C2402 1.516 . S
C2403 C2404 1.502 . S
C2403 C2405 1.561 . S
C2403 C2406 1.526 . S
C2404 H2388 0.959 . S
C2404 H2389 0.959 . S
C2404 H2390 0.961 . S
C2404 C2403 1.502 . S
C2405 H2391 0.960 . S
C2405 H2392 0.961 . S
C2405 H2393 0.959 . S
C2405 C2403 1.561 . S
C2406 C2403 1.526 . S
C2406 C2407 1.396 . S
C2406 C2411 1.390 . S
C2407 C2401 1.465 . S
C2407 C2406 1.396 . S
C2407 C2408 1.399 . S
C2408 H2394 0.929 . S
C2408 C2407 1.399 . S
C2408 C2409 1.385 . S
C2409 H2395 0.931 . S
C2409 C2408 1.385 . S
C2409 C2410 1.389 . S
C2410 C2409 1.389 . S
C2410 C2411 1.387 . S
C2411 H2396 0.930 . S
C2411 C2406 1.390 . S
C2411 C2410 1.387 . S
C805 N113 1.409 . S
C817 C8 1.404 . S
C832 N14 1.423 1_655 S
C844 C41 1.407 . S
C859 N47 1.366 . S
C871 C74 1.420 . S
C886 C107 1.405 . S
C898 N80 1.422 1_455 S
C913 N179 1.412 . S
C925 C140 1.405 . S
C940 N212 1.362 1_455 S
C952 C173 1.420 . S
C967 C206 1.414 . S
C979 N245 1.363 . S
C994 N146 1.367 1_655 S
C1006 C239 1.412 . S
C1021 C272 1.427 . S
C1033 N608 1.383 . S
C1048 C305 1.420 . S
C1060 N641 1.412 1_554 S
C1075 N674 1.408 . S
C1087 C338 1.404 . S
C1102 N575 1.362 1_554 S
C1114 C371 1.419 . S
C1129 N740 1.369 . S
C1141 C404 1.422 . S
C1156 C437 1.422 . S
C1168 N542 1.409 1_556 S
C1183 C470 1.428 . S
C1195 N773 1.387 . S
C1210 N707 1.419 1_556 S
C1222 C503 1.415 . S
C1237 N311 1.365 . S
C1249 C536 1.406 . S
C1264 C569 1.402 . S
C1276 N509 1.404 . S
C1291 N410 1.397 1_545 S
C1303 C602 1.401 . S
C1318 N443 1.415 . S
C1330 C635 1.426 . S
C1345 N476 1.423 1_565 S
C1357 C668 1.410 . S
C1372 N377 1.385 . S
C1384 C701 1.400 . S
C1399 N278 1.415 1_565 S
C1411 C734 1.419 . S
C1426 N344 1.422 1_545 S
C1438 C767 1.405 . S
C1453 C215 1.653 . S
C1465 C17 1.639 . S
C1480 C50 1.629 . S
C1492 C248 1.652 . S
C1507 C149 1.653 . S
C1519 C83 1.636 . S
C1534 C182 1.653 . S
C1546 C116 1.631 . S
C1561 C347 1.653 . S
C1573 C281 1.634 . S
C1588 C314 1.645 . S
C1600 C380 1.633 . S
C1615 C413 1.637 . S
C1627 C479 1.653 . S
C1642 C512 1.635 . S
C1654 C446 1.652 . S
C1669 C545 1.653 . S
C1681 C578 1.637 . S
C1696 C611 1.649 . S
C1708 C776 1.631 . S
C1723 C644 1.635 . S
C1735 C710 1.654 . S
C1750 C743 1.637 . S
C1762 C677 1.650 . S
C1777 C28 1.230 . S
C1789 N269 1.218 . S
C1804 C61 1.183 . S
C1816 N302 1.201 . S
C1831 N335 1.223 . S
C1843 C94 1.197 . S
C1858 N368 1.211 . S
C1870 C127 1.205 . S
C1885 C160 1.178 . S
C1897 N401 1.205 . S
C1912 N434 1.219 . S
C1924 C193 1.216 . S
C1939 C226 1.177 . S
C1951 N467 1.201 . S
C1966 N500 1.218 . S
C1978 C259 1.215 . S
C1993 C292 1.220 . S
C2005 N533 1.210 . S
C2020 N764 1.202 . S
C2032 C325 1.185 . S
C2047 C358 1.222 . S
C2059 N698 1.211 . S
C2074 C391 1.211 . S
C2086 N731 1.221 . S
C2101 N566 1.232 . S
C2113 C424 1.236 . S
C2128 C457 1.191 . S
C2140 N599 1.208 . S
C2155 C490 1.205 . S
C2167 N632 1.229 . S
C2182 C523 1.203 . S
C2194 N665 1.216 . S
C2209 C556 1.204 . S
C2221 N5 1.201 . S
C2236 C589 1.208 . S
C2248 N137 1.230 . S
C2263 C622 1.204 . S
C2275 N170 1.217 . S
C2290 N203 1.236 . S
C2302 C655 1.229 . S
C2317 C688 1.197 . S
C2329 N236 1.212 . S
C2344 N71 1.236 . S
C2356 C721 1.227 . S
C2371 N104 1.209 . S
C2383 C754 1.202 . S
C2398 C787 1.184 . S
C2410 N38 1.203 . S
