# Generated by pormake.
# Topology wme, (6)-cn, num edge types: 1
# Building blocks:
#     Node 0, Type 0, BuildingBlock: KUMBOL_clean_sbu_0, # of connection points: 6
#     Node 1, Type 0, BuildingBlock: KUMBOL_clean_sbu_0, # of connection points: 6
#     Node 2, Type 0, BuildingBlock: KUMBOL_clean_sbu_0, # of connection points: 6
#     Node 3, Type 0, BuildingBlock: KUMBOL_clean_sbu_0, # of connection points: 6
#     Node 4, Type 0, BuildingBlock: KUMBOL_clean_sbu_0, # of connection points: 6
#     Node 5, Type 0, BuildingBlock: KUMBOL_clean_sbu_0, # of connection points: 6
#     Node 6, Type 0, BuildingBlock: KUMBOL_clean_sbu_0, # of connection points: 6
#     Node 7, Type 0, BuildingBlock: KUMBOL_clean_sbu_0, # of connection points: 6
#     Node 8, Type 0, BuildingBlock: KUMBOL_clean_sbu_0, # of connection points: 6
#     Node 9, Type 0, BuildingBlock: KUMBOL_clean_sbu_0, # of connection points: 6
#     Node 10, Type 0, BuildingBlock: KUMBOL_clean_sbu_0, # of connection points: 6
#     Node 11, Type 0, BuildingBlock: KUMBOL_clean_sbu_0, # of connection points: 6
#     Edge 12, Type (0, 0), BuildingBlock: AJUNOK_clean_linker_0, # of connection points: 2
#     Edge 13, Type (0, 0), BuildingBlock: AJUNOK_clean_linker_0, # of connection points: 2
#     Edge 14, Type (0, 0), BuildingBlock: AJUNOK_clean_linker_0, # of connection points: 2
#     Edge 15, Type (0, 0), BuildingBlock: AJUNOK_clean_linker_0, # of connection points: 2
#     Edge 16, Type (0, 0), BuildingBlock: AJUNOK_clean_linker_0, # of connection points: 2
#     Edge 17, Type (0, 0), BuildingBlock: AJUNOK_clean_linker_0, # of connection points: 2
#     Edge 18, Type (0, 0), BuildingBlock: AJUNOK_clean_linker_0, # of connection points: 2
#     Edge 19, Type (0, 0), BuildingBlock: AJUNOK_clean_linker_0, # of connection points: 2
#     Edge 20, Type (0, 0), BuildingBlock: AJUNOK_clean_linker_0, # of connection points: 2
#     Edge 21, Type (0, 0), BuildingBlock: AJUNOK_clean_linker_0, # of connection points: 2
#     Edge 22, Type (0, 0), BuildingBlock: AJUNOK_clean_linker_0, # of connection points: 2
#     Edge 23, Type (0, 0), BuildingBlock: AJUNOK_clean_linker_0, # of connection points: 2
#     Edge 24, Type (0, 0), BuildingBlock: AJUNOK_clean_linker_0, # of connection points: 2
#     Edge 25, Type (0, 0), BuildingBlock: AJUNOK_clean_linker_0, # of connection points: 2
#     Edge 26, Type (0, 0), BuildingBlock: AJUNOK_clean_linker_0, # of connection points: 2
#     Edge 27, Type (0, 0), BuildingBlock: AJUNOK_clean_linker_0, # of connection points: 2
#     Edge 28, Type (0, 0), BuildingBlock: AJUNOK_clean_linker_0, # of connection points: 2
#     Edge 29, Type (0, 0), BuildingBlock: AJUNOK_clean_linker_0, # of connection points: 2
#     Edge 30, Type (0, 0), BuildingBlock: AJUNOK_clean_linker_0, # of connection points: 2
#     Edge 31, Type (0, 0), BuildingBlock: AJUNOK_clean_linker_0, # of connection points: 2
#     Edge 32, Type (0, 0), BuildingBlock: AJUNOK_clean_linker_0, # of connection points: 2
#     Edge 33, Type (0, 0), BuildingBlock: AJUNOK_clean_linker_0, # of connection points: 2
#     Edge 34, Type (0, 0), BuildingBlock: AJUNOK_clean_linker_0, # of connection points: 2
#     Edge 35, Type (0, 0), BuildingBlock: AJUNOK_clean_linker_0, # of connection points: 2
#     Edge 36, Type (0, 0), BuildingBlock: AJUNOK_clean_linker_0, # of connection points: 2
#     Edge 37, Type (0, 0), BuildingBlock: AJUNOK_clean_linker_0, # of connection points: 2
#     Edge 38, Type (0, 0), BuildingBlock: AJUNOK_clean_linker_0, # of connection points: 2
#     Edge 39, Type (0, 0), BuildingBlock: AJUNOK_clean_linker_0, # of connection points: 2
#     Edge 40, Type (0, 0), BuildingBlock: AJUNOK_clean_linker_0, # of connection points: 2
#     Edge 41, Type (0, 0), BuildingBlock: AJUNOK_clean_linker_0, # of connection points: 2
#     Edge 42, Type (0, 0), BuildingBlock: AJUNOK_clean_linker_0, # of connection points: 2
#     Edge 43, Type (0, 0), BuildingBlock: AJUNOK_clean_linker_0, # of connection points: 2
#     Edge 44, Type (0, 0), BuildingBlock: AJUNOK_clean_linker_0, # of connection points: 2
#     Edge 45, Type (0, 0), BuildingBlock: AJUNOK_clean_linker_0, # of connection points: 2
#     Edge 46, Type (0, 0), BuildingBlock: AJUNOK_clean_linker_0, # of connection points: 2
#     Edge 47, Type (0, 0), BuildingBlock: AJUNOK_clean_linker_0, # of connection points: 2
# Relax obj value: 0.091
# Max RMSD: 0.218
# Mean RMSD: 0.218
data_MOF--net-wme--node1-KUMBOL_clean_sbu_0--edge1-AJUNOK_clean_linker_0
_symmetry_space_group_name_H-M    P1
_symmetry_Int_Tables_number       1
_symmetry_cell_setting            triclinic
loop_
_symmetry_equiv_pos_as_xyz
'x, y, z'
_cell_length_a     30.565952
_cell_length_b     30.545311
_cell_length_c     40.142712
_cell_angle_alpha  89.926563
_cell_angle_beta   90.131209
_cell_angle_gamma 120.09243
loop_
_atom_site_label
_atom_site_type_symbol
_atom_site_fract_x
_atom_site_fract_y
_atom_site_fract_z
_atom_type_partial_charge
Gd0 Gd 0.26644 0.31186 0.12899 0.0
Gd1 Gd 0.19424 0.36334 0.08636 0.0
C2 C 1.03152 0.25782 0.05232 0.0
C3 C 0.04294 0.24388 0.99419 0.0
C4 C 0.11469 0.30251 0.02788 0.0
C5 C 0.08422 0.28969 0.0555 0.0
C6 C 0.09418 0.28139 0.99653 0.0
C7 C 1.01144 0.23233 0.0221 0.0
C8 C 1.0007 0.25478 0.07899 0.0
C9 C 1.02292 0.28284 0.10786 0.0
N10 N 0.1055 0.31281 0.08472 0.0
C11 C 0.07568 0.31131 0.11043 0.0
H12 H 0.09247 0.33213 0.1329 0.0
C13 C 0.193 0.36056 0.00363 0.0
N14 N 0.16368 0.33914 0.03128 0.0
C15 C 0.17455 0.34075 0.97193 0.0
C16 C 0.12523 0.30021 0.96843 0.0
H17 H 0.23155 0.39111 0.00626 0.0
H18 H 0.97127 0.20607 0.01948 0.0
H19 H 0.36888 0.35861 0.0758 0.0
H20 H 0.9599 0.23179 0.07732 0.0
H21 H 0.99955 0.28177 0.1284 0.0
H22 H 1.02663 0.22611 0.97053 0.0
H23 H 0.23227 0.27791 0.20973 0.0
H24 H 0.50003 0.45784 0.13138 0.0
H25 H 0.45874 0.42002 0.07776 0.0
H26 H 0.44358 0.42572 0.2442 0.0
H27 H 0.19844 0.35655 0.95026 0.0
H28 H 0.11094 0.2852 0.94385 0.0
H29 H 0.49396 0.45964 0.1933 0.0
H30 H 0.27162 0.30006 0.26514 0.0
N31 N 0.35568 0.3642 0.12748 0.0
C32 C 0.45972 0.43129 0.13066 0.0
C33 C 0.43656 0.4101 0.10038 0.0
C34 C 0.4311 0.41598 0.15986 0.0
C35 C 0.37852 0.38159 0.15757 0.0
C36 C 0.38467 0.37557 0.09936 0.0
N37 N 0.29995 0.32833 0.18364 0.0
C38 C 0.35004 0.36274 0.18639 0.0
C39 C 0.29402 0.31783 0.24318 0.0
C40 C 0.34472 0.35483 0.24648 0.0
C41 C 0.27208 0.30486 0.2115 0.0
C42 C 0.37352 0.37751 0.21797 0.0
H43 H 0.36142 0.3651 0.27111 0.0
O44 O 0.23411 0.23666 0.10611 0.0
O45 O 0.19022 0.29618 0.11154 0.0
O46 O 0.18698 0.36478 0.14358 0.0
O47 O 0.25611 0.36151 0.16559 0.0
O48 O 0.19236 0.26289 0.15589 0.0
O49 O 0.29403 0.26033 0.14163 0.0
O50 O 0.20209 0.43234 0.06379 0.0
O51 O 0.27019 0.38199 0.10691 0.0
O52 O 0.28314 0.32053 0.07441 0.0
O53 O 0.20883 0.31067 0.05187 0.0
O54 O 0.26948 0.41914 0.06421 0.0
O55 O 0.17473 0.413 0.11379 0.0
C56 C 0.16273 0.2664 0.13452 0.0
C57 C 0.42517 0.41349 0.22017 0.0
C58 C 0.45385 0.43281 0.19119 0.0
C59 C 0.26025 0.22256 0.12407 0.0
C60 C 0.23134 0.17267 0.14149 0.0
C61 C 0.21325 0.17156 0.17374 0.0
C62 C 0.22178 0.12623 0.12676 0.0
C63 C 0.19488 0.07987 0.14469 0.0
C64 C 0.1863 0.12629 0.1911 0.0
C65 C 0.17721 0.08101 0.17682 0.0
C66 C 0.21857 0.37096 0.16855 0.0
C67 C 0.29862 0.4154 0.08575 0.0
C68 C 0.18422 0.44457 0.08937 0.0
C69 C 0.14556 0.46003 0.08282 0.0
C70 C 0.09899 0.42471 0.06881 0.0
C71 C 0.1543 0.50951 0.09044 0.0
C72 C 0.11652 0.5228 0.08379 0.0
C73 C 0.06149 0.43708 0.06312 0.0
C74 C 0.07005 0.48538 0.0705 0.0
C75 C 0.25068 0.3074 0.04967 0.0
H76 H 0.22018 0.20591 0.18578 0.0
H77 H 0.23599 0.12633 0.10205 0.0
H78 H 0.17259 0.12636 0.21594 0.0
H79 H 0.15612 0.04648 0.19109 0.0
H80 H 0.09155 0.38739 0.06201 0.0
H81 H 0.19052 0.53768 0.10051 0.0
H82 H 1.02566 0.40916 0.05244 0.0
H83 H 0.04031 0.49389 0.0652 0.0
Gd84 Gd 0.9994 0.27606 0.63707 0.0
Gd85 Gd 0.87461 0.20684 0.59748 0.0
C86 C 0.79801 0.03601 0.57988 0.0
C87 C 0.80661 0.03162 0.52023 0.0
C88 C 0.83757 0.11306 0.54725 0.0
C89 C 0.82366 0.08937 0.57781 0.0
C90 C 0.82684 0.08412 0.51791 0.0
C91 C 0.79149 1.00743 0.55111 0.0
C92 C 0.77932 1.01299 0.61074 0.0
C93 C 0.78703 0.04311 0.63864 0.0
N94 N 0.8329 0.11827 0.60539 0.0
C95 C 0.81402 0.09578 0.63552 0.0
H96 H 0.82035 0.11812 0.65744 0.0
C97 C 0.86076 0.18713 0.51619 0.0
N98 N 0.85746 0.16392 0.54602 0.0
C99 C 0.84868 0.15955 0.48643 0.0
C100 C 0.83379 0.10831 0.48719 0.0
H101 H 0.87284 0.22701 0.51556 0.0
H102 H 0.77353 0.96657 0.55233 0.0
H103 H 0.03294 0.3733 0.57811 0.0
H104 H 0.75913 0.97217 0.61329 0.0
H105 H 0.77291 0.02586 0.66268 0.0
H106 H 0.79953 1.00891 0.49816 0.0
H107 H 1.02087 0.25252 0.71508 0.0
H108 H 0.0848 0.51051 0.63078 0.0
H109 H 0.06351 0.46279 0.5781 0.0
H110 H 0.09639 0.46808 0.74342 0.0
H111 H 0.85071 0.17761 0.46286 0.0
H112 H 0.8251 0.08729 0.46407 0.0
H113 H 0.09622 0.51196 0.6922 0.0
H114 H 0.05726 0.29901 0.76735 0.0
N115 N 0.03458 0.36576 0.63137 0.0
C116 C 0.07121 0.47022 0.63125 0.0
C117 C 0.05948 0.44349 0.60151 0.0
C118 C 0.06715 0.4451 0.66111 0.0
C119 C 0.04871 0.39233 0.66048 0.0
C120 C 0.04207 0.39158 0.6019 0.0
N121 N 1.03037 0.31707 0.68853 0.0
C122 C 0.0474 0.36746 0.68968 0.0
C123 C 0.0542 0.31849 0.74579 0.0
C124 C 0.06984 0.36978 0.74778 0.0
C125 C 0.03394 0.29242 0.71599 0.0
C126 C 0.06633 0.39488 0.71966 0.0
H127 H 0.08488 0.38971 0.77107 0.0
O128 O 0.03824 0.24206 0.61136 0.0
O129 O 0.93822 0.19957 0.61923 0.0
O130 O 0.86694 0.20838 0.65473 0.0
O131 O 0.94563 0.26347 0.67879 0.0
O132 O 0.96732 0.20405 0.66645 0.0
O133 O 0.07635 0.29482 0.65061 0.0
O134 O 0.8242 0.23147 0.57737 0.0
O135 O 0.93151 0.28071 0.61987 0.0
O136 O 1.00797 0.29105 0.58251 0.0
O137 O 0.93769 0.22159 0.55897 0.0
O138 O 0.89989 0.2834 0.57488 0.0
O139 O 0.79775 0.17733 0.61716 0.0
C140 C 0.93759 0.17337 0.64409 0.0
C141 C 0.08261 0.44671 0.72049 0.0
C142 C 0.08256 0.47167 0.69133 0.0
C143 C 0.07776 0.26219 0.63055 0.0
C144 C 0.09296 0.22676 0.64511 0.0
C145 C 0.06619 0.19656 0.67249 0.0
C146 C 0.13377 0.2223 0.63211 0.0
C147 C 0.14632 0.18752 0.6465 0.0
C148 C 0.07698 0.1609 0.68555 0.0
C149 C 0.11644 0.15615 0.6726 0.0
C150 C 0.89602 0.23366 0.68072 0.0
C151 C 0.92895 0.31068 0.59887 0.0
C152 C 0.7857 0.20189 0.59605 0.0
C153 C 0.73537 0.17375 0.57904 0.0
C154 C 0.73316 0.15491 0.54695 0.0
C155 C 0.69026 0.16877 0.59325 0.0
C156 C 0.64412 0.14761 0.57451 0.0
C157 C 0.68897 0.13477 0.52836 0.0
C158 C 0.64574 0.13243 0.54144 0.0
C159 C 0.98503 0.2608 0.55722 0.0
H160 H 0.03716 0.20051 0.68442 0.0
H161 H 0.15632 0.24654 0.61185 0.0
H162 H 0.05531 0.13758 0.70637 0.0
H163 H 0.12493 0.12899 0.68388 0.0
H164 H 0.76617 0.15721 0.53564 0.0
H165 H 0.69178 0.18145 0.61855 0.0
H166 H 0.68855 0.12197 0.50315 0.0
H167 H 0.61375 0.11925 0.5248 0.0
Gd168 Gd 0.73121 0.95577 0.12998 0.0
Gd169 Gd 0.65799 0.8304 0.09368 0.0
C170 C 0.7538 0.75566 0.07988 0.0
C171 C 0.7904 0.78612 0.02531 0.0
C172 C 0.72824 0.80579 0.04738 0.0
C173 C 0.72735 0.7823 0.07696 0.0
C174 C 0.75725 0.80487 0.02042 0.0
C175 C 0.78815 0.7608 0.05494 0.0
C176 C 0.74285 0.72268 0.10682 0.0
C177 C 0.70592 0.71667 0.12977 0.0
N178 N 0.69579 0.78029 0.10134 0.0
C179 C 0.6827 0.74602 0.12667 0.0
H180 H 0.65454 0.74125 0.14472 0.0
C181 C 0.68086 0.82772 0.01182 0.0
N182 N 0.69472 0.82218 0.04345 0.0
C183 C 0.70897 0.82806 0.98429 0.0
C184 C 0.74873 0.81859 0.98885 0.0
H185 H 0.65021 0.83534 0.00813 0.0
H186 H 0.81094 0.74296 0.05752 0.0
H187 H 0.65906 1.00507 0.10904 0.0
H188 H 0.7616 0.70076 0.10963 0.0
H189 H 0.69606 0.69023 0.15019 0.0
H190 H 0.81451 0.78685 0.00536 0.0
H191 H 0.79143 0.93117 0.18854 0.0
H192 H 0.64196 0.07821 0.19487 0.0
H193 H 0.62401 0.05381 0.13544 0.0
H194 H 0.73769 0.0502 0.27884 0.0
H195 H 0.69986 0.83548 0.95961 0.0
H196 H 0.76968 0.81792 0.96743 0.0
H197 H 0.68535 0.07743 0.24826 0.0
H198 H 0.81439 0.95148 0.24784 0.0
N199 N 0.69385 0.99943 0.15339 0.0
C200 C 0.65679 0.05619 0.18349 0.0
C201 C 0.64649 0.0424 0.14996 0.0
C202 C 0.68655 0.0418 0.20184 0.0
C203 C 0.70469 1.01305 0.18582 0.0
C204 C 0.66594 1.01432 0.13514 0.0
N205 N 0.74924 0.96895 0.18679 0.0
C206 C 0.73401 0.9979 0.20299 0.0
C207 C 0.79143 0.96454 0.23575 0.0
C208 C 0.77496 0.99335 0.25314 0.0
C209 C 0.77845 0.95297 0.20224 0.0
C210 C 0.74618 1.01075 0.2367 0.0
H211 H 0.78445 1.00207 0.27914 0.0
O212 O 0.81348 0.99999 0.13053 0.0
O213 O 0.72647 0.87946 0.12335 0.0
O214 O 0.66447 0.82666 0.15089 0.0
O215 O 0.68118 0.90528 0.1708 0.0
O216 O 0.79406 0.94173 0.11335 0.0
O217 O 0.77058 0.03329 0.11121 0.0
O218 O 0.59698 0.77747 0.06065 0.0
O219 O 0.65777 0.90266 0.1035 0.0
O220 O 0.70461 0.96597 0.08084 0.0
O221 O 0.69784 0.89707 0.05359 0.0
O222 O 0.59105 0.8369 0.10941 0.0
O223 O 0.59395 0.7609 0.1128 0.0
C224 C 0.77129 0.89355 0.11466 0.0
C225 C 0.72874 0.03988 0.25286 0.0
C226 C 0.69885 0.05527 0.23548 0.0
C227 C 0.81556 0.04058 0.11858 0.0
C228 C 0.85298 0.08918 0.13446 0.0
C229 C 0.83644 0.11757 0.15234 0.0
C230 C 0.90582 0.1076 0.13171 0.0
C231 C 0.94158 0.15391 0.1469 0.0
C232 C 0.87133 0.16357 0.1667 0.0
C233 C 0.92313 0.18174 0.16384 0.0
C234 C 0.66391 0.85646 0.17513 0.0
C235 C 0.61203 0.88487 0.11268 0.0
C236 C 0.57349 0.74356 0.08387 0.0
C237 C 0.55949 0.68985 0.07684 0.0
C238 C 0.59539 0.68038 0.06194 0.0
C239 C 0.5116 0.64768 0.08593 0.0
C240 C 0.50051 0.5971 0.07982 0.0
C241 C 0.5852 0.63103 0.05681 0.0
C242 C 0.53845 0.58993 0.0656 0.0
C243 C 0.71003 0.94592 0.05351 0.0
H244 H 0.79649 0.10442 0.15504 0.0
H245 H 0.91889 0.0857 0.11814 0.0
H246 H 0.85814 0.18552 0.18005 0.0
H247 H 0.94889 0.21824 0.17471 0.0
H248 H 0.6316 0.71126 0.05419 0.0
H249 H 0.48295 0.65417 0.0968 0.0
H250 H 0.61359 0.62459 0.04547 0.0
H251 H 0.53139 0.55208 0.06054 0.0
Gd252 Gd 0.8111 0.7341 0.63045 0.0
Gd253 Gd 0.86415 0.66269 0.59192 0.0
C254 C 1.03035 0.71503 0.57186 0.0
C255 C 1.02919 0.6988 0.51266 0.0
C256 C 0.9532 0.68734 0.54019 0.0
C257 C 0.97882 0.7015 0.57037 0.0
C258 C 0.97822 0.68576 0.51105 0.0
C259 C 0.05525 0.71373 0.54291 0.0
C260 C 0.0549 0.7271 0.60268 0.0
C261 C 1.02765 0.72321 0.63128 0.0
N262 N 0.95284 0.69907 0.59848 0.0
C263 C 0.9764 0.708 0.6288 0.0
H264 H 0.95669 0.70507 0.65149 0.0
C265 C 0.8755 0.65229 0.51105 0.0
N266 N 0.90291 0.67113 0.53978 0.0
C267 C 0.8992 0.65241 0.48132 0.0
C268 C 0.9508 0.66913 0.48131 0.0
H269 H 0.83501 0.63651 0.51107 0.0
H270 H 0.09453 0.72334 0.54377 0.0
H271 H 0.71274 0.68539 0.57616 0.0
H272 H 0.09445 0.73807 0.60477 0.0
H273 H 0.04591 0.73137 0.65539 0.0
H274 H 0.04873 0.69708 0.49064 0.0
H275 H 0.84925 0.77283 0.70841 0.0
H276 H 0.57575 0.62507 0.63169 0.0
H277 H 0.62023 0.6411 0.57779 0.0
H278 H 0.63286 0.67272 0.74404 0.0
H279 H 0.87733 0.63819 0.45864 0.0
H280 H 0.96881 0.66777 0.45842 0.0
H281 H 0.58084 0.63705 0.69369 0.0
H282 H 0.81162 0.7675 0.76339 0.0
N283 N 0.7219 0.69268 0.62896 0.0
C284 C 0.61669 0.64423 0.63122 0.0
C285 C 0.64164 0.65333 0.60077 0.0
C286 C 0.64492 0.66134 0.66062 0.0
C287 C 0.69815 0.68577 0.65865 0.0
C288 C 0.69447 0.67852 0.60005 0.0
N289 N 0.7783 0.72936 0.68404 0.0
C290 C 0.72726 0.70528 0.68701 0.0
C291 C 0.78749 0.74997 0.74217 0.0
C292 C 0.73507 0.72442 0.74585 0.0
C293 C 0.80865 0.75265 0.7109 0.0
C294 C 0.70419 0.7017 0.71808 0.0
H295 H 0.7189 0.72258 0.77016 0.0
O296 O 0.85644 0.81469 0.64153 0.0
O297 O 0.88238 0.73951 0.609 0.0
O298 O 0.8691 0.66538 0.64937 0.0
O299 O 0.80355 0.67689 0.66808 0.0
O300 O 0.88786 0.7729 0.6549 0.0
O301 O 0.78914 0.78757 0.61176 0.0
O302 O 0.87321 0.59945 0.57452 0.0
O303 O 0.79277 0.65706 0.61025 0.0
O304 O 0.80184 0.73728 0.57596 0.0
O305 O 0.85187 0.70937 0.55028 0.0
O306 O 0.78966 0.62217 0.56548 0.0
O307 O 0.83482 0.59219 0.62019 0.0
C308 C 0.91325 0.76679 0.63164 0.0
C309 C 0.65125 0.67626 0.72034 0.0
C310 C 0.62165 0.65593 0.69168 0.0
C311 C 0.82742 0.82705 0.62538 0.0
C312 C 0.81822 0.86527 0.64155 0.0
C313 C 0.7771 0.84976 0.66314 0.0
C314 C 0.85211 0.9178 0.63663 0.0
C315 C 0.84523 0.95433 0.65389 0.0
C316 C 0.76959 0.88556 0.67968 0.0
C317 C 0.80321 0.93717 0.6752 0.0
C318 C 0.83678 0.66201 0.67294 0.0
C319 C 0.76272 0.62902 0.5873 0.0
C320 C 0.85502 0.57254 0.60128 0.0
C321 C 0.88752 0.55514 0.61819 0.0
C322 C 0.91869 0.58417 0.64456 0.0
C323 C 0.88855 0.51069 0.60863 0.0
C324 C 0.92097 0.49663 0.62539 0.0
C325 C 0.95226 0.57216 0.65974 0.0
C326 C 0.95396 0.52938 0.64999 0.0
C327 C 0.8245 0.73267 0.54969 0.0
H328 H 0.75094 0.80993 0.66737 0.0
H329 H 0.88421 0.93008 0.62016 0.0
H330 H 0.73765 0.87325 0.69626 0.0
H331 H 0.79613 0.96388 0.68842 0.0
H332 H 0.91716 0.61645 0.65358 0.0
H333 H 0.86371 0.48685 0.58898 0.0
H334 H 0.97689 0.59604 0.67945 0.0
H335 H 0.9809 0.52148 0.66221 0.0
Gd336 Gd 0.08061 0.76932 0.12749 0.0
Gd337 Gd 0.20672 0.83318 0.08823 0.0
C338 C 0.26709 1.00273 0.07592 0.0
C339 C 0.24027 1.0067 0.01962 0.0
C340 C 0.22773 0.92739 0.04192 0.0
C341 C 0.24675 0.95018 0.07212 0.0
C342 C 0.22707 0.95599 0.01464 0.0
C343 C 0.26107 0.03035 0.05015 0.0
C344 C 0.29388 0.02583 0.10507 0.0
C345 C 0.3003 0.99652 0.12921 0.0
N346 N 0.24902 0.92149 0.09702 0.0
C347 C 0.27735 0.94408 0.12482 0.0
H348 H 0.28224 0.92206 0.14392 0.0
C349 C 0.21058 0.85842 0.00719 0.0
N350 N 0.21525 0.87845 0.03841 0.0
C351 C 0.20998 0.88534 0.9791 0.0
C352 C 0.2164 0.9337 0.98302 0.0
H353 H 0.20397 0.82035 0.00434 0.0
H354 H 0.27425 0.07033 0.05305 0.0
H355 H 1.02876 0.65805 0.08452 0.0
H356 H 0.31064 0.06623 0.10882 0.0
H357 H 0.32205 1.01409 0.15149 0.0
H358 H 0.23851 0.02908 -0.00061 0.0
H359 H 0.06953 0.8179 0.20039 0.0
H360 H 0.99621 0.54003 0.15405 0.0
H361 H 0.99932 0.56888 0.09612 0.0
H362 H 1.01844 0.62065 0.25968 0.0
H363 H 0.20385 0.86857 0.95457 0.0
H364 H 0.21594 0.95444 0.96131 0.0
H365 H 1.0045 0.55997 0.21503 0.0
H366 H 0.0512 0.79114 0.25949 0.0
N367 N 0.04536 0.68144 0.13528 0.0
C368 C 1.00962 0.57965 0.14913 0.0
C369 C 1.01112 0.59575 0.11643 0.0
C370 C 1.02301 0.61442 0.17519 0.0
C371 C 0.04059 0.66571 0.16743 0.0
C372 C 1.0282 0.64681 0.10998 0.0
N373 N 0.06304 0.74844 0.18437 0.0
C374 C 0.04911 0.70004 0.1927 0.0
C375 C 0.05161 0.76571 0.24103 0.0
C376 C 0.04189 0.71765 0.25045 0.0
C377 C 0.06138 0.78043 0.20763 0.0
C378 C 0.03943 0.68376 0.22613 0.0
H379 H 0.03412 0.70624 0.2763 0.0
O380 O 0.03905 0.80813 0.13651 0.0
O381 O 0.15257 0.84457 0.11816 0.0
O382 O 0.21564 0.83492 0.14541 0.0
O383 O 0.13539 0.79182 0.16986 0.0
O384 O 0.08616 0.8415 0.10719 0.0
O385 O 0.99909 0.73221 0.1164 0.0
O386 O 0.26616 0.8299 0.06009 0.0
O387 O 0.14533 0.75928 0.10834 0.0
O388 O 0.07251 0.74548 0.07489 0.0
O389 O 0.13967 0.81648 0.05167 0.0
O390 O 0.18272 0.75703 0.06592 0.0
O391 O 0.27479 0.84183 0.11272 0.0
C392 C 0.13405 0.87112 0.10817 0.0
C393 C 1.02521 0.63357 0.23406 0.0
C394 C 1.01722 0.59901 0.20864 0.0
C395 C 0.99609 0.77188 0.12539 0.0
C396 C 0.95128 0.76577 0.14367 0.0
C397 C 0.94127 0.74539 0.17577 0.0
C398 C 0.92402 0.78877 0.13127 0.0
C399 C 0.88947 0.79494 0.15177 0.0
C400 C 0.90746 0.75071 0.19613 0.0
C401 C 0.88309 0.77624 0.18476 0.0
C402 C 0.18513 0.81607 0.17167 0.0
C403 C 0.14892 0.72953 0.08751 0.0
C404 C 0.29677 0.84085 0.08532 0.0
C405 C 0.35026 0.88238 0.08041 0.0
C406 C 0.35947 0.92763 0.06523 0.0
C407 C 0.39239 0.87732 0.09014 0.0
C408 C 0.44282 0.91697 0.08405 0.0
C409 C 0.40878 0.96693 0.05986 0.0
C410 C 0.44998 0.96169 0.06907 0.0
C411 C 0.09249 0.77695 0.04999 0.0
H412 H 0.96108 0.72712 0.18557 0.0
H413 H 0.93083 0.80214 0.10587 0.0
H414 H 0.90124 0.73634 0.22138 0.0
H415 H 0.85979 0.78174 0.20252 0.0
H416 H 0.32842 0.93255 0.05718 0.0
H417 H 0.386 0.84245 0.10157 0.0
H418 H 0.41511 1.00158 0.04817 0.0
H419 H 0.48781 0.99279 0.06434 0.0
Gd420 Gd 0.34753 0.07889 0.63226 0.0
Gd421 Gd 0.4082 0.2052 0.59169 0.0
C422 C 0.30169 0.26344 0.56299 0.0
C423 C 0.28927 0.24433 0.5038 0.0
C424 C 0.34741 0.22818 0.53566 0.0
C425 C 0.33422 0.24323 0.5644 0.0
C426 C 0.32664 0.2304 0.50475 0.0
C427 C 0.27749 0.26181 0.53282 0.0
C428 C 0.2961 0.28632 0.59158 0.0
C429 C 0.32397 0.29005 0.62015 0.0
N430 N 0.35729 0.24289 0.59319 0.0
C431 C 0.35487 0.2683 0.62045 0.0
H432 H 0.37565 0.27076 0.64276 0.0
C433 C 0.40631 0.2113 0.50925 0.0
N434 N 0.38414 0.21584 0.53763 0.0
C435 C 0.38682 0.21275 0.47793 0.0
C436 C 0.34584 0.22096 0.47571 0.0
H437 H 0.43722 0.20372 0.511 0.0
H438 H 0.2511 0.27565 0.5314 0.0
H439 H 0.41416 0.03163 0.59795 0.0
H440 H 0.27168 0.30256 0.59153 0.0
H441 H 0.32107 0.3089 0.64214 0.0
H442 H 0.27151 0.2446 0.48047 0.0
H443 H 0.26447 0.04948 0.69623 0.0
H444 H 0.4823 0.98887 0.67492 0.0
H445 H 0.47191 1.0011 0.61503 0.0
H446 H 0.39366 0.99265 0.7723 0.0
H447 H 0.40308 0.20705 0.45557 0.0
H448 H 0.33082 0.22212 0.45145 0.0
H449 H 0.45317 0.98647 0.73394 0.0
H450 H 0.258 0.02661 0.7545 0.0
N451 N 0.39684 0.04216 0.64705 0.0
C452 C 0.45802 1.00353 0.6674 0.0
C453 C 0.45226 1.01038 0.63362 0.0
C454 C 0.42963 1.01247 0.69085 0.0
C455 C 0.39862 0.0315 0.67959 0.0
C456 C 0.42031 0.02862 0.62392 0.0
N457 N 0.33334 0.04892 0.688 0.0
C458 C 0.36527 0.03461 0.70089 0.0
C459 C 0.28899 0.02939 0.74011 0.0
C460 C 0.32381 1.01808 0.75434 0.0
C461 C 0.29362 0.04365 0.7067 0.0
C462 C 0.36187 1.0193 0.73443 0.0
H463 H 0.31966 1.00643 0.78018 0.0
O464 O 0.26508 0.03664 0.62595 0.0
O465 O 0.33629 0.141 0.61055 0.0
O466 O 0.40672 0.20921 0.64973 0.0
O467 O 0.39677 0.13339 0.67132 0.0
O468 O 0.30119 0.10936 0.65515 0.0
O469 O 0.30901 1.00343 0.61032 0.0
O470 O 0.47579 0.26793 0.56872 0.0
O471 O 0.42177 0.14547 0.61321 0.0
O472 O 0.36701 0.0735 0.5796 0.0
O473 O 0.36245 0.13892 0.55414 0.0
O474 O 0.46548 0.18591 0.57272 0.0
O475 O 0.45914 0.27365 0.61973 0.0
C476 C 0.30718 0.14171 0.63273 0.0
C477 C 0.39518 1.00386 0.74651 0.0
C478 C 0.4291 1.00044 0.7247 0.0
C479 C 0.26355 0.9963 0.61441 0.0
C480 C 0.22442 0.9469 0.62872 0.0
C481 C 0.23952 0.91946 0.64913 0.0
C482 C 0.17186 0.92672 0.62226 0.0
C483 C 0.13526 0.87979 0.63643 0.0
C484 C 0.20382 0.87302 0.66252 0.0
C485 C 0.15243 0.8534 0.65629 0.0
C486 C 0.40758 0.18084 0.67503 0.0
C487 C 0.45747 0.15092 0.59381 0.0
C488 C 0.48893 0.29737 0.59477 0.0
C489 C 0.50209 0.35144 0.58937 0.0
C490 C 0.46394 0.36091 0.57864 0.0
C491 C 0.55176 0.39384 0.59473 0.0
C492 C 0.56187 0.44445 0.58947 0.0
C493 C 0.47318 0.41013 0.57476 0.0
C494 C 0.52131 0.45132 0.5803 0.0
C495 C 0.35645 0.09237 0.55347 0.0
H496 H 0.27912 0.93392 0.65478 0.0
H497 H 0.1596 0.9479 0.60704 0.0
H498 H 0.21605 0.85219 0.67809 0.0
H499 H 0.12577 0.81738 0.66737 0.0
H500 H 0.42671 0.33016 0.57297 0.0
H501 H 0.58228 0.38749 0.60197 0.0
H502 H 0.44287 0.41639 0.56684 0.0
H503 H 0.52728 0.48906 0.57642 0.0
Gd504 Gd 0.74575 0.78389 0.35602 0.0
Gd505 Gd 0.6738 0.83213 0.39723 0.0
C506 C 0.7181 0.99171 0.42956 0.0
C507 C 0.69877 0.98007 0.48865 0.0
C508 C 0.69397 0.9111 0.45554 0.0
C509 C 0.70776 0.94126 0.42741 0.0
C510 C 0.68982 0.93036 0.48658 0.0
C511 C 0.71354 1.0109 0.4603 0.0
C512 C 0.73023 1.02061 0.40044 0.0
C513 C 0.72967 0.99849 0.36996 0.0
N514 N 0.7082 0.92045 0.39766 0.0
C515 C 0.717 0.94774 0.36894 0.0
H516 H 0.71383 0.93034 0.34501 0.0
C517 C 0.66519 0.83025 0.47912 0.0
N518 N 0.68154 0.86202 0.45219 0.0
C519 C 0.6631 0.84834 0.5107 0.0
C520 C 0.67509 0.89855 0.51442 0.0
H521 H 0.65325 0.79066 0.47626 0.0
H522 H 0.72059 0.04928 0.46233 0.0
H523 H 0.69352 0.67415 0.40353 0.0
H524 H 0.73854 0.0595 0.4011 0.0
H525 H 0.73762 1.02005 0.34713 0.0
H526 H 0.69485 0.99522 0.51213 0.0
H527 H 0.79873 0.83343 0.28157 0.0
H528 H 0.63189 0.54927 0.33703 0.0
H529 H 0.64728 0.58347 0.39419 0.0
H530 H 0.68579 0.62503 0.22975 0.0
H531 H 0.65078 0.82315 0.53196 0.0
H532 H 0.67195 0.91211 0.53873 0.0
H533 H 0.64598 0.56512 0.27593 0.0
H534 H 0.79282 0.80557 0.22457 0.0
N535 N 0.70421 0.69424 0.35191 0.0
C536 C 0.65241 0.58986 0.34086 0.0
C537 C 0.66109 0.60901 0.37312 0.0
C538 C 0.67181 0.62322 0.31397 0.0
C539 C 0.69828 0.67586 0.32028 0.0
C540 C 0.68764 0.66131 0.37824 0.0
N541 N 0.7479 0.75985 0.30083 0.0
C542 C 0.72092 0.70953 0.2941 0.0
C543 C 0.7723 0.77777 0.24356 0.0
C544 C 0.74284 0.72649 0.23579 0.0
C545 C 0.77516 0.79375 0.27633 0.0
C546 C 0.71738 0.69155 0.26125 0.0
H547 H 0.74059 0.71405 0.21028 0.0
O548 O 0.81643 0.82135 0.38417 0.0
O549 O 0.75031 0.85402 0.37789 0.0
O550 O 0.66897 0.83668 0.33964 0.0
O551 O 0.69385 0.78267 0.31685 0.0
O552 O 0.77816 0.85977 0.33063 0.0
O553 O 0.80978 0.77386 0.34312 0.0
O554 O 0.59439 0.79609 0.41142 0.0
O555 O 0.66696 0.76319 0.37291 0.0
O556 O 0.73462 0.75975 0.40899 0.0
O557 O 0.72913 0.82478 0.43452 0.0
O558 O 0.63267 0.75405 0.4186 0.0
O559 O 0.62306 0.85581 0.37515 0.0
C560 C 0.77421 0.88505 0.35473 0.0
C561 C 0.6893 0.63943 0.25486 0.0
C562 C 0.66659 0.60535 0.28115 0.0
C563 C 0.84016 0.80578 0.36519 0.0
C564 C 0.89097 0.84534 0.35358 0.0
C565 C 0.89542 0.88372 0.33213 0.0
C566 C 0.93551 0.84611 0.36434 0.0
C567 C 0.98345 0.88496 0.35345 0.0
C568 C 0.94256 0.92279 0.32231 0.0
C569 C 0.98625 0.92364 0.33298 0.0
C570 C 0.67241 0.81056 0.31411 0.0
C571 C 0.6383 0.73009 0.39412 0.0
C572 C 0.58478 0.82637 0.3939 0.0
C573 C 0.55769 0.84947 0.41122 0.0
C574 C 0.56126 0.85418 0.44603 0.0
C575 C 0.52712 0.86547 0.39391 0.0
C576 C 0.50082 0.88582 0.41169 0.0
C577 C 0.53582 0.87386 0.46344 0.0
C578 C 0.5058 0.88905 0.44667 0.0
C579 C 0.7415 0.78824 0.43517 0.0
H580 H 0.86274 0.884 0.32278 0.0
H581 H 0.9329 0.81639 0.38046 0.0
H582 H 0.94521 0.95238 0.3061 0.0
H583 H 1.02253 0.95431 0.32477 0.0
H584 H 0.58318 0.84179 0.46015 0.0
H585 H 0.52409 0.86226 0.36704 0.0
H586 H 0.53882 0.87674 0.49032 0.0
H587 H 0.48555 0.90267 0.46153 0.0
Gd588 Gd 0.97812 0.72862 0.85733 0.0
Gd589 Gd 0.85052 0.65471 0.89378 0.0
C590 C 0.73817 0.70651 0.9192 0.0
C591 C 0.72663 0.6901 0.97862 0.0
C592 C 0.78861 0.6777 0.94846 0.0
C593 C 0.77563 0.69232 0.91915 0.0
C594 C 0.76389 0.67605 0.9785 0.0
C595 C 0.7143 0.70595 0.94914 0.0
C596 C 0.72388 0.71831 0.88888 0.0
C597 C 0.74476 0.7132 0.85934 0.0
N598 N 0.79722 0.68962 0.89029 0.0
C599 C 0.78061 0.69762 0.86047 0.0
H600 H 0.79533 0.69253 0.83735 0.0
C601 C 0.83359 0.64325 0.97523 0.0
N602 N 0.82291 0.66189 0.94725 0.0
C603 C 0.81117 0.64231 0.00572 0.0
C604 C 0.77594 0.65852 0.00734 0.0
H605 H 0.85894 0.62833 0.97393 0.0
H606 H 0.68521 0.71634 0.94959 0.0
H607 H 1.03098 0.68035 0.90788 0.0
H608 H 0.69553 0.72967 0.88792 0.0
H609 H 0.7328 0.72056 0.83563 0.0
H610 H 0.70678 0.68843 0.00135 0.0
H611 H 0.98488 0.77924 0.78177 0.0
H612 H 0.10736 0.62352 0.84851 0.0
H613 H 0.08038 0.63723 0.90367 0.0
H614 H 0.09634 0.67784 0.73834 0.0
H615 H 0.82006 0.6278 0.02775 0.0
H616 H 0.75743 0.65626 0.03079 0.0
H617 H 0.11268 0.63841 0.78669 0.0
H618 H 1.01769 0.77896 0.72606 0.0
N619 N 1.02707 0.6887 0.85552 0.0
C620 C 0.08509 0.64203 0.85017 0.0
C621 C 0.07 0.64976 0.88133 0.0
C622 C 0.07307 0.66023 0.82167 0.0
C623 C 0.044 0.6841 0.82527 0.0
C624 C 0.04153 0.67396 0.88357 0.0
N625 N 1.00942 0.7313 0.80324 0.0
C626 C 0.03516 0.70642 0.79824 0.0
C627 C 1.02275 0.75828 0.74609 0.0
C628 C 0.04762 0.73123 0.7403 0.0
C629 C 1.00413 0.75826 0.77789 0.0
C630 C 0.05462 0.7053 0.76661 0.0
H631 H 0.06214 0.73145 0.71568 0.0
O632 O 1.0212 0.81002 0.84843 0.0
O633 O 0.90988 0.73033 0.87606 0.0
O634 O 0.85066 0.6564 0.83614 0.0
O635 O 0.93026 0.67368 0.81804 0.0
O636 O 0.94426 0.77223 0.83399 0.0
O637 O 0.04478 0.77687 0.887 0.0
O638 O 0.81023 0.57358 0.90356 0.0
O639 O 0.91669 0.65088 0.87365 0.0
O640 O 0.98212 0.72143 0.91254 0.0
O641 O 0.90563 0.70833 0.93405 0.0
O642 O 0.88585 0.61368 0.91783 0.0
O643 O 0.77549 0.60421 0.87209 0.0
C644 C 0.90833 0.76036 0.85491 0.0
C645 C 0.08149 0.67952 0.76249 0.0
C646 C 0.09071 0.657 0.79 0.0
C647 C 0.05504 0.81818 0.87105 0.0
C648 C 0.10838 0.85239 0.86179 0.0
C649 C 0.13742 0.83254 0.84888 0.0
C650 C 0.13042 0.90539 0.86542 0.0
C651 C 0.18098 0.93822 0.85565 0.0
C652 C 0.18757 0.86479 0.83967 0.0
C653 C 0.20913 0.9171 0.84285 0.0
C654 C 0.88184 0.65729 0.81253 0.0
C655 C 0.91938 0.62192 0.89547 0.0
C656 C 0.76891 0.56439 0.88814 0.0
C657 C 0.72031 0.5343 0.9069 0.0
C658 C 0.722 0.53458 0.94186 0.0
C659 C 0.67257 0.50419 0.89082 0.0
C660 C 0.62765 0.47554 0.90998 0.0
C661 C 0.67845 0.5069 0.96059 0.0
C662 C 0.63204 0.47767 0.94497 0.0
C663 C 0.95509 0.72463 0.93682 0.0
H664 H 0.12126 0.7921 0.8458 0.0
H665 H 0.10792 0.92098 0.87491 0.0
H666 H 0.20972 0.84919 0.82967 0.0
H667 H 0.24789 0.94124 0.83498 0.0
H668 H 0.75736 0.55555 0.95501 0.0
H669 H 0.67048 0.50323 0.86387 0.0
H670 H 0.68079 0.50755 0.98751 0.0
H671 H 0.59932 0.45567 0.96061 0.0
Gd672 Gd 0.28292 0.98108 0.35735 0.0
Gd673 Gd 0.23252 0.85399 0.39008 0.0
C674 C 0.06245 0.7845 0.40505 0.0
C675 C 0.05708 0.79355 0.46471 0.0
C676 C 0.138 0.81779 0.43908 0.0
C677 C 0.11521 0.80551 0.40814 0.0
C678 C 0.10896 0.81051 0.4679 0.0
C679 C 0.03367 0.77968 0.43344 0.0
C680 C 0.04047 0.76992 0.37344 0.0
C681 C 0.07101 0.77627 0.34597 0.0
N682 N 0.14464 0.81371 0.38102 0.0
C683 C 0.12334 0.79842 0.35018 0.0
H684 H 0.14665 0.80393 0.32868 0.0
C685 C 0.20982 0.83632 0.47136 0.0
N686 N 0.18819 0.83444 0.4411 0.0
C687 C 0.18291 0.83019 0.50078 0.0
C688 C 0.13269 0.81901 0.499 0.0
H689 H 0.24876 0.8452 0.47261 0.0
H690 H 0.9933 0.76498 0.43151 0.0
H691 H 0.40083 0.029 0.38567 0.0
H692 H 1.00012 0.75385 0.36999 0.0
H693 H 0.05443 0.76529 0.32144 0.0
H694 H 0.03426 0.78897 0.48636 0.0
H695 H 0.21643 0.99883 0.29729 0.0
H696 H 0.50017 0.06895 0.30187 0.0
H697 H 0.4866 0.05986 0.36285 0.0
H698 H 0.39346 0.05737 0.21064 0.0
H699 H 0.20094 0.83441 0.52473 0.0
H700 H 0.1121 0.81488 0.52177 0.0
H701 H 0.46473 0.06711 0.24489 0.0
H702 H 0.22594 0.02231 0.23774 0.0
N703 N 0.36608 1.01573 0.33824 0.0
C704 C 0.46241 0.0542 0.31178 0.0
C705 C 0.45491 0.04916 0.34621 0.0
C706 C 0.42156 0.04314 0.29072 0.0
C707 C 0.37322 0.02406 0.30495 0.0
C708 C 0.40629 0.0309 0.35909 0.0
N709 N 0.28824 1.00372 0.30077 0.0
C710 C 0.33314 1.0184 0.28562 0.0
C711 C 0.25619 1.02081 0.25076 0.0
C712 C 0.30057 0.03179 0.23403 0.0
C713 C 0.251 1.00776 0.28451 0.0
C714 C 0.34026 0.03192 0.25163 0.0
H715 H 0.3046 0.04216 0.20793 0.0
O716 O 0.24313 0.0233 0.35798 0.0
O717 O 0.21156 0.90664 0.36639 0.0
O718 O 0.24215 0.853 0.33311 0.0
O719 O 0.2501 0.92875 0.31386 0.0
O720 O 0.21501 0.96952 0.38662 0.0
O721 O 0.323 0.0616 0.37006 0.0
O722 O 0.2623 0.80521 0.40512 0.0
O723 O 0.30326 0.91935 0.36889 0.0
O724 O 0.31279 0.98917 0.40864 0.0
O725 O 0.24977 0.91415 0.43191 0.0
O726 O 0.30899 0.88547 0.41259 0.0
O727 O 0.19972 0.77573 0.37169 0.0
C728 C 0.18579 0.9222 0.38173 0.0
C729 C 0.38743 0.04754 0.23683 0.0
C730 C 0.42802 0.05306 0.25634 0.0
C731 C 0.28266 0.0659 0.36635 0.0
C732 C 0.28733 0.11171 0.35015 0.0
C733 C 0.32099 0.13503 0.32369 0.0
C734 C 0.25602 0.13118 0.36052 0.0
C735 C 0.25797 0.17332 0.34427 0.0
C736 C 0.32382 0.17714 0.30795 0.0
C737 C 0.29283 0.19617 0.31809 0.0
C738 C 0.2432 0.88303 0.30866 0.0
C739 C 0.33471 0.91865 0.39001 0.0
C740 C 0.22872 0.76512 0.38935 0.0
C741 C 0.20464 0.71597 0.4082 0.0
C742 C 0.20066 0.71738 0.44294 0.0
C743 C 0.18824 0.66804 0.39258 0.0
C744 C 0.16845 0.62264 0.41194 0.0
C745 C 0.18262 0.67369 0.46195 0.0
C746 C 0.16765 0.62732 0.44685 0.0
C747 C 0.28552 0.96312 0.43423 0.0
H748 H 0.34491 0.12057 0.31511 0.0
H749 H 0.22949 0.11289 0.38072 0.0
H750 H 0.35012 0.19512 0.28764 0.0
H751 H 0.29647 0.22915 0.30544 0.0
H752 H 0.21308 0.75272 0.45574 0.0
H753 H 0.19112 0.66621 0.36579 0.0
H754 H 0.1812 0.67595 0.48881 0.0
H755 H 0.1564 0.59501 0.463 0.0
Gd756 Gd 0.3223 0.26105 0.85452 0.0
Gd757 Gd 0.39097 0.20499 0.89603 0.0
C758 C 0.33322 0.04077 0.92499 0.0
C759 C 0.34322 0.04683 0.98504 0.0
C760 C 0.35711 0.1202 0.95269 0.0
C761 C 0.34664 0.09226 0.92364 0.0
C762 C 0.35577 0.09773 0.98375 0.0
C763 C 0.33113 1.0182 0.95582 0.0
C764 C 0.326 1.01441 0.89516 0.0
C765 C 0.33535 0.04016 0.865 0.0
N766 N 0.35422 0.11644 0.894 0.0
C767 C 0.35074 0.09161 0.86495 0.0
H768 H 0.35968 0.11136 0.84151 0.0
C769 C 0.39247 0.2009 0.97799 0.0
N770 N 0.37502 0.17076 0.95027 0.0
C771 C 0.38896 0.17979 0.00945 0.0
C772 C 0.37074 0.12799 0.01234 0.0
H773 H 0.40916 0.24144 0.97573 0.0
H774 H 0.32209 0.97911 0.95723 0.0
H775 H 0.36663 0.36174 0.9061 0.0
H776 H 0.31536 0.97482 0.89517 0.0
H777 H 0.33188 1.02073 0.84179 0.0
H778 H 0.34359 0.02941 0.0085 0.0
H779 H 0.28509 0.21939 0.77656 0.0
H780 H 0.42627 0.49626 0.84777 0.0
H781 H 0.40865 0.45404 0.90268 0.0
H782 H 0.38466 0.43398 0.73599 0.0
H783 H 0.40199 0.20376 0.0313 0.0
H784 H 0.37021 0.11208 0.03658 0.0
H785 H 0.41741 0.48841 0.78557 0.0
H786 H 0.29335 0.2543 0.72026 0.0
N787 N 0.36189 0.35033 0.85356 0.0
C788 C 0.40803 0.45539 0.84909 0.0
C789 C 0.39811 0.43171 0.88008 0.0
C790 C 0.39273 0.42589 0.8202 0.0
C791 C 0.36911 0.37278 0.82334 0.0
C792 C 0.3744 0.37895 0.88186 0.0
N793 N 0.32642 0.29155 0.7999 0.0
C794 C 0.35051 0.34238 0.7956 0.0
C795 C 0.30898 0.27946 0.74125 0.0
C796 C 0.33422 0.33167 0.73639 0.0
C797 C 0.30467 0.25988 0.77333 0.0
C798 C 0.35522 0.36391 0.76375 0.0
H799 H 0.33735 0.34664 0.71146 0.0
O800 O 0.24172 0.22201 0.84237 0.0
O801 O 0.31804 0.19083 0.87503 0.0
O802 O 0.39364 0.20264 0.83828 0.0
O803 O 0.37858 0.26522 0.81696 0.0
O804 O 0.27964 0.18314 0.83113 0.0
O805 O 0.27032 0.27746 0.88162 0.0
O806 O 0.4674 0.23374 0.91561 0.0
O807 O 0.39844 0.27545 0.87344 0.0
O808 O 0.32862 0.27361 0.90985 0.0
O809 O 0.33232 0.20551 0.93223 0.0
O810 O 0.43503 0.28317 0.91781 0.0
O811 O 0.44353 0.18484 0.87295 0.0
C812 C 0.28969 0.15918 0.85339 0.0
C813 C 0.38028 0.41675 0.76028 0.0
C814 C 0.39902 0.44771 0.78848 0.0
C815 C 0.23039 0.24528 0.86489 0.0
C816 C 0.19337 0.26112 0.85537 0.0
C817 C 0.20966 0.30662 0.83814 0.0
C818 C 0.14124 0.23053 0.8633 0.0
C819 C 0.10577 0.24519 0.85354 0.0
C820 C 0.17509 0.32172 0.82904 0.0
C821 C 0.1238 0.29148 0.83665 0.0
C822 C 0.39443 0.23237 0.81345 0.0
C823 C 0.42825 0.30811 0.89442 0.0
C824 C 0.47833 0.20677 0.8957 0.0
C825 C 0.49779 0.17511 0.91152 0.0
C826 C 0.47846 0.15279 0.94254 0.0
C827 C 0.53506 0.16647 0.89645 0.0
C828 C 0.55016 0.13374 0.91186 0.0
C829 C 0.49014 0.11827 0.95648 0.0
C830 C 0.52461 0.10797 0.94103 0.0
C831 C 0.3201 0.24167 0.93435 0.0
H832 H 0.24919 0.33052 0.83178 0.0
H833 H 0.12827 0.19511 0.87642 0.0
H834 H 0.18811 0.35708 0.81591 0.0
H835 H 0.09806 0.30449 0.82937 0.0
H836 H 0.45448 0.16232 0.95639 0.0
H837 H 0.55305 0.18639 0.87373 0.0
H838 H 0.47298 0.1 0.97983 0.0
H839 H 0.53245 0.0807 0.95277 0.0
Gd840 Gd 0.08393 0.31334 0.36539 0.0
Gd841 Gd 0.21491 0.39438 0.38893 0.0
C842 C 0.32065 0.33404 0.4128 0.0
C843 C 0.339 0.35521 0.47138 0.0
C844 C 0.27879 0.37198 0.44247 0.0
C845 C 0.28619 0.35206 0.41338 0.0
C846 C 0.30551 0.37404 0.47173 0.0
C847 C 0.34641 0.3351 0.44204 0.0
C848 C 0.33023 0.31795 0.38245 0.0
C849 C 0.30709 0.32169 0.35345 0.0
N850 N 0.26266 0.35377 0.38508 0.0
C851 C 0.27365 0.34023 0.35516 0.0
H852 H 0.25672 0.34375 0.33246 0.0
C853 C 0.24565 0.41854 0.46856 0.0
N854 N 0.2485 0.39272 0.44155 0.0
C855 C 0.2699 0.41986 0.49841 0.0
C856 C 0.29967 0.39717 0.5001 0.0
H857 H 0.22391 0.43752 0.46723 0.0
H858 H 0.37321 0.32171 0.442 0.0
H859 H 1.01343 0.22896 0.42336 0.0
H860 H 0.35644 0.3039 0.381 0.0
H861 H 0.3153 0.31072 0.32971 0.0
H862 H 0.36014 0.35691 0.49354 0.0
H863 H 0.0966 0.40534 0.31269 0.0
H864 H 0.90554 0.26806 0.45948 0.0
H865 H 0.9446 0.21353 0.46198 0.0
H866 H 0.92731 0.40115 0.38603 0.0
H867 H 0.26639 0.43923 0.5199 0.0
H868 H 0.31929 0.39916 0.52307 0.0
H869 H 0.89828 0.33678 0.43028 0.0
H870 H 0.05649 0.45653 0.3026 0.0
N871 N 1.01659 0.29408 0.40174 0.0
C872 C 0.93592 0.27484 0.44267 0.0
C873 C 0.95756 0.24396 0.44411 0.0
C874 C 0.95268 0.31328 0.41876 0.0
C875 C 0.99343 0.32184 0.39812 0.0
C876 C 0.99677 0.25292 0.42243 0.0
N877 N 0.04847 0.36438 0.3532 0.0
C878 C 1.00962 0.35778 0.373 0.0
C879 C 0.04272 0.42868 0.32236 0.0
C880 C 1.00291 0.4225 0.34256 0.0
C881 C 0.0651 0.39907 0.32799 0.0
C882 C 0.98574 0.38663 0.36819 0.0
H883 H 0.98579 0.44563 0.3382 0.0
O884 O 1.02657 0.27688 0.32638 0.0
O885 O 0.16065 0.32028 0.36718 0.0
O886 O 0.20915 0.3886 0.33172 0.0
O887 O 0.12373 0.34385 0.31685 0.0
O888 O 0.10293 0.25778 0.38997 0.0
O889 O 0.04865 0.2323 0.35556 0.0
O890 O 0.25352 0.47669 0.38584 0.0
O891 O 0.14608 0.39574 0.37046 0.0
O892 O 0.08699 0.333 0.41891 0.0
O893 O 0.16641 0.34828 0.43511 0.0
O894 O 0.18184 0.43646 0.41346 0.0
O895 O 0.29368 0.43924 0.37199 0.0
C896 C 0.14991 0.27931 0.38169 0.0
C897 C 0.94584 0.37907 0.3892 0.0
C898 C 0.92943 0.34256 0.41448 0.0
C899 C 1.01555 0.23113 0.33483 0.0
C900 C 0.96172 0.19323 0.34292 0.0
C901 C 0.92789 0.20998 0.35125 0.0
C902 C 0.94469 0.14054 0.34529 0.0
C903 C 0.89533 0.10602 0.35714 0.0
C904 C 0.87972 0.17625 0.36329 0.0
C905 C 0.86377 0.12495 0.36651 0.0
C906 C 0.17212 0.371 0.3091 0.0
C907 C 0.14658 0.42704 0.39208 0.0
C908 C 0.29721 0.48256 0.37775 0.0
C909 C 0.3418 0.52015 0.39739 0.0
C910 C 0.33418 0.53375 0.42938 0.0
C911 C 0.39189 0.54329 0.38452 0.0
C912 C 0.43339 0.57898 0.40395 0.0
C913 C 0.37475 0.56918 0.44824 0.0
C914 C 0.4237 0.59166 0.4357 0.0
C915 C 0.1181 0.33411 0.44177 0.0
H916 H 0.93895 0.2495 0.34917 0.0
H917 H 0.96983 0.12664 0.33848 0.0
H918 H 0.85454 0.19 0.3702 0.0
H919 H 0.82599 0.09964 0.37554 0.0
H920 H 0.29662 0.51737 0.43985 0.0
H921 H 0.3985 0.53329 0.35991 0.0
H922 H 0.36818 0.57943 0.47276 0.0
H923 H 0.45436 0.61944 0.45095 0.0
Gd924 Gd 0.7859 0.06994 0.8637 0.0
Gd925 Gd 0.83428 0.19668 0.89666 0.0
C926 C 0.97876 0.29297 0.95471 0.0
C927 C 0.94662 0.29226 0.01016 0.0
C928 C 0.88896 0.24073 0.96606 0.0
C929 C 0.92933 0.25769 0.944 0.0
C930 C 0.89735 0.25796 -0.00064 0.0
C931 C 0.98709 0.31017 0.98781 0.0
C932 C 1.0181 0.31186 0.93144 0.0
C933 C 1.00734 0.29775 0.89807 0.0
N934 N 0.91981 0.24336 0.91151 0.0
C935 C 0.95746 0.26453 0.88836 0.0
H936 H 0.94881 0.25647 0.86223 0.0
C937 C 0.80029 0.19988 0.97382 0.0
N938 N 0.84117 0.21092 0.9543 0.0
C939 C 0.8068 0.21389 0.00739 0.0
C940 C 0.85559 0.24269 0.02031 0.0
H941 H 0.76285 0.18065 0.9631 0.0
H942 H 1.02473 0.33754 0.99637 0.0
H943 H 0.67402 1.02037 0.9049 0.0
H944 H 0.05657 0.33872 0.93877 0.0
H945 H 0.03718 0.31351 0.87966 0.0
H946 H 0.9537 0.30627 0.03553 0.0
H947 H 0.84226 0.06716 0.79287 0.0
H948 H 0.5549 0.9608 0.83325 0.0
H949 H 0.5839 0.97973 0.89171 0.0
H950 H 0.63992 0.97559 0.73036 0.0
H951 H 0.77427 0.20392 0.02297 0.0
H952 H 0.86056 0.2549 0.04606 0.0
H953 H 0.57617 0.95976 0.77314 0.0
H954 H 0.81817 0.04049 0.73388 0.0
N955 N 0.6977 0.02702 0.8542 0.0
C956 C 0.59495 0.97912 0.83884 0.0
C957 C 0.61115 0.98958 0.87184 0.0
C958 C 0.6305 0.99092 0.81353 0.0
C959 C 0.68229 1.01513 0.82209 0.0
C960 C 0.66276 1.01286 0.87916 0.0
N961 N 0.76753 0.04706 0.80715 0.0
C962 C 0.71817 0.02474 0.79792 0.0
C963 C 0.79008 0.0362 0.75178 0.0
C964 C 0.74001 1.01596 0.74152 0.0
C965 C 0.80332 0.05105 0.78499 0.0
C966 C 0.70322 1.00947 0.7647 0.0
H967 H 0.72992 1.00442 0.71584 0.0
O968 O 0.82359 0.02662 0.85443 0.0
O969 O 0.85612 0.14654 0.8714 0.0
O970 O 0.85689 0.19979 0.84221 0.0
O971 O 0.79635 0.1224 0.82033 0.0
O972 O 0.8637 0.08593 0.88085 0.0
O973 O 0.75628 0.99475 0.88506 0.0
O974 O 0.79949 0.24292 0.90468 0.0
O975 O 0.7627 0.12172 0.88851 0.0
O976 O 0.76066 0.06317 0.91607 0.0
O977 O 0.82127 0.13858 0.93967 0.0
O978 O 0.76435 0.18517 0.87081 0.0
O979 O 0.87175 0.27554 0.87971 0.0
C980 C 0.88758 0.13421 0.88146 0.0
C981 C 0.65198 0.98703 0.75584 0.0
C982 C 0.6157 0.978 0.78019 0.0
C983 C 0.79153 0.98783 0.872 0.0
C984 C 0.77665 0.93708 0.85861 0.0
C985 C 0.73211 0.91026 0.83996 0.0
C986 C 0.80763 0.91538 0.86419 0.0
C987 C 0.79425 0.86741 0.85081 0.0
C988 C 0.7184 0.86265 0.8271 0.0
C989 C 0.74912 0.84148 0.83234 0.0
C990 C 0.82923 0.17133 0.81675 0.0
C991 C 0.73593 0.1374 0.87416 0.0
C992 C 0.83735 0.28412 0.89215 0.0
C993 C 0.85508 0.33218 0.9113 0.0
C994 C 0.85029 0.32996 0.94608 0.0
C995 C 0.87468 0.38014 0.89532 0.0
C996 C 0.88925 0.42475 0.9144 0.0
C997 C 0.86465 0.37325 0.96481 0.0
C998 C 0.88355 0.41991 0.94927 0.0
C999 C 0.78813 0.08872 0.94165 0.0
H1000 H 0.70801 0.92621 0.83526 0.0
H1001 H 0.84255 0.93631 0.87812 0.0
H1002 H 0.68394 0.84217 0.81271 0.0
H1003 H 0.73771 0.80472 0.82168 0.0
H1004 H 0.83433 0.29455 0.95904 0.0
H1005 H 0.87842 0.38257 0.86847 0.0
H1006 H 0.86026 0.37047 0.99162 0.0
H1007 H 0.89272 0.45237 0.96482 0.0
C1008 C 0.1809 0.94842 0.14418 0.0
C1009 C 0.15479 0.92632 0.11454 0.0
C1010 C 0.19587 0.99867 0.15263 0.0
C1011 C 0.18531 0.02955 0.13182 0.0
H1012 H 0.18975 0.92658 0.16109 0.0
H1013 H 0.21543 1.01336 0.17604 0.0
S1014 S 0.11728 0.98972 0.05102 0.0
N1015 N 0.11849 0.93903 0.06415 0.0
N1016 N 0.14693 0.03372 0.07974 0.0
C1017 C 0.15974 1.00818 0.10171 0.0
C1018 C 0.14403 0.95654 0.09331 0.0
C1019 C 0.26558 0.18249 0.66126 0.0
C1020 C 0.27244 0.16233 0.6316 0.0
C1021 C 0.2273 0.19465 0.66433 0.0
C1022 C 0.19307 0.18594 0.63828 0.0
H1023 H 0.28941 0.18772 0.68266 0.0
H1024 H 0.22233 0.20826 0.6881 0.0
S1025 S 0.19185 0.12994 0.55617 0.0
N1026 N 0.24039 0.13198 0.5759 0.0
N1027 N 0.16768 0.15453 0.58188 0.0
C1028 C 0.19949 0.1661 0.60825 0.0
C1029 C 0.23908 0.15397 0.60497 0.0
C1030 C 1.02216 0.17687 0.11446 0.0
C1031 C 0.99808 0.1753 0.14482 0.0
C1032 C 0.07538 0.20667 0.11088 0.0
C1033 C 0.10647 0.23579 0.13753 0.0
H1034 H 0.99965 0.15756 0.09275 0.0
H1035 H 0.09217 0.2077 0.08695 0.0
S1036 S 0.06445 0.22969 0.22493 0.0
N1037 N 1.01151 0.19536 0.20391 0.0
N1038 N 0.11031 0.25045 0.19714 0.0
C1039 C 0.08343 0.2293 0.16884 0.0
C1040 C 1.02967 0.19944 0.17248 0.0
C1041 C 0.89149 0.03496 0.61924 0.0
C1042 C 0.88036 1.01044 0.65047 0.0
C1043 C 0.91235 0.08811 0.61685 0.0
C1044 C 0.92139 0.11813 0.64555 0.0
H1045 H 0.88088 1.01274 0.59658 0.0
H1046 H 0.91918 0.10538 0.59243 0.0
S1047 S 0.92164 0.07515 0.73219 0.0
N1048 N 0.89664 0.0227 0.70987 0.0
N1049 N 0.93315 0.121 0.70566 0.0
C1050 C 0.91771 0.09479 0.67657 0.0
C1051 C 0.89764 0.04136 0.67894 0.0
C1052 C 0.81422 0.80871 0.15623 0.0
C1053 C 0.86012 0.82067 0.14026 0.0
C1054 C 0.78699 0.83343 0.14893 0.0
C1055 C 0.8009 0.86781 0.12253 0.0
H1056 H 0.79761 0.77829 0.17396 0.0
H1057 H 0.75383 0.82432 0.16361 0.0
S1058 S 0.9177 0.91587 0.07213 0.0
N1059 N 0.92006 0.87484 0.09781 0.0
N1060 N 0.86462 0.91521 0.08082 0.0
C1061 C 0.84622 0.8805 0.10578 0.0
C1062 C 0.87616 0.85783 0.11484 0.0
C1063 C 0.99617 0.81472 0.6609 0.0
C1064 C 0.96978 0.79948 0.63043 0.0
C1065 C 0.04921 0.84273 0.66224 0.0
C1066 C 0.07895 0.85797 0.63316 0.0
H1067 H 0.97554 0.80321 0.68418 0.0
H1068 H 0.06731 0.8515 0.68647 0.0
S1069 S 1.02852 0.83671 0.54689 0.0
N1070 N 0.97727 0.80803 0.57027 0.0
N1071 N 0.07735 0.86062 0.57267 0.0
C1072 C 0.05309 0.84634 0.60238 0.0
C1073 C 0.99855 0.81726 0.60103 0.0
C1074 C 0.0997 0.9031 0.40082 0.0
C1075 C 0.1317 0.90495 0.37494 0.0
C1076 C 0.04999 0.89271 0.39425 0.0
C1077 C 1.03139 0.88565 0.36142 0.0
H1078 H 0.1134 0.91021 0.42627 0.0
H1079 H 1.02697 0.89266 0.41473 0.0
S1080 S 0.10163 0.8923 0.28478 0.0
N1081 N 0.1418 0.90193 0.31527 0.0
N1082 N 0.04927 0.88289 0.3029 0.0
C1083 C 0.06317 0.88776 0.33548 0.0
C1084 C 0.11322 0.89778 0.34218 0.0
C1085 C 0.22561 1.02172 0.82661 0.0
C1086 C 0.20441 0.99452 0.85611 0.0
C1087 C 0.25262 0.07482 0.82609 0.0
C1088 C 0.2609 0.10308 0.85543 0.0
H1089 H 0.22128 1.00128 0.80378 0.0
H1090 H 0.26854 0.09394 0.80271 0.0
S1091 S 0.20638 0.05083 0.93821 0.0
N1092 N 0.18829 1.00018 0.91471 0.0
N1093 N 0.2401 0.10026 0.91399 0.0
C1094 C 0.23774 0.07665 0.88487 0.0
C1095 C 0.20933 0.02232 0.88519 0.0
C1096 C 0.19468 0.23121 0.39697 0.0
C1097 C 0.17305 0.24798 0.37268 0.0
C1098 C 0.22027 0.20516 0.38791 0.0
C1099 C 0.22464 0.19439 0.35425 0.0
H1100 H 0.19372 0.24021 0.42295 0.0
H1101 H 0.23871 0.19547 0.40727 0.0
S1102 S 0.16532 0.22146 0.28211 0.0
N1103 N 0.15186 0.24623 0.31427 0.0
N1104 N 0.19833 0.1966 0.29728 0.0
C1105 C 0.1997 0.20782 0.33016 0.0
C1106 C 0.1742 0.23457 0.33936 0.0
C1107 C 1.0312 0.19644 0.89267 0.0
C1108 C 0.04992 0.21316 0.86023 0.0
C1109 C 0.9787 0.17116 0.8995 0.0
C1110 C 0.94297 0.16218 0.87425 0.0
H1111 H 0.05731 0.20404 0.91304 0.0
H1112 H 0.96602 0.15947 0.92482 0.0
S1113 S 0.97128 0.19035 0.78447 0.0
N1114 N 1.0274 0.213 0.80211 0.0
N1115 N 0.9298 0.16619 0.81502 0.0
C1116 C 0.96102 0.17617 0.84157 0.0
C1117 C 1.01412 0.20165 0.83459 0.0
C1118 C 0.85998 0.02235 0.32795 0.0
C1119 C 0.87364 0.04977 0.35789 0.0
C1120 C 0.829 0.96926 0.32776 0.0
C1121 C 0.80987 0.94109 0.35731 0.0
H1122 H 0.87127 0.04228 0.30439 0.0
H1123 H 0.81854 0.94996 0.30409 0.0
S1124 S 0.84521 0.99362 0.44254 0.0
N1125 N 0.87213 0.04407 0.41824 0.0
N1126 N 0.81563 0.94419 0.41764 0.0
C1127 C 0.82712 0.96757 0.38755 0.0
C1128 C 0.85823 0.02186 0.38783 0.0
C1129 C 0.86741 0.8021 0.82552 0.0
C1130 C 0.88058 0.78886 0.85594 0.0
C1131 C 0.84098 0.82868 0.82436 0.0
C1132 C 0.82771 0.84466 0.85357 0.0
H1133 H 0.87675 0.79071 0.8023 0.0
H1134 H 0.83044 0.8366 0.80028 0.0
S1135 S 0.86318 0.82913 0.93944 0.0
N1136 N 0.88507 0.80008 0.9159 0.0
N1137 N 0.83572 0.85068 0.91391 0.0
C1138 C 0.84403 0.83503 0.8842 0.0
C1139 C 0.87048 0.80712 0.88536 0.0
C1140 C 0.12075 0.64642 0.0605 0.0
C1141 C 0.13348 0.6747 0.09021 0.0
C1142 C 0.11612 0.59827 0.059 0.0
C1143 C 0.12497 0.57585 0.08701 0.0
H1144 H 0.11533 0.66231 0.03775 0.0
H1145 H 0.10618 0.5786 0.03533 0.0
S1146 S 0.15888 0.63341 0.17135 0.0
N1147 N 0.15477 0.67646 0.14869 0.0
N1148 N 0.14581 0.58566 0.14603 0.0
C1149 C 0.13737 0.60341 0.11715 0.0
C1150 C 0.14167 0.65273 0.11872 0.0
C1151 C 0.54805 0.10544 0.57219 0.0
C1152 C 0.59423 0.14193 0.58712 0.0
C1153 C 0.50283 0.10626 0.57628 0.0
C1154 C 0.49854 0.13863 0.59913 0.0
H1155 H 0.54678 0.07729 0.55529 0.0
H1156 H 0.47134 0.08253 0.56008 0.0
S1157 S 0.60458 0.23874 0.64798 0.0
N1158 N 0.63111 0.21193 0.62672 0.0
N1159 N 0.54396 0.20743 0.63806 0.0
C1160 C 0.54275 0.17238 0.6167 0.0
C1161 C 0.5905 0.17472 0.61046 0.0
C1162 C 0.42483 0.52168 0.05538 0.0
C1163 C 0.44874 0.55097 0.0838 0.0
C1164 C 0.37806 0.47661 0.05724 0.0
C1165 C 0.35283 0.45701 0.0877 0.0
H1166 H 0.44217 0.53429 0.03112 0.0
H1167 H 0.36053 0.45774 0.03411 0.0
S1168 S 0.39857 0.51864 0.17 0.0
N1169 N 0.44348 0.55677 0.14391 0.0
N1170 N 0.35504 0.47188 0.14727 0.0
C1171 C 0.37625 0.4855 0.1166 0.0
C1172 C 0.4242 0.53228 0.11468 0.0
C1173 C 0.92516 0.43325 0.58621 0.0
C1174 C 0.92122 0.44811 0.61872 0.0
C1175 C 0.92954 0.38994 0.58039 0.0
C1176 C 0.93056 0.35963 0.60674 0.0
H1177 H 0.92563 0.45562 0.56512 0.0
H1178 H 0.93198 0.37991 0.55486 0.0
S1179 S 0.91765 0.37999 0.69638 0.0
N1180 N 0.91566 0.42695 0.67755 0.0
N1181 N 0.92485 0.34699 0.66656 0.0
C1182 C 0.92625 0.37392 0.63928 0.0
C1183 C 0.92131 0.41761 0.64522 0.0
C1184 C 0.5432 0.90054 0.1317 0.0
C1185 C 0.57825 0.90636 0.10675 0.0
C1186 C 0.49952 0.90372 0.12444 0.0
C1187 C 0.48875 0.91255 0.09179 0.0
H1188 H 0.54834 0.89098 0.15685 0.0
H1189 H 0.47369 0.89862 0.14446 0.0
S1190 S 0.56575 0.92651 0.01687 0.0
N1191 N 0.59672 0.91811 0.04765 0.0
N1192 N 0.51661 0.92615 0.03418 0.0
C1193 C 0.52385 0.91916 0.06673 0.0
C1194 C 0.56792 0.91548 0.07411 0.0
C1195 C 0.68999 0.5567 0.61967 0.0
C1196 C 0.70882 0.58679 0.59068 0.0
C1197 C 0.6434 0.50982 0.61932 0.0
C1198 C 0.61406 0.49109 0.58995 0.0
H1199 H 0.71216 0.56848 0.64238 0.0
H1200 H 0.63018 0.48826 0.64218 0.0
S1201 S 0.64658 0.55569 0.50775 0.0
N1202 N 0.69374 0.59421 0.5322 0.0
N1203 N 0.60785 0.50757 0.53147 0.0
C1204 C 0.63254 0.52145 0.56119 0.0
C1205 C 0.67927 0.56867 0.56159 0.0
C1206 C 0.42559 0.95419 0.40408 0.0
C1207 C 0.38497 0.92337 0.38284 0.0
C1208 C 0.46614 0.94552 0.40945 0.0
C1209 C 0.46669 0.90304 0.39593 0.0
H1210 H 0.42413 0.98284 0.4191 0.0
H1211 H 0.49519 0.96996 0.42695 0.0
S1212 S 0.37043 0.81125 0.33716 0.0
N1213 N 0.35011 0.85091 0.34579 0.0
N1214 N 0.42393 0.83183 0.35799 0.0
C1215 C 0.42797 0.87357 0.37292 0.0
C1216 C 0.3876 0.88402 0.36622 0.0
C1217 C 0.53348 0.44066 0.91102 0.0
C1218 C 0.57546 0.44158 0.89561 0.0
C1219 C 0.48411 0.39946 0.90736 0.0
C1220 C 0.47323 0.35838 0.8864 0.0
H1221 H 0.5394 0.46983 0.92877 0.0
H1222 H 0.45511 0.39795 0.92347 0.0
S1223 S 0.56758 0.34472 0.83631 0.0
N1224 N 0.60165 0.39901 0.85609 0.0
N1225 N 0.50827 0.32349 0.84743 0.0
C1226 C 0.51386 0.3613 0.86793 0.0
C1227 C 0.56487 0.40254 0.87267 0.0
C1228 C 0.18103 0.56228 0.3742 0.0
C1229 C 0.15149 0.57031 0.39774 0.0
C1230 C 0.17386 0.51328 0.36822 0.0
C1231 C 0.1375 0.47026 0.38591 0.0
H1232 H 0.21262 0.59441 0.36235 0.0
H1233 H 0.20035 0.50996 0.35205 0.0
S1234 S 0.04456 0.46874 0.44567 0.0
N1235 N 0.07746 0.52836 0.43362 0.0
N1236 N 0.06903 0.43892 0.42566 0.0
C1237 C 0.10528 0.47728 0.40729 0.0
C1238 C 0.11088 0.5264 0.41224 0.0
C1239 C 0.66796 0.11894 0.91536 0.0
C1240 C 0.68237 0.1214 0.88198 0.0
C1241 C 0.62555 0.12277 0.92433 0.0
C1242 C 0.59425 0.12793 0.90032 0.0
H1243 H 0.69168 0.11764 0.9349 0.0
H1244 H 0.61881 0.12392 0.95068 0.0
S1245 S 0.61228 0.12907 0.80877 0.0
N1246 N 0.66063 0.12591 0.82446 0.0
N1247 N 0.57888 0.12954 0.84095 0.0
C1248 C 0.60666 0.12715 0.86658 0.0
C1249 C 0.65085 0.12449 0.85755 0.0
C1250 C 0.50488 0.63986 0.36639 0.0
C1251 C 0.48753 0.6045 0.39274 0.0
C1252 C 0.55674 0.6769 0.3633 0.0
C1253 C 0.59286 0.68015 0.38667 0.0
H1254 H 0.47778 0.64208 0.35008 0.0
H1255 H 0.56751 0.70653 0.34489 0.0
S1256 S 0.5675 0.59238 0.45743 0.0
N1257 N 0.51182 0.57088 0.43947 0.0
N1258 N 0.6075 0.64186 0.43522 0.0
C1259 C 0.57631 0.64214 0.41114 0.0
C1260 C 0.52419 0.60399 0.41374 0.0
C1261 C 0.95486 0.56802 0.91249 0.0
C1262 C 0.92727 0.57837 0.88884 0.0
C1263 C 0.94718 0.51906 0.91698 0.0
C1264 C 0.90867 0.47691 0.89983 0.0
H1265 H 0.97951 0.59707 0.9299 0.0
H1266 H 0.9683 0.51349 0.9366 0.0
S1267 S 0.82767 0.48369 0.83332 0.0
N1268 N 0.86345 0.54303 0.84542 0.0
N1269 N 0.84563 0.45008 0.85583 0.0
C1270 C 0.8832 0.48708 0.87432 0.0
C1271 C 0.89291 0.53781 0.86864 0.0
C1272 C 0.23425 0.39323 0.26213 0.0
C1273 C 0.18517 0.37909 0.27289 0.0
C1274 C 0.24555 0.39475 0.22809 0.0
C1275 C 0.20817 0.38127 0.20323 0.0
H1276 H 0.26388 0.40131 0.28007 0.0
H1277 H 0.2837 0.40472 0.22133 0.0
S1278 S 0.0769 0.35379 0.2177 0.0
N1279 N 0.10104 0.36028 0.2554 0.0
N1280 N 0.12251 0.36273 0.19182 0.0
C1281 C 0.16035 0.37203 0.21349 0.0
C1282 C 0.14872 0.37062 0.24817 0.0
C1283 C 0.82924 0.17737 0.72195 0.0
C1284 C 0.87375 0.22314 0.71488 0.0
C1285 C 0.81368 0.1621 0.75489 0.0
C1286 C 0.84182 0.19196 0.78221 0.0
H1287 H 0.80699 0.15207 0.70216 0.0
H1288 H 0.77983 0.12599 0.75886 0.0
S1289 S 0.9513 0.32242 0.77705 0.0
N1290 N 0.9391 0.30316 0.73798 0.0
N1291 N 0.90952 0.27463 0.7996 0.0
C1292 C 0.88288 0.24035 0.7754 0.0
C1293 C 0.89896 0.2558 0.74188 0.0
C1294 C 0.66011 0.79756 0.21999 0.0
C1295 C 0.65398 0.83825 0.21027 0.0
C1296 C 0.66141 0.7865 0.25372 0.0
C1297 C 0.65838 0.81656 0.27939 0.0
H1298 H 0.66662 0.77558 0.20159 0.0
H1299 H 0.66715 0.7552 0.25955 0.0
S1300 S 0.627 0.91795 0.26709 0.0
N1301 N 0.63264 0.90117 0.22894 0.0
N1302 N 0.63851 0.88226 0.29241 0.0
C1303 C 0.64702 0.85405 0.27004 0.0
C1304 C 0.64427 0.86454 0.23551 0.0
C1305 C 0.88954 0.65496 0.71829 0.0
C1306 C 0.8431 0.6492 0.70779 0.0
C1307 C 0.89967 0.65267 0.75207 0.0
C1308 C 0.8647 0.64659 0.77709 0.0
H1309 H 0.91948 0.66383 0.70067 0.0
H1310 H 0.93635 0.65801 0.75855 0.0
S1311 S 0.73159 0.61278 0.76204 0.0
N1312 N 0.75703 0.62382 0.72452 0.0
N1313 N 0.77731 0.62251 0.78823 0.0
C1314 C 0.81608 0.63503 0.76674 0.0
C1315 C 0.80517 0.63596 0.7321 0.0
C1316 C 0.19437 0.8685 0.22037 0.0
C1317 C 0.20558 0.83392 0.20547 0.0
C1318 C 0.20787 0.88415 0.25317 0.0
C1319 C 0.23101 0.86423 0.27366 0.0
H1320 H 0.17343 0.8827 0.20694 0.0
H1321 H 0.19853 0.91136 0.26266 0.0
S1322 S 0.26519 0.76878 0.24745 0.0
N1323 N 0.23999 0.77823 0.21362 0.0
N1324 N 0.26343 0.80604 0.27665 0.0
C1325 C 0.24145 0.82826 0.25948 0.0
C1326 C 0.22904 0.81337 0.22515 0.0
C1327 C 0.40087 0.1768 0.77005 0.0
C1328 C 0.40713 0.22404 0.77891 0.0
C1329 C 0.40423 0.16485 0.73679 0.0
C1330 C 0.41327 0.19909 0.71042 0.0
H1331 H 0.39111 0.14775 0.78869 0.0
H1332 H 0.39786 0.12742 0.73186 0.0
S1333 S 0.44514 0.33252 0.72119 0.0
N1334 N 0.43231 0.3089 0.75929 0.0
N1335 N 0.43719 0.28574 0.69665 0.0
C1336 C 0.42371 0.248 0.71922 0.0
C1337 C 0.42088 0.26052 0.75337 0.0
C1338 C 0.25417 0.22417 0.97891 0.0
C1339 C 0.30364 0.25416 0.96624 0.0
C1340 C 0.23547 0.24212 0.00478 0.0
C1341 C 0.2653 0.29099 0.01845 0.0
H1342 H 0.22944 0.18721 0.96825 0.0
H1343 H 0.1979 0.21736 0.01449 0.0
S1344 S 0.39609 0.38488 0.99278 0.0
N1345 N 0.3812 0.33505 0.96926 0.0
N1346 N 0.34593 0.36903 0.0161 0.0
C1347 C 0.31427 0.32108 0.00547 0.0
C1348 C 0.33337 0.30271 0.97986 0.0
C1349 C 0.07043 0.3449 0.48794 0.0
C1350 C 0.09398 0.31876 0.47535 0.0
C1351 C 0.03283 0.32407 0.5127 0.0
C1352 C 1.01593 0.27548 0.52599 0.0
H1353 H 0.07978 0.38128 0.47748 0.0
H1354 H 1.01662 0.34634 0.52149 0.0
S1355 S 0.06449 0.19045 0.50194 0.0
N1356 N 0.09663 0.24075 0.47802 0.0
N1357 N 1.02701 0.20218 0.52527 0.0
C1358 C 0.03934 0.2489 0.51403 0.0
C1359 C 0.07794 0.2703 0.48865 0.0
C1360 C 0.76189 0.97961 0.00023 0.0
C1361 C 0.728 0.98037 0.02361 0.0
C1362 C 0.78461 1.01763 0.97541 0.0
C1363 C 0.77518 0.05849 0.97313 0.0
H1364 H 0.77158 0.95005 0.00142 0.0
H1365 H 0.80897 1.01437 0.95723 0.0
S1366 S 0.6849 0.07485 0.0257 0.0
N1367 N 0.68417 0.02452 0.0413 0.0
N1368 N 0.72512 0.09335 0.99438 0.0
C1369 C 0.74042 0.05868 0.99575 0.0
C1370 C 0.71753 1.0205 0.021 0.0
C1371 C 0.79491 0.72194 0.48987 0.0
C1372 C 0.81303 0.75218 0.5184 0.0
C1373 C 0.77219 0.73434 0.46366 0.0
C1374 C 0.76582 0.77745 0.46455 0.0
H1375 H 0.79591 0.68705 0.4884 0.0
H1376 H 0.7587 0.70879 0.44266 0.0
S1377 S 0.81191 0.87228 0.53251 0.0
N1378 N 0.82704 0.82994 0.54488 0.0
N1379 N 0.78375 0.85232 0.49602 0.0
C1380 C 0.78558 0.80905 0.49246 0.0
C1381 C 0.80921 0.79668 0.5191 0.0
C1382 C 0.98007 0.70434 0.99111 0.0
C1383 C 0.98272 0.74119 0.96904 0.0
C1384 C 1.01644 0.7166 0.01633 0.0
C1385 C 0.05773 0.76633 0.02073 0.0
H1386 H 0.9512 0.66508 0.98777 0.0
H1387 H 1.01248 0.68614 0.03216 0.0
S1388 S 0.08096 0.87736 0.96981 0.0
N1389 N 1.02973 0.82976 0.95306 0.0
N1390 N 0.09691 0.85318 0.00127 0.0
C1391 C 0.06025 0.80384 -0.00086 0.0
C1392 C 1.02318 0.79116 0.97319 0.0
C1393 C 0.29827 0.03843 0.4674 0.0
C1394 C 0.2974 0.99173 0.46618 0.0
C1395 C 0.31712 0.07081 0.49539 0.0
C1396 C 0.33722 0.05855 0.52313 0.0
H1397 H 0.28474 0.05037 0.44624 0.0
H1398 H 0.31602 0.10567 0.49517 0.0
S1399 S 0.3469 0.94167 0.53083 0.0
N1400 N 0.31989 0.93588 0.49425 0.0
N1401 N 0.35595 0.99558 0.54632 0.0
C1402 C 0.33669 1.01169 0.5218 0.0
C1403 C 0.31674 0.97868 0.49354 0.0
loop_
_geom_bond_atom_site_label_1
_geom_bond_atom_site_label_2
_geom_bond_distance
_geom_bond_site_symmetry_2
_ccdc_geom_bond_type
Gd0 N31 2.661 . S
Gd0 N37 2.601 . S
Gd0 O44 2.545 . S
Gd0 O45 2.606 . S
Gd0 O47 2.429 . S
Gd0 O48 2.545 . S
Gd0 O49 2.412 . S
Gd0 O51 2.362 . S
Gd0 O52 2.324 . S
Gd0 C59 2.828 . S
Gd1 N10 2.661 . S
Gd1 N14 2.601 . S
Gd1 O45 2.362 . S
Gd1 O46 2.324 . S
Gd1 O50 2.545 . S
Gd1 O51 2.606 . S
Gd1 O53 2.429 . S
Gd1 O54 2.545 . S
Gd1 O55 2.412 . S
Gd1 C68 2.828 . S
C2 C5 1.417 1_655 S
C2 C7 1.431 . S
C2 C8 1.412 . S
C3 C6 1.437 1_655 S
C3 C7 1.317 . S
C3 H22 0.929 . S
C4 C5 1.426 . S
C4 C6 1.413 . S
C4 N14 1.359 . S
C5 C2 1.417 1_455 S
C5 C4 1.426 . S
C5 N10 1.350 . S
C6 C3 1.437 1_455 S
C6 C4 1.413 . S
C6 C16 1.391 1_554 S
C7 C2 1.431 . S
C7 C3 1.317 . S
C7 H18 0.930 . S
C8 C2 1.412 . S
C8 C9 1.355 . S
C8 H20 0.930 . S
C9 C8 1.355 . S
C9 C11 1.402 1_655 S
C9 H21 0.930 . S
N10 Gd1 2.661 . S
N10 C5 1.350 . S
N10 C11 1.307 . S
C11 C9 1.402 1_455 S
C11 N10 1.307 . S
C11 H12 0.930 . S
H12 C11 0.930 . S
C13 N14 1.334 . S
C13 C15 1.394 1_554 S
C13 H17 0.933 . S
N14 Gd1 2.601 . S
N14 C4 1.359 . S
N14 C13 1.334 . S
C15 C13 1.394 1_556 S
C15 C16 1.359 . S
C15 H27 0.930 . S
C16 C6 1.391 1_556 S
C16 C15 1.359 . S
C16 H28 0.929 . S
H17 C13 0.933 . S
H18 C7 0.930 . S
H19 C36 0.930 . S
H20 C8 0.930 . S
H21 C9 0.930 . S
H22 C3 0.929 . S
H23 C41 0.930 . S
H24 C32 0.930 . S
H25 C33 0.930 . S
H26 C57 0.929 . S
H27 C15 0.930 . S
H28 C16 0.929 . S
H29 C58 0.930 . S
H30 C39 0.930 . S
N31 Gd0 2.661 . S
N31 C35 1.350 . S
N31 C36 1.307 . S
C32 H24 0.930 . S
C32 C33 1.355 . S
C32 C34 1.412 . S
C33 H25 0.930 . S
C33 C32 1.355 . S
C33 C36 1.402 . S
C34 C32 1.412 . S
C34 C35 1.417 . S
C34 C58 1.431 . S
C35 N31 1.350 . S
C35 C34 1.417 . S
C35 C38 1.426 . S
C36 H19 0.930 . S
C36 N31 1.307 . S
C36 C33 1.402 . S
N37 Gd0 2.601 . S
N37 C38 1.359 . S
N37 C41 1.334 . S
C38 C35 1.426 . S
C38 N37 1.359 . S
C38 C42 1.413 . S
C39 H30 0.930 . S
C39 C40 1.359 . S
C39 C41 1.394 . S
C40 C39 1.359 . S
C40 C42 1.391 . S
C40 H43 0.929 . S
C41 H23 0.930 . S
C41 N37 1.334 . S
C41 C39 1.394 . S
C42 C38 1.413 . S
C42 C40 1.391 . S
C42 C57 1.437 . S
H43 C40 0.929 . S
O44 Gd0 2.545 . S
O44 C59 1.258 . S
O45 Gd0 2.606 . S
O45 Gd1 2.362 . S
O45 C56 1.284 . S
O46 Gd1 2.324 . S
O46 C66 1.254 . S
O47 Gd0 2.429 . S
O47 C66 1.268 . S
O48 Gd0 2.545 . S
O48 C56 1.250 . S
O49 Gd0 2.412 . S
O49 C59 1.252 . S
O50 Gd1 2.545 . S
O50 C68 1.258 . S
O51 Gd0 2.362 . S
O51 Gd1 2.606 . S
O51 C67 1.284 . S
O52 Gd0 2.324 . S
O52 C75 1.254 . S
O53 Gd1 2.429 . S
O53 C75 1.268 . S
O54 Gd1 2.545 . S
O54 C67 1.250 . S
O55 Gd1 2.412 . S
O55 C68 1.252 . S
C56 O45 1.284 . S
C56 O48 1.250 . S
C57 H26 0.929 . S
C57 C42 1.437 . S
C57 C58 1.317 . S
C58 H29 0.930 . S
C58 C34 1.431 . S
C58 C57 1.317 . S
C59 Gd0 2.828 . S
C59 O44 1.258 . S
C59 O49 1.252 . S
C59 C60 1.497 . S
C60 C59 1.497 . S
C60 C61 1.395 . S
C60 C62 1.380 . S
C61 C60 1.395 . S
C61 C64 1.398 . S
C61 H76 0.930 . S
C62 C60 1.380 . S
C62 C63 1.391 . S
C62 H77 0.930 . S
C63 C62 1.391 . S
C63 C65 1.387 . S
C64 C61 1.398 . S
C64 C65 1.380 . S
C64 H78 0.930 . S
C65 C63 1.387 . S
C65 C64 1.380 . S
C65 H79 0.930 . S
C66 O46 1.254 . S
C66 O47 1.268 . S
C67 O51 1.284 . S
C67 O54 1.250 . S
C68 Gd1 2.828 . S
C68 O50 1.258 . S
C68 O55 1.252 . S
C68 C69 1.497 . S
C69 C68 1.497 . S
C69 C70 1.395 . S
C69 C71 1.380 . S
C70 C69 1.395 . S
C70 C73 1.398 . S
C70 H80 0.930 . S
C71 C69 1.380 . S
C71 C72 1.391 . S
C71 H81 0.930 . S
C72 C71 1.391 . S
C72 C74 1.387 . S
C73 C70 1.398 . S
C73 C74 1.380 . S
C73 H82 0.930 . S
C74 C72 1.387 . S
C74 C73 1.380 . S
C74 H83 0.930 . S
C75 O52 1.254 . S
C75 O53 1.268 . S
H76 C61 0.930 . S
H77 C62 0.930 . S
H78 C64 0.930 . S
H79 C65 0.930 . S
H80 C70 0.930 . S
H81 C71 0.930 . S
H82 C73 0.930 . S
H83 C74 0.930 . S
Gd84 N115 2.661 . S
Gd84 N121 2.601 . S
Gd84 O128 2.545 . S
Gd84 O129 2.606 . S
Gd84 O131 2.429 . S
Gd84 O132 2.545 . S
Gd84 O133 2.412 . S
Gd84 O135 2.362 . S
Gd84 O136 2.324 . S
Gd84 C143 2.828 1_655 S
Gd85 N94 2.661 . S
Gd85 N98 2.601 . S
Gd85 O129 2.362 . S
Gd85 O130 2.324 . S
Gd85 O134 2.545 . S
Gd85 O135 2.606 . S
Gd85 O137 2.429 . S
Gd85 O138 2.545 . S
Gd85 O139 2.412 . S
Gd85 C152 2.828 . S
C86 C89 1.417 1_565 S
C86 C91 1.431 . S
C86 C92 1.412 . S
C87 C90 1.437 1_565 S
C87 C91 1.317 . S
C87 H106 0.929 . S
C88 C89 1.426 . S
C88 C90 1.413 . S
C88 N98 1.359 . S
C89 C86 1.417 1_545 S
C89 C88 1.426 . S
C89 N94 1.350 . S
C90 C87 1.437 1_545 S
C90 C88 1.413 . S
C90 C100 1.391 . S
C91 C86 1.431 . S
C91 C87 1.317 . S
C91 H102 0.930 . S
C92 C86 1.412 . S
C92 C93 1.355 . S
C92 H104 0.930 . S
C93 C92 1.355 . S
C93 C95 1.402 1_565 S
C93 H105 0.930 . S
N94 Gd85 2.661 . S
N94 C89 1.350 . S
N94 C95 1.307 . S
C95 C93 1.402 1_545 S
C95 N94 1.307 . S
C95 H96 0.930 . S
H96 C95 0.930 . S
C97 N98 1.334 . S
C97 C99 1.394 . S
C97 H101 0.930 . S
N98 Gd85 2.601 . S
N98 C88 1.359 . S
N98 C97 1.334 . S
C99 C97 1.394 . S
C99 C100 1.359 . S
C99 H111 0.930 . S
C100 C90 1.391 . S
C100 C99 1.359 . S
C100 H112 0.929 . S
H101 C97 0.930 . S
H102 C91 0.930 . S
H103 C120 0.930 . S
H104 C92 0.930 . S
H105 C93 0.930 . S
H106 C87 0.929 . S
H107 C125 0.930 . S
H108 C116 0.930 . S
H109 C117 0.930 . S
H110 C141 0.929 . S
H111 C99 0.930 . S
H112 C100 0.929 . S
H113 C142 0.930 . S
H114 C123 0.930 . S
N115 Gd84 2.661 . S
N115 C119 1.350 . S
N115 C120 1.307 . S
C116 H108 0.930 . S
C116 C117 1.355 1_455 S
C116 C118 1.412 . S
C117 H109 0.930 . S
C117 C116 1.355 1_655 S
C117 C120 1.402 . S
C118 C116 1.412 . S
C118 C119 1.417 1_455 S
C118 C142 1.431 . S
C119 N115 1.350 . S
C119 C118 1.417 1_655 S
C119 C122 1.426 . S
C120 H103 0.930 . S
C120 N115 1.307 . S
C120 C117 1.402 . S
N121 Gd84 2.601 . S
N121 C122 1.359 . S
N121 C125 1.334 . S
C122 C119 1.426 . S
C122 N121 1.359 . S
C122 C126 1.413 1_655 S
C123 H114 0.930 . S
C123 C124 1.359 . S
C123 C125 1.394 . S
C124 C123 1.359 . S
C124 C126 1.391 1_655 S
C124 H127 0.929 1_655 S
C125 H107 0.930 . S
C125 N121 1.334 . S
C125 C123 1.394 . S
C126 C122 1.413 1_455 S
C126 C124 1.391 1_455 S
C126 C141 1.437 . S
H127 C124 0.929 1_455 S
O128 Gd84 2.545 . S
O128 C143 1.258 1_655 S
O129 Gd84 2.606 . S
O129 Gd85 2.362 . S
O129 C140 1.284 . S
O130 Gd85 2.324 . S
O130 C150 1.254 . S
O131 Gd84 2.429 . S
O131 C150 1.268 . S
O132 Gd84 2.545 . S
O132 C140 1.250 . S
O133 Gd84 2.412 . S
O133 C143 1.252 1_655 S
O134 Gd85 2.545 . S
O134 C152 1.258 . S
O135 Gd84 2.362 . S
O135 Gd85 2.606 . S
O135 C151 1.284 . S
O136 Gd84 2.324 . S
O136 C159 1.254 . S
O137 Gd85 2.429 . S
O137 C159 1.268 . S
O138 Gd85 2.545 . S
O138 C151 1.250 . S
O139 Gd85 2.412 . S
O139 C152 1.252 . S
C140 O129 1.284 . S
C140 O132 1.250 . S
C141 H110 0.929 . S
C141 C126 1.437 . S
C141 C142 1.317 . S
C142 H113 0.930 . S
C142 C118 1.431 . S
C142 C141 1.317 . S
C143 Gd84 2.828 1_455 S
C143 O128 1.258 1_455 S
C143 O133 1.252 1_455 S
C143 C144 1.497 . S
C144 C143 1.497 . S
C144 C145 1.395 . S
C144 C146 1.380 . S
C145 C144 1.395 . S
C145 C148 1.398 . S
C145 H160 0.930 . S
C146 C144 1.380 . S
C146 C147 1.391 . S
C146 H161 0.930 . S
C147 C146 1.391 . S
C147 C149 1.387 . S
C148 C145 1.398 . S
C148 C149 1.380 . S
C148 H162 0.930 . S
C149 C147 1.387 . S
C149 C148 1.380 . S
C149 H163 0.930 . S
C150 O130 1.254 . S
C150 O131 1.268 . S
C151 O135 1.284 . S
C151 O138 1.250 . S
C152 Gd85 2.828 . S
C152 O134 1.258 . S
C152 O139 1.252 . S
C152 C153 1.497 . S
C153 C152 1.497 . S
C153 C154 1.395 . S
C153 C155 1.380 . S
C154 C153 1.395 . S
C154 C157 1.398 . S
C154 H164 0.930 . S
C155 C153 1.380 . S
C155 C156 1.391 . S
C155 H165 0.930 . S
C156 C155 1.391 . S
C156 C158 1.387 . S
C157 C154 1.398 . S
C157 C158 1.380 . S
C157 H166 0.930 . S
C158 C156 1.387 . S
C158 C157 1.380 . S
C158 H167 0.930 . S
C159 O136 1.254 . S
C159 O137 1.268 . S
H160 C145 0.930 . S
H161 C146 0.930 . S
H162 C148 0.930 . S
H163 C149 0.930 . S
H164 C154 0.930 . S
H165 C155 0.930 . S
H166 C157 0.930 . S
H167 C158 0.930 . S
Gd168 N199 2.661 . S
Gd168 N205 2.601 . S
Gd168 O212 2.545 . S
Gd168 O213 2.606 . S
Gd168 O215 2.429 . S
Gd168 O216 2.545 . S
Gd168 O217 2.412 . S
Gd168 O219 2.362 . S
Gd168 O220 2.324 . S
Gd168 C227 2.828 1_565 S
Gd169 N178 2.661 . S
Gd169 N182 2.601 . S
Gd169 O213 2.362 . S
Gd169 O214 2.324 . S
Gd169 O218 2.545 . S
Gd169 O219 2.606 . S
Gd169 O221 2.429 . S
Gd169 O222 2.545 . S
Gd169 O223 2.412 . S
Gd169 C236 2.828 . S
C170 C173 1.417 . S
C170 C175 1.431 . S
C170 C176 1.412 . S
C171 C174 1.437 . S
C171 C175 1.317 . S
C171 H190 0.929 . S
C172 C173 1.426 . S
C172 C174 1.413 . S
C172 N182 1.359 . S
C173 C170 1.417 . S
C173 C172 1.426 . S
C173 N178 1.350 . S
C174 C171 1.437 . S
C174 C172 1.413 . S
C174 C184 1.391 1_554 S
C175 C170 1.431 . S
C175 C171 1.317 . S
C175 H186 0.930 . S
C176 C170 1.412 . S
C176 C177 1.355 . S
C176 H188 0.930 . S
C177 C176 1.355 . S
C177 C179 1.402 . S
C177 H189 0.930 . S
N178 Gd169 2.661 . S
N178 C173 1.350 . S
N178 C179 1.307 . S
C179 C177 1.402 . S
C179 N178 1.307 . S
C179 H180 0.930 . S
H180 C179 0.930 . S
C181 N182 1.334 . S
C181 C183 1.394 1_554 S
C181 H185 0.933 . S
N182 Gd169 2.601 . S
N182 C172 1.359 . S
N182 C181 1.334 . S
C183 C181 1.394 1_556 S
C183 C184 1.359 . S
C183 H195 0.930 . S
C184 C174 1.391 1_556 S
C184 C183 1.359 . S
C184 H196 0.929 . S
H185 C181 0.933 . S
H186 C175 0.930 . S
H187 C204 0.930 . S
H188 C176 0.930 . S
H189 C177 0.930 . S
H190 C171 0.929 . S
H191 C209 0.930 . S
H192 C200 0.930 . S
H193 C201 0.930 . S
H194 C225 0.929 . S
H195 C183 0.930 . S
H196 C184 0.929 . S
H197 C226 0.930 . S
H198 C207 0.930 . S
N199 Gd168 2.661 . S
N199 C203 1.350 . S
N199 C204 1.307 . S
C200 H192 0.930 . S
C200 C201 1.355 1_545 S
C200 C202 1.412 . S
C201 H193 0.930 . S
C201 C200 1.355 1_565 S
C201 C204 1.402 . S
C202 C200 1.412 . S
C202 C203 1.417 1_545 S
C202 C226 1.431 . S
C203 N199 1.350 . S
C203 C202 1.417 1_565 S
C203 C206 1.426 . S
C204 H187 0.930 . S
C204 N199 1.307 . S
C204 C201 1.402 . S
N205 Gd168 2.601 . S
N205 C206 1.359 . S
N205 C209 1.334 . S
C206 C203 1.426 . S
C206 N205 1.359 . S
C206 C210 1.411 1_565 S
C207 H198 0.930 . S
C207 C208 1.359 . S
C207 C209 1.394 . S
C208 C207 1.359 . S
C208 C210 1.390 1_565 S
C208 H211 0.929 1_565 S
C209 H191 0.930 . S
C209 N205 1.334 . S
C209 C207 1.394 . S
C210 C206 1.411 1_545 S
C210 C208 1.390 1_545 S
C210 C225 1.440 . S
H211 C208 0.929 1_545 S
O212 Gd168 2.545 . S
O212 C227 1.258 1_565 S
O213 Gd168 2.606 . S
O213 Gd169 2.362 . S
O213 C224 1.284 . S
O214 Gd169 2.324 . S
O214 C234 1.254 . S
O215 Gd168 2.429 . S
O215 C234 1.268 . S
O216 Gd168 2.545 . S
O216 C224 1.250 . S
O217 Gd168 2.412 . S
O217 C227 1.252 1_565 S
O218 Gd169 2.545 . S
O218 C236 1.258 . S
O219 Gd168 2.362 . S
O219 Gd169 2.606 . S
O219 C235 1.284 . S
O220 Gd168 2.324 . S
O220 C243 1.254 . S
O221 Gd169 2.429 . S
O221 C243 1.268 . S
O222 Gd169 2.545 . S
O222 C235 1.250 . S
O223 Gd169 2.412 . S
O223 C236 1.252 . S
C224 O213 1.284 . S
C224 O216 1.250 . S
C225 H194 0.929 . S
C225 C210 1.440 . S
C225 C226 1.317 . S
C226 H197 0.930 . S
C226 C202 1.431 . S
C226 C225 1.317 . S
C227 Gd168 2.828 1_545 S
C227 O212 1.258 1_545 S
C227 O217 1.252 1_545 S
C227 C228 1.497 . S
C228 C227 1.497 . S
C228 C229 1.395 . S
C228 C230 1.380 . S
C229 C228 1.395 . S
C229 C232 1.398 . S
C229 H244 0.930 . S
C230 C228 1.380 . S
C230 C231 1.391 . S
C230 H245 0.930 . S
C231 C230 1.391 . S
C231 C233 1.387 . S
C232 C229 1.398 . S
C232 C233 1.380 . S
C232 H246 0.930 . S
C233 C231 1.387 . S
C233 C232 1.380 . S
C233 H247 0.930 . S
C234 O214 1.254 . S
C234 O215 1.268 . S
C235 O219 1.284 . S
C235 O222 1.250 . S
C236 Gd169 2.828 . S
C236 O218 1.258 . S
C236 O223 1.252 . S
C236 C237 1.497 . S
C237 C236 1.497 . S
C237 C238 1.395 . S
C237 C239 1.380 . S
C238 C237 1.395 . S
C238 C241 1.398 . S
C238 H248 0.930 . S
C239 C237 1.380 . S
C239 C240 1.391 . S
C239 H249 0.930 . S
C240 C239 1.391 . S
C240 C242 1.387 . S
C241 C238 1.398 . S
C241 C242 1.380 . S
C241 H250 0.930 . S
C242 C240 1.387 . S
C242 C241 1.380 . S
C242 H251 0.930 . S
C243 O220 1.254 . S
C243 O221 1.268 . S
H244 C229 0.930 . S
H245 C230 0.930 . S
H246 C232 0.930 . S
H247 C233 0.930 . S
H248 C238 0.930 . S
H249 C239 0.930 . S
H250 C241 0.930 . S
H251 C242 0.930 . S
Gd252 N283 2.661 . S
Gd252 N289 2.601 . S
Gd252 O296 2.545 . S
Gd252 O297 2.606 . S
Gd252 O299 2.429 . S
Gd252 O300 2.545 . S
Gd252 O301 2.412 . S
Gd252 O303 2.362 . S
Gd252 O304 2.324 . S
Gd252 C311 2.828 . S
Gd253 N262 2.661 . S
Gd253 N266 2.601 . S
Gd253 O297 2.362 . S
Gd253 O298 2.324 . S
Gd253 O302 2.545 . S
Gd253 O303 2.606 . S
Gd253 O305 2.429 . S
Gd253 O306 2.545 . S
Gd253 O307 2.412 . S
Gd253 C320 2.828 . S
C254 C257 1.417 1_455 S
C254 C259 1.431 . S
C254 C260 1.412 . S
C255 C258 1.437 1_455 S
C255 C259 1.317 . S
C255 H274 0.929 . S
C256 C257 1.426 . S
C256 C258 1.413 . S
C256 N266 1.359 . S
C257 C254 1.417 1_655 S
C257 C256 1.426 . S
C257 N262 1.350 . S
C258 C255 1.437 1_655 S
C258 C256 1.413 . S
C258 C268 1.391 . S
C259 C254 1.431 . S
C259 C255 1.317 . S
C259 H270 0.930 . S
C260 C254 1.412 . S
C260 C261 1.355 . S
C260 H272 0.930 . S
C261 C260 1.355 . S
C261 C263 1.402 1_455 S
C261 H273 0.930 . S
N262 Gd253 2.661 . S
N262 C257 1.350 . S
N262 C263 1.307 . S
C263 C261 1.402 1_655 S
C263 N262 1.307 . S
C263 H264 0.930 . S
H264 C263 0.930 . S
C265 N266 1.334 . S
C265 C267 1.394 . S
C265 H269 0.930 . S
N266 Gd253 2.601 . S
N266 C256 1.359 . S
N266 C265 1.334 . S
C267 C265 1.394 . S
C267 C268 1.359 . S
C267 H279 0.930 . S
C268 C258 1.391 . S
C268 C267 1.359 . S
C268 H280 0.929 . S
H269 C265 0.930 . S
H270 C259 0.930 . S
H271 C288 0.930 . S
H272 C260 0.930 . S
H273 C261 0.930 . S
H274 C255 0.929 . S
H275 C293 0.930 . S
H276 C284 0.930 . S
H277 C285 0.930 . S
H278 C309 0.929 . S
H279 C267 0.930 . S
H280 C268 0.929 . S
H281 C310 0.930 . S
H282 C291 0.930 . S
N283 Gd252 2.661 . S
N283 C287 1.350 . S
N283 C288 1.307 . S
C284 H276 0.930 . S
C284 C285 1.355 . S
C284 C286 1.412 . S
C285 H277 0.930 . S
C285 C284 1.355 . S
C285 C288 1.402 . S
C286 C284 1.412 . S
C286 C287 1.417 . S
C286 C310 1.431 . S
C287 N283 1.350 . S
C287 C286 1.417 . S
C287 C290 1.426 . S
C288 H271 0.930 . S
C288 N283 1.307 . S
C288 C285 1.402 . S
N289 Gd252 2.601 . S
N289 C290 1.359 . S
N289 C293 1.334 . S
C290 C287 1.426 . S
C290 N289 1.359 . S
C290 C294 1.413 . S
C291 H282 0.930 . S
C291 C292 1.359 . S
C291 C293 1.394 . S
C292 C291 1.359 . S
C292 C294 1.391 . S
C292 H295 0.929 . S
C293 H275 0.930 . S
C293 N289 1.334 . S
C293 C291 1.394 . S
C294 C290 1.413 . S
C294 C292 1.391 . S
C294 C309 1.437 . S
H295 C292 0.929 . S
O296 Gd252 2.545 . S
O296 C311 1.258 . S
O297 Gd252 2.606 . S
O297 Gd253 2.362 . S
O297 C308 1.284 . S
O298 Gd253 2.324 . S
O298 C318 1.254 . S
O299 Gd252 2.429 . S
O299 C318 1.268 . S
O300 Gd252 2.545 . S
O300 C308 1.250 . S
O301 Gd252 2.412 . S
O301 C311 1.252 . S
O302 Gd253 2.545 . S
O302 C320 1.258 . S
O303 Gd252 2.362 . S
O303 Gd253 2.606 . S
O303 C319 1.284 . S
O304 Gd252 2.324 . S
O304 C327 1.254 . S
O305 Gd253 2.429 . S
O305 C327 1.268 . S
O306 Gd253 2.545 . S
O306 C319 1.250 . S
O307 Gd253 2.412 . S
O307 C320 1.252 . S
C308 O297 1.284 . S
C308 O300 1.250 . S
C309 H278 0.929 . S
C309 C294 1.437 . S
C309 C310 1.317 . S
C310 H281 0.930 . S
C310 C286 1.431 . S
C310 C309 1.317 . S
C311 Gd252 2.828 . S
C311 O296 1.258 . S
C311 O301 1.252 . S
C311 C312 1.497 . S
C312 C311 1.497 . S
C312 C313 1.395 . S
C312 C314 1.380 . S
C313 C312 1.395 . S
C313 C316 1.398 . S
C313 H328 0.930 . S
C314 C312 1.380 . S
C314 C315 1.391 . S
C314 H329 0.930 . S
C315 C314 1.391 . S
C315 C317 1.387 . S
C316 C313 1.398 . S
C316 C317 1.380 . S
C316 H330 0.930 . S
C317 C315 1.387 . S
C317 C316 1.380 . S
C317 H331 0.930 . S
C318 O298 1.254 . S
C318 O299 1.268 . S
C319 O303 1.284 . S
C319 O306 1.250 . S
C320 Gd253 2.828 . S
C320 O302 1.258 . S
C320 O307 1.252 . S
C320 C321 1.497 . S
C321 C320 1.497 . S
C321 C322 1.395 . S
C321 C323 1.380 . S
C322 C321 1.395 . S
C322 C325 1.398 . S
C322 H332 0.930 . S
C323 C321 1.380 . S
C323 C324 1.391 . S
C323 H333 0.930 . S
C324 C323 1.391 . S
C324 C326 1.387 . S
C325 C322 1.398 . S
C325 C326 1.380 . S
C325 H334 0.930 . S
C326 C324 1.387 . S
C326 C325 1.380 . S
C326 H335 0.930 . S
C327 O304 1.254 . S
C327 O305 1.268 . S
H328 C313 0.930 . S
H329 C314 0.930 . S
H330 C316 0.930 . S
H331 C317 0.930 . S
H332 C322 0.930 . S
H333 C323 0.930 . S
H334 C325 0.930 . S
H335 C326 0.930 . S
Gd336 N367 2.661 . S
Gd336 N373 2.601 . S
Gd336 O380 2.545 . S
Gd336 O381 2.606 . S
Gd336 O383 2.429 . S
Gd336 O384 2.545 . S
Gd336 O385 2.412 . S
Gd336 O387 2.362 . S
Gd336 O388 2.324 . S
Gd336 C395 2.828 1_455 S
Gd337 N346 2.661 . S
Gd337 N350 2.601 . S
Gd337 O381 2.362 . S
Gd337 O382 2.324 . S
Gd337 O386 2.545 . S
Gd337 O387 2.606 . S
Gd337 O389 2.429 . S
Gd337 O390 2.545 . S
Gd337 O391 2.412 . S
Gd337 C404 2.828 . S
C338 C341 1.417 1_545 S
C338 C343 1.431 . S
C338 C344 1.412 . S
C339 C342 1.437 1_545 S
C339 C343 1.317 . S
C339 H358 0.929 . S
C340 C341 1.426 . S
C340 C342 1.413 . S
C340 N350 1.359 . S
C341 C338 1.417 1_565 S
C341 C340 1.426 . S
C341 N346 1.350 . S
C342 C339 1.437 1_565 S
C342 C340 1.413 . S
C342 C352 1.391 1_554 S
C343 C338 1.431 . S
C343 C339 1.317 . S
C343 H354 0.930 . S
C344 C338 1.412 . S
C344 C345 1.355 . S
C344 H356 0.930 . S
C345 C344 1.355 . S
C345 C347 1.402 1_545 S
C345 H357 0.930 . S
N346 Gd337 2.661 . S
N346 C341 1.350 . S
N346 C347 1.307 . S
C347 C345 1.402 1_565 S
C347 N346 1.307 . S
C347 H348 0.930 . S
H348 C347 0.930 . S
C349 N350 1.334 . S
C349 C351 1.394 1_554 S
C349 H353 0.933 . S
N350 Gd337 2.601 . S
N350 C340 1.359 . S
N350 C349 1.334 . S
C351 C349 1.394 1_556 S
C351 C352 1.359 . S
C351 H363 0.930 . S
C352 C342 1.391 1_556 S
C352 C351 1.359 . S
C352 H364 0.929 . S
H353 C349 0.933 . S
H354 C343 0.930 . S
H355 C372 0.930 . S
H356 C344 0.930 . S
H357 C345 0.930 . S
H358 C339 0.929 . S
H359 C377 0.930 . S
H360 C368 0.930 . S
H361 C369 0.930 . S
H362 C393 0.929 . S
H363 C351 0.930 . S
H364 C352 0.929 . S
H365 C394 0.930 . S
H366 C375 0.930 . S
N367 Gd336 2.661 . S
N367 C371 1.350 . S
N367 C372 1.307 . S
C368 H360 0.930 . S
C368 C369 1.355 1_655 S
C368 C370 1.412 . S
C369 H361 0.930 . S
C369 C368 1.355 1_455 S
C369 C372 1.402 . S
C370 C368 1.412 . S
C370 C371 1.417 1_655 S
C370 C394 1.431 . S
C371 N367 1.350 . S
C371 C370 1.417 1_455 S
C371 C374 1.426 . S
C372 H355 0.930 . S
C372 N367 1.307 . S
C372 C369 1.402 . S
N373 Gd336 2.601 . S
N373 C374 1.359 . S
N373 C377 1.334 . S
C374 C371 1.426 . S
C374 N373 1.359 . S
C374 C378 1.413 1_455 S
C375 H366 0.930 . S
C375 C376 1.359 . S
C375 C377 1.394 . S
C376 C375 1.359 . S
C376 C378 1.391 1_455 S
C376 H379 0.929 1_455 S
C377 H359 0.930 . S
C377 N373 1.334 . S
C377 C375 1.394 . S
C378 C374 1.413 1_655 S
C378 C376 1.391 1_655 S
C378 C393 1.437 . S
H379 C376 0.929 1_655 S
O380 Gd336 2.545 . S
O380 C395 1.258 1_455 S
O381 Gd336 2.606 . S
O381 Gd337 2.362 . S
O381 C392 1.284 . S
O382 Gd337 2.324 . S
O382 C402 1.254 . S
O383 Gd336 2.429 . S
O383 C402 1.268 . S
O384 Gd336 2.545 . S
O384 C392 1.250 . S
O385 Gd336 2.412 . S
O385 C395 1.252 1_455 S
O386 Gd337 2.545 . S
O386 C404 1.258 . S
O387 Gd336 2.362 . S
O387 Gd337 2.606 . S
O387 C403 1.284 . S
O388 Gd336 2.324 . S
O388 C411 1.254 . S
O389 Gd337 2.429 . S
O389 C411 1.268 . S
O390 Gd337 2.545 . S
O390 C403 1.250 . S
O391 Gd337 2.412 . S
O391 C404 1.252 . S
C392 O381 1.284 . S
C392 O384 1.250 . S
C393 H362 0.929 . S
C393 C378 1.437 . S
C393 C394 1.317 . S
C394 H365 0.930 . S
C394 C370 1.431 . S
C394 C393 1.317 . S
C395 Gd336 2.828 1_655 S
C395 O380 1.258 1_655 S
C395 O385 1.252 1_655 S
C395 C396 1.497 . S
C396 C395 1.497 . S
C396 C397 1.395 . S
C396 C398 1.380 . S
C397 C396 1.395 . S
C397 C400 1.398 . S
C397 H412 0.930 . S
C398 C396 1.380 . S
C398 C399 1.391 . S
C398 H413 0.930 . S
C399 C398 1.391 . S
C399 C401 1.387 . S
C400 C397 1.398 . S
C400 C401 1.380 . S
C400 H414 0.930 . S
C401 C399 1.387 . S
C401 C400 1.380 . S
C401 H415 0.930 . S
C402 O382 1.254 . S
C402 O383 1.268 . S
C403 O387 1.284 . S
C403 O390 1.250 . S
C404 Gd337 2.828 . S
C404 O386 1.258 . S
C404 O391 1.252 . S
C404 C405 1.497 . S
C405 C404 1.497 . S
C405 C406 1.395 . S
C405 C407 1.380 . S
C406 C405 1.395 . S
C406 C409 1.398 . S
C406 H416 0.930 . S
C407 C405 1.380 . S
C407 C408 1.391 . S
C407 H417 0.930 . S
C408 C407 1.391 . S
C408 C410 1.387 . S
C409 C406 1.398 . S
C409 C410 1.380 . S
C409 H418 0.930 . S
C410 C408 1.387 . S
C410 C409 1.380 . S
C410 H419 0.930 . S
C411 O388 1.254 . S
C411 O389 1.268 . S
H412 C397 0.930 . S
H413 C398 0.930 . S
H414 C400 0.930 . S
H415 C401 0.930 . S
H416 C406 0.930 . S
H417 C407 0.930 . S
H418 C409 0.930 . S
H419 C410 0.930 . S
Gd420 N451 2.661 . S
Gd420 N457 2.601 . S
Gd420 O464 2.545 . S
Gd420 O465 2.606 . S
Gd420 O467 2.429 . S
Gd420 O468 2.545 . S
Gd420 O469 2.412 . S
Gd420 O471 2.362 . S
Gd420 O472 2.324 . S
Gd420 C479 2.828 1_545 S
Gd421 N430 2.661 . S
Gd421 N434 2.601 . S
Gd421 O465 2.362 . S
Gd421 O466 2.324 . S
Gd421 O470 2.545 . S
Gd421 O471 2.606 . S
Gd421 O473 2.429 . S
Gd421 O474 2.545 . S
Gd421 O475 2.412 . S
Gd421 C488 2.828 . S
C422 C425 1.417 . S
C422 C427 1.431 . S
C422 C428 1.412 . S
C423 C426 1.437 . S
C423 C427 1.317 . S
C423 H442 0.929 . S
C424 C425 1.426 . S
C424 C426 1.413 . S
C424 N434 1.359 . S
C425 C422 1.417 . S
C425 C424 1.426 . S
C425 N430 1.350 . S
C426 C423 1.437 . S
C426 C424 1.413 . S
C426 C436 1.391 . S
C427 C422 1.431 . S
C427 C423 1.317 . S
C427 H438 0.930 . S
C428 C422 1.412 . S
C428 C429 1.355 . S
C428 H440 0.930 . S
C429 C428 1.355 . S
C429 C431 1.402 . S
C429 H441 0.930 . S
N430 Gd421 2.661 . S
N430 C425 1.350 . S
N430 C431 1.307 . S
C431 C429 1.402 . S
C431 N430 1.307 . S
C431 H432 0.930 . S
H432 C431 0.930 . S
C433 N434 1.334 . S
C433 C435 1.394 . S
C433 H437 0.930 . S
N434 Gd421 2.601 . S
N434 C424 1.359 . S
N434 C433 1.334 . S
C435 C433 1.394 . S
C435 C436 1.359 . S
C435 H447 0.930 . S
C436 C426 1.391 . S
C436 C435 1.359 . S
C436 H448 0.929 . S
H437 C433 0.930 . S
H438 C427 0.930 . S
H439 C456 0.930 . S
H440 C428 0.930 . S
H441 C429 0.930 . S
H442 C423 0.929 . S
H443 C461 0.930 . S
H444 C452 0.930 . S
H445 C453 0.930 . S
H446 C477 0.929 . S
H447 C435 0.930 . S
H448 C436 0.929 . S
H449 C478 0.930 . S
H450 C459 0.930 . S
N451 Gd420 2.661 . S
N451 C455 1.350 . S
N451 C456 1.307 . S
C452 H444 0.930 . S
C452 C453 1.355 1_565 S
C452 C454 1.412 . S
C453 H445 0.930 . S
C453 C452 1.355 1_545 S
C453 C456 1.402 . S
C454 C452 1.412 . S
C454 C455 1.417 1_565 S
C454 C478 1.431 . S
C455 N451 1.350 . S
C455 C454 1.417 1_545 S
C455 C458 1.426 . S
C456 H439 0.930 . S
C456 N451 1.307 . S
C456 C453 1.402 . S
N457 Gd420 2.601 . S
N457 C458 1.359 . S
N457 C461 1.334 . S
C458 C455 1.426 . S
C458 N457 1.359 . S
C458 C462 1.411 1_545 S
C459 H450 0.930 . S
C459 C460 1.359 . S
C459 C461 1.394 . S
C460 C459 1.359 . S
C460 C462 1.390 1_545 S
C460 H463 0.929 1_545 S
C461 H443 0.930 . S
C461 N457 1.334 . S
C461 C459 1.394 . S
C462 C458 1.411 1_565 S
C462 C460 1.390 1_565 S
C462 C477 1.440 . S
H463 C460 0.929 1_565 S
O464 Gd420 2.545 . S
O464 C479 1.258 1_545 S
O465 Gd420 2.606 . S
O465 Gd421 2.362 . S
O465 C476 1.284 . S
O466 Gd421 2.324 . S
O466 C486 1.254 . S
O467 Gd420 2.429 . S
O467 C486 1.268 . S
O468 Gd420 2.545 . S
O468 C476 1.250 . S
O469 Gd420 2.412 . S
O469 C479 1.252 1_545 S
O470 Gd421 2.545 . S
O470 C488 1.258 . S
O471 Gd420 2.362 . S
O471 Gd421 2.606 . S
O471 C487 1.284 . S
O472 Gd420 2.324 . S
O472 C495 1.254 . S
O473 Gd421 2.429 . S
O473 C495 1.268 . S
O474 Gd421 2.545 . S
O474 C487 1.250 . S
O475 Gd421 2.412 . S
O475 C488 1.252 . S
C476 O465 1.284 . S
C476 O468 1.250 . S
C477 H446 0.929 . S
C477 C462 1.440 . S
C477 C478 1.317 . S
C478 H449 0.930 . S
C478 C454 1.431 . S
C478 C477 1.317 . S
C479 Gd420 2.828 1_565 S
C479 O464 1.258 1_565 S
C479 O469 1.252 1_565 S
C479 C480 1.497 . S
C480 C479 1.497 . S
C480 C481 1.395 . S
C480 C482 1.380 . S
C481 C480 1.395 . S
C481 C484 1.398 . S
C481 H496 0.930 . S
C482 C480 1.380 . S
C482 C483 1.391 . S
C482 H497 0.930 . S
C483 C482 1.391 . S
C483 C485 1.387 . S
C484 C481 1.398 . S
C484 C485 1.380 . S
C484 H498 0.930 . S
C485 C483 1.387 . S
C485 C484 1.380 . S
C485 H499 0.930 . S
C486 O466 1.254 . S
C486 O467 1.268 . S
C487 O471 1.284 . S
C487 O474 1.250 . S
C488 Gd421 2.828 . S
C488 O470 1.258 . S
C488 O475 1.252 . S
C488 C489 1.497 . S
C489 C488 1.497 . S
C489 C490 1.395 . S
C489 C491 1.380 . S
C490 C489 1.395 . S
C490 C493 1.398 . S
C490 H500 0.930 . S
C491 C489 1.380 . S
C491 C492 1.391 . S
C491 H501 0.930 . S
C492 C491 1.391 . S
C492 C494 1.387 . S
C493 C490 1.398 . S
C493 C494 1.380 . S
C493 H502 0.930 . S
C494 C492 1.387 . S
C494 C493 1.380 . S
C494 H503 0.930 . S
C495 O472 1.254 . S
C495 O473 1.268 . S
H496 C481 0.930 . S
H497 C482 0.930 . S
H498 C484 0.930 . S
H499 C485 0.930 . S
H500 C490 0.930 . S
H501 C491 0.930 . S
H502 C493 0.930 . S
H503 C494 0.930 . S
Gd504 N535 2.661 . S
Gd504 N541 2.601 . S
Gd504 O548 2.545 . S
Gd504 O549 2.606 . S
Gd504 O551 2.429 . S
Gd504 O552 2.545 . S
Gd504 O553 2.412 . S
Gd504 O555 2.362 . S
Gd504 O556 2.324 . S
Gd504 C563 2.828 . S
Gd505 N514 2.661 . S
Gd505 N518 2.601 . S
Gd505 O549 2.362 . S
Gd505 O550 2.324 . S
Gd505 O554 2.545 . S
Gd505 O555 2.606 . S
Gd505 O557 2.429 . S
Gd505 O558 2.545 . S
Gd505 O559 2.412 . S
Gd505 C572 2.828 . S
C506 C509 1.417 1_545 S
C506 C511 1.431 . S
C506 C512 1.412 . S
C507 C510 1.437 1_545 S
C507 C511 1.317 . S
C507 H526 0.929 . S
C508 C509 1.426 . S
C508 C510 1.413 . S
C508 N518 1.359 . S
C509 C506 1.417 1_565 S
C509 C508 1.426 . S
C509 N514 1.350 . S
C510 C507 1.437 1_565 S
C510 C508 1.413 . S
C510 C520 1.391 . S
C511 C506 1.431 . S
C511 C507 1.317 . S
C511 H522 0.930 . S
C512 C506 1.412 . S
C512 C513 1.355 . S
C512 H524 0.930 . S
C513 C512 1.355 . S
C513 C515 1.402 1_545 S
C513 H525 0.930 . S
N514 Gd505 2.661 . S
N514 C509 1.350 . S
N514 C515 1.307 . S
C515 C513 1.402 1_565 S
C515 N514 1.307 . S
C515 H516 0.930 . S
H516 C515 0.930 . S
C517 N518 1.334 . S
C517 C519 1.394 . S
C517 H521 0.930 . S
N518 Gd505 2.601 . S
N518 C508 1.359 . S
N518 C517 1.334 . S
C519 C517 1.394 . S
C519 C520 1.359 . S
C519 H531 0.930 . S
C520 C510 1.391 . S
C520 C519 1.359 . S
C520 H532 0.929 . S
H521 C517 0.930 . S
H522 C511 0.930 . S
H523 C540 0.930 . S
H524 C512 0.930 . S
H525 C513 0.930 . S
H526 C507 0.929 . S
H527 C545 0.930 . S
H528 C536 0.930 . S
H529 C537 0.930 . S
H530 C561 0.929 . S
H531 C519 0.930 . S
H532 C520 0.929 . S
H533 C562 0.930 . S
H534 C543 0.930 . S
N535 Gd504 2.661 . S
N535 C539 1.350 . S
N535 C540 1.307 . S
C536 H528 0.930 . S
C536 C537 1.355 . S
C536 C538 1.412 . S
C537 H529 0.930 . S
C537 C536 1.355 . S
C537 C540 1.402 . S
C538 C536 1.412 . S
C538 C539 1.417 . S
C538 C562 1.431 . S
C539 N535 1.350 . S
C539 C538 1.417 . S
C539 C542 1.426 . S
C540 H523 0.930 . S
C540 N535 1.307 . S
C540 C537 1.402 . S
N541 Gd504 2.601 . S
N541 C542 1.359 . S
N541 C545 1.334 . S
C542 C539 1.426 . S
C542 N541 1.359 . S
C542 C546 1.413 . S
C543 H534 0.930 . S
C543 C544 1.359 . S
C543 C545 1.394 . S
C544 C543 1.359 . S
C544 C546 1.391 . S
C544 H547 0.929 . S
C545 H527 0.930 . S
C545 N541 1.334 . S
C545 C543 1.394 . S
C546 C542 1.413 . S
C546 C544 1.391 . S
C546 C561 1.437 . S
H547 C544 0.929 . S
O548 Gd504 2.545 . S
O548 C563 1.258 . S
O549 Gd504 2.606 . S
O549 Gd505 2.362 . S
O549 C560 1.284 . S
O550 Gd505 2.324 . S
O550 C570 1.254 . S
O551 Gd504 2.429 . S
O551 C570 1.268 . S
O552 Gd504 2.545 . S
O552 C560 1.250 . S
O553 Gd504 2.412 . S
O553 C563 1.252 . S
O554 Gd505 2.545 . S
O554 C572 1.258 . S
O555 Gd504 2.362 . S
O555 Gd505 2.606 . S
O555 C571 1.284 . S
O556 Gd504 2.324 . S
O556 C579 1.254 . S
O557 Gd505 2.429 . S
O557 C579 1.268 . S
O558 Gd505 2.545 . S
O558 C571 1.250 . S
O559 Gd505 2.412 . S
O559 C572 1.252 . S
C560 O549 1.284 . S
C560 O552 1.250 . S
C561 H530 0.929 . S
C561 C546 1.437 . S
C561 C562 1.317 . S
C562 H533 0.930 . S
C562 C538 1.431 . S
C562 C561 1.317 . S
C563 Gd504 2.828 . S
C563 O548 1.258 . S
C563 O553 1.252 . S
C563 C564 1.497 . S
C564 C563 1.497 . S
C564 C565 1.395 . S
C564 C566 1.380 . S
C565 C564 1.395 . S
C565 C568 1.398 . S
C565 H580 0.930 . S
C566 C564 1.380 . S
C566 C567 1.391 . S
C566 H581 0.930 . S
C567 C566 1.391 . S
C567 C569 1.387 . S
C568 C565 1.398 . S
C568 C569 1.380 . S
C568 H582 0.930 . S
C569 C567 1.387 . S
C569 C568 1.380 . S
C569 H583 0.930 . S
C570 O550 1.254 . S
C570 O551 1.268 . S
C571 O555 1.284 . S
C571 O558 1.250 . S
C572 Gd505 2.828 . S
C572 O554 1.258 . S
C572 O559 1.252 . S
C572 C573 1.497 . S
C573 C572 1.497 . S
C573 C574 1.395 . S
C573 C575 1.380 . S
C574 C573 1.395 . S
C574 C577 1.398 . S
C574 H584 0.930 . S
C575 C573 1.380 . S
C575 C576 1.391 . S
C575 H585 0.930 . S
C576 C575 1.391 . S
C576 C578 1.387 . S
C577 C574 1.398 . S
C577 C578 1.380 . S
C577 H586 0.930 . S
C578 C576 1.387 . S
C578 C577 1.380 . S
C578 H587 0.930 . S
C579 O556 1.254 . S
C579 O557 1.268 . S
H580 C565 0.930 . S
H581 C566 0.930 . S
H582 C568 0.930 . S
H583 C569 0.930 . S
H584 C574 0.930 . S
H585 C575 0.930 . S
H586 C577 0.930 . S
H587 C578 0.930 . S
Gd588 N619 2.661 . S
Gd588 N625 2.601 . S
Gd588 O632 2.545 . S
Gd588 O633 2.606 . S
Gd588 O635 2.429 . S
Gd588 O636 2.545 . S
Gd588 O637 2.412 . S
Gd588 O639 2.362 . S
Gd588 O640 2.324 . S
Gd588 C647 2.828 1_655 S
Gd589 N598 2.661 . S
Gd589 N602 2.601 . S
Gd589 O633 2.362 . S
Gd589 O634 2.324 . S
Gd589 O638 2.545 . S
Gd589 O639 2.606 . S
Gd589 O641 2.429 . S
Gd589 O642 2.545 . S
Gd589 O643 2.412 . S
Gd589 C656 2.828 . S
C590 C593 1.417 . S
C590 C595 1.431 . S
C590 C596 1.412 . S
C591 C594 1.437 . S
C591 C595 1.317 . S
C591 H610 0.929 . S
C592 C593 1.426 . S
C592 C594 1.413 . S
C592 N602 1.359 . S
C593 C590 1.417 . S
C593 C592 1.426 . S
C593 N598 1.350 . S
C594 C591 1.437 . S
C594 C592 1.413 . S
C594 C604 1.391 1_556 S
C595 C590 1.431 . S
C595 C591 1.317 . S
C595 H606 0.930 . S
C596 C590 1.412 . S
C596 C597 1.355 . S
C596 H608 0.930 . S
C597 C596 1.355 . S
C597 C599 1.402 . S
C597 H609 0.930 . S
N598 Gd589 2.661 . S
N598 C593 1.350 . S
N598 C599 1.307 . S
C599 C597 1.402 . S
C599 N598 1.307 . S
C599 H600 0.930 . S
H600 C599 0.930 . S
C601 N602 1.334 . S
C601 C603 1.394 1_556 S
C601 H605 0.933 . S
N602 Gd589 2.601 . S
N602 C592 1.359 . S
N602 C601 1.334 . S
C603 C601 1.394 1_554 S
C603 C604 1.359 . S
C603 H615 0.930 . S
C604 C594 1.391 1_554 S
C604 C603 1.359 . S
C604 H616 0.929 . S
H605 C601 0.933 . S
H606 C595 0.930 . S
H607 C624 0.930 . S
H608 C596 0.930 . S
H609 C597 0.930 . S
H610 C591 0.929 . S
H611 C629 0.930 . S
H612 C620 0.930 . S
H613 C621 0.930 . S
H614 C645 0.929 . S
H615 C603 0.930 . S
H616 C604 0.929 . S
H617 C646 0.930 . S
H618 C627 0.930 . S
N619 Gd588 2.661 . S
N619 C623 1.350 . S
N619 C624 1.307 . S
C620 H612 0.930 . S
C620 C621 1.355 1_455 S
C620 C622 1.412 . S
C621 H613 0.930 . S
C621 C620 1.355 1_655 S
C621 C624 1.402 . S
C622 C620 1.412 . S
C622 C623 1.417 1_455 S
C622 C646 1.431 . S
C623 N619 1.350 . S
C623 C622 1.417 1_655 S
C623 C626 1.426 . S
C624 H607 0.930 . S
C624 N619 1.307 . S
C624 C621 1.402 . S
N625 Gd588 2.601 . S
N625 C626 1.359 . S
N625 C629 1.334 . S
C626 C623 1.426 . S
C626 N625 1.359 . S
C626 C630 1.411 1_655 S
C627 H618 0.930 . S
C627 C628 1.359 . S
C627 C629 1.394 . S
C628 C627 1.359 . S
C628 C630 1.390 1_655 S
C628 H631 0.929 1_655 S
C629 H611 0.930 . S
C629 N625 1.334 . S
C629 C627 1.394 . S
C630 C626 1.411 1_455 S
C630 C628 1.390 1_455 S
C630 C645 1.440 . S
H631 C628 0.929 1_455 S
O632 Gd588 2.545 . S
O632 C647 1.258 1_655 S
O633 Gd588 2.606 . S
O633 Gd589 2.362 . S
O633 C644 1.284 . S
O634 Gd589 2.324 . S
O634 C654 1.254 . S
O635 Gd588 2.429 . S
O635 C654 1.268 . S
O636 Gd588 2.545 . S
O636 C644 1.250 . S
O637 Gd588 2.412 . S
O637 C647 1.252 1_655 S
O638 Gd589 2.545 . S
O638 C656 1.258 . S
O639 Gd588 2.362 . S
O639 Gd589 2.606 . S
O639 C655 1.284 . S
O640 Gd588 2.324 . S
O640 C663 1.254 . S
O641 Gd589 2.429 . S
O641 C663 1.268 . S
O642 Gd589 2.545 . S
O642 C655 1.250 . S
O643 Gd589 2.412 . S
O643 C656 1.252 . S
C644 O633 1.284 . S
C644 O636 1.250 . S
C645 H614 0.929 . S
C645 C630 1.440 . S
C645 C646 1.317 . S
C646 H617 0.930 . S
C646 C622 1.431 . S
C646 C645 1.317 . S
C647 Gd588 2.828 1_455 S
C647 O632 1.258 1_455 S
C647 O637 1.252 1_455 S
C647 C648 1.497 . S
C648 C647 1.497 . S
C648 C649 1.395 . S
C648 C650 1.380 . S
C649 C648 1.395 . S
C649 C652 1.398 . S
C649 H664 0.930 . S
C650 C648 1.380 . S
C650 C651 1.391 . S
C650 H665 0.930 . S
C651 C650 1.391 . S
C651 C653 1.387 . S
C652 C649 1.398 . S
C652 C653 1.380 . S
C652 H666 0.930 . S
C653 C651 1.387 . S
C653 C652 1.380 . S
C653 H667 0.930 . S
C654 O634 1.254 . S
C654 O635 1.268 . S
C655 O639 1.284 . S
C655 O642 1.250 . S
C656 Gd589 2.828 . S
C656 O638 1.258 . S
C656 O643 1.252 . S
C656 C657 1.497 . S
C657 C656 1.497 . S
C657 C658 1.395 . S
C657 C659 1.380 . S
C658 C657 1.395 . S
C658 C661 1.398 . S
C658 H668 0.930 . S
C659 C657 1.380 . S
C659 C660 1.391 . S
C659 H669 0.930 . S
C660 C659 1.391 . S
C660 C662 1.387 . S
C661 C658 1.398 . S
C661 C662 1.380 . S
C661 H670 0.930 . S
C662 C660 1.387 . S
C662 C661 1.380 . S
C662 H671 0.930 . S
C663 O640 1.254 . S
C663 O641 1.268 . S
H664 C649 0.930 . S
H665 C650 0.930 . S
H666 C652 0.930 . S
H667 C653 0.930 . S
H668 C658 0.930 . S
H669 C659 0.930 . S
H670 C661 0.930 . S
H671 C662 0.930 . S
Gd672 N703 2.661 . S
Gd672 N709 2.601 . S
Gd672 O716 2.545 . S
Gd672 O717 2.606 . S
Gd672 O719 2.429 . S
Gd672 O720 2.545 . S
Gd672 O721 2.412 . S
Gd672 O723 2.362 . S
Gd672 O724 2.324 . S
Gd672 C731 2.828 1_565 S
Gd673 N682 2.661 . S
Gd673 N686 2.601 . S
Gd673 O717 2.362 . S
Gd673 O718 2.324 . S
Gd673 O722 2.545 . S
Gd673 O723 2.606 . S
Gd673 O725 2.429 . S
Gd673 O726 2.545 . S
Gd673 O727 2.412 . S
Gd673 C740 2.828 . S
C674 C677 1.417 1_655 S
C674 C679 1.431 . S
C674 C680 1.412 . S
C675 C678 1.437 1_655 S
C675 C679 1.317 . S
C675 H694 0.929 . S
C676 C677 1.426 . S
C676 C678 1.413 . S
C676 N686 1.359 . S
C677 C674 1.417 1_455 S
C677 C676 1.426 . S
C677 N682 1.350 . S
C678 C675 1.437 1_455 S
C678 C676 1.413 . S
C678 C688 1.391 . S
C679 C674 1.431 . S
C679 C675 1.317 . S
C679 H690 0.930 . S
C680 C674 1.412 . S
C680 C681 1.355 . S
C680 H692 0.930 . S
C681 C680 1.355 . S
C681 C683 1.402 1_655 S
C681 H693 0.930 . S
N682 Gd673 2.661 . S
N682 C677 1.350 . S
N682 C683 1.307 . S
C683 C681 1.402 1_455 S
C683 N682 1.307 . S
C683 H684 0.930 . S
H684 C683 0.930 . S
C685 N686 1.334 . S
C685 C687 1.394 . S
C685 H689 0.930 . S
N686 Gd673 2.601 . S
N686 C676 1.359 . S
N686 C685 1.334 . S
C687 C685 1.394 . S
C687 C688 1.359 . S
C687 H699 0.930 . S
C688 C678 1.391 . S
C688 C687 1.359 . S
C688 H700 0.929 . S
H689 C685 0.930 . S
H690 C679 0.930 . S
H691 C708 0.930 . S
H692 C680 0.930 . S
H693 C681 0.930 . S
H694 C675 0.929 . S
H695 C713 0.930 . S
H696 C704 0.930 . S
H697 C705 0.930 . S
H698 C729 0.929 . S
H699 C687 0.930 . S
H700 C688 0.929 . S
H701 C730 0.930 . S
H702 C711 0.930 . S
N703 Gd672 2.661 . S
N703 C707 1.350 . S
N703 C708 1.307 . S
C704 H696 0.930 . S
C704 C705 1.355 1_545 S
C704 C706 1.412 . S
C705 H697 0.930 . S
C705 C704 1.355 1_565 S
C705 C708 1.402 . S
C706 C704 1.412 . S
C706 C707 1.417 1_545 S
C706 C730 1.431 . S
C707 N703 1.350 . S
C707 C706 1.417 1_565 S
C707 C710 1.426 . S
C708 H691 0.930 . S
C708 N703 1.307 . S
C708 C705 1.402 . S
N709 Gd672 2.601 . S
N709 C710 1.359 . S
N709 C713 1.334 . S
C710 C707 1.426 . S
C710 N709 1.359 . S
C710 C714 1.413 1_565 S
C711 H702 0.930 . S
C711 C712 1.359 . S
C711 C713 1.394 . S
C712 C711 1.359 . S
C712 C714 1.391 1_565 S
C712 H715 0.929 1_565 S
C713 H695 0.930 . S
C713 N709 1.334 . S
C713 C711 1.394 . S
C714 C710 1.413 1_545 S
C714 C712 1.391 1_545 S
C714 C729 1.437 . S
H715 C712 0.929 1_545 S
O716 Gd672 2.545 . S
O716 C731 1.258 1_565 S
O717 Gd672 2.606 . S
O717 Gd673 2.362 . S
O717 C728 1.284 . S
O718 Gd673 2.324 . S
O718 C738 1.254 . S
O719 Gd672 2.429 . S
O719 C738 1.268 . S
O720 Gd672 2.545 . S
O720 C728 1.250 . S
O721 Gd672 2.412 . S
O721 C731 1.252 1_565 S
O722 Gd673 2.545 . S
O722 C740 1.258 . S
O723 Gd672 2.362 . S
O723 Gd673 2.606 . S
O723 C739 1.284 . S
O724 Gd672 2.324 . S
O724 C747 1.254 . S
O725 Gd673 2.429 . S
O725 C747 1.268 . S
O726 Gd673 2.545 . S
O726 C739 1.250 . S
O727 Gd673 2.412 . S
O727 C740 1.252 . S
C728 O717 1.284 . S
C728 O720 1.250 . S
C729 H698 0.929 . S
C729 C714 1.437 . S
C729 C730 1.317 . S
C730 H701 0.930 . S
C730 C706 1.431 . S
C730 C729 1.317 . S
C731 Gd672 2.828 1_545 S
C731 O716 1.258 1_545 S
C731 O721 1.252 1_545 S
C731 C732 1.497 . S
C732 C731 1.497 . S
C732 C733 1.395 . S
C732 C734 1.380 . S
C733 C732 1.395 . S
C733 C736 1.398 . S
C733 H748 0.930 . S
C734 C732 1.380 . S
C734 C735 1.391 . S
C734 H749 0.930 . S
C735 C734 1.391 . S
C735 C737 1.387 . S
C736 C733 1.398 . S
C736 C737 1.380 . S
C736 H750 0.930 . S
C737 C735 1.387 . S
C737 C736 1.380 . S
C737 H751 0.930 . S
C738 O718 1.254 . S
C738 O719 1.268 . S
C739 O723 1.284 . S
C739 O726 1.250 . S
C740 Gd673 2.828 . S
C740 O722 1.258 . S
C740 O727 1.252 . S
C740 C741 1.497 . S
C741 C740 1.497 . S
C741 C742 1.395 . S
C741 C743 1.380 . S
C742 C741 1.395 . S
C742 C745 1.398 . S
C742 H752 0.930 . S
C743 C741 1.380 . S
C743 C744 1.391 . S
C743 H753 0.930 . S
C744 C743 1.391 . S
C744 C746 1.387 . S
C745 C742 1.398 . S
C745 C746 1.380 . S
C745 H754 0.930 . S
C746 C744 1.387 . S
C746 C745 1.380 . S
C746 H755 0.930 . S
C747 O724 1.254 . S
C747 O725 1.268 . S
H748 C733 0.930 . S
H749 C734 0.930 . S
H750 C736 0.930 . S
H751 C737 0.930 . S
H752 C742 0.930 . S
H753 C743 0.930 . S
H754 C745 0.930 . S
H755 C746 0.930 . S
Gd756 N787 2.661 . S
Gd756 N793 2.601 . S
Gd756 O800 2.545 . S
Gd756 O801 2.606 . S
Gd756 O803 2.429 . S
Gd756 O804 2.545 . S
Gd756 O805 2.412 . S
Gd756 O807 2.362 . S
Gd756 O808 2.324 . S
Gd756 C815 2.828 . S
Gd757 N766 2.661 . S
Gd757 N770 2.601 . S
Gd757 O801 2.362 . S
Gd757 O802 2.324 . S
Gd757 O806 2.545 . S
Gd757 O807 2.606 . S
Gd757 O809 2.429 . S
Gd757 O810 2.545 . S
Gd757 O811 2.412 . S
Gd757 C824 2.828 . S
C758 C761 1.417 1_565 S
C758 C763 1.431 . S
C758 C764 1.412 . S
C759 C762 1.437 1_565 S
C759 C763 1.317 . S
C759 H778 0.929 . S
C760 C761 1.426 . S
C760 C762 1.413 . S
C760 N770 1.359 . S
C761 C758 1.417 1_545 S
C761 C760 1.426 . S
C761 N766 1.350 . S
C762 C759 1.437 1_545 S
C762 C760 1.413 . S
C762 C772 1.391 1_556 S
C763 C758 1.431 . S
C763 C759 1.317 . S
C763 H774 0.930 . S
C764 C758 1.412 . S
C764 C765 1.355 . S
C764 H776 0.930 . S
C765 C764 1.355 . S
C765 C767 1.402 1_565 S
C765 H777 0.930 . S
N766 Gd757 2.661 . S
N766 C761 1.350 . S
N766 C767 1.307 . S
C767 C765 1.402 1_545 S
C767 N766 1.307 . S
C767 H768 0.930 . S
H768 C767 0.930 . S
C769 N770 1.334 . S
C769 C771 1.394 1_556 S
C769 H773 0.933 . S
N770 Gd757 2.601 . S
N770 C760 1.359 . S
N770 C769 1.334 . S
C771 C769 1.394 1_554 S
C771 C772 1.359 . S
C771 H783 0.930 . S
C772 C762 1.391 1_554 S
C772 C771 1.359 . S
C772 H784 0.929 . S
H773 C769 0.933 . S
H774 C763 0.930 . S
H775 C792 0.930 . S
H776 C764 0.930 . S
H777 C765 0.930 . S
H778 C759 0.929 . S
H779 C797 0.930 . S
H780 C788 0.930 . S
H781 C789 0.930 . S
H782 C813 0.929 . S
H783 C771 0.930 . S
H784 C772 0.929 . S
H785 C814 0.930 . S
H786 C795 0.930 . S
N787 Gd756 2.661 . S
N787 C791 1.350 . S
N787 C792 1.307 . S
C788 H780 0.930 . S
C788 C789 1.355 . S
C788 C790 1.412 . S
C789 H781 0.930 . S
C789 C788 1.355 . S
C789 C792 1.402 . S
C790 C788 1.412 . S
C790 C791 1.417 . S
C790 C814 1.431 . S
C791 N787 1.350 . S
C791 C790 1.417 . S
C791 C794 1.426 . S
C792 H775 0.930 . S
C792 N787 1.307 . S
C792 C789 1.402 . S
N793 Gd756 2.601 . S
N793 C794 1.359 . S
N793 C797 1.334 . S
C794 C791 1.426 . S
C794 N793 1.359 . S
C794 C798 1.413 . S
C795 H786 0.930 . S
C795 C796 1.359 . S
C795 C797 1.394 . S
C796 C795 1.359 . S
C796 C798 1.391 . S
C796 H799 0.929 . S
C797 H779 0.930 . S
C797 N793 1.334 . S
C797 C795 1.394 . S
C798 C794 1.413 . S
C798 C796 1.391 . S
C798 C813 1.437 . S
H799 C796 0.929 . S
O800 Gd756 2.545 . S
O800 C815 1.258 . S
O801 Gd756 2.606 . S
O801 Gd757 2.362 . S
O801 C812 1.284 . S
O802 Gd757 2.324 . S
O802 C822 1.254 . S
O803 Gd756 2.429 . S
O803 C822 1.268 . S
O804 Gd756 2.545 . S
O804 C812 1.250 . S
O805 Gd756 2.412 . S
O805 C815 1.252 . S
O806 Gd757 2.545 . S
O806 C824 1.258 . S
O807 Gd756 2.362 . S
O807 Gd757 2.606 . S
O807 C823 1.284 . S
O808 Gd756 2.324 . S
O808 C831 1.254 . S
O809 Gd757 2.429 . S
O809 C831 1.268 . S
O810 Gd757 2.545 . S
O810 C823 1.250 . S
O811 Gd757 2.412 . S
O811 C824 1.252 . S
C812 O801 1.284 . S
C812 O804 1.250 . S
C813 H782 0.929 . S
C813 C798 1.437 . S
C813 C814 1.317 . S
C814 H785 0.930 . S
C814 C790 1.431 . S
C814 C813 1.317 . S
C815 Gd756 2.828 . S
C815 O800 1.258 . S
C815 O805 1.252 . S
C815 C816 1.497 . S
C816 C815 1.497 . S
C816 C817 1.395 . S
C816 C818 1.380 . S
C817 C816 1.395 . S
C817 C820 1.398 . S
C817 H832 0.930 . S
C818 C816 1.380 . S
C818 C819 1.391 . S
C818 H833 0.930 . S
C819 C818 1.391 . S
C819 C821 1.387 . S
C820 C817 1.398 . S
C820 C821 1.380 . S
C820 H834 0.930 . S
C821 C819 1.387 . S
C821 C820 1.380 . S
C821 H835 0.930 . S
C822 O802 1.254 . S
C822 O803 1.268 . S
C823 O807 1.284 . S
C823 O810 1.250 . S
C824 Gd757 2.828 . S
C824 O806 1.258 . S
C824 O811 1.252 . S
C824 C825 1.497 . S
C825 C824 1.497 . S
C825 C826 1.395 . S
C825 C827 1.380 . S
C826 C825 1.395 . S
C826 C829 1.398 . S
C826 H836 0.930 . S
C827 C825 1.380 . S
C827 C828 1.391 . S
C827 H837 0.930 . S
C828 C827 1.391 . S
C828 C830 1.387 . S
C829 C826 1.398 . S
C829 C830 1.380 . S
C829 H838 0.930 . S
C830 C828 1.387 . S
C830 C829 1.380 . S
C830 H839 0.930 . S
C831 O808 1.254 . S
C831 O809 1.268 . S
H832 C817 0.930 . S
H833 C818 0.930 . S
H834 C820 0.930 . S
H835 C821 0.930 . S
H836 C826 0.930 . S
H837 C827 0.930 . S
H838 C829 0.930 . S
H839 C830 0.930 . S
Gd840 N871 2.661 . S
Gd840 N877 2.601 . S
Gd840 O884 2.545 . S
Gd840 O885 2.606 . S
Gd840 O887 2.429 . S
Gd840 O888 2.545 . S
Gd840 O889 2.412 . S
Gd840 O891 2.362 . S
Gd840 O892 2.324 . S
Gd840 C899 2.828 1_455 S
Gd841 N850 2.661 . S
Gd841 N854 2.601 . S
Gd841 O885 2.362 . S
Gd841 O886 2.324 . S
Gd841 O890 2.545 . S
Gd841 O891 2.606 . S
Gd841 O893 2.429 . S
Gd841 O894 2.545 . S
Gd841 O895 2.412 . S
Gd841 C908 2.828 . S
C842 C845 1.417 . S
C842 C847 1.431 . S
C842 C848 1.412 . S
C843 C846 1.437 . S
C843 C847 1.317 . S
C843 H862 0.929 . S
C844 C845 1.426 . S
C844 C846 1.413 . S
C844 N854 1.359 . S
C845 C842 1.417 . S
C845 C844 1.426 . S
C845 N850 1.350 . S
C846 C843 1.437 . S
C846 C844 1.413 . S
C846 C856 1.391 . S
C847 C842 1.431 . S
C847 C843 1.317 . S
C847 H858 0.930 . S
C848 C842 1.412 . S
C848 C849 1.355 . S
C848 H860 0.930 . S
C849 C848 1.355 . S
C849 C851 1.402 . S
C849 H861 0.930 . S
N850 Gd841 2.661 . S
N850 C845 1.350 . S
N850 C851 1.307 . S
C851 C849 1.402 . S
C851 N850 1.307 . S
C851 H852 0.930 . S
H852 C851 0.930 . S
C853 N854 1.334 . S
C853 C855 1.394 . S
C853 H857 0.930 . S
N854 Gd841 2.601 . S
N854 C844 1.359 . S
N854 C853 1.334 . S
C855 C853 1.394 . S
C855 C856 1.359 . S
C855 H867 0.930 . S
C856 C846 1.391 . S
C856 C855 1.359 . S
C856 H868 0.929 . S
H857 C853 0.930 . S
H858 C847 0.930 . S
H859 C876 0.930 . S
H860 C848 0.930 . S
H861 C849 0.930 . S
H862 C843 0.929 . S
H863 C881 0.930 . S
H864 C872 0.930 . S
H865 C873 0.930 . S
H866 C897 0.929 . S
H867 C855 0.930 . S
H868 C856 0.929 . S
H869 C898 0.930 . S
H870 C879 0.930 . S
N871 Gd840 2.661 . S
N871 C875 1.350 . S
N871 C876 1.307 . S
C872 H864 0.930 . S
C872 C873 1.355 1_655 S
C872 C874 1.412 . S
C873 H865 0.930 . S
C873 C872 1.355 1_455 S
C873 C876 1.402 . S
C874 C872 1.412 . S
C874 C875 1.417 1_655 S
C874 C898 1.431 . S
C875 N871 1.350 . S
C875 C874 1.417 1_455 S
C875 C878 1.426 . S
C876 H859 0.930 . S
C876 N871 1.307 . S
C876 C873 1.402 . S
N877 Gd840 2.601 . S
N877 C878 1.359 . S
N877 C881 1.334 . S
C878 C875 1.426 . S
C878 N877 1.359 . S
C878 C882 1.411 1_455 S
C879 H870 0.930 . S
C879 C880 1.359 . S
C879 C881 1.394 . S
C880 C879 1.359 . S
C880 C882 1.390 1_455 S
C880 H883 0.929 1_455 S
C881 H863 0.930 . S
C881 N877 1.334 . S
C881 C879 1.394 . S
C882 C878 1.411 1_655 S
C882 C880 1.390 1_655 S
C882 C897 1.440 . S
H883 C880 0.929 1_655 S
O884 Gd840 2.545 . S
O884 C899 1.258 1_455 S
O885 Gd840 2.606 . S
O885 Gd841 2.362 . S
O885 C896 1.284 . S
O886 Gd841 2.324 . S
O886 C906 1.254 . S
O887 Gd840 2.429 . S
O887 C906 1.268 . S
O888 Gd840 2.545 . S
O888 C896 1.250 . S
O889 Gd840 2.412 . S
O889 C899 1.252 1_455 S
O890 Gd841 2.545 . S
O890 C908 1.258 . S
O891 Gd840 2.362 . S
O891 Gd841 2.606 . S
O891 C907 1.284 . S
O892 Gd840 2.324 . S
O892 C915 1.254 . S
O893 Gd841 2.429 . S
O893 C915 1.268 . S
O894 Gd841 2.545 . S
O894 C907 1.250 . S
O895 Gd841 2.412 . S
O895 C908 1.252 . S
C896 O885 1.284 . S
C896 O888 1.250 . S
C897 H866 0.929 . S
C897 C882 1.440 . S
C897 C898 1.317 . S
C898 H869 0.930 . S
C898 C874 1.431 . S
C898 C897 1.317 . S
C899 Gd840 2.828 1_655 S
C899 O884 1.258 1_655 S
C899 O889 1.252 1_655 S
C899 C900 1.497 . S
C900 C899 1.497 . S
C900 C901 1.395 . S
C900 C902 1.380 . S
C901 C900 1.395 . S
C901 C904 1.398 . S
C901 H916 0.930 . S
C902 C900 1.380 . S
C902 C903 1.391 . S
C902 H917 0.930 . S
C903 C902 1.391 . S
C903 C905 1.387 . S
C904 C901 1.398 . S
C904 C905 1.380 . S
C904 H918 0.930 . S
C905 C903 1.387 . S
C905 C904 1.380 . S
C905 H919 0.930 . S
C906 O886 1.254 . S
C906 O887 1.268 . S
C907 O891 1.284 . S
C907 O894 1.250 . S
C908 Gd841 2.828 . S
C908 O890 1.258 . S
C908 O895 1.252 . S
C908 C909 1.497 . S
C909 C908 1.497 . S
C909 C910 1.395 . S
C909 C911 1.380 . S
C910 C909 1.395 . S
C910 C913 1.398 . S
C910 H920 0.930 . S
C911 C909 1.380 . S
C911 C912 1.391 . S
C911 H921 0.930 . S
C912 C911 1.391 . S
C912 C914 1.387 . S
C913 C910 1.398 . S
C913 C914 1.380 . S
C913 H922 0.930 . S
C914 C912 1.387 . S
C914 C913 1.380 . S
C914 H923 0.930 . S
C915 O892 1.254 . S
C915 O893 1.268 . S
H916 C901 0.930 . S
H917 C902 0.930 . S
H918 C904 0.930 . S
H919 C905 0.930 . S
H920 C910 0.930 . S
H921 C911 0.930 . S
H922 C913 0.930 . S
H923 C914 0.930 . S
Gd924 N955 2.661 . S
Gd924 N961 2.601 . S
Gd924 O968 2.545 . S
Gd924 O969 2.606 . S
Gd924 O971 2.429 . S
Gd924 O972 2.545 . S
Gd924 O973 2.412 . S
Gd924 O975 2.362 . S
Gd924 O976 2.324 . S
Gd924 C983 2.828 1_545 S
Gd925 N934 2.661 . S
Gd925 N938 2.601 . S
Gd925 O969 2.362 . S
Gd925 O970 2.324 . S
Gd925 O974 2.545 . S
Gd925 O975 2.606 . S
Gd925 O977 2.429 . S
Gd925 O978 2.545 . S
Gd925 O979 2.412 . S
Gd925 C992 2.828 . S
C926 C929 1.417 1_455 S
C926 C931 1.431 . S
C926 C932 1.412 . S
C927 C930 1.437 1_455 S
C927 C931 1.317 . S
C927 H946 0.929 . S
C928 C929 1.426 . S
C928 C930 1.413 . S
C928 N938 1.359 . S
C929 C926 1.417 1_655 S
C929 C928 1.426 . S
C929 N934 1.350 . S
C930 C927 1.437 1_655 S
C930 C928 1.413 . S
C930 C940 1.391 1_556 S
C931 C926 1.431 . S
C931 C927 1.317 . S
C931 H942 0.930 . S
C932 C926 1.412 . S
C932 C933 1.355 . S
C932 H944 0.930 . S
C933 C932 1.355 . S
C933 C935 1.402 1_455 S
C933 H945 0.930 . S
N934 Gd925 2.661 . S
N934 C929 1.350 . S
N934 C935 1.307 . S
C935 C933 1.402 1_655 S
C935 N934 1.307 . S
C935 H936 0.930 . S
H936 C935 0.930 . S
C937 N938 1.334 . S
C937 C939 1.394 1_556 S
C937 H941 0.933 . S
N938 Gd925 2.601 . S
N938 C928 1.359 . S
N938 C937 1.334 . S
C939 C937 1.394 1_554 S
C939 C940 1.359 . S
C939 H951 0.930 . S
C940 C930 1.391 1_554 S
C940 C939 1.359 . S
C940 H952 0.929 . S
H941 C937 0.933 . S
H942 C931 0.930 . S
H943 C960 0.930 . S
H944 C932 0.930 . S
H945 C933 0.930 . S
H946 C927 0.929 . S
H947 C965 0.930 . S
H948 C956 0.930 . S
H949 C957 0.930 . S
H950 C981 0.929 . S
H951 C939 0.930 . S
H952 C940 0.929 . S
H953 C982 0.930 . S
H954 C963 0.930 . S
N955 Gd924 2.661 . S
N955 C959 1.350 . S
N955 C960 1.307 . S
C956 H948 0.930 . S
C956 C957 1.355 1_565 S
C956 C958 1.412 . S
C957 H949 0.930 . S
C957 C956 1.355 1_545 S
C957 C960 1.402 . S
C958 C956 1.412 . S
C958 C959 1.417 1_565 S
C958 C982 1.431 . S
C959 N955 1.350 . S
C959 C958 1.417 1_545 S
C959 C962 1.426 . S
C960 H943 0.930 . S
C960 N955 1.307 . S
C960 C957 1.402 . S
N961 Gd924 2.601 . S
N961 C962 1.359 . S
N961 C965 1.334 . S
C962 C959 1.426 . S
C962 N961 1.359 . S
C962 C966 1.413 1_545 S
C963 H954 0.930 . S
C963 C964 1.359 . S
C963 C965 1.394 . S
C964 C963 1.359 . S
C964 C966 1.391 1_545 S
C964 H967 0.929 1_545 S
C965 H947 0.930 . S
C965 N961 1.334 . S
C965 C963 1.394 . S
C966 C962 1.413 1_565 S
C966 C964 1.391 1_565 S
C966 C981 1.437 . S
H967 C964 0.929 1_565 S
O968 Gd924 2.545 . S
O968 C983 1.258 1_545 S
O969 Gd924 2.606 . S
O969 Gd925 2.362 . S
O969 C980 1.284 . S
O970 Gd925 2.324 . S
O970 C990 1.254 . S
O971 Gd924 2.429 . S
O971 C990 1.268 . S
O972 Gd924 2.545 . S
O972 C980 1.250 . S
O973 Gd924 2.412 . S
O973 C983 1.252 1_545 S
O974 Gd925 2.545 . S
O974 C992 1.258 . S
O975 Gd924 2.362 . S
O975 Gd925 2.606 . S
O975 C991 1.284 . S
O976 Gd924 2.324 . S
O976 C999 1.254 . S
O977 Gd925 2.429 . S
O977 C999 1.268 . S
O978 Gd925 2.545 . S
O978 C991 1.250 . S
O979 Gd925 2.412 . S
O979 C992 1.252 . S
C980 O969 1.284 . S
C980 O972 1.250 . S
C981 H950 0.929 . S
C981 C966 1.437 . S
C981 C982 1.317 . S
C982 H953 0.930 . S
C982 C958 1.431 . S
C982 C981 1.317 . S
C983 Gd924 2.828 1_565 S
C983 O968 1.258 1_565 S
C983 O973 1.252 1_565 S
C983 C984 1.497 . S
C984 C983 1.497 . S
C984 C985 1.395 . S
C984 C986 1.380 . S
C985 C984 1.395 . S
C985 C988 1.398 . S
C985 H1000 0.930 . S
C986 C984 1.380 . S
C986 C987 1.391 . S
C986 H1001 0.930 . S
C987 C986 1.391 . S
C987 C989 1.387 . S
C988 C985 1.398 . S
C988 C989 1.380 . S
C988 H1002 0.930 . S
C989 C987 1.387 . S
C989 C988 1.380 . S
C989 H1003 0.930 . S
C990 O970 1.254 . S
C990 O971 1.268 . S
C991 O975 1.284 . S
C991 O978 1.250 . S
C992 Gd925 2.828 . S
C992 O974 1.258 . S
C992 O979 1.252 . S
C992 C993 1.497 . S
C993 C992 1.497 . S
C993 C994 1.395 . S
C993 C995 1.380 . S
C994 C993 1.395 . S
C994 C997 1.398 . S
C994 H1004 0.930 . S
C995 C993 1.380 . S
C995 C996 1.391 . S
C995 H1005 0.930 . S
C996 C995 1.391 . S
C996 C998 1.387 . S
C997 C994 1.398 . S
C997 C998 1.380 . S
C997 H1006 0.930 . S
C998 C996 1.387 . S
C998 C997 1.380 . S
C998 H1007 0.930 . S
C999 O976 1.254 . S
C999 O977 1.268 . S
H1000 C985 0.930 . S
H1001 C986 0.930 . S
H1002 C988 0.930 . S
H1003 C989 0.930 . S
H1004 C994 0.930 . S
H1005 C995 0.930 . S
H1006 C997 0.930 . S
H1007 C998 0.930 . S
C1008 C1009 1.369 . S
C1008 C1010 1.419 1_565 S
C1008 H1012 0.930 . S
C1009 C1008 1.369 . S
C1009 C1018 1.429 . S
C1010 C1008 1.419 1_545 S
C1010 C1011 1.363 . S
C1010 H1013 0.929 . S
C1011 C1010 1.363 . S
C1011 C1017 1.428 . S
H1012 C1008 0.930 . S
H1013 C1010 0.929 . S
S1014 N1015 1.613 . S
S1014 N1016 1.610 1_565 S
N1015 S1014 1.613 . S
N1015 C1018 1.350 . S
N1016 S1014 1.610 1_545 S
N1016 C1017 1.351 . S
C1017 C1011 1.428 . S
C1017 N1016 1.351 . S
C1017 C1018 1.434 1_545 S
C1018 C1009 1.429 . S
C1018 N1015 1.350 . S
C1018 C1017 1.434 1_565 S
C1019 C1020 1.369 . S
C1019 C1021 1.419 . S
C1019 H1023 0.930 . S
C1020 C1019 1.369 . S
C1020 C1029 1.429 . S
C1021 C1019 1.419 . S
C1021 C1022 1.363 . S
C1021 H1024 0.929 . S
C1022 C1021 1.363 . S
C1022 C1028 1.428 . S
H1023 C1019 0.930 . S
H1024 C1021 0.929 . S
S1025 N1026 1.613 . S
S1025 N1027 1.610 . S
N1026 S1025 1.613 . S
N1026 C1029 1.350 . S
N1027 S1025 1.610 . S
N1027 C1028 1.351 . S
C1028 C1022 1.428 . S
C1028 N1027 1.351 . S
C1028 C1029 1.434 . S
C1029 C1020 1.429 . S
C1029 N1026 1.350 . S
C1029 C1028 1.434 . S
C1030 C1031 1.369 . S
C1030 C1032 1.419 1_655 S
C1030 H1034 0.930 . S
C1031 C1030 1.369 . S
C1031 C1040 1.429 . S
C1032 C1030 1.419 1_455 S
C1032 C1033 1.363 . S
C1032 H1035 0.929 . S
C1033 C1032 1.363 . S
C1033 C1039 1.428 . S
H1034 C1030 0.930 . S
H1035 C1032 0.929 . S
S1036 N1037 1.613 1_455 S
S1036 N1038 1.610 . S
N1037 S1036 1.613 1_655 S
N1037 C1040 1.350 . S
N1038 S1036 1.610 . S
N1038 C1039 1.351 . S
C1039 C1033 1.428 . S
C1039 N1038 1.351 . S
C1039 C1040 1.434 1_455 S
C1040 C1031 1.429 . S
C1040 N1037 1.350 . S
C1040 C1039 1.434 1_655 S
C1041 C1042 1.369 . S
C1041 C1043 1.419 1_565 S
C1041 H1045 0.930 . S
C1042 C1041 1.369 . S
C1042 C1051 1.429 . S
C1043 C1041 1.419 1_545 S
C1043 C1044 1.363 . S
C1043 H1046 0.929 . S
C1044 C1043 1.363 . S
C1044 C1050 1.428 . S
H1045 C1041 0.930 . S
H1046 C1043 0.929 . S
S1047 N1048 1.613 1_545 S
S1047 N1049 1.610 . S
N1048 S1047 1.613 1_565 S
N1048 C1051 1.350 . S
N1049 S1047 1.610 . S
N1049 C1050 1.351 . S
C1050 C1044 1.428 . S
C1050 N1049 1.351 . S
C1050 C1051 1.434 1_545 S
C1051 C1042 1.429 . S
C1051 N1048 1.350 . S
C1051 C1050 1.434 1_565 S
C1052 C1053 1.369 . S
C1052 C1054 1.419 . S
C1052 H1056 0.930 . S
C1053 C1052 1.369 . S
C1053 C1062 1.429 . S
C1054 C1052 1.419 . S
C1054 C1055 1.363 . S
C1054 H1057 0.929 . S
C1055 C1054 1.363 . S
C1055 C1061 1.428 . S
H1056 C1052 0.930 . S
H1057 C1054 0.929 . S
S1058 N1059 1.613 . S
S1058 N1060 1.610 . S
N1059 S1058 1.613 . S
N1059 C1062 1.350 . S
N1060 S1058 1.610 . S
N1060 C1061 1.351 . S
C1061 C1055 1.428 . S
C1061 N1060 1.351 . S
C1061 C1062 1.434 . S
C1062 C1053 1.429 . S
C1062 N1059 1.350 . S
C1062 C1061 1.434 . S
C1063 C1064 1.369 . S
C1063 C1065 1.419 1_655 S
C1063 H1067 0.930 . S
C1064 C1063 1.369 . S
C1064 C1073 1.429 . S
C1065 C1063 1.419 1_455 S
C1065 C1066 1.363 . S
C1065 H1068 0.929 . S
C1066 C1065 1.363 . S
C1066 C1072 1.428 . S
H1067 C1063 0.930 . S
H1068 C1065 0.929 . S
S1069 N1070 1.613 1_455 S
S1069 N1071 1.610 . S
N1070 S1069 1.613 1_655 S
N1070 C1073 1.350 . S
N1071 S1069 1.610 . S
N1071 C1072 1.351 . S
C1072 C1066 1.428 . S
C1072 N1071 1.351 . S
C1072 C1073 1.434 1_455 S
C1073 C1064 1.429 . S
C1073 N1070 1.350 . S
C1073 C1072 1.434 1_655 S
C1074 C1075 1.369 . S
C1074 C1076 1.419 1_455 S
C1074 H1078 0.930 . S
C1075 C1074 1.369 . S
C1075 C1084 1.429 . S
C1076 C1074 1.419 1_655 S
C1076 C1077 1.363 . S
C1076 H1079 0.929 . S
C1077 C1076 1.363 . S
C1077 C1083 1.428 . S
H1078 C1074 0.930 . S
H1079 C1076 0.929 . S
S1080 N1081 1.613 1_655 S
S1080 N1082 1.610 . S
N1081 S1080 1.613 1_455 S
N1081 C1084 1.350 . S
N1082 S1080 1.610 . S
N1082 C1083 1.351 . S
C1083 C1077 1.428 . S
C1083 N1082 1.351 . S
C1083 C1084 1.434 1_655 S
C1084 C1075 1.429 . S
C1084 N1081 1.350 . S
C1084 C1083 1.434 1_455 S
C1085 C1086 1.369 . S
C1085 C1087 1.419 1_565 S
C1085 H1089 0.930 . S
C1086 C1085 1.369 . S
C1086 C1095 1.429 . S
C1087 C1085 1.419 1_545 S
C1087 C1088 1.363 . S
C1087 H1090 0.929 . S
C1088 C1087 1.363 . S
C1088 C1094 1.428 . S
H1089 C1085 0.930 . S
H1090 C1087 0.929 . S
S1091 N1092 1.613 1_545 S
S1091 N1093 1.610 . S
N1092 S1091 1.613 1_565 S
N1092 C1095 1.350 . S
N1093 S1091 1.610 . S
N1093 C1094 1.351 . S
C1094 C1088 1.428 . S
C1094 N1093 1.351 . S
C1094 C1095 1.434 1_545 S
C1095 C1086 1.429 . S
C1095 N1092 1.350 . S
C1095 C1094 1.434 1_565 S
C1096 C1097 1.369 . S
C1096 C1098 1.419 . S
C1096 H1100 0.930 . S
C1097 C1096 1.369 . S
C1097 C1106 1.429 . S
C1098 C1096 1.419 . S
C1098 C1099 1.363 . S
C1098 H1101 0.929 . S
C1099 C1098 1.363 . S
C1099 C1105 1.428 . S
H1100 C1096 0.930 . S
H1101 C1098 0.929 . S
S1102 N1103 1.613 . S
S1102 N1104 1.610 . S
N1103 S1102 1.613 . S
N1103 C1106 1.350 . S
N1104 S1102 1.610 . S
N1104 C1105 1.351 . S
C1105 C1099 1.428 . S
C1105 N1104 1.351 . S
C1105 C1106 1.434 . S
C1106 C1097 1.429 . S
C1106 N1103 1.350 . S
C1106 C1105 1.434 . S
C1107 C1108 1.369 . S
C1107 C1109 1.419 1_455 S
C1107 H1111 0.930 . S
C1108 C1107 1.369 . S
C1108 C1117 1.429 . S
C1109 C1107 1.419 1_655 S
C1109 C1110 1.363 . S
C1109 H1112 0.929 . S
C1110 C1109 1.363 . S
C1110 C1116 1.428 . S
H1111 C1107 0.930 . S
H1112 C1109 0.929 . S
S1113 N1114 1.613 1_655 S
S1113 N1115 1.610 . S
N1114 S1113 1.613 1_455 S
N1114 C1117 1.350 . S
N1115 S1113 1.610 . S
N1115 C1116 1.351 . S
C1116 C1110 1.428 . S
C1116 N1115 1.351 . S
C1116 C1117 1.434 1_655 S
C1117 C1108 1.429 . S
C1117 N1114 1.350 . S
C1117 C1116 1.434 1_455 S
C1118 C1119 1.369 . S
C1118 C1120 1.419 1_545 S
C1118 H1122 0.930 . S
C1119 C1118 1.369 . S
C1119 C1128 1.429 . S
C1120 C1118 1.419 1_565 S
C1120 C1121 1.363 . S
C1120 H1123 0.929 . S
C1121 C1120 1.363 . S
C1121 C1127 1.428 . S
H1122 C1118 0.930 . S
H1123 C1120 0.929 . S
S1124 N1125 1.613 . S
S1124 N1126 1.610 1_545 S
N1125 S1124 1.613 . S
N1125 C1128 1.350 . S
N1126 S1124 1.610 1_565 S
N1126 C1127 1.351 . S
C1127 C1121 1.428 . S
C1127 N1126 1.351 . S
C1127 C1128 1.434 1_565 S
C1128 C1119 1.429 . S
C1128 N1125 1.350 . S
C1128 C1127 1.434 1_545 S
C1129 C1130 1.369 . S
C1129 C1131 1.419 . S
C1129 H1133 0.930 . S
C1130 C1129 1.369 . S
C1130 C1139 1.429 . S
C1131 C1129 1.419 . S
C1131 C1132 1.363 . S
C1131 H1134 0.929 . S
C1132 C1131 1.363 . S
C1132 C1138 1.428 . S
H1133 C1129 0.930 . S
H1134 C1131 0.929 . S
S1135 N1136 1.613 . S
S1135 N1137 1.610 . S
N1136 S1135 1.613 . S
N1136 C1139 1.350 . S
N1137 S1135 1.610 . S
N1137 C1138 1.351 . S
C1138 C1132 1.428 . S
C1138 N1137 1.351 . S
C1138 C1139 1.434 . S
C1139 C1130 1.429 . S
C1139 N1136 1.350 . S
C1139 C1138 1.434 . S
C1140 C1141 1.369 . S
C1140 C1142 1.419 . S
C1140 H1144 0.930 . S
C1141 C1140 1.369 . S
C1141 C1150 1.429 . S
C1142 C1140 1.419 . S
C1142 C1143 1.363 . S
C1142 H1145 0.929 . S
C1143 C1142 1.363 . S
C1143 C1149 1.428 . S
H1144 C1140 0.930 . S
H1145 C1142 0.929 . S
S1146 N1147 1.613 . S
S1146 N1148 1.610 . S
N1147 S1146 1.613 . S
N1147 C1150 1.350 . S
N1148 S1146 1.610 . S
N1148 C1149 1.351 . S
C1149 C1143 1.428 . S
C1149 N1148 1.351 . S
C1149 C1150 1.434 . S
C1150 C1141 1.429 . S
C1150 N1147 1.350 . S
C1150 C1149 1.434 . S
C1151 C1152 1.369 . S
C1151 C1153 1.419 . S
C1151 H1155 0.930 . S
C1152 C1151 1.369 . S
C1152 C1161 1.429 . S
C1153 C1151 1.419 . S
C1153 C1154 1.363 . S
C1153 H1156 0.929 . S
C1154 C1153 1.363 . S
C1154 C1160 1.428 . S
H1155 C1151 0.930 . S
H1156 C1153 0.929 . S
S1157 N1158 1.613 . S
S1157 N1159 1.610 . S
N1158 S1157 1.613 . S
N1158 C1161 1.350 . S
N1159 S1157 1.610 . S
N1159 C1160 1.351 . S
C1160 C1154 1.428 . S
C1160 N1159 1.351 . S
C1160 C1161 1.434 . S
C1161 C1152 1.429 . S
C1161 N1158 1.350 . S
C1161 C1160 1.434 . S
C1162 C1163 1.369 . S
C1162 C1164 1.419 . S
C1162 H1166 0.930 . S
C1163 C1162 1.369 . S
C1163 C1172 1.429 . S
C1164 C1162 1.419 . S
C1164 C1165 1.363 . S
C1164 H1167 0.929 . S
C1165 C1164 1.363 . S
C1165 C1171 1.428 . S
H1166 C1162 0.930 . S
H1167 C1164 0.929 . S
S1168 N1169 1.613 . S
S1168 N1170 1.610 . S
N1169 S1168 1.613 . S
N1169 C1172 1.350 . S
N1170 S1168 1.610 . S
N1170 C1171 1.351 . S
C1171 C1165 1.428 . S
C1171 N1170 1.351 . S
C1171 C1172 1.434 . S
C1172 C1163 1.429 . S
C1172 N1169 1.350 . S
C1172 C1171 1.434 . S
C1173 C1174 1.369 . S
C1173 C1175 1.419 . S
C1173 H1177 0.930 . S
C1174 C1173 1.369 . S
C1174 C1183 1.429 . S
C1175 C1173 1.419 . S
C1175 C1176 1.363 . S
C1175 H1178 0.929 . S
C1176 C1175 1.363 . S
C1176 C1182 1.428 . S
H1177 C1173 0.930 . S
H1178 C1175 0.929 . S
S1179 N1180 1.613 . S
S1179 N1181 1.610 . S
N1180 S1179 1.613 . S
N1180 C1183 1.350 . S
N1181 S1179 1.610 . S
N1181 C1182 1.351 . S
C1182 C1176 1.428 . S
C1182 N1181 1.351 . S
C1182 C1183 1.434 . S
C1183 C1174 1.429 . S
C1183 N1180 1.350 . S
C1183 C1182 1.434 . S
C1184 C1185 1.369 . S
C1184 C1186 1.419 . S
C1184 H1188 0.930 . S
C1185 C1184 1.369 . S
C1185 C1194 1.429 . S
C1186 C1184 1.419 . S
C1186 C1187 1.363 . S
C1186 H1189 0.929 . S
C1187 C1186 1.363 . S
C1187 C1193 1.428 . S
H1188 C1184 0.930 . S
H1189 C1186 0.929 . S
S1190 N1191 1.613 . S
S1190 N1192 1.610 . S
N1191 S1190 1.613 . S
N1191 C1194 1.350 . S
N1192 S1190 1.610 . S
N1192 C1193 1.351 . S
C1193 C1187 1.428 . S
C1193 N1192 1.351 . S
C1193 C1194 1.434 . S
C1194 C1185 1.429 . S
C1194 N1191 1.350 . S
C1194 C1193 1.434 . S
C1195 C1196 1.369 . S
C1195 C1197 1.419 . S
C1195 H1199 0.930 . S
C1196 C1195 1.369 . S
C1196 C1205 1.429 . S
C1197 C1195 1.419 . S
C1197 C1198 1.363 . S
C1197 H1200 0.929 . S
C1198 C1197 1.363 . S
C1198 C1204 1.428 . S
H1199 C1195 0.930 . S
H1200 C1197 0.929 . S
S1201 N1202 1.613 . S
S1201 N1203 1.610 . S
N1202 S1201 1.613 . S
N1202 C1205 1.350 . S
N1203 S1201 1.610 . S
N1203 C1204 1.351 . S
C1204 C1198 1.428 . S
C1204 N1203 1.351 . S
C1204 C1205 1.434 . S
C1205 C1196 1.429 . S
C1205 N1202 1.350 . S
C1205 C1204 1.434 . S
C1206 C1207 1.369 . S
C1206 C1208 1.419 . S
C1206 H1210 0.930 . S
C1207 C1206 1.369 . S
C1207 C1216 1.429 . S
C1208 C1206 1.419 . S
C1208 C1209 1.363 . S
C1208 H1211 0.929 . S
C1209 C1208 1.363 . S
C1209 C1215 1.428 . S
H1210 C1206 0.930 . S
H1211 C1208 0.929 . S
S1212 N1213 1.613 . S
S1212 N1214 1.610 . S
N1213 S1212 1.613 . S
N1213 C1216 1.350 . S
N1214 S1212 1.610 . S
N1214 C1215 1.351 . S
C1215 C1209 1.428 . S
C1215 N1214 1.351 . S
C1215 C1216 1.434 . S
C1216 C1207 1.429 . S
C1216 N1213 1.350 . S
C1216 C1215 1.434 . S
C1217 C1218 1.369 . S
C1217 C1219 1.419 . S
C1217 H1221 0.930 . S
C1218 C1217 1.369 . S
C1218 C1227 1.429 . S
C1219 C1217 1.419 . S
C1219 C1220 1.363 . S
C1219 H1222 0.929 . S
C1220 C1219 1.363 . S
C1220 C1226 1.428 . S
H1221 C1217 0.930 . S
H1222 C1219 0.929 . S
S1223 N1224 1.613 . S
S1223 N1225 1.610 . S
N1224 S1223 1.613 . S
N1224 C1227 1.350 . S
N1225 S1223 1.610 . S
N1225 C1226 1.351 . S
C1226 C1220 1.428 . S
C1226 N1225 1.351 . S
C1226 C1227 1.434 . S
C1227 C1218 1.429 . S
C1227 N1224 1.350 . S
C1227 C1226 1.434 . S
C1228 C1229 1.369 . S
C1228 C1230 1.419 . S
C1228 H1232 0.930 . S
C1229 C1228 1.369 . S
C1229 C1238 1.429 . S
C1230 C1228 1.419 . S
C1230 C1231 1.363 . S
C1230 H1233 0.929 . S
C1231 C1230 1.363 . S
C1231 C1237 1.428 . S
H1232 C1228 0.930 . S
H1233 C1230 0.929 . S
S1234 N1235 1.613 . S
S1234 N1236 1.610 . S
N1235 S1234 1.613 . S
N1235 C1238 1.350 . S
N1236 S1234 1.610 . S
N1236 C1237 1.351 . S
C1237 C1231 1.428 . S
C1237 N1236 1.351 . S
C1237 C1238 1.434 . S
C1238 C1229 1.429 . S
C1238 N1235 1.350 . S
C1238 C1237 1.434 . S
C1239 C1240 1.369 . S
C1239 C1241 1.419 . S
C1239 H1243 0.930 . S
C1240 C1239 1.369 . S
C1240 C1249 1.429 . S
C1241 C1239 1.419 . S
C1241 C1242 1.363 . S
C1241 H1244 0.929 . S
C1242 C1241 1.363 . S
C1242 C1248 1.428 . S
H1243 C1239 0.930 . S
H1244 C1241 0.929 . S
S1245 N1246 1.613 . S
S1245 N1247 1.610 . S
N1246 S1245 1.613 . S
N1246 C1249 1.350 . S
N1247 S1245 1.610 . S
N1247 C1248 1.351 . S
C1248 C1242 1.428 . S
C1248 N1247 1.351 . S
C1248 C1249 1.434 . S
C1249 C1240 1.429 . S
C1249 N1246 1.350 . S
C1249 C1248 1.434 . S
C1250 C1251 1.369 . S
C1250 C1252 1.419 . S
C1250 H1254 0.930 . S
C1251 C1250 1.369 . S
C1251 C1260 1.429 . S
C1252 C1250 1.419 . S
C1252 C1253 1.363 . S
C1252 H1255 0.929 . S
C1253 C1252 1.363 . S
C1253 C1259 1.428 . S
H1254 C1250 0.930 . S
H1255 C1252 0.929 . S
S1256 N1257 1.613 . S
S1256 N1258 1.610 . S
N1257 S1256 1.613 . S
N1257 C1260 1.350 . S
N1258 S1256 1.610 . S
N1258 C1259 1.351 . S
C1259 C1253 1.428 . S
C1259 N1258 1.351 . S
C1259 C1260 1.434 . S
C1260 C1251 1.429 . S
C1260 N1257 1.350 . S
C1260 C1259 1.434 . S
C1261 C1262 1.369 . S
C1261 C1263 1.419 . S
C1261 H1265 0.930 . S
C1262 C1261 1.369 . S
C1262 C1271 1.429 . S
C1263 C1261 1.419 . S
C1263 C1264 1.363 . S
C1263 H1266 0.929 . S
C1264 C1263 1.363 . S
C1264 C1270 1.428 . S
H1265 C1261 0.930 . S
H1266 C1263 0.929 . S
S1267 N1268 1.613 . S
S1267 N1269 1.610 . S
N1268 S1267 1.613 . S
N1268 C1271 1.350 . S
N1269 S1267 1.610 . S
N1269 C1270 1.351 . S
C1270 C1264 1.428 . S
C1270 N1269 1.351 . S
C1270 C1271 1.434 . S
C1271 C1262 1.429 . S
C1271 N1268 1.350 . S
C1271 C1270 1.434 . S
C1272 C1273 1.369 . S
C1272 C1274 1.419 . S
C1272 H1276 0.930 . S
C1273 C1272 1.369 . S
C1273 C1282 1.429 . S
C1274 C1272 1.419 . S
C1274 C1275 1.363 . S
C1274 H1277 0.929 . S
C1275 C1274 1.363 . S
C1275 C1281 1.428 . S
H1276 C1272 0.930 . S
H1277 C1274 0.929 . S
S1278 N1279 1.613 . S
S1278 N1280 1.610 . S
N1279 S1278 1.613 . S
N1279 C1282 1.350 . S
N1280 S1278 1.610 . S
N1280 C1281 1.351 . S
C1281 C1275 1.428 . S
C1281 N1280 1.351 . S
C1281 C1282 1.434 . S
C1282 C1273 1.429 . S
C1282 N1279 1.350 . S
C1282 C1281 1.434 . S
C1283 C1284 1.369 . S
C1283 C1285 1.419 . S
C1283 H1287 0.930 . S
C1284 C1283 1.369 . S
C1284 C1293 1.429 . S
C1285 C1283 1.419 . S
C1285 C1286 1.363 . S
C1285 H1288 0.929 . S
C1286 C1285 1.363 . S
C1286 C1292 1.428 . S
H1287 C1283 0.930 . S
H1288 C1285 0.929 . S
S1289 N1290 1.613 . S
S1289 N1291 1.610 . S
N1290 S1289 1.613 . S
N1290 C1293 1.350 . S
N1291 S1289 1.610 . S
N1291 C1292 1.351 . S
C1292 C1286 1.428 . S
C1292 N1291 1.351 . S
C1292 C1293 1.434 . S
C1293 C1284 1.429 . S
C1293 N1290 1.350 . S
C1293 C1292 1.434 . S
C1294 C1295 1.369 . S
C1294 C1296 1.419 . S
C1294 H1298 0.930 . S
C1295 C1294 1.369 . S
C1295 C1304 1.429 . S
C1296 C1294 1.419 . S
C1296 C1297 1.363 . S
C1296 H1299 0.929 . S
C1297 C1296 1.363 . S
C1297 C1303 1.428 . S
H1298 C1294 0.930 . S
H1299 C1296 0.929 . S
S1300 N1301 1.613 . S
S1300 N1302 1.610 . S
N1301 S1300 1.613 . S
N1301 C1304 1.350 . S
N1302 S1300 1.610 . S
N1302 C1303 1.351 . S
C1303 C1297 1.428 . S
C1303 N1302 1.351 . S
C1303 C1304 1.434 . S
C1304 C1295 1.429 . S
C1304 N1301 1.350 . S
C1304 C1303 1.434 . S
C1305 C1306 1.369 . S
C1305 C1307 1.419 . S
C1305 H1309 0.930 . S
C1306 C1305 1.369 . S
C1306 C1315 1.429 . S
C1307 C1305 1.419 . S
C1307 C1308 1.363 . S
C1307 H1310 0.929 . S
C1308 C1307 1.363 . S
C1308 C1314 1.428 . S
H1309 C1305 0.930 . S
H1310 C1307 0.929 . S
S1311 N1312 1.613 . S
S1311 N1313 1.610 . S
N1312 S1311 1.613 . S
N1312 C1315 1.350 . S
N1313 S1311 1.610 . S
N1313 C1314 1.351 . S
C1314 C1308 1.428 . S
C1314 N1313 1.351 . S
C1314 C1315 1.434 . S
C1315 C1306 1.429 . S
C1315 N1312 1.350 . S
C1315 C1314 1.434 . S
C1316 C1317 1.369 . S
C1316 C1318 1.419 . S
C1316 H1320 0.930 . S
C1317 C1316 1.369 . S
C1317 C1326 1.429 . S
C1318 C1316 1.419 . S
C1318 C1319 1.363 . S
C1318 H1321 0.929 . S
C1319 C1318 1.363 . S
C1319 C1325 1.428 . S
H1320 C1316 0.930 . S
H1321 C1318 0.929 . S
S1322 N1323 1.613 . S
S1322 N1324 1.610 . S
N1323 S1322 1.613 . S
N1323 C1326 1.350 . S
N1324 S1322 1.610 . S
N1324 C1325 1.351 . S
C1325 C1319 1.428 . S
C1325 N1324 1.351 . S
C1325 C1326 1.434 . S
C1326 C1317 1.429 . S
C1326 N1323 1.350 . S
C1326 C1325 1.434 . S
C1327 C1328 1.369 . S
C1327 C1329 1.419 . S
C1327 H1331 0.930 . S
C1328 C1327 1.369 . S
C1328 C1337 1.429 . S
C1329 C1327 1.419 . S
C1329 C1330 1.363 . S
C1329 H1332 0.929 . S
C1330 C1329 1.363 . S
C1330 C1336 1.428 . S
H1331 C1327 0.930 . S
H1332 C1329 0.929 . S
S1333 N1334 1.613 . S
S1333 N1335 1.610 . S
N1334 S1333 1.613 . S
N1334 C1337 1.350 . S
N1335 S1333 1.610 . S
N1335 C1336 1.351 . S
C1336 C1330 1.428 . S
C1336 N1335 1.351 . S
C1336 C1337 1.434 . S
C1337 C1328 1.429 . S
C1337 N1334 1.350 . S
C1337 C1336 1.434 . S
C1338 C1339 1.369 . S
C1338 C1340 1.419 . S
C1338 H1342 0.930 . S
C1339 C1338 1.369 . S
C1339 C1348 1.429 1_556 S
C1340 C1338 1.419 . S
C1340 C1341 1.363 1_556 S
C1340 H1343 0.929 . S
C1341 C1340 1.363 1_554 S
C1341 C1347 1.428 . S
H1342 C1338 0.930 . S
H1343 C1340 0.929 . S
S1344 N1345 1.613 . S
S1344 N1346 1.610 . S
N1345 S1344 1.613 . S
N1345 C1348 1.350 . S
N1346 S1344 1.610 . S
N1346 C1347 1.351 . S
C1347 C1341 1.428 . S
C1347 N1346 1.351 . S
C1347 C1348 1.434 . S
C1348 C1339 1.429 1_554 S
C1348 N1345 1.350 . S
C1348 C1347 1.434 . S
C1349 C1350 1.369 . S
C1349 C1351 1.419 1_455 S
C1349 H1353 0.930 . S
C1350 C1349 1.369 . S
C1350 C1359 1.429 . S
C1351 C1349 1.419 1_655 S
C1351 C1352 1.363 . S
C1351 H1354 0.929 . S
C1352 C1351 1.363 . S
C1352 C1358 1.428 . S
H1353 C1349 0.930 . S
H1354 C1351 0.929 . S
S1355 N1356 1.613 . S
S1355 N1357 1.610 1_455 S
N1356 S1355 1.613 . S
N1356 C1359 1.350 . S
N1357 S1355 1.610 1_655 S
N1357 C1358 1.351 . S
C1358 C1352 1.428 . S
C1358 N1357 1.351 . S
C1358 C1359 1.434 1_655 S
C1359 C1350 1.429 . S
C1359 N1356 1.350 . S
C1359 C1358 1.434 1_455 S
C1360 C1361 1.369 1_556 S
C1360 C1362 1.419 1_565 S
C1360 H1364 0.930 . S
C1361 C1360 1.369 1_554 S
C1361 C1370 1.429 . S
C1362 C1360 1.419 1_545 S
C1362 C1363 1.363 . S
C1362 H1365 0.929 . S
C1363 C1362 1.363 . S
C1363 C1369 1.428 1_556 S
H1364 C1360 0.930 . S
H1365 C1362 0.929 . S
S1366 N1367 1.613 1_545 S
S1366 N1368 1.610 . S
N1367 S1366 1.613 1_565 S
N1367 C1370 1.350 . S
N1368 S1366 1.610 . S
N1368 C1369 1.351 . S
C1369 C1363 1.428 1_554 S
C1369 N1368 1.351 . S
C1369 C1370 1.434 1_545 S
C1370 C1361 1.429 . S
C1370 N1367 1.350 . S
C1370 C1369 1.434 1_565 S
C1371 C1372 1.369 . S
C1371 C1373 1.419 . S
C1371 H1375 0.930 . S
C1372 C1371 1.369 . S
C1372 C1381 1.429 . S
C1373 C1371 1.419 . S
C1373 C1374 1.363 . S
C1373 H1376 0.929 . S
C1374 C1373 1.363 . S
C1374 C1380 1.428 . S
H1375 C1371 0.930 . S
H1376 C1373 0.929 . S
S1377 N1378 1.613 . S
S1377 N1379 1.610 . S
N1378 S1377 1.613 . S
N1378 C1381 1.350 . S
N1379 S1377 1.610 . S
N1379 C1380 1.351 . S
C1380 C1374 1.428 . S
C1380 N1379 1.351 . S
C1380 C1381 1.434 . S
C1381 C1372 1.429 . S
C1381 N1378 1.350 . S
C1381 C1380 1.434 . S
C1382 C1383 1.369 1_554 S
C1382 C1384 1.419 1_655 S
C1382 H1386 0.930 . S
C1383 C1382 1.369 1_556 S
C1383 C1392 1.429 . S
C1384 C1382 1.419 1_455 S
C1384 C1385 1.363 . S
C1384 H1387 0.929 . S
C1385 C1384 1.363 . S
C1385 C1391 1.428 1_554 S
H1386 C1382 0.930 . S
H1387 C1384 0.929 . S
S1388 N1389 1.613 1_455 S
S1388 N1390 1.610 . S
N1389 S1388 1.613 1_655 S
N1389 C1392 1.350 . S
N1390 S1388 1.610 . S
N1390 C1391 1.351 . S
C1391 C1385 1.428 1_556 S
C1391 N1390 1.351 . S
C1391 C1392 1.434 1_455 S
C1392 C1383 1.429 . S
C1392 N1389 1.350 . S
C1392 C1391 1.434 1_655 S
C1393 C1394 1.369 . S
C1393 C1395 1.419 1_565 S
C1393 H1397 0.930 . S
C1394 C1393 1.369 . S
C1394 C1403 1.429 . S
C1395 C1393 1.419 1_545 S
C1395 C1396 1.363 . S
C1395 H1398 0.929 . S
C1396 C1395 1.363 . S
C1396 C1402 1.428 . S
H1397 C1393 0.930 . S
H1398 C1395 0.929 . S
S1399 N1400 1.613 . S
S1399 N1401 1.610 1_565 S
N1400 S1399 1.613 . S
N1400 C1403 1.350 . S
N1401 S1399 1.610 1_545 S
N1401 C1402 1.351 . S
C1402 C1396 1.428 . S
C1402 N1401 1.351 . S
C1402 C1403 1.434 1_545 S
C1403 C1394 1.429 . S
C1403 N1400 1.350 . S
C1403 C1402 1.434 1_565 S
C1009 C392 1.400 . S
C1011 C63 1.343 . S
C1020 C476 1.398 . S
C1022 C147 1.342 . S
C1031 C231 1.332 . S
C1033 C56 1.392 . S
C1042 C315 1.334 . S
C1044 C140 1.393 . S
C1053 C399 1.343 . S
C1055 C224 1.397 . S
C1064 C308 1.397 . S
C1066 C483 1.337 . S
C1075 C728 1.392 . S
C1077 C567 1.333 . S
C1086 C651 1.338 . S
C1088 C812 1.394 . S
C1097 C896 1.391 . S
C1099 C735 1.333 . S
C1108 C819 1.331 . S
C1110 C980 1.392 . S
C1119 C903 1.342 . S
C1121 C560 1.399 . S
C1130 C644 1.401 . S
C1132 C987 1.343 . S
C1141 C403 1.400 . S
C1143 C72 1.359 . S
C1152 C156 1.359 . S
C1154 C487 1.389 . S
C1163 C240 1.351 . S
C1165 C67 1.396 . S
C1174 C324 1.355 . S
C1176 C151 1.398 . S
C1185 C235 1.386 . S
C1187 C408 1.353 . S
C1196 C319 1.387 . S
C1198 C492 1.356 . S
C1207 C739 1.386 . S
C1209 C576 1.356 . S
C1218 C660 1.363 . S
C1220 C823 1.392 . S
C1229 C744 1.348 . S
C1231 C907 1.393 . S
C1240 C991 1.397 . S
C1242 C828 1.361 . S
C1251 C912 1.349 . S
C1253 C571 1.395 . S
C1262 C655 1.388 . S
C1264 C996 1.358 . S
C1273 C906 1.889 . S
C1275 C66 1.890 . S
C1284 C150 1.883 . S
C1286 C990 1.887 . S
C1295 C234 1.883 . S
C1297 C570 1.886 . S
C1306 C318 1.882 . S
C1308 C654 1.885 . S
C1317 C402 1.890 . S
C1319 C738 1.890 . S
C1328 C822 1.889 . S
C1330 C486 1.890 . S
C1339 C831 2.095 . S
C1341 C75 2.089 . S
C1350 C915 2.095 . S
C1352 C159 2.096 . S
C1361 C243 2.088 . S
C1363 C999 2.092 . S
C1372 C327 2.097 . S
C1374 C579 2.093 . S
C1383 C663 2.088 . S
C1385 C411 2.092 . S
C1394 C747 2.096 . S
C1396 C495 2.090 . S
