# Generated by pormake.
# Topology snk, (6)-cn, num edge types: 1
# Building blocks:
#     Node 0, Type 0, BuildingBlock: BETFEN_clean_sbu_0, # of connection points: 6
#     Node 1, Type 0, BuildingBlock: BETFEN_clean_sbu_0, # of connection points: 6
#     Node 2, Type 0, BuildingBlock: BETFEN_clean_sbu_0, # of connection points: 6
#     Node 3, Type 0, BuildingBlock: BETFEN_clean_sbu_0, # of connection points: 6
#     Node 4, Type 0, BuildingBlock: BETFEN_clean_sbu_0, # of connection points: 6
#     Node 5, Type 0, BuildingBlock: BETFEN_clean_sbu_0, # of connection points: 6
#     Node 6, Type 0, BuildingBlock: BETFEN_clean_sbu_0, # of connection points: 6
#     Node 7, Type 0, BuildingBlock: BETFEN_clean_sbu_0, # of connection points: 6
#     Edge 8, Type (0, 0), BuildingBlock: MIFKUJ_clean_linker_0, # of connection points: 2
#     Edge 9, Type (0, 0), BuildingBlock: MIFKUJ_clean_linker_0, # of connection points: 2
#     Edge 10, Type (0, 0), BuildingBlock: MIFKUJ_clean_linker_0, # of connection points: 2
#     Edge 11, Type (0, 0), BuildingBlock: MIFKUJ_clean_linker_0, # of connection points: 2
#     Edge 12, Type (0, 0), BuildingBlock: MIFKUJ_clean_linker_0, # of connection points: 2
#     Edge 13, Type (0, 0), BuildingBlock: MIFKUJ_clean_linker_0, # of connection points: 2
#     Edge 14, Type (0, 0), BuildingBlock: MIFKUJ_clean_linker_0, # of connection points: 2
#     Edge 15, Type (0, 0), BuildingBlock: MIFKUJ_clean_linker_0, # of connection points: 2
#     Edge 16, Type (0, 0), BuildingBlock: MIFKUJ_clean_linker_0, # of connection points: 2
#     Edge 17, Type (0, 0), BuildingBlock: MIFKUJ_clean_linker_0, # of connection points: 2
#     Edge 18, Type (0, 0), BuildingBlock: MIFKUJ_clean_linker_0, # of connection points: 2
#     Edge 19, Type (0, 0), BuildingBlock: MIFKUJ_clean_linker_0, # of connection points: 2
#     Edge 20, Type (0, 0), BuildingBlock: MIFKUJ_clean_linker_0, # of connection points: 2
#     Edge 21, Type (0, 0), BuildingBlock: MIFKUJ_clean_linker_0, # of connection points: 2
#     Edge 22, Type (0, 0), BuildingBlock: MIFKUJ_clean_linker_0, # of connection points: 2
#     Edge 23, Type (0, 0), BuildingBlock: MIFKUJ_clean_linker_0, # of connection points: 2
#     Edge 24, Type (0, 0), BuildingBlock: MIFKUJ_clean_linker_0, # of connection points: 2
#     Edge 25, Type (0, 0), BuildingBlock: MIFKUJ_clean_linker_0, # of connection points: 2
#     Edge 26, Type (0, 0), BuildingBlock: MIFKUJ_clean_linker_0, # of connection points: 2
#     Edge 27, Type (0, 0), BuildingBlock: MIFKUJ_clean_linker_0, # of connection points: 2
#     Edge 28, Type (0, 0), BuildingBlock: MIFKUJ_clean_linker_0, # of connection points: 2
#     Edge 29, Type (0, 0), BuildingBlock: MIFKUJ_clean_linker_0, # of connection points: 2
#     Edge 30, Type (0, 0), BuildingBlock: MIFKUJ_clean_linker_0, # of connection points: 2
#     Edge 31, Type (0, 0), BuildingBlock: MIFKUJ_clean_linker_0, # of connection points: 2
# Relax obj value: 0.081
# Max RMSD: 0.135
# Mean RMSD: 0.118
data_MOF--net-snk--node1-BETFEN_clean_sbu_0--edge1-MIFKUJ_clean_linker_0
_symmetry_space_group_name_H-M    P1
_symmetry_Int_Tables_number       1
_symmetry_cell_setting            triclinic
loop_
_symmetry_equiv_pos_as_xyz
'x, y, z'
_cell_length_a     50.226254
_cell_length_b     50.538875
_cell_length_c     30.380855
_cell_angle_alpha  96.732571
_cell_angle_beta   96.91576
_cell_angle_gamma 90.970955
loop_
_atom_site_label
_atom_site_type_symbol
_atom_site_fract_x
_atom_site_fract_y
_atom_site_fract_z
_atom_type_partial_charge
Pr0 Pr 0.99355 0.99069 0.44651 0.0
Pr1 Pr 0.01674 0.0167 0.54858 0.0
C2 C 0.97604 0.97868 0.35877 0.0
C3 C 0.97793 0.98674 0.31413 0.0
C4 C 0.97132 0.96781 0.27672 0.0
C5 C 0.97388 0.97417 0.23387 0.0
C6 C 0.98311 0.9997 0.22735 0.0
C7 C 0.98966 0.01876 0.26509 0.0
C8 C 0.98708 0.01234 0.30816 0.0
C9 C 0.02938 0.96091 0.49592 0.0
C10 C 0.04331 0.03849 0.46403 0.0
C11 C 0.04108 0.02071 0.6332 0.0
C12 C 0.03431 0.02116 0.67948 0.0
C13 C 0.04379 0.04238 0.71186 0.0
C14 C 0.03877 0.04255 0.75625 0.0
C15 C 0.02437 0.02129 0.76958 0.0
C16 C 0.01464 1.00015 0.73681 0.0
C17 C 0.0194 1.00016 0.69232 0.0
C18 C 0.97377 0.0457 0.5127 0.0
C19 C 0.96319 0.97329 0.53003 0.0
O20 O 0.96294 0.99391 0.3862 0.0
O21 O 0.99754 0.96873 0.37851 0.0
O22 O 0.03127 0.98586 0.49565 0.0
O23 O 0.00914 0.95035 0.46838 0.0
O24 O 0.04647 0.03698 0.50769 0.0
O25 O 0.02414 0.0248 0.43619 0.0
O26 O 0.03706 0.99806 0.60711 0.0
O27 O 0.03524 0.04163 0.61247 0.0
O28 O 0.98367 0.02499 0.49531 0.0
O29 O 0.98643 0.05241 0.55253 0.0
O30 O 0.96058 0.97473 0.48635 0.0
O31 O 0.98336 0.9852 0.55794 0.0
H32 H 0.96446 0.94788 0.28069 0.0
H33 H 0.96917 0.95879 0.2059 0.0
H34 H 0.99666 0.03865 0.26131 0.0
H35 H 0.99241 0.02722 0.33671 0.0
H36 H 0.05529 0.05883 0.70287 0.0
H37 H 0.04613 0.05948 0.78006 0.0
H38 H 1.00387 0.98319 0.74558 0.0
H39 H 0.01179 0.98345 0.6682 0.0
Pr40 Pr 0.2591 0.74269 0.70792 0.0
Pr41 Pr 0.24877 0.76737 0.80512 0.0
C42 C 0.25587 0.72061 0.62195 0.0
C43 C 0.25393 0.72812 0.57613 0.0
C44 C 0.27138 0.74749 0.56459 0.0
C45 C 0.27011 0.75313 0.52036 0.0
C46 C 0.25132 0.7396 0.48677 0.0
C47 C 0.23346 0.7207 0.49879 0.0
C48 C 0.23482 0.71499 0.54294 0.0
C49 C 0.29547 0.78237 0.7493 0.0
C50 C 0.21802 0.7936 0.71731 0.0
C51 C 0.24514 0.795 0.88532 0.0
C52 C 0.24606 0.7902 0.93264 0.0
C53 C 0.22855 0.77148 0.9459 0.0
C54 C 0.22938 0.76764 0.99091 0.0
C55 C 0.2478 0.78231 0.02375 0.0
C56 C 0.26546 0.80086 0.01025 0.0
C57 C 0.26454 0.80478 0.96523 0.0
C58 C 0.22468 0.71742 0.77601 0.0
C59 C 0.29217 0.72001 0.79418 0.0
O60 O 0.23487 0.72438 0.64318 0.0
O61 O 0.27855 0.72603 0.64771 0.0
O62 O 0.27059 0.78233 0.75069 0.0
O63 O 0.30251 0.76203 0.72347 0.0
O64 O 0.21995 0.79258 0.76092 0.0
O65 O 0.23199 0.77827 0.69077 0.0
O66 O 0.26774 0.79295 0.86773 0.0
O67 O 0.22415 0.7854 0.85777 0.0
O68 O 0.22658 0.73612 0.75259 0.0
O69 O 0.23358 0.72481 0.81762 0.0
O70 O 0.2793 0.71248 0.75382 0.0
O71 O 0.28781 0.7432 0.81684 0.0
H72 H 0.28628 0.75801 0.58956 0.0
H73 H 0.28435 0.76762 0.51234 0.0
H74 H 0.21839 0.71025 0.47405 0.0
H75 H 0.22108 0.70007 0.55111 0.0
H76 H 0.21408 0.75986 0.92158 0.0
H77 H 0.21524 0.75344 1.00001 0.0
H78 H 0.2802 0.81222 0.03441 0.0
H79 H 0.27832 0.81926 0.95585 0.0
Pr80 Pr 0.52427 0.9947 0.07269 0.0
Pr81 Pr 0.49716 0.00519 0.98109 0.0
C82 C 0.5471 0.99662 0.15809 0.0
C83 C 0.53989 0.99789 0.20425 0.0
C84 C 0.52652 0.97637 0.21857 0.0
C85 C 0.5217 0.97705 0.26311 0.0
C86 C 0.53028 0.99916 0.29459 0.0
C87 C 0.54312 0.02091 0.27992 0.0
C88 C 0.54777 0.0203 0.2353 0.0
C89 C 0.48233 0.95919 0.03715 0.0
C90 C 0.47247 0.03571 0.06542 0.0
C91 C 0.47492 1.00327 0.89538 0.0
C92 C 0.48274 1.00182 0.84963 0.0
C93 C 0.49709 0.02291 0.83598 0.0
C94 C 0.50261 0.02202 0.79177 0.0
C95 C 0.49381 1.00011 0.76005 0.0
C96 C 0.48004 0.97873 0.77411 0.0
C97 C 0.47464 0.97957 0.81837 0.0
C98 C 0.54071 0.03933 0.01623 0.0
C99 C 0.54807 0.96374 0.9872 0.0
O100 O 0.54363 0.01793 0.13756 0.0
O101 O 0.54152 0.97439 0.1316 0.0
O102 O 0.48199 0.98397 0.03625 0.0
O103 O 0.50447 0.95184 0.0581 0.0
O104 O 0.46563 0.02426 0.02424 0.0
O105 O 0.49553 0.0305 0.08833 0.0
O106 O 0.47812 0.982 0.91604 0.0
O107 O 0.48038 0.02553 0.92188 0.0
O108 O 0.53975 0.01463 0.01675 0.0
O109 O 0.51877 0.04773 0.99617 0.0
O110 O 0.55548 0.97553 0.02814 0.0
O111 O 0.52475 0.96878 0.96514 0.0
H112 H 0.52001 0.95883 0.19554 0.0
H113 H 0.51126 0.96017 0.27285 0.0
H114 H 0.55026 0.03818 0.30314 0.0
H115 H 0.55802 0.03723 0.2253 0.0
H116 H 0.50383 0.0403 0.85925 0.0
H117 H 0.51373 0.03861 0.78244 0.0
H118 H 0.47273 0.96163 0.75064 0.0
H119 H 0.46365 0.96297 0.82793 0.0
Pr120 Pr 0.26748 0.26655 0.30155 0.0
Pr121 Pr 0.24752 0.24257 0.20467 0.0
C122 C 0.27184 0.28857 0.38767 0.0
C123 C 0.26894 0.28249 0.43327 0.0
C124 C 0.27724 0.25834 0.44822 0.0
C125 C 0.27528 0.25371 0.49235 0.0
C126 C 0.26488 0.27311 0.52236 0.0
C127 C 0.2561 0.29702 0.50673 0.0
C128 C 0.25818 0.30165 0.46276 0.0
C129 C 0.29875 0.22588 0.26705 0.0
C130 C 0.22175 0.21561 0.28378 0.0
C131 C 0.24312 0.22043 0.11863 0.0
C132 C 0.24638 0.2264 0.07305 0.0
C133 C 0.23662 0.24975 0.05678 0.0
C134 C 0.23879 0.25413 0.01261 0.0
C135 C 0.25081 0.23529 0.98384 0.0
C136 C 0.26105 0.21224 1.00074 0.0
C137 C 0.2588 0.20785 0.04478 0.0
C138 C 0.216 0.28286 0.23946 0.0
C139 C 0.29268 0.2941 0.22249 0.0
O140 O 0.24983 0.28889 0.35997 0.0
O141 O 0.292 0.27837 0.36869 0.0
O142 O 0.27343 0.22577 0.26145 0.0
O143 O 0.30871 0.24662 0.29365 0.0
O144 O 0.22692 0.21118 0.2419 0.0
O145 O 0.23276 0.23633 0.31095 0.0
O146 O 0.26497 0.21963 0.14657 0.0
O147 O 0.22306 0.23103 0.13742 0.0
O148 O 0.24134 0.2832 0.24483 0.0
O149 O 0.20615 0.26213 0.21273 0.0
O150 O 0.28761 0.29828 0.26443 0.0
O151 O 0.28188 0.27329 0.19523 0.0
H152 H 0.28555 0.24319 0.426 0.0
H153 H 0.2825 0.23517 0.50318 0.0
H154 H 0.24748 0.31221 0.52842 0.0
H155 H 0.25148 0.32036 0.45183 0.0
H156 H 0.227 0.26443 0.07796 0.0
H157 H 0.23048 0.27199 1.00073 0.0
H158 H 0.27089 0.19754 0.97995 0.0
H159 H 0.26659 0.18977 0.05668 0.0
Pr160 Pr 0.75956 0.2472 0.20835 0.0
Pr161 Pr 0.75008 0.2682 0.30828 0.0
C162 C 0.76501 0.22189 0.12689 0.0
C163 C 0.76404 0.22742 0.08012 0.0
C164 C 0.78344 0.2167 0.05421 0.0
C165 C 0.78277 0.22131 1.0096 0.0
C166 C 0.76257 0.23667 0.98992 0.0
C167 C 0.74315 0.24746 0.01604 0.0
C168 C 0.74394 0.24298 0.06078 0.0
C169 C 0.78445 0.29577 0.24375 0.0
C170 C 0.71432 0.29207 0.22154 0.0
C171 C 0.74432 0.29367 0.38939 0.0
C172 C 0.74692 0.28815 0.43628 0.0
C173 C 0.7288 0.29932 0.46433 0.0
C174 C 0.73051 0.29406 0.50873 0.0
C175 C 0.75047 0.27759 0.52602 0.0
C176 C 0.76867 0.26644 0.4978 0.0
C177 C 0.76683 0.27156 0.45324 0.0
C178 C 0.72686 0.21889 0.27438 0.0
C179 C 0.79545 0.22353 0.29518 0.0
O180 O 0.74232 0.22247 0.14412 0.0
O181 O 0.7854 0.23234 0.15483 0.0
O182 O 0.78252 0.27578 0.2643 0.0
O183 O 0.77502 0.29061 0.20182 0.0
O184 O 0.72486 0.29664 0.26398 0.0
O185 O 0.72155 0.27189 0.19431 0.0
O186 O 0.76647 0.29504 0.37083 0.0
O187 O 0.72437 0.28137 0.36268 0.0
O188 O 0.72803 0.23866 0.25304 0.0
O189 O 0.7351 0.22486 0.3166 0.0
O190 O 0.78463 0.2186 0.25287 0.0
O191 O 0.78846 0.244 0.32211 0.0
H192 H 0.79907 0.20459 0.06845 0.0
H193 H 0.79783 0.21246 0.99028 0.0
H194 H 0.72751 0.25962 1.00203 0.0
H195 H 0.72883 0.25166 0.08017 0.0
H196 H 0.71327 0.31212 0.45185 0.0
H197 H 0.71638 0.30318 0.52972 0.0
H198 H 0.78408 0.25343 0.51 0.0
H199 H 0.78087 0.26248 0.43203 0.0
Pr200 Pr 0.77161 0.76588 0.80376 0.0
Pr201 Pr 0.74679 0.74479 0.70917 0.0
C202 C 0.78033 0.78465 0.89139 0.0
C203 C 0.7771 0.7769 0.93597 0.0
C204 C 0.79869 0.78111 0.97005 0.0
C205 C 0.79577 0.77578 0.01337 0.0
C206 C 0.77101 0.76638 0.02394 0.0
C207 C 0.74965 0.76121 0.98917 0.0
C208 C 0.75265 0.76641 0.94567 0.0
C209 C 0.80224 0.72793 0.76085 0.0
C210 C 0.72639 0.71447 0.78883 0.0
C211 C 0.73578 0.72607 0.62161 0.0
C212 C 0.73871 0.732 0.57581 0.0
C213 C 0.71594 0.73023 0.54386 0.0
C214 C 0.71815 0.73398 0.49954 0.0
C215 C 0.74328 0.73947 0.48595 0.0
C216 C 0.76606 0.74179 0.51831 0.0
C217 C 0.76381 0.7381 0.56277 0.0
C218 C 0.71689 0.78306 0.75369 0.0
C219 C 0.79257 0.79547 0.72362 0.0
O220 O 0.75857 0.78907 0.86534 0.0
O221 O 0.79863 0.77265 0.86989 0.0
O222 O 0.77692 0.72636 0.75901 0.0
O223 O 0.81241 0.74873 0.78708 0.0
O224 O 0.72802 0.71203 0.74549 0.0
O225 O 0.73932 0.73398 0.81639 0.0
O226 O 0.75726 0.72005 0.6469 0.0
O227 O 0.71917 0.74036 0.64365 0.0
O228 O 0.74203 0.78431 0.75379 0.0
O229 O 0.70622 0.76212 0.72848 0.0
O230 O 0.78972 0.79882 0.76662 0.0
O231 O 0.78049 0.77521 0.69665 0.0
H232 H 0.81781 0.78894 0.96329 0.0
H233 H 0.813 0.77922 0.03863 0.0
H234 H 0.73021 0.75415 0.99574 0.0
H235 H 0.73566 0.76278 0.91993 0.0
H236 H 0.69636 0.72557 0.55308 0.0
H237 H 0.70009 0.73256 0.4759 0.0
H238 H 0.78578 0.74576 0.50909 0.0
H239 H 0.78175 0.73961 0.5867 0.0
Pr240 Pr 0.49504 0.49773 0.96218 0.0
Pr241 Pr 0.51857 0.52073 0.0579 0.0
C242 C 0.47493 0.48996 0.8749 0.0
C243 C 0.4813 0.4948 0.83011 0.0
C244 C 0.50605 0.48797 0.81537 0.0
C245 C 0.51078 0.491 0.77165 0.0
C246 C 0.49089 0.50099 0.74171 0.0
C247 C 0.46647 0.50855 0.75719 0.0
C248 C 0.46173 0.50541 0.80078 0.0
C249 C 0.53347 0.46673 1.00362 0.0
C250 C 0.54703 0.54255 0.97751 0.0
C251 C 0.53938 0.52806 0.14487 0.0
C252 C 0.53385 0.52286 0.18997 0.0
C253 C 0.51026 0.53127 0.20734 0.0
C254 C 0.50649 0.5278 0.25131 0.0
C255 C 0.52619 0.51587 0.2789 0.0
C256 C 0.54942 0.50683 0.26089 0.0
C257 C 0.55318 0.51032 0.21699 0.0
C258 C 0.48023 0.55184 0.01605 0.0
C259 C 0.46669 0.47578 0.04287 0.0
O260 O 0.46935 0.51063 0.90201 0.0
O261 O 0.48889 0.47233 0.89519 0.0
O262 O 0.53507 0.49178 1.00506 0.0
O263 O 0.51213 0.4567 0.97835 0.0
O264 O 0.55122 0.5387 0.02005 0.0
O265 O 0.52603 0.53137 0.95086 0.0
O266 O 0.54475 0.50757 0.1172 0.0
O267 O 0.52509 0.54577 0.1253 0.0
O268 O 0.4785 0.5268 0.01493 0.0
O269 O 0.50163 0.56181 0.04132 0.0
O270 O 0.46281 0.47895 0.99998 0.0
O271 O 0.48726 0.48761 0.06975 0.0
H272 H 0.52159 0.47982 0.83732 0.0
H273 H 0.52975 0.48478 0.76098 0.0
H274 H 0.45087 0.51685 0.73556 0.0
H275 H 0.44255 0.51095 0.81141 0.0
H276 H 0.49493 0.54094 0.18729 0.0
H277 H 0.48845 0.53519 0.26407 0.0
H278 H 0.56479 0.49712 0.28078 0.0
H279 H 0.57148 0.50355 0.20434 0.0
Pr280 Pr 0.02066 0.49011 0.55851 0.0
Pr281 Pr 0.99999 0.51147 0.46749 0.0
C282 C 0.0421 0.48325 0.64186 0.0
C283 C 0.0364 0.48567 0.68864 0.0
C284 C 0.04143 0.46409 0.71319 0.0
C285 C 0.03759 0.46616 0.75823 0.0
C286 C 0.02879 0.48999 0.77982 0.0
C287 C 0.02336 0.51152 0.75492 0.0
C288 C 0.0271 0.50937 0.70974 0.0
C289 C 0.97509 0.4643 0.51051 0.0
C290 C 0.97556 0.53846 0.55667 0.0
C291 C 0.97933 0.51885 0.38401 0.0
C292 C 0.98584 0.51653 0.33769 0.0
C293 C 0.98062 0.53791 0.31276 0.0
C294 C 0.98538 0.53596 0.26816 0.0
C295 C 0.99531 0.51244 0.24737 0.0
C296 C 1.00099 0.49116 0.27274 0.0
C297 C 0.99635 0.4932 0.31751 0.0
C298 C 0.04524 0.53745 0.51636 0.0
C299 C 0.04439 0.46264 0.46879 0.0
O300 O 0.04525 0.5053 0.62401 0.0
O301 O 0.02936 0.46409 0.61412 0.0
O302 O 0.98002 0.48893 0.51579 0.0
O303 O 0.99339 0.45166 0.53296 0.0
O304 O 0.97023 0.53197 0.51302 0.0
O305 O 0.9957 0.52789 0.5804 0.0
O306 O 0.97577 0.49672 0.40143 0.0
O307 O 0.99186 0.53786 0.41231 0.0
O308 O 0.04061 0.51277 0.51032 0.0
O309 O 0.02672 0.55005 0.49431 0.0
O310 O 0.04994 0.46898 0.51245 0.0
O311 O 0.02436 0.47351 0.4454 0.0
H312 H 0.04859 0.44562 0.69757 0.0
H313 H 0.04151 0.44904 0.7761 0.0
H314 H 0.01681 0.53024 0.77056 0.0
H315 H 0.02305 0.52636 0.69156 0.0
H316 H 0.97261 0.55613 0.32774 0.0
H317 H 0.9813 0.55294 0.25002 0.0
H318 H 0.00844 0.47267 0.25778 0.0
H319 H 1.00064 0.47641 0.33608 0.0
H320 H 0.08014 0.0762 0.50903 0.0
H321 H 0.10975 0.10592 0.47738 0.0
H322 H 0.0783 0.07116 0.34455 0.0
H323 H 0.0485 0.04152 0.37576 0.0
H324 H 0.13413 0.07705 0.35579 0.0
H325 H 0.05831 0.13055 0.38219 0.0
H326 H 0.02485 0.15155 0.42704 0.0
H327 H 0.08778 0.1944 0.51688 0.0
H328 H 0.12168 0.17339 0.4729 0.0
H329 H 0.19065 0.17355 0.23755 0.0
H330 H 0.16014 0.14363 0.2668 0.0
H331 H 0.18099 0.18502 0.39926 0.0
H332 H 0.21085 0.21542 0.37009 0.0
H333 H 0.12974 0.17532 0.38722 0.0
H334 H 0.2057 0.1216 0.36313 0.0
H335 H 0.23982 0.10021 0.32011 0.0
H336 H 0.17779 0.05729 0.22838 0.0
H337 H 0.14328 0.0787 0.27053 0.0
C338 C 0.07951 0.07479 0.47308 0.0
C339 C 0.06183 0.05636 0.44508 0.0
C340 C 0.09643 0.09191 0.455 0.0
C341 C 0.09622 0.09093 0.4085 0.0
C342 C 0.07889 0.07232 0.38049 0.0
C343 C 0.06177 0.0554 0.39849 0.0
C344 C 0.11399 0.10936 0.38909 0.0
C345 C 0.13294 0.09854 0.36218 0.0
C346 C 0.11292 0.13743 0.39812 0.0
C347 C 0.09256 0.15019 0.42449 0.0
C348 C 0.06504 0.14428 0.41172 0.0
C349 C 0.04598 0.15621 0.43694 0.0
C350 C 0.05419 0.17422 0.47485 0.0
C351 C 0.08146 0.18041 0.48754 0.0
C352 C 0.1006 0.16852 0.46245 0.0
C353 C 0.18882 0.17626 0.27294 0.0
C354 C 0.20342 0.1969 0.30137 0.0
C355 C 0.17139 0.15901 0.28974 0.0
C356 C 0.1684 0.16166 0.33554 0.0
C357 C 0.18283 0.1824 0.36386 0.0
C358 C 0.20005 0.19978 0.34706 0.0
C359 C 0.15016 0.14307 0.35401 0.0
C360 C 0.13103 0.15384 0.38074 0.0
C361 C 0.1512 0.11492 0.34505 0.0
C362 C 0.17191 0.10196 0.31973 0.0
C363 C 0.19933 0.10775 0.33359 0.0
C364 C 0.21874 0.0956 0.3094 0.0
C365 C 0.21097 0.07746 0.27147 0.0
C366 C 0.18378 0.07138 0.25773 0.0
C367 C 0.16429 0.0835 0.28177 0.0
H368 H 0.22603 0.06808 0.25278 0.0
H369 H 0.0394 0.18344 0.49433 0.0
H370 H 0.02567 0.9079 0.50214 0.0
H371 H 0.0576 0.8809 0.54297 0.0
H372 H 0.10812 0.95091 0.58952 0.0
H373 H 0.076 0.97815 0.54876 0.0
H374 H 0.10823 0.87103 0.53216 0.0
H375 H 0.14023 0.94371 0.69234 0.0
H376 H 0.1208 0.97938 0.7401 0.0
H377 H 0.04195 0.94433 0.69877 0.0
H378 H 0.0609 0.90847 0.65095 0.0
H379 H 0.22275 0.81784 0.64287 0.0
H380 H 0.19182 0.84853 0.60867 0.0
H381 H 0.14028 0.84219 0.71116 0.0
H382 H 0.17208 0.81279 0.74695 0.0
H383 H 0.13962 0.89002 0.69418 0.0
H384 H 0.12932 0.80595 0.60033 0.0
H385 H 0.14452 0.7671 0.55391 0.0
H386 H 0.17178 0.81862 0.46464 0.0
H387 H 0.15708 0.85782 0.51089 0.0
C388 C 0.04353 0.91758 0.52122 0.0
C389 C 0.04839 0.94511 0.52227 0.0
C390 C 0.06178 0.90211 0.54446 0.0
C391 C 0.08523 0.91385 0.56938 0.0
C392 C 0.09002 0.94146 0.57089 0.0
C393 C 0.07171 0.95698 0.54755 0.0
C394 C 0.10492 0.89696 0.59264 0.0
C395 C 0.11513 0.87519 0.56759 0.0
C396 C 0.11357 0.9021 0.63896 0.0
C397 C 0.102 0.92356 0.66776 0.0
C398 C 0.11876 0.94362 0.69351 0.0
C399 C 0.10782 0.9639 0.72053 0.0
C400 C 0.08016 0.9642 0.72232 0.0
C401 C 0.06336 0.9442 0.69714 0.0
C402 C 0.07418 0.92393 0.66999 0.0
C403 C 0.20487 0.82312 0.65819 0.0
C404 C 0.1997 0.81277 0.69737 0.0
C405 C 0.1871 0.84057 0.63849 0.0
C406 C 0.16328 0.84726 0.6566 0.0
C407 C 0.15844 0.83736 0.69637 0.0
C408 C 0.17658 0.82047 0.71676 0.0
C409 C 0.14311 0.864 0.63369 0.0
C410 C 0.13283 0.88583 0.65873 0.0
C411 C 0.13377 0.85844 0.58749 0.0
C412 C 0.14233 0.83484 0.55933 0.0
C413 C 0.13868 0.809 0.57094 0.0
C414 C 0.14721 0.78692 0.54465 0.0
C415 C 0.15918 0.7904 0.50642 0.0
C416 C 0.16255 0.81596 0.4943 0.0
C417 C 0.15411 0.83811 0.52053 0.0
H418 H 0.16579 0.77329 0.48615 0.0
H419 H 0.07177 0.97988 0.74337 0.0
H420 H 0.35 0.78196 0.75886 0.0
H421 H 0.381 0.81301 0.80912 0.0
H422 H 0.31395 0.85681 0.85275 0.0
H423 H 0.28295 0.82619 0.8021 0.0
H424 H 0.35449 0.88947 0.83782 0.0
H425 H 0.34292 0.81474 0.91755 0.0
H426 H 0.34148 0.76678 0.92559 0.0
H427 H 0.42478 0.76187 0.9073 0.0
H428 H 0.42666 0.80984 0.8987 0.0
H429 H 0.42879 0.9661 0.023 0.0
H430 H 0.39517 0.93588 0.97687 0.0
H431 H 0.45762 0.88199 0.94358 0.0
H432 H 0.49076 0.91116 0.99273 0.0
H433 H 0.41718 0.85434 0.95456 0.0
H434 H 0.42646 0.93145 0.87186 0.0
H435 H 0.42409 0.97907 0.86079 0.0
H436 H 0.3419 0.9795 0.8857 0.0
H437 H 0.3436 0.93197 0.89684 0.0
C438 C 0.34197 0.79837 0.77892 0.0
C439 C 0.31422 0.80171 0.77702 0.0
C440 C 0.35961 0.81594 0.80764 0.0
C441 C 0.34961 0.83689 0.83486 0.0
C442 C 0.32193 0.84069 0.83198 0.0
C443 C 0.30432 0.82317 0.80324 0.0
C444 C 0.36801 0.85457 0.86712 0.0
C445 C 0.36809 0.88193 0.86367 0.0
C446 C 0.38564 0.84448 0.90049 0.0
C447 C 0.38489 0.81585 0.90723 0.0
C448 C 0.36093 0.80343 0.91513 0.0
C449 C 0.36002 0.77624 0.91977 0.0
C450 C 0.38302 0.76128 0.91692 0.0
C451 C 0.407 0.77351 0.90955 0.0
C452 C 0.40801 0.80071 0.90488 0.0
C453 C 0.43511 0.94761 1.0061 0.0
C454 C 0.46211 0.94071 0.01118 0.0
C455 C 0.41603 0.93052 0.9794 0.0
C456 C 0.42395 0.90699 0.95572 0.0
C457 C 0.45101 0.90003 0.96144 0.0
C458 C 0.46991 0.91664 0.98943 0.0
C459 C 0.40425 0.88952 0.92488 0.0
C460 C 0.40376 0.86205 0.92868 0.0
C461 C 0.38601 0.8996 0.89202 0.0
C462 C 0.38524 0.92823 0.88558 0.0
C463 C 0.40794 0.94174 0.87523 0.0
C464 C 0.40672 0.96869 0.86891 0.0
C465 C 0.38299 0.9823 0.8728 0.0
C466 C 0.3603 0.96896 0.88279 0.0
C467 C 0.36135 0.94202 0.889 0.0
H468 H 0.38215 1.00315 0.86791 0.0
H469 H 0.38226 0.74025 0.92054 0.0
H470 H 0.4197 0.04308 0.03639 0.0
H471 H 0.389 0.07372 0.07083 0.0
H472 H 0.45229 0.10165 0.17582 0.0
H473 H 0.48286 0.07033 0.14232 0.0
H474 H 0.40848 0.09626 0.21089 0.0
H475 H 0.43062 0.13788 0.08566 0.0
H476 H 0.43544 0.14137 1.0067 0.0
H477 H 0.35069 0.12657 0.97118 0.0
H478 H 0.34542 0.1226 0.04986 0.0
H479 H 0.35261 0.22027 0.28542 0.0
H480 H 0.38029 0.18591 0.25188 0.0
H481 H 0.31009 0.14951 0.17008 0.0
H482 H 0.2821 0.18349 0.20449 0.0
H483 H 0.35543 0.15829 0.12288 0.0
H484 H 0.33415 0.11905 0.25111 0.0
H485 H 0.33064 0.11742 0.33099 0.0
H486 H 0.41591 0.13028 0.36173 0.0
H487 H 0.41989 0.13245 0.28207 0.0
C488 C 0.42712 0.05576 0.0668 0.0
C489 C 0.45381 0.05431 0.08648 0.0
C490 C 0.40954 0.07341 0.08638 0.0
C491 C 0.41836 0.09043 0.12561 0.0
C492 C 0.44494 0.0888 0.14555 0.0
C493 C 0.46245 0.0709 0.12629 0.0
C494 C 0.39987 0.10973 0.14609 0.0
C495 C 0.39718 0.11003 0.19167 0.0
C496 C 0.38454 0.1274 0.12098 0.0
C497 C 0.38768 0.12964 0.07359 0.0
C498 C 0.41305 0.13513 0.06095 0.0
C499 C 0.41585 0.13724 0.01626 0.0
C500 C 0.3934 0.13411 0.98392 0.0
C501 C 0.36808 0.12893 0.99624 0.0
C502 C 0.36517 0.12676 0.04089 0.0
C503 C 0.34303 0.20485 0.2605 0.0
C504 C 0.3152 0.20461 0.24745 0.0
C505 C 0.35887 0.18522 0.24142 0.0
C506 C 0.34725 0.16513 0.20857 0.0
C507 C 0.31945 0.16485 0.19536 0.0
C508 C 0.3035 0.18426 0.21502 0.0
C509 C 0.36432 0.14483 0.18747 0.0
C510 C 0.36672 0.1444 0.14188 0.0
C511 C 0.37963 0.1273 0.21265 0.0
C512 C 0.37727 0.1262 0.26064 0.0
C513 C 0.35212 0.12183 0.27494 0.0
C514 C 0.35005 0.12074 0.32018 0.0
C515 C 0.37303 0.12382 0.35143 0.0
C516 C 0.39812 0.12795 0.33749 0.0
C517 C 0.4003 0.1291 0.2923 0.0
H518 H 0.37139 0.12293 0.38643 0.0
H519 H 0.39561 0.13577 0.94935 0.0
H520 H 0.95449 0.97489 0.61746 0.0
H521 H 0.92457 0.94632 0.65002 0.0
H522 H 0.89797 0.90494 0.51932 0.0
H523 H 0.92728 0.93429 0.48617 0.0
H524 H 0.85684 0.91059 0.56438 0.0
H525 H 0.9458 0.87914 0.5979 0.0
H526 H 0.99391 0.88437 0.6266 0.0
H527 H 0.97404 0.91086 0.75784 0.0
H528 H 0.92579 0.90613 0.72978 0.0
H529 H 0.80157 0.79533 0.63637 0.0
H530 H 0.82963 0.82618 0.60471 0.0
H531 H 0.85065 0.87013 0.73508 0.0
H532 H 0.8227 0.83903 0.76733 0.0
H533 H 0.8945 0.86345 0.6911 0.0
H534 H 0.80528 0.89413 0.65676 0.0
H535 H 0.75733 0.88955 0.62692 0.0
H536 H 0.77814 0.86389 0.49597 0.0
H537 H 0.82624 0.86801 0.52515 0.0
C538 C 0.94219 0.95982 0.59546 0.0
C539 C 0.9435 0.95684 0.54909 0.0
C540 C 0.92514 0.94331 0.61426 0.0
C541 C 0.90936 0.92289 0.58744 0.0
C542 C 0.90999 0.92039 0.54093 0.0
C543 C 0.9268 0.93721 0.52195 0.0
C544 C 0.89257 0.90401 0.60799 0.0
C545 C 0.86523 0.90002 0.59166 0.0
C546 C 0.90318 0.8905 0.64435 0.0
C547 C 0.93217 0.89247 0.66165 0.0
C548 C 0.95169 0.88615 0.63286 0.0
C549 C 0.97898 0.88904 0.649 0.0
C550 C 0.98703 0.898 0.69399 0.0
C551 C 0.96778 0.90394 0.72298 0.0
C552 C 0.94045 0.90112 0.707 0.0
C553 C 0.81207 0.81155 0.6585 0.0
C554 C 0.80966 0.81466 0.70455 0.0
C555 C 0.82811 0.82931 0.64019 0.0
C556 C 0.8421 0.8508 0.66727 0.0
C557 C 0.84004 0.85379 0.71336 0.0
C558 C 0.82393 0.83602 0.73177 0.0
C559 C 0.85882 0.87001 0.64736 0.0
C560 C 0.88615 0.87402 0.66381 0.0
C561 C 0.84825 0.88342 0.61094 0.0
C562 C 0.81935 0.88116 0.59323 0.0
C563 C 0.79963 0.88735 0.62165 0.0
C564 C 0.77243 0.88486 0.60485 0.0
C565 C 0.76469 0.87638 0.5596 0.0
C566 C 0.78416 0.87044 0.53102 0.0
C567 C 0.81139 0.87288 0.54766 0.0
H568 H 0.74362 0.87445 0.54666 0.0
H569 H 0.00816 0.90029 0.70639 0.0
H570 H 0.94556 0.03417 0.42985 0.0
H571 H 0.91447 0.06274 0.39033 0.0
H572 H 0.92581 0.12297 0.50455 0.0
H573 H 0.95662 0.09424 0.54418 0.0
H574 H 0.87396 0.11769 0.47035 0.0
H575 H 0.9584 0.12827 0.41303 0.0
H576 H 0.99807 0.11124 0.37954 0.0
H577 H 0.94734 0.07598 0.26283 0.0
H578 H 0.90729 0.09254 0.29587 0.0
H579 H 0.82614 0.23038 0.37646 0.0
H580 H 0.85627 0.19888 0.40971 0.0
H581 H 0.8394 0.14285 0.29065 0.0
H582 H 0.80942 0.1746 0.25655 0.0
H583 H 0.8926 0.14375 0.32423 0.0
H584 H 0.80811 0.13543 0.38116 0.0
H585 H 0.76887 0.15231 0.416 0.0
H586 H 0.82026 0.18329 0.53481 0.0
H587 H 0.85988 0.16689 0.50043 0.0
C588 C 0.94134 0.05344 0.44644 0.0
C589 C 0.95366 0.06206 0.48981 0.0
C590 C 0.92363 0.0698 0.42386 0.0
C591 C 0.91811 0.0952 0.44421 0.0
C592 C 0.92981 0.1035 0.48812 0.0
C593 C 0.94744 0.08709 0.51069 0.0
C594 C 0.90057 0.11339 0.41961 0.0
C595 C 0.8782 0.12359 0.43863 0.0
C596 C 0.90575 0.12063 0.37771 0.0
C597 C 0.92983 0.11149 0.35705 0.0
C598 C 0.9557 0.11683 0.38027 0.0
C599 C 0.97824 0.10727 0.36138 0.0
C600 C 0.97521 0.09254 0.31911 0.0
C601 C 0.94964 0.08742 0.29556 0.0
C602 C 0.92701 0.09693 0.31431 0.0
C603 C 0.82889 0.21144 0.35709 0.0
C604 C 0.81512 0.20495 0.31391 0.0
C605 C 0.84612 0.1934 0.37626 0.0
C606 C 0.84974 0.16829 0.35302 0.0
C607 C 0.83683 0.16207 0.30927 0.0
C608 C 0.81965 0.18023 0.28988 0.0
C609 C 0.86617 0.14831 0.3753 0.0
C610 C 0.8883 0.13774 0.35583 0.0
C611 C 0.86083 0.14075 0.41692 0.0
C612 C 0.83698 0.1501 0.43808 0.0
C613 C 0.81106 0.14595 0.41464 0.0
C614 C 0.78875 0.15543 0.43431 0.0
C615 C 0.79208 0.16892 0.47756 0.0
C616 C 0.81772 0.17285 0.5013 0.0
C617 C 0.8401 0.16343 0.48176 0.0
H618 H 0.77478 0.17629 0.4927 0.0
H619 H 0.9927 0.08513 0.30461 0.0
H620 H 0.74275 0.19114 0.20158 0.0
H621 H 0.71819 0.15363 0.15501 0.0
H622 H 0.66427 0.14976 0.25463 0.0
H623 H 0.68871 0.18776 0.30084 0.0
H624 H 0.67668 0.09828 0.20429 0.0
H625 H 0.64723 0.18934 0.18267 0.0
H626 H 0.65857 0.23509 0.16867 0.0
H627 H 0.68786 0.20439 0.04629 0.0
H628 H 0.67698 0.15842 0.05991 0.0
H629 H 0.54164 0.09137 0.05145 0.0
H630 H 0.58023 0.1171 0.09337 0.0
H631 H 0.63113 0.05066 0.06562 0.0
H632 H 0.59227 0.02445 0.0264 0.0
H633 H 0.62574 0.13489 0.07572 0.0
H634 H 0.68211 0.05053 0.14373 0.0
H635 H 0.67614 1.00436 0.16061 0.0
H636 H 0.5967 0.02109 0.19171 0.0
H637 H 0.60188 0.06729 0.1742 0.0
C638 C 0.72581 0.18204 0.21347 0.0
C639 C 0.71676 0.19267 0.25346 0.0
C640 C 0.71213 0.16046 0.18737 0.0
C641 C 0.68924 0.14944 0.20122 0.0
C642 C 0.68194 0.15818 0.24357 0.0
C643 C 0.69576 0.17981 0.26978 0.0
C644 C 0.67038 0.13245 0.16881 0.0
C645 C 0.66557 0.10611 0.176 0.0
C646 C 0.65633 0.14282 0.13179 0.0
C647 C 0.66138 0.17049 0.12236 0.0
C648 C 0.65605 0.19237 0.15276 0.0
C649 C 0.66243 0.21832 0.14494 0.0
C650 C 0.6739 0.22263 0.1066 0.0
C651 C 0.67891 0.20101 0.07592 0.0
C652 C 0.67261 0.17502 0.08363 0.0
C653 C 0.56114 0.08245 0.0542 0.0
C654 C 0.56412 0.05601 0.03635 0.0
C655 C 0.58315 0.09707 0.07806 0.0
C656 C 0.60847 0.08557 0.08358 0.0
C657 C 0.61167 0.05964 0.06318 0.0
C658 C 0.58954 0.0448 0.04047 0.0
C659 C 0.63111 0.10061 0.11179 0.0
C660 C 0.63687 0.12676 0.10367 0.0
C661 C 0.64624 0.08992 0.14771 0.0
C662 C 0.64232 0.0622 0.15732 0.0
C663 C 0.66329 0.04428 0.15398 0.0
C664 C 0.65999 0.01812 0.16348 0.0
C665 C 0.6359 0.00976 0.17686 0.0
C666 C 0.6151 0.02756 0.18075 0.0
C667 C 0.61816 0.05369 0.1709 0.0
H668 H 0.63338 0.98953 0.18444 0.0
H669 H 0.67891 0.24272 0.10068 0.0
H670 H 0.73562 0.82656 0.81265 0.0
H671 H 0.70897 0.85907 0.85366 0.0
H672 H 0.63618 0.8178 0.78939 0.0
H673 H 0.6626 0.78508 0.74912 0.0
H674 H 0.63565 0.87371 0.78863 0.0
H675 H 0.65841 0.80919 0.8932 0.0
H676 H 0.68848 0.78392 0.94209 0.0
H677 H 0.72366 0.85708 0.013 0.0
H678 H 0.69419 0.8828 0.96404 0.0
H679 H 0.53574 0.92698 0.91402 0.0
H680 H 0.56631 0.89861 0.87473 0.0
H681 H 0.63319 0.93303 0.96757 0.0
H682 H 0.60243 0.96071 1.00815 0.0
H683 H 0.63988 0.88341 0.95366 0.0
H684 H 0.61901 0.94883 0.85601 0.0
H685 H 0.59122 0.9772 0.80937 0.0
H686 H 0.55667 0.90771 0.72586 0.0
H687 H 0.58393 0.87885 0.77244 0.0
C688 C 0.71394 0.82441 0.80744 0.0
C689 C 0.70118 0.80323 0.77785 0.0
C690 C 0.69876 0.84296 0.83088 0.0
C691 C 0.67059 0.84077 0.8247 0.0
C692 C 0.65788 0.81987 0.79464 0.0
C693 C 0.67301 0.80117 0.77172 0.0
C694 C 0.65415 0.86021 0.84929 0.0
C695 C 0.63635 0.87572 0.8247 0.0
C696 C 0.65589 0.86355 0.89644 0.0
C697 C 0.67427 0.84793 0.92463 0.0
C698 C 0.67281 0.81989 0.91879 0.0
C699 C 0.68969 0.80549 0.94663 0.0
C700 C 0.70792 0.81891 0.98065 0.0
C701 C 0.70952 0.84673 0.98664 0.0
C702 C 0.69276 0.86122 0.95885 0.0
C703 C 0.55696 0.9285 0.9261 0.0
C704 C 0.56667 0.94611 0.96418 0.0
C705 C 0.5745 0.9124 0.90334 0.0
C706 C 0.60224 0.91399 0.91746 0.0
C707 C 0.61192 0.93143 0.95582 0.0
C708 C 0.59431 0.94723 0.97906 0.0
C709 C 0.62097 0.89686 0.89308 0.0
C710 C 0.63923 0.88172 0.91762 0.0
C711 C 0.6201 0.89436 0.84591 0.0
C712 C 0.60337 0.91164 0.81805 0.0
C713 C 0.6053 0.93956 0.82798 0.0
C714 C 0.58967 0.95574 0.80148 0.0
C715 C 0.57215 0.94426 0.76473 0.0
C716 C 0.57023 0.91657 0.75438 0.0
C717 C 0.58578 0.90029 0.78081 0.0
H718 H 0.56011 0.95683 0.74421 0.0
H719 H 0.7207 0.80783 1.00262 0.0
H720 H 0.54129 0.56029 0.89513 0.0
H721 H 0.57191 0.58906 0.8643 0.0
H722 H 0.62679 0.5931 0.98569 0.0
H723 H 0.59576 0.56482 0.0174 0.0
H724 H 0.62349 0.64102 0.95773 0.0
H725 H 0.63728 0.55249 0.8864 0.0
H726 H 0.62207 0.50928 0.8435 0.0
H727 H 0.58943 0.54933 0.73298 0.0
H728 H 0.60425 0.59281 0.7754 0.0
H729 H 0.7324 0.6997 0.87307 0.0
H730 H 0.70369 0.66938 0.9048 0.0
H731 H 0.65189 0.65685 0.77959 0.0
H732 H 0.68174 0.68579 0.74691 0.0
H733 H 0.65391 0.61282 0.81047 0.0
H734 H 0.63789 0.70081 0.87944 0.0
H735 H 0.65139 0.7449 0.92069 0.0
H736 H 0.68563 0.70759 0.03338 0.0
H737 H 0.67248 0.66324 0.99264 0.0
C738 C 0.55989 0.5672 0.91538 0.0
C739 C 0.56605 0.55998 0.95877 0.0
C740 C 0.57751 0.58364 0.89754 0.0
C741 C 0.60204 0.593 0.9222 0.0
C742 C 0.6081 0.58614 0.96579 0.0
C743 C 0.59033 0.56985 0.98387 0.0
C744 C 0.62129 0.60986 0.90251 0.0
C745 C 0.63041 0.63467 0.9258 0.0
C746 C 0.62989 0.60209 0.86022 0.0
C747 C 0.62172 0.57591 0.8342 0.0
C748 C 0.62681 0.55208 0.85299 0.0
C749 C 0.61825 0.52755 0.82876 0.0
C750 C 0.60474 0.52657 0.78558 0.0
C751 C 0.5999 0.55012 0.76643 0.0
C752 C 0.60842 0.57471 0.79052 0.0
C753 C 0.71497 0.69035 0.85221 0.0
C754 C 0.70932 0.69525 0.80747 0.0
C755 C 0.69833 0.67315 0.87055 0.0
C756 C 0.67496 0.66122 0.84522 0.0
C757 C 0.66962 0.66575 0.80017 0.0
C758 C 0.68671 0.68237 0.78143 0.0
C759 C 0.6561 0.64415 0.86554 0.0
C760 C 0.64704 0.61926 0.8424 0.0
C761 C 0.64727 0.65203 0.90771 0.0
C762 C 0.65436 0.6787 0.93286 0.0
C763 C 0.64832 0.70201 0.913 0.0
C764 C 0.65593 0.72705 0.93628 0.0
C765 C 0.66942 0.72904 0.9796 0.0
C766 C 0.67518 0.70601 0.99983 0.0
C767 C 0.6676 0.68092 0.9767 0.0
H768 H 0.67537 0.74843 0.99751 0.0
H769 H 0.59805 0.50757 0.76694 0.0
H770 H 0.69298 0.29264 0.13447 0.0
H771 H 0.66248 0.32472 0.10359 0.0
H772 H 0.6604 0.36612 0.23548 0.0
H773 H 0.69103 0.33401 0.26694 0.0
H774 H 0.60973 0.36071 0.18486 0.0
H775 H 0.69834 0.39184 0.17105 0.0
H776 H 0.74425 0.38773 0.15058 0.0
H777 H 0.71263 0.36792 0.01267 0.0
H778 H 0.66648 0.37149 0.03243 0.0
H779 H 0.58138 0.48331 0.05276 0.0
H780 H 0.61264 0.45639 0.09594 0.0
H781 H 0.56008 0.38724 0.05496 0.0
H782 H 0.52886 0.41396 0.01203 0.0
H783 H 0.64012 0.41182 0.0691 0.0
H784 H 0.56063 0.3508 0.14185 0.0
H785 H 0.51509 0.35684 0.16339 0.0
H786 H 0.53019 0.44145 0.18966 0.0
H787 H 0.57593 0.43589 0.16901 0.0
C788 C 0.68596 0.30843 0.1571 0.0
C789 C 0.69464 0.3108 0.20324 0.0
C790 C 0.66854 0.32681 0.13931 0.0
C791 C 0.65937 0.34796 0.16718 0.0
C792 C 0.66727 0.34996 0.21339 0.0
C793 C 0.68487 0.33164 0.23126 0.0
C794 C 0.64232 0.36841 0.14757 0.0
C795 C 0.61638 0.37195 0.15967 0.0
C796 C 0.65122 0.38352 0.11543 0.0
C797 C 0.67894 0.38175 0.10328 0.0
C798 C 0.70117 0.38644 0.13639 0.0
C799 C 0.72724 0.38423 0.12491 0.0
C800 C 0.73135 0.37753 0.08036 0.0
C801 C 0.7094 0.3731 0.04718 0.0
C802 C 0.68328 0.37524 0.05849 0.0
C803 C 0.57656 0.46236 0.05301 0.0
C804 C 0.55272 0.4507 0.02909 0.0
C805 C 0.59443 0.44702 0.07756 0.0
C806 C 0.58857 0.41987 0.07897 0.0
C807 C 0.56485 0.40821 0.05478 0.0
C808 C 0.54709 0.42347 0.0301 0.0
C809 C 0.60725 0.40352 0.10534 0.0
C810 C 0.63351 0.40074 0.09452 0.0
C811 C 0.59877 0.38948 0.13916 0.0
C812 C 0.57167 0.3929 0.15354 0.0
C813 C 0.55432 0.37066 0.15259 0.0
C814 C 0.52845 0.37401 0.16459 0.0
C815 C 0.51972 0.39951 0.17774 0.0
C816 C 0.53693 0.42171 0.17931 0.0
C817 C 0.56283 0.41846 0.16746 0.0
H818 H 0.49964 0.40206 0.18675 0.0
H819 H 0.75155 0.37581 0.07154 0.0
H820 H 0.93674 0.48924 0.46148 0.0
H821 H 0.90161 0.46873 0.4046 0.0
H822 H 0.92833 0.39071 0.43085 0.0
H823 H 0.96414 0.41122 0.48694 0.0
H824 H 0.91913 0.39392 0.34288 0.0
H825 H 0.87331 0.41818 0.47326 0.0
H826 H 0.8587 0.44963 0.5334 0.0
H827 H 0.81831 0.49501 0.43596 0.0
H828 H 0.83298 0.46397 0.37523 0.0
H829 H 0.81043 0.30512 0.32728 0.0
H830 H 0.83848 0.34388 0.35986 0.0
H831 H 0.82018 0.38072 0.23917 0.0
H832 H 0.79188 0.34145 0.2057 0.0
H833 H 0.82282 0.40779 0.35734 0.0
H834 H 0.86902 0.37914 0.22525 0.0
H835 H 0.8826 0.34362 0.17024 0.0
H836 H 0.92121 0.3036 0.27657 0.0
H837 H 0.90751 0.33874 0.33216 0.0
C838 C 0.93511 0.4677 0.4551 0.0
C839 C 0.9531 0.45171 0.47842 0.0
C840 C 0.91502 0.45606 0.4227 0.0
C841 C 0.91237 0.42826 0.41371 0.0
C842 C 0.93021 0.41225 0.43724 0.0
C843 C 0.95047 0.42391 0.46942 0.0
C844 C 0.89086 0.41563 0.38017 0.0
C845 C 0.89808 0.39728 0.34568 0.0
C846 C 0.86342 0.42043 0.38329 0.0
C847 C 0.85452 0.43898 0.41977 0.0
C848 C 0.86149 0.43499 0.46469 0.0
C849 C 0.85317 0.45271 0.49887 0.0
C850 C 0.83767 0.47436 0.48851 0.0
C851 C 0.83037 0.47827 0.44393 0.0
C852 C 0.83868 0.46062 0.40963 0.0
C853 C 0.812 0.32159 0.3078 0.0
C854 C 0.79922 0.32031 0.26391 0.0
C855 C 0.82796 0.34369 0.32649 0.0
C856 C 0.83133 0.36489 0.30171 0.0
C857 C 0.81773 0.36435 0.25853 0.0
C858 C 0.80173 0.34201 0.23955 0.0
C859 C 0.85121 0.38598 0.32078 0.0
C860 C 0.84385 0.40563 0.35314 0.0
C861 C 0.87853 0.38235 0.31596 0.0
C862 C 0.88707 0.3614 0.28273 0.0
C863 C 0.88023 0.36265 0.23683 0.0
C864 C 0.88798 0.34262 0.20558 0.0
C865 C 0.90271 0.32133 0.21991 0.0
C866 C 0.90978 0.32008 0.26552 0.0
C867 C 0.90206 0.34006 0.2969 0.0
H868 H 0.90868 0.30584 0.19567 0.0
H869 H 0.83125 0.48807 0.51502 0.0
H870 H 0.78663 0.68617 0.6961 0.0
H871 H 0.81544 0.65314 0.6617 0.0
H872 H 0.88419 0.68876 0.74887 0.0
H873 H 0.85582 0.72261 0.78101 0.0
H874 H 0.89886 0.67837 0.67318 0.0
H875 H 0.85072 0.62667 0.76181 0.0
H876 H 0.81094 0.608 0.78903 0.0
H877 H 0.78418 0.56922 0.65731 0.0
H878 H 0.82363 0.58796 0.62916 0.0
H879 H 0.98571 0.56827 0.63872 0.0
H880 H 0.95564 0.59943 0.6748 0.0
H881 H 0.89431 0.58059 0.56283 0.0
H882 H 0.92426 0.54992 0.52626 0.0
H883 H 0.87624 0.58142 0.65093 0.0
H884 H 0.92658 0.63479 0.56495 0.0
H885 H 0.96826 0.65247 0.54232 0.0
H886 H 0.99313 0.68699 0.67732 0.0
H887 H 0.95174 0.66916 0.70087 0.0
C888 C 0.8079 0.68692 0.70772 0.0
C889 C 0.81898 0.70701 0.74107 0.0
C890 C 0.82436 0.66788 0.68836 0.0
C891 C 0.85208 0.66809 0.703 0.0
C892 C 0.86298 0.68809 0.73671 0.0
C893 C 0.84668 0.70741 0.75525 0.0
C894 C 0.87 0.64806 0.68273 0.0
C895 C 0.89397 0.65716 0.66905 0.0
C896 C 0.86369 0.6203 0.67647 0.0
C897 C 0.83999 0.60894 0.6933 0.0
C898 C 0.83625 0.61432 0.73859 0.0
C899 C 0.81378 0.6037 0.75419 0.0
C900 C 0.79501 0.5875 0.7249 0.0
C901 C 0.79871 0.58181 0.67995 0.0
C902 C 0.82114 0.59241 0.66416 0.0
C903 C 0.9658 0.57073 0.62188 0.0
C904 C 0.95744 0.55678 0.57952 0.0
C905 C 0.94867 0.58852 0.64249 0.0
C906 C 0.92278 0.59231 0.62139 0.0
C907 C 0.91419 0.57792 0.57966 0.0
C908 C 0.93142 0.56053 0.55872 0.0
C909 C 0.90487 0.61188 0.64207 0.0
C910 C 0.88098 0.60267 0.65552 0.0
C911 C 0.91146 0.63947 0.64897 0.0
C912 C 0.93621 0.6504 0.63475 0.0
C913 C 0.94104 0.64595 0.58988 0.0
C914 C 0.96459 0.65604 0.57687 0.0
C915 C 0.98337 0.67078 0.60839 0.0
C916 C 0.97859 0.67553 0.65296 0.0
C917 C 0.95508 0.66546 0.66615 0.0
H918 H 1.00159 0.67857 0.59825 0.0
H919 H 0.77762 0.5793 0.73704 0.0
H920 H 0.32298 0.33663 0.26893 0.0
H921 H 0.35256 0.36753 0.23983 0.0
H922 H 0.3323 0.32634 0.10711 0.0
H923 H 0.30328 0.29501 0.13611 0.0
H924 H 0.38376 0.3375 0.1197 0.0
H925 H 0.30576 0.3885 0.14346 0.0
H926 H 0.27104 0.4085 0.18662 0.0
H927 H 0.33184 0.4531 0.27852 0.0
H928 H 0.36697 0.43309 0.23621 0.0
H929 H 0.42937 0.43866 0.99773 0.0
H930 H 0.40028 0.40834 0.0294 0.0
H931 H 0.43235 0.44246 0.16227 0.0
H932 H 0.46172 0.47256 0.13102 0.0
H933 H 0.37575 0.43543 0.15076 0.0
H934 H 0.45357 0.38517 0.12549 0.0
H935 H 0.48802 0.36598 0.08094 0.0
H936 H 0.4271 0.3203 0.99094 0.0
H937 H 0.39218 0.33967 0.03439 0.0
C938 C 0.32475 0.33414 0.23352 0.0
C939 C 0.31056 0.31328 0.20496 0.0
C940 C 0.34164 0.35197 0.2168 0.0
C941 C 0.34453 0.34966 0.17098 0.0
C942 C 0.33054 0.32869 0.14253 0.0
C943 C 0.31381 0.31077 0.15924 0.0
C944 C 0.36213 0.3689 0.15262 0.0
C945 C 0.38168 0.35889 0.12609 0.0
C946 C 0.36008 0.39696 0.16154 0.0
C947 C 0.339 0.40909 0.18692 0.0
C948 C 0.31174 0.40242 0.17305 0.0
C949 C 0.29199 0.41378 0.19734 0.0
C950 C 0.29924 0.432 0.23536 0.0
C951 C 0.32626 0.43895 0.2491 0.0
C952 C 0.34609 0.42763 0.22496 0.0
C953 C 0.43016 0.43984 0.03369 0.0
C954 C 0.44796 0.45811 0.06173 0.0
C955 C 0.41356 0.4224 0.05177 0.0
C956 C 0.41415 0.42299 0.09829 0.0
C957 C 0.43147 0.4416 0.12633 0.0
C958 C 0.44833 0.45877 0.10831 0.0
C959 C 0.39706 0.40395 0.11769 0.0
C960 C 0.37771 0.41402 0.14443 0.0
C961 C 0.39924 0.37598 0.10888 0.0
C962 C 0.42022 0.3641 0.08294 0.0
C963 C 0.44748 0.37122 0.09597 0.0
C964 C 0.4671 0.36028 0.07097 0.0
C965 C 0.45975 0.34196 0.03312 0.0
C966 C 0.43276 0.33452 0.02024 0.0
C967 C 0.41304 0.34548 0.04504 0.0
H968 H 0.47497 0.33351 0.01382 0.0
H969 H 0.28391 0.44077 0.25411 0.0
H970 H 0.48454 0.60475 1.00834 0.0
H971 H 0.45237 0.63195 0.96818 0.0
H972 H 0.39976 0.56283 0.92732 0.0
H973 H 0.43198 0.53544 0.96762 0.0
H974 H 0.43204 0.62923 0.88016 0.0
H975 H 0.33465 0.58451 0.9277 0.0
H976 H 0.31933 0.56161 0.98798 0.0
H977 H 0.38351 0.59997 0.08094 0.0
H978 H 0.39899 0.62335 0.02137 0.0
H979 H 0.31469 0.67559 0.75464 0.0
H980 H 0.34667 0.64612 0.79046 0.0
H981 H 0.345 0.69395 0.91723 0.0
H982 H 0.31343 0.72362 0.88183 0.0
H983 H 0.33947 0.63784 0.92057 0.0
H984 H 0.39648 0.70203 0.86908 0.0
H985 H 0.41251 0.72793 0.81305 0.0
H986 H 0.4309 0.65545 0.73539 0.0
H987 H 0.41458 0.62912 0.79078 0.0
C988 C 0.46611 0.59533 0.99081 0.0
C989 C 0.46067 0.56801 0.99134 0.0
C990 C 0.44782 0.61088 0.96766 0.0
C991 C 0.42359 0.59949 0.94492 0.0
C992 C 0.41822 0.5721 0.94496 0.0
C993 C 0.43663 0.55648 0.96793 0.0
C994 C 0.4038 0.61655 0.92213 0.0
C995 C 0.41175 0.63094 0.8888 0.0
C996 C 0.37741 0.61913 0.93375 0.0
C997 C 0.36813 0.60542 0.96995 0.0
C998 C 0.34544 0.5881 0.96104 0.0
C999 C 0.33673 0.57504 0.99507 0.0
C1000 C 0.3505 0.57926 0.03822 0.0
C1001 C 0.37294 0.59663 0.04746 0.0
C1002 C 0.3817 0.60976 0.01357 0.0
C1003 C 0.32112 0.67982 0.79014 0.0
C1004 C 0.31151 0.70199 0.81532 0.0
C1005 C 0.33941 0.66299 0.81052 0.0
C1006 C 0.34814 0.66784 0.85651 0.0
C1007 C 0.33841 0.68978 0.88176 0.0
C1008 C 0.32046 0.7068 0.86135 0.0
C1009 C 0.36766 0.65024 0.87839 0.0
C1010 C 0.35965 0.6358 0.91154 0.0
C1011 C 0.39408 0.64789 0.86704 0.0
C1012 C 0.40401 0.66362 0.83379 0.0
C1013 C 0.4037 0.69163 0.83985 0.0
C1014 C 0.41289 0.70638 0.80826 0.0
C1015 C 0.42264 0.69334 0.77059 0.0
C1016 C 0.42329 0.66552 0.76454 0.0
C1017 C 0.41409 0.65068 0.79605 0.0
H1018 H 0.42976 0.70479 0.74615 0.0
H1019 H 0.34374 0.56911 0.06451 0.0
H1020 H 0.20666 0.70035 0.69011 0.0
H1021 H 0.18251 0.65895 0.66009 0.0
H1022 H 0.18765 0.63469 0.79233 0.0
H1023 H 0.21287 0.67639 0.82271 0.0
H1024 H 0.19333 0.60467 0.66194 0.0
H1025 H 0.12193 0.6065 0.79184 0.0
H1026 H 0.10645 0.63662 0.85304 0.0
H1027 H 0.11849 0.70381 0.78243 0.0
H1028 H 0.13371 0.67402 0.72069 0.0
H1029 H 0.08585 0.51329 0.56192 0.0
H1030 H 0.11995 0.53421 0.62065 0.0
H1031 H 0.0858 0.61095 0.60597 0.0
H1032 H 0.05146 0.5901 0.54766 0.0
H1033 H 0.09891 0.60289 0.69472 0.0
H1034 H 0.13876 0.59231 0.55405 0.0
H1035 H 0.15306 0.5654 0.48837 0.0
H1036 H 0.20318 0.52007 0.57447 0.0
H1037 H 0.1889 0.54656 0.64067 0.0
C1038 C 0.20331 0.68599 0.71269 0.0
C1039 C 0.21166 0.69149 0.75858 0.0
C1040 C 0.18957 0.66228 0.69551 0.0
C1041 C 0.18349 0.64378 0.724 0.0
C1042 C 0.19237 0.64876 0.76989 0.0
C1043 C 0.20658 0.67252 0.78712 0.0
C1044 C 0.16521 0.62114 0.70515 0.0
C1045 C 0.17286 0.60366 0.66988 0.0
C1046 C 0.13856 0.62003 0.7155 0.0
C1047 C 0.1293 0.63812 0.75211 0.0
C1048 C 0.12125 0.62771 0.78947 0.0
C1049 C 0.11251 0.64471 0.82419 0.0
C1050 C 0.11161 0.67213 0.82171 0.0
C1051 C 0.11932 0.68259 0.7844 0.0
C1052 C 0.12802 0.66566 0.74957 0.0
C1053 C 0.08564 0.53463 0.57134 0.0
C1054 C 0.06621 0.55021 0.55028 0.0
C1055 C 0.10501 0.54647 0.60492 0.0
C1056 C 0.10525 0.57403 0.61759 0.0
C1057 C 0.08571 0.58957 0.59681 0.0
C1058 C 0.06635 0.57775 0.56325 0.0
C1059 C 0.12679 0.58729 0.65031 0.0
C1060 C 0.11968 0.60287 0.68815 0.0
C1061 C 0.15387 0.58692 0.64193 0.0
C1062 C 0.16252 0.57114 0.6022 0.0
C1063 C 0.15267 0.57647 0.55892 0.0
C1064 C 0.1608 0.56133 0.52163 0.0
C1065 C 0.17894 0.54097 0.52724 0.0
C1066 C 0.18907 0.53579 0.57018 0.0
C1067 C 0.18098 0.55086 0.60758 0.0
H1068 H 0.18521 0.52927 0.49833 0.0
H1069 H 0.10486 0.68526 0.84864 0.0
H1070 H 0.23229 0.32418 0.3044 0.0
H1071 H 0.20368 0.35561 0.34338 0.0
H1072 H 0.13377 0.31986 0.25996 0.0
H1073 H 0.16204 0.28775 0.22222 0.0
H1074 H 0.13892 0.37984 0.27347 0.0
H1075 H 0.14271 0.3015 0.35233 0.0
H1076 H 0.16663 0.26777 0.39295 0.0
H1077 H 0.20214 0.3293 0.49337 0.0
H1078 H 0.17908 0.36347 0.45262 0.0
H1079 H 0.03363 0.43461 0.38556 0.0
H1080 H 0.06319 0.40474 0.34646 0.0
H1081 H 0.1252 0.42019 0.45849 0.0
H1082 H 0.09526 0.44903 0.49849 0.0
H1083 H 0.12578 0.37105 0.43044 0.0
H1084 H 0.12567 0.44925 0.3572 0.0
H1085 H 0.10657 0.48596 0.3181 0.0
H1086 H 0.06947 0.42956 0.21061 0.0
H1087 H 0.08811 0.39242 0.24936 0.0
C1088 C 0.21083 0.323 0.29451 0.0
C1089 C 0.19934 0.3033 0.26073 0.0
C1090 C 0.19454 0.341 0.31664 0.0
C1091 C 0.16663 0.33994 0.3046 0.0
C1092 C 0.15527 0.32098 0.26969 0.0
C1093 C 0.17144 0.30263 0.24828 0.0
C1094 C 0.14906 0.35792 0.32938 0.0
C1095 C 0.13576 0.37782 0.30764 0.0
C1096 C 0.14574 0.35573 0.37438 0.0
C1097 C 0.15942 0.3351 0.39907 0.0
C1098 C 0.15589 0.30788 0.38276 0.0
C1099 C 0.16928 0.28867 0.40584 0.0
C1100 C 0.18599 0.29639 0.44563 0.0
C1101 C 0.18929 0.32334 0.46245 0.0
C1102 C 0.17609 0.34264 0.43934 0.0
C1103 C 0.05355 0.43159 0.40188 0.0
C1104 C 0.0621 0.44424 0.4451 0.0
C1105 C 0.07054 0.41462 0.37936 0.0
C1106 C 0.09674 0.4105 0.39904 0.0
C1107 C 0.10515 0.42295 0.44244 0.0
C1108 C 0.088 0.43951 0.4653 0.0
C1109 C 0.11531 0.39319 0.37459 0.0
C1110 C 0.12886 0.3733 0.39633 0.0
C1111 C 0.1194 0.39584 0.32988 0.0
C1112 C 0.1081 0.41805 0.30639 0.0
C1113 C 0.11328 0.44465 0.32538 0.0
C1114 C 0.10257 0.46553 0.30326 0.0
C1115 C 0.0868 0.46008 0.26194 0.0
C1116 C 0.08169 0.43373 0.24264 0.0
C1117 C 0.09235 0.41276 0.26464 0.0
H1118 H 0.07866 0.4763 0.24483 0.0
H1119 H 0.19631 0.28148 0.46349 0.0
H1120 H 0.98041 1.00144 0.80294 0.0
H1121 H 0.97381 0.99998 0.88076 0.0
H1122 H 0.05056 0.04037 0.92312 0.0
H1123 H 0.05821 0.0402 0.84538 0.0
H1124 H 0.04564 1.0032 0.97256 0.0
H1125 H 0.98773 0.07218 0.92781 0.0
H1126 H 0.95191 0.09225 0.88086 0.0
H1127 H 0.89469 0.03425 0.90858 0.0
H1128 H 0.93024 0.01362 0.95525 0.0
H1129 H 0.02375 0.02884 0.20051 0.0
H1130 H 0.03047 0.03602 0.12427 0.0
H1131 H 0.95734 0.99086 0.07361 0.0
H1132 H 0.94992 0.98455 0.14966 0.0
H1133 H 0.96131 0.03296 0.0298 0.0
H1134 H 0.02033 0.96315 0.07206 0.0
H1135 H 0.05639 0.94381 0.11963 0.0
H1136 H 0.11189 0.00494 0.09716 0.0
H1137 H 0.07605 0.02483 0.04988 0.0
C1138 C 0.99611 0.00975 0.82865 0.0
C1139 C 0.01986 0.02103 0.8174 0.0
C1140 C 0.99209 0.00926 0.87338 0.0
C1141 C 0.01142 0.02054 0.90815 0.0
C1142 C 0.0352 0.03168 0.89709 0.0
C1143 C 0.0394 0.03185 0.85239 0.0
C1144 C 1.00718 0.0202 0.95596 0.0
C1145 C 0.02735 0.01014 0.98513 0.0
C1146 C 0.98316 0.02877 0.97258 0.0
C1147 C 0.96171 0.04123 0.94472 0.0
C1148 C 0.96755 0.0636 0.92366 0.0
C1149 C 0.94728 0.07509 0.89713 0.0
C1150 C 0.92106 0.06449 0.89166 0.0
C1151 C 0.91502 0.04242 0.91281 0.0
C1152 C 0.93521 0.03084 0.93935 0.0
C1153 C 0.00885 0.02081 0.17324 0.0
C1154 C 0.98641 0.00586 0.18135 0.0
C1155 C 0.01288 0.02469 0.12955 0.0
C1156 C 0.99468 0.01355 0.09297 0.0
C1157 C 0.97178 0.9995 0.10113 0.0
C1158 C 0.9677 0.9957 0.14472 0.0
C1159 C 0.99968 0.01585 0.04611 0.0
C1160 C 0.97965 0.02623 0.01716 0.0
C1161 C 0.02387 0.00772 0.02974 0.0
C1162 C 0.04546 0.99562 0.05781 0.0
C1163 C 0.04019 0.97256 0.0775 0.0
C1164 C 0.06059 0.96148 0.10437 0.0
C1165 C 0.0864 0.97317 0.1115 0.0
C1166 C 0.09188 0.99592 0.09166 0.0
C1167 C 0.07154 0.00709 0.06479 0.0
H1168 H 0.10216 0.96458 0.13233 0.0
H1169 H 0.9054 0.07341 0.8711 0.0
H1170 H 0.25823 0.78738 0.45398 0.0
H1171 H 0.2584 0.79518 0.37611 0.0
H1172 H 0.24254 0.71132 0.33393 0.0
H1173 H 0.24354 0.70318 0.41173 0.0
H1174 H 0.27995 0.72983 0.28989 0.0
H1175 H 0.19308 0.75784 0.3247 0.0
H1176 H 0.16205 0.78357 0.36887 0.0
H1177 H 0.19719 0.85672 0.34031 0.0
H1178 H 0.22877 0.83144 0.29662 0.0
H1179 H 0.24149 0.73547 0.05951 0.0
H1180 H 0.24182 0.72917 0.13799 0.0
H1181 H 0.25699 0.81352 0.17581 0.0
H1182 H 0.25545 0.82018 0.09715 0.0
H1183 H 0.22059 0.79569 0.22261 0.0
H1184 H 0.30731 0.76795 0.18789 0.0
H1185 H 0.33922 0.74246 0.14529 0.0
H1186 H 0.3048 0.66909 0.17434 0.0
H1187 H 0.27243 0.69413 0.21664 0.0
C1188 C 0.255 0.77054 0.4282 0.0
C1189 C 0.25076 0.74465 0.43926 0.0
C1190 C 0.25484 0.77508 0.3836 0.0
C1191 C 0.25014 0.75389 0.34901 0.0
C1192 C 0.2461 0.72802 0.35996 0.0
C1193 C 0.24639 0.72344 0.40451 0.0
C1194 C 0.2496 0.75855 0.30142 0.0
C1195 C 0.26671 0.74398 0.27504 0.0
C1196 C 0.23283 0.77751 0.28225 0.0
C1197 C 0.21346 0.79274 0.30772 0.0
C1198 C 0.1943 0.77942 0.32805 0.0
C1199 C 0.17661 0.79392 0.35299 0.0
C1200 C 0.17769 0.82176 0.35746 0.0
C1201 C 0.1964 0.83516 0.33686 0.0
C1202 C 0.2142 0.82075 0.31199 0.0
C1203 C 0.24462 0.75276 0.0844 0.0
C1204 C 0.2485 0.77835 0.07181 0.0
C1205 C 0.2451 0.74907 0.1294 0.0
C1206 C 0.24981 0.77081 0.16299 0.0
C1207 C 0.25344 0.79641 0.15058 0.0
C1208 C 0.25283 0.80014 0.10553 0.0
C1209 C 0.25084 0.76684 0.21099 0.0
C1210 C 0.23384 0.78155 0.23746 0.0
C1211 C 0.26774 0.74802 0.2303 0.0
C1212 C 0.28729 0.73292 0.20509 0.0
C1213 C 0.30642 0.74637 0.18493 0.0
C1214 C 0.32461 0.73201 0.16088 0.0
C1215 C 0.324 0.70417 0.15701 0.0
C1216 C 0.30524 0.69065 0.17731 0.0
C1217 C 0.28698 0.70492 0.20137 0.0
H1218 H 0.33809 0.69309 0.13837 0.0
H1219 H 0.164 0.83296 0.37683 0.0
H1220 H 0.50658 0.95781 0.70156 0.0
H1221 H 0.51215 0.95747 0.62273 0.0
H1222 H 0.49763 0.0417 0.63172 0.0
H1223 H 0.49064 0.04193 0.70989 0.0
H1224 H 0.47151 0.01705 0.55719 0.0
H1225 H 0.56174 0.01652 0.63108 0.0
H1226 H 0.59785 0.99925 0.68136 0.0
H1227 H 0.59183 0.92406 0.59825 0.0
H1228 H 0.55537 0.94074 0.54784 0.0
H1229 H 0.51752 0.04127 0.35354 0.0
H1230 H 0.51224 0.04147 0.4324 0.0
H1231 H 0.5278 0.95746 0.42327 0.0
H1232 H 0.53453 0.95738 0.34501 0.0
H1233 H 0.55343 0.98184 0.49797 0.0
H1234 H 0.46312 0.98193 0.42461 0.0
H1235 H 0.42576 0.99828 0.37569 0.0
H1236 H 0.43132 0.07369 0.45818 0.0
H1237 H 0.46896 0.05789 0.5073 0.0
C1238 C 0.50431 0.97624 0.68673 0.0
C1239 C 0.49823 0.99992 0.71231 0.0
C1240 C 0.5078 0.97607 0.64168 0.0
C1241 C 0.50568 0.99965 0.6213 0.0
C1242 C 0.49948 0.02327 0.64665 0.0
C1243 C 0.4958 0.02342 0.69159 0.0
C1244 C 0.5098 0.99974 0.57355 0.0
C1245 C 0.48959 0.00969 0.54439 0.0
C1246 C 0.5331 0.98957 0.5565 0.0
C1247 C 0.55567 0.97982 0.58588 0.0
C1248 C 0.56805 0.99627 0.62361 0.0
C1249 C 0.58857 0.98658 0.65215 0.0
C1250 C 0.59708 0.96055 0.64307 0.0
C1251 C 0.58519 0.94421 0.60528 0.0
C1252 C 0.56462 0.95378 0.57668 0.0
C1253 C 0.5201 0.02286 0.36831 0.0
C1254 C 0.52635 0.99928 0.3426 0.0
C1255 C 0.51677 0.02294 0.41341 0.0
C1256 C 0.51922 0.99938 0.43378 0.0
C1257 C 0.52568 0.97588 0.40836 0.0
C1258 C 0.52921 0.97581 0.36336 0.0
C1259 C 0.51514 0.99921 0.48156 0.0
C1260 C 0.53536 0.98924 0.51075 0.0
C1261 C 0.49182 0.00934 0.49866 0.0
C1262 C 0.46903 0.0188 0.46939 0.0
C1263 C 0.45649 1.00205 0.43215 0.0
C1264 C 0.43525 0.01122 0.40442 0.0
C1265 C 0.42622 0.03703 0.41376 0.0
C1266 C 0.43836 0.05371 0.45095 0.0
C1267 C 0.45963 0.04465 0.47878 0.0
H1268 H 0.40978 0.0441 0.39223 0.0
H1269 H 0.6129 0.95306 0.66529 0.0
H1270 H 0.24331 0.1979 0.90997 0.0
H1271 H 0.24616 0.20428 0.83225 0.0
H1272 H 0.2638 0.28813 0.87141 0.0
H1273 H 0.26133 0.28187 0.94952 0.0
H1274 H 0.22717 0.27999 0.79771 0.0
H1275 H 0.31312 0.2464 0.84512 0.0
H1276 H 0.34452 0.21519 0.8785 0.0
H1277 H 0.31233 0.15187 0.77857 0.0
H1278 H 0.28044 0.18263 0.74495 0.0
H1279 H 0.27429 0.3097 0.59723 0.0
H1280 H 0.27131 0.30289 0.67469 0.0
H1281 H 0.25047 0.21982 0.63368 0.0
H1282 H 0.25272 0.22655 0.55571 0.0
H1283 H 0.28862 0.22736 0.70802 0.0
H1284 H 0.20281 0.26135 0.66046 0.0
H1285 H 0.17174 0.29286 0.62714 0.0
H1286 H 0.20415 0.35581 0.72762 0.0
H1287 H 0.23573 0.32475 0.76116 0.0
C1288 C 0.24813 0.21767 0.90226 0.0
C1289 C 0.25229 0.23933 0.93625 0.0
C1290 C 0.24966 0.2213 0.85767 0.0
C1291 C 0.25549 0.24663 0.84594 0.0
C1292 C 0.25926 0.26839 0.87961 0.0
C1293 C 0.25776 0.26478 0.92429 0.0
C1294 C 0.25752 0.2504 0.79853 0.0
C1295 C 0.24088 0.26875 0.77831 0.0
C1296 C 0.27497 0.2353 0.7728 0.0
C1297 C 0.2942 0.21677 0.79279 0.0
C1298 C 0.31258 0.22577 0.83047 0.0
C1299 C 0.33049 0.20817 0.8494 0.0
C1300 C 0.33037 0.18154 0.83074 0.0
C1301 C 0.31237 0.17249 0.79303 0.0
C1302 C 0.29439 0.19001 0.774 0.0
C1303 C 0.26871 0.29002 0.60442 0.0
C1304 C 0.26354 0.26873 0.56989 0.0
C1305 C 0.26715 0.28614 0.64888 0.0
C1306 C 0.26042 0.2609 0.66001 0.0
C1307 C 0.25572 0.23948 0.62589 0.0
C1308 C 0.25712 0.24336 0.58129 0.0
C1309 C 0.25829 0.25696 0.70728 0.0
C1310 C 0.27491 0.23859 0.72745 0.0
C1311 C 0.24088 0.27207 0.73301 0.0
C1312 C 0.22182 0.29078 0.71305 0.0
C1313 C 0.20347 0.28197 0.67524 0.0
C1314 C 0.18574 0.29974 0.65634 0.0
C1315 C 0.18602 0.32634 0.67518 0.0
C1316 C 0.20398 0.3352 0.71302 0.0
C1317 C 0.22179 0.31752 0.73201 0.0
H1318 H 0.17227 0.34007 0.66051 0.0
H1319 H 0.34425 0.16794 0.84545 0.0
H1320 H 0.71862 0.23446 0.92664 0.0
H1321 H 0.71734 0.24105 0.8479 0.0
H1322 H 0.80312 0.25509 0.86629 0.0
H1323 H 0.80448 0.24904 0.9453 0.0
H1324 H 0.7776 0.291 0.81729 0.0
H1325 H 0.77693 0.19622 0.81592 0.0
H1326 H 0.76108 0.15258 0.83306 0.0
H1327 H 0.68388 0.16321 0.7608 0.0
H1328 H 0.69916 0.20712 0.74377 0.0
H1329 H 0.79548 0.27785 0.58674 0.0
H1330 H 0.79806 0.27035 0.66535 0.0
H1331 H 0.71213 0.25797 0.65101 0.0
H1332 H 0.70945 0.26513 0.57231 0.0
H1333 H 0.73857 0.22082 0.69784 0.0
H1334 H 0.73928 0.31599 0.70029 0.0
H1335 H 0.75533 0.35957 0.68322 0.0
H1336 H 0.83288 0.34798 0.75348 0.0
H1337 H 0.81739 0.30411 0.77042 0.0
C1338 C 0.73718 0.23919 0.91402 0.0
C1339 C 0.76167 0.24115 0.94222 0.0
C1340 C 0.73645 0.24272 0.86892 0.0
C1341 C 0.76018 0.24827 0.85106 0.0
C1342 C 0.78458 0.25072 0.87929 0.0
C1343 C 0.78535 0.24707 0.92435 0.0
C1344 C 0.75952 0.25151 0.80294 0.0
C1345 C 0.76942 0.2755 0.79117 0.0
C1346 C 0.74837 0.23149 0.76884 0.0
C1347 C 0.73911 0.20509 0.77897 0.0
C1348 C 0.7565 0.18936 0.80401 0.0
C1349 C 0.74763 0.16455 0.81364 0.0
C1350 C 0.72146 0.15516 0.79813 0.0
C1351 C 0.70413 0.17053 0.77286 0.0
C1352 C 0.71289 0.19537 0.76317 0.0
C1353 C 0.77717 0.27329 0.60025 0.0
C1354 C 0.75224 0.27221 0.57337 0.0
C1355 C 0.77865 0.2692 0.64523 0.0
C1356 C 0.75525 0.26386 0.66416 0.0
C1357 C 0.73042 0.26215 0.63714 0.0
C1358 C 0.72891 0.26643 0.59228 0.0
C1359 C 0.75658 0.26033 0.71223 0.0
C1360 C 0.74681 0.23628 0.72399 0.0
C1361 C 0.76789 0.28027 0.74631 0.0
C1362 C 0.77726 0.30664 0.73619 0.0
C1363 C 0.75982 0.32262 0.71176 0.0
C1364 C 0.76881 0.3474 0.70217 0.0
C1365 C 0.79513 0.3565 0.71714 0.0
C1366 C 0.81251 0.34088 0.74183 0.0
C1367 C 0.80363 0.31606 0.75146 0.0
H1368 H 0.80204 0.3757 0.7097 0.0
H1369 H 0.71464 0.13594 0.80561 0.0
H1370 H 0.71638 0.71049 0.41124 0.0
H1371 H 0.71986 0.71505 0.33308 0.0
H1372 H 0.77978 0.77816 0.37335 0.0
H1373 H 0.77557 0.77451 0.45184 0.0
H1374 H 0.74451 0.79078 0.30649 0.0
H1375 H 0.79636 0.71378 0.33471 0.0
H1376 H 0.804 0.6694 0.3592 0.0
H1377 H 0.74041 0.63553 0.26042 0.0
H1378 H 0.73217 0.67979 0.23572 0.0
H1379 H 0.79401 0.79642 0.10087 0.0
H1380 H 0.78888 0.79078 0.1777 0.0
H1381 H 0.73308 0.72464 0.13232 0.0
H1382 H 0.73963 0.72884 0.05499 0.0
H1383 H 0.76465 0.71313 0.20129 0.0
H1384 H 0.71294 0.78907 0.1715 0.0
H1385 H 0.70438 0.83318 0.1465 0.0
H1386 H 0.76581 0.86886 0.24761 0.0
H1387 H 0.77502 0.82489 0.27281 0.0
C1388 C 0.7301 0.72558 0.40362 0.0
C1389 C 0.74568 0.74215 0.43809 0.0
C1390 C 0.7323 0.72794 0.35876 0.0
C1391 C 0.75036 0.7467 0.34716 0.0
C1392 C 0.76578 0.76344 0.3814 0.0
C1393 C 0.76353 0.76116 0.42633 0.0
C1394 C 0.75303 0.749 0.29937 0.0
C1395 C 0.74926 0.77387 0.28363 0.0
C1396 C 0.75839 0.72679 0.26906 0.0
C1397 C 0.76349 0.70014 0.28365 0.0
C1398 C 0.78389 0.6969 0.31842 0.0
C1399 C 0.78835 0.67176 0.3323 0.0
C1400 C 0.77266 0.64967 0.31145 0.0
C1401 C 0.75253 0.65266 0.27657 0.0
C1402 C 0.74798 0.67776 0.26259 0.0
C1403 C 0.78099 0.7803 0.10692 0.0
C1404 C 0.76738 0.76301 0.07122 0.0
C1405 C 0.77771 0.7774 0.15116 0.0
C1406 C 0.76018 0.75761 0.16107 0.0
C1407 C 0.74662 0.74019 0.12567 0.0
C1408 C 0.75019 0.74282 0.08129 0.0
C1409 C 0.75632 0.75498 0.20837 0.0
C1410 C 0.75982 0.73005 0.22405 0.0
C1411 C 0.75052 0.77711 0.23857 0.0
C1412 C 0.74481 0.80364 0.22381 0.0
C1413 C 0.72473 0.8063 0.18824 0.0
C1414 C 0.71976 0.83127 0.17404 0.0
C1415 C 0.73458 0.8538 0.1954 0.0
C1416 C 0.75436 0.85139 0.23108 0.0
C1417 C 0.75945 0.82645 0.24536 0.0
H1418 H 0.73071 0.87311 0.18435 0.0
H1419 H 0.77613 0.63023 0.32226 0.0
H1420 H 0.45429 0.49063 0.66663 0.0
H1421 H 0.46104 0.49334 0.58919 0.0
H1422 H 0.5441 0.51665 0.63065 0.0
H1423 H 0.53719 0.51526 0.70873 0.0
H1424 H 0.52367 0.54577 0.56884 0.0
H1425 H 0.52435 0.45232 0.58197 0.0
H1426 H 0.50726 0.40952 0.60068 0.0
H1427 H 0.43673 0.41365 0.50693 0.0
H1428 H 0.45324 0.45667 0.48809 0.0
H1429 H 0.56455 0.52388 0.35191 0.0
H1430 H 0.55922 0.52077 0.43001 0.0
H1431 H 0.47513 0.50054 0.39274 0.0
H1432 H 0.48049 0.50275 0.31421 0.0
H1433 H 0.49712 0.46948 0.4526 0.0
H1434 H 0.49662 0.56346 0.44047 0.0
H1435 H 0.51422 0.60606 0.4218 0.0
H1436 H 0.58524 0.60049 0.51383 0.0
H1437 H 0.56822 0.55765 0.53261 0.0
C1438 C 0.47394 0.4967 0.65953 0.0
C1439 C 0.49517 0.50274 0.69423 0.0
C1440 C 0.47787 0.49789 0.61499 0.0
C1441 C 0.5032 0.50476 0.60378 0.0
C1442 C 0.52439 0.51113 0.6383 0.0
C1443 C 0.52045 0.51009 0.68299 0.0
C1444 C 0.50745 0.5055 0.55613 0.0
C1445 C 0.51824 0.52892 0.54358 0.0
C1446 C 0.49986 0.48376 0.52278 0.0
C1447 C 0.48993 0.45784 0.53392 0.0
C1448 C 0.5051 0.4442 0.56558 0.0
C1449 C 0.49554 0.41988 0.57617 0.0
C1450 C 0.47089 0.40891 0.55509 0.0
C1451 C 0.4558 0.42219 0.52327 0.0
C1452 C 0.46527 0.44653 0.51259 0.0
C1453 C 0.54496 0.51845 0.36015 0.0
C1454 C 0.52294 0.51359 0.32659 0.0
C1455 C 0.54189 0.51697 0.40499 0.0
C1456 C 0.51669 0.51077 0.41748 0.0
C1457 C 0.49476 0.50548 0.38404 0.0
C1458 C 0.49781 0.50697 0.33914 0.0
C1459 C 0.51323 0.50976 0.46535 0.0
C1460 C 0.5026 0.48629 0.47791 0.0
C1461 C 0.52105 0.53141 0.49872 0.0
C1462 C 0.53126 0.55722 0.4876 0.0
C1463 C 0.51609 0.57122 0.45647 0.0
C1464 C 0.52594 0.59543 0.44591 0.0
C1465 C 0.55086 0.60594 0.46652 0.0
C1466 C 0.56595 0.59231 0.49784 0.0
C1467 C 0.55621 0.56807 0.50848 0.0
H1468 H 0.55845 0.62469 0.45831 0.0
H1469 H 0.46352 0.39008 0.56333 0.0
H1470 H 0.98918 0.51474 0.82259 0.0
H1471 H 0.98456 0.51887 0.90229 0.0
H1472 H 0.05649 0.47467 0.92635 0.0
H1473 H 0.06154 0.47082 0.8469 0.0
H1474 H 0.01666 0.45729 0.9699 0.0
H1475 H 0.05832 0.54081 0.95361 0.0
H1476 H 0.06368 0.58277 0.92113 0.0
H1477 H 0.98789 0.60836 0.95985 0.0
H1478 H 0.98188 0.56635 0.99201 0.0
H1479 H 0.03602 0.48826 0.20671 0.0
H1480 H 0.04216 0.48433 0.12763 0.0
H1481 H 0.96991 0.5275 0.09999 0.0
H1482 H 0.96338 0.53115 0.17878 0.0
H1483 H 0.01091 0.54545 0.05868 0.0
H1484 H 0.96923 0.46115 0.07391 0.0
H1485 H 0.96462 0.41933 0.10717 0.0
H1486 H 0.04152 0.39546 0.07113 0.0
H1487 H 0.04674 0.43732 0.03814 0.0
C1488 C 1.00418 0.50613 0.84486 0.0
C1489 C 0.02574 0.49246 0.82826 0.0
C1490 C 1.00147 0.50845 0.89041 0.0
C1491 C 0.02029 0.49723 0.9203 0.0
C1492 C 0.04169 0.48339 0.90385 0.0
C1493 C 0.04447 0.48113 0.85836 0.0
C1494 C 0.01761 0.49984 0.96873 0.0
C1495 C 0.01577 0.47658 0.98945 0.0
C1496 C 0.01598 0.52499 0.99405 0.0
C1497 C 0.01953 0.5503 0.97481 0.0
C1498 C 0.04269 0.55528 0.95486 0.0
C1499 C 0.04586 0.57909 0.93657 0.0
C1500 C 0.0261 0.59818 0.93831 0.0
C1501 C 1.00316 0.59353 0.95846 0.0
C1502 C 0.99986 0.56973 0.97675 0.0
C1503 C 0.02131 0.49672 0.18381 0.0
C1504 C 0.99925 0.51007 0.19926 0.0
C1505 C 0.02489 0.49453 0.1386 0.0
C1506 C 1.0064 0.50551 0.10789 0.0
C1507 C 0.98449 0.519 0.12317 0.0
C1508 C 0.98086 0.52114 0.16831 0.0
C1509 C 0.00982 0.50292 0.05975 0.0
C1510 C 0.01183 0.52618 0.0391 0.0
C1511 C 0.01169 0.47778 0.03454 0.0
C1512 C 0.00849 0.45248 0.05395 0.0
C1513 C 0.98524 0.44706 0.07336 0.0
C1514 C 0.9825 0.42334 0.09211 0.0
C1515 C 1.0028 0.40478 0.09137 0.0
C1516 C 0.02583 0.40987 0.07173 0.0
C1517 C 0.02868 0.43358 0.05296 0.0
H1518 H 1.00065 0.38643 0.10592 0.0
H1519 H 0.0286 0.61661 0.92415 0.0
loop_
_geom_bond_atom_site_label_1
_geom_bond_atom_site_label_2
_geom_bond_distance
_geom_bond_site_symmetry_2
_ccdc_geom_bond_type
Pr0 C2 2.880 1_655 S
Pr0 O20 2.562 . S
Pr0 O21 2.490 1_655 S
Pr0 O22 2.695 1_655 S
Pr0 O23 2.512 1_655 S
Pr0 O25 2.437 1_665 S
Pr0 O28 2.436 1_565 S
Pr0 O30 2.438 . S
Pr1 C11 2.880 1_455 S
Pr1 O22 2.436 1_545 S
Pr1 O24 2.438 . S
Pr1 O26 2.562 . S
Pr1 O27 2.490 1_455 S
Pr1 O28 2.695 1_455 S
Pr1 O29 2.512 1_455 S
Pr1 O31 2.437 1_445 S
C2 Pr0 2.880 1_455 S
C2 C3 1.491 . S
C2 O20 1.254 1_455 S
C2 O21 1.225 . S
C3 C2 1.491 . S
C3 C4 1.392 . S
C3 C8 1.356 1_565 S
C4 C3 1.392 . S
C4 C5 1.368 . S
C4 H32 0.929 . S
C5 C4 1.368 . S
C5 C6 1.386 . S
C5 H33 0.929 . S
C6 C5 1.386 . S
C6 C7 1.373 1_565 S
C7 C6 1.373 1_545 S
C7 C8 1.409 . S
C7 H34 0.931 . S
C8 C3 1.356 1_545 S
C8 C7 1.409 . S
C8 H35 0.930 1_455 S
C9 O22 1.270 . S
C9 O23 1.248 . S
C10 O24 1.267 . S
C10 O25 1.278 . S
C11 Pr1 2.880 1_655 S
C11 C12 1.491 . S
C11 O26 1.254 1_655 S
C11 O27 1.225 . S
C12 C11 1.491 . S
C12 C13 1.392 . S
C12 C17 1.356 1_545 S
C13 C12 1.392 . S
C13 C14 1.368 . S
C13 H36 0.929 . S
C14 C13 1.368 . S
C14 C15 1.386 . S
C14 H37 0.929 . S
C15 C14 1.386 . S
C15 C16 1.373 1_545 S
C16 C15 1.373 1_565 S
C16 C17 1.409 . S
C16 H38 0.931 . S
C17 C12 1.356 1_565 S
C17 C16 1.409 . S
C17 H39 0.930 1_655 S
C18 O28 1.270 . S
C18 O29 1.248 . S
C19 O30 1.267 . S
C19 O31 1.278 . S
O20 Pr0 2.562 . S
O20 C2 1.254 1_655 S
O21 Pr0 2.490 1_455 S
O21 C2 1.225 . S
O22 Pr0 2.695 1_455 S
O22 Pr1 2.436 1_565 S
O22 C9 1.270 . S
O23 Pr0 2.512 1_455 S
O23 C9 1.248 . S
O24 Pr1 2.438 . S
O24 C10 1.267 . S
O25 Pr0 2.437 1_445 S
O25 C10 1.278 . S
O26 Pr1 2.562 . S
O26 C11 1.254 1_455 S
O27 Pr1 2.490 1_655 S
O27 C11 1.225 . S
O28 Pr0 2.436 1_545 S
O28 Pr1 2.695 1_655 S
O28 C18 1.270 . S
O29 Pr1 2.512 1_655 S
O29 C18 1.248 . S
O30 Pr0 2.438 . S
O30 C19 1.267 . S
O31 Pr1 2.437 1_665 S
O31 C19 1.278 . S
H32 C4 0.929 . S
H33 C5 0.929 . S
H34 C7 0.931 . S
H35 C8 0.930 1_655 S
H36 C13 0.929 . S
H37 C14 0.929 . S
H38 C16 0.931 . S
H39 C17 0.930 1_455 S
Pr40 C42 2.880 . S
Pr40 O60 2.562 . S
Pr40 O61 2.490 . S
Pr40 O62 2.695 . S
Pr40 O63 2.512 . S
Pr40 O65 2.437 . S
Pr40 O68 2.436 . S
Pr40 O70 2.438 . S
Pr41 C51 2.880 . S
Pr41 O62 2.436 . S
Pr41 O64 2.438 . S
Pr41 O66 2.562 . S
Pr41 O67 2.490 . S
Pr41 O68 2.695 . S
Pr41 O69 2.512 . S
Pr41 O71 2.437 . S
C42 Pr40 2.880 . S
C42 C43 1.491 . S
C42 O60 1.254 . S
C42 O61 1.225 . S
C43 C42 1.491 . S
C43 C44 1.392 . S
C43 C48 1.356 . S
C44 C43 1.392 . S
C44 C45 1.368 . S
C44 H72 0.929 . S
C45 C44 1.368 . S
C45 C46 1.386 . S
C45 H73 0.929 . S
C46 C45 1.386 . S
C46 C47 1.373 . S
C47 C46 1.373 . S
C47 C48 1.409 . S
C47 H74 0.931 . S
C48 C43 1.356 . S
C48 C47 1.409 . S
C48 H75 0.930 . S
C49 O62 1.270 . S
C49 O63 1.248 . S
C50 O64 1.267 . S
C50 O65 1.278 . S
C51 Pr41 2.880 . S
C51 C52 1.491 . S
C51 O66 1.254 . S
C51 O67 1.225 . S
C52 C51 1.491 . S
C52 C53 1.392 . S
C52 C57 1.356 . S
C53 C52 1.392 . S
C53 C54 1.368 . S
C53 H76 0.929 . S
C54 C53 1.368 . S
C54 C55 1.386 1_556 S
C54 H77 0.929 1_556 S
C55 C54 1.386 1_554 S
C55 C56 1.373 . S
C56 C55 1.373 . S
C56 C57 1.409 1_554 S
C56 H78 0.931 . S
C57 C52 1.356 . S
C57 C56 1.409 1_556 S
C57 H79 0.930 . S
C58 O68 1.270 . S
C58 O69 1.248 . S
C59 O70 1.267 . S
C59 O71 1.278 . S
O60 Pr40 2.562 . S
O60 C42 1.254 . S
O61 Pr40 2.490 . S
O61 C42 1.225 . S
O62 Pr40 2.695 . S
O62 Pr41 2.436 . S
O62 C49 1.270 . S
O63 Pr40 2.512 . S
O63 C49 1.248 . S
O64 Pr41 2.438 . S
O64 C50 1.267 . S
O65 Pr40 2.437 . S
O65 C50 1.278 . S
O66 Pr41 2.562 . S
O66 C51 1.254 . S
O67 Pr41 2.490 . S
O67 C51 1.225 . S
O68 Pr40 2.436 . S
O68 Pr41 2.695 . S
O68 C58 1.270 . S
O69 Pr41 2.512 . S
O69 C58 1.248 . S
O70 Pr40 2.438 . S
O70 C59 1.267 . S
O71 Pr41 2.437 . S
O71 C59 1.278 . S
H72 C44 0.929 . S
H73 C45 0.929 . S
H74 C47 0.931 . S
H75 C48 0.930 . S
H76 C53 0.929 . S
H77 C54 0.929 1_554 S
H78 C56 0.931 . S
H79 C57 0.930 . S
Pr80 C82 2.880 . S
Pr80 O100 2.562 1_565 S
Pr80 O101 2.490 . S
Pr80 O102 2.695 1_554 S
Pr80 O103 2.512 . S
Pr80 O105 2.437 1_565 S
Pr80 O108 2.436 1_565 S
Pr80 O110 2.438 1_554 S
Pr81 C91 2.880 . S
Pr81 O102 2.436 1_545 S
Pr81 O104 2.438 1_556 S
Pr81 O106 2.562 1_545 S
Pr81 O107 2.490 . S
Pr81 O108 2.695 1_556 S
Pr81 O109 2.512 . S
Pr81 O111 2.437 1_545 S
C82 Pr80 2.880 . S
C82 C83 1.491 . S
C82 O100 1.254 1_565 S
C82 O101 1.225 . S
C83 C82 1.491 . S
C83 C84 1.392 . S
C83 C88 1.356 1_565 S
C84 C83 1.392 . S
C84 C85 1.368 . S
C84 H112 0.929 . S
C85 C84 1.368 . S
C85 C86 1.386 1_565 S
C85 H113 0.929 . S
C86 C85 1.386 1_545 S
C86 C87 1.373 . S
C87 C86 1.373 . S
C87 C88 1.409 . S
C87 H114 0.931 . S
C88 C83 1.356 1_545 S
C88 C87 1.409 . S
C88 H115 0.930 . S
C89 O102 1.270 . S
C89 O103 1.248 1_556 S
C90 O104 1.267 . S
C90 O105 1.278 . S
C91 Pr81 2.880 . S
C91 C92 1.491 . S
C91 O106 1.254 1_545 S
C91 O107 1.225 . S
C92 C91 1.491 . S
C92 C93 1.392 . S
C92 C97 1.356 1_545 S
C93 C92 1.392 . S
C93 C94 1.368 . S
C93 H116 0.929 . S
C94 C93 1.368 . S
C94 C95 1.386 1_545 S
C94 H117 0.929 . S
C95 C94 1.386 1_565 S
C95 C96 1.373 . S
C96 C95 1.373 . S
C96 C97 1.409 . S
C96 H118 0.931 . S
C97 C92 1.356 1_565 S
C97 C96 1.409 . S
C97 H119 0.930 . S
C98 O108 1.270 . S
C98 O109 1.248 1_554 S
C99 O110 1.267 . S
C99 O111 1.278 . S
O100 Pr80 2.562 1_545 S
O100 C82 1.254 1_545 S
O101 Pr80 2.490 . S
O101 C82 1.225 . S
O102 Pr80 2.695 1_556 S
O102 Pr81 2.436 1_565 S
O102 C89 1.270 . S
O103 Pr80 2.512 . S
O103 C89 1.248 1_554 S
O104 Pr81 2.438 1_554 S
O104 C90 1.267 . S
O105 Pr80 2.437 1_545 S
O105 C90 1.278 . S
O106 Pr81 2.562 1_565 S
O106 C91 1.254 1_565 S
O107 Pr81 2.490 . S
O107 C91 1.225 . S
O108 Pr80 2.436 1_545 S
O108 Pr81 2.695 1_554 S
O108 C98 1.270 . S
O109 Pr81 2.512 . S
O109 C98 1.248 1_556 S
O110 Pr80 2.438 1_556 S
O110 C99 1.267 . S
O111 Pr81 2.437 1_565 S
O111 C99 1.278 . S
H112 C84 0.929 . S
H113 C85 0.929 . S
H114 C87 0.931 . S
H115 C88 0.930 . S
H116 C93 0.929 . S
H117 C94 0.929 . S
H118 C96 0.931 . S
H119 C97 0.930 . S
Pr120 C122 2.880 . S
Pr120 O140 2.562 . S
Pr120 O141 2.490 . S
Pr120 O142 2.695 . S
Pr120 O143 2.512 . S
Pr120 O145 2.437 . S
Pr120 O148 2.436 . S
Pr120 O150 2.438 . S
Pr121 C131 2.880 . S
Pr121 O142 2.436 . S
Pr121 O144 2.438 . S
Pr121 O146 2.562 . S
Pr121 O147 2.490 . S
Pr121 O148 2.695 . S
Pr121 O149 2.512 . S
Pr121 O151 2.437 . S
C122 Pr120 2.880 . S
C122 C123 1.491 . S
C122 O140 1.254 . S
C122 O141 1.225 . S
C123 C122 1.491 . S
C123 C124 1.392 . S
C123 C128 1.356 . S
C124 C123 1.392 . S
C124 C125 1.368 . S
C124 H152 0.929 . S
C125 C124 1.368 . S
C125 C126 1.386 . S
C125 H153 0.929 . S
C126 C125 1.386 . S
C126 C127 1.373 . S
C127 C126 1.373 . S
C127 C128 1.409 . S
C127 H154 0.931 . S
C128 C123 1.356 . S
C128 C127 1.409 . S
C128 H155 0.930 . S
C129 O142 1.270 . S
C129 O143 1.248 . S
C130 O144 1.267 . S
C130 O145 1.278 . S
C131 Pr121 2.880 . S
C131 C132 1.491 . S
C131 O146 1.254 . S
C131 O147 1.225 . S
C132 C131 1.491 . S
C132 C133 1.392 . S
C132 C137 1.356 . S
C133 C132 1.392 . S
C133 C134 1.368 1_554 S
C133 H156 0.929 . S
C134 C133 1.368 1_556 S
C134 C135 1.386 . S
C134 H157 0.929 . S
C135 C134 1.386 . S
C135 C136 1.373 . S
C136 C135 1.373 . S
C136 C137 1.409 1_556 S
C136 H158 0.931 . S
C137 C132 1.356 . S
C137 C136 1.409 1_554 S
C137 H159 0.930 . S
C138 O148 1.270 . S
C138 O149 1.248 . S
C139 O150 1.267 . S
C139 O151 1.278 . S
O140 Pr120 2.562 . S
O140 C122 1.254 . S
O141 Pr120 2.490 . S
O141 C122 1.225 . S
O142 Pr120 2.695 . S
O142 Pr121 2.436 . S
O142 C129 1.270 . S
O143 Pr120 2.512 . S
O143 C129 1.248 . S
O144 Pr121 2.438 . S
O144 C130 1.267 . S
O145 Pr120 2.437 . S
O145 C130 1.278 . S
O146 Pr121 2.562 . S
O146 C131 1.254 . S
O147 Pr121 2.490 . S
O147 C131 1.225 . S
O148 Pr120 2.436 . S
O148 Pr121 2.695 . S
O148 C138 1.270 . S
O149 Pr121 2.512 . S
O149 C138 1.248 . S
O150 Pr120 2.438 . S
O150 C139 1.267 . S
O151 Pr121 2.437 . S
O151 C139 1.278 . S
H152 C124 0.929 . S
H153 C125 0.929 . S
H154 C127 0.931 . S
H155 C128 0.930 . S
H156 C133 0.929 . S
H157 C134 0.929 . S
H158 C136 0.931 . S
H159 C137 0.930 . S
Pr160 C162 2.880 . S
Pr160 O180 2.562 . S
Pr160 O181 2.490 . S
Pr160 O182 2.695 . S
Pr160 O183 2.512 . S
Pr160 O185 2.437 . S
Pr160 O188 2.436 . S
Pr160 O190 2.438 . S
Pr161 C171 2.880 . S
Pr161 O182 2.436 . S
Pr161 O184 2.438 . S
Pr161 O186 2.562 . S
Pr161 O187 2.490 . S
Pr161 O188 2.695 . S
Pr161 O189 2.512 . S
Pr161 O191 2.437 . S
C162 Pr160 2.880 . S
C162 C163 1.491 . S
C162 O180 1.254 . S
C162 O181 1.225 . S
C163 C162 1.491 . S
C163 C164 1.392 . S
C163 C168 1.356 . S
C164 C163 1.392 . S
C164 C165 1.368 . S
C164 H192 0.929 . S
C165 C164 1.368 . S
C165 C166 1.386 1_554 S
C165 H193 0.929 1_554 S
C166 C165 1.386 1_556 S
C166 C167 1.373 . S
C167 C166 1.373 . S
C167 C168 1.409 1_556 S
C167 H194 0.931 . S
C168 C163 1.356 . S
C168 C167 1.409 1_554 S
C168 H195 0.930 . S
C169 O182 1.270 . S
C169 O183 1.248 . S
C170 O184 1.267 . S
C170 O185 1.278 . S
C171 Pr161 2.880 . S
C171 C172 1.491 . S
C171 O186 1.254 . S
C171 O187 1.225 . S
C172 C171 1.491 . S
C172 C173 1.392 . S
C172 C177 1.356 . S
C173 C172 1.392 . S
C173 C174 1.368 . S
C173 H196 0.929 . S
C174 C173 1.368 . S
C174 C175 1.386 . S
C174 H197 0.929 . S
C175 C174 1.386 . S
C175 C176 1.373 . S
C176 C175 1.373 . S
C176 C177 1.409 . S
C176 H198 0.931 . S
C177 C172 1.356 . S
C177 C176 1.409 . S
C177 H199 0.930 . S
C178 O188 1.270 . S
C178 O189 1.248 . S
C179 O190 1.267 . S
C179 O191 1.278 . S
O180 Pr160 2.562 . S
O180 C162 1.254 . S
O181 Pr160 2.490 . S
O181 C162 1.225 . S
O182 Pr160 2.695 . S
O182 Pr161 2.436 . S
O182 C169 1.270 . S
O183 Pr160 2.512 . S
O183 C169 1.248 . S
O184 Pr161 2.438 . S
O184 C170 1.267 . S
O185 Pr160 2.437 . S
O185 C170 1.278 . S
O186 Pr161 2.562 . S
O186 C171 1.254 . S
O187 Pr161 2.490 . S
O187 C171 1.225 . S
O188 Pr160 2.436 . S
O188 Pr161 2.695 . S
O188 C178 1.270 . S
O189 Pr161 2.512 . S
O189 C178 1.248 . S
O190 Pr160 2.438 . S
O190 C179 1.267 . S
O191 Pr161 2.437 . S
O191 C179 1.278 . S
H192 C164 0.929 . S
H193 C165 0.929 1_556 S
H194 C167 0.931 . S
H195 C168 0.930 . S
H196 C173 0.929 . S
H197 C174 0.929 . S
H198 C176 0.931 . S
H199 C177 0.930 . S
Pr200 C202 2.880 . S
Pr200 O220 2.562 . S
Pr200 O221 2.490 . S
Pr200 O222 2.695 . S
Pr200 O223 2.512 . S
Pr200 O225 2.437 . S
Pr200 O228 2.436 . S
Pr200 O230 2.438 . S
Pr201 C211 2.880 . S
Pr201 O222 2.436 . S
Pr201 O224 2.438 . S
Pr201 O226 2.562 . S
Pr201 O227 2.490 . S
Pr201 O228 2.695 . S
Pr201 O229 2.512 . S
Pr201 O231 2.437 . S
C202 Pr200 2.880 . S
C202 C203 1.491 . S
C202 O220 1.254 . S
C202 O221 1.225 . S
C203 C202 1.491 . S
C203 C204 1.392 . S
C203 C208 1.356 . S
C204 C203 1.392 . S
C204 C205 1.368 1_556 S
C204 H232 0.929 . S
C205 C204 1.368 1_554 S
C205 C206 1.386 . S
C205 H233 0.929 . S
C206 C205 1.386 . S
C206 C207 1.373 . S
C207 C206 1.373 . S
C207 C208 1.409 1_554 S
C207 H234 0.931 . S
C208 C203 1.356 . S
C208 C207 1.409 1_556 S
C208 H235 0.930 . S
C209 O222 1.270 . S
C209 O223 1.248 . S
C210 O224 1.267 . S
C210 O225 1.278 . S
C211 Pr201 2.880 . S
C211 C212 1.491 . S
C211 O226 1.254 . S
C211 O227 1.225 . S
C212 C211 1.491 . S
C212 C213 1.392 . S
C212 C217 1.356 . S
C213 C212 1.392 . S
C213 C214 1.368 . S
C213 H236 0.929 . S
C214 C213 1.368 . S
C214 C215 1.386 . S
C214 H237 0.929 . S
C215 C214 1.386 . S
C215 C216 1.373 . S
C216 C215 1.373 . S
C216 C217 1.409 . S
C216 H238 0.931 . S
C217 C212 1.356 . S
C217 C216 1.409 . S
C217 H239 0.930 . S
C218 O228 1.270 . S
C218 O229 1.248 . S
C219 O230 1.267 . S
C219 O231 1.278 . S
O220 Pr200 2.562 . S
O220 C202 1.254 . S
O221 Pr200 2.490 . S
O221 C202 1.225 . S
O222 Pr200 2.695 . S
O222 Pr201 2.436 . S
O222 C209 1.270 . S
O223 Pr200 2.512 . S
O223 C209 1.248 . S
O224 Pr201 2.438 . S
O224 C210 1.267 . S
O225 Pr200 2.437 . S
O225 C210 1.278 . S
O226 Pr201 2.562 . S
O226 C211 1.254 . S
O227 Pr201 2.490 . S
O227 C211 1.225 . S
O228 Pr200 2.436 . S
O228 Pr201 2.695 . S
O228 C218 1.270 . S
O229 Pr201 2.512 . S
O229 C218 1.248 . S
O230 Pr200 2.438 . S
O230 C219 1.267 . S
O231 Pr201 2.437 . S
O231 C219 1.278 . S
H232 C204 0.929 . S
H233 C205 0.929 . S
H234 C207 0.931 . S
H235 C208 0.930 . S
H236 C213 0.929 . S
H237 C214 0.929 . S
H238 C216 0.931 . S
H239 C217 0.930 . S
Pr240 C242 2.880 . S
Pr240 O260 2.562 . S
Pr240 O261 2.490 . S
Pr240 O262 2.695 1_556 S
Pr240 O263 2.512 . S
Pr240 O265 2.437 . S
Pr240 O268 2.436 . S
Pr240 O270 2.438 . S
Pr241 C251 2.880 . S
Pr241 O262 2.436 . S
Pr241 O264 2.438 . S
Pr241 O266 2.562 . S
Pr241 O267 2.490 . S
Pr241 O268 2.695 1_554 S
Pr241 O269 2.512 . S
Pr241 O271 2.437 . S
C242 Pr240 2.880 . S
C242 C243 1.491 . S
C242 O260 1.254 . S
C242 O261 1.225 . S
C243 C242 1.491 . S
C243 C244 1.392 . S
C243 C248 1.356 . S
C244 C243 1.392 . S
C244 C245 1.368 . S
C244 H272 0.929 . S
C245 C244 1.368 . S
C245 C246 1.386 . S
C245 H273 0.929 . S
C246 C245 1.386 . S
C246 C247 1.373 . S
C247 C246 1.373 . S
C247 C248 1.409 . S
C247 H274 0.931 . S
C248 C243 1.356 . S
C248 C247 1.409 . S
C248 H275 0.930 . S
C249 O262 1.270 . S
C249 O263 1.248 1_554 S
C250 O264 1.267 1_556 S
C250 O265 1.278 . S
C251 Pr241 2.880 . S
C251 C252 1.491 . S
C251 O266 1.254 . S
C251 O267 1.225 . S
C252 C251 1.491 . S
C252 C253 1.392 . S
C252 C257 1.356 . S
C253 C252 1.392 . S
C253 C254 1.368 . S
C253 H276 0.929 . S
C254 C253 1.368 . S
C254 C255 1.386 . S
C254 H277 0.929 . S
C255 C254 1.386 . S
C255 C256 1.373 . S
C256 C255 1.373 . S
C256 C257 1.409 . S
C256 H278 0.931 . S
C257 C252 1.356 . S
C257 C256 1.409 . S
C257 H279 0.930 . S
C258 O268 1.270 . S
C258 O269 1.248 1_556 S
C259 O270 1.267 1_554 S
C259 O271 1.278 . S
O260 Pr240 2.562 . S
O260 C242 1.254 . S
O261 Pr240 2.490 . S
O261 C242 1.225 . S
O262 Pr240 2.695 1_554 S
O262 Pr241 2.436 . S
O262 C249 1.270 . S
O263 Pr240 2.512 . S
O263 C249 1.248 1_556 S
O264 Pr241 2.438 . S
O264 C250 1.267 1_554 S
O265 Pr240 2.437 . S
O265 C250 1.278 . S
O266 Pr241 2.562 . S
O266 C251 1.254 . S
O267 Pr241 2.490 . S
O267 C251 1.225 . S
O268 Pr240 2.436 . S
O268 Pr241 2.695 1_556 S
O268 C258 1.270 . S
O269 Pr241 2.512 . S
O269 C258 1.248 1_554 S
O270 Pr240 2.438 . S
O270 C259 1.267 1_556 S
O271 Pr241 2.437 . S
O271 C259 1.278 . S
H272 C244 0.929 . S
H273 C245 0.929 . S
H274 C247 0.931 . S
H275 C248 0.930 . S
H276 C253 0.929 . S
H277 C254 0.929 . S
H278 C256 0.931 . S
H279 C257 0.930 . S
Pr280 C282 2.880 1_455 S
Pr280 O300 2.562 . S
Pr280 O301 2.490 1_455 S
Pr280 O302 2.695 1_455 S
Pr280 O303 2.512 1_455 S
Pr280 O305 2.437 1_455 S
Pr280 O308 2.436 . S
Pr280 O310 2.438 . S
Pr281 C291 2.880 1_655 S
Pr281 O302 2.436 . S
Pr281 O304 2.438 . S
Pr281 O306 2.562 . S
Pr281 O307 2.490 1_655 S
Pr281 O308 2.695 1_655 S
Pr281 O309 2.512 1_655 S
Pr281 O311 2.437 1_655 S
C282 Pr280 2.880 1_655 S
C282 C283 1.491 . S
C282 O300 1.254 1_655 S
C282 O301 1.225 . S
C283 C282 1.491 . S
C283 C284 1.392 . S
C283 C288 1.356 . S
C284 C283 1.392 . S
C284 C285 1.368 . S
C284 H312 0.929 . S
C285 C284 1.368 . S
C285 C286 1.386 . S
C285 H313 0.929 . S
C286 C285 1.386 . S
C286 C287 1.373 . S
C287 C286 1.373 . S
C287 C288 1.409 . S
C287 H314 0.931 . S
C288 C283 1.356 . S
C288 C287 1.409 . S
C288 H315 0.930 1_655 S
C289 O302 1.270 . S
C289 O303 1.248 . S
C290 O304 1.267 . S
C290 O305 1.278 . S
C291 Pr281 2.880 1_455 S
C291 C292 1.491 . S
C291 O306 1.254 1_455 S
C291 O307 1.225 . S
C292 C291 1.491 . S
C292 C293 1.392 . S
C292 C297 1.356 . S
C293 C292 1.392 . S
C293 C294 1.368 . S
C293 H316 0.929 . S
C294 C293 1.368 . S
C294 C295 1.386 . S
C294 H317 0.929 . S
C295 C294 1.386 . S
C295 C296 1.373 . S
C296 C295 1.373 . S
C296 C297 1.409 . S
C296 H318 0.931 . S
C297 C292 1.356 . S
C297 C296 1.409 . S
C297 H319 0.930 1_455 S
C298 O308 1.270 . S
C298 O309 1.248 . S
C299 O310 1.267 . S
C299 O311 1.278 . S
O300 Pr280 2.562 . S
O300 C282 1.254 1_455 S
O301 Pr280 2.490 1_655 S
O301 C282 1.225 . S
O302 Pr280 2.695 1_655 S
O302 Pr281 2.436 . S
O302 C289 1.270 . S
O303 Pr280 2.512 1_655 S
O303 C289 1.248 . S
O304 Pr281 2.438 . S
O304 C290 1.267 . S
O305 Pr280 2.437 1_655 S
O305 C290 1.278 . S
O306 Pr281 2.562 . S
O306 C291 1.254 1_655 S
O307 Pr281 2.490 1_455 S
O307 C291 1.225 . S
O308 Pr280 2.436 . S
O308 Pr281 2.695 1_455 S
O308 C298 1.270 . S
O309 Pr281 2.512 1_455 S
O309 C298 1.248 . S
O310 Pr280 2.438 . S
O310 C299 1.267 . S
O311 Pr281 2.437 1_455 S
O311 C299 1.278 . S
H312 C284 0.929 . S
H313 C285 0.929 . S
H314 C287 0.931 . S
H315 C288 0.930 1_455 S
H316 C293 0.929 . S
H317 C294 0.929 . S
H318 C296 0.931 . S
H319 C297 0.930 1_655 S
H320 C338 0.951 . S
H321 C340 0.951 . S
H322 C342 0.950 . S
H323 C343 0.950 . S
H324 C345 0.950 . S
H325 C348 0.950 . S
H326 C349 0.950 . S
H327 C351 0.950 . S
H328 C352 0.950 . S
H329 C353 0.951 . S
H330 C355 0.951 . S
H331 C357 0.950 . S
H332 C358 0.950 . S
H333 C360 0.950 . S
H334 C363 0.950 . S
H335 C364 0.950 . S
H336 C366 0.950 . S
H337 C367 0.950 . S
C338 H320 0.951 . S
C338 C339 1.366 . S
C338 C340 1.388 . S
C339 C338 1.366 . S
C339 C343 1.385 . S
C340 H321 0.951 . S
C340 C338 1.388 . S
C340 C341 1.366 . S
C341 C340 1.366 . S
C341 C342 1.414 . S
C341 C344 1.499 . S
C342 H322 0.950 . S
C342 C341 1.414 . S
C342 C343 1.374 . S
C343 H323 0.950 . S
C343 C339 1.385 . S
C343 C342 1.374 . S
C344 C341 1.499 . S
C344 C345 1.373 . S
C344 C346 1.389 . S
C345 H324 0.950 . S
C345 C344 1.373 . S
C345 C361 1.377 . S
C346 C344 1.389 . S
C346 C347 1.524 . S
C346 C360 1.377 . S
C347 C346 1.524 . S
C347 C348 1.397 . S
C347 C352 1.363 . S
C348 H325 0.950 . S
C348 C347 1.397 . S
C348 C349 1.334 . S
C349 H326 0.950 . S
C349 C348 1.334 . S
C349 C350 1.287 . S
C350 C349 1.287 . S
C350 C351 1.524 . S
C350 H369 0.913 . S
C351 H327 0.950 . S
C351 C350 1.524 . S
C351 C352 1.415 . S
C352 H328 0.950 . S
C352 C347 1.363 . S
C352 C351 1.415 . S
C353 H329 0.951 . S
C353 C354 1.366 . S
C353 C355 1.388 . S
C354 C353 1.366 . S
C354 C358 1.385 . S
C355 H330 0.951 . S
C355 C353 1.388 . S
C355 C356 1.366 . S
C356 C355 1.366 . S
C356 C357 1.414 . S
C356 C359 1.499 . S
C357 H331 0.950 . S
C357 C356 1.414 . S
C357 C358 1.374 . S
C358 H332 0.950 . S
C358 C354 1.385 . S
C358 C357 1.374 . S
C359 C356 1.499 . S
C359 C360 1.373 . S
C359 C361 1.389 . S
C360 H333 0.950 . S
C360 C346 1.377 . S
C360 C359 1.373 . S
C361 C345 1.377 . S
C361 C359 1.389 . S
C361 C362 1.524 . S
C362 C361 1.524 . S
C362 C363 1.397 . S
C362 C367 1.363 . S
C363 H334 0.950 . S
C363 C362 1.397 . S
C363 C364 1.334 . S
C364 H335 0.950 . S
C364 C363 1.334 . S
C364 C365 1.287 . S
C365 C364 1.287 . S
C365 C366 1.524 . S
C365 H368 0.999 . S
C366 H336 0.950 . S
C366 C365 1.524 . S
C366 C367 1.415 . S
C367 H337 0.950 . S
C367 C362 1.363 . S
C367 C366 1.415 . S
H368 C365 0.999 . S
H369 C350 0.913 . S
H370 C388 0.951 . S
H371 C390 0.951 . S
H372 C392 0.950 . S
H373 C393 0.950 . S
H374 C395 0.950 . S
H375 C398 0.950 . S
H376 C399 0.950 . S
H377 C401 0.950 . S
H378 C402 0.950 . S
H379 C403 0.951 . S
H380 C405 0.951 . S
H381 C407 0.950 . S
H382 C408 0.950 . S
H383 C410 0.950 . S
H384 C413 0.950 . S
H385 C414 0.950 . S
H386 C416 0.950 . S
H387 C417 0.950 . S
C388 H370 0.951 . S
C388 C389 1.366 . S
C388 C390 1.388 . S
C389 C388 1.366 . S
C389 C393 1.385 . S
C390 H371 0.951 . S
C390 C388 1.388 . S
C390 C391 1.366 . S
C391 C390 1.366 . S
C391 C392 1.414 . S
C391 C394 1.499 . S
C392 H372 0.950 . S
C392 C391 1.414 . S
C392 C393 1.374 . S
C393 H373 0.950 . S
C393 C389 1.385 . S
C393 C392 1.374 . S
C394 C391 1.499 . S
C394 C395 1.373 . S
C394 C396 1.389 . S
C395 H374 0.950 . S
C395 C394 1.373 . S
C395 C411 1.377 . S
C396 C394 1.389 . S
C396 C397 1.524 . S
C396 C410 1.377 . S
C397 C396 1.524 . S
C397 C398 1.397 . S
C397 C402 1.363 . S
C398 H375 0.950 . S
C398 C397 1.397 . S
C398 C399 1.334 . S
C399 H376 0.950 . S
C399 C398 1.334 . S
C399 C400 1.287 . S
C400 C399 1.287 . S
C400 C401 1.524 . S
C400 H419 0.913 . S
C401 H377 0.950 . S
C401 C400 1.524 . S
C401 C402 1.415 . S
C402 H378 0.950 . S
C402 C397 1.363 . S
C402 C401 1.415 . S
C403 H379 0.951 . S
C403 C404 1.366 . S
C403 C405 1.388 . S
C404 C403 1.366 . S
C404 C408 1.385 . S
C405 H380 0.951 . S
C405 C403 1.388 . S
C405 C406 1.366 . S
C406 C405 1.366 . S
C406 C407 1.414 . S
C406 C409 1.499 . S
C407 H381 0.950 . S
C407 C406 1.414 . S
C407 C408 1.374 . S
C408 H382 0.950 . S
C408 C404 1.385 . S
C408 C407 1.374 . S
C409 C406 1.499 . S
C409 C410 1.373 . S
C409 C411 1.389 . S
C410 H383 0.950 . S
C410 C396 1.377 . S
C410 C409 1.373 . S
C411 C395 1.377 . S
C411 C409 1.389 . S
C411 C412 1.524 . S
C412 C411 1.524 . S
C412 C413 1.397 . S
C412 C417 1.363 . S
C413 H384 0.950 . S
C413 C412 1.397 . S
C413 C414 1.334 . S
C414 H385 0.950 . S
C414 C413 1.334 . S
C414 C415 1.287 . S
C415 C414 1.287 . S
C415 C416 1.524 . S
C415 H418 0.999 . S
C416 H386 0.950 . S
C416 C415 1.524 . S
C416 C417 1.415 . S
C417 H387 0.950 . S
C417 C412 1.363 . S
C417 C416 1.415 . S
H418 C415 0.999 . S
H419 C400 0.913 . S
H420 C438 0.951 . S
H421 C440 0.951 . S
H422 C442 0.950 . S
H423 C443 0.950 . S
H424 C445 0.950 . S
H425 C448 0.950 . S
H426 C449 0.950 . S
H427 C451 0.950 . S
H428 C452 0.950 . S
H429 C453 0.951 1_554 S
H430 C455 0.951 . S
H431 C457 0.950 . S
H432 C458 0.950 . S
H433 C460 0.950 . S
H434 C463 0.950 . S
H435 C464 0.950 . S
H436 C466 0.950 . S
H437 C467 0.950 . S
C438 H420 0.951 . S
C438 C439 1.366 . S
C438 C440 1.388 . S
C439 C438 1.366 . S
C439 C443 1.385 . S
C440 H421 0.951 . S
C440 C438 1.388 . S
C440 C441 1.366 . S
C441 C440 1.366 . S
C441 C442 1.414 . S
C441 C444 1.499 . S
C442 H422 0.950 . S
C442 C441 1.414 . S
C442 C443 1.374 . S
C443 H423 0.950 . S
C443 C439 1.385 . S
C443 C442 1.374 . S
C444 C441 1.499 . S
C444 C445 1.373 . S
C444 C446 1.389 . S
C445 H424 0.950 . S
C445 C444 1.373 . S
C445 C461 1.377 . S
C446 C444 1.389 . S
C446 C447 1.524 . S
C446 C460 1.377 . S
C447 C446 1.524 . S
C447 C448 1.397 . S
C447 C452 1.363 . S
C448 H425 0.950 . S
C448 C447 1.397 . S
C448 C449 1.334 . S
C449 H426 0.950 . S
C449 C448 1.334 . S
C449 C450 1.287 . S
C450 C449 1.287 . S
C450 C451 1.524 . S
C450 H469 0.913 . S
C451 H427 0.950 . S
C451 C450 1.524 . S
C451 C452 1.415 . S
C452 H428 0.950 . S
C452 C447 1.363 . S
C452 C451 1.415 . S
C453 H429 0.951 1_556 S
C453 C454 1.366 . S
C453 C455 1.388 . S
C454 C453 1.366 . S
C454 C458 1.385 . S
C455 H430 0.951 . S
C455 C453 1.388 . S
C455 C456 1.366 . S
C456 C455 1.366 . S
C456 C457 1.414 . S
C456 C459 1.499 . S
C457 H431 0.950 . S
C457 C456 1.414 . S
C457 C458 1.374 . S
C458 H432 0.950 . S
C458 C454 1.385 . S
C458 C457 1.374 . S
C459 C456 1.499 . S
C459 C460 1.373 . S
C459 C461 1.389 . S
C460 H433 0.950 . S
C460 C446 1.377 . S
C460 C459 1.373 . S
C461 C445 1.377 . S
C461 C459 1.389 . S
C461 C462 1.524 . S
C462 C461 1.524 . S
C462 C463 1.397 . S
C462 C467 1.363 . S
C463 H434 0.950 . S
C463 C462 1.397 . S
C463 C464 1.334 . S
C464 H435 0.950 . S
C464 C463 1.334 . S
C464 C465 1.287 . S
C465 C464 1.287 . S
C465 C466 1.524 . S
C465 H468 0.999 . S
C466 H436 0.950 . S
C466 C465 1.524 . S
C466 C467 1.415 . S
C467 H437 0.950 . S
C467 C462 1.363 . S
C467 C466 1.415 . S
H468 C465 0.999 . S
H469 C450 0.913 . S
H470 C488 0.951 . S
H471 C490 0.951 . S
H472 C492 0.950 . S
H473 C493 0.950 . S
H474 C495 0.950 . S
H475 C498 0.950 . S
H476 C499 0.950 . S
H477 C501 0.950 . S
H478 C502 0.950 . S
H479 C503 0.951 . S
H480 C505 0.951 . S
H481 C507 0.950 . S
H482 C508 0.950 . S
H483 C510 0.950 . S
H484 C513 0.950 . S
H485 C514 0.950 . S
H486 C516 0.950 . S
H487 C517 0.950 . S
C488 H470 0.951 . S
C488 C489 1.366 . S
C488 C490 1.388 . S
C489 C488 1.366 . S
C489 C493 1.385 . S
C490 H471 0.951 . S
C490 C488 1.388 . S
C490 C491 1.366 . S
C491 C490 1.366 . S
C491 C492 1.414 . S
C491 C494 1.499 . S
C492 H472 0.950 . S
C492 C491 1.414 . S
C492 C493 1.374 . S
C493 H473 0.950 . S
C493 C489 1.385 . S
C493 C492 1.374 . S
C494 C491 1.499 . S
C494 C495 1.373 . S
C494 C496 1.389 . S
C495 H474 0.950 . S
C495 C494 1.373 . S
C495 C511 1.377 . S
C496 C494 1.389 . S
C496 C497 1.524 . S
C496 C510 1.377 . S
C497 C496 1.524 . S
C497 C498 1.397 . S
C497 C502 1.363 . S
C498 H475 0.950 . S
C498 C497 1.397 . S
C498 C499 1.334 1_554 S
C499 H476 0.950 . S
C499 C498 1.334 1_556 S
C499 C500 1.287 . S
C500 C499 1.287 . S
C500 C501 1.524 . S
C500 H519 0.913 . S
C501 H477 0.950 . S
C501 C500 1.524 . S
C501 C502 1.415 1_556 S
C502 H478 0.950 . S
C502 C497 1.363 . S
C502 C501 1.415 1_554 S
C503 H479 0.951 . S
C503 C504 1.366 . S
C503 C505 1.388 . S
C504 C503 1.366 . S
C504 C508 1.385 . S
C505 H480 0.951 . S
C505 C503 1.388 . S
C505 C506 1.366 . S
C506 C505 1.366 . S
C506 C507 1.414 . S
C506 C509 1.499 . S
C507 H481 0.950 . S
C507 C506 1.414 . S
C507 C508 1.374 . S
C508 H482 0.950 . S
C508 C504 1.385 . S
C508 C507 1.374 . S
C509 C506 1.499 . S
C509 C510 1.373 . S
C509 C511 1.389 . S
C510 H483 0.950 . S
C510 C496 1.377 . S
C510 C509 1.373 . S
C511 C495 1.377 . S
C511 C509 1.389 . S
C511 C512 1.524 . S
C512 C511 1.524 . S
C512 C513 1.397 . S
C512 C517 1.363 . S
C513 H484 0.950 . S
C513 C512 1.397 . S
C513 C514 1.334 . S
C514 H485 0.950 . S
C514 C513 1.334 . S
C514 C515 1.287 . S
C515 C514 1.287 . S
C515 C516 1.524 . S
C515 H518 0.999 . S
C516 H486 0.950 . S
C516 C515 1.524 . S
C516 C517 1.415 . S
C517 H487 0.950 . S
C517 C512 1.363 . S
C517 C516 1.415 . S
H518 C515 0.999 . S
H519 C500 0.913 . S
H520 C538 0.951 . S
H521 C540 0.951 . S
H522 C542 0.950 . S
H523 C543 0.950 . S
H524 C545 0.950 . S
H525 C548 0.950 . S
H526 C549 0.950 . S
H527 C551 0.950 . S
H528 C552 0.950 . S
H529 C553 0.951 . S
H530 C555 0.951 . S
H531 C557 0.950 . S
H532 C558 0.950 . S
H533 C560 0.950 . S
H534 C563 0.950 . S
H535 C564 0.950 . S
H536 C566 0.950 . S
H537 C567 0.950 . S
C538 H520 0.951 . S
C538 C539 1.366 . S
C538 C540 1.388 . S
C539 C538 1.366 . S
C539 C543 1.385 . S
C540 H521 0.951 . S
C540 C538 1.388 . S
C540 C541 1.366 . S
C541 C540 1.366 . S
C541 C542 1.414 . S
C541 C544 1.499 . S
C542 H522 0.950 . S
C542 C541 1.414 . S
C542 C543 1.374 . S
C543 H523 0.950 . S
C543 C539 1.385 . S
C543 C542 1.374 . S
C544 C541 1.499 . S
C544 C545 1.373 . S
C544 C546 1.389 . S
C545 H524 0.950 . S
C545 C544 1.373 . S
C545 C561 1.377 . S
C546 C544 1.389 . S
C546 C547 1.524 . S
C546 C560 1.377 . S
C547 C546 1.524 . S
C547 C548 1.397 . S
C547 C552 1.363 . S
C548 H525 0.950 . S
C548 C547 1.397 . S
C548 C549 1.334 . S
C549 H526 0.950 . S
C549 C548 1.334 . S
C549 C550 1.287 . S
C550 C549 1.287 . S
C550 C551 1.524 . S
C550 H569 0.913 . S
C551 H527 0.950 . S
C551 C550 1.524 . S
C551 C552 1.415 . S
C552 H528 0.950 . S
C552 C547 1.363 . S
C552 C551 1.415 . S
C553 H529 0.951 . S
C553 C554 1.366 . S
C553 C555 1.388 . S
C554 C553 1.366 . S
C554 C558 1.385 . S
C555 H530 0.951 . S
C555 C553 1.388 . S
C555 C556 1.366 . S
C556 C555 1.366 . S
C556 C557 1.414 . S
C556 C559 1.499 . S
C557 H531 0.950 . S
C557 C556 1.414 . S
C557 C558 1.374 . S
C558 H532 0.950 . S
C558 C554 1.385 . S
C558 C557 1.374 . S
C559 C556 1.499 . S
C559 C560 1.373 . S
C559 C561 1.389 . S
C560 H533 0.950 . S
C560 C546 1.377 . S
C560 C559 1.373 . S
C561 C545 1.377 . S
C561 C559 1.389 . S
C561 C562 1.524 . S
C562 C561 1.524 . S
C562 C563 1.397 . S
C562 C567 1.363 . S
C563 H534 0.950 . S
C563 C562 1.397 . S
C563 C564 1.334 . S
C564 H535 0.950 . S
C564 C563 1.334 . S
C564 C565 1.287 . S
C565 C564 1.287 . S
C565 C566 1.524 . S
C565 H568 0.999 . S
C566 H536 0.950 . S
C566 C565 1.524 . S
C566 C567 1.415 . S
C567 H537 0.950 . S
C567 C562 1.363 . S
C567 C566 1.415 . S
H568 C565 0.999 . S
H569 C550 0.913 . S
H570 C588 0.951 . S
H571 C590 0.951 . S
H572 C592 0.950 . S
H573 C593 0.950 . S
H574 C595 0.950 . S
H575 C598 0.950 . S
H576 C599 0.950 . S
H577 C601 0.950 . S
H578 C602 0.950 . S
H579 C603 0.951 . S
H580 C605 0.951 . S
H581 C607 0.950 . S
H582 C608 0.950 . S
H583 C610 0.950 . S
H584 C613 0.950 . S
H585 C614 0.950 . S
H586 C616 0.950 . S
H587 C617 0.950 . S
C588 H570 0.951 . S
C588 C589 1.366 . S
C588 C590 1.388 . S
C589 C588 1.366 . S
C589 C593 1.385 . S
C590 H571 0.951 . S
C590 C588 1.388 . S
C590 C591 1.366 . S
C591 C590 1.366 . S
C591 C592 1.414 . S
C591 C594 1.499 . S
C592 H572 0.950 . S
C592 C591 1.414 . S
C592 C593 1.374 . S
C593 H573 0.950 . S
C593 C589 1.385 . S
C593 C592 1.374 . S
C594 C591 1.499 . S
C594 C595 1.373 . S
C594 C596 1.389 . S
C595 H574 0.950 . S
C595 C594 1.373 . S
C595 C611 1.377 . S
C596 C594 1.389 . S
C596 C597 1.524 . S
C596 C610 1.377 . S
C597 C596 1.524 . S
C597 C598 1.397 . S
C597 C602 1.363 . S
C598 H575 0.950 . S
C598 C597 1.397 . S
C598 C599 1.334 . S
C599 H576 0.950 . S
C599 C598 1.334 . S
C599 C600 1.287 . S
C600 C599 1.287 . S
C600 C601 1.524 . S
C600 H619 0.913 . S
C601 H577 0.950 . S
C601 C600 1.524 . S
C601 C602 1.415 . S
C602 H578 0.950 . S
C602 C597 1.363 . S
C602 C601 1.415 . S
C603 H579 0.951 . S
C603 C604 1.366 . S
C603 C605 1.388 . S
C604 C603 1.366 . S
C604 C608 1.385 . S
C605 H580 0.951 . S
C605 C603 1.388 . S
C605 C606 1.366 . S
C606 C605 1.366 . S
C606 C607 1.414 . S
C606 C609 1.499 . S
C607 H581 0.950 . S
C607 C606 1.414 . S
C607 C608 1.374 . S
C608 H582 0.950 . S
C608 C604 1.385 . S
C608 C607 1.374 . S
C609 C606 1.499 . S
C609 C610 1.373 . S
C609 C611 1.389 . S
C610 H583 0.950 . S
C610 C596 1.377 . S
C610 C609 1.373 . S
C611 C595 1.377 . S
C611 C609 1.389 . S
C611 C612 1.524 . S
C612 C611 1.524 . S
C612 C613 1.397 . S
C612 C617 1.363 . S
C613 H584 0.950 . S
C613 C612 1.397 . S
C613 C614 1.334 . S
C614 H585 0.950 . S
C614 C613 1.334 . S
C614 C615 1.287 . S
C615 C614 1.287 . S
C615 C616 1.524 . S
C615 H618 0.999 . S
C616 H586 0.950 . S
C616 C615 1.524 . S
C616 C617 1.415 . S
C617 H587 0.950 . S
C617 C612 1.363 . S
C617 C616 1.415 . S
H618 C615 0.999 . S
H619 C600 0.913 . S
H620 C638 0.951 . S
H621 C640 0.951 . S
H622 C642 0.950 . S
H623 C643 0.950 . S
H624 C645 0.950 . S
H625 C648 0.950 . S
H626 C649 0.950 . S
H627 C651 0.950 1_556 S
H628 C652 0.950 . S
H629 C653 0.951 . S
H630 C655 0.951 . S
H631 C657 0.950 . S
H632 C658 0.950 1_556 S
H633 C660 0.950 . S
H634 C663 0.950 . S
H635 C664 0.950 . S
H636 C666 0.950 . S
H637 C667 0.950 . S
C638 H620 0.951 . S
C638 C639 1.366 . S
C638 C640 1.388 . S
C639 C638 1.366 . S
C639 C643 1.385 . S
C640 H621 0.951 . S
C640 C638 1.388 . S
C640 C641 1.366 . S
C641 C640 1.366 . S
C641 C642 1.414 . S
C641 C644 1.499 . S
C642 H622 0.950 . S
C642 C641 1.414 . S
C642 C643 1.374 . S
C643 H623 0.950 . S
C643 C639 1.385 . S
C643 C642 1.374 . S
C644 C641 1.499 . S
C644 C645 1.373 . S
C644 C646 1.389 . S
C645 H624 0.950 . S
C645 C644 1.373 . S
C645 C661 1.377 . S
C646 C644 1.389 . S
C646 C647 1.524 . S
C646 C660 1.377 . S
C647 C646 1.524 . S
C647 C648 1.397 . S
C647 C652 1.363 . S
C648 H625 0.950 . S
C648 C647 1.397 . S
C648 C649 1.334 . S
C649 H626 0.950 . S
C649 C648 1.334 . S
C649 C650 1.287 . S
C650 C649 1.287 . S
C650 C651 1.524 . S
C650 H669 0.913 . S
C651 H627 0.950 1_554 S
C651 C650 1.524 . S
C651 C652 1.415 . S
C652 H628 0.950 . S
C652 C647 1.363 . S
C652 C651 1.415 . S
C653 H629 0.951 . S
C653 C654 1.366 . S
C653 C655 1.388 . S
C654 C653 1.366 . S
C654 C658 1.385 . S
C655 H630 0.951 . S
C655 C653 1.388 . S
C655 C656 1.366 . S
C656 C655 1.366 . S
C656 C657 1.414 . S
C656 C659 1.499 . S
C657 H631 0.950 . S
C657 C656 1.414 . S
C657 C658 1.374 . S
C658 H632 0.950 1_554 S
C658 C654 1.385 . S
C658 C657 1.374 . S
C659 C656 1.499 . S
C659 C660 1.373 . S
C659 C661 1.389 . S
C660 H633 0.950 . S
C660 C646 1.377 . S
C660 C659 1.373 . S
C661 C645 1.377 . S
C661 C659 1.389 . S
C661 C662 1.524 . S
C662 C661 1.524 . S
C662 C663 1.397 . S
C662 C667 1.363 . S
C663 H634 0.950 . S
C663 C662 1.397 . S
C663 C664 1.334 . S
C664 H635 0.950 . S
C664 C663 1.334 . S
C664 C665 1.287 . S
C665 C664 1.287 . S
C665 C666 1.524 . S
C665 H668 0.999 . S
C666 H636 0.950 . S
C666 C665 1.524 . S
C666 C667 1.415 . S
C667 H637 0.950 . S
C667 C662 1.363 . S
C667 C666 1.415 . S
H668 C665 0.999 . S
H669 C650 0.913 . S
H670 C688 0.951 . S
H671 C690 0.951 . S
H672 C692 0.950 . S
H673 C693 0.950 . S
H674 C695 0.950 . S
H675 C698 0.950 . S
H676 C699 0.950 . S
H677 C701 0.950 1_554 S
H678 C702 0.950 . S
H679 C703 0.951 . S
H680 C705 0.951 . S
H681 C707 0.950 . S
H682 C708 0.950 . S
H683 C710 0.950 . S
H684 C713 0.950 . S
H685 C714 0.950 . S
H686 C716 0.950 . S
H687 C717 0.950 . S
C688 H670 0.951 . S
C688 C689 1.366 . S
C688 C690 1.388 . S
C689 C688 1.366 . S
C689 C693 1.385 . S
C690 H671 0.951 . S
C690 C688 1.388 . S
C690 C691 1.366 . S
C691 C690 1.366 . S
C691 C692 1.414 . S
C691 C694 1.499 . S
C692 H672 0.950 . S
C692 C691 1.414 . S
C692 C693 1.374 . S
C693 H673 0.950 . S
C693 C689 1.385 . S
C693 C692 1.374 . S
C694 C691 1.499 . S
C694 C695 1.373 . S
C694 C696 1.389 . S
C695 H674 0.950 . S
C695 C694 1.373 . S
C695 C711 1.377 . S
C696 C694 1.389 . S
C696 C697 1.524 . S
C696 C710 1.377 . S
C697 C696 1.524 . S
C697 C698 1.397 . S
C697 C702 1.363 . S
C698 H675 0.950 . S
C698 C697 1.397 . S
C698 C699 1.334 . S
C699 H676 0.950 . S
C699 C698 1.334 . S
C699 C700 1.287 . S
C700 C699 1.287 . S
C700 C701 1.524 . S
C700 H719 0.913 . S
C701 H677 0.950 1_556 S
C701 C700 1.524 . S
C701 C702 1.415 . S
C702 H678 0.950 . S
C702 C697 1.363 . S
C702 C701 1.415 . S
C703 H679 0.951 . S
C703 C704 1.366 . S
C703 C705 1.388 . S
C704 C703 1.366 . S
C704 C708 1.385 . S
C705 H680 0.951 . S
C705 C703 1.388 . S
C705 C706 1.366 . S
C706 C705 1.366 . S
C706 C707 1.414 . S
C706 C709 1.499 . S
C707 H681 0.950 . S
C707 C706 1.414 . S
C707 C708 1.374 . S
C708 H682 0.950 . S
C708 C704 1.385 . S
C708 C707 1.374 . S
C709 C706 1.499 . S
C709 C710 1.373 . S
C709 C711 1.389 . S
C710 H683 0.950 . S
C710 C696 1.377 . S
C710 C709 1.373 . S
C711 C695 1.377 . S
C711 C709 1.389 . S
C711 C712 1.524 . S
C712 C711 1.524 . S
C712 C713 1.397 . S
C712 C717 1.363 . S
C713 H684 0.950 . S
C713 C712 1.397 . S
C713 C714 1.334 . S
C714 H685 0.950 . S
C714 C713 1.334 . S
C714 C715 1.287 . S
C715 C714 1.287 . S
C715 C716 1.524 . S
C715 H718 0.999 . S
C716 H686 0.950 . S
C716 C715 1.524 . S
C716 C717 1.415 . S
C717 H687 0.950 . S
C717 C712 1.363 . S
C717 C716 1.415 . S
H718 C715 0.999 . S
H719 C700 0.913 . S
H720 C738 0.951 . S
H721 C740 0.951 . S
H722 C742 0.950 . S
H723 C743 0.950 . S
H724 C745 0.950 . S
H725 C748 0.950 . S
H726 C749 0.950 . S
H727 C751 0.950 . S
H728 C752 0.950 . S
H729 C753 0.951 . S
H730 C755 0.951 . S
H731 C757 0.950 . S
H732 C758 0.950 . S
H733 C760 0.950 . S
H734 C763 0.950 . S
H735 C764 0.950 . S
H736 C766 0.950 . S
H737 C767 0.950 . S
C738 H720 0.951 . S
C738 C739 1.366 . S
C738 C740 1.388 . S
C739 C738 1.366 . S
C739 C743 1.385 . S
C740 H721 0.951 . S
C740 C738 1.388 . S
C740 C741 1.366 . S
C741 C740 1.366 . S
C741 C742 1.414 . S
C741 C744 1.499 . S
C742 H722 0.950 . S
C742 C741 1.414 . S
C742 C743 1.374 . S
C743 H723 0.950 . S
C743 C739 1.385 . S
C743 C742 1.374 . S
C744 C741 1.499 . S
C744 C745 1.373 . S
C744 C746 1.389 . S
C745 H724 0.950 . S
C745 C744 1.373 . S
C745 C761 1.377 . S
C746 C744 1.389 . S
C746 C747 1.524 . S
C746 C760 1.377 . S
C747 C746 1.524 . S
C747 C748 1.397 . S
C747 C752 1.363 . S
C748 H725 0.950 . S
C748 C747 1.397 . S
C748 C749 1.334 . S
C749 H726 0.950 . S
C749 C748 1.334 . S
C749 C750 1.287 . S
C750 C749 1.287 . S
C750 C751 1.524 . S
C750 H769 0.913 . S
C751 H727 0.950 . S
C751 C750 1.524 . S
C751 C752 1.415 . S
C752 H728 0.950 . S
C752 C747 1.363 . S
C752 C751 1.415 . S
C753 H729 0.951 . S
C753 C754 1.366 . S
C753 C755 1.388 . S
C754 C753 1.366 . S
C754 C758 1.385 . S
C755 H730 0.951 . S
C755 C753 1.388 . S
C755 C756 1.366 . S
C756 C755 1.366 . S
C756 C757 1.414 . S
C756 C759 1.499 . S
C757 H731 0.950 . S
C757 C756 1.414 . S
C757 C758 1.374 . S
C758 H732 0.950 . S
C758 C754 1.385 . S
C758 C757 1.374 . S
C759 C756 1.499 . S
C759 C760 1.373 . S
C759 C761 1.389 . S
C760 H733 0.950 . S
C760 C746 1.377 . S
C760 C759 1.373 . S
C761 C745 1.377 . S
C761 C759 1.389 . S
C761 C762 1.524 . S
C762 C761 1.524 . S
C762 C763 1.397 . S
C762 C767 1.363 . S
C763 H734 0.950 . S
C763 C762 1.397 . S
C763 C764 1.334 . S
C764 H735 0.950 . S
C764 C763 1.334 . S
C764 C765 1.287 . S
C765 C764 1.287 . S
C765 C766 1.524 1_556 S
C765 H768 0.999 1_556 S
C766 H736 0.950 . S
C766 C765 1.524 1_554 S
C766 C767 1.415 1_554 S
C767 H737 0.950 . S
C767 C762 1.363 . S
C767 C766 1.415 1_556 S
H768 C765 0.999 1_554 S
H769 C750 0.913 . S
H770 C788 0.951 . S
H771 C790 0.951 . S
H772 C792 0.950 . S
H773 C793 0.950 . S
H774 C795 0.950 . S
H775 C798 0.950 . S
H776 C799 0.950 . S
H777 C801 0.950 . S
H778 C802 0.950 . S
H779 C803 0.951 . S
H780 C805 0.951 . S
H781 C807 0.950 . S
H782 C808 0.950 1_556 S
H783 C810 0.950 . S
H784 C813 0.950 . S
H785 C814 0.950 1_556 S
H786 C816 0.950 . S
H787 C817 0.950 . S
C788 H770 0.951 . S
C788 C789 1.366 . S
C788 C790 1.388 . S
C789 C788 1.366 . S
C789 C793 1.385 . S
C790 H771 0.951 . S
C790 C788 1.388 . S
C790 C791 1.366 . S
C791 C790 1.366 . S
C791 C792 1.414 . S
C791 C794 1.499 . S
C792 H772 0.950 . S
C792 C791 1.414 . S
C792 C793 1.374 . S
C793 H773 0.950 . S
C793 C789 1.385 . S
C793 C792 1.374 . S
C794 C791 1.499 . S
C794 C795 1.373 . S
C794 C796 1.389 . S
C795 H774 0.950 . S
C795 C794 1.373 . S
C795 C811 1.377 . S
C796 C794 1.389 . S
C796 C797 1.524 . S
C796 C810 1.377 . S
C797 C796 1.524 . S
C797 C798 1.397 . S
C797 C802 1.363 . S
C798 H775 0.950 . S
C798 C797 1.397 . S
C798 C799 1.334 . S
C799 H776 0.950 . S
C799 C798 1.334 . S
C799 C800 1.287 . S
C800 C799 1.287 . S
C800 C801 1.524 . S
C800 H819 0.913 . S
C801 H777 0.950 . S
C801 C800 1.524 . S
C801 C802 1.415 . S
C802 H778 0.950 . S
C802 C797 1.363 . S
C802 C801 1.415 . S
C803 H779 0.951 . S
C803 C804 1.366 . S
C803 C805 1.388 . S
C804 C803 1.366 . S
C804 C808 1.385 . S
C805 H780 0.951 . S
C805 C803 1.388 . S
C805 C806 1.366 . S
C806 C805 1.366 . S
C806 C807 1.414 . S
C806 C809 1.499 . S
C807 H781 0.950 . S
C807 C806 1.414 . S
C807 C808 1.374 . S
C808 H782 0.950 1_554 S
C808 C804 1.385 . S
C808 C807 1.374 . S
C809 C806 1.499 . S
C809 C810 1.373 . S
C809 C811 1.389 . S
C810 H783 0.950 . S
C810 C796 1.377 . S
C810 C809 1.373 . S
C811 C795 1.377 . S
C811 C809 1.389 . S
C811 C812 1.524 . S
C812 C811 1.524 . S
C812 C813 1.397 . S
C812 C817 1.363 . S
C813 H784 0.950 . S
C813 C812 1.397 . S
C813 C814 1.334 . S
C814 H785 0.950 1_554 S
C814 C813 1.334 . S
C814 C815 1.287 . S
C815 C814 1.287 . S
C815 C816 1.524 . S
C815 H818 0.999 . S
C816 H786 0.950 . S
C816 C815 1.524 . S
C816 C817 1.415 . S
C817 H787 0.950 . S
C817 C812 1.363 . S
C817 C816 1.415 . S
H818 C815 0.999 . S
H819 C800 0.913 . S
H820 C838 0.951 . S
H821 C840 0.951 . S
H822 C842 0.950 . S
H823 C843 0.950 . S
H824 C845 0.950 . S
H825 C848 0.950 . S
H826 C849 0.950 . S
H827 C851 0.950 . S
H828 C852 0.950 . S
H829 C853 0.951 . S
H830 C855 0.951 . S
H831 C857 0.950 . S
H832 C858 0.950 . S
H833 C860 0.950 . S
H834 C863 0.950 . S
H835 C864 0.950 . S
H836 C866 0.950 . S
H837 C867 0.950 . S
C838 H820 0.951 . S
C838 C839 1.366 . S
C838 C840 1.388 . S
C839 C838 1.366 . S
C839 C843 1.385 . S
C840 H821 0.951 . S
C840 C838 1.388 . S
C840 C841 1.366 . S
C841 C840 1.366 . S
C841 C842 1.414 . S
C841 C844 1.499 . S
C842 H822 0.950 . S
C842 C841 1.414 . S
C842 C843 1.374 . S
C843 H823 0.950 . S
C843 C839 1.385 . S
C843 C842 1.374 . S
C844 C841 1.499 . S
C844 C845 1.373 . S
C844 C846 1.389 . S
C845 H824 0.950 . S
C845 C844 1.373 . S
C845 C861 1.377 . S
C846 C844 1.389 . S
C846 C847 1.524 . S
C846 C860 1.377 . S
C847 C846 1.524 . S
C847 C848 1.397 . S
C847 C852 1.363 . S
C848 H825 0.950 . S
C848 C847 1.397 . S
C848 C849 1.334 . S
C849 H826 0.950 . S
C849 C848 1.334 . S
C849 C850 1.287 . S
C850 C849 1.287 . S
C850 C851 1.524 . S
C850 H869 0.913 . S
C851 H827 0.950 . S
C851 C850 1.524 . S
C851 C852 1.415 . S
C852 H828 0.950 . S
C852 C847 1.363 . S
C852 C851 1.415 . S
C853 H829 0.951 . S
C853 C854 1.366 . S
C853 C855 1.388 . S
C854 C853 1.366 . S
C854 C858 1.385 . S
C855 H830 0.951 . S
C855 C853 1.388 . S
C855 C856 1.366 . S
C856 C855 1.366 . S
C856 C857 1.414 . S
C856 C859 1.499 . S
C857 H831 0.950 . S
C857 C856 1.414 . S
C857 C858 1.374 . S
C858 H832 0.950 . S
C858 C854 1.385 . S
C858 C857 1.374 . S
C859 C856 1.499 . S
C859 C860 1.373 . S
C859 C861 1.389 . S
C860 H833 0.950 . S
C860 C846 1.377 . S
C860 C859 1.373 . S
C861 C845 1.377 . S
C861 C859 1.389 . S
C861 C862 1.524 . S
C862 C861 1.524 . S
C862 C863 1.397 . S
C862 C867 1.363 . S
C863 H834 0.950 . S
C863 C862 1.397 . S
C863 C864 1.334 . S
C864 H835 0.950 . S
C864 C863 1.334 . S
C864 C865 1.287 . S
C865 C864 1.287 . S
C865 C866 1.524 . S
C865 H868 0.999 . S
C866 H836 0.950 . S
C866 C865 1.524 . S
C866 C867 1.415 . S
C867 H837 0.950 . S
C867 C862 1.363 . S
C867 C866 1.415 . S
H868 C865 0.999 . S
H869 C850 0.913 . S
H870 C888 0.951 . S
H871 C890 0.951 . S
H872 C892 0.950 . S
H873 C893 0.950 . S
H874 C895 0.950 . S
H875 C898 0.950 . S
H876 C899 0.950 . S
H877 C901 0.950 . S
H878 C902 0.950 . S
H879 C903 0.951 . S
H880 C905 0.951 . S
H881 C907 0.950 . S
H882 C908 0.950 . S
H883 C910 0.950 . S
H884 C913 0.950 . S
H885 C914 0.950 . S
H886 C916 0.950 . S
H887 C917 0.950 . S
C888 H870 0.951 . S
C888 C889 1.366 . S
C888 C890 1.388 . S
C889 C888 1.366 . S
C889 C893 1.385 . S
C890 H871 0.951 . S
C890 C888 1.388 . S
C890 C891 1.366 . S
C891 C890 1.366 . S
C891 C892 1.414 . S
C891 C894 1.499 . S
C892 H872 0.950 . S
C892 C891 1.414 . S
C892 C893 1.374 . S
C893 H873 0.950 . S
C893 C889 1.385 . S
C893 C892 1.374 . S
C894 C891 1.499 . S
C894 C895 1.373 . S
C894 C896 1.389 . S
C895 H874 0.950 . S
C895 C894 1.373 . S
C895 C911 1.377 . S
C896 C894 1.389 . S
C896 C897 1.524 . S
C896 C910 1.377 . S
C897 C896 1.524 . S
C897 C898 1.397 . S
C897 C902 1.363 . S
C898 H875 0.950 . S
C898 C897 1.397 . S
C898 C899 1.334 . S
C899 H876 0.950 . S
C899 C898 1.334 . S
C899 C900 1.287 . S
C900 C899 1.287 . S
C900 C901 1.524 . S
C900 H919 0.913 . S
C901 H877 0.950 . S
C901 C900 1.524 . S
C901 C902 1.415 . S
C902 H878 0.950 . S
C902 C897 1.363 . S
C902 C901 1.415 . S
C903 H879 0.951 . S
C903 C904 1.366 . S
C903 C905 1.388 . S
C904 C903 1.366 . S
C904 C908 1.385 . S
C905 H880 0.951 . S
C905 C903 1.388 . S
C905 C906 1.366 . S
C906 C905 1.366 . S
C906 C907 1.414 . S
C906 C909 1.499 . S
C907 H881 0.950 . S
C907 C906 1.414 . S
C907 C908 1.374 . S
C908 H882 0.950 . S
C908 C904 1.385 . S
C908 C907 1.374 . S
C909 C906 1.499 . S
C909 C910 1.373 . S
C909 C911 1.389 . S
C910 H883 0.950 . S
C910 C896 1.377 . S
C910 C909 1.373 . S
C911 C895 1.377 . S
C911 C909 1.389 . S
C911 C912 1.524 . S
C912 C911 1.524 . S
C912 C913 1.397 . S
C912 C917 1.363 . S
C913 H884 0.950 . S
C913 C912 1.397 . S
C913 C914 1.334 . S
C914 H885 0.950 . S
C914 C913 1.334 . S
C914 C915 1.287 . S
C915 C914 1.287 . S
C915 C916 1.524 . S
C915 H918 0.999 . S
C916 H886 0.950 . S
C916 C915 1.524 . S
C916 C917 1.415 . S
C917 H887 0.950 . S
C917 C912 1.363 . S
C917 C916 1.415 . S
H918 C915 0.999 . S
H919 C900 0.913 . S
H920 C938 0.951 . S
H921 C940 0.951 . S
H922 C942 0.950 . S
H923 C943 0.950 . S
H924 C945 0.950 . S
H925 C948 0.950 . S
H926 C949 0.950 . S
H927 C951 0.950 . S
H928 C952 0.950 . S
H929 C953 0.951 . S
H930 C955 0.951 . S
H931 C957 0.950 . S
H932 C958 0.950 . S
H933 C960 0.950 . S
H934 C963 0.950 . S
H935 C964 0.950 . S
H936 C966 0.950 . S
H937 C967 0.950 . S
C938 H920 0.951 . S
C938 C939 1.366 . S
C938 C940 1.388 . S
C939 C938 1.366 . S
C939 C943 1.385 . S
C940 H921 0.951 . S
C940 C938 1.388 . S
C940 C941 1.366 . S
C941 C940 1.366 . S
C941 C942 1.414 . S
C941 C944 1.499 . S
C942 H922 0.950 . S
C942 C941 1.414 . S
C942 C943 1.374 . S
C943 H923 0.950 . S
C943 C939 1.385 . S
C943 C942 1.374 . S
C944 C941 1.499 . S
C944 C945 1.373 . S
C944 C946 1.389 . S
C945 H924 0.950 . S
C945 C944 1.373 . S
C945 C961 1.377 . S
C946 C944 1.389 . S
C946 C947 1.524 . S
C946 C960 1.377 . S
C947 C946 1.524 . S
C947 C948 1.397 . S
C947 C952 1.363 . S
C948 H925 0.950 . S
C948 C947 1.397 . S
C948 C949 1.334 . S
C949 H926 0.950 . S
C949 C948 1.334 . S
C949 C950 1.287 . S
C950 C949 1.287 . S
C950 C951 1.524 . S
C950 H969 0.913 . S
C951 H927 0.950 . S
C951 C950 1.524 . S
C951 C952 1.415 . S
C952 H928 0.950 . S
C952 C947 1.363 . S
C952 C951 1.415 . S
C953 H929 0.951 . S
C953 C954 1.366 . S
C953 C955 1.388 . S
C954 C953 1.366 . S
C954 C958 1.385 . S
C955 H930 0.951 . S
C955 C953 1.388 . S
C955 C956 1.366 . S
C956 C955 1.366 . S
C956 C957 1.414 . S
C956 C959 1.499 . S
C957 H931 0.950 . S
C957 C956 1.414 . S
C957 C958 1.374 . S
C958 H932 0.950 . S
C958 C954 1.385 . S
C958 C957 1.374 . S
C959 C956 1.499 . S
C959 C960 1.373 . S
C959 C961 1.389 . S
C960 H933 0.950 . S
C960 C946 1.377 . S
C960 C959 1.373 . S
C961 C945 1.377 . S
C961 C959 1.389 . S
C961 C962 1.524 . S
C962 C961 1.524 . S
C962 C963 1.397 . S
C962 C967 1.363 . S
C963 H934 0.950 . S
C963 C962 1.397 . S
C963 C964 1.334 1_554 S
C964 H935 0.950 . S
C964 C963 1.334 1_556 S
C964 C965 1.287 . S
C965 C964 1.287 . S
C965 C966 1.524 . S
C965 H968 0.999 . S
C966 H936 0.950 . S
C966 C965 1.524 . S
C966 C967 1.415 1_556 S
C967 H937 0.950 . S
C967 C962 1.363 . S
C967 C966 1.415 1_554 S
H968 C965 0.999 . S
H969 C950 0.913 . S
H970 C988 0.951 1_554 S
H971 C990 0.951 . S
H972 C992 0.950 . S
H973 C993 0.950 . S
H974 C995 0.950 . S
H975 C998 0.950 . S
H976 C999 0.950 . S
H977 C1001 0.950 . S
H978 C1002 0.950 . S
H979 C1003 0.951 . S
H980 C1005 0.951 . S
H981 C1007 0.950 . S
H982 C1008 0.950 . S
H983 C1010 0.950 . S
H984 C1013 0.950 . S
H985 C1014 0.950 . S
H986 C1016 0.950 . S
H987 C1017 0.950 . S
C988 H970 0.951 1_556 S
C988 C989 1.366 . S
C988 C990 1.388 . S
C989 C988 1.366 . S
C989 C993 1.385 . S
C990 H971 0.951 . S
C990 C988 1.388 . S
C990 C991 1.366 . S
C991 C990 1.366 . S
C991 C992 1.414 . S
C991 C994 1.499 . S
C992 H972 0.950 . S
C992 C991 1.414 . S
C992 C993 1.374 . S
C993 H973 0.950 . S
C993 C989 1.385 . S
C993 C992 1.374 . S
C994 C991 1.499 . S
C994 C995 1.373 . S
C994 C996 1.389 . S
C995 H974 0.950 . S
C995 C994 1.373 . S
C995 C1011 1.377 . S
C996 C994 1.389 . S
C996 C997 1.524 . S
C996 C1010 1.377 . S
C997 C996 1.524 . S
C997 C998 1.397 . S
C997 C1002 1.363 . S
C998 H975 0.950 . S
C998 C997 1.397 . S
C998 C999 1.334 . S
C999 H976 0.950 . S
C999 C998 1.334 . S
C999 C1000 1.287 . S
C1000 C999 1.287 . S
C1000 C1001 1.524 . S
C1000 H1019 0.913 . S
C1001 H977 0.950 . S
C1001 C1000 1.524 . S
C1001 C1002 1.415 . S
C1002 H978 0.950 . S
C1002 C997 1.363 . S
C1002 C1001 1.415 . S
C1003 H979 0.951 . S
C1003 C1004 1.366 . S
C1003 C1005 1.388 . S
C1004 C1003 1.366 . S
C1004 C1008 1.385 . S
C1005 H980 0.951 . S
C1005 C1003 1.388 . S
C1005 C1006 1.366 . S
C1006 C1005 1.366 . S
C1006 C1007 1.414 . S
C1006 C1009 1.499 . S
C1007 H981 0.950 . S
C1007 C1006 1.414 . S
C1007 C1008 1.374 . S
C1008 H982 0.950 . S
C1008 C1004 1.385 . S
C1008 C1007 1.374 . S
C1009 C1006 1.499 . S
C1009 C1010 1.373 . S
C1009 C1011 1.389 . S
C1010 H983 0.950 . S
C1010 C996 1.377 . S
C1010 C1009 1.373 . S
C1011 C995 1.377 . S
C1011 C1009 1.389 . S
C1011 C1012 1.524 . S
C1012 C1011 1.524 . S
C1012 C1013 1.397 . S
C1012 C1017 1.363 . S
C1013 H984 0.950 . S
C1013 C1012 1.397 . S
C1013 C1014 1.334 . S
C1014 H985 0.950 . S
C1014 C1013 1.334 . S
C1014 C1015 1.287 . S
C1015 C1014 1.287 . S
C1015 C1016 1.524 . S
C1015 H1018 0.999 . S
C1016 H986 0.950 . S
C1016 C1015 1.524 . S
C1016 C1017 1.415 . S
C1017 H987 0.950 . S
C1017 C1012 1.363 . S
C1017 C1016 1.415 . S
H1018 C1015 0.999 . S
H1019 C1000 0.913 . S
H1020 C1038 0.951 . S
H1021 C1040 0.951 . S
H1022 C1042 0.950 . S
H1023 C1043 0.950 . S
H1024 C1045 0.950 . S
H1025 C1048 0.950 . S
H1026 C1049 0.950 . S
H1027 C1051 0.950 . S
H1028 C1052 0.950 . S
H1029 C1053 0.951 . S
H1030 C1055 0.951 . S
H1031 C1057 0.950 . S
H1032 C1058 0.950 . S
H1033 C1060 0.950 . S
H1034 C1063 0.950 . S
H1035 C1064 0.950 . S
H1036 C1066 0.950 . S
H1037 C1067 0.950 . S
C1038 H1020 0.951 . S
C1038 C1039 1.366 . S
C1038 C1040 1.388 . S
C1039 C1038 1.366 . S
C1039 C1043 1.385 . S
C1040 H1021 0.951 . S
C1040 C1038 1.388 . S
C1040 C1041 1.366 . S
C1041 C1040 1.366 . S
C1041 C1042 1.414 . S
C1041 C1044 1.499 . S
C1042 H1022 0.950 . S
C1042 C1041 1.414 . S
C1042 C1043 1.374 . S
C1043 H1023 0.950 . S
C1043 C1039 1.385 . S
C1043 C1042 1.374 . S
C1044 C1041 1.499 . S
C1044 C1045 1.373 . S
C1044 C1046 1.389 . S
C1045 H1024 0.950 . S
C1045 C1044 1.373 . S
C1045 C1061 1.377 . S
C1046 C1044 1.389 . S
C1046 C1047 1.524 . S
C1046 C1060 1.377 . S
C1047 C1046 1.524 . S
C1047 C1048 1.397 . S
C1047 C1052 1.363 . S
C1048 H1025 0.950 . S
C1048 C1047 1.397 . S
C1048 C1049 1.334 . S
C1049 H1026 0.950 . S
C1049 C1048 1.334 . S
C1049 C1050 1.287 . S
C1050 C1049 1.287 . S
C1050 C1051 1.524 . S
C1050 H1069 0.913 . S
C1051 H1027 0.950 . S
C1051 C1050 1.524 . S
C1051 C1052 1.415 . S
C1052 H1028 0.950 . S
C1052 C1047 1.363 . S
C1052 C1051 1.415 . S
C1053 H1029 0.951 . S
C1053 C1054 1.366 . S
C1053 C1055 1.388 . S
C1054 C1053 1.366 . S
C1054 C1058 1.385 . S
C1055 H1030 0.951 . S
C1055 C1053 1.388 . S
C1055 C1056 1.366 . S
C1056 C1055 1.366 . S
C1056 C1057 1.414 . S
C1056 C1059 1.499 . S
C1057 H1031 0.950 . S
C1057 C1056 1.414 . S
C1057 C1058 1.374 . S
C1058 H1032 0.950 . S
C1058 C1054 1.385 . S
C1058 C1057 1.374 . S
C1059 C1056 1.499 . S
C1059 C1060 1.373 . S
C1059 C1061 1.389 . S
C1060 H1033 0.950 . S
C1060 C1046 1.377 . S
C1060 C1059 1.373 . S
C1061 C1045 1.377 . S
C1061 C1059 1.389 . S
C1061 C1062 1.524 . S
C1062 C1061 1.524 . S
C1062 C1063 1.397 . S
C1062 C1067 1.363 . S
C1063 H1034 0.950 . S
C1063 C1062 1.397 . S
C1063 C1064 1.334 . S
C1064 H1035 0.950 . S
C1064 C1063 1.334 . S
C1064 C1065 1.287 . S
C1065 C1064 1.287 . S
C1065 C1066 1.524 . S
C1065 H1068 0.999 . S
C1066 H1036 0.950 . S
C1066 C1065 1.524 . S
C1066 C1067 1.415 . S
C1067 H1037 0.950 . S
C1067 C1062 1.363 . S
C1067 C1066 1.415 . S
H1068 C1065 0.999 . S
H1069 C1050 0.913 . S
H1070 C1088 0.951 . S
H1071 C1090 0.951 . S
H1072 C1092 0.950 . S
H1073 C1093 0.950 . S
H1074 C1095 0.950 . S
H1075 C1098 0.950 . S
H1076 C1099 0.950 . S
H1077 C1101 0.950 . S
H1078 C1102 0.950 . S
H1079 C1103 0.951 . S
H1080 C1105 0.951 . S
H1081 C1107 0.950 . S
H1082 C1108 0.950 . S
H1083 C1110 0.950 . S
H1084 C1113 0.950 . S
H1085 C1114 0.950 . S
H1086 C1116 0.950 . S
H1087 C1117 0.950 . S
C1088 H1070 0.951 . S
C1088 C1089 1.366 . S
C1088 C1090 1.388 . S
C1089 C1088 1.366 . S
C1089 C1093 1.385 . S
C1090 H1071 0.951 . S
C1090 C1088 1.388 . S
C1090 C1091 1.366 . S
C1091 C1090 1.366 . S
C1091 C1092 1.414 . S
C1091 C1094 1.499 . S
C1092 H1072 0.950 . S
C1092 C1091 1.414 . S
C1092 C1093 1.374 . S
C1093 H1073 0.950 . S
C1093 C1089 1.385 . S
C1093 C1092 1.374 . S
C1094 C1091 1.499 . S
C1094 C1095 1.373 . S
C1094 C1096 1.389 . S
C1095 H1074 0.950 . S
C1095 C1094 1.373 . S
C1095 C1111 1.377 . S
C1096 C1094 1.389 . S
C1096 C1097 1.524 . S
C1096 C1110 1.377 . S
C1097 C1096 1.524 . S
C1097 C1098 1.397 . S
C1097 C1102 1.363 . S
C1098 H1075 0.950 . S
C1098 C1097 1.397 . S
C1098 C1099 1.334 . S
C1099 H1076 0.950 . S
C1099 C1098 1.334 . S
C1099 C1100 1.287 . S
C1100 C1099 1.287 . S
C1100 C1101 1.524 . S
C1100 H1119 0.913 . S
C1101 H1077 0.950 . S
C1101 C1100 1.524 . S
C1101 C1102 1.415 . S
C1102 H1078 0.950 . S
C1102 C1097 1.363 . S
C1102 C1101 1.415 . S
C1103 H1079 0.951 . S
C1103 C1104 1.366 . S
C1103 C1105 1.388 . S
C1104 C1103 1.366 . S
C1104 C1108 1.385 . S
C1105 H1080 0.951 . S
C1105 C1103 1.388 . S
C1105 C1106 1.366 . S
C1106 C1105 1.366 . S
C1106 C1107 1.414 . S
C1106 C1109 1.499 . S
C1107 H1081 0.950 . S
C1107 C1106 1.414 . S
C1107 C1108 1.374 . S
C1108 H1082 0.950 . S
C1108 C1104 1.385 . S
C1108 C1107 1.374 . S
C1109 C1106 1.499 . S
C1109 C1110 1.373 . S
C1109 C1111 1.389 . S
C1110 H1083 0.950 . S
C1110 C1096 1.377 . S
C1110 C1109 1.373 . S
C1111 C1095 1.377 . S
C1111 C1109 1.389 . S
C1111 C1112 1.524 . S
C1112 C1111 1.524 . S
C1112 C1113 1.397 . S
C1112 C1117 1.363 . S
C1113 H1084 0.950 . S
C1113 C1112 1.397 . S
C1113 C1114 1.334 . S
C1114 H1085 0.950 . S
C1114 C1113 1.334 . S
C1114 C1115 1.287 . S
C1115 C1114 1.287 . S
C1115 C1116 1.524 . S
C1115 H1118 0.999 . S
C1116 H1086 0.950 . S
C1116 C1115 1.524 . S
C1116 C1117 1.415 . S
C1117 H1087 0.950 . S
C1117 C1112 1.363 . S
C1117 C1116 1.415 . S
H1118 C1115 0.999 . S
H1119 C1100 0.913 . S
H1120 C1138 0.951 . S
H1121 C1140 0.951 . S
H1122 C1142 0.943 1_455 S
H1123 C1143 0.950 1_455 S
H1124 C1145 0.950 . S
H1125 C1148 0.950 . S
H1126 C1149 0.950 . S
H1127 C1151 0.950 . S
H1128 C1152 0.950 . S
H1129 C1153 0.951 . S
H1130 C1155 0.951 . S
H1131 C1157 0.939 1_655 S
H1132 C1158 0.950 1_655 S
H1133 C1160 0.950 . S
H1134 C1163 0.950 . S
H1135 C1164 0.950 . S
H1136 C1166 0.950 . S
H1137 C1167 0.950 . S
C1138 H1120 0.951 . S
C1138 C1139 1.366 1_565 S
C1138 C1140 1.388 . S
C1139 C1138 1.366 1_545 S
C1139 C1143 1.385 . S
C1140 H1121 0.951 . S
C1140 C1138 1.388 . S
C1140 C1141 1.366 1_565 S
C1141 C1140 1.366 1_545 S
C1141 C1142 1.421 . S
C1141 C1144 1.499 . S
C1142 H1122 0.943 1_655 S
C1142 C1141 1.421 . S
C1142 C1143 1.374 . S
C1143 H1123 0.950 1_655 S
C1143 C1139 1.385 . S
C1143 C1142 1.374 . S
C1144 C1141 1.499 . S
C1144 C1145 1.373 1_655 S
C1144 C1146 1.389 1_545 S
C1145 H1124 0.950 . S
C1145 C1144 1.373 1_455 S
C1145 C1161 1.377 1_556 S
C1146 C1144 1.389 1_565 S
C1146 C1147 1.524 . S
C1146 C1160 1.377 1_556 S
C1147 C1146 1.524 . S
C1147 C1148 1.397 1_565 S
C1147 C1152 1.363 . S
C1148 H1125 0.950 . S
C1148 C1147 1.397 1_545 S
C1148 C1149 1.334 . S
C1149 H1126 0.950 . S
C1149 C1148 1.334 . S
C1149 C1150 1.285 1_545 S
C1150 C1149 1.285 1_565 S
C1150 C1151 1.526 . S
C1150 H1169 0.913 1_565 S
C1151 H1127 0.950 . S
C1151 C1150 1.526 . S
C1151 C1152 1.415 . S
C1152 H1128 0.950 . S
C1152 C1147 1.363 . S
C1152 C1151 1.415 . S
C1153 H1129 0.951 . S
C1153 C1154 1.366 1_545 S
C1153 C1155 1.388 . S
C1154 C1153 1.366 1_565 S
C1154 C1158 1.385 . S
C1155 H1130 0.951 . S
C1155 C1153 1.388 . S
C1155 C1156 1.366 1_545 S
C1156 C1155 1.366 1_565 S
C1156 C1157 1.426 . S
C1156 C1159 1.499 . S
C1157 H1131 0.939 1_455 S
C1157 C1156 1.426 . S
C1157 C1158 1.374 . S
C1158 H1132 0.950 1_455 S
C1158 C1154 1.385 . S
C1158 C1157 1.374 . S
C1159 C1156 1.499 . S
C1159 C1160 1.373 1_455 S
C1159 C1161 1.389 1_565 S
C1160 H1133 0.950 . S
C1160 C1146 1.377 1_554 S
C1160 C1159 1.373 1_655 S
C1161 C1145 1.377 1_554 S
C1161 C1159 1.389 1_545 S
C1161 C1162 1.524 . S
C1162 C1161 1.524 . S
C1162 C1163 1.397 1_545 S
C1162 C1167 1.363 . S
C1163 H1134 0.950 . S
C1163 C1162 1.397 1_565 S
C1163 C1164 1.334 . S
C1164 H1135 0.950 . S
C1164 C1163 1.334 . S
C1164 C1165 1.277 1_565 S
C1165 C1164 1.277 1_545 S
C1165 C1166 1.535 . S
C1165 H1168 1.001 . S
C1166 H1136 0.950 . S
C1166 C1165 1.535 . S
C1166 C1167 1.415 . S
C1167 H1137 0.950 . S
C1167 C1162 1.363 . S
C1167 C1166 1.415 . S
H1168 C1165 1.001 . S
H1169 C1150 0.913 1_545 S
H1170 C1188 0.951 . S
H1171 C1190 0.951 . S
H1172 C1192 0.950 . S
H1173 C1193 0.950 . S
H1174 C1195 0.950 . S
H1175 C1198 0.950 . S
H1176 C1199 0.950 . S
H1177 C1201 0.950 . S
H1178 C1202 0.950 . S
H1179 C1203 0.951 . S
H1180 C1205 0.951 . S
H1181 C1207 0.950 . S
H1182 C1208 0.950 . S
H1183 C1210 0.950 . S
H1184 C1213 0.950 . S
H1185 C1214 0.950 . S
H1186 C1216 0.950 . S
H1187 C1217 0.950 . S
C1188 H1170 0.951 . S
C1188 C1189 1.366 . S
C1188 C1190 1.388 . S
C1189 C1188 1.366 . S
C1189 C1193 1.385 . S
C1190 H1171 0.951 . S
C1190 C1188 1.388 . S
C1190 C1191 1.366 . S
C1191 C1190 1.366 . S
C1191 C1192 1.414 . S
C1191 C1194 1.499 . S
C1192 H1172 0.950 . S
C1192 C1191 1.414 . S
C1192 C1193 1.374 . S
C1193 H1173 0.950 . S
C1193 C1189 1.385 . S
C1193 C1192 1.374 . S
C1194 C1191 1.499 . S
C1194 C1195 1.373 . S
C1194 C1196 1.389 . S
C1195 H1174 0.950 . S
C1195 C1194 1.373 . S
C1195 C1211 1.377 . S
C1196 C1194 1.389 . S
C1196 C1197 1.524 . S
C1196 C1210 1.377 . S
C1197 C1196 1.524 . S
C1197 C1198 1.397 . S
C1197 C1202 1.363 . S
C1198 H1175 0.950 . S
C1198 C1197 1.397 . S
C1198 C1199 1.334 . S
C1199 H1176 0.950 . S
C1199 C1198 1.334 . S
C1199 C1200 1.287 . S
C1200 C1199 1.287 . S
C1200 C1201 1.524 . S
C1200 H1219 0.913 . S
C1201 H1177 0.950 . S
C1201 C1200 1.524 . S
C1201 C1202 1.415 . S
C1202 H1178 0.950 . S
C1202 C1197 1.363 . S
C1202 C1201 1.415 . S
C1203 H1179 0.951 . S
C1203 C1204 1.366 . S
C1203 C1205 1.388 . S
C1204 C1203 1.366 . S
C1204 C1208 1.385 . S
C1205 H1180 0.951 . S
C1205 C1203 1.388 . S
C1205 C1206 1.366 . S
C1206 C1205 1.366 . S
C1206 C1207 1.414 . S
C1206 C1209 1.499 . S
C1207 H1181 0.950 . S
C1207 C1206 1.414 . S
C1207 C1208 1.374 . S
C1208 H1182 0.950 . S
C1208 C1204 1.385 . S
C1208 C1207 1.374 . S
C1209 C1206 1.499 . S
C1209 C1210 1.373 . S
C1209 C1211 1.389 . S
C1210 H1183 0.950 . S
C1210 C1196 1.377 . S
C1210 C1209 1.373 . S
C1211 C1195 1.377 . S
C1211 C1209 1.389 . S
C1211 C1212 1.524 . S
C1212 C1211 1.524 . S
C1212 C1213 1.397 . S
C1212 C1217 1.363 . S
C1213 H1184 0.950 . S
C1213 C1212 1.397 . S
C1213 C1214 1.334 . S
C1214 H1185 0.950 . S
C1214 C1213 1.334 . S
C1214 C1215 1.287 . S
C1215 C1214 1.287 . S
C1215 C1216 1.524 . S
C1215 H1218 0.999 . S
C1216 H1186 0.950 . S
C1216 C1215 1.524 . S
C1216 C1217 1.415 . S
C1217 H1187 0.950 . S
C1217 C1212 1.363 . S
C1217 C1216 1.415 . S
H1218 C1215 0.999 . S
H1219 C1200 0.913 . S
H1220 C1238 0.951 . S
H1221 C1240 0.951 . S
H1222 C1242 0.950 . S
H1223 C1243 0.950 . S
H1224 C1245 0.950 . S
H1225 C1248 0.950 1_545 S
H1226 C1249 0.950 . S
H1227 C1251 0.950 . S
H1228 C1252 0.950 . S
H1229 C1253 0.951 . S
H1230 C1255 0.951 . S
H1231 C1257 0.950 . S
H1232 C1258 0.950 . S
H1233 C1260 0.950 . S
H1234 C1263 0.950 1_565 S
H1235 C1264 0.950 . S
H1236 C1266 0.950 . S
H1237 C1267 0.950 . S
C1238 H1220 0.951 . S
C1238 C1239 1.366 . S
C1238 C1240 1.388 . S
C1239 C1238 1.366 . S
C1239 C1243 1.385 1_565 S
C1240 H1221 0.951 . S
C1240 C1238 1.388 . S
C1240 C1241 1.366 . S
C1241 C1240 1.366 . S
C1241 C1242 1.414 1_565 S
C1241 C1244 1.499 . S
C1242 H1222 0.950 . S
C1242 C1241 1.414 1_545 S
C1242 C1243 1.374 . S
C1243 H1223 0.950 . S
C1243 C1239 1.385 1_545 S
C1243 C1242 1.374 . S
C1244 C1241 1.499 . S
C1244 C1245 1.372 1_565 S
C1244 C1246 1.390 . S
C1245 H1224 0.950 . S
C1245 C1244 1.372 1_545 S
C1245 C1261 1.377 . S
C1246 C1244 1.390 . S
C1246 C1247 1.524 . S
C1246 C1260 1.377 . S
C1247 C1246 1.524 . S
C1247 C1248 1.397 . S
C1247 C1252 1.363 . S
C1248 H1225 0.950 1_565 S
C1248 C1247 1.397 . S
C1248 C1249 1.334 . S
C1249 H1226 0.950 . S
C1249 C1248 1.334 . S
C1249 C1250 1.287 . S
C1250 C1249 1.287 . S
C1250 C1251 1.524 . S
C1250 H1269 0.913 . S
C1251 H1227 0.950 . S
C1251 C1250 1.524 . S
C1251 C1252 1.415 . S
C1252 H1228 0.950 . S
C1252 C1247 1.363 . S
C1252 C1251 1.415 . S
C1253 H1229 0.951 . S
C1253 C1254 1.366 . S
C1253 C1255 1.388 . S
C1254 C1253 1.366 . S
C1254 C1258 1.385 1_545 S
C1255 H1230 0.951 . S
C1255 C1253 1.388 . S
C1255 C1256 1.366 . S
C1256 C1255 1.366 . S
C1256 C1257 1.414 1_545 S
C1256 C1259 1.502 . S
C1257 H1231 0.950 . S
C1257 C1256 1.414 1_565 S
C1257 C1258 1.374 . S
C1258 H1232 0.950 . S
C1258 C1254 1.385 1_565 S
C1258 C1257 1.374 . S
C1259 C1256 1.502 . S
C1259 C1260 1.367 1_545 S
C1259 C1261 1.393 . S
C1260 H1233 0.950 . S
C1260 C1246 1.377 . S
C1260 C1259 1.367 1_565 S
C1261 C1245 1.377 . S
C1261 C1259 1.393 . S
C1261 C1262 1.524 . S
C1262 C1261 1.524 . S
C1262 C1263 1.397 . S
C1262 C1267 1.363 . S
C1263 H1234 0.950 1_545 S
C1263 C1262 1.397 . S
C1263 C1264 1.334 . S
C1264 H1235 0.950 . S
C1264 C1263 1.334 . S
C1264 C1265 1.287 . S
C1265 C1264 1.287 . S
C1265 C1266 1.524 . S
C1265 H1268 0.999 . S
C1266 H1236 0.950 . S
C1266 C1265 1.524 . S
C1266 C1267 1.415 . S
C1267 H1237 0.950 . S
C1267 C1262 1.363 . S
C1267 C1266 1.415 . S
H1268 C1265 0.999 . S
H1269 C1250 0.913 . S
H1270 C1288 0.951 . S
H1271 C1290 0.951 . S
H1272 C1292 0.950 . S
H1273 C1293 0.950 . S
H1274 C1295 0.950 . S
H1275 C1298 0.950 . S
H1276 C1299 0.950 . S
H1277 C1301 0.950 . S
H1278 C1302 0.950 . S
H1279 C1303 0.951 . S
H1280 C1305 0.951 . S
H1281 C1307 0.950 . S
H1282 C1308 0.950 . S
H1283 C1310 0.950 . S
H1284 C1313 0.950 . S
H1285 C1314 0.950 . S
H1286 C1316 0.950 . S
H1287 C1317 0.950 . S
C1288 H1270 0.951 . S
C1288 C1289 1.366 . S
C1288 C1290 1.388 . S
C1289 C1288 1.366 . S
C1289 C1293 1.385 . S
C1290 H1271 0.951 . S
C1290 C1288 1.388 . S
C1290 C1291 1.366 . S
C1291 C1290 1.366 . S
C1291 C1292 1.414 . S
C1291 C1294 1.499 . S
C1292 H1272 0.950 . S
C1292 C1291 1.414 . S
C1292 C1293 1.374 . S
C1293 H1273 0.950 . S
C1293 C1289 1.385 . S
C1293 C1292 1.374 . S
C1294 C1291 1.499 . S
C1294 C1295 1.373 . S
C1294 C1296 1.389 . S
C1295 H1274 0.950 . S
C1295 C1294 1.373 . S
C1295 C1311 1.377 . S
C1296 C1294 1.389 . S
C1296 C1297 1.524 . S
C1296 C1310 1.377 . S
C1297 C1296 1.524 . S
C1297 C1298 1.397 . S
C1297 C1302 1.363 . S
C1298 H1275 0.950 . S
C1298 C1297 1.397 . S
C1298 C1299 1.334 . S
C1299 H1276 0.950 . S
C1299 C1298 1.334 . S
C1299 C1300 1.287 . S
C1300 C1299 1.287 . S
C1300 C1301 1.524 . S
C1300 H1319 0.913 . S
C1301 H1277 0.950 . S
C1301 C1300 1.524 . S
C1301 C1302 1.415 . S
C1302 H1278 0.950 . S
C1302 C1297 1.363 . S
C1302 C1301 1.415 . S
C1303 H1279 0.951 . S
C1303 C1304 1.366 . S
C1303 C1305 1.388 . S
C1304 C1303 1.366 . S
C1304 C1308 1.385 . S
C1305 H1280 0.951 . S
C1305 C1303 1.388 . S
C1305 C1306 1.366 . S
C1306 C1305 1.366 . S
C1306 C1307 1.414 . S
C1306 C1309 1.499 . S
C1307 H1281 0.950 . S
C1307 C1306 1.414 . S
C1307 C1308 1.374 . S
C1308 H1282 0.950 . S
C1308 C1304 1.385 . S
C1308 C1307 1.374 . S
C1309 C1306 1.499 . S
C1309 C1310 1.373 . S
C1309 C1311 1.389 . S
C1310 H1283 0.950 . S
C1310 C1296 1.377 . S
C1310 C1309 1.373 . S
C1311 C1295 1.377 . S
C1311 C1309 1.389 . S
C1311 C1312 1.524 . S
C1312 C1311 1.524 . S
C1312 C1313 1.397 . S
C1312 C1317 1.363 . S
C1313 H1284 0.950 . S
C1313 C1312 1.397 . S
C1313 C1314 1.334 . S
C1314 H1285 0.950 . S
C1314 C1313 1.334 . S
C1314 C1315 1.287 . S
C1315 C1314 1.287 . S
C1315 C1316 1.524 . S
C1315 H1318 0.999 . S
C1316 H1286 0.950 . S
C1316 C1315 1.524 . S
C1316 C1317 1.415 . S
C1317 H1287 0.950 . S
C1317 C1312 1.363 . S
C1317 C1316 1.415 . S
H1318 C1315 0.999 . S
H1319 C1300 0.913 . S
H1320 C1338 0.951 . S
H1321 C1340 0.951 . S
H1322 C1342 0.950 . S
H1323 C1343 0.950 . S
H1324 C1345 0.950 . S
H1325 C1348 0.950 . S
H1326 C1349 0.950 . S
H1327 C1351 0.950 . S
H1328 C1352 0.950 . S
H1329 C1353 0.951 . S
H1330 C1355 0.951 . S
H1331 C1357 0.950 . S
H1332 C1358 0.950 . S
H1333 C1360 0.950 . S
H1334 C1363 0.950 . S
H1335 C1364 0.950 . S
H1336 C1366 0.950 . S
H1337 C1367 0.950 . S
C1338 H1320 0.951 . S
C1338 C1339 1.366 . S
C1338 C1340 1.388 . S
C1339 C1338 1.366 . S
C1339 C1343 1.385 . S
C1340 H1321 0.951 . S
C1340 C1338 1.388 . S
C1340 C1341 1.366 . S
C1341 C1340 1.366 . S
C1341 C1342 1.414 . S
C1341 C1344 1.499 . S
C1342 H1322 0.950 . S
C1342 C1341 1.414 . S
C1342 C1343 1.374 . S
C1343 H1323 0.950 . S
C1343 C1339 1.385 . S
C1343 C1342 1.374 . S
C1344 C1341 1.499 . S
C1344 C1345 1.373 . S
C1344 C1346 1.389 . S
C1345 H1324 0.950 . S
C1345 C1344 1.373 . S
C1345 C1361 1.377 . S
C1346 C1344 1.389 . S
C1346 C1347 1.524 . S
C1346 C1360 1.377 . S
C1347 C1346 1.524 . S
C1347 C1348 1.397 . S
C1347 C1352 1.363 . S
C1348 H1325 0.950 . S
C1348 C1347 1.397 . S
C1348 C1349 1.334 . S
C1349 H1326 0.950 . S
C1349 C1348 1.334 . S
C1349 C1350 1.287 . S
C1350 C1349 1.287 . S
C1350 C1351 1.524 . S
C1350 H1369 0.913 . S
C1351 H1327 0.950 . S
C1351 C1350 1.524 . S
C1351 C1352 1.415 . S
C1352 H1328 0.950 . S
C1352 C1347 1.363 . S
C1352 C1351 1.415 . S
C1353 H1329 0.951 . S
C1353 C1354 1.366 . S
C1353 C1355 1.388 . S
C1354 C1353 1.366 . S
C1354 C1358 1.385 . S
C1355 H1330 0.951 . S
C1355 C1353 1.388 . S
C1355 C1356 1.366 . S
C1356 C1355 1.366 . S
C1356 C1357 1.414 . S
C1356 C1359 1.499 . S
C1357 H1331 0.950 . S
C1357 C1356 1.414 . S
C1357 C1358 1.374 . S
C1358 H1332 0.950 . S
C1358 C1354 1.385 . S
C1358 C1357 1.374 . S
C1359 C1356 1.499 . S
C1359 C1360 1.373 . S
C1359 C1361 1.389 . S
C1360 H1333 0.950 . S
C1360 C1346 1.377 . S
C1360 C1359 1.373 . S
C1361 C1345 1.377 . S
C1361 C1359 1.389 . S
C1361 C1362 1.524 . S
C1362 C1361 1.524 . S
C1362 C1363 1.397 . S
C1362 C1367 1.363 . S
C1363 H1334 0.950 . S
C1363 C1362 1.397 . S
C1363 C1364 1.334 . S
C1364 H1335 0.950 . S
C1364 C1363 1.334 . S
C1364 C1365 1.287 . S
C1365 C1364 1.287 . S
C1365 C1366 1.524 . S
C1365 H1368 0.999 . S
C1366 H1336 0.950 . S
C1366 C1365 1.524 . S
C1366 C1367 1.415 . S
C1367 H1337 0.950 . S
C1367 C1362 1.363 . S
C1367 C1366 1.415 . S
H1368 C1365 0.999 . S
H1369 C1350 0.913 . S
H1370 C1388 0.951 . S
H1371 C1390 0.951 . S
H1372 C1392 0.950 . S
H1373 C1393 0.950 . S
H1374 C1395 0.950 . S
H1375 C1398 0.950 . S
H1376 C1399 0.950 . S
H1377 C1401 0.950 . S
H1378 C1402 0.950 . S
H1379 C1403 0.951 . S
H1380 C1405 0.951 . S
H1381 C1407 0.950 . S
H1382 C1408 0.950 . S
H1383 C1410 0.950 . S
H1384 C1413 0.950 . S
H1385 C1414 0.950 . S
H1386 C1416 0.950 . S
H1387 C1417 0.950 . S
C1388 H1370 0.951 . S
C1388 C1389 1.366 . S
C1388 C1390 1.388 . S
C1389 C1388 1.366 . S
C1389 C1393 1.385 . S
C1390 H1371 0.951 . S
C1390 C1388 1.388 . S
C1390 C1391 1.366 . S
C1391 C1390 1.366 . S
C1391 C1392 1.414 . S
C1391 C1394 1.499 . S
C1392 H1372 0.950 . S
C1392 C1391 1.414 . S
C1392 C1393 1.374 . S
C1393 H1373 0.950 . S
C1393 C1389 1.385 . S
C1393 C1392 1.374 . S
C1394 C1391 1.499 . S
C1394 C1395 1.373 . S
C1394 C1396 1.389 . S
C1395 H1374 0.950 . S
C1395 C1394 1.373 . S
C1395 C1411 1.377 . S
C1396 C1394 1.389 . S
C1396 C1397 1.524 . S
C1396 C1410 1.377 . S
C1397 C1396 1.524 . S
C1397 C1398 1.397 . S
C1397 C1402 1.363 . S
C1398 H1375 0.950 . S
C1398 C1397 1.397 . S
C1398 C1399 1.334 . S
C1399 H1376 0.950 . S
C1399 C1398 1.334 . S
C1399 C1400 1.287 . S
C1400 C1399 1.287 . S
C1400 C1401 1.524 . S
C1400 H1419 0.913 . S
C1401 H1377 0.950 . S
C1401 C1400 1.524 . S
C1401 C1402 1.415 . S
C1402 H1378 0.950 . S
C1402 C1397 1.363 . S
C1402 C1401 1.415 . S
C1403 H1379 0.951 . S
C1403 C1404 1.366 . S
C1403 C1405 1.388 . S
C1404 C1403 1.366 . S
C1404 C1408 1.385 . S
C1405 H1380 0.951 . S
C1405 C1403 1.388 . S
C1405 C1406 1.366 . S
C1406 C1405 1.366 . S
C1406 C1407 1.414 . S
C1406 C1409 1.499 . S
C1407 H1381 0.950 . S
C1407 C1406 1.414 . S
C1407 C1408 1.374 . S
C1408 H1382 0.950 . S
C1408 C1404 1.385 . S
C1408 C1407 1.374 . S
C1409 C1406 1.499 . S
C1409 C1410 1.373 . S
C1409 C1411 1.389 . S
C1410 H1383 0.950 . S
C1410 C1396 1.377 . S
C1410 C1409 1.373 . S
C1411 C1395 1.377 . S
C1411 C1409 1.389 . S
C1411 C1412 1.524 . S
C1412 C1411 1.524 . S
C1412 C1413 1.397 . S
C1412 C1417 1.363 . S
C1413 H1384 0.950 . S
C1413 C1412 1.397 . S
C1413 C1414 1.334 . S
C1414 H1385 0.950 . S
C1414 C1413 1.334 . S
C1414 C1415 1.287 . S
C1415 C1414 1.287 . S
C1415 C1416 1.524 . S
C1415 H1418 0.999 . S
C1416 H1386 0.950 . S
C1416 C1415 1.524 . S
C1416 C1417 1.415 . S
C1417 H1387 0.950 . S
C1417 C1412 1.363 . S
C1417 C1416 1.415 . S
H1418 C1415 0.999 . S
H1419 C1400 0.913 . S
H1420 C1438 0.951 . S
H1421 C1440 0.951 . S
H1422 C1442 0.950 . S
H1423 C1443 0.950 . S
H1424 C1445 0.950 . S
H1425 C1448 0.950 . S
H1426 C1449 0.950 . S
H1427 C1451 0.950 . S
H1428 C1452 0.950 . S
H1429 C1453 0.951 . S
H1430 C1455 0.951 . S
H1431 C1457 0.950 . S
H1432 C1458 0.950 . S
H1433 C1460 0.950 . S
H1434 C1463 0.950 . S
H1435 C1464 0.950 . S
H1436 C1466 0.950 . S
H1437 C1467 0.950 . S
C1438 H1420 0.951 . S
C1438 C1439 1.366 . S
C1438 C1440 1.388 . S
C1439 C1438 1.366 . S
C1439 C1443 1.385 . S
C1440 H1421 0.951 . S
C1440 C1438 1.388 . S
C1440 C1441 1.366 . S
C1441 C1440 1.366 . S
C1441 C1442 1.414 . S
C1441 C1444 1.499 . S
C1442 H1422 0.950 . S
C1442 C1441 1.414 . S
C1442 C1443 1.374 . S
C1443 H1423 0.950 . S
C1443 C1439 1.385 . S
C1443 C1442 1.374 . S
C1444 C1441 1.499 . S
C1444 C1445 1.373 . S
C1444 C1446 1.389 . S
C1445 H1424 0.950 . S
C1445 C1444 1.373 . S
C1445 C1461 1.377 . S
C1446 C1444 1.389 . S
C1446 C1447 1.524 . S
C1446 C1460 1.377 . S
C1447 C1446 1.524 . S
C1447 C1448 1.397 . S
C1447 C1452 1.363 . S
C1448 H1425 0.950 . S
C1448 C1447 1.397 . S
C1448 C1449 1.334 . S
C1449 H1426 0.950 . S
C1449 C1448 1.334 . S
C1449 C1450 1.287 . S
C1450 C1449 1.287 . S
C1450 C1451 1.524 . S
C1450 H1469 0.913 . S
C1451 H1427 0.950 . S
C1451 C1450 1.524 . S
C1451 C1452 1.415 . S
C1452 H1428 0.950 . S
C1452 C1447 1.363 . S
C1452 C1451 1.415 . S
C1453 H1429 0.951 . S
C1453 C1454 1.366 . S
C1453 C1455 1.388 . S
C1454 C1453 1.366 . S
C1454 C1458 1.385 . S
C1455 H1430 0.951 . S
C1455 C1453 1.388 . S
C1455 C1456 1.366 . S
C1456 C1455 1.366 . S
C1456 C1457 1.414 . S
C1456 C1459 1.499 . S
C1457 H1431 0.950 . S
C1457 C1456 1.414 . S
C1457 C1458 1.374 . S
C1458 H1432 0.950 . S
C1458 C1454 1.385 . S
C1458 C1457 1.374 . S
C1459 C1456 1.499 . S
C1459 C1460 1.373 . S
C1459 C1461 1.389 . S
C1460 H1433 0.950 . S
C1460 C1446 1.377 . S
C1460 C1459 1.373 . S
C1461 C1445 1.377 . S
C1461 C1459 1.389 . S
C1461 C1462 1.524 . S
C1462 C1461 1.524 . S
C1462 C1463 1.397 . S
C1462 C1467 1.363 . S
C1463 H1434 0.950 . S
C1463 C1462 1.397 . S
C1463 C1464 1.334 . S
C1464 H1435 0.950 . S
C1464 C1463 1.334 . S
C1464 C1465 1.287 . S
C1465 C1464 1.287 . S
C1465 C1466 1.524 . S
C1465 H1468 0.999 . S
C1466 H1436 0.950 . S
C1466 C1465 1.524 . S
C1466 C1467 1.415 . S
C1467 H1437 0.950 . S
C1467 C1462 1.363 . S
C1467 C1466 1.415 . S
H1468 C1465 0.999 . S
H1469 C1450 0.913 . S
H1470 C1488 0.951 . S
H1471 C1490 0.951 . S
H1472 C1492 0.950 . S
H1473 C1493 0.950 1_455 S
H1474 C1495 0.950 . S
H1475 C1498 0.950 . S
H1476 C1499 0.950 . S
H1477 C1501 0.950 . S
H1478 C1502 0.950 1_654 S
H1479 C1503 0.951 . S
H1480 C1505 0.951 . S
H1481 C1507 0.950 . S
H1482 C1508 0.950 1_655 S
H1483 C1510 0.950 . S
H1484 C1513 0.950 . S
H1485 C1514 0.950 . S
H1486 C1516 0.950 . S
H1487 C1517 0.950 1_456 S
C1488 H1470 0.951 . S
C1488 C1489 1.366 . S
C1488 C1490 1.388 . S
C1489 C1488 1.366 . S
C1489 C1493 1.385 . S
C1490 H1471 0.951 . S
C1490 C1488 1.388 . S
C1490 C1491 1.366 . S
C1491 C1490 1.366 . S
C1491 C1492 1.414 1_655 S
C1491 C1494 1.499 . S
C1492 H1472 0.950 . S
C1492 C1491 1.414 1_455 S
C1492 C1493 1.374 1_455 S
C1493 H1473 0.950 1_655 S
C1493 C1489 1.385 . S
C1493 C1492 1.374 1_655 S
C1494 C1491 1.499 . S
C1494 C1495 1.373 . S
C1494 C1496 1.389 1_655 S
C1495 H1474 0.950 . S
C1495 C1494 1.373 . S
C1495 C1511 1.377 1_556 S
C1496 C1494 1.389 1_455 S
C1496 C1497 1.524 . S
C1496 C1510 1.377 1_556 S
C1497 C1496 1.524 . S
C1497 C1498 1.397 . S
C1497 C1502 1.363 . S
C1498 H1475 0.950 . S
C1498 C1497 1.397 . S
C1498 C1499 1.334 . S
C1499 H1476 0.950 . S
C1499 C1498 1.334 . S
C1499 C1500 1.287 . S
C1500 C1499 1.287 . S
C1500 C1501 1.524 . S
C1500 H1519 0.913 . S
C1501 H1477 0.950 . S
C1501 C1500 1.524 . S
C1501 C1502 1.415 . S
C1502 H1478 0.950 1_456 S
C1502 C1497 1.363 . S
C1502 C1501 1.415 . S
C1503 H1479 0.951 . S
C1503 C1504 1.366 . S
C1503 C1505 1.388 . S
C1504 C1503 1.366 . S
C1504 C1508 1.385 . S
C1505 H1480 0.951 . S
C1505 C1503 1.388 . S
C1505 C1506 1.366 . S
C1506 C1505 1.366 . S
C1506 C1507 1.414 1_455 S
C1506 C1509 1.499 . S
C1507 H1481 0.950 . S
C1507 C1506 1.414 1_655 S
C1507 C1508 1.374 1_655 S
C1508 H1482 0.950 1_455 S
C1508 C1504 1.385 . S
C1508 C1507 1.374 1_455 S
C1509 C1506 1.499 . S
C1509 C1510 1.373 . S
C1509 C1511 1.389 1_455 S
C1510 H1483 0.950 . S
C1510 C1496 1.377 1_554 S
C1510 C1509 1.373 . S
C1511 C1495 1.377 1_554 S
C1511 C1509 1.389 1_655 S
C1511 C1512 1.524 . S
C1512 C1511 1.524 . S
C1512 C1513 1.397 . S
C1512 C1517 1.363 . S
C1513 H1484 0.950 . S
C1513 C1512 1.397 . S
C1513 C1514 1.334 . S
C1514 H1485 0.950 . S
C1514 C1513 1.334 . S
C1514 C1515 1.287 . S
C1515 C1514 1.287 . S
C1515 C1516 1.524 . S
C1515 H1518 0.999 . S
C1516 H1486 0.950 . S
C1516 C1515 1.524 . S
C1516 C1517 1.415 . S
C1517 H1487 0.950 1_654 S
C1517 C1512 1.363 . S
C1517 C1516 1.415 . S
H1518 C1515 0.999 . S
H1519 C1500 0.913 . S
C339 C10 2.150 . S
C354 C130 2.144 . S
C389 C9 1.504 . S
C404 C50 1.520 . S
C439 C49 0.782 . S
C454 C89 0.784 . S
C489 C90 1.520 . S
C504 C129 1.500 . S
C539 C19 2.151 . S
C554 C219 2.157 . S
C589 C18 1.505 . S
C604 C179 1.520 . S
C639 C178 0.782 . S
C654 C98 0.778 . S
C689 C218 1.504 . S
C704 C99 1.524 . S
C739 C250 2.151 . S
C754 C210 2.152 . S
C789 C170 1.521 . S
C804 C249 1.503 . S
C839 C289 0.782 . S
C854 C169 0.784 . S
C889 C209 1.504 . S
C904 C290 1.523 . S
C939 C139 2.151 . S
C954 C259 2.149 . S
C989 C258 1.504 . S
C1004 C59 1.522 . S
C1039 C58 0.783 . S
C1054 C298 0.780 . S
C1089 C138 1.504 . S
C1104 C299 1.517 . S
C1139 C15 1.528 . S
C1154 C6 1.528 . S
C1189 C46 1.449 . S
C1204 C55 1.449 . S
C1239 C95 1.449 . S
C1254 C86 1.449 . S
C1289 C135 1.529 . S
C1304 C126 1.529 . S
C1339 C166 1.450 . S
C1354 C175 1.450 . S
C1389 C215 1.529 . S
C1404 C206 1.529 . S
C1439 C246 1.528 . S
C1454 C255 1.528 . S
C1489 C286 1.450 . S
C1504 C295 1.450 . S
