# Generated by pormake.
# Topology lta, (4)-cn, num edge types: 1
# Building blocks:
#     Node 0, Type 0, BuildingBlock: CEKHIL_clean_sbu_0, # of connection points: 4
#     Node 1, Type 0, BuildingBlock: CEKHIL_clean_sbu_0, # of connection points: 4
#     Node 2, Type 0, BuildingBlock: CEKHIL_clean_sbu_0, # of connection points: 4
#     Node 3, Type 0, BuildingBlock: CEKHIL_clean_sbu_0, # of connection points: 4
#     Node 4, Type 0, BuildingBlock: CEKHIL_clean_sbu_0, # of connection points: 4
#     Node 5, Type 0, BuildingBlock: CEKHIL_clean_sbu_0, # of connection points: 4
#     Node 6, Type 0, BuildingBlock: CEKHIL_clean_sbu_0, # of connection points: 4
#     Node 7, Type 0, BuildingBlock: CEKHIL_clean_sbu_0, # of connection points: 4
#     Node 8, Type 0, BuildingBlock: CEKHIL_clean_sbu_0, # of connection points: 4
#     Node 9, Type 0, BuildingBlock: CEKHIL_clean_sbu_0, # of connection points: 4
#     Node 10, Type 0, BuildingBlock: CEKHIL_clean_sbu_0, # of connection points: 4
#     Node 11, Type 0, BuildingBlock: CEKHIL_clean_sbu_0, # of connection points: 4
#     Node 12, Type 0, BuildingBlock: CEKHIL_clean_sbu_0, # of connection points: 4
#     Node 13, Type 0, BuildingBlock: CEKHIL_clean_sbu_0, # of connection points: 4
#     Node 14, Type 0, BuildingBlock: CEKHIL_clean_sbu_0, # of connection points: 4
#     Node 15, Type 0, BuildingBlock: CEKHIL_clean_sbu_0, # of connection points: 4
#     Node 16, Type 0, BuildingBlock: CEKHIL_clean_sbu_0, # of connection points: 4
#     Node 17, Type 0, BuildingBlock: CEKHIL_clean_sbu_0, # of connection points: 4
#     Node 18, Type 0, BuildingBlock: CEKHIL_clean_sbu_0, # of connection points: 4
#     Node 19, Type 0, BuildingBlock: CEKHIL_clean_sbu_0, # of connection points: 4
#     Node 20, Type 0, BuildingBlock: CEKHIL_clean_sbu_0, # of connection points: 4
#     Node 21, Type 0, BuildingBlock: CEKHIL_clean_sbu_0, # of connection points: 4
#     Node 22, Type 0, BuildingBlock: CEKHIL_clean_sbu_0, # of connection points: 4
#     Node 23, Type 0, BuildingBlock: CEKHIL_clean_sbu_0, # of connection points: 4
#     Edge 24, Type (0, 0), BuildingBlock: KIFKEQ_clean_linker_1, # of connection points: 2
#     Edge 25, Type (0, 0), BuildingBlock: KIFKEQ_clean_linker_1, # of connection points: 2
#     Edge 26, Type (0, 0), BuildingBlock: KIFKEQ_clean_linker_1, # of connection points: 2
#     Edge 27, Type (0, 0), BuildingBlock: KIFKEQ_clean_linker_1, # of connection points: 2
#     Edge 28, Type (0, 0), BuildingBlock: KIFKEQ_clean_linker_1, # of connection points: 2
#     Edge 29, Type (0, 0), BuildingBlock: KIFKEQ_clean_linker_1, # of connection points: 2
#     Edge 30, Type (0, 0), BuildingBlock: KIFKEQ_clean_linker_1, # of connection points: 2
#     Edge 31, Type (0, 0), BuildingBlock: KIFKEQ_clean_linker_1, # of connection points: 2
#     Edge 32, Type (0, 0), BuildingBlock: KIFKEQ_clean_linker_1, # of connection points: 2
#     Edge 33, Type (0, 0), BuildingBlock: KIFKEQ_clean_linker_1, # of connection points: 2
#     Edge 34, Type (0, 0), BuildingBlock: KIFKEQ_clean_linker_1, # of connection points: 2
#     Edge 35, Type (0, 0), BuildingBlock: KIFKEQ_clean_linker_1, # of connection points: 2
#     Edge 36, Type (0, 0), BuildingBlock: KIFKEQ_clean_linker_1, # of connection points: 2
#     Edge 37, Type (0, 0), BuildingBlock: KIFKEQ_clean_linker_1, # of connection points: 2
#     Edge 38, Type (0, 0), BuildingBlock: KIFKEQ_clean_linker_1, # of connection points: 2
#     Edge 39, Type (0, 0), BuildingBlock: KIFKEQ_clean_linker_1, # of connection points: 2
#     Edge 40, Type (0, 0), BuildingBlock: KIFKEQ_clean_linker_1, # of connection points: 2
#     Edge 41, Type (0, 0), BuildingBlock: KIFKEQ_clean_linker_1, # of connection points: 2
#     Edge 42, Type (0, 0), BuildingBlock: KIFKEQ_clean_linker_1, # of connection points: 2
#     Edge 43, Type (0, 0), BuildingBlock: KIFKEQ_clean_linker_1, # of connection points: 2
#     Edge 44, Type (0, 0), BuildingBlock: KIFKEQ_clean_linker_1, # of connection points: 2
#     Edge 45, Type (0, 0), BuildingBlock: KIFKEQ_clean_linker_1, # of connection points: 2
#     Edge 46, Type (0, 0), BuildingBlock: KIFKEQ_clean_linker_1, # of connection points: 2
#     Edge 47, Type (0, 0), BuildingBlock: KIFKEQ_clean_linker_1, # of connection points: 2
#     Edge 48, Type (0, 0), BuildingBlock: KIFKEQ_clean_linker_1, # of connection points: 2
#     Edge 49, Type (0, 0), BuildingBlock: KIFKEQ_clean_linker_1, # of connection points: 2
#     Edge 50, Type (0, 0), BuildingBlock: KIFKEQ_clean_linker_1, # of connection points: 2
#     Edge 51, Type (0, 0), BuildingBlock: KIFKEQ_clean_linker_1, # of connection points: 2
#     Edge 52, Type (0, 0), BuildingBlock: KIFKEQ_clean_linker_1, # of connection points: 2
#     Edge 53, Type (0, 0), BuildingBlock: KIFKEQ_clean_linker_1, # of connection points: 2
#     Edge 54, Type (0, 0), BuildingBlock: KIFKEQ_clean_linker_1, # of connection points: 2
#     Edge 55, Type (0, 0), BuildingBlock: KIFKEQ_clean_linker_1, # of connection points: 2
#     Edge 56, Type (0, 0), BuildingBlock: KIFKEQ_clean_linker_1, # of connection points: 2
#     Edge 57, Type (0, 0), BuildingBlock: KIFKEQ_clean_linker_1, # of connection points: 2
#     Edge 58, Type (0, 0), BuildingBlock: KIFKEQ_clean_linker_1, # of connection points: 2
#     Edge 59, Type (0, 0), BuildingBlock: KIFKEQ_clean_linker_1, # of connection points: 2
#     Edge 60, Type (0, 0), BuildingBlock: KIFKEQ_clean_linker_1, # of connection points: 2
#     Edge 61, Type (0, 0), BuildingBlock: KIFKEQ_clean_linker_1, # of connection points: 2
#     Edge 62, Type (0, 0), BuildingBlock: KIFKEQ_clean_linker_1, # of connection points: 2
#     Edge 63, Type (0, 0), BuildingBlock: KIFKEQ_clean_linker_1, # of connection points: 2
#     Edge 64, Type (0, 0), BuildingBlock: KIFKEQ_clean_linker_1, # of connection points: 2
#     Edge 65, Type (0, 0), BuildingBlock: KIFKEQ_clean_linker_1, # of connection points: 2
#     Edge 66, Type (0, 0), BuildingBlock: KIFKEQ_clean_linker_1, # of connection points: 2
#     Edge 67, Type (0, 0), BuildingBlock: KIFKEQ_clean_linker_1, # of connection points: 2
#     Edge 68, Type (0, 0), BuildingBlock: KIFKEQ_clean_linker_1, # of connection points: 2
#     Edge 69, Type (0, 0), BuildingBlock: KIFKEQ_clean_linker_1, # of connection points: 2
#     Edge 70, Type (0, 0), BuildingBlock: KIFKEQ_clean_linker_1, # of connection points: 2
#     Edge 71, Type (0, 0), BuildingBlock: KIFKEQ_clean_linker_1, # of connection points: 2
# Relax obj value: 0.293
# Max RMSD: 0.167
# Mean RMSD: 0.167
data_MOF--net-lta--node1-CEKHIL_clean_sbu_0--edge1-KIFKEQ_clean_linker_1
_symmetry_space_group_name_H-M    P1
_symmetry_Int_Tables_number       1
_symmetry_cell_setting            triclinic
loop_
_symmetry_equiv_pos_as_xyz
'x, y, z'
_cell_length_a     56.987576
_cell_length_b     56.963059
_cell_length_c     56.950609
_cell_angle_alpha  90.000854
_cell_angle_beta   90.042173
_cell_angle_gamma 90.01207
loop_
_atom_site_label
_atom_site_type_symbol
_atom_site_fract_x
_atom_site_fract_y
_atom_site_fract_z
_atom_type_partial_charge
Co0 Co 0.13603 0.31836 0.4893 0.0
O1 O 0.16887 0.31043 0.49022 0.0
O2 O 0.14008 0.28536 0.49707 0.0
C3 C 0.1381 0.33867 0.45509 0.0
O4 O 0.10003 0.31979 0.48906 0.0
Co5 Co 0.11917 0.37054 0.4896 0.0
O6 O 0.08911 0.35649 0.47941 0.0
C7 C 0.13434 0.34782 0.53388 0.0
C8 C 0.16252 0.28908 0.49495 0.0
C9 C 0.08429 0.33499 0.48318 0.0
O10 O 0.13676 0.3277 0.52376 0.0
O11 O 0.12898 0.36676 0.52307 0.0
O12 O 0.13651 0.31592 0.45475 0.0
O13 O 0.14002 0.34795 0.47562 0.0
Co14 Co 0.68293 0.13755 0.48741 0.0
O15 O 0.6916 0.17011 0.48612 0.0
O16 O 0.71541 0.14151 0.49711 0.0
C17 C 0.66503 0.13684 0.45186 0.0
O18 O 0.68015 0.10177 0.49009 0.0
Co19 Co 0.62973 0.12384 0.48631 0.0
O20 O 0.64252 0.09163 0.48344 0.0
C21 C 0.65061 0.14364 0.52936 0.0
C22 C 0.71235 0.16378 0.49297 0.0
C23 C 0.66391 0.08622 0.48723 0.0
O24 O 0.67151 0.14139 0.521 0.0
O25 O 0.63193 0.13996 0.51743 0.0
O26 O 0.6877 0.13487 0.45319 0.0
O27 O 0.65457 0.14113 0.47141 0.0
Co28 Co 0.86341 0.67878 0.49028 0.0
O29 O 0.83142 0.68913 0.48906 0.0
O30 O 0.86114 0.71165 0.49971 0.0
C31 C 0.86196 0.66083 0.45482 0.0
O32 O 0.89897 0.67401 0.49276 0.0
Co33 Co 0.87436 0.62521 0.48874 0.0
O34 O 0.90722 0.63611 0.48523 0.0
C35 C 0.85564 0.64677 0.53201 0.0
C36 C 0.83873 0.70964 0.49558 0.0
C37 C 0.91372 0.65714 0.48943 0.0
O38 O 0.85915 0.66761 0.52385 0.0
O39 O 0.85813 0.62807 0.5198 0.0
O40 O 0.86632 0.68319 0.45606 0.0
O41 O 0.85747 0.65071 0.47449 0.0
Co42 Co 0.31726 0.86457 0.49475 0.0
O43 O 0.30625 0.83276 0.49663 0.0
O44 O 0.2841 0.86397 0.50311 0.0
C45 C 0.33627 0.8595 0.46017 0.0
O46 O 0.32261 0.90017 0.49389 0.0
Co47 Co 0.371 0.87483 0.49364 0.0
O48 O 0.36071 0.90731 0.48644 0.0
C49 C 0.34796 0.86085 0.538 0.0
C50 C 0.28578 0.84121 0.50173 0.0
C51 C 0.3397 0.91438 0.48953 0.0
O52 O 0.32738 0.86342 0.52892 0.0
O53 O 0.36704 0.86233 0.52627 0.0
O54 O 0.31395 0.86419 0.46029 0.0
O55 O 0.34572 0.85674 0.48049 0.0
Co56 Co 0.13732 0.68465 0.51181 0.0
O57 O 0.16909 0.69567 0.50951 0.0
O58 O 0.13781 0.71799 0.50407 0.0
C59 C 0.14306 0.66493 0.54596 0.0
O60 O 0.10178 0.67927 0.51321 0.0
Co61 Co 0.12707 0.63084 0.51211 0.0
O62 O 0.09491 0.64106 0.52061 0.0
C63 C 0.13973 0.65484 0.4678 0.0
C64 C 0.16058 0.71625 0.50496 0.0
C65 C 0.08774 0.66209 0.51782 0.0
O66 O 0.13773 0.67524 0.47743 0.0
O67 O 0.13833 0.63548 0.47912 0.0
O68 O 0.13847 0.68727 0.54634 0.0
O69 O 0.14535 0.65591 0.52538 0.0
Co70 Co 0.31975 0.13966 0.51193 0.0
O71 O 0.30992 0.17188 0.51236 0.0
O72 O 0.28692 0.14231 0.5024 0.0
C73 C 0.33765 0.14171 0.54744 0.0
O74 O 0.32396 0.10387 0.51038 0.0
Co75 Co 0.37305 0.12759 0.51405 0.0
O76 O 0.36135 0.09537 0.51986 0.0
C77 C 0.35194 0.14495 0.46986 0.0
C78 C 0.2893 0.16479 0.50598 0.0
C79 C 0.34039 0.08901 0.51521 0.0
O80 O 0.33101 0.14309 0.47827 0.0
O81 O 0.3706 0.14164 0.48192 0.0
O82 O 0.31525 0.13766 0.5462 0.0
O83 O 0.34791 0.14549 0.52769 0.0
Co84 Co 0.86169 0.32015 0.51443 0.0
O85 O 0.82932 0.3108 0.51508 0.0
O86 O 0.85854 0.28772 0.50418 0.0
C87 C 0.86148 0.33738 0.5502 0.0
O88 O 0.89734 0.32372 0.51228 0.0
Co89 Co 0.87407 0.37353 0.51641 0.0
O90 O 0.90672 0.36162 0.5185 0.0
C91 C 0.85529 0.35292 0.47284 0.0
C92 C 0.83616 0.29027 0.50804 0.0
C93 C 0.91256 0.3403 0.5148 0.0
O94 O 0.85824 0.33202 0.48101 0.0
O95 O 0.85795 0.37153 0.48515 0.0
O96 O 0.86409 0.3148 0.54853 0.0
O97 O 0.85711 0.34818 0.53085 0.0
Co98 Co 0.68567 0.86288 0.51191 0.0
O99 O 0.69391 0.83019 0.51079 0.0
O100 O 0.71867 0.85929 0.50399 0.0
C101 C 0.66561 0.8606 0.54623 0.0
O102 O 0.68361 0.89877 0.51237 0.0
Co103 Co 0.63298 0.87809 0.51146 0.0
O104 O 0.64632 0.90893 0.52053 0.0
C105 C 0.65575 0.86228 0.46767 0.0
C106 C 0.71516 0.8368 0.50603 0.0
C107 C 0.66785 0.91421 0.51745 0.0
O108 O 0.67618 0.86237 0.47748 0.0
O109 O 0.63657 0.86588 0.47875 0.0
O110 O 0.68834 0.86237 0.54647 0.0
O111 O 0.65633 0.85836 0.52575 0.0
Co112 Co 0.49158 0.14139 0.31623 0.0
O113 O 0.49479 0.174 0.30771 0.0
O114 O 0.49854 0.14418 0.28307 0.0
C115 C 0.45824 0.14673 0.33733 0.0
O116 O 0.48923 0.10567 0.31785 0.0
Co117 Co 0.49076 0.12381 0.36795 0.0
O118 O 0.48027 0.09357 0.35428 0.0
C119 C 0.53598 0.13641 0.34494 0.0
C120 C 0.49839 0.16676 0.2864 0.0
C121 C 0.48367 0.08945 0.33257 0.0
O122 O 0.52607 0.13967 0.32483 0.0
O123 O 0.52481 0.13162 0.36384 0.0
O124 O 0.45714 0.14412 0.31468 0.0
O125 O 0.47905 0.14687 0.34613 0.0
Co126 Co 0.86781 0.48659 0.31848 0.0
O127 O 0.83455 0.48927 0.31228 0.0
O128 O 0.86267 0.49635 0.28643 0.0
C129 C 0.8655 0.45136 0.33667 0.0
O130 O 0.90362 0.48546 0.31732 0.0
Co131 Co 0.8895 0.48233 0.36849 0.0
O132 O 0.91863 0.4736 0.35179 0.0
C133 C 0.87509 0.52903 0.34987 0.0
C134 C 0.84038 0.49491 0.29095 0.0
C135 C 0.92098 0.47896 0.33024 0.0
O136 O 0.86897 0.52026 0.32991 0.0
O137 O 0.88258 0.5168 0.36719 0.0
O138 O 0.8658 0.45244 0.3139 0.0
O139 O 0.86529 0.47119 0.34755 0.0
Co140 Co 0.51199 0.86671 0.32343 0.0
O141 O 0.51175 0.83319 0.31815 0.0
O142 O 0.50117 0.85985 0.29198 0.0
C143 C 0.54805 0.86754 0.34014 0.0
O144 O 0.51046 0.90258 0.32153 0.0
Co145 Co 0.51644 0.88953 0.37289 0.0
O146 O 0.52363 0.91849 0.35514 0.0
C147 C 0.47026 0.87167 0.35628 0.0
C148 C 0.50466 0.83786 0.29697 0.0
C149 C 0.51699 0.92036 0.3339 0.0
O150 O 0.47881 0.86567 0.3362 0.0
O151 O 0.48247 0.88042 0.37302 0.0
O152 O 0.54597 0.86717 0.31743 0.0
O153 O 0.52875 0.86604 0.35183 0.0
Co154 Co 0.14126 0.51445 0.31865 0.0
O155 O 0.17441 0.51499 0.31187 0.0
O156 O 0.14671 0.5051 0.28647 0.0
C157 C 0.14037 0.54974 0.33697 0.0
O158 O 0.10553 0.51248 0.31839 0.0
Co159 Co 0.12153 0.51598 0.36973 0.0
O160 O 0.09103 0.52169 0.35393 0.0
C161 C 0.14091 0.47166 0.35049 0.0
C162 C 0.16884 0.50874 0.29064 0.0
C163 C 0.08828 0.51695 0.33224 0.0
O164 O 0.14318 0.48068 0.32985 0.0
O165 O 0.13439 0.48324 0.3686 0.0
O166 O 0.13994 0.5487 0.31419 0.0
O167 O 0.14298 0.52997 0.34763 0.0
Co168 Co 0.4919 0.86092 0.68453 0.0
O169 O 0.49329 0.82764 0.6911 0.0
O170 O 0.50114 0.85577 0.71676 0.0
C171 C 0.45667 0.86003 0.66607 0.0
O172 O 0.49201 0.89683 0.68494 0.0
Co173 Co 0.48931 0.8811 0.63368 0.0
O174 O 0.48132 0.91094 0.64965 0.0
C175 C 0.53484 0.8648 0.65322 0.0
C176 C 0.49897 0.83348 0.71241 0.0
C177 C 0.48629 0.9139 0.67124 0.0
O178 O 0.52575 0.86076 0.67354 0.0
O179 O 0.52308 0.8715 0.63528 0.0
O180 O 0.45766 0.8604 0.68885 0.0
O181 O 0.47657 0.85854 0.65544 0.0
Co182 Co 0.13662 0.4898 0.68283 0.0
O183 O 0.16883 0.48996 0.69269 0.0
O184 O 0.13895 0.49831 0.71592 0.0
C185 C 0.13966 0.45501 0.66368 0.0
O186 O 0.10085 0.49063 0.67888 0.0
Co187 Co 0.12377 0.4889 0.62965 0.0
O188 O 0.09189 0.48181 0.64144 0.0
C189 C 0.1393 0.53323 0.65207 0.0
C190 C 0.1615 0.4955 0.71349 0.0
C191 C 0.08582 0.48593 0.66259 0.0
O192 O 0.13904 0.52389 0.6727 0.0
O193 O 0.13552 0.52184 0.63307 0.0
O194 O 0.13565 0.45535 0.68614 0.0
O195 O 0.14269 0.47521 0.65406 0.0
Co196 Co 0.51107 0.13613 0.68287 0.0
O197 O 0.50965 0.16923 0.68973 0.0
O198 O 0.50407 0.14104 0.71584 0.0
C199 C 0.54449 0.13936 0.6615 0.0
O200 O 0.5118 0.10023 0.68316 0.0
Co201 Co 0.5113 0.11536 0.6325 0.0
O202 O 0.52238 0.08627 0.64789 0.0
C203 C 0.46637 0.13039 0.65471 0.0
C204 C 0.50563 0.16338 0.71139 0.0
C205 C 0.51801 0.08326 0.66958 0.0
O206 O 0.47656 0.13574 0.67423 0.0
O207 O 0.47725 0.12317 0.63642 0.0
O208 O 0.54562 0.13756 0.68423 0.0
O209 O 0.52366 0.13953 0.65273 0.0
Co210 Co 0.86285 0.51397 0.68538 0.0
O211 O 0.83083 0.51199 0.69583 0.0
O212 O 0.86163 0.50272 0.71763 0.0
C213 C 0.85943 0.55019 0.66955 0.0
O214 O 0.89845 0.51425 0.68052 0.0
Co215 Co 0.87352 0.51908 0.63189 0.0
O216 O 0.90624 0.52356 0.64292 0.0
C217 C 0.858 0.47354 0.65112 0.0
C218 C 0.83895 0.50492 0.71588 0.0
C219 C 0.91296 0.51893 0.66379 0.0
O220 O 0.86101 0.48087 0.67233 0.0
O221 O 0.85954 0.48679 0.63303 0.0
O222 O 0.86329 0.54793 0.6919 0.0
O223 O 0.85601 0.53099 0.65816 0.0
Co224 Co 0.32176 0.49002 0.13788 0.0
O225 O 0.31381 0.49078 0.17058 0.0
O226 O 0.28983 0.50151 0.14201 0.0
C227 C 0.33747 0.45368 0.13905 0.0
O228 O 0.32411 0.49071 0.10197 0.0
Co229 Co 0.37436 0.48532 0.12361 0.0
O230 O 0.36082 0.48006 0.09196 0.0
C231 C 0.35632 0.53037 0.14165 0.0
C232 C 0.29324 0.49821 0.1644 0.0
C233 C 0.33972 0.48522 0.08651 0.0
O234 O 0.335 0.52301 0.13987 0.0
O235 O 0.37428 0.51727 0.13843 0.0
O236 O 0.31494 0.45617 0.13689 0.0
O237 O 0.34922 0.4727 0.14226 0.0
Co238 Co 0.31786 0.5146 0.86315 0.0
O239 O 0.30752 0.51549 0.83111 0.0
O240 O 0.28475 0.50609 0.86104 0.0
C241 C 0.33693 0.54945 0.86105 0.0
O242 O 0.32246 0.51268 0.89882 0.0
Co243 Co 0.37134 0.51499 0.87472 0.0
O244 O 0.36022 0.52059 0.90718 0.0
C245 C 0.34857 0.47148 0.8577 0.0
C246 C 0.28686 0.50965 0.83854 0.0
C247 C 0.33918 0.51661 0.91362 0.0
O248 O 0.32794 0.48062 0.85947 0.0
O249 O 0.36764 0.48286 0.861 0.0
O250 O 0.31455 0.54899 0.86539 0.0
O251 O 0.34646 0.52939 0.85704 0.0
Co252 Co 0.49015 0.32138 0.85982 0.0
O253 O 0.49208 0.31239 0.82739 0.0
O254 O 0.49804 0.28822 0.85716 0.0
C255 C 0.45604 0.3414 0.85527 0.0
O256 O 0.48884 0.32434 0.89563 0.0
Co257 Co 0.48965 0.37426 0.87393 0.0
O258 O 0.48021 0.36172 0.90499 0.0
C259 C 0.53426 0.35121 0.86042 0.0
C260 C 0.49658 0.29128 0.83454 0.0
C261 C 0.48348 0.34033 0.91074 0.0
O262 O 0.52451 0.33078 0.85997 0.0
O263 O 0.52305 0.37039 0.86369 0.0
O264 O 0.45565 0.31882 0.85853 0.0
O265 O 0.4766 0.35059 0.85371 0.0
Co266 Co 0.68523 0.49041 0.86787 0.0
O267 O 0.69439 0.49147 0.83536 0.0
O268 O 0.71817 0.49891 0.86518 0.0
C269 C 0.66603 0.4556 0.86566 0.0
O270 O 0.68193 0.4906 0.90372 0.0
Co271 Co 0.63181 0.49025 0.88069 0.0
O272 O 0.64392 0.48465 0.91285 0.0
C273 C 0.65451 0.5338 0.86433 0.0
C274 C 0.71528 0.49689 0.84259 0.0
C275 C 0.66534 0.48731 0.9188 0.0
O276 O 0.67506 0.52456 0.86648 0.0
O277 O 0.63537 0.5223 0.8667 0.0
O278 O 0.6887 0.45593 0.86799 0.0
O279 O 0.65635 0.47579 0.86267 0.0
Co280 Co 0.51404 0.6829 0.86839 0.0
O281 O 0.51215 0.68815 0.83485 0.0
O282 O 0.50481 0.71489 0.86208 0.0
C283 C 0.54914 0.66431 0.86756 0.0
O284 O 0.51454 0.68504 0.90427 0.0
Co285 Co 0.51706 0.63348 0.89144 0.0
O286 O 0.52657 0.65093 0.91993 0.0
C287 C 0.47101 0.65218 0.87541 0.0
C288 C 0.50667 0.7097 0.83995 0.0
C289 C 0.52121 0.67252 0.92188 0.0
O290 O 0.48021 0.67187 0.86907 0.0
O291 O 0.48281 0.6349 0.88363 0.0
O292 O 0.54825 0.68709 0.86708 0.0
O293 O 0.52919 0.65365 0.86707 0.0
Co294 Co 0.68271 0.50959 0.14264 0.0
O295 O 0.69204 0.5067 0.17496 0.0
O296 O 0.7161 0.503 0.14469 0.0
C297 C 0.66148 0.54278 0.14819 0.0
O298 O 0.67939 0.51177 0.1069 0.0
Co299 Co 0.6297 0.50843 0.12901 0.0
O300 O 0.64149 0.51775 0.09762 0.0
C301 C 0.65458 0.46455 0.14162 0.0
C302 C 0.71316 0.50313 0.16736 0.0
C303 C 0.66301 0.51586 0.0918 0.0
O304 O 0.67465 0.47496 0.1415 0.0
O305 O 0.63494 0.47518 0.13919 0.0
O306 O 0.68401 0.54409 0.14492 0.0
O307 O 0.65307 0.52185 0.14933 0.0
Co308 Co 0.4886 0.68529 0.14304 0.0
O309 O 0.48808 0.69118 0.1764 0.0
O310 O 0.49973 0.71673 0.14961 0.0
C311 C 0.45243 0.66915 0.14168 0.0
O312 O 0.49096 0.68633 0.10721 0.0
Co313 Co 0.48406 0.63519 0.12167 0.0
O314 O 0.47846 0.65218 0.09186 0.0
C315 C 0.52937 0.65107 0.14197 0.0
C316 C 0.49564 0.71213 0.1716 0.0
C317 C 0.485 0.67343 0.0896 0.0
O318 O 0.5215 0.67202 0.14531 0.0
O319 O 0.5169 0.63404 0.13426 0.0
O320 O 0.45476 0.69182 0.14144 0.0
O321 O 0.47146 0.65722 0.14409 0.0
Co322 Co 0.51324 0.32034 0.13428 0.0
O323 O 0.51323 0.3111 0.16673 0.0
O324 O 0.50214 0.28822 0.13733 0.0
C325 C 0.54952 0.33647 0.13457 0.0
O326 O 0.51137 0.3241 0.09852 0.0
Co327 Co 0.5169 0.37388 0.1223 0.0
O328 O 0.51836 0.36201 0.08961 0.0
C329 C 0.47313 0.35442 0.14159 0.0
C330 C 0.50563 0.29082 0.15978 0.0
C331 C 0.51429 0.34084 0.08351 0.0
O332 O 0.48027 0.33331 0.13769 0.0
O333 O 0.48621 0.37255 0.13938 0.0
O334 O 0.54719 0.31392 0.13217 0.0
O335 O 0.53046 0.34778 0.13882 0.0
H336 H 0.17938 0.4483 0.36615 0.0
H337 H 0.10728 0.43891 0.34529 0.0
H338 H 0.17862 0.41001 0.38591 0.0
H339 H 0.10637 0.40092 0.36545 0.0
H340 H 0.12006 0.38245 0.45172 0.0
H341 H 0.12189 0.4092 0.4185 0.0
H342 H 0.15702 0.35633 0.37733 0.0
H343 H 0.15449 0.32878 0.41077 0.0
C344 C 0.16384 0.43743 0.36468 0.0
C345 C 0.14352 0.44623 0.35391 0.0
C346 C 0.16338 0.4156 0.37599 0.0
C347 C 0.1425 0.40255 0.37694 0.0
C348 C 0.12277 0.41049 0.36451 0.0
C349 C 0.12332 0.43215 0.35296 0.0
C350 C 0.12782 0.37626 0.43554 0.0
C351 C 0.13711 0.35351 0.43383 0.0
C352 C 0.12882 0.39159 0.41652 0.0
C353 C 0.13955 0.38472 0.39551 0.0
C354 C 0.14853 0.36186 0.39342 0.0
C355 C 0.14702 0.34618 0.41243 0.0
H356 H 0.67559 0.15333 0.40786 0.0
H357 H 0.62372 0.11423 0.44677 0.0
H358 H 0.64961 0.15286 0.37313 0.0
H359 H 0.59858 0.1129 0.4123 0.0
H360 H 0.56386 0.09849 0.34631 0.0
H361 H 0.60156 0.09661 0.36673 0.0
H362 H 0.60275 0.17215 0.37156 0.0
H363 H 0.56476 0.17397 0.35132 0.0
C364 C 0.65899 0.14411 0.40876 0.0
C365 C 0.65161 0.13378 0.42993 0.0
C366 C 0.64419 0.14391 0.38901 0.0
C367 C 0.62227 0.13264 0.39006 0.0
C368 C 0.61554 0.12142 0.41093 0.0
C369 C 0.62989 0.12225 0.43071 0.0
C370 C 0.57286 0.11473 0.35053 0.0
C371 C 0.56165 0.13638 0.34708 0.0
C372 C 0.59433 0.11364 0.36231 0.0
C373 C 0.60493 0.13423 0.37076 0.0
C374 C 0.59505 0.15607 0.36494 0.0
C375 C 0.57339 0.15714 0.35329 0.0
H376 H 0.83389 0.6242 0.44489 0.0
H377 H 0.88901 0.66687 0.4153 0.0
H378 H 0.8356 0.59812 0.41114 0.0
H379 H 0.8912 0.64013 0.38136 0.0
H380 H 0.90971 0.55817 0.36371 0.0
H381 H 0.90476 0.59637 0.38246 0.0
H382 H 0.83077 0.59457 0.36624 0.0
H383 H 0.83593 0.55633 0.34701 0.0
C384 C 0.84614 0.62818 0.4309 0.0
C385 C 0.86146 0.64738 0.43272 0.0
C386 C 0.84694 0.61339 0.41144 0.0
C387 C 0.86344 0.61716 0.39355 0.0
C388 C 0.87822 0.63694 0.39487 0.0
C389 C 0.877 0.65217 0.41422 0.0
C390 C 0.89261 0.56647 0.36325 0.0
C391 C 0.87318 0.55444 0.35402 0.0
C392 C 0.88978 0.58836 0.37391 0.0
C393 C 0.86735 0.59833 0.37598 0.0
C394 C 0.84824 0.58722 0.36489 0.0
C395 C 0.85118 0.56545 0.3538 0.0
H396 H 0.37457 0.83258 0.4537 0.0
H397 H 0.33059 0.88325 0.41852 0.0
H398 H 0.40186 0.83319 0.42088 0.0
H399 H 0.35847 0.8843 0.38552 0.0
H400 H 0.43934 0.90556 0.3677 0.0
H401 H 0.40133 0.90006 0.38667 0.0
H402 H 0.40727 0.82516 0.37669 0.0
H403 H 0.44531 0.83084 0.35723 0.0
C404 C 0.37057 0.84358 0.4387 0.0
C405 C 0.3506 0.858 0.43867 0.0
C406 C 0.38608 0.84375 0.41979 0.0
C407 C 0.38225 0.85871 0.40058 0.0
C408 C 0.36176 0.87252 0.40008 0.0
C409 C 0.34586 0.87193 0.41889 0.0
C410 C 0.43201 0.88803 0.3687 0.0
C411 C 0.44509 0.86861 0.36105 0.0
C412 C 0.41024 0.88488 0.37948 0.0
C413 C 0.40142 0.86218 0.3833 0.0
C414 C 0.41371 0.84285 0.37398 0.0
C415 C 0.43535 0.84607 0.36276 0.0
H416 H 0.18047 0.55501 0.6432 0.0
H417 H 0.1064 0.56736 0.65174 0.0
H418 H 0.18442 0.59257 0.62278 0.0
H419 H 0.11011 0.60478 0.631 0.0
H420 H 0.16606 0.62375 0.54922 0.0
H421 H 0.16829 0.59727 0.58244 0.0
H422 H 0.12759 0.64572 0.62418 0.0
H423 H 0.12556 0.67275 0.59045 0.0
C424 C 0.16529 0.56637 0.64176 0.0
C425 C 0.14321 0.55854 0.6492 0.0
C426 C 0.16745 0.58772 0.62984 0.0
C427 C 0.14749 0.60142 0.62491 0.0
C428 C 0.12583 0.59473 0.63464 0.0
C429 C 0.1237 0.57335 0.6466 0.0
C430 C 0.15781 0.62897 0.56555 0.0
C431 C 0.14551 0.65024 0.56721 0.0
C432 C 0.15933 0.61388 0.58472 0.0
C433 C 0.14833 0.61948 0.60606 0.0
C434 C 0.13634 0.64101 0.60798 0.0
C435 C 0.13518 0.65644 0.58874 0.0
H436 H 0.32914 0.11825 0.58886 0.0
H437 H 0.37635 0.16748 0.5559 0.0
H438 H 0.35473 0.11737 0.62375 0.0
H439 H 0.40131 0.16704 0.59047 0.0
H440 H 0.44147 0.17102 0.65433 0.0
H441 H 0.40379 0.17635 0.63424 0.0
H442 H 0.3972 0.10121 0.6268 0.0
H443 H 0.43484 0.09606 0.64661 0.0
C444 C 0.34466 0.12922 0.58931 0.0
C445 C 0.35095 0.14273 0.56966 0.0
C446 C 0.35923 0.12877 0.60921 0.0
C447 C 0.37989 0.14233 0.60993 0.0
C448 C 0.38533 0.15674 0.59068 0.0
C449 C 0.37117 0.15676 0.57074 0.0
C450 C 0.43131 0.15568 0.6495 0.0
C451 C 0.44088 0.13315 0.65201 0.0
C452 C 0.40988 0.1587 0.63783 0.0
C453 C 0.39773 0.13919 0.62869 0.0
C454 C 0.40604 0.11655 0.63376 0.0
C455 C 0.42758 0.11358 0.64512 0.0
H456 H 0.88794 0.43822 0.66248 0.0
H457 H 0.82257 0.45285 0.62726 0.0
H458 H 0.88923 0.39936 0.64381 0.0
H459 H 0.82343 0.41398 0.60917 0.0
H460 H 0.82734 0.34007 0.58308 0.0
H461 H 0.82489 0.36875 0.6152 0.0
H462 H 0.89471 0.39305 0.59858 0.0
H463 H 0.89685 0.36469 0.56636 0.0
C464 C 0.87332 0.43265 0.65165 0.0
C465 C 0.85505 0.44832 0.6464 0.0
C466 C 0.87416 0.41056 0.64082 0.0
C467 C 0.85647 0.40371 0.62501 0.0
C468 C 0.83717 0.41866 0.62147 0.0
C469 C 0.83664 0.44088 0.63182 0.0
C470 C 0.84239 0.35105 0.5869 0.0
C471 C 0.86235 0.35019 0.57254 0.0
C472 C 0.84097 0.36748 0.60514 0.0
C473 C 0.85963 0.38307 0.60941 0.0
C474 C 0.88021 0.38103 0.59594 0.0
C475 C 0.88144 0.36489 0.57748 0.0
H476 H 0.5648 0.90099 0.65008 0.0
H477 H 0.56116 0.82552 0.64619 0.0
H478 H 0.60242 0.90034 0.62946 0.0
H479 H 0.59904 0.82484 0.62558 0.0
H480 H 0.67699 0.84936 0.59191 0.0
H481 H 0.6503 0.84957 0.62613 0.0
H482 H 0.59469 0.8762 0.58221 0.0
H483 H 0.62056 0.87536 0.54841 0.0
C484 C 0.57276 0.8842 0.64599 0.0
C485 C 0.56034 0.86329 0.64986 0.0
C486 C 0.59422 0.88384 0.6342 0.0
C487 C 0.60357 0.86255 0.62613 0.0
C488 C 0.59234 0.84141 0.63208 0.0
C489 C 0.57074 0.84178 0.64386 0.0
C490 C 0.65911 0.85544 0.58974 0.0
C491 C 0.65084 0.86233 0.56749 0.0
C492 C 0.64393 0.85547 0.60921 0.0
C493 C 0.6206 0.86298 0.60663 0.0
C494 C 0.61267 0.87044 0.58458 0.0
C495 C 0.62752 0.86991 0.56521 0.0
H496 H 0.348 0.11454 0.43345 0.0
H497 H 0.3667 0.18572 0.45089 0.0
H498 H 0.36938 0.11795 0.39629 0.0
H499 H 0.38758 0.18946 0.41364 0.0
H500 H 0.45784 0.16502 0.3809 0.0
H501 H 0.42532 0.16825 0.40799 0.0
H502 H 0.37888 0.13769 0.35639 0.0
H503 H 0.41201 0.1346 0.3287 0.0
C504 C 0.35554 0.13133 0.42867 0.0
C505 C 0.35563 0.14995 0.44483 0.0
C506 C 0.36787 0.13327 0.40745 0.0
C507 C 0.38053 0.15383 0.40227 0.0
C508 C 0.37827 0.17329 0.41733 0.0
C509 C 0.36612 0.17128 0.43852 0.0
C510 C 0.44069 0.15917 0.37513 0.0
C511 C 0.43751 0.14947 0.3527 0.0
C512 C 0.42194 0.16127 0.39061 0.0
C513 C 0.39941 0.15352 0.38425 0.0
C514 C 0.39603 0.14394 0.3617 0.0
C515 C 0.41492 0.14219 0.3459 0.0
H516 H 0.82082 0.37771 0.45134 0.0
H517 H 0.88389 0.33817 0.43785 0.0
H518 H 0.82281 0.39453 0.41183 0.0
H519 H 0.88644 0.35578 0.3986 0.0
H520 H 0.8964 0.43759 0.36995 0.0
H521 H 0.89195 0.4052 0.39762 0.0
H522 H 0.82808 0.38412 0.36281 0.0
H523 H 0.83321 0.41617 0.3342 0.0
C524 C 0.8345 0.37186 0.4395 0.0
C525 C 0.85208 0.35653 0.44745 0.0
C526 C 0.83566 0.38146 0.41694 0.0
C527 C 0.85478 0.37641 0.40227 0.0
C528 C 0.87142 0.35973 0.40955 0.0
C529 C 0.86989 0.34959 0.43191 0.0
C530 C 0.88192 0.42552 0.36764 0.0
C531 C 0.86527 0.42916 0.34988 0.0
C532 C 0.8794 0.40695 0.38342 0.0
C533 C 0.85976 0.39213 0.3822 0.0
C534 C 0.8435 0.39518 0.36388 0.0
C535 C 0.84646 0.4134 0.34756 0.0
H536 H 0.55808 0.89469 0.37774 0.0
H537 H 0.58871 0.84376 0.33083 0.0
H538 H 0.5931 0.89349 0.40224 0.0
H539 H 0.62373 0.84173 0.35622 0.0
H540 H 0.64202 0.82469 0.44189 0.0
H541 H 0.62211 0.82729 0.40385 0.0
H542 H 0.64086 0.90049 0.39915 0.0
H543 H 0.66132 0.89766 0.43686 0.0
C544 C 0.57255 0.8836 0.37242 0.0
C545 C 0.57079 0.86942 0.35237 0.0
C546 C 0.59264 0.88298 0.38638 0.0
C547 C 0.61115 0.86764 0.381 0.0
C548 C 0.60976 0.85387 0.36056 0.0
C549 C 0.58984 0.85508 0.34607 0.0
C550 C 0.64316 0.84088 0.43197 0.0
C551 C 0.65347 0.86088 0.44203 0.0
C552 C 0.63169 0.84242 0.41027 0.0
C553 C 0.6299 0.86412 0.39869 0.0
C554 C 0.64216 0.88354 0.40769 0.0
C555 C 0.654 0.88187 0.42915 0.0
H556 H 0.10372 0.65789 0.43731 0.0
H557 H 0.17787 0.6437 0.44165 0.0
H558 H 0.10209 0.63795 0.39924 0.0
H559 H 0.17642 0.62435 0.40325 0.0
H560 H 0.16081 0.59246 0.32867 0.0
H561 H 0.16082 0.62668 0.35525 0.0
H562 H 0.11327 0.59033 0.40161 0.0
H563 H 0.11413 0.55617 0.37596 0.0
C564 C 0.11991 0.6518 0.42941 0.0
C565 C 0.14098 0.65255 0.44215 0.0
C566 C 0.11895 0.64028 0.40774 0.0
C567 C 0.13913 0.62965 0.39839 0.0
C568 C 0.16071 0.63269 0.40994 0.0
C569 C 0.16157 0.64382 0.43184 0.0
C570 C 0.15001 0.59211 0.3443 0.0
C571 C 0.13745 0.57174 0.35032 0.0
C572 C 0.15005 0.61158 0.35945 0.0
C573 C 0.13685 0.61115 0.38028 0.0
C574 C 0.1233 0.59124 0.38548 0.0
C575 C 0.12388 0.57164 0.37084 0.0
H576 H 0.36069 0.82225 0.56271 0.0
H577 H 0.34474 0.89587 0.56962 0.0
H578 H 0.38125 0.82312 0.6005 0.0
H579 H 0.36596 0.89695 0.60704 0.0
H580 H 0.44988 0.88393 0.62556 0.0
H581 H 0.41504 0.88434 0.60081 0.0
H582 H 0.37892 0.84008 0.65047 0.0
H583 H 0.41385 0.84054 0.67613 0.0
C584 C 0.36044 0.83826 0.57299 0.0
C585 C 0.35087 0.85891 0.56355 0.0
C586 C 0.37226 0.83879 0.59454 0.0
C587 C 0.37512 0.8601 0.60658 0.0
C588 C 0.3637 0.88027 0.59817 0.0
C589 C 0.35146 0.87962 0.57687 0.0
C590 C 0.4344 0.87472 0.63154 0.0
C591 C 0.43454 0.86223 0.65276 0.0
C592 C 0.41442 0.87507 0.61742 0.0
C593 C 0.39433 0.8624 0.62389 0.0
C594 C 0.39417 0.85018 0.64532 0.0
C595 C 0.41406 0.85046 0.65991 0.0
H596 H 0.11997 0.41155 0.67212 0.0
H597 H 0.16368 0.44964 0.62334 0.0
H598 H 0.1212 0.37708 0.64597 0.0
H599 H 0.16524 0.41562 0.5978 0.0
H600 H 0.17532 0.35314 0.55732 0.0
H601 H 0.17938 0.37372 0.59483 0.0
H602 H 0.10424 0.37136 0.60413 0.0
H603 H 0.10035 0.35078 0.56668 0.0
C604 C 0.13013 0.4124 0.65607 0.0
C605 C 0.14155 0.43329 0.64962 0.0
C606 C 0.13086 0.39274 0.64117 0.0
C607 C 0.14355 0.39355 0.61997 0.0
C608 C 0.1557 0.4142 0.61419 0.0
C609 C 0.15456 0.43383 0.62871 0.0
C610 C 0.15987 0.35586 0.56806 0.0
C611 C 0.13757 0.35023 0.55935 0.0
C612 C 0.16213 0.36786 0.58939 0.0
C613 C 0.14208 0.37447 0.60222 0.0
C614 C 0.12001 0.36639 0.59475 0.0
C615 C 0.11777 0.35452 0.57336 0.0
H616 H 0.59152 0.13102 0.67088 0.0
H617 H 0.5439 0.15508 0.61695 0.0
H618 H 0.62465 0.13615 0.64342 0.0
H619 H 0.57633 0.16031 0.59021 0.0
H620 H 0.63271 0.18331 0.54795 0.0
H621 H 0.61189 0.18567 0.58531 0.0
H622 H 0.63655 0.11636 0.6035 0.0
H623 H 0.65797 0.1144 0.56624 0.0
C624 C 0.58817 0.13755 0.65333 0.0
C625 C 0.56511 0.14254 0.64604 0.0
C626 C 0.60706 0.1405 0.63769 0.0
C627 C 0.60314 0.14903 0.6148 0.0
C628 C 0.58008 0.15425 0.60786 0.0
C629 C 0.56139 0.15096 0.62317 0.0
C630 C 0.63473 0.16917 0.56052 0.0
C631 C 0.64698 0.14875 0.55438 0.0
C632 C 0.62264 0.17038 0.5818 0.0
C633 C 0.62217 0.15097 0.59707 0.0
C634 C 0.63665 0.13161 0.59213 0.0
C635 C 0.64899 0.13051 0.57085 0.0
H636 H 0.82077 0.57638 0.66175 0.0
H637 H 0.89521 0.57375 0.64887 0.0
H638 H 0.81682 0.60831 0.6332 0.0
H639 H 0.89144 0.60544 0.62009 0.0
H640 H 0.88066 0.66343 0.56926 0.0
H641 H 0.88046 0.64672 0.60901 0.0
H642 H 0.8207 0.60392 0.59031 0.0
H643 H 0.82118 0.62038 0.55091 0.0
C644 C 0.83638 0.58329 0.65337 0.0
C645 C 0.8583 0.57292 0.6575 0.0
C646 C 0.83414 0.60142 0.63696 0.0
C647 C 0.85378 0.60932 0.62426 0.0
C648 C 0.87601 0.60001 0.62978 0.0
C649 C 0.87821 0.58184 0.64618 0.0
C650 C 0.8669 0.65122 0.57409 0.0
C651 C 0.85087 0.64319 0.55716 0.0
C652 C 0.86693 0.64147 0.59671 0.0
C653 C 0.85069 0.62385 0.60276 0.0
C654 C 0.83331 0.6176 0.58638 0.0
C655 C 0.83355 0.62701 0.56377 0.0
H656 H 0.34465 0.42692 0.17742 0.0
H657 H 0.35793 0.43032 0.10302 0.0
H658 H 0.37278 0.39459 0.18111 0.0
H659 H 0.38611 0.39807 0.10652 0.0
H660 H 0.43516 0.33833 0.11731 0.0
H661 H 0.39576 0.3558 0.11785 0.0
H662 H 0.41625 0.39938 0.17646 0.0
H663 H 0.45538 0.38227 0.17557 0.0
C664 C 0.35299 0.42008 0.16175 0.0
C665 C 0.34917 0.43079 0.13993 0.0
C666 C 0.36913 0.40171 0.16385 0.0
C667 C 0.38172 0.39385 0.14413 0.0
C668 C 0.37646 0.40349 0.12198 0.0
C669 C 0.36042 0.42197 0.11994 0.0
C670 C 0.43083 0.35094 0.13087 0.0
C671 C 0.44817 0.35901 0.14642 0.0
C672 C 0.40841 0.36108 0.13105 0.0
C673 C 0.40297 0.37906 0.14709 0.0
C674 C 0.41977 0.38542 0.16403 0.0
C675 C 0.4422 0.37566 0.16353 0.0
H676 H 0.44067 0.63986 0.90956 0.0
H677 H 0.44494 0.65396 0.83532 0.0
H678 H 0.40238 0.62146 0.90405 0.0
H679 H 0.40661 0.63508 0.82961 0.0
H680 H 0.37478 0.55751 0.834 0.0
H681 H 0.40181 0.5905 0.83571 0.0
H682 H 0.35908 0.62299 0.88919 0.0
H683 H 0.33141 0.58981 0.88702 0.0
C684 C 0.43289 0.63983 0.89219 0.0
C685 C 0.44562 0.64827 0.87285 0.0
C686 C 0.41096 0.62936 0.88904 0.0
C687 C 0.40161 0.62666 0.86638 0.0
C688 C 0.41347 0.63691 0.84726 0.0
C689 C 0.43528 0.64782 0.85051 0.0
C690 C 0.37086 0.57193 0.84578 0.0
C691 C 0.35114 0.57109 0.86051 0.0
C692 C 0.38622 0.59095 0.84657 0.0
C693 C 0.3825 0.60939 0.86248 0.0
C694 C 0.36227 0.60903 0.87667 0.0
C695 C 0.34649 0.59013 0.87545 0.0
H696 H 0.45368 0.38419 0.83536 0.0
H697 H 0.41065 0.33196 0.8695 0.0
H698 H 0.42022 0.41017 0.83231 0.0
H699 H 0.3766 0.35853 0.86663 0.0
H700 H 0.3459 0.43593 0.88908 0.0
H701 H 0.36727 0.39883 0.88555 0.0
H702 H 0.38126 0.41414 0.81265 0.0
H703 H 0.36035 0.45138 0.81647 0.0
C704 C 0.43694 0.37817 0.84208 0.0
C705 C 0.43481 0.35609 0.85277 0.0
C706 C 0.41764 0.39299 0.84006 0.0
C707 C 0.39564 0.38629 0.84893 0.0
C708 C 0.39332 0.36406 0.85949 0.0
C709 C 0.41274 0.34892 0.86114 0.0
C710 C 0.35243 0.43067 0.87201 0.0
C711 C 0.35141 0.44631 0.85298 0.0
C712 C 0.36476 0.40948 0.86999 0.0
C713 C 0.37632 0.40382 0.84894 0.0
C714 C 0.37279 0.41822 0.82918 0.0
C715 C 0.3606 0.4394 0.83124 0.0
H716 H 0.67555 0.41223 0.84703 0.0
H717 H 0.62402 0.45064 0.88707 0.0
H718 H 0.64858 0.37832 0.84525 0.0
H719 H 0.59792 0.41684 0.88621 0.0
H720 H 0.56366 0.34822 0.89722 0.0
H721 H 0.60162 0.36817 0.89992 0.0
H722 H 0.59981 0.38167 0.82546 0.0
H723 H 0.56148 0.36223 0.82289 0.0
C724 C 0.65879 0.41317 0.85595 0.0
C725 C 0.6518 0.43401 0.86718 0.0
C726 C 0.64345 0.39388 0.85489 0.0
C727 C 0.62137 0.39501 0.8658 0.0
C728 C 0.61499 0.41546 0.87793 0.0
C729 C 0.62989 0.43484 0.87833 0.0
C730 C 0.57203 0.35426 0.88124 0.0
C731 C 0.55992 0.35345 0.85979 0.0
C732 C 0.59365 0.36577 0.88281 0.0
C733 C 0.60356 0.37635 0.86288 0.0
C734 C 0.59266 0.3733 0.84097 0.0
C735 C 0.57081 0.36213 0.83947 0.0
H736 H 0.63931 0.55815 0.82638 0.0
H737 H 0.66095 0.5659 0.89848 0.0
H738 H 0.62001 0.59655 0.82798 0.0
H739 H 0.64097 0.60394 0.90037 0.0
H740 H 0.55734 0.62556 0.89373 0.0
H741 H 0.59158 0.60002 0.89268 0.0
H742 H 0.62457 0.64595 0.84234 0.0
H743 H 0.59036 0.67244 0.84425 0.0
C744 C 0.64102 0.56868 0.84213 0.0
C745 C 0.65185 0.55935 0.8622 0.0
C746 C 0.62994 0.59059 0.84308 0.0
C747 C 0.62904 0.6031 0.86431 0.0
C748 C 0.64167 0.5947 0.88376 0.0
C749 C 0.6532 0.57304 0.88263 0.0
C750 C 0.57211 0.63061 0.88293 0.0
C751 C 0.57127 0.65098 0.86914 0.0
C752 C 0.59175 0.61604 0.88242 0.0
C753 C 0.61071 0.62117 0.86757 0.0
C754 C 0.61023 0.64184 0.85411 0.0
C755 C 0.59076 0.65692 0.85523 0.0
H756 H 0.61822 0.5436 0.16733 0.0
H757 H 0.66954 0.58839 0.13412 0.0
H758 H 0.59087 0.57615 0.1694 0.0
H759 H 0.64167 0.62138 0.13596 0.0
H760 H 0.56511 0.65028 0.11085 0.0
H761 H 0.60181 0.62842 0.11548 0.0
H762 H 0.58477 0.61558 0.18823 0.0
H763 H 0.54806 0.63739 0.18341 0.0
C764 C 0.62374 0.56053 0.16064 0.0
C765 C 0.64597 0.56343 0.15044 0.0
C766 C 0.60813 0.57927 0.16207 0.0
C767 C 0.61419 0.60141 0.15307 0.0
C768 C 0.6366 0.60452 0.14314 0.0
C769 C 0.6525 0.58571 0.14208 0.0
C770 C 0.56985 0.64371 0.12807 0.0
C771 C 0.55405 0.64563 0.14686 0.0
C772 C 0.5908 0.63117 0.13073 0.0
C773 C 0.59601 0.62006 0.15214 0.0
C774 C 0.5811 0.62381 0.17148 0.0
C775 C 0.56023 0.63645 0.16883 0.0
H776 H 0.3408 0.56754 0.11591 0.0
H777 H 0.38382 0.54913 0.17542 0.0
H778 H 0.35746 0.60736 0.11624 0.0
H779 H 0.39993 0.58882 0.17625 0.0
H780 H 0.42267 0.66278 0.17798 0.0
H781 H 0.39151 0.63315 0.18027 0.0
H782 H 0.4012 0.61749 0.10673 0.0
H783 H 0.43244 0.6469 0.10466 0.0
C784 C 0.35305 0.57236 0.12964 0.0
C785 C 0.36101 0.55545 0.14572 0.0
C786 C 0.36268 0.59502 0.12974 0.0
C787 C 0.37998 0.60117 0.14627 0.0
C788 C 0.38643 0.58471 0.16349 0.0
C789 C 0.37726 0.56199 0.16303 0.0
C790 C 0.41739 0.65364 0.16214 0.0
C791 C 0.42966 0.65713 0.1411 0.0
C792 C 0.39971 0.63663 0.16347 0.0
C793 C 0.39398 0.62299 0.1437 0.0
C794 C 0.40501 0.62793 0.12217 0.0
C795 C 0.42291 0.64471 0.12096 0.0
H796 H 0.64351 0.43647 0.17839 0.0
H797 H 0.65971 0.43583 0.1045 0.0
H798 H 0.62477 0.39797 0.17464 0.0
H799 H 0.64043 0.39763 0.10056 0.0
H800 H 0.55798 0.37557 0.10926 0.0
H801 H 0.59297 0.40005 0.11003 0.0
H802 H 0.62641 0.35116 0.15727 0.0
H803 H 0.59133 0.32581 0.15558 0.0
C804 C 0.64427 0.42742 0.16167 0.0
C805 C 0.65324 0.43884 0.14178 0.0
C806 C 0.6335 0.40545 0.15949 0.0
C807 C 0.6311 0.39497 0.13729 0.0
C808 C 0.64224 0.40531 0.11787 0.0
C809 C 0.65337 0.42707 0.12015 0.0
C810 C 0.57303 0.36964 0.11921 0.0
C811 C 0.57207 0.34882 0.13227 0.0
C812 C 0.59311 0.38358 0.11957 0.0
C813 C 0.61241 0.37735 0.13356 0.0
C814 C 0.61181 0.35613 0.14615 0.0
C815 C 0.59186 0.3417 0.14516 0.0
H816 H 0.06214 0.3008 0.50928 0.0
H817 H 0.0493 0.35547 0.45831 0.0
H818 H 0.0197 0.298 0.51668 0.0
H819 H 0.00736 0.35266 0.46573 0.0
H820 H 0.94873 0.37151 0.51677 0.0
H821 H 0.98953 0.36514 0.50688 0.0
H822 H 0.97585 0.29159 0.49522 0.0
H823 H 0.93423 0.29789 0.50494 0.0
C824 C 0.05027 0.31163 0.49912 0.0
C825 C 0.05907 0.32863 0.48349 0.0
C826 C 0.02602 0.31005 0.5034 0.0
C827 C 0.0104 0.32544 0.49208 0.0
C828 C 0.0191 0.34087 0.47496 0.0
C829 C 0.04312 0.34244 0.47071 0.0
C830 C 0.9542 0.35386 0.51229 0.0
C831 C 0.93796 0.33526 0.51143 0.0
C832 C 0.97765 0.35028 0.50652 0.0
C833 C 0.98572 0.32797 0.49992 0.0
C834 C 0.96997 0.30899 0.50015 0.0
C835 C 0.9462 0.31263 0.50571 0.0
H836 H 0.63456 0.04942 0.47925 0.0
H837 H 0.70527 0.06524 0.50202 0.0
H838 H 0.64049 0.00849 0.48897 0.0
H839 H 0.71119 0.02345 0.51149 0.0
H840 H 0.70415 0.93658 0.49458 0.0
H841 H 0.70764 0.97907 0.48757 0.0
H842 H 0.6481 0.99124 0.53265 0.0
H843 H 0.64459 0.94928 0.53973 0.0
C844 C 0.65151 0.04421 0.48611 0.0
C845 C 0.66933 0.06084 0.49016 0.0
C846 C 0.65485 0.02068 0.4917 0.0
C847 C 0.67613 0.01295 0.50132 0.0
C848 C 0.69457 0.02909 0.50418 0.0
C849 C 0.69115 0.05294 0.49874 0.0
C850 C 0.69229 0.94842 0.50355 0.0
C851 C 0.67382 0.93955 0.51738 0.0
C852 C 0.6943 0.97268 0.49952 0.0
C853 C 0.67789 0.98826 0.5093 0.0
C854 C 0.66077 0.97951 0.52467 0.0
C855 C 0.65877 0.95547 0.52869 0.0
H856 H 0.94932 0.62628 0.48126 0.0
H857 H 0.9365 0.69751 0.50417 0.0
H858 H 0.99065 0.63082 0.48999 0.0
H859 H 0.97853 0.70199 0.5129 0.0
H860 H 0.06281 0.69926 0.49915 0.0
H861 H 0.02026 0.70102 0.49242 0.0
H862 H 0.01198 0.63507 0.52875 0.0
H863 H 0.05402 0.63322 0.53545 0.0
C864 C 0.95527 0.64302 0.48803 0.0
C865 C 0.93936 0.66143 0.49226 0.0
C866 C 0.97905 0.64556 0.49315 0.0
C867 C 0.98777 0.6666 0.50257 0.0
C868 C 0.97225 0.68553 0.50575 0.0
C869 C 0.94821 0.68294 0.50074 0.0
C870 C 0.05182 0.68542 0.50615 0.0
C871 C 0.06192 0.6659 0.51751 0.0
C872 C 0.02748 0.68643 0.50226 0.0
C873 C 0.01289 0.66792 0.50962 0.0
C874 C 0.02284 0.64933 0.5224 0.0
C875 C 0.04697 0.64833 0.5263 0.0
H876 H 0.36859 0.05373 0.53074 0.0
H877 H 0.30232 0.06576 0.49574 0.0
H878 H 0.36513 0.01202 0.52316 0.0
H879 H 0.29888 0.02333 0.48829 0.0
H880 H 0.30036 0.9388 0.50424 0.0
H881 H 0.29715 0.98135 0.51079 0.0
H882 H 0.36702 0.99072 0.48328 0.0
H883 H 0.3703 0.94881 0.47661 0.0
C884 C 0.35312 0.04751 0.5216 0.0
C885 C 0.33591 0.06329 0.51353 0.0
C886 C 0.3512 0.02352 0.51722 0.0
C887 C 0.33198 0.01447 0.50474 0.0
C888 C 0.31394 0.02988 0.49787 0.0
C889 C 0.31592 0.05414 0.50217 0.0
C890 C 0.31485 0.95001 0.49919 0.0
C891 C 0.33573 0.94023 0.49022 0.0
C892 C 0.31298 0.97435 0.50295 0.0
C893 C 0.33201 0.98925 0.49795 0.0
C894 C 0.35225 0.97961 0.48773 0.0
C895 C 0.35407 0.95551 0.48386 0.0
H896 H 0.54572 0.95809 0.33898 0.0
H897 H 0.47911 0.93676 0.30985 0.0
H898 H 0.5357 0.99927 0.33176 0.0
H899 H 0.46872 0.97814 0.3035 0.0
H900 H 0.45813 0.05239 0.34907 0.0
H901 H 0.46574 0.01063 0.34212 0.0
H902 H 0.52099 0.02864 0.29366 0.0
H903 H 0.51291 0.07044 0.2999 0.0
C904 C 0.52922 0.96222 0.33046 0.0
C905 C 0.51324 0.94432 0.32483 0.0
C906 C 0.5235 0.98572 0.32634 0.0
C907 C 0.50146 0.99174 0.31711 0.0
C908 C 0.48586 0.97383 0.31051 0.0
C909 C 0.49187 0.95024 0.31401 0.0
C910 C 0.4714 0.04743 0.33639 0.0
C911 C 0.4849 0.06464 0.32502 0.0
C912 C 0.47569 0.02359 0.33237 0.0
C913 C 0.49393 0.01657 0.31737 0.0
C914 C 0.50675 0.03371 0.30519 0.0
C915 C 0.50204 0.05756 0.30872 0.0
H916 H 0.95884 0.4514 0.33971 0.0
H917 H 0.9376 0.51359 0.30192 0.0
H918 H 1.00007 0.46128 0.33271 0.0
H919 H 0.97892 0.52387 0.29572 0.0
H920 H 0.04955 0.54231 0.34387 0.0
H921 H 0.00861 0.53222 0.33555 0.0
H922 H 0.03136 0.47263 0.29476 0.0
H923 H 0.07244 0.4832 0.30232 0.0
C924 C 0.96301 0.46679 0.32933 0.0
C925 C 0.9451 0.48171 0.32131 0.0
C926 C 0.98653 0.47241 0.32531 0.0
C927 C 0.9925 0.49332 0.31372 0.0
C928 C 0.97464 0.50759 0.30457 0.0
C929 C 0.95107 0.50163 0.30803 0.0
C930 C 0.0458 0.52749 0.33254 0.0
C931 C 0.06408 0.51355 0.3237 0.0
C932 C 0.02245 0.52178 0.32773 0.0
C933 C 0.017 0.50171 0.3145 0.0
C934 C 0.03524 0.48828 0.30485 0.0
C935 C 0.05865 0.49438 0.30912 0.0
H936 H 0.45824 0.95116 0.66107 0.0
H937 H 0.521 0.93175 0.69884 0.0
H938 H 0.46705 0.99271 0.66783 0.0
H939 H 0.53025 0.97344 0.70478 0.0
H940 H 0.54544 0.04599 0.65751 0.0
H941 H 0.53738 0.00444 0.66517 0.0
H942 H 0.47713 0.02367 0.70671 0.0
H943 H 0.48565 0.06532 0.69982 0.0
C944 C 0.47358 0.9558 0.67132 0.0
C945 C 0.48887 0.93831 0.67954 0.0
C946 C 0.47859 0.97951 0.6752 0.0
C947 C 0.4993 0.98612 0.68682 0.0
C948 C 0.51411 0.96867 0.69592 0.0
C949 C 0.50874 0.9449 0.69262 0.0
C950 C 0.53095 0.04135 0.66891 0.0
C951 C 0.51621 0.05883 0.67812 0.0
C952 C 0.52638 0.01764 0.67332 0.0
C953 C 0.50666 0.01101 0.68651 0.0
C954 C 0.49251 0.02845 0.69661 0.0
C955 C 0.49747 0.05222 0.69275 0.0
H956 H 0.94821 0.53063 0.63366 0.0
H957 H 0.93621 0.50191 0.70292 0.0
H958 H 0.98962 0.52142 0.63699 0.0
H959 H 0.97827 0.49287 0.7062 0.0
H960 H 0.06351 0.5054 0.70105 0.0
H961 H 0.02142 0.51414 0.70478 0.0
H962 H 0.00849 0.4797 0.63858 0.0
H963 H 0.04996 0.47081 0.63483 0.0
C964 C 0.95438 0.52261 0.64976 0.0
C965 C 0.93867 0.51671 0.66788 0.0
C966 C 0.97817 0.51728 0.65161 0.0
C967 C 0.98705 0.50605 0.67166 0.0
C968 C 0.97181 0.50145 0.6905 0.0
C969 C 0.94777 0.50665 0.6886 0.0
C970 C 0.0516 0.49926 0.68756 0.0
C971 C 0.06023 0.48773 0.66745 0.0
C972 C 0.02754 0.5043 0.68971 0.0
C973 C 0.01184 0.498 0.67173 0.0
C974 C 0.02029 0.48518 0.65247 0.0
C975 C 0.0441 0.48005 0.65039 0.0
H976 H 0.36958 0.52657 0.94916 0.0
H977 H 0.29906 0.50141 0.93653 0.0
H978 H 0.36545 0.51767 0.99056 0.0
H979 H 0.29498 0.49276 0.97869 0.0
H980 H 0.30275 0.50802 0.0648 0.0
H981 H 0.29869 0.51618 0.02254 0.0
H982 H 0.36037 0.47458 0.00875 0.0
H983 H 0.3644 0.46624 0.05036 0.0
C984 C 0.35304 0.5194 0.95518 0.0
C985 C 0.33477 0.51439 0.9393 0.0
C986 C 0.35073 0.51429 0.97898 0.0
C987 C 0.33005 0.50421 0.98772 0.0
C988 C 0.31113 0.50047 0.97231 0.0
C989 C 0.31351 0.50544 0.94823 0.0
C990 C 0.31509 0.50017 0.05267 0.0
C991 C 0.33415 0.48682 0.06105 0.0
C992 C 0.31275 0.50486 0.02853 0.0
C993 C 0.32947 0.49632 0.01253 0.0
C994 C 0.34747 0.48168 0.02078 0.0
C995 C 0.34974 0.47693 0.04466 0.0
H996 H 0.50416 0.3028 0.93337 0.0
H997 H 0.46359 0.36564 0.94598 0.0
H998 H 0.51118 0.29905 0.9758 0.0
H999 H 0.47067 0.36184 0.9879 0.0
H1000 H 0.52253 0.3713 0.04766 0.0
H1001 H 0.51264 0.36692 0.00659 0.0
H1002 H 0.48901 0.2961 0.01922 0.0
H1003 H 0.49871 0.30046 0.06116 0.0
C1004 C 0.49623 0.31543 0.94516 0.0
C1005 C 0.48366 0.33477 0.93623 0.0
C1006 C 0.50027 0.31325 0.96942 0.0
C1007 C 0.49181 0.3304 0.985 0.0
C1008 C 0.47772 0.34859 0.9762 0.0
C1009 C 0.47367 0.35075 0.95216 0.0
C1010 C 0.51537 0.35465 0.04191 0.0
C1011 C 0.51113 0.33634 0.05795 0.0
C1012 C 0.50964 0.35221 0.01828 0.0
C1013 C 0.49966 0.33135 0.00984 0.0
C1014 C 0.49657 0.31243 0.02539 0.0
C1015 C 0.50215 0.31494 0.04933 0.0
H1016 H 0.6378 0.47161 0.9544 0.0
H1017 H 0.70379 0.50668 0.94133 0.0
H1018 H 0.64127 0.4804 0.99594 0.0
H1019 H 0.70729 0.51529 0.98357 0.0
H1020 H 0.63511 0.53094 0.05602 0.0
H1021 H 0.63985 0.52333 0.01433 0.0
H1022 H 0.70768 0.49237 0.02725 0.0
H1023 H 0.70298 0.49981 0.06952 0.0
C1024 C 0.65326 0.48091 0.9604 0.0
C1025 C 0.67032 0.48878 0.94439 0.0
C1026 C 0.65519 0.48599 0.98425 0.0
C1027 C 0.67429 0.49893 0.99285 0.0
C1028 C 0.69233 0.50538 0.9773 0.0
C1029 C 0.69033 0.50038 0.95318 0.0
C1030 C 0.65125 0.52284 0.0501 0.0
C1031 C 0.66848 0.51563 0.06626 0.0
C1032 C 0.65392 0.51845 0.02617 0.0
C1033 C 0.67392 0.50688 0.01767 0.0
C1034 C 0.69206 0.50126 0.03342 0.0
C1035 C 0.68934 0.50557 0.05758 0.0
H1036 H 0.48732 0.70183 0.93853 0.0
H1037 H 0.54913 0.6634 0.95958 0.0
H1038 H 0.47792 0.70919 0.97989 0.0
H1039 H 0.54013 0.67143 1.00081 0.0
H1040 H 0.52125 0.70015 0.07344 0.0
H1041 H 0.53161 0.70719 0.03219 0.0
H1042 H 0.46757 0.67321 0.01029 0.0
H1043 H 0.45761 0.66546 0.05134 0.0
C1044 C 0.49938 0.69578 0.95194 0.0
C1045 C 0.51893 0.682 0.94591 0.0
C1046 C 0.49393 0.69989 0.97555 0.0
C1047 C 0.50831 0.69086 0.99343 0.0
C1048 C 0.52889 0.67876 0.98732 0.0
C1049 C 0.534 0.67413 0.96377 0.0
C1050 C 0.5091 0.69481 0.05981 0.0
C1051 C 0.48865 0.68224 0.0655 0.0
C1052 C 0.51508 0.69875 0.03628 0.0
C1053 C 0.50034 0.69079 0.01817 0.0
C1054 C 0.47909 0.67974 0.02396 0.0
C1055 C 0.47343 0.67524 0.0474 0.0
H1056 H 0.20917 0.29206 0.48573 0.0
H1057 H 0.15585 0.24279 0.5075 0.0
H1058 H 0.23847 0.26128 0.48733 0.0
H1059 H 0.18563 0.21178 0.50989 0.0
H1060 H 0.24394 0.15757 0.49014 0.0
H1061 H 0.2124 0.18684 0.48727 0.0
H1062 H 0.25902 0.23942 0.51586 0.0
H1063 H 0.29025 0.21079 0.51795 0.0
C1064 C 0.20371 0.27466 0.49111 0.0
C1065 C 0.18017 0.26997 0.49668 0.0
C1066 C 0.2206 0.25694 0.49212 0.0
C1067 C 0.21456 0.234 0.499 0.0
C1068 C 0.19091 0.22918 0.50436 0.0
C1069 C 0.17388 0.24699 0.50318 0.0
C1070 C 0.24737 0.17543 0.49567 0.0
C1071 C 0.2697 0.18186 0.50401 0.0
C1072 C 0.22928 0.19217 0.4942 0.0
C1073 C 0.23318 0.21563 0.5011 0.0
C1074 C 0.25543 0.22176 0.50982 0.0
C1075 C 0.2734 0.2052 0.51113 0.0
H1076 H 0.75772 0.15733 0.50857 0.0
H1077 H 0.71025 0.21003 0.48175 0.0
H1078 H 0.78864 0.18715 0.51197 0.0
H1079 H 0.74094 0.23934 0.48452 0.0
H1080 H 0.84382 0.24491 0.49287 0.0
H1081 H 0.81469 0.21337 0.48911 0.0
H1082 H 0.76099 0.26036 0.51472 0.0
H1083 H 0.78962 0.29163 0.51786 0.0
C1084 C 0.75391 0.17521 0.50336 0.0
C1085 C 0.73146 0.18134 0.49513 0.0
C1086 C 0.77165 0.19225 0.50513 0.0
C1087 C 0.76724 0.21572 0.49871 0.0
C1088 C 0.74487 0.2216 0.49011 0.0
C1089 C 0.72724 0.2047 0.48843 0.0
C1090 C 0.82575 0.24844 0.49757 0.0
C1091 C 0.81902 0.27084 0.50545 0.0
C1092 C 0.80911 0.23035 0.4956 0.0
C1093 C 0.78543 0.23436 0.50143 0.0
C1094 C 0.77892 0.25672 0.50959 0.0
C1095 C 0.79543 0.27468 0.51149 0.0
H1096 H 0.79332 0.70964 0.48172 0.0
H1097 H 0.84612 0.75467 0.51232 0.0
H1098 H 0.76503 0.74119 0.48351 0.0
H1099 H 0.81715 0.78655 0.51483 0.0
H1100 H 0.76159 0.84384 0.49415 0.0
H1101 H 0.79268 0.8141 0.49171 0.0
H1102 H 0.743 0.76084 0.51283 0.0
H1103 H 0.7122 0.79005 0.51453 0.0
C1104 C 0.79888 0.72628 0.48906 0.0
C1105 C 0.82197 0.72952 0.49712 0.0
C1106 C 0.78254 0.74442 0.49018 0.0
C1107 C 0.78863 0.76638 0.49964 0.0
C1108 C 0.81188 0.76988 0.50736 0.0
C1109 C 0.82843 0.7516 0.50608 0.0
C1110 C 0.75738 0.82573 0.49813 0.0
C1111 C 0.73435 0.81928 0.50425 0.0
C1112 C 0.77522 0.80873 0.49693 0.0
C1113 C 0.77033 0.785 0.50185 0.0
C1114 C 0.74736 0.77881 0.50838 0.0
C1115 C 0.72964 0.79564 0.50944 0.0
H1116 H 0.15214 0.76301 0.51407 0.0
H1117 H 0.20534 0.71508 0.48952 0.0
H1118 H 0.18117 0.79488 0.51457 0.0
H1119 H 0.23382 0.74669 0.48888 0.0
H1120 H 0.28715 0.79603 0.51601 0.0
H1121 H 0.25549 0.76762 0.51666 0.0
H1122 H 0.20692 0.82106 0.49333 0.0
H1123 H 0.23888 0.84999 0.49383 0.0
C1124 C 0.16989 0.75943 0.50831 0.0
C1125 C 0.17658 0.73653 0.50202 0.0
C1126 C 0.18654 0.77767 0.50859 0.0
C1127 C 0.21008 0.77332 0.50233 0.0
C1128 C 0.21616 0.75063 0.49467 0.0
C1129 C 0.19974 0.73248 0.49478 0.0
C1130 C 0.26967 0.80181 0.51127 0.0
C1131 C 0.26554 0.82518 0.50469 0.0
C1132 C 0.25148 0.78544 0.51138 0.0
C1133 C 0.22865 0.79178 0.50439 0.0
C1134 C 0.22424 0.81549 0.49879 0.0
C1135 C 0.24253 0.83208 0.49907 0.0
H1136 H 0.48859 0.15977 0.23989 0.0
H1137 H 0.51345 0.21194 0.28885 0.0
H1138 H 0.48869 0.18901 0.20855 0.0
H1139 H 0.51512 0.24078 0.2575 0.0
H1140 H 0.49382 0.29507 0.20559 0.0
H1141 H 0.49161 0.26448 0.23514 0.0
H1142 H 0.50957 0.21261 0.18262 0.0
H1143 H 0.51017 0.24342 0.15272 0.0
C1144 C 0.49451 0.17741 0.24382 0.0
C1145 C 0.50085 0.18365 0.26683 0.0
C1146 C 0.49466 0.19421 0.22582 0.0
C1147 C 0.50159 0.21754 0.23036 0.0
C1148 C 0.50889 0.22332 0.2533 0.0
C1149 C 0.50822 0.2067 0.27132 0.0
C1150 C 0.49702 0.27707 0.20034 0.0
C1151 C 0.50222 0.27161 0.1769 0.0
C1152 C 0.49605 0.25947 0.21736 0.0
C1153 C 0.50093 0.23593 0.21157 0.0
C1154 C 0.50552 0.23042 0.18786 0.0
C1155 C 0.50593 0.24807 0.17067 0.0
H1156 H 0.84648 0.49079 0.24363 0.0
H1157 H 0.79395 0.50519 0.29621 0.0
H1158 H 0.81648 0.49165 0.21318 0.0
H1159 H 0.76407 0.50762 0.26576 0.0
H1160 H 0.71075 0.48677 0.21197 0.0
H1161 H 0.74186 0.48483 0.24103 0.0
H1162 H 0.79073 0.51325 0.19032 0.0
H1163 H 0.75961 0.51367 0.1608 0.0
C1164 C 0.82853 0.49461 0.2486 0.0
C1165 C 0.82252 0.49782 0.27231 0.0
C1166 C 0.81128 0.49521 0.2311 0.0
C1167 C 0.78762 0.49948 0.23683 0.0
C1168 C 0.78188 0.50357 0.26058 0.0
C1169 C 0.79906 0.50245 0.2781 0.0
C1170 C 0.72823 0.49237 0.20699 0.0
C1171 C 0.73278 0.50037 0.18414 0.0
C1172 C 0.74608 0.49155 0.22377 0.0
C1173 C 0.76892 0.49928 0.21835 0.0
C1174 C 0.77353 0.50689 0.19522 0.0
C1175 C 0.75568 0.50721 0.17825 0.0
H1176 H 0.51115 0.75746 0.16708 0.0
H1177 H 0.48519 0.7078 0.21814 0.0
H1178 H 0.51314 0.78762 0.19749 0.0
H1179 H 0.48658 0.738 0.24834 0.0
H1180 H 0.51432 0.79113 0.30174 0.0
H1181 H 0.51303 0.76084 0.27158 0.0
H1182 H 0.48805 0.81191 0.22132 0.0
H1183 H 0.48994 0.84235 0.25142 0.0
C1184 C 0.50591 0.75297 0.1848 0.0
C1185 C 0.49807 0.73021 0.19019 0.0
C1186 C 0.50685 0.77032 0.20221 0.0
C1187 C 0.49992 0.76533 0.22541 0.0
C1188 C 0.49234 0.74245 0.23078 0.0
C1189 C 0.49146 0.72511 0.21341 0.0
C1190 C 0.50841 0.79588 0.28429 0.0
C1191 C 0.50222 0.81917 0.279 0.0
C1192 C 0.5076 0.77847 0.26698 0.0
C1193 C 0.50051 0.78388 0.24393 0.0
C1194 C 0.49398 0.80715 0.23875 0.0
C1195 C 0.49485 0.82458 0.25607 0.0
H1196 H 0.21499 0.52086 0.29342 0.0
H1197 H 0.16309 0.49376 0.24522 0.0
H1198 H 0.24425 0.52012 0.26241 0.0
H1199 H 0.19268 0.49228 0.21419 0.0
H1200 H 0.24747 0.5128 0.15825 0.0
H1201 H 0.21696 0.51603 0.18843 0.0
H1202 H 0.26659 0.49259 0.24084 0.0
H1203 H 0.29685 0.49013 0.21118 0.0
C1204 C 0.20988 0.51449 0.27624 0.0
C1205 C 0.18675 0.50722 0.27185 0.0
C1206 C 0.2267 0.51401 0.25842 0.0
C1207 C 0.22092 0.50603 0.23575 0.0
C1208 C 0.19771 0.4988 0.23133 0.0
C1209 C 0.1808 0.49943 0.24918 0.0
C1210 C 0.25182 0.50857 0.17627 0.0
C1211 C 0.27462 0.50133 0.1823 0.0
C1212 C 0.23432 0.51022 0.19354 0.0
C1213 C 0.23929 0.50464 0.21715 0.0
C1214 C 0.26215 0.49748 0.22301 0.0
C1215 C 0.27954 0.49594 0.20588 0.0
H1216 H 0.51403 0.75663 0.84446 0.0
H1217 H 0.49478 0.70371 0.79383 0.0
H1218 H 0.51363 0.7863 0.81386 0.0
H1219 H 0.4925 0.73359 0.76331 0.0
H1220 H 0.51055 0.78721 0.70778 0.0
H1221 H 0.5128 0.75758 0.73852 0.0
H1222 H 0.4923 0.80976 0.78984 0.0
H1223 H 0.49194 0.83949 0.75927 0.0
C1224 C 0.50921 0.75146 0.82679 0.0
C1225 C 0.50441 0.72788 0.82153 0.0
C1226 C 0.50883 0.76854 0.80915 0.0
C1227 C 0.503 0.76262 0.78582 0.0
C1228 C 0.49764 0.73896 0.78079 0.0
C1229 C 0.49866 0.72177 0.79836 0.0
C1230 C 0.5068 0.79229 0.72572 0.0
C1231 C 0.50123 0.81566 0.73117 0.0
C1232 C 0.5078 0.77523 0.74341 0.0
C1233 C 0.5026 0.78098 0.76693 0.0
C1234 C 0.49697 0.80451 0.7722 0.0
C1235 C 0.49661 0.82165 0.75461 0.0
H1236 H 0.28701 0.52252 0.79282 0.0
H1237 H 0.24168 0.49352 0.84621 0.0
H1238 H 0.25562 0.51985 0.76435 0.0
H1239 H 0.20994 0.49021 0.81709 0.0
H1240 H 0.15341 0.50927 0.75937 0.0
H1241 H 0.18255 0.51283 0.79106 0.0
H1242 H 0.23654 0.48881 0.7436 0.0
H1243 H 0.20802 0.48591 0.71228 0.0
C1244 C 0.27033 0.51539 0.79849 0.0
C1245 C 0.26698 0.50797 0.82178 0.0
C1246 C 0.25228 0.51378 0.78206 0.0
C1247 C 0.23032 0.50446 0.78827 0.0
C1248 C 0.22664 0.49752 0.81174 0.0
C1249 C 0.24483 0.49928 0.82837 0.0
C1250 C 0.17154 0.50485 0.7558 0.0
C1251 C 0.17842 0.4976 0.73321 0.0
C1252 C 0.18818 0.50672 0.77397 0.0
C1253 C 0.21196 0.50139 0.76982 0.0
C1254 C 0.21854 0.49362 0.74735 0.0
C1255 C 0.20208 0.49186 0.72933 0.0
H1256 H 0.49221 0.15786 0.75744 0.0
H1257 H 0.51644 0.20968 0.70771 0.0
H1258 H 0.49035 0.18811 0.78795 0.0
H1259 H 0.51557 0.23947 0.7381 0.0
H1260 H 0.51022 0.24541 0.84217 0.0
H1261 H 0.51282 0.21383 0.81299 0.0
H1262 H 0.48849 0.26175 0.75939 0.0
H1263 H 0.48686 0.29306 0.788 0.0
C1264 C 0.4972 0.17567 0.75305 0.0
C1265 C 0.5042 0.18142 0.73009 0.0
C1266 C 0.49634 0.19298 0.77058 0.0
C1267 C 0.50264 0.21635 0.76553 0.0
C1268 C 0.51003 0.22185 0.7426 0.0
C1269 C 0.51063 0.20469 0.72512 0.0
C1270 C 0.50561 0.24912 0.82409 0.0
C1271 C 0.49858 0.2718 0.81738 0.0
C1272 C 0.50691 0.23101 0.8074 0.0
C1273 C 0.50106 0.23521 0.7837 0.0
C1274 C 0.49373 0.25788 0.77725 0.0
C1275 C 0.49266 0.2759 0.79378 0.0
H1276 H 0.7624 0.4897 0.84974 0.0
H1277 H 0.71195 0.50981 0.79696 0.0
H1278 H 0.79344 0.48975 0.82005 0.0
H1279 H 0.7428 0.51136 0.76771 0.0
H1280 H 0.79406 0.4897 0.71355 0.0
H1281 H 0.76553 0.48715 0.74504 0.0
H1282 H 0.81815 0.51057 0.79459 0.0
H1283 H 0.84715 0.51156 0.76291 0.0
C1284 C 0.75807 0.49458 0.83187 0.0
C1285 C 0.73475 0.49956 0.8256 0.0
C1286 C 0.77586 0.49466 0.81481 0.0
C1287 C 0.77074 0.50012 0.7912 0.0
C1288 C 0.74747 0.5062 0.78539 0.0
C1289 C 0.72973 0.50561 0.80226 0.0
C1290 C 0.79959 0.49398 0.73125 0.0
C1291 C 0.82278 0.5009 0.73578 0.0
C1292 C 0.78314 0.49283 0.74935 0.0
C1293 C 0.78919 0.49925 0.77247 0.0
C1294 C 0.81273 0.50538 0.77713 0.0
C1295 C 0.8294 0.50599 0.75898 0.0
loop_
_geom_bond_atom_site_label_1
_geom_bond_atom_site_label_2
_geom_bond_distance
_geom_bond_site_symmetry_2
_ccdc_geom_bond_type
Co0 O1 2.216 . S
Co0 O2 2.091 . S
Co0 O4 2.004 . S
Co0 O10 2.021 . S
Co0 O12 2.137 . S
Co0 O13 2.244 . S
O1 Co0 2.216 . S
O1 C8 1.247 . S
O2 Co0 2.091 . S
O2 C8 1.261 . S
C3 O12 1.247 . S
C3 O13 1.272 . S
O4 Co0 2.004 . S
O4 C9 1.259 . S
Co5 O6 2.061 . S
Co5 O11 2.052 . S
Co5 O13 2.135 . S
O6 Co5 2.061 . S
O6 C9 1.235 . S
C7 O10 1.238 . S
C7 O11 1.241 . S
C8 O1 1.247 . S
C8 O2 1.261 . S
C9 O4 1.259 . S
C9 O6 1.235 . S
O10 Co0 2.021 . S
O10 C7 1.238 . S
O11 Co5 2.052 . S
O11 C7 1.241 . S
O12 Co0 2.137 . S
O12 C3 1.247 . S
O13 Co0 2.244 . S
O13 C3 1.272 . S
O13 Co5 2.135 . S
Co14 O15 2.216 . S
Co14 O16 2.091 . S
Co14 O18 2.004 . S
Co14 O24 2.021 . S
Co14 O26 2.137 . S
Co14 O27 2.244 . S
O15 Co14 2.216 . S
O15 C22 1.247 . S
O16 Co14 2.091 . S
O16 C22 1.261 . S
C17 O26 1.247 . S
C17 O27 1.272 . S
O18 Co14 2.004 . S
O18 C23 1.259 . S
Co19 O20 2.061 . S
Co19 O25 2.052 . S
Co19 O27 2.135 . S
O20 Co19 2.061 . S
O20 C23 1.235 . S
C21 O24 1.238 . S
C21 O25 1.241 . S
C22 O15 1.247 . S
C22 O16 1.261 . S
C23 O18 1.259 . S
C23 O20 1.235 . S
O24 Co14 2.021 . S
O24 C21 1.238 . S
O25 Co19 2.052 . S
O25 C21 1.241 . S
O26 Co14 2.137 . S
O26 C17 1.247 . S
O27 Co14 2.244 . S
O27 C17 1.272 . S
O27 Co19 2.135 . S
Co28 O29 2.216 . S
Co28 O30 2.091 . S
Co28 O32 2.004 . S
Co28 O38 2.021 . S
Co28 O40 2.137 . S
Co28 O41 2.244 . S
O29 Co28 2.216 . S
O29 C36 1.247 . S
O30 Co28 2.091 . S
O30 C36 1.261 . S
C31 O40 1.247 . S
C31 O41 1.272 . S
O32 Co28 2.004 . S
O32 C37 1.259 . S
Co33 O34 2.061 . S
Co33 O39 2.052 . S
Co33 O41 2.135 . S
O34 Co33 2.061 . S
O34 C37 1.235 . S
C35 O38 1.238 . S
C35 O39 1.241 . S
C36 O29 1.247 . S
C36 O30 1.261 . S
C37 O32 1.259 . S
C37 O34 1.235 . S
O38 Co28 2.021 . S
O38 C35 1.238 . S
O39 Co33 2.052 . S
O39 C35 1.241 . S
O40 Co28 2.137 . S
O40 C31 1.247 . S
O41 Co28 2.244 . S
O41 C31 1.272 . S
O41 Co33 2.135 . S
Co42 O43 2.216 . S
Co42 O44 2.091 . S
Co42 O46 2.004 . S
Co42 O52 2.021 . S
Co42 O54 2.137 . S
Co42 O55 2.244 . S
O43 Co42 2.216 . S
O43 C50 1.247 . S
O44 Co42 2.091 . S
O44 C50 1.261 . S
C45 O54 1.247 . S
C45 O55 1.272 . S
O46 Co42 2.004 . S
O46 C51 1.259 . S
Co47 O48 2.061 . S
Co47 O53 2.052 . S
Co47 O55 2.135 . S
O48 Co47 2.061 . S
O48 C51 1.235 . S
C49 O52 1.238 . S
C49 O53 1.241 . S
C50 O43 1.247 . S
C50 O44 1.261 . S
C51 O46 1.259 . S
C51 O48 1.235 . S
O52 Co42 2.021 . S
O52 C49 1.238 . S
O53 Co47 2.052 . S
O53 C49 1.241 . S
O54 Co42 2.137 . S
O54 C45 1.247 . S
O55 Co42 2.244 . S
O55 C45 1.272 . S
O55 Co47 2.135 . S
Co56 O57 2.216 . S
Co56 O58 2.091 . S
Co56 O60 2.004 . S
Co56 O66 2.021 . S
Co56 O68 2.137 . S
Co56 O69 2.244 . S
O57 Co56 2.216 . S
O57 C64 1.247 . S
O58 Co56 2.091 . S
O58 C64 1.261 . S
C59 O68 1.247 . S
C59 O69 1.272 . S
O60 Co56 2.004 . S
O60 C65 1.259 . S
Co61 O62 2.061 . S
Co61 O67 2.052 . S
Co61 O69 2.135 . S
O62 Co61 2.061 . S
O62 C65 1.235 . S
C63 O66 1.238 . S
C63 O67 1.241 . S
C64 O57 1.247 . S
C64 O58 1.261 . S
C65 O60 1.259 . S
C65 O62 1.235 . S
O66 Co56 2.021 . S
O66 C63 1.238 . S
O67 Co61 2.052 . S
O67 C63 1.241 . S
O68 Co56 2.137 . S
O68 C59 1.247 . S
O69 Co56 2.244 . S
O69 C59 1.272 . S
O69 Co61 2.135 . S
Co70 O71 2.216 . S
Co70 O72 2.091 . S
Co70 O74 2.004 . S
Co70 O80 2.021 . S
Co70 O82 2.137 . S
Co70 O83 2.244 . S
O71 Co70 2.216 . S
O71 C78 1.247 . S
O72 Co70 2.091 . S
O72 C78 1.261 . S
C73 O82 1.247 . S
C73 O83 1.272 . S
O74 Co70 2.004 . S
O74 C79 1.259 . S
Co75 O76 2.061 . S
Co75 O81 2.052 . S
Co75 O83 2.135 . S
O76 Co75 2.061 . S
O76 C79 1.235 . S
C77 O80 1.238 . S
C77 O81 1.241 . S
C78 O71 1.247 . S
C78 O72 1.261 . S
C79 O74 1.259 . S
C79 O76 1.235 . S
O80 Co70 2.021 . S
O80 C77 1.238 . S
O81 Co75 2.052 . S
O81 C77 1.241 . S
O82 Co70 2.137 . S
O82 C73 1.247 . S
O83 Co70 2.244 . S
O83 C73 1.272 . S
O83 Co75 2.135 . S
Co84 O85 2.216 . S
Co84 O86 2.091 . S
Co84 O88 2.004 . S
Co84 O94 2.021 . S
Co84 O96 2.137 . S
Co84 O97 2.244 . S
O85 Co84 2.216 . S
O85 C92 1.247 . S
O86 Co84 2.091 . S
O86 C92 1.261 . S
C87 O96 1.247 . S
C87 O97 1.272 . S
O88 Co84 2.004 . S
O88 C93 1.259 . S
Co89 O90 2.061 . S
Co89 O95 2.052 . S
Co89 O97 2.135 . S
O90 Co89 2.061 . S
O90 C93 1.235 . S
C91 O94 1.238 . S
C91 O95 1.241 . S
C92 O85 1.247 . S
C92 O86 1.261 . S
C93 O88 1.259 . S
C93 O90 1.235 . S
O94 Co84 2.021 . S
O94 C91 1.238 . S
O95 Co89 2.052 . S
O95 C91 1.241 . S
O96 Co84 2.137 . S
O96 C87 1.247 . S
O97 Co84 2.244 . S
O97 C87 1.272 . S
O97 Co89 2.135 . S
Co98 O99 2.216 . S
Co98 O100 2.091 . S
Co98 O102 2.004 . S
Co98 O108 2.021 . S
Co98 O110 2.137 . S
Co98 O111 2.244 . S
O99 Co98 2.216 . S
O99 C106 1.247 . S
O100 Co98 2.091 . S
O100 C106 1.261 . S
C101 O110 1.247 . S
C101 O111 1.272 . S
O102 Co98 2.004 . S
O102 C107 1.259 . S
Co103 O104 2.061 . S
Co103 O109 2.052 . S
Co103 O111 2.135 . S
O104 Co103 2.061 . S
O104 C107 1.235 . S
C105 O108 1.238 . S
C105 O109 1.241 . S
C106 O99 1.247 . S
C106 O100 1.261 . S
C107 O102 1.259 . S
C107 O104 1.235 . S
O108 Co98 2.021 . S
O108 C105 1.238 . S
O109 Co103 2.052 . S
O109 C105 1.241 . S
O110 Co98 2.137 . S
O110 C101 1.247 . S
O111 Co98 2.244 . S
O111 C101 1.272 . S
O111 Co103 2.135 . S
Co112 O113 2.216 . S
Co112 O114 2.091 . S
Co112 O116 2.004 . S
Co112 O122 2.021 . S
Co112 O124 2.137 . S
Co112 O125 2.244 . S
O113 Co112 2.216 . S
O113 C120 1.247 . S
O114 Co112 2.091 . S
O114 C120 1.261 . S
C115 O124 1.247 . S
C115 O125 1.272 . S
O116 Co112 2.004 . S
O116 C121 1.259 . S
Co117 O118 2.061 . S
Co117 O123 2.052 . S
Co117 O125 2.135 . S
O118 Co117 2.061 . S
O118 C121 1.235 . S
C119 O122 1.238 . S
C119 O123 1.241 . S
C120 O113 1.247 . S
C120 O114 1.261 . S
C121 O116 1.259 . S
C121 O118 1.235 . S
O122 Co112 2.021 . S
O122 C119 1.238 . S
O123 Co117 2.052 . S
O123 C119 1.241 . S
O124 Co112 2.137 . S
O124 C115 1.247 . S
O125 Co112 2.244 . S
O125 C115 1.272 . S
O125 Co117 2.135 . S
Co126 O127 2.216 . S
Co126 O128 2.091 . S
Co126 O130 2.004 . S
Co126 O136 2.021 . S
Co126 O138 2.137 . S
Co126 O139 2.244 . S
O127 Co126 2.216 . S
O127 C134 1.247 . S
O128 Co126 2.091 . S
O128 C134 1.261 . S
C129 O138 1.247 . S
C129 O139 1.272 . S
O130 Co126 2.004 . S
O130 C135 1.259 . S
Co131 O132 2.061 . S
Co131 O137 2.052 . S
Co131 O139 2.135 . S
O132 Co131 2.061 . S
O132 C135 1.235 . S
C133 O136 1.238 . S
C133 O137 1.241 . S
C134 O127 1.247 . S
C134 O128 1.261 . S
C135 O130 1.259 . S
C135 O132 1.235 . S
O136 Co126 2.021 . S
O136 C133 1.238 . S
O137 Co131 2.052 . S
O137 C133 1.241 . S
O138 Co126 2.137 . S
O138 C129 1.247 . S
O139 Co126 2.244 . S
O139 C129 1.272 . S
O139 Co131 2.135 . S
Co140 O141 2.216 . S
Co140 O142 2.091 . S
Co140 O144 2.004 . S
Co140 O150 2.021 . S
Co140 O152 2.137 . S
Co140 O153 2.244 . S
O141 Co140 2.216 . S
O141 C148 1.247 . S
O142 Co140 2.091 . S
O142 C148 1.261 . S
C143 O152 1.247 . S
C143 O153 1.272 . S
O144 Co140 2.004 . S
O144 C149 1.259 . S
Co145 O146 2.061 . S
Co145 O151 2.052 . S
Co145 O153 2.135 . S
O146 Co145 2.061 . S
O146 C149 1.235 . S
C147 O150 1.238 . S
C147 O151 1.241 . S
C148 O141 1.247 . S
C148 O142 1.261 . S
C149 O144 1.259 . S
C149 O146 1.235 . S
O150 Co140 2.021 . S
O150 C147 1.238 . S
O151 Co145 2.052 . S
O151 C147 1.241 . S
O152 Co140 2.137 . S
O152 C143 1.247 . S
O153 Co140 2.244 . S
O153 C143 1.272 . S
O153 Co145 2.135 . S
Co154 O155 2.216 . S
Co154 O156 2.091 . S
Co154 O158 2.004 . S
Co154 O164 2.021 . S
Co154 O166 2.137 . S
Co154 O167 2.244 . S
O155 Co154 2.216 . S
O155 C162 1.247 . S
O156 Co154 2.091 . S
O156 C162 1.261 . S
C157 O166 1.247 . S
C157 O167 1.272 . S
O158 Co154 2.004 . S
O158 C163 1.259 . S
Co159 O160 2.061 . S
Co159 O165 2.052 . S
Co159 O167 2.135 . S
O160 Co159 2.061 . S
O160 C163 1.235 . S
C161 O164 1.238 . S
C161 O165 1.241 . S
C162 O155 1.247 . S
C162 O156 1.261 . S
C163 O158 1.259 . S
C163 O160 1.235 . S
O164 Co154 2.021 . S
O164 C161 1.238 . S
O165 Co159 2.052 . S
O165 C161 1.241 . S
O166 Co154 2.137 . S
O166 C157 1.247 . S
O167 Co154 2.244 . S
O167 C157 1.272 . S
O167 Co159 2.135 . S
Co168 O169 2.216 . S
Co168 O170 2.091 . S
Co168 O172 2.004 . S
Co168 O178 2.021 . S
Co168 O180 2.137 . S
Co168 O181 2.244 . S
O169 Co168 2.216 . S
O169 C176 1.247 . S
O170 Co168 2.091 . S
O170 C176 1.261 . S
C171 O180 1.247 . S
C171 O181 1.272 . S
O172 Co168 2.004 . S
O172 C177 1.259 . S
Co173 O174 2.061 . S
Co173 O179 2.052 . S
Co173 O181 2.135 . S
O174 Co173 2.061 . S
O174 C177 1.235 . S
C175 O178 1.238 . S
C175 O179 1.241 . S
C176 O169 1.247 . S
C176 O170 1.261 . S
C177 O172 1.259 . S
C177 O174 1.235 . S
O178 Co168 2.021 . S
O178 C175 1.238 . S
O179 Co173 2.052 . S
O179 C175 1.241 . S
O180 Co168 2.137 . S
O180 C171 1.247 . S
O181 Co168 2.244 . S
O181 C171 1.272 . S
O181 Co173 2.135 . S
Co182 O183 2.216 . S
Co182 O184 2.091 . S
Co182 O186 2.004 . S
Co182 O192 2.021 . S
Co182 O194 2.137 . S
Co182 O195 2.244 . S
O183 Co182 2.216 . S
O183 C190 1.247 . S
O184 Co182 2.091 . S
O184 C190 1.261 . S
C185 O194 1.247 . S
C185 O195 1.272 . S
O186 Co182 2.004 . S
O186 C191 1.259 . S
Co187 O188 2.061 . S
Co187 O193 2.052 . S
Co187 O195 2.135 . S
O188 Co187 2.061 . S
O188 C191 1.235 . S
C189 O192 1.238 . S
C189 O193 1.241 . S
C190 O183 1.247 . S
C190 O184 1.261 . S
C191 O186 1.259 . S
C191 O188 1.235 . S
O192 Co182 2.021 . S
O192 C189 1.238 . S
O193 Co187 2.052 . S
O193 C189 1.241 . S
O194 Co182 2.137 . S
O194 C185 1.247 . S
O195 Co182 2.244 . S
O195 C185 1.272 . S
O195 Co187 2.135 . S
Co196 O197 2.216 . S
Co196 O198 2.091 . S
Co196 O200 2.004 . S
Co196 O206 2.021 . S
Co196 O208 2.137 . S
Co196 O209 2.244 . S
O197 Co196 2.216 . S
O197 C204 1.247 . S
O198 Co196 2.091 . S
O198 C204 1.261 . S
C199 O208 1.247 . S
C199 O209 1.272 . S
O200 Co196 2.004 . S
O200 C205 1.259 . S
Co201 O202 2.061 . S
Co201 O207 2.052 . S
Co201 O209 2.135 . S
O202 Co201 2.061 . S
O202 C205 1.235 . S
C203 O206 1.238 . S
C203 O207 1.241 . S
C204 O197 1.247 . S
C204 O198 1.261 . S
C205 O200 1.259 . S
C205 O202 1.235 . S
O206 Co196 2.021 . S
O206 C203 1.238 . S
O207 Co201 2.052 . S
O207 C203 1.241 . S
O208 Co196 2.137 . S
O208 C199 1.247 . S
O209 Co196 2.244 . S
O209 C199 1.272 . S
O209 Co201 2.135 . S
Co210 O211 2.216 . S
Co210 O212 2.091 . S
Co210 O214 2.004 . S
Co210 O220 2.021 . S
Co210 O222 2.137 . S
Co210 O223 2.244 . S
O211 Co210 2.216 . S
O211 C218 1.247 . S
O212 Co210 2.091 . S
O212 C218 1.261 . S
C213 O222 1.247 . S
C213 O223 1.272 . S
O214 Co210 2.004 . S
O214 C219 1.259 . S
Co215 O216 2.061 . S
Co215 O221 2.052 . S
Co215 O223 2.135 . S
O216 Co215 2.061 . S
O216 C219 1.235 . S
C217 O220 1.238 . S
C217 O221 1.241 . S
C218 O211 1.247 . S
C218 O212 1.261 . S
C219 O214 1.259 . S
C219 O216 1.235 . S
O220 Co210 2.021 . S
O220 C217 1.238 . S
O221 Co215 2.052 . S
O221 C217 1.241 . S
O222 Co210 2.137 . S
O222 C213 1.247 . S
O223 Co210 2.244 . S
O223 C213 1.272 . S
O223 Co215 2.135 . S
Co224 O225 2.216 . S
Co224 O226 2.091 . S
Co224 O228 2.004 . S
Co224 O234 2.021 . S
Co224 O236 2.137 . S
Co224 O237 2.244 . S
O225 Co224 2.216 . S
O225 C232 1.247 . S
O226 Co224 2.091 . S
O226 C232 1.261 . S
C227 O236 1.247 . S
C227 O237 1.272 . S
O228 Co224 2.004 . S
O228 C233 1.259 . S
Co229 O230 2.061 . S
Co229 O235 2.052 . S
Co229 O237 2.135 . S
O230 Co229 2.061 . S
O230 C233 1.235 . S
C231 O234 1.238 . S
C231 O235 1.241 . S
C232 O225 1.247 . S
C232 O226 1.261 . S
C233 O228 1.259 . S
C233 O230 1.235 . S
O234 Co224 2.021 . S
O234 C231 1.238 . S
O235 Co229 2.052 . S
O235 C231 1.241 . S
O236 Co224 2.137 . S
O236 C227 1.247 . S
O237 Co224 2.244 . S
O237 C227 1.272 . S
O237 Co229 2.135 . S
Co238 O239 2.216 . S
Co238 O240 2.091 . S
Co238 O242 2.004 . S
Co238 O248 2.021 . S
Co238 O250 2.137 . S
Co238 O251 2.244 . S
O239 Co238 2.216 . S
O239 C246 1.247 . S
O240 Co238 2.091 . S
O240 C246 1.261 . S
C241 O250 1.247 . S
C241 O251 1.272 . S
O242 Co238 2.004 . S
O242 C247 1.259 . S
Co243 O244 2.061 . S
Co243 O249 2.052 . S
Co243 O251 2.135 . S
O244 Co243 2.061 . S
O244 C247 1.235 . S
C245 O248 1.238 . S
C245 O249 1.241 . S
C246 O239 1.247 . S
C246 O240 1.261 . S
C247 O242 1.259 . S
C247 O244 1.235 . S
O248 Co238 2.021 . S
O248 C245 1.238 . S
O249 Co243 2.052 . S
O249 C245 1.241 . S
O250 Co238 2.137 . S
O250 C241 1.247 . S
O251 Co238 2.244 . S
O251 C241 1.272 . S
O251 Co243 2.135 . S
Co252 O253 2.216 . S
Co252 O254 2.091 . S
Co252 O256 2.004 . S
Co252 O262 2.021 . S
Co252 O264 2.137 . S
Co252 O265 2.244 . S
O253 Co252 2.216 . S
O253 C260 1.247 . S
O254 Co252 2.091 . S
O254 C260 1.261 . S
C255 O264 1.247 . S
C255 O265 1.272 . S
O256 Co252 2.004 . S
O256 C261 1.259 . S
Co257 O258 2.061 . S
Co257 O263 2.052 . S
Co257 O265 2.135 . S
O258 Co257 2.061 . S
O258 C261 1.235 . S
C259 O262 1.238 . S
C259 O263 1.241 . S
C260 O253 1.247 . S
C260 O254 1.261 . S
C261 O256 1.259 . S
C261 O258 1.235 . S
O262 Co252 2.021 . S
O262 C259 1.238 . S
O263 Co257 2.052 . S
O263 C259 1.241 . S
O264 Co252 2.137 . S
O264 C255 1.247 . S
O265 Co252 2.244 . S
O265 C255 1.272 . S
O265 Co257 2.135 . S
Co266 O267 2.216 . S
Co266 O268 2.091 . S
Co266 O270 2.004 . S
Co266 O276 2.021 . S
Co266 O278 2.137 . S
Co266 O279 2.244 . S
O267 Co266 2.216 . S
O267 C274 1.247 . S
O268 Co266 2.091 . S
O268 C274 1.261 . S
C269 O278 1.247 . S
C269 O279 1.272 . S
O270 Co266 2.004 . S
O270 C275 1.259 . S
Co271 O272 2.061 . S
Co271 O277 2.052 . S
Co271 O279 2.135 . S
O272 Co271 2.061 . S
O272 C275 1.235 . S
C273 O276 1.238 . S
C273 O277 1.241 . S
C274 O267 1.247 . S
C274 O268 1.261 . S
C275 O270 1.259 . S
C275 O272 1.235 . S
O276 Co266 2.021 . S
O276 C273 1.238 . S
O277 Co271 2.052 . S
O277 C273 1.241 . S
O278 Co266 2.137 . S
O278 C269 1.247 . S
O279 Co266 2.244 . S
O279 C269 1.272 . S
O279 Co271 2.135 . S
Co280 O281 2.216 . S
Co280 O282 2.091 . S
Co280 O284 2.004 . S
Co280 O290 2.021 . S
Co280 O292 2.137 . S
Co280 O293 2.244 . S
O281 Co280 2.216 . S
O281 C288 1.247 . S
O282 Co280 2.091 . S
O282 C288 1.261 . S
C283 O292 1.247 . S
C283 O293 1.272 . S
O284 Co280 2.004 . S
O284 C289 1.259 . S
Co285 O286 2.061 . S
Co285 O291 2.052 . S
Co285 O293 2.135 . S
O286 Co285 2.061 . S
O286 C289 1.235 . S
C287 O290 1.238 . S
C287 O291 1.241 . S
C288 O281 1.247 . S
C288 O282 1.261 . S
C289 O284 1.259 . S
C289 O286 1.235 . S
O290 Co280 2.021 . S
O290 C287 1.238 . S
O291 Co285 2.052 . S
O291 C287 1.241 . S
O292 Co280 2.137 . S
O292 C283 1.247 . S
O293 Co280 2.244 . S
O293 C283 1.272 . S
O293 Co285 2.135 . S
Co294 O295 2.216 . S
Co294 O296 2.091 . S
Co294 O298 2.004 . S
Co294 O304 2.021 . S
Co294 O306 2.137 . S
Co294 O307 2.244 . S
O295 Co294 2.216 . S
O295 C302 1.247 . S
O296 Co294 2.091 . S
O296 C302 1.261 . S
C297 O306 1.247 . S
C297 O307 1.272 . S
O298 Co294 2.004 . S
O298 C303 1.259 . S
Co299 O300 2.061 . S
Co299 O305 2.052 . S
Co299 O307 2.135 . S
O300 Co299 2.061 . S
O300 C303 1.235 . S
C301 O304 1.238 . S
C301 O305 1.241 . S
C302 O295 1.247 . S
C302 O296 1.261 . S
C303 O298 1.259 . S
C303 O300 1.235 . S
O304 Co294 2.021 . S
O304 C301 1.238 . S
O305 Co299 2.052 . S
O305 C301 1.241 . S
O306 Co294 2.137 . S
O306 C297 1.247 . S
O307 Co294 2.244 . S
O307 C297 1.272 . S
O307 Co299 2.135 . S
Co308 O309 2.216 . S
Co308 O310 2.091 . S
Co308 O312 2.004 . S
Co308 O318 2.021 . S
Co308 O320 2.137 . S
Co308 O321 2.244 . S
O309 Co308 2.216 . S
O309 C316 1.247 . S
O310 Co308 2.091 . S
O310 C316 1.261 . S
C311 O320 1.247 . S
C311 O321 1.272 . S
O312 Co308 2.004 . S
O312 C317 1.259 . S
Co313 O314 2.061 . S
Co313 O319 2.052 . S
Co313 O321 2.135 . S
O314 Co313 2.061 . S
O314 C317 1.235 . S
C315 O318 1.238 . S
C315 O319 1.241 . S
C316 O309 1.247 . S
C316 O310 1.261 . S
C317 O312 1.259 . S
C317 O314 1.235 . S
O318 Co308 2.021 . S
O318 C315 1.238 . S
O319 Co313 2.052 . S
O319 C315 1.241 . S
O320 Co308 2.137 . S
O320 C311 1.247 . S
O321 Co308 2.244 . S
O321 C311 1.272 . S
O321 Co313 2.135 . S
Co322 O323 2.216 . S
Co322 O324 2.091 . S
Co322 O326 2.004 . S
Co322 O332 2.021 . S
Co322 O334 2.137 . S
Co322 O335 2.244 . S
O323 Co322 2.216 . S
O323 C330 1.247 . S
O324 Co322 2.091 . S
O324 C330 1.261 . S
C325 O334 1.247 . S
C325 O335 1.272 . S
O326 Co322 2.004 . S
O326 C331 1.259 . S
Co327 O328 2.061 . S
Co327 O333 2.052 . S
Co327 O335 2.135 . S
O328 Co327 2.061 . S
O328 C331 1.235 . S
C329 O332 1.238 . S
C329 O333 1.241 . S
C330 O323 1.247 . S
C330 O324 1.261 . S
C331 O326 1.259 . S
C331 O328 1.235 . S
O332 Co322 2.021 . S
O332 C329 1.238 . S
O333 Co327 2.052 . S
O333 C329 1.241 . S
O334 Co322 2.137 . S
O334 C325 1.247 . S
O335 Co322 2.244 . S
O335 C325 1.272 . S
O335 Co327 2.135 . S
H336 C344 0.950 . S
H337 C349 0.950 . S
H338 C346 0.950 . S
H339 C348 0.950 . S
H340 C350 0.950 . S
H341 C352 0.950 . S
H342 C354 0.950 . S
H343 C355 0.950 . S
C344 H336 0.950 . S
C344 C345 1.386 . S
C344 C346 1.391 . S
C345 C344 1.386 . S
C345 C349 1.393 . S
C346 H338 0.950 . S
C346 C344 1.391 . S
C346 C347 1.400 . S
C347 C346 1.400 . S
C347 C348 1.398 . S
C347 C353 1.491 . S
C348 H339 0.950 . S
C348 C347 1.398 . S
C348 C349 1.391 . S
C349 H337 0.950 . S
C349 C345 1.393 . S
C349 C348 1.391 . S
C350 H340 0.950 . S
C350 C351 1.386 . S
C350 C352 1.391 . S
C351 C350 1.386 . S
C351 C355 1.393 . S
C352 H341 0.950 . S
C352 C350 1.391 . S
C352 C353 1.400 . S
C353 C347 1.491 . S
C353 C352 1.400 . S
C353 C354 1.398 . S
C354 H342 0.950 . S
C354 C353 1.398 . S
C354 C355 1.391 . S
C355 H343 0.950 . S
C355 C351 1.393 . S
C355 C354 1.391 . S
H356 C364 0.950 . S
H357 C369 0.950 . S
H358 C366 0.950 . S
H359 C368 0.950 . S
H360 C370 0.950 . S
H361 C372 0.950 . S
H362 C374 0.950 . S
H363 C375 0.950 . S
C364 H356 0.950 . S
C364 C365 1.386 . S
C364 C366 1.391 . S
C365 C364 1.386 . S
C365 C369 1.393 . S
C366 H358 0.950 . S
C366 C364 1.391 . S
C366 C367 1.400 . S
C367 C366 1.400 . S
C367 C368 1.398 . S
C367 C373 1.491 . S
C368 H359 0.950 . S
C368 C367 1.398 . S
C368 C369 1.391 . S
C369 H357 0.950 . S
C369 C365 1.393 . S
C369 C368 1.391 . S
C370 H360 0.950 . S
C370 C371 1.386 . S
C370 C372 1.391 . S
C371 C370 1.386 . S
C371 C375 1.393 . S
C372 H361 0.950 . S
C372 C370 1.391 . S
C372 C373 1.400 . S
C373 C367 1.491 . S
C373 C372 1.400 . S
C373 C374 1.398 . S
C374 H362 0.950 . S
C374 C373 1.398 . S
C374 C375 1.391 . S
C375 H363 0.950 . S
C375 C371 1.393 . S
C375 C374 1.391 . S
H376 C384 0.950 . S
H377 C389 0.950 . S
H378 C386 0.950 . S
H379 C388 0.950 . S
H380 C390 0.950 . S
H381 C392 0.950 . S
H382 C394 0.950 . S
H383 C395 0.950 . S
C384 H376 0.950 . S
C384 C385 1.386 . S
C384 C386 1.391 . S
C385 C384 1.386 . S
C385 C389 1.393 . S
C386 H378 0.950 . S
C386 C384 1.391 . S
C386 C387 1.400 . S
C387 C386 1.400 . S
C387 C388 1.398 . S
C387 C393 1.491 . S
C388 H379 0.950 . S
C388 C387 1.398 . S
C388 C389 1.391 . S
C389 H377 0.950 . S
C389 C385 1.393 . S
C389 C388 1.391 . S
C390 H380 0.950 . S
C390 C391 1.386 . S
C390 C392 1.391 . S
C391 C390 1.386 . S
C391 C395 1.393 . S
C392 H381 0.950 . S
C392 C390 1.391 . S
C392 C393 1.400 . S
C393 C387 1.491 . S
C393 C392 1.400 . S
C393 C394 1.398 . S
C394 H382 0.950 . S
C394 C393 1.398 . S
C394 C395 1.391 . S
C395 H383 0.950 . S
C395 C391 1.393 . S
C395 C394 1.391 . S
H396 C404 0.950 . S
H397 C409 0.950 . S
H398 C406 0.950 . S
H399 C408 0.950 . S
H400 C410 0.950 . S
H401 C412 0.950 . S
H402 C414 0.950 . S
H403 C415 0.950 . S
C404 H396 0.950 . S
C404 C405 1.386 . S
C404 C406 1.391 . S
C405 C404 1.386 . S
C405 C409 1.393 . S
C406 H398 0.950 . S
C406 C404 1.391 . S
C406 C407 1.400 . S
C407 C406 1.400 . S
C407 C408 1.398 . S
C407 C413 1.491 . S
C408 H399 0.950 . S
C408 C407 1.398 . S
C408 C409 1.391 . S
C409 H397 0.950 . S
C409 C405 1.393 . S
C409 C408 1.391 . S
C410 H400 0.950 . S
C410 C411 1.386 . S
C410 C412 1.391 . S
C411 C410 1.386 . S
C411 C415 1.393 . S
C412 H401 0.950 . S
C412 C410 1.391 . S
C412 C413 1.400 . S
C413 C407 1.491 . S
C413 C412 1.400 . S
C413 C414 1.398 . S
C414 H402 0.950 . S
C414 C413 1.398 . S
C414 C415 1.391 . S
C415 H403 0.950 . S
C415 C411 1.393 . S
C415 C414 1.391 . S
H416 C424 0.950 . S
H417 C429 0.950 . S
H418 C426 0.950 . S
H419 C428 0.950 . S
H420 C430 0.950 . S
H421 C432 0.950 . S
H422 C434 0.950 . S
H423 C435 0.950 . S
C424 H416 0.950 . S
C424 C425 1.386 . S
C424 C426 1.391 . S
C425 C424 1.386 . S
C425 C429 1.393 . S
C426 H418 0.950 . S
C426 C424 1.391 . S
C426 C427 1.400 . S
C427 C426 1.400 . S
C427 C428 1.398 . S
C427 C433 1.491 . S
C428 H419 0.950 . S
C428 C427 1.398 . S
C428 C429 1.391 . S
C429 H417 0.950 . S
C429 C425 1.393 . S
C429 C428 1.391 . S
C430 H420 0.950 . S
C430 C431 1.386 . S
C430 C432 1.391 . S
C431 C430 1.386 . S
C431 C435 1.393 . S
C432 H421 0.950 . S
C432 C430 1.391 . S
C432 C433 1.400 . S
C433 C427 1.491 . S
C433 C432 1.400 . S
C433 C434 1.398 . S
C434 H422 0.950 . S
C434 C433 1.398 . S
C434 C435 1.391 . S
C435 H423 0.950 . S
C435 C431 1.393 . S
C435 C434 1.391 . S
H436 C444 0.950 . S
H437 C449 0.950 . S
H438 C446 0.950 . S
H439 C448 0.950 . S
H440 C450 0.950 . S
H441 C452 0.950 . S
H442 C454 0.950 . S
H443 C455 0.950 . S
C444 H436 0.950 . S
C444 C445 1.386 . S
C444 C446 1.391 . S
C445 C444 1.386 . S
C445 C449 1.393 . S
C446 H438 0.950 . S
C446 C444 1.391 . S
C446 C447 1.400 . S
C447 C446 1.400 . S
C447 C448 1.398 . S
C447 C453 1.491 . S
C448 H439 0.950 . S
C448 C447 1.398 . S
C448 C449 1.391 . S
C449 H437 0.950 . S
C449 C445 1.393 . S
C449 C448 1.391 . S
C450 H440 0.950 . S
C450 C451 1.386 . S
C450 C452 1.391 . S
C451 C450 1.386 . S
C451 C455 1.393 . S
C452 H441 0.950 . S
C452 C450 1.391 . S
C452 C453 1.400 . S
C453 C447 1.491 . S
C453 C452 1.400 . S
C453 C454 1.398 . S
C454 H442 0.950 . S
C454 C453 1.398 . S
C454 C455 1.391 . S
C455 H443 0.950 . S
C455 C451 1.393 . S
C455 C454 1.391 . S
H456 C464 0.950 . S
H457 C469 0.950 . S
H458 C466 0.950 . S
H459 C468 0.950 . S
H460 C470 0.950 . S
H461 C472 0.950 . S
H462 C474 0.950 . S
H463 C475 0.950 . S
C464 H456 0.950 . S
C464 C465 1.386 . S
C464 C466 1.391 . S
C465 C464 1.386 . S
C465 C469 1.393 . S
C466 H458 0.950 . S
C466 C464 1.391 . S
C466 C467 1.400 . S
C467 C466 1.400 . S
C467 C468 1.398 . S
C467 C473 1.491 . S
C468 H459 0.950 . S
C468 C467 1.398 . S
C468 C469 1.391 . S
C469 H457 0.950 . S
C469 C465 1.393 . S
C469 C468 1.391 . S
C470 H460 0.950 . S
C470 C471 1.386 . S
C470 C472 1.391 . S
C471 C470 1.386 . S
C471 C475 1.393 . S
C472 H461 0.950 . S
C472 C470 1.391 . S
C472 C473 1.400 . S
C473 C467 1.491 . S
C473 C472 1.400 . S
C473 C474 1.398 . S
C474 H462 0.950 . S
C474 C473 1.398 . S
C474 C475 1.391 . S
C475 H463 0.950 . S
C475 C471 1.393 . S
C475 C474 1.391 . S
H476 C484 0.950 . S
H477 C489 0.950 . S
H478 C486 0.950 . S
H479 C488 0.950 . S
H480 C490 0.950 . S
H481 C492 0.950 . S
H482 C494 0.950 . S
H483 C495 0.950 . S
C484 H476 0.950 . S
C484 C485 1.386 . S
C484 C486 1.391 . S
C485 C484 1.386 . S
C485 C489 1.393 . S
C486 H478 0.950 . S
C486 C484 1.391 . S
C486 C487 1.400 . S
C487 C486 1.400 . S
C487 C488 1.398 . S
C487 C493 1.491 . S
C488 H479 0.950 . S
C488 C487 1.398 . S
C488 C489 1.391 . S
C489 H477 0.950 . S
C489 C485 1.393 . S
C489 C488 1.391 . S
C490 H480 0.950 . S
C490 C491 1.386 . S
C490 C492 1.391 . S
C491 C490 1.386 . S
C491 C495 1.393 . S
C492 H481 0.950 . S
C492 C490 1.391 . S
C492 C493 1.400 . S
C493 C487 1.491 . S
C493 C492 1.400 . S
C493 C494 1.398 . S
C494 H482 0.950 . S
C494 C493 1.398 . S
C494 C495 1.391 . S
C495 H483 0.950 . S
C495 C491 1.393 . S
C495 C494 1.391 . S
H496 C504 0.950 . S
H497 C509 0.950 . S
H498 C506 0.950 . S
H499 C508 0.950 . S
H500 C510 0.950 . S
H501 C512 0.950 . S
H502 C514 0.950 . S
H503 C515 0.950 . S
C504 H496 0.950 . S
C504 C505 1.386 . S
C504 C506 1.391 . S
C505 C504 1.386 . S
C505 C509 1.393 . S
C506 H498 0.950 . S
C506 C504 1.391 . S
C506 C507 1.400 . S
C507 C506 1.400 . S
C507 C508 1.398 . S
C507 C513 1.491 . S
C508 H499 0.950 . S
C508 C507 1.398 . S
C508 C509 1.391 . S
C509 H497 0.950 . S
C509 C505 1.393 . S
C509 C508 1.391 . S
C510 H500 0.950 . S
C510 C511 1.386 . S
C510 C512 1.391 . S
C511 C510 1.386 . S
C511 C515 1.393 . S
C512 H501 0.950 . S
C512 C510 1.391 . S
C512 C513 1.400 . S
C513 C507 1.491 . S
C513 C512 1.400 . S
C513 C514 1.398 . S
C514 H502 0.950 . S
C514 C513 1.398 . S
C514 C515 1.391 . S
C515 H503 0.950 . S
C515 C511 1.393 . S
C515 C514 1.391 . S
H516 C524 0.950 . S
H517 C529 0.950 . S
H518 C526 0.950 . S
H519 C528 0.950 . S
H520 C530 0.950 . S
H521 C532 0.950 . S
H522 C534 0.950 . S
H523 C535 0.950 . S
C524 H516 0.950 . S
C524 C525 1.386 . S
C524 C526 1.391 . S
C525 C524 1.386 . S
C525 C529 1.393 . S
C526 H518 0.950 . S
C526 C524 1.391 . S
C526 C527 1.400 . S
C527 C526 1.400 . S
C527 C528 1.398 . S
C527 C533 1.491 . S
C528 H519 0.950 . S
C528 C527 1.398 . S
C528 C529 1.391 . S
C529 H517 0.950 . S
C529 C525 1.393 . S
C529 C528 1.391 . S
C530 H520 0.950 . S
C530 C531 1.386 . S
C530 C532 1.391 . S
C531 C530 1.386 . S
C531 C535 1.393 . S
C532 H521 0.950 . S
C532 C530 1.391 . S
C532 C533 1.400 . S
C533 C527 1.491 . S
C533 C532 1.400 . S
C533 C534 1.398 . S
C534 H522 0.950 . S
C534 C533 1.398 . S
C534 C535 1.391 . S
C535 H523 0.950 . S
C535 C531 1.393 . S
C535 C534 1.391 . S
H536 C544 0.950 . S
H537 C549 0.950 . S
H538 C546 0.950 . S
H539 C548 0.950 . S
H540 C550 0.950 . S
H541 C552 0.950 . S
H542 C554 0.950 . S
H543 C555 0.950 . S
C544 H536 0.950 . S
C544 C545 1.386 . S
C544 C546 1.391 . S
C545 C544 1.386 . S
C545 C549 1.393 . S
C546 H538 0.950 . S
C546 C544 1.391 . S
C546 C547 1.400 . S
C547 C546 1.400 . S
C547 C548 1.398 . S
C547 C553 1.491 . S
C548 H539 0.950 . S
C548 C547 1.398 . S
C548 C549 1.391 . S
C549 H537 0.950 . S
C549 C545 1.393 . S
C549 C548 1.391 . S
C550 H540 0.950 . S
C550 C551 1.386 . S
C550 C552 1.391 . S
C551 C550 1.386 . S
C551 C555 1.393 . S
C552 H541 0.950 . S
C552 C550 1.391 . S
C552 C553 1.400 . S
C553 C547 1.491 . S
C553 C552 1.400 . S
C553 C554 1.398 . S
C554 H542 0.950 . S
C554 C553 1.398 . S
C554 C555 1.391 . S
C555 H543 0.950 . S
C555 C551 1.393 . S
C555 C554 1.391 . S
H556 C564 0.950 . S
H557 C569 0.950 . S
H558 C566 0.950 . S
H559 C568 0.950 . S
H560 C570 0.950 . S
H561 C572 0.950 . S
H562 C574 0.950 . S
H563 C575 0.950 . S
C564 H556 0.950 . S
C564 C565 1.386 . S
C564 C566 1.391 . S
C565 C564 1.386 . S
C565 C569 1.393 . S
C566 H558 0.950 . S
C566 C564 1.391 . S
C566 C567 1.400 . S
C567 C566 1.400 . S
C567 C568 1.398 . S
C567 C573 1.491 . S
C568 H559 0.950 . S
C568 C567 1.398 . S
C568 C569 1.391 . S
C569 H557 0.950 . S
C569 C565 1.393 . S
C569 C568 1.391 . S
C570 H560 0.950 . S
C570 C571 1.386 . S
C570 C572 1.391 . S
C571 C570 1.386 . S
C571 C575 1.393 . S
C572 H561 0.950 . S
C572 C570 1.391 . S
C572 C573 1.400 . S
C573 C567 1.491 . S
C573 C572 1.400 . S
C573 C574 1.398 . S
C574 H562 0.950 . S
C574 C573 1.398 . S
C574 C575 1.391 . S
C575 H563 0.950 . S
C575 C571 1.393 . S
C575 C574 1.391 . S
H576 C584 0.950 . S
H577 C589 0.950 . S
H578 C586 0.950 . S
H579 C588 0.950 . S
H580 C590 0.950 . S
H581 C592 0.950 . S
H582 C594 0.950 . S
H583 C595 0.950 . S
C584 H576 0.950 . S
C584 C585 1.386 . S
C584 C586 1.391 . S
C585 C584 1.386 . S
C585 C589 1.393 . S
C586 H578 0.950 . S
C586 C584 1.391 . S
C586 C587 1.400 . S
C587 C586 1.400 . S
C587 C588 1.398 . S
C587 C593 1.491 . S
C588 H579 0.950 . S
C588 C587 1.398 . S
C588 C589 1.391 . S
C589 H577 0.950 . S
C589 C585 1.393 . S
C589 C588 1.391 . S
C590 H580 0.950 . S
C590 C591 1.386 . S
C590 C592 1.391 . S
C591 C590 1.386 . S
C591 C595 1.393 . S
C592 H581 0.950 . S
C592 C590 1.391 . S
C592 C593 1.400 . S
C593 C587 1.491 . S
C593 C592 1.400 . S
C593 C594 1.398 . S
C594 H582 0.950 . S
C594 C593 1.398 . S
C594 C595 1.391 . S
C595 H583 0.950 . S
C595 C591 1.393 . S
C595 C594 1.391 . S
H596 C604 0.950 . S
H597 C609 0.950 . S
H598 C606 0.950 . S
H599 C608 0.950 . S
H600 C610 0.950 . S
H601 C612 0.950 . S
H602 C614 0.950 . S
H603 C615 0.950 . S
C604 H596 0.950 . S
C604 C605 1.386 . S
C604 C606 1.391 . S
C605 C604 1.386 . S
C605 C609 1.393 . S
C606 H598 0.950 . S
C606 C604 1.391 . S
C606 C607 1.400 . S
C607 C606 1.400 . S
C607 C608 1.398 . S
C607 C613 1.491 . S
C608 H599 0.950 . S
C608 C607 1.398 . S
C608 C609 1.391 . S
C609 H597 0.950 . S
C609 C605 1.393 . S
C609 C608 1.391 . S
C610 H600 0.950 . S
C610 C611 1.386 . S
C610 C612 1.391 . S
C611 C610 1.386 . S
C611 C615 1.393 . S
C612 H601 0.950 . S
C612 C610 1.391 . S
C612 C613 1.400 . S
C613 C607 1.491 . S
C613 C612 1.400 . S
C613 C614 1.398 . S
C614 H602 0.950 . S
C614 C613 1.398 . S
C614 C615 1.391 . S
C615 H603 0.950 . S
C615 C611 1.393 . S
C615 C614 1.391 . S
H616 C624 0.950 . S
H617 C629 0.950 . S
H618 C626 0.950 . S
H619 C628 0.950 . S
H620 C630 0.950 . S
H621 C632 0.950 . S
H622 C634 0.950 . S
H623 C635 0.950 . S
C624 H616 0.950 . S
C624 C625 1.386 . S
C624 C626 1.391 . S
C625 C624 1.386 . S
C625 C629 1.393 . S
C626 H618 0.950 . S
C626 C624 1.391 . S
C626 C627 1.400 . S
C627 C626 1.400 . S
C627 C628 1.398 . S
C627 C633 1.491 . S
C628 H619 0.950 . S
C628 C627 1.398 . S
C628 C629 1.391 . S
C629 H617 0.950 . S
C629 C625 1.393 . S
C629 C628 1.391 . S
C630 H620 0.950 . S
C630 C631 1.386 . S
C630 C632 1.391 . S
C631 C630 1.386 . S
C631 C635 1.393 . S
C632 H621 0.950 . S
C632 C630 1.391 . S
C632 C633 1.400 . S
C633 C627 1.491 . S
C633 C632 1.400 . S
C633 C634 1.398 . S
C634 H622 0.950 . S
C634 C633 1.398 . S
C634 C635 1.391 . S
C635 H623 0.950 . S
C635 C631 1.393 . S
C635 C634 1.391 . S
H636 C644 0.950 . S
H637 C649 0.950 . S
H638 C646 0.950 . S
H639 C648 0.950 . S
H640 C650 0.950 . S
H641 C652 0.950 . S
H642 C654 0.950 . S
H643 C655 0.950 . S
C644 H636 0.950 . S
C644 C645 1.386 . S
C644 C646 1.391 . S
C645 C644 1.386 . S
C645 C649 1.393 . S
C646 H638 0.950 . S
C646 C644 1.391 . S
C646 C647 1.400 . S
C647 C646 1.400 . S
C647 C648 1.398 . S
C647 C653 1.491 . S
C648 H639 0.950 . S
C648 C647 1.398 . S
C648 C649 1.391 . S
C649 H637 0.950 . S
C649 C645 1.393 . S
C649 C648 1.391 . S
C650 H640 0.950 . S
C650 C651 1.386 . S
C650 C652 1.391 . S
C651 C650 1.386 . S
C651 C655 1.393 . S
C652 H641 0.950 . S
C652 C650 1.391 . S
C652 C653 1.400 . S
C653 C647 1.491 . S
C653 C652 1.400 . S
C653 C654 1.398 . S
C654 H642 0.950 . S
C654 C653 1.398 . S
C654 C655 1.391 . S
C655 H643 0.950 . S
C655 C651 1.393 . S
C655 C654 1.391 . S
H656 C664 0.950 . S
H657 C669 0.950 . S
H658 C666 0.950 . S
H659 C668 0.950 . S
H660 C670 0.950 . S
H661 C672 0.950 . S
H662 C674 0.950 . S
H663 C675 0.950 . S
C664 H656 0.950 . S
C664 C665 1.386 . S
C664 C666 1.391 . S
C665 C664 1.386 . S
C665 C669 1.393 . S
C666 H658 0.950 . S
C666 C664 1.391 . S
C666 C667 1.400 . S
C667 C666 1.400 . S
C667 C668 1.398 . S
C667 C673 1.491 . S
C668 H659 0.950 . S
C668 C667 1.398 . S
C668 C669 1.391 . S
C669 H657 0.950 . S
C669 C665 1.393 . S
C669 C668 1.391 . S
C670 H660 0.950 . S
C670 C671 1.386 . S
C670 C672 1.391 . S
C671 C670 1.386 . S
C671 C675 1.393 . S
C672 H661 0.950 . S
C672 C670 1.391 . S
C672 C673 1.400 . S
C673 C667 1.491 . S
C673 C672 1.400 . S
C673 C674 1.398 . S
C674 H662 0.950 . S
C674 C673 1.398 . S
C674 C675 1.391 . S
C675 H663 0.950 . S
C675 C671 1.393 . S
C675 C674 1.391 . S
H676 C684 0.950 . S
H677 C689 0.950 . S
H678 C686 0.950 . S
H679 C688 0.950 . S
H680 C690 0.950 . S
H681 C692 0.950 . S
H682 C694 0.950 . S
H683 C695 0.950 . S
C684 H676 0.950 . S
C684 C685 1.386 . S
C684 C686 1.391 . S
C685 C684 1.386 . S
C685 C689 1.393 . S
C686 H678 0.950 . S
C686 C684 1.391 . S
C686 C687 1.400 . S
C687 C686 1.400 . S
C687 C688 1.398 . S
C687 C693 1.491 . S
C688 H679 0.950 . S
C688 C687 1.398 . S
C688 C689 1.391 . S
C689 H677 0.950 . S
C689 C685 1.393 . S
C689 C688 1.391 . S
C690 H680 0.950 . S
C690 C691 1.386 . S
C690 C692 1.391 . S
C691 C690 1.386 . S
C691 C695 1.393 . S
C692 H681 0.950 . S
C692 C690 1.391 . S
C692 C693 1.400 . S
C693 C687 1.491 . S
C693 C692 1.400 . S
C693 C694 1.398 . S
C694 H682 0.950 . S
C694 C693 1.398 . S
C694 C695 1.391 . S
C695 H683 0.950 . S
C695 C691 1.393 . S
C695 C694 1.391 . S
H696 C704 0.950 . S
H697 C709 0.950 . S
H698 C706 0.950 . S
H699 C708 0.950 . S
H700 C710 0.950 . S
H701 C712 0.950 . S
H702 C714 0.950 . S
H703 C715 0.950 . S
C704 H696 0.950 . S
C704 C705 1.386 . S
C704 C706 1.391 . S
C705 C704 1.386 . S
C705 C709 1.393 . S
C706 H698 0.950 . S
C706 C704 1.391 . S
C706 C707 1.400 . S
C707 C706 1.400 . S
C707 C708 1.398 . S
C707 C713 1.491 . S
C708 H699 0.950 . S
C708 C707 1.398 . S
C708 C709 1.391 . S
C709 H697 0.950 . S
C709 C705 1.393 . S
C709 C708 1.391 . S
C710 H700 0.950 . S
C710 C711 1.386 . S
C710 C712 1.391 . S
C711 C710 1.386 . S
C711 C715 1.393 . S
C712 H701 0.950 . S
C712 C710 1.391 . S
C712 C713 1.400 . S
C713 C707 1.491 . S
C713 C712 1.400 . S
C713 C714 1.398 . S
C714 H702 0.950 . S
C714 C713 1.398 . S
C714 C715 1.391 . S
C715 H703 0.950 . S
C715 C711 1.393 . S
C715 C714 1.391 . S
H716 C724 0.950 . S
H717 C729 0.950 . S
H718 C726 0.950 . S
H719 C728 0.950 . S
H720 C730 0.950 . S
H721 C732 0.950 . S
H722 C734 0.950 . S
H723 C735 0.950 . S
C724 H716 0.950 . S
C724 C725 1.386 . S
C724 C726 1.391 . S
C725 C724 1.386 . S
C725 C729 1.393 . S
C726 H718 0.950 . S
C726 C724 1.391 . S
C726 C727 1.400 . S
C727 C726 1.400 . S
C727 C728 1.398 . S
C727 C733 1.491 . S
C728 H719 0.950 . S
C728 C727 1.398 . S
C728 C729 1.391 . S
C729 H717 0.950 . S
C729 C725 1.393 . S
C729 C728 1.391 . S
C730 H720 0.950 . S
C730 C731 1.386 . S
C730 C732 1.391 . S
C731 C730 1.386 . S
C731 C735 1.393 . S
C732 H721 0.950 . S
C732 C730 1.391 . S
C732 C733 1.400 . S
C733 C727 1.491 . S
C733 C732 1.400 . S
C733 C734 1.398 . S
C734 H722 0.950 . S
C734 C733 1.398 . S
C734 C735 1.391 . S
C735 H723 0.950 . S
C735 C731 1.393 . S
C735 C734 1.391 . S
H736 C744 0.950 . S
H737 C749 0.950 . S
H738 C746 0.950 . S
H739 C748 0.950 . S
H740 C750 0.950 . S
H741 C752 0.950 . S
H742 C754 0.950 . S
H743 C755 0.950 . S
C744 H736 0.950 . S
C744 C745 1.386 . S
C744 C746 1.391 . S
C745 C744 1.386 . S
C745 C749 1.393 . S
C746 H738 0.950 . S
C746 C744 1.391 . S
C746 C747 1.400 . S
C747 C746 1.400 . S
C747 C748 1.398 . S
C747 C753 1.491 . S
C748 H739 0.950 . S
C748 C747 1.398 . S
C748 C749 1.391 . S
C749 H737 0.950 . S
C749 C745 1.393 . S
C749 C748 1.391 . S
C750 H740 0.950 . S
C750 C751 1.386 . S
C750 C752 1.391 . S
C751 C750 1.386 . S
C751 C755 1.393 . S
C752 H741 0.950 . S
C752 C750 1.391 . S
C752 C753 1.400 . S
C753 C747 1.491 . S
C753 C752 1.400 . S
C753 C754 1.398 . S
C754 H742 0.950 . S
C754 C753 1.398 . S
C754 C755 1.391 . S
C755 H743 0.950 . S
C755 C751 1.393 . S
C755 C754 1.391 . S
H756 C764 0.950 . S
H757 C769 0.950 . S
H758 C766 0.950 . S
H759 C768 0.950 . S
H760 C770 0.950 . S
H761 C772 0.950 . S
H762 C774 0.950 . S
H763 C775 0.950 . S
C764 H756 0.950 . S
C764 C765 1.386 . S
C764 C766 1.391 . S
C765 C764 1.386 . S
C765 C769 1.393 . S
C766 H758 0.950 . S
C766 C764 1.391 . S
C766 C767 1.400 . S
C767 C766 1.400 . S
C767 C768 1.398 . S
C767 C773 1.491 . S
C768 H759 0.950 . S
C768 C767 1.398 . S
C768 C769 1.391 . S
C769 H757 0.950 . S
C769 C765 1.393 . S
C769 C768 1.391 . S
C770 H760 0.950 . S
C770 C771 1.386 . S
C770 C772 1.391 . S
C771 C770 1.386 . S
C771 C775 1.393 . S
C772 H761 0.950 . S
C772 C770 1.391 . S
C772 C773 1.400 . S
C773 C767 1.491 . S
C773 C772 1.400 . S
C773 C774 1.398 . S
C774 H762 0.950 . S
C774 C773 1.398 . S
C774 C775 1.391 . S
C775 H763 0.950 . S
C775 C771 1.393 . S
C775 C774 1.391 . S
H776 C784 0.950 . S
H777 C789 0.950 . S
H778 C786 0.950 . S
H779 C788 0.950 . S
H780 C790 0.950 . S
H781 C792 0.950 . S
H782 C794 0.950 . S
H783 C795 0.950 . S
C784 H776 0.950 . S
C784 C785 1.386 . S
C784 C786 1.391 . S
C785 C784 1.386 . S
C785 C789 1.393 . S
C786 H778 0.950 . S
C786 C784 1.391 . S
C786 C787 1.400 . S
C787 C786 1.400 . S
C787 C788 1.398 . S
C787 C793 1.491 . S
C788 H779 0.950 . S
C788 C787 1.398 . S
C788 C789 1.391 . S
C789 H777 0.950 . S
C789 C785 1.393 . S
C789 C788 1.391 . S
C790 H780 0.950 . S
C790 C791 1.386 . S
C790 C792 1.391 . S
C791 C790 1.386 . S
C791 C795 1.393 . S
C792 H781 0.950 . S
C792 C790 1.391 . S
C792 C793 1.400 . S
C793 C787 1.491 . S
C793 C792 1.400 . S
C793 C794 1.398 . S
C794 H782 0.950 . S
C794 C793 1.398 . S
C794 C795 1.391 . S
C795 H783 0.950 . S
C795 C791 1.393 . S
C795 C794 1.391 . S
H796 C804 0.950 . S
H797 C809 0.950 . S
H798 C806 0.950 . S
H799 C808 0.950 . S
H800 C810 0.950 . S
H801 C812 0.950 . S
H802 C814 0.950 . S
H803 C815 0.950 . S
C804 H796 0.950 . S
C804 C805 1.386 . S
C804 C806 1.391 . S
C805 C804 1.386 . S
C805 C809 1.393 . S
C806 H798 0.950 . S
C806 C804 1.391 . S
C806 C807 1.400 . S
C807 C806 1.400 . S
C807 C808 1.398 . S
C807 C813 1.491 . S
C808 H799 0.950 . S
C808 C807 1.398 . S
C808 C809 1.391 . S
C809 H797 0.950 . S
C809 C805 1.393 . S
C809 C808 1.391 . S
C810 H800 0.950 . S
C810 C811 1.386 . S
C810 C812 1.391 . S
C811 C810 1.386 . S
C811 C815 1.393 . S
C812 H801 0.950 . S
C812 C810 1.391 . S
C812 C813 1.400 . S
C813 C807 1.491 . S
C813 C812 1.400 . S
C813 C814 1.398 . S
C814 H802 0.950 . S
C814 C813 1.398 . S
C814 C815 1.391 . S
C815 H803 0.950 . S
C815 C811 1.393 . S
C815 C814 1.391 . S
H816 C824 0.950 . S
H817 C829 0.950 . S
H818 C826 0.950 . S
H819 C828 0.950 . S
H820 C830 0.950 . S
H821 C832 0.950 . S
H822 C834 0.950 . S
H823 C835 0.950 . S
C824 H816 0.950 . S
C824 C825 1.386 . S
C824 C826 1.391 . S
C825 C824 1.386 . S
C825 C829 1.393 . S
C826 H818 0.950 . S
C826 C824 1.391 . S
C826 C827 1.400 . S
C827 C826 1.400 . S
C827 C828 1.398 . S
C827 C833 1.491 1_455 S
C828 H819 0.950 . S
C828 C827 1.398 . S
C828 C829 1.391 . S
C829 H817 0.950 . S
C829 C825 1.393 . S
C829 C828 1.391 . S
C830 H820 0.950 . S
C830 C831 1.386 . S
C830 C832 1.391 . S
C831 C830 1.386 . S
C831 C835 1.393 . S
C832 H821 0.950 . S
C832 C830 1.391 . S
C832 C833 1.400 . S
C833 C827 1.491 1_655 S
C833 C832 1.400 . S
C833 C834 1.398 . S
C834 H822 0.950 . S
C834 C833 1.398 . S
C834 C835 1.391 . S
C835 H823 0.950 . S
C835 C831 1.393 . S
C835 C834 1.391 . S
H836 C844 0.950 . S
H837 C849 0.950 . S
H838 C846 0.950 . S
H839 C848 0.950 . S
H840 C850 0.950 . S
H841 C852 0.950 . S
H842 C854 0.950 . S
H843 C855 0.950 . S
C844 H836 0.950 . S
C844 C845 1.386 . S
C844 C846 1.391 . S
C845 C844 1.386 . S
C845 C849 1.393 . S
C846 H838 0.950 . S
C846 C844 1.391 . S
C846 C847 1.400 . S
C847 C846 1.400 . S
C847 C848 1.398 . S
C847 C853 1.491 1_545 S
C848 H839 0.950 . S
C848 C847 1.398 . S
C848 C849 1.391 . S
C849 H837 0.950 . S
C849 C845 1.393 . S
C849 C848 1.391 . S
C850 H840 0.950 . S
C850 C851 1.386 . S
C850 C852 1.391 . S
C851 C850 1.386 . S
C851 C855 1.393 . S
C852 H841 0.950 . S
C852 C850 1.391 . S
C852 C853 1.400 . S
C853 C847 1.491 1_565 S
C853 C852 1.400 . S
C853 C854 1.398 . S
C854 H842 0.950 . S
C854 C853 1.398 . S
C854 C855 1.391 . S
C855 H843 0.950 . S
C855 C851 1.393 . S
C855 C854 1.391 . S
H856 C864 0.950 . S
H857 C869 0.950 . S
H858 C866 0.950 . S
H859 C868 0.950 . S
H860 C870 0.950 . S
H861 C872 0.950 . S
H862 C874 0.950 . S
H863 C875 0.950 . S
C864 H856 0.950 . S
C864 C865 1.386 . S
C864 C866 1.391 . S
C865 C864 1.386 . S
C865 C869 1.393 . S
C866 H858 0.950 . S
C866 C864 1.391 . S
C866 C867 1.400 . S
C867 C866 1.400 . S
C867 C868 1.398 . S
C867 C873 1.491 1_655 S
C868 H859 0.950 . S
C868 C867 1.398 . S
C868 C869 1.391 . S
C869 H857 0.950 . S
C869 C865 1.393 . S
C869 C868 1.391 . S
C870 H860 0.950 . S
C870 C871 1.386 . S
C870 C872 1.391 . S
C871 C870 1.386 . S
C871 C875 1.393 . S
C872 H861 0.950 . S
C872 C870 1.391 . S
C872 C873 1.400 . S
C873 C867 1.491 1_455 S
C873 C872 1.400 . S
C873 C874 1.398 . S
C874 H862 0.950 . S
C874 C873 1.398 . S
C874 C875 1.391 . S
C875 H863 0.950 . S
C875 C871 1.393 . S
C875 C874 1.391 . S
H876 C884 0.950 . S
H877 C889 0.950 . S
H878 C886 0.950 . S
H879 C888 0.950 . S
H880 C890 0.950 . S
H881 C892 0.950 . S
H882 C894 0.950 . S
H883 C895 0.950 . S
C884 H876 0.950 . S
C884 C885 1.386 . S
C884 C886 1.391 . S
C885 C884 1.386 . S
C885 C889 1.393 . S
C886 H878 0.950 . S
C886 C884 1.391 . S
C886 C887 1.400 . S
C887 C886 1.400 . S
C887 C888 1.398 . S
C887 C893 1.491 1_545 S
C888 H879 0.950 . S
C888 C887 1.398 . S
C888 C889 1.391 . S
C889 H877 0.950 . S
C889 C885 1.393 . S
C889 C888 1.391 . S
C890 H880 0.950 . S
C890 C891 1.386 . S
C890 C892 1.391 . S
C891 C890 1.386 . S
C891 C895 1.393 . S
C892 H881 0.950 . S
C892 C890 1.391 . S
C892 C893 1.400 . S
C893 C887 1.491 1_565 S
C893 C892 1.400 . S
C893 C894 1.398 . S
C894 H882 0.950 . S
C894 C893 1.398 . S
C894 C895 1.391 . S
C895 H883 0.950 . S
C895 C891 1.393 . S
C895 C894 1.391 . S
H896 C904 0.950 . S
H897 C909 0.950 . S
H898 C906 0.950 . S
H899 C908 0.950 . S
H900 C910 0.950 . S
H901 C912 0.950 . S
H902 C914 0.950 . S
H903 C915 0.950 . S
C904 H896 0.950 . S
C904 C905 1.386 . S
C904 C906 1.391 . S
C905 C904 1.386 . S
C905 C909 1.393 . S
C906 H898 0.950 . S
C906 C904 1.391 . S
C906 C907 1.400 . S
C907 C906 1.400 . S
C907 C908 1.398 . S
C907 C913 1.491 1_565 S
C908 H899 0.950 . S
C908 C907 1.398 . S
C908 C909 1.391 . S
C909 H897 0.950 . S
C909 C905 1.393 . S
C909 C908 1.391 . S
C910 H900 0.950 . S
C910 C911 1.386 . S
C910 C912 1.391 . S
C911 C910 1.386 . S
C911 C915 1.393 . S
C912 H901 0.950 . S
C912 C910 1.391 . S
C912 C913 1.400 . S
C913 C907 1.491 1_545 S
C913 C912 1.400 . S
C913 C914 1.398 . S
C914 H902 0.950 . S
C914 C913 1.398 . S
C914 C915 1.391 . S
C915 H903 0.950 . S
C915 C911 1.393 . S
C915 C914 1.391 . S
H916 C924 0.950 . S
H917 C929 0.950 . S
H918 C926 0.950 . S
H919 C928 0.950 . S
H920 C930 0.950 . S
H921 C932 0.950 . S
H922 C934 0.950 . S
H923 C935 0.950 . S
C924 H916 0.950 . S
C924 C925 1.386 . S
C924 C926 1.391 . S
C925 C924 1.386 . S
C925 C929 1.393 . S
C926 H918 0.950 . S
C926 C924 1.391 . S
C926 C927 1.400 . S
C927 C926 1.400 . S
C927 C928 1.398 . S
C927 C933 1.491 1_655 S
C928 H919 0.950 . S
C928 C927 1.398 . S
C928 C929 1.391 . S
C929 H917 0.950 . S
C929 C925 1.393 . S
C929 C928 1.391 . S
C930 H920 0.950 . S
C930 C931 1.386 . S
C930 C932 1.391 . S
C931 C930 1.386 . S
C931 C935 1.393 . S
C932 H921 0.950 . S
C932 C930 1.391 . S
C932 C933 1.400 . S
C933 C927 1.491 1_455 S
C933 C932 1.400 . S
C933 C934 1.398 . S
C934 H922 0.950 . S
C934 C933 1.398 . S
C934 C935 1.391 . S
C935 H923 0.950 . S
C935 C931 1.393 . S
C935 C934 1.391 . S
H936 C944 0.950 . S
H937 C949 0.950 . S
H938 C946 0.950 . S
H939 C948 0.950 . S
H940 C950 0.950 . S
H941 C952 0.950 . S
H942 C954 0.950 . S
H943 C955 0.950 . S
C944 H936 0.950 . S
C944 C945 1.386 . S
C944 C946 1.391 . S
C945 C944 1.386 . S
C945 C949 1.393 . S
C946 H938 0.950 . S
C946 C944 1.391 . S
C946 C947 1.400 . S
C947 C946 1.400 . S
C947 C948 1.398 . S
C947 C953 1.491 1_565 S
C948 H939 0.950 . S
C948 C947 1.398 . S
C948 C949 1.391 . S
C949 H937 0.950 . S
C949 C945 1.393 . S
C949 C948 1.391 . S
C950 H940 0.950 . S
C950 C951 1.386 . S
C950 C952 1.391 . S
C951 C950 1.386 . S
C951 C955 1.393 . S
C952 H941 0.950 . S
C952 C950 1.391 . S
C952 C953 1.400 . S
C953 C947 1.491 1_545 S
C953 C952 1.400 . S
C953 C954 1.398 . S
C954 H942 0.950 . S
C954 C953 1.398 . S
C954 C955 1.391 . S
C955 H943 0.950 . S
C955 C951 1.393 . S
C955 C954 1.391 . S
H956 C964 0.950 . S
H957 C969 0.950 . S
H958 C966 0.950 . S
H959 C968 0.950 . S
H960 C970 0.950 . S
H961 C972 0.950 . S
H962 C974 0.950 . S
H963 C975 0.950 . S
C964 H956 0.950 . S
C964 C965 1.386 . S
C964 C966 1.391 . S
C965 C964 1.386 . S
C965 C969 1.393 . S
C966 H958 0.950 . S
C966 C964 1.391 . S
C966 C967 1.400 . S
C967 C966 1.400 . S
C967 C968 1.398 . S
C967 C973 1.491 1_655 S
C968 H959 0.950 . S
C968 C967 1.398 . S
C968 C969 1.391 . S
C969 H957 0.950 . S
C969 C965 1.393 . S
C969 C968 1.391 . S
C970 H960 0.950 . S
C970 C971 1.386 . S
C970 C972 1.391 . S
C971 C970 1.386 . S
C971 C975 1.393 . S
C972 H961 0.950 . S
C972 C970 1.391 . S
C972 C973 1.400 . S
C973 C967 1.491 1_455 S
C973 C972 1.400 . S
C973 C974 1.398 . S
C974 H962 0.950 . S
C974 C973 1.398 . S
C974 C975 1.391 . S
C975 H963 0.950 . S
C975 C971 1.393 . S
C975 C974 1.391 . S
H976 C984 0.950 . S
H977 C989 0.950 . S
H978 C986 0.950 . S
H979 C988 0.950 . S
H980 C990 0.950 . S
H981 C992 0.950 . S
H982 C994 0.950 . S
H983 C995 0.950 . S
C984 H976 0.950 . S
C984 C985 1.386 . S
C984 C986 1.391 . S
C985 C984 1.386 . S
C985 C989 1.393 . S
C986 H978 0.950 . S
C986 C984 1.391 . S
C986 C987 1.400 . S
C987 C986 1.400 . S
C987 C988 1.398 . S
C987 C993 1.491 1_556 S
C988 H979 0.950 . S
C988 C987 1.398 . S
C988 C989 1.391 . S
C989 H977 0.950 . S
C989 C985 1.393 . S
C989 C988 1.391 . S
C990 H980 0.950 . S
C990 C991 1.386 . S
C990 C992 1.391 . S
C991 C990 1.386 . S
C991 C995 1.393 . S
C992 H981 0.950 . S
C992 C990 1.391 . S
C992 C993 1.400 . S
C993 C987 1.491 1_554 S
C993 C992 1.400 . S
C993 C994 1.398 . S
C994 H982 0.950 . S
C994 C993 1.398 . S
C994 C995 1.391 . S
C995 H983 0.950 . S
C995 C991 1.393 . S
C995 C994 1.391 . S
H996 C1004 0.950 . S
H997 C1009 0.950 . S
H998 C1006 0.950 . S
H999 C1008 0.950 . S
H1000 C1010 0.950 . S
H1001 C1012 0.950 . S
H1002 C1014 0.950 . S
H1003 C1015 0.950 . S
C1004 H996 0.950 . S
C1004 C1005 1.386 . S
C1004 C1006 1.391 . S
C1005 C1004 1.386 . S
C1005 C1009 1.393 . S
C1006 H998 0.950 . S
C1006 C1004 1.391 . S
C1006 C1007 1.400 . S
C1007 C1006 1.400 . S
C1007 C1008 1.398 . S
C1007 C1013 1.491 1_556 S
C1008 H999 0.950 . S
C1008 C1007 1.398 . S
C1008 C1009 1.391 . S
C1009 H997 0.950 . S
C1009 C1005 1.393 . S
C1009 C1008 1.391 . S
C1010 H1000 0.950 . S
C1010 C1011 1.386 . S
C1010 C1012 1.391 . S
C1011 C1010 1.386 . S
C1011 C1015 1.393 . S
C1012 H1001 0.950 . S
C1012 C1010 1.391 . S
C1012 C1013 1.400 . S
C1013 C1007 1.491 1_554 S
C1013 C1012 1.400 . S
C1013 C1014 1.398 . S
C1014 H1002 0.950 . S
C1014 C1013 1.398 . S
C1014 C1015 1.391 . S
C1015 H1003 0.950 . S
C1015 C1011 1.393 . S
C1015 C1014 1.391 . S
H1016 C1024 0.950 . S
H1017 C1029 0.950 . S
H1018 C1026 0.950 . S
H1019 C1028 0.950 . S
H1020 C1030 0.950 . S
H1021 C1032 0.950 . S
H1022 C1034 0.950 . S
H1023 C1035 0.950 . S
C1024 H1016 0.950 . S
C1024 C1025 1.386 . S
C1024 C1026 1.391 . S
C1025 C1024 1.386 . S
C1025 C1029 1.393 . S
C1026 H1018 0.950 . S
C1026 C1024 1.391 . S
C1026 C1027 1.400 . S
C1027 C1026 1.400 . S
C1027 C1028 1.398 . S
C1027 C1033 1.491 1_556 S
C1028 H1019 0.950 . S
C1028 C1027 1.398 . S
C1028 C1029 1.391 . S
C1029 H1017 0.950 . S
C1029 C1025 1.393 . S
C1029 C1028 1.391 . S
C1030 H1020 0.950 . S
C1030 C1031 1.386 . S
C1030 C1032 1.391 . S
C1031 C1030 1.386 . S
C1031 C1035 1.393 . S
C1032 H1021 0.950 . S
C1032 C1030 1.391 . S
C1032 C1033 1.400 . S
C1033 C1027 1.491 1_554 S
C1033 C1032 1.400 . S
C1033 C1034 1.398 . S
C1034 H1022 0.950 . S
C1034 C1033 1.398 . S
C1034 C1035 1.391 . S
C1035 H1023 0.950 . S
C1035 C1031 1.393 . S
C1035 C1034 1.391 . S
H1036 C1044 0.950 . S
H1037 C1049 0.950 . S
H1038 C1046 0.950 . S
H1039 C1048 0.950 . S
H1040 C1050 0.950 . S
H1041 C1052 0.950 . S
H1042 C1054 0.950 . S
H1043 C1055 0.950 . S
C1044 H1036 0.950 . S
C1044 C1045 1.386 . S
C1044 C1046 1.391 . S
C1045 C1044 1.386 . S
C1045 C1049 1.393 . S
C1046 H1038 0.950 . S
C1046 C1044 1.391 . S
C1046 C1047 1.400 . S
C1047 C1046 1.400 . S
C1047 C1048 1.398 . S
C1047 C1053 1.491 1_556 S
C1048 H1039 0.950 . S
C1048 C1047 1.398 . S
C1048 C1049 1.391 . S
C1049 H1037 0.950 . S
C1049 C1045 1.393 . S
C1049 C1048 1.391 . S
C1050 H1040 0.950 . S
C1050 C1051 1.386 . S
C1050 C1052 1.391 . S
C1051 C1050 1.386 . S
C1051 C1055 1.393 . S
C1052 H1041 0.950 . S
C1052 C1050 1.391 . S
C1052 C1053 1.400 . S
C1053 C1047 1.491 1_554 S
C1053 C1052 1.400 . S
C1053 C1054 1.398 . S
C1054 H1042 0.950 . S
C1054 C1053 1.398 . S
C1054 C1055 1.391 . S
C1055 H1043 0.950 . S
C1055 C1051 1.393 . S
C1055 C1054 1.391 . S
H1056 C1064 0.950 . S
H1057 C1069 0.950 . S
H1058 C1066 0.950 . S
H1059 C1068 0.950 . S
H1060 C1070 0.950 . S
H1061 C1072 0.950 . S
H1062 C1074 0.950 . S
H1063 C1075 0.950 . S
C1064 H1056 0.950 . S
C1064 C1065 1.386 . S
C1064 C1066 1.391 . S
C1065 C1064 1.386 . S
C1065 C1069 1.393 . S
C1066 H1058 0.950 . S
C1066 C1064 1.391 . S
C1066 C1067 1.400 . S
C1067 C1066 1.400 . S
C1067 C1068 1.398 . S
C1067 C1073 1.491 . S
C1068 H1059 0.950 . S
C1068 C1067 1.398 . S
C1068 C1069 1.391 . S
C1069 H1057 0.950 . S
C1069 C1065 1.393 . S
C1069 C1068 1.391 . S
C1070 H1060 0.950 . S
C1070 C1071 1.386 . S
C1070 C1072 1.391 . S
C1071 C1070 1.386 . S
C1071 C1075 1.393 . S
C1072 H1061 0.950 . S
C1072 C1070 1.391 . S
C1072 C1073 1.400 . S
C1073 C1067 1.491 . S
C1073 C1072 1.400 . S
C1073 C1074 1.398 . S
C1074 H1062 0.950 . S
C1074 C1073 1.398 . S
C1074 C1075 1.391 . S
C1075 H1063 0.950 . S
C1075 C1071 1.393 . S
C1075 C1074 1.391 . S
H1076 C1084 0.950 . S
H1077 C1089 0.950 . S
H1078 C1086 0.950 . S
H1079 C1088 0.950 . S
H1080 C1090 0.950 . S
H1081 C1092 0.950 . S
H1082 C1094 0.950 . S
H1083 C1095 0.950 . S
C1084 H1076 0.950 . S
C1084 C1085 1.386 . S
C1084 C1086 1.391 . S
C1085 C1084 1.386 . S
C1085 C1089 1.393 . S
C1086 H1078 0.950 . S
C1086 C1084 1.391 . S
C1086 C1087 1.400 . S
C1087 C1086 1.400 . S
C1087 C1088 1.398 . S
C1087 C1093 1.491 . S
C1088 H1079 0.950 . S
C1088 C1087 1.398 . S
C1088 C1089 1.391 . S
C1089 H1077 0.950 . S
C1089 C1085 1.393 . S
C1089 C1088 1.391 . S
C1090 H1080 0.950 . S
C1090 C1091 1.386 . S
C1090 C1092 1.391 . S
C1091 C1090 1.386 . S
C1091 C1095 1.393 . S
C1092 H1081 0.950 . S
C1092 C1090 1.391 . S
C1092 C1093 1.400 . S
C1093 C1087 1.491 . S
C1093 C1092 1.400 . S
C1093 C1094 1.398 . S
C1094 H1082 0.950 . S
C1094 C1093 1.398 . S
C1094 C1095 1.391 . S
C1095 H1083 0.950 . S
C1095 C1091 1.393 . S
C1095 C1094 1.391 . S
H1096 C1104 0.950 . S
H1097 C1109 0.950 . S
H1098 C1106 0.950 . S
H1099 C1108 0.950 . S
H1100 C1110 0.950 . S
H1101 C1112 0.950 . S
H1102 C1114 0.950 . S
H1103 C1115 0.950 . S
C1104 H1096 0.950 . S
C1104 C1105 1.386 . S
C1104 C1106 1.391 . S
C1105 C1104 1.386 . S
C1105 C1109 1.393 . S
C1106 H1098 0.950 . S
C1106 C1104 1.391 . S
C1106 C1107 1.400 . S
C1107 C1106 1.400 . S
C1107 C1108 1.398 . S
C1107 C1113 1.491 . S
C1108 H1099 0.950 . S
C1108 C1107 1.398 . S
C1108 C1109 1.391 . S
C1109 H1097 0.950 . S
C1109 C1105 1.393 . S
C1109 C1108 1.391 . S
C1110 H1100 0.950 . S
C1110 C1111 1.386 . S
C1110 C1112 1.391 . S
C1111 C1110 1.386 . S
C1111 C1115 1.393 . S
C1112 H1101 0.950 . S
C1112 C1110 1.391 . S
C1112 C1113 1.400 . S
C1113 C1107 1.491 . S
C1113 C1112 1.400 . S
C1113 C1114 1.398 . S
C1114 H1102 0.950 . S
C1114 C1113 1.398 . S
C1114 C1115 1.391 . S
C1115 H1103 0.950 . S
C1115 C1111 1.393 . S
C1115 C1114 1.391 . S
H1116 C1124 0.950 . S
H1117 C1129 0.950 . S
H1118 C1126 0.950 . S
H1119 C1128 0.950 . S
H1120 C1130 0.950 . S
H1121 C1132 0.950 . S
H1122 C1134 0.950 . S
H1123 C1135 0.950 . S
C1124 H1116 0.950 . S
C1124 C1125 1.386 . S
C1124 C1126 1.391 . S
C1125 C1124 1.386 . S
C1125 C1129 1.393 . S
C1126 H1118 0.950 . S
C1126 C1124 1.391 . S
C1126 C1127 1.400 . S
C1127 C1126 1.400 . S
C1127 C1128 1.398 . S
C1127 C1133 1.491 . S
C1128 H1119 0.950 . S
C1128 C1127 1.398 . S
C1128 C1129 1.391 . S
C1129 H1117 0.950 . S
C1129 C1125 1.393 . S
C1129 C1128 1.391 . S
C1130 H1120 0.950 . S
C1130 C1131 1.386 . S
C1130 C1132 1.391 . S
C1131 C1130 1.386 . S
C1131 C1135 1.393 . S
C1132 H1121 0.950 . S
C1132 C1130 1.391 . S
C1132 C1133 1.400 . S
C1133 C1127 1.491 . S
C1133 C1132 1.400 . S
C1133 C1134 1.398 . S
C1134 H1122 0.950 . S
C1134 C1133 1.398 . S
C1134 C1135 1.391 . S
C1135 H1123 0.950 . S
C1135 C1131 1.393 . S
C1135 C1134 1.391 . S
H1136 C1144 0.950 . S
H1137 C1149 0.950 . S
H1138 C1146 0.950 . S
H1139 C1148 0.950 . S
H1140 C1150 0.950 . S
H1141 C1152 0.950 . S
H1142 C1154 0.950 . S
H1143 C1155 0.950 . S
C1144 H1136 0.950 . S
C1144 C1145 1.386 . S
C1144 C1146 1.391 . S
C1145 C1144 1.386 . S
C1145 C1149 1.393 . S
C1146 H1138 0.950 . S
C1146 C1144 1.391 . S
C1146 C1147 1.400 . S
C1147 C1146 1.400 . S
C1147 C1148 1.398 . S
C1147 C1153 1.491 . S
C1148 H1139 0.950 . S
C1148 C1147 1.398 . S
C1148 C1149 1.391 . S
C1149 H1137 0.950 . S
C1149 C1145 1.393 . S
C1149 C1148 1.391 . S
C1150 H1140 0.950 . S
C1150 C1151 1.386 . S
C1150 C1152 1.391 . S
C1151 C1150 1.386 . S
C1151 C1155 1.393 . S
C1152 H1141 0.950 . S
C1152 C1150 1.391 . S
C1152 C1153 1.400 . S
C1153 C1147 1.491 . S
C1153 C1152 1.400 . S
C1153 C1154 1.398 . S
C1154 H1142 0.950 . S
C1154 C1153 1.398 . S
C1154 C1155 1.391 . S
C1155 H1143 0.950 . S
C1155 C1151 1.393 . S
C1155 C1154 1.391 . S
H1156 C1164 0.950 . S
H1157 C1169 0.950 . S
H1158 C1166 0.950 . S
H1159 C1168 0.950 . S
H1160 C1170 0.950 . S
H1161 C1172 0.950 . S
H1162 C1174 0.950 . S
H1163 C1175 0.950 . S
C1164 H1156 0.950 . S
C1164 C1165 1.386 . S
C1164 C1166 1.391 . S
C1165 C1164 1.386 . S
C1165 C1169 1.393 . S
C1166 H1158 0.950 . S
C1166 C1164 1.391 . S
C1166 C1167 1.400 . S
C1167 C1166 1.400 . S
C1167 C1168 1.398 . S
C1167 C1173 1.491 . S
C1168 H1159 0.950 . S
C1168 C1167 1.398 . S
C1168 C1169 1.391 . S
C1169 H1157 0.950 . S
C1169 C1165 1.393 . S
C1169 C1168 1.391 . S
C1170 H1160 0.950 . S
C1170 C1171 1.386 . S
C1170 C1172 1.391 . S
C1171 C1170 1.386 . S
C1171 C1175 1.393 . S
C1172 H1161 0.950 . S
C1172 C1170 1.391 . S
C1172 C1173 1.400 . S
C1173 C1167 1.491 . S
C1173 C1172 1.400 . S
C1173 C1174 1.398 . S
C1174 H1162 0.950 . S
C1174 C1173 1.398 . S
C1174 C1175 1.391 . S
C1175 H1163 0.950 . S
C1175 C1171 1.393 . S
C1175 C1174 1.391 . S
H1176 C1184 0.950 . S
H1177 C1189 0.950 . S
H1178 C1186 0.950 . S
H1179 C1188 0.950 . S
H1180 C1190 0.950 . S
H1181 C1192 0.950 . S
H1182 C1194 0.950 . S
H1183 C1195 0.950 . S
C1184 H1176 0.950 . S
C1184 C1185 1.386 . S
C1184 C1186 1.391 . S
C1185 C1184 1.386 . S
C1185 C1189 1.393 . S
C1186 H1178 0.950 . S
C1186 C1184 1.391 . S
C1186 C1187 1.400 . S
C1187 C1186 1.400 . S
C1187 C1188 1.398 . S
C1187 C1193 1.491 . S
C1188 H1179 0.950 . S
C1188 C1187 1.398 . S
C1188 C1189 1.391 . S
C1189 H1177 0.950 . S
C1189 C1185 1.393 . S
C1189 C1188 1.391 . S
C1190 H1180 0.950 . S
C1190 C1191 1.386 . S
C1190 C1192 1.391 . S
C1191 C1190 1.386 . S
C1191 C1195 1.393 . S
C1192 H1181 0.950 . S
C1192 C1190 1.391 . S
C1192 C1193 1.400 . S
C1193 C1187 1.491 . S
C1193 C1192 1.400 . S
C1193 C1194 1.398 . S
C1194 H1182 0.950 . S
C1194 C1193 1.398 . S
C1194 C1195 1.391 . S
C1195 H1183 0.950 . S
C1195 C1191 1.393 . S
C1195 C1194 1.391 . S
H1196 C1204 0.950 . S
H1197 C1209 0.950 . S
H1198 C1206 0.950 . S
H1199 C1208 0.950 . S
H1200 C1210 0.950 . S
H1201 C1212 0.950 . S
H1202 C1214 0.950 . S
H1203 C1215 0.950 . S
C1204 H1196 0.950 . S
C1204 C1205 1.386 . S
C1204 C1206 1.391 . S
C1205 C1204 1.386 . S
C1205 C1209 1.393 . S
C1206 H1198 0.950 . S
C1206 C1204 1.391 . S
C1206 C1207 1.400 . S
C1207 C1206 1.400 . S
C1207 C1208 1.398 . S
C1207 C1213 1.491 . S
C1208 H1199 0.950 . S
C1208 C1207 1.398 . S
C1208 C1209 1.391 . S
C1209 H1197 0.950 . S
C1209 C1205 1.393 . S
C1209 C1208 1.391 . S
C1210 H1200 0.950 . S
C1210 C1211 1.386 . S
C1210 C1212 1.391 . S
C1211 C1210 1.386 . S
C1211 C1215 1.393 . S
C1212 H1201 0.950 . S
C1212 C1210 1.391 . S
C1212 C1213 1.400 . S
C1213 C1207 1.491 . S
C1213 C1212 1.400 . S
C1213 C1214 1.398 . S
C1214 H1202 0.950 . S
C1214 C1213 1.398 . S
C1214 C1215 1.391 . S
C1215 H1203 0.950 . S
C1215 C1211 1.393 . S
C1215 C1214 1.391 . S
H1216 C1224 0.950 . S
H1217 C1229 0.950 . S
H1218 C1226 0.950 . S
H1219 C1228 0.950 . S
H1220 C1230 0.950 . S
H1221 C1232 0.950 . S
H1222 C1234 0.950 . S
H1223 C1235 0.950 . S
C1224 H1216 0.950 . S
C1224 C1225 1.386 . S
C1224 C1226 1.391 . S
C1225 C1224 1.386 . S
C1225 C1229 1.393 . S
C1226 H1218 0.950 . S
C1226 C1224 1.391 . S
C1226 C1227 1.400 . S
C1227 C1226 1.400 . S
C1227 C1228 1.398 . S
C1227 C1233 1.491 . S
C1228 H1219 0.950 . S
C1228 C1227 1.398 . S
C1228 C1229 1.391 . S
C1229 H1217 0.950 . S
C1229 C1225 1.393 . S
C1229 C1228 1.391 . S
C1230 H1220 0.950 . S
C1230 C1231 1.386 . S
C1230 C1232 1.391 . S
C1231 C1230 1.386 . S
C1231 C1235 1.393 . S
C1232 H1221 0.950 . S
C1232 C1230 1.391 . S
C1232 C1233 1.400 . S
C1233 C1227 1.491 . S
C1233 C1232 1.400 . S
C1233 C1234 1.398 . S
C1234 H1222 0.950 . S
C1234 C1233 1.398 . S
C1234 C1235 1.391 . S
C1235 H1223 0.950 . S
C1235 C1231 1.393 . S
C1235 C1234 1.391 . S
H1236 C1244 0.950 . S
H1237 C1249 0.950 . S
H1238 C1246 0.950 . S
H1239 C1248 0.950 . S
H1240 C1250 0.950 . S
H1241 C1252 0.950 . S
H1242 C1254 0.950 . S
H1243 C1255 0.950 . S
C1244 H1236 0.950 . S
C1244 C1245 1.386 . S
C1244 C1246 1.391 . S
C1245 C1244 1.386 . S
C1245 C1249 1.393 . S
C1246 H1238 0.950 . S
C1246 C1244 1.391 . S
C1246 C1247 1.400 . S
C1247 C1246 1.400 . S
C1247 C1248 1.398 . S
C1247 C1253 1.491 . S
C1248 H1239 0.950 . S
C1248 C1247 1.398 . S
C1248 C1249 1.391 . S
C1249 H1237 0.950 . S
C1249 C1245 1.393 . S
C1249 C1248 1.391 . S
C1250 H1240 0.950 . S
C1250 C1251 1.386 . S
C1250 C1252 1.391 . S
C1251 C1250 1.386 . S
C1251 C1255 1.393 . S
C1252 H1241 0.950 . S
C1252 C1250 1.391 . S
C1252 C1253 1.400 . S
C1253 C1247 1.491 . S
C1253 C1252 1.400 . S
C1253 C1254 1.398 . S
C1254 H1242 0.950 . S
C1254 C1253 1.398 . S
C1254 C1255 1.391 . S
C1255 H1243 0.950 . S
C1255 C1251 1.393 . S
C1255 C1254 1.391 . S
H1256 C1264 0.950 . S
H1257 C1269 0.950 . S
H1258 C1266 0.950 . S
H1259 C1268 0.950 . S
H1260 C1270 0.950 . S
H1261 C1272 0.950 . S
H1262 C1274 0.950 . S
H1263 C1275 0.950 . S
C1264 H1256 0.950 . S
C1264 C1265 1.386 . S
C1264 C1266 1.391 . S
C1265 C1264 1.386 . S
C1265 C1269 1.393 . S
C1266 H1258 0.950 . S
C1266 C1264 1.391 . S
C1266 C1267 1.400 . S
C1267 C1266 1.400 . S
C1267 C1268 1.398 . S
C1267 C1273 1.491 . S
C1268 H1259 0.950 . S
C1268 C1267 1.398 . S
C1268 C1269 1.391 . S
C1269 H1257 0.950 . S
C1269 C1265 1.393 . S
C1269 C1268 1.391 . S
C1270 H1260 0.950 . S
C1270 C1271 1.386 . S
C1270 C1272 1.391 . S
C1271 C1270 1.386 . S
C1271 C1275 1.393 . S
C1272 H1261 0.950 . S
C1272 C1270 1.391 . S
C1272 C1273 1.400 . S
C1273 C1267 1.491 . S
C1273 C1272 1.400 . S
C1273 C1274 1.398 . S
C1274 H1262 0.950 . S
C1274 C1273 1.398 . S
C1274 C1275 1.391 . S
C1275 H1263 0.950 . S
C1275 C1271 1.393 . S
C1275 C1274 1.391 . S
H1276 C1284 0.950 . S
H1277 C1289 0.950 . S
H1278 C1286 0.950 . S
H1279 C1288 0.950 . S
H1280 C1290 0.950 . S
H1281 C1292 0.950 . S
H1282 C1294 0.950 . S
H1283 C1295 0.950 . S
C1284 H1276 0.950 . S
C1284 C1285 1.386 . S
C1284 C1286 1.391 . S
C1285 C1284 1.386 . S
C1285 C1289 1.393 . S
C1286 H1278 0.950 . S
C1286 C1284 1.391 . S
C1286 C1287 1.400 . S
C1287 C1286 1.400 . S
C1287 C1288 1.398 . S
C1287 C1293 1.491 . S
C1288 H1279 0.950 . S
C1288 C1287 1.398 . S
C1288 C1289 1.391 . S
C1289 H1277 0.950 . S
C1289 C1285 1.393 . S
C1289 C1288 1.391 . S
C1290 H1280 0.950 . S
C1290 C1291 1.386 . S
C1290 C1292 1.391 . S
C1291 C1290 1.386 . S
C1291 C1295 1.393 . S
C1292 H1281 0.950 . S
C1292 C1290 1.391 . S
C1292 C1293 1.400 . S
C1293 C1287 1.491 . S
C1293 C1292 1.400 . S
C1293 C1294 1.398 . S
C1294 H1282 0.950 . S
C1294 C1293 1.398 . S
C1294 C1295 1.391 . S
C1295 H1283 0.950 . S
C1295 C1291 1.393 . S
C1295 C1294 1.391 . S
C345 C161 1.329 . S
C351 C3 1.440 . S
C365 C17 1.436 . S
C371 C119 1.343 . S
C385 C31 1.440 . S
C391 C133 1.328 . S
C405 C45 1.440 . S
C411 C147 1.328 . S
C425 C189 1.345 . S
C431 C59 1.435 . S
C445 C73 1.427 . S
C451 C203 1.364 . S
C465 C217 1.359 . S
C471 C87 1.429 . S
C485 C175 1.360 . S
C491 C101 1.428 . S
C505 C77 1.350 . S
C511 C115 1.434 . S
C525 C91 1.332 . S
C531 C129 1.439 . S
C545 C143 1.429 . S
C551 C105 1.357 . S
C565 C63 1.350 . S
C571 C157 1.432 . S
C585 C49 1.345 . S
C591 C171 1.435 . S
C605 C185 1.428 . S
C611 C7 1.364 . S
C625 C199 1.427 . S
C631 C21 1.364 . S
C645 C213 1.440 . S
C651 C35 1.330 . S
C665 C227 1.440 . S
C671 C329 1.329 . S
C685 C287 1.361 . S
C691 C241 1.429 . S
C705 C255 1.440 . S
C711 C245 1.328 . S
C725 C269 1.437 . S
C731 C259 1.339 . S
C745 C273 1.332 . S
C751 C283 1.439 . S
C765 C297 1.437 . S
C771 C315 1.334 . S
C785 C231 1.361 . S
C791 C311 1.428 . S
C805 C301 1.340 . S
C811 C325 1.437 . S
C825 C9 1.507 . S
C831 C93 1.525 . S
C845 C23 1.508 . S
C851 C107 1.524 . S
C865 C37 1.513 . S
C871 C65 1.519 . S
C885 C79 1.524 . S
C891 C51 1.508 . S
C905 C149 1.524 . S
C911 C121 1.509 . S
C925 C135 1.525 . S
C931 C163 1.508 . S
C945 C177 1.521 . S
C951 C205 1.513 . S
C965 C219 1.512 . S
C971 C191 1.520 . S
C985 C247 1.510 . S
C991 C233 1.523 . S
C1005 C261 1.507 . S
C1011 C331 1.525 . S
C1025 C275 1.523 . S
C1031 C303 1.511 . S
C1045 C289 1.513 . S
C1051 C317 1.520 . S
C1065 C8 1.028 . S
C1071 C78 1.028 . S
C1085 C22 1.021 . S
C1091 C92 1.029 . S
C1105 C36 1.024 . S
C1111 C106 1.031 . S
C1125 C64 1.027 . S
C1131 C50 1.021 . S
C1145 C120 1.028 . S
C1151 C330 1.021 . S
C1165 C134 1.029 . S
C1171 C302 1.021 . S
C1185 C316 1.024 . S
C1191 C148 1.023 . S
C1205 C162 1.023 . S
C1211 C232 1.031 . S
C1225 C288 1.028 . S
C1231 C176 1.021 . S
C1245 C246 1.026 . S
C1251 C190 1.030 . S
C1265 C204 1.021 . S
C1271 C260 1.030 . S
C1285 C274 1.029 . S
C1291 C218 1.021 . S
