# Generated by pormake.
# Topology crs, (6)-cn, num edge types: 1
# Building blocks:
#     Node 0, Type 0, BuildingBlock: HISSIN_clean_sbu_0, # of connection points: 6
#     Node 1, Type 0, BuildingBlock: HISSIN_clean_sbu_0, # of connection points: 6
#     Node 2, Type 0, BuildingBlock: HISSIN_clean_sbu_0, # of connection points: 6
#     Node 3, Type 0, BuildingBlock: HISSIN_clean_sbu_0, # of connection points: 6
#     Node 4, Type 0, BuildingBlock: HISSIN_clean_sbu_0, # of connection points: 6
#     Node 5, Type 0, BuildingBlock: HISSIN_clean_sbu_0, # of connection points: 6
#     Node 6, Type 0, BuildingBlock: HISSIN_clean_sbu_0, # of connection points: 6
#     Node 7, Type 0, BuildingBlock: HISSIN_clean_sbu_0, # of connection points: 6
#     Node 8, Type 0, BuildingBlock: HISSIN_clean_sbu_0, # of connection points: 6
#     Node 9, Type 0, BuildingBlock: HISSIN_clean_sbu_0, # of connection points: 6
#     Node 10, Type 0, BuildingBlock: HISSIN_clean_sbu_0, # of connection points: 6
#     Node 11, Type 0, BuildingBlock: HISSIN_clean_sbu_0, # of connection points: 6
#     Node 12, Type 0, BuildingBlock: HISSIN_clean_sbu_0, # of connection points: 6
#     Node 13, Type 0, BuildingBlock: HISSIN_clean_sbu_0, # of connection points: 6
#     Node 14, Type 0, BuildingBlock: HISSIN_clean_sbu_0, # of connection points: 6
#     Node 15, Type 0, BuildingBlock: HISSIN_clean_sbu_0, # of connection points: 6
#     Edge 16, Type (0, 0), BuildingBlock: OJICUG_clean_linker_0, # of connection points: 2
#     Edge 17, Type (0, 0), BuildingBlock: OJICUG_clean_linker_0, # of connection points: 2
#     Edge 18, Type (0, 0), BuildingBlock: OJICUG_clean_linker_0, # of connection points: 2
#     Edge 19, Type (0, 0), BuildingBlock: OJICUG_clean_linker_0, # of connection points: 2
#     Edge 20, Type (0, 0), BuildingBlock: OJICUG_clean_linker_0, # of connection points: 2
#     Edge 21, Type (0, 0), BuildingBlock: OJICUG_clean_linker_0, # of connection points: 2
#     Edge 22, Type (0, 0), BuildingBlock: OJICUG_clean_linker_0, # of connection points: 2
#     Edge 23, Type (0, 0), BuildingBlock: OJICUG_clean_linker_0, # of connection points: 2
#     Edge 24, Type (0, 0), BuildingBlock: OJICUG_clean_linker_0, # of connection points: 2
#     Edge 25, Type (0, 0), BuildingBlock: OJICUG_clean_linker_0, # of connection points: 2
#     Edge 26, Type (0, 0), BuildingBlock: OJICUG_clean_linker_0, # of connection points: 2
#     Edge 27, Type (0, 0), BuildingBlock: OJICUG_clean_linker_0, # of connection points: 2
#     Edge 28, Type (0, 0), BuildingBlock: OJICUG_clean_linker_0, # of connection points: 2
#     Edge 29, Type (0, 0), BuildingBlock: OJICUG_clean_linker_0, # of connection points: 2
#     Edge 30, Type (0, 0), BuildingBlock: OJICUG_clean_linker_0, # of connection points: 2
#     Edge 31, Type (0, 0), BuildingBlock: OJICUG_clean_linker_0, # of connection points: 2
#     Edge 32, Type (0, 0), BuildingBlock: OJICUG_clean_linker_0, # of connection points: 2
#     Edge 33, Type (0, 0), BuildingBlock: OJICUG_clean_linker_0, # of connection points: 2
#     Edge 34, Type (0, 0), BuildingBlock: OJICUG_clean_linker_0, # of connection points: 2
#     Edge 35, Type (0, 0), BuildingBlock: OJICUG_clean_linker_0, # of connection points: 2
#     Edge 36, Type (0, 0), BuildingBlock: OJICUG_clean_linker_0, # of connection points: 2
#     Edge 37, Type (0, 0), BuildingBlock: OJICUG_clean_linker_0, # of connection points: 2
#     Edge 38, Type (0, 0), BuildingBlock: OJICUG_clean_linker_0, # of connection points: 2
#     Edge 39, Type (0, 0), BuildingBlock: OJICUG_clean_linker_0, # of connection points: 2
#     Edge 40, Type (0, 0), BuildingBlock: OJICUG_clean_linker_0, # of connection points: 2
#     Edge 41, Type (0, 0), BuildingBlock: OJICUG_clean_linker_0, # of connection points: 2
#     Edge 42, Type (0, 0), BuildingBlock: OJICUG_clean_linker_0, # of connection points: 2
#     Edge 43, Type (0, 0), BuildingBlock: OJICUG_clean_linker_0, # of connection points: 2
#     Edge 44, Type (0, 0), BuildingBlock: OJICUG_clean_linker_0, # of connection points: 2
#     Edge 45, Type (0, 0), BuildingBlock: OJICUG_clean_linker_0, # of connection points: 2
#     Edge 46, Type (0, 0), BuildingBlock: OJICUG_clean_linker_0, # of connection points: 2
#     Edge 47, Type (0, 0), BuildingBlock: OJICUG_clean_linker_0, # of connection points: 2
#     Edge 48, Type (0, 0), BuildingBlock: OJICUG_clean_linker_0, # of connection points: 2
#     Edge 49, Type (0, 0), BuildingBlock: OJICUG_clean_linker_0, # of connection points: 2
#     Edge 50, Type (0, 0), BuildingBlock: OJICUG_clean_linker_0, # of connection points: 2
#     Edge 51, Type (0, 0), BuildingBlock: OJICUG_clean_linker_0, # of connection points: 2
#     Edge 52, Type (0, 0), BuildingBlock: OJICUG_clean_linker_0, # of connection points: 2
#     Edge 53, Type (0, 0), BuildingBlock: OJICUG_clean_linker_0, # of connection points: 2
#     Edge 54, Type (0, 0), BuildingBlock: OJICUG_clean_linker_0, # of connection points: 2
#     Edge 55, Type (0, 0), BuildingBlock: OJICUG_clean_linker_0, # of connection points: 2
#     Edge 56, Type (0, 0), BuildingBlock: OJICUG_clean_linker_0, # of connection points: 2
#     Edge 57, Type (0, 0), BuildingBlock: OJICUG_clean_linker_0, # of connection points: 2
#     Edge 58, Type (0, 0), BuildingBlock: OJICUG_clean_linker_0, # of connection points: 2
#     Edge 59, Type (0, 0), BuildingBlock: OJICUG_clean_linker_0, # of connection points: 2
#     Edge 60, Type (0, 0), BuildingBlock: OJICUG_clean_linker_0, # of connection points: 2
#     Edge 61, Type (0, 0), BuildingBlock: OJICUG_clean_linker_0, # of connection points: 2
#     Edge 62, Type (0, 0), BuildingBlock: OJICUG_clean_linker_0, # of connection points: 2
#     Edge 63, Type (0, 0), BuildingBlock: OJICUG_clean_linker_0, # of connection points: 2
# Relax obj value: 0.566
# Max RMSD: 0.398
# Mean RMSD: 0.339
data_MOF--net-crs--node1-HISSIN_clean_sbu_0--edge1-OJICUG_clean_linker_0
_symmetry_space_group_name_H-M    P1
_symmetry_Int_Tables_number       1
_symmetry_cell_setting            triclinic
loop_
_symmetry_equiv_pos_as_xyz
'x, y, z'
_cell_length_a     44.077958
_cell_length_b     44.70146
_cell_length_c     32.300641
_cell_angle_alpha  69.097772
_cell_angle_beta   69.670807
_cell_angle_gamma 59.6409
loop_
_atom_site_label
_atom_site_type_symbol
_atom_site_fract_x
_atom_site_fract_y
_atom_site_fract_z
_atom_type_partial_charge
Eu0 Eu 0.90458 1.01836 0.12005 0.0
Eu1 Eu -0.06781 0.06181 1.01929 0.0
C2 C 0.85437 0.0631 0.04679 0.0
C3 C 0.87277 0.95279 0.2023 0.0
C4 C 0.88495 0.93485 0.16769 0.0
C5 C 0.83077 0.92679 0.24133 0.0
C6 C 0.86967 0.91371 0.1693 0.0
C7 C 0.84619 0.94803 0.23966 0.0
C8 C 0.84171 0.91023 0.20548 0.0
C9 C 0.88427 0.98001 0.19575 0.0
O10 O 0.92385 0.08973 0.07022 0.0
O11 O 0.88189 0.07476 0.12711 0.0
C12 C 0.89777 0.09591 0.10593 0.0
O13 O -0.04647 1.01946 0.1241 0.0
O14 O 0.92562 0.11183 0.96985 0.0
O15 O -0.02814 0.06294 0.95609 0.0
O16 O -0.01924 1.0217 0.04939 0.0
C17 C -0.01776 1.0152 0.09172 0.0
O18 O -0.06446 0.97993 0.07323 0.0
O19 O 0.92794 1.01911 1.00444 0.0
O20 O 0.87266 0.0821 1.02668 0.0
O21 O 0.91797 0.97227 0.17639 0.0
O22 O 0.8627 1.01227 0.17842 0.0
O23 O 0.86531 1.03412 0.07837 0.0
C24 C -0.01884 0.11365 0.93892 0.0
C25 C -0.00431 0.10685 0.97546 0.0
C26 C 0.00814 0.15421 0.89483 0.0
C27 C 0.016 0.1238 0.97193 0.0
C28 C -0.01233 0.13719 0.89844 0.0
C29 C 0.02207 0.14804 0.93182 0.0
C30 C -0.0425 0.09766 0.94492 0.0
C31 C -0.06522 0.98713 1.03025 0.0
H32 H 0.90505 0.9386 0.13816 0.0
H33 H 0.80945 0.92433 0.26981 0.0
H34 H 0.8783 0.90192 0.14075 0.0
H35 H 0.83628 0.96195 0.26645 0.0
H36 H -0.00921 0.08883 1.00708 0.0
H37 H 0.01216 0.17296 0.86362 0.0
H38 H 0.02681 0.11806 1.00076 0.0
H39 H -0.02361 0.1429 0.87007 0.0
Eu40 Eu -0.04858 0.30446 0.31592 0.0
Eu41 Eu 0.91856 0.29864 0.24274 0.0
C42 C 0.88883 0.37509 0.26885 0.0
C43 C -0.03056 0.3299 0.40302 0.0
C44 C -0.06182 0.36209 0.40167 0.0
C45 C -0.01395 0.34541 0.45389 0.0
C46 C -0.06869 0.38621 0.42552 0.0
C47 C -0.00705 0.32134 0.42988 0.0
C48 C -0.04439 0.37845 0.45102 0.0
C49 C -0.0207 0.30661 0.37357 0.0
O50 O -0.04432 0.32368 0.19845 0.0
O51 O -0.00883 0.30471 0.24897 0.0
C52 C -0.01456 0.31745 0.20749 0.0
O53 O -0.02533 0.2457 0.31887 0.0
O54 O 0.92237 0.28679 0.18083 0.0
O55 O 0.87089 0.30532 0.22705 0.0
O56 O -0.031 0.24743 0.25 0.0
C57 C -0.0161 0.23043 0.28552 0.0
O58 O 0.89577 0.30908 0.35126 0.0
O59 O 0.8957 0.27483 0.3134 0.0
O60 O 0.88675 0.3558 0.2482 0.0
O61 O -0.03948 0.28885 0.38443 0.0
O62 O -0.01495 0.32053 0.33026 0.0
O63 O 0.91214 0.3618 0.29472 0.0
C64 C 0.88164 0.26611 0.18524 0.0
C65 C 0.895 0.23118 0.21122 0.0
C66 C 0.8592 0.24874 0.14343 0.0
C67 C 0.89121 0.20488 0.20253 0.0
C68 C 0.86296 0.27495 0.15217 0.0
C69 C 0.87416 0.21327 0.16764 0.0
C70 C 0.88868 0.29311 0.1904 0.0
C71 C 0.88232 0.28997 0.34789 0.0
H72 H 0.91975 0.36902 0.38104 0.0
H73 H 0.00536 0.33885 0.47296 0.0
H74 H 0.90739 0.41128 0.42321 0.0
H75 H 0.01728 0.29659 0.43104 0.0
H76 H 0.90944 0.22405 0.23701 0.0
H77 H 0.84566 0.25595 0.11665 0.0
H78 H 0.9033 0.1777 0.22137 0.0
H79 H 0.8523 0.3019 0.13209 0.0
Eu80 Eu 0.68693 0.31712 0.55933 0.0
Eu81 Eu 0.66953 0.29972 0.48052 0.0
C82 C 0.74878 0.29379 0.47037 0.0
C83 C 0.71805 0.34031 0.63758 0.0
C84 C 0.74945 0.34183 0.60798 0.0
C85 C 0.72761 0.35807 0.69282 0.0
C86 C 0.76993 0.35141 0.62089 0.0
C87 C 0.70725 0.34844 0.67994 0.0
C88 C 0.75915 0.35964 0.66346 0.0
C89 C 0.69668 0.32916 0.62596 0.0
O90 O 0.6932 0.24583 0.52699 0.0
O91 O 0.68561 0.26417 0.5894 0.0
C92 C 0.6931 0.23933 0.57005 0.0
O93 O 0.62683 0.33781 0.57207 0.0
O94 O 0.68468 0.27048 0.4296 0.0
O95 O 0.63163 0.31417 0.43991 0.0
O96 O 0.62425 0.30058 0.54135 0.0
C97 C 0.61003 0.32139 0.56975 0.0
O98 O 0.68859 0.36119 0.49861 0.0
O99 O 0.65459 0.3588 0.46081 0.0
O100 O 0.72471 0.29794 0.451 0.0
O101 O 0.67373 0.35328 0.60052 0.0
O102 O 0.71362 0.29837 0.61502 0.0
O103 O 0.74132 0.29591 0.51274 0.0
C104 C 0.63684 0.26602 0.41976 0.0
C105 C 0.6314 0.24086 0.45883 0.0
C106 C 0.60993 0.25081 0.38108 0.0
C107 C 0.61524 0.22079 0.45905 0.0
C108 C 0.62618 0.27082 0.38089 0.0
C109 C 0.60411 0.22569 0.42025 0.0
C110 C 0.65292 0.28783 0.41963 0.0
C111 C 0.67026 0.37504 0.46662 0.0
H112 H 0.75807 0.33556 0.57511 0.0
H113 H 0.71886 0.36395 0.72593 0.0
H114 H 0.79388 0.35289 0.59735 0.0
H115 H 0.68315 0.34711 0.70321 0.0
H116 H 0.63952 0.23687 0.48917 0.0
H117 H 0.60127 0.25555 0.35086 0.0
H118 H 0.6116 0.20133 0.48956 0.0
H119 H 0.63008 0.2903 0.35054 0.0
Eu120 Eu 0.68453 1.04033 0.73311 0.0
Eu121 Eu 0.69394 0.07047 0.80512 0.0
C122 C 0.61542 0.10204 0.77895 0.0
C123 C 0.6562 1.00818 0.66538 0.0
C124 C 0.62014 1.02459 0.68676 0.0
C125 C 0.63932 0.98659 0.622 0.0
C126 C 0.59371 1.0223 0.67552 0.0
C127 C 0.66577 0.98896 0.63325 0.0
C128 C 0.603 1.00345 0.64283 0.0
C129 C 0.68366 1.01193 0.67569 0.0
O130 O 0.68611 1.02175 0.84933 0.0
O131 O 0.66742 1.00949 0.80147 0.0
C132 C 0.67377 1.00348 0.84121 0.0
O133 O 0.74393 1.01883 0.73057 0.0
O134 O 0.67318 0.09065 0.86659 0.0
O135 O 0.72074 0.0944 0.81882 0.0
O136 O 0.74363 1.01901 0.80134 0.0
C137 C 0.75995 1.00628 0.76475 0.0
O138 O 0.68156 0.09403 0.69459 0.0
O139 O 0.71291 0.09781 0.73435 0.0
O140 O 0.63686 0.10436 0.79625 0.0
O141 O 0.67979 1.04436 0.66626 0.0
O142 O 0.69175 0.99412 0.71523 0.0
O143 O 0.62672 0.07797 0.75588 0.0
C144 C 0.71426 0.09388 0.89435 0.0
C145 C 0.7412 0.06042 0.90904 0.0
C146 C 0.72234 0.11812 0.94373 0.0
C147 C 0.75921 0.05604 0.94037 0.0
C148 C 0.70433 0.12242 0.91258 0.0
C149 C 0.75054 0.08512 0.95706 0.0
C150 C 0.69842 0.10066 0.85718 0.0
C151 C 0.69919 0.10881 0.69854 0.0
H152 H 0.61242 1.03964 0.71158 0.0
H153 H 0.64724 0.97166 0.59699 0.0
H154 H 0.56592 1.03609 0.69157 0.0
H155 H 0.69361 0.97612 0.6166 0.0
H156 H 0.74919 1.03818 0.89501 0.0
H157 H 0.71491 0.14083 0.95643 0.0
H158 H 0.78109 1.0304 0.94974 0.0
H159 H 0.6835 0.14841 0.90146 0.0
Eu160 Eu 0.45035 0.80516 0.31604 0.0
Eu161 Eu 0.4195 0.79914 0.24093 0.0
C162 C 0.38846 0.87559 0.26748 0.0
C163 C 0.46729 0.83072 0.40417 0.0
C164 C 0.4367 0.86346 0.40166 0.0
C165 C 0.48412 0.84608 0.45494 0.0
C166 C 0.43032 0.88779 0.42484 0.0
C167 C 0.49053 0.82181 0.43162 0.0
C168 C 0.45447 0.87967 0.45079 0.0
C169 C 0.47709 0.80728 0.375 0.0
O170 O 0.45641 0.82491 0.19858 0.0
O171 O 0.49122 0.80485 0.2502 0.0
C172 C 0.48599 0.81824 0.20852 0.0
O173 O 0.47404 0.74639 0.31881 0.0
O174 O 0.42505 0.78811 0.17758 0.0
O175 O 0.37302 0.80512 0.22311 0.0
O176 O 0.46988 0.74806 0.24912 0.0
C177 C 0.48413 0.73113 0.28516 0.0
O178 O 0.39477 0.80922 0.35009 0.0
O179 O 0.39544 0.77533 0.31091 0.0
O180 O 0.38667 0.85601 0.24704 0.0
O181 O 0.4577 0.79022 0.38534 0.0
O182 O 0.48383 0.82068 0.33164 0.0
O183 O 0.41159 0.86259 0.29354 0.0
C184 C 0.38575 0.76696 0.17847 0.0
C185 C 0.39648 0.73253 0.20616 0.0
C186 C 0.36857 0.74906 0.13103 0.0
C187 C 0.39392 0.70621 0.1957 0.0
C188 C 0.37104 0.7753 0.14157 0.0
C189 C 0.38082 0.71407 0.1573 0.0
C190 C 0.39163 0.79387 0.18592 0.0
C191 C 0.38177 0.79001 0.34589 0.0
H192 H 0.41851 0.87066 0.38054 0.0
H193 H 0.5033 0.83925 0.47438 0.0
H194 H 0.40699 0.91331 0.42155 0.0
H195 H 0.51436 0.79664 0.43363 0.0
H196 H 0.40792 0.72578 0.23484 0.0
H197 H 0.35809 0.75585 0.10149 0.0
H198 H 0.40387 0.67938 0.21622 0.0
H199 H 0.36251 0.80185 0.12005 0.0
Eu200 Eu 0.18699 0.81522 0.557 0.0
Eu201 Eu 0.17101 0.79487 0.48001 0.0
C202 C 0.24931 0.79083 0.46873 0.0
C203 C 0.21788 0.8404 0.63334 0.0
C204 C 0.24876 0.84261 0.60301 0.0
C205 C 0.22684 0.86021 0.68699 0.0
C206 C 0.26868 0.85359 0.61474 0.0
C207 C 0.20706 0.84918 0.67529 0.0
C208 C 0.25783 0.86256 0.65685 0.0
C209 C 0.19681 0.82831 0.62269 0.0
O210 O 0.19619 0.74196 0.52796 0.0
O211 O 0.18191 0.76418 0.58941 0.0
C212 C 0.19259 0.73747 0.57161 0.0
O213 O 0.12684 0.83688 0.56834 0.0
O214 O 0.18642 0.7625 0.43269 0.0
O215 O 0.13438 0.80813 0.43826 0.0
O216 O 0.12449 0.79823 0.53993 0.0
C217 C 0.10989 0.82029 0.56681 0.0
O218 O 0.18812 0.85897 0.49585 0.0
O219 O 0.15682 0.85397 0.45662 0.0
O220 O 0.22538 0.79473 0.44936 0.0
O221 O 0.17345 0.8519 0.59756 0.0
O222 O 0.2141 0.79737 0.61207 0.0
O223 O 0.24168 0.7928 0.51121 0.0
C224 C 0.13828 0.75925 0.4214 0.0
C225 C 0.13094 0.7356 0.46125 0.0
C226 C 0.11043 0.74482 0.38306 0.0
C227 C 0.11331 0.71671 0.46203 0.0
C228 C 0.12813 0.76364 0.38231 0.0
C229 C 0.10258 0.72132 0.42303 0.0
C230 C 0.15541 0.78033 0.42063 0.0
C231 C 0.17098 0.87145 0.46292 0.0
H232 H 0.25738 0.8359 0.57043 0.0
H233 H 0.21806 0.8666 0.71979 0.0
H234 H 0.2922 0.85561 0.59061 0.0
H235 H 0.18333 0.84737 0.69911 0.0
H236 H 0.1386 0.73198 0.49177 0.0
H237 H 0.10215 0.74933 0.35264 0.0
H238 H 0.10813 0.69845 0.49318 0.0
H239 H 0.13347 0.78198 0.35135 0.0
Eu240 Eu 0.18574 0.54033 0.72945 0.0
Eu241 Eu 0.19165 0.56692 0.80762 0.0
C242 C 0.11597 0.59864 0.78098 0.0
C243 C 0.15434 0.51331 0.65848 0.0
C244 C 0.11905 0.5256 0.68367 0.0
C245 C 0.13784 0.4929 0.61324 0.0
C246 C 0.09312 0.52188 0.67339 0.0
C247 C 0.16376 0.49672 0.62353 0.0
C248 C 0.10221 0.50569 0.63788 0.0
C249 C 0.18132 0.51815 0.66809 0.0
O250 O 0.19586 0.51168 0.83933 0.0
O251 O 0.16315 0.51231 0.79717 0.0
C252 C 0.17714 0.49877 0.83336 0.0
O253 O 0.24223 0.50514 0.73985 0.0
O254 O 0.18018 0.57052 0.87778 0.0
O255 O 0.20337 0.60303 0.82269 0.0
O256 O 0.24991 0.53025 0.78445 0.0
C257 C 0.26244 0.50669 0.76011 0.0
O258 O 0.21281 0.57646 0.69162 0.0
O259 O 0.18481 0.61031 0.74395 0.0
O260 O 0.13253 0.58574 0.81457 0.0
O261 O 0.17436 0.55099 0.66393 0.0
O262 O 0.19343 0.49712 0.70459 0.0
O263 O 0.13267 0.58831 0.74249 0.0
C264 C 0.21755 0.58708 0.89357 0.0
C265 C 0.25471 0.57474 0.87634 0.0
C266 C 0.22492 0.59398 0.96011 0.0
C267 C 0.27668 0.5729 0.90035 0.0
C268 C 0.20285 0.59622 0.9358 0.0
C269 C 0.26188 0.58298 0.9421 0.0
C270 C 0.1935 0.59327 0.86644 0.0
C271 C 0.20135 0.60653 0.70243 0.0
H272 H 0.1115 0.5385 0.71079 0.0
H273 H 0.14563 0.48005 0.58601 0.0
H274 H 0.06576 0.53252 0.69246 0.0
H275 H 0.19106 0.48699 0.604 0.0
H276 H 0.26661 0.56731 0.84389 0.0
H277 H 0.21298 0.60182 0.99229 0.0
H278 H 0.30525 0.5637 0.88623 0.0
H279 H 0.17419 0.60588 0.94946 0.0
Eu280 Eu 0.9057 0.51789 0.61765 0.0
Eu281 Eu -0.06657 0.56163 0.51715 0.0
C282 C 0.85617 0.56199 0.54352 0.0
C283 C 0.87299 0.45275 0.69864 0.0
C284 C 0.88481 0.43546 0.66345 0.0
C285 C 0.83011 0.42771 0.73643 0.0
C286 C 0.86894 0.41511 0.66419 0.0
C287 C 0.84614 0.44814 0.73566 0.0
C288 C 0.84072 0.41182 0.70003 0.0
C289 C 0.88492 0.47948 0.69285 0.0
O290 O 0.9234 0.5904 0.56805 0.0
O291 O 0.882 0.57434 0.62479 0.0
C292 C 0.89726 0.59603 0.60381 0.0
O293 O -0.0463 0.5201 0.62283 0.0
O294 O 0.92708 0.61153 0.46751 0.0
O295 O -0.02659 0.56256 0.45424 0.0
O296 O -0.01835 0.52239 0.54831 0.0
C297 C -0.01743 0.51627 0.59078 0.0
O298 O -0.06198 0.4794 0.57104 0.0
O299 O -0.06987 0.51841 0.50225 0.0
O300 O 0.87418 0.58125 0.52353 0.0
O301 O 0.9187 0.47149 0.67371 0.0
O302 O 0.86362 0.51195 0.67574 0.0
O303 O 0.86714 0.5331 0.57522 0.0
C304 C -0.01732 0.61326 0.43697 0.0
C305 C -0.00325 0.6068 0.47378 0.0
C306 C 0.01034 0.65319 0.39267 0.0
C307 C 0.01717 0.62361 0.47027 0.0
C308 C -0.01024 0.6363 0.39626 0.0
C309 C 0.02383 0.64736 0.42991 0.0
C310 C -0.04094 0.59726 0.44284 0.0
C311 C -0.06257 0.48638 0.52807 0.0
H312 H 0.90507 0.43918 0.63414 0.0
H313 H 0.8086 0.42538 0.76466 0.0
H314 H 0.87733 0.40382 0.63524 0.0
H315 H 0.83646 0.46162 0.76285 0.0
H316 H -0.00859 0.58914 0.50557 0.0
H317 H 0.01483 0.67156 0.36126 0.0
H318 H 0.02763 0.61812 0.4993 0.0
H319 H -0.02113 0.64172 0.36767 0.0
Eu320 Eu 0.18657 0.31543 0.05776 0.0
Eu321 Eu 0.16995 0.29563 0.98076 0.0
C322 C 0.24857 0.291 0.96922 0.0
C323 C 0.21798 0.33971 0.13453 0.0
C324 C 0.24849 0.34257 0.10388 0.0
C325 C 0.22747 0.35855 0.18874 0.0
C326 C 0.26847 0.3534 0.11572 0.0
C327 C 0.20763 0.34766 0.17692 0.0
C328 C 0.25807 0.36158 0.15826 0.0
C329 C 0.19678 0.3279 0.12366 0.0
O330 O 0.19512 0.24258 1.02846 0.0
O331 O 0.18104 0.2646 0.08999 0.0
C332 C 0.19158 0.23797 0.07212 0.0
O333 O 0.12638 0.3377 0.06909 0.0
O334 O 0.18472 0.26351 0.93342 0.0
O335 O 0.13284 0.30929 0.93945 0.0
O336 O 0.12353 0.29927 0.04084 0.0
C337 C 0.10919 0.32133 0.06767 0.0
O338 O 0.18793 0.35922 0.99674 0.0
O339 O 0.15659 0.35456 0.95715 0.0
O340 O 0.22453 0.29496 0.94999 0.0
O341 O 0.17339 0.35172 0.09868 0.0
O342 O 0.21396 0.29708 0.11271 0.0
O343 O 0.2411 0.29302 1.01166 0.0
C344 C 0.13613 0.26062 0.92273 0.0
C345 C 0.1292 0.23668 0.96249 0.0
C346 C 0.1076 0.24659 0.88485 0.0
C347 C 0.11149 0.2178 0.96344 0.0
C348 C 0.12539 0.26538 0.88393 0.0
C349 C 0.10025 0.22272 0.9247 0.0
C350 C 0.15356 0.28151 0.92172 0.0
C351 C 0.17096 0.37181 0.96362 0.0
H352 H 0.25674 0.3365 0.07095 0.0
H353 H 0.21905 0.36433 0.22186 0.0
H354 H 0.29167 0.35596 0.09135 0.0
H355 H 0.18419 0.34535 0.20098 0.0
H356 H 0.13732 0.23275 0.9928 0.0
H357 H 0.0989 0.25137 0.85465 0.0
H358 H 0.1067 0.19928 0.99448 0.0
H359 H 0.13039 0.28396 0.85306 0.0
Eu360 Eu 0.18451 1.04069 0.2292 0.0
Eu361 Eu 0.18974 0.06737 0.30777 0.0
C362 C 0.11444 0.09915 0.28017 0.0
C363 C 0.15395 1.01296 0.15806 0.0
C364 C 0.11882 1.02433 0.1838 0.0
C365 C 0.13786 0.99247 0.11243 0.0
C366 C 0.09317 1.02012 0.17362 0.0
C367 C 0.1635 0.99677 0.12263 0.0
C368 C 0.10238 1.00434 0.13765 0.0
C369 C 0.18061 1.01829 0.16763 0.0
O370 O 0.19438 1.012 0.33907 0.0
O371 O 0.16187 1.01251 0.29677 0.0
C372 C 0.17581 0.99898 0.33299 0.0
O373 O 0.24101 1.00574 0.23979 0.0
O374 O 0.17765 0.07087 0.37812 0.0
O375 O 0.20109 0.10344 0.32357 0.0
O376 O 0.24814 1.03067 0.28515 0.0
C377 C 0.26096 1.00719 0.26057 0.0
O378 O 0.21148 0.07693 0.19163 0.0
O379 O 0.18339 0.11073 0.24406 0.0
O380 O 0.13072 0.08609 0.31406 0.0
O381 O 0.17312 0.05125 0.1637 0.0
O382 O 0.19293 0.99732 0.20401 0.0
O383 O 0.1314 0.08882 0.24171 0.0
C384 C 0.21489 0.08708 0.39479 0.0
C385 C 0.25203 0.07501 0.37764 0.0
C386 C 0.222 0.09327 0.46203 0.0
C387 C 0.27385 0.07305 0.40197 0.0
C388 C 0.20007 0.09567 0.43737 0.0
C389 C 0.25891 0.08269 0.444 0.0
C390 C 0.19099 0.09355 0.36725 0.0
C391 C 0.2 0.10696 0.20255 0.0
H392 H 0.11117 1.03691 0.2113 0.0
H393 H 0.14573 0.97997 0.08481 0.0
H394 H 0.0659 1.03009 0.19315 0.0
H395 H 0.19069 0.98774 0.10267 0.0
H396 H 0.26404 0.06797 0.34495 0.0
H397 H 0.21 0.10075 0.49444 0.0
H398 H 0.30239 0.0642 0.38785 0.0
H399 H 0.17142 0.10508 0.45099 0.0
Eu400 Eu 0.45022 0.30385 0.81551 0.0
Eu401 Eu 0.41849 0.29832 0.7409 0.0
C402 C 0.38906 0.37472 0.76679 0.0
C403 C 0.46773 0.32939 0.90312 0.0
C404 C 0.43805 0.36281 0.89916 0.0
C405 C 0.48413 0.34412 0.95504 0.0
C406 C 0.43194 0.38712 0.9222 0.0
C407 C 0.49029 0.31987 0.93184 0.0
C408 C 0.45543 0.37831 0.94952 0.0
C409 C 0.47728 0.30569 0.87438 0.0
O410 O 0.45622 0.32299 0.69806 0.0
O411 O 0.49112 0.30299 0.74958 0.0
C412 C 0.48593 0.31609 0.70787 0.0
O413 O 0.47305 0.24518 0.81842 0.0
O414 O 0.42297 0.28742 0.67798 0.0
O415 O 0.37109 0.30597 0.72351 0.0
O416 O 0.46811 0.24641 0.74934 0.0
C417 C 0.4825 0.2296 0.78529 0.0
O418 O 0.39438 0.3086 0.84969 0.0
O419 O 0.39449 0.27474 0.811 0.0
O420 O 0.38663 0.35528 0.7468 0.0
O421 O 0.45743 0.28908 0.88487 0.0
O422 O 0.48443 0.3186 0.83094 0.0
O423 O 0.41234 0.36148 0.79266 0.0
C424 C 0.38193 0.26813 0.6797 0.0
C425 C 0.39371 0.23326 0.70604 0.0
C426 C 0.3611 0.25203 0.63443 0.0
C427 C 0.38995 0.20759 0.69585 0.0
C428 C 0.36481 0.27763 0.64468 0.0
C429 C 0.37455 0.21657 0.65908 0.0
C430 C 0.38918 0.29433 0.68651 0.0
C431 C 0.38108 0.28953 0.84583 0.0
H432 H 0.42037 0.3705 0.87709 0.0
H433 H 0.5028 0.33672 0.97557 0.0
H434 H 0.40933 0.41311 0.91783 0.0
H435 H 0.51341 0.29417 0.93503 0.0
H436 H 0.40695 0.22566 0.7333 0.0
H437 H 0.34885 0.25967 0.60619 0.0
H438 H 0.40087 0.18038 0.71506 0.0
H439 H 0.35541 0.30456 0.62429 0.0
Eu440 Eu -0.04808 0.8045 0.81498 0.0
Eu441 Eu 0.9194 0.79665 0.7429 0.0
C442 C 0.88807 0.87364 0.76773 0.0
C443 C -0.03105 0.83166 0.90157 0.0
C444 C -0.0629 0.86331 0.9011 0.0
C445 C -0.01515 0.84723 0.95314 0.0
C446 C -0.07043 0.88721 0.92575 0.0
C447 C -0.0076 0.8234 0.92835 0.0
C448 C -0.04621 0.87977 0.95121 0.0
C449 C -0.0206 0.80859 0.87149 0.0
O450 O -0.0434 0.82145 0.69763 0.0
O451 O -0.00848 0.80466 0.74798 0.0
C452 C -0.01398 0.81625 0.70648 0.0
O453 O -0.02376 0.74546 0.81873 0.0
O454 O 0.92338 0.78351 0.6819 0.0
O455 O 0.87171 0.80316 0.72747 0.0
O456 O -0.03032 0.74558 0.75117 0.0
C457 C -0.01495 0.72945 0.78628 0.0
O458 O 0.89678 0.80825 0.85139 0.0
O459 O 0.89626 0.77378 0.81415 0.0
O460 O 0.8871 0.85393 0.74676 0.0
O461 O -0.03779 0.78921 0.8828 0.0
O462 O -0.01628 0.82328 0.8283 0.0
O463 O 0.91099 0.86108 0.79394 0.0
C464 C 0.88179 0.76387 0.6863 0.0
C465 C 0.89569 0.72864 0.71124 0.0
C466 C 0.85737 0.74779 0.64551 0.0
C467 C 0.89124 0.70282 0.70242 0.0
C468 C 0.8618 0.77351 0.65437 0.0
C469 C 0.87298 0.71202 0.66846 0.0
C470 C 0.88953 0.79045 0.69121 0.0
C471 C 0.88325 0.78902 0.84852 0.0
H472 H 0.91868 0.87001 0.88059 0.0
H473 H 0.00413 0.84092 0.97211 0.0
H474 H 0.9052 0.91188 0.92412 0.0
H475 H 0.01717 0.79907 0.92887 0.0
H476 H 0.91109 0.72092 0.7362 0.0
H477 H 0.84291 0.7556 0.61947 0.0
H478 H 0.90383 0.67539 0.72027 0.0
H479 H 0.85068 0.80072 0.63515 0.0
Eu480 Eu 0.68587 0.54183 0.23098 0.0
Eu481 Eu 0.69122 0.56967 0.30842 0.0
C482 C 0.61597 0.60107 0.28032 0.0
C483 C 0.65553 0.5112 0.16281 0.0
C484 C 0.61963 0.52504 0.1858 0.0
C485 C 0.64107 0.48644 0.12081 0.0
C486 C 0.59439 0.52008 0.17581 0.0
C487 C 0.66628 0.49153 0.13075 0.0
C488 C 0.60479 0.50105 0.14285 0.0
C489 C 0.68185 0.51755 0.17154 0.0
O490 O 0.69536 0.51475 0.34193 0.0
O491 O 0.6633 0.51454 0.29957 0.0
C492 C 0.67699 0.50148 0.33596 0.0
O493 O 0.74278 0.50789 0.23996 0.0
O494 O 0.67328 0.57986 0.37611 0.0
O495 O 0.70824 0.60177 0.32376 0.0
O496 O 0.74912 0.53003 0.28943 0.0
C497 C 0.76224 0.50777 0.26297 0.0
O498 O 0.71246 0.57826 0.1917 0.0
O499 O 0.68565 0.61217 0.24396 0.0
O500 O 0.63221 0.58853 0.31413 0.0
O501 O 0.67406 0.55079 0.16638 0.0
O502 O 0.69438 0.49737 0.20801 0.0
O503 O 0.63295 0.59026 0.24221 0.0
C504 C 0.71031 0.59225 0.39912 0.0
C505 C 0.73825 0.55897 0.41179 0.0
C506 C 0.72209 0.6167 0.44451 0.0
C507 C 0.75835 0.55469 0.44045 0.0
C508 C 0.70195 0.62088 0.4161 0.0
C509 C 0.75083 0.58373 0.45637 0.0
C510 C 0.69104 0.59854 0.36592 0.0
C511 C 0.70186 0.60812 0.20247 0.0
H512 H 0.61106 0.54023 0.21079 0.0
H513 H 0.64989 0.47136 0.09564 0.0
H514 H 0.56655 0.53214 0.19284 0.0
H515 H 0.69407 0.4805 0.11304 0.0
H516 H 0.74508 0.53671 0.39858 0.0
H517 H 0.71558 0.63937 0.45664 0.0
H518 H 0.78065 0.5291 0.44868 0.0
H519 H 0.6804 0.64674 0.40644 0.0
Eu520 Eu 0.68873 0.81651 0.06244 0.0
Eu521 Eu 0.67149 0.79878 0.98418 0.0
C522 C 0.75011 0.7937 0.97283 0.0
C523 C 0.7211 0.83703 0.14236 0.0
C524 C 0.75258 0.83864 0.11318 0.0
C525 C 0.73039 0.854 0.19864 0.0
C526 C 0.77294 0.84794 0.12679 0.0
C527 C 0.71016 0.84464 0.18506 0.0
C528 C 0.76193 0.85581 0.16963 0.0
C529 C 0.69958 0.82657 0.12983 0.0
O530 O 0.69716 0.74496 1.03023 0.0
O531 O 0.68324 0.7656 0.09288 0.0
C532 C 0.69394 0.73947 0.07398 0.0
O533 O 0.62846 0.83819 0.07491 0.0
O534 O 0.68694 0.76871 0.9341 0.0
O535 O 0.6338 0.81234 0.94374 0.0
O536 O 0.62543 0.80112 0.04432 0.0
C537 C 0.61117 0.8224 0.07215 0.0
O538 O 0.68872 0.86195 1.0032 0.0
O539 O 0.65683 0.85797 0.9637 0.0
O540 O 0.72563 0.79893 0.95336 0.0
O541 O 0.67637 0.85133 0.10506 0.0
O542 O 0.71636 0.79626 0.11763 0.0
O543 O 0.74309 0.79464 1.01563 0.0
C544 C 0.63946 0.76362 0.92432 0.0
C545 C 0.63354 0.73893 0.96375 0.0
C546 C 0.61399 0.74702 0.88538 0.0
C547 C 0.61787 0.7184 0.96401 0.0
C548 C 0.62973 0.7675 0.88516 0.0
C549 C 0.60774 0.72232 0.92487 0.0
C550 C 0.65527 0.78576 0.92393 0.0
C551 C 0.67087 0.87525 0.97083 0.0
H552 H 0.7613 0.83277 0.08005 0.0
H553 H 0.72147 0.85961 0.23194 0.0
H554 H 0.79688 0.84962 0.10352 0.0
H555 H 0.68599 0.84323 0.20802 0.0
H556 H 0.64097 0.73563 0.9943 0.0
H557 H 0.60608 0.75104 0.85488 0.0
H558 H 0.61386 0.6993 0.99479 0.0
H559 H 0.63403 0.78658 0.85451 0.0
Eu560 Eu 0.40643 1.0221 0.61068 0.0
Eu561 Eu 0.43954 0.06208 0.51054 0.0
C562 C 0.36085 0.06638 0.53195 0.0
C563 C 0.36896 0.96016 0.68993 0.0
C564 C 0.38069 0.94331 0.65433 0.0
C565 C 0.32595 0.9352 0.72696 0.0
C566 C 0.36486 0.92306 0.65459 0.0
C567 C 0.34195 0.95552 0.72667 0.0
C568 C 0.33675 0.91942 0.69038 0.0
C569 C 0.38173 0.98603 0.68516 0.0
O570 O 0.42731 0.09293 0.56019 0.0
O571 O 0.3841 0.0788 0.61577 0.0
C572 C 0.40028 0.0997 0.5949 0.0
O573 O 0.45395 1.02331 0.61927 0.0
O574 O 0.43642 0.1102 0.45857 0.0
O575 O 0.48247 0.05983 0.45037 0.0
O576 O 0.48517 1.02247 0.54626 0.0
C577 C 0.48405 1.01784 0.58911 0.0
O578 O 0.43971 0.98198 0.5664 0.0
O579 O 0.43494 1.01938 0.49626 0.0
O580 O 0.38086 0.08362 0.51175 0.0
O581 O 0.41602 0.97664 0.6683 0.0
O582 O 0.36197 1.01864 0.66639 0.0
O583 O 0.36913 1.03859 0.56576 0.0
C584 C 0.49277 0.11028 0.43076 0.0
C585 C 0.50715 0.10348 0.46744 0.0
C586 C 0.51846 0.15199 0.38754 0.0
C587 C 0.52674 0.12103 0.4644 0.0
C588 C 0.49878 0.13433 0.39063 0.0
C589 C 0.53211 0.14593 0.42472 0.0
C590 C 0.4691 0.09441 0.43643 0.0
C591 C 0.44033 0.98803 0.52324 0.0
H592 H 0.40102 0.94711 0.62521 0.0
H593 H 0.3045 0.93263 0.75514 0.0
H594 H 0.37338 0.91189 0.62549 0.0
H595 H 0.33234 0.96866 0.75418 0.0
H596 H 0.50251 0.08516 0.49886 0.0
H597 H 0.52192 0.17125 0.35667 0.0
H598 H 0.53735 0.11539 0.49336 0.0
H599 H 0.48751 0.14011 0.36222 0.0
Eu600 Eu 0.40865 0.52014 0.11061 0.0
Eu601 Eu 0.4436 0.55871 1.01072 0.0
C602 C 0.36412 0.56516 1.03084 0.0
C603 C 0.3692 0.45978 0.18969 0.0
C604 C 0.38021 0.44353 0.15372 0.0
C605 C 0.32665 0.43432 0.22756 0.0
C606 C 0.36432 0.42326 0.15428 0.0
C607 C 0.34274 0.45467 0.22698 0.0
C608 C 0.33686 0.41899 0.19075 0.0
C609 C 0.38251 0.4852 0.18503 0.0
O610 O 0.43285 0.58865 0.06071 0.0
O611 O 0.38813 0.57664 0.11544 0.0
C612 C 0.40561 0.59639 0.09496 0.0
O613 O 0.45719 0.51915 0.11956 0.0
O614 O 0.44158 0.60648 0.95861 0.0
O615 O 0.48747 0.5558 0.95157 0.0
O616 O 0.4885 0.51728 0.04678 0.0
C617 C 0.48746 0.51256 0.08961 0.0
O618 O 0.44079 0.47974 0.06656 0.0
O619 O 0.43804 0.51679 0.99594 0.0
O620 O 0.38492 0.58158 1.01075 0.0
O621 O 0.41695 0.4751 0.16875 0.0
O622 O 0.36341 0.51788 0.16567 0.0
O623 O 0.37153 0.5376 0.06507 0.0
C624 C 0.49821 0.60596 0.93255 0.0
C625 C 0.51153 0.59956 0.97001 0.0
C626 C 0.52479 0.64703 0.88999 0.0
C627 C 0.53102 0.61702 0.9677 0.0
C628 C 0.50521 0.62948 0.89237 0.0
C629 C 0.53737 0.6414 0.92793 0.0
C630 C 0.47451 0.59034 0.93734 0.0
C631 C 0.44215 0.48575 1.02314 0.0
H632 H 0.40011 0.44771 0.12421 0.0
H633 H 0.30568 0.43129 0.25624 0.0
H634 H 0.37233 0.41248 0.12498 0.0
H635 H 0.33369 0.46735 0.2548 0.0
H636 H 0.50612 0.58165 1.00147 0.0
H637 H 0.52899 0.66589 0.85903 0.0
H638 H 0.54077 0.61171 0.99726 0.0
H639 H 0.49476 0.63497 0.86333 0.0
C640 C 0.89367 0.15593 0.09147 0.0
C641 C 0.88759 0.12716 0.12244 0.0
H642 H 0.89403 0.20551 0.08161 0.0
C643 C 0.87438 0.12789 0.16856 0.0
H644 H 0.90368 0.15617 0.05564 0.0
C645 C 0.86902 0.15635 0.18359 0.0
C646 C 0.87611 0.18464 0.15252 0.0
H647 H 0.86961 0.10593 0.19308 0.0
H648 H 0.85988 0.15602 0.21944 0.0
C649 C 0.88786 0.18437 0.10628 0.0
C650 C 0.79689 0.27736 0.40151 0.0
C651 C 0.78491 0.28914 0.4418 0.0
H652 H 0.83712 0.2678 0.34083 0.0
C653 C 0.8066 0.29885 0.4525 0.0
H654 H 0.78094 0.26953 0.39229 0.0
C655 C 0.83872 0.29828 0.42258 0.0
C656 C 0.85016 0.28743 0.38168 0.0
H657 H 0.79811 0.30822 0.48312 0.0
H658 H 0.85424 0.30698 0.43115 0.0
C659 C 0.82922 0.27625 0.37202 0.0
C660 C 0.69172 0.14931 0.62154 0.0
C661 C 0.70187 0.13987 0.66292 0.0
H662 H 0.68152 0.18801 0.55913 0.0
C663 C 0.71223 0.16183 0.6712 0.0
H664 H 0.68375 0.13284 0.614 0.0
C665 C 0.71064 0.19343 0.64001 0.0
C666 C 0.69911 0.20362 0.59952 0.0
H667 H 0.72025 0.15538 0.70259 0.0
H668 H 0.71768 0.21035 0.64817 0.0
C669 C 0.6906 0.18079 0.58996 0.0
C670 C 0.80946 0.04677 0.04184 0.0
C671 C 0.82372 0.07149 1.02889 0.0
H672 H 0.77486 1.03182 1.02932 0.0
C673 C 0.81089 0.10242 0.99536 0.0
H674 H 0.8187 1.02267 0.06766 0.0
C675 C 0.78576 0.10759 0.97353 0.0
C676 C 0.77311 0.08187 0.98468 0.0
H677 H 0.82125 0.12201 0.9847 0.0
H678 H 0.77762 0.13088 0.94633 0.0
C679 C 0.78452 0.05184 1.01977 0.0
C680 C 0.04306 1.01391 0.06843 0.0
C681 C 0.01572 1.00709 0.10264 0.0
H682 H 0.0918 1.01888 0.05283 0.0
C683 C 0.01906 0.99574 0.14802 0.0
H684 H 0.04115 1.02279 1.03315 0.0
C685 C 0.04821 0.99316 0.15923 0.0
C686 C 0.07442 1.00212 0.1253 0.0
H687 H -0.00141 0.98988 0.17507 0.0
H688 H 0.04971 0.98509 0.19459 0.0
C689 C 0.07213 1.01156 0.07969 0.0
C690 C -0.06242 0.46685 0.46466 0.0
C691 C -0.05698 0.45821 0.50863 0.0
H692 H -0.06263 0.44846 0.41221 0.0
C693 C -0.04757 0.42298 0.53393 0.0
H694 H -0.0698 0.49372 0.44421 0.0
C695 C -0.04365 0.39696 0.51548 0.0
C696 C -0.04935 0.4058 0.4716 0.0
H697 H -0.04328 0.41549 0.56794 0.0
H698 H -0.03651 0.37003 0.53568 0.0
C699 C -0.0587 0.44098 0.44641 0.0
C700 C 0.55165 0.31634 0.59454 0.0
C701 C 0.57621 0.32359 0.60307 0.0
H702 H 0.50323 0.30921 0.62068 0.0
C703 C 0.56953 0.33045 0.64541 0.0
H704 H 0.55611 0.31089 0.56229 0.0
C705 C 0.53983 0.32864 0.67908 0.0
C706 C 0.51557 0.32088 0.67084 0.0
H707 H 0.58805 0.33582 0.65324 0.0
H708 H 0.53605 0.33295 0.71182 0.0
C709 C 0.52134 0.3155 0.62789 0.0
C710 C 0.6544 0.95422 0.86994 0.0
C711 C 0.66923 0.97307 0.87697 0.0
H712 H 0.64301 0.90895 0.8939 0.0
C713 C 0.6822 0.96077 0.91685 0.0
H714 H 0.64403 0.96291 0.83972 0.0
C715 C 0.68172 0.92964 0.94792 0.0
C716 C 0.66811 0.91008 0.94004 0.0
H717 H 0.69385 0.97449 0.92344 0.0
H718 H 0.69285 0.92049 0.97762 0.0
C719 C 0.65378 0.92319 0.9011 0.0
C720 C 0.05061 0.31656 0.09362 0.0
C721 C 0.07518 0.32438 0.10109 0.0
H722 H 0.00233 0.30918 0.12108 0.0
C723 C 0.06853 0.33226 0.14274 0.0
H724 H 0.05505 0.3103 0.06195 0.0
C725 C 0.03892 0.33076 0.17687 0.0
C726 C 0.01473 0.3223 0.16977 0.0
H727 H 0.08707 0.33807 0.14977 0.0
H728 H 0.03523 0.33576 0.20913 0.0
C729 C 0.02038 0.31603 0.12741 0.0
C730 C 0.65564 0.45345 0.36461 0.0
C731 C 0.67263 0.47064 0.37067 0.0
H732 H 0.64132 0.40991 0.39017 0.0
C733 C 0.68685 0.45722 0.40977 0.0
H734 H 0.64437 0.46308 0.33491 0.0
C735 C 0.68508 0.42689 0.44135 0.0
C736 C 0.66902 0.40905 0.43481 0.0
H737 H 0.7 0.46977 0.41579 0.0
H738 H 0.69699 0.41709 0.47055 0.0
C739 C 0.65385 0.42298 0.39636 0.0
C740 C 0.54658 1.01185 0.57026 0.0
C741 C 0.51641 1.00971 0.60296 0.0
H742 H 0.59752 1.01198 0.55727 0.0
C743 C 0.51632 1.00249 0.64902 0.0
H744 H 0.54742 1.0175 0.53447 0.0
C745 C 0.54512 0.99905 0.66206 0.0
C746 C 0.57452 1.00291 0.62929 0.0
H747 H 0.49359 1.00037 0.67505 0.0
H748 H 0.54406 0.99406 0.69779 0.0
C749 C 0.57536 1.00856 0.58332 0.0
C750 C -0.06616 0.96825 0.96693 0.0
C751 C -0.05997 0.9592 1.0106 0.0
H752 H -0.06663 0.95034 0.91418 0.0
C753 C -0.04982 0.92373 1.03522 0.0
H754 H 0.9258 0.99533 0.94704 0.0
C755 C -0.04564 0.89784 1.01627 0.0
C756 C -0.05187 0.90704 0.97257 0.0
H757 H -0.04498 0.91591 0.069 0.0
H758 H -0.03777 0.87068 1.03587 0.0
C759 C -0.06222 0.94252 0.94821 0.0
C760 C 0.03507 0.18141 0.96615 0.0
C761 C 0.04196 0.16746 0.92941 0.0
H762 H 0.04754 0.21019 0.99318 0.0
C763 C 0.068 0.17203 0.89083 0.0
H764 H 0.01469 0.17892 0.99604 0.0
C765 C 0.08702 0.18985 0.88926 0.0
C766 C 0.08027 0.20361 0.92618 0.0
H767 H 0.07414 0.16126 0.86218 0.0
H768 H 0.1074 0.19238 0.8594 0.0
C769 C 0.05396 0.19929 0.96455 0.0
C770 C 0.56217 0.64456 0.32333 0.0
C771 C 0.57919 0.63099 0.28387 0.0
H772 H 0.51892 0.68641 0.35489 0.0
C773 C 0.56236 0.64869 0.24653 0.0
H774 H 0.57415 0.63162 0.3529 0.0
C775 C 0.53044 0.68027 0.24775 0.0
C776 C 0.51463 0.69496 0.28629 0.0
H777 H 0.5746 0.63903 0.21561 0.0
H778 H 0.51904 0.69393 0.2177 0.0
C779 C 0.53038 0.67612 0.32449 0.0
C780 C 0.25994 0.90482 0.68864 0.0
C781 C 0.2782 0.87523 0.66889 0.0
H782 H 0.26415 0.94203 0.71078 0.0
C783 C 0.31593 0.85848 0.65969 0.0
H784 H 0.23086 0.91849 0.69568 0.0
C785 C 0.33504 0.87178 0.66872 0.0
C786 C 0.31678 0.90221 0.68689 0.0
H787 H 0.33069 0.83523 0.64522 0.0
H788 H 0.36414 0.85862 0.66071 0.0
C789 C 0.27902 0.9182 0.69752 0.0
C790 C 0.03172 0.67464 0.82523 0.0
C791 C 0.0153 0.69313 0.78757 0.0
H792 H 0.07578 0.63016 0.85307 0.0
C793 C 0.03013 0.6779 0.7496 0.0
H794 H 0.02098 0.68535 0.85519 0.0
C795 C 0.06182 0.64613 0.74827 0.0
C796 C 0.07934 0.62872 0.78498 0.0
H797 H 0.0182 0.69129 0.71998 0.0
H798 H 0.07333 0.63604 0.71772 0.0
C799 C 0.06323 0.64283 0.824 0.0
C800 C 0.76256 0.40014 0.69687 0.0
C801 C 0.78016 0.37082 0.67674 0.0
H802 H 0.76796 0.43611 0.71992 0.0
C803 C 0.81785 0.35302 0.66818 0.0
H804 H 0.73353 0.41458 0.70344 0.0
C805 C 0.83761 0.36516 0.67803 0.0
C806 C 0.82004 0.39543 0.69639 0.0
H807 H 0.83206 0.32995 0.65342 0.0
H808 H 0.86668 0.35132 0.67034 0.0
C809 C 0.7823 0.41235 0.70656 0.0
C810 C 0.31487 0.96186 0.22198 0.0
C811 C 0.29831 0.97862 0.2586 0.0
H812 H 0.35661 0.91672 0.19585 0.0
C813 C 0.31535 0.96401 0.29553 0.0
H814 H 0.30276 0.97262 0.19275 0.0
C815 C 0.34664 0.93152 0.29734 0.0
C816 C 0.36115 0.91331 0.26227 0.0
H817 H 0.30315 0.97625 0.32435 0.0
H818 H 0.35787 0.91952 0.32746 0.0
C819 C 0.34579 0.92971 0.2238 0.0
C820 C 0.3169 0.46337 0.79473 0.0
C821 C 0.29975 0.47811 0.7579 0.0
H822 H 0.35929 0.4186 0.82658 0.0
C823 C 0.31607 0.46142 0.72124 0.0
H824 H 0.30486 0.47557 0.82357 0.0
C825 C 0.34681 0.42913 0.723 0.0
C826 C 0.36221 0.41257 0.76144 0.0
H827 H 0.30385 0.47232 0.69208 0.0
H828 H 0.35742 0.41615 0.69508 0.0
C829 C 0.34801 0.43074 0.79648 0.0
C830 C 0.06841 0.83222 0.64119 0.0
C831 C 0.0758 0.82325 0.60007 0.0
H832 H 0.03454 0.83661 0.70713 0.0
C833 C 0.05186 0.81435 0.59302 0.0
H834 H 0.08641 0.83892 0.64793 0.0
C835 C 0.0216 0.81379 0.62673 0.0
C836 C 0.01524 0.82116 0.66862 0.0
H837 H 0.05685 0.80723 0.56175 0.0
H838 H 0.00408 0.80606 0.62077 0.0
C839 C 0.03876 0.83074 0.67525 0.0
C840 C 0.15645 0.94951 0.36018 0.0
C841 C 0.17186 0.96778 0.36725 0.0
H842 H 0.14391 0.90478 0.38481 0.0
C843 C 0.18501 0.95509 0.40706 0.0
H844 H 0.14606 0.95854 0.32989 0.0
C845 C 0.18374 0.92451 0.43838 0.0
C846 C 0.1693 0.90557 0.43092 0.0
H847 H 0.19689 0.96849 0.41391 0.0
H848 H 0.19474 0.91543 0.46818 0.0
C849 C 0.1552 0.91869 0.3917 0.0
C850 C 0.86829 0.6551 0.68317 0.0
C851 C 0.87456 0.68397 0.65259 0.0
H852 H 0.86987 0.60446 0.69152 0.0
C853 C 0.88549 0.6847 0.60609 0.0
H854 H 0.8598 0.65403 0.71922 0.0
C855 C 0.89152 0.65653 0.59051 0.0
C856 C 0.88644 0.62711 0.62099 0.0
H857 H 0.891 0.70633 0.58178 0.0
H858 H 0.90102 0.65743 0.5545 0.0
C859 C 0.87385 0.62695 0.66738 0.0
C860 C 0.30666 0.79669 0.45106 0.0
C861 C 0.28528 0.78678 0.44008 0.0
H862 H 0.35374 0.80573 0.42989 0.0
C863 C 0.29731 0.77557 0.39933 0.0
H864 H 0.29813 0.80563 0.48202 0.0
C865 C 0.32934 0.77526 0.36968 0.0
C866 C 0.34992 0.78667 0.37966 0.0
H867 H 0.28159 0.76762 0.38986 0.0
H868 H 0.33727 0.76724 0.33816 0.0
C869 C 0.33847 0.7969 0.42103 0.0
C870 C 0.19695 0.16747 0.18108 0.0
C871 C 0.20202 0.1385 0.16748 0.0
H872 H 0.19023 0.2208 0.16203 0.0
C873 C 0.20612 0.14141 0.12117 0.0
H874 H 0.19403 0.16606 0.21637 0.0
C875 C 0.20362 0.17339 0.08945 0.0
C876 C 0.1972 0.2028 0.10362 0.0
H877 H 0.20994 0.11951 0.1097 0.0
H878 H 0.20578 0.17535 0.05423 0.0
C879 C 0.19471 0.19903 0.14969 0.0
C880 C 0.8084 0.7981 0.95418 0.0
C881 C 0.78624 0.7887 0.944 0.0
H882 H 0.85633 0.80584 0.93189 0.0
C883 C 0.7977 0.77689 0.90384 0.0
H884 H 0.8003 0.80746 0.98472 0.0
C885 C 0.82994 0.77553 0.87389 0.0
C886 C 0.85132 0.7865 0.88294 0.0
H887 H 0.78138 0.76925 0.89506 0.0
H888 H 0.83739 0.76711 0.8428 0.0
C889 C 0.84044 0.79731 0.92378 0.0
C890 C 0.19823 0.66708 0.68071 0.0
C891 C 0.20329 0.63805 0.66726 0.0
H892 H 0.19145 0.72045 0.66145 0.0
C893 C 0.20734 0.64087 0.62098 0.0
H894 H 0.19536 0.66573 0.71596 0.0
C895 C 0.20477 0.67283 0.58917 0.0
C896 C 0.19834 0.7023 0.6032 0.0
H897 H 0.21116 0.61892 0.60963 0.0
H898 H 0.20688 0.67473 0.55399 0.0
C899 C 0.19592 0.69862 0.64922 0.0
C900 C 0.28217 0.0638 0.51389 0.0
C901 C 0.282 0.08201 0.46845 0.0
H902 H 0.30736 1.04469 0.56993 0.0
C903 C 0.30528 0.09826 0.44563 0.0
H904 H 0.26439 0.0511 0.53211 0.0
C905 C 0.32953 0.09502 0.46727 0.0
C906 C 0.33122 0.07504 0.51193 0.0
H907 H 0.30521 0.11286 0.4107 0.0
H908 H 0.34803 0.10677 0.44824 0.0
C909 C 0.30676 0.06014 0.53541 0.0
C910 C 0.82021 0.84982 0.17488 0.0
C911 C 0.78251 0.86722 0.18335 0.0
H912 H 0.86864 0.84903 0.17683 0.0
C913 C 0.76447 0.8966 0.20345 0.0
H914 H 0.83475 0.82671 0.16016 0.0
C915 C 0.78379 0.90938 0.21294 0.0
C916 C 0.82154 0.89298 0.20263 0.0
H917 H 0.73541 0.91073 0.20998 0.0
H918 H 0.7691 0.93325 0.22611 0.0
C919 C 0.83955 0.86251 0.18457 0.0
C920 C 0.59345 0.19169 0.38355 0.0
C921 C 0.58579 0.20522 0.42105 0.0
H922 H 0.58277 0.16201 0.35542 0.0
C923 C 0.56019 0.19932 0.45941 0.0
H924 H 0.61333 0.19546 0.35367 0.0
C925 C 0.54285 0.18015 0.46042 0.0
C926 C 0.55063 0.16642 0.42309 0.0
H927 H 0.5531 0.21 0.48849 0.0
H928 H 0.5229 0.17651 0.49028 0.0
C929 C 0.576 0.17253 0.38453 0.0
C930 C 0.81593 0.46245 0.22397 0.0
C931 C 0.7994 0.47871 0.26109 0.0
H932 H 0.85728 0.41743 0.19721 0.0
C933 C 0.81623 0.46322 0.29834 0.0
H934 H 0.80404 0.47385 0.19445 0.0
C935 C 0.84725 0.4305 0.29983 0.0
C936 C 0.86169 0.41286 0.26419 0.0
H937 H 0.80408 0.47502 0.32754 0.0
H938 H 0.85835 0.41791 0.3301 0.0
C939 C 0.84652 0.42999 0.22555 0.0
C940 C 0.07041 0.67053 0.38927 0.0
C941 C 0.04386 0.66663 0.4275 0.0
H942 H 0.11036 0.69019 0.35821 0.0
C943 C 0.0366 0.68106 0.46393 0.0
H944 H 0.07682 0.65938 0.36088 0.0
C945 C 0.05565 0.69874 0.4624 0.0
C946 C 0.08248 0.70238 0.42442 0.0
H947 H 0.01581 0.67908 0.49352 0.0
H948 H 0.04894 0.71003 0.49078 0.0
C949 C 0.08959 0.68817 0.38778 0.0
C950 C 0.55877 0.14501 0.74901 0.0
C951 C 0.57775 0.12992 0.78398 0.0
H952 H 0.51356 0.18862 0.72178 0.0
C953 C 0.56254 0.14526 0.82181 0.0
H954 H 0.56993 0.13388 0.71934 0.0
C955 C 0.53041 0.17632 0.8234 0.0
C956 C 0.51269 0.19319 0.78695 0.0
H957 H 0.57636 0.13407 0.84952 0.0
H958 H 0.5205 0.18802 0.85234 0.0
C959 C 0.52657 0.1765 0.75038 0.0
C960 C 0.70652 0.64343 0.12139 0.0
C961 C 0.70458 0.63936 0.16741 0.0
H962 H 0.7044 0.67859 0.05523 0.0
C963 C 0.70212 0.66712 0.18101 0.0
H964 H 0.70832 0.62245 0.10997 0.0
C965 C 0.70001 0.6988 0.15008 0.0
C966 C 0.70005 0.7039 0.10449 0.0
H967 H 0.701 0.66473 0.21604 0.0
H968 H 0.69749 0.71968 0.16245 0.0
C969 C 0.70416 0.67556 0.09012 0.0
C970 C 0.8113 0.54537 0.53918 0.0
C971 C 0.82566 0.57007 0.52559 0.0
H972 H 0.77617 0.53043 0.52792 0.0
C973 C 0.81286 0.60077 0.49175 0.0
H974 H 0.82052 0.52143 0.56524 0.0
C975 C 0.78744 0.60584 0.47049 0.0
C976 C 0.7745 0.58023 0.48253 0.0
H977 H 0.82332 0.62031 0.48058 0.0
H978 H 0.77911 0.62904 0.44324 0.0
C979 C 0.78609 0.55033 0.51768 0.0
C980 C 0.04736 0.49564 0.65926 0.0
C981 C 0.07406 0.50384 0.62543 0.0
H982 H -0.00243 0.49276 0.67473 0.0
C983 C 0.07228 0.51266 0.57973 0.0
H984 H 0.04844 0.48809 0.69472 0.0
C985 C 0.04335 0.51495 0.56821 0.0
C986 C 0.01564 0.50869 0.60224 0.0
H987 H 0.09233 0.51943 0.55294 0.0
H988 H 0.04194 0.52323 0.5328 0.0
C989 C 0.01836 0.49814 0.64779 0.0
C990 C 0.53976 0.83098 0.18036 0.0
C991 C 0.51563 0.82328 0.17169 0.0
H992 H 0.58824 0.83769 0.15532 0.0
C993 C 0.52173 0.81785 0.12867 0.0
H994 H 0.53573 0.83533 0.21317 0.0
C995 C 0.55233 0.81841 0.09575 0.0
C996 C 0.57686 0.82541 0.10479 0.0
H997 H 0.50373 0.8116 0.12114 0.0
H998 H 0.55709 0.8128 0.0635 0.0
C999 C 0.56976 0.8325 0.14711 0.0
C1000 C 0.54868 0.49334 0.16244 0.0
C1001 C 0.57735 0.49866 0.12956 0.0
H1002 H 0.49782 0.49316 0.17553 0.0
C1003 C 0.57807 0.50458 0.08355 0.0
H1004 H 0.54778 0.48806 0.19818 0.0
C1005 C 0.54969 0.50709 0.07057 0.0
C1006 C 0.51997 0.50398 0.10338 0.0
H1007 H 0.59964 0.50911 0.05741 0.0
H1008 H 0.55026 0.51326 1.03477 0.0
C1009 C 0.52019 0.49608 0.14946 0.0
C1010 C 0.33527 0.37131 0.16908 0.0
C1011 C 0.31699 0.40146 0.18782 0.0
H1012 H 0.33093 0.33491 0.14528 0.0
C1013 C 0.27926 0.41692 0.19946 0.0
H1014 H 0.36436 0.35853 0.16034 0.0
C1015 C 0.26019 0.40339 0.19085 0.0
C1016 C 0.27844 0.37419 0.17036 0.0
H1017 H 0.26438 0.4405 0.21324 0.0
H1018 H 0.23109 0.41671 0.19858 0.0
C1019 C 0.31617 0.35787 0.16031 0.0
C1020 C 0.02942 0.17948 0.24785 0.0
C1021 C 0.01402 0.19405 0.28646 0.0
H1022 H 0.07297 0.13801 0.21555 0.0
C1023 C 0.02978 0.17479 0.32463 0.0
H1024 H 0.01801 0.19347 0.21783 0.0
C1025 C 0.0612 0.14288 0.32339 0.0
C1026 C 0.07787 0.1294 0.28386 0.0
H1027 H 0.0186 0.18496 0.35508 0.0
H1028 H 0.07321 0.12962 0.35294 0.0
C1029 C 0.061 0.14758 0.24653 0.0
C1030 C 0.18471 0.4243 0.93879 0.0
C1031 C 0.16971 0.40578 0.93152 0.0
H1032 H 0.19863 0.46781 0.91408 0.0
C1033 C 0.15545 0.41916 0.89239 0.0
H1034 H 0.19588 0.41499 0.96851 0.0
C1035 C 0.15704 0.44982 0.86081 0.0
C1036 C 0.17297 0.46768 0.86769 0.0
H1037 H 0.14373 0.40558 0.88563 0.0
H1038 H 0.14647 0.45905 0.83061 0.0
C1039 C 0.18633 0.45473 0.90739 0.0
C1040 C 0.30603 0.29677 0.95114 0.0
C1041 C 0.28453 0.28683 0.94044 0.0
H1042 H 0.35321 0.30569 0.92959 0.0
C1043 C 0.29643 0.27548 0.89983 0.0
H1044 H 0.29759 0.30584 0.98199 0.0
C1045 C 0.32845 0.27503 0.87005 0.0
C1046 C 0.34917 0.28645 0.87974 0.0
H1047 H 0.28062 0.2675 0.89058 0.0
H1048 H 0.33629 0.26689 0.83865 0.0
C1049 C 0.33784 0.29685 0.92096 0.0
C1050 C 0.33374 0.59358 0.96528 0.0
C1051 C 0.33451 0.57441 1.01038 0.0
H1052 H 0.31002 0.61112 0.90822 0.0
C1053 C 0.30913 0.56068 1.03403 0.0
H1054 H 0.35299 0.6044 0.94612 0.0
C1055 C 0.28451 0.56465 1.01232 0.0
C1056 C 0.28518 0.58203 0.96651 0.0
H1057 H 0.30902 0.54586 0.06889 0.0
H1058 H 0.26603 0.55279 1.03075 0.0
C1059 C 0.30942 0.59715 0.94345 0.0
C1060 C 0.564 0.69563 0.96339 0.0
C1061 C 0.59006 0.70127 0.92554 0.0
H1062 H 0.52667 0.67283 0.99347 0.0
C1063 C 0.59873 0.68703 0.88831 0.0
H1064 H 0.55618 0.70681 0.99225 0.0
C1065 C 0.58169 0.66758 0.88896 0.0
C1066 C 0.55573 0.66188 0.92691 0.0
H1067 H 0.61901 0.69052 0.85886 0.0
H1068 H 0.58919 0.6566 0.86001 0.0
C1069 C 0.54706 0.67616 0.96407 0.0
C1070 C 0.84326 0.92746 0.72619 0.0
C1071 C 0.85968 0.91081 0.76383 0.0
H1072 H 0.79953 0.97066 0.69661 0.0
C1073 C 0.84542 0.92812 0.79967 0.0
H1074 H 0.85374 0.91497 0.69784 0.0
C1075 C 0.81385 0.96018 0.79919 0.0
C1076 C 0.79621 0.97565 0.76265 0.0
H1077 H 0.85736 0.91588 0.82923 0.0
H1078 H 0.80248 0.97198 0.82831 0.0
C1079 C 0.81208 0.95949 0.7255 0.0
C1080 C 0.3906 0.18769 0.59674 0.0
C1081 C 0.37682 0.18839 0.64278 0.0
H1082 H 0.40863 0.15911 0.54574 0.0
C1083 C 0.36821 0.16074 0.67289 0.0
H1084 H 0.39793 0.20838 0.57287 0.0
C1085 C 0.3742 0.13237 0.6572 0.0
C1086 C 0.38952 0.13108 0.61143 0.0
H1087 H 0.35747 0.16079 0.70856 0.0
H1088 H 0.36828 0.11086 0.68109 0.0
C1089 C 0.39701 0.1593 0.58129 0.0
C1090 C 0.45558 0.3974 1.01385 0.0
C1091 C 0.45165 0.40559 0.9692 0.0
H1092 H 0.45574 0.41628 0.06609 0.0
C1093 C 0.44529 0.43996 0.94247 0.0
H1094 H 0.4604 0.37112 1.03524 0.0
C1095 C 0.4428 0.46565 0.95991 0.0
C1096 C 0.44649 0.45766 1.00462 0.0
H1097 H 0.44278 0.44688 0.90769 0.0
H1098 H 0.43772 0.4919 0.93827 0.0
C1099 C 0.45288 0.42326 1.03148 0.0
C1100 C 0.44263 0.94185 0.44377 0.0
C1101 C 0.45041 0.90719 0.47023 0.0
H1102 H 0.43377 0.99426 0.4395 0.0
C1103 C 0.4556 0.89894 0.51424 0.0
H1104 H 0.43913 0.94883 0.40945 0.0
C1105 C 0.45275 0.92503 0.53154 0.0
C1106 C 0.44494 0.95972 0.50496 0.0
H1107 H 0.46154 0.87241 0.53539 0.0
H1108 H 0.45661 0.91801 0.56568 0.0
C1109 C 0.43998 0.96778 0.46088 0.0
C1110 C 0.40574 0.65455 0.08116 0.0
C1111 C 0.39594 0.62765 0.11111 0.0
H1112 H 0.40849 0.70277 0.07242 0.0
C1113 C 0.37902 0.63028 0.15624 0.0
H1114 H 0.41867 0.65335 0.04609 0.0
C1115 C 0.37335 0.65875 0.17148 0.0
C1116 C 0.38389 0.68522 0.14152 0.0
H1117 H 0.37133 0.60981 0.18002 0.0
H1118 H 0.36108 0.65994 0.20666 0.0
C1119 C 0.39965 0.68304 0.09613 0.0
loop_
_geom_bond_atom_site_label_1
_geom_bond_atom_site_label_2
_geom_bond_distance
_geom_bond_site_symmetry_2
_ccdc_geom_bond_type
Eu0 C9 2.828 . S
Eu0 O11 2.392 1_565 S
Eu0 O13 2.418 1_655 S
Eu0 O18 2.371 1_655 S
Eu0 O21 2.488 . S
Eu0 O22 2.471 . S
Eu0 O23 2.349 1_564 S
Eu1 O10 2.363 1_456 S
Eu1 O14 2.488 . S
Eu1 O15 2.471 . S
Eu1 O16 2.349 1_546 S
Eu1 O19 2.392 1_545 S
Eu1 O20 2.418 1_455 S
Eu1 C30 2.828 . S
C2 O20 1.244 . S
C2 O23 1.265 . S
C3 C4 1.379 . S
C3 C7 1.373 . S
C3 C9 1.505 . S
C4 C3 1.379 . S
C4 C6 1.369 . S
C4 H32 0.930 . S
C5 C7 1.383 . S
C5 C8 1.382 . S
C5 H33 0.930 . S
C6 C4 1.369 . S
C6 C8 1.392 . S
C6 H34 0.930 . S
C7 C3 1.373 . S
C7 C5 1.383 . S
C7 H35 0.931 . S
C8 C5 1.382 . S
C8 C6 1.392 . S
C9 Eu0 2.828 . S
C9 C3 1.505 . S
C9 O21 1.249 . S
C9 O22 1.244 . S
O10 Eu1 2.363 1_654 S
O10 C12 1.270 . S
O11 Eu0 2.392 1_545 S
O11 C12 1.242 . S
C12 O10 1.270 . S
C12 O11 1.242 . S
O13 Eu0 2.418 1_455 S
O13 C17 1.244 . S
O14 Eu1 2.488 . S
O14 C30 1.249 . S
O15 Eu1 2.471 . S
O15 C30 1.244 . S
O16 Eu1 2.349 1_564 S
O16 C17 1.265 . S
C17 O13 1.244 . S
C17 O16 1.265 . S
O18 Eu0 2.371 1_455 S
O18 C31 1.260 1_554 S
O19 Eu1 2.392 1_565 S
O19 C31 1.242 . S
O20 Eu1 2.418 1_655 S
O20 C2 1.244 . S
O21 Eu0 2.488 . S
O21 C9 1.249 . S
O22 Eu0 2.471 . S
O22 C9 1.244 . S
O23 Eu0 2.349 1_546 S
O23 C2 1.265 . S
C24 C25 1.379 . S
C24 C28 1.373 . S
C24 C30 1.505 . S
C25 C24 1.379 . S
C25 C27 1.369 . S
C25 H36 0.930 . S
C26 C28 1.383 . S
C26 C29 1.382 . S
C26 H37 0.930 . S
C27 C25 1.369 . S
C27 C29 1.392 . S
C27 H38 0.930 . S
C28 C24 1.373 . S
C28 C26 1.383 . S
C28 H39 0.931 . S
C29 C26 1.382 . S
C29 C27 1.392 . S
C30 Eu1 2.828 . S
C30 O14 1.249 . S
C30 O15 1.244 . S
C30 C24 1.505 . S
C31 O18 1.260 1_556 S
C31 O19 1.242 . S
H32 C4 0.930 . S
H33 C5 0.930 . S
H34 C6 0.930 . S
H35 C7 0.931 . S
H36 C25 0.930 . S
H37 C26 0.930 . S
H38 C27 0.930 . S
H39 C28 0.931 . S
Eu40 C49 2.828 . S
Eu40 O51 2.392 . S
Eu40 O53 2.418 . S
Eu40 O58 2.373 1_455 S
Eu40 O61 2.488 . S
Eu40 O62 2.471 1_455 S
Eu40 O63 2.349 1_455 S
Eu41 O50 2.373 1_655 S
Eu41 O54 2.488 . S
Eu41 O55 2.471 1_655 S
Eu41 O56 2.349 1_655 S
Eu41 O59 2.392 . S
Eu41 O60 2.418 . S
Eu41 C70 2.828 . S
C42 O60 1.244 . S
C42 O63 1.265 . S
C43 C44 1.379 . S
C43 C47 1.373 1_655 S
C43 C49 1.505 1_655 S
C44 C43 1.379 . S
C44 C46 1.369 . S
C44 H72 0.930 . S
C45 C47 1.383 . S
C45 C48 1.382 1_455 S
C45 H73 0.930 . S
C46 C44 1.369 . S
C46 C48 1.392 . S
C46 H74 0.930 . S
C47 C43 1.373 1_455 S
C47 C45 1.383 . S
C47 H75 0.931 . S
C48 C45 1.382 1_655 S
C48 C46 1.392 . S
C49 Eu40 2.828 . S
C49 C43 1.505 1_455 S
C49 O61 1.249 . S
C49 O62 1.244 1_455 S
O50 Eu41 2.373 1_455 S
O50 C52 1.258 . S
O51 Eu40 2.392 . S
O51 C52 1.242 . S
C52 O50 1.258 . S
C52 O51 1.242 . S
O53 Eu40 2.418 . S
O53 C57 1.244 . S
O54 Eu41 2.488 . S
O54 C70 1.249 . S
O55 Eu41 2.471 1_455 S
O55 C70 1.244 1_455 S
O56 Eu41 2.349 1_455 S
O56 C57 1.265 . S
C57 O53 1.244 . S
C57 O56 1.265 . S
O58 Eu40 2.373 1_655 S
O58 C71 1.258 . S
O59 Eu41 2.392 . S
O59 C71 1.242 . S
O60 Eu41 2.418 . S
O60 C42 1.244 . S
O61 Eu40 2.488 . S
O61 C49 1.249 . S
O62 Eu40 2.471 1_655 S
O62 C49 1.244 1_655 S
O63 Eu40 2.349 1_655 S
O63 C42 1.265 . S
C64 C65 1.379 . S
C64 C68 1.373 1_455 S
C64 C70 1.505 1_455 S
C65 C64 1.379 . S
C65 C67 1.369 . S
C65 H76 0.930 . S
C66 C68 1.383 . S
C66 C69 1.382 1_655 S
C66 H77 0.930 . S
C67 C65 1.369 . S
C67 C69 1.392 . S
C67 H78 0.930 . S
C68 C64 1.373 1_655 S
C68 C66 1.383 . S
C68 H79 0.931 . S
C69 C66 1.382 1_455 S
C69 C67 1.392 . S
C70 Eu41 2.828 . S
C70 O54 1.249 . S
C70 O55 1.244 1_655 S
C70 C64 1.505 1_655 S
C71 O58 1.258 . S
C71 O59 1.242 . S
H72 C44 0.930 . S
H73 C45 0.930 . S
H74 C46 0.930 . S
H75 C47 0.931 . S
H76 C65 0.930 . S
H77 C66 0.930 . S
H78 C67 0.930 . S
H79 C68 0.931 . S
Eu80 C89 2.828 . S
Eu80 O91 2.392 . S
Eu80 O93 2.418 . S
Eu80 O98 2.373 . S
Eu80 O101 2.488 . S
Eu80 O102 2.471 . S
Eu80 O103 2.349 . S
Eu81 O90 2.373 . S
Eu81 O94 2.488 . S
Eu81 O95 2.471 . S
Eu81 O96 2.349 . S
Eu81 O99 2.392 . S
Eu81 O100 2.418 . S
Eu81 C110 2.828 . S
C82 O100 1.244 . S
C82 O103 1.265 . S
C83 C84 1.379 . S
C83 C87 1.373 . S
C83 C89 1.505 . S
C84 C83 1.379 . S
C84 C86 1.369 . S
C84 H112 0.930 . S
C85 C87 1.383 . S
C85 C88 1.382 . S
C85 H113 0.930 . S
C86 C84 1.369 . S
C86 C88 1.392 . S
C86 H114 0.930 . S
C87 C83 1.373 . S
C87 C85 1.383 . S
C87 H115 0.931 . S
C88 C85 1.382 . S
C88 C86 1.392 . S
C89 Eu80 2.828 . S
C89 C83 1.505 . S
C89 O101 1.249 . S
C89 O102 1.244 . S
O90 Eu81 2.373 . S
O90 C92 1.258 . S
O91 Eu80 2.392 . S
O91 C92 1.242 . S
C92 O90 1.258 . S
C92 O91 1.242 . S
O93 Eu80 2.418 . S
O93 C97 1.244 . S
O94 Eu81 2.488 . S
O94 C110 1.249 . S
O95 Eu81 2.471 . S
O95 C110 1.244 . S
O96 Eu81 2.349 . S
O96 C97 1.265 . S
C97 O93 1.244 . S
C97 O96 1.265 . S
O98 Eu80 2.373 . S
O98 C111 1.258 . S
O99 Eu81 2.392 . S
O99 C111 1.242 . S
O100 Eu81 2.418 . S
O100 C82 1.244 . S
O101 Eu80 2.488 . S
O101 C89 1.249 . S
O102 Eu80 2.471 . S
O102 C89 1.244 . S
O103 Eu80 2.349 . S
O103 C82 1.265 . S
C104 C105 1.379 . S
C104 C108 1.373 . S
C104 C110 1.505 . S
C105 C104 1.379 . S
C105 C107 1.369 . S
C105 H116 0.930 . S
C106 C108 1.383 . S
C106 C109 1.382 . S
C106 H117 0.930 . S
C107 C105 1.369 . S
C107 C109 1.392 . S
C107 H118 0.930 . S
C108 C104 1.373 . S
C108 C106 1.383 . S
C108 H119 0.931 . S
C109 C106 1.382 . S
C109 C107 1.392 . S
C110 Eu81 2.828 . S
C110 O94 1.249 . S
C110 O95 1.244 . S
C110 C104 1.505 . S
C111 O98 1.258 . S
C111 O99 1.242 . S
H112 C84 0.930 . S
H113 C85 0.930 . S
H114 C86 0.930 . S
H115 C87 0.931 . S
H116 C105 0.930 . S
H117 C106 0.930 . S
H118 C107 0.930 . S
H119 C108 0.931 . S
Eu120 C129 2.828 1_565 S
Eu120 O131 2.392 . S
Eu120 O133 2.418 . S
Eu120 O138 2.373 1_565 S
Eu120 O141 2.488 . S
Eu120 O142 2.471 1_565 S
Eu120 O143 2.349 1_565 S
Eu121 O130 2.373 1_545 S
Eu121 O134 2.488 . S
Eu121 O135 2.471 1_545 S
Eu121 O136 2.349 1_545 S
Eu121 O139 2.392 . S
Eu121 O140 2.418 . S
Eu121 C150 2.827 1_545 S
C122 O140 1.244 . S
C122 O143 1.265 . S
C123 C124 1.379 . S
C123 C127 1.373 1_545 S
C123 C129 1.505 . S
C124 C123 1.379 . S
C124 C126 1.369 . S
C124 H152 0.930 . S
C125 C127 1.383 1_545 S
C125 C128 1.382 . S
C125 H153 0.930 1_545 S
C126 C124 1.369 . S
C126 C128 1.392 . S
C126 H154 0.930 . S
C127 C123 1.373 1_565 S
C127 C125 1.383 1_565 S
C127 H155 0.931 . S
C128 C125 1.382 . S
C128 C126 1.392 . S
C129 Eu120 2.828 1_545 S
C129 C123 1.505 . S
C129 O141 1.249 1_545 S
C129 O142 1.244 . S
O130 Eu121 2.373 1_565 S
O130 C132 1.258 . S
O131 Eu120 2.392 . S
O131 C132 1.242 . S
C132 O130 1.258 . S
C132 O131 1.242 . S
O133 Eu120 2.418 . S
O133 C137 1.244 . S
O134 Eu121 2.488 . S
O134 C150 1.252 1_545 S
O135 Eu121 2.471 1_565 S
O135 C150 1.242 . S
O136 Eu121 2.349 1_565 S
O136 C137 1.265 . S
C137 O133 1.244 . S
C137 O136 1.265 . S
O138 Eu120 2.373 1_545 S
O138 C151 1.258 . S
O139 Eu121 2.392 . S
O139 C151 1.242 . S
O140 Eu121 2.418 . S
O140 C122 1.244 . S
O141 Eu120 2.488 . S
O141 C129 1.249 1_565 S
O142 Eu120 2.471 1_545 S
O142 C129 1.244 . S
O143 Eu120 2.349 1_545 S
O143 C122 1.265 . S
C144 C145 1.379 . S
C144 C148 1.373 1_565 S
C144 C150 1.505 . S
C145 C144 1.379 . S
C145 C147 1.369 . S
C145 H156 0.930 . S
C146 C148 1.384 . S
C146 C149 1.385 1_545 S
C146 H157 0.927 . S
C147 C145 1.369 . S
C147 C149 1.392 . S
C147 H158 0.930 . S
C148 C144 1.373 1_545 S
C148 C146 1.384 . S
C148 H159 0.931 . S
C149 C146 1.385 1_565 S
C149 C147 1.392 . S
C150 Eu121 2.827 1_565 S
C150 O134 1.252 1_565 S
C150 O135 1.242 . S
C150 C144 1.505 . S
C151 O138 1.258 . S
C151 O139 1.242 . S
H152 C124 0.930 . S
H153 C125 0.930 1_565 S
H154 C126 0.930 . S
H155 C127 0.931 . S
H156 C145 0.930 . S
H157 C146 0.927 . S
H158 C147 0.930 . S
H159 C148 0.931 . S
Eu160 C169 2.828 . S
Eu160 O171 2.392 . S
Eu160 O173 2.418 . S
Eu160 O178 2.373 . S
Eu160 O181 2.488 . S
Eu160 O182 2.471 . S
Eu160 O183 2.349 . S
Eu161 O170 2.373 . S
Eu161 O174 2.488 . S
Eu161 O175 2.471 . S
Eu161 O176 2.349 . S
Eu161 O179 2.392 . S
Eu161 O180 2.418 . S
Eu161 C190 2.828 . S
C162 O180 1.244 . S
C162 O183 1.265 . S
C163 C164 1.379 . S
C163 C167 1.373 . S
C163 C169 1.505 . S
C164 C163 1.379 . S
C164 C166 1.369 . S
C164 H192 0.930 . S
C165 C167 1.383 . S
C165 C168 1.382 . S
C165 H193 0.930 . S
C166 C164 1.369 . S
C166 C168 1.392 . S
C166 H194 0.930 . S
C167 C163 1.373 . S
C167 C165 1.383 . S
C167 H195 0.931 . S
C168 C165 1.382 . S
C168 C166 1.392 . S
C169 Eu160 2.828 . S
C169 C163 1.505 . S
C169 O181 1.249 . S
C169 O182 1.244 . S
O170 Eu161 2.373 . S
O170 C172 1.258 . S
O171 Eu160 2.392 . S
O171 C172 1.242 . S
C172 O170 1.258 . S
C172 O171 1.242 . S
O173 Eu160 2.418 . S
O173 C177 1.244 . S
O174 Eu161 2.488 . S
O174 C190 1.249 . S
O175 Eu161 2.471 . S
O175 C190 1.244 . S
O176 Eu161 2.349 . S
O176 C177 1.265 . S
C177 O173 1.244 . S
C177 O176 1.265 . S
O178 Eu160 2.373 . S
O178 C191 1.258 . S
O179 Eu161 2.392 . S
O179 C191 1.242 . S
O180 Eu161 2.418 . S
O180 C162 1.244 . S
O181 Eu160 2.488 . S
O181 C169 1.249 . S
O182 Eu160 2.471 . S
O182 C169 1.244 . S
O183 Eu160 2.349 . S
O183 C162 1.265 . S
C184 C185 1.379 . S
C184 C188 1.373 . S
C184 C190 1.505 . S
C185 C184 1.379 . S
C185 C187 1.369 . S
C185 H196 0.930 . S
C186 C188 1.383 . S
C186 C189 1.382 . S
C186 H197 0.930 . S
C187 C185 1.369 . S
C187 C189 1.392 . S
C187 H198 0.930 . S
C188 C184 1.373 . S
C188 C186 1.383 . S
C188 H199 0.931 . S
C189 C186 1.382 . S
C189 C187 1.392 . S
C190 Eu161 2.828 . S
C190 O174 1.249 . S
C190 O175 1.244 . S
C190 C184 1.505 . S
C191 O178 1.258 . S
C191 O179 1.242 . S
H192 C164 0.930 . S
H193 C165 0.930 . S
H194 C166 0.930 . S
H195 C167 0.931 . S
H196 C185 0.930 . S
H197 C186 0.930 . S
H198 C187 0.930 . S
H199 C188 0.931 . S
Eu200 C209 2.828 . S
Eu200 O211 2.392 . S
Eu200 O213 2.418 . S
Eu200 O218 2.373 . S
Eu200 O221 2.488 . S
Eu200 O222 2.471 . S
Eu200 O223 2.349 . S
Eu201 O210 2.373 . S
Eu201 O214 2.488 . S
Eu201 O215 2.471 . S
Eu201 O216 2.349 . S
Eu201 O219 2.392 . S
Eu201 O220 2.418 . S
Eu201 C230 2.828 . S
C202 O220 1.244 . S
C202 O223 1.265 . S
C203 C204 1.379 . S
C203 C207 1.373 . S
C203 C209 1.505 . S
C204 C203 1.379 . S
C204 C206 1.369 . S
C204 H232 0.930 . S
C205 C207 1.383 . S
C205 C208 1.382 . S
C205 H233 0.930 . S
C206 C204 1.369 . S
C206 C208 1.392 . S
C206 H234 0.930 . S
C207 C203 1.373 . S
C207 C205 1.383 . S
C207 H235 0.931 . S
C208 C205 1.382 . S
C208 C206 1.392 . S
C209 Eu200 2.828 . S
C209 C203 1.505 . S
C209 O221 1.249 . S
C209 O222 1.244 . S
O210 Eu201 2.373 . S
O210 C212 1.258 . S
O211 Eu200 2.392 . S
O211 C212 1.242 . S
C212 O210 1.258 . S
C212 O211 1.242 . S
O213 Eu200 2.418 . S
O213 C217 1.244 . S
O214 Eu201 2.488 . S
O214 C230 1.249 . S
O215 Eu201 2.471 . S
O215 C230 1.244 . S
O216 Eu201 2.349 . S
O216 C217 1.265 . S
C217 O213 1.244 . S
C217 O216 1.265 . S
O218 Eu200 2.373 . S
O218 C231 1.258 . S
O219 Eu201 2.392 . S
O219 C231 1.242 . S
O220 Eu201 2.418 . S
O220 C202 1.244 . S
O221 Eu200 2.488 . S
O221 C209 1.249 . S
O222 Eu200 2.471 . S
O222 C209 1.244 . S
O223 Eu200 2.349 . S
O223 C202 1.265 . S
C224 C225 1.379 . S
C224 C228 1.373 . S
C224 C230 1.505 . S
C225 C224 1.379 . S
C225 C227 1.369 . S
C225 H236 0.930 . S
C226 C228 1.383 . S
C226 C229 1.382 . S
C226 H237 0.930 . S
C227 C225 1.369 . S
C227 C229 1.392 . S
C227 H238 0.930 . S
C228 C224 1.373 . S
C228 C226 1.383 . S
C228 H239 0.931 . S
C229 C226 1.382 . S
C229 C227 1.392 . S
C230 Eu201 2.828 . S
C230 O214 1.249 . S
C230 O215 1.244 . S
C230 C224 1.505 . S
C231 O218 1.258 . S
C231 O219 1.242 . S
H232 C204 0.930 . S
H233 C205 0.930 . S
H234 C206 0.930 . S
H235 C207 0.931 . S
H236 C225 0.930 . S
H237 C226 0.930 . S
H238 C227 0.930 . S
H239 C228 0.931 . S
Eu240 C249 2.828 . S
Eu240 O251 2.392 . S
Eu240 O253 2.418 . S
Eu240 O258 2.373 . S
Eu240 O261 2.488 . S
Eu240 O262 2.471 . S
Eu240 O263 2.349 . S
Eu241 O250 2.373 . S
Eu241 O254 2.488 . S
Eu241 O255 2.471 . S
Eu241 O256 2.349 . S
Eu241 O259 2.392 . S
Eu241 O260 2.418 . S
Eu241 C270 2.828 . S
C242 O260 1.244 . S
C242 O263 1.265 . S
C243 C244 1.379 . S
C243 C247 1.373 . S
C243 C249 1.505 . S
C244 C243 1.379 . S
C244 C246 1.369 . S
C244 H272 0.930 . S
C245 C247 1.383 . S
C245 C248 1.382 . S
C245 H273 0.930 . S
C246 C244 1.369 . S
C246 C248 1.392 . S
C246 H274 0.930 . S
C247 C243 1.373 . S
C247 C245 1.383 . S
C247 H275 0.931 . S
C248 C245 1.382 . S
C248 C246 1.392 . S
C249 Eu240 2.828 . S
C249 C243 1.505 . S
C249 O261 1.249 . S
C249 O262 1.244 . S
O250 Eu241 2.373 . S
O250 C252 1.258 . S
O251 Eu240 2.392 . S
O251 C252 1.242 . S
C252 O250 1.258 . S
C252 O251 1.242 . S
O253 Eu240 2.418 . S
O253 C257 1.244 . S
O254 Eu241 2.488 . S
O254 C270 1.249 . S
O255 Eu241 2.471 . S
O255 C270 1.244 . S
O256 Eu241 2.349 . S
O256 C257 1.265 . S
C257 O253 1.244 . S
C257 O256 1.265 . S
O258 Eu240 2.373 . S
O258 C271 1.258 . S
O259 Eu241 2.392 . S
O259 C271 1.242 . S
O260 Eu241 2.418 . S
O260 C242 1.244 . S
O261 Eu240 2.488 . S
O261 C249 1.249 . S
O262 Eu240 2.471 . S
O262 C249 1.244 . S
O263 Eu240 2.349 . S
O263 C242 1.265 . S
C264 C265 1.379 . S
C264 C268 1.373 . S
C264 C270 1.505 . S
C265 C264 1.379 . S
C265 C267 1.369 . S
C265 H276 0.930 . S
C266 C268 1.383 . S
C266 C269 1.382 . S
C266 H277 0.930 . S
C267 C265 1.369 . S
C267 C269 1.392 . S
C267 H278 0.930 . S
C268 C264 1.373 . S
C268 C266 1.383 . S
C268 H279 0.931 . S
C269 C266 1.382 . S
C269 C267 1.392 . S
C270 Eu241 2.828 . S
C270 O254 1.249 . S
C270 O255 1.244 . S
C270 C264 1.505 . S
C271 O258 1.258 . S
C271 O259 1.242 . S
H272 C244 0.930 . S
H273 C245 0.930 . S
H274 C246 0.930 . S
H275 C247 0.931 . S
H276 C265 0.930 . S
H277 C266 0.930 . S
H278 C267 0.930 . S
H279 C268 0.931 . S
Eu280 C289 2.828 . S
Eu280 O291 2.392 . S
Eu280 O293 2.418 1_655 S
Eu280 O298 2.373 1_655 S
Eu280 O301 2.488 . S
Eu280 O302 2.471 . S
Eu280 O303 2.349 . S
Eu281 O290 2.373 1_455 S
Eu281 O294 2.488 . S
Eu281 O295 2.471 . S
Eu281 O296 2.349 . S
Eu281 O299 2.392 . S
Eu281 O300 2.418 1_455 S
Eu281 C310 2.828 . S
C282 O300 1.244 . S
C282 O303 1.265 . S
C283 C284 1.379 . S
C283 C287 1.373 . S
C283 C289 1.505 . S
C284 C283 1.379 . S
C284 C286 1.369 . S
C284 H312 0.930 . S
C285 C287 1.383 . S
C285 C288 1.382 . S
C285 H313 0.930 . S
C286 C284 1.369 . S
C286 C288 1.392 . S
C286 H314 0.930 . S
C287 C283 1.373 . S
C287 C285 1.383 . S
C287 H315 0.931 . S
C288 C285 1.382 . S
C288 C286 1.392 . S
C289 Eu280 2.828 . S
C289 C283 1.505 . S
C289 O301 1.249 . S
C289 O302 1.244 . S
O290 Eu281 2.373 1_655 S
O290 C292 1.258 . S
O291 Eu280 2.392 . S
O291 C292 1.242 . S
C292 O290 1.258 . S
C292 O291 1.242 . S
O293 Eu280 2.418 1_455 S
O293 C297 1.244 . S
O294 Eu281 2.488 . S
O294 C310 1.249 . S
O295 Eu281 2.471 . S
O295 C310 1.244 . S
O296 Eu281 2.349 . S
O296 C297 1.265 . S
C297 O293 1.244 . S
C297 O296 1.265 . S
O298 Eu280 2.373 1_455 S
O298 C311 1.258 . S
O299 Eu281 2.392 . S
O299 C311 1.242 . S
O300 Eu281 2.418 1_655 S
O300 C282 1.244 . S
O301 Eu280 2.488 . S
O301 C289 1.249 . S
O302 Eu280 2.471 . S
O302 C289 1.244 . S
O303 Eu280 2.349 . S
O303 C282 1.265 . S
C304 C305 1.379 . S
C304 C308 1.373 . S
C304 C310 1.505 . S
C305 C304 1.379 . S
C305 C307 1.369 . S
C305 H316 0.930 . S
C306 C308 1.383 . S
C306 C309 1.382 . S
C306 H317 0.930 . S
C307 C305 1.369 . S
C307 C309 1.392 . S
C307 H318 0.930 . S
C308 C304 1.373 . S
C308 C306 1.383 . S
C308 H319 0.931 . S
C309 C306 1.382 . S
C309 C307 1.392 . S
C310 Eu281 2.828 . S
C310 O294 1.249 . S
C310 O295 1.244 . S
C310 C304 1.505 . S
C311 O298 1.258 . S
C311 O299 1.242 . S
H312 C284 0.930 . S
H313 C285 0.930 . S
H314 C286 0.930 . S
H315 C287 0.931 . S
H316 C305 0.930 . S
H317 C306 0.930 . S
H318 C307 0.930 . S
H319 C308 0.931 . S
Eu320 C329 2.828 . S
Eu320 O331 2.392 . S
Eu320 O333 2.418 . S
Eu320 O338 2.373 1_554 S
Eu320 O341 2.488 . S
Eu320 O342 2.471 . S
Eu320 O343 2.349 1_554 S
Eu321 O330 2.373 1_556 S
Eu321 O334 2.488 . S
Eu321 O335 2.471 . S
Eu321 O336 2.349 1_556 S
Eu321 O339 2.392 . S
Eu321 O340 2.418 . S
Eu321 C350 2.828 . S
C322 O340 1.244 . S
C322 O343 1.265 . S
C323 C324 1.379 . S
C323 C327 1.373 . S
C323 C329 1.505 . S
C324 C323 1.379 . S
C324 C326 1.376 1_554 S
C324 H352 0.930 1_554 S
C325 C327 1.383 . S
C325 C328 1.382 . S
C325 H353 0.930 . S
C326 C324 1.376 1_556 S
C326 C328 1.368 1_556 S
C326 H354 0.949 . S
C327 C323 1.373 . S
C327 C325 1.383 . S
C327 H355 0.931 . S
C328 C325 1.382 . S
C328 C326 1.368 1_554 S
C329 Eu320 2.828 . S
C329 C323 1.505 . S
C329 O341 1.249 . S
C329 O342 1.244 . S
O330 Eu321 2.373 1_554 S
O330 C332 1.258 . S
O331 Eu320 2.392 . S
O331 C332 1.242 . S
C332 O330 1.258 . S
C332 O331 1.242 . S
O333 Eu320 2.418 . S
O333 C337 1.244 . S
O334 Eu321 2.488 . S
O334 C350 1.249 . S
O335 Eu321 2.471 . S
O335 C350 1.244 . S
O336 Eu321 2.349 1_554 S
O336 C337 1.265 . S
C337 O333 1.244 . S
C337 O336 1.265 . S
O338 Eu320 2.373 1_556 S
O338 C351 1.258 . S
O339 Eu321 2.392 . S
O339 C351 1.242 . S
O340 Eu321 2.418 . S
O340 C322 1.244 . S
O341 Eu320 2.488 . S
O341 C329 1.249 . S
O342 Eu320 2.471 . S
O342 C329 1.244 . S
O343 Eu320 2.349 1_556 S
O343 C322 1.265 . S
C344 C345 1.389 . S
C344 C348 1.373 . S
C344 C350 1.505 . S
C345 C344 1.389 . S
C345 C347 1.373 1_556 S
C345 H356 0.916 1_556 S
C346 C348 1.383 . S
C346 C349 1.382 . S
C346 H357 0.930 . S
C347 C345 1.373 1_554 S
C347 C349 1.392 1_554 S
C347 H358 0.930 . S
C348 C344 1.373 . S
C348 C346 1.383 . S
C348 H359 0.931 . S
C349 C346 1.382 . S
C349 C347 1.392 1_556 S
C350 Eu321 2.828 . S
C350 O334 1.249 . S
C350 O335 1.244 . S
C350 C344 1.505 . S
C351 O338 1.258 . S
C351 O339 1.242 . S
H352 C324 0.930 1_556 S
H353 C325 0.930 . S
H354 C326 0.949 . S
H355 C327 0.931 . S
H356 C345 0.916 1_554 S
H357 C346 0.930 . S
H358 C347 0.930 . S
H359 C348 0.931 . S
Eu360 C369 2.828 1_565 S
Eu360 O371 2.392 . S
Eu360 O373 2.418 . S
Eu360 O378 2.373 1_565 S
Eu360 O381 2.488 . S
Eu360 O382 2.471 1_565 S
Eu360 O383 2.349 1_565 S
Eu361 O370 2.373 1_545 S
Eu361 O374 2.488 . S
Eu361 O375 2.471 1_545 S
Eu361 O376 2.349 1_545 S
Eu361 O379 2.392 . S
Eu361 O380 2.418 . S
Eu361 C390 2.827 1_545 S
C362 O380 1.244 . S
C362 O383 1.265 . S
C363 C364 1.379 . S
C363 C367 1.373 1_545 S
C363 C369 1.505 . S
C364 C363 1.379 . S
C364 C366 1.369 . S
C364 H392 0.930 . S
C365 C367 1.383 1_545 S
C365 C368 1.382 . S
C365 H393 0.930 1_545 S
C366 C364 1.369 . S
C366 C368 1.392 . S
C366 H394 0.930 . S
C367 C363 1.373 1_565 S
C367 C365 1.383 1_565 S
C367 H395 0.931 . S
C368 C365 1.382 . S
C368 C366 1.392 . S
C369 Eu360 2.828 1_545 S
C369 C363 1.505 . S
C369 O381 1.249 1_545 S
C369 O382 1.244 . S
O370 Eu361 2.373 1_565 S
O370 C372 1.258 . S
O371 Eu360 2.392 . S
O371 C372 1.242 . S
C372 O370 1.258 . S
C372 O371 1.242 . S
O373 Eu360 2.418 . S
O373 C377 1.244 . S
O374 Eu361 2.488 . S
O374 C390 1.252 1_545 S
O375 Eu361 2.471 1_565 S
O375 C390 1.242 . S
O376 Eu361 2.349 1_565 S
O376 C377 1.265 . S
C377 O373 1.244 . S
C377 O376 1.265 . S
O378 Eu360 2.373 1_545 S
O378 C391 1.258 . S
O379 Eu361 2.392 . S
O379 C391 1.242 . S
O380 Eu361 2.418 . S
O380 C362 1.244 . S
O381 Eu360 2.488 . S
O381 C369 1.249 1_565 S
O382 Eu360 2.471 1_545 S
O382 C369 1.244 . S
O383 Eu360 2.349 1_545 S
O383 C362 1.265 . S
C384 C385 1.379 . S
C384 C388 1.373 1_565 S
C384 C390 1.506 . S
C385 C384 1.379 . S
C385 C387 1.369 . S
C385 H396 0.930 . S
C386 C388 1.383 . S
C386 C389 1.384 1_545 S
C386 H397 0.928 . S
C387 C385 1.369 . S
C387 C389 1.392 . S
C387 H398 0.930 . S
C388 C384 1.373 1_545 S
C388 C386 1.383 . S
C388 H399 0.931 . S
C389 C386 1.384 1_565 S
C389 C387 1.392 . S
C390 Eu361 2.827 1_565 S
C390 O374 1.252 1_565 S
C390 O375 1.242 . S
C390 C384 1.506 . S
C391 O378 1.258 . S
C391 O379 1.242 . S
H392 C364 0.930 . S
H393 C365 0.930 1_565 S
H394 C366 0.930 . S
H395 C367 0.931 . S
H396 C385 0.930 . S
H397 C386 0.928 . S
H398 C387 0.930 . S
H399 C388 0.931 . S
Eu400 C409 2.828 . S
Eu400 O411 2.392 . S
Eu400 O413 2.418 . S
Eu400 O418 2.373 . S
Eu400 O421 2.488 . S
Eu400 O422 2.471 . S
Eu400 O423 2.349 . S
Eu401 O410 2.373 . S
Eu401 O414 2.488 . S
Eu401 O415 2.471 . S
Eu401 O416 2.349 . S
Eu401 O419 2.392 . S
Eu401 O420 2.418 . S
Eu401 C430 2.828 . S
C402 O420 1.244 . S
C402 O423 1.265 . S
C403 C404 1.379 . S
C403 C407 1.373 . S
C403 C409 1.505 . S
C404 C403 1.379 . S
C404 C406 1.369 . S
C404 H432 0.930 . S
C405 C407 1.383 . S
C405 C408 1.382 . S
C405 H433 0.930 . S
C406 C404 1.369 . S
C406 C408 1.392 . S
C406 H434 0.930 . S
C407 C403 1.373 . S
C407 C405 1.383 . S
C407 H435 0.931 . S
C408 C405 1.382 . S
C408 C406 1.392 . S
C409 Eu400 2.828 . S
C409 C403 1.505 . S
C409 O421 1.249 . S
C409 O422 1.244 . S
O410 Eu401 2.373 . S
O410 C412 1.258 . S
O411 Eu400 2.392 . S
O411 C412 1.242 . S
C412 O410 1.258 . S
C412 O411 1.242 . S
O413 Eu400 2.418 . S
O413 C417 1.244 . S
O414 Eu401 2.488 . S
O414 C430 1.249 . S
O415 Eu401 2.471 . S
O415 C430 1.244 . S
O416 Eu401 2.349 . S
O416 C417 1.265 . S
C417 O413 1.244 . S
C417 O416 1.265 . S
O418 Eu400 2.373 . S
O418 C431 1.258 . S
O419 Eu401 2.392 . S
O419 C431 1.242 . S
O420 Eu401 2.418 . S
O420 C402 1.244 . S
O421 Eu400 2.488 . S
O421 C409 1.249 . S
O422 Eu400 2.471 . S
O422 C409 1.244 . S
O423 Eu400 2.349 . S
O423 C402 1.265 . S
C424 C425 1.379 . S
C424 C428 1.373 . S
C424 C430 1.505 . S
C425 C424 1.379 . S
C425 C427 1.369 . S
C425 H436 0.930 . S
C426 C428 1.383 . S
C426 C429 1.382 . S
C426 H437 0.930 . S
C427 C425 1.369 . S
C427 C429 1.392 . S
C427 H438 0.930 . S
C428 C424 1.373 . S
C428 C426 1.383 . S
C428 H439 0.931 . S
C429 C426 1.382 . S
C429 C427 1.392 . S
C430 Eu401 2.828 . S
C430 O414 1.249 . S
C430 O415 1.244 . S
C430 C424 1.505 . S
C431 O418 1.258 . S
C431 O419 1.242 . S
H432 C404 0.930 . S
H433 C405 0.930 . S
H434 C406 0.930 . S
H435 C407 0.931 . S
H436 C425 0.930 . S
H437 C426 0.930 . S
H438 C427 0.930 . S
H439 C428 0.931 . S
Eu440 C449 2.828 . S
Eu440 O451 2.392 . S
Eu440 O453 2.418 . S
Eu440 O458 2.373 1_455 S
Eu440 O461 2.488 . S
Eu440 O462 2.471 1_455 S
Eu440 O463 2.349 1_455 S
Eu441 O450 2.373 1_655 S
Eu441 O454 2.488 . S
Eu441 O455 2.471 1_655 S
Eu441 O456 2.349 1_655 S
Eu441 O459 2.392 . S
Eu441 O460 2.418 . S
Eu441 C470 2.828 . S
C442 O460 1.244 . S
C442 O463 1.265 . S
C443 C444 1.379 . S
C443 C447 1.373 1_655 S
C443 C449 1.505 1_655 S
C444 C443 1.379 . S
C444 C446 1.369 . S
C444 H472 0.930 . S
C445 C447 1.383 . S
C445 C448 1.382 1_455 S
C445 H473 0.930 . S
C446 C444 1.369 . S
C446 C448 1.392 . S
C446 H474 0.930 . S
C447 C443 1.373 1_455 S
C447 C445 1.383 . S
C447 H475 0.931 . S
C448 C445 1.382 1_655 S
C448 C446 1.392 . S
C449 Eu440 2.828 . S
C449 C443 1.505 1_455 S
C449 O461 1.249 . S
C449 O462 1.244 1_455 S
O450 Eu441 2.373 1_455 S
O450 C452 1.258 . S
O451 Eu440 2.392 . S
O451 C452 1.242 . S
C452 O450 1.258 . S
C452 O451 1.242 . S
O453 Eu440 2.418 . S
O453 C457 1.244 . S
O454 Eu441 2.488 . S
O454 C470 1.249 . S
O455 Eu441 2.471 1_455 S
O455 C470 1.244 1_455 S
O456 Eu441 2.349 1_455 S
O456 C457 1.265 . S
C457 O453 1.244 . S
C457 O456 1.265 . S
O458 Eu440 2.373 1_655 S
O458 C471 1.258 . S
O459 Eu441 2.392 . S
O459 C471 1.242 . S
O460 Eu441 2.418 . S
O460 C442 1.244 . S
O461 Eu440 2.488 . S
O461 C449 1.249 . S
O462 Eu440 2.471 1_655 S
O462 C449 1.244 1_655 S
O463 Eu440 2.349 1_655 S
O463 C442 1.265 . S
C464 C465 1.379 . S
C464 C468 1.373 1_455 S
C464 C470 1.505 1_455 S
C465 C464 1.379 . S
C465 C467 1.369 . S
C465 H476 0.930 . S
C466 C468 1.383 . S
C466 C469 1.382 1_655 S
C466 H477 0.930 . S
C467 C465 1.369 . S
C467 C469 1.392 . S
C467 H478 0.930 . S
C468 C464 1.373 1_655 S
C468 C466 1.383 . S
C468 H479 0.931 . S
C469 C466 1.382 1_455 S
C469 C467 1.392 . S
C470 Eu441 2.828 . S
C470 O454 1.249 . S
C470 O455 1.244 1_655 S
C470 C464 1.505 1_655 S
C471 O458 1.258 . S
C471 O459 1.242 . S
H472 C444 0.930 . S
H473 C445 0.930 . S
H474 C446 0.930 . S
H475 C447 0.931 . S
H476 C465 0.930 . S
H477 C466 0.930 . S
H478 C467 0.930 . S
H479 C468 0.931 . S
Eu480 C489 2.828 . S
Eu480 O491 2.392 . S
Eu480 O493 2.418 . S
Eu480 O498 2.373 . S
Eu480 O501 2.488 . S
Eu480 O502 2.471 . S
Eu480 O503 2.349 . S
Eu481 O490 2.373 . S
Eu481 O494 2.488 . S
Eu481 O495 2.471 . S
Eu481 O496 2.349 . S
Eu481 O499 2.392 . S
Eu481 O500 2.418 . S
Eu481 C510 2.828 . S
C482 O500 1.244 . S
C482 O503 1.265 . S
C483 C484 1.379 . S
C483 C487 1.373 . S
C483 C489 1.505 . S
C484 C483 1.379 . S
C484 C486 1.369 . S
C484 H512 0.930 . S
C485 C487 1.383 . S
C485 C488 1.382 . S
C485 H513 0.930 . S
C486 C484 1.369 . S
C486 C488 1.392 . S
C486 H514 0.930 . S
C487 C483 1.373 . S
C487 C485 1.383 . S
C487 H515 0.931 . S
C488 C485 1.382 . S
C488 C486 1.392 . S
C489 Eu480 2.828 . S
C489 C483 1.505 . S
C489 O501 1.249 . S
C489 O502 1.244 . S
O490 Eu481 2.373 . S
O490 C492 1.258 . S
O491 Eu480 2.392 . S
O491 C492 1.242 . S
C492 O490 1.258 . S
C492 O491 1.242 . S
O493 Eu480 2.418 . S
O493 C497 1.244 . S
O494 Eu481 2.488 . S
O494 C510 1.249 . S
O495 Eu481 2.471 . S
O495 C510 1.244 . S
O496 Eu481 2.349 . S
O496 C497 1.265 . S
C497 O493 1.244 . S
C497 O496 1.265 . S
O498 Eu480 2.373 . S
O498 C511 1.258 . S
O499 Eu481 2.392 . S
O499 C511 1.242 . S
O500 Eu481 2.418 . S
O500 C482 1.244 . S
O501 Eu480 2.488 . S
O501 C489 1.249 . S
O502 Eu480 2.471 . S
O502 C489 1.244 . S
O503 Eu480 2.349 . S
O503 C482 1.265 . S
C504 C505 1.379 . S
C504 C508 1.373 . S
C504 C510 1.505 . S
C505 C504 1.379 . S
C505 C507 1.369 . S
C505 H516 0.930 . S
C506 C508 1.383 . S
C506 C509 1.382 . S
C506 H517 0.930 . S
C507 C505 1.369 . S
C507 C509 1.392 . S
C507 H518 0.930 . S
C508 C504 1.373 . S
C508 C506 1.383 . S
C508 H519 0.931 . S
C509 C506 1.382 . S
C509 C507 1.392 . S
C510 Eu481 2.828 . S
C510 O494 1.249 . S
C510 O495 1.244 . S
C510 C504 1.505 . S
C511 O498 1.258 . S
C511 O499 1.242 . S
H512 C484 0.930 . S
H513 C485 0.930 . S
H514 C486 0.930 . S
H515 C487 0.931 . S
H516 C505 0.930 . S
H517 C506 0.930 . S
H518 C507 0.930 . S
H519 C508 0.931 . S
Eu520 C529 2.828 . S
Eu520 O531 2.392 . S
Eu520 O533 2.418 . S
Eu520 O538 2.373 1_554 S
Eu520 O541 2.488 . S
Eu520 O542 2.471 . S
Eu520 O543 2.349 1_554 S
Eu521 O530 2.373 1_556 S
Eu521 O534 2.488 . S
Eu521 O535 2.471 . S
Eu521 O536 2.349 1_556 S
Eu521 O539 2.392 . S
Eu521 O540 2.418 . S
Eu521 C550 2.828 . S
C522 O540 1.244 . S
C522 O543 1.265 . S
C523 C524 1.379 . S
C523 C527 1.373 . S
C523 C529 1.505 . S
C524 C523 1.379 . S
C524 C526 1.376 1_554 S
C524 H552 0.930 1_554 S
C525 C527 1.383 . S
C525 C528 1.382 . S
C525 H553 0.930 . S
C526 C524 1.376 1_556 S
C526 C528 1.367 1_556 S
C526 H554 0.949 . S
C527 C523 1.373 . S
C527 C525 1.383 . S
C527 H555 0.931 . S
C528 C525 1.382 . S
C528 C526 1.367 1_554 S
C529 Eu520 2.828 . S
C529 C523 1.505 . S
C529 O541 1.249 . S
C529 O542 1.244 . S
O530 Eu521 2.373 1_554 S
O530 C532 1.258 . S
O531 Eu520 2.392 . S
O531 C532 1.242 . S
C532 O530 1.258 . S
C532 O531 1.242 . S
O533 Eu520 2.418 . S
O533 C537 1.244 . S
O534 Eu521 2.488 . S
O534 C550 1.249 . S
O535 Eu521 2.471 . S
O535 C550 1.244 . S
O536 Eu521 2.349 1_554 S
O536 C537 1.265 . S
C537 O533 1.244 . S
C537 O536 1.265 . S
O538 Eu520 2.373 1_556 S
O538 C551 1.258 . S
O539 Eu521 2.392 . S
O539 C551 1.242 . S
O540 Eu521 2.418 . S
O540 C522 1.244 . S
O541 Eu520 2.488 . S
O541 C529 1.249 . S
O542 Eu520 2.471 . S
O542 C529 1.244 . S
O543 Eu520 2.349 1_556 S
O543 C522 1.265 . S
C544 C545 1.389 . S
C544 C548 1.373 . S
C544 C550 1.505 . S
C545 C544 1.389 . S
C545 C547 1.373 1_556 S
C545 H556 0.917 1_556 S
C546 C548 1.383 . S
C546 C549 1.382 . S
C546 H557 0.930 . S
C547 C545 1.373 1_554 S
C547 C549 1.392 1_554 S
C547 H558 0.930 . S
C548 C544 1.373 . S
C548 C546 1.383 . S
C548 H559 0.931 . S
C549 C546 1.382 . S
C549 C547 1.392 1_556 S
C550 Eu521 2.828 . S
C550 O534 1.249 . S
C550 O535 1.244 . S
C550 C544 1.505 . S
C551 O538 1.258 . S
C551 O539 1.242 . S
H552 C524 0.930 1_556 S
H553 C525 0.930 . S
H554 C526 0.949 . S
H555 C527 0.931 . S
H556 C545 0.917 1_554 S
H557 C546 0.930 . S
H558 C547 0.930 . S
H559 C548 0.931 . S
Eu560 C569 2.828 . S
Eu560 O571 2.392 1_565 S
Eu560 O573 2.418 . S
Eu560 O578 2.373 . S
Eu560 O581 2.488 . S
Eu560 O582 2.471 . S
Eu560 O583 2.349 1_565 S
Eu561 O570 2.373 . S
Eu561 O574 2.488 . S
Eu561 O575 2.471 . S
Eu561 O576 2.349 1_545 S
Eu561 O579 2.392 1_545 S
Eu561 O580 2.418 . S
Eu561 C590 2.828 . S
C562 O580 1.244 . S
C562 O583 1.265 . S
C563 C564 1.379 . S
C563 C567 1.373 . S
C563 C569 1.505 . S
C564 C563 1.379 . S
C564 C566 1.369 . S
C564 H592 0.930 . S
C565 C567 1.383 . S
C565 C568 1.382 . S
C565 H593 0.930 . S
C566 C564 1.369 . S
C566 C568 1.392 . S
C566 H594 0.930 . S
C567 C563 1.373 . S
C567 C565 1.383 . S
C567 H595 0.931 . S
C568 C565 1.382 . S
C568 C566 1.392 . S
C569 Eu560 2.828 . S
C569 C563 1.505 . S
C569 O581 1.249 . S
C569 O582 1.244 . S
O570 Eu561 2.373 . S
O570 C572 1.258 . S
O571 Eu560 2.392 1_545 S
O571 C572 1.242 . S
C572 O570 1.258 . S
C572 O571 1.242 . S
O573 Eu560 2.418 . S
O573 C577 1.244 . S
O574 Eu561 2.488 . S
O574 C590 1.249 . S
O575 Eu561 2.471 . S
O575 C590 1.244 . S
O576 Eu561 2.349 1_565 S
O576 C577 1.265 . S
C577 O573 1.244 . S
C577 O576 1.265 . S
O578 Eu560 2.373 . S
O578 C591 1.258 . S
O579 Eu561 2.392 1_565 S
O579 C591 1.242 . S
O580 Eu561 2.418 . S
O580 C562 1.244 . S
O581 Eu560 2.488 . S
O581 C569 1.249 . S
O582 Eu560 2.471 . S
O582 C569 1.244 . S
O583 Eu560 2.349 1_545 S
O583 C562 1.265 . S
C584 C585 1.379 . S
C584 C588 1.373 . S
C584 C590 1.505 . S
C585 C584 1.379 . S
C585 C587 1.369 . S
C585 H596 0.930 . S
C586 C588 1.383 . S
C586 C589 1.382 . S
C586 H597 0.930 . S
C587 C585 1.369 . S
C587 C589 1.392 . S
C587 H598 0.930 . S
C588 C584 1.373 . S
C588 C586 1.383 . S
C588 H599 0.931 . S
C589 C586 1.382 . S
C589 C587 1.392 . S
C590 Eu561 2.828 . S
C590 O574 1.249 . S
C590 O575 1.244 . S
C590 C584 1.505 . S
C591 O578 1.258 . S
C591 O579 1.242 . S
H592 C564 0.930 . S
H593 C565 0.930 . S
H594 C566 0.930 . S
H595 C567 0.931 . S
H596 C585 0.930 . S
H597 C586 0.930 . S
H598 C587 0.930 . S
H599 C588 0.931 . S
Eu600 C609 2.828 . S
Eu600 O611 2.392 . S
Eu600 O613 2.418 . S
Eu600 O618 2.374 . S
Eu600 O621 2.488 . S
Eu600 O622 2.471 . S
Eu600 O623 2.349 1_554 S
Eu601 O610 2.361 1_556 S
Eu601 O614 2.488 . S
Eu601 O615 2.471 . S
Eu601 O616 2.349 1_556 S
Eu601 O619 2.392 . S
Eu601 O620 2.418 . S
Eu601 C630 2.828 . S
C602 O620 1.244 . S
C602 O623 1.265 . S
C603 C604 1.379 . S
C603 C607 1.373 . S
C603 C609 1.505 . S
C604 C603 1.379 . S
C604 C606 1.369 . S
C604 H632 0.930 . S
C605 C607 1.383 . S
C605 C608 1.382 . S
C605 H633 0.930 . S
C606 C604 1.369 . S
C606 C608 1.392 . S
C606 H634 0.930 . S
C607 C603 1.373 . S
C607 C605 1.383 . S
C607 H635 0.931 . S
C608 C605 1.382 . S
C608 C606 1.392 . S
C609 Eu600 2.828 . S
C609 C603 1.505 . S
C609 O621 1.249 . S
C609 O622 1.244 . S
O610 Eu601 2.361 1_554 S
O610 C612 1.274 . S
O611 Eu600 2.392 . S
O611 C612 1.242 . S
C612 O610 1.274 . S
C612 O611 1.242 . S
O613 Eu600 2.418 . S
O613 C617 1.244 . S
O614 Eu601 2.488 . S
O614 C630 1.249 . S
O615 Eu601 2.471 . S
O615 C630 1.244 . S
O616 Eu601 2.349 1_554 S
O616 C617 1.265 . S
C617 O613 1.244 . S
C617 O616 1.265 . S
O618 Eu600 2.374 . S
O618 C631 1.256 1_554 S
O619 Eu601 2.392 . S
O619 C631 1.242 . S
O620 Eu601 2.418 . S
O620 C602 1.244 . S
O621 Eu600 2.488 . S
O621 C609 1.249 . S
O622 Eu600 2.471 . S
O622 C609 1.244 . S
O623 Eu600 2.349 1_556 S
O623 C602 1.265 . S
C624 C625 1.379 . S
C624 C628 1.373 . S
C624 C630 1.505 . S
C625 C624 1.379 . S
C625 C627 1.369 . S
C625 H636 0.930 . S
C626 C628 1.383 . S
C626 C629 1.382 . S
C626 H637 0.930 . S
C627 C625 1.369 . S
C627 C629 1.392 . S
C627 H638 0.930 . S
C628 C624 1.373 . S
C628 C626 1.383 . S
C628 H639 0.931 . S
C629 C626 1.382 . S
C629 C627 1.392 . S
C630 Eu601 2.828 . S
C630 O614 1.249 . S
C630 O615 1.244 . S
C630 C624 1.505 . S
C631 O618 1.256 1_556 S
C631 O619 1.242 . S
H632 C604 0.930 . S
H633 C605 0.930 . S
H634 C606 0.930 . S
H635 C607 0.931 . S
H636 C625 0.930 . S
H637 C626 0.930 . S
H638 C627 0.930 . S
H639 C628 0.931 . S
C640 C641 1.387 . S
C640 H644 0.950 1_554 S
C640 C649 1.390 1_654 S
C641 C640 1.387 . S
C641 C643 1.387 . S
H642 C649 0.950 . S
C643 C641 1.387 . S
C643 C645 1.368 1_655 S
C643 H647 0.950 . S
H644 C640 0.950 1_556 S
C645 C643 1.368 1_455 S
C645 C646 1.396 . S
C645 H648 0.964 . S
C646 C645 1.396 . S
C646 C649 1.387 1_554 S
H647 C643 0.950 . S
H648 C645 0.964 . S
C649 C640 1.390 1_456 S
C649 H642 0.950 . S
C649 C646 1.387 1_556 S
C650 C651 1.387 . S
C650 H654 0.950 . S
C650 C659 1.390 . S
C651 C650 1.387 . S
C651 C653 1.387 . S
H652 C659 0.950 . S
C653 C651 1.387 . S
C653 C655 1.390 . S
C653 H657 0.950 . S
H654 C650 0.950 . S
C655 C653 1.390 . S
C655 C656 1.387 . S
C655 H658 0.950 . S
C656 C655 1.387 . S
C656 C659 1.387 . S
H657 C653 0.950 . S
H658 C655 0.950 . S
C659 C650 1.390 . S
C659 H652 0.950 . S
C659 C656 1.387 . S
C660 C661 1.387 . S
C660 H664 0.950 . S
C660 C669 1.390 . S
C661 C660 1.387 . S
C661 C663 1.387 . S
H662 C669 0.950 . S
C663 C661 1.387 . S
C663 C665 1.390 . S
C663 H667 0.950 . S
H664 C660 0.950 . S
C665 C663 1.390 . S
C665 C666 1.387 . S
C665 H668 0.950 . S
C666 C665 1.387 . S
C666 C669 1.387 . S
H667 C663 0.950 . S
H668 C665 0.950 . S
C669 C660 1.390 . S
C669 H662 0.950 . S
C669 C666 1.387 . S
C670 C671 1.387 . S
C670 H674 0.950 1_556 S
C670 C679 1.390 1_545 S
C671 C670 1.387 . S
C671 C673 1.387 . S
H672 C679 0.950 1_554 S
C673 C671 1.387 . S
C673 C675 1.390 1_545 S
C673 H677 0.950 . S
H674 C670 0.950 1_554 S
C675 C673 1.390 1_565 S
C675 C676 1.387 . S
C675 H678 0.950 . S
C676 C675 1.387 . S
C676 C679 1.387 . S
H677 C673 0.950 . S
H678 C675 0.950 . S
C679 C670 1.390 1_565 S
C679 H672 0.950 1_556 S
C679 C676 1.387 . S
C680 C681 1.387 . S
C680 H684 0.950 1_554 S
C680 C689 1.390 1_565 S
C681 C680 1.387 . S
C681 C683 1.387 . S
H682 C689 0.950 1_556 S
C683 C681 1.387 . S
C683 C685 1.390 1_565 S
C683 H687 0.950 . S
H684 C680 0.950 1_556 S
C685 C683 1.390 1_545 S
C685 C686 1.387 . S
C685 H688 0.950 . S
C686 C685 1.387 . S
C686 C689 1.387 . S
H687 C683 0.950 . S
H688 C685 0.950 . S
C689 C680 1.390 1_545 S
C689 H682 0.950 1_554 S
C689 C686 1.387 . S
C690 C691 1.387 . S
C690 H694 0.950 . S
C690 C699 1.390 1_455 S
C691 C690 1.387 . S
C691 C693 1.387 . S
H692 C699 0.950 . S
C693 C691 1.387 . S
C693 C695 1.390 1_455 S
C693 H697 0.950 . S
H694 C690 0.950 . S
C695 C693 1.390 1_655 S
C695 C696 1.387 . S
C695 H698 0.950 . S
C696 C695 1.387 . S
C696 C699 1.387 . S
H697 C693 0.950 . S
H698 C695 0.950 . S
C699 C690 1.390 1_655 S
C699 H692 0.950 . S
C699 C696 1.387 . S
C700 C701 1.387 . S
C700 H704 0.950 . S
C700 C709 1.390 . S
C701 C700 1.387 . S
C701 C703 1.387 . S
H702 C709 0.950 . S
C703 C701 1.387 . S
C703 C705 1.390 . S
C703 H707 0.950 . S
H704 C700 0.950 . S
C705 C703 1.390 . S
C705 C706 1.387 . S
C705 H708 0.950 . S
C706 C705 1.387 . S
C706 C709 1.387 . S
H707 C703 0.950 . S
H708 C705 0.950 . S
C709 C700 1.390 . S
C709 H702 0.950 . S
C709 C706 1.387 . S
C710 C711 1.387 . S
C710 H714 0.950 . S
C710 C719 1.390 . S
C711 C710 1.387 . S
C711 C713 1.387 . S
H712 C719 0.950 . S
C713 C711 1.387 . S
C713 C715 1.390 . S
C713 H717 0.950 . S
H714 C710 0.950 . S
C715 C713 1.390 . S
C715 C716 1.387 . S
C715 H718 0.950 . S
C716 C715 1.387 . S
C716 C719 1.387 . S
H717 C713 0.950 . S
H718 C715 0.950 . S
C719 C710 1.390 . S
C719 H712 0.950 . S
C719 C716 1.387 . S
C720 C721 1.387 . S
C720 H724 0.950 . S
C720 C729 1.390 . S
C721 C720 1.387 . S
C721 C723 1.387 . S
H722 C729 0.950 . S
C723 C721 1.387 . S
C723 C725 1.390 . S
C723 H727 0.950 . S
H724 C720 0.950 . S
C725 C723 1.390 . S
C725 C726 1.387 . S
C725 H728 0.950 . S
C726 C725 1.387 . S
C726 C729 1.387 . S
H727 C723 0.950 . S
H728 C725 0.950 . S
C729 C720 1.390 . S
C729 H722 0.950 . S
C729 C726 1.387 . S
C730 C731 1.387 . S
C730 H734 0.950 . S
C730 C739 1.390 . S
C731 C730 1.387 . S
C731 C733 1.387 . S
H732 C739 0.950 . S
C733 C731 1.387 . S
C733 C735 1.390 . S
C733 H737 0.950 . S
H734 C730 0.950 . S
C735 C733 1.390 . S
C735 C736 1.387 . S
C735 H738 0.950 . S
C736 C735 1.387 . S
C736 C739 1.387 . S
H737 C733 0.950 . S
H738 C735 0.950 . S
C739 C730 1.390 . S
C739 H732 0.950 . S
C739 C736 1.387 . S
C740 C741 1.387 . S
C740 H744 0.950 . S
C740 C749 1.390 1_565 S
C741 C740 1.387 . S
C741 C743 1.387 . S
H742 C749 0.950 . S
C743 C741 1.387 . S
C743 C745 1.390 1_565 S
C743 H747 0.950 . S
H744 C740 0.950 . S
C745 C743 1.390 1_545 S
C745 C746 1.387 . S
C745 H748 0.950 . S
C746 C745 1.387 . S
C746 C749 1.387 . S
H747 C743 0.950 . S
H748 C745 0.950 . S
C749 C740 1.390 1_545 S
C749 H742 0.950 . S
C749 C746 1.387 . S
C750 C751 1.387 . S
C750 H754 0.950 . S
C750 C759 1.367 1_455 S
C751 C750 1.387 . S
C751 C753 1.387 . S
H752 C759 0.965 . S
C753 C751 1.387 . S
C753 C755 1.390 1_456 S
C753 H757 0.950 1_556 S
H754 C750 0.950 . S
C755 C753 1.390 1_654 S
C755 C756 1.387 1_554 S
C755 H758 0.950 . S
C756 C755 1.387 1_556 S
C756 C759 1.396 . S
H757 C753 0.950 1_554 S
H758 C755 0.950 . S
C759 C750 1.367 1_655 S
C759 H752 0.965 . S
C759 C756 1.396 . S
C760 C761 1.387 . S
C760 H764 0.950 . S
C760 C769 1.390 . S
C761 C760 1.387 . S
C761 C763 1.387 . S
H762 C769 0.950 . S
C763 C761 1.387 . S
C763 C765 1.390 . S
C763 H767 0.950 . S
H764 C760 0.950 . S
C765 C763 1.390 . S
C765 C766 1.387 . S
C765 H768 0.950 . S
C766 C765 1.387 . S
C766 C769 1.387 . S
H767 C763 0.950 . S
H768 C765 0.950 . S
C769 C760 1.390 . S
C769 H762 0.950 . S
C769 C766 1.387 . S
C770 C771 1.387 . S
C770 H774 0.950 . S
C770 C779 1.390 . S
C771 C770 1.387 . S
C771 C773 1.387 . S
H772 C779 0.950 . S
C773 C771 1.387 . S
C773 C775 1.390 . S
C773 H777 0.950 . S
H774 C770 0.950 . S
C775 C773 1.390 . S
C775 C776 1.387 . S
C775 H778 0.950 . S
C776 C775 1.387 . S
C776 C779 1.387 . S
H777 C773 0.950 . S
H778 C775 0.950 . S
C779 C770 1.390 . S
C779 H772 0.950 . S
C779 C776 1.387 . S
C780 C781 1.387 . S
C780 H784 0.950 . S
C780 C789 1.390 . S
C781 C780 1.387 . S
C781 C783 1.387 . S
H782 C789 0.950 . S
C783 C781 1.387 . S
C783 C785 1.390 . S
C783 H787 0.950 . S
H784 C780 0.950 . S
C785 C783 1.390 . S
C785 C786 1.387 . S
C785 H788 0.950 . S
C786 C785 1.387 . S
C786 C789 1.387 . S
H787 C783 0.950 . S
H788 C785 0.950 . S
C789 C780 1.390 . S
C789 H782 0.950 . S
C789 C786 1.387 . S
C790 C791 1.387 . S
C790 H794 0.950 . S
C790 C799 1.390 . S
C791 C790 1.387 . S
C791 C793 1.387 . S
H792 C799 0.950 . S
C793 C791 1.387 . S
C793 C795 1.390 . S
C793 H797 0.950 . S
H794 C790 0.950 . S
C795 C793 1.390 . S
C795 C796 1.387 . S
C795 H798 0.950 . S
C796 C795 1.387 . S
C796 C799 1.387 . S
H797 C793 0.950 . S
H798 C795 0.950 . S
C799 C790 1.390 . S
C799 H792 0.950 . S
C799 C796 1.387 . S
C800 C801 1.387 . S
C800 H804 0.950 . S
C800 C809 1.390 . S
C801 C800 1.387 . S
C801 C803 1.387 . S
H802 C809 0.950 . S
C803 C801 1.387 . S
C803 C805 1.390 . S
C803 H807 0.950 . S
H804 C800 0.950 . S
C805 C803 1.390 . S
C805 C806 1.387 . S
C805 H808 0.950 . S
C806 C805 1.387 . S
C806 C809 1.387 . S
H807 C803 0.950 . S
H808 C805 0.950 . S
C809 C800 1.390 . S
C809 H802 0.950 . S
C809 C806 1.387 . S
C810 C811 1.387 . S
C810 H814 0.950 . S
C810 C819 1.390 . S
C811 C810 1.387 . S
C811 C813 1.387 . S
H812 C819 0.950 . S
C813 C811 1.387 . S
C813 C815 1.390 . S
C813 H817 0.950 . S
H814 C810 0.950 . S
C815 C813 1.390 . S
C815 C816 1.387 . S
C815 H818 0.950 . S
C816 C815 1.387 . S
C816 C819 1.387 . S
H817 C813 0.950 . S
H818 C815 0.950 . S
C819 C810 1.390 . S
C819 H812 0.950 . S
C819 C816 1.387 . S
C820 C821 1.387 . S
C820 H824 0.950 . S
C820 C829 1.390 . S
C821 C820 1.387 . S
C821 C823 1.387 . S
H822 C829 0.950 . S
C823 C821 1.387 . S
C823 C825 1.390 . S
C823 H827 0.950 . S
H824 C820 0.950 . S
C825 C823 1.390 . S
C825 C826 1.387 . S
C825 H828 0.950 . S
C826 C825 1.387 . S
C826 C829 1.387 . S
H827 C823 0.950 . S
H828 C825 0.950 . S
C829 C820 1.390 . S
C829 H822 0.950 . S
C829 C826 1.387 . S
C830 C831 1.387 . S
C830 H834 0.950 . S
C830 C839 1.390 . S
C831 C830 1.387 . S
C831 C833 1.387 . S
H832 C839 0.950 . S
C833 C831 1.387 . S
C833 C835 1.390 . S
C833 H837 0.950 . S
H834 C830 0.950 . S
C835 C833 1.390 . S
C835 C836 1.387 . S
C835 H838 0.950 . S
C836 C835 1.387 . S
C836 C839 1.387 . S
H837 C833 0.950 . S
H838 C835 0.950 . S
C839 C830 1.390 . S
C839 H832 0.950 . S
C839 C836 1.387 . S
C840 C841 1.387 . S
C840 H844 0.950 . S
C840 C849 1.390 . S
C841 C840 1.387 . S
C841 C843 1.387 . S
H842 C849 0.950 . S
C843 C841 1.387 . S
C843 C845 1.390 . S
C843 H847 0.950 . S
H844 C840 0.950 . S
C845 C843 1.390 . S
C845 C846 1.387 . S
C845 H848 0.950 . S
C846 C845 1.387 . S
C846 C849 1.387 . S
H847 C843 0.950 . S
H848 C845 0.950 . S
C849 C840 1.390 . S
C849 H842 0.950 . S
C849 C846 1.387 . S
C850 C851 1.393 . S
C850 H854 0.958 . S
C850 C859 1.377 1_455 S
C851 C850 1.393 . S
C851 C853 1.387 . S
H852 C859 0.950 . S
C853 C851 1.387 . S
C853 C855 1.390 1_455 S
C853 H857 0.950 . S
H854 C850 0.958 . S
C855 C853 1.390 1_655 S
C855 C856 1.387 . S
C855 H858 0.950 . S
C856 C855 1.387 . S
C856 C859 1.387 . S
H857 C853 0.950 . S
H858 C855 0.950 . S
C859 C850 1.377 1_655 S
C859 H852 0.950 . S
C859 C856 1.387 . S
C860 C861 1.387 . S
C860 H864 0.950 . S
C860 C869 1.390 . S
C861 C860 1.387 . S
C861 C863 1.387 . S
H862 C869 0.950 . S
C863 C861 1.387 . S
C863 C865 1.390 . S
C863 H867 0.950 . S
H864 C860 0.950 . S
C865 C863 1.390 . S
C865 C866 1.387 . S
C865 H868 0.950 . S
C866 C865 1.387 . S
C866 C869 1.387 . S
H867 C863 0.950 . S
H868 C865 0.950 . S
C869 C860 1.390 . S
C869 H862 0.950 . S
C869 C866 1.387 . S
C870 C871 1.387 . S
C870 H874 0.950 . S
C870 C879 1.390 . S
C871 C870 1.387 . S
C871 C873 1.387 . S
H872 C879 0.950 . S
C873 C871 1.387 . S
C873 C875 1.390 . S
C873 H877 0.950 . S
H874 C870 0.950 . S
C875 C873 1.390 . S
C875 C876 1.387 . S
C875 H878 0.950 . S
C876 C875 1.387 . S
C876 C879 1.387 . S
H877 C873 0.950 . S
H878 C875 0.950 . S
C879 C870 1.390 . S
C879 H872 0.950 . S
C879 C876 1.387 . S
C880 C881 1.387 . S
C880 H884 0.950 . S
C880 C889 1.390 . S
C881 C880 1.387 . S
C881 C883 1.387 . S
H882 C889 0.950 . S
C883 C881 1.387 . S
C883 C885 1.390 . S
C883 H887 0.950 . S
H884 C880 0.950 . S
C885 C883 1.390 . S
C885 C886 1.387 . S
C885 H888 0.950 . S
C886 C885 1.387 . S
C886 C889 1.387 . S
H887 C883 0.950 . S
H888 C885 0.950 . S
C889 C880 1.390 . S
C889 H882 0.950 . S
C889 C886 1.387 . S
C890 C891 1.387 . S
C890 H894 0.950 . S
C890 C899 1.390 . S
C891 C890 1.387 . S
C891 C893 1.387 . S
H892 C899 0.950 . S
C893 C891 1.387 . S
C893 C895 1.390 . S
C893 H897 0.950 . S
H894 C890 0.950 . S
C895 C893 1.390 . S
C895 C896 1.387 . S
C895 H898 0.950 . S
C896 C895 1.387 . S
C896 C899 1.387 . S
H897 C893 0.950 . S
H898 C895 0.950 . S
C899 C890 1.390 . S
C899 H892 0.950 . S
C899 C896 1.387 . S
C900 C901 1.387 . S
C900 H904 0.950 . S
C900 C909 1.390 1_565 S
C901 C900 1.387 . S
C901 C903 1.387 . S
H902 C909 0.950 . S
C903 C901 1.387 . S
C903 C905 1.390 1_565 S
C903 H907 0.950 . S
H904 C900 0.950 . S
C905 C903 1.390 1_545 S
C905 C906 1.387 . S
C905 H908 0.950 . S
C906 C905 1.387 . S
C906 C909 1.387 . S
H907 C903 0.950 . S
H908 C905 0.950 . S
C909 C900 1.390 1_545 S
C909 H902 0.950 . S
C909 C906 1.387 . S
C910 C911 1.387 . S
C910 H914 0.950 . S
C910 C919 1.390 . S
C911 C910 1.387 . S
C911 C913 1.387 . S
H912 C919 0.950 . S
C913 C911 1.387 . S
C913 C915 1.390 . S
C913 H917 0.950 . S
H914 C910 0.950 . S
C915 C913 1.390 . S
C915 C916 1.387 . S
C915 H918 0.950 . S
C916 C915 1.387 . S
C916 C919 1.387 . S
H917 C913 0.950 . S
H918 C915 0.950 . S
C919 C910 1.390 . S
C919 H912 0.950 . S
C919 C916 1.387 . S
C920 C921 1.387 . S
C920 H924 0.950 . S
C920 C929 1.390 . S
C921 C920 1.387 . S
C921 C923 1.387 . S
H922 C929 0.950 . S
C923 C921 1.387 . S
C923 C925 1.390 . S
C923 H927 0.950 . S
H924 C920 0.950 . S
C925 C923 1.390 . S
C925 C926 1.387 . S
C925 H928 0.950 . S
C926 C925 1.387 . S
C926 C929 1.387 . S
H927 C923 0.950 . S
H928 C925 0.950 . S
C929 C920 1.390 . S
C929 H922 0.950 . S
C929 C926 1.387 . S
C930 C931 1.387 . S
C930 H934 0.950 . S
C930 C939 1.390 . S
C931 C930 1.387 . S
C931 C933 1.387 . S
H932 C939 0.950 . S
C933 C931 1.387 . S
C933 C935 1.390 . S
C933 H937 0.950 . S
H934 C930 0.950 . S
C935 C933 1.390 . S
C935 C936 1.387 . S
C935 H938 0.950 . S
C936 C935 1.387 . S
C936 C939 1.387 . S
H937 C933 0.950 . S
H938 C935 0.950 . S
C939 C930 1.390 . S
C939 H932 0.950 . S
C939 C936 1.387 . S
C940 C941 1.387 . S
C940 H944 0.950 . S
C940 C949 1.390 . S
C941 C940 1.387 . S
C941 C943 1.387 . S
H942 C949 0.950 . S
C943 C941 1.387 . S
C943 C945 1.390 . S
C943 H947 0.950 . S
H944 C940 0.950 . S
C945 C943 1.390 . S
C945 C946 1.387 . S
C945 H948 0.950 . S
C946 C945 1.387 . S
C946 C949 1.387 . S
H947 C943 0.950 . S
H948 C945 0.950 . S
C949 C940 1.390 . S
C949 H942 0.950 . S
C949 C946 1.387 . S
C950 C951 1.387 . S
C950 H954 0.950 . S
C950 C959 1.390 . S
C951 C950 1.387 . S
C951 C953 1.387 . S
H952 C959 0.950 . S
C953 C951 1.387 . S
C953 C955 1.390 . S
C953 H957 0.950 . S
H954 C950 0.950 . S
C955 C953 1.390 . S
C955 C956 1.387 . S
C955 H958 0.950 . S
C956 C955 1.387 . S
C956 C959 1.387 . S
H957 C953 0.950 . S
H958 C955 0.950 . S
C959 C950 1.390 . S
C959 H952 0.950 . S
C959 C956 1.387 . S
C960 C961 1.387 . S
C960 H964 0.950 . S
C960 C969 1.390 . S
C961 C960 1.387 . S
C961 C963 1.387 . S
H962 C969 0.950 . S
C963 C961 1.387 . S
C963 C965 1.390 . S
C963 H967 0.950 . S
H964 C960 0.950 . S
C965 C963 1.390 . S
C965 C966 1.387 . S
C965 H968 0.950 . S
C966 C965 1.387 . S
C966 C969 1.387 . S
H967 C963 0.950 . S
H968 C965 0.950 . S
C969 C960 1.390 . S
C969 H962 0.950 . S
C969 C966 1.387 . S
C970 C971 1.387 . S
C970 H974 0.950 . S
C970 C979 1.390 . S
C971 C970 1.387 . S
C971 C973 1.387 . S
H972 C979 0.950 . S
C973 C971 1.387 . S
C973 C975 1.390 . S
C973 H977 0.950 . S
H974 C970 0.950 . S
C975 C973 1.390 . S
C975 C976 1.387 . S
C975 H978 0.950 . S
C976 C975 1.387 . S
C976 C979 1.387 . S
H977 C973 0.950 . S
H978 C975 0.950 . S
C979 C970 1.390 . S
C979 H972 0.950 . S
C979 C976 1.387 . S
C980 C981 1.387 . S
C980 H984 0.950 . S
C980 C989 1.390 . S
C981 C980 1.387 . S
C981 C983 1.387 . S
H982 C989 0.950 . S
C983 C981 1.387 . S
C983 C985 1.390 . S
C983 H987 0.950 . S
H984 C980 0.950 . S
C985 C983 1.390 . S
C985 C986 1.387 . S
C985 H988 0.950 . S
C986 C985 1.387 . S
C986 C989 1.387 . S
H987 C983 0.950 . S
H988 C985 0.950 . S
C989 C980 1.390 . S
C989 H982 0.950 . S
C989 C986 1.387 . S
C990 C991 1.387 . S
C990 H994 0.950 . S
C990 C999 1.390 . S
C991 C990 1.387 . S
C991 C993 1.387 . S
H992 C999 0.950 . S
C993 C991 1.387 . S
C993 C995 1.390 . S
C993 H997 0.950 . S
H994 C990 0.950 . S
C995 C993 1.390 . S
C995 C996 1.387 . S
C995 H998 0.950 . S
C996 C995 1.387 . S
C996 C999 1.387 . S
H997 C993 0.950 . S
H998 C995 0.950 . S
C999 C990 1.390 . S
C999 H992 0.950 . S
C999 C996 1.387 . S
C1000 C1001 1.387 . S
C1000 H1004 0.950 . S
C1000 C1009 1.390 . S
C1001 C1000 1.387 . S
C1001 C1003 1.387 . S
H1002 C1009 0.950 . S
C1003 C1001 1.387 . S
C1003 C1005 1.390 . S
C1003 H1007 0.950 1_554 S
H1004 C1000 0.950 . S
C1005 C1003 1.390 . S
C1005 C1006 1.387 . S
C1005 H1008 0.950 1_554 S
C1006 C1005 1.387 . S
C1006 C1009 1.387 . S
H1007 C1003 0.950 1_556 S
H1008 C1005 0.950 1_556 S
C1009 C1000 1.390 . S
C1009 H1002 0.950 . S
C1009 C1006 1.387 . S
C1010 C1011 1.387 . S
C1010 H1014 0.950 . S
C1010 C1019 1.390 . S
C1011 C1010 1.387 . S
C1011 C1013 1.387 . S
H1012 C1019 0.950 1_556 S
C1013 C1011 1.387 . S
C1013 C1015 1.390 . S
C1013 H1017 0.950 . S
H1014 C1010 0.950 . S
C1015 C1013 1.390 . S
C1015 C1016 1.387 . S
C1015 H1018 0.950 . S
C1016 C1015 1.387 . S
C1016 C1019 1.387 . S
H1017 C1013 0.950 . S
H1018 C1015 0.950 . S
C1019 C1010 1.390 . S
C1019 H1012 0.950 1_554 S
C1019 C1016 1.387 . S
C1020 C1021 1.387 . S
C1020 H1024 0.950 . S
C1020 C1029 1.390 . S
C1021 C1020 1.387 . S
C1021 C1023 1.387 . S
H1022 C1029 0.950 . S
C1023 C1021 1.387 . S
C1023 C1025 1.390 . S
C1023 H1027 0.950 . S
H1024 C1020 0.950 . S
C1025 C1023 1.390 . S
C1025 C1026 1.387 . S
C1025 H1028 0.950 . S
C1026 C1025 1.387 . S
C1026 C1029 1.387 . S
H1027 C1023 0.950 . S
H1028 C1025 0.950 . S
C1029 C1020 1.390 . S
C1029 H1022 0.950 . S
C1029 C1026 1.387 . S
C1030 C1031 1.387 . S
C1030 H1034 0.950 . S
C1030 C1039 1.390 . S
C1031 C1030 1.387 . S
C1031 C1033 1.387 . S
H1032 C1039 0.950 . S
C1033 C1031 1.387 . S
C1033 C1035 1.390 . S
C1033 H1037 0.950 . S
H1034 C1030 0.950 . S
C1035 C1033 1.390 . S
C1035 C1036 1.387 . S
C1035 H1038 0.950 . S
C1036 C1035 1.387 . S
C1036 C1039 1.387 . S
H1037 C1033 0.950 . S
H1038 C1035 0.950 . S
C1039 C1030 1.390 . S
C1039 H1032 0.950 . S
C1039 C1036 1.387 . S
C1040 C1041 1.387 . S
C1040 H1044 0.950 . S
C1040 C1049 1.390 . S
C1041 C1040 1.387 . S
C1041 C1043 1.387 . S
H1042 C1049 0.950 . S
C1043 C1041 1.387 . S
C1043 C1045 1.390 . S
C1043 H1047 0.950 . S
H1044 C1040 0.950 . S
C1045 C1043 1.390 . S
C1045 C1046 1.387 . S
C1045 H1048 0.950 . S
C1046 C1045 1.387 . S
C1046 C1049 1.387 . S
H1047 C1043 0.950 . S
H1048 C1045 0.950 . S
C1049 C1040 1.390 . S
C1049 H1042 0.950 . S
C1049 C1046 1.387 . S
C1050 C1051 1.387 . S
C1050 H1054 0.950 . S
C1050 C1059 1.390 . S
C1051 C1050 1.387 . S
C1051 C1053 1.387 . S
H1052 C1059 0.950 . S
C1053 C1051 1.387 . S
C1053 C1055 1.390 . S
C1053 H1057 0.950 1_556 S
H1054 C1050 0.950 . S
C1055 C1053 1.390 . S
C1055 C1056 1.387 . S
C1055 H1058 0.950 1_556 S
C1056 C1055 1.387 . S
C1056 C1059 1.387 . S
H1057 C1053 0.950 1_554 S
H1058 C1055 0.950 1_554 S
C1059 C1050 1.390 . S
C1059 H1052 0.950 . S
C1059 C1056 1.387 . S
C1060 C1061 1.387 . S
C1060 H1064 0.950 . S
C1060 C1069 1.390 . S
C1061 C1060 1.387 . S
C1061 C1063 1.387 . S
H1062 C1069 0.950 . S
C1063 C1061 1.387 . S
C1063 C1065 1.390 . S
C1063 H1067 0.950 . S
H1064 C1060 0.950 . S
C1065 C1063 1.390 . S
C1065 C1066 1.387 . S
C1065 H1068 0.950 . S
C1066 C1065 1.387 . S
C1066 C1069 1.387 . S
H1067 C1063 0.950 . S
H1068 C1065 0.950 . S
C1069 C1060 1.390 . S
C1069 H1062 0.950 . S
C1069 C1066 1.387 . S
C1070 C1071 1.387 . S
C1070 H1074 0.950 . S
C1070 C1079 1.390 . S
C1071 C1070 1.387 . S
C1071 C1073 1.387 . S
H1072 C1079 0.950 . S
C1073 C1071 1.387 . S
C1073 C1075 1.390 . S
C1073 H1077 0.950 . S
H1074 C1070 0.950 . S
C1075 C1073 1.390 . S
C1075 C1076 1.387 . S
C1075 H1078 0.950 . S
C1076 C1075 1.387 . S
C1076 C1079 1.387 . S
H1077 C1073 0.950 . S
H1078 C1075 0.950 . S
C1079 C1070 1.390 . S
C1079 H1072 0.950 . S
C1079 C1076 1.387 . S
C1080 C1081 1.387 . S
C1080 H1084 0.950 . S
C1080 C1089 1.390 . S
C1081 C1080 1.387 . S
C1081 C1083 1.387 . S
H1082 C1089 0.950 . S
C1083 C1081 1.387 . S
C1083 C1085 1.390 . S
C1083 H1087 0.950 . S
H1084 C1080 0.950 . S
C1085 C1083 1.390 . S
C1085 C1086 1.387 . S
C1085 H1088 0.950 . S
C1086 C1085 1.387 . S
C1086 C1089 1.387 . S
H1087 C1083 0.950 . S
H1088 C1085 0.950 . S
C1089 C1080 1.390 . S
C1089 H1082 0.950 . S
C1089 C1086 1.387 . S
C1090 C1091 1.387 1_554 S
C1090 H1094 0.950 . S
C1090 C1099 1.390 1_554 S
C1091 C1090 1.387 1_556 S
C1091 C1093 1.387 . S
H1092 C1099 0.950 1_554 S
C1093 C1091 1.387 . S
C1093 C1095 1.390 . S
C1093 H1097 0.950 . S
H1094 C1090 0.950 . S
C1095 C1093 1.390 . S
C1095 C1096 1.387 . S
C1095 H1098 0.950 . S
C1096 C1095 1.387 . S
C1096 C1099 1.387 . S
H1097 C1093 0.950 . S
H1098 C1095 0.950 . S
C1099 C1090 1.390 1_556 S
C1099 H1092 0.950 1_556 S
C1099 C1096 1.387 . S
C1100 C1101 1.387 . S
C1100 H1104 0.950 . S
C1100 C1109 1.390 . S
C1101 C1100 1.387 . S
C1101 C1103 1.387 . S
H1102 C1109 0.950 . S
C1103 C1101 1.387 . S
C1103 C1105 1.390 . S
C1103 H1107 0.950 . S
H1104 C1100 0.950 . S
C1105 C1103 1.390 . S
C1105 C1106 1.387 . S
C1105 H1108 0.950 . S
C1106 C1105 1.387 . S
C1106 C1109 1.387 . S
H1107 C1103 0.950 . S
H1108 C1105 0.950 . S
C1109 C1100 1.390 . S
C1109 H1102 0.950 . S
C1109 C1106 1.387 . S
C1110 C1111 1.387 . S
C1110 H1114 0.950 1_554 S
C1110 C1119 1.390 1_554 S
C1111 C1110 1.387 . S
C1111 C1113 1.387 . S
H1112 C1119 0.950 . S
C1113 C1111 1.387 . S
C1113 C1115 1.390 . S
C1113 H1117 0.950 . S
H1114 C1110 0.950 1_556 S
C1115 C1113 1.390 . S
C1115 C1116 1.387 . S
C1115 H1118 0.950 . S
C1116 C1115 1.387 . S
C1116 C1119 1.387 1_554 S
H1117 C1113 0.950 . S
H1118 C1115 0.950 . S
C1119 C1110 1.390 1_556 S
C1119 H1112 0.950 . S
C1119 C1116 1.387 1_556 S
C641 C12 1.916 . S
C646 C69 1.767 . S
C651 C82 1.862 . S
C656 C71 1.813 . S
C661 C151 2.520 . S
C666 C92 2.595 . S
C671 C2 1.667 . S
C676 C149 1.485 . S
C681 C17 1.671 . S
C686 C368 1.488 . S
C691 C311 1.916 . S
C696 C48 1.767 . S
C701 C97 1.863 . S
C706 C412 1.813 . S
C711 C132 2.518 . S
C716 C551 2.594 . S
C721 C337 1.863 . S
C726 C52 1.813 . S
C731 C492 2.519 . S
C736 C111 2.594 . S
C741 C577 1.672 . S
C746 C128 1.488 . S
C751 C31 1.916 . S
C756 C448 1.767 . S
C761 C29 0.731 . S
C766 C349 0.732 . S
C771 C482 1.950 . S
C776 C177 2.014 . S
C781 C208 0.734 . S
C786 C568 0.733 . S
C791 C457 2.013 . S
C796 C242 1.950 . S
C801 C88 0.733 . S
C806 C288 0.732 . S
C811 C377 1.947 . S
C816 C162 2.015 . S
C821 C257 1.950 . S
C826 C402 2.013 . S
C831 C217 1.861 . S
C836 C452 1.814 . S
C841 C372 2.518 . S
C846 C231 2.594 . S
C851 C469 1.769 . S
C856 C292 1.918 . S
C861 C202 1.860 . S
C866 C191 1.813 . S
C871 C391 2.519 . S
C876 C332 2.595 . S
C881 C522 1.860 . S
C886 C471 1.812 . S
C891 C271 2.519 . S
C896 C212 2.595 . S
C901 C389 1.485 . S
C906 C562 1.667 . S
C911 C528 0.728 . S
C916 C8 0.727 . S
C921 C109 0.727 . S
C926 C589 0.726 . S
C931 C497 1.948 . S
C936 C42 2.015 . S
C941 C309 0.727 . S
C946 C229 0.728 . S
C951 C122 1.948 . S
C956 C417 2.015 . S
C961 C511 2.519 . S
C966 C532 2.594 . S
C971 C282 1.667 . S
C976 C509 1.485 . S
C981 C248 1.485 . S
C986 C297 1.667 . S
C991 C172 1.814 . S
C996 C537 1.861 . S
C1001 C488 1.485 . S
C1006 C617 1.667 . S
C1011 C608 0.724 . S
C1016 C328 0.725 . S
C1021 C57 2.015 . S
C1026 C362 1.948 . S
C1031 C351 2.595 . S
C1036 C252 2.520 . S
C1041 C322 1.860 . S
C1046 C431 1.814 . S
C1051 C602 1.671 . S
C1056 C269 1.488 . S
C1061 C549 0.733 . S
C1066 C629 0.732 . S
C1071 C442 2.015 . S
C1076 C137 1.948 . S
C1081 C429 1.767 . S
C1086 C572 1.916 . S
C1091 C408 1.769 . S
C1096 C631 1.918 . S
C1101 C168 1.767 . S
C1106 C591 1.916 . S
C1111 C612 1.916 . S
C1116 C189 1.767 . S
