# Generated by pormake.
# Topology yfl, (5)-cn, num edge types: 1
# Building blocks:
#     Node 0, Type 0, BuildingBlock: XOMCOT_clean_sbu_1, # of connection points: 5
#     Node 1, Type 0, BuildingBlock: XOMCOT_clean_sbu_1, # of connection points: 5
#     Node 2, Type 0, BuildingBlock: XOMCOT_clean_sbu_1, # of connection points: 5
#     Node 3, Type 0, BuildingBlock: XOMCOT_clean_sbu_1, # of connection points: 5
#     Node 4, Type 0, BuildingBlock: XOMCOT_clean_sbu_1, # of connection points: 5
#     Node 5, Type 0, BuildingBlock: XOMCOT_clean_sbu_1, # of connection points: 5
#     Node 6, Type 0, BuildingBlock: XOMCOT_clean_sbu_1, # of connection points: 5
#     Node 7, Type 0, BuildingBlock: XOMCOT_clean_sbu_1, # of connection points: 5
#     Node 8, Type 0, BuildingBlock: XOMCOT_clean_sbu_1, # of connection points: 5
#     Node 9, Type 0, BuildingBlock: XOMCOT_clean_sbu_1, # of connection points: 5
#     Node 10, Type 0, BuildingBlock: XOMCOT_clean_sbu_1, # of connection points: 5
#     Node 11, Type 0, BuildingBlock: XOMCOT_clean_sbu_1, # of connection points: 5
#     Node 12, Type 0, BuildingBlock: XOMCOT_clean_sbu_1, # of connection points: 5
#     Node 13, Type 0, BuildingBlock: XOMCOT_clean_sbu_1, # of connection points: 5
#     Node 14, Type 0, BuildingBlock: XOMCOT_clean_sbu_1, # of connection points: 5
#     Node 15, Type 0, BuildingBlock: XOMCOT_clean_sbu_1, # of connection points: 5
#     Edge 16, Type (0, 0), BuildingBlock: KIFKEQ_clean_linker_1, # of connection points: 2
#     Edge 17, Type (0, 0), BuildingBlock: KIFKEQ_clean_linker_1, # of connection points: 2
#     Edge 18, Type (0, 0), BuildingBlock: KIFKEQ_clean_linker_1, # of connection points: 2
#     Edge 19, Type (0, 0), BuildingBlock: KIFKEQ_clean_linker_1, # of connection points: 2
#     Edge 20, Type (0, 0), BuildingBlock: KIFKEQ_clean_linker_1, # of connection points: 2
#     Edge 21, Type (0, 0), BuildingBlock: KIFKEQ_clean_linker_1, # of connection points: 2
#     Edge 22, Type (0, 0), BuildingBlock: KIFKEQ_clean_linker_1, # of connection points: 2
#     Edge 23, Type (0, 0), BuildingBlock: KIFKEQ_clean_linker_1, # of connection points: 2
#     Edge 24, Type (0, 0), BuildingBlock: KIFKEQ_clean_linker_1, # of connection points: 2
#     Edge 25, Type (0, 0), BuildingBlock: KIFKEQ_clean_linker_1, # of connection points: 2
#     Edge 26, Type (0, 0), BuildingBlock: KIFKEQ_clean_linker_1, # of connection points: 2
#     Edge 27, Type (0, 0), BuildingBlock: KIFKEQ_clean_linker_1, # of connection points: 2
#     Edge 28, Type (0, 0), BuildingBlock: KIFKEQ_clean_linker_1, # of connection points: 2
#     Edge 29, Type (0, 0), BuildingBlock: KIFKEQ_clean_linker_1, # of connection points: 2
#     Edge 30, Type (0, 0), BuildingBlock: KIFKEQ_clean_linker_1, # of connection points: 2
#     Edge 31, Type (0, 0), BuildingBlock: KIFKEQ_clean_linker_1, # of connection points: 2
#     Edge 32, Type (0, 0), BuildingBlock: KIFKEQ_clean_linker_1, # of connection points: 2
#     Edge 33, Type (0, 0), BuildingBlock: KIFKEQ_clean_linker_1, # of connection points: 2
#     Edge 34, Type (0, 0), BuildingBlock: KIFKEQ_clean_linker_1, # of connection points: 2
#     Edge 35, Type (0, 0), BuildingBlock: KIFKEQ_clean_linker_1, # of connection points: 2
#     Edge 36, Type (0, 0), BuildingBlock: KIFKEQ_clean_linker_1, # of connection points: 2
#     Edge 37, Type (0, 0), BuildingBlock: KIFKEQ_clean_linker_1, # of connection points: 2
#     Edge 38, Type (0, 0), BuildingBlock: KIFKEQ_clean_linker_1, # of connection points: 2
#     Edge 39, Type (0, 0), BuildingBlock: KIFKEQ_clean_linker_1, # of connection points: 2
#     Edge 40, Type (0, 0), BuildingBlock: KIFKEQ_clean_linker_1, # of connection points: 2
#     Edge 41, Type (0, 0), BuildingBlock: KIFKEQ_clean_linker_1, # of connection points: 2
#     Edge 42, Type (0, 0), BuildingBlock: KIFKEQ_clean_linker_1, # of connection points: 2
#     Edge 43, Type (0, 0), BuildingBlock: KIFKEQ_clean_linker_1, # of connection points: 2
#     Edge 44, Type (0, 0), BuildingBlock: KIFKEQ_clean_linker_1, # of connection points: 2
#     Edge 45, Type (0, 0), BuildingBlock: KIFKEQ_clean_linker_1, # of connection points: 2
#     Edge 46, Type (0, 0), BuildingBlock: KIFKEQ_clean_linker_1, # of connection points: 2
#     Edge 47, Type (0, 0), BuildingBlock: KIFKEQ_clean_linker_1, # of connection points: 2
#     Edge 48, Type (0, 0), BuildingBlock: KIFKEQ_clean_linker_1, # of connection points: 2
#     Edge 49, Type (0, 0), BuildingBlock: KIFKEQ_clean_linker_1, # of connection points: 2
#     Edge 50, Type (0, 0), BuildingBlock: KIFKEQ_clean_linker_1, # of connection points: 2
#     Edge 51, Type (0, 0), BuildingBlock: KIFKEQ_clean_linker_1, # of connection points: 2
#     Edge 52, Type (0, 0), BuildingBlock: KIFKEQ_clean_linker_1, # of connection points: 2
#     Edge 53, Type (0, 0), BuildingBlock: KIFKEQ_clean_linker_1, # of connection points: 2
#     Edge 54, Type (0, 0), BuildingBlock: KIFKEQ_clean_linker_1, # of connection points: 2
#     Edge 55, Type (0, 0), BuildingBlock: KIFKEQ_clean_linker_1, # of connection points: 2
# Relax obj value: 0.506
# Max RMSD: 0.266
# Mean RMSD: 0.266
data_MOF--net-yfl--node1-XOMCOT_clean_sbu_1--edge1-KIFKEQ_clean_linker_1
_symmetry_space_group_name_H-M    P1
_symmetry_Int_Tables_number       1
_symmetry_cell_setting            triclinic
loop_
_symmetry_equiv_pos_as_xyz
'x, y, z'
_cell_length_a     28.311787
_cell_length_b     28.34282
_cell_length_c     110.83739
_cell_angle_alpha  90.140927
_cell_angle_beta   89.972337
_cell_angle_gamma 89.948835
loop_
_atom_site_label
_atom_site_type_symbol
_atom_site_fract_x
_atom_site_fract_y
_atom_site_fract_z
_atom_type_partial_charge
C0 C 0.97199 0.2033 0.28454 0.0
C1 C 0.93748 0.21306 0.27615 0.0
N2 N 0.94112 0.25882 0.273 0.0
N3 N 0.99709 0.24283 0.28667 0.0
C4 C 0.97636 0.27629 0.27986 0.0
H5 H 0.98119 0.16861 0.28781 0.0
Co6 Co 0.05713 0.24733 0.29337 0.0
C7 C 0.02138 0.32907 0.30934 0.0
O8 O 1.00585 0.30366 0.31841 0.0
N9 N 0.11701 0.25187 0.29995 0.0
C10 C 0.1947 0.24785 0.3021 0.0
C11 C 0.15745 0.2378 0.2946 0.0
C12 C 0.13017 0.26954 0.31072 0.0
N13 N 0.17735 0.26783 0.31221 0.0
O14 O 0.03669 0.21051 0.30713 0.0
H15 H 0.15959 0.22155 0.28578 0.0
H16 H 0.10576 0.28393 0.31727 0.0
O17 O 0.04016 0.30874 0.30024 0.0
C18 C 0.05419 0.16964 0.30494 0.0
O19 O 0.07847 0.16401 0.29492 0.0
N20 N 0.07912 0.27742 0.27947 0.0
C21 C 0.11743 0.31217 0.25815 0.0
C22 C 0.11969 0.33869 0.26885 0.0
C23 C 0.10072 0.32043 0.27947 0.0
C24 C 0.07695 0.25099 0.2692 0.0
C25 C 0.09537 0.26794 0.25839 0.0
H26 H 0.10519 0.33993 0.28777 0.0
H27 H 0.0615 0.21612 0.26946 0.0
H28 H 0.9905 0.31155 0.27892 0.0
H29 H 0.91535 0.18723 0.27169 0.0
H30 H 0.23159 0.24057 0.30031 0.0
H31 H 0.13671 0.37289 0.26906 0.0
H32 H 0.0939 0.24581 0.25042 0.0
C33 C 0.19175 1.01317 0.67461 0.0
C34 C 0.20433 0.0503 0.68198 0.0
N35 N 0.24864 0.04258 0.6859 0.0
N36 N 0.22822 0.98263 0.67386 0.0
C37 C 0.26241 1.0018 0.68076 0.0
H38 H 0.15739 1.00768 0.67062 0.0
Co39 Co 0.22986 0.92366 0.66652 0.0
C40 C 0.31186 0.97325 0.65427 0.0
O41 O 0.28642 1.01071 0.65171 0.0
N42 N 0.23188 0.86511 0.65918 0.0
C43 C 0.22566 0.78899 0.65478 0.0
C44 C 0.21958 0.82262 0.66364 0.0
C45 C 0.24493 0.85681 0.64771 0.0
N46 N 0.24137 0.81085 0.64477 0.0
O47 O 0.19377 0.94854 0.653 0.0
H48 H 0.20641 0.81668 0.67267 0.0
H49 H 0.25646 0.88422 0.64161 0.0
O50 O 0.29234 0.93827 0.65953 0.0
C51 C 0.15178 0.93194 0.65388 0.0
O52 O 0.14256 0.90249 0.66271 0.0
N53 N 0.25891 0.89817 0.68013 0.0
C54 C 0.29335 0.85951 0.70143 0.0
C55 C 0.31998 0.85722 0.69076 0.0
C56 C 0.30187 0.87641 0.68014 0.0
C57 C 0.23192 0.89949 0.6903 0.0
C58 C 0.24865 0.88077 0.7011 0.0
H59 H 0.32178 0.87273 0.67192 0.0
H60 H 0.19714 0.91527 0.69001 0.0
H61 H 0.29609 0.98496 0.68247 0.0
H62 H 0.18164 0.07887 0.68492 0.0
H63 H 0.21766 0.75177 0.65551 0.0
H64 H 0.35459 0.84092 0.6906 0.0
H65 H 0.22645 0.88231 0.70905 0.0
C66 C 0.01963 0.82515 0.27793 0.0
C67 C 0.05875 0.8224 0.27062 0.0
N68 N 0.08151 0.78171 0.27302 0.0
N69 N 0.01776 0.78651 0.28496 0.0
C70 C 0.05656 0.76134 0.28199 0.0
H71 H 0.99212 0.85149 0.27733 0.0
Co72 Co 0.96492 0.76801 0.29372 0.0
C73 C 1.00014 0.68853 0.30916 0.0
O74 O 0.98865 0.71088 0.31914 0.0
N75 N 0.91131 0.74886 0.30239 0.0
C76 C 0.85553 0.70305 0.31025 0.0
C77 C 0.89111 0.70572 0.30187 0.0
C78 C 0.88673 0.77192 0.311 0.0
N79 N 0.85309 0.74476 0.31606 0.0
O80 O 0.98717 0.80582 0.30716 0.0
H81 H 0.90294 0.67713 0.29613 0.0
H82 H 0.8939 0.80758 0.31382 0.0
O83 O 0.99589 0.7095 0.29902 0.0
C84 C 0.96834 0.84621 0.30519 0.0
O85 O 0.9385 0.84971 0.29614 0.0
N86 N 0.94202 0.73743 0.28006 0.0
C87 C 0.90535 0.70347 0.25849 0.0
C88 C 0.94633 0.68359 0.26343 0.0
C89 C 0.9643 0.7013 0.27422 0.0
C90 C 0.9024 0.75745 0.27534 0.0
C91 C 0.88312 0.7407 0.26459 0.0
H92 H 0.99676 0.68671 0.27763 0.0
H93 H 0.88606 0.78704 0.2799 0.0
H94 H 0.06425 0.72676 0.28558 0.0
H95 H 0.06683 0.84603 0.26324 0.0
H96 H 0.83511 0.6719 0.31237 0.0
H97 H 0.96447 0.6547 0.25899 0.0
H98 H 0.85185 0.75747 0.26096 0.0
C99 C 0.81658 0.98671 0.67707 0.0
C100 C 0.8165 0.95344 0.68609 0.0
N101 N 0.77274 0.93501 0.68685 0.0
N102 N 0.77314 0.989 0.67214 0.0
C103 C 0.7477 0.95624 0.67805 0.0
H104 H 0.84509 1.01082 0.67508 0.0
Co105 Co 0.75024 0.0379 0.66279 0.0
C106 C 0.67007 0.99858 0.64874 0.0
O107 O 0.69025 1.01364 0.63879 0.0
N108 N 0.72635 0.08821 0.65353 0.0
C109 C 0.67549 0.1417 0.64665 0.0
C110 C 0.68347 0.10827 0.65529 0.0
C111 C 0.74366 0.11039 0.64368 0.0
N112 N 0.7133 0.14284 0.63934 0.0
O113 O 0.7864 1.01305 0.64936 0.0
H114 H 0.65839 0.09818 0.66215 0.0
H115 H 0.77673 0.10172 0.63937 0.0
O116 O 0.69248 1.00198 0.65873 0.0
C117 C 0.82645 0.0341 0.6494 0.0
O118 O 0.83187 0.07073 0.65656 0.0
N119 N 0.72172 0.06333 0.67651 0.0
C120 C 0.69414 0.10524 0.69812 0.0
C121 C 0.66731 0.06865 0.69302 0.0
C122 C 0.68175 0.04799 0.68218 0.0
C123 C 0.74814 0.09875 0.68133 0.0
C124 C 0.73493 0.12038 0.69211 0.0
H125 H 0.6609 0.01965 0.67848 0.0
H126 H 0.78013 0.10975 0.6768 0.0
H127 H 0.71028 0.9511 0.67669 0.0
H128 H 0.84487 0.94718 0.69244 0.0
H129 H 0.64395 0.16299 0.64573 0.0
H130 H 0.63531 0.05624 0.69732 0.0
H131 H 0.75702 0.148 0.69582 0.0
C132 C 0.99463 0.3285 0.92443 0.0
C133 C 0.9561 0.31851 0.93155 0.0
N134 N 0.95424 0.27142 0.93329 0.0
N135 N 0.01688 0.2879 0.92165 0.0
C136 C 0.9911 0.25383 0.92697 0.0
H137 H 1.00744 0.36331 0.92219 0.0
Co138 Co 0.07641 0.2807 0.91493 0.0
C139 C 0.04144 0.20233 0.89768 0.0
O140 O 0.03422 0.22824 0.88804 0.0
N141 N 0.13607 0.27331 0.90827 0.0
C142 C 0.21352 0.26997 0.90534 0.0
C143 C 0.17844 0.27762 0.91372 0.0
C144 C 0.14607 0.2638 0.89666 0.0
N145 N 0.19292 0.26122 0.8946 0.0
O146 O 0.058 0.32098 0.90156 0.0
H147 H 0.18351 0.28609 0.92315 0.0
H148 H 0.11938 0.2608 0.88975 0.0
O149 O 0.05614 0.22155 0.90739 0.0
C150 C 0.07765 0.36081 0.90376 0.0
O151 O 0.10415 0.36415 0.91347 0.0
N152 N 0.09591 0.24703 0.92846 0.0
C153 C 0.13146 0.20754 0.94951 0.0
C154 C 0.13037 0.18131 0.93876 0.0
C155 C 0.11264 0.20185 0.92827 0.0
C156 C 0.09688 0.27305 0.9388 0.0
C157 C 0.11413 0.25386 0.94947 0.0
H158 H 0.11403 0.182 0.91995 0.0
H159 H 0.085 0.30933 0.93868 0.0
H160 H 1.00135 0.2171 0.92685 0.0
H161 H 0.93362 0.3444 0.93588 0.0
H162 H 0.25112 0.27102 0.90704 0.0
H163 H 0.1435 0.14543 0.93842 0.0
H164 H 0.11523 0.27558 0.95752 0.0
C165 C 0.3054 0.99076 0.03116 0.0
C166 C 0.30594 0.02292 0.02189 0.0
N167 N 0.2651 0.04737 0.0222 0.0
N168 N 0.26454 0.99511 0.0373 0.0
C169 C 0.24117 0.03038 0.03177 0.0
H170 H 0.33155 0.96368 0.03275 0.0
Co171 Co 0.24216 0.95292 0.04866 0.0
C172 C 0.16433 1.00255 0.06151 0.0
O173 O 0.18454 0.99319 0.0719 0.0
N174 N 0.21898 0.90958 0.05999 0.0
C175 C 0.17028 0.86092 0.06966 0.0
C176 C 0.17546 0.88985 0.05984 0.0
C177 C 0.23939 0.89208 0.07003 0.0
N178 N 0.21054 0.86264 0.07606 0.0
O179 O 0.28055 0.98457 0.06061 0.0
H180 H 0.14863 0.89681 0.05313 0.0
H181 H 0.27473 0.90037 0.07296 0.0
O182 O 0.18584 0.99191 0.05173 0.0
C183 C 0.32038 0.96306 0.06051 0.0
O184 O 0.32392 0.92373 0.05427 0.0
N185 N 0.2113 0.92049 0.03639 0.0
C186 C 0.18632 0.87353 0.0153 0.0
C187 C 0.16152 0.91396 0.01903 0.0
C188 C 0.17463 0.93708 0.02963 0.0
C189 C 0.23438 0.88021 0.03321 0.0
C190 C 0.22228 0.85592 0.02273 0.0
H191 H 0.157 0.96957 0.03196 0.0
H192 H 0.26382 0.8681 0.0386 0.0
H193 H 0.2059 0.0414 0.03421 0.0
H194 H 0.33248 0.02527 0.01488 0.0
H195 H 0.13901 0.84108 0.07206 0.0
H196 H 0.13399 0.92918 0.01348 0.0
H197 H 0.24188 0.8245 0.02028 0.0
C198 C 0.06053 0.70057 0.92335 0.0
C199 C 0.0955 0.70422 0.93191 0.0
N200 N 0.10689 0.75013 0.93319 0.0
N201 N 0.05008 0.74398 0.91919 0.0
C202 C 0.08029 0.77298 0.92496 0.0
H203 H 0.04012 0.66916 0.92154 0.0
Co204 Co 0.99305 0.7626 0.91237 0.0
C205 C 0.01676 0.84337 0.89653 0.0
O206 O 0.99518 0.822 0.88756 0.0
N207 N 0.93477 0.78232 0.90581 0.0
C208 C 0.87269 0.82812 0.90191 0.0
C209 C 0.91466 0.82488 0.90795 0.0
C210 C 0.90406 0.76053 0.89829 0.0
N211 N 0.86609 0.78761 0.89584 0.0
O212 O 1.00883 0.72665 0.89798 0.0
H213 H 0.93016 0.85296 0.9132 0.0
H214 H 0.90925 0.72586 0.89449 0.0
O215 O 0.02168 0.82172 0.90656 0.0
C216 C 0.98982 0.68625 0.89984 0.0
O217 O 0.96247 0.68162 0.90935 0.0
N218 N 0.97641 0.79031 0.92705 0.0
C219 C 0.94473 0.81578 0.9499 0.0
C220 C 0.9711 0.84762 0.94293 0.0
C221 C 0.98685 0.83412 0.93146 0.0
C222 C 0.95195 0.75875 0.93382 0.0
C223 C 0.93586 0.77063 0.94527 0.0
H224 H 1.00667 0.85906 0.92615 0.0
H225 H 0.94486 0.72394 0.93026 0.0
H226 H 0.07854 0.81094 0.92426 0.0
H227 H 0.10665 0.67616 0.93788 0.0
H228 H 0.84999 0.85884 0.90152 0.0
H229 H 0.9785 0.88294 0.94616 0.0
H230 H 0.91651 0.74464 0.95044 0.0
C231 C 0.70575 0.96082 0.03033 0.0
C232 C 0.72734 0.92516 0.02388 0.0
N233 N 0.7726 0.93765 0.02185 0.0
N234 N 0.73741 0.9954 0.03235 0.0
C235 C 0.77783 0.97987 0.02728 0.0
H236 H 0.66872 0.9627 0.03267 0.0
Co237 Co 0.72726 0.05594 0.03824 0.0
C238 C 0.80781 0.02275 0.05369 0.0
O239 O 0.78352 0.986 0.05736 0.0
N240 N 0.71722 0.116 0.0441 0.0
C241 C 0.69559 0.19062 0.04653 0.0
C242 C 0.69677 0.15313 0.03859 0.0
C243 C 0.72761 0.13112 0.05528 0.0
N244 N 0.71485 0.17638 0.05702 0.0
O245 O 0.69096 0.03106 0.05159 0.0
H246 H 0.68353 0.1528 0.02944 0.0
H247 H 0.74466 0.10928 0.06199 0.0
O248 O 0.78821 0.05282 0.04674 0.0
C249 C 0.64758 0.03896 0.04905 0.0
O250 O 0.63738 0.05842 0.03862 0.0
N251 N 0.75752 0.08135 0.02474 0.0
C252 C 0.79444 0.12049 0.00378 0.0
C253 C 0.81393 0.13158 0.01506 0.0
C254 C 0.79481 0.11169 0.02548 0.0
C255 C 0.73738 0.07114 0.01388 0.0
C256 C 0.75579 0.08974 0.00324 0.0
H257 H 0.80896 0.12184 0.03414 0.0
H258 H 0.70667 0.04852 0.01349 0.0
H259 H 0.80976 1.00076 0.02694 0.0
H260 H 0.71 0.89437 0.02017 0.0
H261 H 0.68124 0.22533 0.04476 0.0
H262 H 0.84361 0.15549 0.01583 0.0
H263 H 0.73922 0.08109 -0.00529 0.0
C264 C 0.52586 0.70386 0.78149 0.0
C265 C 0.49107 0.70079 0.77288 0.0
N266 N 0.46296 0.73896 0.77393 0.0
N267 N 0.51958 0.74367 0.78797 0.0
C268 C 0.48049 0.76381 0.78331 0.0
H269 H 0.5557 0.68033 0.78241 0.0
Co270 Co 0.56294 0.76784 0.79887 0.0
C271 C 0.51286 0.84751 0.8112 0.0
O272 O 0.51863 0.8274 0.82177 0.0
N273 N 0.60704 0.79264 0.80978 0.0
C274 C 0.65438 0.84386 0.81901 0.0
C275 C 0.6251 0.83677 0.80933 0.0
C276 C 0.62615 0.77361 0.81981 0.0
N277 N 0.65488 0.80404 0.82557 0.0
O278 O 0.53275 0.73075 0.81132 0.0
H279 H 0.61678 0.86264 0.80249 0.0
H280 H 0.61829 0.73873 0.82313 0.0
O281 O 0.52471 0.82504 0.80164 0.0
C282 C 0.55498 0.69132 0.81086 0.0
O283 O 0.59339 0.68928 0.80419 0.0
N284 N 0.5941 0.7973 0.78615 0.0
C285 C 0.63967 0.82234 0.76491 0.0
C286 C 0.59561 0.84185 0.76785 0.0
C287 C 0.57326 0.82873 0.77851 0.0
C288 C 0.63755 0.77905 0.78362 0.0
C289 C 0.66133 0.79154 0.77308 0.0
H290 H 0.53813 0.84177 0.78021 0.0
H291 H 0.65291 0.75312 0.7896 0.0
H292 H 0.46691 0.79769 0.78618 0.0
H293 H 0.48915 0.67471 0.76574 0.0
H294 H 0.67379 0.87578 0.82105 0.0
H295 H 0.57789 0.8659 0.76176 0.0
H296 H 0.69511 0.7754 0.77105 0.0
C297 C 0.72859 0.51035 0.17244 0.0
C298 C 0.7315 0.54211 0.1818 0.0
N299 N 0.77747 0.54984 0.18412 0.0
N300 N 0.77255 0.4986 0.16877 0.0
C301 C 0.80145 0.52321 0.17611 0.0
H302 H 0.69627 0.49528 0.16902 0.0
Co303 Co 0.78898 0.45238 0.15753 0.0
C304 C 0.86696 0.52489 0.15164 0.0
O305 O 0.8418 0.56355 0.1529 0.0
N306 N 0.80611 0.40558 0.14635 0.0
C307 C 0.84964 0.35413 0.13593 0.0
C308 C 0.84922 0.38526 0.14544 0.0
C309 C 0.78108 0.38606 0.13725 0.0
N310 N 0.80672 0.35503 0.13077 0.0
O311 O 0.75158 0.48529 0.14554 0.0
H312 H 0.87905 0.39321 0.15116 0.0
H313 H 0.74474 0.39407 0.13525 0.0
O314 O 0.84771 0.48467 0.15319 0.0
C315 C 0.7102 0.46706 0.14589 0.0
O316 O 0.70339 0.43008 0.15281 0.0
N317 N 0.81932 0.41898 0.16976 0.0
C318 C 0.8458 0.37482 0.19111 0.0
C319 C 0.87749 0.40443 0.185 0.0
C320 C 0.86359 0.42628 0.1743 0.0
C321 C 0.78904 0.38853 0.17523 0.0
C322 C 0.80154 0.36598 0.18592 0.0
H323 H 0.88778 0.45051 0.17006 0.0
H324 H 0.75409 0.38342 0.17152 0.0
H325 H 0.8395 0.52069 0.17584 0.0
H326 H 0.70216 0.55622 0.18693 0.0
H327 H 0.87956 0.3336 0.13283 0.0
H328 H 0.91188 0.41254 0.18874 0.0
H329 H 0.7763 0.34276 0.19022 0.0
C330 C 0.52963 0.32799 0.78028 0.0
C331 C 0.56592 0.31525 0.77264 0.0
N332 N 0.56501 0.26799 0.77124 0.0
N333 N 0.50621 0.28885 0.78369 0.0
C334 C 0.52918 0.25296 0.77826 0.0
H335 H 0.51886 0.36366 0.7824 0.0
Co336 Co 0.44765 0.28424 0.79111 0.0
C337 C 0.4865 0.20677 0.80828 0.0
O338 O 0.49906 0.23325 0.81747 0.0
N339 N 0.38925 0.27925 0.79846 0.0
C340 C 0.31237 0.27784 0.80219 0.0
C341 C 0.3462 0.28491 0.79348 0.0
C342 C 0.38097 0.26958 0.81014 0.0
N343 N 0.33442 0.26815 0.81268 0.0
O344 O 0.46887 0.32611 0.8039 0.0
H345 H 0.33988 0.29351 0.78412 0.0
H346 H 0.4088 0.26506 0.81669 0.0
O347 O 0.46827 0.22578 0.79895 0.0
C348 C 0.45039 0.36601 0.80118 0.0
O349 O 0.42398 0.36794 0.79143 0.0
N350 N 0.42517 0.24897 0.7781 0.0
C351 C 0.38991 0.20446 0.75757 0.0
C352 C 0.39128 0.18085 0.7687 0.0
C353 C 0.40815 0.20409 0.77892 0.0
C354 C 0.42344 0.27281 0.76746 0.0
C355 C 0.40604 0.25124 0.75707 0.0
H356 H 0.40648 0.18637 0.78752 0.0
H357 H 0.43529 0.30905 0.76708 0.0
H358 H 0.51734 0.21674 0.77871 0.0
H359 H 0.58836 0.33928 0.76769 0.0
H360 H 0.27457 0.27959 0.80084 0.0
H361 H 0.37928 0.14478 0.76957 0.0
H362 H 0.40437 0.2715 0.74882 0.0
C363 C 0.34368 0.47193 0.17537 0.0
C364 C 0.33041 0.43342 0.18212 0.0
N365 N 0.28579 0.44033 0.18599 0.0
N366 N 0.30754 0.50288 0.17498 0.0
C367 C 0.27278 0.48246 0.18145 0.0
H368 H 0.37821 0.47782 0.1715 0.0
Co369 Co 0.30773 0.56381 0.16878 0.0
C370 C 0.22589 0.51732 0.15589 0.0
O371 O 0.24871 0.47728 0.15451 0.0
N372 N 0.30811 0.62437 0.16274 0.0
C373 C 0.31838 0.70134 0.16047 0.0
C374 C 0.32443 0.66376 0.16815 0.0
C375 C 0.29275 0.6384 0.15185 0.0
N376 N 0.2985 0.68513 0.15022 0.0
O377 O 0.34493 0.54266 0.15507 0.0
H378 H 0.33988 0.66492 0.17707 0.0
H379 H 0.27725 0.6147 0.1453 0.0
O380 O 0.24669 0.55241 0.16079 0.0
C381 C 0.38708 0.55812 0.15646 0.0
O382 O 0.39681 0.58311 0.16614 0.0
N383 N 0.27658 0.586 0.1825 0.0
C384 C 0.2419 0.62613 0.20366 0.0
C385 C 0.21544 0.62785 0.19296 0.0
C386 C 0.23354 0.60775 0.18242 0.0
C387 C 0.30272 0.58387 0.1928 0.0
C388 C 0.28585 0.60333 0.20353 0.0
H389 H 0.21366 0.61123 0.17416 0.0
H390 H 0.33737 0.56778 0.19259 0.0
H391 H 0.23956 0.49973 0.18343 0.0
H392 H 0.35261 0.40363 0.18437 0.0
H393 H 0.32849 0.73752 0.16222 0.0
H394 H 0.18129 0.64506 0.19269 0.0
H395 H 0.30772 0.60194 0.21153 0.0
C396 C 0.54957 0.8671 0.43606 0.0
C397 C 0.50936 0.86396 0.44299 0.0
N398 N 0.48864 0.822 0.44075 0.0
N399 N 0.55414 0.82736 0.42949 0.0
C400 C 0.51609 0.8011 0.43233 0.0
H401 H 0.57567 0.89488 0.43649 0.0
Co402 Co 0.60786 0.80949 0.42117 0.0
C403 C 0.57803 0.72622 0.40614 0.0
O404 O 0.59103 0.74802 0.39624 0.0
N405 N 0.66281 0.79035 0.41277 0.0
C406 C 0.7209 0.74364 0.40627 0.0
C407 C 0.69009 0.75258 0.41553 0.0
C408 C 0.67827 0.80372 0.40175 0.0
N409 N 0.71303 0.77561 0.39759 0.0
O410 O 0.58519 0.84544 0.40742 0.0
H411 H 0.68583 0.73029 0.42334 0.0
H412 H 0.66156 0.8304 0.39628 0.0
O413 O 0.57916 0.74857 0.41619 0.0
C414 C 0.605 0.8859 0.40871 0.0
O415 O 0.63691 0.89056 0.41724 0.0
N416 N 0.6307 0.78223 0.43525 0.0
C417 C 0.67099 0.75177 0.45673 0.0
C418 C 0.6324 0.7277 0.4517 0.0
C419 C 0.61241 0.74379 0.44097 0.0
C420 C 0.66695 0.80707 0.44024 0.0
C421 C 0.68795 0.79224 0.45093 0.0
H422 H 0.5822 0.72555 0.43737 0.0
H423 H 0.67989 0.83838 0.43577 0.0
H424 H 0.51032 0.7659 0.42889 0.0
H425 H 0.49872 0.88887 0.44989 0.0
H426 H 0.74521 0.71422 0.40568 0.0
H427 H 0.61817 0.69631 0.4559 0.0
H428 H 0.71701 0.8124 0.45465 0.0
C429 C 0.83521 0.49776 0.53061 0.0
C430 C 0.84374 0.53482 0.52295 0.0
N431 N 0.80641 0.56433 0.52342 0.0
N432 N 0.7928 0.50388 0.5359 0.0
C433 C 0.77642 0.54503 0.53148 0.0
H434 H 0.8576 0.46724 0.53183 0.0
Co435 Co 0.76415 0.45998 0.54581 0.0
C436 C 0.68464 0.51015 0.55825 0.0
O437 O 0.70226 0.49853 0.5688 0.0
N438 N 0.7351 0.41484 0.55571 0.0
C439 C 0.68045 0.36515 0.56248 0.0
C440 C 0.68963 0.40086 0.55454 0.0
C441 C 0.75266 0.38712 0.56453 0.0
N442 N 0.72019 0.35648 0.56871 0.0
O443 O 0.80114 0.48512 0.55901 0.0
H444 H 0.66464 0.41537 0.54817 0.0
H445 H 0.78867 0.38827 0.56771 0.0
O446 O 0.70883 0.50163 0.54872 0.0
C447 C 0.84014 0.4621 0.55922 0.0
O448 O 0.84344 0.42377 0.55256 0.0
N449 N 0.73403 0.43383 0.53243 0.0
C450 C 0.6914 0.38782 0.51317 0.0
C451 C 0.68011 0.43483 0.51584 0.0
C452 C 0.70227 0.45742 0.52544 0.0
C453 C 0.74712 0.38882 0.52964 0.0
C454 C 0.72596 0.36491 0.52006 0.0
H455 H 0.69405 0.49389 0.52714 0.0
H456 H 0.77347 0.37115 0.53507 0.0
H457 H 0.7417 0.55892 0.53348 0.0
H458 H 0.87412 0.53856 0.51711 0.0
H459 H 0.64705 0.34713 0.56362 0.0
H460 H 0.65477 0.4542 0.51045 0.0
H461 H 0.73588 0.3287 0.5182 0.0
C462 C 0.50936 0.22114 0.42343 0.0
C463 C 0.5294 0.21837 0.43471 0.0
N464 N 0.53823 0.2626 0.43856 0.0
N465 N 0.50611 0.26686 0.4202 0.0
C466 C 0.52382 0.29124 0.4296 0.0
H467 H 0.49702 0.19178 0.41806 0.0
Co468 Co 0.47985 0.29007 0.40617 0.0
C469 C 0.55831 0.366 0.40376 0.0
O470 O 0.58872 0.34111 0.39744 0.0
N471 N 0.45411 0.31329 0.39206 0.0
C472 C 0.44607 0.34536 0.37397 0.0
C473 C 0.47753 0.33395 0.38289 0.0
C474 C 0.40865 0.31188 0.38848 0.0
N475 N 0.40276 0.33143 0.37749 0.0
O476 O 0.52483 0.25215 0.39715 0.0
H477 H 0.51527 0.33894 0.38249 0.0
H478 H 0.38065 0.29613 0.39376 0.0
O479 O 0.51954 0.34713 0.40711 0.0
C480 C 0.5036 0.21541 0.39309 0.0
O481 O 0.45721 0.21486 0.39346 0.0
N482 N 0.43358 0.32127 0.41524 0.0
C483 C 0.37634 0.35932 0.4332 0.0
C484 C 0.39954 0.38885 0.42493 0.0
C485 C 0.42762 0.36898 0.41586 0.0
C486 C 0.40719 0.29212 0.42229 0.0
C487 C 0.37876 0.31036 0.43143 0.0
H488 H 0.4458 0.39191 0.40964 0.0
H489 H 0.41082 0.2543 0.42135 0.0
H490 H 0.52577 0.32935 0.42988 0.0
H491 H 0.53575 0.18645 0.4398 0.0
H492 H 0.45478 0.36048 0.36529 0.0
H493 H 0.39717 0.42688 0.42569 0.0
H494 H 0.36132 0.28612 0.43751 0.0
C495 C 0.19535 0.49748 0.52635 0.0
C496 C 0.20082 0.4658 0.51704 0.0
N497 N 0.24501 0.47005 0.51266 0.0
N498 N 0.23598 0.52151 0.52789 0.0
C499 C 0.26584 0.50337 0.51957 0.0
H500 H 0.16274 0.50472 0.53106 0.0
Co501 Co 0.24351 0.57602 0.53711 0.0
C502 C 0.3248 0.52959 0.55118 0.0
O503 O 0.29808 0.51016 0.55948 0.0
N504 N 0.25072 0.63037 0.54625 0.0
C505 C 0.24918 0.70486 0.5524 0.0
C506 C 0.24197 0.67512 0.54277 0.0
C507 C 0.26253 0.63353 0.55798 0.0
N508 N 0.26187 0.67848 0.56195 0.0
O509 O 0.20715 0.54718 0.55011 0.0
H510 H 0.22992 0.68528 0.53389 0.0
H511 H 0.27022 0.60333 0.5636 0.0
O512 O 0.30562 0.55345 0.54273 0.0
C513 C 0.16653 0.56727 0.55046 0.0
O514 O 0.15835 0.60225 0.54299 0.0
N515 N 0.27302 0.60602 0.52414 0.0
C516 C 0.30755 0.65647 0.50455 0.0
C517 C 0.33474 0.65139 0.51505 0.0
C518 C 0.31668 0.62622 0.5248 0.0
C519 C 0.24572 0.6114 0.51411 0.0
C520 C 0.26258 0.63596 0.50412 0.0
H521 H 0.33689 0.62474 0.53304 0.0
H522 H 0.2104 0.59689 0.51393 0.0
H523 H 0.30065 0.51764 0.51785 0.0
H524 H 0.17346 0.44336 0.51336 0.0
H525 H 0.2433 0.7426 0.55252 0.0
H526 H 0.36955 0.66698 0.51575 0.0
H527 H 0.24018 0.63989 0.49627 0.0
H528 H 0.08445 0.30685 0.23495 0.0
H529 H 0.20327 0.35488 0.25612 0.0
H530 H 0.12496 0.33128 0.21652 0.0
H531 H 0.2427 0.38101 0.23784 0.0
H532 H 0.19096 0.43699 0.18915 0.0
H533 H 0.14908 0.40333 0.20629 0.0
H534 H 0.28069 0.3483 0.2201 0.0
H535 H 0.32279 0.38379 0.2033 0.0
C536 C 0.11915 0.32268 0.23566 0.0
C537 C 0.14066 0.32901 0.24698 0.0
C538 C 0.14217 0.33696 0.22513 0.0
C539 C 0.18718 0.35773 0.22572 0.0
C540 C 0.20842 0.36434 0.23705 0.0
C541 C 0.18548 0.35008 0.24756 0.0
C542 C 0.21092 0.41759 0.19583 0.0
C543 C 0.26035 0.4138 0.19495 0.0
C544 C 0.18685 0.39788 0.20558 0.0
C545 C 0.21169 0.37378 0.21464 0.0
C546 C 0.2607 0.36754 0.21339 0.0
C547 C 0.28478 0.38736 0.20365 0.0
H548 H 0.40656 0.6857 0.7597 0.0
H549 H 0.44553 0.82967 0.76774 0.0
H550 H 0.35856 0.71325 0.74278 0.0
H551 H 0.39823 0.85703 0.75094 0.0
H552 H 0.28707 0.89737 0.72408 0.0
H553 H 0.31976 0.86601 0.74275 0.0
H554 H 0.37619 0.74664 0.72312 0.0
H555 H 0.34161 0.77684 0.70457 0.0
C556 C 0.40444 0.72318 0.75793 0.0
C557 C 0.4298 0.75542 0.76505 0.0
C558 C 0.37714 0.73896 0.74825 0.0
C559 C 0.37483 0.7873 0.74548 0.0
C560 C 0.39863 0.81963 0.75293 0.0
C561 C 0.42576 0.80389 0.7626 0.0
C562 C 0.30573 0.864 0.72379 0.0
C563 C 0.31198 0.8397 0.71284 0.0
C564 C 0.32481 0.84627 0.73447 0.0
C565 C 0.35067 0.80392 0.73441 0.0
C566 C 0.35598 0.77907 0.7235 0.0
C567 C 0.3368 0.79675 0.71284 0.0
H568 H 0.85909 0.53186 0.19591 0.0
H569 H 0.7395 0.62658 0.19498 0.0
H570 H 0.89021 0.57357 0.21332 0.0
H571 H 0.77081 0.6686 0.21252 0.0
H572 H 0.81338 0.68514 0.25284 0.0
H573 H 0.78269 0.65199 0.23408 0.0
H574 H 0.92395 0.6493 0.21929 0.0
H575 H 0.9546 0.68217 0.23806 0.0
C576 C 0.83988 0.56217 0.19928 0.0
C577 C 0.79689 0.57608 0.19405 0.0
C578 C 0.85771 0.58606 0.20927 0.0
C579 C 0.83298 0.6244 0.21426 0.0
C580 C 0.79032 0.63881 0.20894 0.0
C581 C 0.77243 0.61482 0.19892 0.0
C582 C 0.83771 0.67799 0.24552 0.0
C583 C 0.88638 0.68575 0.24693 0.0
C584 C 0.82017 0.65915 0.23478 0.0
C585 C 0.85099 0.64786 0.22526 0.0
C586 C 0.89949 0.65692 0.22656 0.0
C587 C 0.91702 0.67563 0.23729 0.0
H588 H 0.65068 0.28583 0.76133 0.0
H589 H 0.53247 0.18958 0.75988 0.0
H590 H 0.68707 0.24434 0.7443 0.0
H591 H 0.56862 0.14847 0.74311 0.0
H592 H 0.6611 0.06179 0.71843 0.0
H593 H 0.63521 0.0988 0.73721 0.0
H594 H 0.66917 0.23594 0.72266 0.0
H595 H 0.69504 0.19898 0.70391 0.0
C596 C 0.6327 0.25569 0.75746 0.0
C597 C 0.58881 0.24102 0.76202 0.0
C598 C 0.65345 0.23199 0.74772 0.0
C599 C 0.63069 0.19314 0.74238 0.0
C600 C 0.5875 0.17771 0.74716 0.0
C601 C 0.56679 0.20135 0.75685 0.0
C602 C 0.66287 0.09985 0.71924 0.0
C603 C 0.67978 0.12751 0.70967 0.0
C604 C 0.64822 0.12101 0.73 0.0
C605 C 0.65013 0.17028 0.7314 0.0
C606 C 0.66798 0.19784 0.72192 0.0
C607 C 0.68264 0.17668 0.71117 0.0
H608 H 0.17304 0.05843 0.01605 0.0
H609 H 0.31464 0.10193 0.00666 0.0
H610 H 0.14204 0.10153 -0.00104 0.0
H611 H 0.28326 0.1451 -0.01065 0.0
H612 H 0.09691 0.21394 0.97245 0.0
H613 H 0.13113 0.18124 -0.00918 0.0
H614 H 0.24597 0.12217 0.96998 0.0
H615 H 0.21256 0.15615 0.95167 0.0
C616 C 0.19756 0.07811 0.01053 0.0
C617 C 0.24646 0.07681 0.01277 0.0
C618 C 0.17968 0.10274 0.00068 0.0
C619 C 0.21023 0.12656 -0.00719 0.0
C620 C 0.25897 0.12649 -0.0048 0.0
C621 C 0.27691 0.10188 0.0051 0.0
C622 C 0.12971 0.19438 0.97182 0.0
C623 C 0.15197 0.18737 0.96063 0.0
C624 C 0.14912 0.17544 -0.01769 0.0
C625 C 0.19121 0.14921 -0.01818 0.0
C626 C 0.21378 0.14271 0.97065 0.0
C627 C 0.19431 0.16155 0.96015 0.0
H628 H 0.17514 0.71367 0.94758 0.0
H629 H 0.08128 0.83311 0.94369 0.0
H630 H 0.19699 0.7419 0.96774 0.0
H631 H 0.10369 0.86125 0.96343 0.0
H632 H 0.10092 0.85921 0.00436 0.0
H633 H 0.08645 0.8301 -0.01602 0.0
H634 H 0.23631 0.81014 0.97873 0.0
H635 H 0.25103 0.83999 -0.00095 0.0
C636 C 0.1599 0.74625 0.9509 0.0
C637 C 0.1264 0.77087 0.94398 0.0
C638 C 0.17243 0.76242 0.9624 0.0
C639 C 0.15134 0.80329 0.96719 0.0
C640 C 0.11983 0.82916 0.96004 0.0
C641 C 0.10756 0.81325 0.94859 0.0
C642 C 0.13079 0.84872 -0.00114 0.0
C643 C 0.17709 0.85208 0.00332 0.0
C644 C 0.12253 0.83208 -0.0128 0.0
C645 C 0.16037 0.81832 -0.02024 0.0
C646 C 0.20654 0.82024 -0.01569 0.0
C647 C 0.21485 0.83714 -0.00404 0.0
H648 H 0.85669 0.79654 0.9584 0.0
H649 H 0.9867 0.86705 0.968 0.0
H650 H 0.82159 0.82117 0.97738 0.0
H651 H 0.95112 0.8922 -0.0129 0.0
H652 H 0.8402 0.98171 0.00865 0.0
H653 H 0.88765 0.94779 -0.00734 0.0
H654 H 0.82548 0.81123 -0.00062 0.0
H655 H 0.77769 0.84534 0.01559 0.0
C656 C 0.87809 0.81664 0.96467 0.0
C657 C 0.92449 0.82986 0.9617 0.0
C658 C 0.85797 0.83064 0.97557 0.0
C659 C 0.88368 0.85836 -0.01624 0.0
C660 C 0.93039 0.87107 -0.01909 0.0
C661 C 0.95064 0.85691 0.96997 0.0
C662 C 0.83743 0.94418 0.00702 0.0
C663 C 0.80486 0.91622 0.0134 0.0
C664 C 0.86477 0.92473 -0.0022 0.0
C665 C 0.86011 0.87694 -0.00528 0.0
C666 C 0.82928 0.8484 0.00146 0.0
C667 C 0.80192 0.86787 0.01072 0.0
H668 H 0.81588 0.21287 -0.00017 0.0
H669 H 0.81592 0.07599 -0.01737 0.0
H670 H 0.84949 0.24778 -0.01838 0.0
H671 H 0.84922 0.11101 0.96434 0.0
H672 H 0.87129 0.30067 0.94322 0.0
H673 H 0.82829 0.26315 0.95968 0.0
H674 H 0.92812 0.14803 0.95951 0.0
H675 H 0.9718 0.18549 0.94342 0.0
C676 C 0.82305 0.19033 -0.00786 0.0
C677 C 0.81362 0.14174 -0.00736 0.0
C678 C 0.84173 0.21036 -0.01832 0.0
C679 C 0.85178 0.18208 0.97158 0.0
C680 C 0.84192 0.13354 0.97203 0.0
C681 C 0.82273 0.11359 -0.01755 0.0
C682 C 0.88416 0.26738 0.94666 0.0
C683 C 0.92548 0.24662 0.94198 0.0
C684 C 0.8594 0.24588 0.95607 0.0
C685 C 0.87506 0.20285 0.96088 0.0
C686 C 0.91498 0.18098 0.95588 0.0
C687 C 0.94001 0.20264 0.94658 0.0
H688 H 0.73112 0.84653 0.75992 0.0
H689 H 0.59659 0.81804 0.74309 0.0
H690 H 0.76457 0.86653 0.74022 0.0
H691 H 0.62997 0.83692 0.72344 0.0
H692 H 0.68443 0.94394 0.69596 0.0
H693 H 0.65416 0.91 0.71432 0.0
H694 H 0.78675 0.83775 0.71998 0.0
H695 H 0.81756 0.87229 0.70131 0.0
C696 C 0.70899 0.84398 0.75198 0.0
C697 C 0.66113 0.8317 0.75301 0.0
C698 C 0.72813 0.85508 0.74071 0.0
C699 C 0.69975 0.8537 0.7303 0.0
C700 C 0.65246 0.83926 0.73133 0.0
C701 C 0.63332 0.82858 0.74256 0.0
C702 C 0.7069 0.91978 0.70085 0.0
C703 C 0.75339 0.91041 0.69706 0.0
C704 C 0.68948 0.90037 0.71146 0.0
C705 C 0.71796 0.871 0.71859 0.0
C706 C 0.76412 0.86061 0.71471 0.0
C707 C 0.78168 0.88018 0.70403 0.0
H708 H 0.7883 0.36855 0.21087 0.0
H709 H 0.93027 0.33851 0.19871 0.0
H710 H 0.80891 0.34132 0.23104 0.0
H711 H 0.95089 0.31163 0.21891 0.0
H712 H 0.98673 0.32056 0.25843 0.0
H713 H 0.96131 0.34833 0.23883 0.0
H714 H 0.83193 0.26881 0.24227 0.0
H715 H 0.85697 0.24183 0.26226 0.0
C716 C 0.82371 0.35547 0.21245 0.0
C717 C 0.8577 0.3557 0.20318 0.0
C718 C 0.83549 0.34002 0.22402 0.0
C719 C 0.88156 0.3247 0.22657 0.0
C720 C 0.9153 0.32408 0.21726 0.0
C721 C 0.9035 0.33942 0.20569 0.0
C722 C 0.95228 0.30986 0.25522 0.0
C723 C 0.92358 0.27923 0.26198 0.0
C724 C 0.9381 0.32519 0.24386 0.0
C725 C 0.89492 0.3103 0.23895 0.0
C726 C 0.86539 0.28095 0.24584 0.0
C727 C 0.87971 0.2654 0.25724 0.0
H728 H 0.29484 1.00263 0.70443 0.0
H729 H 0.25441 0.1367 0.68921 0.0
H730 H 0.33077 0.04317 0.72163 0.0
H731 H 0.29144 0.17756 0.7064 0.0
H732 H 0.41872 0.21455 0.73402 0.0
H733 H 0.38509 0.17724 0.71608 0.0
H734 H 0.28552 0.10227 0.73835 0.0
H735 H 0.31662 0.1414 0.75624 0.0
C736 C 0.29444 0.04083 0.70469 0.0
C737 C 0.27219 0.06678 0.69553 0.0
C738 C 0.31465 0.06387 0.71453 0.0
C739 C 0.3137 0.11323 0.71524 0.0
C740 C 0.29262 0.13939 0.70594 0.0
C741 C 0.27144 0.11621 0.6962 0.0
C742 C 0.38912 0.19078 0.73512 0.0
C743 C 0.37049 0.18103 0.74663 0.0
C744 C 0.37018 0.16933 0.72485 0.0
C745 C 0.33302 0.13704 0.72595 0.0
C746 C 0.31453 0.12689 0.73737 0.0
C747 C 0.33271 0.14901 0.7476 0.0
H748 H 0.20073 0.7128 0.20565 0.0
H749 H 0.24447 0.59255 0.22677 0.0
H750 H 0.16997 0.7506 0.22378 0.0
H751 H 0.21489 0.63109 0.24502 0.0
H752 H 0.14783 0.82365 0.25912 0.0
H753 H 0.19403 0.78629 0.24309 0.0
H754 H 0.13614 0.65071 0.25287 0.0
H755 H 0.09017 0.68771 0.26872 0.0
C756 C 0.20383 0.6945 0.21418 0.0
C757 C 0.22456 0.64953 0.21478 0.0
C758 C 0.18689 0.71646 0.22459 0.0
C759 C 0.19023 0.6939 0.23584 0.0
C760 C 0.21166 0.64923 0.23647 0.0
C761 C 0.22879 0.6273 0.22605 0.0
C762 C 0.14559 0.7858 0.25794 0.0
C763 C 0.11507 0.75885 0.26516 0.0
C764 C 0.1719 0.76444 0.24876 0.0
C765 C 0.16828 0.71565 0.24665 0.0
C766 C 0.14008 0.6883 0.25435 0.0
C767 C 0.11374 0.70963 0.2635 0.0
H768 H 0.83988 0.57539 0.50068 0.0
H769 H 0.7473 0.63813 0.52727 0.0
H770 H 0.81087 0.62999 0.48563 0.0
H771 H 0.71794 0.69302 0.51207 0.0
H772 H 0.629 0.71688 0.47705 0.0
H773 H 0.66749 0.68032 0.49432 0.0
H774 H 0.80406 0.7115 0.47886 0.0
H775 H 0.76554 0.74641 0.46136 0.0
C776 C 0.81432 0.60168 0.50343 0.0
C777 C 0.79545 0.60192 0.51517 0.0
C778 C 0.79763 0.63308 0.49477 0.0
C779 C 0.76174 0.66546 0.49764 0.0
C780 C 0.74502 0.66783 0.50956 0.0
C781 C 0.7618 0.63642 0.51825 0.0
C782 C 0.66723 0.71601 0.47736 0.0
C783 C 0.69423 0.734 0.46779 0.0
C784 C 0.6893 0.6957 0.48733 0.0
C785 C 0.73881 0.69298 0.48793 0.0
C786 C 0.76583 0.71275 0.47859 0.0
C787 C 0.74376 0.73306 0.46862 0.0
H788 H 0.59966 0.21327 0.45237 0.0
H789 H 0.52124 0.34389 0.45058 0.0
H790 H 0.63486 0.23865 0.47143 0.0
H791 H 0.55762 0.36996 0.46928 0.0
H792 H 0.59742 0.38753 0.50816 0.0
H793 H 0.55813 0.35259 0.49074 0.0
H794 H 0.69209 0.29851 0.47806 0.0
H795 H 0.7313 0.33311 0.49559 0.0
C796 C 0.58978 0.24723 0.45608 0.0
C797 C 0.55795 0.27672 0.44995 0.0
C798 C 0.61024 0.26193 0.46691 0.0
C799 C 0.59902 0.30628 0.47183 0.0
C800 C 0.56657 0.33536 0.46579 0.0
C801 C 0.54622 0.32071 0.45498 0.0
C802 C 0.61838 0.36804 0.50165 0.0
C803 C 0.6674 0.36337 0.50312 0.0
C804 C 0.59594 0.34809 0.49169 0.0
C805 C 0.62212 0.32323 0.48299 0.0
C806 C 0.67094 0.31709 0.48469 0.0
C807 C 0.69339 0.33693 0.49469 0.0
H808 H 0.33632 0.45359 0.50673 0.0
H809 H 0.19392 0.44546 0.49294 0.0
H810 H 0.36668 0.42795 0.48716 0.0
H811 H 0.22406 0.42038 0.47343 0.0
H812 H 0.29373 0.33075 0.44385 0.0
H813 H 0.26212 0.35562 0.46329 0.0
H814 H 0.3749 0.45737 0.4668 0.0
H815 H 0.40776 0.43094 0.44763 0.0
C816 C 0.31154 0.44629 0.49953 0.0
C817 C 0.26275 0.45141 0.50143 0.0
C818 C 0.32889 0.43186 0.4883 0.0
C819 C 0.2978 0.42239 0.4787 0.0
C820 C 0.24896 0.42676 0.48067 0.0
C821 C 0.23165 0.44101 0.49189 0.0
C822 C 0.31175 0.35846 0.44876 0.0
C823 C 0.35334 0.37875 0.44419 0.0
C824 C 0.29343 0.37298 0.45988 0.0
C825 C 0.3162 0.40823 0.46666 0.0
C826 C 0.35695 0.42956 0.4619 0.0
C827 C 0.37533 0.41497 0.4508 0.0
H828 H 0.35181 0.74182 0.50505 0.0
H829 H 0.30417 0.63257 0.4807 0.0
H830 H 0.38699 0.78409 0.48815 0.0
H831 H 0.33853 0.67544 0.46372 0.0
H832 H 0.4744 0.72774 0.44379 0.0
H833 H 0.42195 0.69056 0.45805 0.0
H834 H 0.36905 0.82704 0.46898 0.0
H835 H 0.42135 0.86492 0.45439 0.0
C836 C 0.34861 0.72706 0.49606 0.0
C837 C 0.32579 0.68369 0.49419 0.0
C838 C 0.36814 0.75157 0.48637 0.0
C839 C 0.36544 0.73304 0.47462 0.0
C840 C 0.34131 0.69038 0.4727 0.0
C841 C 0.3215 0.666 0.48239 0.0
C842 C 0.45079 0.75014 0.44889 0.0
C843 C 0.4526 0.79965 0.44795 0.0
C844 C 0.42062 0.72859 0.45713 0.0
C845 C 0.39168 0.75591 0.46469 0.0
C846 C 0.39154 0.80519 0.46337 0.0
C847 C 0.42155 0.82684 0.45504 0.0
H848 H 0.97473 0.14537 0.31811 0.0
H849 H 0.11314 0.09623 0.30779 0.0
H850 H 0.95394 0.06521 0.32442 0.0
H851 H 0.09224 0.01673 0.31323 0.0
H852 H 0.04969 0.87096 0.31757 0.0
H853 H 0.07139 0.95104 0.32385 0.0
H854 H 0.93226 1.00008 0.31363 0.0
H855 H 0.9105 0.92076 0.30823 0.0
C856 C 1.00114 0.11778 0.31754 0.0
C857 C 0.0452 0.12687 0.31226 0.0
C858 C 0.98911 0.07151 0.32096 0.0
C859 C 0.02073 0.03348 0.31899 0.0
C860 C 0.06657 0.04423 0.31496 0.0
C861 C 0.07858 0.09019 0.31171 0.0
C862 C 0.02341 0.8987 0.31715 0.0
C863 C 0.97879 0.88975 0.31216 0.0
C864 C 0.03591 0.9449 0.32058 0.0
C865 C 1.00421 0.98304 0.31893 0.0
C866 C 0.95802 0.97249 0.31512 0.0
C867 C 0.94554 0.92662 0.31186 0.0
H868 H 0.12132 0.02255 0.65034 0.0
H869 H 0.0883 0.87768 0.64216 0.0
H870 H 0.04057 0.04526 0.64541 0.0
H871 H 1.0083 0.90019 0.63648 0.0
H872 H 0.89327 0.08233 0.63707 0.0
H873 H 0.97461 0.05767 0.6335 0.0
H874 H 0.94049 0.91885 0.64707 0.0
H875 H 0.85876 0.94336 0.64997 0.0
C876 C 0.09742 0.99594 0.64688 0.0
C877 C 0.11114 0.9484 0.64662 0.0
C878 C 0.05074 1.00882 0.64407 0.0
C879 C 0.01689 0.97446 0.64076 0.0
C880 C 0.03247 0.92759 0.63933 0.0
C881 C 0.07873 0.91471 0.64237 0.0
C882 C 0.90289 0.04593 0.63878 0.0
C883 C 0.86955 0.01459 0.64367 0.0
C884 C 0.94984 0.03194 0.63695 0.0
C885 C 0.96509 0.98644 0.64023 0.0
C886 C 0.93059 0.95404 0.64428 0.0
C887 C 0.88334 0.96791 0.6459 0.0
H888 H 0.93173 0.61272 0.89589 0.0
H889 H 0.07386 0.65998 0.88903 0.0
H890 H 0.95485 0.53214 0.89199 0.0
H891 H 0.09716 0.57877 0.8843 0.0
H892 H 0.13426 0.43706 0.90264 0.0
H893 H 0.11373 0.51586 0.8965 0.0
H894 H 0.98051 0.46451 0.8826 0.0
H895 H 1.00069 0.38491 0.88954 0.0
C896 C 0.96772 0.60599 0.89301 0.0
C897 C 1.00116 0.64265 0.89298 0.0
C898 C 0.98109 0.55939 0.89069 0.0
C899 C 0.02842 0.54796 0.88815 0.0
C900 C 0.06068 0.58566 0.88664 0.0
C901 C 0.04726 0.63254 0.88912 0.0
C902 C 0.10084 0.44227 0.89807 0.0
C903 C 0.06868 0.40477 0.89683 0.0
C904 C 0.08915 0.48784 0.89438 0.0
C905 C 0.04488 0.49759 0.88919 0.0
C906 C 1.01445 0.45899 0.88686 0.0
C907 C 0.02615 0.41306 0.89068 0.0
H908 H 0.59249 0.10262 0.06042 0.0
H909 H 0.61061 0.95336 0.0548 0.0
H910 H 0.51238 0.08933 0.06787 0.0
H911 H 0.53007 0.9396 0.06178 0.0
H912 H 0.35697 0.05085 0.05681 0.0
H913 H 0.44055 0.07119 0.05816 0.0
H914 H 0.46843 0.93861 0.07601 0.0
H915 H 0.38515 0.91795 0.07414 0.0
C916 C 0.5798 0.0667 0.06125 0.0
C917 C 0.60794 0.02889 0.05728 0.0
C918 C 0.53356 0.05909 0.06531 0.0
C919 C 0.51399 1.01345 0.06528 0.0
C920 C 0.54369 0.97524 0.06212 0.0
C921 C 0.59015 0.98293 0.05816 0.0
C922 C 0.38066 0.02717 0.06152 0.0
C923 C 0.36455 0.98303 0.06545 0.0
C924 C 0.42886 0.03856 0.06224 0.0
C925 C 0.46189 1.00613 0.06699 0.0
C926 C 0.44456 0.96401 0.07201 0.0
C927 C 0.39662 0.95245 0.07114 0.0
H928 H 0.52123 0.3876 0.81767 0.0
H929 H 0.40085 0.44709 0.79929 0.0
H930 H 0.54207 0.46645 0.82512 0.0
H931 H 0.42254 0.52485 0.80596 0.0
H932 H 0.46311 0.66668 0.81664 0.0
H933 H 0.43341 0.58618 0.81911 0.0
H934 H 0.57659 0.53316 0.81736 0.0
H935 H 0.60562 0.61287 0.81574 0.0
C936 C 0.49887 0.41727 0.81537 0.0
C937 C 0.45991 0.41101 0.8077 0.0
C938 C 0.51099 0.46272 0.81952 0.0
C939 C 0.4846 0.50289 0.81602 0.0
C940 C 0.44378 0.49553 0.80905 0.0
C941 C 0.43159 0.45048 0.80504 0.0
C942 C 0.48813 0.63787 0.81728 0.0
C943 C 0.53662 0.64617 0.81578 0.0
C944 C 0.47119 0.59144 0.81849 0.0
C945 C 0.50233 0.55234 0.81804 0.0
C946 C 0.5511 0.56158 0.81776 0.0
C947 C 0.56789 0.60772 0.81672 0.0
H948 H 0.64469 0.42452 0.13193 0.0
H949 H 0.67807 0.55685 0.14907 0.0
H950 H 0.56259 0.44906 0.1297 0.0
H951 H 0.59571 0.58092 0.14748 0.0
H952 H 0.44632 0.61937 0.14569 0.0
H953 H 0.52543 0.6023 0.13815 0.0
H954 H 0.49959 0.45324 0.14317 0.0
H955 H 0.41965 0.47083 0.15006 0.0
C956 C 0.63467 0.45972 0.1348 0.0
C957 C 0.6678 0.48902 0.14054 0.0
C958 C 0.58734 0.47349 0.13374 0.0
C959 C 0.57168 0.51657 0.13867 0.0
C960 C 0.60598 0.54764 0.14346 0.0
C961 C 0.65357 0.53407 0.14432 0.0
C962 C 0.45703 0.58286 0.14465 0.0
C963 C 0.42679 0.54638 0.14834 0.0
C964 C 0.50274 0.57304 0.14052 0.0
C965 C 0.51988 0.52642 0.14028 0.0
C966 C 0.488 0.48963 0.14308 0.0
C967 C 0.44186 0.49955 0.14701 0.0
H968 H 0.66508 0.95337 0.40106 0.0
H969 H 0.51732 0.91693 0.40132 0.0
H970 H 0.64582 0.03307 0.39455 0.0
H971 H 0.49749 0.99744 0.39504 0.0
H972 H 0.47253 0.14161 0.37963 0.0
H973 H 0.49902 0.05989 0.38049 0.0
H974 H 0.61347 0.1015 0.40397 0.0
H975 H 0.58723 0.18356 0.40288 0.0
C976 C 0.62837 0.96218 0.39943 0.0
C977 C 0.59271 0.92875 0.40166 0.0
C978 C 0.61728 1.00819 0.39585 0.0
C979 C 0.57003 0.02243 0.39447 0.0
C980 C 0.53437 0.98795 0.39592 0.0
C981 C 0.54561 0.94156 0.39945 0.0
C982 C 0.50419 0.13352 0.38471 0.0
C983 C 0.52782 0.1693 0.39116 0.0
C984 C 0.51903 0.08641 0.38533 0.0
C985 C 0.55798 0.0735 0.39245 0.0
C986 C 0.58352 0.10983 0.39829 0.0
C987 C 0.5687 0.15715 0.39763 0.0
H988 H 0.1353 0.47608 0.55286 0.0
H989 H 0.10366 0.61943 0.56305 0.0
H990 H 0.05538 0.45249 0.55856 0.0
H991 H 0.02457 0.59603 0.56928 0.0
H992 H 0.87218 0.55301 0.5578 0.0
H993 H 0.95451 0.57769 0.55915 0.0
H994 H 0.99301 0.43905 0.57204 0.0
H995 H 0.91087 0.4143 0.57018 0.0
C996 C 0.11196 0.50208 0.55685 0.0
C997 C 0.12578 0.54953 0.55753 0.0
C998 C 0.06582 0.48873 0.5601 0.0
C999 C 0.03262 0.52249 0.5642 0.0
C1000 C 0.04829 0.56916 0.56586 0.0
C1001 C 0.094 0.5825 0.56247 0.0
C1002 C 0.89794 0.52852 0.5614 0.0
C1003 C 0.88495 0.48186 0.56397 0.0
C1004 C 0.9455 0.54248 0.56212 0.0
C1005 C 0.98117 0.51018 0.56553 0.0
C1006 C 0.96714 0.46468 0.56909 0.0
C1007 C 0.9198 0.45065 0.56822 0.0
H1008 H 0.02709 0.63225 0.32825 0.0
H1009 H 0.98734 0.62555 0.29074 0.0
H1010 H 0.03357 0.54606 0.32867 0.0
H1011 H 0.99201 0.54061 0.29117 0.0
H1012 H 0.04135 0.39095 0.29112 0.0
H1013 H 0.04132 0.47618 0.29158 0.0
H1014 H 0.99165 0.47368 0.32845 0.0
H1015 H 0.99492 0.38741 0.3282 0.0
C1016 C 0.02009 0.61253 0.32006 0.0
C1017 C 1.00775 0.6363 0.30937 0.0
C1018 C 0.02331 0.56294 0.32032 0.0
C1019 C 1.01367 0.53569 0.30993 0.0
C1020 C 1.00114 0.55979 0.2993 0.0
C1021 C 0.99851 0.60907 0.29902 0.0
C1022 C 0.03122 0.40827 0.29943 0.0
C1023 C 0.01886 0.38181 0.30967 0.0
C1024 C 0.03042 0.45764 0.29964 0.0
C1025 C 0.01622 0.48259 0.31003 0.0
C1026 C 1.00348 0.45613 0.3203 0.0
C1027 C 1.00486 0.40646 0.32013 0.0
H1028 H 0.36696 0.04414 0.64481 0.0
H1029 H 0.37662 0.90322 0.65927 0.0
H1030 H 0.45298 0.04682 0.64302 0.0
H1031 H 0.46242 0.90638 0.65773 0.0
H1032 H 0.61625 0.95785 0.66667 0.0
H1033 H 0.53014 0.94978 0.66739 0.0
H1034 H 0.51991 1.00959 0.63172 0.0
H1035 H 0.60564 0.01753 0.63097 0.0
C1036 C 0.38721 1.01359 0.64757 0.0
C1037 C 0.36433 0.97364 0.65233 0.0
C1038 C 0.4367 0.01512 0.64652 0.0
C1039 C 0.4649 0.97694 0.65032 0.0
C1040 C 0.44203 0.93674 0.65489 0.0
C1041 C 0.39256 0.93496 0.65577 0.0
C1042 C 0.59571 0.96881 0.65893 0.0
C1043 C 0.61821 0.9883 0.64877 0.0
C1044 C 0.54625 0.96408 0.65932 0.0
C1045 C 0.51784 0.97935 0.64964 0.0
C1046 C 0.54046 0.99797 0.6394 0.0
C1047 C 0.58984 1.00207 0.63894 0.0
H1048 H 0.03936 0.14493 0.87763 0.0
H1049 H 0.03416 0.14032 0.91651 0.0
H1050 H 0.03761 0.05888 0.8769 0.0
H1051 H 0.03075 0.05462 0.91584 0.0
H1052 H 0.06624 0.8995 0.91242 0.0
H1053 H 0.07339 0.98527 0.91235 0.0
H1054 H 0.99192 0.99115 0.87942 0.0
H1055 H 0.98641 0.90558 0.8793 0.0
C1056 C 0.03724 0.1256 0.88603 0.0
C1057 C 0.03706 0.14979 0.89713 0.0
C1058 C 0.03612 0.07601 0.88563 0.0
C1059 C 0.03431 0.04906 0.89631 0.0
C1060 C 0.0333 0.07356 0.9074 0.0
C1061 C 0.03486 0.12303 0.90779 0.0
C1062 C 0.05031 0.91907 0.90509 0.0
C1063 C 0.02575 0.89531 0.89587 0.0
C1064 C 0.05398 0.96853 0.9051 0.0
C1065 C 0.03283 0.99589 0.89594 0.0
C1066 C 1.0093 0.97182 0.88657 0.0
C1067 C 1.00601 0.9224 0.88651 0.0
H1068 H 0.872 0.08642 0.04465 0.0
H1069 H 0.86216 0.96507 0.06798 0.0
H1070 H 0.95751 0.08685 0.04709 0.0
H1071 H 0.94789 0.96535 0.07036 0.0
H1072 H 0.1002 0.99994 0.08004 0.0
H1073 H 1.01461 1.00888 0.07892 0.0
H1074 H 0.02556 0.03942 0.04088 0.0
H1075 H 0.1113 0.03119 0.04204 0.0
C1076 C 0.88786 0.06002 0.05039 0.0
C1077 C 0.85975 0.02566 0.05609 0.0
C1078 C 0.93717 0.06008 0.05172 0.0
C1079 C 0.95994 0.02602 0.05888 0.0
C1080 C 0.93173 0.99247 0.06487 0.0
C1081 C 0.88242 0.99219 0.06346 0.0
C1082 C 0.08455 1.00934 0.07146 0.0
C1083 C 0.11293 0.01458 0.06111 0.0
C1084 C 0.03525 1.01397 0.0708 0.0
C1085 C 1.01283 0.02441 0.05979 0.0
C1086 C 0.04141 0.0316 0.04954 0.0
C1087 C 0.09071 0.02662 0.05018 0.0
H1088 H 0.50626 0.15043 0.82794 0.0
H1089 H 0.4772 0.14317 0.78978 0.0
H1090 H 0.51065 0.06435 0.82868 0.0
H1091 H 0.47797 0.05792 0.79062 0.0
H1092 H 0.53022 0.90743 0.79233 0.0
H1093 H 0.52506 0.99248 0.79191 0.0
H1094 H 0.46983 0.99235 0.82827 0.0
H1095 H 0.4772 0.90644 0.82881 0.0
C1096 C 0.50042 0.13057 0.81972 0.0
C1097 C 0.4907 0.15414 0.80883 0.0
C1098 C 0.50235 0.08095 0.82016 0.0
C1099 C 0.49442 0.05335 0.80973 0.0
C1100 C 0.48496 0.07725 0.79885 0.0
C1101 C 0.48366 0.12663 0.7984 0.0
C1102 C 0.51618 0.92516 0.80018 0.0
C1103 C 0.50367 0.89949 0.81055 0.0
C1104 C 0.51314 0.9745 0.79995 0.0
C1105 C 0.49683 1.00018 0.81004 0.0
C1106 C 0.48332 0.97438 0.82036 0.0
C1107 C 0.48699 0.92485 0.82063 0.0
H1108 H 0.92594 0.45977 0.14139 0.0
H1109 H 0.92686 0.59477 0.15938 0.0
H1110 H 1.01183 0.45958 0.14094 0.0
H1111 H 1.01294 0.59378 0.15962 0.0
H1112 H 0.17056 0.59604 0.15273 0.0
H1113 H 0.08505 0.59998 0.15025 0.0
H1114 H 0.07789 0.44776 0.15229 0.0
H1115 H 0.16327 0.44415 0.15405 0.0
C1116 C 0.9446 0.48946 0.14529 0.0
C1117 C 0.9194 0.52726 0.15042 0.0
C1118 C 0.99416 0.48923 0.14515 0.0
C1119 C 0.02032 0.52637 0.15039 0.0
C1120 C 0.99478 0.56472 0.1553 0.0
C1121 C 0.94511 0.56533 0.15522 0.0
C1122 C 0.15065 0.56342 0.15249 0.0
C1123 C 0.174 0.51977 0.15353 0.0
C1124 C 0.1013 0.56562 0.15119 0.0
C1125 C 0.07357 0.52423 0.1511 0.0
C1126 C 0.09734 0.48058 0.15203 0.0
C1127 C 0.14669 0.4784 0.15311 0.0
H1128 H 0.5854 0.66571 0.38682 0.0
H1129 H 0.55498 0.66667 0.42496 0.0
H1130 H 0.58152 0.57994 0.38669 0.0
H1131 H 0.55341 0.58087 0.42501 0.0
H1132 H 0.51229 0.4261 0.41935 0.0
H1133 H 0.51376 0.51191 0.4197 0.0
H1134 H 0.62194 0.51106 0.39218 0.0
H1135 H 0.61817 0.42512 0.39136 0.0
C1136 C 0.57779 0.64776 0.39521 0.0
C1137 C 0.57083 0.67371 0.40593 0.0
C1138 C 0.5762 0.59818 0.39518 0.0
C1139 C 0.56782 0.57262 0.40587 0.0
C1140 C 0.55967 0.59871 0.41653 0.0
C1141 C 0.56094 0.64834 0.41654 0.0
C1142 C 0.53605 0.44415 0.41327 0.0
C1143 C 0.56433 0.41832 0.40514 0.0
C1144 C 0.53741 0.49372 0.41358 0.0
C1145 C 0.56757 0.51928 0.40587 0.0
C1146 C 0.59728 0.4932 0.39807 0.0
C1147 C 0.59566 0.44359 0.39772 0.0
H1148 H 0.39111 0.56349 0.53524 0.0
H1149 H 0.37926 0.48967 0.56909 0.0
H1150 H 0.47634 0.5648 0.53726 0.0
H1151 H 0.46509 0.48797 0.57077 0.0
H1152 H 0.6197 0.52293 0.57647 0.0
H1153 H 0.5341 0.52923 0.57485 0.0
H1154 H 0.54552 0.52325 0.53599 0.0
H1155 H 0.63068 0.51991 0.53767 0.0
C1156 C 0.40657 0.54743 0.54314 0.0
C1157 C 0.37769 0.52716 0.55208 0.0
C1158 C 0.456 0.54756 0.54423 0.0
C1159 C 0.47861 0.52661 0.55422 0.0
C1160 C 0.44962 0.50548 0.56306 0.0
C1161 C 0.40005 0.50592 0.56203 0.0
C1162 C 0.60403 0.52381 0.56756 0.0
C1163 C 0.63275 0.52063 0.55721 0.0
C1164 C 0.55454 0.52675 0.56662 0.0
C1165 C 0.53189 0.52614 0.55528 0.0
C1166 C 0.56088 0.52439 0.54493 0.0
C1167 C 0.6103 0.52209 0.54588 0.0
H1168 H 0.33236 0.26688 0.37766 0.0
H1169 H 0.37899 0.39556 0.36064 0.0
H1170 H 0.27004 0.25887 0.36262 0.0
H1171 H 0.31664 0.38761 0.34558 0.0
H1172 H 0.26482 0.30489 0.31185 0.0
H1173 H 0.31225 0.32818 0.32916 0.0
H1174 H 0.19708 0.29229 0.35302 0.0
H1175 H 0.14977 0.268 0.33559 0.0
C1176 C 0.32842 0.29416 0.37092 0.0
C1177 C 0.36101 0.33137 0.37015 0.0
C1178 C 0.29272 0.28961 0.36232 0.0
C1179 C 0.28909 0.32225 0.35284 0.0
C1180 C 0.31932 0.36147 0.35266 0.0
C1181 C 0.35497 0.36597 0.36124 0.0
C1182 C 0.24965 0.30204 0.32078 0.0
C1183 C 0.20389 0.28426 0.32241 0.0
C1184 C 0.27649 0.31599 0.33068 0.0
C1185 C 0.25818 0.31224 0.34242 0.0
C1186 C 0.21198 0.29544 0.34406 0.0
C1187 C 0.18492 0.28181 0.33411 0.0
H1188 H 0.27231 0.72257 0.6398 0.0
H1189 H 0.22791 0.85311 0.6233 0.0
H1190 H 0.28506 0.6882 0.61978 0.0
H1191 H 0.2399 0.81905 0.60345 0.0
H1192 H 0.29842 0.7615 0.56922 0.0
H1193 H 0.30027 0.79229 0.5898 0.0
H1194 H 0.23794 0.66267 0.60272 0.0
H1195 H 0.23715 0.6318 0.5822 0.0
C1196 C 0.2652 0.74377 0.63189 0.0
C1197 C 0.24939 0.79051 0.63308 0.0
C1198 C 0.27252 0.72422 0.62046 0.0
C1199 C 0.26385 0.75105 0.61004 0.0
C1200 C 0.24808 0.7978 0.61128 0.0
C1201 C 0.24106 0.81732 0.62267 0.0
C1202 C 0.28556 0.7396 0.57651 0.0
C1203 C 0.26735 0.69453 0.57415 0.0
C1204 C 0.2865 0.75714 0.58826 0.0
C1205 C 0.26874 0.73009 0.59786 0.0
C1206 C 0.25238 0.68417 0.59555 0.0
C1207 C 0.25184 0.6665 0.5838 0.0
H1208 H 0.77171 0.7032 0.32335 0.0
H1209 H 0.87373 0.81006 0.33327 0.0
H1210 H 0.73248 0.71393 0.34278 0.0
H1211 H 0.83394 0.82125 0.35238 0.0
H1212 H 0.72984 0.84981 0.38304 0.0
H1213 H 0.75711 0.84681 0.36206 0.0
H1214 H 0.76136 0.6946 0.36383 0.0
H1215 H 0.73359 0.69766 0.38461 0.0
C1216 C 0.78552 0.72921 0.32957 0.0
C1217 C 0.8262 0.75533 0.32675 0.0
C1218 C 0.76297 0.73544 0.34066 0.0
C1219 C 0.78047 0.76821 0.34905 0.0
C1220 C 0.81947 0.79612 0.34599 0.0
C1221 C 0.84222 0.78965 0.33498 0.0
C1222 C 0.73652 0.81585 0.37888 0.0
C1223 C 0.73028 0.77403 0.38544 0.0
C1224 C 0.75206 0.81411 0.36694 0.0
C1225 C 0.76099 0.77046 0.36136 0.0
C1226 C 0.75411 0.72867 0.36788 0.0
C1227 C 0.73904 0.73044 0.37983 0.0
H1228 H 0.64327 0.17137 0.62461 0.0
H1229 H 0.79447 0.17624 0.62965 0.0
H1230 H 0.65053 0.22025 0.60677 0.0
H1231 H 0.80203 0.22436 0.61141 0.0
H1232 H 0.77612 0.36226 0.58843 0.0
H1233 H 0.77942 0.30601 0.60511 0.0
H1234 H 0.68166 0.21515 0.5862 0.0
H1235 H 0.67814 0.27145 0.56966 0.0
C1236 C 0.6781 0.18293 0.62189 0.0
C1237 C 0.71827 0.17037 0.62856 0.0
C1238 C 0.68234 0.21037 0.61158 0.0
C1239 C 0.72689 0.22581 0.60768 0.0
C1240 C 0.76726 0.213 0.61427 0.0
C1241 C 0.76299 0.18527 0.62462 0.0
C1242 C 0.75605 0.32986 0.58779 0.0
C1243 C 0.72622 0.32147 0.5779 0.0
C1244 C 0.75801 0.29767 0.59729 0.0
C1245 C 0.73029 0.2566 0.59699 0.0
C1246 C 0.70259 0.24706 0.58677 0.0
C1247 C 0.70048 0.27925 0.57734 0.0
H1248 H 0.15543 0.2188 0.87484 0.0
H1249 H 0.28166 0.28734 0.88814 0.0
H1250 H 0.18987 0.2152 0.85474 0.0
H1251 H 0.31649 0.28198 0.86808 0.0
H1252 H 0.37488 0.2256 0.83206 0.0
H1253 H 0.34162 0.21831 0.85221 0.0
H1254 H 0.21232 0.28302 0.83995 0.0
H1255 H 0.24584 0.29218 0.81989 0.0
C1256 C 0.19049 0.23302 0.87352 0.0
C1257 C 0.2154 0.2542 0.88309 0.0
C1258 C 0.21022 0.23063 0.86202 0.0
C1259 C 0.25554 0.2486 0.85992 0.0
C1260 C 0.28151 0.26762 0.86954 0.0
C1261 C 0.26155 0.27058 0.88103 0.0
C1262 C 0.33953 0.23872 0.83362 0.0
C1263 C 0.31335 0.26017 0.82433 0.0
C1264 C 0.32048 0.23419 0.84516 0.0
C1265 C 0.27462 0.25021 0.84757 0.0
C1266 C 0.24769 0.27 0.83824 0.0
C1267 C 0.26694 0.27515 0.82674 0.0
H1268 H 0.29309 0.65278 0.12729 0.0
H1269 H 0.27513 0.7777 0.14927 0.0
H1270 H 0.26929 0.69697 0.10953 0.0
H1271 H 0.25175 0.82213 0.1314 0.0
H1272 H 0.26764 0.89276 0.09401 0.0
H1273 H 0.28861 0.84991 0.11228 0.0
H1274 H 0.19681 0.73558 0.10156 0.0
H1275 H 0.1769 0.77792 0.08309 0.0
C1276 C 0.28366 0.68956 0.12836 0.0
C1277 C 0.28573 0.71171 0.1397 0.0
C1278 C 0.27005 0.71483 0.11818 0.0
C1279 C 0.25843 0.76281 0.11913 0.0
C1280 C 0.26093 0.7852 0.13043 0.0
C1281 C 0.27443 0.75984 0.14063 0.0
C1282 C 0.25218 0.85837 0.09553 0.0
C1283 C 0.22095 0.83843 0.0871 0.0
C1284 C 0.26375 0.83413 0.10604 0.0
C1285 C 0.24441 0.78945 0.10829 0.0
C1286 C 0.21257 0.76982 0.09996 0.0
C1287 C 0.20083 0.79418 0.08947 0.0
H1288 H 0.87301 0.73653 0.87527 0.0
H1289 H 0.77631 0.81893 0.89688 0.0
H1290 H 0.81512 0.73373 0.85902 0.0
H1291 H 0.71826 0.81611 0.88064 0.0
H1292 H 0.67572 0.86879 0.84259 0.0
H1293 H 0.72146 0.85643 0.86089 0.0
H1294 H 0.7352 0.70839 0.85213 0.0
H1295 H 0.69026 0.72116 0.83358 0.0
C1296 C 0.83887 0.75286 0.87667 0.0
C1297 C 0.82935 0.77865 0.88723 0.0
C1298 C 0.80573 0.75125 0.86738 0.0
C1299 C 0.76257 0.77533 0.86853 0.0
C1300 C 0.7517 0.79806 0.87944 0.0
C1301 C 0.78483 0.79972 0.88871 0.0
C1302 C 0.68856 0.83367 0.84457 0.0
C1303 C 0.67984 0.79604 0.83664 0.0
C1304 C 0.71412 0.82641 0.85512 0.0
C1305 C 0.7316 0.78137 0.85794 0.0
C1306 C 0.72216 0.74346 0.85013 0.0
C1307 C 0.69629 0.75072 0.83958 0.0
H1308 H 0.72956 0.27052 0.0586 0.0
H1309 H 0.71704 0.1436 0.07986 0.0
H1310 H 0.74984 0.31498 0.07678 0.0
H1311 H 0.73764 0.18781 0.09796 0.0
H1312 H 0.83669 0.26934 0.12331 0.0
H1313 H 0.81103 0.22672 0.10531 0.0
H1314 H 0.71602 0.34093 0.09651 0.0
H1315 H 0.74263 0.38404 0.1143 0.0
C1316 C 0.73046 0.25232 0.06717 0.0
C1317 C 0.72234 0.20353 0.0678 0.0
C1318 C 0.74214 0.27768 0.07755 0.0
C1319 C 0.74587 0.25461 0.08872 0.0
C1320 C 0.736 0.20621 0.08941 0.0
C1321 C 0.72426 0.18095 0.07906 0.0
C1322 C 0.8106 0.28538 0.11748 0.0
C1323 C 0.79156 0.32985 0.12021 0.0
C1324 C 0.79555 0.26086 0.10726 0.0
C1325 C 0.76138 0.28053 0.09957 0.0
C1326 C 0.74255 0.32511 0.10226 0.0
C1327 C 0.75743 0.34951 0.1125 0.0
loop_
_geom_bond_atom_site_label_1
_geom_bond_atom_site_label_2
_geom_bond_distance
_geom_bond_site_symmetry_2
_ccdc_geom_bond_type
C0 C1 1.351 . S
C0 N3 1.368 . S
C0 H5 0.931 . S
C1 C0 1.351 . S
C1 N2 1.373 . S
C1 H29 0.930 . S
N2 C1 1.373 . S
N2 C4 1.340 . S
N3 C0 1.368 . S
N3 C4 1.321 . S
N3 Co6 2.135 1_655 S
C4 N2 1.340 . S
C4 N3 1.321 . S
C4 H28 0.930 . S
H5 C0 0.931 . S
Co6 N3 2.135 1_455 S
Co6 N9 2.121 . S
Co6 O14 2.055 1_455 S
Co6 O17 2.039 1_455 S
Co6 N20 2.140 . S
C7 O8 1.227 1_655 S
C7 O17 1.265 . S
O8 C7 1.227 1_455 S
N9 Co6 2.121 . S
N9 C11 1.375 . S
N9 C12 1.313 . S
C10 C11 1.338 . S
C10 N13 1.377 . S
C10 H30 0.930 . S
C11 N9 1.375 . S
C11 C10 1.338 . S
C11 H15 0.931 . S
C12 N9 1.313 . S
C12 N13 1.344 . S
C12 H16 0.930 . S
N13 C10 1.377 . S
N13 C12 1.344 . S
O14 Co6 2.055 1_655 S
O14 C18 1.253 1_655 S
H15 C11 0.931 . S
H16 C12 0.930 . S
O17 Co6 2.039 1_655 S
O17 C7 1.265 . S
C18 O14 1.253 1_455 S
C18 O19 1.227 . S
O19 C18 1.227 . S
N20 Co6 2.140 . S
N20 C23 1.346 . S
N20 C24 1.345 . S
C21 C22 1.387 . S
C21 C25 1.391 . S
C22 C21 1.387 . S
C22 C23 1.369 . S
C22 H31 0.929 . S
C23 N20 1.346 . S
C23 C22 1.369 . S
C23 H26 0.928 . S
C24 N20 1.345 . S
C24 C25 1.371 . S
C24 H27 0.931 . S
C25 C21 1.391 . S
C25 C24 1.371 . S
C25 H32 0.930 . S
H26 C23 0.928 . S
H27 C24 0.931 . S
H28 C4 0.930 . S
H29 C1 0.930 . S
H30 C10 0.930 . S
H31 C22 0.929 . S
H32 C25 0.930 . S
C33 C34 1.351 . S
C33 N36 1.368 . S
C33 H38 0.931 . S
C34 C33 1.351 . S
C34 N35 1.373 . S
C34 H62 0.930 . S
N35 C34 1.373 . S
N35 C37 1.340 . S
N36 C33 1.368 . S
N36 C37 1.321 . S
N36 Co39 2.135 1_545 S
C37 N35 1.340 . S
C37 N36 1.321 . S
C37 H61 0.930 . S
H38 C33 0.931 . S
Co39 N36 2.135 1_565 S
Co39 N42 2.121 . S
Co39 O47 2.055 1_565 S
Co39 O50 2.039 1_565 S
Co39 N53 2.140 . S
C40 O41 1.227 1_545 S
C40 O50 1.265 . S
O41 C40 1.227 1_565 S
N42 Co39 2.121 . S
N42 C44 1.375 . S
N42 C45 1.313 . S
C43 C44 1.338 . S
C43 N46 1.377 . S
C43 H63 0.930 . S
C44 N42 1.375 . S
C44 C43 1.338 . S
C44 H48 0.931 . S
C45 N42 1.313 . S
C45 N46 1.344 . S
C45 H49 0.930 . S
N46 C43 1.377 . S
N46 C45 1.344 . S
O47 Co39 2.055 1_545 S
O47 C51 1.253 1_545 S
H48 C44 0.931 . S
H49 C45 0.930 . S
O50 Co39 2.039 1_545 S
O50 C40 1.265 . S
C51 O47 1.253 1_565 S
C51 O52 1.227 . S
O52 C51 1.227 . S
N53 Co39 2.140 . S
N53 C56 1.346 . S
N53 C57 1.345 . S
C54 C55 1.387 . S
C54 C58 1.391 . S
C55 C54 1.387 . S
C55 C56 1.369 . S
C55 H64 0.929 . S
C56 N53 1.346 . S
C56 C55 1.369 . S
C56 H59 0.928 . S
C57 N53 1.345 . S
C57 C58 1.371 . S
C57 H60 0.931 . S
C58 C54 1.391 . S
C58 C57 1.371 . S
C58 H65 0.930 . S
H59 C56 0.928 . S
H60 C57 0.931 . S
H61 C37 0.930 . S
H62 C34 0.930 . S
H63 C43 0.930 . S
H64 C55 0.929 . S
H65 C58 0.930 . S
C66 C67 1.351 . S
C66 N69 1.368 . S
C66 H71 0.931 . S
C67 C66 1.351 . S
C67 N68 1.373 . S
C67 H95 0.930 . S
N68 C67 1.373 . S
N68 C70 1.340 . S
N69 C66 1.368 . S
N69 C70 1.321 . S
N69 Co72 2.135 1_455 S
C70 N68 1.340 . S
C70 N69 1.321 . S
C70 H94 0.930 . S
H71 C66 0.931 . S
Co72 N69 2.135 1_655 S
Co72 N75 2.121 . S
Co72 O80 2.055 1_655 S
Co72 O83 2.039 1_655 S
Co72 N86 2.140 . S
C73 O74 1.227 1_455 S
C73 O83 1.265 . S
O74 C73 1.227 1_655 S
N75 Co72 2.121 . S
N75 C77 1.375 . S
N75 C78 1.313 . S
C76 C77 1.338 . S
C76 N79 1.377 . S
C76 H96 0.930 . S
C77 N75 1.375 . S
C77 C76 1.338 . S
C77 H81 0.931 . S
C78 N75 1.313 . S
C78 N79 1.344 . S
C78 H82 0.930 . S
N79 C76 1.377 . S
N79 C78 1.344 . S
O80 Co72 2.055 1_455 S
O80 C84 1.253 1_455 S
H81 C77 0.931 . S
H82 C78 0.930 . S
O83 Co72 2.039 1_455 S
O83 C73 1.265 . S
C84 O80 1.253 1_655 S
C84 O85 1.227 . S
O85 C84 1.227 . S
N86 Co72 2.140 . S
N86 C89 1.346 . S
N86 C90 1.345 . S
C87 C88 1.387 . S
C87 C91 1.391 . S
C88 C87 1.387 . S
C88 C89 1.369 . S
C88 H97 0.929 . S
C89 N86 1.346 . S
C89 C88 1.369 . S
C89 H92 0.928 . S
C90 N86 1.345 . S
C90 C91 1.371 . S
C90 H93 0.931 . S
C91 C87 1.391 . S
C91 C90 1.371 . S
C91 H98 0.930 . S
H92 C89 0.928 . S
H93 C90 0.931 . S
H94 C70 0.930 . S
H95 C67 0.930 . S
H96 C76 0.930 . S
H97 C88 0.929 . S
H98 C91 0.930 . S
C99 C100 1.351 . S
C99 N102 1.368 . S
C99 H104 0.931 . S
C100 C99 1.351 . S
C100 N101 1.373 . S
C100 H128 0.930 . S
N101 C100 1.373 . S
N101 C103 1.340 . S
N102 C99 1.368 . S
N102 C103 1.321 . S
N102 Co105 2.135 1_565 S
C103 N101 1.340 . S
C103 N102 1.321 . S
C103 H127 0.930 . S
H104 C99 0.931 . S
Co105 N102 2.135 1_545 S
Co105 N108 2.121 . S
Co105 O113 2.055 1_545 S
Co105 O116 2.039 1_545 S
Co105 N119 2.140 . S
C106 O107 1.227 1_565 S
C106 O116 1.265 . S
O107 C106 1.227 1_545 S
N108 Co105 2.121 . S
N108 C110 1.375 . S
N108 C111 1.313 . S
C109 C110 1.338 . S
C109 N112 1.377 . S
C109 H129 0.930 . S
C110 N108 1.375 . S
C110 C109 1.338 . S
C110 H114 0.931 . S
C111 N108 1.313 . S
C111 N112 1.344 . S
C111 H115 0.930 . S
N112 C109 1.377 . S
N112 C111 1.344 . S
O113 Co105 2.055 1_565 S
O113 C117 1.253 1_565 S
H114 C110 0.931 . S
H115 C111 0.930 . S
O116 Co105 2.039 1_565 S
O116 C106 1.265 . S
C117 O113 1.253 1_545 S
C117 O118 1.227 . S
O118 C117 1.227 . S
N119 Co105 2.140 . S
N119 C122 1.346 . S
N119 C123 1.345 . S
C120 C121 1.387 . S
C120 C124 1.391 . S
C121 C120 1.387 . S
C121 C122 1.369 . S
C121 H130 0.929 . S
C122 N119 1.346 . S
C122 C121 1.369 . S
C122 H125 0.928 . S
C123 N119 1.345 . S
C123 C124 1.371 . S
C123 H126 0.931 . S
C124 C120 1.391 . S
C124 C123 1.371 . S
C124 H131 0.930 . S
H125 C122 0.928 . S
H126 C123 0.931 . S
H127 C103 0.930 . S
H128 C100 0.930 . S
H129 C109 0.930 . S
H130 C121 0.929 . S
H131 C124 0.930 . S
C132 C133 1.351 . S
C132 N135 1.368 . S
C132 H137 0.931 . S
C133 C132 1.351 . S
C133 N134 1.373 . S
C133 H161 0.930 . S
N134 C133 1.373 . S
N134 C136 1.340 . S
N135 C132 1.368 . S
N135 C136 1.321 . S
N135 Co138 2.135 1_655 S
C136 N134 1.340 . S
C136 N135 1.321 . S
C136 H160 0.930 . S
H137 C132 0.931 . S
Co138 N135 2.135 1_455 S
Co138 N141 2.121 . S
Co138 O146 2.055 1_455 S
Co138 O149 2.039 1_455 S
Co138 N152 2.140 . S
C139 O140 1.227 1_655 S
C139 O149 1.265 . S
O140 C139 1.227 1_455 S
N141 Co138 2.121 . S
N141 C143 1.375 . S
N141 C144 1.313 . S
C142 C143 1.338 . S
C142 N145 1.377 . S
C142 H162 0.930 . S
C143 N141 1.375 . S
C143 C142 1.338 . S
C143 H147 0.931 . S
C144 N141 1.313 . S
C144 N145 1.344 . S
C144 H148 0.930 . S
N145 C142 1.377 . S
N145 C144 1.344 . S
O146 Co138 2.055 1_655 S
O146 C150 1.253 1_655 S
H147 C143 0.931 . S
H148 C144 0.930 . S
O149 Co138 2.039 1_655 S
O149 C139 1.265 . S
C150 O146 1.253 1_455 S
C150 O151 1.227 . S
O151 C150 1.227 . S
N152 Co138 2.140 . S
N152 C155 1.346 . S
N152 C156 1.345 . S
C153 C154 1.387 . S
C153 C157 1.391 . S
C154 C153 1.387 . S
C154 C155 1.369 . S
C154 H163 0.929 . S
C155 N152 1.346 . S
C155 C154 1.369 . S
C155 H158 0.928 . S
C156 N152 1.345 . S
C156 C157 1.371 . S
C156 H159 0.931 . S
C157 C153 1.391 . S
C157 C156 1.371 . S
C157 H164 0.930 . S
H158 C155 0.928 . S
H159 C156 0.931 . S
H160 C136 0.930 . S
H161 C133 0.930 . S
H162 C142 0.930 . S
H163 C154 0.929 . S
H164 C157 0.930 . S
C165 C166 1.351 . S
C165 N168 1.368 . S
C165 H170 0.931 . S
C166 C165 1.351 . S
C166 N167 1.373 . S
C166 H194 0.930 . S
N167 C166 1.373 . S
N167 C169 1.340 . S
N168 C165 1.368 . S
N168 C169 1.321 . S
N168 Co171 2.135 1_545 S
C169 N167 1.340 . S
C169 N168 1.321 . S
C169 H193 0.930 . S
H170 C165 0.931 . S
Co171 N168 2.135 1_565 S
Co171 N174 2.121 . S
Co171 O179 2.055 1_565 S
Co171 O182 2.039 1_565 S
Co171 N185 2.140 . S
C172 O173 1.227 1_545 S
C172 O182 1.265 . S
O173 C172 1.227 1_565 S
N174 Co171 2.121 . S
N174 C176 1.375 . S
N174 C177 1.313 . S
C175 C176 1.338 . S
C175 N178 1.377 . S
C175 H195 0.930 . S
C176 N174 1.375 . S
C176 C175 1.338 . S
C176 H180 0.931 . S
C177 N174 1.313 . S
C177 N178 1.344 . S
C177 H181 0.930 . S
N178 C175 1.377 . S
N178 C177 1.344 . S
O179 Co171 2.055 1_545 S
O179 C183 1.253 1_545 S
H180 C176 0.931 . S
H181 C177 0.930 . S
O182 Co171 2.039 1_545 S
O182 C172 1.265 . S
C183 O179 1.253 1_565 S
C183 O184 1.227 . S
O184 C183 1.227 . S
N185 Co171 2.140 . S
N185 C188 1.346 . S
N185 C189 1.345 . S
C186 C187 1.387 . S
C186 C190 1.391 . S
C187 C186 1.387 . S
C187 C188 1.369 . S
C187 H196 0.929 . S
C188 N185 1.346 . S
C188 C187 1.369 . S
C188 H191 0.928 . S
C189 N185 1.345 . S
C189 C190 1.371 . S
C189 H192 0.931 . S
C190 C186 1.391 . S
C190 C189 1.371 . S
C190 H197 0.930 . S
H191 C188 0.928 . S
H192 C189 0.931 . S
H193 C169 0.930 . S
H194 C166 0.930 . S
H195 C175 0.930 . S
H196 C187 0.929 . S
H197 C190 0.930 . S
C198 C199 1.351 . S
C198 N201 1.368 . S
C198 H203 0.931 . S
C199 C198 1.351 . S
C199 N200 1.373 . S
C199 H227 0.930 . S
N200 C199 1.373 . S
N200 C202 1.340 . S
N201 C198 1.368 . S
N201 C202 1.321 . S
N201 Co204 2.135 1_455 S
C202 N200 1.340 . S
C202 N201 1.321 . S
C202 H226 0.930 . S
H203 C198 0.931 . S
Co204 N201 2.135 1_655 S
Co204 N207 2.121 . S
Co204 O212 2.055 1_655 S
Co204 O215 2.039 1_655 S
Co204 N218 2.140 . S
C205 O206 1.227 1_455 S
C205 O215 1.265 . S
O206 C205 1.227 1_655 S
N207 Co204 2.121 . S
N207 C209 1.375 . S
N207 C210 1.313 . S
C208 C209 1.338 . S
C208 N211 1.377 . S
C208 H228 0.930 . S
C209 N207 1.375 . S
C209 C208 1.338 . S
C209 H213 0.931 . S
C210 N207 1.313 . S
C210 N211 1.344 . S
C210 H214 0.930 . S
N211 C208 1.377 . S
N211 C210 1.344 . S
O212 Co204 2.055 1_455 S
O212 C216 1.253 1_455 S
H213 C209 0.931 . S
H214 C210 0.930 . S
O215 Co204 2.039 1_455 S
O215 C205 1.265 . S
C216 O212 1.253 1_655 S
C216 O217 1.227 . S
O217 C216 1.227 . S
N218 Co204 2.140 . S
N218 C221 1.346 . S
N218 C222 1.345 . S
C219 C220 1.387 . S
C219 C223 1.391 . S
C220 C219 1.387 . S
C220 C221 1.369 . S
C220 H229 0.929 . S
C221 N218 1.346 . S
C221 C220 1.369 . S
C221 H224 0.928 . S
C222 N218 1.345 . S
C222 C223 1.371 . S
C222 H225 0.931 . S
C223 C219 1.391 . S
C223 C222 1.371 . S
C223 H230 0.930 . S
H224 C221 0.928 . S
H225 C222 0.931 . S
H226 C202 0.930 . S
H227 C199 0.930 . S
H228 C208 0.930 . S
H229 C220 0.929 . S
H230 C223 0.930 . S
C231 C232 1.351 . S
C231 N234 1.368 . S
C231 H236 0.931 . S
C232 C231 1.351 . S
C232 N233 1.373 . S
C232 H260 0.930 . S
N233 C232 1.373 . S
N233 C235 1.340 . S
N234 C231 1.368 . S
N234 C235 1.321 . S
N234 Co237 2.135 1_565 S
C235 N233 1.340 . S
C235 N234 1.321 . S
C235 H259 0.930 . S
H236 C231 0.931 . S
Co237 N234 2.135 1_545 S
Co237 N240 2.121 . S
Co237 O245 2.055 1_545 S
Co237 O248 2.039 1_545 S
Co237 N251 2.140 . S
C238 O239 1.227 1_565 S
C238 O248 1.265 . S
O239 C238 1.227 1_545 S
N240 Co237 2.121 . S
N240 C242 1.375 . S
N240 C243 1.313 . S
C241 C242 1.338 . S
C241 N244 1.377 . S
C241 H261 0.930 . S
C242 N240 1.375 . S
C242 C241 1.338 . S
C242 H246 0.931 . S
C243 N240 1.313 . S
C243 N244 1.344 . S
C243 H247 0.930 . S
N244 C241 1.377 . S
N244 C243 1.344 . S
O245 Co237 2.055 1_565 S
O245 C249 1.253 1_565 S
H246 C242 0.931 . S
H247 C243 0.930 . S
O248 Co237 2.039 1_565 S
O248 C238 1.265 . S
C249 O245 1.253 1_545 S
C249 O250 1.227 . S
O250 C249 1.227 . S
N251 Co237 2.140 . S
N251 C254 1.346 . S
N251 C255 1.345 . S
C252 C253 1.387 . S
C252 C256 1.391 . S
C253 C252 1.387 . S
C253 C254 1.369 . S
C253 H262 0.929 . S
C254 N251 1.346 . S
C254 C253 1.369 . S
C254 H257 0.928 . S
C255 N251 1.345 . S
C255 C256 1.371 . S
C255 H258 0.931 . S
C256 C252 1.391 . S
C256 C255 1.371 . S
C256 H263 0.930 . S
H257 C254 0.928 . S
H258 C255 0.931 . S
H259 C235 0.930 . S
H260 C232 0.930 . S
H261 C241 0.930 . S
H262 C253 0.929 . S
H263 C256 0.930 . S
C264 C265 1.351 . S
C264 N267 1.368 . S
C264 H269 0.931 . S
C265 C264 1.351 . S
C265 N266 1.373 . S
C265 H293 0.930 . S
N266 C265 1.373 . S
N266 C268 1.340 . S
N267 C264 1.368 . S
N267 C268 1.321 . S
N267 Co270 2.135 . S
C268 N266 1.340 . S
C268 N267 1.321 . S
C268 H292 0.930 . S
H269 C264 0.931 . S
Co270 N267 2.135 . S
Co270 N273 2.121 . S
Co270 O278 2.055 . S
Co270 O281 2.039 . S
Co270 N284 2.140 . S
C271 O272 1.227 . S
C271 O281 1.265 . S
O272 C271 1.227 . S
N273 Co270 2.121 . S
N273 C275 1.375 . S
N273 C276 1.313 . S
C274 C275 1.338 . S
C274 N277 1.377 . S
C274 H294 0.930 . S
C275 N273 1.375 . S
C275 C274 1.338 . S
C275 H279 0.931 . S
C276 N273 1.313 . S
C276 N277 1.344 . S
C276 H280 0.930 . S
N277 C274 1.377 . S
N277 C276 1.344 . S
O278 Co270 2.055 . S
O278 C282 1.253 . S
H279 C275 0.931 . S
H280 C276 0.930 . S
O281 Co270 2.039 . S
O281 C271 1.265 . S
C282 O278 1.253 . S
C282 O283 1.227 . S
O283 C282 1.227 . S
N284 Co270 2.140 . S
N284 C287 1.346 . S
N284 C288 1.345 . S
C285 C286 1.387 . S
C285 C289 1.391 . S
C286 C285 1.387 . S
C286 C287 1.369 . S
C286 H295 0.929 . S
C287 N284 1.346 . S
C287 C286 1.369 . S
C287 H290 0.928 . S
C288 N284 1.345 . S
C288 C289 1.371 . S
C288 H291 0.931 . S
C289 C285 1.391 . S
C289 C288 1.371 . S
C289 H296 0.930 . S
H290 C287 0.928 . S
H291 C288 0.931 . S
H292 C268 0.930 . S
H293 C265 0.930 . S
H294 C274 0.930 . S
H295 C286 0.929 . S
H296 C289 0.930 . S
C297 C298 1.351 . S
C297 N300 1.368 . S
C297 H302 0.931 . S
C298 C297 1.351 . S
C298 N299 1.373 . S
C298 H326 0.930 . S
N299 C298 1.373 . S
N299 C301 1.340 . S
N300 C297 1.368 . S
N300 C301 1.321 . S
N300 Co303 2.135 . S
C301 N299 1.340 . S
C301 N300 1.321 . S
C301 H325 0.930 . S
H302 C297 0.931 . S
Co303 N300 2.135 . S
Co303 N306 2.121 . S
Co303 O311 2.055 . S
Co303 O314 2.039 . S
Co303 N317 2.140 . S
C304 O305 1.227 . S
C304 O314 1.265 . S
O305 C304 1.227 . S
N306 Co303 2.121 . S
N306 C308 1.375 . S
N306 C309 1.313 . S
C307 C308 1.338 . S
C307 N310 1.377 . S
C307 H327 0.930 . S
C308 N306 1.375 . S
C308 C307 1.338 . S
C308 H312 0.931 . S
C309 N306 1.313 . S
C309 N310 1.344 . S
C309 H313 0.930 . S
N310 C307 1.377 . S
N310 C309 1.344 . S
O311 Co303 2.055 . S
O311 C315 1.253 . S
H312 C308 0.931 . S
H313 C309 0.930 . S
O314 Co303 2.039 . S
O314 C304 1.265 . S
C315 O311 1.253 . S
C315 O316 1.227 . S
O316 C315 1.227 . S
N317 Co303 2.140 . S
N317 C320 1.346 . S
N317 C321 1.345 . S
C318 C319 1.387 . S
C318 C322 1.391 . S
C319 C318 1.387 . S
C319 C320 1.369 . S
C319 H328 0.929 . S
C320 N317 1.346 . S
C320 C319 1.369 . S
C320 H323 0.928 . S
C321 N317 1.345 . S
C321 C322 1.371 . S
C321 H324 0.931 . S
C322 C318 1.391 . S
C322 C321 1.371 . S
C322 H329 0.930 . S
H323 C320 0.928 . S
H324 C321 0.931 . S
H325 C301 0.930 . S
H326 C298 0.930 . S
H327 C307 0.930 . S
H328 C319 0.929 . S
H329 C322 0.930 . S
C330 C331 1.351 . S
C330 N333 1.368 . S
C330 H335 0.931 . S
C331 C330 1.351 . S
C331 N332 1.373 . S
C331 H359 0.930 . S
N332 C331 1.373 . S
N332 C334 1.340 . S
N333 C330 1.368 . S
N333 C334 1.321 . S
N333 Co336 2.135 . S
C334 N332 1.340 . S
C334 N333 1.321 . S
C334 H358 0.930 . S
H335 C330 0.931 . S
Co336 N333 2.135 . S
Co336 N339 2.121 . S
Co336 O344 2.055 . S
Co336 O347 2.039 . S
Co336 N350 2.140 . S
C337 O338 1.227 . S
C337 O347 1.265 . S
O338 C337 1.227 . S
N339 Co336 2.121 . S
N339 C341 1.375 . S
N339 C342 1.313 . S
C340 C341 1.338 . S
C340 N343 1.377 . S
C340 H360 0.930 . S
C341 N339 1.375 . S
C341 C340 1.338 . S
C341 H345 0.931 . S
C342 N339 1.313 . S
C342 N343 1.344 . S
C342 H346 0.930 . S
N343 C340 1.377 . S
N343 C342 1.344 . S
O344 Co336 2.055 . S
O344 C348 1.253 . S
H345 C341 0.931 . S
H346 C342 0.930 . S
O347 Co336 2.039 . S
O347 C337 1.265 . S
C348 O344 1.253 . S
C348 O349 1.227 . S
O349 C348 1.227 . S
N350 Co336 2.140 . S
N350 C353 1.346 . S
N350 C354 1.345 . S
C351 C352 1.387 . S
C351 C355 1.391 . S
C352 C351 1.387 . S
C352 C353 1.369 . S
C352 H361 0.929 . S
C353 N350 1.346 . S
C353 C352 1.369 . S
C353 H356 0.928 . S
C354 N350 1.345 . S
C354 C355 1.371 . S
C354 H357 0.931 . S
C355 C351 1.391 . S
C355 C354 1.371 . S
C355 H362 0.930 . S
H356 C353 0.928 . S
H357 C354 0.931 . S
H358 C334 0.930 . S
H359 C331 0.930 . S
H360 C340 0.930 . S
H361 C352 0.929 . S
H362 C355 0.930 . S
C363 C364 1.351 . S
C363 N366 1.368 . S
C363 H368 0.931 . S
C364 C363 1.351 . S
C364 N365 1.373 . S
C364 H392 0.930 . S
N365 C364 1.373 . S
N365 C367 1.340 . S
N366 C363 1.368 . S
N366 C367 1.321 . S
N366 Co369 2.135 . S
C367 N365 1.340 . S
C367 N366 1.321 . S
C367 H391 0.930 . S
H368 C363 0.931 . S
Co369 N366 2.135 . S
Co369 N372 2.121 . S
Co369 O377 2.055 . S
Co369 O380 2.039 . S
Co369 N383 2.140 . S
C370 O371 1.227 . S
C370 O380 1.265 . S
O371 C370 1.227 . S
N372 Co369 2.121 . S
N372 C374 1.375 . S
N372 C375 1.313 . S
C373 C374 1.338 . S
C373 N376 1.377 . S
C373 H393 0.930 . S
C374 N372 1.375 . S
C374 C373 1.338 . S
C374 H378 0.931 . S
C375 N372 1.313 . S
C375 N376 1.344 . S
C375 H379 0.930 . S
N376 C373 1.377 . S
N376 C375 1.344 . S
O377 Co369 2.055 . S
O377 C381 1.253 . S
H378 C374 0.931 . S
H379 C375 0.930 . S
O380 Co369 2.039 . S
O380 C370 1.265 . S
C381 O377 1.253 . S
C381 O382 1.227 . S
O382 C381 1.227 . S
N383 Co369 2.140 . S
N383 C386 1.346 . S
N383 C387 1.345 . S
C384 C385 1.387 . S
C384 C388 1.391 . S
C385 C384 1.387 . S
C385 C386 1.369 . S
C385 H394 0.929 . S
C386 N383 1.346 . S
C386 C385 1.369 . S
C386 H389 0.928 . S
C387 N383 1.345 . S
C387 C388 1.371 . S
C387 H390 0.931 . S
C388 C384 1.391 . S
C388 C387 1.371 . S
C388 H395 0.930 . S
H389 C386 0.928 . S
H390 C387 0.931 . S
H391 C367 0.930 . S
H392 C364 0.930 . S
H393 C373 0.930 . S
H394 C385 0.929 . S
H395 C388 0.930 . S
C396 C397 1.351 . S
C396 N399 1.368 . S
C396 H401 0.931 . S
C397 C396 1.351 . S
C397 N398 1.373 . S
C397 H425 0.930 . S
N398 C397 1.373 . S
N398 C400 1.340 . S
N399 C396 1.368 . S
N399 C400 1.321 . S
N399 Co402 2.135 . S
C400 N398 1.340 . S
C400 N399 1.321 . S
C400 H424 0.930 . S
H401 C396 0.931 . S
Co402 N399 2.135 . S
Co402 N405 2.121 . S
Co402 O410 2.055 . S
Co402 O413 2.039 . S
Co402 N416 2.140 . S
C403 O404 1.227 . S
C403 O413 1.265 . S
O404 C403 1.227 . S
N405 Co402 2.121 . S
N405 C407 1.375 . S
N405 C408 1.313 . S
C406 C407 1.338 . S
C406 N409 1.377 . S
C406 H426 0.930 . S
C407 N405 1.375 . S
C407 C406 1.338 . S
C407 H411 0.931 . S
C408 N405 1.313 . S
C408 N409 1.344 . S
C408 H412 0.930 . S
N409 C406 1.377 . S
N409 C408 1.344 . S
O410 Co402 2.055 . S
O410 C414 1.253 . S
H411 C407 0.931 . S
H412 C408 0.930 . S
O413 Co402 2.039 . S
O413 C403 1.265 . S
C414 O410 1.253 . S
C414 O415 1.227 . S
O415 C414 1.227 . S
N416 Co402 2.140 . S
N416 C419 1.346 . S
N416 C420 1.345 . S
C417 C418 1.387 . S
C417 C421 1.391 . S
C418 C417 1.387 . S
C418 C419 1.369 . S
C418 H427 0.929 . S
C419 N416 1.346 . S
C419 C418 1.369 . S
C419 H422 0.928 . S
C420 N416 1.345 . S
C420 C421 1.371 . S
C420 H423 0.931 . S
C421 C417 1.391 . S
C421 C420 1.371 . S
C421 H428 0.930 . S
H422 C419 0.928 . S
H423 C420 0.931 . S
H424 C400 0.930 . S
H425 C397 0.930 . S
H426 C406 0.930 . S
H427 C418 0.929 . S
H428 C421 0.930 . S
C429 C430 1.351 . S
C429 N432 1.368 . S
C429 H434 0.931 . S
C430 C429 1.351 . S
C430 N431 1.373 . S
C430 H458 0.930 . S
N431 C430 1.373 . S
N431 C433 1.340 . S
N432 C429 1.368 . S
N432 C433 1.321 . S
N432 Co435 2.135 . S
C433 N431 1.340 . S
C433 N432 1.321 . S
C433 H457 0.930 . S
H434 C429 0.931 . S
Co435 N432 2.135 . S
Co435 N438 2.121 . S
Co435 O443 2.055 . S
Co435 O446 2.039 . S
Co435 N449 2.140 . S
C436 O437 1.227 . S
C436 O446 1.265 . S
O437 C436 1.227 . S
N438 Co435 2.121 . S
N438 C440 1.375 . S
N438 C441 1.313 . S
C439 C440 1.338 . S
C439 N442 1.377 . S
C439 H459 0.930 . S
C440 N438 1.375 . S
C440 C439 1.338 . S
C440 H444 0.931 . S
C441 N438 1.313 . S
C441 N442 1.344 . S
C441 H445 0.930 . S
N442 C439 1.377 . S
N442 C441 1.344 . S
O443 Co435 2.055 . S
O443 C447 1.253 . S
H444 C440 0.931 . S
H445 C441 0.930 . S
O446 Co435 2.039 . S
O446 C436 1.265 . S
C447 O443 1.253 . S
C447 O448 1.227 . S
O448 C447 1.227 . S
N449 Co435 2.140 . S
N449 C452 1.346 . S
N449 C453 1.345 . S
C450 C451 1.387 . S
C450 C454 1.391 . S
C451 C450 1.387 . S
C451 C452 1.369 . S
C451 H460 0.929 . S
C452 N449 1.346 . S
C452 C451 1.369 . S
C452 H455 0.928 . S
C453 N449 1.345 . S
C453 C454 1.371 . S
C453 H456 0.931 . S
C454 C450 1.391 . S
C454 C453 1.371 . S
C454 H461 0.930 . S
H455 C452 0.928 . S
H456 C453 0.931 . S
H457 C433 0.930 . S
H458 C430 0.930 . S
H459 C439 0.930 . S
H460 C451 0.929 . S
H461 C454 0.930 . S
C462 C463 1.351 . S
C462 N465 1.368 . S
C462 H467 0.931 . S
C463 C462 1.351 . S
C463 N464 1.373 . S
C463 H491 0.930 . S
N464 C463 1.373 . S
N464 C466 1.340 . S
N465 C462 1.368 . S
N465 C466 1.321 . S
N465 Co468 2.135 . S
C466 N464 1.340 . S
C466 N465 1.321 . S
C466 H490 0.930 . S
H467 C462 0.931 . S
Co468 N465 2.135 . S
Co468 N471 2.121 . S
Co468 O476 2.055 . S
Co468 O479 2.039 . S
Co468 N482 2.140 . S
C469 O470 1.227 . S
C469 O479 1.265 . S
O470 C469 1.227 . S
N471 Co468 2.121 . S
N471 C473 1.375 . S
N471 C474 1.313 . S
C472 C473 1.338 . S
C472 N475 1.377 . S
C472 H492 0.930 . S
C473 N471 1.375 . S
C473 C472 1.338 . S
C473 H477 0.931 . S
C474 N471 1.313 . S
C474 N475 1.344 . S
C474 H478 0.930 . S
N475 C472 1.377 . S
N475 C474 1.344 . S
O476 Co468 2.055 . S
O476 C480 1.253 . S
H477 C473 0.931 . S
H478 C474 0.930 . S
O479 Co468 2.039 . S
O479 C469 1.265 . S
C480 O476 1.253 . S
C480 O481 1.227 . S
O481 C480 1.227 . S
N482 Co468 2.140 . S
N482 C485 1.346 . S
N482 C486 1.345 . S
C483 C484 1.387 . S
C483 C487 1.391 . S
C484 C483 1.387 . S
C484 C485 1.369 . S
C484 H493 0.929 . S
C485 N482 1.346 . S
C485 C484 1.369 . S
C485 H488 0.928 . S
C486 N482 1.345 . S
C486 C487 1.371 . S
C486 H489 0.931 . S
C487 C483 1.391 . S
C487 C486 1.371 . S
C487 H494 0.930 . S
H488 C485 0.928 . S
H489 C486 0.931 . S
H490 C466 0.930 . S
H491 C463 0.930 . S
H492 C472 0.930 . S
H493 C484 0.929 . S
H494 C487 0.930 . S
C495 C496 1.351 . S
C495 N498 1.368 . S
C495 H500 0.931 . S
C496 C495 1.351 . S
C496 N497 1.373 . S
C496 H524 0.930 . S
N497 C496 1.373 . S
N497 C499 1.340 . S
N498 C495 1.368 . S
N498 C499 1.321 . S
N498 Co501 2.135 . S
C499 N497 1.340 . S
C499 N498 1.321 . S
C499 H523 0.930 . S
H500 C495 0.931 . S
Co501 N498 2.135 . S
Co501 N504 2.121 . S
Co501 O509 2.055 . S
Co501 O512 2.039 . S
Co501 N515 2.140 . S
C502 O503 1.227 . S
C502 O512 1.265 . S
O503 C502 1.227 . S
N504 Co501 2.121 . S
N504 C506 1.375 . S
N504 C507 1.313 . S
C505 C506 1.338 . S
C505 N508 1.377 . S
C505 H525 0.930 . S
C506 N504 1.375 . S
C506 C505 1.338 . S
C506 H510 0.931 . S
C507 N504 1.313 . S
C507 N508 1.344 . S
C507 H511 0.930 . S
N508 C505 1.377 . S
N508 C507 1.344 . S
O509 Co501 2.055 . S
O509 C513 1.253 . S
H510 C506 0.931 . S
H511 C507 0.930 . S
O512 Co501 2.039 . S
O512 C502 1.265 . S
C513 O509 1.253 . S
C513 O514 1.227 . S
O514 C513 1.227 . S
N515 Co501 2.140 . S
N515 C518 1.346 . S
N515 C519 1.345 . S
C516 C517 1.387 . S
C516 C520 1.391 . S
C517 C516 1.387 . S
C517 C518 1.369 . S
C517 H526 0.929 . S
C518 N515 1.346 . S
C518 C517 1.369 . S
C518 H521 0.928 . S
C519 N515 1.345 . S
C519 C520 1.371 . S
C519 H522 0.931 . S
C520 C516 1.391 . S
C520 C519 1.371 . S
C520 H527 0.930 . S
H521 C518 0.928 . S
H522 C519 0.931 . S
H523 C499 0.930 . S
H524 C496 0.930 . S
H525 C505 0.930 . S
H526 C517 0.929 . S
H527 C520 0.930 . S
H528 C536 0.950 . S
H529 C541 0.950 . S
H530 C538 0.950 . S
H531 C540 0.950 . S
H532 C542 0.950 . S
H533 C544 0.950 . S
H534 C546 0.950 . S
H535 C547 0.950 . S
C536 H528 0.950 . S
C536 C537 1.386 . S
C536 C538 1.391 . S
C537 C536 1.386 . S
C537 C541 1.393 . S
C538 H530 0.950 . S
C538 C536 1.391 . S
C538 C539 1.400 . S
C539 C538 1.400 . S
C539 C540 1.398 . S
C539 C545 1.491 . S
C540 H531 0.950 . S
C540 C539 1.398 . S
C540 C541 1.391 . S
C541 H529 0.950 . S
C541 C537 1.393 . S
C541 C540 1.391 . S
C542 H532 0.950 . S
C542 C543 1.386 . S
C542 C544 1.391 . S
C543 C542 1.386 . S
C543 C547 1.393 . S
C544 H533 0.950 . S
C544 C542 1.391 . S
C544 C545 1.400 . S
C545 C539 1.491 . S
C545 C544 1.400 . S
C545 C546 1.398 . S
C546 H534 0.950 . S
C546 C545 1.398 . S
C546 C547 1.391 . S
C547 H535 0.950 . S
C547 C543 1.393 . S
C547 C546 1.391 . S
H548 C556 0.950 . S
H549 C561 0.950 . S
H550 C558 0.950 . S
H551 C560 0.950 . S
H552 C562 0.950 . S
H553 C564 0.950 . S
H554 C566 0.950 . S
H555 C567 0.950 . S
C556 H548 0.950 . S
C556 C557 1.386 . S
C556 C558 1.391 . S
C557 C556 1.386 . S
C557 C561 1.393 . S
C558 H550 0.950 . S
C558 C556 1.391 . S
C558 C559 1.400 . S
C559 C558 1.400 . S
C559 C560 1.398 . S
C559 C565 1.491 . S
C560 H551 0.950 . S
C560 C559 1.398 . S
C560 C561 1.391 . S
C561 H549 0.950 . S
C561 C557 1.393 . S
C561 C560 1.391 . S
C562 H552 0.950 . S
C562 C563 1.386 . S
C562 C564 1.391 . S
C563 C562 1.386 . S
C563 C567 1.393 . S
C564 H553 0.950 . S
C564 C562 1.391 . S
C564 C565 1.400 . S
C565 C559 1.491 . S
C565 C564 1.400 . S
C565 C566 1.398 . S
C566 H554 0.950 . S
C566 C565 1.398 . S
C566 C567 1.391 . S
C567 H555 0.950 . S
C567 C563 1.393 . S
C567 C566 1.391 . S
H568 C576 0.950 . S
H569 C581 0.950 . S
H570 C578 0.950 . S
H571 C580 0.950 . S
H572 C582 0.950 . S
H573 C584 0.950 . S
H574 C586 0.950 . S
H575 C587 0.950 . S
C576 H568 0.950 . S
C576 C577 1.386 . S
C576 C578 1.391 . S
C577 C576 1.386 . S
C577 C581 1.393 . S
C578 H570 0.950 . S
C578 C576 1.391 . S
C578 C579 1.400 . S
C579 C578 1.400 . S
C579 C580 1.398 . S
C579 C585 1.491 . S
C580 H571 0.950 . S
C580 C579 1.398 . S
C580 C581 1.391 . S
C581 H569 0.950 . S
C581 C577 1.393 . S
C581 C580 1.391 . S
C582 H572 0.950 . S
C582 C583 1.386 . S
C582 C584 1.391 . S
C583 C582 1.386 . S
C583 C587 1.393 . S
C584 H573 0.950 . S
C584 C582 1.391 . S
C584 C585 1.400 . S
C585 C579 1.491 . S
C585 C584 1.400 . S
C585 C586 1.398 . S
C586 H574 0.950 . S
C586 C585 1.398 . S
C586 C587 1.391 . S
C587 H575 0.950 . S
C587 C583 1.393 . S
C587 C586 1.391 . S
H588 C596 0.950 . S
H589 C601 0.950 . S
H590 C598 0.950 . S
H591 C600 0.950 . S
H592 C602 0.950 . S
H593 C604 0.950 . S
H594 C606 0.950 . S
H595 C607 0.950 . S
C596 H588 0.950 . S
C596 C597 1.386 . S
C596 C598 1.391 . S
C597 C596 1.386 . S
C597 C601 1.393 . S
C598 H590 0.950 . S
C598 C596 1.391 . S
C598 C599 1.400 . S
C599 C598 1.400 . S
C599 C600 1.398 . S
C599 C605 1.491 . S
C600 H591 0.950 . S
C600 C599 1.398 . S
C600 C601 1.391 . S
C601 H589 0.950 . S
C601 C597 1.393 . S
C601 C600 1.391 . S
C602 H592 0.950 . S
C602 C603 1.386 . S
C602 C604 1.391 . S
C603 C602 1.386 . S
C603 C607 1.393 . S
C604 H593 0.950 . S
C604 C602 1.391 . S
C604 C605 1.400 . S
C605 C599 1.491 . S
C605 C604 1.400 . S
C605 C606 1.398 . S
C606 H594 0.950 . S
C606 C605 1.398 . S
C606 C607 1.391 . S
C607 H595 0.950 . S
C607 C603 1.393 . S
C607 C606 1.391 . S
H608 C616 0.950 . S
H609 C621 0.950 . S
H610 C618 0.950 . S
H611 C620 0.950 . S
H612 C622 0.950 . S
H613 C624 0.950 1_554 S
H614 C626 0.950 . S
H615 C627 0.950 . S
C616 H608 0.950 . S
C616 C617 1.386 . S
C616 C618 1.391 . S
C617 C616 1.386 . S
C617 C621 1.393 . S
C618 H610 0.950 . S
C618 C616 1.391 . S
C618 C619 1.400 . S
C619 C618 1.400 . S
C619 C620 1.398 . S
C619 C625 1.491 1_554 S
C620 H611 0.950 . S
C620 C619 1.398 . S
C620 C621 1.391 . S
C621 H609 0.950 . S
C621 C617 1.393 . S
C621 C620 1.391 . S
C622 H612 0.950 . S
C622 C623 1.386 . S
C622 C624 1.391 . S
C623 C622 1.386 . S
C623 C627 1.393 . S
C624 H613 0.950 1_556 S
C624 C622 1.391 . S
C624 C625 1.400 . S
C625 C619 1.491 1_556 S
C625 C624 1.400 . S
C625 C626 1.398 . S
C626 H614 0.950 . S
C626 C625 1.398 . S
C626 C627 1.391 . S
C627 H615 0.950 . S
C627 C623 1.393 . S
C627 C626 1.391 . S
H628 C636 0.950 . S
H629 C641 0.950 . S
H630 C638 0.950 . S
H631 C640 0.950 . S
H632 C642 0.950 . S
H633 C644 0.950 . S
H634 C646 0.950 . S
H635 C647 0.950 . S
C636 H628 0.950 . S
C636 C637 1.386 . S
C636 C638 1.391 . S
C637 C636 1.386 . S
C637 C641 1.393 . S
C638 H630 0.950 . S
C638 C636 1.391 . S
C638 C639 1.400 . S
C639 C638 1.400 . S
C639 C640 1.398 . S
C639 C645 1.491 1_556 S
C640 H631 0.950 . S
C640 C639 1.398 . S
C640 C641 1.391 . S
C641 H629 0.950 . S
C641 C637 1.393 . S
C641 C640 1.391 . S
C642 H632 0.950 . S
C642 C643 1.386 . S
C642 C644 1.391 . S
C643 C642 1.386 . S
C643 C647 1.393 . S
C644 H633 0.950 . S
C644 C642 1.391 . S
C644 C645 1.400 . S
C645 C639 1.491 1_554 S
C645 C644 1.400 . S
C645 C646 1.398 . S
C646 H634 0.950 . S
C646 C645 1.398 . S
C646 C647 1.391 . S
C647 H635 0.950 . S
C647 C643 1.393 . S
C647 C646 1.391 . S
H648 C656 0.950 . S
H649 C661 0.950 . S
H650 C658 0.950 . S
H651 C660 0.950 . S
H652 C662 0.950 . S
H653 C664 0.950 . S
H654 C666 0.950 . S
H655 C667 0.950 . S
C656 H648 0.950 . S
C656 C657 1.386 . S
C656 C658 1.391 . S
C657 C656 1.386 . S
C657 C661 1.393 . S
C658 H650 0.950 . S
C658 C656 1.391 . S
C658 C659 1.400 . S
C659 C658 1.400 . S
C659 C660 1.398 . S
C659 C665 1.491 1_556 S
C660 H651 0.950 . S
C660 C659 1.398 . S
C660 C661 1.391 . S
C661 H649 0.950 . S
C661 C657 1.393 . S
C661 C660 1.391 . S
C662 H652 0.950 . S
C662 C663 1.386 . S
C662 C664 1.391 . S
C663 C662 1.386 . S
C663 C667 1.393 . S
C664 H653 0.950 . S
C664 C662 1.391 . S
C664 C665 1.400 . S
C665 C659 1.491 1_554 S
C665 C664 1.400 . S
C665 C666 1.398 . S
C666 H654 0.950 . S
C666 C665 1.398 . S
C666 C667 1.391 . S
C667 H655 0.950 . S
C667 C663 1.393 . S
C667 C666 1.391 . S
H668 C676 0.950 . S
H669 C681 0.950 . S
H670 C678 0.950 . S
H671 C680 0.950 1_556 S
H672 C682 0.950 . S
H673 C684 0.950 . S
H674 C686 0.950 . S
H675 C687 0.950 . S
C676 H668 0.950 . S
C676 C677 1.386 . S
C676 C678 1.391 . S
C677 C676 1.386 . S
C677 C681 1.393 . S
C678 H670 0.950 . S
C678 C676 1.391 . S
C678 C679 1.400 . S
C679 C678 1.400 . S
C679 C680 1.398 . S
C679 C685 1.491 1_554 S
C680 H671 0.950 1_554 S
C680 C679 1.398 . S
C680 C681 1.391 . S
C681 H669 0.950 . S
C681 C677 1.393 . S
C681 C680 1.391 . S
C682 H672 0.950 . S
C682 C683 1.386 . S
C682 C684 1.391 . S
C683 C682 1.386 . S
C683 C687 1.393 . S
C684 H673 0.950 . S
C684 C682 1.391 . S
C684 C685 1.400 . S
C685 C679 1.491 1_556 S
C685 C684 1.400 . S
C685 C686 1.398 . S
C686 H674 0.950 . S
C686 C685 1.398 . S
C686 C687 1.391 . S
C687 H675 0.950 . S
C687 C683 1.393 . S
C687 C686 1.391 . S
H688 C696 0.950 . S
H689 C701 0.950 . S
H690 C698 0.950 . S
H691 C700 0.950 . S
H692 C702 0.950 . S
H693 C704 0.950 . S
H694 C706 0.950 . S
H695 C707 0.950 . S
C696 H688 0.950 . S
C696 C697 1.386 . S
C696 C698 1.391 . S
C697 C696 1.386 . S
C697 C701 1.393 . S
C698 H690 0.950 . S
C698 C696 1.391 . S
C698 C699 1.400 . S
C699 C698 1.400 . S
C699 C700 1.398 . S
C699 C705 1.491 . S
C700 H691 0.950 . S
C700 C699 1.398 . S
C700 C701 1.391 . S
C701 H689 0.950 . S
C701 C697 1.393 . S
C701 C700 1.391 . S
C702 H692 0.950 . S
C702 C703 1.386 . S
C702 C704 1.391 . S
C703 C702 1.386 . S
C703 C707 1.393 . S
C704 H693 0.950 . S
C704 C702 1.391 . S
C704 C705 1.400 . S
C705 C699 1.491 . S
C705 C704 1.400 . S
C705 C706 1.398 . S
C706 H694 0.950 . S
C706 C705 1.398 . S
C706 C707 1.391 . S
C707 H695 0.950 . S
C707 C703 1.393 . S
C707 C706 1.391 . S
H708 C716 0.950 . S
H709 C721 0.950 . S
H710 C718 0.950 . S
H711 C720 0.950 . S
H712 C722 0.950 . S
H713 C724 0.950 . S
H714 C726 0.950 . S
H715 C727 0.950 . S
C716 H708 0.950 . S
C716 C717 1.386 . S
C716 C718 1.391 . S
C717 C716 1.386 . S
C717 C721 1.393 . S
C718 H710 0.950 . S
C718 C716 1.391 . S
C718 C719 1.400 . S
C719 C718 1.400 . S
C719 C720 1.398 . S
C719 C725 1.491 . S
C720 H711 0.950 . S
C720 C719 1.398 . S
C720 C721 1.391 . S
C721 H709 0.950 . S
C721 C717 1.393 . S
C721 C720 1.391 . S
C722 H712 0.950 . S
C722 C723 1.386 . S
C722 C724 1.391 . S
C723 C722 1.386 . S
C723 C727 1.393 . S
C724 H713 0.950 . S
C724 C722 1.391 . S
C724 C725 1.400 . S
C725 C719 1.491 . S
C725 C724 1.400 . S
C725 C726 1.398 . S
C726 H714 0.950 . S
C726 C725 1.398 . S
C726 C727 1.391 . S
C727 H715 0.950 . S
C727 C723 1.393 . S
C727 C726 1.391 . S
H728 C736 0.950 . S
H729 C741 0.950 . S
H730 C738 0.950 . S
H731 C740 0.950 . S
H732 C742 0.950 . S
H733 C744 0.950 . S
H734 C746 0.950 . S
H735 C747 0.950 . S
C736 H728 0.950 . S
C736 C737 1.386 . S
C736 C738 1.391 . S
C737 C736 1.386 . S
C737 C741 1.393 . S
C738 H730 0.950 . S
C738 C736 1.391 . S
C738 C739 1.400 . S
C739 C738 1.400 . S
C739 C740 1.398 . S
C739 C745 1.491 . S
C740 H731 0.950 . S
C740 C739 1.398 . S
C740 C741 1.391 . S
C741 H729 0.950 . S
C741 C737 1.393 . S
C741 C740 1.391 . S
C742 H732 0.950 . S
C742 C743 1.386 . S
C742 C744 1.391 . S
C743 C742 1.386 . S
C743 C747 1.393 . S
C744 H733 0.950 . S
C744 C742 1.391 . S
C744 C745 1.400 . S
C745 C739 1.491 . S
C745 C744 1.400 . S
C745 C746 1.398 . S
C746 H734 0.950 . S
C746 C745 1.398 . S
C746 C747 1.391 . S
C747 H735 0.950 . S
C747 C743 1.393 . S
C747 C746 1.391 . S
H748 C756 0.950 . S
H749 C761 0.950 . S
H750 C758 0.950 . S
H751 C760 0.950 . S
H752 C762 0.950 . S
H753 C764 0.950 . S
H754 C766 0.950 . S
H755 C767 0.950 . S
C756 H748 0.950 . S
C756 C757 1.386 . S
C756 C758 1.391 . S
C757 C756 1.386 . S
C757 C761 1.393 . S
C758 H750 0.950 . S
C758 C756 1.391 . S
C758 C759 1.400 . S
C759 C758 1.400 . S
C759 C760 1.398 . S
C759 C765 1.491 . S
C760 H751 0.950 . S
C760 C759 1.398 . S
C760 C761 1.391 . S
C761 H749 0.950 . S
C761 C757 1.393 . S
C761 C760 1.391 . S
C762 H752 0.950 . S
C762 C763 1.386 . S
C762 C764 1.391 . S
C763 C762 1.386 . S
C763 C767 1.393 . S
C764 H753 0.950 . S
C764 C762 1.391 . S
C764 C765 1.400 . S
C765 C759 1.491 . S
C765 C764 1.400 . S
C765 C766 1.398 . S
C766 H754 0.950 . S
C766 C765 1.398 . S
C766 C767 1.391 . S
C767 H755 0.950 . S
C767 C763 1.393 . S
C767 C766 1.391 . S
H768 C776 0.950 . S
H769 C781 0.950 . S
H770 C778 0.950 . S
H771 C780 0.950 . S
H772 C782 0.950 . S
H773 C784 0.950 . S
H774 C786 0.950 . S
H775 C787 0.950 . S
C776 H768 0.950 . S
C776 C777 1.386 . S
C776 C778 1.391 . S
C777 C776 1.386 . S
C777 C781 1.393 . S
C778 H770 0.950 . S
C778 C776 1.391 . S
C778 C779 1.400 . S
C779 C778 1.400 . S
C779 C780 1.398 . S
C779 C785 1.491 . S
C780 H771 0.950 . S
C780 C779 1.398 . S
C780 C781 1.391 . S
C781 H769 0.950 . S
C781 C777 1.393 . S
C781 C780 1.391 . S
C782 H772 0.950 . S
C782 C783 1.386 . S
C782 C784 1.391 . S
C783 C782 1.386 . S
C783 C787 1.393 . S
C784 H773 0.950 . S
C784 C782 1.391 . S
C784 C785 1.400 . S
C785 C779 1.491 . S
C785 C784 1.400 . S
C785 C786 1.398 . S
C786 H774 0.950 . S
C786 C785 1.398 . S
C786 C787 1.391 . S
C787 H775 0.950 . S
C787 C783 1.393 . S
C787 C786 1.391 . S
H788 C796 0.950 . S
H789 C801 0.950 . S
H790 C798 0.950 . S
H791 C800 0.950 . S
H792 C802 0.950 . S
H793 C804 0.950 . S
H794 C806 0.950 . S
H795 C807 0.950 . S
C796 H788 0.950 . S
C796 C797 1.386 . S
C796 C798 1.391 . S
C797 C796 1.386 . S
C797 C801 1.393 . S
C798 H790 0.950 . S
C798 C796 1.391 . S
C798 C799 1.400 . S
C799 C798 1.400 . S
C799 C800 1.398 . S
C799 C805 1.491 . S
C800 H791 0.950 . S
C800 C799 1.398 . S
C800 C801 1.391 . S
C801 H789 0.950 . S
C801 C797 1.393 . S
C801 C800 1.391 . S
C802 H792 0.950 . S
C802 C803 1.386 . S
C802 C804 1.391 . S
C803 C802 1.386 . S
C803 C807 1.393 . S
C804 H793 0.950 . S
C804 C802 1.391 . S
C804 C805 1.400 . S
C805 C799 1.491 . S
C805 C804 1.400 . S
C805 C806 1.398 . S
C806 H794 0.950 . S
C806 C805 1.398 . S
C806 C807 1.391 . S
C807 H795 0.950 . S
C807 C803 1.393 . S
C807 C806 1.391 . S
H808 C816 0.950 . S
H809 C821 0.950 . S
H810 C818 0.950 . S
H811 C820 0.950 . S
H812 C822 0.950 . S
H813 C824 0.950 . S
H814 C826 0.950 . S
H815 C827 0.950 . S
C816 H808 0.950 . S
C816 C817 1.386 . S
C816 C818 1.391 . S
C817 C816 1.386 . S
C817 C821 1.393 . S
C818 H810 0.950 . S
C818 C816 1.391 . S
C818 C819 1.400 . S
C819 C818 1.400 . S
C819 C820 1.398 . S
C819 C825 1.491 . S
C820 H811 0.950 . S
C820 C819 1.398 . S
C820 C821 1.391 . S
C821 H809 0.950 . S
C821 C817 1.393 . S
C821 C820 1.391 . S
C822 H812 0.950 . S
C822 C823 1.386 . S
C822 C824 1.391 . S
C823 C822 1.386 . S
C823 C827 1.393 . S
C824 H813 0.950 . S
C824 C822 1.391 . S
C824 C825 1.400 . S
C825 C819 1.491 . S
C825 C824 1.400 . S
C825 C826 1.398 . S
C826 H814 0.950 . S
C826 C825 1.398 . S
C826 C827 1.391 . S
C827 H815 0.950 . S
C827 C823 1.393 . S
C827 C826 1.391 . S
H828 C836 0.950 . S
H829 C841 0.950 . S
H830 C838 0.950 . S
H831 C840 0.950 . S
H832 C842 0.950 . S
H833 C844 0.950 . S
H834 C846 0.950 . S
H835 C847 0.950 . S
C836 H828 0.950 . S
C836 C837 1.386 . S
C836 C838 1.391 . S
C837 C836 1.386 . S
C837 C841 1.393 . S
C838 H830 0.950 . S
C838 C836 1.391 . S
C838 C839 1.400 . S
C839 C838 1.400 . S
C839 C840 1.398 . S
C839 C845 1.491 . S
C840 H831 0.950 . S
C840 C839 1.398 . S
C840 C841 1.391 . S
C841 H829 0.950 . S
C841 C837 1.393 . S
C841 C840 1.391 . S
C842 H832 0.950 . S
C842 C843 1.386 . S
C842 C844 1.391 . S
C843 C842 1.386 . S
C843 C847 1.393 . S
C844 H833 0.950 . S
C844 C842 1.391 . S
C844 C845 1.400 . S
C845 C839 1.491 . S
C845 C844 1.400 . S
C845 C846 1.398 . S
C846 H834 0.950 . S
C846 C845 1.398 . S
C846 C847 1.391 . S
C847 H835 0.950 . S
C847 C843 1.393 . S
C847 C846 1.391 . S
H848 C856 0.950 . S
H849 C861 0.950 . S
H850 C858 0.950 . S
H851 C860 0.950 . S
H852 C862 0.950 . S
H853 C864 0.950 . S
H854 C866 0.950 . S
H855 C867 0.950 . S
C856 H848 0.950 . S
C856 C857 1.386 1_655 S
C856 C858 1.391 . S
C857 C856 1.386 1_455 S
C857 C861 1.393 . S
C858 H850 0.950 . S
C858 C856 1.391 . S
C858 C859 1.400 1_655 S
C859 C858 1.400 1_455 S
C859 C860 1.398 . S
C859 C865 1.491 1_445 S
C860 H851 0.950 . S
C860 C859 1.398 . S
C860 C861 1.391 . S
C861 H849 0.950 . S
C861 C857 1.393 . S
C861 C860 1.391 . S
C862 H852 0.950 . S
C862 C863 1.386 1_455 S
C862 C864 1.391 . S
C863 C862 1.386 1_655 S
C863 C867 1.393 . S
C864 H853 0.950 . S
C864 C862 1.391 . S
C864 C865 1.400 1_455 S
C865 C859 1.491 1_665 S
C865 C864 1.400 1_655 S
C865 C866 1.398 . S
C866 H854 0.950 . S
C866 C865 1.398 . S
C866 C867 1.391 . S
C867 H855 0.950 . S
C867 C863 1.393 . S
C867 C866 1.391 . S
H868 C876 0.950 . S
H869 C881 0.950 . S
H870 C878 0.950 1_545 S
H871 C880 0.949 1_545 S
H872 C882 0.950 . S
H873 C884 0.950 1_565 S
H874 C886 0.949 1_565 S
H875 C887 0.950 . S
C876 H868 0.950 . S
C876 C877 1.386 . S
C876 C878 1.391 . S
C877 C876 1.386 . S
C877 C881 1.393 . S
C878 H870 0.950 1_565 S
C878 C876 1.391 . S
C878 C879 1.400 . S
C879 C878 1.400 . S
C879 C880 1.398 . S
C879 C885 1.490 1_465 S
C880 H871 0.949 1_565 S
C880 C879 1.398 . S
C880 C881 1.392 . S
C881 H869 0.950 . S
C881 C877 1.393 . S
C881 C880 1.392 . S
C882 H872 0.950 . S
C882 C883 1.386 . S
C882 C884 1.391 . S
C883 C882 1.386 . S
C883 C887 1.393 . S
C884 H873 0.950 1_545 S
C884 C882 1.391 . S
C884 C885 1.400 . S
C885 C879 1.490 1_645 S
C885 C884 1.400 . S
C885 C886 1.398 . S
C886 H874 0.949 1_545 S
C886 C885 1.398 . S
C886 C887 1.392 . S
C887 H875 0.950 . S
C887 C883 1.393 . S
C887 C886 1.392 . S
H888 C896 0.950 . S
H889 C901 0.950 . S
H890 C898 0.950 . S
H891 C900 0.950 . S
H892 C902 0.950 . S
H893 C904 0.950 . S
H894 C906 0.950 . S
H895 C907 0.950 . S
C896 H888 0.950 . S
C896 C897 1.386 . S
C896 C898 1.391 . S
C897 C896 1.386 . S
C897 C901 1.393 1_655 S
C898 H890 0.950 . S
C898 C896 1.391 . S
C898 C899 1.409 . S
C899 C898 1.409 . S
C899 C900 1.390 1_655 S
C899 C905 1.490 1_655 S
C900 H891 0.950 . S
C900 C899 1.390 1_455 S
C900 C901 1.391 . S
C901 H889 0.950 . S
C901 C897 1.393 1_455 S
C901 C900 1.391 . S
C902 H892 0.950 . S
C902 C903 1.386 . S
C902 C904 1.391 . S
C903 C902 1.386 . S
C903 C907 1.393 1_455 S
C904 H893 0.950 . S
C904 C902 1.391 . S
C904 C905 1.409 . S
C905 C899 1.490 1_455 S
C905 C904 1.409 . S
C905 C906 1.390 1_455 S
C906 H894 0.950 . S
C906 C905 1.390 1_655 S
C906 C907 1.391 . S
C907 H895 0.950 . S
C907 C903 1.393 1_655 S
C907 C906 1.391 . S
H908 C916 0.950 . S
H909 C921 0.950 . S
H910 C918 0.950 . S
H911 C920 0.950 . S
H912 C922 0.950 . S
H913 C924 0.950 . S
H914 C926 0.950 . S
H915 C927 0.950 . S
C916 H908 0.950 . S
C916 C917 1.386 . S
C916 C918 1.391 . S
C917 C916 1.386 . S
C917 C921 1.393 1_545 S
C918 H910 0.950 . S
C918 C916 1.391 . S
C918 C919 1.400 . S
C919 C918 1.400 . S
C919 C920 1.398 1_545 S
C919 C925 1.491 1_545 S
C920 H911 0.950 . S
C920 C919 1.398 1_565 S
C920 C921 1.391 . S
C921 H909 0.950 . S
C921 C917 1.393 1_565 S
C921 C920 1.391 . S
C922 H912 0.950 . S
C922 C923 1.386 . S
C922 C924 1.391 . S
C923 C922 1.386 . S
C923 C927 1.393 1_565 S
C924 H913 0.950 . S
C924 C922 1.391 . S
C924 C925 1.400 . S
C925 C919 1.491 1_565 S
C925 C924 1.400 . S
C925 C926 1.398 1_565 S
C926 H914 0.950 . S
C926 C925 1.398 1_545 S
C926 C927 1.391 . S
C927 H915 0.950 . S
C927 C923 1.393 1_545 S
C927 C926 1.391 . S
H928 C936 0.950 . S
H929 C941 0.950 . S
H930 C938 0.950 . S
H931 C940 0.950 . S
H932 C942 0.950 . S
H933 C944 0.950 . S
H934 C946 0.950 . S
H935 C947 0.950 . S
C936 H928 0.950 . S
C936 C937 1.386 . S
C936 C938 1.391 . S
C937 C936 1.386 . S
C937 C941 1.393 . S
C938 H930 0.950 . S
C938 C936 1.391 . S
C938 C939 1.400 . S
C939 C938 1.400 . S
C939 C940 1.398 . S
C939 C945 1.491 . S
C940 H931 0.950 . S
C940 C939 1.398 . S
C940 C941 1.391 . S
C941 H929 0.950 . S
C941 C937 1.393 . S
C941 C940 1.391 . S
C942 H932 0.950 . S
C942 C943 1.386 . S
C942 C944 1.391 . S
C943 C942 1.386 . S
C943 C947 1.393 . S
C944 H933 0.950 . S
C944 C942 1.391 . S
C944 C945 1.400 . S
C945 C939 1.491 . S
C945 C944 1.400 . S
C945 C946 1.398 . S
C946 H934 0.950 . S
C946 C945 1.398 . S
C946 C947 1.391 . S
C947 H935 0.950 . S
C947 C943 1.393 . S
C947 C946 1.391 . S
H948 C956 0.950 . S
H949 C961 0.950 . S
H950 C958 0.950 . S
H951 C960 0.950 . S
H952 C962 0.950 . S
H953 C964 0.950 . S
H954 C966 0.950 . S
H955 C967 0.950 . S
C956 H948 0.950 . S
C956 C957 1.386 . S
C956 C958 1.391 . S
C957 C956 1.386 . S
C957 C961 1.393 . S
C958 H950 0.950 . S
C958 C956 1.391 . S
C958 C959 1.400 . S
C959 C958 1.400 . S
C959 C960 1.398 . S
C959 C965 1.491 . S
C960 H951 0.950 . S
C960 C959 1.398 . S
C960 C961 1.391 . S
C961 H949 0.950 . S
C961 C957 1.393 . S
C961 C960 1.391 . S
C962 H952 0.950 . S
C962 C963 1.386 . S
C962 C964 1.391 . S
C963 C962 1.386 . S
C963 C967 1.393 . S
C964 H953 0.950 . S
C964 C962 1.391 . S
C964 C965 1.400 . S
C965 C959 1.491 . S
C965 C964 1.400 . S
C965 C966 1.398 . S
C966 H954 0.950 . S
C966 C965 1.398 . S
C966 C967 1.391 . S
C967 H955 0.950 . S
C967 C963 1.393 . S
C967 C966 1.391 . S
H968 C976 0.950 . S
H969 C981 0.950 . S
H970 C978 0.950 . S
H971 C980 0.950 . S
H972 C982 0.950 . S
H973 C984 0.950 . S
H974 C986 0.950 . S
H975 C987 0.950 . S
C976 H968 0.950 . S
C976 C977 1.386 . S
C976 C978 1.391 . S
C977 C976 1.386 . S
C977 C981 1.393 . S
C978 H970 0.950 . S
C978 C976 1.391 . S
C978 C979 1.400 . S
C979 C978 1.400 . S
C979 C980 1.398 . S
C979 C985 1.491 1_565 S
C980 H971 0.950 . S
C980 C979 1.398 . S
C980 C981 1.391 . S
C981 H969 0.950 . S
C981 C977 1.393 . S
C981 C980 1.391 . S
C982 H972 0.950 . S
C982 C983 1.386 . S
C982 C984 1.391 . S
C983 C982 1.386 . S
C983 C987 1.393 . S
C984 H973 0.950 . S
C984 C982 1.391 . S
C984 C985 1.400 . S
C985 C979 1.491 1_545 S
C985 C984 1.400 . S
C985 C986 1.398 . S
C986 H974 0.950 . S
C986 C985 1.398 . S
C986 C987 1.391 . S
C987 H975 0.950 . S
C987 C983 1.393 . S
C987 C986 1.391 . S
H988 C996 0.950 . S
H989 C1001 0.950 . S
H990 C998 0.950 . S
H991 C1000 0.950 . S
H992 C1002 0.950 . S
H993 C1004 0.950 . S
H994 C1006 0.950 . S
H995 C1007 0.950 . S
C996 H988 0.950 . S
C996 C997 1.386 . S
C996 C998 1.391 . S
C997 C996 1.386 . S
C997 C1001 1.393 . S
C998 H990 0.950 . S
C998 C996 1.391 . S
C998 C999 1.400 . S
C999 C998 1.400 . S
C999 C1000 1.398 . S
C999 C1005 1.491 1_455 S
C1000 H991 0.950 . S
C1000 C999 1.398 . S
C1000 C1001 1.391 . S
C1001 H989 0.950 . S
C1001 C997 1.393 . S
C1001 C1000 1.391 . S
C1002 H992 0.950 . S
C1002 C1003 1.386 . S
C1002 C1004 1.391 . S
C1003 C1002 1.386 . S
C1003 C1007 1.393 . S
C1004 H993 0.950 . S
C1004 C1002 1.391 . S
C1004 C1005 1.400 . S
C1005 C999 1.491 1_655 S
C1005 C1004 1.400 . S
C1005 C1006 1.398 . S
C1006 H994 0.950 . S
C1006 C1005 1.398 . S
C1006 C1007 1.391 . S
C1007 H995 0.950 . S
C1007 C1003 1.393 . S
C1007 C1006 1.391 . S
H1008 C1016 0.950 . S
H1009 C1021 0.950 . S
H1010 C1018 0.950 . S
H1011 C1020 0.950 . S
H1012 C1022 0.950 . S
H1013 C1024 0.950 . S
H1014 C1026 0.950 . S
H1015 C1027 0.950 . S
C1016 H1008 0.950 . S
C1016 C1017 1.386 . S
C1016 C1018 1.391 . S
C1017 C1016 1.386 . S
C1017 C1021 1.393 1_455 S
C1018 H1010 0.950 . S
C1018 C1016 1.391 . S
C1018 C1019 1.400 . S
C1019 C1018 1.400 . S
C1019 C1020 1.398 1_455 S
C1019 C1025 1.491 1_455 S
C1020 H1011 0.950 . S
C1020 C1019 1.398 1_655 S
C1020 C1021 1.391 . S
C1021 H1009 0.950 . S
C1021 C1017 1.393 1_655 S
C1021 C1020 1.391 . S
C1022 H1012 0.950 . S
C1022 C1023 1.386 . S
C1022 C1024 1.391 . S
C1023 C1022 1.386 . S
C1023 C1027 1.393 1_655 S
C1024 H1013 0.950 . S
C1024 C1022 1.391 . S
C1024 C1025 1.400 . S
C1025 C1019 1.491 1_655 S
C1025 C1024 1.400 . S
C1025 C1026 1.398 1_655 S
C1026 H1014 0.950 . S
C1026 C1025 1.398 1_455 S
C1026 C1027 1.391 . S
C1027 H1015 0.950 . S
C1027 C1023 1.393 1_455 S
C1027 C1026 1.391 . S
H1028 C1036 0.950 . S
H1029 C1041 0.950 . S
H1030 C1038 0.950 . S
H1031 C1040 0.950 . S
H1032 C1042 0.950 . S
H1033 C1044 0.950 . S
H1034 C1046 0.950 . S
H1035 C1047 0.950 . S
C1036 H1028 0.950 . S
C1036 C1037 1.386 1_565 S
C1036 C1038 1.391 . S
C1037 C1036 1.386 1_545 S
C1037 C1041 1.393 . S
C1038 H1030 0.950 . S
C1038 C1036 1.391 . S
C1038 C1039 1.400 1_565 S
C1039 C1038 1.400 1_545 S
C1039 C1040 1.398 . S
C1039 C1045 1.491 1_545 S
C1040 H1031 0.950 . S
C1040 C1039 1.398 . S
C1040 C1041 1.391 . S
C1041 H1029 0.950 . S
C1041 C1037 1.393 . S
C1041 C1040 1.391 . S
C1042 H1032 0.950 . S
C1042 C1043 1.386 1_545 S
C1042 C1044 1.391 . S
C1043 C1042 1.386 1_565 S
C1043 C1047 1.393 . S
C1044 H1033 0.950 . S
C1044 C1042 1.391 . S
C1044 C1045 1.400 1_545 S
C1045 C1039 1.491 1_565 S
C1045 C1044 1.400 1_565 S
C1045 C1046 1.398 . S
C1046 H1034 0.950 . S
C1046 C1045 1.398 . S
C1046 C1047 1.391 . S
C1047 H1035 0.950 . S
C1047 C1043 1.393 . S
C1047 C1046 1.391 . S
H1048 C1056 0.950 . S
H1049 C1061 0.950 . S
H1050 C1058 0.950 . S
H1051 C1060 0.950 . S
H1052 C1062 0.950 . S
H1053 C1064 0.950 . S
H1054 C1066 0.950 . S
H1055 C1067 0.950 . S
C1056 H1048 0.950 . S
C1056 C1057 1.386 1_455 S
C1056 C1058 1.391 . S
C1057 C1056 1.386 1_655 S
C1057 C1061 1.393 . S
C1058 H1050 0.950 . S
C1058 C1056 1.391 . S
C1058 C1059 1.400 1_455 S
C1059 C1058 1.400 1_655 S
C1059 C1060 1.398 . S
C1059 C1065 1.491 1_645 S
C1060 H1051 0.950 . S
C1060 C1059 1.398 . S
C1060 C1061 1.391 . S
C1061 H1049 0.950 . S
C1061 C1057 1.393 . S
C1061 C1060 1.391 . S
C1062 H1052 0.950 . S
C1062 C1063 1.386 1_655 S
C1062 C1064 1.391 . S
C1063 C1062 1.386 1_455 S
C1063 C1067 1.393 . S
C1064 H1053 0.950 . S
C1064 C1062 1.391 . S
C1064 C1065 1.400 1_655 S
C1065 C1059 1.491 1_465 S
C1065 C1064 1.400 1_455 S
C1065 C1066 1.398 . S
C1066 H1054 0.950 . S
C1066 C1065 1.398 . S
C1066 C1067 1.391 . S
C1067 H1055 0.950 . S
C1067 C1063 1.393 . S
C1067 C1066 1.391 . S
H1068 C1076 0.950 . S
H1069 C1081 0.950 . S
H1070 C1078 0.950 . S
H1071 C1080 0.950 . S
H1072 C1082 0.950 . S
H1073 C1084 0.950 . S
H1074 C1086 0.950 . S
H1075 C1087 0.950 . S
C1076 H1068 0.950 . S
C1076 C1077 1.386 . S
C1076 C1078 1.391 . S
C1077 C1076 1.386 . S
C1077 C1081 1.393 1_565 S
C1078 H1070 0.950 . S
C1078 C1076 1.391 . S
C1078 C1079 1.400 . S
C1079 C1078 1.400 . S
C1079 C1080 1.398 1_565 S
C1079 C1085 1.491 1_665 S
C1080 H1071 0.950 . S
C1080 C1079 1.398 1_545 S
C1080 C1081 1.391 . S
C1081 H1069 0.950 . S
C1081 C1077 1.393 1_545 S
C1081 C1080 1.391 . S
C1082 H1072 0.950 . S
C1082 C1083 1.386 . S
C1082 C1084 1.391 . S
C1083 C1082 1.386 . S
C1083 C1087 1.393 1_545 S
C1084 H1073 0.950 . S
C1084 C1082 1.391 . S
C1084 C1085 1.400 . S
C1085 C1079 1.491 1_445 S
C1085 C1084 1.400 . S
C1085 C1086 1.398 1_545 S
C1086 H1074 0.950 . S
C1086 C1085 1.398 1_565 S
C1086 C1087 1.391 . S
C1087 H1075 0.950 . S
C1087 C1083 1.393 1_565 S
C1087 C1086 1.391 . S
H1088 C1096 0.950 . S
H1089 C1101 0.950 . S
H1090 C1098 0.950 . S
H1091 C1100 0.950 . S
H1092 C1102 0.950 . S
H1093 C1104 0.950 . S
H1094 C1106 0.950 . S
H1095 C1107 0.950 . S
C1096 H1088 0.950 . S
C1096 C1097 1.386 . S
C1096 C1098 1.391 . S
C1097 C1096 1.386 . S
C1097 C1101 1.393 . S
C1098 H1090 0.950 . S
C1098 C1096 1.391 . S
C1098 C1099 1.400 . S
C1099 C1098 1.400 . S
C1099 C1100 1.398 . S
C1099 C1105 1.491 1_545 S
C1100 H1091 0.950 . S
C1100 C1099 1.398 . S
C1100 C1101 1.391 . S
C1101 H1089 0.950 . S
C1101 C1097 1.393 . S
C1101 C1100 1.391 . S
C1102 H1092 0.950 . S
C1102 C1103 1.386 . S
C1102 C1104 1.391 . S
C1103 C1102 1.386 . S
C1103 C1107 1.393 . S
C1104 H1093 0.950 . S
C1104 C1102 1.391 . S
C1104 C1105 1.400 . S
C1105 C1099 1.491 1_565 S
C1105 C1104 1.400 . S
C1105 C1106 1.398 . S
C1106 H1094 0.950 . S
C1106 C1105 1.398 . S
C1106 C1107 1.391 . S
C1107 H1095 0.950 . S
C1107 C1103 1.393 . S
C1107 C1106 1.391 . S
H1108 C1116 0.950 . S
H1109 C1121 0.950 . S
H1110 C1118 0.950 . S
H1111 C1120 0.950 . S
H1112 C1122 0.950 . S
H1113 C1124 0.950 . S
H1114 C1126 0.950 . S
H1115 C1127 0.950 . S
C1116 H1108 0.950 . S
C1116 C1117 1.386 . S
C1116 C1118 1.391 . S
C1117 C1116 1.386 . S
C1117 C1121 1.393 . S
C1118 H1110 0.950 . S
C1118 C1116 1.391 . S
C1118 C1119 1.400 . S
C1119 C1118 1.400 . S
C1119 C1120 1.398 . S
C1119 C1125 1.491 1_655 S
C1120 H1111 0.950 . S
C1120 C1119 1.398 . S
C1120 C1121 1.391 . S
C1121 H1109 0.950 . S
C1121 C1117 1.393 . S
C1121 C1120 1.391 . S
C1122 H1112 0.950 . S
C1122 C1123 1.386 . S
C1122 C1124 1.391 . S
C1123 C1122 1.386 . S
C1123 C1127 1.393 . S
C1124 H1113 0.950 . S
C1124 C1122 1.391 . S
C1124 C1125 1.400 . S
C1125 C1119 1.491 1_455 S
C1125 C1124 1.400 . S
C1125 C1126 1.398 . S
C1126 H1114 0.950 . S
C1126 C1125 1.398 . S
C1126 C1127 1.391 . S
C1127 H1115 0.950 . S
C1127 C1123 1.393 . S
C1127 C1126 1.391 . S
H1128 C1136 0.950 . S
H1129 C1141 0.950 . S
H1130 C1138 0.950 . S
H1131 C1140 0.950 . S
H1132 C1142 0.950 . S
H1133 C1144 0.950 . S
H1134 C1146 0.950 . S
H1135 C1147 0.950 . S
C1136 H1128 0.950 . S
C1136 C1137 1.386 . S
C1136 C1138 1.391 . S
C1137 C1136 1.386 . S
C1137 C1141 1.393 . S
C1138 H1130 0.950 . S
C1138 C1136 1.391 . S
C1138 C1139 1.400 . S
C1139 C1138 1.400 . S
C1139 C1140 1.398 . S
C1139 C1145 1.491 . S
C1140 H1131 0.950 . S
C1140 C1139 1.398 . S
C1140 C1141 1.391 . S
C1141 H1129 0.950 . S
C1141 C1137 1.393 . S
C1141 C1140 1.391 . S
C1142 H1132 0.950 . S
C1142 C1143 1.386 . S
C1142 C1144 1.391 . S
C1143 C1142 1.386 . S
C1143 C1147 1.393 . S
C1144 H1133 0.950 . S
C1144 C1142 1.391 . S
C1144 C1145 1.400 . S
C1145 C1139 1.491 . S
C1145 C1144 1.400 . S
C1145 C1146 1.398 . S
C1146 H1134 0.950 . S
C1146 C1145 1.398 . S
C1146 C1147 1.391 . S
C1147 H1135 0.950 . S
C1147 C1143 1.393 . S
C1147 C1146 1.391 . S
H1148 C1156 0.950 . S
H1149 C1161 0.950 . S
H1150 C1158 0.950 . S
H1151 C1160 0.950 . S
H1152 C1162 0.950 . S
H1153 C1164 0.950 . S
H1154 C1166 0.950 . S
H1155 C1167 0.950 . S
C1156 H1148 0.950 . S
C1156 C1157 1.386 . S
C1156 C1158 1.391 . S
C1157 C1156 1.386 . S
C1157 C1161 1.393 . S
C1158 H1150 0.950 . S
C1158 C1156 1.391 . S
C1158 C1159 1.400 . S
C1159 C1158 1.400 . S
C1159 C1160 1.398 . S
C1159 C1165 1.491 . S
C1160 H1151 0.950 . S
C1160 C1159 1.398 . S
C1160 C1161 1.391 . S
C1161 H1149 0.950 . S
C1161 C1157 1.393 . S
C1161 C1160 1.391 . S
C1162 H1152 0.950 . S
C1162 C1163 1.386 . S
C1162 C1164 1.391 . S
C1163 C1162 1.386 . S
C1163 C1167 1.393 . S
C1164 H1153 0.950 . S
C1164 C1162 1.391 . S
C1164 C1165 1.400 . S
C1165 C1159 1.491 . S
C1165 C1164 1.400 . S
C1165 C1166 1.398 . S
C1166 H1154 0.950 . S
C1166 C1165 1.398 . S
C1166 C1167 1.391 . S
C1167 H1155 0.950 . S
C1167 C1163 1.393 . S
C1167 C1166 1.391 . S
H1168 C1176 0.950 . S
H1169 C1181 0.950 . S
H1170 C1178 0.950 . S
H1171 C1180 0.950 . S
H1172 C1182 0.950 . S
H1173 C1184 0.950 . S
H1174 C1186 0.950 . S
H1175 C1187 0.950 . S
C1176 H1168 0.950 . S
C1176 C1177 1.386 . S
C1176 C1178 1.391 . S
C1177 C1176 1.386 . S
C1177 C1181 1.393 . S
C1178 H1170 0.950 . S
C1178 C1176 1.391 . S
C1178 C1179 1.400 . S
C1179 C1178 1.400 . S
C1179 C1180 1.398 . S
C1179 C1185 1.491 . S
C1180 H1171 0.950 . S
C1180 C1179 1.398 . S
C1180 C1181 1.391 . S
C1181 H1169 0.950 . S
C1181 C1177 1.393 . S
C1181 C1180 1.391 . S
C1182 H1172 0.950 . S
C1182 C1183 1.386 . S
C1182 C1184 1.391 . S
C1183 C1182 1.386 . S
C1183 C1187 1.393 . S
C1184 H1173 0.950 . S
C1184 C1182 1.391 . S
C1184 C1185 1.400 . S
C1185 C1179 1.491 . S
C1185 C1184 1.400 . S
C1185 C1186 1.398 . S
C1186 H1174 0.950 . S
C1186 C1185 1.398 . S
C1186 C1187 1.391 . S
C1187 H1175 0.950 . S
C1187 C1183 1.393 . S
C1187 C1186 1.391 . S
H1188 C1196 0.950 . S
H1189 C1201 0.950 . S
H1190 C1198 0.950 . S
H1191 C1200 0.950 . S
H1192 C1202 0.950 . S
H1193 C1204 0.950 . S
H1194 C1206 0.950 . S
H1195 C1207 0.950 . S
C1196 H1188 0.950 . S
C1196 C1197 1.386 . S
C1196 C1198 1.391 . S
C1197 C1196 1.386 . S
C1197 C1201 1.393 . S
C1198 H1190 0.950 . S
C1198 C1196 1.391 . S
C1198 C1199 1.400 . S
C1199 C1198 1.400 . S
C1199 C1200 1.398 . S
C1199 C1205 1.491 . S
C1200 H1191 0.950 . S
C1200 C1199 1.398 . S
C1200 C1201 1.391 . S
C1201 H1189 0.950 . S
C1201 C1197 1.393 . S
C1201 C1200 1.391 . S
C1202 H1192 0.950 . S
C1202 C1203 1.386 . S
C1202 C1204 1.391 . S
C1203 C1202 1.386 . S
C1203 C1207 1.393 . S
C1204 H1193 0.950 . S
C1204 C1202 1.391 . S
C1204 C1205 1.400 . S
C1205 C1199 1.491 . S
C1205 C1204 1.400 . S
C1205 C1206 1.398 . S
C1206 H1194 0.950 . S
C1206 C1205 1.398 . S
C1206 C1207 1.391 . S
C1207 H1195 0.950 . S
C1207 C1203 1.393 . S
C1207 C1206 1.391 . S
H1208 C1216 0.950 . S
H1209 C1221 0.950 . S
H1210 C1218 0.950 . S
H1211 C1220 0.950 . S
H1212 C1222 0.950 . S
H1213 C1224 0.950 . S
H1214 C1226 0.950 . S
H1215 C1227 0.950 . S
C1216 H1208 0.950 . S
C1216 C1217 1.386 . S
C1216 C1218 1.391 . S
C1217 C1216 1.386 . S
C1217 C1221 1.393 . S
C1218 H1210 0.950 . S
C1218 C1216 1.391 . S
C1218 C1219 1.400 . S
C1219 C1218 1.400 . S
C1219 C1220 1.398 . S
C1219 C1225 1.491 . S
C1220 H1211 0.950 . S
C1220 C1219 1.398 . S
C1220 C1221 1.391 . S
C1221 H1209 0.950 . S
C1221 C1217 1.393 . S
C1221 C1220 1.391 . S
C1222 H1212 0.950 . S
C1222 C1223 1.386 . S
C1222 C1224 1.391 . S
C1223 C1222 1.386 . S
C1223 C1227 1.393 . S
C1224 H1213 0.950 . S
C1224 C1222 1.391 . S
C1224 C1225 1.400 . S
C1225 C1219 1.491 . S
C1225 C1224 1.400 . S
C1225 C1226 1.398 . S
C1226 H1214 0.950 . S
C1226 C1225 1.398 . S
C1226 C1227 1.391 . S
C1227 H1215 0.950 . S
C1227 C1223 1.393 . S
C1227 C1226 1.391 . S
H1228 C1236 0.950 . S
H1229 C1241 0.950 . S
H1230 C1238 0.950 . S
H1231 C1240 0.950 . S
H1232 C1242 0.950 . S
H1233 C1244 0.950 . S
H1234 C1246 0.950 . S
H1235 C1247 0.950 . S
C1236 H1228 0.950 . S
C1236 C1237 1.386 . S
C1236 C1238 1.391 . S
C1237 C1236 1.386 . S
C1237 C1241 1.393 . S
C1238 H1230 0.950 . S
C1238 C1236 1.391 . S
C1238 C1239 1.400 . S
C1239 C1238 1.400 . S
C1239 C1240 1.398 . S
C1239 C1245 1.491 . S
C1240 H1231 0.950 . S
C1240 C1239 1.398 . S
C1240 C1241 1.391 . S
C1241 H1229 0.950 . S
C1241 C1237 1.393 . S
C1241 C1240 1.391 . S
C1242 H1232 0.950 . S
C1242 C1243 1.386 . S
C1242 C1244 1.391 . S
C1243 C1242 1.386 . S
C1243 C1247 1.393 . S
C1244 H1233 0.950 . S
C1244 C1242 1.391 . S
C1244 C1245 1.400 . S
C1245 C1239 1.491 . S
C1245 C1244 1.400 . S
C1245 C1246 1.398 . S
C1246 H1234 0.950 . S
C1246 C1245 1.398 . S
C1246 C1247 1.391 . S
C1247 H1235 0.950 . S
C1247 C1243 1.393 . S
C1247 C1246 1.391 . S
H1248 C1256 0.950 . S
H1249 C1261 0.950 . S
H1250 C1258 0.950 . S
H1251 C1260 0.950 . S
H1252 C1262 0.950 . S
H1253 C1264 0.950 . S
H1254 C1266 0.950 . S
H1255 C1267 0.950 . S
C1256 H1248 0.950 . S
C1256 C1257 1.386 . S
C1256 C1258 1.391 . S
C1257 C1256 1.386 . S
C1257 C1261 1.393 . S
C1258 H1250 0.950 . S
C1258 C1256 1.391 . S
C1258 C1259 1.400 . S
C1259 C1258 1.400 . S
C1259 C1260 1.398 . S
C1259 C1265 1.491 . S
C1260 H1251 0.950 . S
C1260 C1259 1.398 . S
C1260 C1261 1.391 . S
C1261 H1249 0.950 . S
C1261 C1257 1.393 . S
C1261 C1260 1.391 . S
C1262 H1252 0.950 . S
C1262 C1263 1.386 . S
C1262 C1264 1.391 . S
C1263 C1262 1.386 . S
C1263 C1267 1.393 . S
C1264 H1253 0.950 . S
C1264 C1262 1.391 . S
C1264 C1265 1.400 . S
C1265 C1259 1.491 . S
C1265 C1264 1.400 . S
C1265 C1266 1.398 . S
C1266 H1254 0.950 . S
C1266 C1265 1.398 . S
C1266 C1267 1.391 . S
C1267 H1255 0.950 . S
C1267 C1263 1.393 . S
C1267 C1266 1.391 . S
H1268 C1276 0.950 . S
H1269 C1281 0.950 . S
H1270 C1278 0.950 . S
H1271 C1280 0.950 . S
H1272 C1282 0.950 . S
H1273 C1284 0.950 . S
H1274 C1286 0.950 . S
H1275 C1287 0.950 . S
C1276 H1268 0.950 . S
C1276 C1277 1.386 . S
C1276 C1278 1.391 . S
C1277 C1276 1.386 . S
C1277 C1281 1.393 . S
C1278 H1270 0.950 . S
C1278 C1276 1.391 . S
C1278 C1279 1.400 . S
C1279 C1278 1.400 . S
C1279 C1280 1.398 . S
C1279 C1285 1.491 . S
C1280 H1271 0.950 . S
C1280 C1279 1.398 . S
C1280 C1281 1.391 . S
C1281 H1269 0.950 . S
C1281 C1277 1.393 . S
C1281 C1280 1.391 . S
C1282 H1272 0.950 . S
C1282 C1283 1.386 . S
C1282 C1284 1.391 . S
C1283 C1282 1.386 . S
C1283 C1287 1.393 . S
C1284 H1273 0.950 . S
C1284 C1282 1.391 . S
C1284 C1285 1.400 . S
C1285 C1279 1.491 . S
C1285 C1284 1.400 . S
C1285 C1286 1.398 . S
C1286 H1274 0.950 . S
C1286 C1285 1.398 . S
C1286 C1287 1.391 . S
C1287 H1275 0.950 . S
C1287 C1283 1.393 . S
C1287 C1286 1.391 . S
H1288 C1296 0.950 . S
H1289 C1301 0.950 . S
H1290 C1298 0.950 . S
H1291 C1300 0.950 . S
H1292 C1302 0.950 . S
H1293 C1304 0.950 . S
H1294 C1306 0.950 . S
H1295 C1307 0.950 . S
C1296 H1288 0.950 . S
C1296 C1297 1.386 . S
C1296 C1298 1.391 . S
C1297 C1296 1.386 . S
C1297 C1301 1.393 . S
C1298 H1290 0.950 . S
C1298 C1296 1.391 . S
C1298 C1299 1.400 . S
C1299 C1298 1.400 . S
C1299 C1300 1.398 . S
C1299 C1305 1.491 . S
C1300 H1291 0.950 . S
C1300 C1299 1.398 . S
C1300 C1301 1.391 . S
C1301 H1289 0.950 . S
C1301 C1297 1.393 . S
C1301 C1300 1.391 . S
C1302 H1292 0.950 . S
C1302 C1303 1.386 . S
C1302 C1304 1.391 . S
C1303 C1302 1.386 . S
C1303 C1307 1.393 . S
C1304 H1293 0.950 . S
C1304 C1302 1.391 . S
C1304 C1305 1.400 . S
C1305 C1299 1.491 . S
C1305 C1304 1.400 . S
C1305 C1306 1.398 . S
C1306 H1294 0.950 . S
C1306 C1305 1.398 . S
C1306 C1307 1.391 . S
C1307 H1295 0.950 . S
C1307 C1303 1.393 . S
C1307 C1306 1.391 . S
H1308 C1316 0.950 . S
H1309 C1321 0.950 . S
H1310 C1318 0.950 . S
H1311 C1320 0.950 . S
H1312 C1322 0.950 . S
H1313 C1324 0.950 . S
H1314 C1326 0.950 . S
H1315 C1327 0.950 . S
C1316 H1308 0.950 . S
C1316 C1317 1.386 . S
C1316 C1318 1.391 . S
C1317 C1316 1.386 . S
C1317 C1321 1.393 . S
C1318 H1310 0.950 . S
C1318 C1316 1.391 . S
C1318 C1319 1.400 . S
C1319 C1318 1.400 . S
C1319 C1320 1.398 . S
C1319 C1325 1.491 . S
C1320 H1311 0.950 . S
C1320 C1319 1.398 . S
C1320 C1321 1.391 . S
C1321 H1309 0.950 . S
C1321 C1317 1.393 . S
C1321 C1320 1.391 . S
C1322 H1312 0.950 . S
C1322 C1323 1.386 . S
C1322 C1324 1.391 . S
C1323 C1322 1.386 . S
C1323 C1327 1.393 . S
C1324 H1313 0.950 . S
C1324 C1322 1.391 . S
C1324 C1325 1.400 . S
C1325 C1319 1.491 . S
C1325 C1324 1.400 . S
C1325 C1326 1.398 . S
C1326 H1314 0.950 . S
C1326 C1325 1.398 . S
C1326 C1327 1.391 . S
C1327 H1315 0.950 . S
C1327 C1323 1.393 . S
C1327 C1326 1.391 . S
C537 C21 0.676 . S
C543 N365 0.674 . S
C557 N266 0.709 . S
C563 C54 0.690 . S
C577 N299 0.705 . S
C583 C87 0.685 . S
C597 N332 0.705 . S
C603 C120 0.684 . S
C617 N167 0.715 . S
C623 C153 0.718 . S
C637 N200 0.717 . S
C643 C186 0.710 . S
C657 C219 0.700 . S
C663 N233 0.678 . S
C677 C252 0.673 . S
C683 N134 0.677 . S
C697 C285 0.694 . S
C703 N101 0.675 . S
C717 C318 0.716 . S
C723 N2 0.716 . S
C737 N35 0.716 . S
C743 C351 0.717 . S
C757 C384 0.681 . S
C763 N68 0.673 . S
C777 N431 0.697 . S
C783 C417 0.719 . S
C797 N464 0.715 . S
C803 C450 0.719 . S
C817 N497 0.684 . S
C823 C483 0.671 . S
C837 C516 0.696 . S
C843 N398 0.713 . S
C857 C18 1.191 . S
C863 C84 1.200 . S
C877 C51 1.208 . S
C883 C117 1.206 . S
C897 C216 1.210 . S
C903 C150 1.202 . S
C917 C249 1.191 . S
C923 C183 1.201 . S
C937 C348 1.191 . S
C943 C282 1.202 . S
C957 C315 1.194 . S
C963 C381 1.208 . S
C977 C414 1.210 . S
C983 C480 1.197 . S
C997 C513 1.206 . S
C1003 C447 1.193 . S
C1017 C73 1.164 . S
C1023 C7 1.141 . S
C1037 C40 1.186 . S
C1043 C106 1.166 . S
C1057 C139 1.141 . S
C1063 C205 1.163 . S
C1077 C238 1.141 . S
C1083 C172 1.164 . S
C1097 C337 1.142 . S
C1103 C271 1.177 . S
C1117 C304 1.181 . S
C1123 C370 1.144 . S
C1137 C403 1.159 . S
C1143 C469 1.143 . S
C1157 C502 1.141 . S
C1163 C436 1.165 . S
C1177 N475 1.638 . S
C1183 N13 1.634 . S
C1197 N46 1.638 . S
C1203 N508 1.634 . S
C1217 N79 1.628 . S
C1223 N409 1.643 . S
C1237 N112 1.635 . S
C1243 N442 1.637 . S
C1257 N145 1.647 . S
C1263 N343 1.625 . S
C1277 N376 1.624 . S
C1283 N178 1.648 . S
C1297 N211 1.645 . S
C1303 N277 1.627 . S
C1317 N244 1.647 . S
C1323 N310 1.624 . S
