# Generated by pormake.
# Topology ukd, (4)-cn, num edge types: 1
# Building blocks:
#     Node 0, Type 0, BuildingBlock: UXUYUI_clean_sbu_0, # of connection points: 4
#     Node 1, Type 0, BuildingBlock: UXUYUI_clean_sbu_0, # of connection points: 4
#     Node 2, Type 0, BuildingBlock: UXUYUI_clean_sbu_0, # of connection points: 4
#     Node 3, Type 0, BuildingBlock: UXUYUI_clean_sbu_0, # of connection points: 4
#     Node 4, Type 0, BuildingBlock: UXUYUI_clean_sbu_0, # of connection points: 4
#     Node 5, Type 0, BuildingBlock: UXUYUI_clean_sbu_0, # of connection points: 4
#     Node 6, Type 0, BuildingBlock: UXUYUI_clean_sbu_0, # of connection points: 4
#     Node 7, Type 0, BuildingBlock: UXUYUI_clean_sbu_0, # of connection points: 4
#     Node 8, Type 0, BuildingBlock: UXUYUI_clean_sbu_0, # of connection points: 4
#     Node 9, Type 0, BuildingBlock: UXUYUI_clean_sbu_0, # of connection points: 4
#     Node 10, Type 0, BuildingBlock: UXUYUI_clean_sbu_0, # of connection points: 4
#     Node 11, Type 0, BuildingBlock: UXUYUI_clean_sbu_0, # of connection points: 4
#     Node 12, Type 0, BuildingBlock: UXUYUI_clean_sbu_0, # of connection points: 4
#     Node 13, Type 0, BuildingBlock: UXUYUI_clean_sbu_0, # of connection points: 4
#     Node 14, Type 0, BuildingBlock: UXUYUI_clean_sbu_0, # of connection points: 4
#     Node 15, Type 0, BuildingBlock: UXUYUI_clean_sbu_0, # of connection points: 4
#     Node 16, Type 0, BuildingBlock: UXUYUI_clean_sbu_0, # of connection points: 4
#     Node 17, Type 0, BuildingBlock: UXUYUI_clean_sbu_0, # of connection points: 4
#     Node 18, Type 0, BuildingBlock: UXUYUI_clean_sbu_0, # of connection points: 4
#     Node 19, Type 0, BuildingBlock: UXUYUI_clean_sbu_0, # of connection points: 4
#     Node 20, Type 0, BuildingBlock: UXUYUI_clean_sbu_0, # of connection points: 4
#     Node 21, Type 0, BuildingBlock: UXUYUI_clean_sbu_0, # of connection points: 4
#     Node 22, Type 0, BuildingBlock: UXUYUI_clean_sbu_0, # of connection points: 4
#     Node 23, Type 0, BuildingBlock: UXUYUI_clean_sbu_0, # of connection points: 4
#     Node 24, Type 0, BuildingBlock: UXUYUI_clean_sbu_0, # of connection points: 4
#     Node 25, Type 0, BuildingBlock: UXUYUI_clean_sbu_0, # of connection points: 4
#     Node 26, Type 0, BuildingBlock: UXUYUI_clean_sbu_0, # of connection points: 4
#     Node 27, Type 0, BuildingBlock: UXUYUI_clean_sbu_0, # of connection points: 4
#     Node 28, Type 0, BuildingBlock: UXUYUI_clean_sbu_0, # of connection points: 4
#     Node 29, Type 0, BuildingBlock: UXUYUI_clean_sbu_0, # of connection points: 4
#     Node 30, Type 0, BuildingBlock: UXUYUI_clean_sbu_0, # of connection points: 4
#     Node 31, Type 0, BuildingBlock: UXUYUI_clean_sbu_0, # of connection points: 4
#     Edge 32, Type (0, 0), BuildingBlock: AJUNOK_clean_linker_0, # of connection points: 2
#     Edge 33, Type (0, 0), BuildingBlock: AJUNOK_clean_linker_0, # of connection points: 2
#     Edge 34, Type (0, 0), BuildingBlock: AJUNOK_clean_linker_0, # of connection points: 2
#     Edge 35, Type (0, 0), BuildingBlock: AJUNOK_clean_linker_0, # of connection points: 2
#     Edge 36, Type (0, 0), BuildingBlock: AJUNOK_clean_linker_0, # of connection points: 2
#     Edge 37, Type (0, 0), BuildingBlock: AJUNOK_clean_linker_0, # of connection points: 2
#     Edge 38, Type (0, 0), BuildingBlock: AJUNOK_clean_linker_0, # of connection points: 2
#     Edge 39, Type (0, 0), BuildingBlock: AJUNOK_clean_linker_0, # of connection points: 2
#     Edge 40, Type (0, 0), BuildingBlock: AJUNOK_clean_linker_0, # of connection points: 2
#     Edge 41, Type (0, 0), BuildingBlock: AJUNOK_clean_linker_0, # of connection points: 2
#     Edge 42, Type (0, 0), BuildingBlock: AJUNOK_clean_linker_0, # of connection points: 2
#     Edge 43, Type (0, 0), BuildingBlock: AJUNOK_clean_linker_0, # of connection points: 2
#     Edge 44, Type (0, 0), BuildingBlock: AJUNOK_clean_linker_0, # of connection points: 2
#     Edge 45, Type (0, 0), BuildingBlock: AJUNOK_clean_linker_0, # of connection points: 2
#     Edge 46, Type (0, 0), BuildingBlock: AJUNOK_clean_linker_0, # of connection points: 2
#     Edge 47, Type (0, 0), BuildingBlock: AJUNOK_clean_linker_0, # of connection points: 2
#     Edge 48, Type (0, 0), BuildingBlock: AJUNOK_clean_linker_0, # of connection points: 2
#     Edge 49, Type (0, 0), BuildingBlock: AJUNOK_clean_linker_0, # of connection points: 2
#     Edge 50, Type (0, 0), BuildingBlock: AJUNOK_clean_linker_0, # of connection points: 2
#     Edge 51, Type (0, 0), BuildingBlock: AJUNOK_clean_linker_0, # of connection points: 2
#     Edge 52, Type (0, 0), BuildingBlock: AJUNOK_clean_linker_0, # of connection points: 2
#     Edge 53, Type (0, 0), BuildingBlock: AJUNOK_clean_linker_0, # of connection points: 2
#     Edge 54, Type (0, 0), BuildingBlock: AJUNOK_clean_linker_0, # of connection points: 2
#     Edge 55, Type (0, 0), BuildingBlock: AJUNOK_clean_linker_0, # of connection points: 2
#     Edge 56, Type (0, 0), BuildingBlock: AJUNOK_clean_linker_0, # of connection points: 2
#     Edge 57, Type (0, 0), BuildingBlock: AJUNOK_clean_linker_0, # of connection points: 2
#     Edge 58, Type (0, 0), BuildingBlock: AJUNOK_clean_linker_0, # of connection points: 2
#     Edge 59, Type (0, 0), BuildingBlock: AJUNOK_clean_linker_0, # of connection points: 2
#     Edge 60, Type (0, 0), BuildingBlock: AJUNOK_clean_linker_0, # of connection points: 2
#     Edge 61, Type (0, 0), BuildingBlock: AJUNOK_clean_linker_0, # of connection points: 2
#     Edge 62, Type (0, 0), BuildingBlock: AJUNOK_clean_linker_0, # of connection points: 2
#     Edge 63, Type (0, 0), BuildingBlock: AJUNOK_clean_linker_0, # of connection points: 2
#     Edge 64, Type (0, 0), BuildingBlock: AJUNOK_clean_linker_0, # of connection points: 2
#     Edge 65, Type (0, 0), BuildingBlock: AJUNOK_clean_linker_0, # of connection points: 2
#     Edge 66, Type (0, 0), BuildingBlock: AJUNOK_clean_linker_0, # of connection points: 2
#     Edge 67, Type (0, 0), BuildingBlock: AJUNOK_clean_linker_0, # of connection points: 2
#     Edge 68, Type (0, 0), BuildingBlock: AJUNOK_clean_linker_0, # of connection points: 2
#     Edge 69, Type (0, 0), BuildingBlock: AJUNOK_clean_linker_0, # of connection points: 2
#     Edge 70, Type (0, 0), BuildingBlock: AJUNOK_clean_linker_0, # of connection points: 2
#     Edge 71, Type (0, 0), BuildingBlock: AJUNOK_clean_linker_0, # of connection points: 2
#     Edge 72, Type (0, 0), BuildingBlock: AJUNOK_clean_linker_0, # of connection points: 2
#     Edge 73, Type (0, 0), BuildingBlock: AJUNOK_clean_linker_0, # of connection points: 2
#     Edge 74, Type (0, 0), BuildingBlock: AJUNOK_clean_linker_0, # of connection points: 2
#     Edge 75, Type (0, 0), BuildingBlock: AJUNOK_clean_linker_0, # of connection points: 2
#     Edge 76, Type (0, 0), BuildingBlock: AJUNOK_clean_linker_0, # of connection points: 2
#     Edge 77, Type (0, 0), BuildingBlock: AJUNOK_clean_linker_0, # of connection points: 2
#     Edge 78, Type (0, 0), BuildingBlock: AJUNOK_clean_linker_0, # of connection points: 2
#     Edge 79, Type (0, 0), BuildingBlock: AJUNOK_clean_linker_0, # of connection points: 2
#     Edge 80, Type (0, 0), BuildingBlock: AJUNOK_clean_linker_0, # of connection points: 2
#     Edge 81, Type (0, 0), BuildingBlock: AJUNOK_clean_linker_0, # of connection points: 2
#     Edge 82, Type (0, 0), BuildingBlock: AJUNOK_clean_linker_0, # of connection points: 2
#     Edge 83, Type (0, 0), BuildingBlock: AJUNOK_clean_linker_0, # of connection points: 2
#     Edge 84, Type (0, 0), BuildingBlock: AJUNOK_clean_linker_0, # of connection points: 2
#     Edge 85, Type (0, 0), BuildingBlock: AJUNOK_clean_linker_0, # of connection points: 2
#     Edge 86, Type (0, 0), BuildingBlock: AJUNOK_clean_linker_0, # of connection points: 2
#     Edge 87, Type (0, 0), BuildingBlock: AJUNOK_clean_linker_0, # of connection points: 2
#     Edge 88, Type (0, 0), BuildingBlock: AJUNOK_clean_linker_0, # of connection points: 2
#     Edge 89, Type (0, 0), BuildingBlock: AJUNOK_clean_linker_0, # of connection points: 2
#     Edge 90, Type (0, 0), BuildingBlock: AJUNOK_clean_linker_0, # of connection points: 2
#     Edge 91, Type (0, 0), BuildingBlock: AJUNOK_clean_linker_0, # of connection points: 2
#     Edge 92, Type (0, 0), BuildingBlock: AJUNOK_clean_linker_0, # of connection points: 2
#     Edge 93, Type (0, 0), BuildingBlock: AJUNOK_clean_linker_0, # of connection points: 2
#     Edge 94, Type (0, 0), BuildingBlock: AJUNOK_clean_linker_0, # of connection points: 2
#     Edge 95, Type (0, 0), BuildingBlock: AJUNOK_clean_linker_0, # of connection points: 2
# Relax obj value: 0.229
# Max RMSD: 0.213
# Mean RMSD: 0.213
data_MOF--net-ukd--node1-UXUYUI_clean_sbu_0--edge1-AJUNOK_clean_linker_0
_symmetry_space_group_name_H-M    P1
_symmetry_Int_Tables_number       1
_symmetry_cell_setting            triclinic
loop_
_symmetry_equiv_pos_as_xyz
'x, y, z'
_cell_length_a     50.910063
_cell_length_b     50.91044
_cell_length_c     94.854091
_cell_angle_alpha  89.999599
_cell_angle_beta   89.998955
_cell_angle_gamma 90.00184
loop_
_atom_site_label
_atom_site_type_symbol
_atom_site_fract_x
_atom_site_fract_y
_atom_site_fract_z
_atom_type_partial_charge
Li0 Li 0.20794 0.18763 0.34389 0.0
Li1 Li 0.22166 0.23233 0.35102 0.0
Li2 Li 0.23265 0.21429 0.3267 0.0
Li3 Li 0.25459 0.19728 0.34858 0.0
C4 C 0.17464 0.22642 0.32894 0.0
N5 N 0.12708 0.23604 0.3159 0.0
C6 C 0.15641 0.24336 0.33516 0.0
C7 C 0.16879 0.21455 0.31604 0.0
C8 C 0.13244 0.24792 0.32842 0.0
C9 C 0.14462 0.21962 0.30963 0.0
C10 C 0.22816 0.20344 0.37579 0.0
C11 C 0.25376 0.22177 0.39477 0.0
N12 N 0.23559 0.21298 0.40417 0.0
C13 C 0.20979 0.19449 0.38562 0.0
C14 C 0.25036 0.21711 0.38037 0.0
C15 C 0.21388 0.19956 0.39993 0.0
C16 C 0.18717 0.13671 0.34909 0.0
N17 N 0.18079 0.16231 0.34681 0.0
C18 C 0.13565 0.15335 0.35184 0.0
C19 C 0.1556 0.17083 0.34812 0.0
C20 C 0.14171 0.12687 0.3544 0.0
C21 C 0.1678 0.1185 0.35273 0.0
H22 H 0.20742 0.13052 0.34853 0.0
H23 H 0.15107 0.19138 0.34684 0.0
C24 C 0.21912 0.28673 0.35654 0.0
N25 N 0.21032 0.26276 0.36072 0.0
C26 C 0.20841 0.30954 0.36238 0.0
C27 C 0.1804 0.28247 0.37697 0.0
C28 C 0.19155 0.26022 0.37082 0.0
C29 C 0.18841 0.3075 0.37252 0.0
H30 H 0.23382 0.28812 0.34834 0.0
H31 H 0.18446 0.24093 0.37367 0.0
C32 C 0.23733 0.15315 0.32677 0.0
N33 N 0.23264 0.10337 0.31546 0.0
C34 C 0.25284 0.1326 0.3319 0.0
C35 C 0.21968 0.14845 0.31579 0.0
C36 C 0.25011 0.10755 0.32607 0.0
C37 C 0.21752 0.12313 0.31024 0.0
C38 C 0.27944 0.2453 0.33994 0.0
C39 C 0.29488 0.24276 0.32783 0.0
C40 C 0.28862 0.2602 0.35129 0.0
C41 C 0.31954 0.25476 0.32739 0.0
C42 C 0.31341 0.27188 0.35045 0.0
N43 N 0.32823 0.26892 0.33862 0.0
C44 C 0.22592 0.24546 0.30244 0.0
C45 C 0.25136 0.20695 0.29903 0.0
C46 C 0.22934 0.2526 0.28834 0.0
N47 N 0.23694 0.22302 0.30745 0.0
C48 C 0.2554 0.2134 0.28489 0.0
C49 C 0.24446 0.23659 0.27943 0.0
H50 H 0.21461 0.25787 0.30943 0.0
H51 H 0.25992 0.18924 0.30335 0.0
C52 C 0.2813 0.16264 0.36603 0.0
N53 N 0.28551 0.18147 0.35612 0.0
C54 C 0.30219 0.14783 0.37124 0.0
C55 C 0.33161 0.1724 0.35622 0.0
C56 C 0.31007 0.18666 0.35122 0.0
C57 C 0.32769 0.15233 0.36616 0.0
H58 H 0.26152 0.15847 0.36952 0.0
H59 H 0.31297 0.20129 0.34316 0.0
O60 O 0.19824 0.22187 0.33539 0.0
O61 O 0.2243 0.1988 0.36175 0.0
O62 O 0.23967 0.17777 0.33242 0.0
O63 O 0.25511 0.23398 0.34048 0.0
H64 H 0.16068 0.25284 0.34511 0.0
H65 H 0.18281 0.20175 0.31097 0.0
H66 H 0.1181 0.26091 0.33314 0.0
H67 H 0.13983 0.21056 0.29964 0.0
H68 H 0.27086 0.23233 0.39847 0.0
H69 H 0.1925 0.18385 0.38221 0.0
H70 H 0.26484 0.22392 0.37289 0.0
H71 H 0.19979 0.19283 0.40767 0.0
H72 H 0.11586 0.16071 0.35324 0.0
H73 H 0.17327 0.0982 0.35446 0.0
H74 H 0.21523 0.32854 0.35878 0.0
H75 H 0.16482 0.28015 0.38465 0.0
H76 H 0.26676 0.13592 0.34032 0.0
H77 H 0.20776 0.16415 0.3116 0.0
H78 H 0.26189 0.09144 0.32998 0.0
H79 H 0.20384 0.11919 0.30177 0.0
H80 H 0.28801 0.23144 0.31891 0.0
H81 H 0.27668 0.26288 0.36061 0.0
H82 H 0.33178 0.25281 0.31813 0.0
H83 H 0.32081 0.28338 0.35918 0.0
H84 H 0.22064 0.27065 0.28449 0.0
H85 H 0.26684 0.20036 0.27828 0.0
H86 H 0.29828 0.13234 0.37878 0.0
H87 H 0.35102 0.17674 0.35218 0.0
Li88 Li 0.0153 0.9729 0.59901 0.0
Li89 Li 0.05872 0.9574 0.59376 0.0
Li90 Li 0.0524 0.00365 0.59803 0.0
Li91 Li 0.03593 0.98233 0.57574 0.0
C92 C 0.04248 0.96078 0.62337 0.0
N93 N 0.0334 0.93285 0.64786 0.0
C94 C 0.0371 0.9339 0.62277 0.0
C95 C 0.04327 0.97347 0.63643 0.0
C96 C 0.03258 0.92011 0.63527 0.0
C97 C 0.0386 0.95901 0.64869 0.0
C98 C 0.02523 0.92394 0.57807 0.0
C99 C 0.03322 0.89487 0.55844 0.0
N100 N 0.02368 0.87444 0.56613 0.0
C101 C 0.01519 0.9027 0.58571 0.0
C102 C 0.03407 0.92007 0.56427 0.0
C103 C 0.01471 0.87781 0.57951 0.0
C104 C 0.9671 0.94779 0.59937 0.0
N105 N 0.98282 0.96312 0.60751 0.0
C106 C 0.95468 0.9567 0.62741 0.0
C107 C 0.97671 0.96836 0.62119 0.0
C108 C 0.93901 0.93957 0.61942 0.0
C109 C 0.94507 0.93564 0.60515 0.0
H110 H 0.9723 0.94412 0.58849 0.0
H111 H 0.98945 0.98068 0.62745 0.0
C112 C 0.09796 0.93374 0.60979 0.0
N113 N 0.08362 0.92989 0.59787 0.0
C114 C 0.11487 0.91427 0.61472 0.0
C115 C 0.1035 0.88775 0.59451 0.0
C116 C 0.08667 0.90775 0.58999 0.0
C117 C 0.11725 0.89065 0.60723 0.0
H118 H 0.09584 0.95182 0.61566 0.0
H119 H 0.07589 0.90532 0.58032 0.0
C120 C 0.0019 0.0257 0.59556 0.0
N121 N 0.97176 0.06308 0.60912 0.0
C122 C 0.98444 0.04129 0.58788 0.0
C123 C 0.00407 0.02912 0.61014 0.0
C124 C 0.96937 0.06009 0.59493 0.0
C125 C 0.98864 0.04812 0.6168 0.0
C126 C 0.09718 0.97789 0.57989 0.0
C127 C 0.11779 0.98463 0.58892 0.0
C128 C 0.10169 0.96053 0.56873 0.0
C129 C 0.14261 0.97367 0.5867 0.0
C130 C 0.12679 0.94998 0.56688 0.0
N131 N 0.14655 0.95669 0.57583 0.0
C132 C 0.08381 0.03017 0.61735 0.0
C133 C 0.06617 0.05787 0.59962 0.0
C134 C 0.09817 0.05099 0.62298 0.0
N135 N 0.06842 0.03391 0.60583 0.0
C136 C 0.08024 0.07931 0.60492 0.0
C137 C 0.09663 0.07592 0.6167 0.0
H138 H 0.08561 0.01075 0.62186 0.0
H139 H 0.05395 0.06016 0.59037 0.0
C140 C 0.00272 0.98389 0.55236 0.0
N141 N 0.02806 0.98747 0.55642 0.0
C142 C 0.99547 0.98751 0.5383 0.0
C143 C 0.04061 0.99826 0.53286 0.0
C144 C 0.04697 0.99453 0.54705 0.0
C145 C 0.01451 0.99495 0.52836 0.0
H146 H 0.98814 0.97828 0.5601 0.0
H147 H 0.06698 0.99723 0.5506 0.0
O148 O 0.04671 0.97477 0.61127 0.0
O149 O 0.02551 0.94854 0.58388 0.0
O150 O 0.01691 0.00737 0.58877 0.0
O151 O 0.07256 0.98773 0.58217 0.0
H152 H 0.03654 0.9238 0.61277 0.0
H153 H 0.04726 0.99433 0.63707 0.0
H154 H 0.02841 0.89928 0.63495 0.0
H155 H 0.03908 0.96859 0.65887 0.0
H156 H 0.04015 0.89157 0.54781 0.0
H157 H 0.00768 0.90538 0.59627 0.0
H158 H 0.04168 0.93625 0.55814 0.0
H159 H 0.0071 0.86119 0.58533 0.0
H160 H 0.9507 0.96 0.63848 0.0
H161 H 0.9333 0.92269 0.59866 0.0
H162 H 0.12567 0.91746 0.62441 0.0
H163 H 0.10508 0.86986 0.58838 0.0
H164 H 0.9826 0.03889 0.57658 0.0
H165 H 0.01755 0.01733 0.61625 0.0
H166 H 0.95578 0.07232 0.58911 0.0
H167 H 0.99012 0.05098 0.62807 0.0
H168 H 0.11459 0.99796 0.59763 0.0
H169 H 0.08592 0.95499 0.5617 0.0
H170 H 0.15871 0.97858 0.59366 0.0
H171 H 0.13053 0.93638 0.55835 0.0
H172 H 0.11114 0.04736 0.63182 0.0
H173 H 0.07867 0.09822 0.59975 0.0
H174 H 0.97514 0.98482 0.53526 0.0
H175 H 0.05599 0.00343 0.52547 0.0
Li176 Li 0.29717 0.81291 0.84419 0.0
Li177 Li 0.27979 0.76997 0.84822 0.0
Li178 Li 0.27081 0.78969 0.82631 0.0
Li179 Li 0.24843 0.80522 0.84835 0.0
C180 C 0.3247 0.78702 0.82391 0.0
N181 N 0.36256 0.80098 0.80437 0.0
C182 C 0.3475 0.77193 0.82241 0.0
C183 C 0.32135 0.80937 0.81552 0.0
C184 C 0.36636 0.77928 0.81247 0.0
C185 C 0.34064 0.81603 0.80568 0.0
C186 C 0.28497 0.7907 0.87409 0.0
C187 C 0.27275 0.77726 0.89757 0.0
N188 N 0.29794 0.76958 0.89999 0.0
C189 C 0.31079 0.78292 0.87686 0.0
C190 C 0.26579 0.78802 0.88454 0.0
C191 C 0.31693 0.77217 0.89 0.0
C192 C 0.31986 0.86306 0.84826 0.0
N193 N 0.32487 0.83686 0.84781 0.0
C194 C 0.36969 0.84412 0.85413 0.0
C195 C 0.34918 0.82717 0.8506 0.0
C196 C 0.36526 0.87138 0.85453 0.0
C197 C 0.33993 0.88079 0.85149 0.0
H198 H 0.30018 0.87015 0.84632 0.0
H199 H 0.3525 0.80619 0.85037 0.0
C200 C 0.30939 0.72422 0.85039 0.0
N201 N 0.28912 0.73691 0.85674 0.0
C202 C 0.32009 0.70165 0.85638 0.0
C203 C 0.28782 0.70441 0.87498 0.0
C204 C 0.27783 0.72713 0.86864 0.0
C205 C 0.30967 0.69175 0.869 0.0
H206 H 0.3177 0.73199 0.84081 0.0
H207 H 0.26152 0.73724 0.87347 0.0
C208 C 0.2524 0.84334 0.82518 0.0
N209 N 0.22373 0.87701 0.8083 0.0
C210 C 0.22654 0.83718 0.82153 0.0
C211 C 0.26379 0.86648 0.82011 0.0
C212 C 0.21232 0.85451 0.81304 0.0
C213 C 0.24896 0.88326 0.81161 0.0
C214 C 0.23297 0.74923 0.84385 0.0
C215 C 0.23505 0.72522 0.83679 0.0
C216 C 0.21868 0.75067 0.85641 0.0
C217 C 0.22282 0.70302 0.84244 0.0
C218 C 0.2067 0.72803 0.8617 0.0
N219 N 0.20901 0.70487 0.85467 0.0
C220 C 0.26951 0.75696 0.80284 0.0
C221 C 0.26125 0.80131 0.79675 0.0
C222 C 0.2659 0.74912 0.78887 0.0
N223 N 0.26659 0.78257 0.80658 0.0
C224 C 0.2574 0.79434 0.78266 0.0
C225 C 0.25931 0.76788 0.77863 0.0
H226 H 0.27465 0.7426 0.81076 0.0
H227 H 0.26011 0.8217 0.79972 0.0
C228 C 0.22283 0.84015 0.86624 0.0
N229 N 0.21827 0.82161 0.85624 0.0
C230 C 0.20202 0.8544 0.87198 0.0
C231 C 0.17212 0.83018 0.85702 0.0
C232 C 0.19352 0.81614 0.85169 0.0
C233 C 0.17633 0.84962 0.86727 0.0
H234 H 0.24276 0.8442 0.86956 0.0
H235 H 0.19046 0.80123 0.84374 0.0
O236 O 0.3063 0.78017 0.83382 0.0
O237 O 0.27847 0.80092 0.86124 0.0
O238 O 0.26674 0.82663 0.83344 0.0
O239 O 0.24481 0.77122 0.8385 0.0
H240 H 0.35077 0.75481 0.82892 0.0
H241 H 0.30415 0.82154 0.81654 0.0
H242 H 0.38407 0.76776 0.81122 0.0
H243 H 0.3382 0.83323 0.7991 0.0
H244 H 0.2581 0.77493 0.90573 0.0
H245 H 0.3258 0.78474 0.86885 0.0
H246 H 0.24572 0.79396 0.88256 0.0
H247 H 0.33677 0.7658 0.89224 0.0
H248 H 0.38858 0.83584 0.8569 0.0
H249 H 0.3356 0.90161 0.85175 0.0
H250 H 0.33691 0.69251 0.85139 0.0
H251 H 0.27873 0.69704 0.88451 0.0
H252 H 0.21776 0.81895 0.82496 0.0
H253 H 0.28396 0.8713 0.82258 0.0
H254 H 0.19228 0.84999 0.81012 0.0
H255 H 0.25754 0.90121 0.80761 0.0
H256 H 0.24598 0.72368 0.82707 0.0
H257 H 0.21721 0.76892 0.86216 0.0
H258 H 0.2243 0.68431 0.83709 0.0
H259 H 0.1957 0.72886 0.87145 0.0
H260 H 0.26784 0.72855 0.78613 0.0
H261 H 0.25316 0.8095 0.77498 0.0
H262 H 0.20604 0.86959 0.87967 0.0
H263 H 0.15254 0.82607 0.85313 0.0
Li264 Li 0.43908 0.04521 0.09489 0.0
Li265 Li 0.48169 0.03104 0.10056 0.0
Li266 Li 0.46343 0.01982 0.07745 0.0
Li267 Li 0.44647 0.99872 0.10052 0.0
C268 C 0.46889 0.07938 0.07975 0.0
N269 N 0.46306 0.12963 0.0692 0.0
C270 C 0.47301 0.10112 0.08847 0.0
C271 C 0.46205 0.08319 0.06562 0.0
C272 C 0.46987 0.12636 0.08296 0.0
C273 C 0.45915 0.10876 0.0605 0.0
C274 C 0.45865 0.03727 0.12571 0.0
C275 C 0.47097 0.02757 0.14969 0.0
N276 N 0.47619 0.05347 0.15185 0.0
C277 C 0.46388 0.06381 0.1282 0.0
C278 C 0.46202 0.01899 0.13655 0.0
C279 C 0.47284 0.0716 0.14147 0.0
C280 C 0.40175 0.07201 0.11093 0.0
N281 N 0.41305 0.07211 0.09793 0.0
C282 C 0.38735 0.10945 0.09122 0.0
C283 C 0.40574 0.08997 0.088 0.0
C284 C 0.37594 0.11011 0.10468 0.0
C285 C 0.38314 0.09093 0.11455 0.0
H286 H 0.40727 0.05727 0.11856 0.0
H287 H 0.41405 0.08916 0.07756 0.0
C288 C 0.52756 0.06068 0.10223 0.0
N289 N 0.51427 0.04146 0.10916 0.0
C290 C 0.55052 0.07118 0.10788 0.0
C291 C 0.54654 0.04127 0.12753 0.0
C292 C 0.52354 0.0313 0.12147 0.0
C293 C 0.56025 0.06157 0.12073 0.0
H294 H 0.52012 0.0682 0.09237 0.0
H295 H 0.51301 0.0157 0.1267 0.0
C296 C 0.40237 0.02227 0.08026 0.0
N297 N 0.35333 0.04149 0.07333 0.0
C298 C 0.38127 0.01885 0.0895 0.0
C299 C 0.39855 0.0353 0.06746 0.0
C300 C 0.35663 0.02879 0.08582 0.0
C301 C 0.37359 0.04488 0.06415 0.0
C302 C 0.50399 0.98476 0.09628 0.0
C303 C 0.52754 0.98808 0.08893 0.0
C304 C 0.50372 0.97051 0.10887 0.0
C305 C 0.55056 0.97708 0.09436 0.0
C306 C 0.52715 0.95983 0.11395 0.0
N307 N 0.54989 0.96331 0.10665 0.0
C308 C 0.49399 0.02427 0.05306 0.0
C309 C 0.45574 0.9982 0.05019 0.0
C310 C 0.50101 0.02021 0.039 0.0
N311 N 0.47164 0.01342 0.0583 0.0
C312 C 0.46212 0.99346 0.03608 0.0
C313 C 0.48503 0.00454 0.03036 0.0
H314 H 0.50629 0.03618 0.05981 0.0
H315 H 0.43811 0.9898 0.05468 0.0
C316 C 0.41327 0.97229 0.11903 0.0
N317 N 0.43075 0.96849 0.10841 0.0
C318 C 0.39913 0.95115 0.12448 0.0
C319 C 0.42155 0.92247 0.10809 0.0
C320 C 0.43529 0.94424 0.10294 0.0
C321 C 0.40309 0.92586 0.11895 0.0
H322 H 0.40977 0.99192 0.12297 0.0
H323 H 0.44912 0.94193 0.09437 0.0
O324 O 0.47226 0.05452 0.08492 0.0
O325 O 0.44992 0.02927 0.11278 0.0
O326 O 0.42681 0.01347 0.08388 0.0
O327 O 0.48128 0.99547 0.0912 0.0
H328 H 0.47867 0.09853 0.09937 0.0
H329 H 0.45867 0.06665 0.05872 0.0
H330 H 0.47291 0.14336 0.0896 0.0
H331 H 0.45372 0.112 0.04961 0.0
H332 H 0.47384 0.01364 0.15816 0.0
H333 H 0.46105 0.07821 0.11996 0.0
H334 H 0.45802 0.99837 0.13479 0.0
H335 H 0.4771 0.09206 0.14353 0.0
H336 H 0.38207 0.12383 0.0833 0.0
H337 H 0.37495 0.09094 0.12509 0.0
H338 H 0.56017 0.08718 0.10242 0.0
H339 H 0.55348 0.03329 0.13744 0.0
H340 H 0.38399 0.00895 0.09949 0.0
H341 H 0.41475 0.03825 0.06025 0.0
H342 H 0.34015 0.02647 0.09291 0.0
H343 H 0.37035 0.05514 0.05431 0.0
H344 H 0.52802 0.9991 0.07917 0.0
H345 H 0.48567 0.96796 0.11473 0.0
H346 H 0.56897 0.97949 0.08881 0.0
H347 H 0.52728 0.94885 0.12371 0.0
H348 H 0.51888 0.02897 0.03496 0.0
H349 H 0.44916 0.98153 0.02968 0.0
H350 H 0.38454 0.95474 0.13256 0.0
H351 H 0.42502 0.90329 0.10352 0.0
Li352 Li 0.25351 0.80234 0.15289 0.0
Li353 Li 0.23198 0.78495 0.17471 0.0
Li354 Li 0.22287 0.76547 0.15118 0.0
Li355 Li 0.20752 0.80882 0.15696 0.0
C356 C 0.2753 0.75173 0.15451 0.0
N357 N 0.31226 0.72207 0.14032 0.0
C358 C 0.29118 0.73407 0.16188 0.0
C359 C 0.27819 0.75431 0.13991 0.0
C360 C 0.30977 0.71925 0.15452 0.0
C361 C 0.29699 0.73914 0.13294 0.0
C362 C 0.22797 0.84653 0.17142 0.0
C363 C 0.20036 0.87602 0.18469 0.0
N364 N 0.20732 0.896 0.17594 0.0
C365 C 0.23498 0.86738 0.1626 0.0
C366 C 0.21064 0.85087 0.1826 0.0
C367 C 0.22428 0.89224 0.16504 0.0
C368 C 0.2812 0.83517 0.13468 0.0
N369 N 0.28423 0.81837 0.14568 0.0
C370 C 0.3298 0.82908 0.14745 0.0
C371 C 0.30793 0.81476 0.15198 0.0
C372 C 0.32701 0.84745 0.13649 0.0
C373 C 0.30244 0.84998 0.12988 0.0
H374 H 0.26201 0.83778 0.12999 0.0
H375 H 0.30969 0.80127 0.16074 0.0
C376 C 0.23259 0.75051 0.1975 0.0
N377 N 0.23654 0.77603 0.1939 0.0
C378 C 0.2354 0.74249 0.21149 0.0
C379 C 0.24638 0.78721 0.21777 0.0
C380 C 0.24346 0.79435 0.20363 0.0
C381 C 0.24216 0.76101 0.22185 0.0
H382 H 0.22728 0.73639 0.18946 0.0
H383 H 0.24663 0.81448 0.20042 0.0
C384 C 0.20892 0.79485 0.12773 0.0
N385 N 0.17677 0.78942 0.10445 0.0
C386 C 0.18254 0.78798 0.12942 0.0
C387 C 0.21897 0.79895 0.1142 0.0
C388 C 0.16659 0.78535 0.11752 0.0
C389 C 0.2024 0.7961 0.10256 0.0
C390 C 0.17421 0.77322 0.17251 0.0
C391 C 0.15345 0.76101 0.16541 0.0
C392 C 0.17041 0.78236 0.18626 0.0
C393 C 0.1291 0.75867 0.17208 0.0
C394 C 0.14577 0.77963 0.19257 0.0
N395 N 0.12579 0.76797 0.1854 0.0
C396 C 0.20031 0.71623 0.15103 0.0
C397 C 0.216 0.72857 0.12843 0.0
C398 C 0.18786 0.69426 0.14538 0.0
N399 N 0.21322 0.7333 0.14248 0.0
C400 C 0.20392 0.70667 0.12233 0.0
C401 C 0.18888 0.68981 0.1308 0.0
H402 H 0.1986 0.72042 0.16217 0.0
H403 H 0.22653 0.74237 0.12187 0.0
C404 C 0.18369 0.84922 0.1417 0.0
N405 N 0.17991 0.83385 0.15326 0.0
C406 C 0.16389 0.866 0.13702 0.0
C407 C 0.13726 0.85247 0.1568 0.0
C408 C 0.15753 0.83572 0.16105 0.0
C409 C 0.1401 0.86724 0.14442 0.0
H410 H 0.2019 0.84793 0.13588 0.0
H411 H 0.15509 0.82397 0.17039 0.0
O412 O 0.25705 0.76636 0.1616 0.0
O413 O 0.23759 0.82189 0.16892 0.0
O414 O 0.22501 0.7974 0.1392 0.0
O415 O 0.19835 0.77523 0.16625 0.0
H416 H 0.28915 0.73186 0.17318 0.0
H417 H 0.26612 0.76789 0.13402 0.0
H418 H 0.32221 0.70551 0.1601 0.0
H419 H 0.29945 0.74094 0.12165 0.0
H420 H 0.18679 0.87962 0.19325 0.0
H421 H 0.2483 0.86434 0.15387 0.0
H422 H 0.20496 0.83496 0.1895 0.0
H423 H 0.2294 0.90852 0.15825 0.0
H424 H 0.34853 0.82619 0.15264 0.0
H425 H 0.29941 0.86404 0.12147 0.0
H426 H 0.2326 0.72199 0.21413 0.0
H427 H 0.25163 0.80204 0.22546 0.0
H428 H 0.17447 0.78488 0.13979 0.0
H429 H 0.2394 0.80417 0.11271 0.0
H430 H 0.14612 0.7801 0.11869 0.0
H431 H 0.20992 0.79918 0.09202 0.0
H432 H 0.15609 0.75326 0.15489 0.0
H433 H 0.18623 0.79164 0.19199 0.0
H434 H 0.11286 0.74935 0.16668 0.0
H435 H 0.14253 0.78677 0.20317 0.0
H436 H 0.17671 0.68141 0.15224 0.0
H437 H 0.20512 0.70372 0.11103 0.0
H438 H 0.16692 0.8775 0.12755 0.0
H439 H 0.11918 0.85312 0.16282 0.0
Li440 Li 0.46407 0.98081 0.42521 0.0
Li441 Li 0.44776 0.00231 0.40299 0.0
Li442 Li 0.44123 0.9562 0.40713 0.0
Li443 Li 0.48468 0.97139 0.40196 0.0
C444 C 0.40214 0.97771 0.42025 0.0
N445 N 0.3514 0.95891 0.42258 0.0
C446 C 0.38246 0.98712 0.4113 0.0
C447 C 0.39598 0.95886 0.43044 0.0
C448 C 0.35694 0.97735 0.41264 0.0
C449 C 0.37022 0.94957 0.43144 0.0
C450 C 0.49859 0.02384 0.4055 0.0
C451 C 0.51188 0.04673 0.38442 0.0
N452 N 0.52981 0.0605 0.39207 0.0
C453 C 0.51711 0.03822 0.41316 0.0
C454 C 0.49591 0.02813 0.39102 0.0
C455 C 0.53272 0.05666 0.40617 0.0
C456 C 0.49787 0.99079 0.44768 0.0
N457 N 0.47222 0.98636 0.4445 0.0
C458 C 0.46028 0.98931 0.46881 0.0
C459 C 0.4534 0.98586 0.45467 0.0
C460 C 0.48661 0.99396 0.47236 0.0
C461 C 0.50554 0.99485 0.46164 0.0
H462 H 0.51237 0.99108 0.43934 0.0
H463 H 0.43311 0.9826 0.45183 0.0
C464 C 0.41763 0.02988 0.38344 0.0
N465 N 0.43224 0.0329 0.39531 0.0
C466 C 0.40349 0.05101 0.37799 0.0
C467 C 0.4203 0.07818 0.39686 0.0
C468 C 0.43407 0.05644 0.402 0.0
C469 C 0.40456 0.07552 0.38477 0.0
H470 H 0.41617 0.01076 0.37854 0.0
H471 H 0.44571 0.05813 0.4115 0.0
C472 C 0.47428 0.92252 0.42318 0.0
N473 N 0.47516 0.87359 0.43582 0.0
C474 C 0.48506 0.90099 0.41608 0.0
C475 C 0.46432 0.9192 0.4368 0.0
C476 C 0.4852 0.87641 0.42262 0.0
C477 C 0.46485 0.8943 0.44298 0.0
C478 C 0.45761 0.9583 0.37792 0.0
C479 C 0.46337 0.93161 0.37936 0.0
C480 C 0.45651 0.96951 0.36449 0.0
C481 C 0.46792 0.91651 0.36731 0.0
C482 C 0.46118 0.95376 0.35269 0.0
N483 N 0.46675 0.92781 0.35433 0.0
C484 C 0.40137 0.93341 0.39116 0.0
C485 C 0.41258 0.90698 0.41082 0.0
C486 C 0.38355 0.91457 0.38645 0.0
N487 N 0.41596 0.92909 0.40295 0.0
C488 C 0.39472 0.88771 0.40657 0.0
C489 C 0.3803 0.89127 0.39411 0.0
H490 H 0.40388 0.95141 0.38527 0.0
H491 H 0.42371 0.9041 0.42033 0.0
C492 C 0.53288 0.94611 0.40107 0.0
N493 N 0.51714 0.96209 0.39333 0.0
C494 C 0.55553 0.93539 0.39516 0.0
C495 C 0.54624 0.95894 0.3736 0.0
C496 C 0.52349 0.96896 0.37989 0.0
C497 C 0.56245 0.94166 0.38122 0.0
H498 H 0.52736 0.94096 0.41172 0.0
H499 H 0.51061 0.98163 0.37392 0.0
O500 O 0.42742 0.98645 0.41879 0.0
O501 O 0.48317 0.00576 0.41222 0.0
O502 O 0.47439 0.94687 0.41705 0.0
O503 O 0.4535 0.97358 0.38958 0.0
H504 H 0.38686 0.00165 0.40334 0.0
H505 H 0.411 0.95106 0.43732 0.0
H506 H 0.34154 0.98437 0.40574 0.0
H507 H 0.36523 0.93481 0.43919 0.0
H508 H 0.51003 0.05022 0.37321 0.0
H509 H 0.51939 0.03516 0.42439 0.0
H510 H 0.48168 0.01721 0.38492 0.0
H511 H 0.54715 0.06793 0.41196 0.0
H512 H 0.44523 0.98863 0.47688 0.0
H513 H 0.52605 0.99829 0.46408 0.0
H514 H 0.39099 0.04787 0.36891 0.0
H515 H 0.42154 0.09674 0.4024 0.0
H516 H 0.4934 0.90321 0.40566 0.0
H517 H 0.45602 0.93555 0.4425 0.0
H518 H 0.4934 0.85958 0.41722 0.0
H519 H 0.45703 0.89144 0.45348 0.0
H520 H 0.46423 0.92266 0.38966 0.0
H521 H 0.45227 0.99021 0.3632 0.0
H522 H 0.47238 0.89582 0.36828 0.0
H523 H 0.46044 0.96219 0.34223 0.0
H524 H 0.37259 0.91803 0.37683 0.0
H525 H 0.39281 0.86987 0.4127 0.0
H526 H 0.56691 0.92155 0.4013 0.0
H527 H 0.55085 0.96426 0.36283 0.0
Li528 Li 0.24588 0.19822 0.65334 0.0
Li529 Li 0.26834 0.21359 0.6751 0.0
Li530 Li 0.27624 0.23537 0.65248 0.0
Li531 Li 0.29505 0.19201 0.65669 0.0
C532 C 0.22283 0.24831 0.65815 0.0
N533 N 0.18205 0.27894 0.64824 0.0
C534 C 0.20825 0.26376 0.66748 0.0
C535 C 0.21665 0.24835 0.64381 0.0
C536 C 0.18769 0.27912 0.66226 0.0
C537 C 0.196 0.26402 0.63899 0.0
C538 C 0.25951 0.15734 0.67676 0.0
C539 C 0.27308 0.12375 0.69315 0.0
N540 N 0.24749 0.1172 0.69527 0.0
C541 C 0.23335 0.15013 0.67902 0.0
C542 C 0.27957 0.14391 0.68379 0.0
C543 C 0.22767 0.12983 0.68845 0.0
C544 C 0.22008 0.16221 0.63629 0.0
N545 N 0.21564 0.18135 0.64597 0.0
C546 C 0.16957 0.17229 0.64576 0.0
C547 C 0.19101 0.18679 0.6507 0.0
C548 C 0.17367 0.15199 0.63597 0.0
C549 C 0.19927 0.14729 0.63107 0.0
H550 H 0.23994 0.15817 0.63286 0.0
H551 H 0.1881 0.20194 0.65853 0.0
C552 C 0.27201 0.24484 0.69906 0.0
N553 N 0.26378 0.22073 0.69475 0.0
C554 C 0.26867 0.25267 0.71306 0.0
C555 C 0.24869 0.21062 0.718 0.0
C556 C 0.25227 0.20366 0.70389 0.0
C557 C 0.25671 0.2355 0.72268 0.0
H558 H 0.28103 0.25807 0.69156 0.0
H559 H 0.24553 0.18478 0.70028 0.0
C560 C 0.28166 0.21177 0.62659 0.0
N561 N 0.29481 0.22823 0.59975 0.0
C562 C 0.30708 0.22065 0.62372 0.0
C563 C 0.26298 0.21108 0.6158 0.0
C564 C 0.31332 0.22896 0.61009 0.0
C565 C 0.27 0.21951 0.6023 0.0
C566 C 0.32467 0.22181 0.67501 0.0
C567 C 0.34763 0.23567 0.6718 0.0
C568 C 0.32453 0.20432 0.68635 0.0
C569 C 0.37007 0.23175 0.68001 0.0
C570 C 0.34735 0.20099 0.69433 0.0
N571 N 0.36947 0.21465 0.69102 0.0
C572 C 0.30309 0.28266 0.65111 0.0
C573 C 0.2758 0.27645 0.63117 0.0
C574 C 0.31443 0.30482 0.64499 0.0
N575 N 0.28482 0.26845 0.64398 0.0
C576 C 0.28651 0.2987 0.62468 0.0
C577 C 0.30671 0.31272 0.63143 0.0
H578 H 0.30953 0.27626 0.66139 0.0
H579 H 0.26104 0.2651 0.62572 0.0
C580 C 0.31939 0.14271 0.65185 0.0
N581 N 0.32344 0.16911 0.65238 0.0
C582 C 0.33951 0.12592 0.64743 0.0
C583 C 0.36756 0.1638 0.64432 0.0
C584 C 0.347 0.17979 0.64884 0.0
C585 C 0.36377 0.13656 0.64332 0.0
H586 H 0.30031 0.13478 0.6545 0.0
H587 H 0.34963 0.20082 0.64914 0.0
O588 O 0.24248 0.23263 0.66319 0.0
O589 O 0.26544 0.17707 0.66751 0.0
O590 O 0.27501 0.2039 0.63991 0.0
O591 O 0.30262 0.2252 0.66693 0.0
H592 H 0.21269 0.26373 0.67864 0.0
H593 H 0.2275 0.2362 0.63651 0.0
H594 H 0.17618 0.29113 0.66936 0.0
H595 H 0.19098 0.26423 0.62791 0.0
H596 H 0.2884 0.11327 0.6987 0.0
H597 H 0.21758 0.16026 0.67366 0.0
H598 H 0.29995 0.14891 0.682 0.0
H599 H 0.20751 0.12414 0.69035 0.0
H600 H 0.15007 0.17671 0.64966 0.0
H601 H 0.20326 0.13167 0.62362 0.0
H602 H 0.27543 0.2719 0.71634 0.0
H603 H 0.23926 0.19691 0.72512 0.0
H604 H 0.32165 0.22162 0.63199 0.0
H605 H 0.24322 0.20423 0.61784 0.0
H606 H 0.33285 0.2361 0.60774 0.0
H607 H 0.25572 0.21918 0.59386 0.0
H608 H 0.34826 0.24902 0.66294 0.0
H609 H 0.30704 0.19341 0.68898 0.0
H610 H 0.38799 0.24225 0.6776 0.0
H611 H 0.34749 0.18752 0.70315 0.0
H612 H 0.32986 0.31505 0.65062 0.0
H613 H 0.2794 0.30455 0.61439 0.0
H614 H 0.33588 0.10499 0.64674 0.0
H615 H 0.38613 0.17267 0.64142 0.0
Li616 Li 0.05417 0.99836 0.90379 0.0
Li617 Li 0.03702 0.02124 0.92527 0.0
Li618 Li 0.01865 0.03121 0.90163 0.0
Li619 Li 0.06223 0.04377 0.90757 0.0
C620 C 0.00599 0.97541 0.91671 0.0
N621 N 0.98152 0.9307 0.92667 0.0
C622 C 0.01693 0.96139 0.92793 0.0
C623 C 0.98254 0.96682 0.91061 0.0
C624 C 0.00427 0.93881 0.93281 0.0
C625 C 0.9705 0.94412 0.91577 0.0
C626 C 0.098 0.02319 0.9232 0.0
C627 C 0.12565 0.05125 0.93731 0.0
N628 N 0.14678 0.04386 0.92948 0.0
C629 C 0.11998 0.01578 0.91533 0.0
C630 C 0.10082 0.04101 0.93431 0.0
C631 C 0.14448 0.02649 0.91866 0.0
C632 C 0.08865 0.9714 0.88647 0.0
N633 N 0.06985 0.96718 0.89639 0.0
C634 C 0.07892 0.92107 0.89624 0.0
C635 C 0.06451 0.94257 0.9012 0.0
C636 C 0.09885 0.92506 0.88625 0.0
C637 C 0.10331 0.95052 0.88115 0.0
H638 H 0.09284 0.99119 0.88299 0.0
H639 H 0.04962 0.93959 0.90911 0.0
C640 C 0.00273 0.0223 0.94845 0.0
N641 N 0.02791 0.01725 0.94456 0.0
C642 C 0.99496 0.01912 0.96247 0.0
C643 C 0.03923 0.00561 0.9682 0.0
C644 C 0.04609 0.00889 0.95405 0.0
C645 C 0.0134 0.01088 0.97258 0.0
H646 H 0.98863 0.02856 0.9406 0.0
H647 H 0.06587 0.0046 0.95061 0.0
C648 C 0.04386 0.01688 0.87699 0.0
N649 N 0.03009 0.99603 0.85112 0.0
C650 C 0.0549 0.0269 0.86462 0.0
C651 C 0.02581 0.99621 0.8762 0.0
C652 C 0.04769 0.01611 0.85165 0.0
C653 C 0.01911 0.98596 0.86302 0.0
C654 C 0.0225 0.08091 0.91315 0.0
C655 C 0.02817 0.09055 0.89969 0.0
C656 C 0.00906 0.09675 0.92277 0.0
C657 C 0.02032 0.11597 0.89609 0.0
C658 C 0.00153 0.12207 0.91877 0.0
N659 N 0.00727 0.13107 0.90562 0.0
C660 C 0.96428 0.04071 0.89985 0.0
C661 C 0.98822 0.05377 0.87959 0.0
C662 C 0.94136 0.05194 0.89441 0.0
N663 N 0.98713 0.04207 0.89247 0.0
C664 C 0.96578 0.06505 0.87372 0.0
C665 C 0.94206 0.06452 0.88124 0.0
H666 H 0.96413 0.03176 0.91019 0.0
H667 H 0.00675 0.05551 0.87413 0.0
C668 C 0.10259 0.06762 0.89235 0.0
N669 N 0.08789 0.07034 0.90422 0.0
C670 C 0.11993 0.08743 0.88829 0.0
C671 C 0.10756 0.11198 0.90909 0.0
C672 C 0.09025 0.09176 0.9127 0.0
C673 C 0.12223 0.10998 0.89663 0.0
H674 H 0.10031 0.05032 0.88585 0.0
H675 H 0.0782 0.09343 0.92205 0.0
O676 O 0.01771 0.99786 0.91191 0.0
O677 O 0.07374 0.01349 0.91987 0.0
O678 O 0.05088 0.02738 0.88974 0.0
O679 O 0.02964 0.05597 0.91691 0.0
H680 H 0.03518 0.96769 0.9327 0.0
H681 H 0.97376 0.97759 0.90196 0.0
H682 H 0.01256 0.92769 0.94145 0.0
H683 H 0.95237 0.93718 0.91113 0.0
H684 H 0.1281 0.0652 0.94581 0.0
H685 H 0.11813 0.00207 0.90668 0.0
H686 H 0.08393 0.04721 0.94039 0.0
H687 H 0.16165 0.02103 0.91262 0.0
H688 H 0.07482 0.90162 0.90033 0.0
H689 H 0.1187 0.95438 0.87354 0.0
H690 H 0.97469 0.02271 0.96533 0.0
H691 H 0.05401 0.99919 0.97565 0.0
H692 H 0.06885 0.04292 0.86504 0.0
H693 H 0.01705 0.98811 0.8856 0.0
H694 H 0.05607 0.02371 0.84199 0.0
H695 H 0.00518 0.96998 0.86226 0.0
H696 H 0.03845 0.07855 0.89208 0.0
H697 H 0.00444 0.08951 0.93322 0.0
H698 H 0.02456 0.12366 0.88571 0.0
H699 H 0.9911 0.13455 0.92611 0.0
H700 H 0.92344 0.05135 0.90055 0.0
H701 H 0.96727 0.0752 0.86371 0.0
H702 H 0.13094 0.08548 0.87857 0.0
H703 H 0.1088 0.12936 0.91564 0.0
Li704 Li 0.74571 0.80072 0.65068 0.0
Li705 Li 0.79141 0.81382 0.6548 0.0
Li706 Li 0.77991 0.76866 0.64871 0.0
Li707 Li 0.76879 0.78674 0.67186 0.0
C708 C 0.78435 0.79215 0.6246 0.0
N709 N 0.80448 0.77201 0.59981 0.0
C710 C 0.81018 0.79777 0.62063 0.0
C711 C 0.7687 0.77641 0.61592 0.0
C712 C 0.82 0.78739 0.60806 0.0
C713 C 0.77926 0.76637 0.60344 0.0
C714 C 0.7636 0.84902 0.66827 0.0
C715 C 0.78648 0.88474 0.67959 0.0
N716 N 0.77244 0.90218 0.67177 0.0
C717 C 0.74939 0.8673 0.66034 0.0
C718 C 0.78227 0.85779 0.67799 0.0
C719 C 0.75413 0.89409 0.66227 0.0
C720 C 0.69556 0.82173 0.65423 0.0
N721 N 0.71285 0.81371 0.64419 0.0
C722 C 0.68615 0.83214 0.626 0.0
C723 C 0.70836 0.81809 0.63026 0.0
C724 C 0.66884 0.84199 0.63622 0.0
C725 C 0.67326 0.83597 0.65045 0.0
H726 H 0.69994 0.81839 0.66525 0.0
H727 H 0.7227 0.81195 0.62254 0.0
C728 C 0.84221 0.83602 0.65577 0.0
N729 N 0.8171 0.84027 0.65146 0.0
C730 C 0.86211 0.85349 0.65196 0.0
C731 C 0.82986 0.87975 0.63965 0.0
C732 C 0.81062 0.86161 0.64356 0.0
C733 C 0.85603 0.87553 0.64369 0.0
H734 H 0.84697 0.81854 0.6617 0.0
H735 H 0.79067 0.86401 0.63987 0.0
C736 C 0.72068 0.75888 0.6588 0.0
N737 N 0.66738 0.74889 0.65782 0.0
C738 C 0.70538 0.76156 0.67095 0.0
C739 C 0.70893 0.75101 0.64617 0.0
C740 C 0.67845 0.75643 0.67023 0.0
C741 C 0.68194 0.7461 0.64589 0.0
C742 C 0.81718 0.77053 0.67464 0.0
C743 C 0.81971 0.74325 0.67562 0.0
C744 C 0.82708 0.78647 0.6854 0.0
C745 C 0.83208 0.73236 0.6874 0.0
C746 C 0.83926 0.77482 0.69702 0.0
N747 N 0.84149 0.74823 0.69777 0.0
C748 C 0.82055 0.73932 0.63764 0.0
C749 C 0.77934 0.71836 0.63454 0.0
C750 C 0.83351 0.71819 0.63144 0.0
N751 N 0.79402 0.73893 0.6392 0.0
C752 C 0.79154 0.6968 0.62813 0.0
C753 C 0.819 0.69653 0.62669 0.0
H754 H 0.83169 0.75597 0.64144 0.0
H755 H 0.75828 0.71853 0.63598 0.0
C756 C 0.76206 0.79791 0.70099 0.0
N757 N 0.76494 0.77843 0.69132 0.0
C758 C 0.75925 0.79182 0.71527 0.0
C759 C 0.76211 0.74573 0.70933 0.0
C760 C 0.76473 0.75271 0.69517 0.0
C761 C 0.75947 0.76543 0.7196 0.0
H762 H 0.7617 0.81816 0.69762 0.0
H763 H 0.76664 0.73762 0.68721 0.0
O764 O 0.77463 0.80145 0.63708 0.0
O765 O 0.75947 0.82267 0.66644 0.0
O766 O 0.74698 0.76426 0.65922 0.0
O767 O 0.80461 0.78156 0.66335 0.0
H768 H 0.82264 0.80976 0.62726 0.0
H769 H 0.74875 0.77166 0.6189 0.0
H770 H 0.84 0.79146 0.60489 0.0
H771 H 0.76744 0.75399 0.59668 0.0
H772 H 0.80097 0.8918 0.68703 0.0
H773 H 0.73509 0.86095 0.65264 0.0
H774 H 0.79361 0.84394 0.68413 0.0
H775 H 0.74332 0.90844 0.65618 0.0
H776 H 0.68342 0.8367 0.61494 0.0
H777 H 0.66027 0.8433 0.6586 0.0
H778 H 0.88215 0.84951 0.65514 0.0
H779 H 0.82457 0.8962 0.63298 0.0
H780 H 0.71412 0.76778 0.68079 0.0
H781 H 0.72047 0.74902 0.63666 0.0
H782 H 0.66634 0.75852 0.67953 0.0
H783 H 0.67254 0.74014 0.63617 0.0
H784 H 0.81189 0.73058 0.66749 0.0
H785 H 0.82514 0.8076 0.68485 0.0
H786 H 0.83407 0.71127 0.68833 0.0
H787 H 0.84687 0.78691 0.70546 0.0
H788 H 0.85471 0.71867 0.63046 0.0
H789 H 0.77979 0.68025 0.62471 0.0
H790 H 0.75653 0.80756 0.7228 0.0
H791 H 0.76231 0.72515 0.71223 0.0
Li792 Li 0.98331 0.02669 0.39944 0.0
Li793 Li 0.96472 0.01731 0.42156 0.0
Li794 Li 0.9496 0.99319 0.40073 0.0
Li795 Li 0.93913 0.04208 0.40427 0.0
C796 C 0.00459 0.97622 0.40587 0.0
N797 N 0.04523 0.94309 0.39829 0.0
C798 C 0.02691 0.97415 0.4144 0.0
C799 C 0.00279 0.9611 0.39361 0.0
C800 C 0.04729 0.9574 0.41035 0.0
C801 C 0.02358 0.94455 0.38992 0.0
C802 C 0.99199 0.06429 0.42085 0.0
C803 C 0.0106 0.10161 0.4329 0.0
N804 N 0.03291 0.08761 0.43532 0.0
C805 C 0.01508 0.05028 0.42345 0.0
C806 C 0.98969 0.09017 0.4256 0.0
C807 C 0.03555 0.0624 0.43078 0.0
C808 C 0.01287 0.06556 0.38699 0.0
N809 N 0.01396 0.03937 0.38974 0.0
C810 C 0.05683 0.03678 0.37949 0.0
C811 C 0.03529 0.02481 0.38602 0.0
C812 C 0.05616 0.06382 0.37666 0.0
C813 C 0.03373 0.0782 0.38034 0.0
H814 H 0.99574 0.07672 0.39007 0.0
H815 H 0.03586 0.00405 0.38815 0.0
C816 C 0.98143 0.99038 0.44586 0.0
N817 N 0.97149 0.01357 0.44119 0.0
C818 C 0.98803 0.98722 0.46005 0.0
C819 C 0.97344 0.03168 0.46441 0.0
C820 C 0.96717 0.03399 0.45013 0.0
C821 C 0.98439 0.00817 0.46948 0.0
H822 H 0.98451 0.97443 0.43852 0.0
H823 H 0.95902 0.05215 0.44613 0.0
C824 C 0.96086 0.03012 0.37426 0.0
N825 N 0.98089 0.04493 0.34837 0.0
C826 C 0.95773 0.0559 0.36946 0.0
C827 C 0.97381 0.01178 0.36578 0.0
C828 C 0.96809 0.06303 0.35637 0.0
C829 C 0.9839 0.01968 0.35276 0.0
C830 C 0.91542 0.0092 0.42813 0.0
C831 C 0.91327 0.98482 0.43479 0.0
C832 C 0.9057 0.03171 0.43475 0.0
C833 C 0.90143 0.98339 0.44806 0.0
C834 C 0.894 0.02945 0.44802 0.0
N835 N 0.89213 0.00554 0.45434 0.0
C836 C 0.93739 0.93834 0.39994 0.0
C837 C 0.91655 0.96568 0.38304 0.0
C838 C 0.92256 0.91674 0.39547 0.0
N839 N 0.93386 0.9622 0.39377 0.0
C840 C 0.90121 0.94477 0.37836 0.0
C841 C 0.90384 0.92007 0.38475 0.0
H842 H 0.95105 0.93633 0.40861 0.0
H843 H 0.91398 0.98499 0.37848 0.0
C844 C 0.92152 0.09358 0.39921 0.0
N845 N 0.91372 0.06819 0.4006 0.0
C846 C 0.90355 0.11276 0.39503 0.0
C847 C 0.86972 0.07943 0.39429 0.0
C848 C 0.88839 0.06085 0.39841 0.0
C849 C 0.87737 0.10567 0.39226 0.0
H850 H 0.9419 0.09871 0.40089 0.0
H851 H 0.88285 0.04045 0.39959 0.0
O852 O 0.98433 0.99229 0.40979 0.0
O853 O 0.97156 0.05279 0.4138 0.0
O854 O 0.95143 0.02296 0.38721 0.0
O855 O 0.92743 0.01113 0.4153 0.0
H856 H 0.02847 0.98531 0.42407 0.0
H857 H 0.98555 0.96206 0.38701 0.0
H858 H 0.06471 0.95572 0.41681 0.0
H859 H 0.02248 0.93284 0.38043 0.0
H860 H 0.00909 0.12162 0.43665 0.0
H861 H 0.01718 0.03031 0.41983 0.0
H862 H 0.97189 0.10125 0.4237 0.0
H863 H 0.05354 0.05177 0.43286 0.0
H864 H 0.07381 0.02507 0.37667 0.0
H865 H 0.0326 0.09914 0.3784 0.0
H866 H 0.9964 0.96878 0.46355 0.0
H867 H 0.96973 0.04807 0.4714 0.0
H868 H 0.9477 0.07033 0.37585 0.0
H869 H 0.97612 0.9917 0.36922 0.0
H870 H 0.966 0.08297 0.35259 0.0
H871 H 0.99413 0.00573 0.34614 0.0
H872 H 0.92083 0.96726 0.4298 0.0
H873 H 0.90742 0.05075 0.42976 0.0
H874 H 0.89968 0.96468 0.45338 0.0
H875 H 0.88647 0.04671 0.4533 0.0
H876 H 0.9248 0.89801 0.40076 0.0
H877 H 0.88692 0.948 0.37007 0.0
H878 H 0.91026 0.13275 0.39352 0.0
H879 H 0.84961 0.07329 0.39258 0.0
Li880 Li 0.71968 0.23045 0.14839 0.0
Li881 Li 0.73127 0.21465 0.1722 0.0
Li882 Li 0.75466 0.19875 0.15109 0.0
Li883 Li 0.70895 0.18518 0.15582 0.0
C884 C 0.77854 0.2432 0.1582 0.0
N885 N 0.83076 0.25775 0.15702 0.0
C886 C 0.7938 0.24325 0.17045 0.0
C887 C 0.78973 0.2508 0.14538 0.0
C888 C 0.82019 0.25063 0.16962 0.0
C889 C 0.8162 0.258 0.14499 0.0
C890 C 0.67951 0.22879 0.17345 0.0
C891 C 0.65428 0.22441 0.19483 0.0
N892 N 0.64738 0.25017 0.19392 0.0
C893 C 0.67205 0.25517 0.17266 0.0
C894 C 0.67044 0.21321 0.18456 0.0
C895 C 0.65583 0.26563 0.18313 0.0
C896 C 0.68245 0.25675 0.1318 0.0
N897 N 0.70615 0.25964 0.13822 0.0
C898 C 0.70762 0.30503 0.1318 0.0
C899 C 0.7189 0.28311 0.13832 0.0
C900 C 0.6833 0.30243 0.12499 0.0
C901 C 0.67077 0.27793 0.1249 0.0
H902 H 0.67232 0.23812 0.13232 0.0
H903 H 0.73749 0.28495 0.14375 0.0
C904 C 0.74784 0.20744 0.20033 0.0
N905 N 0.73535 0.22432 0.19149 0.0
C906 C 0.75201 0.21425 0.21442 0.0
C907 C 0.72999 0.25551 0.2101 0.0
C908 C 0.72677 0.24814 0.19603 0.0
C909 C 0.74309 0.23862 0.21949 0.0
H910 H 0.75493 0.18882 0.19638 0.0
H911 H 0.71749 0.26149 0.18872 0.0
C912 C 0.71719 0.20247 0.1245 0.0
N913 N 0.70069 0.21489 0.09757 0.0
C914 C 0.69329 0.19279 0.11943 0.0
C915 C 0.73283 0.21821 0.11583 0.0
C916 C 0.68527 0.19934 0.10579 0.0
C917 C 0.7241 0.22436 0.10227 0.0
C918 C 0.73894 0.15286 0.17148 0.0
C919 C 0.75366 0.13342 0.16471 0.0
C920 C 0.7219 0.14595 0.18241 0.0
C921 C 0.75081 0.10726 0.16889 0.0
C922 C 0.71959 0.11958 0.18628 0.0
N923 N 0.73396 0.10094 0.17949 0.0
C924 C 0.80836 0.18284 0.15248 0.0
C925 C 0.78604 0.17345 0.13112 0.0
C926 C 0.83014 0.16826 0.14804 0.0
N927 N 0.78683 0.18492 0.14405 0.0
C928 C 0.80714 0.15839 0.12638 0.0
C929 C 0.82927 0.15531 0.13501 0.0
H930 H 0.80809 0.19125 0.16294 0.0
H931 H 0.76844 0.17475 0.1248 0.0
C932 C 0.65815 0.16311 0.15552 0.0
N933 N 0.68396 0.15785 0.15318 0.0
C934 C 0.63892 0.14501 0.15154 0.0
C935 C 0.67324 0.11597 0.14335 0.0
C936 C 0.69178 0.13478 0.14732 0.0
C937 C 0.64635 0.12134 0.14505 0.0
H938 H 0.65241 0.18188 0.15986 0.0
H939 H 0.71235 0.13141 0.14518 0.0
O940 O 0.75274 0.23588 0.15877 0.0
O941 O 0.69546 0.21824 0.16334 0.0
O942 O 0.72524 0.19655 0.13788 0.0
O943 O 0.74135 0.17855 0.1675 0.0
H944 H 0.78542 0.2375 0.18046 0.0
H945 H 0.7781 0.25105 0.13584 0.0
H946 H 0.83229 0.25065 0.179 0.0
H947 H 0.82516 0.26379 0.13513 0.0
H948 H 0.6472 0.21262 0.20352 0.0
H949 H 0.67887 0.26749 0.16412 0.0
H950 H 0.67587 0.19272 0.18524 0.0
H951 H 0.65 0.28604 0.1827 0.0
H952 H 0.7176 0.3238 0.13217 0.0
H953 H 0.65174 0.27546 0.11997 0.0
H954 H 0.76243 0.20071 0.22122 0.0
H955 H 0.72215 0.27418 0.21357 0.0
H956 H 0.68096 0.18054 0.12599 0.0
H957 H 0.75144 0.22571 0.11958 0.0
H958 H 0.66677 0.19211 0.10175 0.0
H959 H 0.73592 0.23666 0.09547 0.0
H960 H 0.76698 0.13842 0.15624 0.0
H961 H 0.71056 0.1608 0.18784 0.0
H962 H 0.76197 0.09199 0.1637 0.0
H963 H 0.70639 0.11393 0.19469 0.0
H964 H 0.84675 0.1658 0.15505 0.0
H965 H 0.80579 0.14837 0.11633 0.0
H966 H 0.61841 0.15004 0.15291 0.0
H967 H 0.67985 0.09778 0.13862 0.0
Li968 Li 0.52181 0.97116 0.90054 0.0
Li969 Li 0.53839 0.97914 0.92418 0.0
Li970 Li 0.55728 0.00202 0.90294 0.0
Li971 Li 0.56689 0.95559 0.90709 0.0
C972 C 0.49644 0.01327 0.90839 0.0
N973 N 0.44559 0.02871 0.90244 0.0
C974 C 0.4764 0.00889 0.91818 0.0
C975 C 0.49068 0.02581 0.89565 0.0
C976 C 0.4508 0.01676 0.91496 0.0
C977 C 0.46483 0.03338 0.89282 0.0
C978 C 0.5298 0.92385 0.9241 0.0
C979 C 0.54907 0.89281 0.94033 0.0
N980 N 0.52509 0.88167 0.94233 0.0
C981 C 0.50543 0.91174 0.92615 0.0
C982 C 0.55186 0.91401 0.9311 0.0
C983 C 0.50341 0.8906 0.93548 0.0
C984 C 0.49121 0.9594 0.87617 0.0
N985 N 0.49107 0.96104 0.89047 0.0
C986 C 0.44867 0.94108 0.8915 0.0
C987 C 0.47006 0.95291 0.89814 0.0
C988 C 0.44875 0.93787 0.87678 0.0
C989 C 0.46996 0.94817 0.86905 0.0
H990 H 0.50818 0.96595 0.87031 0.0
H991 H 0.47037 0.9547 0.90948 0.0
C992 C 0.54233 0.99994 0.95176 0.0
N993 N 0.52861 0.98297 0.94349 0.0
C994 C 0.53565 0.00317 0.96593 0.0
C995 C 0.50017 0.97222 0.9627 0.0
C996 C 0.50767 0.96944 0.94862 0.0
C997 C 0.51442 0.98905 0.9716 0.0
H998 H 0.55856 0.0109 0.94734 0.0
H999 H 0.49644 0.95687 0.94172 0.0
C1000 C 0.56585 0.98176 0.87734 0.0
N1001 N 0.58921 0.00177 0.85333 0.0
C1002 C 0.59043 0.97255 0.87302 0.0
C1003 C 0.553 0.00089 0.86933 0.0
C1004 C 0.60195 0.98297 0.86088 0.0
C1005 C 0.56518 0.01085 0.85726 0.0
C1006 C 0.59732 0.98265 0.92795 0.0
C1007 C 0.62111 0.99514 0.92488 0.0
C1008 C 0.59529 0.96743 0.94017 0.0
C1009 C 0.64262 0.99154 0.93382 0.0
C1010 C 0.61722 0.96432 0.94886 0.0
N1011 N 0.64026 0.9763 0.94552 0.0
C1012 C 0.56144 0.05688 0.89581 0.0
C1013 C 0.59908 0.03042 0.89196 0.0
C1014 C 0.57497 0.07919 0.89113 0.0
N1015 N 0.57373 0.03315 0.89617 0.0
C1016 C 0.61331 0.05208 0.88731 0.0
C1017 C 0.60133 0.07686 0.88693 0.0
H1018 H 0.54131 0.05854 0.89933 0.0
H1019 H 0.60832 0.01132 0.89231 0.0
C1020 C 0.5822 0.90472 0.89993 0.0
N1021 N 0.59194 0.92846 0.90387 0.0
C1022 C 0.59915 0.88429 0.89632 0.0
C1023 C 0.63596 0.91314 0.90072 0.0
C1024 C 0.61826 0.93302 0.90433 0.0
C1025 C 0.6264 0.88842 0.89665 0.0
H1026 H 0.56118 0.90186 0.89931 0.0
H1027 H 0.62552 0.95229 0.90703 0.0
O1028 O 0.52153 0.00526 0.91124 0.0
O1029 O 0.53211 0.94455 0.91491 0.0
O1030 O 0.55446 0.9721 0.88934 0.0
O1031 O 0.57598 0.98613 0.91932 0.0
H1032 H 0.4805 0.99933 0.9281 0.0
H1033 H 0.50597 0.02963 0.88803 0.0
H1034 H 0.43507 0.01333 0.9224 0.0
H1035 H 0.46008 0.04297 0.88297 0.0
H1036 H 0.56602 0.88511 0.94583 0.0
H1037 H 0.48817 0.91859 0.92067 0.0
H1038 H 0.57104 0.92231 0.9293 0.0
H1039 H 0.48461 0.88125 0.93723 0.0
H1040 H 0.43278 0.93349 0.89791 0.0
H1041 H 0.47048 0.94697 0.85766 0.0
H1042 H 0.54708 0.01643 0.97242 0.0
H1043 H 0.48312 0.96165 0.96651 0.0
H1044 H 0.6006 0.95763 0.87901 0.0
H1045 H 0.53392 0.00811 0.87244 0.0
H1046 H 0.62104 0.97613 0.85746 0.0
H1047 H 0.55553 0.0258 0.85103 0.0
H1048 H 0.62307 0.00744 0.91567 0.0
H1049 H 0.57691 0.9584 0.94309 0.0
H1050 H 0.66117 0.00093 0.93147 0.0
H1051 H 0.61587 0.95252 0.95832 0.0
H1052 H 0.5652 0.09808 0.8911 0.0
H1053 H 0.63355 0.0495 0.88405 0.0
H1054 H 0.591 0.86573 0.89285 0.0
H1055 H 0.65685 0.91712 0.90094 0.0
Li1056 Li 0.76894 0.21437 0.82874 0.0
Li1057 Li 0.77854 0.23364 0.85128 0.0
Li1058 Li 0.79121 0.18857 0.84664 0.0
Li1059 Li 0.74566 0.20011 0.84948 0.0
C1060 C 0.81744 0.24133 0.83147 0.0
N1061 N 0.84459 0.28376 0.82063 0.0
C1062 C 0.80382 0.26232 0.8254 0.0
C1063 C 0.84485 0.24193 0.83204 0.0
C1064 C 0.8179 0.28359 0.81997 0.0
C1065 C 0.85823 0.26355 0.82649 0.0
C1066 C 0.72724 0.25103 0.84781 0.0
C1067 C 0.70983 0.26833 0.86956 0.0
N1068 N 0.69168 0.2822 0.86212 0.0
C1069 C 0.70846 0.26549 0.84038 0.0
C1070 C 0.72799 0.25249 0.86252 0.0
C1071 C 0.69064 0.28112 0.8478 0.0
C1072 C 0.74117 0.22759 0.80428 0.0
N1073 N 0.76542 0.22085 0.80904 0.0
C1074 C 0.78325 0.22458 0.78581 0.0
C1075 C 0.78634 0.21926 0.80016 0.0
C1076 C 0.7584 0.23158 0.78057 0.0
C1077 C 0.73722 0.2332 0.79002 0.0
H1078 H 0.72494 0.22883 0.8116 0.0
H1079 H 0.80548 0.21403 0.80423 0.0
C1080 C 0.80767 0.26106 0.87137 0.0
N1081 N 0.79069 0.26446 0.86047 0.0
C1082 C 0.82019 0.28269 0.87742 0.0
C1083 C 0.79709 0.31092 0.86108 0.0
C1084 C 0.78476 0.28877 0.85545 0.0
C1085 C 0.81541 0.30788 0.87201 0.0
H1086 H 0.81221 0.24144 0.875 0.0
H1087 H 0.77124 0.29087 0.84673 0.0
C1088 C 0.76968 0.16082 0.82417 0.0
N1089 N 0.78662 0.12707 0.80323 0.0
C1090 C 0.75299 0.14121 0.81907 0.0
C1091 C 0.79503 0.16321 0.81864 0.0
C1092 C 0.7619 0.12435 0.80848 0.0
C1093 C 0.80321 0.14598 0.80805 0.0
C1094 C 0.77193 0.18342 0.87364 0.0
C1095 C 0.76365 0.15826 0.86973 0.0
C1096 C 0.77798 0.18863 0.88773 0.0
C1097 C 0.76154 0.13873 0.88001 0.0
C1098 C 0.77564 0.16857 0.8977 0.0
N1099 N 0.76753 0.14424 0.89366 0.0
C1100 C 0.83979 0.17344 0.85712 0.0
C1101 C 0.81432 0.13716 0.84942 0.0
C1102 C 0.85964 0.15667 0.86178 0.0
N1103 N 0.81771 0.1635 0.85111 0.0
C1104 C 0.8338 0.11966 0.85385 0.0
C1105 C 0.85674 0.12942 0.86018 0.0
H1106 H 0.84171 0.19445 0.85851 0.0
H1107 H 0.7963 0.12969 0.84492 0.0
C1108 C 0.69849 0.1722 0.84731 0.0
N1109 N 0.71303 0.18701 0.85632 0.0
C1110 C 0.67688 0.15806 0.85226 0.0
C1111 C 0.68479 0.17582 0.87551 0.0
C1112 C 0.70621 0.18967 0.87011 0.0
C1113 C 0.67025 0.15925 0.86662 0.0
H1114 H 0.70448 0.17036 0.83642 0.0
H1115 H 0.7182 0.20141 0.87709 0.0
O1116 O 0.80412 0.22053 0.83715 0.0
O1117 O 0.7448 0.23573 0.8406 0.0
O1118 O 0.76107 0.17747 0.83452 0.0
O1119 O 0.7741 0.20299 0.86381 0.0
H1120 H 0.78259 0.26236 0.82501 0.0
H1121 H 0.85567 0.22587 0.83676 0.0
H1122 H 0.80761 0.3 0.81529 0.0
H1123 H 0.87945 0.26429 0.82687 0.0
H1124 H 0.71018 0.26962 0.88094 0.0
H1125 H 0.70768 0.26465 0.82898 0.0
H1126 H 0.74242 0.24161 0.86848 0.0
H1127 H 0.67599 0.2924 0.84218 0.0
H1128 H 0.80007 0.22313 0.77886 0.0
H1129 H 0.71789 0.23915 0.78649 0.0
H1130 H 0.83436 0.27966 0.88579 0.0
H1131 H 0.79286 0.33013 0.85673 0.0
H1132 H 0.73334 0.13901 0.82326 0.0
H1133 H 0.80834 0.1781 0.82248 0.0
H1134 H 0.74917 0.1091 0.80444 0.0
H1135 H 0.82277 0.14762 0.80368 0.0
H1136 H 0.75878 0.15383 0.8589 0.0
H1137 H 0.78438 0.20802 0.89093 0.0
H1138 H 0.75512 0.1192 0.87713 0.0
H1139 H 0.78024 0.17234 0.90864 0.0
H1140 H 0.87707 0.1649 0.86662 0.0
H1141 H 0.83068 0.09873 0.85268 0.0
H1142 H 0.66652 0.14511 0.84511 0.0
H1143 H 0.68028 0.17719 0.88665 0.0
Li1144 Li 0.56631 0.04051 0.59571 0.0
Li1145 Li 0.55189 0.9949 0.60033 0.0
Li1146 Li 0.53782 0.01631 0.57857 0.0
Li1147 Li 0.52149 0.02959 0.60206 0.0
C1148 C 0.59929 0.00119 0.58212 0.0
N1149 N 0.65067 0.98611 0.57734 0.0
C1150 C 0.61495 0.99249 0.5933 0.0
C1151 C 0.6098 0.00227 0.56852 0.0
C1152 C 0.64085 0.9849 0.59066 0.0
C1153 C 0.63582 0.9946 0.56632 0.0
C1154 C 0.54499 0.03441 0.6262 0.0
C1155 C 0.51709 0.0308 0.64667 0.0
N1156 N 0.5256 0.0547 0.65115 0.0
C1157 C 0.55367 0.0588 0.63109 0.0
C1158 C 0.52674 0.02016 0.63413 0.0
C1159 C 0.54357 0.06877 0.6437 0.0
C1160 C 0.58337 0.09204 0.60013 0.0
N1161 N 0.59258 0.06732 0.59785 0.0
C1162 C 0.63679 0.08205 0.60117 0.0
C1163 C 0.61879 0.06212 0.59816 0.0
C1164 C 0.62775 0.1076 0.60388 0.0
C1165 C 0.60065 0.11254 0.6032 0.0
H1166 H 0.56244 0.09564 0.60015 0.0
H1167 H 0.62585 0.04248 0.59646 0.0
C1168 C 0.5744 0.94425 0.59831 0.0
N1169 N 0.56432 0.96211 0.6075 0.0
C1170 C 0.5885 0.92264 0.6033 0.0
C1171 C 0.57952 0.93697 0.62711 0.0
C1172 C 0.56598 0.95853 0.62166 0.0
C1173 C 0.59203 0.91936 0.61789 0.0
H1174 H 0.57292 0.9477 0.58708 0.0
H1175 H 0.55791 0.97304 0.62873 0.0
C1176 C 0.53875 0.07086 0.57623 0.0
N1177 N 0.54871 0.10774 0.55555 0.0
C1178 C 0.52211 0.09248 0.57462 0.0
C1179 C 0.56048 0.06801 0.56736 0.0
C1180 C 0.52748 0.11091 0.56409 0.0
C1181 C 0.56517 0.08686 0.55696 0.0
C1182 C 0.50995 0.96983 0.59339 0.0
C1183 C 0.51376 0.95286 0.58199 0.0
C1184 C 0.50095 0.95981 0.60623 0.0
C1185 C 0.5088 0.92605 0.58368 0.0
C1186 C 0.49624 0.93288 0.60751 0.0
N1187 N 0.50025 0.9167 0.5963 0.0
C1188 C 0.54186 0.99382 0.5513 0.0
C1189 C 0.51056 0.02809 0.55352 0.0
C1190 C 0.53546 0.99058 0.53708 0.0
N1191 N 0.52938 0.01233 0.55917 0.0
C1192 C 0.50392 0.02587 0.5393 0.0
C1193 C 0.51642 0.00689 0.53096 0.0
H1194 H 0.55658 0.9814 0.55612 0.0
H1195 H 0.50065 0.04236 0.56008 0.0
C1196 C 0.49422 0.07168 0.613 0.0
N1197 N 0.49208 0.04534 0.61104 0.0
C1198 C 0.47331 0.08593 0.61857 0.0
C1199 C 0.44842 0.0456 0.62033 0.0
C1200 C 0.46989 0.03206 0.61465 0.0
C1201 C 0.44989 0.07296 0.62206 0.0
H1202 H 0.51214 0.08167 0.61002 0.0
H1203 H 0.46867 0.01113 0.61286 0.0
O1204 O 0.57365 0.00809 0.58434 0.0
O1205 O 0.5542 0.02459 0.61369 0.0
O1206 O 0.53361 0.05262 0.58646 0.0
O1207 O 0.51535 0.99604 0.59203 0.0
H1208 H 0.60733 0.99198 0.60394 0.0
H1209 H 0.59798 0.009 0.55975 0.0
H1210 H 0.65319 0.97816 0.59921 0.0
H1211 H 0.6442 0.99535 0.55585 0.0
H1212 H 0.50276 0.02008 0.65283 0.0
H1213 H 0.56805 0.06994 0.62525 0.0
H1214 H 0.51978 0.00127 0.63053 0.0
H1215 H 0.55003 0.08769 0.64756 0.0
H1216 H 0.65755 0.07745 0.60164 0.0
H1217 H 0.59277 0.13178 0.60559 0.0
H1218 H 0.59783 0.90955 0.59583 0.0
H1219 H 0.58113 0.93473 0.63843 0.0
H1220 H 0.5052 0.09494 0.58141 0.0
H1221 H 0.57359 0.05144 0.56847 0.0
H1222 H 0.51475 0.12773 0.5627 0.0
H1223 H 0.5819 0.08489 0.55001 0.0
H1224 H 0.52068 0.96024 0.57199 0.0
H1225 H 0.49782 0.97262 0.61515 0.0
H1226 H 0.51181 0.91268 0.57497 0.0
H1227 H 0.48944 0.92484 0.61741 0.0
H1228 H 0.54539 0.97569 0.53091 0.0
H1229 H 0.48891 0.03854 0.5349 0.0
H1230 H 0.4753 0.10696 0.61997 0.0
H1231 H 0.43062 0.03499 0.62292 0.0
Li1232 Li 0.70833 0.81504 0.34492 0.0
Li1233 Li 0.75343 0.80032 0.35 0.0
Li1234 Li 0.73107 0.78665 0.32834 0.0
Li1235 Li 0.71807 0.76934 0.3513 0.0
C1236 C 0.73947 0.8484 0.33072 0.0
N1237 N 0.73532 0.90124 0.32446 0.0
C1238 C 0.75617 0.86656 0.3372 0.0
C1239 C 0.72075 0.85711 0.32101 0.0
C1240 C 0.75375 0.89319 0.3339 0.0
C1241 C 0.71893 0.88391 0.318 0.0
C1242 C 0.71313 0.79303 0.37531 0.0
C1243 C 0.71708 0.76745 0.3966 0.0
N1244 N 0.69181 0.77348 0.39995 0.0
C1245 C 0.68724 0.79908 0.37899 0.0
C1246 C 0.72824 0.7772 0.38421 0.0
C1247 C 0.67682 0.78898 0.39149 0.0
C1248 C 0.65765 0.83711 0.34621 0.0
N1249 N 0.68358 0.84251 0.34793 0.0
C1250 C 0.67349 0.88489 0.35733 0.0
C1251 C 0.69176 0.86584 0.35335 0.0
C1252 C 0.6465 0.87938 0.35636 0.0
C1253 C 0.63867 0.85531 0.35042 0.0
H1254 H 0.65167 0.81814 0.3422 0.0
H1255 H 0.71243 0.86936 0.35503 0.0
C1256 C 0.80658 0.81729 0.34932 0.0
N1257 N 0.7855 0.8128 0.3578 0.0
C1258 C 0.82829 0.83112 0.35444 0.0
C1259 C 0.80643 0.83476 0.37699 0.0
C1260 C 0.78526 0.82075 0.37147 0.0
C1261 C 0.82798 0.84065 0.36832 0.0
H1262 H 0.80586 0.81156 0.33835 0.0
H1263 H 0.76802 0.81755 0.37788 0.0
C1264 C 0.68137 0.77303 0.32503 0.0
N1265 N 0.6555 0.75277 0.30186 0.0
C1266 C 0.67847 0.74588 0.32351 0.0
C1267 C 0.67094 0.78989 0.31485 0.0
C1268 C 0.66535 0.73602 0.3117 0.0
C1269 C 0.658 0.77926 0.30318 0.0
C1270 C 0.77768 0.75749 0.34208 0.0
C1271 C 0.79317 0.75859 0.32993 0.0
C1272 C 0.78899 0.75 0.35489 0.0
C1273 C 0.81983 0.7523 0.33082 0.0
C1274 C 0.81573 0.74391 0.35535 0.0
N1275 N 0.83046 0.74518 0.34341 0.0
C1276 C 0.73898 0.79711 0.2992 0.0
C1277 C 0.73444 0.75214 0.30519 0.0
C1278 C 0.74166 0.79071 0.28496 0.0
N1279 N 0.7352 0.7779 0.30894 0.0
C1280 C 0.73691 0.74486 0.29106 0.0
C1281 C 0.74037 0.7643 0.28072 0.0
H1282 H 0.7401 0.81737 0.30248 0.0
H1283 H 0.73182 0.73724 0.3132 0.0
C1284 C 0.67636 0.74037 0.36185 0.0
N1285 N 0.70295 0.73998 0.36065 0.0
C1286 C 0.66316 0.71943 0.36811 0.0
C1287 C 0.70501 0.69821 0.37211 0.0
C1288 C 0.71744 0.71957 0.36565 0.0
C1289 C 0.67751 0.69797 0.37327 0.0
H1290 H 0.66538 0.75691 0.35778 0.0
H1291 H 0.73856 0.71974 0.36449 0.0
O1292 O 0.74147 0.82224 0.33385 0.0
O1293 O 0.72343 0.80203 0.3629 0.0
O1294 O 0.69463 0.78305 0.33635 0.0
O1295 O 0.75161 0.76384 0.34146 0.0
H1296 H 0.7707 0.86024 0.34479 0.0
H1297 H 0.70762 0.84336 0.31594 0.0
H1298 H 0.76648 0.90746 0.33887 0.0
H1299 H 0.70445 0.89093 0.31056 0.0
H1300 H 0.72848 0.75501 0.40354 0.0
H1301 H 0.67524 0.81121 0.37221 0.0
H1302 H 0.74825 0.7722 0.38147 0.0
H1303 H 0.65677 0.79339 0.39443 0.0
H1304 H 0.68049 0.90343 0.36146 0.0
H1305 H 0.61811 0.85009 0.34959 0.0
H1306 H 0.84431 0.83582 0.34736 0.0
H1307 H 0.80547 0.84198 0.38772 0.0
H1308 H 0.68657 0.73255 0.33126 0.0
H1309 H 0.67291 0.81095 0.31591 0.0
H1310 H 0.66309 0.71505 0.31034 0.0
H1311 H 0.64994 0.79207 0.29517 0.0
H1312 H 0.78477 0.76445 0.31994 0.0
H1313 H 0.77731 0.74918 0.3644 0.0
H1314 H 0.83208 0.75316 0.32151 0.0
H1315 H 0.82478 0.73823 0.36521 0.0
H1316 H 0.74504 0.80624 0.27737 0.0
H1317 H 0.73589 0.72427 0.28823 0.0
H1318 H 0.64194 0.71994 0.36887 0.0
H1319 H 0.71666 0.68181 0.37581 0.0
Li1320 Li 0.93389 0.95765 0.0949 0.0
Li1321 Li 0.94775 0.00285 0.10064 0.0
Li1322 Li 0.96229 0.98156 0.07877 0.0
Li1323 Li 0.97922 0.96771 0.10179 0.0
C1324 C 0.90025 0.9889 0.08115 0.0
N1325 N 0.84741 0.98418 0.07502 0.0
C1326 C 0.88187 0.00465 0.08811 0.0
C1327 C 0.89178 0.97088 0.071 0.0
C1328 C 0.85524 0.00195 0.08487 0.0
C1329 C 0.86497 0.96873 0.06808 0.0
C1330 C 0.95478 0.9621 0.12564 0.0
C1331 C 0.97902 0.96664 0.14734 0.0
N1332 N 0.97356 0.94118 0.15055 0.0
C1333 C 0.94929 0.93602 0.12917 0.0
C1334 C 0.96965 0.9776 0.13481 0.0
C1335 C 0.95899 0.92579 0.14181 0.0
C1336 C 0.91354 0.90644 0.09505 0.0
N1337 N 0.90706 0.93198 0.09729 0.0
C1338 C 0.86486 0.91947 0.10607 0.0
C1339 C 0.88332 0.93879 0.10274 0.0
C1340 C 0.87119 0.89282 0.10419 0.0
C1341 C 0.89593 0.88645 0.09854 0.0
H1342 H 0.9329 0.90152 0.09119 0.0
H1343 H 0.87902 0.95915 0.10496 0.0
C1344 C 0.93196 0.05644 0.10049 0.0
N1345 N 0.93463 0.03457 0.10861 0.0
C1346 C 0.91807 0.07816 0.10554 0.0
C1347 C 0.91008 0.05449 0.12722 0.0
C1348 C 0.92442 0.03339 0.12184 0.0
C1349 C 0.90639 0.07699 0.11892 0.0
H1350 H 0.93935 0.05648 0.08981 0.0
H1351 H 0.92617 0.01553 0.12792 0.0
C1352 C 0.97685 0.93198 0.07508 0.0
N1353 N 0.99817 0.90646 0.05207 0.0
C1354 C 0.00403 0.92865 0.07404 0.0
C1355 C 0.96049 0.92218 0.06449 0.0
C1356 C 0.01443 0.91571 0.06231 0.0
C1357 C 0.97165 0.9094 0.05291 0.0
C1358 C 0.99133 0.02759 0.09333 0.0
C1359 C 0.99129 0.04346 0.0813 0.0
C1360 C 0.99842 0.0383 0.10635 0.0
C1361 C 0.99817 0.06993 0.08254 0.0
C1362 C 0.00512 0.06487 0.10715 0.0
N1363 N 0.00485 0.08001 0.09533 0.0
C1364 C 0.95189 0.99285 0.05001 0.0
C1365 C 0.99668 0.98508 0.05544 0.0
C1366 C 0.95811 0.99703 0.03585 0.0
N1367 N 0.97109 0.98689 0.05944 0.0
C1368 C 0.00374 0.98887 0.04136 0.0
C1369 C 0.98433 0.99509 0.0314 0.0
H1370 H 0.93176 0.9945 0.05349 0.0
H1371 H 0.01161 0.98083 0.06322 0.0
C1372 C 0.00773 0.92564 0.11215 0.0
N1373 N 0.00843 0.95226 0.11115 0.0
C1374 C 0.0288 0.91199 0.11798 0.0
C1375 C 0.05071 0.95343 0.1221 0.0
C1376 C 0.02918 0.96635 0.11608 0.0
C1377 C 0.05081 0.92588 0.12282 0.0
H1378 H 0.99091 0.91499 0.10816 0.0
H1379 H 0.02922 0.98751 0.11511 0.0
O1380 O 0.92641 0.99115 0.08421 0.0
O1381 O 0.94609 0.97226 0.11314 0.0
O1382 O 0.9663 0.94493 0.08637 0.0
O1383 O 0.98452 0.00168 0.09235 0.0
H1384 H 0.88804 0.01869 0.09599 0.0
H1385 H 0.90573 0.95853 0.06553 0.0
H1386 H 0.84079 0.01394 0.0902 0.0
H1387 H 0.85812 0.95477 0.06031 0.0
H1388 H 0.99069 0.97836 0.1545 0.0
H1389 H 0.93787 0.92373 0.12217 0.0
H1390 H 0.9741 0.99781 0.13222 0.0
H1391 H 0.95501 0.9056 0.14464 0.0
H1392 H 0.84611 0.92531 0.11046 0.0
H1393 H 0.9022 0.86625 0.09745 0.0
H1394 H 0.91509 0.095 0.09875 0.0
H1395 H 0.90108 0.05287 0.13753 0.0
H1396 H 0.01699 0.93627 0.0821 0.0
H1397 H 0.93941 0.92451 0.06518 0.0
H1398 H 0.03544 0.91312 0.06132 0.0
H1399 H 0.95924 0.90181 0.0446 0.0
H1400 H 0.98583 0.03551 0.07115 0.0
H1401 H 0.99853 0.02629 0.11575 0.0
H1402 H 0.99812 0.08249 0.07334 0.0
H1403 H 0.0105 0.07347 0.11717 0.0
H1404 H 0.94257 0.00156 0.02843 0.0
H1405 H 0.0242 0.98739 0.03832 0.0
H1406 H 0.02806 0.89075 0.11856 0.0
H1407 H 0.0674 0.96473 0.12575 0.0
Li1408 Li 0.72175 0.73131 0.84936 0.0
Li1409 Li 0.70651 0.68843 0.84261 0.0
Li1410 Li 0.75258 0.69478 0.84716 0.0
Li1411 Li 0.73144 0.7133 0.82553 0.0
C1412 C 0.7059 0.69928 0.87157 0.0
N1413 N 0.67047 0.70093 0.89362 0.0
C1414 C 0.6804 0.70856 0.86936 0.0
C1415 C 0.71339 0.69084 0.885 0.0
C1416 C 0.66277 0.70924 0.88064 0.0
C1417 C 0.69519 0.69183 0.89601 0.0
C1418 C 0.67424 0.72559 0.82689 0.0
C1419 C 0.64722 0.71842 0.80636 0.0
N1420 N 0.62728 0.73178 0.81265 0.0
C1421 C 0.65354 0.73946 0.83311 0.0
C1422 C 0.67113 0.71515 0.81337 0.0
C1423 C 0.62993 0.74228 0.82576 0.0
C1424 C 0.70039 0.78153 0.85136 0.0
N1425 N 0.71254 0.76262 0.85907 0.0
C1426 C 0.70485 0.78651 0.88035 0.0
C1427 C 0.71564 0.76503 0.87325 0.0
C1428 C 0.69086 0.80559 0.87274 0.0
C1429 C 0.68935 0.80333 0.85801 0.0
H1430 H 0.69831 0.7791 0.84008 0.0
H1431 H 0.72563 0.74983 0.87913 0.0
C1432 C 0.68574 0.64315 0.85472 0.0
N1433 N 0.67899 0.6633 0.84603 0.0
C1434 C 0.66687 0.62514 0.85924 0.0
C1435 C 0.63431 0.64882 0.84578 0.0
C1436 C 0.65391 0.66614 0.84133 0.0
C1437 C 0.64058 0.62829 0.85509 0.0
H1438 H 0.70575 0.64146 0.85843 0.0
H1439 H 0.64874 0.68222 0.83452 0.0
C1440 C 0.77395 0.74585 0.84646 0.0
N1441 N 0.80995 0.77571 0.86122 0.0
C1442 C 0.78901 0.76473 0.83947 0.0
C1443 C 0.77716 0.74215 0.86096 0.0
C1444 C 0.80712 0.77963 0.84711 0.0
C1445 C 0.79547 0.75745 0.86823 0.0
C1446 C 0.72937 0.65079 0.82809 0.0
C1447 C 0.74126 0.62989 0.8352 0.0
C1448 C 0.7096 0.6457 0.81823 0.0
C1449 C 0.73282 0.60426 0.83252 0.0
C1450 C 0.70169 0.61981 0.81586 0.0
N1451 N 0.71335 0.59979 0.823 0.0
C1452 C 0.78018 0.6614 0.86513 0.0
C1453 C 0.8073 0.68367 0.84869 0.0
C1454 C 0.80163 0.64723 0.87018 0.0
N1455 N 0.78332 0.67886 0.85444 0.0
C1456 C 0.82939 0.67006 0.85351 0.0
C1457 C 0.82657 0.65114 0.8642 0.0
H1458 H 0.76079 0.65782 0.86937 0.0
H1459 H 0.80916 0.69773 0.84019 0.0
C1460 C 0.73571 0.74829 0.8028 0.0
N1461 N 0.73681 0.72248 0.80641 0.0
C1462 C 0.73971 0.75593 0.78882 0.0
C1463 C 0.74567 0.71025 0.78257 0.0
C1464 C 0.74168 0.7035 0.79668 0.0
C1465 C 0.74487 0.73678 0.77853 0.0
H1466 H 0.73169 0.76289 0.8108 0.0
H1467 H 0.74249 0.68314 0.79989 0.0
O1468 O 0.72357 0.69843 0.8607 0.0
O1469 O 0.69755 0.72278 0.83393 0.0
O1470 O 0.75608 0.73122 0.8391 0.0
O1471 O 0.73703 0.67607 0.83078 0.0
H1472 H 0.67427 0.71512 0.85906 0.0
H1473 H 0.73309 0.68368 0.8869 0.0
H1474 H 0.64298 0.71638 0.87906 0.0
H1475 H 0.70073 0.68538 0.90646 0.0
H1476 H 0.64454 0.71035 0.79591 0.0
H1477 H 0.65561 0.7479 0.84351 0.0
H1478 H 0.68695 0.70464 0.80831 0.0
H1479 H 0.61372 0.75286 0.83047 0.0
H1480 H 0.70686 0.78787 0.8917 0.0
H1481 H 0.67869 0.81763 0.85178 0.0
H1482 H 0.67276 0.60921 0.8661 0.0
H1483 H 0.61428 0.65206 0.84236 0.0
H1484 H 0.78669 0.76783 0.82824 0.0
H1485 H 0.76567 0.72765 0.86656 0.0
H1486 H 0.81892 0.79432 0.84184 0.0
H1487 H 0.79816 0.7548 0.87946 0.0
H1488 H 0.75672 0.6334 0.84277 0.0
H1489 H 0.70026 0.66158 0.81258 0.0
H1490 H 0.74174 0.58792 0.83802 0.0
H1491 H 0.68626 0.61562 0.80835 0.0
H1492 H 0.79857 0.63269 0.87836 0.0
H1493 H 0.84836 0.67405 0.84882 0.0
H1494 H 0.7385 0.77654 0.78606 0.0
H1495 H 0.74964 0.69496 0.77492 0.0
Li1496 Li 0.51817 0.47103 0.09899 0.0
Li1497 Li 0.56095 0.45566 0.09203 0.0
Li1498 Li 0.55493 0.50169 0.09689 0.0
Li1499 Li 0.53602 0.48116 0.07514 0.0
C1500 C 0.55032 0.45476 0.12112 0.0
N1501 N 0.54841 0.41947 0.14322 0.0
C1502 C 0.54146 0.42912 0.11887 0.0
C1503 C 0.55821 0.46246 0.13461 0.0
C1504 C 0.54065 0.41156 0.13017 0.0
C1505 C 0.55709 0.44433 0.14565 0.0
C1506 C 0.52286 0.42394 0.07643 0.0
C1507 C 0.52841 0.3967 0.05584 0.0
N1508 N 0.51503 0.37704 0.06236 0.0
C1509 C 0.50896 0.40352 0.08289 0.0
C1510 C 0.53251 0.42058 0.06275 0.0
C1511 C 0.50529 0.37994 0.07563 0.0
C1512 C 0.46756 0.45085 0.10041 0.0
N1513 N 0.48667 0.46175 0.10851 0.0
C1514 C 0.46206 0.45303 0.12945 0.0
C1515 C 0.48409 0.46362 0.12275 0.0
C1516 C 0.44249 0.4407 0.12138 0.0
C1517 C 0.44524 0.44006 0.10665 0.0
H1518 H 0.47021 0.4496 0.08912 0.0
H1519 H 0.49949 0.47256 0.12896 0.0
C1520 C 0.60646 0.43409 0.10364 0.0
N1521 N 0.58601 0.42789 0.09503 0.0
C1522 C 0.62477 0.41501 0.10752 0.0
C1523 C 0.60057 0.38329 0.09376 0.0
C1524 C 0.58297 0.40309 0.08995 0.0
C1525 C 0.62182 0.3891 0.10269 0.0
H1526 H 0.60821 0.45383 0.10774 0.0
H1527 H 0.56653 0.39829 0.08331 0.0
C1528 C 0.5041 0.52347 0.09649 0.0
N1529 N 0.47489 0.55947 0.11162 0.0
C1530 C 0.48565 0.53927 0.08963 0.0
C1531 C 0.50768 0.52594 0.11104 0.0
C1532 C 0.47108 0.55737 0.09747 0.0
C1533 C 0.49272 0.54426 0.1185 0.0
C1534 C 0.59833 0.47831 0.0773 0.0
C1535 C 0.61971 0.48941 0.08437 0.0
C1536 C 0.60262 0.4588 0.0672 0.0
C1537 C 0.64505 0.48047 0.08136 0.0
C1538 C 0.62825 0.45036 0.06451 0.0
N1539 N 0.64875 0.46126 0.07159 0.0
C1540 C 0.58906 0.52837 0.11483 0.0
C1541 C 0.56636 0.55635 0.09898 0.0
C1542 C 0.60349 0.54952 0.12005 0.0
N1543 N 0.57124 0.53209 0.10436 0.0
C1544 C 0.58024 0.57815 0.10398 0.0
C1545 C 0.59948 0.57475 0.11445 0.0
H1546 H 0.59267 0.50877 0.11878 0.0
H1547 H 0.55203 0.55868 0.09066 0.0
C1548 C 0.50072 0.48552 0.05256 0.0
N1549 N 0.52656 0.48682 0.05607 0.0
C1550 C 0.49281 0.48965 0.03864 0.0
C1551 C 0.53832 0.49616 0.0322 0.0
C1552 C 0.54534 0.49203 0.04627 0.0
C1553 C 0.51174 0.49516 0.02828 0.0
H1554 H 0.48628 0.48122 0.06061 0.0
H1555 H 0.56574 0.49299 0.04938 0.0
O1556 O 0.55119 0.47239 0.11024 0.0
O1557 O 0.52651 0.44721 0.08338 0.0
O1558 O 0.51841 0.50561 0.08894 0.0
O1559 O 0.57333 0.4864 0.08033 0.0
H1560 H 0.53532 0.42285 0.10852 0.0
H1561 H 0.56502 0.48228 0.13654 0.0
H1562 H 0.53385 0.39166 0.12857 0.0
H1563 H 0.5631 0.45003 0.15615 0.0
H1564 H 0.53585 0.39382 0.04527 0.0
H1565 H 0.50112 0.4058 0.09342 0.0
H1566 H 0.54305 0.43617 0.05752 0.0
H1567 H 0.49468 0.36396 0.08052 0.0
H1568 H 0.46058 0.45393 0.14083 0.0
H1569 H 0.43088 0.43027 0.10007 0.0
H1570 H 0.64083 0.42041 0.11442 0.0
H1571 H 0.59696 0.36345 0.09014 0.0
H1572 H 0.48264 0.53754 0.07837 0.0
H1573 H 0.52184 0.51387 0.11654 0.0
H1574 H 0.45674 0.56975 0.0923 0.0
H1575 H 0.49529 0.54638 0.12977 0.0
H1576 H 0.61679 0.50464 0.09215 0.0
H1577 H 0.58634 0.45006 0.0616 0.0
H1578 H 0.66176 0.48877 0.08681 0.0
H1579 H 0.63182 0.43512 0.0568 0.0
H1580 H 0.61827 0.54601 0.12804 0.0
H1581 H 0.57619 0.59736 0.09959 0.0
H1582 H 0.47217 0.48827 0.03597 0.0
H1583 H 0.55345 0.50041 0.0245 0.0
Li1584 Li 0.79192 0.30929 0.34438 0.0
Li1585 Li 0.77623 0.26537 0.35019 0.0
Li1586 Li 0.76673 0.28661 0.32645 0.0
Li1587 Li 0.74428 0.3022 0.34771 0.0
C1588 C 0.82724 0.27904 0.33314 0.0
N1589 N 0.88064 0.28689 0.33023 0.0
C1590 C 0.84445 0.27079 0.34373 0.0
C1591 C 0.83716 0.29109 0.32103 0.0
C1592 C 0.87139 0.27498 0.34207 0.0
C1593 C 0.86423 0.29494 0.31977 0.0
C1594 C 0.76474 0.29269 0.37527 0.0
C1595 C 0.73139 0.27671 0.3912 0.0
N1596 N 0.74684 0.28334 0.40234 0.0
C1597 C 0.78018 0.29955 0.38689 0.0
C1598 C 0.74008 0.28129 0.37745 0.0
C1599 C 0.77083 0.29456 0.40048 0.0
C1600 C 0.82572 0.35396 0.34022 0.0
N1601 N 0.82009 0.33273 0.34839 0.0
C1602 C 0.85374 0.34446 0.36476 0.0
C1603 C 0.83381 0.32759 0.36036 0.0
C1604 C 0.8597 0.36673 0.35668 0.0
C1605 C 0.8458 0.37124 0.34414 0.0
H1606 H 0.81445 0.3577 0.3308 0.0
H1607 H 0.82916 0.31035 0.36652 0.0
C1608 C 0.80027 0.21658 0.34996 0.0
N1609 N 0.78675 0.23291 0.35867 0.0
C1610 C 0.81236 0.19405 0.35525 0.0
C1611 C 0.79529 0.20469 0.37831 0.0
C1612 C 0.78371 0.22716 0.37259 0.0
C1613 C 0.81023 0.18805 0.36966 0.0
H1614 H 0.80263 0.2217 0.33896 0.0
H1615 H 0.77308 0.24024 0.37942 0.0
C1616 C 0.75593 0.33825 0.32176 0.0
N1617 N 0.74243 0.36766 0.29837 0.0
C1618 C 0.73082 0.34919 0.32067 0.0
C1619 C 0.77423 0.34243 0.31101 0.0
C1620 C 0.72437 0.36397 0.30876 0.0
C1621 C 0.767 0.35729 0.29925 0.0
C1622 C 0.71997 0.25285 0.33921 0.0
C1623 C 0.70207 0.25588 0.32815 0.0
C1624 C 0.71452 0.2351 0.35006 0.0
C1625 C 0.67866 0.24156 0.32833 0.0
C1626 C 0.69089 0.22115 0.34986 0.0
N1627 N 0.67359 0.22467 0.3391 0.0
C1628 C 0.77951 0.26156 0.30089 0.0
C1629 C 0.74256 0.28975 0.29927 0.0
C1630 C 0.77702 0.25476 0.28668 0.0
N1631 N 0.76249 0.2789 0.30686 0.0
C1632 C 0.73968 0.28391 0.28498 0.0
C1633 C 0.75704 0.26621 0.27858 0.0
H1634 H 0.79492 0.25288 0.30721 0.0
H1635 H 0.72875 0.30281 0.30431 0.0
C1636 C 0.71852 0.33829 0.36439 0.0
N1637 N 0.71354 0.31893 0.3549 0.0
C1638 C 0.698 0.3528 0.37018 0.0
C1639 C 0.66743 0.32763 0.35612 0.0
C1640 C 0.68861 0.31339 0.35066 0.0
C1641 C 0.67208 0.34752 0.36606 0.0
H1642 H 0.73858 0.34265 0.36733 0.0
H1643 H 0.68514 0.29835 0.34289 0.0
O1644 O 0.80076 0.27567 0.33472 0.0
O1645 O 0.77344 0.29791 0.36189 0.0
O1646 O 0.76252 0.32362 0.33332 0.0
O1647 O 0.74318 0.26639 0.33911 0.0
H1648 H 0.83705 0.26159 0.35322 0.0
H1649 H 0.8241 0.29747 0.31272 0.0
H1650 H 0.88493 0.26886 0.35022 0.0
H1651 H 0.87219 0.30434 0.31048 0.0
H1652 H 0.71237 0.26786 0.39301 0.0
H1653 H 0.79915 0.3087 0.38548 0.0
H1654 H 0.72776 0.27603 0.36864 0.0
H1655 H 0.78263 0.29969 0.40956 0.0
H1656 H 0.86442 0.34017 0.37437 0.0
H1657 H 0.85002 0.38824 0.33766 0.0
H1658 H 0.82422 0.18215 0.34826 0.0
H1659 H 0.79313 0.20071 0.38947 0.0
H1660 H 0.71644 0.34623 0.32891 0.0
H1661 H 0.79367 0.33399 0.31164 0.0
H1662 H 0.70499 0.37249 0.30775 0.0
H1663 H 0.7809 0.36051 0.2908 0.0
H1664 H 0.70606 0.26935 0.31962 0.0
H1665 H 0.72842 0.23204 0.35853 0.0
H1666 H 0.66453 0.24388 0.31991 0.0
H1667 H 0.68636 0.20746 0.35824 0.0
H1668 H 0.79065 0.24091 0.28202 0.0
H1669 H 0.72385 0.2928 0.27902 0.0
H1670 H 0.70243 0.36847 0.37753 0.0
H1671 H 0.64767 0.32326 0.35259 0.0
Li1672 Li 0.94026 0.54302 0.59293 0.0
Li1673 Li 0.98356 0.52868 0.59874 0.0
Li1674 Li 0.96412 0.51782 0.57542 0.0
Li1675 Li 0.94738 0.49688 0.59791 0.0
C1676 C 0.97216 0.57658 0.57699 0.0
N1677 N 0.97022 0.62543 0.56431 0.0
C1678 C 0.97991 0.59897 0.58445 0.0
C1679 C 0.96378 0.57902 0.56301 0.0
C1680 C 0.97866 0.6235 0.57787 0.0
C1681 C 0.96286 0.60389 0.55681 0.0
C1682 C 0.95691 0.54002 0.62291 0.0
C1683 C 0.9634 0.54063 0.64808 0.0
N1684 N 0.96812 0.56691 0.64747 0.0
C1685 C 0.9617 0.56703 0.62254 0.0
C1686 C 0.95766 0.52668 0.63577 0.0
C1687 C 0.96738 0.58027 0.63506 0.0
C1688 C 0.90079 0.56684 0.6087 0.0
N1689 N 0.9145 0.56999 0.59651 0.0
C1690 C 0.89231 0.61058 0.59197 0.0
C1691 C 0.91005 0.59099 0.58795 0.0
C1692 C 0.87896 0.60837 0.60486 0.0
C1693 C 0.88303 0.58595 0.61315 0.0
H1694 H 0.90398 0.54961 0.61513 0.0
H1695 H 0.92035 0.59282 0.57809 0.0
C1696 C 0.03035 0.55674 0.60069 0.0
N1697 N 0.01546 0.53894 0.60776 0.0
C1698 C 0.05224 0.56803 0.60711 0.0
C1699 C 0.04408 0.54135 0.62772 0.0
C1700 C 0.02216 0.53069 0.62092 0.0
C1701 C 0.05904 0.56078 0.62092 0.0
H1702 H 0.02476 0.56278 0.59019 0.0
H1703 H 0.01016 0.51637 0.62631 0.0
C1704 C 0.90254 0.52082 0.57916 0.0
N1705 N 0.85259 0.54029 0.57467 0.0
C1706 C 0.88206 0.51397 0.58825 0.0
C1707 C 0.8976 0.53743 0.56773 0.0
C1708 C 0.85694 0.52405 0.58582 0.0
C1709 C 0.87222 0.5471 0.56565 0.0
C1710 C 0.99973 0.47685 0.59563 0.0
C1711 C 0.0204 0.46535 0.58816 0.0
C1712 C 0.99629 0.47098 0.6099 0.0
C1713 C 0.03733 0.44807 0.59513 0.0
C1714 C 0.01364 0.45363 0.61649 0.0
N1715 N 0.03363 0.44262 0.60903 0.0
C1716 C 0.99806 0.51472 0.55237 0.0
C1717 C 0.95373 0.50481 0.54678 0.0
C1718 C 0.00557 0.51076 0.53837 0.0
N1719 N 0.97254 0.51173 0.55625 0.0
C1720 C 0.96035 0.50086 0.53264 0.0
C1721 C 0.98658 0.50372 0.52833 0.0
H1722 H 0.01253 0.52031 0.56016 0.0
H1723 H 0.93362 0.50239 0.5502 0.0
C1724 C 0.91572 0.47036 0.61711 0.0
N1725 N 0.93176 0.46656 0.60586 0.0
C1726 C 0.90158 0.4494 0.62276 0.0
C1727 C 0.92126 0.42083 0.60534 0.0
C1728 C 0.93499 0.44243 0.59998 0.0
C1729 C 0.90414 0.42425 0.61682 0.0
H1730 H 0.91322 0.4899 0.62138 0.0
H1731 H 0.94775 0.4401 0.59095 0.0
O1732 O 0.97364 0.55235 0.58318 0.0
O1733 O 0.95182 0.52658 0.61072 0.0
O1734 O 0.92742 0.51184 0.58165 0.0
O1735 O 0.98303 0.49381 0.58896 0.0
H1736 H 0.98698 0.59746 0.59516 0.0
H1737 H 0.95786 0.56197 0.55702 0.0
H1738 H 0.98451 0.64098 0.58354 0.0
H1739 H 0.95627 0.60606 0.54603 0.0
H1740 H 0.96416 0.53055 0.65811 0.0
H1741 H 0.96106 0.57762 0.61268 0.0
H1742 H 0.95408 0.50574 0.63623 0.0
H1743 H 0.9712 0.60117 0.63492 0.0
H1744 H 0.88976 0.62767 0.58531 0.0
H1745 H 0.87286 0.58344 0.62309 0.0
H1746 H 0.06321 0.58295 0.60149 0.0
H1747 H 0.04903 0.53471 0.63823 0.0
H1748 H 0.88557 0.50124 0.59718 0.0
H1749 H 0.91327 0.54311 0.56066 0.0
H1750 H 0.84093 0.51905 0.59282 0.0
H1751 H 0.86815 0.56012 0.55691 0.0
H1752 H 0.02331 0.46974 0.5771 0.0
H1753 H 0.98052 0.47986 0.61587 0.0
H1754 H 0.05341 0.439 0.58948 0.0
H1755 H 0.01125 0.44896 0.62754 0.0
H1756 H 0.02593 0.51352 0.53539 0.0
H1757 H 0.94521 0.49537 0.52518 0.0
H1758 H 0.88802 0.45309 0.63133 0.0
H1759 H 0.92366 0.40176 0.60044 0.0
Li1760 Li 0.75434 0.30211 0.65256 0.0
Li1761 Li 0.7337 0.28308 0.67421 0.0
Li1762 Li 0.72409 0.26506 0.65036 0.0
Li1763 Li 0.70825 0.30773 0.6572 0.0
C1764 C 0.77657 0.25142 0.65307 0.0
N1765 N 0.81292 0.22241 0.63807 0.0
C1766 C 0.79208 0.23276 0.65994 0.0
C1767 C 0.7795 0.25533 0.63856 0.0
C1768 C 0.81036 0.21829 0.65217 0.0
C1769 C 0.79799 0.24046 0.63117 0.0
C1770 C 0.73022 0.34549 0.67175 0.0
C1771 C 0.70191 0.3756 0.68418 0.0
N1772 N 0.71243 0.39591 0.67677 0.0
C1773 C 0.74092 0.36668 0.66435 0.0
C1774 C 0.71073 0.34998 0.68184 0.0
C1775 C 0.73161 0.39202 0.66701 0.0
C1776 C 0.7813 0.33589 0.6345 0.0
N1777 N 0.78475 0.31866 0.64527 0.0
C1778 C 0.83056 0.32872 0.64634 0.0
C1779 C 0.80877 0.31456 0.65113 0.0
C1780 C 0.82737 0.34743 0.63557 0.0
C1781 C 0.80243 0.35057 0.62947 0.0
H1782 H 0.76188 0.33887 0.63016 0.0
H1783 H 0.81089 0.30068 0.65968 0.0
C1784 C 0.73776 0.24792 0.69686 0.0
N1785 N 0.73901 0.27376 0.69333 0.0
C1786 C 0.74092 0.24015 0.71088 0.0
C1787 C 0.7467 0.28574 0.71733 0.0
C1788 C 0.74356 0.29262 0.70317 0.0
C1789 C 0.74518 0.25922 0.72134 0.0
H1790 H 0.73425 0.23338 0.68875 0.0
H1791 H 0.7445 0.31302 0.70003 0.0
C1792 C 0.70773 0.29663 0.62817 0.0
N1793 N 0.67265 0.29335 0.60601 0.0
C1794 C 0.68218 0.28757 0.63047 0.0
C1795 C 0.71545 0.30402 0.6146 0.0
C1796 C 0.66472 0.28606 0.61914 0.0
C1797 C 0.69742 0.30222 0.60354 0.0
C1798 C 0.67671 0.26974 0.67291 0.0
C1799 C 0.65615 0.25586 0.66657 0.0
C1800 C 0.67354 0.27957 0.68657 0.0
C1801 C 0.63267 0.25232 0.67394 0.0
C1802 C 0.64976 0.2756 0.6936 0.0
N1803 N 0.62998 0.26219 0.68719 0.0
C1804 C 0.70269 0.21493 0.64846 0.0
C1805 C 0.71813 0.23098 0.62652 0.0
C1806 C 0.69143 0.19316 0.64189 0.0
N1807 N 0.715 0.23364 0.64069 0.0
C1808 C 0.70724 0.20943 0.6195 0.0
C1809 C 0.69298 0.19062 0.62717 0.0
H1810 H 0.70062 0.21752 0.65973 0.0
H1811 H 0.72825 0.24602 0.62058 0.0
C1812 C 0.6859 0.35254 0.64506 0.0
N1813 N 0.68021 0.33247 0.65404 0.0
C1814 C 0.66638 0.37023 0.64096 0.0
C1815 C 0.63541 0.34633 0.65537 0.0
C1816 C 0.65561 0.32938 0.6594 0.0
C1817 C 0.64074 0.36685 0.64596 0.0
H1818 H 0.7055 0.35434 0.64077 0.0
H1819 H 0.65128 0.31345 0.66646 0.0
O1820 O 0.75853 0.26562 0.66055 0.0
O1821 O 0.73864 0.32047 0.66903 0.0
O1822 O 0.72532 0.29802 0.63905 0.0
O1823 O 0.69991 0.27324 0.66586 0.0
H1824 H 0.78998 0.22949 0.67116 0.0
H1825 H 0.76766 0.26966 0.63306 0.0
H1826 H 0.82251 0.20377 0.65735 0.0
H1827 H 0.80048 0.24328 0.61994 0.0
H1828 H 0.68667 0.37932 0.69187 0.0
H1829 H 0.75612 0.36362 0.65657 0.0
H1830 H 0.70227 0.33386 0.68768 0.0
H1831 H 0.7396 0.40858 0.6613 0.0
H1832 H 0.84956 0.32533 0.65113 0.0
H1833 H 0.79909 0.36492 0.62123 0.0
H1834 H 0.74023 0.21945 0.71348 0.0
H1835 H 0.74993 0.30102 0.72508 0.0
H1836 H 0.67588 0.28177 0.64087 0.0
H1837 H 0.73521 0.31095 0.61263 0.0
H1838 H 0.64489 0.27907 0.62078 0.0
H1839 H 0.70315 0.30783 0.59298 0.0
H1840 H 0.65822 0.24795 0.65604 0.0
H1841 H 0.68917 0.29023 0.69169 0.0
H1842 H 0.61658 0.24171 0.66914 0.0
H1843 H 0.64704 0.28317 0.70415 0.0
H1844 H 0.6806 0.17911 0.64819 0.0
H1845 H 0.70941 0.20784 0.60818 0.0
H1846 H 0.67101 0.38574 0.63354 0.0
H1847 H 0.61572 0.34319 0.65936 0.0
Li1848 Li 0.96468 0.4826 0.92445 0.0
Li1849 Li 0.94847 0.50374 0.902 0.0
Li1850 Li 0.94179 0.45755 0.90656 0.0
Li1851 Li 0.98519 0.47251 0.90129 0.0
C1852 C 0.90314 0.47932 0.92009 0.0
N1853 N 0.85289 0.46015 0.92395 0.0
C1854 C 0.88267 0.48791 0.91143 0.0
C1855 C 0.89803 0.46117 0.93079 0.0
C1856 C 0.8574 0.47794 0.91353 0.0
C1857 C 0.8725 0.45165 0.93255 0.0
C1858 C 0.00037 0.52448 0.90481 0.0
C1859 C 0.0147 0.54789 0.88409 0.0
N1860 N 0.03412 0.55934 0.89179 0.0
C1861 C 0.02048 0.53643 0.91251 0.0
C1862 C 0.99743 0.5302 0.89049 0.0
C1863 C 0.03734 0.55402 0.90574 0.0
C1864 C 0.99772 0.48661 0.94782 0.0
N1865 N 0.97223 0.48852 0.94371 0.0
C1866 C 0.95883 0.49869 0.96722 0.0
C1867 C 0.95283 0.49448 0.95302 0.0
C1868 C 0.98504 0.49701 0.97178 0.0
C1869 C 0.00461 0.4908 0.96188 0.0
H1870 H 0.01268 0.48187 0.94012 0.0
H1871 H 0.93272 0.49586 0.94943 0.0
C1872 C 0.91719 0.53012 0.88263 0.0
N1873 N 0.93278 0.53399 0.89406 0.0
C1874 C 0.90287 0.55092 0.87696 0.0
C1875 C 0.92151 0.57952 0.89469 0.0
C1876 C 0.93543 0.55807 0.90008 0.0
C1877 C 0.90479 0.57599 0.88305 0.0
H1878 H 0.91515 0.51061 0.87826 0.0
H1879 H 0.94784 0.56045 0.90925 0.0
C1880 C 0.97443 0.42421 0.92286 0.0
N1881 N 0.97426 0.3755 0.93574 0.0
C1882 C 0.98417 0.40223 0.91573 0.0
C1883 C 0.96495 0.42146 0.93662 0.0
C1884 C 0.9838 0.37776 0.9224 0.0
C1885 C 0.96495 0.39666 0.94292 0.0
C1886 C 0.9583 0.45982 0.87713 0.0
C1887 C 0.96345 0.43295 0.87822 0.0
C1888 C 0.95812 0.47181 0.86388 0.0
C1889 C 0.96838 0.41846 0.866 0.0
C1890 C 0.96316 0.45665 0.8519 0.0
N1891 N 0.96815 0.43051 0.8532 0.0
C1892 C 0.90063 0.43601 0.89124 0.0
C1893 C 0.91421 0.40744 0.90954 0.0
C1894 C 0.88254 0.41751 0.88641 0.0
N1895 N 0.91641 0.43055 0.90243 0.0
C1896 C 0.89656 0.38823 0.90497 0.0
C1897 C 0.88084 0.39295 0.89307 0.0
H1898 H 0.90234 0.45473 0.88593 0.0
H1899 H 0.92624 0.4036 0.91863 0.0
C1900 C 0.03278 0.44589 0.8999 0.0
N1901 N 0.01746 0.46292 0.89257 0.0
C1902 C 0.05502 0.43493 0.89369 0.0
C1903 C 0.04643 0.4606 0.87276 0.0
C1904 C 0.02405 0.47079 0.87933 0.0
C1905 C 0.06183 0.44182 0.87982 0.0
H1906 H 0.02724 0.44016 0.91046 0.0
H1907 H 0.01163 0.48446 0.87372 0.0
O1908 O 0.92815 0.48824 0.91791 0.0
O1909 O 0.98381 0.50713 0.91129 0.0
O1910 O 0.97494 0.4484 0.91657 0.0
O1911 O 0.95395 0.47453 0.88897 0.0
H1912 H 0.88628 0.50193 0.90309 0.0
H1913 H 0.91365 0.45426 0.93756 0.0
H1914 H 0.84139 0.4843 0.90685 0.0
H1915 H 0.86829 0.43745 0.94073 0.0
H1916 H 0.01268 0.55247 0.87301 0.0
H1917 H 0.02301 0.53213 0.92361 0.0
H1918 H 0.98211 0.52097 0.88433 0.0
H1919 H 0.05299 0.56344 0.91156 0.0
H1920 H 0.94309 0.50289 0.97456 0.0
H1921 H 0.02504 0.48942 0.96496 0.0
H1922 H 0.88962 0.54714 0.86826 0.0
H1923 H 0.9234 0.59854 0.89971 0.0
H1924 H 0.99201 0.40399 0.90518 0.0
H1925 H 0.95755 0.4382 0.94237 0.0
H1926 H 0.99117 0.36058 0.91698 0.0
H1927 H 0.95754 0.39423 0.95353 0.0
H1928 H 0.96368 0.42341 0.88838 0.0
H1929 H 0.95434 0.49265 0.86288 0.0
H1930 H 0.97242 0.39764 0.86669 0.0
H1931 H 0.96317 0.46567 0.84158 0.0
H1932 H 0.87018 0.42232 0.87749 0.0
H1933 H 0.89573 0.3696 0.91047 0.0
H1934 H 0.06626 0.42051 0.89952 0.0
H1935 H 0.05136 0.46706 0.86221 0.0
Li1936 Li 0.76863 0.71296 0.17471 0.0
Li1937 Li 0.74781 0.69559 0.15258 0.0
Li1938 Li 0.79371 0.68896 0.15732 0.0
Li1939 Li 0.77895 0.73222 0.15128 0.0
C1940 C 0.77058 0.65065 0.17106 0.0
N1941 N 0.78676 0.59942 0.17519 0.0
C1942 C 0.75989 0.63038 0.16294 0.0
C1943 C 0.78924 0.64482 0.1814 0.0
C1944 C 0.76838 0.60462 0.16516 0.0
C1945 C 0.79725 0.61881 0.18328 0.0
C1946 C 0.72673 0.74711 0.15425 0.0
C1947 C 0.70427 0.75981 0.13293 0.0
N1948 N 0.6914 0.7789 0.14021 0.0
C1949 C 0.71332 0.76684 0.16152 0.0
C1950 C 0.72221 0.74353 0.13984 0.0
C1951 C 0.69551 0.78271 0.15423 0.0
C1952 C 0.76445 0.74713 0.19768 0.0
N1953 N 0.76269 0.72146 0.19388 0.0
C1954 C 0.7528 0.70895 0.21756 0.0
C1955 C 0.75696 0.70241 0.20343 0.0
C1956 C 0.7543 0.73535 0.22179 0.0
C1957 C 0.76031 0.75456 0.21167 0.0
H1958 H 0.76916 0.76179 0.18982 0.0
H1959 H 0.75566 0.68215 0.20007 0.0
C1960 C 0.72109 0.66453 0.13319 0.0
N1961 N 0.71745 0.6798 0.14476 0.0
C1962 C 0.7002 0.65034 0.12753 0.0
C1963 C 0.67195 0.66835 0.1456 0.0
C1964 C 0.69349 0.68219 0.15097 0.0
C1965 C 0.67525 0.65203 0.13379 0.0
H1966 H 0.7405 0.66263 0.12868 0.0
H1967 H 0.69129 0.69435 0.16024 0.0
C1968 C 0.8263 0.72332 0.17387 0.0
N1969 N 0.87336 0.72529 0.18839 0.0
C1970 C 0.84827 0.73536 0.16781 0.0
C1971 C 0.82825 0.71255 0.18739 0.0
C1972 C 0.87189 0.73607 0.1753 0.0
C1973 C 0.85221 0.71368 0.19454 0.0
C1974 C 0.79442 0.70274 0.12838 0.0
C1975 C 0.82049 0.70994 0.13088 0.0
C1976 C 0.78592 0.69844 0.11457 0.0
C1977 C 0.8377 0.71263 0.1195 0.0
C1978 C 0.80372 0.70134 0.10346 0.0
N1979 N 0.82903 0.70831 0.10614 0.0
C1980 C 0.81428 0.64507 0.14385 0.0
C1981 C 0.84508 0.66376 0.15963 0.0
C1982 C 0.83272 0.62663 0.13934 0.0
N1983 N 0.82076 0.66338 0.15369 0.0
C1984 C 0.86428 0.64593 0.15527 0.0
C1985 C 0.85836 0.62738 0.14478 0.0
H1986 H 0.7948 0.64512 0.13929 0.0
H1987 H 0.84997 0.67814 0.16751 0.0
C1988 C 0.80424 0.78056 0.14947 0.0
N1989 N 0.78857 0.76397 0.14206 0.0
C1990 C 0.81521 0.80252 0.14296 0.0
C1991 C 0.7922 0.79102 0.12154 0.0
C1992 C 0.78205 0.76894 0.12841 0.0
C1993 C 0.80968 0.80775 0.12871 0.0
H1994 H 0.80891 0.77625 0.16034 0.0
H1995 H 0.7695 0.75545 0.12275 0.0
O1996 O 0.76295 0.67608 0.1688 0.0
O1997 O 0.74428 0.73151 0.16125 0.0
O1998 O 0.80293 0.72269 0.16674 0.0
O1999 O 0.77708 0.70033 0.13933 0.0
H2000 H 0.74535 0.63449 0.15494 0.0
H2001 H 0.79765 0.6602 0.18781 0.0
H2002 H 0.7604 0.58876 0.15889 0.0
H2003 H 0.81183 0.61405 0.19117 0.0
H2004 H 0.7006 0.75729 0.12178 0.0
H2005 H 0.71666 0.76985 0.17268 0.0
H2006 H 0.73251 0.72843 0.13402 0.0
H2007 H 0.68498 0.79807 0.15972 0.0
H2008 H 0.74818 0.69361 0.22508 0.0
H2009 H 0.76209 0.77506 0.21458 0.0
H2010 H 0.7038 0.63738 0.11868 0.0
H2011 H 0.65304 0.67006 0.15076 0.0
H2012 H 0.84717 0.74405 0.15742 0.0
H2013 H 0.81152 0.70334 0.19232 0.0
H2014 H 0.88905 0.74523 0.1707 0.0
H2015 H 0.85398 0.70532 0.20498 0.0
H2016 H 0.82736 0.7134 0.14147 0.0
H2017 H 0.76574 0.69307 0.11244 0.0
H2018 H 0.85793 0.71817 0.1213 0.0
H2019 H 0.7974 0.6981 0.09271 0.0
H2020 H 0.82704 0.61218 0.13154 0.0
H2021 H 0.8838 0.64724 0.15974 0.0
H2022 H 0.82861 0.81477 0.14891 0.0
H2023 H 0.7867 0.79471 0.1107 0.0
Li2024 Li 0.5521 0.49663 0.40369 0.0
Li2025 Li 0.53542 0.51822 0.42599 0.0
Li2026 Li 0.51566 0.52792 0.40256 0.0
Li2027 Li 0.55876 0.54308 0.4081 0.0
C2028 C 0.50014 0.47605 0.40626 0.0
N2029 N 0.4668 0.44088 0.39317 0.0
C2030 C 0.47998 0.46406 0.4139 0.0
C2031 C 0.50335 0.47019 0.39197 0.0
C2032 C 0.46332 0.44631 0.40709 0.0
C2033 C 0.48629 0.45236 0.38554 0.0
C2034 C 0.59658 0.52224 0.42235 0.0
C2035 C 0.62578 0.54915 0.43621 0.0
N2036 N 0.64575 0.54332 0.42721 0.0
C2037 C 0.61739 0.5164 0.41328 0.0
C2038 C 0.60078 0.53867 0.43394 0.0
C2039 C 0.64211 0.52729 0.4159 0.0
C2040 C 0.58415 0.46934 0.38494 0.0
N2041 N 0.5679 0.46609 0.39616 0.0
C2042 C 0.57827 0.42038 0.39735 0.0
C2043 C 0.56444 0.44223 0.40232 0.0
C2044 C 0.59585 0.42334 0.38604 0.0
C2045 C 0.59833 0.44809 0.37965 0.0
H2046 H 0.58671 0.48866 0.3804 0.0
H2047 H 0.5514 0.44033 0.41127 0.0
C2048 C 0.50266 0.51788 0.44968 0.0
N2049 N 0.52754 0.51277 0.44528 0.0
C2050 C 0.4957 0.51402 0.46377 0.0
C2051 C 0.54015 0.49983 0.46852 0.0
C2052 C 0.54623 0.50386 0.45432 0.0
C2053 C 0.51453 0.50475 0.47338 0.0
H2054 H 0.48823 0.5249 0.4422 0.0
H2055 H 0.56585 0.49991 0.4505 0.0
C2056 C 0.54218 0.53773 0.37796 0.0
N2057 N 0.53075 0.56169 0.35257 0.0
C2058 C 0.53688 0.56464 0.37748 0.0
C2059 C 0.54189 0.52303 0.36552 0.0
C2060 C 0.53108 0.57639 0.36454 0.0
C2061 C 0.53602 0.5355 0.35279 0.0
C2062 C 0.52628 0.577 0.42341 0.0
C2063 C 0.51845 0.59856 0.41531 0.0
C2064 C 0.53417 0.5808 0.43738 0.0
C2065 C 0.51919 0.62367 0.42123 0.0
C2066 C 0.53459 0.60622 0.44293 0.0
N2067 N 0.52719 0.62695 0.4348 0.0
C2068 C 0.46824 0.55477 0.40077 0.0
C2069 C 0.47741 0.5299 0.38023 0.0
C2070 C 0.44644 0.56616 0.39431 0.0
N2071 N 0.48361 0.53759 0.39356 0.0
C2072 C 0.45578 0.54088 0.37333 0.0
C2073 C 0.44043 0.55978 0.38029 0.0
H2074 H 0.47345 0.56036 0.4114 0.0
H2075 H 0.48969 0.51593 0.37476 0.0
C2076 C 0.59726 0.56766 0.39189 0.0
N2077 N 0.58397 0.57043 0.40424 0.0
C2078 C 0.61446 0.58717 0.3873 0.0
C2079 C 0.60555 0.61137 0.40867 0.0
C2080 C 0.58837 0.5914 0.41283 0.0
C2081 C 0.61842 0.60957 0.39562 0.0
H2082 H 0.59418 0.55043 0.38545 0.0
H2083 H 0.57847 0.59288 0.42282 0.0
O2084 O 0.51655 0.49351 0.41278 0.0
O2085 O 0.57207 0.5125 0.41969 0.0
O2086 O 0.54744 0.52573 0.39056 0.0
O2087 O 0.52535 0.55222 0.41786 0.0
H2088 H 0.47724 0.46844 0.42497 0.0
H2089 H 0.51876 0.4794 0.38588 0.0
H2090 H 0.44763 0.43686 0.41287 0.0
H2091 H 0.48852 0.44768 0.37448 0.0
H2092 H 0.62928 0.56203 0.44508 0.0
H2093 H 0.61442 0.50384 0.40422 0.0
H2094 H 0.58482 0.54355 0.441 0.0
H2095 H 0.65837 0.52308 0.40892 0.0
H2096 H 0.57559 0.40152 0.40243 0.0
H2097 H 0.61186 0.4512 0.37099 0.0
H2098 H 0.47572 0.51796 0.46707 0.0
H2099 H 0.5554 0.49321 0.47565 0.0
H2100 H 0.53725 0.57629 0.38699 0.0
H2101 H 0.5459 0.50215 0.36572 0.0
H2102 H 0.52684 0.59719 0.36402 0.0
H2103 H 0.53558 0.52435 0.34308 0.0
H2104 H 0.5117 0.59596 0.40459 0.0
H2105 H 0.54013 0.56438 0.44385 0.0
H2106 H 0.51329 0.64054 0.41506 0.0
H2107 H 0.54082 0.60947 0.45369 0.0
H2108 H 0.43506 0.58064 0.40003 0.0
H2109 H 0.45142 0.53506 0.3626 0.0
H2110 H 0.62431 0.58494 0.37725 0.0
H2111 H 0.60806 0.62842 0.41536 0.0
Li2112 Li 0.24765 0.30486 0.15125 0.0
Li2113 Li 0.29384 0.31505 0.15578 0.0
Li2114 Li 0.27875 0.26932 0.14931 0.0
Li2115 Li 0.26977 0.28686 0.17281 0.0
C2116 C 0.26861 0.31266 0.12576 0.0
N2117 N 0.24898 0.33469 0.10131 0.0
C2118 C 0.27585 0.33813 0.12187 0.0
C2119 C 0.25171 0.29825 0.1171 0.0
C2120 C 0.26563 0.34896 0.1095 0.0
C2121 C 0.2419 0.30977 0.10482 0.0
C2122 C 0.26694 0.34504 0.17646 0.0
C2123 C 0.28849 0.36418 0.19666 0.0
N2124 N 0.27511 0.38694 0.19449 0.0
C2125 C 0.25313 0.36852 0.17456 0.0
C2126 C 0.28455 0.34277 0.1877 0.0
C2127 C 0.25764 0.38951 0.18373 0.0
C2128 C 0.19357 0.30818 0.14247 0.0
N2129 N 0.21687 0.32097 0.14395 0.0
C2130 C 0.19835 0.36053 0.13484 0.0
C2131 C 0.21955 0.34663 0.14033 0.0
C2132 C 0.17402 0.34799 0.13319 0.0
C2133 C 0.17167 0.32145 0.13707 0.0
H2134 H 0.19196 0.28778 0.14551 0.0
H2135 H 0.23826 0.35631 0.14171 0.0
C2136 C 0.34459 0.33119 0.14858 0.0
N2137 N 0.32073 0.34036 0.1527 0.0
C2138 C 0.36446 0.34866 0.14474 0.0
C2139 C 0.33493 0.38474 0.14955 0.0
C2140 C 0.31562 0.36656 0.15332 0.0
C2141 C 0.35958 0.37579 0.14496 0.0
H2142 H 0.34793 0.31024 0.14793 0.0
H2143 H 0.2963 0.37337 0.15624 0.0
C2144 C 0.23519 0.24453 0.15734 0.0
N2145 N 0.21713 0.19419 0.15236 0.0
C2146 C 0.23605 0.22566 0.16804 0.0
C2147 C 0.22477 0.2379 0.14419 0.0
C2148 C 0.22691 0.20029 0.1653 0.0
C2149 C 0.21585 0.21232 0.14186 0.0
C2150 C 0.32508 0.2752 0.1727 0.0
C2151 C 0.33354 0.2493 0.17457 0.0
C2152 C 0.33841 0.29556 0.17953 0.0
C2153 C 0.35463 0.24414 0.18358 0.0
C2154 C 0.35943 0.28961 0.18844 0.0
N2155 N 0.36701 0.26424 0.19029 0.0
C2156 C 0.29668 0.24072 0.12564 0.0
C2157 C 0.29199 0.21554 0.1465 0.0
C2158 C 0.30767 0.21926 0.1186 0.0
N2159 N 0.28937 0.23855 0.13938 0.0
C2160 C 0.30297 0.19364 0.1399 0.0
C2161 C 0.31129 0.19543 0.12581 0.0
H2162 H 0.29484 0.25936 0.12029 0.0
H2163 H 0.28654 0.21446 0.15749 0.0
C2164 C 0.24964 0.29285 0.20049 0.0
N2165 N 0.26553 0.27788 0.19223 0.0
C2166 C 0.24635 0.28678 0.21474 0.0
C2167 C 0.275 0.2494 0.2116 0.0
C2168 C 0.27783 0.25627 0.19744 0.0
C2169 C 0.25934 0.26493 0.22049 0.0
H2170 H 0.23953 0.30957 0.19601 0.0
H2171 H 0.28942 0.24403 0.19055 0.0
O2172 O 0.27803 0.30189 0.13798 0.0
O2173 O 0.2628 0.32432 0.16752 0.0
O2174 O 0.24431 0.26939 0.15979 0.0
O2175 O 0.30458 0.28059 0.16379 0.0
H2176 H 0.28901 0.34952 0.12839 0.0
H2177 H 0.2462 0.27841 0.11984 0.0
H2178 H 0.27092 0.36872 0.10642 0.0
H2179 H 0.22867 0.2989 0.09807 0.0
H2180 H 0.30209 0.36264 0.20538 0.0
H2181 H 0.23912 0.37058 0.16607 0.0
H2182 H 0.29471 0.32454 0.18965 0.0
H2183 H 0.24721 0.40783 0.18231 0.0
H2184 H 0.20087 0.38103 0.13209 0.0
H2185 H 0.15324 0.31108 0.13583 0.0
H2186 H 0.38315 0.341 0.14114 0.0
H2187 H 0.3305 0.40553 0.15 0.0
H2188 H 0.2438 0.2305 0.17832 0.0
H2189 H 0.22362 0.25233 0.13587 0.0
H2190 H 0.22762 0.18545 0.17345 0.0
H2191 H 0.20789 0.20688 0.13169 0.0
H2192 H 0.32382 0.23329 0.16923 0.0
H2193 H 0.33287 0.31579 0.17787 0.0
H2194 H 0.36117 0.22416 0.18522 0.0
H2195 H 0.36982 0.3052 0.19383 0.0
H2196 H 0.3139 0.22147 0.10775 0.0
H2197 H 0.30604 0.1759 0.14598 0.0
H2198 H 0.23396 0.29915 0.22123 0.0
H2199 H 0.28463 0.23187 0.2155 0.0
Li2200 Li 0.47905 0.53158 0.89882 0.0
Li2201 Li 0.46027 0.52043 0.92186 0.0
Li2202 Li 0.44676 0.49726 0.90057 0.0
Li2203 Li 0.43344 0.54284 0.90464 0.0
C2204 C 0.4881 0.47229 0.90883 0.0
N2205 N 0.49729 0.41889 0.90752 0.0
C2206 C 0.48243 0.45634 0.92043 0.0
C2207 C 0.49855 0.46115 0.89659 0.0
C2208 C 0.48721 0.42937 0.91955 0.0
C2209 C 0.50302 0.43409 0.89613 0.0
C2210 C 0.47716 0.56898 0.92439 0.0
C2211 C 0.47394 0.5913 0.94675 0.0
N2212 N 0.50056 0.59353 0.94713 0.0
C2213 C 0.50447 0.5716 0.92496 0.0
C2214 C 0.46174 0.57903 0.93532 0.0
C2215 C 0.51593 0.58406 0.93656 0.0
C2216 C 0.50747 0.56937 0.8839 0.0
N2217 N 0.50945 0.54497 0.88963 0.0
C2218 C 0.55496 0.54275 0.88354 0.0
C2219 C 0.53252 0.53151 0.88956 0.0
C2220 C 0.55328 0.5678 0.87745 0.0
C2221 C 0.52919 0.58107 0.87753 0.0
H2222 H 0.48907 0.5799 0.88448 0.0
H2223 H 0.53363 0.51235 0.89444 0.0
C2224 C 0.44927 0.51307 0.95105 0.0
N2225 N 0.46858 0.51648 0.94133 0.0
C2226 C 0.45557 0.51003 0.96529 0.0
C2227 C 0.50154 0.5137 0.95921 0.0
C2228 C 0.49435 0.51655 0.94509 0.0
C2229 C 0.48201 0.51054 0.96953 0.0
H2230 H 0.42898 0.5124 0.94774 0.0
H2231 H 0.50932 0.51883 0.93709 0.0
C2232 C 0.45474 0.53541 0.87423 0.0
N2233 N 0.47199 0.55422 0.84851 0.0
C2234 C 0.44513 0.55921 0.86899 0.0
C2235 C 0.473 0.5211 0.86634 0.0
C2236 C 0.45411 0.56839 0.85597 0.0
C2237 C 0.48153 0.53098 0.85338 0.0
C2238 C 0.39837 0.51544 0.91853 0.0
C2239 C 0.37935 0.50155 0.91095 0.0
C2240 C 0.39055 0.53436 0.92835 0.0
C2241 C 0.35279 0.50685 0.91332 0.0
C2242 C 0.3638 0.53913 0.93039 0.0
N2243 N 0.34563 0.52538 0.92291 0.0
C2244 C 0.42307 0.44741 0.9026 0.0
C2245 C 0.43416 0.46018 0.87932 0.0
C2246 C 0.40953 0.42548 0.89755 0.0
N2247 N 0.43433 0.46459 0.89344 0.0
C2248 C 0.42112 0.43836 0.87382 0.0
C2249 C 0.40768 0.42127 0.88295 0.0
H2250 H 0.42333 0.45157 0.91378 0.0
H2251 H 0.44314 0.47418 0.87226 0.0
C2252 C 0.41061 0.59348 0.90523 0.0
N2253 N 0.40671 0.56819 0.90118 0.0
C2254 C 0.39264 0.61295 0.90142 0.0
C2255 C 0.36659 0.57982 0.88969 0.0
C2256 C 0.38526 0.56108 0.89354 0.0
C2257 C 0.3703 0.60625 0.89347 0.0
H2258 H 0.42822 0.59872 0.91095 0.0
H2259 H 0.38308 0.54098 0.89007 0.0
O2260 O 0.48294 0.49861 0.90936 0.0
O2261 O 0.4656 0.55631 0.9133 0.0
O2262 O 0.44645 0.52625 0.88704 0.0
O2263 O 0.4245 0.51077 0.91625 0.0
H2264 H 0.47417 0.46466 0.92995 0.0
H2265 H 0.50295 0.47324 0.88752 0.0
H2266 H 0.48281 0.41675 0.92842 0.0
H2267 H 0.51098 0.42516 0.8867 0.0
H2268 H 0.46226 0.59902 0.95533 0.0
H2269 H 0.51673 0.56384 0.91664 0.0
H2270 H 0.44058 0.57718 0.93503 0.0
H2271 H 0.53705 0.5861 0.93718 0.0
H2272 H 0.57342 0.53218 0.88374 0.0
H2273 H 0.52743 0.6006 0.8731 0.0
H2274 H 0.43996 0.5069 0.97286 0.0
H2275 H 0.52214 0.51413 0.96205 0.0
H2276 H 0.43106 0.57061 0.87495 0.0
H2277 H 0.48086 0.50279 0.87029 0.0
H2278 H 0.44692 0.58683 0.85182 0.0
H2279 H 0.49581 0.52021 0.84722 0.0
H2280 H 0.38498 0.48709 0.90317 0.0
H2281 H 0.40498 0.54547 0.93421 0.0
H2282 H 0.33788 0.49631 0.90749 0.0
H2283 H 0.35748 0.55381 0.93791 0.0
H2284 H 0.39939 0.41283 0.90494 0.0
H2285 H 0.42068 0.43545 0.86251 0.0
H2286 H 0.39683 0.63317 0.90414 0.0
H2287 H 0.34975 0.57381 0.8835 0.0
Li2288 Li 0.2185 0.73006 0.65039 0.0
Li2289 Li 0.23033 0.71329 0.67314 0.0
Li2290 Li 0.25329 0.69739 0.65085 0.0
Li2291 Li 0.20661 0.68631 0.65603 0.0
C2292 C 0.26867 0.75322 0.65504 0.0
N2293 N 0.29974 0.79418 0.64569 0.0
C2294 C 0.27126 0.776 0.66316 0.0
C2295 C 0.28221 0.75113 0.64227 0.0
C2296 C 0.28695 0.79654 0.65821 0.0
C2297 C 0.29775 0.77208 0.6377 0.0
C2298 C 0.18331 0.73897 0.67281 0.0
C2299 C 0.14726 0.75808 0.68574 0.0
N2300 N 0.16122 0.78071 0.68719 0.0
C2301 C 0.19729 0.76239 0.67446 0.0
C2302 C 0.15809 0.73676 0.67852 0.0
C2303 C 0.18579 0.78327 0.68174 0.0
C2304 C 0.1772 0.75954 0.64008 0.0
N2305 N 0.20389 0.76009 0.64078 0.0
C2306 C 0.2046 0.80206 0.62939 0.0
C2307 C 0.21774 0.78061 0.63535 0.0
C2308 C 0.17705 0.80233 0.62912 0.0
C2309 C 0.16335 0.78051 0.6343 0.0
H2310 H 0.1666 0.74281 0.64419 0.0
H2311 H 0.23887 0.78066 0.63575 0.0
C2312 C 0.25888 0.73184 0.69649 0.0
N2313 N 0.23559 0.72113 0.69248 0.0
C2314 C 0.26296 0.73917 0.71051 0.0
C2315 C 0.21914 0.72397 0.71602 0.0
C2316 C 0.21592 0.7169 0.70191 0.0
C2317 C 0.2428 0.73554 0.72042 0.0
H2318 H 0.27415 0.73497 0.68874 0.0
H2319 H 0.19761 0.70831 0.69843 0.0
C2320 C 0.21304 0.707 0.6257 0.0
N2321 N 0.1934 0.7262 0.60059 0.0
C2322 C 0.18638 0.70421 0.62251 0.0
C2323 C 0.22977 0.71922 0.61605 0.0
C2324 C 0.17681 0.71413 0.60978 0.0
C2325 C 0.21945 0.7289 0.60343 0.0
C2326 C 0.23415 0.65264 0.67242 0.0
C2327 C 0.24879 0.63118 0.66768 0.0
C2328 C 0.21443 0.64892 0.68247 0.0
C2329 C 0.24332 0.60621 0.67303 0.0
C2330 C 0.20953 0.62364 0.68755 0.0
N2331 N 0.22395 0.60298 0.68276 0.0
C2332 C 0.30851 0.6876 0.6489 0.0
C2333 C 0.28076 0.66354 0.6335 0.0
C2334 C 0.33037 0.67318 0.64442 0.0
N2335 N 0.28434 0.68229 0.6435 0.0
C2336 C 0.30195 0.64854 0.62884 0.0
C2337 C 0.32702 0.65302 0.63448 0.0
H2338 H 0.31062 0.70235 0.65703 0.0
H2339 H 0.26122 0.65955 0.62957 0.0
C2340 C 0.15538 0.66573 0.65521 0.0
N2341 N 0.18108 0.65962 0.6532 0.0
C2342 C 0.13578 0.64782 0.65154 0.0
C2343 C 0.16951 0.61733 0.6442 0.0
C2344 C 0.18845 0.63599 0.64783 0.0
C2345 C 0.14273 0.62327 0.64587 0.0
H2346 H 0.15008 0.68498 0.65907 0.0
H2347 H 0.209 0.63196 0.64595 0.0
O2348 O 0.2537 0.73276 0.65983 0.0
O2349 O 0.19419 0.71815 0.66576 0.0
O2350 O 0.22263 0.69801 0.63827 0.0
O2351 O 0.23898 0.67716 0.66717 0.0
H2352 H 0.26136 0.7778 0.67321 0.0
H2353 H 0.28069 0.73359 0.63593 0.0
H2354 H 0.28903 0.81433 0.66435 0.0
H2355 H 0.30823 0.77077 0.6278 0.0
H2356 H 0.12777 0.75663 0.69022 0.0
H2357 H 0.21674 0.76446 0.67011 0.0
H2358 H 0.14703 0.71873 0.67743 0.0
H2359 H 0.1964 0.80151 0.68305 0.0
H2360 H 0.2158 0.81854 0.62538 0.0
H2361 H 0.14209 0.77976 0.63398 0.0
H2362 H 0.28146 0.74805 0.71351 0.0
H2363 H 0.20333 0.72039 0.72341 0.0
H2364 H 0.17316 0.6948 0.62987 0.0
H2365 H 0.25049 0.7213 0.61828 0.0
H2366 H 0.15619 0.7123 0.60722 0.0
H2367 H 0.23214 0.73856 0.5959 0.0
H2368 H 0.26414 0.63378 0.6599 0.0
H2369 H 0.20281 0.66534 0.68615 0.0
H2370 H 0.25443 0.58938 0.66943 0.0
H2371 H 0.19422 0.62042 0.69527 0.0
H2372 H 0.3494 0.67688 0.64913 0.0
H2373 H 0.29867 0.6331 0.62117 0.0
H2374 H 0.11542 0.65366 0.65253 0.0
H2375 H 0.17572 0.59871 0.6398 0.0
Li2376 Li 0.06406 0.45857 0.40488 0.0
Li2377 Li 0.05043 0.50385 0.40008 0.0
Li2378 Li 0.03675 0.48137 0.42159 0.0
Li2379 Li 0.01857 0.46907 0.39866 0.0
C2380 C 0.09896 0.48739 0.41769 0.0
N2381 N 0.15228 0.47891 0.4207 0.0
C2382 C 0.11686 0.50127 0.40935 0.0
C2383 C 0.10819 0.46928 0.4276 0.0
C2384 C 0.14373 0.49669 0.41103 0.0
C2385 C 0.13521 0.46523 0.42894 0.0
C2386 C 0.04303 0.465 0.37423 0.0
C2387 C 0.01766 0.47025 0.35294 0.0
N2388 N 0.02575 0.44614 0.34854 0.0
C2389 C 0.05118 0.44032 0.36948 0.0
C2390 C 0.02624 0.48016 0.36588 0.0
C2391 C 0.04221 0.43113 0.35646 0.0
C2392 C 0.08874 0.40882 0.40698 0.0
N2393 N 0.09102 0.43349 0.40166 0.0
C2394 C 0.12935 0.42129 0.3887 0.0
C2395 C 0.11093 0.44009 0.39279 0.0
C2396 C 0.12691 0.39537 0.39358 0.0
C2397 C 0.10666 0.38935 0.4031 0.0
H2398 H 0.07242 0.40399 0.41379 0.0
H2399 H 0.11194 0.45975 0.38851 0.0
C2400 C 0.06956 0.556 0.4013 0.0
N2401 N 0.06327 0.53591 0.39247 0.0
C2402 C 0.08436 0.57722 0.39638 0.0
C2403 C 0.08504 0.55708 0.37329 0.0
C2404 C 0.07011 0.53637 0.37862 0.0
C2405 C 0.09305 0.57733 0.38235 0.0
H2406 H 0.06462 0.55471 0.41236 0.0
H2407 H 0.06546 0.51987 0.37192 0.0
C2408 C 0.02059 0.43275 0.42475 0.0
N2409 N 0.99754 0.40897 0.44782 0.0
C2410 C 0.99341 0.42891 0.42513 0.0
C2411 C 0.03607 0.42432 0.43605 0.0
C2412 C 0.98213 0.41685 0.43689 0.0
C2413 C 0.02403 0.41242 0.44764 0.0
C2414 C 0.00796 0.52861 0.40814 0.0
C2415 C 0.01083 0.54438 0.4201 0.0
C2416 C 0.99892 0.53967 0.39556 0.0
C2417 C 0.00478 0.5711 0.41923 0.0
C2418 C 0.99312 0.56647 0.39512 0.0
N2419 N 0.99615 0.58151 0.40686 0.0
C2420 C 0.04773 0.48965 0.45062 0.0
C2421 C 0.00266 0.48483 0.44489 0.0
C2422 C 0.04159 0.49235 0.4649 0.0
N2423 N 0.02835 0.48572 0.441 0.0
C2424 C 0.99566 0.48724 0.45906 0.0
C2425 C 0.01527 0.49085 0.46929 0.0
H2426 H 0.06794 0.49079 0.4472 0.0
H2427 H 0.98764 0.48205 0.43697 0.0
C2428 C 0.99096 0.42977 0.3847 0.0
N2429 N 0.98878 0.45495 0.38931 0.0
C2430 C 0.96969 0.41733 0.37831 0.0
C2431 C 0.944 0.45676 0.38183 0.0
C2432 C 0.96599 0.46864 0.38796 0.0
C2433 C 0.94578 0.43075 0.377 0.0
H2434 H 0.00916 0.4192 0.38623 0.0
H2435 H 0.96474 0.48853 0.39191 0.0
O2436 O 0.07254 0.49124 0.41605 0.0
O2437 O 0.05125 0.47419 0.38705 0.0
O2438 O 0.03195 0.44505 0.41347 0.0
O2439 O 0.01409 0.5025 0.40872 0.0
H2440 H 0.11014 0.51521 0.40156 0.0
H2441 H 0.09462 0.45823 0.43406 0.0
H2442 H 0.15779 0.50721 0.40461 0.0
H2443 H 0.14262 0.45116 0.43651 0.0
H2444 H 0.00454 0.4817 0.34641 0.0
H2445 H 0.06406 0.42825 0.37582 0.0
H2446 H 0.01971 0.49927 0.36942 0.0
H2447 H 0.04825 0.41202 0.35268 0.0
H2448 H 0.14492 0.4268 0.3815 0.0
H2449 H 0.104 0.36953 0.40701 0.0
H2450 H 0.09051 0.5924 0.40367 0.0
H2451 H 0.09148 0.55658 0.36241 0.0
H2452 H 0.98112 0.43542 0.41651 0.0
H2453 H 0.05711 0.42727 0.43595 0.0
H2454 H 0.96111 0.41387 0.43736 0.0
H2455 H 0.03574 0.406 0.45651 0.0
H2456 H 0.01788 0.53615 0.42991 0.0
H2457 H 0.99656 0.5277 0.38622 0.0
H2458 H 0.00702 0.58358 0.42839 0.0
H2459 H 0.98622 0.57533 0.38544 0.0
H2460 H 0.05725 0.49587 0.47239 0.0
H2461 H 0.97513 0.48602 0.462 0.0
H2462 H 0.9716 0.39713 0.37487 0.0
H2463 H 0.92577 0.46761 0.38099 0.0
Li2464 Li 0.269 0.71282 0.32842 0.0
Li2465 Li 0.28028 0.73111 0.35029 0.0
Li2466 Li 0.29491 0.68695 0.34502 0.0
Li2467 Li 0.24641 0.6978 0.34969 0.0
C2468 C 0.31608 0.73971 0.32796 0.0
N2469 N 0.33852 0.78078 0.31321 0.0
C2470 C 0.30194 0.76284 0.32569 0.0
C2471 C 0.34164 0.73744 0.32272 0.0
C2472 C 0.31362 0.78339 0.31821 0.0
C2473 C 0.35264 0.75844 0.3153 0.0
C2474 C 0.22957 0.75284 0.34534 0.0
C2475 C 0.19921 0.77119 0.36221 0.0
N2476 N 0.19732 0.79328 0.3542 0.0
C2477 C 0.22706 0.7756 0.3372 0.0
C2478 C 0.21532 0.7505 0.35788 0.0
C2479 C 0.21078 0.79587 0.34189 0.0
C2480 C 0.24042 0.72975 0.30474 0.0
N2481 N 0.26384 0.71961 0.30891 0.0
C2482 C 0.27998 0.72058 0.28527 0.0
C2483 C 0.28348 0.71486 0.29954 0.0
C2484 C 0.25601 0.73115 0.28065 0.0
C2485 C 0.23606 0.73576 0.29058 0.0
H2486 H 0.22519 0.73335 0.31245 0.0
H2487 H 0.3019 0.70671 0.30318 0.0
C2488 C 0.32056 0.76188 0.36056 0.0
N2489 N 0.29389 0.76169 0.35974 0.0
C2490 C 0.3337 0.78308 0.36655 0.0
C2491 C 0.29176 0.80342 0.37131 0.0
C2492 C 0.27935 0.78176 0.36513 0.0
C2493 C 0.31929 0.80428 0.37191 0.0
H2494 H 0.3317 0.74548 0.35648 0.0
H2495 H 0.25823 0.7812 0.36462 0.0
C2496 C 0.25933 0.66408 0.32185 0.0
N2497 N 0.25228 0.64242 0.29544 0.0
C2498 C 0.23435 0.66359 0.31575 0.0
C2499 C 0.2807 0.65345 0.31458 0.0
C2500 C 0.2312 0.65258 0.30236 0.0
C2501 C 0.27673 0.64259 0.30122 0.0
C2502 C 0.28573 0.70909 0.37518 0.0
C2503 C 0.31222 0.70721 0.37891 0.0
C2504 C 0.26806 0.7214 0.38431 0.0
C2505 C 0.32069 0.71811 0.39164 0.0
C2506 C 0.2773 0.73209 0.39694 0.0
N2507 N 0.30321 0.73027 0.4003 0.0
C2508 C 0.34673 0.66883 0.34821 0.0
C2509 C 0.31378 0.63629 0.35093 0.0
C2510 C 0.36623 0.6508 0.35187 0.0
N2511 N 0.32113 0.66135 0.34798 0.0
C2512 C 0.33264 0.61758 0.35461 0.0
C2513 C 0.35923 0.62485 0.35525 0.0
H2514 H 0.35187 0.68906 0.34608 0.0
H2515 H 0.29318 0.63105 0.35077 0.0
C2516 C 0.19201 0.68471 0.35063 0.0
N2517 N 0.21568 0.68229 0.35715 0.0
C2518 C 0.17061 0.66967 0.35517 0.0
C2519 C 0.19832 0.65074 0.37323 0.0
C2520 C 0.21907 0.66618 0.36842 0.0
C2521 C 0.17398 0.6519 0.36634 0.0
H2522 H 0.19006 0.6975 0.34159 0.0
H2523 H 0.23821 0.66453 0.37328 0.0
O2524 O 0.30509 0.7193 0.33527 0.0
O2525 O 0.2451 0.73263 0.34075 0.0
O2526 O 0.26299 0.67551 0.33473 0.0
O2527 O 0.27724 0.6992 0.36257 0.0
H2528 H 0.28224 0.76493 0.3297 0.0
H2529 H 0.35283 0.71963 0.32437 0.0
H2530 H 0.30289 0.80141 0.3164 0.0
H2531 H 0.37241 0.75696 0.31119 0.0
H2532 H 0.1882 0.76968 0.37192 0.0
H2533 H 0.23746 0.77756 0.3273 0.0
H2534 H 0.21669 0.73296 0.36422 0.0
H2535 H 0.20875 0.81362 0.33572 0.0
H2536 H 0.29579 0.71671 0.27792 0.0
H2537 H 0.21749 0.74436 0.28747 0.0
H2538 H 0.35497 0.78293 0.36697 0.0
H2539 H 0.28001 0.81953 0.37529 0.0
H2540 H 0.21766 0.67189 0.32124 0.0
H2541 H 0.30019 0.65387 0.31914 0.0
H2542 H 0.21202 0.6522 0.29746 0.0
H2543 H 0.2931 0.63441 0.29543 0.0
H2544 H 0.32616 0.69774 0.37198 0.0
H2545 H 0.24747 0.72279 0.38167 0.0
H2546 H 0.34117 0.71699 0.39461 0.0
H2547 H 0.26387 0.74185 0.40406 0.0
H2548 H 0.38641 0.65739 0.35261 0.0
H2549 H 0.32649 0.59779 0.35718 0.0
H2550 H 0.15209 0.67091 0.3496 0.0
H2551 H 0.20149 0.63734 0.38194 0.0
Li2552 Li 0.06405 0.54181 0.09514 0.0
Li2553 Li 0.05162 0.49587 0.09896 0.0
Li2554 Li 0.03668 0.51968 0.07818 0.0
Li2555 Li 0.01906 0.52972 0.1016 0.0
C2556 C 0.09908 0.51491 0.08115 0.0
N2557 N 0.152 0.52476 0.07743 0.0
C2558 C 0.11774 0.50076 0.08884 0.0
C2559 C 0.10734 0.53401 0.07153 0.0
C2560 C 0.1444 0.50603 0.08681 0.0
C2561 C 0.13418 0.53874 0.06983 0.0
C2562 C 0.04455 0.53252 0.12585 0.0
C2563 C 0.01992 0.52552 0.14724 0.0
N2564 N 0.0282 0.54922 0.15214 0.0
C2565 C 0.05293 0.55676 0.13112 0.0
C2566 C 0.02802 0.51669 0.13399 0.0
C2567 C 0.04442 0.56486 0.14443 0.0
C2568 C 0.08569 0.59269 0.09412 0.0
N2569 N 0.09029 0.56766 0.09845 0.0
C2570 C 0.12938 0.58103 0.11042 0.0
C2571 C 0.11172 0.56146 0.10634 0.0
C2572 C 0.12452 0.60717 0.10657 0.0
C2573 C 0.10269 0.61288 0.09807 0.0
H2574 H 0.06825 0.59715 0.08809 0.0
H2575 H 0.11448 0.54151 0.10995 0.0
C2576 C 0.072 0.44494 0.09559 0.0
N2577 N 0.06487 0.46309 0.10538 0.0
C2578 C 0.08586 0.42252 0.09962 0.0
C2579 C 0.08408 0.4375 0.12379 0.0
C2580 C 0.0702 0.45962 0.11929 0.0
C2581 C 0.09258 0.41889 0.11385 0.0
H2582 H 0.06809 0.44857 0.08455 0.0
H2583 H 0.06493 0.47468 0.1268 0.0
C2584 C 0.01908 0.56796 0.07631 0.0
N2585 N 0.99439 0.59281 0.05406 0.0
C2586 C 0.99179 0.57105 0.07633 0.0
C2587 C 0.03383 0.57767 0.06502 0.0
C2588 C 0.97968 0.58366 0.06498 0.0
C2589 C 0.02097 0.5901 0.05385 0.0
C2590 C 0.00923 0.47095 0.09098 0.0
C2591 C 0.01238 0.4558 0.07881 0.0
C2592 C 0.00041 0.45915 0.10341 0.0
C2593 C 0.00683 0.42894 0.07932 0.0
C2594 C 0.9951 0.43222 0.10349 0.0
N2595 N 0.99841 0.4178 0.09155 0.0
C2596 C 0.04677 0.5131 0.04897 0.0
C2597 C 0.00182 0.51677 0.05522 0.0
C2598 C 0.04015 0.51046 0.03476 0.0
N2599 N 0.02766 0.51635 0.05882 0.0
C2600 C 0.99433 0.51442 0.04113 0.0
C2601 C 0.01364 0.51129 0.03071 0.0
H2602 H 0.06713 0.51241 0.05216 0.0
H2603 H 0.98704 0.51886 0.06334 0.0
C2604 C 0.99097 0.56698 0.11691 0.0
N2605 N 0.98908 0.54243 0.11137 0.0
C2606 C 0.96925 0.57869 0.12327 0.0
C2607 C 0.94376 0.53989 0.11781 0.0
C2608 C 0.96618 0.52869 0.11175 0.0
C2609 C 0.9453 0.5652 0.12358 0.0
H2610 H 0.0092 0.57774 0.11604 0.0
H2611 H 0.96512 0.50943 0.10698 0.0
O2612 O 0.07286 0.51031 0.08311 0.0
O2613 O 0.05237 0.52439 0.11276 0.0
O2614 O 0.03126 0.55514 0.08716 0.0
O2615 O 0.01497 0.49717 0.09077 0.0
H2616 H 0.11175 0.48605 0.09641 0.0
H2617 H 0.09316 0.54528 0.06557 0.0
H2618 H 0.15905 0.49529 0.09273 0.0
H2619 H 0.14084 0.55356 0.06248 0.0
H2620 H 0.007 0.51354 0.15361 0.0
H2621 H 0.06564 0.56932 0.12495 0.0
H2622 H 0.02132 0.49791 0.13006 0.0
H2623 H 0.05064 0.58363 0.14861 0.0
H2624 H 0.14589 0.57602 0.11711 0.0
H2625 H 0.09842 0.63287 0.0949 0.0
H2626 H 0.09223 0.4087 0.09163 0.0
H2627 H 0.08948 0.43583 0.13479 0.0
H2628 H 0.98004 0.56357 0.08494 0.0
H2629 H 0.05494 0.57535 0.06482 0.0
H2630 H 0.95858 0.58608 0.06482 0.0
H2631 H 0.03212 0.59754 0.045 0.0
H2632 H 0.01928 0.46462 0.06912 0.0
H2633 H 0.99783 0.47063 0.11291 0.0
H2634 H 0.0093 0.41693 0.07001 0.0
H2635 H 0.98838 0.42279 0.11305 0.0
H2636 H 0.05556 0.50797 0.027 0.0
H2637 H 0.97366 0.51462 0.03842 0.0
H2638 H 0.97085 0.59844 0.12743 0.0
H2639 H 0.92536 0.52921 0.11775 0.0
Li2640 Li 0.21022 0.31561 0.84611 0.0
Li2641 Li 0.25579 0.30138 0.85002 0.0
Li2642 Li 0.23174 0.28691 0.82915 0.0
Li2643 Li 0.22095 0.27026 0.8528 0.0
C2644 C 0.23915 0.34878 0.83091 0.0
N2645 N 0.23311 0.40138 0.82449 0.0
C2646 C 0.25403 0.36774 0.83799 0.0
C2647 C 0.22128 0.35657 0.82054 0.0
C2648 C 0.25069 0.39423 0.83458 0.0
C2649 C 0.21847 0.38326 0.81746 0.0
C2650 C 0.21841 0.29622 0.87683 0.0
C2651 C 0.22369 0.2714 0.89829 0.0
N2652 N 0.20022 0.28072 0.90297 0.0
C2653 C 0.1944 0.30565 0.88187 0.0
C2654 C 0.23327 0.27908 0.88512 0.0
C2655 C 0.18553 0.29755 0.89511 0.0
C2656 C 0.1594 0.33702 0.84648 0.0
N2657 N 0.18504 0.34272 0.849 0.0
C2658 C 0.1734 0.38483 0.85824 0.0
C2659 C 0.19232 0.36601 0.85483 0.0
C2660 C 0.14667 0.37936 0.85596 0.0
C2661 C 0.13981 0.35506 0.84996 0.0
H2662 H 0.15406 0.31801 0.8423 0.0
H2663 H 0.21273 0.36965 0.85725 0.0
C2664 C 0.30623 0.32187 0.84617 0.0
N2665 N 0.28892 0.31398 0.85623 0.0
C2666 C 0.3285 0.33621 0.84991 0.0
C2667 C 0.31557 0.33263 0.87437 0.0
C2668 C 0.29343 0.31846 0.87015 0.0
C2669 C 0.33284 0.34248 0.86413 0.0
H2670 H 0.30185 0.31843 0.83516 0.0
H2671 H 0.2791 0.31238 0.87789 0.0
C2672 C 0.18137 0.27228 0.82772 0.0
N2673 N 0.15171 0.25039 0.80635 0.0
C2674 C 0.17583 0.24539 0.82779 0.0
C2675 C 0.17166 0.28807 0.81685 0.0
C2676 C 0.16082 0.23469 0.81687 0.0
C2677 C 0.15677 0.27662 0.80612 0.0
C2678 C 0.27953 0.25857 0.8423 0.0
C2679 C 0.29486 0.26134 0.83017 0.0
C2680 C 0.2911 0.24992 0.85482 0.0
C2681 C 0.32166 0.25558 0.83081 0.0
C2682 C 0.31797 0.24439 0.85504 0.0
N2683 N 0.33257 0.24732 0.84313 0.0
C2684 C 0.2436 0.2966 0.8005 0.0
C2685 C 0.22982 0.2531 0.80543 0.0
C2686 C 0.24685 0.29046 0.78626 0.0
N2687 N 0.235 0.27805 0.80971 0.0
C2688 C 0.23249 0.24618 0.79126 0.0
C2689 C 0.24101 0.26502 0.78144 0.0
H2690 H 0.24838 0.31606 0.80425 0.0
H2691 H 0.22376 0.23852 0.81305 0.0
C2692 C 0.18171 0.24394 0.86738 0.0
N2693 N 0.2068 0.24112 0.86274 0.0
C2694 C 0.16883 0.22305 0.87387 0.0
C2695 C 0.20781 0.19657 0.87068 0.0
C2696 C 0.22006 0.21813 0.86431 0.0
C2697 C 0.18176 0.19887 0.87544 0.0
H2698 H 0.17152 0.26232 0.86574 0.0
H2699 H 0.23984 0.21632 0.86026 0.0
O2700 O 0.24206 0.32274 0.83411 0.0
O2701 O 0.22727 0.30364 0.86381 0.0
O2702 O 0.19623 0.28309 0.83823 0.0
O2703 O 0.25338 0.2646 0.84196 0.0
H2704 H 0.26777 0.36215 0.84614 0.0
H2705 H 0.20964 0.34216 0.81496 0.0
H2706 H 0.262 0.40911 0.84001 0.0
H2707 H 0.20464 0.38956 0.80949 0.0
H2708 H 0.2349 0.258 0.90478 0.0
H2709 H 0.18264 0.31894 0.8756 0.0
H2710 H 0.25185 0.27155 0.88136 0.0
H2711 H 0.16693 0.30461 0.89913 0.0
H2712 H 0.17957 0.4032 0.86295 0.0
H2713 H 0.11946 0.34948 0.84853 0.0
H2714 H 0.34149 0.34346 0.84175 0.0
H2715 H 0.31824 0.33733 0.88542 0.0
H2716 H 0.18323 0.23286 0.83609 0.0
H2717 H 0.17567 0.30893 0.81669 0.0
H2718 H 0.15647 0.21389 0.81675 0.0
H2719 H 0.14924 0.28859 0.7976 0.0
H2720 H 0.28621 0.26808 0.8204 0.0
H2721 H 0.27949 0.2477 0.8643 0.0
H2722 H 0.33381 0.25775 0.82152 0.0
H2723 H 0.32723 0.23779 0.86467 0.0
H2724 H 0.25433 0.30534 0.77916 0.0
H2725 H 0.2279 0.22631 0.78801 0.0
H2726 H 0.14877 0.22564 0.87742 0.0
H2727 H 0.21825 0.17809 0.8714 0.0
Li2728 Li 0.44968 0.50407 0.60129 0.0
Li2729 Li 0.43517 0.45872 0.59659 0.0
Li2730 Li 0.48099 0.46871 0.60303 0.0
Li2731 Li 0.46349 0.48107 0.57989 0.0
C2732 C 0.45542 0.46574 0.62744 0.0
N2733 N 0.47091 0.44777 0.65363 0.0
C2734 C 0.44549 0.44208 0.63268 0.0
C2735 C 0.47302 0.48039 0.63557 0.0
C2736 C 0.45361 0.43331 0.64594 0.0
C2737 C 0.48069 0.47092 0.64877 0.0
C2738 C 0.40156 0.4889 0.58252 0.0
C2739 C 0.36596 0.46832 0.5699 0.0
N2740 N 0.34851 0.48344 0.57711 0.0
C2741 C 0.38328 0.50429 0.58979 0.0
C2742 C 0.39287 0.47083 0.57246 0.0
C2743 C 0.35655 0.50123 0.5869 0.0
C2744 C 0.43144 0.55659 0.5998 0.0
N2745 N 0.43724 0.53648 0.60872 0.0
C2746 C 0.41602 0.5585 0.6278 0.0
C2747 C 0.43038 0.53731 0.62256 0.0
C2748 C 0.40866 0.57895 0.6187 0.0
C2749 C 0.4172 0.57827 0.60463 0.0
H2750 H 0.43634 0.555 0.58875 0.0
H2751 H 0.43465 0.52082 0.62934 0.0
C2752 C 0.41271 0.40809 0.59667 0.0
N2753 N 0.40784 0.43375 0.59961 0.0
C2754 C 0.39449 0.38876 0.60038 0.0
C2755 C 0.36623 0.42272 0.60968 0.0
C2756 C 0.3852 0.44133 0.60603 0.0
C2757 C 0.37087 0.39595 0.60704 0.0
H2758 H 0.43123 0.4025 0.59197 0.0
H2759 H 0.38222 0.46173 0.60872 0.0
C2760 C 0.49293 0.52791 0.59337 0.0
N2761 N 0.50597 0.58052 0.59449 0.0
C2762 C 0.49011 0.54369 0.58141 0.0
C2763 C 0.50257 0.53879 0.60586 0.0
C2764 C 0.49678 0.57027 0.5822 0.0
C2765 C 0.50898 0.56546 0.60623 0.0
C2766 C 0.47813 0.43142 0.57716 0.0
C2767 C 0.50519 0.42691 0.57667 0.0
C2768 C 0.46212 0.42238 0.56622 0.0
C2769 C 0.51585 0.41365 0.56511 0.0
C2770 C 0.47354 0.40926 0.55483 0.0
N2771 N 0.49994 0.40522 0.55451 0.0
C2772 C 0.50725 0.42976 0.61803 0.0
C2773 C 0.53435 0.46617 0.61248 0.0
C2774 C 0.52831 0.41674 0.62427 0.0
N2775 N 0.51056 0.45406 0.61239 0.0
C2776 C 0.55619 0.45356 0.61836 0.0
C2777 C 0.55331 0.42843 0.62435 0.0
H2778 H 0.48829 0.42028 0.61744 0.0
H2779 H 0.53653 0.48525 0.60759 0.0
C2780 C 0.45345 0.49108 0.55092 0.0
N2781 N 0.47236 0.48512 0.56052 0.0
C2782 C 0.45995 0.4941 0.5367 0.0
C2783 C 0.50527 0.48497 0.54255 0.0
C2784 C 0.49794 0.48243 0.55666 0.0
C2785 C 0.48611 0.49077 0.53238 0.0
H2786 H 0.43335 0.49362 0.5543 0.0
H2787 H 0.51266 0.47833 0.56458 0.0
O2788 O 0.44802 0.47447 0.6144 0.0
O2789 O 0.42781 0.49149 0.58524 0.0
O2790 O 0.48618 0.50194 0.59287 0.0
O2791 O 0.46738 0.44485 0.58823 0.0
H2792 H 0.43184 0.4305 0.62654 0.0
H2793 H 0.48086 0.49875 0.63167 0.0
H2794 H 0.44619 0.41496 0.6501 0.0
H2795 H 0.49443 0.48197 0.65513 0.0
H2796 H 0.35896 0.45433 0.56218 0.0
H2797 H 0.38959 0.51828 0.59766 0.0
H2798 H 0.40674 0.45874 0.56677 0.0
H2799 H 0.34218 0.51294 0.59248 0.0
H2800 H 0.40962 0.55832 0.63869 0.0
H2801 H 0.41139 0.59339 0.59724 0.0
H2802 H 0.39944 0.36835 0.59861 0.0
H2803 H 0.3484 0.42916 0.61486 0.0
H2804 H 0.48262 0.53558 0.57166 0.0
H2805 H 0.50497 0.52678 0.61518 0.0
H2806 H 0.49457 0.58277 0.57305 0.0
H2807 H 0.51636 0.57419 0.61584 0.0
H2808 H 0.51787 0.43381 0.58503 0.0
H2809 H 0.44113 0.42563 0.56648 0.0
H2810 H 0.53678 0.41016 0.56453 0.0
H2811 H 0.46142 0.40231 0.54624 0.0
H2812 H 0.5251 0.39747 0.6288 0.0
H2813 H 0.5752 0.46301 0.61778 0.0
H2814 H 0.44469 0.49873 0.52914 0.0
H2815 H 0.52572 0.48279 0.53963 0.0
C2816 C 0.15584 0.35611 0.39738 0.0
C2817 C 0.14421 0.37424 0.38808 0.0
C2818 C 0.17071 0.33493 0.3923 0.0
C2819 C 0.17454 0.33118 0.37775 0.0
H2820 H 0.15324 0.3582 0.40866 0.0
H2821 H 0.17909 0.32124 0.3998 0.0
S2822 S 0.14698 0.37214 0.349 0.0
N2823 N 0.13673 0.38644 0.36361 0.0
N2824 N 0.16481 0.34679 0.35411 0.0
C2825 C 0.16318 0.34925 0.36835 0.0
C2826 C 0.14798 0.37074 0.37351 0.0
C2827 C 0.91799 0.89648 0.62469 0.0
C2828 C 0.9178 0.92398 0.62608 0.0
C2829 C 0.89819 0.88102 0.63068 0.0
C2830 C 0.8773 0.89249 0.63815 0.0
H2831 H 0.93365 0.88681 0.61895 0.0
H2832 H 0.89897 0.85992 0.62921 0.0
S2833 S 0.86783 0.96357 0.64495 0.0
N2834 N 0.89523 0.96208 0.63564 0.0
N2835 N 0.85774 0.93292 0.64683 0.0
C2836 C 0.87689 0.91995 0.63969 0.0
C2837 C 0.89727 0.93572 0.63371 0.0
C2838 C 0.34484 0.62659 0.87371 0.0
C2839 C 0.35238 0.62697 0.88799 0.0
C2840 C 0.33015 0.6471 0.86783 0.0
C2841 C 0.32243 0.66889 0.87595 0.0
H2842 H 0.35114 0.61079 0.86685 0.0
H2843 H 0.32528 0.64614 0.85672 0.0
S2844 S 0.33559 0.67862 0.91409 0.0
N2845 N 0.34939 0.6501 0.91037 0.0
N2846 N 0.32264 0.68919 0.89917 0.0
C2847 C 0.32904 0.66914 0.89036 0.0
C2848 C 0.34387 0.64811 0.89639 0.0
C2849 C 0.58277 0.08267 0.1413 0.0
C2850 C 0.58376 0.07384 0.12725 0.0
C2851 C 0.60346 0.09728 0.14714 0.0
C2852 C 0.62597 0.10347 0.13917 0.0
H2853 H 0.56544 0.07917 0.14765 0.0
H2854 H 0.6016 0.10422 0.15788 0.0
S2855 S 0.63884 0.08337 0.10217 0.0
N2856 N 0.60977 0.07075 0.10584 0.0
N2857 N 0.64826 0.09884 0.11661 0.0
C2858 C 0.62758 0.09391 0.12527 0.0
C2859 C 0.60656 0.07898 0.11936 0.0
C2860 C 0.1837 0.64913 0.11612 0.0
C2861 C 0.17241 0.66904 0.12441 0.0
C2862 C 0.16813 0.62904 0.11033 0.0
C2863 C 0.14077 0.62865 0.11243 0.0
H2864 H 0.20471 0.64887 0.11429 0.0
H2865 H 0.17748 0.61381 0.10414 0.0
S2866 S 0.1018 0.67666 0.13308 0.0
N2867 N 0.13233 0.68737 0.13425 0.0
N2868 N 0.10313 0.6498 0.12335 0.0
C2869 C 0.1293 0.64864 0.12056 0.0
C2870 C 0.14511 0.66881 0.12656 0.0
C2871 C 0.58267 0.91739 0.36094 0.0
C2872 C 0.58535 0.92864 0.37442 0.0
C2873 C 0.60285 0.90228 0.35499 0.0
C2874 C 0.62651 0.89771 0.36229 0.0
H2875 H 0.56445 0.91941 0.35514 0.0
H2876 H 0.59968 0.89368 0.34468 0.0
S2877 S 0.644 0.92437 0.39754 0.0
N2878 N 0.61431 0.936 0.39441 0.0
N2879 N 0.65163 0.90643 0.38364 0.0
C2880 C 0.62975 0.90959 0.3756 0.0
C2881 C 0.60933 0.92527 0.38156 0.0
C2882 C 0.32658 0.35776 0.63197 0.0
C2883 C 0.32065 0.33479 0.62435 0.0
C2884 C 0.34211 0.37768 0.62612 0.0
C2885 C 0.35235 0.37557 0.61237 0.0
H2886 H 0.31956 0.36015 0.64267 0.0
H2887 H 0.34688 0.39448 0.63264 0.0
S2888 S 0.34133 0.32013 0.58764 0.0
N2889 N 0.32571 0.31137 0.60215 0.0
N2890 N 0.35395 0.34936 0.59095 0.0
C2891 C 0.34576 0.35315 0.60443 0.0
C2892 C 0.33009 0.3327 0.61044 0.0
C2893 C 0.90685 0.09811 0.88456 0.0
C2894 C 0.91891 0.07917 0.87592 0.0
C2895 C 0.88655 0.11404 0.87942 0.0
C2896 C 0.87737 0.11141 0.8655 0.0
H2897 H 0.9137 0.10121 0.89525 0.0
H2898 H 0.87808 0.12865 0.88636 0.0
S2899 S 0.9016 0.06399 0.83884 0.0
N2900 N 0.91965 0.05805 0.85295 0.0
N2901 N 0.88143 0.08803 0.84327 0.0
C2902 C 0.88878 0.0921 0.85687 0.0
C2903 C 0.90961 0.07601 0.86207 0.0
C2904 C 0.86743 0.64038 0.62374 0.0
C2905 C 0.86245 0.63014 0.61023 0.0
C2906 C 0.85306 0.66166 0.62899 0.0
C2907 C 0.83295 0.67333 0.62099 0.0
H2908 H 0.88297 0.63221 0.6302 0.0
H2909 H 0.85775 0.6691 0.63939 0.0
S2910 S 0.81161 0.65343 0.5852 0.0
N2911 N 0.83566 0.63286 0.58907 0.0
N2912 N 0.80846 0.67296 0.59901 0.0
C2913 C 0.8274 0.66303 0.60758 0.0
C2914 C 0.84225 0.64147 0.60216 0.0
C2915 C 0.09611 0.10853 0.35297 0.0
C2916 C 0.12096 0.10863 0.35947 0.0
C2917 C 0.07546 0.09332 0.35833 0.0
C2918 C 0.07895 0.0775 0.37033 0.0
H2919 H 0.09248 0.12062 0.34377 0.0
H2920 H 0.05649 0.09421 0.35317 0.0
S2921 S 0.13978 0.07118 0.39151 0.0
N2922 N 0.14765 0.09182 0.37876 0.0
N2923 N 0.10888 0.06289 0.38864 0.0
C2924 C 0.10377 0.07693 0.37677 0.0
C2925 C 0.12477 0.09256 0.37138 0.0
C2926 C 0.64644 0.36675 0.12221 0.0
C2927 C 0.6396 0.36792 0.10782 0.0
C2928 C 0.66148 0.34597 0.12758 0.0
C2929 C 0.66998 0.32548 0.11881 0.0
H2930 H 0.63939 0.38153 0.1295 0.0
H2931 H 0.66568 0.34544 0.13878 0.0
S2932 S 0.65996 0.3203 0.08025 0.0
N2933 N 0.64475 0.34773 0.0847 0.0
N2934 N 0.67215 0.30818 0.09501 0.0
C2935 C 0.66403 0.32666 0.10439 0.0
C2936 C 0.64905 0.34799 0.09884 0.0
C2937 C 0.4012 0.9258 0.87408 0.0
C2938 C 0.42749 0.92249 0.86982 0.0
C2939 C 0.38116 0.90972 0.86878 0.0
C2940 C 0.38652 0.88972 0.85895 0.0
H2941 H 0.3961 0.94067 0.88178 0.0
H2942 H 0.36144 0.91245 0.87281 0.0
S2943 S 0.45171 0.874 0.84358 0.0
N2944 N 0.45764 0.89799 0.85485 0.0
N2945 N 0.41974 0.86881 0.84433 0.0
C2946 C 0.41252 0.8869 0.85414 0.0
C2947 C 0.43302 0.90305 0.85967 0.0
C2948 C 0.84752 0.35718 0.89661 0.0
C2949 C 0.86335 0.37207 0.88742 0.0
C2950 C 0.8317 0.33668 0.89155 0.0
C2951 C 0.83097 0.33052 0.87711 0.0
H2952 H 0.84738 0.36137 0.9078 0.0
H2953 H 0.81998 0.32552 0.89897 0.0
S2954 S 0.8699 0.36215 0.84879 0.0
N2955 N 0.87823 0.37817 0.86325 0.0
N2956 N 0.84804 0.34005 0.85377 0.0
C2957 C 0.8466 0.3452 0.86781 0.0
C2958 C 0.86289 0.36588 0.87295 0.0
C2959 C 0.39347 0.09727 0.64487 0.0
C2960 C 0.38476 0.11959 0.63746 0.0
C2961 C 0.41424 0.08184 0.63971 0.0
C2962 C 0.42692 0.08828 0.62699 0.0
H2963 H 0.38459 0.09209 0.65487 0.0
H2964 H 0.42085 0.06519 0.64587 0.0
S2965 S 0.40914 0.14257 0.60274 0.0
N2966 N 0.38875 0.14582 0.61616 0.0
N2967 N 0.42771 0.11693 0.60651 0.0
C2968 C 0.41769 0.10992 0.61925 0.0
C2969 C 0.39663 0.12555 0.62448 0.0
C2970 C 0.64322 0.66319 0.37134 0.0
C2971 C 0.66345 0.675 0.37919 0.0
C2972 C 0.62908 0.64184 0.3767 0.0
C2973 C 0.63447 0.63164 0.39017 0.0
H2974 H 0.6383 0.67051 0.36094 0.0
H2975 H 0.61349 0.63352 0.37033 0.0
S2976 S 0.68564 0.65537 0.41489 0.0
N2977 N 0.68834 0.6749 0.40105 0.0
N2978 N 0.66168 0.63462 0.41117 0.0
C2979 C 0.65472 0.64316 0.39812 0.0
C2980 C 0.6693 0.66482 0.3926 0.0
C2981 C 0.10549 0.90202 0.14694 0.0
C2982 C 0.11779 0.88258 0.13873 0.0
C2983 C 0.08411 0.91643 0.14165 0.0
C2984 C 0.07409 0.91145 0.12809 0.0
H2985 H 0.11253 0.90618 0.15749 0.0
H2986 H 0.07505 0.93119 0.14829 0.0
S2987 S 0.0993 0.86249 0.10249 0.0
N2988 N 0.11843 0.8591 0.11643 0.0
N2989 N 0.07827 0.88602 0.10652 0.0
C2990 C 0.08627 0.89209 0.1198 0.0
C2991 C 0.10813 0.87769 0.12511 0.0
C2992 C 0.67869 0.853 0.87541 0.0
C2993 C 0.67634 0.82686 0.88005 0.0
C2994 C 0.66319 0.87301 0.88125 0.0
C2995 C 0.64459 0.86752 0.89181 0.0
H2996 H 0.69229 0.85794 0.86703 0.0
H2997 H 0.6651 0.89274 0.87708 0.0
S2998 S 0.63156 0.80253 0.90801 0.0
N2999 N 0.6545 0.7967 0.89611 0.0
N3000 N 0.6256 0.83438 0.90717 0.0
C3001 C 0.64258 0.84162 0.89682 0.0
C3002 C 0.65844 0.82128 0.89094 0.0
C3003 C 0.42583 0.40816 0.13898 0.0
C3004 C 0.42049 0.42654 0.12828 0.0
C3005 C 0.40589 0.3923 0.14458 0.0
C3006 C 0.37984 0.3944 0.13978 0.0
H3007 H 0.44576 0.40531 0.14269 0.0
H3008 H 0.41098 0.37799 0.15258 0.0
S3009 S 0.35533 0.44049 0.11248 0.0
N3010 N 0.38706 0.44688 0.1136 0.0
N3011 N 0.34962 0.41681 0.12397 0.0
C3012 C 0.37407 0.41329 0.12941 0.0
C3013 C 0.39439 0.42938 0.12367 0.0
C3014 C 0.85704 0.1504 0.39337 0.0
C3015 C 0.85853 0.12559 0.3869 0.0
C3016 C 0.84074 0.17015 0.38796 0.0
C3017 C 0.82537 0.16591 0.37584 0.0
H3018 H 0.86879 0.15469 0.40261 0.0
H3019 H 0.84082 0.18917 0.39308 0.0
S3020 S 0.8214 0.10408 0.35526 0.0
N3021 N 0.84289 0.09769 0.36784 0.0
N3022 N 0.81172 0.13464 0.35791 0.0
C3023 C 0.82616 0.14098 0.36947 0.0
C3024 C 0.8428 0.12085 0.37496 0.0
C3025 C 0.12497 0.5938 0.62701 0.0
C3026 C 0.12218 0.60505 0.64049 0.0
C3027 C 0.10484 0.57876 0.621 0.0
C3028 C 0.08108 0.57435 0.62819 0.0
H3029 H 0.14246 0.59742 0.62081 0.0
H3030 H 0.10772 0.57093 0.61049 0.0
S3031 S 0.06452 0.59804 0.66413 0.0
N3032 N 0.09448 0.60924 0.66125 0.0
N3033 N 0.05623 0.58179 0.64974 0.0
C3034 C 0.07834 0.58475 0.64186 0.0
C3035 C 0.09894 0.59995 0.64803 0.0
C3036 C 0.66405 0.12336 0.61952 0.0
C3037 C 0.6462 0.12847 0.60853 0.0
C3038 C 0.67977 0.14336 0.62516 0.0
C3039 C 0.67837 0.16921 0.61997 0.0
H3040 H 0.66518 0.10395 0.62417 0.0
H3041 H 0.69276 0.13866 0.63385 0.0
S3042 S 0.63599 0.19248 0.59068 0.0
N3043 N 0.62916 0.16089 0.59209 0.0
N3044 N 0.65828 0.19865 0.60289 0.0
C3045 C 0.66127 0.1744 0.60865 0.0
C3046 C 0.64525 0.15401 0.60291 0.0
C3047 C 0.12813 0.40902 0.87453 0.0
C3048 C 0.12598 0.39776 0.86103 0.0
C3049 C 0.10776 0.42411 0.88026 0.0
C3050 C 0.08429 0.42847 0.87277 0.0
H3051 H 0.14529 0.40536 0.88099 0.0
H3052 H 0.1102 0.43195 0.89079 0.0
S3053 S 0.06952 0.40493 0.83657 0.0
N3054 N 0.09935 0.39378 0.83984 0.0
N3055 N 0.06049 0.42104 0.85087 0.0
C3056 C 0.08222 0.4181 0.85905 0.0
C3057 C 0.10314 0.40296 0.85314 0.0
C3058 C 0.84097 0.87457 0.12261 0.0
C3059 C 0.85321 0.87183 0.10938 0.0
C3060 C 0.82611 0.85418 0.12848 0.0
C3061 C 0.82301 0.83002 0.12145 0.0
H3062 H 0.84363 0.89229 0.12877 0.0
H3063 H 0.8174 0.8572 0.13878 0.0
S3064 S 0.84953 0.81335 0.08608 0.0
N3065 N 0.85944 0.84377 0.08889 0.0
N3066 N 0.8328 0.80485 0.10027 0.0
C3067 C 0.83444 0.82727 0.10801 0.0
C3068 C 0.84928 0.84824 0.10193 0.0
C3069 C 0.39439 0.57686 0.37932 0.0
C3070 C 0.4191 0.57402 0.37288 0.0
C3071 C 0.37481 0.59254 0.37325 0.0
C3072 C 0.37928 0.60614 0.36056 0.0
H3073 H 0.39034 0.56728 0.38929 0.0
H3074 H 0.35637 0.5948 0.37882 0.0
S3075 S 0.4402 0.60425 0.33913 0.0
N3076 N 0.44673 0.58545 0.35288 0.0
N3077 N 0.40974 0.61461 0.34135 0.0
C3078 C 0.40361 0.60281 0.35378 0.0
C3079 C 0.42354 0.58678 0.35994 0.0
C3080 C 0.3654 0.15782 0.10706 0.0
C3081 C 0.35771 0.1315 0.10875 0.0
C3082 C 0.34981 0.1784 0.11219 0.0
C3083 C 0.32589 0.17341 0.11915 0.0
H3084 H 0.38411 0.16251 0.10223 0.0
H3085 H 0.35708 0.19831 0.11118 0.0
S3086 S 0.29536 0.10799 0.12453 0.0
N3087 N 0.32363 0.10156 0.11671 0.0
N3088 N 0.2941 0.14026 0.12621 0.0
C3089 C 0.31741 0.1472 0.1203 0.0
C3090 C 0.33336 0.12625 0.11514 0.0
C3091 C 0.57842 0.58694 0.85733 0.0
C3092 C 0.5768 0.58101 0.87176 0.0
C3093 C 0.59951 0.60157 0.85196 0.0
C3094 C 0.61951 0.6111 0.86087 0.0
H3095 H 0.56311 0.58047 0.8502 0.0
H3096 H 0.6 0.6057 0.84076 0.0
S3097 S 0.62311 0.6019 0.89968 0.0
N3098 N 0.59635 0.58585 0.89492 0.0
N3099 N 0.63556 0.61416 0.88501 0.0
C3100 C 0.618 0.60516 0.87536 0.0
C3101 C 0.59672 0.58994 0.88076 0.0
C3102 C 0.16713 0.83529 0.6102 0.0
C3103 C 0.16243 0.82548 0.62383 0.0
C3104 C 0.15245 0.85642 0.60484 0.0
C3105 C 0.13294 0.86867 0.61305 0.0
H3106 H 0.18186 0.82624 0.60355 0.0
H3107 H 0.15642 0.86329 0.59425 0.0
S3108 S 0.11358 0.85069 0.64949 0.0
N3109 N 0.13732 0.82988 0.6455 0.0
N3110 N 0.10975 0.86945 0.63544 0.0
C3111 C 0.12835 0.85922 0.62675 0.0
C3112 C 0.14308 0.83765 0.63214 0.0
C3113 C 0.92348 0.4051 0.35796 0.0
C3114 C 0.92255 0.41682 0.37139 0.0
C3115 C 0.90257 0.38969 0.35301 0.0
C3116 C 0.88036 0.3851 0.36145 0.0
H3117 H 0.94066 0.40757 0.35135 0.0
H3118 H 0.90417 0.38057 0.34272 0.0
S3119 S 0.86816 0.41179 0.39721 0.0
N3120 N 0.89737 0.42337 0.39285 0.0
N3121 N 0.85823 0.39411 0.38362 0.0
C3122 C 0.879 0.3971 0.37477 0.0
C3123 C 0.90006 0.41307 0.37971 0.0
C3124 C 0.35309 0.83944 0.36953 0.0
C3125 C 0.33333 0.82741 0.37764 0.0
C3126 C 0.36772 0.86048 0.37486 0.0
C3127 C 0.36335 0.87005 0.38856 0.0
H3128 H 0.35735 0.83243 0.35899 0.0
H3129 H 0.38302 0.86892 0.36834 0.0
S3130 S 0.31349 0.8459 0.41391 0.0
N3131 N 0.30974 0.82694 0.39991 0.0
N3132 N 0.33743 0.86656 0.40999 0.0
C3133 C 0.34344 0.85848 0.39672 0.0
C3134 C 0.32832 0.83718 0.39123 0.0
C3135 C 0.91799 0.58231 0.14339 0.0
C3136 C 0.92166 0.57867 0.12886 0.0
C3137 C 0.897 0.59745 0.14848 0.0
C3138 C 0.87921 0.60973 0.13919 0.0
H3139 H 0.93166 0.57373 0.15084 0.0
H3140 H 0.89488 0.59983 0.15977 0.0
S3141 S 0.88158 0.60692 0.10007 0.0
N3142 N 0.90644 0.58845 0.10524 0.0
N3143 N 0.86747 0.61765 0.11465 0.0
C3144 C 0.88278 0.60601 0.12459 0.0
C3145 C 0.90394 0.59034 0.11947 0.0
C3146 C 0.14195 0.1702 0.87598 0.0
C3147 C 0.16727 0.17588 0.88114 0.0
C3148 C 0.12759 0.14877 0.88109 0.0
C3149 C 0.13795 0.13237 0.89158 0.0
H3150 H 0.13325 0.18225 0.86781 0.0
H3151 H 0.10821 0.14501 0.87682 0.0
S3152 S 0.20296 0.13849 0.90872 0.0
N3153 N 0.20195 0.16322 0.89745 0.0
N3154 N 0.17471 0.12281 0.90701 0.0
C3155 C 0.1631 0.13766 0.89687 0.0
C3156 C 0.17787 0.15942 0.89162 0.0
C3157 C 0.57878 0.38658 0.62677 0.0
C3158 C 0.57628 0.41354 0.62991 0.0
C3159 C 0.59967 0.3717 0.63207 0.0
C3160 C 0.6191 0.38324 0.64052 0.0
H3161 H 0.56456 0.37686 0.62008 0.0
H3162 H 0.60079 0.35101 0.62943 0.0
S3163 S 0.62185 0.45256 0.6522 0.0
N3164 N 0.59497 0.45086 0.64248 0.0
N3165 N 0.63485 0.42283 0.65195 0.0
C3166 C 0.61722 0.41009 0.64365 0.0
C3167 C 0.59568 0.42526 0.63844 0.0
C3168 C 0.23087 0.25747 0.24168 0.0
C3169 C 0.2561 0.25806 0.23561 0.0
C3170 C 0.22728 0.25064 0.25588 0.0
C3171 C 0.24877 0.24406 0.2645 0.0
H3172 H 0.21372 0.26193 0.23536 0.0
H3173 H 0.2075 0.25011 0.26008 0.0
S3174 S 0.31898 0.24492 0.25409 0.0
N3175 N 0.30303 0.25311 0.23959 0.0
N3176 N 0.29622 0.24007 0.26622 0.0
C3177 C 0.27411 0.24499 0.25864 0.0
C3178 C 0.27779 0.25203 0.24421 0.0
C3179 C 0.99162 0.97998 0.50639 0.0
C3180 C 0.00707 0.99888 0.51335 0.0
C3181 C 0.98438 0.98314 0.49222 0.0
C3182 C 0.99215 0.00542 0.48451 0.0
H3183 H 0.98529 0.96243 0.51189 0.0
H3184 H 0.97243 0.9681 0.48731 0.0
S3185 S 0.03261 0.06073 0.49783 0.0
N3186 N 0.02957 0.04088 0.5115 0.0
N3187 N 0.01644 0.04654 0.4848 0.0
C3188 C 0.00757 0.0245 0.49134 0.0
C3189 C 0.01496 0.02127 0.50575 0.0
C3190 C 0.26913 0.73626 0.74273 0.0
C3191 C 0.2465 0.74393 0.73528 0.0
C3192 C 0.27306 0.74396 0.75677 0.0
C3193 C 0.25465 0.75985 0.7638 0.0
H3194 H 0.28381 0.72402 0.73771 0.0
H3195 H 0.29078 0.73766 0.76211 0.0
S3196 S 0.19222 0.7853 0.74897 0.0
N3197 N 0.20556 0.76848 0.73592 0.0
N3198 N 0.2128 0.7827 0.76235 0.0
C3199 C 0.23196 0.76767 0.75647 0.0
C3200 C 0.22789 0.75973 0.74221 0.0
C3201 C 0.49803 0.02149 0.00662 0.0
C3202 C 0.49225 1.00003 0.01541 0.0
C3203 C 0.50512 0.01776 0.99248 0.0
C3204 C 0.50684 0.99241 0.98663 0.0
H3205 H 0.49679 0.04136 0.01066 0.0
H3206 H 0.50901 0.0349 0.98604 0.0
S3207 S 0.49567 0.92963 0.00559 0.0
N3208 N 0.48982 0.95254 0.01751 0.0
N3209 N 0.50351 0.94544 0.99099 0.0
C3210 C 0.50143 0.97076 0.99539 0.0
C3211 C 0.49405 0.97459 0.00976 0.0
C3212 C 0.27111 0.75329 0.25853 0.0
C3213 C 0.25216 0.73809 0.2656 0.0
C3214 C 0.26766 0.7607 0.24442 0.0
C3215 C 0.24522 0.753 0.23681 0.0
H3216 H 0.2886 0.75982 0.26402 0.0
H3217 H 0.2828 0.77235 0.23939 0.0
S3218 S 0.18993 0.71283 0.25043 0.0
N3219 N 0.21039 0.71517 0.26388 0.0
N3220 N 0.20364 0.7295 0.23743 0.0
C3221 C 0.22616 0.7377 0.24374 0.0
C3222 C 0.22967 0.73019 0.25811 0.0
C3223 C 0.49097 0.97712 0.49697 0.0
C3224 C 0.49437 0.99765 0.48723 0.0
C3225 C 0.49857 0.9801 0.51109 0.0
C3226 C 0.50928 0.00389 0.51595 0.0
H3227 H 0.48263 0.95857 0.49359 0.0
H3228 H 0.49571 0.96385 0.51831 0.0
S3229 S 0.52193 0.06356 0.49465 0.0
N3230 N 0.50923 0.04239 0.48334 0.0
N3231 N 0.52295 0.04823 0.50999 0.0
C3232 C 0.51261 0.02458 0.50633 0.0
C3233 C 0.50531 0.02139 0.49193 0.0
C3234 C 0.25724 0.23424 0.76271 0.0
C3235 C 0.24456 0.25788 0.76635 0.0
C3236 C 0.26104 0.22713 0.74858 0.0
C3237 C 0.25247 0.24346 0.73755 0.0
H3238 H 0.26462 0.22127 0.77085 0.0
H3239 H 0.27107 0.20887 0.74626 0.0
S3240 S 0.21638 0.30633 0.74132 0.0
N3241 N 0.22203 0.29681 0.75768 0.0
N3242 N 0.22961 0.2836 0.73113 0.0
C3243 C 0.23953 0.26698 0.741 0.0
C3244 C 0.23548 0.27415 0.75539 0.0
C3245 C 0.01335 0.98456 0.99494 0.0
C3246 C 0.00572 0.00735 0.9876 0.0
C3247 C 0.00642 0.98077 0.00911 0.0
C3248 C 0.99147 0.99956 0.01643 0.0
H3249 H 0.02453 0.96936 0.98966 0.0
H3250 H 0.01252 0.96284 0.01432 0.0
S3251 S 0.96832 0.0635 0.00244 0.0
N3252 N 0.98367 0.04966 0.98902 0.0
N3253 N 0.97035 0.04231 0.01558 0.0
C3254 C 0.98393 0.02253 0.00929 0.0
C3255 C 0.99111 0.02648 0.9949 0.0
C3256 C 0.73833 0.7387 0.73866 0.0
C3257 C 0.75631 0.75836 0.7347 0.0
C3258 C 0.73482 0.73179 0.75284 0.0
C3259 C 0.7491 0.74434 0.7636 0.0
H3260 H 0.72659 0.7288 0.73075 0.0
H3261 H 0.72055 0.71675 0.75543 0.0
S3262 S 0.80015 0.79552 0.75876 0.0
N3263 N 0.78967 0.78919 0.74264 0.0
N3264 N 0.78288 0.77634 0.76931 0.0
C3265 C 0.76738 0.76378 0.75979 0.0
C3266 C 0.77103 0.77076 0.74535 0.0
C3267 C 0.74326 0.22744 0.24529 0.0
C3268 C 0.74722 0.24612 0.23452 0.0
C3269 C 0.7468 0.23399 0.25953 0.0
C3270 C 0.75408 0.25951 0.26352 0.0
H3271 H 0.737 0.20768 0.24273 0.0
H3272 H 0.7434 0.21911 0.26749 0.0
S3273 S 0.76878 0.31519 0.2397 0.0
N3274 N 0.76067 0.2909 0.22901 0.0
N3275 N 0.76617 0.30328 0.25583 0.0
C3276 C 0.75832 0.27832 0.25298 0.0
C3277 C 0.75515 0.27162 0.23846 0.0
C3278 C 0.77239 0.25507 0.7586 0.0
C3279 C 0.75482 0.23788 0.76539 0.0
C3280 C 0.76911 0.26185 0.74439 0.0
C3281 C 0.74824 0.25158 0.73638 0.0
H3282 H 0.78861 0.26366 0.76438 0.0
H3283 H 0.78316 0.27512 0.7396 0.0
S3284 S 0.69696 0.20553 0.74912 0.0
N3285 N 0.71609 0.21029 0.76294 0.0
N3286 N 0.70957 0.22353 0.73632 0.0
C3287 C 0.73059 0.23428 0.74301 0.0
C3288 C 0.73393 0.22737 0.75749 0.0
C3289 C 0.76043 0.73664 0.2617 0.0
C3290 C 0.74319 0.75697 0.26564 0.0
C3291 C 0.76374 0.72963 0.24751 0.0
C3292 C 0.75001 0.74274 0.23674 0.0
H3293 H 0.77177 0.72633 0.26962 0.0
H3294 H 0.7775 0.71412 0.24493 0.0
S3295 S 0.70077 0.79567 0.24155 0.0
N3296 N 0.71095 0.78895 0.25768 0.0
N3297 N 0.71738 0.77591 0.23101 0.0
C3298 C 0.73238 0.76278 0.24054 0.0
C3299 C 0.72893 0.76986 0.25498 0.0
C3300 C 0.51646 0.48567 0.0025 0.0
C3301 C 0.50388 0.49957 0.0134 0.0
C3302 C 0.50928 0.48936 0.98837 0.0
C3303 C 0.48931 0.50714 0.98459 0.0
H3304 H 0.53173 0.47156 0.00494 0.0
H3305 H 0.51922 0.47792 0.98035 0.0
S3306 S 0.45192 0.54998 0.00906 0.0
N3307 N 0.4715 0.53279 0.01943 0.0
N3308 N 0.45814 0.5399 0.99285 0.0
C3309 C 0.47688 0.52147 0.99538 0.0
C3310 C 0.48413 0.51764 0.00977 0.0
C3311 C 0.98743 0.51021 0.48846 0.0
C3312 C 0.00817 0.49353 0.48442 0.0
C3313 C 0.98044 0.51323 0.50266 0.0
C3314 C 0.99402 0.49979 0.51337 0.0
H3315 H 0.97673 0.52132 0.48059 0.0
H3316 H 0.96457 0.52651 0.50531 0.0
S3317 S 0.04827 0.45211 0.50836 0.0
N3318 N 0.0411 0.46214 0.49226 0.0
N3319 N 0.02818 0.46815 0.51897 0.0
C3320 C 0.01453 0.48279 0.50949 0.0
C3321 C 0.02156 0.47959 0.49503 0.0
C3322 C 0.01587 0.48691 0.00786 0.0
C3323 C 0.00618 0.50825 0.0157 0.0
C3324 C 0.00889 0.48343 0.99369 0.0
C3325 C 0.99204 0.50123 0.98681 0.0
H3326 H 0.02867 0.47259 0.01278 0.0
H3327 H 0.0165 0.46648 0.98813 0.0
S3328 S 0.96315 0.56152 0.00241 0.0
N3329 N 0.97997 0.54812 0.01544 0.0
N3330 N 0.96704 0.54179 0.98875 0.0
C3331 C 0.98254 0.52288 0.9945 0.0
C3332 C 0.98957 0.52634 0.00895 0.0
C3333 C 0.49326 0.52002 0.49576 0.0
C3334 C 0.50745 0.50062 0.48842 0.0
C3335 C 0.48632 0.51663 0.50995 0.0
C3336 C 0.49343 0.49378 0.51735 0.0
H3337 H 0.48773 0.53813 0.49055 0.0
H3338 H 0.47561 0.53217 0.51524 0.0
S3339 S 0.52871 0.43619 0.50275 0.0
N3340 N 0.52698 0.45704 0.48945 0.0
N3341 N 0.51423 0.45091 0.51618 0.0
C3342 C 0.50734 0.47411 0.51013 0.0
C3343 C 0.51429 0.47747 0.49566 0.0
C3344 C 0.35271 0.12902 0.38514 0.0
C3345 C 0.3496 0.13507 0.37076 0.0
C3346 C 0.37137 0.1106 0.38963 0.0
C3347 C 0.38754 0.09741 0.37991 0.0
H3348 H 0.34022 0.13821 0.39297 0.0
H3349 H 0.37237 0.10587 0.40076 0.0
S3350 S 0.38843 0.10735 0.34117 0.0
N3351 N 0.36498 0.12709 0.34686 0.0
N3352 N 0.40051 0.09297 0.35536 0.0
C3353 C 0.38538 0.10404 0.36556 0.0
C3354 C 0.36634 0.12277 0.36098 0.0
C3355 C 0.12985 0.11112 0.61214 0.0
C3356 C 0.11376 0.09757 0.62176 0.0
C3357 C 0.14858 0.12934 0.61679 0.0
C3358 C 0.15178 0.13486 0.63122 0.0
H3359 H 0.1287 0.10683 0.60097 0.0
H3360 H 0.16104 0.1388 0.60905 0.0
S3361 S 0.11327 0.106 0.6606 0.0
N3362 N 0.1011 0.09209 0.64629 0.0
N3363 N 0.1366 0.12604 0.65507 0.0
C3364 C 0.13512 0.12221 0.64091 0.0
C3365 C 0.11609 0.1036 0.63617 0.0
C3366 C 0.13916 0.88045 0.86263 0.0
C3367 C 0.1544 0.86621 0.87235 0.0
C3368 C 0.12051 0.89883 0.86721 0.0
C3369 C 0.11619 0.90329 0.88167 0.0
H3370 H 0.14246 0.87817 0.85142 0.0
H3371 H 0.1098 0.91006 0.8594 0.0
S3372 S 0.14976 0.86968 0.91131 0.0
N3373 N 0.16303 0.85672 0.89702 0.0
N3374 N 0.1279 0.89122 0.90565 0.0
C3375 C 0.13052 0.88837 0.89148 0.0
C3376 C 0.14968 0.86986 0.88681 0.0
C3377 C 0.35453 0.86936 0.11801 0.0
C3378 C 0.34893 0.86511 0.13237 0.0
C3379 C 0.37299 0.88822 0.11379 0.0
C3380 C 0.38643 0.90365 0.12375 0.0
H3381 H 0.34411 0.85844 0.10997 0.0
H3382 H 0.37592 0.89149 0.10261 0.0
S3383 S 0.38033 0.89902 0.16264 0.0
N3384 N 0.35919 0.87718 0.15657 0.0
N3385 N 0.39431 0.91217 0.14861 0.0
C3386 C 0.38185 0.89885 0.13814 0.0
C3387 C 0.36305 0.87966 0.14245 0.0
C3388 C 0.62902 0.85478 0.62221 0.0
C3389 C 0.64829 0.86116 0.63225 0.0
C3390 C 0.61039 0.87346 0.61786 0.0
C3391 C 0.61059 0.8992 0.62333 0.0
H3392 H 0.62843 0.83526 0.61766 0.0
H3393 H 0.59585 0.86777 0.61011 0.0
S3394 S 0.65875 0.92614 0.64895 0.0
N3395 N 0.66731 0.89508 0.64706 0.0
N3396 N 0.63289 0.93034 0.6387 0.0
C3397 C 0.63001 0.90578 0.63329 0.0
C3398 C 0.64873 0.88673 0.63779 0.0
C3399 C 0.85816 0.90355 0.38199 0.0
C3400 C 0.8853 0.89879 0.38104 0.0
C3401 C 0.8399 0.88432 0.37819 0.0
C3402 C 0.84807 0.85967 0.37314 0.0
H3403 H 0.85099 0.92238 0.38569 0.0
H3404 H 0.81918 0.88902 0.37887 0.0
S3405 S 0.91689 0.83726 0.36889 0.0
N3406 N 0.91956 0.86757 0.37497 0.0
N3407 N 0.88506 0.8313 0.36762 0.0
C3408 C 0.87514 0.85452 0.37224 0.0
C3409 C 0.89381 0.87409 0.37629 0.0
C3410 C 0.84281 0.10939 0.12998 0.0
C3411 C 0.8497 0.13602 0.13114 0.0
C3412 C 0.8615 0.09044 0.12631 0.0
C3413 C 0.88765 0.09752 0.12346 0.0
H3414 H 0.8228 0.10316 0.13199 0.0
H3415 H 0.85533 0.07013 0.12543 0.0
S3416 S 0.91561 0.16466 0.12507 0.0
N3417 N 0.88438 0.16859 0.12937 0.0
N3418 N 0.91957 0.13291 0.12209 0.0
C3419 C 0.89482 0.12409 0.12455 0.0
C3420 C 0.87582 0.14337 0.12853 0.0
C3421 C 0.64143 0.10471 0.88887 0.0
C3422 C 0.61693 0.10001 0.88251 0.0
C3423 C 0.65796 0.12473 0.88404 0.0
C3424 C 0.6507 0.14071 0.87258 0.0
H3425 H 0.64813 0.09241 0.89747 0.0
H3426 H 0.67705 0.12698 0.88894 0.0
S3427 S 0.5879 0.13746 0.85285 0.0
N3428 N 0.58563 0.11364 0.86462 0.0
N3429 N 0.61675 0.15148 0.85551 0.0
C3430 C 0.62587 0.13682 0.86643 0.0
C3431 C 0.60892 0.11647 0.87143 0.0
C3432 C 0.85339 0.62991 0.88318 0.0
C3433 C 0.84899 0.63448 0.86874 0.0
C3434 C 0.87237 0.61187 0.88773 0.0
C3435 C 0.88763 0.59763 0.87801 0.0
H3436 H 0.8416 0.6399 0.89104 0.0
H3437 H 0.8743 0.60823 0.89894 0.0
S3438 S 0.88526 0.60376 0.83906 0.0
N3439 N 0.86233 0.62411 0.84475 0.0
N3440 N 0.89852 0.59077 0.85333 0.0
C3441 C 0.88428 0.60288 0.86357 0.0
C3442 C 0.8649 0.6212 0.85892 0.0
C3443 C 0.6395 0.61936 0.1383 0.0
C3444 C 0.6535 0.63506 0.12868 0.0
C3445 C 0.62133 0.6006 0.13363 0.0
C3446 C 0.61635 0.5969 0.11917 0.0
H3447 H 0.64343 0.62078 0.1495 0.0
H3448 H 0.61152 0.58847 0.1414 0.0
S3449 S 0.64635 0.63452 0.08976 0.0
N3450 N 0.65975 0.64708 0.10411 0.0
N3451 N 0.62611 0.61136 0.09529 0.0
C3452 C 0.6294 0.61325 0.10947 0.0
C3453 C 0.64788 0.63239 0.11424 0.0
C3454 C 0.63363 0.37713 0.36207 0.0
C3455 C 0.65035 0.36397 0.37153 0.0
C3456 C 0.61531 0.39562 0.3669 0.0
C3457 C 0.61287 0.40137 0.38135 0.0
H3458 H 0.63553 0.37397 0.35082 0.0
H3459 H 0.60339 0.40596 0.35924 0.0
S3460 S 0.65072 0.37069 0.41044 0.0
N3461 N 0.66218 0.3566 0.39602 0.0
N3462 N 0.62794 0.39153 0.40511 0.0
C3463 C 0.62867 0.38746 0.39095 0.0
C3464 C 0.64739 0.36875 0.38603 0.0
C3465 C 0.87257 0.38761 0.61212 0.0
C3466 C 0.88729 0.40236 0.62186 0.0
C3467 C 0.85395 0.36917 0.61664 0.0
C3468 C 0.8494 0.36468 0.63108 0.0
H3469 H 0.87465 0.39111 0.60091 0.0
H3470 H 0.84258 0.35876 0.60877 0.0
S3471 S 0.88428 0.39675 0.66082 0.0
N3472 N 0.89749 0.40988 0.64657 0.0
N3473 N 0.86199 0.37574 0.6551 0.0
C3474 C 0.86476 0.37851 0.64093 0.0
C3475 C 0.88377 0.39726 0.63631 0.0
C3476 C 0.13494 0.39507 0.1105 0.0
C3477 C 0.11128 0.39791 0.11801 0.0
C3478 C 0.15466 0.37804 0.1152 0.0
C3479 C 0.15144 0.36306 0.12753 0.0
H3480 H 0.13879 0.40699 0.10127 0.0
H3481 H 0.1729 0.37709 0.10932 0.0
S3482 S 0.09234 0.36168 0.15037 0.0
N3483 N 0.08498 0.38299 0.13785 0.0
N3484 N 0.12227 0.35109 0.14678 0.0
C3485 C 0.12743 0.36477 0.1348 0.0
C3486 C 0.10734 0.38223 0.13003 0.0
C3487 C 0.38994 0.37517 0.88307 0.0
C3488 C 0.38987 0.40067 0.8773 0.0
C3489 C 0.37183 0.35613 0.87857 0.0
C3490 C 0.35319 0.3619 0.86808 0.0
H3491 H 0.40392 0.37 0.89122 0.0
H3492 H 0.37224 0.33684 0.88339 0.0
S3493 S 0.3434 0.42608 0.85038 0.0
N3494 N 0.36852 0.43093 0.86107 0.0
N3495 N 0.33494 0.39504 0.85249 0.0
C3496 C 0.35295 0.38722 0.86221 0.0
C3497 C 0.37119 0.40662 0.86684 0.0
C3498 C 0.36521 0.59005 0.62914 0.0
C3499 C 0.38912 0.59871 0.62335 0.0
C3500 C 0.34541 0.60785 0.63277 0.0
C3501 C 0.34885 0.63501 0.63088 0.0
H3502 H 0.3615 0.56926 0.63055 0.0
H3503 H 0.3272 0.60028 0.63706 0.0
S3504 S 0.40807 0.66786 0.61654 0.0
N3505 N 0.41538 0.63624 0.61614 0.0
N3506 N 0.37808 0.66987 0.62313 0.0
C3507 C 0.37283 0.64405 0.62538 0.0
C3508 C 0.39295 0.62584 0.62151 0.0
C3509 C 0.10857 0.62357 0.37835 0.0
C3510 C 0.11323 0.59636 0.37773 0.0
C3511 C 0.12813 0.64161 0.37439 0.0
C3512 C 0.15307 0.63293 0.37002 0.0
H3513 H 0.08971 0.63088 0.3819 0.0
H3514 H 0.12394 0.66244 0.37501 0.0
S3515 S 0.17504 0.56377 0.3667 0.0
N3516 N 0.14449 0.56166 0.37243 0.0
N3517 N 0.18119 0.59547 0.3651 0.0
C3518 C 0.15786 0.60579 0.36935 0.0
C3519 C 0.13796 0.58752 0.37318 0.0
loop_
_geom_bond_atom_site_label_1
_geom_bond_atom_site_label_2
_geom_bond_distance
_geom_bond_site_symmetry_2
_ccdc_geom_bond_type
Li0 N17 1.990 . S
Li0 O60 1.956 . S
Li0 O61 1.970 . S
Li0 O62 1.961 . S
Li1 N25 1.990 . S
Li1 O60 1.970 . S
Li1 O61 1.956 . S
Li1 O63 1.961 . S
Li2 N47 1.990 . S
Li2 O60 1.961 . S
Li2 O62 1.956 . S
Li2 O63 1.970 . S
Li3 N53 1.990 . S
Li3 O61 1.961 . S
Li3 O62 1.970 . S
Li3 O63 1.956 . S
C4 C6 1.348 . S
C4 C7 1.356 . S
C4 O60 1.325 . S
N5 C8 1.314 . S
N5 C9 1.279 . S
C6 C4 1.348 . S
C6 C8 1.353 . S
C6 H64 0.929 . S
C7 C4 1.356 . S
C7 C9 1.358 . S
C7 H65 0.930 . S
C8 N5 1.314 . S
C8 C6 1.353 . S
C8 H66 0.930 . S
C9 N5 1.279 . S
C9 C7 1.358 . S
C9 H67 0.930 . S
C10 C13 1.348 . S
C10 C14 1.356 . S
C10 O61 1.325 . S
C11 N12 1.279 . S
C11 C14 1.358 . S
C11 H68 0.930 . S
N12 C11 1.279 . S
N12 C15 1.314 . S
C13 C10 1.348 . S
C13 C15 1.353 . S
C13 H69 0.929 . S
C14 C10 1.356 . S
C14 C11 1.358 . S
C14 H70 0.930 . S
C15 N12 1.314 . S
C15 C13 1.353 . S
C15 H71 0.930 . S
C16 N17 1.314 . S
C16 C21 1.353 . S
C16 H22 0.930 . S
N17 Li0 1.990 . S
N17 C16 1.314 . S
N17 C19 1.279 . S
C18 C19 1.358 . S
C18 C20 1.356 . S
C18 H72 0.930 . S
C19 N17 1.279 . S
C19 C18 1.358 . S
C19 H23 0.930 . S
C20 C18 1.356 . S
C20 C21 1.348 . S
C21 C16 1.353 . S
C21 C20 1.348 . S
C21 H73 0.929 . S
H22 C16 0.930 . S
H23 C19 0.930 . S
C24 N25 1.314 . S
C24 C26 1.353 . S
C24 H30 0.930 . S
N25 Li1 1.990 . S
N25 C24 1.314 . S
N25 C28 1.279 . S
C26 C24 1.353 . S
C26 C29 1.348 . S
C26 H74 0.929 . S
C27 C28 1.358 . S
C27 C29 1.356 . S
C27 H75 0.930 . S
C28 N25 1.279 . S
C28 C27 1.358 . S
C28 H31 0.930 . S
C29 C26 1.348 . S
C29 C27 1.356 . S
H30 C24 0.930 . S
H31 C28 0.930 . S
C32 C34 1.348 . S
C32 C35 1.356 . S
C32 O62 1.325 . S
N33 C36 1.314 . S
N33 C37 1.279 . S
C34 C32 1.348 . S
C34 C36 1.353 . S
C34 H76 0.929 . S
C35 C32 1.356 . S
C35 C37 1.358 . S
C35 H77 0.930 . S
C36 N33 1.314 . S
C36 C34 1.353 . S
C36 H78 0.930 . S
C37 N33 1.279 . S
C37 C35 1.358 . S
C37 H79 0.930 . S
C38 C39 1.348 . S
C38 C40 1.356 . S
C38 O63 1.325 . S
C39 C38 1.348 . S
C39 C41 1.353 . S
C39 H80 0.929 . S
C40 C38 1.356 . S
C40 C42 1.358 . S
C40 H81 0.930 . S
C41 C39 1.353 . S
C41 N43 1.314 . S
C41 H82 0.930 . S
C42 C40 1.358 . S
C42 N43 1.279 . S
C42 H83 0.930 . S
N43 C41 1.314 . S
N43 C42 1.279 . S
C44 C46 1.353 . S
C44 N47 1.314 . S
C44 H50 0.930 . S
C45 N47 1.279 . S
C45 C48 1.358 . S
C45 H51 0.930 . S
C46 C44 1.353 . S
C46 C49 1.348 . S
C46 H84 0.929 . S
N47 Li2 1.990 . S
N47 C44 1.314 . S
N47 C45 1.279 . S
C48 C45 1.358 . S
C48 C49 1.356 . S
C48 H85 0.930 . S
C49 C46 1.348 . S
C49 C48 1.356 . S
H50 C44 0.930 . S
H51 C45 0.930 . S
C52 N53 1.314 . S
C52 C54 1.353 . S
C52 H58 0.930 . S
N53 Li3 1.990 . S
N53 C52 1.314 . S
N53 C56 1.279 . S
C54 C52 1.353 . S
C54 C57 1.348 . S
C54 H86 0.929 . S
C55 C56 1.358 . S
C55 C57 1.356 . S
C55 H87 0.930 . S
C56 N53 1.279 . S
C56 C55 1.358 . S
C56 H59 0.930 . S
C57 C54 1.348 . S
C57 C55 1.356 . S
H58 C52 0.930 . S
H59 C56 0.930 . S
O60 Li0 1.956 . S
O60 Li1 1.970 . S
O60 Li2 1.961 . S
O60 C4 1.325 . S
O61 Li0 1.970 . S
O61 Li1 1.956 . S
O61 Li3 1.961 . S
O61 C10 1.325 . S
O62 Li0 1.961 . S
O62 Li2 1.956 . S
O62 Li3 1.970 . S
O62 C32 1.325 . S
O63 Li1 1.961 . S
O63 Li2 1.970 . S
O63 Li3 1.956 . S
O63 C38 1.325 . S
H64 C6 0.929 . S
H65 C7 0.930 . S
H66 C8 0.930 . S
H67 C9 0.930 . S
H68 C11 0.930 . S
H69 C13 0.929 . S
H70 C14 0.930 . S
H71 C15 0.930 . S
H72 C18 0.930 . S
H73 C21 0.929 . S
H74 C26 0.929 . S
H75 C27 0.930 . S
H76 C34 0.929 . S
H77 C35 0.930 . S
H78 C36 0.930 . S
H79 C37 0.930 . S
H80 C39 0.929 . S
H81 C40 0.930 . S
H82 C41 0.930 . S
H83 C42 0.930 . S
H84 C46 0.929 . S
H85 C48 0.930 . S
H86 C54 0.929 . S
H87 C55 0.930 . S
Li88 N105 1.990 1_455 S
Li88 O148 1.956 . S
Li88 O149 1.970 . S
Li88 O150 1.961 1_565 S
Li89 N113 1.990 . S
Li89 O148 1.970 . S
Li89 O149 1.956 . S
Li89 O151 1.961 . S
Li90 N135 1.990 . S
Li90 O148 1.961 1_545 S
Li90 O150 1.956 . S
Li90 O151 1.970 1_545 S
Li91 N141 1.990 . S
Li91 O149 1.961 . S
Li91 O150 1.970 1_565 S
Li91 O151 1.956 . S
C92 C94 1.348 . S
C92 C95 1.356 . S
C92 O148 1.325 . S
N93 C96 1.314 . S
N93 C97 1.279 . S
C94 C92 1.348 . S
C94 C96 1.353 . S
C94 H152 0.929 . S
C95 C92 1.356 . S
C95 C97 1.358 . S
C95 H153 0.930 1_565 S
C96 N93 1.314 . S
C96 C94 1.353 . S
C96 H154 0.930 . S
C97 N93 1.279 . S
C97 C95 1.358 . S
C97 H155 0.930 1_565 S
C98 C101 1.348 1_455 S
C98 C102 1.356 . S
C98 O149 1.325 . S
C99 N100 1.279 1_455 S
C99 C102 1.358 . S
C99 H156 0.930 . S
N100 C99 1.279 1_655 S
N100 C103 1.314 . S
C101 C98 1.348 1_655 S
C101 C103 1.353 . S
C101 H157 0.929 . S
C102 C98 1.356 . S
C102 C99 1.358 . S
C102 H158 0.930 . S
C103 N100 1.314 . S
C103 C101 1.353 . S
C103 H159 0.930 . S
C104 N105 1.314 . S
C104 C109 1.353 . S
C104 H110 0.930 . S
N105 Li88 1.990 1_655 S
N105 C104 1.314 . S
N105 C107 1.279 . S
C106 C107 1.358 . S
C106 C108 1.356 . S
C106 H160 0.930 . S
C107 N105 1.279 . S
C107 C106 1.358 . S
C107 H111 0.930 . S
C108 C106 1.356 . S
C108 C109 1.348 . S
C109 C104 1.353 . S
C109 C108 1.348 . S
C109 H161 0.929 . S
H110 C104 0.930 . S
H111 C107 0.930 . S
C112 N113 1.314 . S
C112 C114 1.353 . S
C112 H118 0.930 . S
N113 Li89 1.990 . S
N113 C112 1.314 . S
N113 C116 1.279 . S
C114 C112 1.353 . S
C114 C117 1.348 . S
C114 H162 0.929 . S
C115 C116 1.358 . S
C115 C117 1.356 . S
C115 H163 0.930 . S
C116 N113 1.279 . S
C116 C115 1.358 . S
C116 H119 0.930 . S
C117 C114 1.348 . S
C117 C115 1.356 . S
H118 C112 0.930 . S
H119 C116 0.930 . S
C120 C122 1.351 . S
C120 C123 1.356 1_455 S
C120 O150 1.325 . S
N121 C124 1.314 . S
N121 C125 1.279 . S
C122 C120 1.351 . S
C122 C124 1.330 1_455 S
C122 H164 0.951 . S
C123 C120 1.356 1_655 S
C123 C125 1.358 . S
C123 H165 0.930 . S
C124 N121 1.314 . S
C124 C122 1.330 1_655 S
C124 H166 0.930 . S
C125 N121 1.279 . S
C125 C123 1.358 . S
C125 H167 0.930 . S
C126 C127 1.348 1_565 S
C126 C128 1.356 . S
C126 O151 1.325 . S
C127 C126 1.348 1_545 S
C127 C129 1.353 . S
C127 H168 0.929 . S
C128 C126 1.356 . S
C128 C130 1.358 . S
C128 H169 0.930 . S
C129 C127 1.353 . S
C129 N131 1.314 . S
C129 H170 0.930 . S
C130 C128 1.358 . S
C130 N131 1.279 1_565 S
C130 H171 0.930 . S
N131 C129 1.314 . S
N131 C130 1.279 1_545 S
C132 C134 1.353 . S
C132 N135 1.314 . S
C132 H138 0.930 . S
C133 N135 1.279 . S
C133 C136 1.358 . S
C133 H139 0.930 . S
C134 C132 1.353 . S
C134 C137 1.348 . S
C134 H172 0.929 . S
N135 Li90 1.990 . S
N135 C132 1.314 . S
N135 C133 1.279 . S
C136 C133 1.358 . S
C136 C137 1.356 . S
C136 H173 0.930 . S
C137 C134 1.348 . S
C137 C136 1.356 . S
H138 C132 0.930 . S
H139 C133 0.930 . S
C140 N141 1.314 . S
C140 C142 1.353 . S
C140 H146 0.930 1_455 S
N141 Li91 1.990 . S
N141 C140 1.314 . S
N141 C144 1.268 1_565 S
C142 C140 1.353 . S
C142 C145 1.348 . S
C142 H174 0.929 1_455 S
C143 C144 1.363 . S
C143 C145 1.356 1_545 S
C143 H175 0.930 . S
C144 N141 1.268 1_545 S
C144 C143 1.363 . S
C144 H147 0.939 . S
C145 C142 1.348 . S
C145 C143 1.356 1_565 S
H146 C140 0.930 1_655 S
H147 C144 0.939 . S
O148 Li88 1.956 . S
O148 Li89 1.970 . S
O148 Li90 1.961 1_565 S
O148 C92 1.325 . S
O149 Li88 1.970 . S
O149 Li89 1.956 . S
O149 Li91 1.961 . S
O149 C98 1.325 . S
O150 Li88 1.961 1_545 S
O150 Li90 1.956 . S
O150 Li91 1.970 1_545 S
O150 C120 1.325 . S
O151 Li89 1.961 . S
O151 Li90 1.970 1_565 S
O151 Li91 1.956 . S
O151 C126 1.325 . S
H152 C94 0.929 . S
H153 C95 0.930 1_545 S
H154 C96 0.930 . S
H155 C97 0.930 1_545 S
H156 C99 0.930 . S
H157 C101 0.929 . S
H158 C102 0.930 . S
H159 C103 0.930 . S
H160 C106 0.930 . S
H161 C109 0.929 . S
H162 C114 0.929 . S
H163 C115 0.930 . S
H164 C122 0.951 . S
H165 C123 0.930 . S
H166 C124 0.930 . S
H167 C125 0.930 . S
H168 C127 0.929 . S
H169 C128 0.930 . S
H170 C129 0.930 . S
H171 C130 0.930 . S
H172 C134 0.929 . S
H173 C136 0.930 . S
H174 C142 0.929 1_655 S
H175 C143 0.930 . S
Li176 N193 1.990 . S
Li176 O236 1.956 . S
Li176 O237 1.970 . S
Li176 O238 1.961 . S
Li177 N201 1.990 . S
Li177 O236 1.970 . S
Li177 O237 1.956 . S
Li177 O239 1.961 . S
Li178 N223 1.990 . S
Li178 O236 1.961 . S
Li178 O238 1.956 . S
Li178 O239 1.970 . S
Li179 N229 1.990 . S
Li179 O237 1.961 . S
Li179 O238 1.970 . S
Li179 O239 1.956 . S
C180 C182 1.348 . S
C180 C183 1.356 . S
C180 O236 1.325 . S
N181 C184 1.314 . S
N181 C185 1.279 . S
C182 C180 1.348 . S
C182 C184 1.353 . S
C182 H240 0.929 . S
C183 C180 1.356 . S
C183 C185 1.358 . S
C183 H241 0.930 . S
C184 N181 1.314 . S
C184 C182 1.353 . S
C184 H242 0.930 . S
C185 N181 1.279 . S
C185 C183 1.358 . S
C185 H243 0.930 . S
C186 C189 1.348 . S
C186 C190 1.356 . S
C186 O237 1.325 . S
C187 N188 1.279 . S
C187 C190 1.358 . S
C187 H244 0.930 . S
N188 C187 1.279 . S
N188 C191 1.314 . S
C189 C186 1.348 . S
C189 C191 1.353 . S
C189 H245 0.929 . S
C190 C186 1.356 . S
C190 C187 1.358 . S
C190 H246 0.930 . S
C191 N188 1.314 . S
C191 C189 1.353 . S
C191 H247 0.930 . S
C192 N193 1.314 . S
C192 C197 1.353 . S
C192 H198 0.930 . S
N193 Li176 1.990 . S
N193 C192 1.314 . S
N193 C195 1.279 . S
C194 C195 1.358 . S
C194 C196 1.356 . S
C194 H248 0.930 . S
C195 N193 1.279 . S
C195 C194 1.358 . S
C195 H199 0.930 . S
C196 C194 1.356 . S
C196 C197 1.348 . S
C197 C192 1.353 . S
C197 C196 1.348 . S
C197 H249 0.929 . S
H198 C192 0.930 . S
H199 C195 0.930 . S
C200 N201 1.314 . S
C200 C202 1.353 . S
C200 H206 0.930 . S
N201 Li177 1.990 . S
N201 C200 1.314 . S
N201 C204 1.279 . S
C202 C200 1.353 . S
C202 C205 1.348 . S
C202 H250 0.929 . S
C203 C204 1.358 . S
C203 C205 1.356 . S
C203 H251 0.930 . S
C204 N201 1.279 . S
C204 C203 1.358 . S
C204 H207 0.930 . S
C205 C202 1.348 . S
C205 C203 1.356 . S
H206 C200 0.930 . S
H207 C204 0.930 . S
C208 C210 1.348 . S
C208 C211 1.356 . S
C208 O238 1.325 . S
N209 C212 1.314 . S
N209 C213 1.279 . S
C210 C208 1.348 . S
C210 C212 1.353 . S
C210 H252 0.929 . S
C211 C208 1.356 . S
C211 C213 1.358 . S
C211 H253 0.930 . S
C212 N209 1.314 . S
C212 C210 1.353 . S
C212 H254 0.930 . S
C213 N209 1.279 . S
C213 C211 1.358 . S
C213 H255 0.930 . S
C214 C215 1.348 . S
C214 C216 1.356 . S
C214 O239 1.325 . S
C215 C214 1.348 . S
C215 C217 1.353 . S
C215 H256 0.929 . S
C216 C214 1.356 . S
C216 C218 1.358 . S
C216 H257 0.930 . S
C217 C215 1.353 . S
C217 N219 1.314 . S
C217 H258 0.930 . S
C218 C216 1.358 . S
C218 N219 1.279 . S
C218 H259 0.930 . S
N219 C217 1.314 . S
N219 C218 1.279 . S
C220 C222 1.353 . S
C220 N223 1.314 . S
C220 H226 0.930 . S
C221 N223 1.279 . S
C221 C224 1.358 . S
C221 H227 0.930 . S
C222 C220 1.353 . S
C222 C225 1.348 . S
C222 H260 0.929 . S
N223 Li178 1.990 . S
N223 C220 1.314 . S
N223 C221 1.279 . S
C224 C221 1.358 . S
C224 C225 1.356 . S
C224 H261 0.930 . S
C225 C222 1.348 . S
C225 C224 1.356 . S
H226 C220 0.930 . S
H227 C221 0.930 . S
C228 N229 1.314 . S
C228 C230 1.353 . S
C228 H234 0.930 . S
N229 Li179 1.990 . S
N229 C228 1.314 . S
N229 C232 1.279 . S
C230 C228 1.353 . S
C230 C233 1.348 . S
C230 H262 0.929 . S
C231 C232 1.358 . S
C231 C233 1.356 . S
C231 H263 0.930 . S
C232 N229 1.279 . S
C232 C231 1.358 . S
C232 H235 0.930 . S
C233 C230 1.348 . S
C233 C231 1.356 . S
H234 C228 0.930 . S
H235 C232 0.930 . S
O236 Li176 1.956 . S
O236 Li177 1.970 . S
O236 Li178 1.961 . S
O236 C180 1.325 . S
O237 Li176 1.970 . S
O237 Li177 1.956 . S
O237 Li179 1.961 . S
O237 C186 1.325 . S
O238 Li176 1.961 . S
O238 Li178 1.956 . S
O238 Li179 1.970 . S
O238 C208 1.325 . S
O239 Li177 1.961 . S
O239 Li178 1.970 . S
O239 Li179 1.956 . S
O239 C214 1.325 . S
H240 C182 0.929 . S
H241 C183 0.930 . S
H242 C184 0.930 . S
H243 C185 0.930 . S
H244 C187 0.930 . S
H245 C189 0.929 . S
H246 C190 0.930 . S
H247 C191 0.930 . S
H248 C194 0.930 . S
H249 C197 0.929 . S
H250 C202 0.929 . S
H251 C203 0.930 . S
H252 C210 0.929 . S
H253 C211 0.930 . S
H254 C212 0.930 . S
H255 C213 0.930 . S
H256 C215 0.929 . S
H257 C216 0.930 . S
H258 C217 0.930 . S
H259 C218 0.930 . S
H260 C222 0.929 . S
H261 C224 0.930 . S
H262 C230 0.929 . S
H263 C231 0.930 . S
Li264 N281 1.990 . S
Li264 O324 1.956 . S
Li264 O325 1.970 . S
Li264 O326 1.961 . S
Li265 N289 1.990 . S
Li265 O324 1.970 . S
Li265 O325 1.956 . S
Li265 O327 1.961 1_545 S
Li266 N311 1.990 . S
Li266 O324 1.961 . S
Li266 O326 1.956 . S
Li266 O327 1.970 1_545 S
Li267 N317 1.990 . S
Li267 O325 1.961 1_565 S
Li267 O326 1.970 1_565 S
Li267 O327 1.956 . S
C268 C270 1.348 . S
C268 C271 1.356 . S
C268 O324 1.325 . S
N269 C272 1.314 . S
N269 C273 1.279 . S
C270 C268 1.348 . S
C270 C272 1.353 . S
C270 H328 0.929 . S
C271 C268 1.356 . S
C271 C273 1.358 . S
C271 H329 0.930 . S
C272 N269 1.314 . S
C272 C270 1.353 . S
C272 H330 0.930 . S
C273 N269 1.279 . S
C273 C271 1.358 . S
C273 H331 0.930 . S
C274 C277 1.348 . S
C274 C278 1.356 . S
C274 O325 1.325 . S
C275 N276 1.279 . S
C275 C278 1.358 . S
C275 H332 0.930 1_545 S
N276 C275 1.279 . S
N276 C279 1.314 . S
C277 C274 1.348 . S
C277 C279 1.353 . S
C277 H333 0.929 . S
C278 C274 1.356 . S
C278 C275 1.358 . S
C278 H334 0.930 1_545 S
C279 N276 1.314 . S
C279 C277 1.353 . S
C279 H335 0.930 . S
C280 N281 1.314 . S
C280 C285 1.353 . S
C280 H286 0.930 . S
N281 Li264 1.990 . S
N281 C280 1.314 . S
N281 C283 1.279 . S
C282 C283 1.358 . S
C282 C284 1.356 . S
C282 H336 0.930 . S
C283 N281 1.279 . S
C283 C282 1.358 . S
C283 H287 0.930 . S
C284 C282 1.356 . S
C284 C285 1.348 . S
C285 C280 1.353 . S
C285 C284 1.348 . S
C285 H337 0.929 . S
H286 C280 0.930 . S
H287 C283 0.930 . S
C288 N289 1.314 . S
C288 C290 1.353 . S
C288 H294 0.930 . S
N289 Li265 1.990 . S
N289 C288 1.314 . S
N289 C292 1.279 . S
C290 C288 1.353 . S
C290 C293 1.348 . S
C290 H338 0.929 . S
C291 C292 1.358 . S
C291 C293 1.356 . S
C291 H339 0.930 . S
C292 N289 1.279 . S
C292 C291 1.358 . S
C292 H295 0.930 . S
C293 C290 1.348 . S
C293 C291 1.356 . S
H294 C288 0.930 . S
H295 C292 0.930 . S
C296 C298 1.348 1_545 S
C296 C299 1.356 . S
C296 O326 1.325 . S
N297 C300 1.314 . S
N297 C301 1.279 1_565 S
C298 C296 1.348 1_565 S
C298 C300 1.353 . S
C298 H340 0.929 . S
C299 C296 1.356 . S
C299 C301 1.358 . S
C299 H341 0.930 . S
C300 N297 1.314 . S
C300 C298 1.353 . S
C300 H342 0.930 . S
C301 N297 1.279 1_545 S
C301 C299 1.358 . S
C301 H343 0.930 . S
C302 C303 1.348 . S
C302 C304 1.356 . S
C302 O327 1.325 . S
C303 C302 1.348 . S
C303 C305 1.353 . S
C303 H344 0.929 . S
C304 C302 1.356 . S
C304 C306 1.358 . S
C304 H345 0.930 . S
C305 C303 1.353 . S
C305 N307 1.314 . S
C305 H346 0.930 . S
C306 C304 1.358 . S
C306 N307 1.279 . S
C306 H347 0.930 . S
N307 C305 1.314 . S
N307 C306 1.279 . S
C308 C310 1.353 . S
C308 N311 1.314 . S
C308 H314 0.930 . S
C309 N311 1.268 1_565 S
C309 C312 1.363 . S
C309 H315 0.939 . S
C310 C308 1.353 . S
C310 C313 1.348 . S
C310 H348 0.929 . S
N311 Li266 1.990 . S
N311 C308 1.314 . S
N311 C309 1.268 1_545 S
C312 C309 1.363 . S
C312 C313 1.356 1_565 S
C312 H349 0.930 . S
C313 C310 1.348 . S
C313 C312 1.356 1_545 S
H314 C308 0.930 . S
H315 C309 0.939 . S
C316 N317 1.314 . S
C316 C318 1.353 . S
C316 H322 0.930 . S
N317 Li267 1.990 . S
N317 C316 1.314 . S
N317 C320 1.279 . S
C318 C316 1.353 . S
C318 C321 1.348 . S
C318 H350 0.929 . S
C319 C320 1.358 . S
C319 C321 1.356 . S
C319 H351 0.930 . S
C320 N317 1.279 . S
C320 C319 1.358 . S
C320 H323 0.930 . S
C321 C318 1.348 . S
C321 C319 1.356 . S
H322 C316 0.930 . S
H323 C320 0.930 . S
O324 Li264 1.956 . S
O324 Li265 1.970 . S
O324 Li266 1.961 . S
O324 C268 1.325 . S
O325 Li264 1.970 . S
O325 Li265 1.956 . S
O325 Li267 1.961 1_545 S
O325 C274 1.325 . S
O326 Li264 1.961 . S
O326 Li266 1.956 . S
O326 Li267 1.970 1_545 S
O326 C296 1.325 . S
O327 Li265 1.961 1_565 S
O327 Li266 1.970 1_565 S
O327 Li267 1.956 . S
O327 C302 1.325 . S
H328 C270 0.929 . S
H329 C271 0.930 . S
H330 C272 0.930 . S
H331 C273 0.930 . S
H332 C275 0.930 1_565 S
H333 C277 0.929 . S
H334 C278 0.930 1_565 S
H335 C279 0.930 . S
H336 C282 0.930 . S
H337 C285 0.929 . S
H338 C290 0.929 . S
H339 C291 0.930 . S
H340 C298 0.929 . S
H341 C299 0.930 . S
H342 C300 0.930 . S
H343 C301 0.930 . S
H344 C303 0.929 . S
H345 C304 0.930 . S
H346 C305 0.930 . S
H347 C306 0.930 . S
H348 C310 0.929 . S
H349 C312 0.930 . S
H350 C318 0.929 . S
H351 C319 0.930 . S
Li352 N369 1.990 . S
Li352 O412 1.956 . S
Li352 O413 1.970 . S
Li352 O414 1.961 . S
Li353 N377 1.990 . S
Li353 O412 1.970 . S
Li353 O413 1.956 . S
Li353 O415 1.961 . S
Li354 N399 1.990 . S
Li354 O412 1.961 . S
Li354 O414 1.956 . S
Li354 O415 1.970 . S
Li355 N405 1.990 . S
Li355 O413 1.961 . S
Li355 O414 1.970 . S
Li355 O415 1.956 . S
C356 C358 1.348 . S
C356 C359 1.356 . S
C356 O412 1.325 . S
N357 C360 1.314 . S
N357 C361 1.279 . S
C358 C356 1.348 . S
C358 C360 1.353 . S
C358 H416 0.929 . S
C359 C356 1.356 . S
C359 C361 1.358 . S
C359 H417 0.930 . S
C360 N357 1.314 . S
C360 C358 1.353 . S
C360 H418 0.930 . S
C361 N357 1.279 . S
C361 C359 1.358 . S
C361 H419 0.930 . S
C362 C365 1.348 . S
C362 C366 1.356 . S
C362 O413 1.325 . S
C363 N364 1.279 . S
C363 C366 1.358 . S
C363 H420 0.930 . S
N364 C363 1.279 . S
N364 C367 1.314 . S
C365 C362 1.348 . S
C365 C367 1.353 . S
C365 H421 0.929 . S
C366 C362 1.356 . S
C366 C363 1.358 . S
C366 H422 0.930 . S
C367 N364 1.314 . S
C367 C365 1.353 . S
C367 H423 0.930 . S
C368 N369 1.314 . S
C368 C373 1.353 . S
C368 H374 0.930 . S
N369 Li352 1.990 . S
N369 C368 1.314 . S
N369 C371 1.279 . S
C370 C371 1.358 . S
C370 C372 1.356 . S
C370 H424 0.930 . S
C371 N369 1.279 . S
C371 C370 1.358 . S
C371 H375 0.930 . S
C372 C370 1.356 . S
C372 C373 1.348 . S
C373 C368 1.353 . S
C373 C372 1.348 . S
C373 H425 0.929 . S
H374 C368 0.930 . S
H375 C371 0.930 . S
C376 N377 1.314 . S
C376 C378 1.353 . S
C376 H382 0.930 . S
N377 Li353 1.990 . S
N377 C376 1.314 . S
N377 C380 1.279 . S
C378 C376 1.353 . S
C378 C381 1.348 . S
C378 H426 0.929 . S
C379 C380 1.358 . S
C379 C381 1.356 . S
C379 H427 0.930 . S
C380 N377 1.279 . S
C380 C379 1.358 . S
C380 H383 0.930 . S
C381 C378 1.348 . S
C381 C379 1.356 . S
H382 C376 0.930 . S
H383 C380 0.930 . S
C384 C386 1.348 . S
C384 C387 1.356 . S
C384 O414 1.325 . S
N385 C388 1.314 . S
N385 C389 1.279 . S
C386 C384 1.348 . S
C386 C388 1.353 . S
C386 H428 0.929 . S
C387 C384 1.356 . S
C387 C389 1.358 . S
C387 H429 0.930 . S
C388 N385 1.314 . S
C388 C386 1.353 . S
C388 H430 0.930 . S
C389 N385 1.279 . S
C389 C387 1.358 . S
C389 H431 0.930 . S
C390 C391 1.348 . S
C390 C392 1.356 . S
C390 O415 1.325 . S
C391 C390 1.348 . S
C391 C393 1.353 . S
C391 H432 0.929 . S
C392 C390 1.356 . S
C392 C394 1.358 . S
C392 H433 0.930 . S
C393 C391 1.353 . S
C393 N395 1.314 . S
C393 H434 0.930 . S
C394 C392 1.358 . S
C394 N395 1.279 . S
C394 H435 0.930 . S
N395 C393 1.314 . S
N395 C394 1.279 . S
C396 C398 1.353 . S
C396 N399 1.314 . S
C396 H402 0.930 . S
C397 N399 1.279 . S
C397 C400 1.358 . S
C397 H403 0.930 . S
C398 C396 1.353 . S
C398 C401 1.348 . S
C398 H436 0.929 . S
N399 Li354 1.990 . S
N399 C396 1.314 . S
N399 C397 1.279 . S
C400 C397 1.358 . S
C400 C401 1.356 . S
C400 H437 0.930 . S
C401 C398 1.348 . S
C401 C400 1.356 . S
H402 C396 0.930 . S
H403 C397 0.930 . S
C404 N405 1.314 . S
C404 C406 1.353 . S
C404 H410 0.930 . S
N405 Li355 1.990 . S
N405 C404 1.314 . S
N405 C408 1.279 . S
C406 C404 1.353 . S
C406 C409 1.348 . S
C406 H438 0.929 . S
C407 C408 1.358 . S
C407 C409 1.356 . S
C407 H439 0.930 . S
C408 N405 1.279 . S
C408 C407 1.358 . S
C408 H411 0.930 . S
C409 C406 1.348 . S
C409 C407 1.356 . S
H410 C404 0.930 . S
H411 C408 0.930 . S
O412 Li352 1.956 . S
O412 Li353 1.970 . S
O412 Li354 1.961 . S
O412 C356 1.325 . S
O413 Li352 1.970 . S
O413 Li353 1.956 . S
O413 Li355 1.961 . S
O413 C362 1.325 . S
O414 Li352 1.961 . S
O414 Li354 1.956 . S
O414 Li355 1.970 . S
O414 C384 1.325 . S
O415 Li353 1.961 . S
O415 Li354 1.970 . S
O415 Li355 1.956 . S
O415 C390 1.325 . S
H416 C358 0.929 . S
H417 C359 0.930 . S
H418 C360 0.930 . S
H419 C361 0.930 . S
H420 C363 0.930 . S
H421 C365 0.929 . S
H422 C366 0.930 . S
H423 C367 0.930 . S
H424 C370 0.930 . S
H425 C373 0.929 . S
H426 C378 0.929 . S
H427 C379 0.930 . S
H428 C386 0.929 . S
H429 C387 0.930 . S
H430 C388 0.930 . S
H431 C389 0.930 . S
H432 C391 0.929 . S
H433 C392 0.930 . S
H434 C393 0.930 . S
H435 C394 0.930 . S
H436 C398 0.929 . S
H437 C400 0.930 . S
H438 C406 0.929 . S
H439 C407 0.930 . S
Li440 N457 1.990 . S
Li440 O500 1.956 . S
Li440 O501 1.970 1_565 S
Li440 O502 1.961 . S
Li441 N465 1.990 . S
Li441 O500 1.970 1_545 S
Li441 O501 1.956 . S
Li441 O503 1.961 1_545 S
Li442 N487 1.990 . S
Li442 O500 1.961 . S
Li442 O502 1.956 . S
Li442 O503 1.970 . S
Li443 N493 1.990 . S
Li443 O501 1.961 1_565 S
Li443 O502 1.970 . S
Li443 O503 1.956 . S
C444 C446 1.348 1_565 S
C444 C447 1.356 . S
C444 O500 1.325 . S
N445 C448 1.314 . S
N445 C449 1.279 1_545 S
C446 C444 1.348 1_545 S
C446 C448 1.353 . S
C446 H504 0.929 . S
C447 C444 1.356 . S
C447 C449 1.358 . S
C447 H505 0.930 . S
C448 N445 1.314 . S
C448 C446 1.353 . S
C448 H506 0.930 . S
C449 N445 1.279 1_565 S
C449 C447 1.358 . S
C449 H507 0.930 . S
C450 C453 1.348 . S
C450 C454 1.356 . S
C450 O501 1.325 . S
C451 N452 1.279 . S
C451 C454 1.358 . S
C451 H508 0.930 . S
N452 C451 1.279 . S
N452 C455 1.314 . S
C453 C450 1.348 . S
C453 C455 1.353 . S
C453 H509 0.929 . S
C454 C450 1.356 . S
C454 C451 1.358 . S
C454 H510 0.930 . S
C455 N452 1.314 . S
C455 C453 1.353 . S
C455 H511 0.930 . S
C456 N457 1.314 . S
C456 C461 1.353 . S
C456 H462 0.930 . S
N457 Li440 1.990 . S
N457 C456 1.314 . S
N457 C459 1.268 1_565 S
C458 C459 1.363 . S
C458 C460 1.356 1_545 S
C458 H512 0.930 . S
C459 N457 1.268 1_545 S
C459 C458 1.363 . S
C459 H463 0.939 . S
C460 C458 1.356 1_565 S
C460 C461 1.348 . S
C461 C456 1.353 . S
C461 C460 1.348 . S
C461 H513 0.929 . S
H462 C456 0.930 . S
H463 C459 0.939 . S
C464 N465 1.314 . S
C464 C466 1.353 . S
C464 H470 0.930 . S
N465 Li441 1.990 . S
N465 C464 1.314 . S
N465 C468 1.279 . S
C466 C464 1.353 . S
C466 C469 1.348 . S
C466 H514 0.929 . S
C467 C468 1.358 . S
C467 C469 1.356 . S
C467 H515 0.930 . S
C468 N465 1.279 . S
C468 C467 1.358 . S
C468 H471 0.930 . S
C469 C466 1.348 . S
C469 C467 1.356 . S
H470 C464 0.930 . S
H471 C468 0.930 . S
C472 C474 1.348 . S
C472 C475 1.356 . S
C472 O502 1.325 . S
N473 C476 1.314 . S
N473 C477 1.279 . S
C474 C472 1.348 . S
C474 C476 1.353 . S
C474 H516 0.929 . S
C475 C472 1.356 . S
C475 C477 1.358 . S
C475 H517 0.930 . S
C476 N473 1.314 . S
C476 C474 1.353 . S
C476 H518 0.930 . S
C477 N473 1.279 . S
C477 C475 1.358 . S
C477 H519 0.930 . S
C478 C479 1.348 . S
C478 C480 1.356 . S
C478 O503 1.325 . S
C479 C478 1.348 . S
C479 C481 1.353 . S
C479 H520 0.929 . S
C480 C478 1.356 . S
C480 C482 1.358 . S
C480 H521 0.930 1_565 S
C481 C479 1.353 . S
C481 N483 1.314 . S
C481 H522 0.930 . S
C482 C480 1.358 . S
C482 N483 1.279 . S
C482 H523 0.930 1_565 S
N483 C481 1.314 . S
N483 C482 1.279 . S
C484 C486 1.353 . S
C484 N487 1.314 . S
C484 H490 0.930 . S
C485 N487 1.279 . S
C485 C488 1.358 . S
C485 H491 0.930 . S
C486 C484 1.353 . S
C486 C489 1.348 . S
C486 H524 0.929 . S
N487 Li442 1.990 . S
N487 C484 1.314 . S
N487 C485 1.279 . S
C488 C485 1.358 . S
C488 C489 1.356 . S
C488 H525 0.930 . S
C489 C486 1.348 . S
C489 C488 1.356 . S
H490 C484 0.930 . S
H491 C485 0.930 . S
C492 N493 1.314 . S
C492 C494 1.353 . S
C492 H498 0.930 . S
N493 Li443 1.990 . S
N493 C492 1.314 . S
N493 C496 1.279 . S
C494 C492 1.353 . S
C494 C497 1.348 . S
C494 H526 0.929 . S
C495 C496 1.358 . S
C495 C497 1.356 . S
C495 H527 0.930 . S
C496 N493 1.279 . S
C496 C495 1.358 . S
C496 H499 0.930 . S
C497 C494 1.348 . S
C497 C495 1.356 . S
H498 C492 0.930 . S
H499 C496 0.930 . S
O500 Li440 1.956 . S
O500 Li441 1.970 1_565 S
O500 Li442 1.961 . S
O500 C444 1.325 . S
O501 Li440 1.970 1_545 S
O501 Li441 1.956 . S
O501 Li443 1.961 1_545 S
O501 C450 1.325 . S
O502 Li440 1.961 . S
O502 Li442 1.956 . S
O502 Li443 1.970 . S
O502 C472 1.325 . S
O503 Li441 1.961 1_565 S
O503 Li442 1.970 . S
O503 Li443 1.956 . S
O503 C478 1.325 . S
H504 C446 0.929 . S
H505 C447 0.930 . S
H506 C448 0.930 . S
H507 C449 0.930 . S
H508 C451 0.930 . S
H509 C453 0.929 . S
H510 C454 0.930 . S
H511 C455 0.930 . S
H512 C458 0.930 . S
H513 C461 0.929 . S
H514 C466 0.929 . S
H515 C467 0.930 . S
H516 C474 0.929 . S
H517 C475 0.930 . S
H518 C476 0.930 . S
H519 C477 0.930 . S
H520 C479 0.929 . S
H521 C480 0.930 1_545 S
H522 C481 0.930 . S
H523 C482 0.930 1_545 S
H524 C486 0.929 . S
H525 C488 0.930 . S
H526 C494 0.929 . S
H527 C495 0.930 . S
Li528 N545 1.990 . S
Li528 O588 1.956 . S
Li528 O589 1.970 . S
Li528 O590 1.961 . S
Li529 N553 1.990 . S
Li529 O588 1.970 . S
Li529 O589 1.956 . S
Li529 O591 1.961 . S
Li530 N575 1.990 . S
Li530 O588 1.961 . S
Li530 O590 1.956 . S
Li530 O591 1.970 . S
Li531 N581 1.990 . S
Li531 O589 1.961 . S
Li531 O590 1.970 . S
Li531 O591 1.956 . S
C532 C534 1.348 . S
C532 C535 1.356 . S
C532 O588 1.325 . S
N533 C536 1.314 . S
N533 C537 1.279 . S
C534 C532 1.348 . S
C534 C536 1.353 . S
C534 H592 0.929 . S
C535 C532 1.356 . S
C535 C537 1.358 . S
C535 H593 0.930 . S
C536 N533 1.314 . S
C536 C534 1.353 . S
C536 H594 0.930 . S
C537 N533 1.279 . S
C537 C535 1.358 . S
C537 H595 0.930 . S
C538 C541 1.348 . S
C538 C542 1.356 . S
C538 O589 1.325 . S
C539 N540 1.279 . S
C539 C542 1.358 . S
C539 H596 0.930 . S
N540 C539 1.279 . S
N540 C543 1.314 . S
C541 C538 1.348 . S
C541 C543 1.353 . S
C541 H597 0.929 . S
C542 C538 1.356 . S
C542 C539 1.358 . S
C542 H598 0.930 . S
C543 N540 1.314 . S
C543 C541 1.353 . S
C543 H599 0.930 . S
C544 N545 1.314 . S
C544 C549 1.353 . S
C544 H550 0.930 . S
N545 Li528 1.990 . S
N545 C544 1.314 . S
N545 C547 1.279 . S
C546 C547 1.358 . S
C546 C548 1.356 . S
C546 H600 0.930 . S
C547 N545 1.279 . S
C547 C546 1.358 . S
C547 H551 0.930 . S
C548 C546 1.356 . S
C548 C549 1.348 . S
C549 C544 1.353 . S
C549 C548 1.348 . S
C549 H601 0.929 . S
H550 C544 0.930 . S
H551 C547 0.930 . S
C552 N553 1.314 . S
C552 C554 1.353 . S
C552 H558 0.930 . S
N553 Li529 1.990 . S
N553 C552 1.314 . S
N553 C556 1.279 . S
C554 C552 1.353 . S
C554 C557 1.348 . S
C554 H602 0.929 . S
C555 C556 1.358 . S
C555 C557 1.356 . S
C555 H603 0.930 . S
C556 N553 1.279 . S
C556 C555 1.358 . S
C556 H559 0.930 . S
C557 C554 1.348 . S
C557 C555 1.356 . S
H558 C552 0.930 . S
H559 C556 0.930 . S
C560 C562 1.348 . S
C560 C563 1.356 . S
C560 O590 1.325 . S
N561 C564 1.314 . S
N561 C565 1.279 . S
C562 C560 1.348 . S
C562 C564 1.353 . S
C562 H604 0.929 . S
C563 C560 1.356 . S
C563 C565 1.358 . S
C563 H605 0.930 . S
C564 N561 1.314 . S
C564 C562 1.353 . S
C564 H606 0.930 . S
C565 N561 1.279 . S
C565 C563 1.358 . S
C565 H607 0.930 . S
C566 C567 1.348 . S
C566 C568 1.356 . S
C566 O591 1.325 . S
C567 C566 1.348 . S
C567 C569 1.353 . S
C567 H608 0.929 . S
C568 C566 1.356 . S
C568 C570 1.358 . S
C568 H609 0.930 . S
C569 C567 1.353 . S
C569 N571 1.314 . S
C569 H610 0.930 . S
C570 C568 1.358 . S
C570 N571 1.279 . S
C570 H611 0.930 . S
N571 C569 1.314 . S
N571 C570 1.279 . S
C572 C574 1.353 . S
C572 N575 1.314 . S
C572 H578 0.930 . S
C573 N575 1.279 . S
C573 C576 1.358 . S
C573 H579 0.930 . S
C574 C572 1.353 . S
C574 C577 1.348 . S
C574 H612 0.929 . S
N575 Li530 1.990 . S
N575 C572 1.314 . S
N575 C573 1.279 . S
C576 C573 1.358 . S
C576 C577 1.356 . S
C576 H613 0.930 . S
C577 C574 1.348 . S
C577 C576 1.356 . S
H578 C572 0.930 . S
H579 C573 0.930 . S
C580 N581 1.314 . S
C580 C582 1.353 . S
C580 H586 0.930 . S
N581 Li531 1.990 . S
N581 C580 1.314 . S
N581 C584 1.279 . S
C582 C580 1.353 . S
C582 C585 1.348 . S
C582 H614 0.929 . S
C583 C584 1.358 . S
C583 C585 1.356 . S
C583 H615 0.930 . S
C584 N581 1.279 . S
C584 C583 1.358 . S
C584 H587 0.930 . S
C585 C582 1.348 . S
C585 C583 1.356 . S
H586 C580 0.930 . S
H587 C584 0.930 . S
O588 Li528 1.956 . S
O588 Li529 1.970 . S
O588 Li530 1.961 . S
O588 C532 1.325 . S
O589 Li528 1.970 . S
O589 Li529 1.956 . S
O589 Li531 1.961 . S
O589 C538 1.325 . S
O590 Li528 1.961 . S
O590 Li530 1.956 . S
O590 Li531 1.970 . S
O590 C560 1.325 . S
O591 Li529 1.961 . S
O591 Li530 1.970 . S
O591 Li531 1.956 . S
O591 C566 1.325 . S
H592 C534 0.929 . S
H593 C535 0.930 . S
H594 C536 0.930 . S
H595 C537 0.930 . S
H596 C539 0.930 . S
H597 C541 0.929 . S
H598 C542 0.930 . S
H599 C543 0.930 . S
H600 C546 0.930 . S
H601 C549 0.929 . S
H602 C554 0.929 . S
H603 C555 0.930 . S
H604 C562 0.929 . S
H605 C563 0.930 . S
H606 C564 0.930 . S
H607 C565 0.930 . S
H608 C567 0.929 . S
H609 C568 0.930 . S
H610 C569 0.930 . S
H611 C570 0.930 . S
H612 C574 0.929 . S
H613 C576 0.930 . S
H614 C582 0.929 . S
H615 C583 0.930 . S
Li616 N633 1.990 . S
Li616 O676 1.956 . S
Li616 O677 1.970 1_565 S
Li616 O678 1.961 1_565 S
Li617 N641 1.990 . S
Li617 O676 1.970 1_545 S
Li617 O677 1.956 . S
Li617 O679 1.961 . S
Li618 N663 1.990 1_455 S
Li618 O676 1.961 1_545 S
Li618 O678 1.956 . S
Li618 O679 1.970 . S
Li619 N669 1.990 . S
Li619 O677 1.961 . S
Li619 O678 1.970 . S
Li619 O679 1.956 . S
C620 C622 1.351 . S
C620 C623 1.356 1_455 S
C620 O676 1.325 . S
N621 C624 1.314 . S
N621 C625 1.279 . S
C622 C620 1.351 . S
C622 C624 1.330 1_455 S
C622 H680 0.951 . S
C623 C620 1.356 1_655 S
C623 C625 1.358 . S
C623 H681 0.930 . S
C624 N621 1.314 . S
C624 C622 1.330 1_655 S
C624 H682 0.930 . S
C625 N621 1.279 . S
C625 C623 1.358 . S
C625 H683 0.930 . S
C626 C629 1.348 1_545 S
C626 C630 1.356 . S
C626 O677 1.325 . S
C627 N628 1.279 1_545 S
C627 C630 1.358 . S
C627 H684 0.930 . S
N628 C627 1.279 1_565 S
N628 C631 1.314 . S
C629 C626 1.348 1_565 S
C629 C631 1.353 . S
C629 H685 0.929 . S
C630 C626 1.356 . S
C630 C627 1.358 . S
C630 H686 0.930 . S
C631 N628 1.314 . S
C631 C629 1.353 . S
C631 H687 0.930 . S
C632 N633 1.314 . S
C632 C637 1.353 . S
C632 H638 0.930 . S
N633 Li616 1.990 . S
N633 C632 1.314 . S
N633 C635 1.279 . S
C634 C635 1.358 . S
C634 C636 1.356 . S
C634 H688 0.930 . S
C635 N633 1.279 . S
C635 C634 1.358 . S
C635 H639 0.930 . S
C636 C634 1.356 . S
C636 C637 1.348 . S
C637 C632 1.353 . S
C637 C636 1.348 . S
C637 H689 0.929 . S
H638 C632 0.930 . S
H639 C635 0.930 . S
C640 N641 1.314 . S
C640 C642 1.353 . S
C640 H646 0.930 1_455 S
N641 Li617 1.990 . S
N641 C640 1.314 . S
N641 C644 1.268 1_545 S
C642 C640 1.353 . S
C642 C645 1.348 . S
C642 H690 0.929 1_455 S
C643 C644 1.363 . S
C643 C645 1.356 1_565 S
C643 H691 0.930 . S
C644 N641 1.268 1_565 S
C644 C643 1.363 . S
C644 H647 0.939 . S
C645 C642 1.348 . S
C645 C643 1.356 1_545 S
H646 C640 0.930 1_655 S
H647 C644 0.939 . S
C648 C650 1.348 . S
C648 C651 1.356 . S
C648 O678 1.325 . S
N649 C652 1.314 . S
N649 C653 1.279 . S
C650 C648 1.348 . S
C650 C652 1.353 . S
C650 H692 0.929 . S
C651 C648 1.356 . S
C651 C653 1.358 . S
C651 H693 0.930 1_545 S
C652 N649 1.314 . S
C652 C650 1.353 . S
C652 H694 0.930 . S
C653 N649 1.279 . S
C653 C651 1.358 . S
C653 H695 0.930 1_545 S
C654 C655 1.348 1_455 S
C654 C656 1.356 . S
C654 O679 1.325 . S
C655 C654 1.348 1_655 S
C655 C657 1.353 . S
C655 H696 0.929 . S
C656 C654 1.356 . S
C656 C658 1.358 . S
C656 H697 0.930 . S
C657 C655 1.353 . S
C657 N659 1.314 . S
C657 H698 0.930 . S
C658 C656 1.358 . S
C658 N659 1.279 1_455 S
C658 H699 0.930 . S
N659 C657 1.314 . S
N659 C658 1.279 1_655 S
C660 C662 1.353 . S
C660 N663 1.314 . S
C660 H666 0.930 . S
C661 N663 1.279 . S
C661 C664 1.358 . S
C661 H667 0.930 . S
C662 C660 1.353 . S
C662 C665 1.348 . S
C662 H700 0.929 . S
N663 Li618 1.990 1_655 S
N663 C660 1.314 . S
N663 C661 1.279 . S
C664 C661 1.358 . S
C664 C665 1.356 . S
C664 H701 0.930 . S
C665 C662 1.348 . S
C665 C664 1.356 . S
H666 C660 0.930 . S
H667 C661 0.930 . S
C668 N669 1.314 . S
C668 C670 1.353 . S
C668 H674 0.930 . S
N669 Li619 1.990 . S
N669 C668 1.314 . S
N669 C672 1.279 . S
C670 C668 1.353 . S
C670 C673 1.348 . S
C670 H702 0.929 . S
C671 C672 1.358 . S
C671 C673 1.356 . S
C671 H703 0.930 . S
C672 N669 1.279 . S
C672 C671 1.358 . S
C672 H675 0.930 . S
C673 C670 1.348 . S
C673 C671 1.356 . S
H674 C668 0.930 . S
H675 C672 0.930 . S
O676 Li616 1.956 . S
O676 Li617 1.970 1_565 S
O676 Li618 1.961 1_565 S
O676 C620 1.325 . S
O677 Li616 1.970 1_545 S
O677 Li617 1.956 . S
O677 Li619 1.961 . S
O677 C626 1.325 . S
O678 Li616 1.961 1_545 S
O678 Li618 1.956 . S
O678 Li619 1.970 . S
O678 C648 1.325 . S
O679 Li617 1.961 . S
O679 Li618 1.970 . S
O679 Li619 1.956 . S
O679 C654 1.325 . S
H680 C622 0.951 . S
H681 C623 0.930 . S
H682 C624 0.930 . S
H683 C625 0.930 . S
H684 C627 0.930 . S
H685 C629 0.929 . S
H686 C630 0.930 . S
H687 C631 0.930 . S
H688 C634 0.930 . S
H689 C637 0.929 . S
H690 C642 0.929 1_655 S
H691 C643 0.930 . S
H692 C650 0.929 . S
H693 C651 0.930 1_565 S
H694 C652 0.930 . S
H695 C653 0.930 1_565 S
H696 C655 0.929 . S
H697 C656 0.930 . S
H698 C657 0.930 . S
H699 C658 0.930 . S
H700 C662 0.929 . S
H701 C664 0.930 . S
H702 C670 0.929 . S
H703 C671 0.930 . S
Li704 N721 1.990 . S
Li704 O764 1.956 . S
Li704 O765 1.970 . S
Li704 O766 1.961 . S
Li705 N729 1.990 . S
Li705 O764 1.970 . S
Li705 O765 1.956 . S
Li705 O767 1.961 . S
Li706 N751 1.990 . S
Li706 O764 1.961 . S
Li706 O766 1.956 . S
Li706 O767 1.970 . S
Li707 N757 1.990 . S
Li707 O765 1.961 . S
Li707 O766 1.970 . S
Li707 O767 1.956 . S
C708 C710 1.348 . S
C708 C711 1.356 . S
C708 O764 1.325 . S
N709 C712 1.314 . S
N709 C713 1.279 . S
C710 C708 1.348 . S
C710 C712 1.353 . S
C710 H768 0.929 . S
C711 C708 1.356 . S
C711 C713 1.358 . S
C711 H769 0.930 . S
C712 N709 1.314 . S
C712 C710 1.353 . S
C712 H770 0.930 . S
C713 N709 1.279 . S
C713 C711 1.358 . S
C713 H771 0.930 . S
C714 C717 1.348 . S
C714 C718 1.356 . S
C714 O765 1.325 . S
C715 N716 1.279 . S
C715 C718 1.358 . S
C715 H772 0.930 . S
N716 C715 1.279 . S
N716 C719 1.314 . S
C717 C714 1.348 . S
C717 C719 1.353 . S
C717 H773 0.929 . S
C718 C714 1.356 . S
C718 C715 1.358 . S
C718 H774 0.930 . S
C719 N716 1.314 . S
C719 C717 1.353 . S
C719 H775 0.930 . S
C720 N721 1.314 . S
C720 C725 1.353 . S
C720 H726 0.930 . S
N721 Li704 1.990 . S
N721 C720 1.314 . S
N721 C723 1.279 . S
C722 C723 1.358 . S
C722 C724 1.356 . S
C722 H776 0.930 . S
C723 N721 1.279 . S
C723 C722 1.358 . S
C723 H727 0.930 . S
C724 C722 1.356 . S
C724 C725 1.348 . S
C725 C720 1.353 . S
C725 C724 1.348 . S
C725 H777 0.929 . S
H726 C720 0.930 . S
H727 C723 0.930 . S
C728 N729 1.314 . S
C728 C730 1.353 . S
C728 H734 0.930 . S
N729 Li705 1.990 . S
N729 C728 1.314 . S
N729 C732 1.279 . S
C730 C728 1.353 . S
C730 C733 1.348 . S
C730 H778 0.929 . S
C731 C732 1.358 . S
C731 C733 1.356 . S
C731 H779 0.930 . S
C732 N729 1.279 . S
C732 C731 1.358 . S
C732 H735 0.930 . S
C733 C730 1.348 . S
C733 C731 1.356 . S
H734 C728 0.930 . S
H735 C732 0.930 . S
C736 C738 1.348 . S
C736 C739 1.356 . S
C736 O766 1.325 . S
N737 C740 1.314 . S
N737 C741 1.279 . S
C738 C736 1.348 . S
C738 C740 1.353 . S
C738 H780 0.929 . S
C739 C736 1.356 . S
C739 C741 1.358 . S
C739 H781 0.930 . S
C740 N737 1.314 . S
C740 C738 1.353 . S
C740 H782 0.930 . S
C741 N737 1.279 . S
C741 C739 1.358 . S
C741 H783 0.930 . S
C742 C743 1.348 . S
C742 C744 1.356 . S
C742 O767 1.325 . S
C743 C742 1.348 . S
C743 C745 1.353 . S
C743 H784 0.929 . S
C744 C742 1.356 . S
C744 C746 1.358 . S
C744 H785 0.930 . S
C745 C743 1.353 . S
C745 N747 1.314 . S
C745 H786 0.930 . S
C746 C744 1.358 . S
C746 N747 1.279 . S
C746 H787 0.930 . S
N747 C745 1.314 . S
N747 C746 1.279 . S
C748 C750 1.353 . S
C748 N751 1.314 . S
C748 H754 0.930 . S
C749 N751 1.279 . S
C749 C752 1.358 . S
C749 H755 0.930 . S
C750 C748 1.353 . S
C750 C753 1.348 . S
C750 H788 0.929 . S
N751 Li706 1.990 . S
N751 C748 1.314 . S
N751 C749 1.279 . S
C752 C749 1.358 . S
C752 C753 1.356 . S
C752 H789 0.930 . S
C753 C750 1.348 . S
C753 C752 1.356 . S
H754 C748 0.930 . S
H755 C749 0.930 . S
C756 N757 1.314 . S
C756 C758 1.353 . S
C756 H762 0.930 . S
N757 Li707 1.990 . S
N757 C756 1.314 . S
N757 C760 1.279 . S
C758 C756 1.353 . S
C758 C761 1.348 . S
C758 H790 0.929 . S
C759 C760 1.358 . S
C759 C761 1.356 . S
C759 H791 0.930 . S
C760 N757 1.279 . S
C760 C759 1.358 . S
C760 H763 0.930 . S
C761 C758 1.348 . S
C761 C759 1.356 . S
H762 C756 0.930 . S
H763 C760 0.930 . S
O764 Li704 1.956 . S
O764 Li705 1.970 . S
O764 Li706 1.961 . S
O764 C708 1.325 . S
O765 Li704 1.970 . S
O765 Li705 1.956 . S
O765 Li707 1.961 . S
O765 C714 1.325 . S
O766 Li704 1.961 . S
O766 Li706 1.956 . S
O766 Li707 1.970 . S
O766 C736 1.325 . S
O767 Li705 1.961 . S
O767 Li706 1.970 . S
O767 Li707 1.956 . S
O767 C742 1.325 . S
H768 C710 0.929 . S
H769 C711 0.930 . S
H770 C712 0.930 . S
H771 C713 0.930 . S
H772 C715 0.930 . S
H773 C717 0.929 . S
H774 C718 0.930 . S
H775 C719 0.930 . S
H776 C722 0.930 . S
H777 C725 0.929 . S
H778 C730 0.929 . S
H779 C731 0.930 . S
H780 C738 0.929 . S
H781 C739 0.930 . S
H782 C740 0.930 . S
H783 C741 0.930 . S
H784 C743 0.929 . S
H785 C744 0.930 . S
H786 C745 0.930 . S
H787 C746 0.930 . S
H788 C750 0.929 . S
H789 C752 0.930 . S
H790 C758 0.929 . S
H791 C759 0.930 . S
Li792 N809 1.990 1_655 S
Li792 O852 1.956 1_545 S
Li792 O853 1.970 . S
Li792 O854 1.961 . S
Li793 N817 1.990 . S
Li793 O852 1.970 1_545 S
Li793 O853 1.956 . S
Li793 O855 1.961 . S
Li794 N839 1.990 . S
Li794 O852 1.961 . S
Li794 O854 1.956 1_565 S
Li794 O855 1.970 1_565 S
Li795 N845 1.990 . S
Li795 O853 1.961 . S
Li795 O854 1.970 . S
Li795 O855 1.956 . S
C796 C798 1.348 1_655 S
C796 C799 1.356 1_655 S
C796 O852 1.325 . S
N797 C800 1.314 . S
N797 C801 1.279 . S
C798 C796 1.348 1_455 S
C798 C800 1.353 . S
C798 H856 0.929 . S
C799 C796 1.356 1_455 S
C799 C801 1.358 . S
C799 H857 0.930 1_455 S
C800 N797 1.314 . S
C800 C798 1.353 . S
C800 H858 0.930 . S
C801 N797 1.279 . S
C801 C799 1.358 . S
C801 H859 0.930 . S
C802 C805 1.348 1_655 S
C802 C806 1.356 . S
C802 O853 1.325 . S
C803 N804 1.279 1_655 S
C803 C806 1.358 . S
C803 H860 0.930 . S
N804 C803 1.279 1_455 S
N804 C807 1.314 . S
C805 C802 1.348 1_455 S
C805 C807 1.353 . S
C805 H861 0.929 . S
C806 C802 1.356 . S
C806 C803 1.358 . S
C806 H862 0.930 . S
C807 N804 1.314 . S
C807 C805 1.353 . S
C807 H863 0.930 . S
C808 N809 1.314 . S
C808 C813 1.353 . S
C808 H814 0.930 . S
N809 Li792 1.990 1_455 S
N809 C808 1.314 . S
N809 C811 1.279 . S
C810 C811 1.358 . S
C810 C812 1.356 . S
C810 H864 0.930 . S
C811 N809 1.279 . S
C811 C810 1.358 . S
C811 H815 0.930 . S
C812 C810 1.356 . S
C812 C813 1.348 . S
C813 C808 1.353 . S
C813 C812 1.348 . S
C813 H865 0.929 . S
H814 C808 0.930 . S
H815 C811 0.930 . S
C816 N817 1.314 1_565 S
C816 C818 1.353 . S
C816 H822 0.930 . S
N817 Li793 1.990 . S
N817 C816 1.314 1_545 S
N817 C820 1.279 . S
C818 C816 1.353 . S
C818 C821 1.348 1_565 S
C818 H866 0.929 . S
C819 C820 1.358 . S
C819 C821 1.356 . S
C819 H867 0.930 . S
C820 N817 1.279 . S
C820 C819 1.358 . S
C820 H823 0.930 . S
C821 C818 1.348 1_545 S
C821 C819 1.356 . S
H822 C816 0.930 . S
H823 C820 0.930 . S
C824 C826 1.348 . S
C824 C827 1.356 . S
C824 O854 1.325 . S
N825 C828 1.314 . S
N825 C829 1.279 . S
C826 C824 1.348 . S
C826 C828 1.353 . S
C826 H868 0.929 . S
C827 C824 1.356 . S
C827 C829 1.358 . S
C827 H869 0.930 . S
C828 N825 1.314 . S
C828 C826 1.353 . S
C828 H870 0.930 . S
C829 N825 1.279 . S
C829 C827 1.358 . S
C829 H871 0.930 . S
C830 C831 1.348 1_545 S
C830 C832 1.356 . S
C830 O855 1.325 . S
C831 C830 1.348 1_565 S
C831 C833 1.353 . S
C831 H872 0.929 . S
C832 C830 1.356 . S
C832 C834 1.358 . S
C832 H873 0.930 . S
C833 C831 1.353 . S
C833 N835 1.314 . S
C833 H874 0.930 . S
C834 C832 1.358 . S
C834 N835 1.279 1_545 S
C834 H875 0.930 . S
N835 C833 1.314 . S
N835 C834 1.279 1_565 S
C836 C838 1.353 . S
C836 N839 1.314 . S
C836 H842 0.930 . S
C837 N839 1.279 . S
C837 C840 1.358 . S
C837 H843 0.930 . S
C838 C836 1.353 . S
C838 C841 1.348 . S
C838 H876 0.929 . S
N839 Li794 1.990 . S
N839 C836 1.314 . S
N839 C837 1.279 . S
C840 C837 1.358 . S
C840 C841 1.356 . S
C840 H877 0.930 . S
C841 C838 1.348 . S
C841 C840 1.356 . S
H842 C836 0.930 . S
H843 C837 0.930 . S
C844 N845 1.314 . S
C844 C846 1.353 . S
C844 H850 0.930 . S
N845 Li795 1.990 . S
N845 C844 1.314 . S
N845 C848 1.279 . S
C846 C844 1.353 . S
C846 C849 1.348 . S
C846 H878 0.929 . S
C847 C848 1.358 . S
C847 C849 1.356 . S
C847 H879 0.930 . S
C848 N845 1.279 . S
C848 C847 1.358 . S
C848 H851 0.930 . S
C849 C846 1.348 . S
C849 C847 1.356 . S
H850 C844 0.930 . S
H851 C848 0.930 . S
O852 Li792 1.956 1_565 S
O852 Li793 1.970 1_565 S
O852 Li794 1.961 . S
O852 C796 1.325 . S
O853 Li792 1.970 . S
O853 Li793 1.956 . S
O853 Li795 1.961 . S
O853 C802 1.325 . S
O854 Li792 1.961 . S
O854 Li794 1.956 1_545 S
O854 Li795 1.970 . S
O854 C824 1.325 . S
O855 Li793 1.961 . S
O855 Li794 1.970 1_545 S
O855 Li795 1.956 . S
O855 C830 1.325 . S
H856 C798 0.929 . S
H857 C799 0.930 1_655 S
H858 C800 0.930 . S
H859 C801 0.930 . S
H860 C803 0.930 . S
H861 C805 0.929 . S
H862 C806 0.930 . S
H863 C807 0.930 . S
H864 C810 0.930 . S
H865 C813 0.929 . S
H866 C818 0.929 . S
H867 C819 0.930 . S
H868 C826 0.929 . S
H869 C827 0.930 . S
H870 C828 0.930 . S
H871 C829 0.930 . S
H872 C831 0.929 . S
H873 C832 0.930 . S
H874 C833 0.930 . S
H875 C834 0.930 . S
H876 C838 0.929 . S
H877 C840 0.930 . S
H878 C846 0.929 . S
H879 C847 0.930 . S
Li880 N897 1.990 . S
Li880 O940 1.956 . S
Li880 O941 1.970 . S
Li880 O942 1.961 . S
Li881 N905 1.990 . S
Li881 O940 1.970 . S
Li881 O941 1.956 . S
Li881 O943 1.961 . S
Li882 N927 1.990 . S
Li882 O940 1.961 . S
Li882 O942 1.956 . S
Li882 O943 1.970 . S
Li883 N933 1.990 . S
Li883 O941 1.961 . S
Li883 O942 1.970 . S
Li883 O943 1.956 . S
C884 C886 1.348 . S
C884 C887 1.356 . S
C884 O940 1.325 . S
N885 C888 1.314 . S
N885 C889 1.279 . S
C886 C884 1.348 . S
C886 C888 1.353 . S
C886 H944 0.929 . S
C887 C884 1.356 . S
C887 C889 1.358 . S
C887 H945 0.930 . S
C888 N885 1.314 . S
C888 C886 1.353 . S
C888 H946 0.930 . S
C889 N885 1.279 . S
C889 C887 1.358 . S
C889 H947 0.930 . S
C890 C893 1.348 . S
C890 C894 1.356 . S
C890 O941 1.325 . S
C891 N892 1.279 . S
C891 C894 1.358 . S
C891 H948 0.930 . S
N892 C891 1.279 . S
N892 C895 1.314 . S
C893 C890 1.348 . S
C893 C895 1.353 . S
C893 H949 0.929 . S
C894 C890 1.356 . S
C894 C891 1.358 . S
C894 H950 0.930 . S
C895 N892 1.314 . S
C895 C893 1.353 . S
C895 H951 0.930 . S
C896 N897 1.314 . S
C896 C901 1.353 . S
C896 H902 0.930 . S
N897 Li880 1.990 . S
N897 C896 1.314 . S
N897 C899 1.279 . S
C898 C899 1.358 . S
C898 C900 1.356 . S
C898 H952 0.930 . S
C899 N897 1.279 . S
C899 C898 1.358 . S
C899 H903 0.930 . S
C900 C898 1.356 . S
C900 C901 1.348 . S
C901 C896 1.353 . S
C901 C900 1.348 . S
C901 H953 0.929 . S
H902 C896 0.930 . S
H903 C899 0.930 . S
C904 N905 1.314 . S
C904 C906 1.353 . S
C904 H910 0.930 . S
N905 Li881 1.990 . S
N905 C904 1.314 . S
N905 C908 1.279 . S
C906 C904 1.353 . S
C906 C909 1.348 . S
C906 H954 0.929 . S
C907 C908 1.358 . S
C907 C909 1.356 . S
C907 H955 0.930 . S
C908 N905 1.279 . S
C908 C907 1.358 . S
C908 H911 0.930 . S
C909 C906 1.348 . S
C909 C907 1.356 . S
H910 C904 0.930 . S
H911 C908 0.930 . S
C912 C914 1.348 . S
C912 C915 1.356 . S
C912 O942 1.325 . S
N913 C916 1.314 . S
N913 C917 1.279 . S
C914 C912 1.348 . S
C914 C916 1.353 . S
C914 H956 0.929 . S
C915 C912 1.356 . S
C915 C917 1.358 . S
C915 H957 0.930 . S
C916 N913 1.314 . S
C916 C914 1.353 . S
C916 H958 0.930 . S
C917 N913 1.279 . S
C917 C915 1.358 . S
C917 H959 0.930 . S
C918 C919 1.348 . S
C918 C920 1.356 . S
C918 O943 1.325 . S
C919 C918 1.348 . S
C919 C921 1.353 . S
C919 H960 0.929 . S
C920 C918 1.356 . S
C920 C922 1.358 . S
C920 H961 0.930 . S
C921 C919 1.353 . S
C921 N923 1.314 . S
C921 H962 0.930 . S
C922 C920 1.358 . S
C922 N923 1.279 . S
C922 H963 0.930 . S
N923 C921 1.314 . S
N923 C922 1.279 . S
C924 C926 1.353 . S
C924 N927 1.314 . S
C924 H930 0.930 . S
C925 N927 1.279 . S
C925 C928 1.358 . S
C925 H931 0.930 . S
C926 C924 1.353 . S
C926 C929 1.348 . S
C926 H964 0.929 . S
N927 Li882 1.990 . S
N927 C924 1.314 . S
N927 C925 1.279 . S
C928 C925 1.358 . S
C928 C929 1.356 . S
C928 H965 0.930 . S
C929 C926 1.348 . S
C929 C928 1.356 . S
H930 C924 0.930 . S
H931 C925 0.930 . S
C932 N933 1.314 . S
C932 C934 1.353 . S
C932 H938 0.930 . S
N933 Li883 1.990 . S
N933 C932 1.314 . S
N933 C936 1.279 . S
C934 C932 1.353 . S
C934 C937 1.348 . S
C934 H966 0.929 . S
C935 C936 1.358 . S
C935 C937 1.356 . S
C935 H967 0.930 . S
C936 N933 1.279 . S
C936 C935 1.358 . S
C936 H939 0.930 . S
C937 C934 1.348 . S
C937 C935 1.356 . S
H938 C932 0.930 . S
H939 C936 0.930 . S
O940 Li880 1.956 . S
O940 Li881 1.970 . S
O940 Li882 1.961 . S
O940 C884 1.325 . S
O941 Li880 1.970 . S
O941 Li881 1.956 . S
O941 Li883 1.961 . S
O941 C890 1.325 . S
O942 Li880 1.961 . S
O942 Li882 1.956 . S
O942 Li883 1.970 . S
O942 C912 1.325 . S
O943 Li881 1.961 . S
O943 Li882 1.970 . S
O943 Li883 1.956 . S
O943 C918 1.325 . S
H944 C886 0.929 . S
H945 C887 0.930 . S
H946 C888 0.930 . S
H947 C889 0.930 . S
H948 C891 0.930 . S
H949 C893 0.929 . S
H950 C894 0.930 . S
H951 C895 0.930 . S
H952 C898 0.930 . S
H953 C901 0.929 . S
H954 C906 0.929 . S
H955 C907 0.930 . S
H956 C914 0.929 . S
H957 C915 0.930 . S
H958 C916 0.930 . S
H959 C917 0.930 . S
H960 C919 0.929 . S
H961 C920 0.930 . S
H962 C921 0.930 . S
H963 C922 0.930 . S
H964 C926 0.929 . S
H965 C928 0.930 . S
H966 C934 0.929 . S
H967 C935 0.930 . S
Li968 N985 1.990 . S
Li968 O1028 1.956 1_565 S
Li968 O1029 1.970 . S
Li968 O1030 1.961 . S
Li969 N993 1.990 . S
Li969 O1028 1.970 1_565 S
Li969 O1029 1.956 . S
Li969 O1031 1.961 . S
Li970 N1015 1.990 . S
Li970 O1028 1.961 . S
Li970 O1030 1.956 1_545 S
Li970 O1031 1.970 1_545 S
Li971 N1021 1.990 . S
Li971 O1029 1.961 . S
Li971 O1030 1.970 . S
Li971 O1031 1.956 . S
C972 C974 1.348 . S
C972 C975 1.356 . S
C972 O1028 1.325 . S
N973 C976 1.314 . S
N973 C977 1.279 . S
C974 C972 1.348 . S
C974 C976 1.353 . S
C974 H1032 0.929 . S
C975 C972 1.356 . S
C975 C977 1.358 . S
C975 H1033 0.930 . S
C976 N973 1.314 . S
C976 C974 1.353 . S
C976 H1034 0.930 . S
C977 N973 1.279 . S
C977 C975 1.358 . S
C977 H1035 0.930 . S
C978 C981 1.348 . S
C978 C982 1.356 . S
C978 O1029 1.325 . S
C979 N980 1.279 . S
C979 C982 1.358 . S
C979 H1036 0.930 . S
N980 C979 1.279 . S
N980 C983 1.314 . S
C981 C978 1.348 . S
C981 C983 1.353 . S
C981 H1037 0.929 . S
C982 C978 1.356 . S
C982 C979 1.358 . S
C982 H1038 0.930 . S
C983 N980 1.314 . S
C983 C981 1.353 . S
C983 H1039 0.930 . S
C984 N985 1.314 . S
C984 C989 1.353 . S
C984 H990 0.930 . S
N985 Li968 1.990 . S
N985 C984 1.314 . S
N985 C987 1.279 . S
C986 C987 1.358 . S
C986 C988 1.356 . S
C986 H1040 0.930 . S
C987 N985 1.279 . S
C987 C986 1.358 . S
C987 H991 0.930 . S
C988 C986 1.356 . S
C988 C989 1.348 . S
C989 C984 1.353 . S
C989 C988 1.348 . S
C989 H1041 0.929 . S
H990 C984 0.930 . S
H991 C987 0.930 . S
C992 N993 1.314 1_545 S
C992 C994 1.353 . S
C992 H998 0.930 . S
N993 Li969 1.990 . S
N993 C992 1.314 1_565 S
N993 C996 1.279 . S
C994 C992 1.353 . S
C994 C997 1.348 1_545 S
C994 H1042 0.929 . S
C995 C996 1.358 . S
C995 C997 1.356 . S
C995 H1043 0.930 . S
C996 N993 1.279 . S
C996 C995 1.358 . S
C996 H999 0.930 . S
C997 C994 1.348 1_565 S
C997 C995 1.356 . S
H998 C992 0.930 . S
H999 C996 0.930 . S
C1000 C1002 1.348 . S
C1000 C1003 1.356 . S
C1000 O1030 1.325 . S
N1001 C1004 1.314 . S
N1001 C1005 1.279 . S
C1002 C1000 1.348 . S
C1002 C1004 1.353 . S
C1002 H1044 0.929 . S
C1003 C1000 1.356 . S
C1003 C1005 1.358 . S
C1003 H1045 0.930 . S
C1004 N1001 1.314 . S
C1004 C1002 1.353 . S
C1004 H1046 0.930 . S
C1005 N1001 1.279 . S
C1005 C1003 1.358 . S
C1005 H1047 0.930 . S
C1006 C1007 1.348 1_565 S
C1006 C1008 1.356 . S
C1006 O1031 1.325 . S
C1007 C1006 1.348 1_545 S
C1007 C1009 1.353 . S
C1007 H1048 0.929 . S
C1008 C1006 1.356 . S
C1008 C1010 1.358 . S
C1008 H1049 0.930 . S
C1009 C1007 1.353 . S
C1009 N1011 1.314 . S
C1009 H1050 0.930 . S
C1010 C1008 1.358 . S
C1010 N1011 1.279 1_565 S
C1010 H1051 0.930 . S
N1011 C1009 1.314 . S
N1011 C1010 1.279 1_545 S
C1012 C1014 1.353 . S
C1012 N1015 1.314 . S
C1012 H1018 0.930 . S
C1013 N1015 1.279 . S
C1013 C1016 1.358 . S
C1013 H1019 0.930 . S
C1014 C1012 1.353 . S
C1014 C1017 1.348 . S
C1014 H1052 0.929 . S
N1015 Li970 1.990 . S
N1015 C1012 1.314 . S
N1015 C1013 1.279 . S
C1016 C1013 1.358 . S
C1016 C1017 1.356 . S
C1016 H1053 0.930 . S
C1017 C1014 1.348 . S
C1017 C1016 1.356 . S
H1018 C1012 0.930 . S
H1019 C1013 0.930 . S
C1020 N1021 1.314 . S
C1020 C1022 1.353 . S
C1020 H1026 0.930 . S
N1021 Li971 1.990 . S
N1021 C1020 1.314 . S
N1021 C1024 1.279 . S
C1022 C1020 1.353 . S
C1022 C1025 1.348 . S
C1022 H1054 0.929 . S
C1023 C1024 1.358 . S
C1023 C1025 1.356 . S
C1023 H1055 0.930 . S
C1024 N1021 1.279 . S
C1024 C1023 1.358 . S
C1024 H1027 0.930 . S
C1025 C1022 1.348 . S
C1025 C1023 1.356 . S
H1026 C1020 0.930 . S
H1027 C1024 0.930 . S
O1028 Li968 1.956 1_545 S
O1028 Li969 1.970 1_545 S
O1028 Li970 1.961 . S
O1028 C972 1.325 . S
O1029 Li968 1.970 . S
O1029 Li969 1.956 . S
O1029 Li971 1.961 . S
O1029 C978 1.325 . S
O1030 Li968 1.961 . S
O1030 Li970 1.956 1_565 S
O1030 Li971 1.970 . S
O1030 C1000 1.325 . S
O1031 Li969 1.961 . S
O1031 Li970 1.970 1_565 S
O1031 Li971 1.956 . S
O1031 C1006 1.325 . S
H1032 C974 0.929 . S
H1033 C975 0.930 . S
H1034 C976 0.930 . S
H1035 C977 0.930 . S
H1036 C979 0.930 . S
H1037 C981 0.929 . S
H1038 C982 0.930 . S
H1039 C983 0.930 . S
H1040 C986 0.930 . S
H1041 C989 0.929 . S
H1042 C994 0.929 . S
H1043 C995 0.930 . S
H1044 C1002 0.929 . S
H1045 C1003 0.930 . S
H1046 C1004 0.930 . S
H1047 C1005 0.930 . S
H1048 C1007 0.929 . S
H1049 C1008 0.930 . S
H1050 C1009 0.930 . S
H1051 C1010 0.930 . S
H1052 C1014 0.929 . S
H1053 C1016 0.930 . S
H1054 C1022 0.929 . S
H1055 C1023 0.930 . S
Li1056 N1073 1.990 . S
Li1056 O1116 1.956 . S
Li1056 O1117 1.970 . S
Li1056 O1118 1.961 . S
Li1057 N1081 1.990 . S
Li1057 O1116 1.970 . S
Li1057 O1117 1.956 . S
Li1057 O1119 1.961 . S
Li1058 N1103 1.990 . S
Li1058 O1116 1.961 . S
Li1058 O1118 1.956 . S
Li1058 O1119 1.970 . S
Li1059 N1109 1.990 . S
Li1059 O1117 1.961 . S
Li1059 O1118 1.970 . S
Li1059 O1119 1.956 . S
C1060 C1062 1.348 . S
C1060 C1063 1.356 . S
C1060 O1116 1.325 . S
N1061 C1064 1.314 . S
N1061 C1065 1.279 . S
C1062 C1060 1.348 . S
C1062 C1064 1.353 . S
C1062 H1120 0.929 . S
C1063 C1060 1.356 . S
C1063 C1065 1.358 . S
C1063 H1121 0.930 . S
C1064 N1061 1.314 . S
C1064 C1062 1.353 . S
C1064 H1122 0.930 . S
C1065 N1061 1.279 . S
C1065 C1063 1.358 . S
C1065 H1123 0.930 . S
C1066 C1069 1.348 . S
C1066 C1070 1.356 . S
C1066 O1117 1.325 . S
C1067 N1068 1.279 . S
C1067 C1070 1.358 . S
C1067 H1124 0.930 . S
N1068 C1067 1.279 . S
N1068 C1071 1.314 . S
C1069 C1066 1.348 . S
C1069 C1071 1.353 . S
C1069 H1125 0.929 . S
C1070 C1066 1.356 . S
C1070 C1067 1.358 . S
C1070 H1126 0.930 . S
C1071 N1068 1.314 . S
C1071 C1069 1.353 . S
C1071 H1127 0.930 . S
C1072 N1073 1.314 . S
C1072 C1077 1.353 . S
C1072 H1078 0.930 . S
N1073 Li1056 1.990 . S
N1073 C1072 1.314 . S
N1073 C1075 1.279 . S
C1074 C1075 1.358 . S
C1074 C1076 1.356 . S
C1074 H1128 0.930 . S
C1075 N1073 1.279 . S
C1075 C1074 1.358 . S
C1075 H1079 0.930 . S
C1076 C1074 1.356 . S
C1076 C1077 1.348 . S
C1077 C1072 1.353 . S
C1077 C1076 1.348 . S
C1077 H1129 0.929 . S
H1078 C1072 0.930 . S
H1079 C1075 0.930 . S
C1080 N1081 1.314 . S
C1080 C1082 1.353 . S
C1080 H1086 0.930 . S
N1081 Li1057 1.990 . S
N1081 C1080 1.314 . S
N1081 C1084 1.279 . S
C1082 C1080 1.353 . S
C1082 C1085 1.348 . S
C1082 H1130 0.929 . S
C1083 C1084 1.358 . S
C1083 C1085 1.356 . S
C1083 H1131 0.930 . S
C1084 N1081 1.279 . S
C1084 C1083 1.358 . S
C1084 H1087 0.930 . S
C1085 C1082 1.348 . S
C1085 C1083 1.356 . S
H1086 C1080 0.930 . S
H1087 C1084 0.930 . S
C1088 C1090 1.348 . S
C1088 C1091 1.356 . S
C1088 O1118 1.325 . S
N1089 C1092 1.314 . S
N1089 C1093 1.279 . S
C1090 C1088 1.348 . S
C1090 C1092 1.353 . S
C1090 H1132 0.929 . S
C1091 C1088 1.356 . S
C1091 C1093 1.358 . S
C1091 H1133 0.930 . S
C1092 N1089 1.314 . S
C1092 C1090 1.353 . S
C1092 H1134 0.930 . S
C1093 N1089 1.279 . S
C1093 C1091 1.358 . S
C1093 H1135 0.930 . S
C1094 C1095 1.348 . S
C1094 C1096 1.356 . S
C1094 O1119 1.325 . S
C1095 C1094 1.348 . S
C1095 C1097 1.353 . S
C1095 H1136 0.929 . S
C1096 C1094 1.356 . S
C1096 C1098 1.358 . S
C1096 H1137 0.930 . S
C1097 C1095 1.353 . S
C1097 N1099 1.314 . S
C1097 H1138 0.930 . S
C1098 C1096 1.358 . S
C1098 N1099 1.279 . S
C1098 H1139 0.930 . S
N1099 C1097 1.314 . S
N1099 C1098 1.279 . S
C1100 C1102 1.353 . S
C1100 N1103 1.314 . S
C1100 H1106 0.930 . S
C1101 N1103 1.279 . S
C1101 C1104 1.358 . S
C1101 H1107 0.930 . S
C1102 C1100 1.353 . S
C1102 C1105 1.348 . S
C1102 H1140 0.929 . S
N1103 Li1058 1.990 . S
N1103 C1100 1.314 . S
N1103 C1101 1.279 . S
C1104 C1101 1.358 . S
C1104 C1105 1.356 . S
C1104 H1141 0.930 . S
C1105 C1102 1.348 . S
C1105 C1104 1.356 . S
H1106 C1100 0.930 . S
H1107 C1101 0.930 . S
C1108 N1109 1.314 . S
C1108 C1110 1.353 . S
C1108 H1114 0.930 . S
N1109 Li1059 1.990 . S
N1109 C1108 1.314 . S
N1109 C1112 1.279 . S
C1110 C1108 1.353 . S
C1110 C1113 1.348 . S
C1110 H1142 0.929 . S
C1111 C1112 1.358 . S
C1111 C1113 1.356 . S
C1111 H1143 0.930 . S
C1112 N1109 1.279 . S
C1112 C1111 1.358 . S
C1112 H1115 0.930 . S
C1113 C1110 1.348 . S
C1113 C1111 1.356 . S
H1114 C1108 0.930 . S
H1115 C1112 0.930 . S
O1116 Li1056 1.956 . S
O1116 Li1057 1.970 . S
O1116 Li1058 1.961 . S
O1116 C1060 1.325 . S
O1117 Li1056 1.970 . S
O1117 Li1057 1.956 . S
O1117 Li1059 1.961 . S
O1117 C1066 1.325 . S
O1118 Li1056 1.961 . S
O1118 Li1058 1.956 . S
O1118 Li1059 1.970 . S
O1118 C1088 1.325 . S
O1119 Li1057 1.961 . S
O1119 Li1058 1.970 . S
O1119 Li1059 1.956 . S
O1119 C1094 1.325 . S
H1120 C1062 0.929 . S
H1121 C1063 0.930 . S
H1122 C1064 0.930 . S
H1123 C1065 0.930 . S
H1124 C1067 0.930 . S
H1125 C1069 0.929 . S
H1126 C1070 0.930 . S
H1127 C1071 0.930 . S
H1128 C1074 0.930 . S
H1129 C1077 0.929 . S
H1130 C1082 0.929 . S
H1131 C1083 0.930 . S
H1132 C1090 0.929 . S
H1133 C1091 0.930 . S
H1134 C1092 0.930 . S
H1135 C1093 0.930 . S
H1136 C1095 0.929 . S
H1137 C1096 0.930 . S
H1138 C1097 0.930 . S
H1139 C1098 0.930 . S
H1140 C1102 0.929 . S
H1141 C1104 0.930 . S
H1142 C1110 0.929 . S
H1143 C1111 0.930 . S
Li1144 N1161 1.990 . S
Li1144 O1204 1.956 . S
Li1144 O1205 1.970 . S
Li1144 O1206 1.961 . S
Li1145 N1169 1.990 . S
Li1145 O1204 1.970 1_565 S
Li1145 O1205 1.956 1_565 S
Li1145 O1207 1.961 . S
Li1146 N1191 1.990 . S
Li1146 O1204 1.961 . S
Li1146 O1206 1.956 . S
Li1146 O1207 1.970 1_545 S
Li1147 N1197 1.990 . S
Li1147 O1205 1.961 . S
Li1147 O1206 1.970 . S
Li1147 O1207 1.956 1_545 S
C1148 C1150 1.348 1_545 S
C1148 C1151 1.356 . S
C1148 O1204 1.325 . S
N1149 C1152 1.314 . S
N1149 C1153 1.279 1_565 S
C1150 C1148 1.348 1_565 S
C1150 C1152 1.353 . S
C1150 H1208 0.929 . S
C1151 C1148 1.356 . S
C1151 C1153 1.358 . S
C1151 H1209 0.930 . S
C1152 N1149 1.314 . S
C1152 C1150 1.353 . S
C1152 H1210 0.930 . S
C1153 N1149 1.279 1_545 S
C1153 C1151 1.358 . S
C1153 H1211 0.930 . S
C1154 C1157 1.348 . S
C1154 C1158 1.356 . S
C1154 O1205 1.325 . S
C1155 N1156 1.279 . S
C1155 C1158 1.358 . S
C1155 H1212 0.930 . S
N1156 C1155 1.279 . S
N1156 C1159 1.314 . S
C1157 C1154 1.348 . S
C1157 C1159 1.353 . S
C1157 H1213 0.929 . S
C1158 C1154 1.356 . S
C1158 C1155 1.358 . S
C1158 H1214 0.930 . S
C1159 N1156 1.314 . S
C1159 C1157 1.353 . S
C1159 H1215 0.930 . S
C1160 N1161 1.314 . S
C1160 C1165 1.353 . S
C1160 H1166 0.930 . S
N1161 Li1144 1.990 . S
N1161 C1160 1.314 . S
N1161 C1163 1.279 . S
C1162 C1163 1.358 . S
C1162 C1164 1.356 . S
C1162 H1216 0.930 . S
C1163 N1161 1.279 . S
C1163 C1162 1.358 . S
C1163 H1167 0.930 . S
C1164 C1162 1.356 . S
C1164 C1165 1.348 . S
C1165 C1160 1.353 . S
C1165 C1164 1.348 . S
C1165 H1217 0.929 . S
H1166 C1160 0.930 . S
H1167 C1163 0.930 . S
C1168 N1169 1.314 . S
C1168 C1170 1.353 . S
C1168 H1174 0.930 . S
N1169 Li1145 1.990 . S
N1169 C1168 1.314 . S
N1169 C1172 1.279 . S
C1170 C1168 1.353 . S
C1170 C1173 1.348 . S
C1170 H1218 0.929 . S
C1171 C1172 1.358 . S
C1171 C1173 1.356 . S
C1171 H1219 0.930 . S
C1172 N1169 1.279 . S
C1172 C1171 1.358 . S
C1172 H1175 0.930 . S
C1173 C1170 1.348 . S
C1173 C1171 1.356 . S
H1174 C1168 0.930 . S
H1175 C1172 0.930 . S
C1176 C1178 1.348 . S
C1176 C1179 1.356 . S
C1176 O1206 1.325 . S
N1177 C1180 1.314 . S
N1177 C1181 1.279 . S
C1178 C1176 1.348 . S
C1178 C1180 1.353 . S
C1178 H1220 0.929 . S
C1179 C1176 1.356 . S
C1179 C1181 1.358 . S
C1179 H1221 0.930 . S
C1180 N1177 1.314 . S
C1180 C1178 1.353 . S
C1180 H1222 0.930 . S
C1181 N1177 1.279 . S
C1181 C1179 1.358 . S
C1181 H1223 0.930 . S
C1182 C1183 1.348 . S
C1182 C1184 1.356 . S
C1182 O1207 1.325 . S
C1183 C1182 1.348 . S
C1183 C1185 1.353 . S
C1183 H1224 0.929 . S
C1184 C1182 1.356 . S
C1184 C1186 1.358 . S
C1184 H1225 0.930 . S
C1185 C1183 1.353 . S
C1185 N1187 1.314 . S
C1185 H1226 0.930 . S
C1186 C1184 1.358 . S
C1186 N1187 1.279 . S
C1186 H1227 0.930 . S
N1187 C1185 1.314 . S
N1187 C1186 1.279 . S
C1188 C1190 1.353 . S
C1188 N1191 1.314 1_565 S
C1188 H1194 0.930 . S
C1189 N1191 1.279 . S
C1189 C1192 1.358 . S
C1189 H1195 0.930 . S
C1190 C1188 1.353 . S
C1190 C1193 1.348 1_565 S
C1190 H1228 0.929 . S
N1191 Li1146 1.990 . S
N1191 C1188 1.314 1_545 S
N1191 C1189 1.279 . S
C1192 C1189 1.358 . S
C1192 C1193 1.356 . S
C1192 H1229 0.930 . S
C1193 C1190 1.348 1_545 S
C1193 C1192 1.356 . S
H1194 C1188 0.930 . S
H1195 C1189 0.930 . S
C1196 N1197 1.314 . S
C1196 C1198 1.353 . S
C1196 H1202 0.930 . S
N1197 Li1147 1.990 . S
N1197 C1196 1.314 . S
N1197 C1200 1.279 . S
C1198 C1196 1.353 . S
C1198 C1201 1.348 . S
C1198 H1230 0.929 . S
C1199 C1200 1.358 . S
C1199 C1201 1.356 . S
C1199 H1231 0.930 . S
C1200 N1197 1.279 . S
C1200 C1199 1.358 . S
C1200 H1203 0.930 . S
C1201 C1198 1.348 . S
C1201 C1199 1.356 . S
H1202 C1196 0.930 . S
H1203 C1200 0.930 . S
O1204 Li1144 1.956 . S
O1204 Li1145 1.970 1_545 S
O1204 Li1146 1.961 . S
O1204 C1148 1.325 . S
O1205 Li1144 1.970 . S
O1205 Li1145 1.956 1_545 S
O1205 Li1147 1.961 . S
O1205 C1154 1.325 . S
O1206 Li1144 1.961 . S
O1206 Li1146 1.956 . S
O1206 Li1147 1.970 . S
O1206 C1176 1.325 . S
O1207 Li1145 1.961 . S
O1207 Li1146 1.970 1_565 S
O1207 Li1147 1.956 1_565 S
O1207 C1182 1.325 . S
H1208 C1150 0.929 . S
H1209 C1151 0.930 . S
H1210 C1152 0.930 . S
H1211 C1153 0.930 . S
H1212 C1155 0.930 . S
H1213 C1157 0.929 . S
H1214 C1158 0.930 . S
H1215 C1159 0.930 . S
H1216 C1162 0.930 . S
H1217 C1165 0.929 . S
H1218 C1170 0.929 . S
H1219 C1171 0.930 . S
H1220 C1178 0.929 . S
H1221 C1179 0.930 . S
H1222 C1180 0.930 . S
H1223 C1181 0.930 . S
H1224 C1183 0.929 . S
H1225 C1184 0.930 . S
H1226 C1185 0.930 . S
H1227 C1186 0.930 . S
H1228 C1190 0.929 . S
H1229 C1192 0.930 . S
H1230 C1198 0.929 . S
H1231 C1199 0.930 . S
Li1232 N1249 1.990 . S
Li1232 O1292 1.956 . S
Li1232 O1293 1.970 . S
Li1232 O1294 1.961 . S
Li1233 N1257 1.990 . S
Li1233 O1292 1.970 . S
Li1233 O1293 1.956 . S
Li1233 O1295 1.961 . S
Li1234 N1279 1.990 . S
Li1234 O1292 1.961 . S
Li1234 O1294 1.956 . S
Li1234 O1295 1.970 . S
Li1235 N1285 1.990 . S
Li1235 O1293 1.961 . S
Li1235 O1294 1.970 . S
Li1235 O1295 1.956 . S
C1236 C1238 1.348 . S
C1236 C1239 1.356 . S
C1236 O1292 1.325 . S
N1237 C1240 1.314 . S
N1237 C1241 1.279 . S
C1238 C1236 1.348 . S
C1238 C1240 1.353 . S
C1238 H1296 0.929 . S
C1239 C1236 1.356 . S
C1239 C1241 1.358 . S
C1239 H1297 0.930 . S
C1240 N1237 1.314 . S
C1240 C1238 1.353 . S
C1240 H1298 0.930 . S
C1241 N1237 1.279 . S
C1241 C1239 1.358 . S
C1241 H1299 0.930 . S
C1242 C1245 1.348 . S
C1242 C1246 1.356 . S
C1242 O1293 1.325 . S
C1243 N1244 1.279 . S
C1243 C1246 1.358 . S
C1243 H1300 0.930 . S
N1244 C1243 1.279 . S
N1244 C1247 1.314 . S
C1245 C1242 1.348 . S
C1245 C1247 1.353 . S
C1245 H1301 0.929 . S
C1246 C1242 1.356 . S
C1246 C1243 1.358 . S
C1246 H1302 0.930 . S
C1247 N1244 1.314 . S
C1247 C1245 1.353 . S
C1247 H1303 0.930 . S
C1248 N1249 1.314 . S
C1248 C1253 1.353 . S
C1248 H1254 0.930 . S
N1249 Li1232 1.990 . S
N1249 C1248 1.314 . S
N1249 C1251 1.279 . S
C1250 C1251 1.358 . S
C1250 C1252 1.356 . S
C1250 H1304 0.930 . S
C1251 N1249 1.279 . S
C1251 C1250 1.358 . S
C1251 H1255 0.930 . S
C1252 C1250 1.356 . S
C1252 C1253 1.348 . S
C1253 C1248 1.353 . S
C1253 C1252 1.348 . S
C1253 H1305 0.929 . S
H1254 C1248 0.930 . S
H1255 C1251 0.930 . S
C1256 N1257 1.314 . S
C1256 C1258 1.353 . S
C1256 H1262 0.930 . S
N1257 Li1233 1.990 . S
N1257 C1256 1.314 . S
N1257 C1260 1.279 . S
C1258 C1256 1.353 . S
C1258 C1261 1.348 . S
C1258 H1306 0.929 . S
C1259 C1260 1.358 . S
C1259 C1261 1.356 . S
C1259 H1307 0.930 . S
C1260 N1257 1.279 . S
C1260 C1259 1.358 . S
C1260 H1263 0.930 . S
C1261 C1258 1.348 . S
C1261 C1259 1.356 . S
H1262 C1256 0.930 . S
H1263 C1260 0.930 . S
C1264 C1266 1.348 . S
C1264 C1267 1.356 . S
C1264 O1294 1.325 . S
N1265 C1268 1.314 . S
N1265 C1269 1.279 . S
C1266 C1264 1.348 . S
C1266 C1268 1.353 . S
C1266 H1308 0.929 . S
C1267 C1264 1.356 . S
C1267 C1269 1.358 . S
C1267 H1309 0.930 . S
C1268 N1265 1.314 . S
C1268 C1266 1.353 . S
C1268 H1310 0.930 . S
C1269 N1265 1.279 . S
C1269 C1267 1.358 . S
C1269 H1311 0.930 . S
C1270 C1271 1.348 . S
C1270 C1272 1.356 . S
C1270 O1295 1.325 . S
C1271 C1270 1.348 . S
C1271 C1273 1.353 . S
C1271 H1312 0.929 . S
C1272 C1270 1.356 . S
C1272 C1274 1.358 . S
C1272 H1313 0.930 . S
C1273 C1271 1.353 . S
C1273 N1275 1.314 . S
C1273 H1314 0.930 . S
C1274 C1272 1.358 . S
C1274 N1275 1.279 . S
C1274 H1315 0.930 . S
N1275 C1273 1.314 . S
N1275 C1274 1.279 . S
C1276 C1278 1.353 . S
C1276 N1279 1.314 . S
C1276 H1282 0.930 . S
C1277 N1279 1.279 . S
C1277 C1280 1.358 . S
C1277 H1283 0.930 . S
C1278 C1276 1.353 . S
C1278 C1281 1.348 . S
C1278 H1316 0.929 . S
N1279 Li1234 1.990 . S
N1279 C1276 1.314 . S
N1279 C1277 1.279 . S
C1280 C1277 1.358 . S
C1280 C1281 1.356 . S
C1280 H1317 0.930 . S
C1281 C1278 1.348 . S
C1281 C1280 1.356 . S
H1282 C1276 0.930 . S
H1283 C1277 0.930 . S
C1284 N1285 1.314 . S
C1284 C1286 1.353 . S
C1284 H1290 0.930 . S
N1285 Li1235 1.990 . S
N1285 C1284 1.314 . S
N1285 C1288 1.279 . S
C1286 C1284 1.353 . S
C1286 C1289 1.348 . S
C1286 H1318 0.929 . S
C1287 C1288 1.358 . S
C1287 C1289 1.356 . S
C1287 H1319 0.930 . S
C1288 N1285 1.279 . S
C1288 C1287 1.358 . S
C1288 H1291 0.930 . S
C1289 C1286 1.348 . S
C1289 C1287 1.356 . S
H1290 C1284 0.930 . S
H1291 C1288 0.930 . S
O1292 Li1232 1.956 . S
O1292 Li1233 1.970 . S
O1292 Li1234 1.961 . S
O1292 C1236 1.325 . S
O1293 Li1232 1.970 . S
O1293 Li1233 1.956 . S
O1293 Li1235 1.961 . S
O1293 C1242 1.325 . S
O1294 Li1232 1.961 . S
O1294 Li1234 1.956 . S
O1294 Li1235 1.970 . S
O1294 C1264 1.325 . S
O1295 Li1233 1.961 . S
O1295 Li1234 1.970 . S
O1295 Li1235 1.956 . S
O1295 C1270 1.325 . S
H1296 C1238 0.929 . S
H1297 C1239 0.930 . S
H1298 C1240 0.930 . S
H1299 C1241 0.930 . S
H1300 C1243 0.930 . S
H1301 C1245 0.929 . S
H1302 C1246 0.930 . S
H1303 C1247 0.930 . S
H1304 C1250 0.930 . S
H1305 C1253 0.929 . S
H1306 C1258 0.929 . S
H1307 C1259 0.930 . S
H1308 C1266 0.929 . S
H1309 C1267 0.930 . S
H1310 C1268 0.930 . S
H1311 C1269 0.930 . S
H1312 C1271 0.929 . S
H1313 C1272 0.930 . S
H1314 C1273 0.930 . S
H1315 C1274 0.930 . S
H1316 C1278 0.929 . S
H1317 C1280 0.930 . S
H1318 C1286 0.929 . S
H1319 C1287 0.930 . S
Li1320 N1337 1.990 . S
Li1320 O1380 1.956 . S
Li1320 O1381 1.970 . S
Li1320 O1382 1.961 . S
Li1321 N1345 1.990 . S
Li1321 O1380 1.970 1_545 S
Li1321 O1381 1.956 1_545 S
Li1321 O1383 1.961 . S
Li1322 N1367 1.990 . S
Li1322 O1380 1.961 . S
Li1322 O1382 1.956 . S
Li1322 O1383 1.970 1_565 S
Li1323 N1373 1.990 1_655 S
Li1323 O1381 1.961 . S
Li1323 O1382 1.970 . S
Li1323 O1383 1.956 1_565 S
C1324 C1326 1.348 1_565 S
C1324 C1327 1.356 . S
C1324 O1380 1.325 . S
N1325 C1328 1.314 . S
N1325 C1329 1.279 1_545 S
C1326 C1324 1.348 1_545 S
C1326 C1328 1.353 . S
C1326 H1384 0.929 . S
C1327 C1324 1.356 . S
C1327 C1329 1.358 . S
C1327 H1385 0.930 . S
C1328 N1325 1.314 . S
C1328 C1326 1.353 . S
C1328 H1386 0.930 . S
C1329 N1325 1.279 1_565 S
C1329 C1327 1.358 . S
C1329 H1387 0.930 . S
C1330 C1333 1.348 . S
C1330 C1334 1.356 . S
C1330 O1381 1.325 . S
C1331 N1332 1.279 . S
C1331 C1334 1.358 . S
C1331 H1388 0.930 . S
N1332 C1331 1.279 . S
N1332 C1335 1.314 . S
C1333 C1330 1.348 . S
C1333 C1335 1.353 . S
C1333 H1389 0.929 . S
C1334 C1330 1.356 . S
C1334 C1331 1.358 . S
C1334 H1390 0.930 . S
C1335 N1332 1.314 . S
C1335 C1333 1.353 . S
C1335 H1391 0.930 . S
C1336 N1337 1.314 . S
C1336 C1341 1.353 . S
C1336 H1342 0.930 . S
N1337 Li1320 1.990 . S
N1337 C1336 1.314 . S
N1337 C1339 1.279 . S
C1338 C1339 1.358 . S
C1338 C1340 1.356 . S
C1338 H1392 0.930 . S
C1339 N1337 1.279 . S
C1339 C1338 1.358 . S
C1339 H1343 0.930 . S
C1340 C1338 1.356 . S
C1340 C1341 1.348 . S
C1341 C1336 1.353 . S
C1341 C1340 1.348 . S
C1341 H1393 0.929 . S
H1342 C1336 0.930 . S
H1343 C1339 0.930 . S
C1344 N1345 1.314 . S
C1344 C1346 1.353 . S
C1344 H1350 0.930 . S
N1345 Li1321 1.990 . S
N1345 C1344 1.314 . S
N1345 C1348 1.279 . S
C1346 C1344 1.353 . S
C1346 C1349 1.348 . S
C1346 H1394 0.929 . S
C1347 C1348 1.358 . S
C1347 C1349 1.356 . S
C1347 H1395 0.930 . S
C1348 N1345 1.279 . S
C1348 C1347 1.358 . S
C1348 H1351 0.930 . S
C1349 C1346 1.348 . S
C1349 C1347 1.356 . S
H1350 C1344 0.930 . S
H1351 C1348 0.930 . S
C1352 C1354 1.348 1_655 S
C1352 C1355 1.356 . S
C1352 O1382 1.325 . S
N1353 C1356 1.314 . S
N1353 C1357 1.279 1_455 S
C1354 C1352 1.348 1_455 S
C1354 C1356 1.353 . S
C1354 H1396 0.929 . S
C1355 C1352 1.356 . S
C1355 C1357 1.358 . S
C1355 H1397 0.930 . S
C1356 N1353 1.314 . S
C1356 C1354 1.353 . S
C1356 H1398 0.930 . S
C1357 N1353 1.279 1_655 S
C1357 C1355 1.358 . S
C1357 H1399 0.930 . S
C1358 C1359 1.348 1_655 S
C1358 C1360 1.356 1_655 S
C1358 O1383 1.325 . S
C1359 C1358 1.348 1_455 S
C1359 C1361 1.353 . S
C1359 H1400 0.929 . S
C1360 C1358 1.356 1_455 S
C1360 C1362 1.358 . S
C1360 H1401 0.930 1_455 S
C1361 C1359 1.353 . S
C1361 N1363 1.314 . S
C1361 H1402 0.930 . S
C1362 C1360 1.358 . S
C1362 N1363 1.279 . S
C1362 H1403 0.930 . S
N1363 C1361 1.314 . S
N1363 C1362 1.279 . S
C1364 C1366 1.353 . S
C1364 N1367 1.314 1_545 S
C1364 H1370 0.930 . S
C1365 N1367 1.279 . S
C1365 C1368 1.358 . S
C1365 H1371 0.930 . S
C1366 C1364 1.353 . S
C1366 C1369 1.348 1_545 S
C1366 H1404 0.929 . S
N1367 Li1322 1.990 . S
N1367 C1364 1.314 1_565 S
N1367 C1365 1.279 . S
C1368 C1365 1.358 . S
C1368 C1369 1.356 . S
C1368 H1405 0.930 . S
C1369 C1366 1.348 1_565 S
C1369 C1368 1.356 . S
H1370 C1364 0.930 . S
H1371 C1365 0.930 . S
C1372 N1373 1.314 . S
C1372 C1374 1.353 . S
C1372 H1378 0.930 . S
N1373 Li1323 1.990 1_455 S
N1373 C1372 1.314 . S
N1373 C1376 1.279 . S
C1374 C1372 1.353 . S
C1374 C1377 1.348 . S
C1374 H1406 0.929 . S
C1375 C1376 1.358 . S
C1375 C1377 1.356 . S
C1375 H1407 0.930 . S
C1376 N1373 1.279 . S
C1376 C1375 1.358 . S
C1376 H1379 0.930 . S
C1377 C1374 1.348 . S
C1377 C1375 1.356 . S
H1378 C1372 0.930 . S
H1379 C1376 0.930 . S
O1380 Li1320 1.956 . S
O1380 Li1321 1.970 1_565 S
O1380 Li1322 1.961 . S
O1380 C1324 1.325 . S
O1381 Li1320 1.970 . S
O1381 Li1321 1.956 1_565 S
O1381 Li1323 1.961 . S
O1381 C1330 1.325 . S
O1382 Li1320 1.961 . S
O1382 Li1322 1.956 . S
O1382 Li1323 1.970 . S
O1382 C1352 1.325 . S
O1383 Li1321 1.961 . S
O1383 Li1322 1.970 1_545 S
O1383 Li1323 1.956 1_545 S
O1383 C1358 1.325 . S
H1384 C1326 0.929 . S
H1385 C1327 0.930 . S
H1386 C1328 0.930 . S
H1387 C1329 0.930 . S
H1388 C1331 0.930 . S
H1389 C1333 0.929 . S
H1390 C1334 0.930 . S
H1391 C1335 0.930 . S
H1392 C1338 0.930 . S
H1393 C1341 0.929 . S
H1394 C1346 0.929 . S
H1395 C1347 0.930 . S
H1396 C1354 0.929 . S
H1397 C1355 0.930 . S
H1398 C1356 0.930 . S
H1399 C1357 0.930 . S
H1400 C1359 0.929 . S
H1401 C1360 0.930 1_655 S
H1402 C1361 0.930 . S
H1403 C1362 0.930 . S
H1404 C1366 0.929 . S
H1405 C1368 0.930 . S
H1406 C1374 0.929 . S
H1407 C1375 0.930 . S
Li1408 N1425 1.990 . S
Li1408 O1468 1.956 . S
Li1408 O1469 1.970 . S
Li1408 O1470 1.961 . S
Li1409 N1433 1.990 . S
Li1409 O1468 1.970 . S
Li1409 O1469 1.956 . S
Li1409 O1471 1.961 . S
Li1410 N1455 1.990 . S
Li1410 O1468 1.961 . S
Li1410 O1470 1.956 . S
Li1410 O1471 1.970 . S
Li1411 N1461 1.990 . S
Li1411 O1469 1.961 . S
Li1411 O1470 1.970 . S
Li1411 O1471 1.956 . S
C1412 C1414 1.348 . S
C1412 C1415 1.356 . S
C1412 O1468 1.325 . S
N1413 C1416 1.314 . S
N1413 C1417 1.279 . S
C1414 C1412 1.348 . S
C1414 C1416 1.353 . S
C1414 H1472 0.929 . S
C1415 C1412 1.356 . S
C1415 C1417 1.358 . S
C1415 H1473 0.930 . S
C1416 N1413 1.314 . S
C1416 C1414 1.353 . S
C1416 H1474 0.930 . S
C1417 N1413 1.279 . S
C1417 C1415 1.358 . S
C1417 H1475 0.930 . S
C1418 C1421 1.348 . S
C1418 C1422 1.356 . S
C1418 O1469 1.325 . S
C1419 N1420 1.279 . S
C1419 C1422 1.358 . S
C1419 H1476 0.930 . S
N1420 C1419 1.279 . S
N1420 C1423 1.314 . S
C1421 C1418 1.348 . S
C1421 C1423 1.353 . S
C1421 H1477 0.929 . S
C1422 C1418 1.356 . S
C1422 C1419 1.358 . S
C1422 H1478 0.930 . S
C1423 N1420 1.314 . S
C1423 C1421 1.353 . S
C1423 H1479 0.930 . S
C1424 N1425 1.314 . S
C1424 C1429 1.353 . S
C1424 H1430 0.930 . S
N1425 Li1408 1.990 . S
N1425 C1424 1.314 . S
N1425 C1427 1.279 . S
C1426 C1427 1.358 . S
C1426 C1428 1.356 . S
C1426 H1480 0.930 . S
C1427 N1425 1.279 . S
C1427 C1426 1.358 . S
C1427 H1431 0.930 . S
C1428 C1426 1.356 . S
C1428 C1429 1.348 . S
C1429 C1424 1.353 . S
C1429 C1428 1.348 . S
C1429 H1481 0.929 . S
H1430 C1424 0.930 . S
H1431 C1427 0.930 . S
C1432 N1433 1.314 . S
C1432 C1434 1.353 . S
C1432 H1438 0.930 . S
N1433 Li1409 1.990 . S
N1433 C1432 1.314 . S
N1433 C1436 1.279 . S
C1434 C1432 1.353 . S
C1434 C1437 1.348 . S
C1434 H1482 0.929 . S
C1435 C1436 1.358 . S
C1435 C1437 1.356 . S
C1435 H1483 0.930 . S
C1436 N1433 1.279 . S
C1436 C1435 1.358 . S
C1436 H1439 0.930 . S
C1437 C1434 1.348 . S
C1437 C1435 1.356 . S
H1438 C1432 0.930 . S
H1439 C1436 0.930 . S
C1440 C1442 1.348 . S
C1440 C1443 1.356 . S
C1440 O1470 1.325 . S
N1441 C1444 1.314 . S
N1441 C1445 1.279 . S
C1442 C1440 1.348 . S
C1442 C1444 1.353 . S
C1442 H1484 0.929 . S
C1443 C1440 1.356 . S
C1443 C1445 1.358 . S
C1443 H1485 0.930 . S
C1444 N1441 1.314 . S
C1444 C1442 1.353 . S
C1444 H1486 0.930 . S
C1445 N1441 1.279 . S
C1445 C1443 1.358 . S
C1445 H1487 0.930 . S
C1446 C1447 1.348 . S
C1446 C1448 1.356 . S
C1446 O1471 1.325 . S
C1447 C1446 1.348 . S
C1447 C1449 1.353 . S
C1447 H1488 0.929 . S
C1448 C1446 1.356 . S
C1448 C1450 1.358 . S
C1448 H1489 0.930 . S
C1449 C1447 1.353 . S
C1449 N1451 1.314 . S
C1449 H1490 0.930 . S
C1450 C1448 1.358 . S
C1450 N1451 1.279 . S
C1450 H1491 0.930 . S
N1451 C1449 1.314 . S
N1451 C1450 1.279 . S
C1452 C1454 1.353 . S
C1452 N1455 1.314 . S
C1452 H1458 0.930 . S
C1453 N1455 1.279 . S
C1453 C1456 1.358 . S
C1453 H1459 0.930 . S
C1454 C1452 1.353 . S
C1454 C1457 1.348 . S
C1454 H1492 0.929 . S
N1455 Li1410 1.990 . S
N1455 C1452 1.314 . S
N1455 C1453 1.279 . S
C1456 C1453 1.358 . S
C1456 C1457 1.356 . S
C1456 H1493 0.930 . S
C1457 C1454 1.348 . S
C1457 C1456 1.356 . S
H1458 C1452 0.930 . S
H1459 C1453 0.930 . S
C1460 N1461 1.314 . S
C1460 C1462 1.353 . S
C1460 H1466 0.930 . S
N1461 Li1411 1.990 . S
N1461 C1460 1.314 . S
N1461 C1464 1.279 . S
C1462 C1460 1.353 . S
C1462 C1465 1.348 . S
C1462 H1494 0.929 . S
C1463 C1464 1.358 . S
C1463 C1465 1.356 . S
C1463 H1495 0.930 . S
C1464 N1461 1.279 . S
C1464 C1463 1.358 . S
C1464 H1467 0.930 . S
C1465 C1462 1.348 . S
C1465 C1463 1.356 . S
H1466 C1460 0.930 . S
H1467 C1464 0.930 . S
O1468 Li1408 1.956 . S
O1468 Li1409 1.970 . S
O1468 Li1410 1.961 . S
O1468 C1412 1.325 . S
O1469 Li1408 1.970 . S
O1469 Li1409 1.956 . S
O1469 Li1411 1.961 . S
O1469 C1418 1.325 . S
O1470 Li1408 1.961 . S
O1470 Li1410 1.956 . S
O1470 Li1411 1.970 . S
O1470 C1440 1.325 . S
O1471 Li1409 1.961 . S
O1471 Li1410 1.970 . S
O1471 Li1411 1.956 . S
O1471 C1446 1.325 . S
H1472 C1414 0.929 . S
H1473 C1415 0.930 . S
H1474 C1416 0.930 . S
H1475 C1417 0.930 . S
H1476 C1419 0.930 . S
H1477 C1421 0.929 . S
H1478 C1422 0.930 . S
H1479 C1423 0.930 . S
H1480 C1426 0.930 . S
H1481 C1429 0.929 . S
H1482 C1434 0.929 . S
H1483 C1435 0.930 . S
H1484 C1442 0.929 . S
H1485 C1443 0.930 . S
H1486 C1444 0.930 . S
H1487 C1445 0.930 . S
H1488 C1447 0.929 . S
H1489 C1448 0.930 . S
H1490 C1449 0.930 . S
H1491 C1450 0.930 . S
H1492 C1454 0.929 . S
H1493 C1456 0.930 . S
H1494 C1462 0.929 . S
H1495 C1463 0.930 . S
Li1496 N1513 1.990 . S
Li1496 O1556 1.956 . S
Li1496 O1557 1.970 . S
Li1496 O1558 1.961 . S
Li1497 N1521 1.990 . S
Li1497 O1556 1.970 . S
Li1497 O1557 1.956 . S
Li1497 O1559 1.961 . S
Li1498 N1543 1.990 . S
Li1498 O1556 1.961 . S
Li1498 O1558 1.956 . S
Li1498 O1559 1.970 . S
Li1499 N1549 1.990 . S
Li1499 O1557 1.961 . S
Li1499 O1558 1.970 . S
Li1499 O1559 1.956 . S
C1500 C1502 1.348 . S
C1500 C1503 1.356 . S
C1500 O1556 1.325 . S
N1501 C1504 1.314 . S
N1501 C1505 1.279 . S
C1502 C1500 1.348 . S
C1502 C1504 1.353 . S
C1502 H1560 0.929 . S
C1503 C1500 1.356 . S
C1503 C1505 1.358 . S
C1503 H1561 0.930 . S
C1504 N1501 1.314 . S
C1504 C1502 1.353 . S
C1504 H1562 0.930 . S
C1505 N1501 1.279 . S
C1505 C1503 1.358 . S
C1505 H1563 0.930 . S
C1506 C1509 1.348 . S
C1506 C1510 1.356 . S
C1506 O1557 1.325 . S
C1507 N1508 1.279 . S
C1507 C1510 1.358 . S
C1507 H1564 0.930 . S
N1508 C1507 1.279 . S
N1508 C1511 1.314 . S
C1509 C1506 1.348 . S
C1509 C1511 1.353 . S
C1509 H1565 0.929 . S
C1510 C1506 1.356 . S
C1510 C1507 1.358 . S
C1510 H1566 0.930 . S
C1511 N1508 1.314 . S
C1511 C1509 1.353 . S
C1511 H1567 0.930 . S
C1512 N1513 1.314 . S
C1512 C1517 1.353 . S
C1512 H1518 0.930 . S
N1513 Li1496 1.990 . S
N1513 C1512 1.314 . S
N1513 C1515 1.279 . S
C1514 C1515 1.358 . S
C1514 C1516 1.356 . S
C1514 H1568 0.930 . S
C1515 N1513 1.279 . S
C1515 C1514 1.358 . S
C1515 H1519 0.930 . S
C1516 C1514 1.356 . S
C1516 C1517 1.348 . S
C1517 C1512 1.353 . S
C1517 C1516 1.348 . S
C1517 H1569 0.929 . S
H1518 C1512 0.930 . S
H1519 C1515 0.930 . S
C1520 N1521 1.314 . S
C1520 C1522 1.353 . S
C1520 H1526 0.930 . S
N1521 Li1497 1.990 . S
N1521 C1520 1.314 . S
N1521 C1524 1.279 . S
C1522 C1520 1.353 . S
C1522 C1525 1.348 . S
C1522 H1570 0.929 . S
C1523 C1524 1.358 . S
C1523 C1525 1.356 . S
C1523 H1571 0.930 . S
C1524 N1521 1.279 . S
C1524 C1523 1.358 . S
C1524 H1527 0.930 . S
C1525 C1522 1.348 . S
C1525 C1523 1.356 . S
H1526 C1520 0.930 . S
H1527 C1524 0.930 . S
C1528 C1530 1.348 . S
C1528 C1531 1.356 . S
C1528 O1558 1.325 . S
N1529 C1532 1.314 . S
N1529 C1533 1.279 . S
C1530 C1528 1.348 . S
C1530 C1532 1.353 . S
C1530 H1572 0.929 . S
C1531 C1528 1.356 . S
C1531 C1533 1.358 . S
C1531 H1573 0.930 . S
C1532 N1529 1.314 . S
C1532 C1530 1.353 . S
C1532 H1574 0.930 . S
C1533 N1529 1.279 . S
C1533 C1531 1.358 . S
C1533 H1575 0.930 . S
C1534 C1535 1.348 . S
C1534 C1536 1.356 . S
C1534 O1559 1.325 . S
C1535 C1534 1.348 . S
C1535 C1537 1.353 . S
C1535 H1576 0.929 . S
C1536 C1534 1.356 . S
C1536 C1538 1.358 . S
C1536 H1577 0.930 . S
C1537 C1535 1.353 . S
C1537 N1539 1.314 . S
C1537 H1578 0.930 . S
C1538 C1536 1.358 . S
C1538 N1539 1.279 . S
C1538 H1579 0.930 . S
N1539 C1537 1.314 . S
N1539 C1538 1.279 . S
C1540 C1542 1.353 . S
C1540 N1543 1.314 . S
C1540 H1546 0.930 . S
C1541 N1543 1.279 . S
C1541 C1544 1.358 . S
C1541 H1547 0.930 . S
C1542 C1540 1.353 . S
C1542 C1545 1.348 . S
C1542 H1580 0.929 . S
N1543 Li1498 1.990 . S
N1543 C1540 1.314 . S
N1543 C1541 1.279 . S
C1544 C1541 1.358 . S
C1544 C1545 1.356 . S
C1544 H1581 0.930 . S
C1545 C1542 1.348 . S
C1545 C1544 1.356 . S
H1546 C1540 0.930 . S
H1547 C1541 0.930 . S
C1548 N1549 1.314 . S
C1548 C1550 1.353 . S
C1548 H1554 0.930 . S
N1549 Li1499 1.990 . S
N1549 C1548 1.314 . S
N1549 C1552 1.279 . S
C1550 C1548 1.353 . S
C1550 C1553 1.348 . S
C1550 H1582 0.929 . S
C1551 C1552 1.358 . S
C1551 C1553 1.356 . S
C1551 H1583 0.930 . S
C1552 N1549 1.279 . S
C1552 C1551 1.358 . S
C1552 H1555 0.930 . S
C1553 C1550 1.348 . S
C1553 C1551 1.356 . S
H1554 C1548 0.930 . S
H1555 C1552 0.930 . S
O1556 Li1496 1.956 . S
O1556 Li1497 1.970 . S
O1556 Li1498 1.961 . S
O1556 C1500 1.325 . S
O1557 Li1496 1.970 . S
O1557 Li1497 1.956 . S
O1557 Li1499 1.961 . S
O1557 C1506 1.325 . S
O1558 Li1496 1.961 . S
O1558 Li1498 1.956 . S
O1558 Li1499 1.970 . S
O1558 C1528 1.325 . S
O1559 Li1497 1.961 . S
O1559 Li1498 1.970 . S
O1559 Li1499 1.956 . S
O1559 C1534 1.325 . S
H1560 C1502 0.929 . S
H1561 C1503 0.930 . S
H1562 C1504 0.930 . S
H1563 C1505 0.930 . S
H1564 C1507 0.930 . S
H1565 C1509 0.929 . S
H1566 C1510 0.930 . S
H1567 C1511 0.930 . S
H1568 C1514 0.930 . S
H1569 C1517 0.929 . S
H1570 C1522 0.929 . S
H1571 C1523 0.930 . S
H1572 C1530 0.929 . S
H1573 C1531 0.930 . S
H1574 C1532 0.930 . S
H1575 C1533 0.930 . S
H1576 C1535 0.929 . S
H1577 C1536 0.930 . S
H1578 C1537 0.930 . S
H1579 C1538 0.930 . S
H1580 C1542 0.929 . S
H1581 C1544 0.930 . S
H1582 C1550 0.929 . S
H1583 C1551 0.930 . S
Li1584 N1601 1.990 . S
Li1584 O1644 1.956 . S
Li1584 O1645 1.970 . S
Li1584 O1646 1.961 . S
Li1585 N1609 1.990 . S
Li1585 O1644 1.970 . S
Li1585 O1645 1.956 . S
Li1585 O1647 1.961 . S
Li1586 N1631 1.990 . S
Li1586 O1644 1.961 . S
Li1586 O1646 1.956 . S
Li1586 O1647 1.970 . S
Li1587 N1637 1.990 . S
Li1587 O1645 1.961 . S
Li1587 O1646 1.970 . S
Li1587 O1647 1.956 . S
C1588 C1590 1.348 . S
C1588 C1591 1.356 . S
C1588 O1644 1.325 . S
N1589 C1592 1.314 . S
N1589 C1593 1.279 . S
C1590 C1588 1.348 . S
C1590 C1592 1.353 . S
C1590 H1648 0.929 . S
C1591 C1588 1.356 . S
C1591 C1593 1.358 . S
C1591 H1649 0.930 . S
C1592 N1589 1.314 . S
C1592 C1590 1.353 . S
C1592 H1650 0.930 . S
C1593 N1589 1.279 . S
C1593 C1591 1.358 . S
C1593 H1651 0.930 . S
C1594 C1597 1.348 . S
C1594 C1598 1.356 . S
C1594 O1645 1.325 . S
C1595 N1596 1.279 . S
C1595 C1598 1.358 . S
C1595 H1652 0.930 . S
N1596 C1595 1.279 . S
N1596 C1599 1.314 . S
C1597 C1594 1.348 . S
C1597 C1599 1.353 . S
C1597 H1653 0.929 . S
C1598 C1594 1.356 . S
C1598 C1595 1.358 . S
C1598 H1654 0.930 . S
C1599 N1596 1.314 . S
C1599 C1597 1.353 . S
C1599 H1655 0.930 . S
C1600 N1601 1.314 . S
C1600 C1605 1.353 . S
C1600 H1606 0.930 . S
N1601 Li1584 1.990 . S
N1601 C1600 1.314 . S
N1601 C1603 1.279 . S
C1602 C1603 1.358 . S
C1602 C1604 1.356 . S
C1602 H1656 0.930 . S
C1603 N1601 1.279 . S
C1603 C1602 1.358 . S
C1603 H1607 0.930 . S
C1604 C1602 1.356 . S
C1604 C1605 1.348 . S
C1605 C1600 1.353 . S
C1605 C1604 1.348 . S
C1605 H1657 0.929 . S
H1606 C1600 0.930 . S
H1607 C1603 0.930 . S
C1608 N1609 1.314 . S
C1608 C1610 1.353 . S
C1608 H1614 0.930 . S
N1609 Li1585 1.990 . S
N1609 C1608 1.314 . S
N1609 C1612 1.279 . S
C1610 C1608 1.353 . S
C1610 C1613 1.348 . S
C1610 H1658 0.929 . S
C1611 C1612 1.358 . S
C1611 C1613 1.356 . S
C1611 H1659 0.930 . S
C1612 N1609 1.279 . S
C1612 C1611 1.358 . S
C1612 H1615 0.930 . S
C1613 C1610 1.348 . S
C1613 C1611 1.356 . S
H1614 C1608 0.930 . S
H1615 C1612 0.930 . S
C1616 C1618 1.348 . S
C1616 C1619 1.356 . S
C1616 O1646 1.325 . S
N1617 C1620 1.314 . S
N1617 C1621 1.279 . S
C1618 C1616 1.348 . S
C1618 C1620 1.353 . S
C1618 H1660 0.929 . S
C1619 C1616 1.356 . S
C1619 C1621 1.358 . S
C1619 H1661 0.930 . S
C1620 N1617 1.314 . S
C1620 C1618 1.353 . S
C1620 H1662 0.930 . S
C1621 N1617 1.279 . S
C1621 C1619 1.358 . S
C1621 H1663 0.930 . S
C1622 C1623 1.348 . S
C1622 C1624 1.356 . S
C1622 O1647 1.325 . S
C1623 C1622 1.348 . S
C1623 C1625 1.353 . S
C1623 H1664 0.929 . S
C1624 C1622 1.356 . S
C1624 C1626 1.358 . S
C1624 H1665 0.930 . S
C1625 C1623 1.353 . S
C1625 N1627 1.314 . S
C1625 H1666 0.930 . S
C1626 C1624 1.358 . S
C1626 N1627 1.279 . S
C1626 H1667 0.930 . S
N1627 C1625 1.314 . S
N1627 C1626 1.279 . S
C1628 C1630 1.353 . S
C1628 N1631 1.314 . S
C1628 H1634 0.930 . S
C1629 N1631 1.279 . S
C1629 C1632 1.358 . S
C1629 H1635 0.930 . S
C1630 C1628 1.353 . S
C1630 C1633 1.348 . S
C1630 H1668 0.929 . S
N1631 Li1586 1.990 . S
N1631 C1628 1.314 . S
N1631 C1629 1.279 . S
C1632 C1629 1.358 . S
C1632 C1633 1.356 . S
C1632 H1669 0.930 . S
C1633 C1630 1.348 . S
C1633 C1632 1.356 . S
H1634 C1628 0.930 . S
H1635 C1629 0.930 . S
C1636 N1637 1.314 . S
C1636 C1638 1.353 . S
C1636 H1642 0.930 . S
N1637 Li1587 1.990 . S
N1637 C1636 1.314 . S
N1637 C1640 1.279 . S
C1638 C1636 1.353 . S
C1638 C1641 1.348 . S
C1638 H1670 0.929 . S
C1639 C1640 1.358 . S
C1639 C1641 1.356 . S
C1639 H1671 0.930 . S
C1640 N1637 1.279 . S
C1640 C1639 1.358 . S
C1640 H1643 0.930 . S
C1641 C1638 1.348 . S
C1641 C1639 1.356 . S
H1642 C1636 0.930 . S
H1643 C1640 0.930 . S
O1644 Li1584 1.956 . S
O1644 Li1585 1.970 . S
O1644 Li1586 1.961 . S
O1644 C1588 1.325 . S
O1645 Li1584 1.970 . S
O1645 Li1585 1.956 . S
O1645 Li1587 1.961 . S
O1645 C1594 1.325 . S
O1646 Li1584 1.961 . S
O1646 Li1586 1.956 . S
O1646 Li1587 1.970 . S
O1646 C1616 1.325 . S
O1647 Li1585 1.961 . S
O1647 Li1586 1.970 . S
O1647 Li1587 1.956 . S
O1647 C1622 1.325 . S
H1648 C1590 0.929 . S
H1649 C1591 0.930 . S
H1650 C1592 0.930 . S
H1651 C1593 0.930 . S
H1652 C1595 0.930 . S
H1653 C1597 0.929 . S
H1654 C1598 0.930 . S
H1655 C1599 0.930 . S
H1656 C1602 0.930 . S
H1657 C1605 0.929 . S
H1658 C1610 0.929 . S
H1659 C1611 0.930 . S
H1660 C1618 0.929 . S
H1661 C1619 0.930 . S
H1662 C1620 0.930 . S
H1663 C1621 0.930 . S
H1664 C1623 0.929 . S
H1665 C1624 0.930 . S
H1666 C1625 0.930 . S
H1667 C1626 0.930 . S
H1668 C1630 0.929 . S
H1669 C1632 0.930 . S
H1670 C1638 0.929 . S
H1671 C1639 0.930 . S
Li1672 N1689 1.990 . S
Li1672 O1732 1.956 . S
Li1672 O1733 1.970 . S
Li1672 O1734 1.961 . S
Li1673 N1697 1.990 1_655 S
Li1673 O1732 1.970 . S
Li1673 O1733 1.956 . S
Li1673 O1735 1.961 . S
Li1674 N1719 1.990 . S
Li1674 O1732 1.961 . S
Li1674 O1734 1.956 . S
Li1674 O1735 1.970 . S
Li1675 N1725 1.990 . S
Li1675 O1733 1.961 . S
Li1675 O1734 1.970 . S
Li1675 O1735 1.956 . S
C1676 C1678 1.348 1_655 S
C1676 C1679 1.356 . S
C1676 O1732 1.325 . S
N1677 C1680 1.314 . S
N1677 C1681 1.279 1_455 S
C1678 C1676 1.348 1_455 S
C1678 C1680 1.353 . S
C1678 H1736 0.929 . S
C1679 C1676 1.356 . S
C1679 C1681 1.358 . S
C1679 H1737 0.930 . S
C1680 N1677 1.314 . S
C1680 C1678 1.353 . S
C1680 H1738 0.930 . S
C1681 N1677 1.279 1_655 S
C1681 C1679 1.358 . S
C1681 H1739 0.930 . S
C1682 C1685 1.348 . S
C1682 C1686 1.356 . S
C1682 O1733 1.325 . S
C1683 N1684 1.279 . S
C1683 C1686 1.358 . S
C1683 H1740 0.930 . S
N1684 C1683 1.279 . S
N1684 C1687 1.314 . S
C1685 C1682 1.348 . S
C1685 C1687 1.353 . S
C1685 H1741 0.929 . S
C1686 C1682 1.356 . S
C1686 C1683 1.358 . S
C1686 H1742 0.930 . S
C1687 N1684 1.314 . S
C1687 C1685 1.353 . S
C1687 H1743 0.930 . S
C1688 N1689 1.314 . S
C1688 C1693 1.353 . S
C1688 H1694 0.930 . S
N1689 Li1672 1.990 . S
N1689 C1688 1.314 . S
N1689 C1691 1.279 . S
C1690 C1691 1.358 . S
C1690 C1692 1.356 . S
C1690 H1744 0.930 . S
C1691 N1689 1.279 . S
C1691 C1690 1.358 . S
C1691 H1695 0.930 . S
C1692 C1690 1.356 . S
C1692 C1693 1.348 . S
C1693 C1688 1.353 . S
C1693 C1692 1.348 . S
C1693 H1745 0.929 . S
H1694 C1688 0.930 . S
H1695 C1691 0.930 . S
C1696 N1697 1.314 . S
C1696 C1698 1.353 . S
C1696 H1702 0.930 . S
N1697 Li1673 1.990 1_455 S
N1697 C1696 1.314 . S
N1697 C1700 1.279 . S
C1698 C1696 1.353 . S
C1698 C1701 1.348 . S
C1698 H1746 0.929 . S
C1699 C1700 1.358 . S
C1699 C1701 1.356 . S
C1699 H1747 0.930 . S
C1700 N1697 1.279 . S
C1700 C1699 1.358 . S
C1700 H1703 0.930 . S
C1701 C1698 1.348 . S
C1701 C1699 1.356 . S
H1702 C1696 0.930 . S
H1703 C1700 0.930 . S
C1704 C1706 1.348 . S
C1704 C1707 1.356 . S
C1704 O1734 1.325 . S
N1705 C1708 1.314 . S
N1705 C1709 1.279 . S
C1706 C1704 1.348 . S
C1706 C1708 1.353 . S
C1706 H1748 0.929 . S
C1707 C1704 1.356 . S
C1707 C1709 1.358 . S
C1707 H1749 0.930 . S
C1708 N1705 1.314 . S
C1708 C1706 1.353 . S
C1708 H1750 0.930 . S
C1709 N1705 1.279 . S
C1709 C1707 1.358 . S
C1709 H1751 0.930 . S
C1710 C1711 1.350 . S
C1710 C1712 1.356 1_655 S
C1710 O1735 1.325 . S
C1711 C1710 1.350 . S
C1711 C1713 1.332 1_655 S
C1711 H1752 0.949 . S
C1712 C1710 1.356 1_455 S
C1712 C1714 1.358 . S
C1712 H1753 0.930 . S
C1713 C1711 1.332 1_455 S
C1713 N1715 1.314 . S
C1713 H1754 0.930 . S
C1714 C1712 1.358 . S
C1714 N1715 1.279 . S
C1714 H1755 0.930 . S
N1715 C1713 1.314 . S
N1715 C1714 1.279 . S
C1716 C1718 1.353 . S
C1716 N1719 1.314 . S
C1716 H1722 0.930 1_655 S
C1717 N1719 1.279 . S
C1717 C1720 1.358 . S
C1717 H1723 0.930 . S
C1718 C1716 1.353 . S
C1718 C1721 1.348 . S
C1718 H1756 0.929 1_655 S
N1719 Li1674 1.990 . S
N1719 C1716 1.314 . S
N1719 C1717 1.279 . S
C1720 C1717 1.358 . S
C1720 C1721 1.356 . S
C1720 H1757 0.930 . S
C1721 C1718 1.348 . S
C1721 C1720 1.356 . S
H1722 C1716 0.930 1_455 S
H1723 C1717 0.930 . S
C1724 N1725 1.314 . S
C1724 C1726 1.353 . S
C1724 H1730 0.930 . S
N1725 Li1675 1.990 . S
N1725 C1724 1.314 . S
N1725 C1728 1.279 . S
C1726 C1724 1.353 . S
C1726 C1729 1.348 . S
C1726 H1758 0.929 . S
C1727 C1728 1.358 . S
C1727 C1729 1.356 . S
C1727 H1759 0.930 . S
C1728 N1725 1.279 . S
C1728 C1727 1.358 . S
C1728 H1731 0.930 . S
C1729 C1726 1.348 . S
C1729 C1727 1.356 . S
H1730 C1724 0.930 . S
H1731 C1728 0.930 . S
O1732 Li1672 1.956 . S
O1732 Li1673 1.970 . S
O1732 Li1674 1.961 . S
O1732 C1676 1.325 . S
O1733 Li1672 1.970 . S
O1733 Li1673 1.956 . S
O1733 Li1675 1.961 . S
O1733 C1682 1.325 . S
O1734 Li1672 1.961 . S
O1734 Li1674 1.956 . S
O1734 Li1675 1.970 . S
O1734 C1704 1.325 . S
O1735 Li1673 1.961 . S
O1735 Li1674 1.970 . S
O1735 Li1675 1.956 . S
O1735 C1710 1.325 . S
H1736 C1678 0.929 . S
H1737 C1679 0.930 . S
H1738 C1680 0.930 . S
H1739 C1681 0.930 . S
H1740 C1683 0.930 . S
H1741 C1685 0.929 . S
H1742 C1686 0.930 . S
H1743 C1687 0.930 . S
H1744 C1690 0.930 . S
H1745 C1693 0.929 . S
H1746 C1698 0.929 . S
H1747 C1699 0.930 . S
H1748 C1706 0.929 . S
H1749 C1707 0.930 . S
H1750 C1708 0.930 . S
H1751 C1709 0.930 . S
H1752 C1711 0.949 . S
H1753 C1712 0.930 . S
H1754 C1713 0.930 . S
H1755 C1714 0.930 . S
H1756 C1718 0.929 1_455 S
H1757 C1720 0.930 . S
H1758 C1726 0.929 . S
H1759 C1727 0.930 . S
Li1760 N1777 1.990 . S
Li1760 O1820 1.956 . S
Li1760 O1821 1.970 . S
Li1760 O1822 1.961 . S
Li1761 N1785 1.990 . S
Li1761 O1820 1.970 . S
Li1761 O1821 1.956 . S
Li1761 O1823 1.961 . S
Li1762 N1807 1.990 . S
Li1762 O1820 1.961 . S
Li1762 O1822 1.956 . S
Li1762 O1823 1.970 . S
Li1763 N1813 1.990 . S
Li1763 O1821 1.961 . S
Li1763 O1822 1.970 . S
Li1763 O1823 1.956 . S
C1764 C1766 1.348 . S
C1764 C1767 1.356 . S
C1764 O1820 1.325 . S
N1765 C1768 1.314 . S
N1765 C1769 1.279 . S
C1766 C1764 1.348 . S
C1766 C1768 1.353 . S
C1766 H1824 0.929 . S
C1767 C1764 1.356 . S
C1767 C1769 1.358 . S
C1767 H1825 0.930 . S
C1768 N1765 1.314 . S
C1768 C1766 1.353 . S
C1768 H1826 0.930 . S
C1769 N1765 1.279 . S
C1769 C1767 1.358 . S
C1769 H1827 0.930 . S
C1770 C1773 1.348 . S
C1770 C1774 1.356 . S
C1770 O1821 1.325 . S
C1771 N1772 1.279 . S
C1771 C1774 1.358 . S
C1771 H1828 0.930 . S
N1772 C1771 1.279 . S
N1772 C1775 1.314 . S
C1773 C1770 1.348 . S
C1773 C1775 1.353 . S
C1773 H1829 0.929 . S
C1774 C1770 1.356 . S
C1774 C1771 1.358 . S
C1774 H1830 0.930 . S
C1775 N1772 1.314 . S
C1775 C1773 1.353 . S
C1775 H1831 0.930 . S
C1776 N1777 1.314 . S
C1776 C1781 1.353 . S
C1776 H1782 0.930 . S
N1777 Li1760 1.990 . S
N1777 C1776 1.314 . S
N1777 C1779 1.279 . S
C1778 C1779 1.358 . S
C1778 C1780 1.356 . S
C1778 H1832 0.930 . S
C1779 N1777 1.279 . S
C1779 C1778 1.358 . S
C1779 H1783 0.930 . S
C1780 C1778 1.356 . S
C1780 C1781 1.348 . S
C1781 C1776 1.353 . S
C1781 C1780 1.348 . S
C1781 H1833 0.929 . S
H1782 C1776 0.930 . S
H1783 C1779 0.930 . S
C1784 N1785 1.314 . S
C1784 C1786 1.353 . S
C1784 H1790 0.930 . S
N1785 Li1761 1.990 . S
N1785 C1784 1.314 . S
N1785 C1788 1.279 . S
C1786 C1784 1.353 . S
C1786 C1789 1.348 . S
C1786 H1834 0.929 . S
C1787 C1788 1.358 . S
C1787 C1789 1.356 . S
C1787 H1835 0.930 . S
C1788 N1785 1.279 . S
C1788 C1787 1.358 . S
C1788 H1791 0.930 . S
C1789 C1786 1.348 . S
C1789 C1787 1.356 . S
H1790 C1784 0.930 . S
H1791 C1788 0.930 . S
C1792 C1794 1.348 . S
C1792 C1795 1.356 . S
C1792 O1822 1.325 . S
N1793 C1796 1.314 . S
N1793 C1797 1.279 . S
C1794 C1792 1.348 . S
C1794 C1796 1.353 . S
C1794 H1836 0.929 . S
C1795 C1792 1.356 . S
C1795 C1797 1.358 . S
C1795 H1837 0.930 . S
C1796 N1793 1.314 . S
C1796 C1794 1.353 . S
C1796 H1838 0.930 . S
C1797 N1793 1.279 . S
C1797 C1795 1.358 . S
C1797 H1839 0.930 . S
C1798 C1799 1.348 . S
C1798 C1800 1.356 . S
C1798 O1823 1.325 . S
C1799 C1798 1.348 . S
C1799 C1801 1.353 . S
C1799 H1840 0.929 . S
C1800 C1798 1.356 . S
C1800 C1802 1.358 . S
C1800 H1841 0.930 . S
C1801 C1799 1.353 . S
C1801 N1803 1.314 . S
C1801 H1842 0.930 . S
C1802 C1800 1.358 . S
C1802 N1803 1.279 . S
C1802 H1843 0.930 . S
N1803 C1801 1.314 . S
N1803 C1802 1.279 . S
C1804 C1806 1.353 . S
C1804 N1807 1.314 . S
C1804 H1810 0.930 . S
C1805 N1807 1.279 . S
C1805 C1808 1.358 . S
C1805 H1811 0.930 . S
C1806 C1804 1.353 . S
C1806 C1809 1.348 . S
C1806 H1844 0.929 . S
N1807 Li1762 1.990 . S
N1807 C1804 1.314 . S
N1807 C1805 1.279 . S
C1808 C1805 1.358 . S
C1808 C1809 1.356 . S
C1808 H1845 0.930 . S
C1809 C1806 1.348 . S
C1809 C1808 1.356 . S
H1810 C1804 0.930 . S
H1811 C1805 0.930 . S
C1812 N1813 1.314 . S
C1812 C1814 1.353 . S
C1812 H1818 0.930 . S
N1813 Li1763 1.990 . S
N1813 C1812 1.314 . S
N1813 C1816 1.279 . S
C1814 C1812 1.353 . S
C1814 C1817 1.348 . S
C1814 H1846 0.929 . S
C1815 C1816 1.358 . S
C1815 C1817 1.356 . S
C1815 H1847 0.930 . S
C1816 N1813 1.279 . S
C1816 C1815 1.358 . S
C1816 H1819 0.930 . S
C1817 C1814 1.348 . S
C1817 C1815 1.356 . S
H1818 C1812 0.930 . S
H1819 C1816 0.930 . S
O1820 Li1760 1.956 . S
O1820 Li1761 1.970 . S
O1820 Li1762 1.961 . S
O1820 C1764 1.325 . S
O1821 Li1760 1.970 . S
O1821 Li1761 1.956 . S
O1821 Li1763 1.961 . S
O1821 C1770 1.325 . S
O1822 Li1760 1.961 . S
O1822 Li1762 1.956 . S
O1822 Li1763 1.970 . S
O1822 C1792 1.325 . S
O1823 Li1761 1.961 . S
O1823 Li1762 1.970 . S
O1823 Li1763 1.956 . S
O1823 C1798 1.325 . S
H1824 C1766 0.929 . S
H1825 C1767 0.930 . S
H1826 C1768 0.930 . S
H1827 C1769 0.930 . S
H1828 C1771 0.930 . S
H1829 C1773 0.929 . S
H1830 C1774 0.930 . S
H1831 C1775 0.930 . S
H1832 C1778 0.930 . S
H1833 C1781 0.929 . S
H1834 C1786 0.929 . S
H1835 C1787 0.930 . S
H1836 C1794 0.929 . S
H1837 C1795 0.930 . S
H1838 C1796 0.930 . S
H1839 C1797 0.930 . S
H1840 C1799 0.929 . S
H1841 C1800 0.930 . S
H1842 C1801 0.930 . S
H1843 C1802 0.930 . S
H1844 C1806 0.929 . S
H1845 C1808 0.930 . S
H1846 C1814 0.929 . S
H1847 C1815 0.930 . S
Li1848 N1865 1.990 . S
Li1848 O1908 1.956 . S
Li1848 O1909 1.970 . S
Li1848 O1910 1.961 . S
Li1849 N1873 1.990 . S
Li1849 O1908 1.970 . S
Li1849 O1909 1.956 . S
Li1849 O1911 1.961 . S
Li1850 N1895 1.990 . S
Li1850 O1908 1.961 . S
Li1850 O1910 1.956 . S
Li1850 O1911 1.970 . S
Li1851 N1901 1.990 1_655 S
Li1851 O1909 1.961 . S
Li1851 O1910 1.970 . S
Li1851 O1911 1.956 . S
C1852 C1854 1.348 . S
C1852 C1855 1.356 . S
C1852 O1908 1.325 . S
N1853 C1856 1.314 . S
N1853 C1857 1.279 . S
C1854 C1852 1.348 . S
C1854 C1856 1.353 . S
C1854 H1912 0.929 . S
C1855 C1852 1.356 . S
C1855 C1857 1.358 . S
C1855 H1913 0.930 . S
C1856 N1853 1.314 . S
C1856 C1854 1.353 . S
C1856 H1914 0.930 . S
C1857 N1853 1.279 . S
C1857 C1855 1.358 . S
C1857 H1915 0.930 . S
C1858 C1861 1.350 . S
C1858 C1862 1.356 1_655 S
C1858 O1909 1.325 . S
C1859 N1860 1.279 . S
C1859 C1862 1.358 . S
C1859 H1916 0.930 . S
N1860 C1859 1.279 . S
N1860 C1863 1.314 . S
C1861 C1858 1.350 . S
C1861 C1863 1.332 1_655 S
C1861 H1917 0.949 . S
C1862 C1858 1.356 1_455 S
C1862 C1859 1.358 . S
C1862 H1918 0.930 . S
C1863 N1860 1.314 . S
C1863 C1861 1.332 1_455 S
C1863 H1919 0.930 . S
C1864 N1865 1.314 . S
C1864 C1869 1.353 . S
C1864 H1870 0.930 1_655 S
N1865 Li1848 1.990 . S
N1865 C1864 1.314 . S
N1865 C1867 1.279 . S
C1866 C1867 1.358 . S
C1866 C1868 1.356 . S
C1866 H1920 0.930 . S
C1867 N1865 1.279 . S
C1867 C1866 1.358 . S
C1867 H1871 0.930 . S
C1868 C1866 1.356 . S
C1868 C1869 1.348 . S
C1869 C1864 1.353 . S
C1869 C1868 1.348 . S
C1869 H1921 0.929 1_655 S
H1870 C1864 0.930 1_455 S
H1871 C1867 0.930 . S
C1872 N1873 1.314 . S
C1872 C1874 1.353 . S
C1872 H1878 0.930 . S
N1873 Li1849 1.990 . S
N1873 C1872 1.314 . S
N1873 C1876 1.279 . S
C1874 C1872 1.353 . S
C1874 C1877 1.348 . S
C1874 H1922 0.929 . S
C1875 C1876 1.358 . S
C1875 C1877 1.356 . S
C1875 H1923 0.930 . S
C1876 N1873 1.279 . S
C1876 C1875 1.358 . S
C1876 H1879 0.930 . S
C1877 C1874 1.348 . S
C1877 C1875 1.356 . S
H1878 C1872 0.930 . S
H1879 C1876 0.930 . S
C1880 C1882 1.348 1_655 S
C1880 C1883 1.356 . S
C1880 O1910 1.325 . S
N1881 C1884 1.314 . S
N1881 C1885 1.279 1_455 S
C1882 C1880 1.348 1_455 S
C1882 C1884 1.353 . S
C1882 H1924 0.929 . S
C1883 C1880 1.356 . S
C1883 C1885 1.358 . S
C1883 H1925 0.930 . S
C1884 N1881 1.314 . S
C1884 C1882 1.353 . S
C1884 H1926 0.930 . S
C1885 N1881 1.279 1_655 S
C1885 C1883 1.358 . S
C1885 H1927 0.930 . S
C1886 C1887 1.348 . S
C1886 C1888 1.356 . S
C1886 O1911 1.325 . S
C1887 C1886 1.348 . S
C1887 C1889 1.353 . S
C1887 H1928 0.929 . S
C1888 C1886 1.356 . S
C1888 C1890 1.358 . S
C1888 H1929 0.930 . S
C1889 C1887 1.353 . S
C1889 N1891 1.314 . S
C1889 H1930 0.930 . S
C1890 C1888 1.358 . S
C1890 N1891 1.279 . S
C1890 H1931 0.930 . S
N1891 C1889 1.314 . S
N1891 C1890 1.279 . S
C1892 C1894 1.353 . S
C1892 N1895 1.314 . S
C1892 H1898 0.930 . S
C1893 N1895 1.279 . S
C1893 C1896 1.358 . S
C1893 H1899 0.930 . S
C1894 C1892 1.353 . S
C1894 C1897 1.348 . S
C1894 H1932 0.929 . S
N1895 Li1850 1.990 . S
N1895 C1892 1.314 . S
N1895 C1893 1.279 . S
C1896 C1893 1.358 . S
C1896 C1897 1.356 . S
C1896 H1933 0.930 . S
C1897 C1894 1.348 . S
C1897 C1896 1.356 . S
H1898 C1892 0.930 . S
H1899 C1893 0.930 . S
C1900 N1901 1.314 . S
C1900 C1902 1.353 . S
C1900 H1906 0.930 . S
N1901 Li1851 1.990 1_455 S
N1901 C1900 1.314 . S
N1901 C1904 1.279 . S
C1902 C1900 1.353 . S
C1902 C1905 1.348 . S
C1902 H1934 0.929 . S
C1903 C1904 1.358 . S
C1903 C1905 1.356 . S
C1903 H1935 0.930 . S
C1904 N1901 1.279 . S
C1904 C1903 1.358 . S
C1904 H1907 0.930 . S
C1905 C1902 1.348 . S
C1905 C1903 1.356 . S
H1906 C1900 0.930 . S
H1907 C1904 0.930 . S
O1908 Li1848 1.956 . S
O1908 Li1849 1.970 . S
O1908 Li1850 1.961 . S
O1908 C1852 1.325 . S
O1909 Li1848 1.970 . S
O1909 Li1849 1.956 . S
O1909 Li1851 1.961 . S
O1909 C1858 1.325 . S
O1910 Li1848 1.961 . S
O1910 Li1850 1.956 . S
O1910 Li1851 1.970 . S
O1910 C1880 1.325 . S
O1911 Li1849 1.961 . S
O1911 Li1850 1.970 . S
O1911 Li1851 1.956 . S
O1911 C1886 1.325 . S
H1912 C1854 0.929 . S
H1913 C1855 0.930 . S
H1914 C1856 0.930 . S
H1915 C1857 0.930 . S
H1916 C1859 0.930 . S
H1917 C1861 0.949 . S
H1918 C1862 0.930 . S
H1919 C1863 0.930 . S
H1920 C1866 0.930 . S
H1921 C1869 0.929 1_455 S
H1922 C1874 0.929 . S
H1923 C1875 0.930 . S
H1924 C1882 0.929 . S
H1925 C1883 0.930 . S
H1926 C1884 0.930 . S
H1927 C1885 0.930 . S
H1928 C1887 0.929 . S
H1929 C1888 0.930 . S
H1930 C1889 0.930 . S
H1931 C1890 0.930 . S
H1932 C1894 0.929 . S
H1933 C1896 0.930 . S
H1934 C1902 0.929 . S
H1935 C1903 0.930 . S
Li1936 N1953 1.990 . S
Li1936 O1996 1.956 . S
Li1936 O1997 1.970 . S
Li1936 O1998 1.961 . S
Li1937 N1961 1.990 . S
Li1937 O1996 1.970 . S
Li1937 O1997 1.956 . S
Li1937 O1999 1.961 . S
Li1938 N1983 1.990 . S
Li1938 O1996 1.961 . S
Li1938 O1998 1.956 . S
Li1938 O1999 1.970 . S
Li1939 N1989 1.990 . S
Li1939 O1997 1.961 . S
Li1939 O1998 1.970 . S
Li1939 O1999 1.956 . S
C1940 C1942 1.348 . S
C1940 C1943 1.356 . S
C1940 O1996 1.325 . S
N1941 C1944 1.314 . S
N1941 C1945 1.279 . S
C1942 C1940 1.348 . S
C1942 C1944 1.353 . S
C1942 H2000 0.929 . S
C1943 C1940 1.356 . S
C1943 C1945 1.358 . S
C1943 H2001 0.930 . S
C1944 N1941 1.314 . S
C1944 C1942 1.353 . S
C1944 H2002 0.930 . S
C1945 N1941 1.279 . S
C1945 C1943 1.358 . S
C1945 H2003 0.930 . S
C1946 C1949 1.348 . S
C1946 C1950 1.356 . S
C1946 O1997 1.325 . S
C1947 N1948 1.279 . S
C1947 C1950 1.358 . S
C1947 H2004 0.930 . S
N1948 C1947 1.279 . S
N1948 C1951 1.314 . S
C1949 C1946 1.348 . S
C1949 C1951 1.353 . S
C1949 H2005 0.929 . S
C1950 C1946 1.356 . S
C1950 C1947 1.358 . S
C1950 H2006 0.930 . S
C1951 N1948 1.314 . S
C1951 C1949 1.353 . S
C1951 H2007 0.930 . S
C1952 N1953 1.314 . S
C1952 C1957 1.353 . S
C1952 H1958 0.930 . S
N1953 Li1936 1.990 . S
N1953 C1952 1.314 . S
N1953 C1955 1.279 . S
C1954 C1955 1.358 . S
C1954 C1956 1.356 . S
C1954 H2008 0.930 . S
C1955 N1953 1.279 . S
C1955 C1954 1.358 . S
C1955 H1959 0.930 . S
C1956 C1954 1.356 . S
C1956 C1957 1.348 . S
C1957 C1952 1.353 . S
C1957 C1956 1.348 . S
C1957 H2009 0.929 . S
H1958 C1952 0.930 . S
H1959 C1955 0.930 . S
C1960 N1961 1.314 . S
C1960 C1962 1.353 . S
C1960 H1966 0.930 . S
N1961 Li1937 1.990 . S
N1961 C1960 1.314 . S
N1961 C1964 1.279 . S
C1962 C1960 1.353 . S
C1962 C1965 1.348 . S
C1962 H2010 0.929 . S
C1963 C1964 1.358 . S
C1963 C1965 1.356 . S
C1963 H2011 0.930 . S
C1964 N1961 1.279 . S
C1964 C1963 1.358 . S
C1964 H1967 0.930 . S
C1965 C1962 1.348 . S
C1965 C1963 1.356 . S
H1966 C1960 0.930 . S
H1967 C1964 0.930 . S
C1968 C1970 1.348 . S
C1968 C1971 1.356 . S
C1968 O1998 1.325 . S
N1969 C1972 1.314 . S
N1969 C1973 1.279 . S
C1970 C1968 1.348 . S
C1970 C1972 1.353 . S
C1970 H2012 0.929 . S
C1971 C1968 1.356 . S
C1971 C1973 1.358 . S
C1971 H2013 0.930 . S
C1972 N1969 1.314 . S
C1972 C1970 1.353 . S
C1972 H2014 0.930 . S
C1973 N1969 1.279 . S
C1973 C1971 1.358 . S
C1973 H2015 0.930 . S
C1974 C1975 1.348 . S
C1974 C1976 1.356 . S
C1974 O1999 1.325 . S
C1975 C1974 1.348 . S
C1975 C1977 1.353 . S
C1975 H2016 0.929 . S
C1976 C1974 1.356 . S
C1976 C1978 1.358 . S
C1976 H2017 0.930 . S
C1977 C1975 1.353 . S
C1977 N1979 1.314 . S
C1977 H2018 0.930 . S
C1978 C1976 1.358 . S
C1978 N1979 1.279 . S
C1978 H2019 0.930 . S
N1979 C1977 1.314 . S
N1979 C1978 1.279 . S
C1980 C1982 1.353 . S
C1980 N1983 1.314 . S
C1980 H1986 0.930 . S
C1981 N1983 1.279 . S
C1981 C1984 1.358 . S
C1981 H1987 0.930 . S
C1982 C1980 1.353 . S
C1982 C1985 1.348 . S
C1982 H2020 0.929 . S
N1983 Li1938 1.990 . S
N1983 C1980 1.314 . S
N1983 C1981 1.279 . S
C1984 C1981 1.358 . S
C1984 C1985 1.356 . S
C1984 H2021 0.930 . S
C1985 C1982 1.348 . S
C1985 C1984 1.356 . S
H1986 C1980 0.930 . S
H1987 C1981 0.930 . S
C1988 N1989 1.314 . S
C1988 C1990 1.353 . S
C1988 H1994 0.930 . S
N1989 Li1939 1.990 . S
N1989 C1988 1.314 . S
N1989 C1992 1.279 . S
C1990 C1988 1.353 . S
C1990 C1993 1.348 . S
C1990 H2022 0.929 . S
C1991 C1992 1.358 . S
C1991 C1993 1.356 . S
C1991 H2023 0.930 . S
C1992 N1989 1.279 . S
C1992 C1991 1.358 . S
C1992 H1995 0.930 . S
C1993 C1990 1.348 . S
C1993 C1991 1.356 . S
H1994 C1988 0.930 . S
H1995 C1992 0.930 . S
O1996 Li1936 1.956 . S
O1996 Li1937 1.970 . S
O1996 Li1938 1.961 . S
O1996 C1940 1.325 . S
O1997 Li1936 1.970 . S
O1997 Li1937 1.956 . S
O1997 Li1939 1.961 . S
O1997 C1946 1.325 . S
O1998 Li1936 1.961 . S
O1998 Li1938 1.956 . S
O1998 Li1939 1.970 . S
O1998 C1968 1.325 . S
O1999 Li1937 1.961 . S
O1999 Li1938 1.970 . S
O1999 Li1939 1.956 . S
O1999 C1974 1.325 . S
H2000 C1942 0.929 . S
H2001 C1943 0.930 . S
H2002 C1944 0.930 . S
H2003 C1945 0.930 . S
H2004 C1947 0.930 . S
H2005 C1949 0.929 . S
H2006 C1950 0.930 . S
H2007 C1951 0.930 . S
H2008 C1954 0.930 . S
H2009 C1957 0.929 . S
H2010 C1962 0.929 . S
H2011 C1963 0.930 . S
H2012 C1970 0.929 . S
H2013 C1971 0.930 . S
H2014 C1972 0.930 . S
H2015 C1973 0.930 . S
H2016 C1975 0.929 . S
H2017 C1976 0.930 . S
H2018 C1977 0.930 . S
H2019 C1978 0.930 . S
H2020 C1982 0.929 . S
H2021 C1984 0.930 . S
H2022 C1990 0.929 . S
H2023 C1991 0.930 . S
Li2024 N2041 1.990 . S
Li2024 O2084 1.956 . S
Li2024 O2085 1.970 . S
Li2024 O2086 1.961 . S
Li2025 N2049 1.990 . S
Li2025 O2084 1.970 . S
Li2025 O2085 1.956 . S
Li2025 O2087 1.961 . S
Li2026 N2071 1.990 . S
Li2026 O2084 1.961 . S
Li2026 O2086 1.956 . S
Li2026 O2087 1.970 . S
Li2027 N2077 1.990 . S
Li2027 O2085 1.961 . S
Li2027 O2086 1.970 . S
Li2027 O2087 1.956 . S
C2028 C2030 1.348 . S
C2028 C2031 1.356 . S
C2028 O2084 1.325 . S
N2029 C2032 1.314 . S
N2029 C2033 1.279 . S
C2030 C2028 1.348 . S
C2030 C2032 1.353 . S
C2030 H2088 0.929 . S
C2031 C2028 1.356 . S
C2031 C2033 1.358 . S
C2031 H2089 0.930 . S
C2032 N2029 1.314 . S
C2032 C2030 1.353 . S
C2032 H2090 0.930 . S
C2033 N2029 1.279 . S
C2033 C2031 1.358 . S
C2033 H2091 0.930 . S
C2034 C2037 1.348 . S
C2034 C2038 1.356 . S
C2034 O2085 1.325 . S
C2035 N2036 1.279 . S
C2035 C2038 1.358 . S
C2035 H2092 0.930 . S
N2036 C2035 1.279 . S
N2036 C2039 1.314 . S
C2037 C2034 1.348 . S
C2037 C2039 1.353 . S
C2037 H2093 0.929 . S
C2038 C2034 1.356 . S
C2038 C2035 1.358 . S
C2038 H2094 0.930 . S
C2039 N2036 1.314 . S
C2039 C2037 1.353 . S
C2039 H2095 0.930 . S
C2040 N2041 1.314 . S
C2040 C2045 1.353 . S
C2040 H2046 0.930 . S
N2041 Li2024 1.990 . S
N2041 C2040 1.314 . S
N2041 C2043 1.279 . S
C2042 C2043 1.358 . S
C2042 C2044 1.356 . S
C2042 H2096 0.930 . S
C2043 N2041 1.279 . S
C2043 C2042 1.358 . S
C2043 H2047 0.930 . S
C2044 C2042 1.356 . S
C2044 C2045 1.348 . S
C2045 C2040 1.353 . S
C2045 C2044 1.348 . S
C2045 H2097 0.929 . S
H2046 C2040 0.930 . S
H2047 C2043 0.930 . S
C2048 N2049 1.314 . S
C2048 C2050 1.353 . S
C2048 H2054 0.930 . S
N2049 Li2025 1.990 . S
N2049 C2048 1.314 . S
N2049 C2052 1.279 . S
C2050 C2048 1.353 . S
C2050 C2053 1.348 . S
C2050 H2098 0.929 . S
C2051 C2052 1.358 . S
C2051 C2053 1.356 . S
C2051 H2099 0.930 . S
C2052 N2049 1.279 . S
C2052 C2051 1.358 . S
C2052 H2055 0.930 . S
C2053 C2050 1.348 . S
C2053 C2051 1.356 . S
H2054 C2048 0.930 . S
H2055 C2052 0.930 . S
C2056 C2058 1.348 . S
C2056 C2059 1.356 . S
C2056 O2086 1.325 . S
N2057 C2060 1.314 . S
N2057 C2061 1.279 . S
C2058 C2056 1.348 . S
C2058 C2060 1.353 . S
C2058 H2100 0.929 . S
C2059 C2056 1.356 . S
C2059 C2061 1.358 . S
C2059 H2101 0.930 . S
C2060 N2057 1.314 . S
C2060 C2058 1.353 . S
C2060 H2102 0.930 . S
C2061 N2057 1.279 . S
C2061 C2059 1.358 . S
C2061 H2103 0.930 . S
C2062 C2063 1.348 . S
C2062 C2064 1.356 . S
C2062 O2087 1.325 . S
C2063 C2062 1.348 . S
C2063 C2065 1.353 . S
C2063 H2104 0.929 . S
C2064 C2062 1.356 . S
C2064 C2066 1.358 . S
C2064 H2105 0.930 . S
C2065 C2063 1.353 . S
C2065 N2067 1.314 . S
C2065 H2106 0.930 . S
C2066 C2064 1.358 . S
C2066 N2067 1.279 . S
C2066 H2107 0.930 . S
N2067 C2065 1.314 . S
N2067 C2066 1.279 . S
C2068 C2070 1.353 . S
C2068 N2071 1.314 . S
C2068 H2074 0.930 . S
C2069 N2071 1.279 . S
C2069 C2072 1.358 . S
C2069 H2075 0.930 . S
C2070 C2068 1.353 . S
C2070 C2073 1.348 . S
C2070 H2108 0.929 . S
N2071 Li2026 1.990 . S
N2071 C2068 1.314 . S
N2071 C2069 1.279 . S
C2072 C2069 1.358 . S
C2072 C2073 1.356 . S
C2072 H2109 0.930 . S
C2073 C2070 1.348 . S
C2073 C2072 1.356 . S
H2074 C2068 0.930 . S
H2075 C2069 0.930 . S
C2076 N2077 1.314 . S
C2076 C2078 1.353 . S
C2076 H2082 0.930 . S
N2077 Li2027 1.990 . S
N2077 C2076 1.314 . S
N2077 C2080 1.279 . S
C2078 C2076 1.353 . S
C2078 C2081 1.348 . S
C2078 H2110 0.929 . S
C2079 C2080 1.358 . S
C2079 C2081 1.356 . S
C2079 H2111 0.930 . S
C2080 N2077 1.279 . S
C2080 C2079 1.358 . S
C2080 H2083 0.930 . S
C2081 C2078 1.348 . S
C2081 C2079 1.356 . S
H2082 C2076 0.930 . S
H2083 C2080 0.930 . S
O2084 Li2024 1.956 . S
O2084 Li2025 1.970 . S
O2084 Li2026 1.961 . S
O2084 C2028 1.325 . S
O2085 Li2024 1.970 . S
O2085 Li2025 1.956 . S
O2085 Li2027 1.961 . S
O2085 C2034 1.325 . S
O2086 Li2024 1.961 . S
O2086 Li2026 1.956 . S
O2086 Li2027 1.970 . S
O2086 C2056 1.325 . S
O2087 Li2025 1.961 . S
O2087 Li2026 1.970 . S
O2087 Li2027 1.956 . S
O2087 C2062 1.325 . S
H2088 C2030 0.929 . S
H2089 C2031 0.930 . S
H2090 C2032 0.930 . S
H2091 C2033 0.930 . S
H2092 C2035 0.930 . S
H2093 C2037 0.929 . S
H2094 C2038 0.930 . S
H2095 C2039 0.930 . S
H2096 C2042 0.930 . S
H2097 C2045 0.929 . S
H2098 C2050 0.929 . S
H2099 C2051 0.930 . S
H2100 C2058 0.929 . S
H2101 C2059 0.930 . S
H2102 C2060 0.930 . S
H2103 C2061 0.930 . S
H2104 C2063 0.929 . S
H2105 C2064 0.930 . S
H2106 C2065 0.930 . S
H2107 C2066 0.930 . S
H2108 C2070 0.929 . S
H2109 C2072 0.930 . S
H2110 C2078 0.929 . S
H2111 C2079 0.930 . S
Li2112 N2129 1.990 . S
Li2112 O2172 1.956 . S
Li2112 O2173 1.970 . S
Li2112 O2174 1.961 . S
Li2113 N2137 1.990 . S
Li2113 O2172 1.970 . S
Li2113 O2173 1.956 . S
Li2113 O2175 1.961 . S
Li2114 N2159 1.990 . S
Li2114 O2172 1.961 . S
Li2114 O2174 1.956 . S
Li2114 O2175 1.970 . S
Li2115 N2165 1.990 . S
Li2115 O2173 1.961 . S
Li2115 O2174 1.970 . S
Li2115 O2175 1.956 . S
C2116 C2118 1.348 . S
C2116 C2119 1.356 . S
C2116 O2172 1.325 . S
N2117 C2120 1.314 . S
N2117 C2121 1.279 . S
C2118 C2116 1.348 . S
C2118 C2120 1.353 . S
C2118 H2176 0.929 . S
C2119 C2116 1.356 . S
C2119 C2121 1.358 . S
C2119 H2177 0.930 . S
C2120 N2117 1.314 . S
C2120 C2118 1.353 . S
C2120 H2178 0.930 . S
C2121 N2117 1.279 . S
C2121 C2119 1.358 . S
C2121 H2179 0.930 . S
C2122 C2125 1.348 . S
C2122 C2126 1.356 . S
C2122 O2173 1.325 . S
C2123 N2124 1.279 . S
C2123 C2126 1.358 . S
C2123 H2180 0.930 . S
N2124 C2123 1.279 . S
N2124 C2127 1.314 . S
C2125 C2122 1.348 . S
C2125 C2127 1.353 . S
C2125 H2181 0.929 . S
C2126 C2122 1.356 . S
C2126 C2123 1.358 . S
C2126 H2182 0.930 . S
C2127 N2124 1.314 . S
C2127 C2125 1.353 . S
C2127 H2183 0.930 . S
C2128 N2129 1.314 . S
C2128 C2133 1.353 . S
C2128 H2134 0.930 . S
N2129 Li2112 1.990 . S
N2129 C2128 1.314 . S
N2129 C2131 1.279 . S
C2130 C2131 1.358 . S
C2130 C2132 1.356 . S
C2130 H2184 0.930 . S
C2131 N2129 1.279 . S
C2131 C2130 1.358 . S
C2131 H2135 0.930 . S
C2132 C2130 1.356 . S
C2132 C2133 1.348 . S
C2133 C2128 1.353 . S
C2133 C2132 1.348 . S
C2133 H2185 0.929 . S
H2134 C2128 0.930 . S
H2135 C2131 0.930 . S
C2136 N2137 1.314 . S
C2136 C2138 1.353 . S
C2136 H2142 0.930 . S
N2137 Li2113 1.990 . S
N2137 C2136 1.314 . S
N2137 C2140 1.279 . S
C2138 C2136 1.353 . S
C2138 C2141 1.348 . S
C2138 H2186 0.929 . S
C2139 C2140 1.358 . S
C2139 C2141 1.356 . S
C2139 H2187 0.930 . S
C2140 N2137 1.279 . S
C2140 C2139 1.358 . S
C2140 H2143 0.930 . S
C2141 C2138 1.348 . S
C2141 C2139 1.356 . S
H2142 C2136 0.930 . S
H2143 C2140 0.930 . S
C2144 C2146 1.348 . S
C2144 C2147 1.356 . S
C2144 O2174 1.325 . S
N2145 C2148 1.314 . S
N2145 C2149 1.279 . S
C2146 C2144 1.348 . S
C2146 C2148 1.353 . S
C2146 H2188 0.929 . S
C2147 C2144 1.356 . S
C2147 C2149 1.358 . S
C2147 H2189 0.930 . S
C2148 N2145 1.314 . S
C2148 C2146 1.353 . S
C2148 H2190 0.930 . S
C2149 N2145 1.279 . S
C2149 C2147 1.358 . S
C2149 H2191 0.930 . S
C2150 C2151 1.348 . S
C2150 C2152 1.356 . S
C2150 O2175 1.325 . S
C2151 C2150 1.348 . S
C2151 C2153 1.353 . S
C2151 H2192 0.929 . S
C2152 C2150 1.356 . S
C2152 C2154 1.358 . S
C2152 H2193 0.930 . S
C2153 C2151 1.353 . S
C2153 N2155 1.314 . S
C2153 H2194 0.930 . S
C2154 C2152 1.358 . S
C2154 N2155 1.279 . S
C2154 H2195 0.930 . S
N2155 C2153 1.314 . S
N2155 C2154 1.279 . S
C2156 C2158 1.353 . S
C2156 N2159 1.314 . S
C2156 H2162 0.930 . S
C2157 N2159 1.279 . S
C2157 C2160 1.358 . S
C2157 H2163 0.930 . S
C2158 C2156 1.353 . S
C2158 C2161 1.348 . S
C2158 H2196 0.929 . S
N2159 Li2114 1.990 . S
N2159 C2156 1.314 . S
N2159 C2157 1.279 . S
C2160 C2157 1.358 . S
C2160 C2161 1.356 . S
C2160 H2197 0.930 . S
C2161 C2158 1.348 . S
C2161 C2160 1.356 . S
H2162 C2156 0.930 . S
H2163 C2157 0.930 . S
C2164 N2165 1.314 . S
C2164 C2166 1.353 . S
C2164 H2170 0.930 . S
N2165 Li2115 1.990 . S
N2165 C2164 1.314 . S
N2165 C2168 1.279 . S
C2166 C2164 1.353 . S
C2166 C2169 1.348 . S
C2166 H2198 0.929 . S
C2167 C2168 1.358 . S
C2167 C2169 1.356 . S
C2167 H2199 0.930 . S
C2168 N2165 1.279 . S
C2168 C2167 1.358 . S
C2168 H2171 0.930 . S
C2169 C2166 1.348 . S
C2169 C2167 1.356 . S
H2170 C2164 0.930 . S
H2171 C2168 0.930 . S
O2172 Li2112 1.956 . S
O2172 Li2113 1.970 . S
O2172 Li2114 1.961 . S
O2172 C2116 1.325 . S
O2173 Li2112 1.970 . S
O2173 Li2113 1.956 . S
O2173 Li2115 1.961 . S
O2173 C2122 1.325 . S
O2174 Li2112 1.961 . S
O2174 Li2114 1.956 . S
O2174 Li2115 1.970 . S
O2174 C2144 1.325 . S
O2175 Li2113 1.961 . S
O2175 Li2114 1.970 . S
O2175 Li2115 1.956 . S
O2175 C2150 1.325 . S
H2176 C2118 0.929 . S
H2177 C2119 0.930 . S
H2178 C2120 0.930 . S
H2179 C2121 0.930 . S
H2180 C2123 0.930 . S
H2181 C2125 0.929 . S
H2182 C2126 0.930 . S
H2183 C2127 0.930 . S
H2184 C2130 0.930 . S
H2185 C2133 0.929 . S
H2186 C2138 0.929 . S
H2187 C2139 0.930 . S
H2188 C2146 0.929 . S
H2189 C2147 0.930 . S
H2190 C2148 0.930 . S
H2191 C2149 0.930 . S
H2192 C2151 0.929 . S
H2193 C2152 0.930 . S
H2194 C2153 0.930 . S
H2195 C2154 0.930 . S
H2196 C2158 0.929 . S
H2197 C2160 0.930 . S
H2198 C2166 0.929 . S
H2199 C2167 0.930 . S
Li2200 N2217 1.990 . S
Li2200 O2260 1.956 . S
Li2200 O2261 1.970 . S
Li2200 O2262 1.961 . S
Li2201 N2225 1.990 . S
Li2201 O2260 1.970 . S
Li2201 O2261 1.956 . S
Li2201 O2263 1.961 . S
Li2202 N2247 1.990 . S
Li2202 O2260 1.961 . S
Li2202 O2262 1.956 . S
Li2202 O2263 1.970 . S
Li2203 N2253 1.990 . S
Li2203 O2261 1.961 . S
Li2203 O2262 1.970 . S
Li2203 O2263 1.956 . S
C2204 C2206 1.348 . S
C2204 C2207 1.356 . S
C2204 O2260 1.325 . S
N2205 C2208 1.314 . S
N2205 C2209 1.279 . S
C2206 C2204 1.348 . S
C2206 C2208 1.353 . S
C2206 H2264 0.929 . S
C2207 C2204 1.356 . S
C2207 C2209 1.358 . S
C2207 H2265 0.930 . S
C2208 N2205 1.314 . S
C2208 C2206 1.353 . S
C2208 H2266 0.930 . S
C2209 N2205 1.279 . S
C2209 C2207 1.358 . S
C2209 H2267 0.930 . S
C2210 C2213 1.348 . S
C2210 C2214 1.356 . S
C2210 O2261 1.325 . S
C2211 N2212 1.279 . S
C2211 C2214 1.358 . S
C2211 H2268 0.930 . S
N2212 C2211 1.279 . S
N2212 C2215 1.314 . S
C2213 C2210 1.348 . S
C2213 C2215 1.353 . S
C2213 H2269 0.929 . S
C2214 C2210 1.356 . S
C2214 C2211 1.358 . S
C2214 H2270 0.930 . S
C2215 N2212 1.314 . S
C2215 C2213 1.353 . S
C2215 H2271 0.930 . S
C2216 N2217 1.314 . S
C2216 C2221 1.353 . S
C2216 H2222 0.930 . S
N2217 Li2200 1.990 . S
N2217 C2216 1.314 . S
N2217 C2219 1.279 . S
C2218 C2219 1.358 . S
C2218 C2220 1.356 . S
C2218 H2272 0.930 . S
C2219 N2217 1.279 . S
C2219 C2218 1.358 . S
C2219 H2223 0.930 . S
C2220 C2218 1.356 . S
C2220 C2221 1.348 . S
C2221 C2216 1.353 . S
C2221 C2220 1.348 . S
C2221 H2273 0.929 . S
H2222 C2216 0.930 . S
H2223 C2219 0.930 . S
C2224 N2225 1.314 . S
C2224 C2226 1.353 . S
C2224 H2230 0.930 . S
N2225 Li2201 1.990 . S
N2225 C2224 1.314 . S
N2225 C2228 1.279 . S
C2226 C2224 1.353 . S
C2226 C2229 1.348 . S
C2226 H2274 0.929 . S
C2227 C2228 1.358 . S
C2227 C2229 1.356 . S
C2227 H2275 0.930 . S
C2228 N2225 1.279 . S
C2228 C2227 1.358 . S
C2228 H2231 0.930 . S
C2229 C2226 1.348 . S
C2229 C2227 1.356 . S
H2230 C2224 0.930 . S
H2231 C2228 0.930 . S
C2232 C2234 1.348 . S
C2232 C2235 1.356 . S
C2232 O2262 1.325 . S
N2233 C2236 1.314 . S
N2233 C2237 1.279 . S
C2234 C2232 1.348 . S
C2234 C2236 1.353 . S
C2234 H2276 0.929 . S
C2235 C2232 1.356 . S
C2235 C2237 1.358 . S
C2235 H2277 0.930 . S
C2236 N2233 1.314 . S
C2236 C2234 1.353 . S
C2236 H2278 0.930 . S
C2237 N2233 1.279 . S
C2237 C2235 1.358 . S
C2237 H2279 0.930 . S
C2238 C2239 1.348 . S
C2238 C2240 1.356 . S
C2238 O2263 1.325 . S
C2239 C2238 1.348 . S
C2239 C2241 1.353 . S
C2239 H2280 0.929 . S
C2240 C2238 1.356 . S
C2240 C2242 1.358 . S
C2240 H2281 0.930 . S
C2241 C2239 1.353 . S
C2241 N2243 1.314 . S
C2241 H2282 0.930 . S
C2242 C2240 1.358 . S
C2242 N2243 1.279 . S
C2242 H2283 0.930 . S
N2243 C2241 1.314 . S
N2243 C2242 1.279 . S
C2244 C2246 1.353 . S
C2244 N2247 1.314 . S
C2244 H2250 0.930 . S
C2245 N2247 1.279 . S
C2245 C2248 1.358 . S
C2245 H2251 0.930 . S
C2246 C2244 1.353 . S
C2246 C2249 1.348 . S
C2246 H2284 0.929 . S
N2247 Li2202 1.990 . S
N2247 C2244 1.314 . S
N2247 C2245 1.279 . S
C2248 C2245 1.358 . S
C2248 C2249 1.356 . S
C2248 H2285 0.930 . S
C2249 C2246 1.348 . S
C2249 C2248 1.356 . S
H2250 C2244 0.930 . S
H2251 C2245 0.930 . S
C2252 N2253 1.314 . S
C2252 C2254 1.353 . S
C2252 H2258 0.930 . S
N2253 Li2203 1.990 . S
N2253 C2252 1.314 . S
N2253 C2256 1.279 . S
C2254 C2252 1.353 . S
C2254 C2257 1.348 . S
C2254 H2286 0.929 . S
C2255 C2256 1.358 . S
C2255 C2257 1.356 . S
C2255 H2287 0.930 . S
C2256 N2253 1.279 . S
C2256 C2255 1.358 . S
C2256 H2259 0.930 . S
C2257 C2254 1.348 . S
C2257 C2255 1.356 . S
H2258 C2252 0.930 . S
H2259 C2256 0.930 . S
O2260 Li2200 1.956 . S
O2260 Li2201 1.970 . S
O2260 Li2202 1.961 . S
O2260 C2204 1.325 . S
O2261 Li2200 1.970 . S
O2261 Li2201 1.956 . S
O2261 Li2203 1.961 . S
O2261 C2210 1.325 . S
O2262 Li2200 1.961 . S
O2262 Li2202 1.956 . S
O2262 Li2203 1.970 . S
O2262 C2232 1.325 . S
O2263 Li2201 1.961 . S
O2263 Li2202 1.970 . S
O2263 Li2203 1.956 . S
O2263 C2238 1.325 . S
H2264 C2206 0.929 . S
H2265 C2207 0.930 . S
H2266 C2208 0.930 . S
H2267 C2209 0.930 . S
H2268 C2211 0.930 . S
H2269 C2213 0.929 . S
H2270 C2214 0.930 . S
H2271 C2215 0.930 . S
H2272 C2218 0.930 . S
H2273 C2221 0.929 . S
H2274 C2226 0.929 . S
H2275 C2227 0.930 . S
H2276 C2234 0.929 . S
H2277 C2235 0.930 . S
H2278 C2236 0.930 . S
H2279 C2237 0.930 . S
H2280 C2239 0.929 . S
H2281 C2240 0.930 . S
H2282 C2241 0.930 . S
H2283 C2242 0.930 . S
H2284 C2246 0.929 . S
H2285 C2248 0.930 . S
H2286 C2254 0.929 . S
H2287 C2255 0.930 . S
Li2288 N2305 1.990 . S
Li2288 O2348 1.956 . S
Li2288 O2349 1.970 . S
Li2288 O2350 1.961 . S
Li2289 N2313 1.990 . S
Li2289 O2348 1.970 . S
Li2289 O2349 1.956 . S
Li2289 O2351 1.961 . S
Li2290 N2335 1.990 . S
Li2290 O2348 1.961 . S
Li2290 O2350 1.956 . S
Li2290 O2351 1.970 . S
Li2291 N2341 1.990 . S
Li2291 O2349 1.961 . S
Li2291 O2350 1.970 . S
Li2291 O2351 1.956 . S
C2292 C2294 1.348 . S
C2292 C2295 1.356 . S
C2292 O2348 1.325 . S
N2293 C2296 1.314 . S
N2293 C2297 1.279 . S
C2294 C2292 1.348 . S
C2294 C2296 1.353 . S
C2294 H2352 0.929 . S
C2295 C2292 1.356 . S
C2295 C2297 1.358 . S
C2295 H2353 0.930 . S
C2296 N2293 1.314 . S
C2296 C2294 1.353 . S
C2296 H2354 0.930 . S
C2297 N2293 1.279 . S
C2297 C2295 1.358 . S
C2297 H2355 0.930 . S
C2298 C2301 1.348 . S
C2298 C2302 1.356 . S
C2298 O2349 1.325 . S
C2299 N2300 1.279 . S
C2299 C2302 1.358 . S
C2299 H2356 0.930 . S
N2300 C2299 1.279 . S
N2300 C2303 1.314 . S
C2301 C2298 1.348 . S
C2301 C2303 1.353 . S
C2301 H2357 0.929 . S
C2302 C2298 1.356 . S
C2302 C2299 1.358 . S
C2302 H2358 0.930 . S
C2303 N2300 1.314 . S
C2303 C2301 1.353 . S
C2303 H2359 0.930 . S
C2304 N2305 1.314 . S
C2304 C2309 1.353 . S
C2304 H2310 0.930 . S
N2305 Li2288 1.990 . S
N2305 C2304 1.314 . S
N2305 C2307 1.279 . S
C2306 C2307 1.358 . S
C2306 C2308 1.356 . S
C2306 H2360 0.930 . S
C2307 N2305 1.279 . S
C2307 C2306 1.358 . S
C2307 H2311 0.930 . S
C2308 C2306 1.356 . S
C2308 C2309 1.348 . S
C2309 C2304 1.353 . S
C2309 C2308 1.348 . S
C2309 H2361 0.929 . S
H2310 C2304 0.930 . S
H2311 C2307 0.930 . S
C2312 N2313 1.314 . S
C2312 C2314 1.353 . S
C2312 H2318 0.930 . S
N2313 Li2289 1.990 . S
N2313 C2312 1.314 . S
N2313 C2316 1.279 . S
C2314 C2312 1.353 . S
C2314 C2317 1.348 . S
C2314 H2362 0.929 . S
C2315 C2316 1.358 . S
C2315 C2317 1.356 . S
C2315 H2363 0.930 . S
C2316 N2313 1.279 . S
C2316 C2315 1.358 . S
C2316 H2319 0.930 . S
C2317 C2314 1.348 . S
C2317 C2315 1.356 . S
H2318 C2312 0.930 . S
H2319 C2316 0.930 . S
C2320 C2322 1.348 . S
C2320 C2323 1.356 . S
C2320 O2350 1.325 . S
N2321 C2324 1.314 . S
N2321 C2325 1.279 . S
C2322 C2320 1.348 . S
C2322 C2324 1.353 . S
C2322 H2364 0.929 . S
C2323 C2320 1.356 . S
C2323 C2325 1.358 . S
C2323 H2365 0.930 . S
C2324 N2321 1.314 . S
C2324 C2322 1.353 . S
C2324 H2366 0.930 . S
C2325 N2321 1.279 . S
C2325 C2323 1.358 . S
C2325 H2367 0.930 . S
C2326 C2327 1.348 . S
C2326 C2328 1.356 . S
C2326 O2351 1.325 . S
C2327 C2326 1.348 . S
C2327 C2329 1.353 . S
C2327 H2368 0.929 . S
C2328 C2326 1.356 . S
C2328 C2330 1.358 . S
C2328 H2369 0.930 . S
C2329 C2327 1.353 . S
C2329 N2331 1.314 . S
C2329 H2370 0.930 . S
C2330 C2328 1.358 . S
C2330 N2331 1.279 . S
C2330 H2371 0.930 . S
N2331 C2329 1.314 . S
N2331 C2330 1.279 . S
C2332 C2334 1.353 . S
C2332 N2335 1.314 . S
C2332 H2338 0.930 . S
C2333 N2335 1.279 . S
C2333 C2336 1.358 . S
C2333 H2339 0.930 . S
C2334 C2332 1.353 . S
C2334 C2337 1.348 . S
C2334 H2372 0.929 . S
N2335 Li2290 1.990 . S
N2335 C2332 1.314 . S
N2335 C2333 1.279 . S
C2336 C2333 1.358 . S
C2336 C2337 1.356 . S
C2336 H2373 0.930 . S
C2337 C2334 1.348 . S
C2337 C2336 1.356 . S
H2338 C2332 0.930 . S
H2339 C2333 0.930 . S
C2340 N2341 1.314 . S
C2340 C2342 1.353 . S
C2340 H2346 0.930 . S
N2341 Li2291 1.990 . S
N2341 C2340 1.314 . S
N2341 C2344 1.279 . S
C2342 C2340 1.353 . S
C2342 C2345 1.348 . S
C2342 H2374 0.929 . S
C2343 C2344 1.358 . S
C2343 C2345 1.356 . S
C2343 H2375 0.930 . S
C2344 N2341 1.279 . S
C2344 C2343 1.358 . S
C2344 H2347 0.930 . S
C2345 C2342 1.348 . S
C2345 C2343 1.356 . S
H2346 C2340 0.930 . S
H2347 C2344 0.930 . S
O2348 Li2288 1.956 . S
O2348 Li2289 1.970 . S
O2348 Li2290 1.961 . S
O2348 C2292 1.325 . S
O2349 Li2288 1.970 . S
O2349 Li2289 1.956 . S
O2349 Li2291 1.961 . S
O2349 C2298 1.325 . S
O2350 Li2288 1.961 . S
O2350 Li2290 1.956 . S
O2350 Li2291 1.970 . S
O2350 C2320 1.325 . S
O2351 Li2289 1.961 . S
O2351 Li2290 1.970 . S
O2351 Li2291 1.956 . S
O2351 C2326 1.325 . S
H2352 C2294 0.929 . S
H2353 C2295 0.930 . S
H2354 C2296 0.930 . S
H2355 C2297 0.930 . S
H2356 C2299 0.930 . S
H2357 C2301 0.929 . S
H2358 C2302 0.930 . S
H2359 C2303 0.930 . S
H2360 C2306 0.930 . S
H2361 C2309 0.929 . S
H2362 C2314 0.929 . S
H2363 C2315 0.930 . S
H2364 C2322 0.929 . S
H2365 C2323 0.930 . S
H2366 C2324 0.930 . S
H2367 C2325 0.930 . S
H2368 C2327 0.929 . S
H2369 C2328 0.930 . S
H2370 C2329 0.930 . S
H2371 C2330 0.930 . S
H2372 C2334 0.929 . S
H2373 C2336 0.930 . S
H2374 C2342 0.929 . S
H2375 C2343 0.930 . S
Li2376 N2393 1.990 . S
Li2376 O2436 1.956 . S
Li2376 O2437 1.970 . S
Li2376 O2438 1.961 . S
Li2377 N2401 1.990 . S
Li2377 O2436 1.970 . S
Li2377 O2437 1.956 . S
Li2377 O2439 1.961 . S
Li2378 N2423 1.990 . S
Li2378 O2436 1.961 . S
Li2378 O2438 1.956 . S
Li2378 O2439 1.970 . S
Li2379 N2429 1.990 1_455 S
Li2379 O2437 1.961 . S
Li2379 O2438 1.970 . S
Li2379 O2439 1.956 . S
C2380 C2382 1.348 . S
C2380 C2383 1.356 . S
C2380 O2436 1.325 . S
N2381 C2384 1.314 . S
N2381 C2385 1.279 . S
C2382 C2380 1.348 . S
C2382 C2384 1.353 . S
C2382 H2440 0.929 . S
C2383 C2380 1.356 . S
C2383 C2385 1.358 . S
C2383 H2441 0.930 . S
C2384 N2381 1.314 . S
C2384 C2382 1.353 . S
C2384 H2442 0.930 . S
C2385 N2381 1.279 . S
C2385 C2383 1.358 . S
C2385 H2443 0.930 . S
C2386 C2389 1.348 . S
C2386 C2390 1.356 . S
C2386 O2437 1.325 . S
C2387 N2388 1.279 . S
C2387 C2390 1.358 . S
C2387 H2444 0.930 . S
N2388 C2387 1.279 . S
N2388 C2391 1.314 . S
C2389 C2386 1.348 . S
C2389 C2391 1.353 . S
C2389 H2445 0.929 . S
C2390 C2386 1.356 . S
C2390 C2387 1.358 . S
C2390 H2446 0.930 . S
C2391 N2388 1.314 . S
C2391 C2389 1.353 . S
C2391 H2447 0.930 . S
C2392 N2393 1.314 . S
C2392 C2397 1.353 . S
C2392 H2398 0.930 . S
N2393 Li2376 1.990 . S
N2393 C2392 1.314 . S
N2393 C2395 1.279 . S
C2394 C2395 1.358 . S
C2394 C2396 1.356 . S
C2394 H2448 0.930 . S
C2395 N2393 1.279 . S
C2395 C2394 1.358 . S
C2395 H2399 0.930 . S
C2396 C2394 1.356 . S
C2396 C2397 1.348 . S
C2397 C2392 1.353 . S
C2397 C2396 1.348 . S
C2397 H2449 0.929 . S
H2398 C2392 0.930 . S
H2399 C2395 0.930 . S
C2400 N2401 1.314 . S
C2400 C2402 1.353 . S
C2400 H2406 0.930 . S
N2401 Li2377 1.990 . S
N2401 C2400 1.314 . S
N2401 C2404 1.279 . S
C2402 C2400 1.353 . S
C2402 C2405 1.348 . S
C2402 H2450 0.929 . S
C2403 C2404 1.358 . S
C2403 C2405 1.356 . S
C2403 H2451 0.930 . S
C2404 N2401 1.279 . S
C2404 C2403 1.358 . S
C2404 H2407 0.930 . S
C2405 C2402 1.348 . S
C2405 C2403 1.356 . S
H2406 C2400 0.930 . S
H2407 C2404 0.930 . S
C2408 C2410 1.348 1_455 S
C2408 C2411 1.356 . S
C2408 O2438 1.325 . S
N2409 C2412 1.314 . S
N2409 C2413 1.279 1_655 S
C2410 C2408 1.348 1_655 S
C2410 C2412 1.353 . S
C2410 H2452 0.929 . S
C2411 C2408 1.356 . S
C2411 C2413 1.358 . S
C2411 H2453 0.930 . S
C2412 N2409 1.314 . S
C2412 C2410 1.353 . S
C2412 H2454 0.930 . S
C2413 N2409 1.279 1_455 S
C2413 C2411 1.358 . S
C2413 H2455 0.930 . S
C2414 C2415 1.348 1_455 S
C2414 C2416 1.356 1_455 S
C2414 O2439 1.325 . S
C2415 C2414 1.348 1_655 S
C2415 C2417 1.353 . S
C2415 H2456 0.929 . S
C2416 C2414 1.356 1_655 S
C2416 C2418 1.358 . S
C2416 H2457 0.930 1_655 S
C2417 C2415 1.353 . S
C2417 N2419 1.314 . S
C2417 H2458 0.930 . S
C2418 C2416 1.358 . S
C2418 N2419 1.279 . S
C2418 H2459 0.930 . S
N2419 C2417 1.314 . S
N2419 C2418 1.279 . S
C2420 C2422 1.353 . S
C2420 N2423 1.314 . S
C2420 H2426 0.930 . S
C2421 N2423 1.279 . S
C2421 C2424 1.358 . S
C2421 H2427 0.930 . S
C2422 C2420 1.353 . S
C2422 C2425 1.348 . S
C2422 H2460 0.929 . S
N2423 Li2378 1.990 . S
N2423 C2420 1.314 . S
N2423 C2421 1.279 . S
C2424 C2421 1.358 . S
C2424 C2425 1.356 . S
C2424 H2461 0.930 . S
C2425 C2422 1.348 . S
C2425 C2424 1.356 . S
H2426 C2420 0.930 . S
H2427 C2421 0.930 . S
C2428 N2429 1.314 . S
C2428 C2430 1.353 . S
C2428 H2434 0.930 . S
N2429 Li2379 1.990 1_655 S
N2429 C2428 1.314 . S
N2429 C2432 1.279 . S
C2430 C2428 1.353 . S
C2430 C2433 1.348 . S
C2430 H2462 0.929 . S
C2431 C2432 1.358 . S
C2431 C2433 1.356 . S
C2431 H2463 0.930 . S
C2432 N2429 1.279 . S
C2432 C2431 1.358 . S
C2432 H2435 0.930 . S
C2433 C2430 1.348 . S
C2433 C2431 1.356 . S
H2434 C2428 0.930 . S
H2435 C2432 0.930 . S
O2436 Li2376 1.956 . S
O2436 Li2377 1.970 . S
O2436 Li2378 1.961 . S
O2436 C2380 1.325 . S
O2437 Li2376 1.970 . S
O2437 Li2377 1.956 . S
O2437 Li2379 1.961 . S
O2437 C2386 1.325 . S
O2438 Li2376 1.961 . S
O2438 Li2378 1.956 . S
O2438 Li2379 1.970 . S
O2438 C2408 1.325 . S
O2439 Li2377 1.961 . S
O2439 Li2378 1.970 . S
O2439 Li2379 1.956 . S
O2439 C2414 1.325 . S
H2440 C2382 0.929 . S
H2441 C2383 0.930 . S
H2442 C2384 0.930 . S
H2443 C2385 0.930 . S
H2444 C2387 0.930 . S
H2445 C2389 0.929 . S
H2446 C2390 0.930 . S
H2447 C2391 0.930 . S
H2448 C2394 0.930 . S
H2449 C2397 0.929 . S
H2450 C2402 0.929 . S
H2451 C2403 0.930 . S
H2452 C2410 0.929 . S
H2453 C2411 0.930 . S
H2454 C2412 0.930 . S
H2455 C2413 0.930 . S
H2456 C2415 0.929 . S
H2457 C2416 0.930 1_455 S
H2458 C2417 0.930 . S
H2459 C2418 0.930 . S
H2460 C2422 0.929 . S
H2461 C2424 0.930 . S
H2462 C2430 0.929 . S
H2463 C2431 0.930 . S
Li2464 N2481 1.990 . S
Li2464 O2524 1.956 . S
Li2464 O2525 1.970 . S
Li2464 O2526 1.961 . S
Li2465 N2489 1.990 . S
Li2465 O2524 1.970 . S
Li2465 O2525 1.956 . S
Li2465 O2527 1.961 . S
Li2466 N2511 1.990 . S
Li2466 O2524 1.961 . S
Li2466 O2526 1.956 . S
Li2466 O2527 1.970 . S
Li2467 N2517 1.990 . S
Li2467 O2525 1.961 . S
Li2467 O2526 1.970 . S
Li2467 O2527 1.956 . S
C2468 C2470 1.348 . S
C2468 C2471 1.356 . S
C2468 O2524 1.325 . S
N2469 C2472 1.314 . S
N2469 C2473 1.279 . S
C2470 C2468 1.348 . S
C2470 C2472 1.353 . S
C2470 H2528 0.929 . S
C2471 C2468 1.356 . S
C2471 C2473 1.358 . S
C2471 H2529 0.930 . S
C2472 N2469 1.314 . S
C2472 C2470 1.353 . S
C2472 H2530 0.930 . S
C2473 N2469 1.279 . S
C2473 C2471 1.358 . S
C2473 H2531 0.930 . S
C2474 C2477 1.348 . S
C2474 C2478 1.356 . S
C2474 O2525 1.325 . S
C2475 N2476 1.279 . S
C2475 C2478 1.358 . S
C2475 H2532 0.930 . S
N2476 C2475 1.279 . S
N2476 C2479 1.314 . S
C2477 C2474 1.348 . S
C2477 C2479 1.353 . S
C2477 H2533 0.929 . S
C2478 C2474 1.356 . S
C2478 C2475 1.358 . S
C2478 H2534 0.930 . S
C2479 N2476 1.314 . S
C2479 C2477 1.353 . S
C2479 H2535 0.930 . S
C2480 N2481 1.314 . S
C2480 C2485 1.353 . S
C2480 H2486 0.930 . S
N2481 Li2464 1.990 . S
N2481 C2480 1.314 . S
N2481 C2483 1.279 . S
C2482 C2483 1.358 . S
C2482 C2484 1.356 . S
C2482 H2536 0.930 . S
C2483 N2481 1.279 . S
C2483 C2482 1.358 . S
C2483 H2487 0.930 . S
C2484 C2482 1.356 . S
C2484 C2485 1.348 . S
C2485 C2480 1.353 . S
C2485 C2484 1.348 . S
C2485 H2537 0.929 . S
H2486 C2480 0.930 . S
H2487 C2483 0.930 . S
C2488 N2489 1.314 . S
C2488 C2490 1.353 . S
C2488 H2494 0.930 . S
N2489 Li2465 1.990 . S
N2489 C2488 1.314 . S
N2489 C2492 1.279 . S
C2490 C2488 1.353 . S
C2490 C2493 1.348 . S
C2490 H2538 0.929 . S
C2491 C2492 1.358 . S
C2491 C2493 1.356 . S
C2491 H2539 0.930 . S
C2492 N2489 1.279 . S
C2492 C2491 1.358 . S
C2492 H2495 0.930 . S
C2493 C2490 1.348 . S
C2493 C2491 1.356 . S
H2494 C2488 0.930 . S
H2495 C2492 0.930 . S
C2496 C2498 1.348 . S
C2496 C2499 1.356 . S
C2496 O2526 1.325 . S
N2497 C2500 1.314 . S
N2497 C2501 1.279 . S
C2498 C2496 1.348 . S
C2498 C2500 1.353 . S
C2498 H2540 0.929 . S
C2499 C2496 1.356 . S
C2499 C2501 1.358 . S
C2499 H2541 0.930 . S
C2500 N2497 1.314 . S
C2500 C2498 1.353 . S
C2500 H2542 0.930 . S
C2501 N2497 1.279 . S
C2501 C2499 1.358 . S
C2501 H2543 0.930 . S
C2502 C2503 1.348 . S
C2502 C2504 1.356 . S
C2502 O2527 1.325 . S
C2503 C2502 1.348 . S
C2503 C2505 1.353 . S
C2503 H2544 0.929 . S
C2504 C2502 1.356 . S
C2504 C2506 1.358 . S
C2504 H2545 0.930 . S
C2505 C2503 1.353 . S
C2505 N2507 1.314 . S
C2505 H2546 0.930 . S
C2506 C2504 1.358 . S
C2506 N2507 1.279 . S
C2506 H2547 0.930 . S
N2507 C2505 1.314 . S
N2507 C2506 1.279 . S
C2508 C2510 1.353 . S
C2508 N2511 1.314 . S
C2508 H2514 0.930 . S
C2509 N2511 1.279 . S
C2509 C2512 1.358 . S
C2509 H2515 0.930 . S
C2510 C2508 1.353 . S
C2510 C2513 1.348 . S
C2510 H2548 0.929 . S
N2511 Li2466 1.990 . S
N2511 C2508 1.314 . S
N2511 C2509 1.279 . S
C2512 C2509 1.358 . S
C2512 C2513 1.356 . S
C2512 H2549 0.930 . S
C2513 C2510 1.348 . S
C2513 C2512 1.356 . S
H2514 C2508 0.930 . S
H2515 C2509 0.930 . S
C2516 N2517 1.314 . S
C2516 C2518 1.353 . S
C2516 H2522 0.930 . S
N2517 Li2467 1.990 . S
N2517 C2516 1.314 . S
N2517 C2520 1.279 . S
C2518 C2516 1.353 . S
C2518 C2521 1.348 . S
C2518 H2550 0.929 . S
C2519 C2520 1.358 . S
C2519 C2521 1.356 . S
C2519 H2551 0.930 . S
C2520 N2517 1.279 . S
C2520 C2519 1.358 . S
C2520 H2523 0.930 . S
C2521 C2518 1.348 . S
C2521 C2519 1.356 . S
H2522 C2516 0.930 . S
H2523 C2520 0.930 . S
O2524 Li2464 1.956 . S
O2524 Li2465 1.970 . S
O2524 Li2466 1.961 . S
O2524 C2468 1.325 . S
O2525 Li2464 1.970 . S
O2525 Li2465 1.956 . S
O2525 Li2467 1.961 . S
O2525 C2474 1.325 . S
O2526 Li2464 1.961 . S
O2526 Li2466 1.956 . S
O2526 Li2467 1.970 . S
O2526 C2496 1.325 . S
O2527 Li2465 1.961 . S
O2527 Li2466 1.970 . S
O2527 Li2467 1.956 . S
O2527 C2502 1.325 . S
H2528 C2470 0.929 . S
H2529 C2471 0.930 . S
H2530 C2472 0.930 . S
H2531 C2473 0.930 . S
H2532 C2475 0.930 . S
H2533 C2477 0.929 . S
H2534 C2478 0.930 . S
H2535 C2479 0.930 . S
H2536 C2482 0.930 . S
H2537 C2485 0.929 . S
H2538 C2490 0.929 . S
H2539 C2491 0.930 . S
H2540 C2498 0.929 . S
H2541 C2499 0.930 . S
H2542 C2500 0.930 . S
H2543 C2501 0.930 . S
H2544 C2503 0.929 . S
H2545 C2504 0.930 . S
H2546 C2505 0.930 . S
H2547 C2506 0.930 . S
H2548 C2510 0.929 . S
H2549 C2512 0.930 . S
H2550 C2518 0.929 . S
H2551 C2519 0.930 . S
Li2552 N2569 1.990 . S
Li2552 O2612 1.956 . S
Li2552 O2613 1.970 . S
Li2552 O2614 1.961 . S
Li2553 N2577 1.990 . S
Li2553 O2612 1.970 . S
Li2553 O2613 1.956 . S
Li2553 O2615 1.961 . S
Li2554 N2599 1.990 . S
Li2554 O2612 1.961 . S
Li2554 O2614 1.956 . S
Li2554 O2615 1.970 . S
Li2555 N2605 1.990 1_455 S
Li2555 O2613 1.961 . S
Li2555 O2614 1.970 . S
Li2555 O2615 1.956 . S
C2556 C2558 1.348 . S
C2556 C2559 1.356 . S
C2556 O2612 1.325 . S
N2557 C2560 1.314 . S
N2557 C2561 1.279 . S
C2558 C2556 1.348 . S
C2558 C2560 1.353 . S
C2558 H2616 0.929 . S
C2559 C2556 1.356 . S
C2559 C2561 1.358 . S
C2559 H2617 0.930 . S
C2560 N2557 1.314 . S
C2560 C2558 1.353 . S
C2560 H2618 0.930 . S
C2561 N2557 1.279 . S
C2561 C2559 1.358 . S
C2561 H2619 0.930 . S
C2562 C2565 1.348 . S
C2562 C2566 1.356 . S
C2562 O2613 1.325 . S
C2563 N2564 1.279 . S
C2563 C2566 1.358 . S
C2563 H2620 0.930 . S
N2564 C2563 1.279 . S
N2564 C2567 1.314 . S
C2565 C2562 1.348 . S
C2565 C2567 1.353 . S
C2565 H2621 0.929 . S
C2566 C2562 1.356 . S
C2566 C2563 1.358 . S
C2566 H2622 0.930 . S
C2567 N2564 1.314 . S
C2567 C2565 1.353 . S
C2567 H2623 0.930 . S
C2568 N2569 1.314 . S
C2568 C2573 1.353 . S
C2568 H2574 0.930 . S
N2569 Li2552 1.990 . S
N2569 C2568 1.314 . S
N2569 C2571 1.279 . S
C2570 C2571 1.358 . S
C2570 C2572 1.356 . S
C2570 H2624 0.930 . S
C2571 N2569 1.279 . S
C2571 C2570 1.358 . S
C2571 H2575 0.930 . S
C2572 C2570 1.356 . S
C2572 C2573 1.348 . S
C2573 C2568 1.353 . S
C2573 C2572 1.348 . S
C2573 H2625 0.929 . S
H2574 C2568 0.930 . S
H2575 C2571 0.930 . S
C2576 N2577 1.314 . S
C2576 C2578 1.353 . S
C2576 H2582 0.930 . S
N2577 Li2553 1.990 . S
N2577 C2576 1.314 . S
N2577 C2580 1.279 . S
C2578 C2576 1.353 . S
C2578 C2581 1.348 . S
C2578 H2626 0.929 . S
C2579 C2580 1.358 . S
C2579 C2581 1.356 . S
C2579 H2627 0.930 . S
C2580 N2577 1.279 . S
C2580 C2579 1.358 . S
C2580 H2583 0.930 . S
C2581 C2578 1.348 . S
C2581 C2579 1.356 . S
H2582 C2576 0.930 . S
H2583 C2580 0.930 . S
C2584 C2586 1.348 1_455 S
C2584 C2587 1.356 . S
C2584 O2614 1.325 . S
N2585 C2588 1.314 . S
N2585 C2589 1.279 1_655 S
C2586 C2584 1.348 1_655 S
C2586 C2588 1.353 . S
C2586 H2628 0.929 . S
C2587 C2584 1.356 . S
C2587 C2589 1.358 . S
C2587 H2629 0.930 . S
C2588 N2585 1.314 . S
C2588 C2586 1.353 . S
C2588 H2630 0.930 . S
C2589 N2585 1.279 1_455 S
C2589 C2587 1.358 . S
C2589 H2631 0.930 . S
C2590 C2591 1.348 1_455 S
C2590 C2592 1.356 1_455 S
C2590 O2615 1.325 . S
C2591 C2590 1.348 1_655 S
C2591 C2593 1.353 . S
C2591 H2632 0.929 . S
C2592 C2590 1.356 1_655 S
C2592 C2594 1.358 . S
C2592 H2633 0.930 1_655 S
C2593 C2591 1.353 . S
C2593 N2595 1.314 . S
C2593 H2634 0.930 . S
C2594 C2592 1.358 . S
C2594 N2595 1.279 . S
C2594 H2635 0.930 . S
N2595 C2593 1.314 . S
N2595 C2594 1.279 . S
C2596 C2598 1.353 . S
C2596 N2599 1.314 . S
C2596 H2602 0.930 . S
C2597 N2599 1.279 . S
C2597 C2600 1.358 . S
C2597 H2603 0.930 . S
C2598 C2596 1.353 . S
C2598 C2601 1.348 . S
C2598 H2636 0.929 . S
N2599 Li2554 1.990 . S
N2599 C2596 1.314 . S
N2599 C2597 1.279 . S
C2600 C2597 1.358 . S
C2600 C2601 1.356 . S
C2600 H2637 0.930 . S
C2601 C2598 1.348 . S
C2601 C2600 1.356 . S
H2602 C2596 0.930 . S
H2603 C2597 0.930 . S
C2604 N2605 1.314 . S
C2604 C2606 1.353 . S
C2604 H2610 0.930 . S
N2605 Li2555 1.990 1_655 S
N2605 C2604 1.314 . S
N2605 C2608 1.279 . S
C2606 C2604 1.353 . S
C2606 C2609 1.348 . S
C2606 H2638 0.929 . S
C2607 C2608 1.358 . S
C2607 C2609 1.356 . S
C2607 H2639 0.930 . S
C2608 N2605 1.279 . S
C2608 C2607 1.358 . S
C2608 H2611 0.930 . S
C2609 C2606 1.348 . S
C2609 C2607 1.356 . S
H2610 C2604 0.930 . S
H2611 C2608 0.930 . S
O2612 Li2552 1.956 . S
O2612 Li2553 1.970 . S
O2612 Li2554 1.961 . S
O2612 C2556 1.325 . S
O2613 Li2552 1.970 . S
O2613 Li2553 1.956 . S
O2613 Li2555 1.961 . S
O2613 C2562 1.325 . S
O2614 Li2552 1.961 . S
O2614 Li2554 1.956 . S
O2614 Li2555 1.970 . S
O2614 C2584 1.325 . S
O2615 Li2553 1.961 . S
O2615 Li2554 1.970 . S
O2615 Li2555 1.956 . S
O2615 C2590 1.325 . S
H2616 C2558 0.929 . S
H2617 C2559 0.930 . S
H2618 C2560 0.930 . S
H2619 C2561 0.930 . S
H2620 C2563 0.930 . S
H2621 C2565 0.929 . S
H2622 C2566 0.930 . S
H2623 C2567 0.930 . S
H2624 C2570 0.930 . S
H2625 C2573 0.929 . S
H2626 C2578 0.929 . S
H2627 C2579 0.930 . S
H2628 C2586 0.929 . S
H2629 C2587 0.930 . S
H2630 C2588 0.930 . S
H2631 C2589 0.930 . S
H2632 C2591 0.929 . S
H2633 C2592 0.930 1_455 S
H2634 C2593 0.930 . S
H2635 C2594 0.930 . S
H2636 C2598 0.929 . S
H2637 C2600 0.930 . S
H2638 C2606 0.929 . S
H2639 C2607 0.930 . S
Li2640 N2657 1.990 . S
Li2640 O2700 1.956 . S
Li2640 O2701 1.970 . S
Li2640 O2702 1.961 . S
Li2641 N2665 1.990 . S
Li2641 O2700 1.970 . S
Li2641 O2701 1.956 . S
Li2641 O2703 1.961 . S
Li2642 N2687 1.990 . S
Li2642 O2700 1.961 . S
Li2642 O2702 1.956 . S
Li2642 O2703 1.970 . S
Li2643 N2693 1.990 . S
Li2643 O2701 1.961 . S
Li2643 O2702 1.970 . S
Li2643 O2703 1.956 . S
C2644 C2646 1.348 . S
C2644 C2647 1.356 . S
C2644 O2700 1.325 . S
N2645 C2648 1.314 . S
N2645 C2649 1.279 . S
C2646 C2644 1.348 . S
C2646 C2648 1.353 . S
C2646 H2704 0.929 . S
C2647 C2644 1.356 . S
C2647 C2649 1.358 . S
C2647 H2705 0.930 . S
C2648 N2645 1.314 . S
C2648 C2646 1.353 . S
C2648 H2706 0.930 . S
C2649 N2645 1.279 . S
C2649 C2647 1.358 . S
C2649 H2707 0.930 . S
C2650 C2653 1.348 . S
C2650 C2654 1.356 . S
C2650 O2701 1.325 . S
C2651 N2652 1.279 . S
C2651 C2654 1.358 . S
C2651 H2708 0.930 . S
N2652 C2651 1.279 . S
N2652 C2655 1.314 . S
C2653 C2650 1.348 . S
C2653 C2655 1.353 . S
C2653 H2709 0.929 . S
C2654 C2650 1.356 . S
C2654 C2651 1.358 . S
C2654 H2710 0.930 . S
C2655 N2652 1.314 . S
C2655 C2653 1.353 . S
C2655 H2711 0.930 . S
C2656 N2657 1.314 . S
C2656 C2661 1.353 . S
C2656 H2662 0.930 . S
N2657 Li2640 1.990 . S
N2657 C2656 1.314 . S
N2657 C2659 1.279 . S
C2658 C2659 1.358 . S
C2658 C2660 1.356 . S
C2658 H2712 0.930 . S
C2659 N2657 1.279 . S
C2659 C2658 1.358 . S
C2659 H2663 0.930 . S
C2660 C2658 1.356 . S
C2660 C2661 1.348 . S
C2661 C2656 1.353 . S
C2661 C2660 1.348 . S
C2661 H2713 0.929 . S
H2662 C2656 0.930 . S
H2663 C2659 0.930 . S
C2664 N2665 1.314 . S
C2664 C2666 1.353 . S
C2664 H2670 0.930 . S
N2665 Li2641 1.990 . S
N2665 C2664 1.314 . S
N2665 C2668 1.279 . S
C2666 C2664 1.353 . S
C2666 C2669 1.348 . S
C2666 H2714 0.929 . S
C2667 C2668 1.358 . S
C2667 C2669 1.356 . S
C2667 H2715 0.930 . S
C2668 N2665 1.279 . S
C2668 C2667 1.358 . S
C2668 H2671 0.930 . S
C2669 C2666 1.348 . S
C2669 C2667 1.356 . S
H2670 C2664 0.930 . S
H2671 C2668 0.930 . S
C2672 C2674 1.348 . S
C2672 C2675 1.356 . S
C2672 O2702 1.325 . S
N2673 C2676 1.314 . S
N2673 C2677 1.279 . S
C2674 C2672 1.348 . S
C2674 C2676 1.353 . S
C2674 H2716 0.929 . S
C2675 C2672 1.356 . S
C2675 C2677 1.358 . S
C2675 H2717 0.930 . S
C2676 N2673 1.314 . S
C2676 C2674 1.353 . S
C2676 H2718 0.930 . S
C2677 N2673 1.279 . S
C2677 C2675 1.358 . S
C2677 H2719 0.930 . S
C2678 C2679 1.348 . S
C2678 C2680 1.356 . S
C2678 O2703 1.325 . S
C2679 C2678 1.348 . S
C2679 C2681 1.353 . S
C2679 H2720 0.929 . S
C2680 C2678 1.356 . S
C2680 C2682 1.358 . S
C2680 H2721 0.930 . S
C2681 C2679 1.353 . S
C2681 N2683 1.314 . S
C2681 H2722 0.930 . S
C2682 C2680 1.358 . S
C2682 N2683 1.279 . S
C2682 H2723 0.930 . S
N2683 C2681 1.314 . S
N2683 C2682 1.279 . S
C2684 C2686 1.353 . S
C2684 N2687 1.314 . S
C2684 H2690 0.930 . S
C2685 N2687 1.279 . S
C2685 C2688 1.358 . S
C2685 H2691 0.930 . S
C2686 C2684 1.353 . S
C2686 C2689 1.348 . S
C2686 H2724 0.929 . S
N2687 Li2642 1.990 . S
N2687 C2684 1.314 . S
N2687 C2685 1.279 . S
C2688 C2685 1.358 . S
C2688 C2689 1.356 . S
C2688 H2725 0.930 . S
C2689 C2686 1.348 . S
C2689 C2688 1.356 . S
H2690 C2684 0.930 . S
H2691 C2685 0.930 . S
C2692 N2693 1.314 . S
C2692 C2694 1.353 . S
C2692 H2698 0.930 . S
N2693 Li2643 1.990 . S
N2693 C2692 1.314 . S
N2693 C2696 1.279 . S
C2694 C2692 1.353 . S
C2694 C2697 1.348 . S
C2694 H2726 0.929 . S
C2695 C2696 1.358 . S
C2695 C2697 1.356 . S
C2695 H2727 0.930 . S
C2696 N2693 1.279 . S
C2696 C2695 1.358 . S
C2696 H2699 0.930 . S
C2697 C2694 1.348 . S
C2697 C2695 1.356 . S
H2698 C2692 0.930 . S
H2699 C2696 0.930 . S
O2700 Li2640 1.956 . S
O2700 Li2641 1.970 . S
O2700 Li2642 1.961 . S
O2700 C2644 1.325 . S
O2701 Li2640 1.970 . S
O2701 Li2641 1.956 . S
O2701 Li2643 1.961 . S
O2701 C2650 1.325 . S
O2702 Li2640 1.961 . S
O2702 Li2642 1.956 . S
O2702 Li2643 1.970 . S
O2702 C2672 1.325 . S
O2703 Li2641 1.961 . S
O2703 Li2642 1.970 . S
O2703 Li2643 1.956 . S
O2703 C2678 1.325 . S
H2704 C2646 0.929 . S
H2705 C2647 0.930 . S
H2706 C2648 0.930 . S
H2707 C2649 0.930 . S
H2708 C2651 0.930 . S
H2709 C2653 0.929 . S
H2710 C2654 0.930 . S
H2711 C2655 0.930 . S
H2712 C2658 0.930 . S
H2713 C2661 0.929 . S
H2714 C2666 0.929 . S
H2715 C2667 0.930 . S
H2716 C2674 0.929 . S
H2717 C2675 0.930 . S
H2718 C2676 0.930 . S
H2719 C2677 0.930 . S
H2720 C2679 0.929 . S
H2721 C2680 0.930 . S
H2722 C2681 0.930 . S
H2723 C2682 0.930 . S
H2724 C2686 0.929 . S
H2725 C2688 0.930 . S
H2726 C2694 0.929 . S
H2727 C2695 0.930 . S
Li2728 N2745 1.990 . S
Li2728 O2788 1.956 . S
Li2728 O2789 1.970 . S
Li2728 O2790 1.961 . S
Li2729 N2753 1.990 . S
Li2729 O2788 1.970 . S
Li2729 O2789 1.956 . S
Li2729 O2791 1.961 . S
Li2730 N2775 1.990 . S
Li2730 O2788 1.961 . S
Li2730 O2790 1.956 . S
Li2730 O2791 1.970 . S
Li2731 N2781 1.990 . S
Li2731 O2789 1.961 . S
Li2731 O2790 1.970 . S
Li2731 O2791 1.956 . S
C2732 C2734 1.348 . S
C2732 C2735 1.356 . S
C2732 O2788 1.325 . S
N2733 C2736 1.314 . S
N2733 C2737 1.279 . S
C2734 C2732 1.348 . S
C2734 C2736 1.353 . S
C2734 H2792 0.929 . S
C2735 C2732 1.356 . S
C2735 C2737 1.358 . S
C2735 H2793 0.930 . S
C2736 N2733 1.314 . S
C2736 C2734 1.353 . S
C2736 H2794 0.930 . S
C2737 N2733 1.279 . S
C2737 C2735 1.358 . S
C2737 H2795 0.930 . S
C2738 C2741 1.348 . S
C2738 C2742 1.356 . S
C2738 O2789 1.325 . S
C2739 N2740 1.279 . S
C2739 C2742 1.358 . S
C2739 H2796 0.930 . S
N2740 C2739 1.279 . S
N2740 C2743 1.314 . S
C2741 C2738 1.348 . S
C2741 C2743 1.353 . S
C2741 H2797 0.929 . S
C2742 C2738 1.356 . S
C2742 C2739 1.358 . S
C2742 H2798 0.930 . S
C2743 N2740 1.314 . S
C2743 C2741 1.353 . S
C2743 H2799 0.930 . S
C2744 N2745 1.314 . S
C2744 C2749 1.353 . S
C2744 H2750 0.930 . S
N2745 Li2728 1.990 . S
N2745 C2744 1.314 . S
N2745 C2747 1.279 . S
C2746 C2747 1.358 . S
C2746 C2748 1.356 . S
C2746 H2800 0.930 . S
C2747 N2745 1.279 . S
C2747 C2746 1.358 . S
C2747 H2751 0.930 . S
C2748 C2746 1.356 . S
C2748 C2749 1.348 . S
C2749 C2744 1.353 . S
C2749 C2748 1.348 . S
C2749 H2801 0.929 . S
H2750 C2744 0.930 . S
H2751 C2747 0.930 . S
C2752 N2753 1.314 . S
C2752 C2754 1.353 . S
C2752 H2758 0.930 . S
N2753 Li2729 1.990 . S
N2753 C2752 1.314 . S
N2753 C2756 1.279 . S
C2754 C2752 1.353 . S
C2754 C2757 1.348 . S
C2754 H2802 0.929 . S
C2755 C2756 1.358 . S
C2755 C2757 1.356 . S
C2755 H2803 0.930 . S
C2756 N2753 1.279 . S
C2756 C2755 1.358 . S
C2756 H2759 0.930 . S
C2757 C2754 1.348 . S
C2757 C2755 1.356 . S
H2758 C2752 0.930 . S
H2759 C2756 0.930 . S
C2760 C2762 1.348 . S
C2760 C2763 1.356 . S
C2760 O2790 1.325 . S
N2761 C2764 1.314 . S
N2761 C2765 1.279 . S
C2762 C2760 1.348 . S
C2762 C2764 1.353 . S
C2762 H2804 0.929 . S
C2763 C2760 1.356 . S
C2763 C2765 1.358 . S
C2763 H2805 0.930 . S
C2764 N2761 1.314 . S
C2764 C2762 1.353 . S
C2764 H2806 0.930 . S
C2765 N2761 1.279 . S
C2765 C2763 1.358 . S
C2765 H2807 0.930 . S
C2766 C2767 1.348 . S
C2766 C2768 1.356 . S
C2766 O2791 1.325 . S
C2767 C2766 1.348 . S
C2767 C2769 1.353 . S
C2767 H2808 0.929 . S
C2768 C2766 1.356 . S
C2768 C2770 1.358 . S
C2768 H2809 0.930 . S
C2769 C2767 1.353 . S
C2769 N2771 1.314 . S
C2769 H2810 0.930 . S
C2770 C2768 1.358 . S
C2770 N2771 1.279 . S
C2770 H2811 0.930 . S
N2771 C2769 1.314 . S
N2771 C2770 1.279 . S
C2772 C2774 1.353 . S
C2772 N2775 1.314 . S
C2772 H2778 0.930 . S
C2773 N2775 1.279 . S
C2773 C2776 1.358 . S
C2773 H2779 0.930 . S
C2774 C2772 1.353 . S
C2774 C2777 1.348 . S
C2774 H2812 0.929 . S
N2775 Li2730 1.990 . S
N2775 C2772 1.314 . S
N2775 C2773 1.279 . S
C2776 C2773 1.358 . S
C2776 C2777 1.356 . S
C2776 H2813 0.930 . S
C2777 C2774 1.348 . S
C2777 C2776 1.356 . S
H2778 C2772 0.930 . S
H2779 C2773 0.930 . S
C2780 N2781 1.314 . S
C2780 C2782 1.353 . S
C2780 H2786 0.930 . S
N2781 Li2731 1.990 . S
N2781 C2780 1.314 . S
N2781 C2784 1.279 . S
C2782 C2780 1.353 . S
C2782 C2785 1.348 . S
C2782 H2814 0.929 . S
C2783 C2784 1.358 . S
C2783 C2785 1.356 . S
C2783 H2815 0.930 . S
C2784 N2781 1.279 . S
C2784 C2783 1.358 . S
C2784 H2787 0.930 . S
C2785 C2782 1.348 . S
C2785 C2783 1.356 . S
H2786 C2780 0.930 . S
H2787 C2784 0.930 . S
O2788 Li2728 1.956 . S
O2788 Li2729 1.970 . S
O2788 Li2730 1.961 . S
O2788 C2732 1.325 . S
O2789 Li2728 1.970 . S
O2789 Li2729 1.956 . S
O2789 Li2731 1.961 . S
O2789 C2738 1.325 . S
O2790 Li2728 1.961 . S
O2790 Li2730 1.956 . S
O2790 Li2731 1.970 . S
O2790 C2760 1.325 . S
O2791 Li2729 1.961 . S
O2791 Li2730 1.970 . S
O2791 Li2731 1.956 . S
O2791 C2766 1.325 . S
H2792 C2734 0.929 . S
H2793 C2735 0.930 . S
H2794 C2736 0.930 . S
H2795 C2737 0.930 . S
H2796 C2739 0.930 . S
H2797 C2741 0.929 . S
H2798 C2742 0.930 . S
H2799 C2743 0.930 . S
H2800 C2746 0.930 . S
H2801 C2749 0.929 . S
H2802 C2754 0.929 . S
H2803 C2755 0.930 . S
H2804 C2762 0.929 . S
H2805 C2763 0.930 . S
H2806 C2764 0.930 . S
H2807 C2765 0.930 . S
H2808 C2767 0.929 . S
H2809 C2768 0.930 . S
H2810 C2769 0.930 . S
H2811 C2770 0.930 . S
H2812 C2774 0.929 . S
H2813 C2776 0.930 . S
H2814 C2782 0.929 . S
H2815 C2783 0.930 . S
C2816 C2817 1.369 . S
C2816 C2818 1.419 . S
C2816 H2820 0.930 . S
C2817 C2816 1.369 . S
C2817 C2826 1.429 . S
C2818 C2816 1.419 . S
C2818 C2819 1.363 . S
C2818 H2821 0.929 . S
C2819 C2818 1.363 . S
C2819 C2825 1.428 . S
H2820 C2816 0.930 . S
H2821 C2818 0.929 . S
S2822 N2823 1.613 . S
S2822 N2824 1.610 . S
N2823 S2822 1.613 . S
N2823 C2826 1.350 . S
N2824 S2822 1.610 . S
N2824 C2825 1.351 . S
C2825 C2819 1.428 . S
C2825 N2824 1.351 . S
C2825 C2826 1.434 . S
C2826 C2817 1.429 . S
C2826 N2823 1.350 . S
C2826 C2825 1.434 . S
C2827 C2828 1.369 . S
C2827 C2829 1.419 . S
C2827 H2831 0.930 . S
C2828 C2827 1.369 . S
C2828 C2837 1.429 . S
C2829 C2827 1.419 . S
C2829 C2830 1.363 . S
C2829 H2832 0.929 . S
C2830 C2829 1.363 . S
C2830 C2836 1.428 . S
H2831 C2827 0.930 . S
H2832 C2829 0.929 . S
S2833 N2834 1.613 . S
S2833 N2835 1.610 . S
N2834 S2833 1.613 . S
N2834 C2837 1.350 . S
N2835 S2833 1.610 . S
N2835 C2836 1.351 . S
C2836 C2830 1.428 . S
C2836 N2835 1.351 . S
C2836 C2837 1.434 . S
C2837 C2828 1.429 . S
C2837 N2834 1.350 . S
C2837 C2836 1.434 . S
C2838 C2839 1.369 . S
C2838 C2840 1.419 . S
C2838 H2842 0.930 . S
C2839 C2838 1.369 . S
C2839 C2848 1.429 . S
C2840 C2838 1.419 . S
C2840 C2841 1.363 . S
C2840 H2843 0.929 . S
C2841 C2840 1.363 . S
C2841 C2847 1.428 . S
H2842 C2838 0.930 . S
H2843 C2840 0.929 . S
S2844 N2845 1.613 . S
S2844 N2846 1.610 . S
N2845 S2844 1.613 . S
N2845 C2848 1.350 . S
N2846 S2844 1.610 . S
N2846 C2847 1.351 . S
C2847 C2841 1.428 . S
C2847 N2846 1.351 . S
C2847 C2848 1.434 . S
C2848 C2839 1.429 . S
C2848 N2845 1.350 . S
C2848 C2847 1.434 . S
C2849 C2850 1.369 . S
C2849 C2851 1.419 . S
C2849 H2853 0.930 . S
C2850 C2849 1.369 . S
C2850 C2859 1.429 . S
C2851 C2849 1.419 . S
C2851 C2852 1.363 . S
C2851 H2854 0.929 . S
C2852 C2851 1.363 . S
C2852 C2858 1.428 . S
H2853 C2849 0.930 . S
H2854 C2851 0.929 . S
S2855 N2856 1.613 . S
S2855 N2857 1.610 . S
N2856 S2855 1.613 . S
N2856 C2859 1.350 . S
N2857 S2855 1.610 . S
N2857 C2858 1.351 . S
C2858 C2852 1.428 . S
C2858 N2857 1.351 . S
C2858 C2859 1.434 . S
C2859 C2850 1.429 . S
C2859 N2856 1.350 . S
C2859 C2858 1.434 . S
C2860 C2861 1.369 . S
C2860 C2862 1.419 . S
C2860 H2864 0.930 . S
C2861 C2860 1.369 . S
C2861 C2870 1.429 . S
C2862 C2860 1.419 . S
C2862 C2863 1.363 . S
C2862 H2865 0.929 . S
C2863 C2862 1.363 . S
C2863 C2869 1.428 . S
H2864 C2860 0.930 . S
H2865 C2862 0.929 . S
S2866 N2867 1.613 . S
S2866 N2868 1.610 . S
N2867 S2866 1.613 . S
N2867 C2870 1.350 . S
N2868 S2866 1.610 . S
N2868 C2869 1.351 . S
C2869 C2863 1.428 . S
C2869 N2868 1.351 . S
C2869 C2870 1.434 . S
C2870 C2861 1.429 . S
C2870 N2867 1.350 . S
C2870 C2869 1.434 . S
C2871 C2872 1.369 . S
C2871 C2873 1.419 . S
C2871 H2875 0.930 . S
C2872 C2871 1.369 . S
C2872 C2881 1.429 . S
C2873 C2871 1.419 . S
C2873 C2874 1.363 . S
C2873 H2876 0.929 . S
C2874 C2873 1.363 . S
C2874 C2880 1.428 . S
H2875 C2871 0.930 . S
H2876 C2873 0.929 . S
S2877 N2878 1.613 . S
S2877 N2879 1.610 . S
N2878 S2877 1.613 . S
N2878 C2881 1.350 . S
N2879 S2877 1.610 . S
N2879 C2880 1.351 . S
C2880 C2874 1.428 . S
C2880 N2879 1.351 . S
C2880 C2881 1.434 . S
C2881 C2872 1.429 . S
C2881 N2878 1.350 . S
C2881 C2880 1.434 . S
C2882 C2883 1.369 . S
C2882 C2884 1.419 . S
C2882 H2886 0.930 . S
C2883 C2882 1.369 . S
C2883 C2892 1.429 . S
C2884 C2882 1.419 . S
C2884 C2885 1.363 . S
C2884 H2887 0.929 . S
C2885 C2884 1.363 . S
C2885 C2891 1.428 . S
H2886 C2882 0.930 . S
H2887 C2884 0.929 . S
S2888 N2889 1.613 . S
S2888 N2890 1.610 . S
N2889 S2888 1.613 . S
N2889 C2892 1.350 . S
N2890 S2888 1.610 . S
N2890 C2891 1.351 . S
C2891 C2885 1.428 . S
C2891 N2890 1.351 . S
C2891 C2892 1.434 . S
C2892 C2883 1.429 . S
C2892 N2889 1.350 . S
C2892 C2891 1.434 . S
C2893 C2894 1.369 . S
C2893 C2895 1.419 . S
C2893 H2897 0.930 . S
C2894 C2893 1.369 . S
C2894 C2903 1.429 . S
C2895 C2893 1.419 . S
C2895 C2896 1.363 . S
C2895 H2898 0.929 . S
C2896 C2895 1.363 . S
C2896 C2902 1.428 . S
H2897 C2893 0.930 . S
H2898 C2895 0.929 . S
S2899 N2900 1.613 . S
S2899 N2901 1.610 . S
N2900 S2899 1.613 . S
N2900 C2903 1.350 . S
N2901 S2899 1.610 . S
N2901 C2902 1.351 . S
C2902 C2896 1.428 . S
C2902 N2901 1.351 . S
C2902 C2903 1.434 . S
C2903 C2894 1.429 . S
C2903 N2900 1.350 . S
C2903 C2902 1.434 . S
C2904 C2905 1.369 . S
C2904 C2906 1.419 . S
C2904 H2908 0.930 . S
C2905 C2904 1.369 . S
C2905 C2914 1.429 . S
C2906 C2904 1.419 . S
C2906 C2907 1.363 . S
C2906 H2909 0.929 . S
C2907 C2906 1.363 . S
C2907 C2913 1.428 . S
H2908 C2904 0.930 . S
H2909 C2906 0.929 . S
S2910 N2911 1.613 . S
S2910 N2912 1.610 . S
N2911 S2910 1.613 . S
N2911 C2914 1.350 . S
N2912 S2910 1.610 . S
N2912 C2913 1.351 . S
C2913 C2907 1.428 . S
C2913 N2912 1.351 . S
C2913 C2914 1.434 . S
C2914 C2905 1.429 . S
C2914 N2911 1.350 . S
C2914 C2913 1.434 . S
C2915 C2916 1.369 . S
C2915 C2917 1.419 . S
C2915 H2919 0.930 . S
C2916 C2915 1.369 . S
C2916 C2925 1.429 . S
C2917 C2915 1.419 . S
C2917 C2918 1.363 . S
C2917 H2920 0.929 . S
C2918 C2917 1.363 . S
C2918 C2924 1.428 . S
H2919 C2915 0.930 . S
H2920 C2917 0.929 . S
S2921 N2922 1.613 . S
S2921 N2923 1.610 . S
N2922 S2921 1.613 . S
N2922 C2925 1.350 . S
N2923 S2921 1.610 . S
N2923 C2924 1.351 . S
C2924 C2918 1.428 . S
C2924 N2923 1.351 . S
C2924 C2925 1.434 . S
C2925 C2916 1.429 . S
C2925 N2922 1.350 . S
C2925 C2924 1.434 . S
C2926 C2927 1.369 . S
C2926 C2928 1.419 . S
C2926 H2930 0.930 . S
C2927 C2926 1.369 . S
C2927 C2936 1.429 . S
C2928 C2926 1.419 . S
C2928 C2929 1.363 . S
C2928 H2931 0.929 . S
C2929 C2928 1.363 . S
C2929 C2935 1.428 . S
H2930 C2926 0.930 . S
H2931 C2928 0.929 . S
S2932 N2933 1.613 . S
S2932 N2934 1.610 . S
N2933 S2932 1.613 . S
N2933 C2936 1.350 . S
N2934 S2932 1.610 . S
N2934 C2935 1.351 . S
C2935 C2929 1.428 . S
C2935 N2934 1.351 . S
C2935 C2936 1.434 . S
C2936 C2927 1.429 . S
C2936 N2933 1.350 . S
C2936 C2935 1.434 . S
C2937 C2938 1.369 . S
C2937 C2939 1.419 . S
C2937 H2941 0.930 . S
C2938 C2937 1.369 . S
C2938 C2947 1.429 . S
C2939 C2937 1.419 . S
C2939 C2940 1.363 . S
C2939 H2942 0.929 . S
C2940 C2939 1.363 . S
C2940 C2946 1.428 . S
H2941 C2937 0.930 . S
H2942 C2939 0.929 . S
S2943 N2944 1.613 . S
S2943 N2945 1.610 . S
N2944 S2943 1.613 . S
N2944 C2947 1.350 . S
N2945 S2943 1.610 . S
N2945 C2946 1.351 . S
C2946 C2940 1.428 . S
C2946 N2945 1.351 . S
C2946 C2947 1.434 . S
C2947 C2938 1.429 . S
C2947 N2944 1.350 . S
C2947 C2946 1.434 . S
C2948 C2949 1.369 . S
C2948 C2950 1.419 . S
C2948 H2952 0.930 . S
C2949 C2948 1.369 . S
C2949 C2958 1.429 . S
C2950 C2948 1.419 . S
C2950 C2951 1.363 . S
C2950 H2953 0.929 . S
C2951 C2950 1.363 . S
C2951 C2957 1.428 . S
H2952 C2948 0.930 . S
H2953 C2950 0.929 . S
S2954 N2955 1.613 . S
S2954 N2956 1.610 . S
N2955 S2954 1.613 . S
N2955 C2958 1.350 . S
N2956 S2954 1.610 . S
N2956 C2957 1.351 . S
C2957 C2951 1.428 . S
C2957 N2956 1.351 . S
C2957 C2958 1.434 . S
C2958 C2949 1.429 . S
C2958 N2955 1.350 . S
C2958 C2957 1.434 . S
C2959 C2960 1.369 . S
C2959 C2961 1.419 . S
C2959 H2963 0.930 . S
C2960 C2959 1.369 . S
C2960 C2969 1.429 . S
C2961 C2959 1.419 . S
C2961 C2962 1.363 . S
C2961 H2964 0.929 . S
C2962 C2961 1.363 . S
C2962 C2968 1.428 . S
H2963 C2959 0.930 . S
H2964 C2961 0.929 . S
S2965 N2966 1.613 . S
S2965 N2967 1.610 . S
N2966 S2965 1.613 . S
N2966 C2969 1.350 . S
N2967 S2965 1.610 . S
N2967 C2968 1.351 . S
C2968 C2962 1.428 . S
C2968 N2967 1.351 . S
C2968 C2969 1.434 . S
C2969 C2960 1.429 . S
C2969 N2966 1.350 . S
C2969 C2968 1.434 . S
C2970 C2971 1.369 . S
C2970 C2972 1.419 . S
C2970 H2974 0.930 . S
C2971 C2970 1.369 . S
C2971 C2980 1.429 . S
C2972 C2970 1.419 . S
C2972 C2973 1.363 . S
C2972 H2975 0.929 . S
C2973 C2972 1.363 . S
C2973 C2979 1.428 . S
H2974 C2970 0.930 . S
H2975 C2972 0.929 . S
S2976 N2977 1.613 . S
S2976 N2978 1.610 . S
N2977 S2976 1.613 . S
N2977 C2980 1.350 . S
N2978 S2976 1.610 . S
N2978 C2979 1.351 . S
C2979 C2973 1.428 . S
C2979 N2978 1.351 . S
C2979 C2980 1.434 . S
C2980 C2971 1.429 . S
C2980 N2977 1.350 . S
C2980 C2979 1.434 . S
C2981 C2982 1.369 . S
C2981 C2983 1.419 . S
C2981 H2985 0.930 . S
C2982 C2981 1.369 . S
C2982 C2991 1.429 . S
C2983 C2981 1.419 . S
C2983 C2984 1.363 . S
C2983 H2986 0.929 . S
C2984 C2983 1.363 . S
C2984 C2990 1.428 . S
H2985 C2981 0.930 . S
H2986 C2983 0.929 . S
S2987 N2988 1.613 . S
S2987 N2989 1.610 . S
N2988 S2987 1.613 . S
N2988 C2991 1.350 . S
N2989 S2987 1.610 . S
N2989 C2990 1.351 . S
C2990 C2984 1.428 . S
C2990 N2989 1.351 . S
C2990 C2991 1.434 . S
C2991 C2982 1.429 . S
C2991 N2988 1.350 . S
C2991 C2990 1.434 . S
C2992 C2993 1.369 . S
C2992 C2994 1.419 . S
C2992 H2996 0.930 . S
C2993 C2992 1.369 . S
C2993 C3002 1.429 . S
C2994 C2992 1.419 . S
C2994 C2995 1.363 . S
C2994 H2997 0.929 . S
C2995 C2994 1.363 . S
C2995 C3001 1.428 . S
H2996 C2992 0.930 . S
H2997 C2994 0.929 . S
S2998 N2999 1.613 . S
S2998 N3000 1.610 . S
N2999 S2998 1.613 . S
N2999 C3002 1.350 . S
N3000 S2998 1.610 . S
N3000 C3001 1.351 . S
C3001 C2995 1.428 . S
C3001 N3000 1.351 . S
C3001 C3002 1.434 . S
C3002 C2993 1.429 . S
C3002 N2999 1.350 . S
C3002 C3001 1.434 . S
C3003 C3004 1.369 . S
C3003 C3005 1.419 . S
C3003 H3007 0.930 . S
C3004 C3003 1.369 . S
C3004 C3013 1.429 . S
C3005 C3003 1.419 . S
C3005 C3006 1.363 . S
C3005 H3008 0.929 . S
C3006 C3005 1.363 . S
C3006 C3012 1.428 . S
H3007 C3003 0.930 . S
H3008 C3005 0.929 . S
S3009 N3010 1.613 . S
S3009 N3011 1.610 . S
N3010 S3009 1.613 . S
N3010 C3013 1.350 . S
N3011 S3009 1.610 . S
N3011 C3012 1.351 . S
C3012 C3006 1.428 . S
C3012 N3011 1.351 . S
C3012 C3013 1.434 . S
C3013 C3004 1.429 . S
C3013 N3010 1.350 . S
C3013 C3012 1.434 . S
C3014 C3015 1.369 . S
C3014 C3016 1.419 . S
C3014 H3018 0.930 . S
C3015 C3014 1.369 . S
C3015 C3024 1.429 . S
C3016 C3014 1.419 . S
C3016 C3017 1.363 . S
C3016 H3019 0.929 . S
C3017 C3016 1.363 . S
C3017 C3023 1.428 . S
H3018 C3014 0.930 . S
H3019 C3016 0.929 . S
S3020 N3021 1.613 . S
S3020 N3022 1.610 . S
N3021 S3020 1.613 . S
N3021 C3024 1.350 . S
N3022 S3020 1.610 . S
N3022 C3023 1.351 . S
C3023 C3017 1.428 . S
C3023 N3022 1.351 . S
C3023 C3024 1.434 . S
C3024 C3015 1.429 . S
C3024 N3021 1.350 . S
C3024 C3023 1.434 . S
C3025 C3026 1.369 . S
C3025 C3027 1.419 . S
C3025 H3029 0.930 . S
C3026 C3025 1.369 . S
C3026 C3035 1.429 . S
C3027 C3025 1.419 . S
C3027 C3028 1.363 . S
C3027 H3030 0.929 . S
C3028 C3027 1.363 . S
C3028 C3034 1.428 . S
H3029 C3025 0.930 . S
H3030 C3027 0.929 . S
S3031 N3032 1.613 . S
S3031 N3033 1.610 . S
N3032 S3031 1.613 . S
N3032 C3035 1.350 . S
N3033 S3031 1.610 . S
N3033 C3034 1.351 . S
C3034 C3028 1.428 . S
C3034 N3033 1.351 . S
C3034 C3035 1.434 . S
C3035 C3026 1.429 . S
C3035 N3032 1.350 . S
C3035 C3034 1.434 . S
C3036 C3037 1.369 . S
C3036 C3038 1.419 . S
C3036 H3040 0.930 . S
C3037 C3036 1.369 . S
C3037 C3046 1.429 . S
C3038 C3036 1.419 . S
C3038 C3039 1.363 . S
C3038 H3041 0.929 . S
C3039 C3038 1.363 . S
C3039 C3045 1.428 . S
H3040 C3036 0.930 . S
H3041 C3038 0.929 . S
S3042 N3043 1.613 . S
S3042 N3044 1.610 . S
N3043 S3042 1.613 . S
N3043 C3046 1.350 . S
N3044 S3042 1.610 . S
N3044 C3045 1.351 . S
C3045 C3039 1.428 . S
C3045 N3044 1.351 . S
C3045 C3046 1.434 . S
C3046 C3037 1.429 . S
C3046 N3043 1.350 . S
C3046 C3045 1.434 . S
C3047 C3048 1.369 . S
C3047 C3049 1.419 . S
C3047 H3051 0.930 . S
C3048 C3047 1.369 . S
C3048 C3057 1.429 . S
C3049 C3047 1.419 . S
C3049 C3050 1.363 . S
C3049 H3052 0.929 . S
C3050 C3049 1.363 . S
C3050 C3056 1.428 . S
H3051 C3047 0.930 . S
H3052 C3049 0.929 . S
S3053 N3054 1.613 . S
S3053 N3055 1.610 . S
N3054 S3053 1.613 . S
N3054 C3057 1.350 . S
N3055 S3053 1.610 . S
N3055 C3056 1.351 . S
C3056 C3050 1.428 . S
C3056 N3055 1.351 . S
C3056 C3057 1.434 . S
C3057 C3048 1.429 . S
C3057 N3054 1.350 . S
C3057 C3056 1.434 . S
C3058 C3059 1.369 . S
C3058 C3060 1.419 . S
C3058 H3062 0.930 . S
C3059 C3058 1.369 . S
C3059 C3068 1.429 . S
C3060 C3058 1.419 . S
C3060 C3061 1.363 . S
C3060 H3063 0.929 . S
C3061 C3060 1.363 . S
C3061 C3067 1.428 . S
H3062 C3058 0.930 . S
H3063 C3060 0.929 . S
S3064 N3065 1.613 . S
S3064 N3066 1.610 . S
N3065 S3064 1.613 . S
N3065 C3068 1.350 . S
N3066 S3064 1.610 . S
N3066 C3067 1.351 . S
C3067 C3061 1.428 . S
C3067 N3066 1.351 . S
C3067 C3068 1.434 . S
C3068 C3059 1.429 . S
C3068 N3065 1.350 . S
C3068 C3067 1.434 . S
C3069 C3070 1.369 . S
C3069 C3071 1.419 . S
C3069 H3073 0.930 . S
C3070 C3069 1.369 . S
C3070 C3079 1.429 . S
C3071 C3069 1.419 . S
C3071 C3072 1.363 . S
C3071 H3074 0.929 . S
C3072 C3071 1.363 . S
C3072 C3078 1.428 . S
H3073 C3069 0.930 . S
H3074 C3071 0.929 . S
S3075 N3076 1.613 . S
S3075 N3077 1.610 . S
N3076 S3075 1.613 . S
N3076 C3079 1.350 . S
N3077 S3075 1.610 . S
N3077 C3078 1.351 . S
C3078 C3072 1.428 . S
C3078 N3077 1.351 . S
C3078 C3079 1.434 . S
C3079 C3070 1.429 . S
C3079 N3076 1.350 . S
C3079 C3078 1.434 . S
C3080 C3081 1.369 . S
C3080 C3082 1.419 . S
C3080 H3084 0.930 . S
C3081 C3080 1.369 . S
C3081 C3090 1.429 . S
C3082 C3080 1.419 . S
C3082 C3083 1.363 . S
C3082 H3085 0.929 . S
C3083 C3082 1.363 . S
C3083 C3089 1.428 . S
H3084 C3080 0.930 . S
H3085 C3082 0.929 . S
S3086 N3087 1.613 . S
S3086 N3088 1.610 . S
N3087 S3086 1.613 . S
N3087 C3090 1.350 . S
N3088 S3086 1.610 . S
N3088 C3089 1.351 . S
C3089 C3083 1.428 . S
C3089 N3088 1.351 . S
C3089 C3090 1.434 . S
C3090 C3081 1.429 . S
C3090 N3087 1.350 . S
C3090 C3089 1.434 . S
C3091 C3092 1.369 . S
C3091 C3093 1.419 . S
C3091 H3095 0.930 . S
C3092 C3091 1.369 . S
C3092 C3101 1.429 . S
C3093 C3091 1.419 . S
C3093 C3094 1.363 . S
C3093 H3096 0.929 . S
C3094 C3093 1.363 . S
C3094 C3100 1.428 . S
H3095 C3091 0.930 . S
H3096 C3093 0.929 . S
S3097 N3098 1.613 . S
S3097 N3099 1.610 . S
N3098 S3097 1.613 . S
N3098 C3101 1.350 . S
N3099 S3097 1.610 . S
N3099 C3100 1.351 . S
C3100 C3094 1.428 . S
C3100 N3099 1.351 . S
C3100 C3101 1.434 . S
C3101 C3092 1.429 . S
C3101 N3098 1.350 . S
C3101 C3100 1.434 . S
C3102 C3103 1.369 . S
C3102 C3104 1.419 . S
C3102 H3106 0.930 . S
C3103 C3102 1.369 . S
C3103 C3112 1.429 . S
C3104 C3102 1.419 . S
C3104 C3105 1.363 . S
C3104 H3107 0.929 . S
C3105 C3104 1.363 . S
C3105 C3111 1.428 . S
H3106 C3102 0.930 . S
H3107 C3104 0.929 . S
S3108 N3109 1.613 . S
S3108 N3110 1.610 . S
N3109 S3108 1.613 . S
N3109 C3112 1.350 . S
N3110 S3108 1.610 . S
N3110 C3111 1.351 . S
C3111 C3105 1.428 . S
C3111 N3110 1.351 . S
C3111 C3112 1.434 . S
C3112 C3103 1.429 . S
C3112 N3109 1.350 . S
C3112 C3111 1.434 . S
C3113 C3114 1.369 . S
C3113 C3115 1.419 . S
C3113 H3117 0.930 . S
C3114 C3113 1.369 . S
C3114 C3123 1.429 . S
C3115 C3113 1.419 . S
C3115 C3116 1.363 . S
C3115 H3118 0.929 . S
C3116 C3115 1.363 . S
C3116 C3122 1.428 . S
H3117 C3113 0.930 . S
H3118 C3115 0.929 . S
S3119 N3120 1.613 . S
S3119 N3121 1.610 . S
N3120 S3119 1.613 . S
N3120 C3123 1.350 . S
N3121 S3119 1.610 . S
N3121 C3122 1.351 . S
C3122 C3116 1.428 . S
C3122 N3121 1.351 . S
C3122 C3123 1.434 . S
C3123 C3114 1.429 . S
C3123 N3120 1.350 . S
C3123 C3122 1.434 . S
C3124 C3125 1.369 . S
C3124 C3126 1.419 . S
C3124 H3128 0.930 . S
C3125 C3124 1.369 . S
C3125 C3134 1.429 . S
C3126 C3124 1.419 . S
C3126 C3127 1.363 . S
C3126 H3129 0.929 . S
C3127 C3126 1.363 . S
C3127 C3133 1.428 . S
H3128 C3124 0.930 . S
H3129 C3126 0.929 . S
S3130 N3131 1.613 . S
S3130 N3132 1.610 . S
N3131 S3130 1.613 . S
N3131 C3134 1.350 . S
N3132 S3130 1.610 . S
N3132 C3133 1.351 . S
C3133 C3127 1.428 . S
C3133 N3132 1.351 . S
C3133 C3134 1.434 . S
C3134 C3125 1.429 . S
C3134 N3131 1.350 . S
C3134 C3133 1.434 . S
C3135 C3136 1.369 . S
C3135 C3137 1.419 . S
C3135 H3139 0.930 . S
C3136 C3135 1.369 . S
C3136 C3145 1.429 . S
C3137 C3135 1.419 . S
C3137 C3138 1.363 . S
C3137 H3140 0.929 . S
C3138 C3137 1.363 . S
C3138 C3144 1.428 . S
H3139 C3135 0.930 . S
H3140 C3137 0.929 . S
S3141 N3142 1.613 . S
S3141 N3143 1.610 . S
N3142 S3141 1.613 . S
N3142 C3145 1.350 . S
N3143 S3141 1.610 . S
N3143 C3144 1.351 . S
C3144 C3138 1.428 . S
C3144 N3143 1.351 . S
C3144 C3145 1.434 . S
C3145 C3136 1.429 . S
C3145 N3142 1.350 . S
C3145 C3144 1.434 . S
C3146 C3147 1.369 . S
C3146 C3148 1.419 . S
C3146 H3150 0.930 . S
C3147 C3146 1.369 . S
C3147 C3156 1.429 . S
C3148 C3146 1.419 . S
C3148 C3149 1.363 . S
C3148 H3151 0.929 . S
C3149 C3148 1.363 . S
C3149 C3155 1.428 . S
H3150 C3146 0.930 . S
H3151 C3148 0.929 . S
S3152 N3153 1.613 . S
S3152 N3154 1.610 . S
N3153 S3152 1.613 . S
N3153 C3156 1.350 . S
N3154 S3152 1.610 . S
N3154 C3155 1.351 . S
C3155 C3149 1.428 . S
C3155 N3154 1.351 . S
C3155 C3156 1.434 . S
C3156 C3147 1.429 . S
C3156 N3153 1.350 . S
C3156 C3155 1.434 . S
C3157 C3158 1.369 . S
C3157 C3159 1.419 . S
C3157 H3161 0.930 . S
C3158 C3157 1.369 . S
C3158 C3167 1.429 . S
C3159 C3157 1.419 . S
C3159 C3160 1.363 . S
C3159 H3162 0.929 . S
C3160 C3159 1.363 . S
C3160 C3166 1.428 . S
H3161 C3157 0.930 . S
H3162 C3159 0.929 . S
S3163 N3164 1.613 . S
S3163 N3165 1.610 . S
N3164 S3163 1.613 . S
N3164 C3167 1.350 . S
N3165 S3163 1.610 . S
N3165 C3166 1.351 . S
C3166 C3160 1.428 . S
C3166 N3165 1.351 . S
C3166 C3167 1.434 . S
C3167 C3158 1.429 . S
C3167 N3164 1.350 . S
C3167 C3166 1.434 . S
C3168 C3169 1.369 . S
C3168 C3170 1.419 . S
C3168 H3172 0.930 . S
C3169 C3168 1.369 . S
C3169 C3178 1.429 . S
C3170 C3168 1.419 . S
C3170 C3171 1.363 . S
C3170 H3173 0.929 . S
C3171 C3170 1.363 . S
C3171 C3177 1.428 . S
H3172 C3168 0.930 . S
H3173 C3170 0.929 . S
S3174 N3175 1.613 . S
S3174 N3176 1.610 . S
N3175 S3174 1.613 . S
N3175 C3178 1.350 . S
N3176 S3174 1.610 . S
N3176 C3177 1.351 . S
C3177 C3171 1.428 . S
C3177 N3176 1.351 . S
C3177 C3178 1.434 . S
C3178 C3169 1.429 . S
C3178 N3175 1.350 . S
C3178 C3177 1.434 . S
C3179 C3180 1.354 1_665 S
C3179 C3181 1.419 . S
C3179 H3183 0.930 . S
C3180 C3179 1.354 1_445 S
C3180 C3189 1.444 . S
C3181 C3179 1.419 . S
C3181 C3182 1.373 . S
C3181 H3184 0.929 . S
C3182 C3181 1.373 . S
C3182 C3188 1.417 1_665 S
H3183 C3179 0.930 . S
H3184 C3181 0.929 . S
S3185 N3186 1.613 . S
S3185 N3187 1.610 . S
N3186 S3185 1.613 . S
N3186 C3189 1.350 . S
N3187 S3185 1.610 . S
N3187 C3188 1.351 . S
C3188 C3182 1.417 1_445 S
C3188 N3187 1.351 . S
C3188 C3189 1.434 . S
C3189 C3180 1.444 . S
C3189 N3186 1.350 . S
C3189 C3188 1.434 . S
C3190 C3191 1.369 . S
C3190 C3192 1.419 . S
C3190 H3194 0.930 . S
C3191 C3190 1.369 . S
C3191 C3200 1.429 . S
C3192 C3190 1.419 . S
C3192 C3193 1.363 . S
C3192 H3195 0.929 . S
C3193 C3192 1.363 . S
C3193 C3199 1.428 . S
H3194 C3190 0.930 . S
H3195 C3192 0.929 . S
S3196 N3197 1.613 . S
S3196 N3198 1.610 . S
N3197 S3196 1.613 . S
N3197 C3200 1.350 . S
N3198 S3196 1.610 . S
N3198 C3199 1.351 . S
C3199 C3193 1.428 . S
C3199 N3198 1.351 . S
C3199 C3200 1.434 . S
C3200 C3191 1.429 . S
C3200 N3197 1.350 . S
C3200 C3199 1.434 . S
C3201 C3202 1.344 1_545 S
C3201 C3203 1.419 1_554 S
C3201 H3205 0.930 . S
C3202 C3201 1.344 1_565 S
C3202 C3211 1.454 . S
C3203 C3201 1.419 1_556 S
C3203 C3204 1.380 . S
C3203 H3206 0.929 . S
C3204 C3203 1.380 . S
C3204 C3210 1.410 1_545 S
H3205 C3201 0.930 . S
H3206 C3203 0.929 . S
S3207 N3208 1.613 . S
S3207 N3209 1.610 1_554 S
N3208 S3207 1.613 . S
N3208 C3211 1.350 . S
N3209 S3207 1.610 1_556 S
N3209 C3210 1.351 . S
C3210 C3204 1.410 1_565 S
C3210 N3209 1.351 . S
C3210 C3211 1.434 1_556 S
C3211 C3202 1.454 . S
C3211 N3208 1.350 . S
C3211 C3210 1.434 1_554 S
C3212 C3213 1.369 . S
C3212 C3214 1.419 . S
C3212 H3216 0.930 . S
C3213 C3212 1.369 . S
C3213 C3222 1.429 . S
C3214 C3212 1.419 . S
C3214 C3215 1.363 . S
C3214 H3217 0.929 . S
C3215 C3214 1.363 . S
C3215 C3221 1.428 . S
H3216 C3212 0.930 . S
H3217 C3214 0.929 . S
S3218 N3219 1.613 . S
S3218 N3220 1.610 . S
N3219 S3218 1.613 . S
N3219 C3222 1.350 . S
N3220 S3218 1.610 . S
N3220 C3221 1.351 . S
C3221 C3215 1.428 . S
C3221 N3220 1.351 . S
C3221 C3222 1.434 . S
C3222 C3213 1.429 . S
C3222 N3219 1.350 . S
C3222 C3221 1.434 . S
C3223 C3224 1.355 1_565 S
C3223 C3225 1.419 . S
C3223 H3227 0.930 . S
C3224 C3223 1.355 1_545 S
C3224 C3233 1.443 . S
C3225 C3223 1.419 . S
C3225 C3226 1.379 . S
C3225 H3228 0.929 . S
C3226 C3225 1.379 . S
C3226 C3232 1.412 1_565 S
H3227 C3223 0.930 . S
H3228 C3225 0.929 . S
S3229 N3230 1.613 . S
S3229 N3231 1.610 . S
N3230 S3229 1.613 . S
N3230 C3233 1.350 . S
N3231 S3229 1.610 . S
N3231 C3232 1.351 . S
C3232 C3226 1.412 1_545 S
C3232 N3231 1.351 . S
C3232 C3233 1.434 . S
C3233 C3224 1.443 . S
C3233 N3230 1.350 . S
C3233 C3232 1.434 . S
C3234 C3235 1.369 . S
C3234 C3236 1.419 . S
C3234 H3238 0.930 . S
C3235 C3234 1.369 . S
C3235 C3244 1.429 . S
C3236 C3234 1.419 . S
C3236 C3237 1.363 . S
C3236 H3239 0.929 . S
C3237 C3236 1.363 . S
C3237 C3243 1.428 . S
H3238 C3234 0.930 . S
H3239 C3236 0.929 . S
S3240 N3241 1.613 . S
S3240 N3242 1.610 . S
N3241 S3240 1.613 . S
N3241 C3244 1.350 . S
N3242 S3240 1.610 . S
N3242 C3243 1.351 . S
C3243 C3237 1.428 . S
C3243 N3242 1.351 . S
C3243 C3244 1.434 . S
C3244 C3235 1.429 . S
C3244 N3241 1.350 . S
C3244 C3243 1.434 . S
C3245 C3246 1.370 . S
C3245 C3247 1.419 1_456 S
C3245 H3249 0.930 . S
C3246 C3245 1.370 . S
C3246 C3255 1.428 1_565 S
C3247 C3245 1.419 1_654 S
C3247 C3248 1.325 1_565 S
C3247 H3250 0.929 . S
C3248 C3247 1.325 1_545 S
C3248 C3254 1.467 . S
H3249 C3245 0.930 . S
H3250 C3247 0.929 . S
S3251 N3252 1.580 1_554 S
S3251 N3253 1.643 1_455 S
N3252 S3251 1.580 1_556 S
N3252 C3255 1.350 . S
N3253 S3251 1.643 1_655 S
N3253 C3254 1.351 . S
C3254 C3248 1.467 . S
C3254 N3253 1.351 . S
C3254 C3255 1.434 1_654 S
C3255 C3246 1.428 1_545 S
C3255 N3252 1.350 . S
C3255 C3254 1.434 1_456 S
C3256 C3257 1.369 . S
C3256 C3258 1.419 . S
C3256 H3260 0.930 . S
C3257 C3256 1.369 . S
C3257 C3266 1.429 . S
C3258 C3256 1.419 . S
C3258 C3259 1.363 . S
C3258 H3261 0.929 . S
C3259 C3258 1.363 . S
C3259 C3265 1.428 . S
H3260 C3256 0.930 . S
H3261 C3258 0.929 . S
S3262 N3263 1.613 . S
S3262 N3264 1.610 . S
N3263 S3262 1.613 . S
N3263 C3266 1.350 . S
N3264 S3262 1.610 . S
N3264 C3265 1.351 . S
C3265 C3259 1.428 . S
C3265 N3264 1.351 . S
C3265 C3266 1.434 . S
C3266 C3257 1.429 . S
C3266 N3263 1.350 . S
C3266 C3265 1.434 . S
C3267 C3268 1.369 . S
C3267 C3269 1.419 . S
C3267 H3271 0.930 . S
C3268 C3267 1.369 . S
C3268 C3277 1.429 . S
C3269 C3267 1.419 . S
C3269 C3270 1.363 . S
C3269 H3272 0.929 . S
C3270 C3269 1.363 . S
C3270 C3276 1.428 . S
H3271 C3267 0.930 . S
H3272 C3269 0.929 . S
S3273 N3274 1.613 . S
S3273 N3275 1.610 . S
N3274 S3273 1.613 . S
N3274 C3277 1.350 . S
N3275 S3273 1.610 . S
N3275 C3276 1.351 . S
C3276 C3270 1.428 . S
C3276 N3275 1.351 . S
C3276 C3277 1.434 . S
C3277 C3268 1.429 . S
C3277 N3274 1.350 . S
C3277 C3276 1.434 . S
C3278 C3279 1.369 . S
C3278 C3280 1.419 . S
C3278 H3282 0.930 . S
C3279 C3278 1.369 . S
C3279 C3288 1.429 . S
C3280 C3278 1.419 . S
C3280 C3281 1.363 . S
C3280 H3283 0.929 . S
C3281 C3280 1.363 . S
C3281 C3287 1.428 . S
H3282 C3278 0.930 . S
H3283 C3280 0.929 . S
S3284 N3285 1.613 . S
S3284 N3286 1.610 . S
N3285 S3284 1.613 . S
N3285 C3288 1.350 . S
N3286 S3284 1.610 . S
N3286 C3287 1.351 . S
C3287 C3281 1.428 . S
C3287 N3286 1.351 . S
C3287 C3288 1.434 . S
C3288 C3279 1.429 . S
C3288 N3285 1.350 . S
C3288 C3287 1.434 . S
C3289 C3290 1.369 . S
C3289 C3291 1.419 . S
C3289 H3293 0.930 . S
C3290 C3289 1.369 . S
C3290 C3299 1.429 . S
C3291 C3289 1.419 . S
C3291 C3292 1.363 . S
C3291 H3294 0.929 . S
C3292 C3291 1.363 . S
C3292 C3298 1.428 . S
H3293 C3289 0.930 . S
H3294 C3291 0.929 . S
S3295 N3296 1.613 . S
S3295 N3297 1.610 . S
N3296 S3295 1.613 . S
N3296 C3299 1.350 . S
N3297 S3295 1.610 . S
N3297 C3298 1.351 . S
C3298 C3292 1.428 . S
C3298 N3297 1.351 . S
C3298 C3299 1.434 . S
C3299 C3290 1.429 . S
C3299 N3296 1.350 . S
C3299 C3298 1.434 . S
C3300 C3301 1.369 . S
C3300 C3302 1.419 1_554 S
C3300 H3304 0.930 . S
C3301 C3300 1.369 . S
C3301 C3310 1.429 . S
C3302 C3300 1.419 1_556 S
C3302 C3303 1.363 . S
C3302 H3305 0.929 . S
C3303 C3302 1.363 . S
C3303 C3309 1.428 . S
H3304 C3300 0.930 . S
H3305 C3302 0.929 . S
S3306 N3307 1.613 . S
S3306 N3308 1.610 1_554 S
N3307 S3306 1.613 . S
N3307 C3310 1.350 . S
N3308 S3306 1.610 1_556 S
N3308 C3309 1.351 . S
C3309 C3303 1.428 . S
C3309 N3308 1.351 . S
C3309 C3310 1.434 1_556 S
C3310 C3301 1.429 . S
C3310 N3307 1.350 . S
C3310 C3309 1.434 1_554 S
C3311 C3312 1.369 1_655 S
C3311 C3313 1.419 . S
C3311 H3315 0.930 . S
C3312 C3311 1.369 1_455 S
C3312 C3321 1.429 . S
C3313 C3311 1.419 . S
C3313 C3314 1.363 . S
C3313 H3316 0.929 . S
C3314 C3313 1.363 . S
C3314 C3320 1.428 1_655 S
H3315 C3311 0.930 . S
H3316 C3313 0.929 . S
S3317 N3318 1.613 . S
S3317 N3319 1.610 . S
N3318 S3317 1.613 . S
N3318 C3321 1.350 . S
N3319 S3317 1.610 . S
N3319 C3320 1.351 . S
C3320 C3314 1.428 1_455 S
C3320 N3319 1.351 . S
C3320 C3321 1.434 . S
C3321 C3312 1.429 . S
C3321 N3318 1.350 . S
C3321 C3320 1.434 . S
C3322 C3323 1.369 . S
C3322 C3324 1.419 1_554 S
C3322 H3326 0.930 . S
C3323 C3322 1.369 . S
C3323 C3332 1.429 1_455 S
C3324 C3322 1.419 1_556 S
C3324 C3325 1.363 1_455 S
C3324 H3327 0.929 . S
C3325 C3324 1.363 1_655 S
C3325 C3331 1.428 . S
H3326 C3322 0.930 . S
H3327 C3324 0.929 . S
S3328 N3329 1.613 . S
S3328 N3330 1.610 1_554 S
N3329 S3328 1.613 . S
N3329 C3332 1.350 . S
N3330 S3328 1.610 1_556 S
N3330 C3331 1.351 . S
C3331 C3325 1.428 . S
C3331 N3330 1.351 . S
C3331 C3332 1.434 1_556 S
C3332 C3323 1.429 1_655 S
C3332 N3329 1.350 . S
C3332 C3331 1.434 1_554 S
C3333 C3334 1.369 . S
C3333 C3335 1.419 . S
C3333 H3337 0.930 . S
C3334 C3333 1.369 . S
C3334 C3343 1.429 . S
C3335 C3333 1.419 . S
C3335 C3336 1.363 . S
C3335 H3338 0.929 . S
C3336 C3335 1.363 . S
C3336 C3342 1.428 . S
H3337 C3333 0.930 . S
H3338 C3335 0.929 . S
S3339 N3340 1.613 . S
S3339 N3341 1.610 . S
N3340 S3339 1.613 . S
N3340 C3343 1.350 . S
N3341 S3339 1.610 . S
N3341 C3342 1.351 . S
C3342 C3336 1.428 . S
C3342 N3341 1.351 . S
C3342 C3343 1.434 . S
C3343 C3334 1.429 . S
C3343 N3340 1.350 . S
C3343 C3342 1.434 . S
C3344 C3345 1.369 . S
C3344 C3346 1.419 . S
C3344 H3348 0.930 . S
C3345 C3344 1.369 . S
C3345 C3354 1.429 . S
C3346 C3344 1.419 . S
C3346 C3347 1.363 . S
C3346 H3349 0.929 . S
C3347 C3346 1.363 . S
C3347 C3353 1.428 . S
H3348 C3344 0.930 . S
H3349 C3346 0.929 . S
S3350 N3351 1.613 . S
S3350 N3352 1.610 . S
N3351 S3350 1.613 . S
N3351 C3354 1.350 . S
N3352 S3350 1.610 . S
N3352 C3353 1.351 . S
C3353 C3347 1.428 . S
C3353 N3352 1.351 . S
C3353 C3354 1.434 . S
C3354 C3345 1.429 . S
C3354 N3351 1.350 . S
C3354 C3353 1.434 . S
C3355 C3356 1.369 . S
C3355 C3357 1.419 . S
C3355 H3359 0.930 . S
C3356 C3355 1.369 . S
C3356 C3365 1.429 . S
C3357 C3355 1.419 . S
C3357 C3358 1.363 . S
C3357 H3360 0.929 . S
C3358 C3357 1.363 . S
C3358 C3364 1.428 . S
H3359 C3355 0.930 . S
H3360 C3357 0.929 . S
S3361 N3362 1.613 . S
S3361 N3363 1.610 . S
N3362 S3361 1.613 . S
N3362 C3365 1.350 . S
N3363 S3361 1.610 . S
N3363 C3364 1.351 . S
C3364 C3358 1.428 . S
C3364 N3363 1.351 . S
C3364 C3365 1.434 . S
C3365 C3356 1.429 . S
C3365 N3362 1.350 . S
C3365 C3364 1.434 . S
C3366 C3367 1.369 . S
C3366 C3368 1.419 . S
C3366 H3370 0.930 . S
C3367 C3366 1.369 . S
C3367 C3376 1.429 . S
C3368 C3366 1.419 . S
C3368 C3369 1.363 . S
C3368 H3371 0.929 . S
C3369 C3368 1.363 . S
C3369 C3375 1.428 . S
H3370 C3366 0.930 . S
H3371 C3368 0.929 . S
S3372 N3373 1.613 . S
S3372 N3374 1.610 . S
N3373 S3372 1.613 . S
N3373 C3376 1.350 . S
N3374 S3372 1.610 . S
N3374 C3375 1.351 . S
C3375 C3369 1.428 . S
C3375 N3374 1.351 . S
C3375 C3376 1.434 . S
C3376 C3367 1.429 . S
C3376 N3373 1.350 . S
C3376 C3375 1.434 . S
C3377 C3378 1.369 . S
C3377 C3379 1.419 . S
C3377 H3381 0.930 . S
C3378 C3377 1.369 . S
C3378 C3387 1.429 . S
C3379 C3377 1.419 . S
C3379 C3380 1.363 . S
C3379 H3382 0.929 . S
C3380 C3379 1.363 . S
C3380 C3386 1.428 . S
H3381 C3377 0.930 . S
H3382 C3379 0.929 . S
S3383 N3384 1.613 . S
S3383 N3385 1.610 . S
N3384 S3383 1.613 . S
N3384 C3387 1.350 . S
N3385 S3383 1.610 . S
N3385 C3386 1.351 . S
C3386 C3380 1.428 . S
C3386 N3385 1.351 . S
C3386 C3387 1.434 . S
C3387 C3378 1.429 . S
C3387 N3384 1.350 . S
C3387 C3386 1.434 . S
C3388 C3389 1.369 . S
C3388 C3390 1.419 . S
C3388 H3392 0.930 . S
C3389 C3388 1.369 . S
C3389 C3398 1.429 . S
C3390 C3388 1.419 . S
C3390 C3391 1.363 . S
C3390 H3393 0.929 . S
C3391 C3390 1.363 . S
C3391 C3397 1.428 . S
H3392 C3388 0.930 . S
H3393 C3390 0.929 . S
S3394 N3395 1.613 . S
S3394 N3396 1.610 . S
N3395 S3394 1.613 . S
N3395 C3398 1.350 . S
N3396 S3394 1.610 . S
N3396 C3397 1.351 . S
C3397 C3391 1.428 . S
C3397 N3396 1.351 . S
C3397 C3398 1.434 . S
C3398 C3389 1.429 . S
C3398 N3395 1.350 . S
C3398 C3397 1.434 . S
C3399 C3400 1.369 . S
C3399 C3401 1.419 . S
C3399 H3403 0.930 . S
C3400 C3399 1.369 . S
C3400 C3409 1.429 . S
C3401 C3399 1.419 . S
C3401 C3402 1.363 . S
C3401 H3404 0.929 . S
C3402 C3401 1.363 . S
C3402 C3408 1.428 . S
H3403 C3399 0.930 . S
H3404 C3401 0.929 . S
S3405 N3406 1.613 . S
S3405 N3407 1.610 . S
N3406 S3405 1.613 . S
N3406 C3409 1.350 . S
N3407 S3405 1.610 . S
N3407 C3408 1.351 . S
C3408 C3402 1.428 . S
C3408 N3407 1.351 . S
C3408 C3409 1.434 . S
C3409 C3400 1.429 . S
C3409 N3406 1.350 . S
C3409 C3408 1.434 . S
C3410 C3411 1.369 . S
C3410 C3412 1.419 . S
C3410 H3414 0.930 . S
C3411 C3410 1.369 . S
C3411 C3420 1.429 . S
C3412 C3410 1.419 . S
C3412 C3413 1.363 . S
C3412 H3415 0.929 . S
C3413 C3412 1.363 . S
C3413 C3419 1.428 . S
H3414 C3410 0.930 . S
H3415 C3412 0.929 . S
S3416 N3417 1.613 . S
S3416 N3418 1.610 . S
N3417 S3416 1.613 . S
N3417 C3420 1.350 . S
N3418 S3416 1.610 . S
N3418 C3419 1.351 . S
C3419 C3413 1.428 . S
C3419 N3418 1.351 . S
C3419 C3420 1.434 . S
C3420 C3411 1.429 . S
C3420 N3417 1.350 . S
C3420 C3419 1.434 . S
C3421 C3422 1.369 . S
C3421 C3423 1.419 . S
C3421 H3425 0.930 . S
C3422 C3421 1.369 . S
C3422 C3431 1.429 . S
C3423 C3421 1.419 . S
C3423 C3424 1.363 . S
C3423 H3426 0.929 . S
C3424 C3423 1.363 . S
C3424 C3430 1.428 . S
H3425 C3421 0.930 . S
H3426 C3423 0.929 . S
S3427 N3428 1.613 . S
S3427 N3429 1.610 . S
N3428 S3427 1.613 . S
N3428 C3431 1.350 . S
N3429 S3427 1.610 . S
N3429 C3430 1.351 . S
C3430 C3424 1.428 . S
C3430 N3429 1.351 . S
C3430 C3431 1.434 . S
C3431 C3422 1.429 . S
C3431 N3428 1.350 . S
C3431 C3430 1.434 . S
C3432 C3433 1.369 . S
C3432 C3434 1.419 . S
C3432 H3436 0.930 . S
C3433 C3432 1.369 . S
C3433 C3442 1.429 . S
C3434 C3432 1.419 . S
C3434 C3435 1.363 . S
C3434 H3437 0.929 . S
C3435 C3434 1.363 . S
C3435 C3441 1.428 . S
H3436 C3432 0.930 . S
H3437 C3434 0.929 . S
S3438 N3439 1.613 . S
S3438 N3440 1.610 . S
N3439 S3438 1.613 . S
N3439 C3442 1.350 . S
N3440 S3438 1.610 . S
N3440 C3441 1.351 . S
C3441 C3435 1.428 . S
C3441 N3440 1.351 . S
C3441 C3442 1.434 . S
C3442 C3433 1.429 . S
C3442 N3439 1.350 . S
C3442 C3441 1.434 . S
C3443 C3444 1.369 . S
C3443 C3445 1.419 . S
C3443 H3447 0.930 . S
C3444 C3443 1.369 . S
C3444 C3453 1.429 . S
C3445 C3443 1.419 . S
C3445 C3446 1.363 . S
C3445 H3448 0.929 . S
C3446 C3445 1.363 . S
C3446 C3452 1.428 . S
H3447 C3443 0.930 . S
H3448 C3445 0.929 . S
S3449 N3450 1.613 . S
S3449 N3451 1.610 . S
N3450 S3449 1.613 . S
N3450 C3453 1.350 . S
N3451 S3449 1.610 . S
N3451 C3452 1.351 . S
C3452 C3446 1.428 . S
C3452 N3451 1.351 . S
C3452 C3453 1.434 . S
C3453 C3444 1.429 . S
C3453 N3450 1.350 . S
C3453 C3452 1.434 . S
C3454 C3455 1.369 . S
C3454 C3456 1.419 . S
C3454 H3458 0.930 . S
C3455 C3454 1.369 . S
C3455 C3464 1.429 . S
C3456 C3454 1.419 . S
C3456 C3457 1.363 . S
C3456 H3459 0.929 . S
C3457 C3456 1.363 . S
C3457 C3463 1.428 . S
H3458 C3454 0.930 . S
H3459 C3456 0.929 . S
S3460 N3461 1.613 . S
S3460 N3462 1.610 . S
N3461 S3460 1.613 . S
N3461 C3464 1.350 . S
N3462 S3460 1.610 . S
N3462 C3463 1.351 . S
C3463 C3457 1.428 . S
C3463 N3462 1.351 . S
C3463 C3464 1.434 . S
C3464 C3455 1.429 . S
C3464 N3461 1.350 . S
C3464 C3463 1.434 . S
C3465 C3466 1.369 . S
C3465 C3467 1.419 . S
C3465 H3469 0.930 . S
C3466 C3465 1.369 . S
C3466 C3475 1.429 . S
C3467 C3465 1.419 . S
C3467 C3468 1.363 . S
C3467 H3470 0.929 . S
C3468 C3467 1.363 . S
C3468 C3474 1.428 . S
H3469 C3465 0.930 . S
H3470 C3467 0.929 . S
S3471 N3472 1.613 . S
S3471 N3473 1.610 . S
N3472 S3471 1.613 . S
N3472 C3475 1.350 . S
N3473 S3471 1.610 . S
N3473 C3474 1.351 . S
C3474 C3468 1.428 . S
C3474 N3473 1.351 . S
C3474 C3475 1.434 . S
C3475 C3466 1.429 . S
C3475 N3472 1.350 . S
C3475 C3474 1.434 . S
C3476 C3477 1.369 . S
C3476 C3478 1.419 . S
C3476 H3480 0.930 . S
C3477 C3476 1.369 . S
C3477 C3486 1.429 . S
C3478 C3476 1.419 . S
C3478 C3479 1.363 . S
C3478 H3481 0.929 . S
C3479 C3478 1.363 . S
C3479 C3485 1.428 . S
H3480 C3476 0.930 . S
H3481 C3478 0.929 . S
S3482 N3483 1.613 . S
S3482 N3484 1.610 . S
N3483 S3482 1.613 . S
N3483 C3486 1.350 . S
N3484 S3482 1.610 . S
N3484 C3485 1.351 . S
C3485 C3479 1.428 . S
C3485 N3484 1.351 . S
C3485 C3486 1.434 . S
C3486 C3477 1.429 . S
C3486 N3483 1.350 . S
C3486 C3485 1.434 . S
C3487 C3488 1.369 . S
C3487 C3489 1.419 . S
C3487 H3491 0.930 . S
C3488 C3487 1.369 . S
C3488 C3497 1.429 . S
C3489 C3487 1.419 . S
C3489 C3490 1.363 . S
C3489 H3492 0.929 . S
C3490 C3489 1.363 . S
C3490 C3496 1.428 . S
H3491 C3487 0.930 . S
H3492 C3489 0.929 . S
S3493 N3494 1.613 . S
S3493 N3495 1.610 . S
N3494 S3493 1.613 . S
N3494 C3497 1.350 . S
N3495 S3493 1.610 . S
N3495 C3496 1.351 . S
C3496 C3490 1.428 . S
C3496 N3495 1.351 . S
C3496 C3497 1.434 . S
C3497 C3488 1.429 . S
C3497 N3494 1.350 . S
C3497 C3496 1.434 . S
C3498 C3499 1.369 . S
C3498 C3500 1.419 . S
C3498 H3502 0.930 . S
C3499 C3498 1.369 . S
C3499 C3508 1.429 . S
C3500 C3498 1.419 . S
C3500 C3501 1.363 . S
C3500 H3503 0.929 . S
C3501 C3500 1.363 . S
C3501 C3507 1.428 . S
H3502 C3498 0.930 . S
H3503 C3500 0.929 . S
S3504 N3505 1.613 . S
S3504 N3506 1.610 . S
N3505 S3504 1.613 . S
N3505 C3508 1.350 . S
N3506 S3504 1.610 . S
N3506 C3507 1.351 . S
C3507 C3501 1.428 . S
C3507 N3506 1.351 . S
C3507 C3508 1.434 . S
C3508 C3499 1.429 . S
C3508 N3505 1.350 . S
C3508 C3507 1.434 . S
C3509 C3510 1.369 . S
C3509 C3511 1.419 . S
C3509 H3513 0.930 . S
C3510 C3509 1.369 . S
C3510 C3519 1.429 . S
C3511 C3509 1.419 . S
C3511 C3512 1.363 . S
C3511 H3514 0.929 . S
C3512 C3511 1.363 . S
C3512 C3518 1.428 . S
H3513 C3509 0.930 . S
H3514 C3511 0.929 . S
S3515 N3516 1.613 . S
S3515 N3517 1.610 . S
N3516 S3515 1.613 . S
N3516 C3519 1.350 . S
N3517 S3515 1.610 . S
N3517 C3518 1.351 . S
C3518 C3512 1.428 . S
C3518 N3517 1.351 . S
C3518 C3519 1.434 . S
C3519 C3510 1.429 . S
C3519 N3516 1.350 . S
C3519 C3518 1.434 . S
C2817 C2396 1.536 . S
C2819 C29 1.441 . S
C2828 C108 1.448 . S
C2830 C733 1.533 . S
C2839 C2257 1.535 . S
C2841 C205 1.444 . S
C2850 C293 1.451 . S
C2852 C937 1.531 . S
C2861 C401 1.440 . S
C2863 C2572 1.535 . S
C2872 C497 1.451 . S
C2874 C1252 1.531 . S
C2883 C577 1.439 . S
C2885 C2757 1.535 . S
C2894 C665 1.449 . S
C2896 C1105 1.533 . S
C2905 C1692 1.533 . S
C2907 C753 1.442 . S
C2916 C20 1.527 . S
C2918 C812 1.448 . S
C2927 C1525 1.533 . S
C2929 C900 1.440 . S
C2938 C988 1.440 . S
C2940 C196 1.533 . S
C2949 C1897 1.529 . S
C2951 C1085 1.444 . S
C2960 C585 1.530 . S
C2962 C1201 1.442 . S
C2971 C1289 1.447 . S
C2973 C2081 1.530 . S
C2982 C409 1.531 . S
C2984 C1377 1.441 . S
C2993 C1428 1.439 . S
C2995 C1025 1.535 . S
C3004 C1516 1.451 . S
C3006 C2141 1.530 . S
C3015 C849 1.531 . S
C3017 C1613 1.446 . S
C3026 C2345 1.536 . S
C3028 C1701 1.442 . S
C3037 C1164 1.536 . S
C3039 C1809 1.441 . S
C3048 C2660 1.536 . S
C3050 C1905 1.442 . S
C3059 C1340 1.536 . S
C3061 C1993 1.442 . S
C3070 C2073 1.439 . S
C3072 C2513 1.535 . S
C3081 C284 1.528 . S
C3083 C2161 1.448 . S
C3092 C2220 1.440 . S
C3094 C1437 1.530 . S
C3103 C2308 1.437 . S
C3105 C117 1.532 . S
C3114 C2433 1.438 . S
C3116 C1604 1.531 . S
C3125 C2493 1.450 . S
C3127 C489 1.528 . S
C3136 C2609 1.445 . S
C3138 C1985 1.529 . S
C3147 C2697 1.449 . S
C3149 C673 1.528 . S
C3158 C2777 1.449 . S
C3160 C1817 1.529 . S
C3169 C2169 1.580 . S
C3171 C49 1.585 . S
C3180 C145 1.585 1_545 S
C3182 C821 1.577 1_565 S
C3191 C2317 1.578 . S
C3193 C225 1.587 . S
C3202 C313 1.582 1_565 S
C3204 C997 1.580 1_545 S
C3213 C2484 1.583 . S
C3215 C381 1.582 . S
C3224 C460 1.581 1_545 S
C3226 C1193 1.580 1_565 S
C3235 C2689 1.582 . S
C3237 C557 1.583 . S
C3246 C645 1.584 1_565 S
C3248 C1369 1.578 1_545 S
C3257 C761 1.580 . S
C3259 C1465 1.584 . S
C3268 C909 1.579 . S
C3270 C1633 1.585 . S
C3279 C1076 1.583 . S
C3281 C1789 1.582 . S
C3290 C1281 1.581 . S
C3292 C1956 1.584 . S
C3301 C1553 1.583 . S
C3303 C2229 1.582 . S
C3312 C2425 1.582 . S
C3314 C1721 1.583 . S
C3323 C2601 1.578 . S
C3325 C1868 1.586 . S
C3334 C2053 1.585 . S
C3336 C2785 1.580 . S
C3345 C57 1.219 . S
C3347 C469 1.227 . S
C3356 C137 1.229 . S
C3358 C548 1.221 . S
C3367 C233 1.230 . S
C3369 C636 1.224 . S
C3378 C372 1.221 . S
C3380 C321 1.229 . S
C3389 C724 1.212 . S
C3391 C1173 1.218 . S
C3400 C841 1.222 . S
C3402 C1261 1.220 . S
C3411 C929 1.223 . S
C3413 C1349 1.217 . S
C3422 C1017 1.222 . S
C3424 C1113 1.215 . S
C3433 C1457 1.220 . S
C3435 C1877 1.225 . S
C3444 C1965 1.230 . S
C3446 C1545 1.225 . S
C3455 C1641 1.229 . S
C3457 C2044 1.225 . S
C3466 C1729 1.230 . S
C3468 C1780 1.222 . S
C3477 C2581 1.222 . S
C3479 C2132 1.215 . S
C3488 C2249 1.214 . S
C3490 C2669 1.215 . S
C3499 C2748 1.223 . S
C3501 C2337 1.218 . S
C3510 C2405 1.213 . S
C3512 C2521 1.216 . S
