# Generated by pormake.
# Topology bto, (3)-cn, num edge types: 1
# Building blocks:
#     Node 0, Type 0, BuildingBlock: WUSLED_clean_sbu_0, # of connection points: 3
#     Node 1, Type 0, BuildingBlock: WUSLED_clean_sbu_0, # of connection points: 3
#     Node 2, Type 0, BuildingBlock: WUSLED_clean_sbu_0, # of connection points: 3
#     Node 3, Type 0, BuildingBlock: WUSLED_clean_sbu_0, # of connection points: 3
#     Node 4, Type 0, BuildingBlock: WUSLED_clean_sbu_0, # of connection points: 3
#     Node 5, Type 0, BuildingBlock: WUSLED_clean_sbu_0, # of connection points: 3
#     Edge 6, Type (0, 0), BuildingBlock: FUNLAD_clean_linker_1, # of connection points: 2
#     Edge 7, Type (0, 0), BuildingBlock: FUNLAD_clean_linker_1, # of connection points: 2
#     Edge 8, Type (0, 0), BuildingBlock: FUNLAD_clean_linker_1, # of connection points: 2
#     Edge 9, Type (0, 0), BuildingBlock: FUNLAD_clean_linker_1, # of connection points: 2
#     Edge 10, Type (0, 0), BuildingBlock: FUNLAD_clean_linker_1, # of connection points: 2
#     Edge 11, Type (0, 0), BuildingBlock: FUNLAD_clean_linker_1, # of connection points: 2
#     Edge 12, Type (0, 0), BuildingBlock: FUNLAD_clean_linker_1, # of connection points: 2
#     Edge 13, Type (0, 0), BuildingBlock: FUNLAD_clean_linker_1, # of connection points: 2
#     Edge 14, Type (0, 0), BuildingBlock: FUNLAD_clean_linker_1, # of connection points: 2
# Relax obj value: 0.000
# Max RMSD: 0.003
# Mean RMSD: 0.003
data_MOF--net-bto--node1-WUSLED_clean_sbu_0--edge1-FUNLAD_clean_linker_1
_symmetry_space_group_name_H-M    P1
_symmetry_Int_Tables_number       1
_symmetry_cell_setting            triclinic
loop_
_symmetry_equiv_pos_as_xyz
'x, y, z'
_cell_length_a     42.400405
_cell_length_b     42.733753
_cell_length_c     105.59751
_cell_angle_alpha  88.896449
_cell_angle_beta   90.465806
_cell_angle_gamma 120.13835
loop_
_atom_site_label
_atom_site_type_symbol
_atom_site_fract_x
_atom_site_fract_y
_atom_site_fract_z
_atom_type_partial_charge
C0 C 0.96438 0.52117 0.04486 0.0
C1 C 0.94059 0.49739 0.03571 0.0
C2 C 0.90274 0.5257 0.0363 0.0
C3 C 0.91022 0.49954 0.03147 0.0
C4 C 0.92639 0.54916 0.0456 0.0
C5 C 0.95673 0.54693 0.04985 0.0
U6 U 0.03604 0.51828 0.06785 0.0
O7 O 0.06453 0.48717 0.06587 0.0
O8 O 0.09587 0.54645 0.06591 0.0
C9 C 0.09682 0.51636 0.0647 0.0
C10 C 0.99826 0.52033 0.04815 0.0
C11 C 0.12198 0.51608 0.055 0.0
C12 C 0.15759 0.53867 0.03549 0.0
C13 C 0.13123 0.53735 0.04384 0.0
C14 C 0.16547 0.49709 0.04915 0.0
C15 C 0.17561 0.51909 0.03811 0.0
C16 C 0.13913 0.49575 0.05746 0.0
C17 C 0.02031 0.51503 0.10473 0.0
C18 C 0.04147 0.54447 0.12522 0.0
C19 C 1.00773 0.47922 0.12431 0.0
C20 C 1.00512 0.48133 0.1111 0.0
C21 C 0.0255 0.51063 0.13161 0.0
C22 C 0.03877 0.54658 0.11198 0.0
C23 C 1.01227 0.51711 0.09101 0.0
O24 O 0.02523 0.54936 0.05328 0.0
O25 O 0.9941 0.4901 0.05316 0.0
O26 O 1.00174 0.48798 0.08425 0.0
O27 O 0.03373 0.54716 0.08465 0.0
H28 H 0.94602 0.47756 0.03157 0.0
H29 H 0.8935 0.48128 0.02416 0.0
H30 H 0.92163 0.56969 0.04952 0.0
H31 H 0.97452 0.56583 0.05687 0.0
H32 H 0.16438 0.5556 0.02704 0.0
H33 H 0.11852 0.55335 0.04166 0.0
H34 H 0.17756 0.48066 0.05146 0.0
H35 H 0.1325 0.4791 0.06599 0.0
H36 H 0.05486 0.56947 0.13038 0.0
H37 H 0.99497 0.45274 0.12887 0.0
H38 H 0.99006 0.4564 0.10595 0.0
H39 H 0.05011 0.57303 0.10747 0.0
C40 C 0.60757 0.09537 0.37855 0.0
C41 C 0.61946 0.12728 0.38538 0.0
C42 C 0.67103 0.16097 0.37082 0.0
C43 C 0.6508 0.15958 0.38157 0.0
C44 C 0.65938 0.12863 0.36418 0.0
C45 C 0.62805 0.0964 0.36799 0.0
U46 U 0.53408 0.02245 0.40141 0.0
O47 O 0.47405 0.9925 0.39925 0.0
O48 O 0.50408 0.96311 0.39959 0.0
C49 C 0.47224 0.96104 0.39818 0.0
C50 C 0.57317 0.06124 0.38172 0.0
C51 C 0.44701 0.93599 0.38843 0.0
C52 C 0.43439 0.89832 0.36984 0.0
C53 C 0.45938 0.9248 0.37809 0.0
C54 C 0.38425 0.89418 0.38193 0.0
C55 C 0.39645 0.88209 0.37175 0.0
C56 C 0.40922 0.92064 0.39015 0.0
C57 C 0.54774 0.03571 0.4382 0.0
C58 C 0.54464 0.05562 0.4595 0.0
C59 C 0.53729 0.99634 0.45667 0.0
C60 C 0.54146 1.00262 0.44351 0.0
C61 C 0.53914 0.02279 0.46489 0.0
C62 C 0.54887 0.06189 0.44635 0.0
C63 C 0.55709 0.04528 0.42456 0.0
O64 O 0.57643 0.03485 0.38695 0.0
O65 O 0.54652 0.06432 0.38668 0.0
O66 O 0.53669 0.05472 0.41794 0.0
O67 O 0.56689 0.02551 0.41811 0.0
H68 H 0.60433 0.12739 0.39358 0.0
H69 H 0.65903 0.18375 0.38698 0.0
H70 H 0.6742 0.12774 0.35606 0.0
H71 H 0.61955 0.07219 0.36257 0.0
H72 H 0.44484 0.89 0.36206 0.0
H73 H 0.48831 0.93602 0.37649 0.0
H74 H 0.35552 0.88347 0.38366 0.0
H75 H 0.39888 0.9287 0.39804 0.0
H76 H 0.54702 0.07718 0.46534 0.0
H77 H 0.53321 0.97082 0.46045 0.0
H78 H 0.54066 0.98189 0.43755 0.0
H79 H 0.55421 0.08785 0.44257 0.0
C80 C 0.53286 0.59058 0.71049 0.0
C81 C 0.51377 0.59207 0.69977 0.0
C82 C 0.53667 0.65668 0.70268 0.0
C83 C 0.5156 0.62457 0.69589 0.0
C84 C 0.5554 0.65491 0.71352 0.0
C85 C 0.55349 0.62233 0.7174 0.0
U86 U 0.53239 0.51699 0.73329 0.0
O87 O 0.50226 0.45748 0.73123 0.0
O88 O 0.56202 0.4872 0.73135 0.0
C89 C 0.53214 0.45568 0.73001 0.0
C90 C 0.5326 0.5563 0.71363 0.0
C91 C 0.53219 0.4308 0.72028 0.0
C92 C 0.50817 0.36863 0.71323 0.0
C93 C 0.50652 0.39362 0.72125 0.0
C94 C 0.56088 0.41753 0.70281 0.0
C95 C 0.53587 0.38012 0.704 0.0
C96 C 0.55922 0.44253 0.71085 0.0
C97 C 0.53196 0.52941 0.77008 0.0
C98 C 0.55845 0.51475 0.78826 0.0
C99 C 0.50925 0.52685 0.79151 0.0
C100 C 0.5079 0.53229 0.77841 0.0
C101 C 0.53506 0.51863 0.79669 0.0
C102 C 0.55705 0.52018 0.77514 0.0
C103 C 0.53213 0.53918 0.75645 0.0
O104 O 0.56234 0.55917 0.71872 0.0
O105 O 0.50261 0.52982 0.71871 0.0
O106 O 0.50226 0.51919 0.74994 0.0
O107 O 0.56203 0.54895 0.74991 0.0
H108 H 0.49793 0.56808 0.69419 0.0
H109 H 0.50117 0.62433 0.68738 0.0
H110 H 0.57195 0.67899 0.71897 0.0
H111 H 0.56862 0.62214 0.72569 0.0
H112 H 0.48765 0.34042 0.71437 0.0
H113 H 0.48546 0.3837 0.72846 0.0
H114 H 0.58236 0.42748 0.69576 0.0
H115 H 0.57956 0.47091 0.70984 0.0
H116 H 0.57841 0.50811 0.79186 0.0
H117 H 0.48996 0.52922 0.79746 0.0
H118 H 0.48831 0.53943 0.77479 0.0
H119 H 0.57604 0.51776 0.76901 0.0
C120 C 0.53225 0.94652 0.65182 0.0
C121 C 0.5511 0.94499 0.6626 0.0
C122 C 0.52836 0.88041 0.65967 0.0
C123 C 0.54923 0.91248 0.6665 0.0
C124 C 0.50984 0.88222 0.64877 0.0
C125 C 0.51179 0.91481 0.64487 0.0
U126 U 0.5335 0.02011 0.62884 0.0
O127 O 0.50415 0.05024 0.63057 0.0
O128 O 0.56391 0.07964 0.63083 0.0
C129 C 0.53413 0.08167 0.63194 0.0
C130 C 0.53266 0.98084 0.64861 0.0
C131 C 0.53405 0.10663 0.64163 0.0
C132 C 0.50547 0.11995 0.65913 0.0
C133 C 0.50713 0.09492 0.6511 0.0
C134 C 0.55797 0.16884 0.64861 0.0
C135 C 0.53039 0.15737 0.65788 0.0
C136 C 0.55961 0.14382 0.6406 0.0
C137 C 0.53486 0.007 0.59216 0.0
C138 C 0.51754 0.0326 0.57441 0.0
C139 C 0.55083 1.00151 0.57046 0.0
C140 C 0.55141 0.99508 0.58352 0.0
C141 C 0.53339 0.01996 0.56567 0.0
C142 C 0.51811 0.0261 0.5875 0.0
C143 C 0.53417 0.99741 0.6058 0.0
O144 O 0.5628 0.00726 0.6436 0.0
O145 O 0.50308 0.97805 0.64341 0.0
O146 O 0.50414 0.98826 0.61216 0.0
O147 O 0.56388 0.01743 0.61238 0.0
H148 H 0.5668 0.96895 0.6682 0.0
H149 H 0.56347 0.91268 0.67506 0.0
H150 H 0.49345 0.85817 0.64329 0.0
H151 H 0.49686 0.91504 0.63653 0.0
H152 H 0.48409 0.11001 0.66621 0.0
H153 H 0.48688 0.06651 0.65216 0.0
H154 H 0.57842 0.19706 0.64742 0.0
H155 H 0.58058 0.15371 0.63337 0.0
H156 H 0.50424 0.04722 0.57109 0.0
H157 H 0.56441 0.99219 0.56424 0.0
H158 H 0.56462 0.9804 0.58688 0.0
H159 H 0.50519 0.03567 0.59395 0.0
C160 C 0.60766 0.51732 0.98378 0.0
C161 C 0.6311 0.54084 0.99305 0.0
C162 C 0.66944 0.51309 0.99234 0.0
C163 C 0.66155 0.53884 0.99729 0.0
C164 C 0.64615 0.48991 0.98291 0.0
C165 C 0.61574 0.492 0.97866 0.0
U166 U 0.53473 0.51724 0.96072 0.0
O167 O 0.47498 0.48859 0.96296 0.0
O168 O 0.50559 0.54788 0.96218 0.0
C169 C 0.47358 0.51855 0.96375 0.0
C170 C 0.57367 0.51791 0.98048 0.0
C171 C 0.44872 0.51947 0.97343 0.0
C172 C 0.41373 0.49809 0.9931 0.0
C173 C 0.43996 0.49905 0.98478 0.0
C174 C 0.405 0.5384 0.97905 0.0
C175 C 0.39534 0.5172 0.99028 0.0
C176 C 0.43122 0.53937 0.97076 0.0
C177 C 0.54775 0.51461 0.92408 0.0
C178 C 0.52551 0.53501 0.90617 0.0
C179 C 0.55125 0.4967 0.90252 0.0
C180 C 0.55718 0.49574 0.91559 0.0
C181 C 0.53582 0.51689 0.89757 0.0
C182 C 0.53149 0.53401 0.91925 0.0
C183 C 0.55738 0.51524 0.93768 0.0
O184 O 0.57757 0.54747 0.97494 0.0
O185 O 0.54638 0.48821 0.97583 0.0
O186 O 0.53665 0.48608 0.94455 0.0
O187 O 0.56745 0.54536 0.94378 0.0
H188 H 0.62533 0.56034 0.99728 0.0
H189 H 0.67799 0.55685 1.00471 0.0
H190 H 0.65123 0.46971 0.9789 0.0
H191 H 0.59821 0.47334 0.97154 0.0
H192 H 0.4073 0.48176 1.0017 0.0
H193 H 0.45292 0.48338 0.98712 0.0
H194 H 0.3926 0.55444 0.97656 0.0
H195 H 0.43745 0.55536 0.96208 0.0
H196 H 0.51328 0.55053 0.90274 0.0
H197 H 0.55877 0.48145 0.89644 0.0
H198 H 0.5697 0.4805 0.91906 0.0
H199 H 0.52387 0.54881 0.92557 0.0
C200 C 0.96314 0.45098 0.31833 0.0
C201 C 0.95053 0.41922 0.31135 0.0
C202 C 0.89963 0.38558 0.32617 0.0
C203 C 0.91918 0.38701 0.31522 0.0
C204 C 0.91202 0.4178 0.33297 0.0
C205 C 0.94337 0.44992 0.3291 0.0
U206 U 0.03584 0.52294 0.2951 0.0
O207 O 0.06612 0.58235 0.2966 0.0
O208 O 0.09596 0.55277 0.29691 0.0
C209 C 0.09795 0.58433 0.29791 0.0
C210 C 0.99752 0.48499 0.31504 0.0
C211 C 0.12347 0.60955 0.30756 0.0
C212 C 0.13647 0.64682 0.32627 0.0
C213 C 0.11132 0.62029 0.31808 0.0
C214 C 0.18636 0.65193 0.31376 0.0
C215 C 0.17437 0.66355 0.32414 0.0
C216 C 0.16123 0.62542 0.3056 0.0
C217 C 0.01953 0.50735 0.25854 0.0
C218 C 0.06052 0.5416 0.24109 0.0
C219 C 0.99919 0.49372 0.23661 0.0
C220 C 0.99243 0.48704 0.24964 0.0
C221 C 0.03352 0.52094 0.23211 0.0
C222 C 0.05369 0.53482 0.25417 0.0
C223 C 1.01109 0.49872 0.27221 0.0
O224 O 0.02393 0.48165 0.31001 0.0
O225 O 0.9942 0.51129 0.30976 0.0
O226 O 1.0023 0.51949 0.2785 0.0
O227 O 0.03214 0.48995 0.27873 0.0
H228 H 0.9651 0.41915 0.30298 0.0
H229 H 0.91038 0.36295 0.30968 0.0
H230 H 0.8978 0.41867 0.34127 0.0
H231 H 0.95244 0.47404 0.33464 0.0
H232 H 0.12618 0.65477 0.33421 0.0
H233 H 0.08242 0.60865 0.31987 0.0
H234 H 0.21505 0.66305 0.31183 0.0
H235 H 0.17139 0.61771 0.29756 0.0
H236 H 0.08711 0.56298 0.23799 0.0
H237 H 0.97712 0.47779 0.23018 0.0
H238 H 0.96577 0.46586 0.25279 0.0
H239 H 0.07502 0.55096 0.26085 0.0
H240 H 1.00566 0.47987 0.14976 0.0
C241 C 0.02455 0.50649 0.1458 0.0
H242 H 0.06435 0.56005 0.15052 0.0
H243 H 1.00591 0.55728 0.2056 0.0
H244 H 0.99452 0.60107 0.19476 0.0
H245 H 1.00414 0.61168 0.17172 0.0
H246 H 0.02503 0.57842 0.15935 0.0
C247 C 0.04518 0.53303 0.154 0.0
C248 C 0.04089 0.52726 0.16815 0.0
C249 C 0.02931 0.54741 0.17538 0.0
C250 C 0.02406 0.54151 0.18876 0.0
C251 C 1.01112 0.56112 0.19553 0.0
C252 C 1.00427 0.58626 0.18941 0.0
C253 C 1.00967 0.59222 0.17643 0.0
C254 C 0.02183 0.573 0.16945 0.0
H255 H 0.06526 0.55519 0.21557 0.0
C256 C 0.04167 0.52934 0.21822 0.0
H257 H 0.99981 0.47958 0.21111 0.0
H258 H 0.06879 0.48798 0.15778 0.0
H259 H 0.08059 0.4445 0.16867 0.0
H260 H 0.06964 0.43295 0.19163 0.0
H261 H 0.04721 0.46517 0.20389 0.0
C262 C 0.02191 0.50661 0.20884 0.0
C263 C 0.03075 0.51569 0.19502 0.0
C264 C 0.04316 0.49619 0.18784 0.0
C265 C 0.04871 0.50229 0.17448 0.0
C266 C 0.06276 0.48351 0.1678 0.0
C267 C 0.06998 0.45868 0.17396 0.0
C268 C 0.06387 0.45221 0.18689 0.0
C269 C 0.05081 0.47078 0.19381 0.0
H270 H 0.52478 0.0476 0.54903 0.0
C271 C 0.53192 0.02726 0.55175 0.0
H272 H 0.54264 0.98745 0.54471 0.0
H273 H 0.47377 0.97223 0.49062 0.0
H274 H 0.42866 0.91636 0.5008 0.0
H275 H 0.43186 0.90584 0.5237 0.0
H276 H 0.48005 0.95133 0.5366 0.0
C277 C 0.53801 0.00965 0.54242 0.0
C278 C 0.53554 0.01715 0.52857 0.0
C279 C 0.50766 0.99007 0.52101 0.0
C280 C 0.5062 0.99588 0.5077 0.0
C281 C 0.477 0.96887 0.50063 0.0
C282 C 0.45069 0.93674 0.50638 0.0
C283 C 0.45247 0.93083 0.51928 0.0
C284 C 0.48041 0.95713 0.52656 0.0
H285 H 0.54039 0.99314 0.48225 0.0
C286 C 0.53729 0.01572 0.47895 0.0
H287 H 0.52886 0.058 0.48496 0.0
H288 H 0.59403 0.07411 0.53985 0.0
H289 H 0.63902 0.13005 0.52969 0.0
H290 H 0.63624 0.14032 0.50676 0.0
H291 H 0.58857 0.09459 0.49381 0.0
C292 C 0.53211 0.03526 0.48778 0.0
C293 C 0.53316 0.02854 0.50179 0.0
C294 C 0.56081 0.05579 0.50937 0.0
C295 C 0.56217 0.05003 0.5227 0.0
C296 C 0.59103 0.07728 0.52981 0.0
C297 C 0.61724 0.1095 0.52408 0.0
C298 C 0.61569 0.11527 0.51116 0.0
C299 C 0.58803 0.0888 0.50385 0.0
H300 H 0.51259 0.53073 0.88085 0.0
C301 C 0.52981 0.51964 0.88363 0.0
H302 H 0.56291 0.49965 0.87657 0.0
H303 H 0.4889 0.4535 0.82289 0.0
H304 H 0.46535 0.39496 0.83328 0.0
H305 H 0.47515 0.39015 0.85612 0.0
H306 H 0.50831 0.44391 0.86875 0.0
C307 C 0.54541 0.51068 0.8743 0.0
C308 C 0.53874 0.5141 0.86046 0.0
C309 C 0.51996 0.48251 0.85306 0.0
C310 C 0.51483 0.48531 0.83978 0.0
C311 C 0.49458 0.45312 0.83287 0.0
C312 C 0.48066 0.41926 0.83874 0.0
C313 C 0.48614 0.41655 0.8516 0.0
C314 C 0.50537 0.44766 0.85873 0.0
H315 H 0.55557 0.50257 0.81363 0.0
C316 C 0.53853 0.51373 0.81068 0.0
H317 H 0.50776 0.53664 0.8174 0.0
H318 H 0.57858 0.5804 0.87138 0.0
H319 H 0.60229 0.63894 0.86099 0.0
H320 H 0.59291 0.64382 0.83813 0.0
H321 H 0.55998 0.59014 0.82547 0.0
C322 C 0.52306 0.52333 0.81986 0.0
C323 C 0.52915 0.51983 0.83376 0.0
C324 C 0.54792 0.55143 0.84117 0.0
C325 C 0.55296 0.54861 0.85445 0.0
C326 C 0.57308 0.5808 0.86138 0.0
C327 C 0.58708 0.61466 0.85552 0.0
C328 C 0.58182 0.61741 0.84264 0.0
C329 C 0.56268 0.58631 0.8355 0.0
H330 H 0.20548 0.53386 0.01973 0.0
C331 C 0.2043 0.52209 0.02906 0.0
H332 H 0.22957 0.50085 0.04109 0.0
H333 H 0.30089 0.45425 0.99875 0.0
H334 H 0.2517 0.39593 1.00588 0.0
H335 H 0.20492 0.3916 0.02068 0.0
H336 H 0.20685 0.44561 0.02836 0.0
C337 C 0.22955 0.51247 0.03187 0.0
C338 C 0.2577 0.51566 0.02252 0.0
C339 C 0.25686 0.48391 0.01825 0.0
C340 C 0.28431 0.48643 1.00982 0.0
C341 C 0.28154 0.45408 1.00539 0.0
C342 C 0.25326 0.42035 1.00935 0.0
C343 C 0.2269 0.4179 0.01767 0.0
C344 C 0.22843 0.44917 0.02205 0.0
H345 H 0.36561 0.50293 1.00868 0.0
C346 C 0.36672 0.51446 0.99931 0.0
H347 H 0.34131 0.53541 0.98721 0.0
H348 H 0.27009 0.58223 0.02956 0.0
H349 H 0.31926 0.64054 0.02242 0.0
H350 H 0.36599 0.64487 1.0076 0.0
H351 H 0.36405 0.59084 0.99992 0.0
C352 C 0.34142 0.52398 0.99644 0.0
C353 C 0.31324 0.52081 1.00578 0.0
C354 C 0.31408 0.55256 1.01005 0.0
C355 C 0.28663 0.55004 0.01848 0.0
C356 C 0.28942 0.58239 0.02291 0.0
C357 C 0.31769 0.61612 0.01895 0.0
C358 C 0.34402 0.61856 1.01062 0.0
C359 C 0.34248 0.5873 1.00623 0.0
H360 H 0.71339 0.21861 0.37361 0.0
C361 C 0.70404 0.19641 0.36703 0.0
H362 H 0.71292 0.18239 0.3488 0.0
H363 H 0.79992 0.33897 0.32481 0.0
H364 H 0.7425 0.31422 0.31362 0.0
H365 H 0.69007 0.25523 0.31997 0.0
H366 H 0.69463 0.22072 0.33764 0.0
C367 C 0.72245 0.20298 0.35597 0.0
C368 C 0.75451 0.23942 0.35243 0.0
C369 C 0.75189 0.25922 0.3419 0.0
C370 C 0.78247 0.29317 0.33808 0.0
C371 C 0.77815 0.3127 0.32789 0.0
C372 C 0.74519 0.29892 0.32142 0.0
C373 C 0.71566 0.26572 0.325 0.0
C374 C 0.71873 0.24609 0.33514 0.0
H375 H 0.85705 0.32801 0.32341 0.0
C376 C 0.86657 0.35021 0.33 0.0
H377 H 0.85786 0.36427 0.34825 0.0
H378 H 0.77073 0.20777 0.37228 0.0
H379 H 0.82815 0.23252 0.38347 0.0
H380 H 0.88059 0.29148 0.37711 0.0
H381 H 0.87605 0.32598 0.35943 0.0
C382 C 0.84827 0.34369 0.34109 0.0
C383 C 0.81618 0.30729 0.34464 0.0
C384 C 0.81879 0.28749 0.35518 0.0
C385 C 0.7882 0.25355 0.35899 0.0
C386 C 0.79251 0.23402 0.36919 0.0
C387 C 0.82547 0.24781 0.37566 0.0
C388 C 0.85501 0.281 0.37207 0.0
C389 C 0.85194 0.30061 0.36193 0.0
H390 H 0.50246 0.82045 0.65923 0.0
C391 C 0.52387 0.84444 0.66378 0.0
H392 H 0.56617 0.86276 0.67741 0.0
H393 H 0.50413 0.71926 0.71019 0.0
H394 H 0.49555 0.75825 0.72435 0.0
H395 H 0.50614 0.81791 0.71703 0.0
H396 H 0.52508 0.83883 0.69544 0.0
C397 C 0.54456 0.83971 0.6726 0.0
C398 C 0.53771 0.8029 0.67683 0.0
C399 C 0.52732 0.79108 0.68958 0.0
C400 C 0.52179 0.75674 0.69389 0.0
C401 C 0.50986 0.74536 0.7065 0.0
C402 C 0.50453 0.7674 0.71473 0.0
C403 C 0.51046 0.80097 0.7106 0.0
C404 C 0.5215 0.81272 0.69818 0.0
H405 H 0.56259 0.71665 0.70312 0.0
C406 C 0.54115 0.69266 0.69858 0.0
H407 H 0.49882 0.67438 0.68496 0.0
H408 H 0.56095 0.81789 0.65218 0.0
H409 H 0.56954 0.7789 0.63803 0.0
H410 H 0.55893 0.71924 0.64535 0.0
H411 H 0.53997 0.69831 0.66693 0.0
C412 C 0.52045 0.69742 0.68977 0.0
C413 C 0.52733 0.73424 0.68554 0.0
C414 C 0.53772 0.74606 0.67279 0.0
C415 C 0.54326 0.7804 0.66848 0.0
C416 C 0.55521 0.79178 0.65587 0.0
C417 C 0.56054 0.76975 0.64765 0.0
C418 C 0.55461 0.73618 0.65178 0.0
C419 C 0.54355 0.72442 0.66419 0.0
H420 H 0.87237 0.55542 0.03414 0.0
C421 C 0.87191 0.53068 0.03157 0.0
H422 H 0.84199 0.48167 0.02163 0.0
H423 H 0.71524 0.52878 0.02789 0.0
H424 H 0.72116 0.52277 0.05052 0.0
H425 H 0.76883 0.5115 0.05914 0.0
H426 H 0.81111 0.50649 0.04523 0.0
C427 C 0.84363 0.50668 0.02445 0.0
C428 C 0.81452 0.51395 0.01938 0.0
C429 C 0.78954 0.51639 0.02763 0.0
C430 C 0.76148 0.52229 0.02261 0.0
C431 C 0.7371 0.52454 0.03113 0.0
C432 C 0.74008 0.52097 0.04416 0.0
C433 C 0.76695 0.51467 0.04902 0.0
C434 C 0.79128 0.51215 0.0409 0.0
H435 H 0.70002 0.48358 0.99447 0.0
C436 C 0.70032 0.50822 0.99708 0.0
H437 H 0.72997 0.55714 1.00708 0.0
H438 H 0.85694 0.51021 1.0008 0.0
H439 H 0.85107 0.51628 0.97818 0.0
H440 H 0.80345 0.52762 0.96955 0.0
H441 H 0.76118 0.53264 0.98346 0.0
C442 C 0.7285 0.53221 1.00424 0.0
C443 C 0.75767 0.52505 1.00931 0.0
C444 C 0.78267 0.52265 1.00106 0.0
C445 C 0.81072 0.51673 1.00608 0.0
C446 C 0.8351 0.51447 0.99756 0.0
C447 C 0.83215 0.51807 0.98453 0.0
C448 C 0.80531 0.52442 0.97968 0.0
C449 C 0.78098 0.52694 0.98779 0.0
H450 H 0.38231 0.84974 0.35418 0.0
C451 C 0.37086 0.85303 0.3629 0.0
H452 H 0.32238 0.8319 0.37379 0.0
H453 H 0.21008 0.7595 0.32926 0.0
H454 H 0.20358 0.81159 0.33326 0.0
H455 H 0.24553 0.85922 0.34773 0.0
H456 H 0.29451 0.85524 0.35821 0.0
C457 C 0.33502 0.82981 0.36522 0.0
C458 C 0.31042 0.80106 0.35608 0.0
C459 C 0.2813 0.80317 0.35017 0.0
C460 C 0.25664 0.77527 0.34193 0.0
C461 C 0.22893 0.77921 0.33583 0.0
C462 C 0.22502 0.80914 0.33799 0.0
C463 C 0.24865 0.83598 0.34613 0.0
C464 C 0.27658 0.83326 0.35212 0.0
H465 H 0.18876 0.69587 0.34172 0.0
C466 C 0.20008 0.69264 0.33296 0.0
H467 H 0.24847 0.71387 0.322 0.0
H468 H 0.36084 0.7862 0.36656 0.0
H469 H 0.36735 0.73413 0.36254 0.0
H470 H 0.32544 0.68653 0.34806 0.0
H471 H 0.27647 0.69053 0.33758 0.0
C472 C 0.23588 0.71591 0.3306 0.0
C473 C 0.26053 0.74468 0.33972 0.0
C474 C 0.28965 0.74257 0.34563 0.0
C475 C 0.31431 0.77046 0.35387 0.0
C476 C 0.34201 0.76652 0.35997 0.0
C477 C 0.34592 0.73659 0.35781 0.0
C478 C 0.3223 0.70977 0.34967 0.0
C479 C 0.29438 0.71249 0.34367 0.0
H480 H 0.50794 0.17146 0.67441 0.0
C481 C 0.52661 0.18312 0.66644 0.0
H482 H 0.56084 0.23209 0.65646 0.0
H483 H 0.49354 0.32388 0.67615 0.0
H484 H 0.47364 0.31469 0.65431 0.0
H485 H 0.48269 0.27331 0.64086 0.0
H486 H 0.51145 0.24058 0.64921 0.0
C487 C 0.54377 0.21951 0.66471 0.0
C488 C 0.53762 0.24399 0.67318 0.0
C489 C 0.52135 0.26366 0.66816 0.0
C490 C 0.51659 0.28809 0.67591 0.0
C491 C 0.49886 0.30592 0.67067 0.0
C492 C 0.48702 0.3007 0.65814 0.0
C493 C 0.49209 0.27737 0.65057 0.0
C494 C 0.50883 0.25887 0.65548 0.0
H495 H 0.55836 0.36607 0.68748 0.0
C496 C 0.53966 0.3544 0.69544 0.0
H497 H 0.50541 0.30541 0.70541 0.0
H498 H 0.57276 0.21366 0.68572 0.0
H499 H 0.59266 0.22284 0.70756 0.0
H500 H 0.5836 0.26422 0.72101 0.0
H501 H 0.55483 0.29694 0.71266 0.0
C502 C 0.5225 0.318 0.69716 0.0
C503 C 0.52866 0.29353 0.68869 0.0
C504 C 0.54493 0.27387 0.69371 0.0
C505 C 0.54969 0.24944 0.68596 0.0
C506 C 0.56744 0.23161 0.6912 0.0
C507 C 0.57927 0.23684 0.70373 0.0
C508 C 0.5742 0.26016 0.7113 0.0
C509 C 0.55745 0.27865 0.70639 0.0
loop_
_geom_bond_atom_site_label_1
_geom_bond_atom_site_label_2
_geom_bond_distance
_geom_bond_site_symmetry_2
_ccdc_geom_bond_type
C0 C1 1.264 . S
C0 C5 1.479 . S
C0 C10 1.465 . S
C1 C0 1.264 . S
C1 C3 1.339 . S
C1 H28 0.931 . S
C2 C3 1.395 . S
C2 C4 1.320 . S
C3 C1 1.339 . S
C3 C2 1.395 . S
C3 H29 0.929 . S
C4 C2 1.320 . S
C4 C5 1.405 . S
C4 H30 0.930 . S
C5 C0 1.479 . S
C5 C4 1.405 . S
C5 H31 0.931 . S
U6 O7 2.454 . S
U6 O8 2.458 . S
U6 C9 2.984 . S
U6 C10 2.847 1_455 S
U6 C23 2.882 . S
U6 O24 2.441 1_455 S
U6 O25 2.420 1_455 S
U6 O26 2.455 . S
U6 O27 2.449 1_455 S
O7 U6 2.454 . S
O7 C9 1.353 . S
O8 U6 2.458 . S
O8 C9 1.286 . S
C9 U6 2.984 . S
C9 O7 1.353 . S
C9 O8 1.286 . S
C9 C11 1.363 . S
C10 C0 1.465 . S
C10 U6 2.847 1_655 S
C10 O24 1.249 . S
C10 O25 1.202 . S
C11 C9 1.363 . S
C11 C13 1.408 . S
C11 C16 1.342 . S
C12 C13 1.310 . S
C12 C15 1.461 . S
C12 H32 0.932 . S
C13 C11 1.408 . S
C13 C12 1.310 . S
C13 H33 0.930 . S
C14 C15 1.474 . S
C14 C16 1.285 . S
C14 H34 0.929 . S
C15 C12 1.461 . S
C15 C14 1.474 . S
C16 C11 1.342 . S
C16 C14 1.285 . S
C16 H35 0.930 . S
C17 C20 1.424 1_455 S
C17 C22 1.245 . S
C17 C23 1.428 . S
C18 C21 1.260 . S
C18 C22 1.477 . S
C18 H36 0.932 . S
C19 C20 1.384 . S
C19 C21 1.479 1_655 S
C19 H37 0.929 . S
C20 C17 1.424 1_655 S
C20 C19 1.384 . S
C20 H38 0.928 . S
C21 C18 1.260 . S
C21 C19 1.479 1_455 S
C22 C17 1.245 . S
C22 C18 1.477 . S
C22 H39 0.932 . S
C23 U6 2.882 . S
C23 C17 1.428 . S
C23 O26 1.301 . S
C23 O27 1.282 1_455 S
O24 U6 2.441 1_655 S
O24 C10 1.249 . S
O25 U6 2.420 1_655 S
O25 C10 1.202 . S
O26 U6 2.455 . S
O26 C23 1.301 . S
O27 U6 2.449 1_655 S
O27 C23 1.282 1_655 S
H28 C1 0.931 . S
H29 C3 0.929 . S
H30 C4 0.930 . S
H31 C5 0.931 . S
H32 C12 0.932 . S
H33 C13 0.930 . S
H34 C14 0.929 . S
H35 C16 0.930 . S
H36 C18 0.932 . S
H37 C19 0.929 . S
H38 C20 0.928 . S
H39 C22 0.932 . S
C40 C41 1.264 . S
C40 C45 1.479 . S
C40 C50 1.465 . S
C41 C40 1.264 . S
C41 C43 1.339 . S
C41 H68 0.931 . S
C42 C43 1.395 . S
C42 C44 1.320 . S
C43 C41 1.339 . S
C43 C42 1.395 . S
C43 H69 0.929 . S
C44 C42 1.320 . S
C44 C45 1.405 . S
C44 H70 0.930 . S
C45 C40 1.479 . S
C45 C44 1.405 . S
C45 H71 0.931 . S
U46 O47 2.454 1_545 S
U46 O48 2.458 1_545 S
U46 C49 2.984 1_545 S
U46 C50 2.847 . S
U46 C63 2.882 . S
U46 O64 2.441 . S
U46 O65 2.420 . S
U46 O66 2.455 . S
U46 O67 2.449 . S
O47 U46 2.454 1_565 S
O47 C49 1.353 . S
O48 U46 2.458 1_565 S
O48 C49 1.286 . S
C49 U46 2.984 1_565 S
C49 O47 1.353 . S
C49 O48 1.286 . S
C49 C51 1.363 . S
C50 C40 1.465 . S
C50 U46 2.847 . S
C50 O64 1.249 . S
C50 O65 1.202 . S
C51 C49 1.363 . S
C51 C53 1.408 . S
C51 C56 1.342 . S
C52 C53 1.310 . S
C52 C55 1.461 . S
C52 H72 0.932 . S
C53 C51 1.408 . S
C53 C52 1.310 . S
C53 H73 0.930 . S
C54 C55 1.474 . S
C54 C56 1.285 . S
C54 H74 0.929 . S
C55 C52 1.461 . S
C55 C54 1.474 . S
C56 C51 1.342 . S
C56 C54 1.285 . S
C56 H75 0.930 . S
C57 C60 1.424 . S
C57 C62 1.227 1_545 S
C57 C63 1.428 . S
C58 C61 1.264 . S
C58 C62 1.479 1_545 S
C58 H76 0.927 1_545 S
C59 C60 1.384 . S
C59 C61 1.479 . S
C59 H77 0.929 . S
C60 C57 1.424 . S
C60 C59 1.384 . S
C60 H78 0.928 . S
C61 C58 1.264 . S
C61 C59 1.479 . S
C62 C57 1.227 1_565 S
C62 C58 1.479 1_565 S
C62 H79 0.948 . S
C63 U46 2.882 . S
C63 C57 1.428 . S
C63 O66 1.301 . S
C63 O67 1.282 . S
O64 U46 2.441 . S
O64 C50 1.249 . S
O65 U46 2.420 . S
O65 C50 1.202 . S
O66 U46 2.455 . S
O66 C63 1.301 . S
O67 U46 2.449 . S
O67 C63 1.282 . S
H68 C41 0.931 . S
H69 C43 0.929 . S
H70 C44 0.930 . S
H71 C45 0.931 . S
H72 C52 0.932 . S
H73 C53 0.930 . S
H74 C54 0.929 . S
H75 C56 0.930 . S
H76 C58 0.927 1_565 S
H77 C59 0.929 . S
H78 C60 0.928 . S
H79 C62 0.948 . S
C80 C81 1.264 . S
C80 C85 1.479 . S
C80 C90 1.465 . S
C81 C80 1.264 . S
C81 C83 1.339 . S
C81 H108 0.931 . S
C82 C83 1.395 . S
C82 C84 1.320 . S
C83 C81 1.339 . S
C83 C82 1.395 . S
C83 H109 0.929 . S
C84 C82 1.320 . S
C84 C85 1.405 . S
C84 H110 0.930 . S
C85 C80 1.479 . S
C85 C84 1.405 . S
C85 H111 0.931 . S
U86 O87 2.454 . S
U86 O88 2.458 . S
U86 C89 2.984 . S
U86 C90 2.847 . S
U86 C103 2.882 . S
U86 O104 2.441 . S
U86 O105 2.420 . S
U86 O106 2.455 . S
U86 O107 2.449 . S
O87 U86 2.454 . S
O87 C89 1.353 . S
O88 U86 2.458 . S
O88 C89 1.286 . S
C89 U86 2.984 . S
C89 O87 1.353 . S
C89 O88 1.286 . S
C89 C91 1.363 . S
C90 C80 1.465 . S
C90 U86 2.847 . S
C90 O104 1.249 . S
C90 O105 1.202 . S
C91 C89 1.363 . S
C91 C93 1.408 . S
C91 C96 1.342 . S
C92 C93 1.310 . S
C92 C95 1.461 . S
C92 H112 0.932 . S
C93 C91 1.408 . S
C93 C92 1.310 . S
C93 H113 0.930 . S
C94 C95 1.474 . S
C94 C96 1.285 . S
C94 H114 0.929 . S
C95 C92 1.461 . S
C95 C94 1.474 . S
C96 C91 1.342 . S
C96 C94 1.285 . S
C96 H115 0.930 . S
C97 C100 1.424 . S
C97 C102 1.245 . S
C97 C103 1.428 . S
C98 C101 1.260 . S
C98 C102 1.477 . S
C98 H116 0.932 . S
C99 C100 1.384 . S
C99 C101 1.479 . S
C99 H117 0.929 . S
C100 C97 1.424 . S
C100 C99 1.384 . S
C100 H118 0.928 . S
C101 C98 1.260 . S
C101 C99 1.479 . S
C102 C97 1.245 . S
C102 C98 1.477 . S
C102 H119 0.932 . S
C103 U86 2.882 . S
C103 C97 1.428 . S
C103 O106 1.301 . S
C103 O107 1.282 . S
O104 U86 2.441 . S
O104 C90 1.249 . S
O105 U86 2.420 . S
O105 C90 1.202 . S
O106 U86 2.455 . S
O106 C103 1.301 . S
O107 U86 2.449 . S
O107 C103 1.282 . S
H108 C81 0.931 . S
H109 C83 0.929 . S
H110 C84 0.930 . S
H111 C85 0.931 . S
H112 C92 0.932 . S
H113 C93 0.930 . S
H114 C94 0.929 . S
H115 C96 0.930 . S
H116 C98 0.932 . S
H117 C99 0.929 . S
H118 C100 0.928 . S
H119 C102 0.932 . S
C120 C121 1.264 . S
C120 C125 1.479 . S
C120 C130 1.465 . S
C121 C120 1.264 . S
C121 C123 1.339 . S
C121 H148 0.931 . S
C122 C123 1.395 . S
C122 C124 1.320 . S
C123 C121 1.339 . S
C123 C122 1.395 . S
C123 H149 0.929 . S
C124 C122 1.320 . S
C124 C125 1.405 . S
C124 H150 0.930 . S
C125 C120 1.479 . S
C125 C124 1.405 . S
C125 H151 0.931 . S
U126 O127 2.454 . S
U126 O128 2.458 . S
U126 C129 2.984 . S
U126 C130 2.847 1_545 S
U126 C143 2.882 . S
U126 O144 2.441 1_545 S
U126 O145 2.420 1_545 S
U126 O146 2.455 . S
U126 O147 2.449 1_545 S
O127 U126 2.454 . S
O127 C129 1.353 . S
O128 U126 2.458 . S
O128 C129 1.286 . S
C129 U126 2.984 . S
C129 O127 1.353 . S
C129 O128 1.286 . S
C129 C131 1.363 . S
C130 C120 1.465 . S
C130 U126 2.847 1_565 S
C130 O144 1.249 . S
C130 O145 1.202 . S
C131 C129 1.363 . S
C131 C133 1.408 . S
C131 C136 1.342 . S
C132 C133 1.310 . S
C132 C135 1.461 . S
C132 H152 0.932 . S
C133 C131 1.408 . S
C133 C132 1.310 . S
C133 H153 0.930 . S
C134 C135 1.474 . S
C134 C136 1.285 . S
C134 H154 0.929 . S
C135 C132 1.461 . S
C135 C134 1.474 . S
C136 C131 1.342 . S
C136 C134 1.285 . S
C136 H155 0.930 . S
C137 C140 1.424 1_545 S
C137 C142 1.245 . S
C137 C143 1.428 . S
C138 C141 1.260 . S
C138 C142 1.477 . S
C138 H156 0.932 . S
C139 C140 1.384 . S
C139 C141 1.479 1_565 S
C139 H157 0.929 . S
C140 C137 1.424 1_565 S
C140 C139 1.384 . S
C140 H158 0.928 . S
C141 C138 1.260 . S
C141 C139 1.479 1_545 S
C142 C137 1.245 . S
C142 C138 1.477 . S
C142 H159 0.932 . S
C143 U126 2.882 . S
C143 C137 1.428 . S
C143 O146 1.301 . S
C143 O147 1.282 1_545 S
O144 U126 2.441 1_565 S
O144 C130 1.249 . S
O145 U126 2.420 1_565 S
O145 C130 1.202 . S
O146 U126 2.455 . S
O146 C143 1.301 . S
O147 U126 2.449 1_565 S
O147 C143 1.282 1_565 S
H148 C121 0.931 . S
H149 C123 0.929 . S
H150 C124 0.930 . S
H151 C125 0.931 . S
H152 C132 0.932 . S
H153 C133 0.930 . S
H154 C134 0.929 . S
H155 C136 0.930 . S
H156 C138 0.932 . S
H157 C139 0.929 . S
H158 C140 0.928 . S
H159 C142 0.932 . S
C160 C161 1.264 . S
C160 C165 1.479 . S
C160 C170 1.465 . S
C161 C160 1.264 . S
C161 C163 1.339 . S
C161 H188 0.931 . S
C162 C163 1.395 . S
C162 C164 1.320 . S
C163 C161 1.339 . S
C163 C162 1.395 . S
C163 H189 0.929 . S
C164 C162 1.320 . S
C164 C165 1.405 . S
C164 H190 0.930 . S
C165 C160 1.479 . S
C165 C164 1.405 . S
C165 H191 0.931 . S
U166 O167 2.454 . S
U166 O168 2.458 . S
U166 C169 2.984 . S
U166 C170 2.847 . S
U166 C183 2.882 . S
U166 O184 2.441 . S
U166 O185 2.420 . S
U166 O186 2.455 . S
U166 O187 2.449 . S
O167 U166 2.454 . S
O167 C169 1.353 . S
O168 U166 2.458 . S
O168 C169 1.286 . S
C169 U166 2.984 . S
C169 O167 1.353 . S
C169 O168 1.286 . S
C169 C171 1.363 . S
C170 C160 1.465 . S
C170 U166 2.847 . S
C170 O184 1.249 . S
C170 O185 1.202 . S
C171 C169 1.363 . S
C171 C173 1.408 . S
C171 C176 1.342 . S
C172 C173 1.310 . S
C172 C175 1.461 . S
C172 H192 0.932 . S
C173 C171 1.408 . S
C173 C172 1.310 . S
C173 H193 0.930 . S
C174 C175 1.474 . S
C174 C176 1.285 . S
C174 H194 0.929 . S
C175 C172 1.461 . S
C175 C174 1.474 . S
C176 C171 1.342 . S
C176 C174 1.285 . S
C176 H195 0.930 . S
C177 C180 1.424 . S
C177 C182 1.245 . S
C177 C183 1.428 . S
C178 C181 1.260 . S
C178 C182 1.477 . S
C178 H196 0.932 . S
C179 C180 1.384 . S
C179 C181 1.479 . S
C179 H197 0.929 . S
C180 C177 1.424 . S
C180 C179 1.384 . S
C180 H198 0.928 . S
C181 C178 1.260 . S
C181 C179 1.479 . S
C182 C177 1.245 . S
C182 C178 1.477 . S
C182 H199 0.932 . S
C183 U166 2.882 . S
C183 C177 1.428 . S
C183 O186 1.301 . S
C183 O187 1.282 . S
O184 U166 2.441 . S
O184 C170 1.249 . S
O185 U166 2.420 . S
O185 C170 1.202 . S
O186 U166 2.455 . S
O186 C183 1.301 . S
O187 U166 2.449 . S
O187 C183 1.282 . S
H188 C161 0.931 . S
H189 C163 0.929 . S
H190 C164 0.930 . S
H191 C165 0.931 . S
H192 C172 0.932 . S
H193 C173 0.930 . S
H194 C174 0.929 . S
H195 C176 0.930 . S
H196 C178 0.932 . S
H197 C179 0.929 . S
H198 C180 0.928 . S
H199 C182 0.932 . S
C200 C201 1.264 . S
C200 C205 1.479 . S
C200 C210 1.465 . S
C201 C200 1.264 . S
C201 C203 1.339 . S
C201 H228 0.931 . S
C202 C203 1.395 . S
C202 C204 1.320 . S
C203 C201 1.339 . S
C203 C202 1.395 . S
C203 H229 0.929 . S
C204 C202 1.320 . S
C204 C205 1.405 . S
C204 H230 0.930 . S
C205 C200 1.479 . S
C205 C204 1.405 . S
C205 H231 0.931 . S
U206 O207 2.454 . S
U206 O208 2.458 . S
U206 C209 2.984 . S
U206 C210 2.847 1_455 S
U206 C223 2.882 . S
U206 O224 2.441 1_455 S
U206 O225 2.420 1_455 S
U206 O226 2.455 . S
U206 O227 2.449 1_455 S
O207 U206 2.454 . S
O207 C209 1.353 . S
O208 U206 2.458 . S
O208 C209 1.286 . S
C209 U206 2.984 . S
C209 O207 1.353 . S
C209 O208 1.286 . S
C209 C211 1.363 . S
C210 C200 1.465 . S
C210 U206 2.847 1_655 S
C210 O224 1.249 . S
C210 O225 1.202 . S
C211 C209 1.363 . S
C211 C213 1.408 . S
C211 C216 1.342 . S
C212 C213 1.310 . S
C212 C215 1.461 . S
C212 H232 0.932 . S
C213 C211 1.408 . S
C213 C212 1.310 . S
C213 H233 0.930 . S
C214 C215 1.474 . S
C214 C216 1.285 . S
C214 H234 0.929 . S
C215 C212 1.461 . S
C215 C214 1.474 . S
C216 C211 1.342 . S
C216 C214 1.285 . S
C216 H235 0.930 . S
C217 C220 1.424 1_455 S
C217 C222 1.245 . S
C217 C223 1.428 . S
C218 C221 1.260 . S
C218 C222 1.477 . S
C218 H236 0.932 . S
C219 C220 1.384 . S
C219 C221 1.479 1_655 S
C219 H237 0.929 . S
C220 C217 1.424 1_655 S
C220 C219 1.384 . S
C220 H238 0.928 . S
C221 C218 1.260 . S
C221 C219 1.479 1_455 S
C222 C217 1.245 . S
C222 C218 1.477 . S
C222 H239 0.932 . S
C223 U206 2.882 . S
C223 C217 1.428 . S
C223 O226 1.301 . S
C223 O227 1.282 1_455 S
O224 U206 2.441 1_655 S
O224 C210 1.249 . S
O225 U206 2.420 1_655 S
O225 C210 1.202 . S
O226 U206 2.455 . S
O226 C223 1.301 . S
O227 U206 2.449 1_655 S
O227 C223 1.282 1_655 S
H228 C201 0.931 . S
H229 C203 0.929 . S
H230 C204 0.930 . S
H231 C205 0.931 . S
H232 C212 0.932 . S
H233 C213 0.930 . S
H234 C214 0.929 . S
H235 C216 0.930 . S
H236 C218 0.932 . S
H237 C219 0.929 . S
H238 C220 0.928 . S
H239 C222 0.932 . S
H240 C241 0.951 1_655 S
C241 H240 0.951 1_455 S
C241 C247 1.265 . S
H242 C247 0.950 . S
H243 C251 0.949 . S
H244 C252 0.950 . S
H245 C253 0.951 . S
H246 C254 0.951 . S
C247 C241 1.265 . S
C247 H242 0.950 . S
C247 C248 1.478 . S
C248 C247 1.478 . S
C248 C249 1.397 . S
C248 C265 1.394 . S
C249 C248 1.397 . S
C249 C250 1.438 . S
C249 C254 1.429 . S
C250 C249 1.438 . S
C250 C251 1.428 . S
C250 C263 1.394 . S
C251 H243 0.949 . S
C251 C250 1.428 . S
C251 C252 1.345 . S
C252 H244 0.950 . S
C252 C251 1.345 . S
C252 C253 1.424 . S
C253 H245 0.951 . S
C253 C252 1.424 . S
C253 C254 1.347 . S
C254 H246 0.951 . S
C254 C249 1.429 . S
C254 C253 1.347 . S
H255 C256 0.951 . S
C256 H255 0.951 . S
C256 C262 1.265 . S
H257 C262 0.950 1_655 S
H258 C266 0.944 1_455 S
H259 C267 0.950 . S
H260 C268 0.951 . S
H261 C269 0.951 . S
C262 C256 1.265 . S
C262 H257 0.950 1_455 S
C262 C263 1.478 . S
C263 C250 1.394 . S
C263 C262 1.478 . S
C263 C264 1.397 . S
C264 C263 1.397 . S
C264 C265 1.438 . S
C264 C269 1.429 1_455 S
C265 C248 1.394 . S
C265 C264 1.438 . S
C265 C266 1.431 1_455 S
C266 H258 0.944 1_655 S
C266 C265 1.431 1_655 S
C266 C267 1.346 . S
C267 H259 0.950 . S
C267 C266 1.346 . S
C267 C268 1.424 . S
C268 H260 0.951 . S
C268 C267 1.424 . S
C268 C269 1.347 . S
C269 H261 0.951 . S
C269 C264 1.429 1_655 S
C269 C268 1.347 . S
H270 C271 0.951 . S
C271 H270 0.951 . S
C271 C277 1.265 . S
H272 C277 0.950 . S
H273 C281 0.949 . S
H274 C282 0.950 . S
H275 C283 0.951 . S
H276 C284 0.951 . S
C277 C271 1.265 . S
C277 H272 0.950 . S
C277 C278 1.478 . S
C278 C277 1.478 . S
C278 C279 1.397 1_545 S
C278 C295 1.394 . S
C279 C278 1.397 1_565 S
C279 C280 1.438 . S
C279 C284 1.429 . S
C280 C279 1.438 . S
C280 C281 1.428 . S
C280 C293 1.394 1_565 S
C281 H273 0.949 . S
C281 C280 1.428 . S
C281 C282 1.345 . S
C282 H274 0.950 . S
C282 C281 1.345 . S
C282 C283 1.424 . S
C283 H275 0.951 . S
C283 C282 1.424 . S
C283 C284 1.347 . S
C284 H276 0.951 . S
C284 C279 1.429 . S
C284 C283 1.347 . S
H285 C286 0.951 . S
C286 H285 0.951 . S
C286 C292 1.265 . S
H287 C292 0.950 . S
H288 C296 0.949 . S
H289 C297 0.950 . S
H290 C298 0.951 . S
H291 C299 0.951 . S
C292 C286 1.265 . S
C292 H287 0.950 . S
C292 C293 1.478 . S
C293 C280 1.394 1_545 S
C293 C292 1.478 . S
C293 C294 1.397 . S
C294 C293 1.397 . S
C294 C295 1.438 . S
C294 C299 1.429 . S
C295 C278 1.394 . S
C295 C294 1.438 . S
C295 C296 1.428 . S
C296 H288 0.949 . S
C296 C295 1.428 . S
C296 C297 1.345 . S
C297 H289 0.950 . S
C297 C296 1.345 . S
C297 C298 1.424 . S
C298 H290 0.951 . S
C298 C297 1.424 . S
C298 C299 1.347 . S
C299 H291 0.951 . S
C299 C294 1.429 . S
C299 C298 1.347 . S
H300 C301 0.951 . S
C301 H300 0.951 . S
C301 C307 1.265 . S
H302 C307 0.950 . S
H303 C311 0.949 . S
H304 C312 0.950 . S
H305 C313 0.951 . S
H306 C314 0.951 . S
C307 C301 1.265 . S
C307 H302 0.950 . S
C307 C308 1.478 . S
C308 C307 1.478 . S
C308 C309 1.397 . S
C308 C325 1.394 . S
C309 C308 1.397 . S
C309 C310 1.438 . S
C309 C314 1.429 . S
C310 C309 1.438 . S
C310 C311 1.428 . S
C310 C323 1.394 . S
C311 H303 0.949 . S
C311 C310 1.428 . S
C311 C312 1.345 . S
C312 H304 0.950 . S
C312 C311 1.345 . S
C312 C313 1.424 . S
C313 H305 0.951 . S
C313 C312 1.424 . S
C313 C314 1.347 . S
C314 H306 0.951 . S
C314 C309 1.429 . S
C314 C313 1.347 . S
H315 C316 0.951 . S
C316 H315 0.951 . S
C316 C322 1.265 . S
H317 C322 0.950 . S
H318 C326 0.949 . S
H319 C327 0.950 . S
H320 C328 0.951 . S
H321 C329 0.951 . S
C322 C316 1.265 . S
C322 H317 0.950 . S
C322 C323 1.478 . S
C323 C310 1.394 . S
C323 C322 1.478 . S
C323 C324 1.397 . S
C324 C323 1.397 . S
C324 C325 1.438 . S
C324 C329 1.429 . S
C325 C308 1.394 . S
C325 C324 1.438 . S
C325 C326 1.428 . S
C326 H318 0.949 . S
C326 C325 1.428 . S
C326 C327 1.345 . S
C327 H319 0.950 . S
C327 C326 1.345 . S
C327 C328 1.424 . S
C328 H320 0.951 . S
C328 C327 1.424 . S
C328 C329 1.347 . S
C329 H321 0.951 . S
C329 C324 1.429 . S
C329 C328 1.347 . S
H330 C331 0.951 . S
C331 H330 0.951 . S
C331 C337 1.265 . S
H332 C337 0.950 . S
H333 C341 0.949 . S
H334 C342 0.950 . S
H335 C343 0.951 . S
H336 C344 0.951 . S
C337 C331 1.265 . S
C337 H332 0.950 . S
C337 C338 1.478 . S
C338 C337 1.478 . S
C338 C339 1.397 . S
C338 C355 1.394 . S
C339 C338 1.397 . S
C339 C340 1.438 1_554 S
C339 C344 1.429 . S
C340 C339 1.438 1_556 S
C340 C341 1.428 . S
C340 C353 1.394 . S
C341 H333 0.949 . S
C341 C340 1.428 . S
C341 C342 1.345 1_556 S
C342 H334 0.950 . S
C342 C341 1.345 1_554 S
C342 C343 1.424 . S
C343 H335 0.951 . S
C343 C342 1.424 . S
C343 C344 1.347 . S
C344 H336 0.951 . S
C344 C339 1.429 . S
C344 C343 1.347 . S
H345 C346 0.951 . S
C346 H345 0.951 . S
C346 C352 1.265 . S
H347 C352 0.950 . S
H348 C356 0.949 . S
H349 C357 0.950 . S
H350 C358 0.951 . S
H351 C359 0.951 . S
C352 C346 1.265 . S
C352 H347 0.950 . S
C352 C353 1.478 . S
C353 C340 1.394 . S
C353 C352 1.478 . S
C353 C354 1.397 . S
C354 C353 1.397 . S
C354 C355 1.438 1_556 S
C354 C359 1.429 . S
C355 C338 1.394 . S
C355 C354 1.438 1_554 S
C355 C356 1.428 . S
C356 H348 0.949 . S
C356 C355 1.428 . S
C356 C357 1.345 1_554 S
C357 H349 0.950 . S
C357 C356 1.345 1_556 S
C357 C358 1.424 . S
C358 H350 0.951 . S
C358 C357 1.424 . S
C358 C359 1.347 . S
C359 H351 0.951 . S
C359 C354 1.429 . S
C359 C358 1.347 . S
H360 C361 0.951 . S
C361 H360 0.951 . S
C361 C367 1.265 . S
H362 C367 0.950 . S
H363 C371 0.949 . S
H364 C372 0.950 . S
H365 C373 0.951 . S
H366 C374 0.951 . S
C367 C361 1.265 . S
C367 H362 0.950 . S
C367 C368 1.478 . S
C368 C367 1.478 . S
C368 C369 1.397 . S
C368 C385 1.394 . S
C369 C368 1.397 . S
C369 C370 1.438 . S
C369 C374 1.429 . S
C370 C369 1.438 . S
C370 C371 1.428 . S
C370 C383 1.394 . S
C371 H363 0.949 . S
C371 C370 1.428 . S
C371 C372 1.345 . S
C372 H364 0.950 . S
C372 C371 1.345 . S
C372 C373 1.424 . S
C373 H365 0.951 . S
C373 C372 1.424 . S
C373 C374 1.347 . S
C374 H366 0.951 . S
C374 C369 1.429 . S
C374 C373 1.347 . S
H375 C376 0.951 . S
C376 H375 0.951 . S
C376 C382 1.265 . S
H377 C382 0.950 . S
H378 C386 0.949 . S
H379 C387 0.950 . S
H380 C388 0.951 . S
H381 C389 0.951 . S
C382 C376 1.265 . S
C382 H377 0.950 . S
C382 C383 1.478 . S
C383 C370 1.394 . S
C383 C382 1.478 . S
C383 C384 1.397 . S
C384 C383 1.397 . S
C384 C385 1.438 . S
C384 C389 1.429 . S
C385 C368 1.394 . S
C385 C384 1.438 . S
C385 C386 1.428 . S
C386 H378 0.949 . S
C386 C385 1.428 . S
C386 C387 1.345 . S
C387 H379 0.950 . S
C387 C386 1.345 . S
C387 C388 1.424 . S
C388 H380 0.951 . S
C388 C387 1.424 . S
C388 C389 1.347 . S
C389 H381 0.951 . S
C389 C384 1.429 . S
C389 C388 1.347 . S
H390 C391 0.951 . S
C391 H390 0.951 . S
C391 C397 1.265 . S
H392 C397 0.950 . S
H393 C401 0.949 . S
H394 C402 0.950 . S
H395 C403 0.951 . S
H396 C404 0.951 . S
C397 C391 1.265 . S
C397 H392 0.950 . S
C397 C398 1.478 . S
C398 C397 1.478 . S
C398 C399 1.397 . S
C398 C415 1.394 . S
C399 C398 1.397 . S
C399 C400 1.438 . S
C399 C404 1.429 . S
C400 C399 1.438 . S
C400 C401 1.428 . S
C400 C413 1.394 . S
C401 H393 0.949 . S
C401 C400 1.428 . S
C401 C402 1.345 . S
C402 H394 0.950 . S
C402 C401 1.345 . S
C402 C403 1.424 . S
C403 H395 0.951 . S
C403 C402 1.424 . S
C403 C404 1.347 . S
C404 H396 0.951 . S
C404 C399 1.429 . S
C404 C403 1.347 . S
H405 C406 0.951 . S
C406 H405 0.951 . S
C406 C412 1.265 . S
H407 C412 0.950 . S
H408 C416 0.949 . S
H409 C417 0.950 . S
H410 C418 0.951 . S
H411 C419 0.951 . S
C412 C406 1.265 . S
C412 H407 0.950 . S
C412 C413 1.478 . S
C413 C400 1.394 . S
C413 C412 1.478 . S
C413 C414 1.397 . S
C414 C413 1.397 . S
C414 C415 1.438 . S
C414 C419 1.429 . S
C415 C398 1.394 . S
C415 C414 1.438 . S
C415 C416 1.428 . S
C416 H408 0.949 . S
C416 C415 1.428 . S
C416 C417 1.345 . S
C417 H409 0.950 . S
C417 C416 1.345 . S
C417 C418 1.424 . S
C418 H410 0.951 . S
C418 C417 1.424 . S
C418 C419 1.347 . S
C419 H411 0.951 . S
C419 C414 1.429 . S
C419 C418 1.347 . S
H420 C421 0.951 . S
C421 H420 0.951 . S
C421 C427 1.265 . S
H422 C427 0.950 . S
H423 C431 0.949 . S
H424 C432 0.950 . S
H425 C433 0.951 . S
H426 C434 0.951 . S
C427 C421 1.265 . S
C427 H422 0.950 . S
C427 C428 1.478 . S
C428 C427 1.478 . S
C428 C429 1.397 . S
C428 C445 1.452 . S
C429 C428 1.397 . S
C429 C430 1.384 1_554 S
C429 C434 1.429 . S
C430 C429 1.384 1_556 S
C430 C431 1.433 . S
C430 C443 1.448 . S
C431 H423 0.949 . S
C431 C430 1.433 . S
C431 C432 1.345 1_556 S
C432 H424 0.950 . S
C432 C431 1.345 1_554 S
C432 C433 1.424 . S
C433 H425 0.951 . S
C433 C432 1.424 . S
C433 C434 1.347 . S
C434 H426 0.951 . S
C434 C429 1.429 . S
C434 C433 1.347 . S
H435 C436 0.951 . S
C436 H435 0.951 . S
C436 C442 1.265 . S
H437 C442 0.950 . S
H438 C446 0.949 . S
H439 C447 0.950 . S
H440 C448 0.951 . S
H441 C449 0.951 . S
C442 C436 1.265 . S
C442 H437 0.950 . S
C442 C443 1.478 . S
C443 C430 1.448 . S
C443 C442 1.478 . S
C443 C444 1.397 . S
C444 C443 1.397 . S
C444 C445 1.380 1_556 S
C444 C449 1.429 . S
C445 C428 1.452 . S
C445 C444 1.380 1_554 S
C445 C446 1.433 . S
C446 H438 0.949 . S
C446 C445 1.433 . S
C446 C447 1.345 1_554 S
C447 H439 0.950 . S
C447 C446 1.345 1_556 S
C447 C448 1.424 . S
C448 H440 0.951 . S
C448 C447 1.424 . S
C448 C449 1.347 . S
C449 H441 0.951 . S
C449 C444 1.429 . S
C449 C448 1.347 . S
H450 C451 0.951 . S
C451 H450 0.951 . S
C451 C457 1.265 . S
H452 C457 0.950 . S
H453 C461 0.949 . S
H454 C462 0.950 . S
H455 C463 0.951 . S
H456 C464 0.951 . S
C457 C451 1.265 . S
C457 H452 0.950 . S
C457 C458 1.478 . S
C458 C457 1.478 . S
C458 C459 1.397 . S
C458 C475 1.394 . S
C459 C458 1.397 . S
C459 C460 1.438 . S
C459 C464 1.429 . S
C460 C459 1.438 . S
C460 C461 1.428 . S
C460 C473 1.394 . S
C461 H453 0.949 . S
C461 C460 1.428 . S
C461 C462 1.345 . S
C462 H454 0.950 . S
C462 C461 1.345 . S
C462 C463 1.424 . S
C463 H455 0.951 . S
C463 C462 1.424 . S
C463 C464 1.347 . S
C464 H456 0.951 . S
C464 C459 1.429 . S
C464 C463 1.347 . S
H465 C466 0.951 . S
C466 H465 0.951 . S
C466 C472 1.265 . S
H467 C472 0.950 . S
H468 C476 0.949 . S
H469 C477 0.950 . S
H470 C478 0.951 . S
H471 C479 0.951 . S
C472 C466 1.265 . S
C472 H467 0.950 . S
C472 C473 1.478 . S
C473 C460 1.394 . S
C473 C472 1.478 . S
C473 C474 1.397 . S
C474 C473 1.397 . S
C474 C475 1.438 . S
C474 C479 1.429 . S
C475 C458 1.394 . S
C475 C474 1.438 . S
C475 C476 1.428 . S
C476 H468 0.949 . S
C476 C475 1.428 . S
C476 C477 1.345 . S
C477 H469 0.950 . S
C477 C476 1.345 . S
C477 C478 1.424 . S
C478 H470 0.951 . S
C478 C477 1.424 . S
C478 C479 1.347 . S
C479 H471 0.951 . S
C479 C474 1.429 . S
C479 C478 1.347 . S
H480 C481 0.951 . S
C481 H480 0.951 . S
C481 C487 1.265 . S
H482 C487 0.950 . S
H483 C491 0.949 . S
H484 C492 0.950 . S
H485 C493 0.951 . S
H486 C494 0.951 . S
C487 C481 1.265 . S
C487 H482 0.950 . S
C487 C488 1.478 . S
C488 C487 1.478 . S
C488 C489 1.397 . S
C488 C505 1.394 . S
C489 C488 1.397 . S
C489 C490 1.438 . S
C489 C494 1.429 . S
C490 C489 1.438 . S
C490 C491 1.428 . S
C490 C503 1.394 . S
C491 H483 0.949 . S
C491 C490 1.428 . S
C491 C492 1.345 . S
C492 H484 0.950 . S
C492 C491 1.345 . S
C492 C493 1.424 . S
C493 H485 0.951 . S
C493 C492 1.424 . S
C493 C494 1.347 . S
C494 H486 0.951 . S
C494 C489 1.429 . S
C494 C493 1.347 . S
H495 C496 0.951 . S
C496 H495 0.951 . S
C496 C502 1.265 . S
H497 C502 0.950 . S
H498 C506 0.949 . S
H499 C507 0.950 . S
H500 C508 0.951 . S
H501 C509 0.951 . S
C502 C496 1.265 . S
C502 H497 0.950 . S
C502 C503 1.478 . S
C503 C490 1.394 . S
C503 C502 1.478 . S
C503 C504 1.397 . S
C504 C503 1.397 . S
C504 C505 1.438 . S
C504 C509 1.429 . S
C505 C488 1.394 . S
C505 C504 1.438 . S
C505 C506 1.428 . S
C506 H498 0.949 . S
C506 C505 1.428 . S
C506 C507 1.345 . S
C507 H499 0.950 . S
C507 C506 1.345 . S
C507 C508 1.424 . S
C508 H500 0.951 . S
C508 C507 1.424 . S
C508 C509 1.347 . S
C509 H501 0.951 . S
C509 C504 1.429 . S
C509 C508 1.347 . S
C241 C21 1.468 . S
C256 C221 1.495 . S
C271 C141 1.461 . S
C286 C61 1.498 . S
C301 C181 1.483 . S
C316 C101 1.499 . S
C331 C15 1.489 . S
C346 C175 1.489 . S
C361 C42 1.460 . S
C376 C202 1.501 . S
C391 C122 1.450 . S
C406 C82 1.488 . S
C421 C2 1.466 . S
C436 C162 1.465 . S
C451 C55 1.493 . S
C466 C215 1.491 . S
C481 C135 1.486 . S
C496 C95 1.491 . S
