# Generated by pormake.
# Topology wmi, (6)-cn, num edge types: 1
# Building blocks:
#     Node 0, Type 0, BuildingBlock: MIFKUJ_clean_sbu_0, # of connection points: 6
#     Node 1, Type 0, BuildingBlock: MIFKUJ_clean_sbu_0, # of connection points: 6
#     Node 2, Type 0, BuildingBlock: MIFKUJ_clean_sbu_0, # of connection points: 6
#     Node 3, Type 0, BuildingBlock: MIFKUJ_clean_sbu_0, # of connection points: 6
#     Node 4, Type 0, BuildingBlock: MIFKUJ_clean_sbu_0, # of connection points: 6
#     Node 5, Type 0, BuildingBlock: MIFKUJ_clean_sbu_0, # of connection points: 6
#     Node 6, Type 0, BuildingBlock: MIFKUJ_clean_sbu_0, # of connection points: 6
#     Node 7, Type 0, BuildingBlock: MIFKUJ_clean_sbu_0, # of connection points: 6
#     Node 8, Type 0, BuildingBlock: MIFKUJ_clean_sbu_0, # of connection points: 6
#     Node 9, Type 0, BuildingBlock: MIFKUJ_clean_sbu_0, # of connection points: 6
#     Node 10, Type 0, BuildingBlock: MIFKUJ_clean_sbu_0, # of connection points: 6
#     Node 11, Type 0, BuildingBlock: MIFKUJ_clean_sbu_0, # of connection points: 6
#     Node 12, Type 0, BuildingBlock: MIFKUJ_clean_sbu_0, # of connection points: 6
#     Node 13, Type 0, BuildingBlock: MIFKUJ_clean_sbu_0, # of connection points: 6
#     Node 14, Type 0, BuildingBlock: MIFKUJ_clean_sbu_0, # of connection points: 6
#     Node 15, Type 0, BuildingBlock: MIFKUJ_clean_sbu_0, # of connection points: 6
#     Node 16, Type 0, BuildingBlock: MIFKUJ_clean_sbu_0, # of connection points: 6
#     Node 17, Type 0, BuildingBlock: MIFKUJ_clean_sbu_0, # of connection points: 6
#     Edge 18, Type (0, 0), BuildingBlock: XIVTED_clean_linker_0, # of connection points: 2
#     Edge 19, Type (0, 0), BuildingBlock: XIVTED_clean_linker_0, # of connection points: 2
#     Edge 20, Type (0, 0), BuildingBlock: XIVTED_clean_linker_0, # of connection points: 2
#     Edge 21, Type (0, 0), BuildingBlock: XIVTED_clean_linker_0, # of connection points: 2
#     Edge 22, Type (0, 0), BuildingBlock: XIVTED_clean_linker_0, # of connection points: 2
#     Edge 23, Type (0, 0), BuildingBlock: XIVTED_clean_linker_0, # of connection points: 2
#     Edge 24, Type (0, 0), BuildingBlock: XIVTED_clean_linker_0, # of connection points: 2
#     Edge 25, Type (0, 0), BuildingBlock: XIVTED_clean_linker_0, # of connection points: 2
#     Edge 26, Type (0, 0), BuildingBlock: XIVTED_clean_linker_0, # of connection points: 2
#     Edge 27, Type (0, 0), BuildingBlock: XIVTED_clean_linker_0, # of connection points: 2
#     Edge 28, Type (0, 0), BuildingBlock: XIVTED_clean_linker_0, # of connection points: 2
#     Edge 29, Type (0, 0), BuildingBlock: XIVTED_clean_linker_0, # of connection points: 2
#     Edge 30, Type (0, 0), BuildingBlock: XIVTED_clean_linker_0, # of connection points: 2
#     Edge 31, Type (0, 0), BuildingBlock: XIVTED_clean_linker_0, # of connection points: 2
#     Edge 32, Type (0, 0), BuildingBlock: XIVTED_clean_linker_0, # of connection points: 2
#     Edge 33, Type (0, 0), BuildingBlock: XIVTED_clean_linker_0, # of connection points: 2
#     Edge 34, Type (0, 0), BuildingBlock: XIVTED_clean_linker_0, # of connection points: 2
#     Edge 35, Type (0, 0), BuildingBlock: XIVTED_clean_linker_0, # of connection points: 2
#     Edge 36, Type (0, 0), BuildingBlock: XIVTED_clean_linker_0, # of connection points: 2
#     Edge 37, Type (0, 0), BuildingBlock: XIVTED_clean_linker_0, # of connection points: 2
#     Edge 38, Type (0, 0), BuildingBlock: XIVTED_clean_linker_0, # of connection points: 2
#     Edge 39, Type (0, 0), BuildingBlock: XIVTED_clean_linker_0, # of connection points: 2
#     Edge 40, Type (0, 0), BuildingBlock: XIVTED_clean_linker_0, # of connection points: 2
#     Edge 41, Type (0, 0), BuildingBlock: XIVTED_clean_linker_0, # of connection points: 2
#     Edge 42, Type (0, 0), BuildingBlock: XIVTED_clean_linker_0, # of connection points: 2
#     Edge 43, Type (0, 0), BuildingBlock: XIVTED_clean_linker_0, # of connection points: 2
#     Edge 44, Type (0, 0), BuildingBlock: XIVTED_clean_linker_0, # of connection points: 2
#     Edge 45, Type (0, 0), BuildingBlock: XIVTED_clean_linker_0, # of connection points: 2
#     Edge 46, Type (0, 0), BuildingBlock: XIVTED_clean_linker_0, # of connection points: 2
#     Edge 47, Type (0, 0), BuildingBlock: XIVTED_clean_linker_0, # of connection points: 2
#     Edge 48, Type (0, 0), BuildingBlock: XIVTED_clean_linker_0, # of connection points: 2
#     Edge 49, Type (0, 0), BuildingBlock: XIVTED_clean_linker_0, # of connection points: 2
#     Edge 50, Type (0, 0), BuildingBlock: XIVTED_clean_linker_0, # of connection points: 2
#     Edge 51, Type (0, 0), BuildingBlock: XIVTED_clean_linker_0, # of connection points: 2
#     Edge 52, Type (0, 0), BuildingBlock: XIVTED_clean_linker_0, # of connection points: 2
#     Edge 53, Type (0, 0), BuildingBlock: XIVTED_clean_linker_0, # of connection points: 2
#     Edge 54, Type (0, 0), BuildingBlock: XIVTED_clean_linker_0, # of connection points: 2
#     Edge 55, Type (0, 0), BuildingBlock: XIVTED_clean_linker_0, # of connection points: 2
#     Edge 56, Type (0, 0), BuildingBlock: XIVTED_clean_linker_0, # of connection points: 2
#     Edge 57, Type (0, 0), BuildingBlock: XIVTED_clean_linker_0, # of connection points: 2
#     Edge 58, Type (0, 0), BuildingBlock: XIVTED_clean_linker_0, # of connection points: 2
#     Edge 59, Type (0, 0), BuildingBlock: XIVTED_clean_linker_0, # of connection points: 2
#     Edge 60, Type (0, 0), BuildingBlock: XIVTED_clean_linker_0, # of connection points: 2
#     Edge 61, Type (0, 0), BuildingBlock: XIVTED_clean_linker_0, # of connection points: 2
#     Edge 62, Type (0, 0), BuildingBlock: XIVTED_clean_linker_0, # of connection points: 2
#     Edge 63, Type (0, 0), BuildingBlock: XIVTED_clean_linker_0, # of connection points: 2
#     Edge 64, Type (0, 0), BuildingBlock: XIVTED_clean_linker_0, # of connection points: 2
#     Edge 65, Type (0, 0), BuildingBlock: XIVTED_clean_linker_0, # of connection points: 2
#     Edge 66, Type (0, 0), BuildingBlock: XIVTED_clean_linker_0, # of connection points: 2
#     Edge 67, Type (0, 0), BuildingBlock: XIVTED_clean_linker_0, # of connection points: 2
#     Edge 68, Type (0, 0), BuildingBlock: XIVTED_clean_linker_0, # of connection points: 2
#     Edge 69, Type (0, 0), BuildingBlock: XIVTED_clean_linker_0, # of connection points: 2
#     Edge 70, Type (0, 0), BuildingBlock: XIVTED_clean_linker_0, # of connection points: 2
#     Edge 71, Type (0, 0), BuildingBlock: XIVTED_clean_linker_0, # of connection points: 2
# Relax obj value: 0.080
# Max RMSD: 0.182
# Mean RMSD: 0.182
data_MOF--net-wmi--node1-MIFKUJ_clean_sbu_0--edge1-XIVTED_clean_linker_0
_symmetry_space_group_name_H-M    P1
_symmetry_Int_Tables_number       1
_symmetry_cell_setting            triclinic
loop_
_symmetry_equiv_pos_as_xyz
'x, y, z'
_cell_length_a     34.93741
_cell_length_b     34.981741
_cell_length_c     79.59753
_cell_angle_alpha  89.996055
_cell_angle_beta   90.079724
_cell_angle_gamma 119.89686
loop_
_atom_site_label
_atom_site_type_symbol
_atom_site_fract_x
_atom_site_fract_y
_atom_site_fract_z
_atom_type_partial_charge
Zn0 Zn 0.43686 0.94026 0.08055 0.0
Zn1 Zn 0.52453 0.05879 0.08475 0.0
C2 C 0.51324 0.93363 0.09111 0.0
O3 O 0.53456 0.96507 0.08006 0.0
C4 C 0.5066 0.12777 0.09383 0.0
O5 O 0.51308 0.11729 0.109 0.0
O6 O 0.37603 0.8873 0.07876 0.0
O7 O 0.43178 0.98975 0.09013 0.0
O8 O 0.49112 0.02515 0.10544 0.0
C9 C 0.35807 0.86287 0.09149 0.0
O10 O 0.37927 0.87336 0.1059 0.0
O11 O 0.47309 0.92134 0.09429 0.0
C12 C 0.61592 0.10961 0.07686 0.0
O13 O 0.59906 0.10297 0.06167 0.0
O14 O 0.59014 0.09171 0.08926 0.0
O15 O 0.51232 0.02629 0.06237 0.0
O16 O 0.46204 0.95617 0.05784 0.0
O17 O 0.50899 0.10649 0.08131 0.0
C18 C 0.44952 0.001 0.10443 0.0
C19 C 0.49281 0.99305 0.05264 0.0
Zn20 Zn 0.07052 0.46389 0.07683 0.0
Zn21 Zn 0.97705 0.46406 0.08375 0.0
C22 C 0.12038 0.55449 0.07414 0.0
O23 O 0.12648 0.53997 0.05974 0.0
C24 C 0.908 0.37927 0.0934 0.0
O25 O 0.91586 0.39998 0.10786 0.0
O26 O 0.12342 0.45532 0.07606 0.0
O27 O 0.02599 0.41854 0.09178 0.0
O28 O 0.014 0.46725 0.1041 0.0
C29 C 0.1466 0.46339 0.08932 0.0
O30 O 0.13374 0.47444 0.10309 0.0
O31 O 0.09497 0.52665 0.08497 0.0
C32 C 0.91592 0.49283 0.07789 0.0
O33 O 0.91804 0.47779 0.06301 0.0
O34 O 0.94034 0.49216 0.08962 0.0
O35 O 0.00402 0.48762 0.0606 0.0
O36 O 0.04806 0.46104 0.05402 0.0
O37 O 0.93146 0.39986 0.08075 0.0
C38 C 0.02242 0.43593 0.10514 0.0
C39 C 0.02628 0.47971 0.04988 0.0
Zn40 Zn 0.55428 0.60383 0.07955 0.0
Zn41 Zn 0.56388 0.50874 0.08382 0.0
C42 C 0.4636 0.56105 0.07689 0.0
O43 O 0.47805 0.58528 0.06327 0.0
C44 C 0.64713 0.51866 0.09474 0.0
O45 O 0.62626 0.50567 0.10915 0.0
O46 O 0.56545 0.66581 0.08215 0.0
O47 O 0.60173 0.59938 0.09134 0.0
O48 O 0.55962 0.53926 0.10496 0.0
C49 C 0.55144 0.67458 0.09553 0.0
O50 O 0.53088 0.64331 0.10673 0.0
O51 O 0.49158 0.56256 0.08754 0.0
C52 C 0.52776 0.41872 0.07491 0.0
O53 O 0.54331 0.43728 0.06026 0.0
O54 O 0.5305 0.44294 0.08728 0.0
O55 O 0.54906 0.52298 0.06041 0.0
O56 O 0.55472 0.58851 0.056 0.0
O57 O 0.62733 0.52344 0.08219 0.0
C58 C 0.58679 0.58033 0.10518 0.0
C59 C 0.54767 0.55133 0.05069 0.0
Zn60 Zn 0.96038 0.42745 0.89953 0.0
Zn61 Zn 0.06706 0.51978 0.89284 0.0
C62 C 0.91746 0.47584 0.90096 0.0
O63 O 0.91045 0.45714 0.9158 0.0
C64 C 0.13905 0.5075 0.88203 0.0
O65 O 0.1306 0.51898 0.86737 0.0
O66 O 0.90787 0.36629 0.89924 0.0
O67 O 0.00935 0.42695 0.88732 0.0
O68 O 0.02973 0.48612 0.87257 0.0
C69 C 0.88298 0.35378 0.88635 0.0
O70 O 0.8927 0.38096 0.87362 0.0
O71 O 0.93992 0.46838 0.89022 0.0
C72 C 0.12042 0.61064 0.9003 0.0
O73 O 0.11756 0.59354 0.91525 0.0
O74 O 0.09929 0.58514 0.88815 0.0
O75 O 0.04096 0.50927 0.91661 0.0
O76 O 0.97941 0.44674 0.92261 0.0
O77 O 0.11535 0.5046 0.8946 0.0
C78 C 0.01354 0.44466 0.87316 0.0
C79 C 0.01169 0.48361 0.92703 0.0
Zn80 Zn 0.62071 0.56971 0.89932 0.0
Zn81 Zn 0.52555 0.57231 0.8936 0.0
C82 C 0.58064 0.47956 0.90256 0.0
O83 O 0.60386 0.49533 0.91639 0.0
C84 C 0.53686 0.6562 0.88348 0.0
O85 O 0.52355 0.63553 0.86902 0.0
O86 O 0.68241 0.57902 0.899 0.0
O87 O 0.61912 0.61539 0.8852 0.0
O88 O 0.55783 0.56799 0.87305 0.0
C89 C 0.69498 0.5673 0.88596 0.0
O90 O 0.66817 0.55168 0.87301 0.0
O91 O 0.58135 0.50649 0.89163 0.0
C92 C 0.43447 0.53755 0.90032 0.0
O93 O 0.45099 0.55164 0.91536 0.0
O94 O 0.46035 0.54109 0.88845 0.0
O95 O 0.53328 0.55266 0.91705 0.0
O96 O 0.60321 0.57227 0.92246 0.0
O97 O 0.54175 0.63614 0.8959 0.0
C98 C 0.59808 0.59771 0.87189 0.0
C99 C 0.56365 0.55747 0.92721 0.0
Zn100 Zn 0.48693 0.08411 0.90331 0.0
Zn101 Zn 0.46923 0.97693 0.89555 0.0
C102 C 0.57838 0.117 0.90365 0.0
O103 O 0.56984 0.11843 0.91962 0.0
C104 C 0.38482 0.90668 0.88479 0.0
O105 O 0.40471 0.91605 0.87014 0.0
O106 O 0.48406 0.14008 0.90468 0.0
O107 O 0.43557 0.04104 0.89009 0.0
O108 O 0.47111 0.01505 0.87585 0.0
C109 C 0.49248 0.16385 0.8916 0.0
O110 O 0.50182 0.15064 0.87753 0.0
O111 O 0.54667 0.10162 0.89314 0.0
C112 C 0.50333 0.91982 0.90135 0.0
O113 O 0.48805 0.92101 0.91629 0.0
O114 O 0.50089 0.9434 0.88968 0.0
O115 O 0.48716 0.00125 0.91938 0.0
O116 O 0.48521 0.06195 0.92602 0.0
O117 O 0.40571 0.92933 0.89756 0.0
C118 C 0.44645 0.03217 0.87615 0.0
C119 C 0.49042 0.0298 0.93009 0.0
Zn120 Zn 0.09759 0.31411 0.41523 0.0
Zn121 Zn 0.19244 0.39718 0.42104 0.0
C122 C 0.12826 0.25575 0.40963 0.0
O123 O 0.10466 0.2517 0.39619 0.0
C124 C 0.17809 0.46841 0.42948 0.0
O125 O 0.19469 0.46436 0.44375 0.0
O126 O 0.03436 0.26454 0.41412 0.0
O127 O 0.10139 0.35683 0.43249 0.0
O128 O 0.16225 0.36137 0.442 0.0
C129 C 0.01885 0.24041 0.4271 0.0
O130 O 0.04334 0.25085 0.4407 0.0
O131 O 0.13199 0.28314 0.42095 0.0
C132 C 0.28051 0.45987 0.41379 0.0
O133 O 0.26123 0.45647 0.39925 0.0
O134 O 0.25749 0.43554 0.42588 0.0
O135 O 0.18755 0.36738 0.39854 0.0
O136 O 0.11662 0.34003 0.39273 0.0
O137 O 0.1721 0.44166 0.41759 0.0
C138 C 0.12559 0.35953 0.44475 0.0
C139 C 0.15591 0.35318 0.388 0.0
Zn140 Zn 0.75469 0.83591 0.41268 0.0
Zn141 Zn 0.64301 0.81674 0.41868 0.0
C142 C 0.79686 0.92739 0.41039 0.0
O143 O 0.80344 0.91518 0.39558 0.0
C144 C 0.57162 0.73295 0.4302 0.0
O145 O 0.5824 0.75244 0.44493 0.0
O146 O 0.80567 0.82488 0.4146 0.0
O147 O 0.70357 0.78715 0.4241 0.0
O148 O 0.67808 0.82014 0.43967 0.0
C149 C 0.82851 0.83769 0.42801 0.0
O150 O 0.81836 0.85799 0.43955 0.0
O151 O 0.77492 0.89788 0.42132 0.0
C152 C 0.59271 0.85681 0.40924 0.0
O153 O 0.5974 0.84285 0.39448 0.0
O154 O 0.61198 0.85173 0.42189 0.0
O155 O 0.67191 0.82922 0.39525 0.0
O156 O 0.73671 0.83466 0.38939 0.0
O157 O 0.59349 0.75384 0.41731 0.0
C158 C 0.69814 0.79848 0.4385 0.0
C159 C 0.70196 0.83476 0.38479 0.0
Zn160 Zn 0.19964 0.93559 0.41014 0.0
Zn161 Zn 0.23127 0.85003 0.41538 0.0
C162 C 0.11787 0.85979 0.42192 0.0
O163 O 0.12627 0.83762 0.41063 0.0
C164 C 0.31852 0.87129 0.425 0.0
O165 O 0.30044 0.86383 0.43998 0.0
O166 O 0.20362 0.99488 0.40754 0.0
O167 O 0.2557 0.94512 0.4202 0.0
O168 O 0.22981 0.88522 0.43535 0.0
C169 C 0.19941 0.01389 0.42047 0.0
O170 O 0.19385 0.99495 0.43521 0.0
O171 O 0.14625 0.89994 0.42465 0.0
C172 C 0.197 0.75845 0.40934 0.0
O173 O 0.20823 0.77386 0.394 0.0
O174 O 0.20186 0.78508 0.42114 0.0
O175 O 0.209 0.85697 0.39257 0.0
O176 O 0.18967 0.9077 0.38783 0.0
O177 O 0.29528 0.86819 0.41222 0.0
C178 C 0.2494 0.927 0.43443 0.0
C179 C 0.19468 0.876 0.38285 0.0
Zn180 Zn 0.61656 0.75333 0.23363 0.0
Zn181 Zn 0.72307 0.84627 0.22722 0.0
C182 C 0.57442 0.80292 0.23621 0.0
O183 O 0.56847 0.78457 0.25108 0.0
C184 C 0.79623 0.83625 0.21597 0.0
O185 O 0.78744 0.84813 0.20146 0.0
O186 O 0.56463 0.69192 0.23251 0.0
O187 O 0.66503 0.75337 0.22086 0.0
O188 O 0.68672 0.81373 0.20664 0.0
C189 C 0.54106 0.68102 0.21928 0.0
O190 O 0.55133 0.71021 0.20723 0.0
O191 O 0.59588 0.79496 0.22517 0.0
C192 C 0.77678 0.9361 0.23551 0.0
O193 O 0.77507 0.91734 0.24999 0.0
O194 O 0.75459 0.91194 0.22322 0.0
O195 O 0.69636 0.83355 0.25093 0.0
O196 O 0.63566 0.77027 0.25686 0.0
O197 O 0.7723 0.8322 0.22861 0.0
C198 C 0.6702 0.77221 0.20688 0.0
C199 C 0.66761 0.80725 0.26139 0.0
Zn200 Zn 0.27596 0.89482 0.2334 0.0
Zn201 Zn 0.18123 0.8916 0.22637 0.0
C202 C 0.24048 0.80536 0.23692 0.0
O203 O 0.26384 0.82258 0.25062 0.0
C204 C 0.19619 0.97715 0.21762 0.0
O205 O 0.18342 0.95772 0.20292 0.0
O206 O 0.33846 0.90602 0.23389 0.0
O207 O 0.27359 0.93897 0.21864 0.0
O208 O 0.21494 0.88865 0.20593 0.0
C209 C 0.35232 0.89544 0.2209 0.0
O210 O 0.32652 0.8804 0.20766 0.0
O211 O 0.23907 0.83108 0.22592 0.0
C212 C 0.09163 0.86308 0.23233 0.0
O213 O 0.10911 0.87821 0.24718 0.0
O214 O 0.11643 0.86355 0.22055 0.0
O215 O 0.18516 0.8674 0.2494 0.0
O216 O 0.25615 0.89735 0.25614 0.0
O217 O 0.19948 0.95563 0.22988 0.0
C218 C 0.25435 0.92054 0.20514 0.0
C219 C 0.21564 0.87681 0.26019 0.0
Zn220 Zn 0.16161 0.41362 0.23667 0.0
Zn221 Zn 0.13154 0.29705 0.23219 0.0
C222 C 0.24512 0.42063 0.22656 0.0
O223 O 0.23667 0.39154 0.23847 0.0
C224 C 0.04573 0.22895 0.22201 0.0
O225 O 0.06459 0.23919 0.20716 0.0
O226 O 0.15697 0.46864 0.23853 0.0
O227 O 0.1063 0.36702 0.22623 0.0
O228 O 0.13349 0.33275 0.21191 0.0
C229 C 0.16208 0.49169 0.22547 0.0
O230 O 0.16904 0.47832 0.21096 0.0
O231 O 0.21622 0.4312 0.22285 0.0
C232 C 0.1697 0.24332 0.23921 0.0
O233 O 0.15853 0.24805 0.2545 0.0
O234 O 0.16322 0.26333 0.22716 0.0
O235 O 0.15136 0.32652 0.25501 0.0
O236 O 0.16991 0.3964 0.2594 0.0
O237 O 0.0679 0.25011 0.23483 0.0
C238 C 0.11342 0.3546 0.21227 0.0
C239 C 0.16453 0.35979 0.26465 0.0
Zn240 Zn 0.75997 0.61234 0.7417 0.0
Zn241 Zn 0.85028 0.72889 0.74648 0.0
C242 C 0.83423 0.60225 0.75276 0.0
O243 O 0.85732 0.63405 0.74205 0.0
C244 C 0.82947 0.79398 0.75718 0.0
O245 O 0.8404 0.78428 0.77171 0.0
O246 O 0.69867 0.5597 0.73897 0.0
O247 O 0.75613 0.66105 0.75282 0.0
O248 O 0.81824 0.69226 0.76684 0.0
C249 C 0.67959 0.53482 0.7515 0.0
O250 O 0.69944 0.54512 0.76619 0.0
O251 O 0.79399 0.59064 0.7553 0.0
C252 C 0.93972 0.78995 0.73909 0.0
O253 O 0.92101 0.78722 0.72448 0.0
O254 O 0.91592 0.76589 0.75111 0.0
O255 O 0.84145 0.69898 0.72373 0.0
O256 O 0.78734 0.63024 0.71929 0.0
O257 O 0.83014 0.77345 0.7441 0.0
C258 C 0.77632 0.67094 0.76672 0.0
C259 C 0.8203 0.66574 0.71412 0.0
Zn260 Zn 0.38317 0.13477 0.74099 0.0
Zn261 Zn 0.3025 0.14554 0.75009 0.0
C262 C 0.43626 0.22543 0.73553 0.0
O263 O 0.43899 0.20826 0.7212 0.0
C264 C 0.23212 0.05973 0.75833 0.0
O265 O 0.23924 0.07887 0.7731 0.0
O266 O 0.43527 0.12518 0.73845 0.0
O267 O 0.34562 0.0943 0.75872 0.0
O268 O 0.33923 0.14719 0.77047 0.0
C269 C 0.45869 0.13307 0.75165 0.0
O270 O 0.44625 0.1444 0.76544 0.0
O271 O 0.41154 0.19971 0.74703 0.0
C272 C 0.24113 0.1743 0.74508 0.0
O273 O 0.24439 0.1618 0.72984 0.0
O274 O 0.26519 0.17236 0.75668 0.0
O275 O 0.3303 0.17237 0.72726 0.0
O276 O 0.35015 0.12383 0.71985 0.0
O277 O 0.25669 0.0815 0.74606 0.0
C278 C 0.34488 0.11411 0.77185 0.0
C279 C 0.3368 0.15038 0.716 0.0
Zn280 Zn 0.86535 0.26635 0.74729 0.0
Zn281 Zn 0.87997 0.17165 0.7538 0.0
C282 C 0.77575 0.22669 0.74355 0.0
O283 O 0.79256 0.25159 0.73019 0.0
C284 C 0.96494 0.18484 0.76464 0.0
O285 O 0.94515 0.17234 0.77927 0.0
O286 O 0.87785 0.32886 0.74873 0.0
O287 O 0.91177 0.26195 0.75985 0.0
O288 O 0.87534 0.20262 0.77472 0.0
C289 C 0.86451 0.33926 0.76189 0.0
O290 O 0.84383 0.30919 0.77349 0.0
O291 O 0.8019 0.22667 0.75473 0.0
C292 C 0.83911 0.08083 0.74452 0.0
O293 O 0.8488 0.09859 0.72949 0.0
O294 O 0.84725 0.10574 0.75724 0.0
O295 O 0.86565 0.186 0.73037 0.0
O296 O 0.86657 0.24854 0.72417 0.0
O297 O 0.94375 0.18769 0.75216 0.0
C298 C 0.8983 0.24427 0.774 0.0
C299 C 0.86197 0.21156 0.71985 0.0
Zn300 Zn 0.30546 0.09168 0.5644 0.0
Zn301 Zn 0.39573 0.18627 0.55999 0.0
C302 C 0.25118 0.12756 0.56827 0.0
O303 O 0.24333 0.10211 0.58145 0.0
C304 C 0.46955 0.17562 0.55128 0.0
O305 O 0.46299 0.18931 0.53676 0.0
O306 O 0.25448 0.0294 0.56342 0.0
O307 O 0.35378 0.09529 0.5505 0.0
O308 O 0.36188 0.15459 0.5386 0.0
C309 C 0.23074 0.01683 0.55022 0.0
O310 O 0.24168 0.04406 0.53744 0.0
O311 O 0.27942 0.1302 0.55752 0.0
C312 C 0.45287 0.27693 0.56676 0.0
O313 O 0.45001 0.26042 0.58184 0.0
O314 O 0.43028 0.25123 0.55489 0.0
O315 O 0.36493 0.17919 0.5829 0.0
O316 O 0.32529 0.10715 0.58753 0.0
O317 O 0.44363 0.17021 0.56343 0.0
C318 C 0.35582 0.1158 0.53724 0.0
C319 C 0.34324 0.1466 0.59277 0.0
Zn320 Zn 0.94593 0.219 0.57034 0.0
Zn321 Zn 0.85251 0.2236 0.56313 0.0
C322 C 0.8984 0.12756 0.57135 0.0
O323 O 0.91492 0.1384 0.58657 0.0
C324 C 0.86879 0.30844 0.55279 0.0
O325 O 0.85643 0.28759 0.53834 0.0
O326 O 0.00665 0.22508 0.57167 0.0
O327 O 0.94878 0.26735 0.55643 0.0
O328 O 0.88814 0.22055 0.54334 0.0
C329 C 0.02342 0.2184 0.55858 0.0
O330 O 1.00197 0.21032 0.54427 0.0
O331 O 0.90651 0.15802 0.56082 0.0
C332 C 0.76295 0.19695 0.56874 0.0
O333 O 0.7808 0.21318 0.58344 0.0
O334 O 0.78738 0.19568 0.55714 0.0
O335 O 0.85632 0.20217 0.58662 0.0
O336 O 0.92507 0.21959 0.59311 0.0
O337 O 0.87112 0.28795 0.5656 0.0
C338 C 0.92738 0.25292 0.54291 0.0
C339 C 0.88523 0.20567 0.59725 0.0
Zn340 Zn 0.82805 0.74468 0.56408 0.0
Zn341 Zn 0.81058 0.63461 0.55701 0.0
C342 C 0.9196 0.78871 0.56497 0.0
O343 O 0.90846 0.79396 0.58018 0.0
C344 C 0.72414 0.5653 0.54688 0.0
O345 O 0.74261 0.57308 0.53197 0.0
O346 O 0.8173 0.79593 0.56479 0.0
O347 O 0.77898 0.69497 0.55209 0.0
O348 O 0.81432 0.67169 0.53663 0.0
C349 C 0.82912 0.82227 0.55238 0.0
O350 O 0.84715 0.81467 0.53926 0.0
O351 O 0.88928 0.76703 0.55425 0.0
C352 C 0.84338 0.5777 0.56485 0.0
O353 O 0.8276 0.58077 0.57944 0.0
O354 O 0.84167 0.6 0.55254 0.0
O355 O 0.82814 0.66206 0.58055 0.0
O356 O 0.82995 0.7249 0.58687 0.0
O357 O 0.74667 0.58831 0.55932 0.0
C358 C 0.79143 0.69055 0.53774 0.0
C359 C 0.8336 0.69189 0.59107 0.0
H360 H 0.58625 0.93314 0.07892 0.0
H361 H 0.5176 0.70064 0.12116 0.0
H362 H 0.48046 0.86825 0.11481 0.0
H363 H 0.59479 0.7483 0.07577 0.0
H364 H 0.51831 0.77057 0.1237 0.0
H365 H 0.6047 0.8749 0.08287 0.0
C366 C 0.56754 0.90725 0.08793 0.0
C367 C 0.53121 0.90512 0.09633 0.0
C368 C 0.53545 0.76585 0.11328 0.0
C369 C 0.55203 0.83834 0.10078 0.0
C370 C 0.53507 0.72594 0.1118 0.0
C371 C 0.55552 0.71832 0.09805 0.0
C372 C 0.55665 0.7985 0.10099 0.0
C373 C 0.57806 0.75253 0.08644 0.0
C374 C 0.57793 0.87386 0.09008 0.0
C375 C 0.50831 0.87085 0.10789 0.0
N376 N 0.57772 0.79103 0.08809 0.0
N377 N 0.51876 0.83849 0.10963 0.0
H378 H 0.30745 0.82958 0.06322 0.0
H379 H 0.1425 0.59595 0.10491 0.0
H380 H 0.31224 0.80079 0.11568 0.0
H381 H 0.15706 0.62131 0.05158 0.0
H382 H 0.19441 0.67455 0.11003 0.0
H383 H 0.24208 0.75712 0.05979 0.0
C384 C 0.29455 0.80818 0.07407 0.0
C385 C 0.31577 0.82105 0.08971 0.0
C386 C 0.18575 0.66289 0.09723 0.0
C387 C 0.24089 0.7378 0.08584 0.0
C388 C 0.15601 0.61817 0.09431 0.0
C389 C 0.14598 0.60213 0.0778 0.0
C390 C 0.20509 0.69155 0.08352 0.0
C391 C 0.1644 0.63221 0.06451 0.0
C392 C 0.2572 0.76675 0.07209 0.0
C393 C 0.29722 0.79203 0.10334 0.0
N394 N 0.19323 0.67534 0.06766 0.0
N395 N 0.26106 0.75156 0.10106 0.0
H396 H 0.20523 0.48166 0.11518 0.0
H397 H 0.40032 0.52519 0.05301 0.0
H398 H 0.18766 0.45157 0.06217 0.0
H399 H 0.41768 0.53751 0.10677 0.0
H400 H 0.32089 0.49127 0.05676 0.0
H401 H 0.28097 0.49549 0.11312 0.0
C402 C 0.21708 0.47742 0.10314 0.0
C403 C 0.19021 0.46602 0.08876 0.0
C404 C 0.34181 0.5008 0.0678 0.0
C405 C 0.27692 0.48201 0.08633 0.0
C406 C 0.38723 0.52025 0.06565 0.0
C407 C 0.41554 0.53455 0.0796 0.0
C408 C 0.32438 0.49628 0.08402 0.0
C409 C 0.39687 0.52694 0.0957 0.0
C410 C 0.26034 0.48529 0.102 0.0
C411 C 0.20725 0.46069 0.07355 0.0
N412 N 0.35237 0.50893 0.09748 0.0
N413 N 0.24962 0.46923 0.07271 0.0
H414 H 0.89875 0.52356 0.92271 0.0
H415 H 0.72998 0.54091 0.86071 0.0
H416 H 0.88749 0.48728 0.87041 0.0
H417 H 0.7547 0.59001 0.91164 0.0
H418 H 0.79327 0.52921 0.86267 0.0
H419 H 0.85285 0.55662 0.91761 0.0
C420 C 0.887 0.52312 0.91006 0.0
C421 C 0.89643 0.50228 0.89699 0.0
C422 C 0.78521 0.54311 0.87332 0.0
C423 C 0.84301 0.53937 0.89108 0.0
C424 C 0.74903 0.54977 0.87224 0.0
C425 C 0.73658 0.56583 0.88614 0.0
C426 C 0.80894 0.55236 0.88845 0.0
C427 C 0.76273 0.57709 0.90067 0.0
C428 C 0.86077 0.54203 0.90714 0.0
C429 C 0.88084 0.50302 0.88082 0.0
N430 N 0.79729 0.56964 0.9015 0.0
N431 N 0.85414 0.52059 0.87836 0.0
H432 H 0.48018 0.20346 0.9191 0.0
H433 H 0.55696 0.43374 0.87265 0.0
H434 H 0.51148 0.22378 0.86624 0.0
H435 H 0.5507 0.41601 0.92641 0.0
H436 H 0.52672 0.35386 0.86915 0.0
H437 H 0.49218 0.27823 0.92099 0.0
C438 C 0.48924 0.2235 0.90785 0.0
C439 C 0.49543 0.2075 0.89254 0.0
C440 C 0.53152 0.36752 0.88169 0.0
C441 C 0.50939 0.29338 0.89463 0.0
C442 C 0.5485 0.41296 0.88368 0.0
C443 C 0.55676 0.43143 0.89983 0.0
C444 C 0.52241 0.34064 0.89597 0.0
C445 C 0.54541 0.40317 0.91372 0.0
C446 C 0.49614 0.26627 0.90894 0.0
C447 C 0.5068 0.23493 0.87834 0.0
N448 N 0.52907 0.35932 0.91147 0.0
N449 N 0.5138 0.2767 0.87976 0.0
H450 H 0.64904 0.12947 0.92201 0.0
H451 H 0.81965 0.31915 0.86175 0.0
H452 H 0.61344 0.15615 0.87328 0.0
H453 H 0.85192 0.2904 0.91079 0.0
H454 H 0.74753 0.25206 0.86343 0.0
H455 H 0.72653 0.17931 0.91562 0.0
C456 C 0.6577 0.14533 0.90981 0.0
C457 C 0.62486 0.13924 0.89824 0.0
C458 C 0.77061 0.26016 0.87372 0.0
C459 C 0.71355 0.19717 0.89094 0.0
C460 C 0.81179 0.29851 0.87279 0.0
C461 C 0.84156 0.31083 0.88629 0.0
C462 C 0.75916 0.23404 0.88826 0.0
C463 C 0.8298 0.28256 0.90019 0.0
C464 C 0.70197 0.17389 0.90618 0.0
C465 C 0.63783 0.16014 0.88257 0.0
N466 N 0.78936 0.24579 0.90088 0.0
N467 N 0.68125 0.18891 0.87948 0.0
H468 H 0.20074 0.05727 0.39161 0.0
H469 H 0.15806 0.23554 0.4385 0.0
H470 H 0.19293 0.06405 0.44556 0.0
H471 H 0.14178 0.20953 0.38521 0.0
H472 H 0.18241 0.18095 0.44134 0.0
H473 H 0.1908 0.12134 0.3891 0.0
C474 C 0.19729 0.07242 0.40295 0.0
C475 C 0.19721 0.05493 0.41881 0.0
C476 C 0.17382 0.18753 0.42902 0.0
C477 C 0.18569 0.12837 0.41602 0.0
C478 C 0.16014 0.21878 0.42739 0.0
C479 C 0.14749 0.22674 0.41163 0.0
C480 C 0.1752 0.16451 0.41476 0.0
C481 C 0.15072 0.20407 0.39764 0.0
C482 C 0.19151 0.10898 0.4015 0.0
C483 C 0.19279 0.07616 0.43306 0.0
N484 N 0.16406 0.17394 0.39955 0.0
N485 N 0.18695 0.11161 0.43133 0.0
H486 H 0.97806 0.18006 0.45226 0.0
H487 H 0.81917 0.99376 0.38817 0.0
H488 H 0.96441 0.2033 0.39991 0.0
H489 H 0.82368 0.96923 0.44103 0.0
H490 H 0.86487 0.07253 0.39328 0.0
H491 H 0.91508 0.10543 0.4495 0.0
C492 C 0.96148 0.16971 0.44023 0.0
C493 C 0.97698 0.19782 0.42622 0.0
C494 C 0.85553 0.05015 0.40384 0.0
C495 C 0.90497 0.11231 0.42297 0.0
C496 C 0.82941 0.0051 0.40092 0.0
C497 C 0.81811 0.97495 0.41417 0.0
C498 C 0.87123 0.06535 0.42012 0.0
C499 C 0.8318 0.99144 0.43047 0.0
C500 C 0.92548 0.12705 0.43868 0.0
C501 C 0.95393 0.1827 0.41101 0.0
N502 N 0.85833 0.03561 0.43296 0.0
N503 N 0.91946 0.14085 0.40975 0.0
H504 H 0.04234 0.78803 0.41037 0.0
H505 H 0.88897 0.86894 0.45354 0.0
H506 H 0.08904 0.89416 0.44645 0.0
H507 H 0.855 0.79121 0.40812 0.0
H508 H 0.9557 0.86329 0.45603 0.0
H509 H 0.96695 0.77298 0.41499 0.0
C510 C 0.03668 0.80746 0.41959 0.0
C511 C 0.07214 0.84303 0.42779 0.0
C512 C 0.93338 0.84711 0.44562 0.0
C513 C 0.9861 0.82619 0.43298 0.0
C514 C 0.89532 0.85036 0.44416 0.0
C515 C 0.86682 0.83122 0.43042 0.0
C516 C 0.94287 0.82435 0.4333 0.0
C517 C 0.87645 0.80708 0.41877 0.0
C518 C 0.99364 0.79903 0.42211 0.0
C519 C 0.06274 0.86689 0.43965 0.0
N520 N 0.91388 0.80464 0.4204 0.0
N521 N 0.02065 0.85845 0.44171 0.0
H522 H 0.39036 0.87283 0.19558 0.0
H523 H 0.5536 0.84823 0.25845 0.0
H524 H 0.40912 0.91452 0.24743 0.0
H525 H 0.54586 0.81672 0.20573 0.0
H526 H 0.50776 0.88145 0.25354 0.0
H527 H 0.45329 0.86067 0.19788 0.0
C528 C 0.40803 0.87997 0.20739 0.0
C529 C 0.39399 0.89409 0.22142 0.0
C530 C 0.51642 0.86783 0.24296 0.0
C531 C 0.46595 0.88004 0.22414 0.0
C532 C 0.54262 0.84882 0.24576 0.0
C533 C 0.55306 0.82926 0.2325 0.0
C534 C 0.49976 0.86668 0.2268 0.0
C535 C 0.53842 0.83139 0.21629 0.0
C536 C 0.44401 0.87304 0.20868 0.0
C537 C 0.41843 0.90319 0.23634 0.0
N538 N 0.51182 0.84911 0.21393 0.0
N539 N 0.45283 0.8955 0.23735 0.0
H540 H 0.21463 0.75828 0.20729 0.0
H541 H 0.15452 0.53185 0.25378 0.0
H542 H 0.2175 0.74293 0.26098 0.0
H543 H 0.17427 0.55004 0.20019 0.0
H544 H 0.16486 0.60594 0.25608 0.0
H545 H 0.18733 0.67887 0.20394 0.0
C546 C 0.20888 0.73811 0.21835 0.0
C547 C 0.21877 0.75719 0.23441 0.0
C548 C 0.16666 0.59366 0.24379 0.0
C549 C 0.18775 0.66687 0.23073 0.0
C550 C 0.16068 0.55127 0.24246 0.0
C551 C 0.16408 0.53486 0.2268 0.0
C552 C 0.17615 0.61999 0.22935 0.0
C553 C 0.17181 0.56151 0.21256 0.0
C554 C 0.19354 0.69293 0.21645 0.0
C555 C 0.21086 0.72967 0.24834 0.0
N556 N 0.17793 0.60291 0.21419 0.0
N557 N 0.19606 0.68606 0.24617 0.0
H558 H 0.51443 0.60995 0.24015 0.0
H559 H 0.27447 0.48156 0.20119 0.0
H560 H 0.4776 0.65152 0.19482 0.0
H561 H 0.32052 0.42607 0.23927 0.0
H562 H 0.35047 0.54009 0.19662 0.0
H563 H 0.44564 0.53943 0.23854 0.0
C564 C 0.49201 0.60413 0.22979 0.0
C565 C 0.50145 0.63691 0.21774 0.0
C566 C 0.34408 0.51467 0.20576 0.0
C567 C 0.42261 0.55632 0.21584 0.0
C568 C 0.30067 0.48115 0.20835 0.0
C569 C 0.29103 0.44931 0.22084 0.0
C570 C 0.37798 0.5167 0.21591 0.0
C571 C 0.32634 0.45019 0.22962 0.0
C572 C 0.45283 0.56376 0.22883 0.0
C573 C 0.47145 0.62737 0.20449 0.0
N574 N 0.36817 0.48389 0.22722 0.0
N575 N 0.4331 0.58817 0.20402 0.0
H576 H 0.90655 0.59897 0.74148 0.0
H577 H 0.83134 0.36846 0.78668 0.0
H578 H 0.79915 0.53836 0.77695 0.0
H579 H 0.90967 0.41117 0.74143 0.0
H580 H 0.83401 0.4395 0.78808 0.0
H581 H 0.92313 0.53983 0.74665 0.0
C582 C 0.88709 0.57383 0.75065 0.0
C583 C 0.85089 0.57313 0.75858 0.0
C584 C 0.85098 0.43346 0.77794 0.0
C585 C 0.86954 0.50539 0.76443 0.0
C586 C 0.84947 0.39292 0.77712 0.0
C587 C 0.86967 0.3836 0.76374 0.0
C588 C 0.87304 0.465 0.76536 0.0
C589 C 0.89309 0.41674 0.75182 0.0
C590 C 0.89642 0.53994 0.7535 0.0
C591 C 0.82695 0.5398 0.77037 0.0
N592 N 0.89383 0.45588 0.75284 0.0
N593 N 0.83637 0.50694 0.77279 0.0
H594 H 0.63421 0.49836 0.72229 0.0
H595 H 0.45827 0.27068 0.76552 0.0
H596 H 0.62962 0.47476 0.77568 0.0
H597 H 0.47958 0.28929 0.71204 0.0
H598 H 0.51268 0.34888 0.76976 0.0
H599 H 0.56931 0.42542 0.71865 0.0
C600 C 0.61934 0.47804 0.73328 0.0
C601 C 0.63773 0.49258 0.7493 0.0
C602 C 0.5051 0.33587 0.7571 0.0
C603 C 0.56337 0.40881 0.74521 0.0
C604 C 0.47392 0.29131 0.75467 0.0
C605 C 0.46472 0.27336 0.73841 0.0
C606 C 0.52692 0.36261 0.74316 0.0
C607 C 0.48602 0.30159 0.72481 0.0
C608 C 0.58231 0.4363 0.73119 0.0
C609 C 0.61684 0.46478 0.76307 0.0
N610 N 0.51622 0.34466 0.72749 0.0
N611 N 0.58096 0.42414 0.7607 0.0
H612 H 0.51352 0.14435 0.77805 0.0
H613 H 0.71568 0.19625 0.71838 0.0
H614 H 0.5026 0.12639 0.72425 0.0
H615 H 0.72569 0.1992 0.77243 0.0
H616 H 0.63597 0.1632 0.72068 0.0
H617 H 0.58886 0.15711 0.77672 0.0
C618 C 0.52678 0.14259 0.76596 0.0
C619 C 0.5019 0.13488 0.75119 0.0
C620 C 0.65534 0.17052 0.73208 0.0
C621 C 0.58827 0.14968 0.7496 0.0
C622 C 0.70093 0.1895 0.73078 0.0
C623 C 0.7273 0.20096 0.74526 0.0
C624 C 0.63579 0.16352 0.748 0.0
C625 C 0.70647 0.19095 0.76097 0.0
C626 C 0.56981 0.14982 0.76523 0.0
C627 C 0.52065 0.13254 0.73593 0.0
N628 N 0.66187 0.17339 0.76194 0.0
N629 N 0.56287 0.14046 0.73552 0.0
H630 H 0.07066 0.22297 0.58678 0.0
H631 H 0.23264 0.15807 0.53913 0.0
H632 H 0.06833 0.20521 0.53305 0.0
H633 H 0.21123 0.14906 0.59269 0.0
H634 H 0.18244 0.18811 0.53631 0.0
H635 H 0.13238 0.20902 0.58876 0.0
C636 C 0.08339 0.21659 0.57537 0.0
C637 C 0.0639 0.2148 0.55975 0.0
C638 C 0.18916 0.17992 0.54868 0.0
C639 C 0.13464 0.19857 0.56193 0.0
C640 C 0.21793 0.16302 0.55029 0.0
C641 C 0.22572 0.15067 0.56614 0.0
C642 C 0.16862 0.18489 0.56306 0.0
C643 C 0.20573 0.15762 0.58019 0.0
C644 C 0.1186 0.20849 0.57651 0.0
C645 C 0.08204 0.20653 0.54538 0.0
N646 N 0.17806 0.17406 0.57832 0.0
N647 N 0.11618 0.19842 0.54682 0.0
H648 H 0.79746 0.85009 0.57822 0.0
H649 H 0.88935 0.09152 0.5399 0.0
H650 H 0.85537 0.88781 0.52884 0.0
H651 H 0.85491 0.05709 0.59192 0.0
H652 H 0.86135 0.01328 0.53349 0.0
H653 H 0.80252 0.92187 0.58113 0.0
C654 C 0.81083 0.87329 0.56791 0.0
C655 C 0.82679 0.86324 0.55339 0.0
C656 C 0.85934 0.02287 0.54625 0.0
C657 C 0.83287 0.94563 0.55668 0.0
C658 C 0.87506 0.0674 0.54988 0.0
C659 C 0.87497 0.08068 0.5665 0.0
C660 C 0.84319 0.99172 0.55932 0.0
C661 C 0.85621 0.04825 0.57898 0.0
C662 C 0.81374 0.91431 0.56959 0.0
C663 C 0.84327 0.89443 0.54036 0.0
N664 N 0.84142 0.00536 0.57517 0.0
N665 N 0.84639 0.93447 0.54239 0.0
H666 H 0.16908 0.98276 0.52497 0.0
H667 H 0.98725 0.80552 0.58584 0.0
H668 H 0.19546 0.95494 0.57516 0.0
H669 H 0.95934 0.82289 0.53451 0.0
H670 H 0.06573 0.853 0.58053 0.0
H671 H 0.09494 0.91834 0.52658 0.0
C672 C 0.15954 0.96281 0.53625 0.0
C673 C 0.18833 0.97471 0.55007 0.0
C674 C 0.0427 0.84611 0.57031 0.0
C675 C 0.10349 0.90103 0.55198 0.0
C676 C 0.99783 0.81895 0.57334 0.0
C677 C 0.96686 0.81075 0.56064 0.0
C678 C 0.05684 0.86605 0.55451 0.0
C679 C 0.98228 0.82854 0.54464 0.0
C680 C 0.11717 0.926 0.53714 0.0
C681 C 0.17427 0.94739 0.56427 0.0
N682 N 0.02629 0.85609 0.54209 0.0
N683 N 0.13273 0.9122 0.56492 0.0
H684 H 0.47013 0.92817 0.02916 0.0
H685 H 0.52412 0.09432 0.95383 0.0
H686 H 0.53998 0.06975 0.03507 0.0
H687 H 0.47959 0.9561 0.94644 0.0
H688 H 0.53551 0.08636 0.98349 0.0
H689 H 0.47912 0.93773 -0.00121 0.0
C690 C 0.48786 0.96127 0.02408 0.0
C691 C 0.50375 0.99825 0.03463 0.0
C692 C 0.5237 0.05782 0.97538 0.0
C693 C 0.51383 0.00935 -5e-05 0.0
C694 C 0.51688 0.06228 0.95846 0.0
C695 C 0.50024 0.02562 0.94774 0.0
C696 C 0.51314 0.01626 0.98169 0.0
C697 C 0.49221 0.98511 0.95432 0.0
C698 C 0.49309 0.96669 0.00675 0.0
C699 C 0.52698 0.04033 0.02741 0.0
N700 N 0.49816 0.98134 0.97097 0.0
N701 N 0.53073 0.04473 0.01048 0.0
H702 H 0.08765 0.53419 0.94477 0.0
H703 H 0.96293 0.48821 0.03279 0.0
H704 H 0.94583 0.46012 0.9498 0.0
H705 H 0.09102 0.49961 0.02687 0.0
H706 H 0.96165 0.50111 0.00256 0.0
H707 H 0.09398 0.54497 0.97534 0.0
C708 C 0.0579 0.52095 0.95228 0.0
C709 C 0.0162 0.49562 0.9449 0.0
C710 C 0.99023 0.50138 0.00799 0.0
C711 C 0.02317 0.50818 0.97952 0.0
C712 C 0.99101 0.4941 0.02518 0.0
C713 C 0.02678 0.4921 0.03221 0.0
C714 C 0.0258 0.50744 -0.00206 0.0
C715 C 0.06246 0.5001 0.02184 0.0
C716 C 0.06154 0.52698 0.96965 0.0
C717 C 0.97862 0.47918 0.95511 0.0
N718 N 0.06099 0.50724 0.00517 0.0
N719 N 0.98299 0.48554 0.97196 0.0
H720 H 0.6057 0.53136 0.94922 0.0
H721 H 0.5101 0.58304 0.02898 0.0
H722 H 0.49788 0.55798 0.94567 0.0
H723 H 0.56729 0.49864 0.03144 0.0
H724 H 0.50488 0.57441 -0.00153 0.0
H725 H 0.59251 0.51922 0.97936 0.0
C726 C 0.57902 0.53434 0.95479 0.0
C727 C 0.55315 0.54623 0.94503 0.0
C728 C 0.51791 0.55722 0.00571 0.0
C729 C 0.5382 0.53276 0.97943 0.0
C730 C 0.52118 0.56235 0.02308 0.0
C731 C 0.53972 0.54197 0.03264 0.0
C732 C 0.53425 0.53239 -0.00213 0.0
C733 C 0.553 0.51504 0.02446 0.0
C734 C 0.57132 0.52707 0.97195 0.0
C735 C 0.51866 0.54906 0.95279 0.0
N736 N 0.55079 0.51168 0.00745 0.0
N737 N 0.51265 0.54316 0.96965 0.0
H738 H 0.23116 0.40565 0.37021 0.0
H739 H 0.12862 0.28426 0.28324 0.0
H740 H 0.09962 0.29403 0.36524 0.0
H741 H 0.21671 0.42486 0.28674 0.0
H742 H 0.13358 0.27876 0.31374 0.0
H743 H 0.24095 0.40397 0.3397 0.0
C744 C 0.20467 0.38049 0.36273 0.0
C745 C 0.1643 0.35037 0.37011 0.0
C746 C 0.15226 0.31065 0.30774 0.0
C747 C 0.17558 0.34772 0.33563 0.0
C748 C 0.14958 0.31383 0.29039 0.0
C749 C 0.17172 0.3552 0.28257 0.0
C750 C 0.17779 0.34897 0.3172 0.0
C751 C 0.19852 0.39247 0.29238 0.0
C752 C 0.21025 0.3796 0.34541 0.0
C753 C 0.13099 0.31827 0.35994 0.0
N754 N 0.20066 0.38853 0.30927 0.0
N755 N 0.13734 0.31781 0.34318 0.0
H756 H 0.62433 0.80831 0.36791 0.0
H757 H 0.74154 0.86851 0.27805 0.0
H758 H 0.76535 0.87116 0.36071 0.0
H759 H 0.60379 0.77311 0.28548 0.0
H760 H 0.74901 0.88365 0.3082 0.0
H761 H 0.61487 0.80934 0.33746 0.0
C762 C 0.65329 0.82287 0.35995 0.0
C763 C 0.69562 0.83912 0.36677 0.0
C764 C 0.71709 0.85967 0.30318 0.0
C765 C 0.68508 0.84038 0.33212 0.0
C766 C 0.71278 0.85114 0.28598 0.0
C767 C 0.67214 0.81914 0.27931 0.0
C768 C 0.68043 0.83623 0.31371 0.0
C769 C 0.63593 0.79754 0.29017 0.0
C770 C 0.64787 0.82327 0.3426 0.0
C771 C 0.73206 0.8576 0.35592 0.0
N772 N 0.64097 0.80632 0.30687 0.0
N773 N 0.72593 0.8575 0.3391 0.0
H774 H 0.26259 0.85936 0.28308 0.0
H775 H 0.1449 0.8917 0.36041 0.0
H776 H 0.14279 0.86527 0.27736 0.0
H777 H 0.22589 0.83091 0.36479 0.0
H778 H 0.14075 0.87953 0.33007 0.0
H779 H 0.24783 0.84623 0.31306 0.0
C780 C 0.23293 0.8575 0.28814 0.0
C781 C 0.20415 0.86404 0.27784 0.0
C782 C 0.15873 0.86813 0.33772 0.0
C783 C 0.18732 0.84949 0.31209 0.0
C784 C 0.16133 0.87529 0.355 0.0
C785 C 0.18642 0.86297 0.36505 0.0
C786 C 0.18209 0.84935 0.33047 0.0
C787 C 0.2065 0.84124 0.35747 0.0
C788 C 0.22437 0.8497 0.30522 0.0
C789 C 0.1659 0.86068 0.28495 0.0
N790 N 0.20461 0.83588 0.34056 0.0
N791 N 0.15898 0.85447 0.30176 0.0
H792 H 0.87767 0.73983 0.69668 0.0
H793 H 0.81478 0.6164 0.6081 0.0
H794 H 0.79178 0.59934 0.69094 0.0
H795 H 0.87173 0.75697 0.61446 0.0
H796 H 0.82177 0.60929 0.63839 0.0
H797 H 0.8914 0.74577 0.66651 0.0
C798 C 0.86215 0.71014 0.68913 0.0
C799 C 0.83293 0.66914 0.6963 0.0
C800 C 0.8332 0.64171 0.63308 0.0
C801 C 0.84837 0.67577 0.66179 0.0
C802 C 0.82939 0.6458 0.61582 0.0
C803 C 0.84209 0.68723 0.60885 0.0
C804 C 0.85008 0.67937 0.64332 0.0
C805 C 0.86079 0.72429 0.6194 0.0
C806 C 0.86992 0.71359 0.6719 0.0
C807 C 0.81393 0.63175 0.68589 0.0
N808 N 0.86391 0.71943 0.63614 0.0
N809 N 0.82165 0.63602 0.66911 0.0
H810 H 0.39135 0.22083 0.61231 0.0
H811 H 0.28204 0.08548 0.69538 0.0
H812 H 0.27966 0.08857 0.61363 0.0
H813 H 0.37469 0.22499 0.69668 0.0
H814 H 0.27673 0.08929 0.66502 0.0
H815 H 0.38286 0.22698 0.64271 0.0
C816 C 0.36483 0.19338 0.61894 0.0
C817 C 0.33684 0.15377 0.61055 0.0
C818 C 0.29783 0.11938 0.67185 0.0
C819 C 0.32682 0.16061 0.64501 0.0
C820 C 0.30074 0.11709 0.68916 0.0
C821 C 0.3288 0.15492 0.69831 0.0
C822 C 0.32422 0.15965 0.66356 0.0
C823 C 0.35253 0.19522 0.68987 0.0
C824 C 0.35994 0.19693 0.63623 0.0
C825 C 0.30273 0.11935 0.61964 0.0
N826 N 0.35035 0.19648 0.67281 0.0
N827 N 0.29899 0.12347 0.63635 0.0
H828 H 0.92506 0.18008 0.62049 0.0
H829 H 0.82128 0.23622 0.69669 0.0
H830 H 0.81723 0.20582 0.61418 0.0
H831 H 0.88615 0.15946 0.70255 0.0
H832 H 0.81707 0.22322 0.66644 0.0
H833 H 0.90956 0.16977 0.65053 0.0
C834 C 0.89786 0.18318 0.62543 0.0
C835 C 0.8728 0.19452 0.61494 0.0
C836 C 0.83155 0.20858 0.67437 0.0
C837 C 0.85516 0.18311 0.64922 0.0
C838 C 0.83425 0.21625 0.69159 0.0
C839 C 0.85467 0.19938 0.70201 0.0
C840 C 0.85028 0.18471 0.66754 0.0
C841 C 0.87033 0.17317 0.69488 0.0
C842 C 0.88884 0.17698 0.64254 0.0
C843 C 0.8375 0.19743 0.62189 0.0
N844 N 0.86856 0.16729 0.67798 0.0
N845 N 0.8302 0.19258 0.6387 0.0
H846 H 0.2296 0.88177 0.17388 0.0
H847 H 0.47486 0.02126 0.13731 0.0
H848 H 0.34063 0.98261 0.20154 0.0
H849 H 0.36021 0.94721 0.10583 0.0
H850 H 0.42655 0.99937 0.16186 0.0
H851 H 0.2776 0.89853 0.14923 0.0
C852 C 0.26388 0.90743 0.17475 0.0
C853 C 0.28113 0.93076 0.18976 0.0
C854 C 0.41204 0.98782 0.14956 0.0
C855 C 0.33597 0.94963 0.16189 0.0
C856 C 0.43961 1.0002 0.13558 0.0
C857 C 0.42153 0.98616 0.11953 0.0
C858 C 0.36615 0.96115 0.14745 0.0
C859 C 0.37557 0.95887 0.11799 0.0
C860 C 0.29123 0.9169 0.16074 0.0
C861 C 0.32583 0.96369 0.19024 0.0
N862 N 0.34942 0.94727 0.13179 0.0
N863 N 0.35168 0.97198 0.17655 0.0
H864 H 0.04868 0.37552 0.10984 0.0
H865 H 0.07541 0.40613 0.20908 0.0
H866 H 0.02409 0.46829 0.13683 0.0
H867 H 0.12192 0.33319 0.17997 0.0
H868 H 0.0531 0.42683 0.18316 0.0
H869 H 0.07147 0.35673 0.13586 0.0
C870 C 0.04792 0.39192 0.12128 0.0
C871 C 0.03455 0.42369 0.12116 0.0
C872 C 0.0683 0.40642 0.18245 0.0
C873 C 0.06073 0.40211 0.1511 0.0
C874 C 0.08103 0.39452 0.19722 0.0
C875 C 0.10065 0.36792 0.19666 0.0
C876 C 0.07479 0.39121 0.16702 0.0
C877 C 0.10702 0.35381 0.18098 0.0
C878 C 0.06115 0.38122 0.13614 0.0
C879 C 0.03425 0.4437 0.13638 0.0
N880 N 0.09397 0.36553 0.16677 0.0
N881 N 0.04718 0.43253 0.1508 0.0
H882 H 0.67785 0.79953 0.17405 0.0
H883 H 0.5546 0.5535 0.13715 0.0
H884 H 0.62487 0.68262 0.20495 0.0
H885 H 0.63727 0.66948 0.10762 0.0
H886 H 0.5703 0.60083 0.16192 0.0
H887 H 0.65282 0.75234 0.14903 0.0
C888 C 0.66076 0.76404 0.17557 0.0
C889 C 0.65368 0.74502 0.19157 0.0
C890 C 0.58479 0.61577 0.14996 0.0
C891 C 0.62502 0.69106 0.16317 0.0
C892 C 0.57586 0.5888 0.13587 0.0
C893 C 0.59469 0.60752 0.12034 0.0
C894 C 0.61253 0.66164 0.14842 0.0
C895 C 0.62205 0.65353 0.11936 0.0
C896 C 0.64656 0.73715 0.16133 0.0
C897 C 0.63129 0.69879 0.19285 0.0
N898 N 0.63009 0.67897 0.13319 0.0
N899 N 0.61783 0.67341 0.17884 0.0
H900 H 0.0088 0.46897 0.8407 0.0
H901 H 0.87828 0.21969 0.80712 0.0
H902 H 0.97072 0.35499 0.87217 0.0
H903 H 0.94379 0.33384 0.77491 0.0
H904 H 0.9018 0.26899 0.83158 0.0
H905 H 0.97503 0.41962 0.81662 0.0
C906 C 0.99325 0.43367 0.84255 0.0
C907 C 0.99272 0.41612 0.85843 0.0
C908 C 0.91069 0.2831 0.81911 0.0
C909 C 0.95403 0.35965 0.8311 0.0
C910 C 0.89722 0.25501 0.80519 0.0
C911 C 0.90917 0.27264 0.78899 0.0
C912 C 0.93608 0.32898 0.81673 0.0
C913 C 0.93383 0.31871 0.78718 0.0
C914 C 0.97398 0.40553 0.82885 0.0
C915 C 0.97206 0.37005 0.86015 0.0
N916 N 0.9465 0.34523 0.80086 0.0
N917 N 0.95357 0.34345 0.84666 0.0
H918 H 0.56702 0.56202 0.84064 0.0
H919 H 0.80748 0.68794 0.79904 0.0
H920 H 0.68615 0.65221 0.8673 0.0
H921 H 0.68688 0.62177 0.77011 0.0
H922 H 0.76357 0.66713 0.82477 0.0
H923 H 0.61075 0.57646 0.81492 0.0
C924 C 0.60225 0.5848 0.84108 0.0
C925 C 0.62293 0.60597 0.8561 0.0
C926 C 0.74678 0.65706 0.81277 0.0
C927 C 0.67295 0.62231 0.82695 0.0
C928 C 0.77183 0.66883 0.79811 0.0
C929 C 0.75081 0.65672 0.78243 0.0
C930 C 0.70046 0.63297 0.81172 0.0
C931 C 0.70448 0.63193 0.78194 0.0
C932 C 0.62716 0.59298 0.82644 0.0
C933 C 0.66872 0.63518 0.856 0.0
N934 N 0.68082 0.62093 0.79638 0.0
N935 N 0.69215 0.64238 0.84167 0.0
H936 H 0.35426 0.15173 0.80312 0.0
H937 H 0.45519 0.0119 0.84362 0.0
H938 H 0.36467 0.04914 0.77688 0.0
H939 H 0.40649 0.08178 0.87345 0.0
H940 H 0.43018 0.03272 0.81827 0.0
H941 H 0.38038 0.13287 0.82879 0.0
C942 C 0.36174 0.12519 0.80278 0.0
C943 C 0.35736 0.10208 0.78786 0.0
C944 C 0.42501 0.04343 0.8304 0.0
C945 C 0.38763 0.0809 0.81688 0.0
C946 C 0.43941 0.03169 0.84482 0.0
C947 C 0.43279 0.04498 0.86063 0.0
C948 C 0.40425 0.0689 0.83184 0.0
C949 C 0.41209 0.0706 0.8615 0.0
C950 C 0.3767 0.11452 0.81737 0.0
C951 C 0.36758 0.06797 0.78808 0.0
N952 N 0.39863 0.08182 0.8473 0.0
N953 N 0.38248 0.05864 0.80232 0.0
H954 H 0.93493 0.2038 0.51786 0.0
H955 H 0.0906 0.40349 0.46009 0.0
H956 H 0.97812 0.3373 0.5334 0.0
H957 H 0.11227 0.29329 0.46612 0.0
H958 H 0.04068 0.3776 0.48429 0.0
H959 H 0.98921 0.23266 0.49483 0.0
C960 C 0.95507 0.2391 0.5161 0.0
C961 C 0.9522 0.26846 0.52728 0.0
C962 C 0.05696 0.35954 0.48047 0.0
C963 C 0.01379 0.30121 0.50149 0.0
C964 C 0.08559 0.37445 0.46685 0.0
C965 C 0.10563 0.3506 0.4614 0.0
C966 C 0.04734 0.31979 0.48823 0.0
C967 C 0.09776 0.31276 0.47023 0.0
C968 C 0.98635 0.25544 0.50324 0.0
C969 C 0.97948 0.31386 0.52487 0.0
N970 N 0.06834 0.29786 0.4831 0.0
N971 N 0.00911 0.32898 0.51215 0.0
H972 H 0.74405 0.75455 0.43849 0.0
H973 H 0.74827 0.73725 0.53782 0.0
H974 H 0.69514 0.81781 0.47185 0.0
H975 H 0.81463 0.69135 0.50464 0.0
H976 H 0.73102 0.76919 0.51394 0.0
H977 H 0.77252 0.73376 0.4625 0.0
C978 C 0.73952 0.76439 0.45089 0.0
C979 C 0.71715 0.78806 0.45317 0.0
C980 C 0.74961 0.75244 0.51186 0.0
C981 C 0.74918 0.76348 0.48083 0.0
C982 C 0.75948 0.73406 0.52549 0.0
C983 C 0.78297 0.7115 0.52322 0.0
C984 C 0.76263 0.74769 0.49572 0.0
C985 C 0.79647 0.70843 0.50696 0.0
C986 C 0.75587 0.75245 0.46461 0.0
C987 C 0.71217 0.7996 0.46954 0.0
N988 N 0.7858 0.72608 0.49378 0.0
N989 N 0.72779 0.78688 0.48279 0.0
H990 H 0.2429 0.90049 0.46715 0.0
H991 H 0.34479 0.14298 0.50592 0.0
H992 H 0.28714 0.01659 0.4363 0.0
H993 H 0.33375 0.03044 0.53269 0.0
H994 H 0.31685 0.09696 0.48054 0.0
H995 H 0.26814 0.9476 0.49202 0.0
C996 C 0.25775 0.93583 0.46562 0.0
C997 C 0.263 0.95463 0.44966 0.0
C998 C 0.32074 0.08262 0.49202 0.0
C999 C 0.29202 0.0087 0.47799 0.0
C1000 C 0.33671 0.10882 0.50644 0.0
C1001 C 0.34152 0.09054 0.52142 0.0
C1002 C 0.3093 0.03798 0.49275 0.0
C1003 C 0.33053 0.04604 0.52145 0.0
C1004 C 0.27227 0.96273 0.47979 0.0
C1005 C 0.28251 1.0007 0.44839 0.0
N1006 N 0.31477 0.02133 0.50738 0.0
N1007 N 0.29631 0.02622 0.46239 0.0
H1008 H 0.51436 0.35728 0.05096 0.0
H1009 H 0.50013 0.18051 0.11777 0.0
H1010 H 0.50959 0.37291 0.10458 0.0
H1011 H 0.49896 0.16281 0.06405 0.0
H1012 H 0.49639 0.24762 0.11321 0.0
H1013 H 0.50102 0.28264 0.05549 0.0
C1014 C 0.51001 0.34485 0.06369 0.0
C1015 C 0.51357 0.37159 0.07742 0.0
C1016 C 0.49656 0.22886 0.10242 0.0
C1017 C 0.49872 0.28617 0.08271 0.0
C1018 C 0.49873 0.19051 0.10501 0.0
C1019 C 0.50032 0.1662 0.09126 0.0
C1020 C 0.49618 0.24316 0.08596 0.0
C1021 C 0.49812 0.18065 0.07502 0.0
C1022 C 0.50243 0.30218 0.06627 0.0
C1023 C 0.50731 0.35356 0.09362 0.0
N1024 N 0.49655 0.21837 0.07283 0.0
N1025 N 0.50069 0.31215 0.09583 0.0
H1026 H 0.67998 0.15108 0.05308 0.0
H1027 H 0.85279 0.32579 0.11805 0.0
H1028 H 0.65926 0.14344 0.10671 0.0
H1029 H 0.87551 0.33029 0.0646 0.0
H1030 H 0.78531 0.2549 0.11448 0.0
H1031 H 0.75491 0.21208 0.05737 0.0
C1032 C 0.69134 0.16189 0.06579 0.0
C1033 C 0.66308 0.14238 0.07954 0.0
C1034 C 0.80524 0.27116 0.10354 0.0
C1035 C 0.74889 0.21263 0.08454 0.0
C1036 C 0.84382 0.3117 0.10557 0.0
C1037 C 0.86965 0.33428 0.09157 0.0
C1038 C 0.79218 0.25308 0.08739 0.0
C1039 C 0.85649 0.31422 0.07573 0.0
C1040 C 0.73418 0.19681 0.06823 0.0
C1041 C 0.67978 0.15762 0.09572 0.0
N1042 N 0.81846 0.27498 0.07405 0.0
N1043 N 0.72142 0.19216 0.09776 0.0
H1044 H 0.69643 0.538 0.06602 0.0
H1045 H 0.88655 0.5055 0.10829 0.0
H1046 H 0.699 0.51053 0.11877 0.0
H1047 H 0.86837 0.50941 0.0548 0.0
H1048 H 0.82498 0.5191 0.11297 0.0
H1049 H 0.76648 0.53946 0.06238 0.0
C1050 C 0.71188 0.53264 0.07688 0.0
C1051 C 0.69153 0.52368 0.0927 0.0
C1052 C 0.83477 0.51735 0.10022 0.0
C1053 C 0.77184 0.52519 0.08859 0.0
C1054 C 0.87001 0.50978 0.09754 0.0
C1055 C 0.88235 0.50593 0.08113 0.0
C1056 C 0.81199 0.52137 0.08638 0.0
C1057 C 0.85972 0.5117 0.06767 0.0
C1058 C 0.75189 0.53339 0.07478 0.0
C1059 C 0.71331 0.51721 0.10632 0.0
N1060 N 0.82556 0.5189 0.07059 0.0
N1061 N 0.75215 0.51782 0.10393 0.0
H1062 H 0.39264 0.52353 0.86982 0.0
H1063 H 0.16882 0.48918 0.91106 0.0
H1064 H 0.3694 0.51881 0.92322 0.0
H1065 H 0.19883 0.51419 0.85823 0.0
H1066 H 0.23742 0.48794 0.91512 0.0
H1067 H 0.31707 0.5081 0.86482 0.0
C1068 C 0.37149 0.51867 0.88049 0.0
C1069 C 0.3875 0.52291 0.89697 0.0
C1070 C 0.22887 0.49339 0.90261 0.0
C1071 C 0.30117 0.50543 0.89134 0.0
C1072 C 0.18963 0.49403 0.90027 0.0
C1073 C 0.17825 0.5023 0.8843 0.0
C1074 C 0.25705 0.50106 0.8889 0.0
C1075 C 0.20644 0.50807 0.87079 0.0
C1076 C 0.32842 0.51004 0.87763 0.0
C1077 C 0.35862 0.51628 0.91031 0.0
N1078 N 0.24471 0.50767 0.87341 0.0
N1079 N 0.317 0.50816 0.9072 0.0
H1080 H 0.51723 0.89187 0.87082 0.0
H1081 H 0.55535 0.70478 0.91242 0.0
H1082 H 0.52289 0.87408 0.92424 0.0
H1083 H 0.52864 0.70829 0.85964 0.0
H1084 H 0.55542 0.77405 0.91633 0.0
H1085 H 0.53324 0.83202 0.86592 0.0
C1086 C 0.52243 0.87583 0.8815 0.0
C1087 C 0.51831 0.88773 0.89796 0.0
C1088 C 0.54986 0.75985 0.90387 0.0
C1089 C 0.53645 0.81924 0.89247 0.0
C1090 C 0.54992 0.7203 0.90161 0.0
C1091 C 0.54153 0.70039 0.88571 0.0
C1092 C 0.5414 0.77978 0.89012 0.0
C1093 C 0.5349 0.72222 0.87216 0.0
C1094 C 0.53137 0.84155 0.87871 0.0
C1095 C 0.52532 0.86574 0.91134 0.0
N1096 N 0.53468 0.76057 0.8747 0.0
N1097 N 0.53378 0.83247 0.90829 0.0
H1098 H 0.33654 0.87495 0.91365 0.0
H1099 H 0.14894 0.65415 0.87018 0.0
H1100 H 0.33191 0.84901 0.86043 0.0
H1101 H 0.16497 0.67457 0.92381 0.0
H1102 H 0.2087 0.73002 0.86593 0.0
H1103 H 0.26671 0.80632 0.91707 0.0
C1104 C 0.32066 0.85504 0.90265 0.0
C1105 C 0.3404 0.86755 0.88675 0.0
C1106 C 0.19881 0.71799 0.87862 0.0
C1107 C 0.26039 0.78871 0.89061 0.0
C1108 C 0.16458 0.67475 0.88106 0.0
C1109 C 0.15225 0.65785 0.89738 0.0
C1110 C 0.22071 0.74451 0.8926 0.0
C1111 C 0.17367 0.68605 0.911 0.0
C1112 C 0.28077 0.81578 0.90462 0.0
C1113 C 0.3181 0.8405 0.87295 0.0
N1114 N 0.20702 0.72783 0.9083 0.0
N1115 N 0.27945 0.80217 0.87521 0.0
H1116 H 0.18696 0.71872 0.44008 0.0
H1117 H 0.15654 0.4948 0.4002 0.0
H1118 H 0.17839 0.69243 0.38682 0.0
H1119 H 0.184 0.52888 0.45267 0.0
H1120 H 0.15297 0.56211 0.39564 0.0
H1121 H 0.17439 0.6444 0.44543 0.0
C1122 C 0.18189 0.69717 0.42952 0.0
C1123 C 0.18417 0.71202 0.41297 0.0
C1124 C 0.15943 0.55467 0.40818 0.0
C1125 C 0.16995 0.62699 0.419 0.0
C1126 C 0.16134 0.51616 0.4108 0.0
C1127 C 0.17103 0.50637 0.42681 0.0
C1128 C 0.16714 0.5836 0.42167 0.0
C1129 C 0.17685 0.53527 0.44008 0.0
C1130 C 0.17487 0.65479 0.43258 0.0
C1131 C 0.17732 0.68258 0.39978 0.0
N1132 N 0.1751 0.57268 0.43719 0.0
N1133 N 0.17081 0.64164 0.40308 0.0
H1134 H 0.51694 0.67872 0.45496 0.0
H1135 H 0.34077 0.50844 0.38975 0.0
H1136 H 0.53666 0.68596 0.40126 0.0
H1137 H 0.32585 0.49114 0.44349 0.0
H1138 H 0.41463 0.57115 0.39394 0.0
H1139 H 0.449 0.60798 0.4513 0.0
C1140 C 0.50719 0.66531 0.44241 0.0
C1141 C 0.53238 0.68853 0.42838 0.0
C1142 C 0.39544 0.55347 0.40484 0.0
C1143 C 0.45457 0.60766 0.42411 0.0
C1144 C 0.35319 0.51762 0.40245 0.0
C1145 C 0.32696 0.49471 0.4163 0.0
C1146 C 0.41157 0.56694 0.42121 0.0
C1147 C 0.34493 0.50792 0.43246 0.0
C1148 C 0.4684 0.62489 0.44034 0.0
C1149 C 0.51821 0.66941 0.41244 0.0
N1150 N 0.38599 0.5435 0.43448 0.0
N1151 N 0.48013 0.63032 0.41074 0.0
H1152 H 0.54777 0.87325 0.3848 0.0
H1153 H 0.37677 0.87913 0.44964 0.0
H1154 H 0.56186 0.87235 0.43867 0.0
H1155 H 0.36405 0.88165 0.39575 0.0
H1156 H 0.44907 0.88543 0.44596 0.0
H1157 H 0.4856 0.88574 0.38864 0.0
C1158 C 0.53816 0.87624 0.39745 0.0
C1159 C 0.55974 0.8712 0.41144 0.0
C1160 C 0.43066 0.88501 0.43494 0.0
C1161 C 0.48816 0.88506 0.41593 0.0
C1162 C 0.38932 0.88138 0.43702 0.0
C1163 C 0.36405 0.87935 0.42297 0.0
C1164 C 0.44685 0.88644 0.41867 0.0
C1165 C 0.38219 0.88274 0.40694 0.0
C1166 C 0.50256 0.88331 0.39963 0.0
C1167 C 0.54603 0.87575 0.42752 0.0
N1168 N 0.42228 0.88571 0.40523 0.0
N1169 N 0.51076 0.88188 0.42933 0.0
H1170 H 0.8275 0.81849 0.24474 0.0
H1171 H 0.04886 0.84981 0.20202 0.0
H1172 H 0.85553 0.84368 0.1918 0.0
H1173 H 0.02819 0.84729 0.25556 0.0
H1174 H 0.97363 0.83619 0.19749 0.0
H1175 H 0.89636 0.8175 0.24829 0.0
C1176 C 0.84794 0.82346 0.23382 0.0
C1177 C 0.83587 0.83161 0.21797 0.0
C1178 C 0.9855 0.83826 0.21022 0.0
C1179 C 0.91501 0.83064 0.22198 0.0
C1180 C 0.02835 0.84584 0.21281 0.0
C1181 C 0.04495 0.85006 0.22919 0.0
C1182 C 0.95907 0.83461 0.22411 0.0
C1183 C 0.01694 0.8447 0.24271 0.0
C1184 C 0.88735 0.82298 0.23587 0.0
C1185 C 0.86366 0.83761 0.20428 0.0
N1186 N 0.97552 0.83747 0.23986 0.0
N1187 N 0.90208 0.83727 0.20661 0.0
H1188 H 0.19352 0.03265 0.194 0.0
H1189 H 0.19045 0.19835 0.26218 0.0
H1190 H 0.21168 0.02299 0.24717 0.0
H1191 H 0.18096 0.21334 0.20876 0.0
H1192 H 0.20505 0.13816 0.25671 0.0
H1193 H 0.19544 0.1025 0.19889 0.0
C1194 C 0.19832 0.04539 0.2067 0.0
C1195 C 0.20202 0.02167 0.22022 0.0
C1196 C 0.20022 0.15486 0.24617 0.0
C1197 C 0.20399 0.10163 0.22593 0.0
C1198 C 0.19188 0.1893 0.24928 0.0
C1199 C 0.18403 0.21068 0.23591 0.0
C1200 C 0.20039 0.14138 0.22956 0.0
C1201 C 0.18661 0.19768 0.21946 0.0
C1202 C 0.19943 0.08534 0.20948 0.0
C1203 C 0.20845 0.04 0.23638 0.0
N1204 N 0.1941 0.16357 0.21676 0.0
N1205 N 0.2088 0.07865 0.23879 0.0
H1206 H 0.80427 0.98258 0.20596 0.0
H1207 H 0.99883 0.19548 0.25107 0.0
H1208 H 0.82296 0.99734 0.25968 0.0
H1209 H 0.99007 0.17514 0.19738 0.0
H1210 H 0.92762 0.12818 0.25421 0.0
H1211 H 0.86513 0.05823 0.20241 0.0
C1212 C 0.8207 0.00193 0.21701 0.0
C1213 C 0.80887 0.98345 0.23313 0.0
C1214 C 0.9411 0.1386 0.24172 0.0
C1215 C 0.8786 0.0698 0.22916 0.0
C1216 C 0.98177 0.17709 0.23992 0.0
C1217 C 1.00073 0.19072 0.22395 0.0
C1218 C 0.91916 0.11345 0.22747 0.0
C1219 C 0.97692 0.16567 0.20995 0.0
C1220 C 0.85556 0.04504 0.21497 0.0
C1221 C 0.83129 0.01005 0.247 0.0
N1222 N 0.93754 0.12805 0.21205 0.0
N1223 N 0.86527 0.05171 0.24469 0.0
H1224 H 0.82613 0.84482 0.78263 0.0
H1225 H 0.81726 0.01849 0.72004 0.0
H1226 H 0.81277 0.82781 0.72881 0.0
H1227 H 0.83095 0.03603 0.77383 0.0
H1228 H 0.80585 0.94421 0.72339 0.0
H1229 H 0.81877 0.91039 0.78001 0.0
C1230 C 0.82126 0.85463 0.77026 0.0
C1231 C 0.82058 0.83104 0.75589 0.0
C1232 C 0.81088 0.96409 0.73449 0.0
C1233 C 0.81227 0.90627 0.75281 0.0
C1234 C 0.81733 0.00654 0.73259 0.0
C1235 C 0.82562 0.03376 0.74666 0.0
C1236 C 0.81299 0.94875 0.75058 0.0
C1237 C 0.82497 0.01632 0.76262 0.0
C1238 C 0.81704 0.89211 0.76878 0.0
C1239 C 0.81384 0.84515 0.74022 0.0
N1240 N 0.81932 0.97511 0.76412 0.0
N1241 N 0.81036 0.88207 0.73909 0.0
H1242 H 0.17687 0.00284 0.78222 0.0
H1243 H 1.00079 0.8397 0.71536 0.0
H1244 H 0.19861 0.01531 0.72864 0.0
H1245 H 0.98521 0.81843 0.76892 0.0
H1246 H 0.07523 0.90126 0.72 0.0
H1247 H 0.10891 0.93287 0.77769 0.0
C1248 C 0.16757 0.9907 0.7695 0.0
C1249 C 0.19336 0.01522 0.75578 0.0
C1250 C 0.05575 0.88293 0.73074 0.0
C1251 C 0.11523 0.93508 0.75049 0.0
C1252 C 0.01316 0.84772 0.72811 0.0
C1253 C 0.98652 0.82402 0.74178 0.0
C1254 C 0.07187 0.89495 0.7472 0.0
C1255 C 0.00451 0.83581 0.758 0.0
C1256 C 0.12871 0.95067 0.76692 0.0
C1257 C 0.17972 0.99765 0.73959 0.0
N1258 N 0.04588 0.87073 0.76027 0.0
N1259 N 0.14139 0.95889 0.73739 0.0
H1260 H 0.21028 0.18202 0.77593 0.0
H1261 H 0.01366 0.20711 0.73573 0.0
H1262 H 0.19229 0.19127 0.72272 0.0
H1263 H 0.01908 0.17857 0.78817 0.0
H1264 H 0.08529 0.21245 0.73153 0.0
H1265 H 0.14664 0.19182 0.78136 0.0
C1266 C 0.19335 0.1867 0.76541 0.0
C1267 C 0.20637 0.18544 0.74884 0.0
C1268 C 0.07098 0.20528 0.74399 0.0
C1269 C 0.13359 0.19647 0.75495 0.0
C1270 C 0.03004 0.20228 0.74641 0.0
C1271 C 0.01006 0.19192 0.7623 0.0
C1272 C 0.09224 0.19787 0.75754 0.0
C1273 C 0.03307 0.18629 0.77567 0.0
C1274 C 0.15693 0.1921 0.76852 0.0
C1275 C 0.18318 0.1916 0.73569 0.0
N1276 N 0.07282 0.18904 0.77297 0.0
N1277 N 0.14783 0.1966 0.73903 0.0
H1278 H 0.5004 0.15925 0.5806 0.0
H1279 H 0.71965 0.1826 0.53844 0.0
H1280 H 0.52849 0.18041 0.52755 0.0
H1281 H 0.70026 0.18423 0.59191 0.0
H1282 H 0.645 0.17067 0.53386 0.0
H1283 H 0.56883 0.15727 0.58458 0.0
C1284 C 0.52072 0.16308 0.56976 0.0
C1285 C 0.5088 0.17038 0.55374 0.0
C1286 C 0.65701 0.17328 0.54659 0.0
C1287 C 0.58736 0.16824 0.55821 0.0
C1288 C 0.69953 0.17988 0.54921 0.0
C1289 C 0.71638 0.18476 0.56558 0.0
C1290 C 0.63108 0.17127 0.56044 0.0
C1291 C 0.68884 0.18106 0.57907 0.0
C1292 C 0.55988 0.16207 0.57204 0.0
C1293 C 0.53648 0.17504 0.54015 0.0
N1294 N 0.64774 0.17475 0.5762 0.0
N1295 N 0.57452 0.17411 0.54271 0.0
H1296 H 0.88477 0.35769 0.58144 0.0
H1297 H 0.86024 0.54794 0.53535 0.0
H1298 H 0.86747 0.36175 0.52788 0.0
H1299 H 0.85892 0.53217 0.58917 0.0
H1300 H 0.87508 0.48688 0.53209 0.0
H1301 H 0.88753 0.42859 0.58414 0.0
C1302 C 0.88201 0.37368 0.57022 0.0
C1303 C 0.87536 0.35347 0.55443 0.0
C1304 C 0.87196 0.49711 0.54461 0.0
C1305 C 0.87833 0.43463 0.55744 0.0
C1306 C 0.86367 0.53207 0.54648 0.0
C1307 C 0.85786 0.54486 0.56255 0.0
C1308 C 0.87463 0.47497 0.55891 0.0
C1309 C 0.86267 0.52312 0.57653 0.0
C1310 C 0.88349 0.41415 0.57177 0.0
C1311 C 0.8722 0.37588 0.54032 0.0
N1312 N 0.87047 0.48909 0.57438 0.0
N1313 N 0.87337 0.41509 0.54218 0.0
H1314 H 0.47999 0.31812 0.5362 0.0
H1315 H 0.67832 0.53734 0.5764 0.0
H1316 H 0.50221 0.34148 0.58951 0.0
H1317 H 0.66748 0.50705 0.52342 0.0
H1318 H 0.60723 0.47089 0.58097 0.0
H1319 H 0.54175 0.39233 0.53093 0.0
C1320 C 0.49745 0.33904 0.5468 0.0
C1321 C 0.48621 0.3234 0.56333 0.0
C1322 C 0.62023 0.47892 0.56832 0.0
C1323 C 0.55697 0.40819 0.55738 0.0
C1324 C 0.66083 0.51693 0.56569 0.0
C1325 C 0.67917 0.52755 0.54952 0.0
C1326 C 0.59768 0.45123 0.5547 0.0
C1327 C 0.65479 0.49996 0.53612 0.0
C1328 C 0.53281 0.38133 0.54378 0.0
C1329 C 0.50997 0.35197 0.57657 0.0
N1330 N 0.61545 0.46288 0.53903 0.0
N1331 N 0.54439 0.39283 0.5733 0.0
loop_
_geom_bond_atom_site_label_1
_geom_bond_atom_site_label_2
_geom_bond_distance
_geom_bond_site_symmetry_2
_ccdc_geom_bond_type
Zn0 O6 1.969 . S
Zn0 O7 1.965 . S
Zn0 O11 2.024 . S
Zn0 O16 1.969 . S
Zn1 O8 1.969 . S
Zn1 O14 1.969 . S
Zn1 O15 1.965 . S
Zn1 O17 2.024 . S
C2 O3 1.229 . S
C2 O11 1.058 . S
O3 C2 1.229 . S
C4 O5 1.229 . S
C4 O17 1.058 . S
O5 C4 1.229 . S
O6 Zn0 1.969 . S
O6 C9 1.267 . S
O7 Zn0 1.965 . S
O7 C18 1.260 1_565 S
O8 Zn1 1.969 . S
O8 C18 1.258 . S
C9 O6 1.267 . S
C9 O10 1.228 . S
O10 C9 1.228 . S
O11 Zn0 2.024 . S
O11 C2 1.058 . S
C12 O13 1.228 . S
C12 O14 1.267 . S
O13 C12 1.228 . S
O14 Zn1 1.969 . S
O14 C12 1.267 . S
O15 Zn1 1.965 . S
O15 C19 1.260 . S
O16 Zn0 1.969 . S
O16 C19 1.258 1_565 S
O17 Zn1 2.024 . S
O17 C4 1.058 . S
C18 O7 1.260 1_545 S
C18 O8 1.258 . S
C19 O15 1.260 . S
C19 O16 1.258 1_545 S
Zn20 O26 1.969 . S
Zn20 O27 1.965 . S
Zn20 O31 2.024 . S
Zn20 O36 1.969 . S
Zn21 O28 1.969 . S
Zn21 O34 1.969 . S
Zn21 O35 1.965 . S
Zn21 O37 2.024 . S
C22 O23 1.229 . S
C22 O31 1.058 . S
O23 C22 1.229 . S
C24 O25 1.229 . S
C24 O37 1.058 . S
O25 C24 1.229 . S
O26 Zn20 1.969 . S
O26 C29 1.267 . S
O27 Zn20 1.965 . S
O27 C38 1.260 . S
O28 Zn21 1.969 . S
O28 C38 1.258 1_655 S
C29 O26 1.267 . S
C29 O30 1.228 . S
O30 C29 1.228 . S
O31 Zn20 2.024 . S
O31 C22 1.058 . S
C32 O33 1.228 . S
C32 O34 1.267 . S
O33 C32 1.228 . S
O34 Zn21 1.969 . S
O34 C32 1.267 . S
O35 Zn21 1.965 . S
O35 C39 1.260 1_655 S
O36 Zn20 1.969 . S
O36 C39 1.258 . S
O37 Zn21 2.024 . S
O37 C24 1.058 . S
C38 O27 1.260 . S
C38 O28 1.258 1_455 S
C39 O35 1.260 1_455 S
C39 O36 1.258 . S
Zn40 O46 1.969 . S
Zn40 O47 1.965 . S
Zn40 O51 2.024 . S
Zn40 O56 1.969 . S
Zn41 O48 1.969 . S
Zn41 O54 1.969 . S
Zn41 O55 1.965 . S
Zn41 O57 2.024 . S
C42 O43 1.229 . S
C42 O51 1.058 . S
O43 C42 1.229 . S
C44 O45 1.229 . S
C44 O57 1.058 . S
O45 C44 1.229 . S
O46 Zn40 1.969 . S
O46 C49 1.267 . S
O47 Zn40 1.965 . S
O47 C58 1.260 . S
O48 Zn41 1.969 . S
O48 C58 1.258 . S
C49 O46 1.267 . S
C49 O50 1.228 . S
O50 C49 1.228 . S
O51 Zn40 2.024 . S
O51 C42 1.058 . S
C52 O53 1.228 . S
C52 O54 1.267 . S
O53 C52 1.228 . S
O54 Zn41 1.969 . S
O54 C52 1.267 . S
O55 Zn41 1.965 . S
O55 C59 1.260 . S
O56 Zn40 1.969 . S
O56 C59 1.258 . S
O57 Zn41 2.024 . S
O57 C44 1.058 . S
C58 O47 1.260 . S
C58 O48 1.258 . S
C59 O55 1.260 . S
C59 O56 1.258 . S
Zn60 O66 1.969 . S
Zn60 O67 1.965 . S
Zn60 O71 2.024 . S
Zn60 O76 1.969 . S
Zn61 O68 1.969 . S
Zn61 O74 1.969 . S
Zn61 O75 1.965 . S
Zn61 O77 2.024 . S
C62 O63 1.229 . S
C62 O71 1.058 . S
O63 C62 1.229 . S
C64 O65 1.229 . S
C64 O77 1.058 . S
O65 C64 1.229 . S
O66 Zn60 1.969 . S
O66 C69 1.267 . S
O67 Zn60 1.965 . S
O67 C78 1.260 1_655 S
O68 Zn61 1.969 . S
O68 C78 1.258 . S
C69 O66 1.267 . S
C69 O70 1.228 . S
O70 C69 1.228 . S
O71 Zn60 2.024 . S
O71 C62 1.058 . S
C72 O73 1.228 . S
C72 O74 1.267 . S
O73 C72 1.228 . S
O74 Zn61 1.969 . S
O74 C72 1.267 . S
O75 Zn61 1.965 . S
O75 C79 1.260 . S
O76 Zn60 1.969 . S
O76 C79 1.258 1_655 S
O77 Zn61 2.024 . S
O77 C64 1.058 . S
C78 O67 1.260 1_455 S
C78 O68 1.258 . S
C79 O75 1.260 . S
C79 O76 1.258 1_455 S
Zn80 O86 1.969 . S
Zn80 O87 1.965 . S
Zn80 O91 2.024 . S
Zn80 O96 1.969 . S
Zn81 O88 1.969 . S
Zn81 O94 1.969 . S
Zn81 O95 1.965 . S
Zn81 O97 2.024 . S
C82 O83 1.229 . S
C82 O91 1.058 . S
O83 C82 1.229 . S
C84 O85 1.229 . S
C84 O97 1.058 . S
O85 C84 1.229 . S
O86 Zn80 1.969 . S
O86 C89 1.267 . S
O87 Zn80 1.965 . S
O87 C98 1.260 . S
O88 Zn81 1.969 . S
O88 C98 1.258 . S
C89 O86 1.267 . S
C89 O90 1.228 . S
O90 C89 1.228 . S
O91 Zn80 2.024 . S
O91 C82 1.058 . S
C92 O93 1.228 . S
C92 O94 1.267 . S
O93 C92 1.228 . S
O94 Zn81 1.969 . S
O94 C92 1.267 . S
O95 Zn81 1.965 . S
O95 C99 1.260 . S
O96 Zn80 1.969 . S
O96 C99 1.258 . S
O97 Zn81 2.024 . S
O97 C84 1.058 . S
C98 O87 1.260 . S
C98 O88 1.258 . S
C99 O95 1.260 . S
C99 O96 1.258 . S
Zn100 O106 1.969 . S
Zn100 O107 1.965 . S
Zn100 O111 2.024 . S
Zn100 O116 1.969 . S
Zn101 O108 1.969 . S
Zn101 O114 1.969 . S
Zn101 O115 1.965 . S
Zn101 O117 2.024 . S
C102 O103 1.229 . S
C102 O111 1.058 . S
O103 C102 1.229 . S
C104 O105 1.229 . S
C104 O117 1.058 . S
O105 C104 1.229 . S
O106 Zn100 1.969 . S
O106 C109 1.267 . S
O107 Zn100 1.965 . S
O107 C118 1.260 . S
O108 Zn101 1.969 . S
O108 C118 1.258 1_565 S
C109 O106 1.267 . S
C109 O110 1.228 . S
O110 C109 1.228 . S
O111 Zn100 2.024 . S
O111 C102 1.058 . S
C112 O113 1.228 . S
C112 O114 1.267 . S
O113 C112 1.228 . S
O114 Zn101 1.969 . S
O114 C112 1.267 . S
O115 Zn101 1.965 . S
O115 C119 1.260 1_565 S
O116 Zn100 1.969 . S
O116 C119 1.258 . S
O117 Zn101 2.024 . S
O117 C104 1.058 . S
C118 O107 1.260 . S
C118 O108 1.258 1_545 S
C119 O115 1.260 1_545 S
C119 O116 1.258 . S
Zn120 O126 1.969 . S
Zn120 O127 1.965 . S
Zn120 O131 2.024 . S
Zn120 O136 1.969 . S
Zn121 O128 1.969 . S
Zn121 O134 1.969 . S
Zn121 O135 1.965 . S
Zn121 O137 2.024 . S
C122 O123 1.229 . S
C122 O131 1.058 . S
O123 C122 1.229 . S
C124 O125 1.229 . S
C124 O137 1.058 . S
O125 C124 1.229 . S
O126 Zn120 1.969 . S
O126 C129 1.267 . S
O127 Zn120 1.965 . S
O127 C138 1.260 . S
O128 Zn121 1.969 . S
O128 C138 1.258 . S
C129 O126 1.267 . S
C129 O130 1.228 . S
O130 C129 1.228 . S
O131 Zn120 2.024 . S
O131 C122 1.058 . S
C132 O133 1.228 . S
C132 O134 1.267 . S
O133 C132 1.228 . S
O134 Zn121 1.969 . S
O134 C132 1.267 . S
O135 Zn121 1.965 . S
O135 C139 1.260 . S
O136 Zn120 1.969 . S
O136 C139 1.258 . S
O137 Zn121 2.024 . S
O137 C124 1.058 . S
C138 O127 1.260 . S
C138 O128 1.258 . S
C139 O135 1.260 . S
C139 O136 1.258 . S
Zn140 O146 1.969 . S
Zn140 O147 1.965 . S
Zn140 O151 2.024 . S
Zn140 O156 1.969 . S
Zn141 O148 1.969 . S
Zn141 O154 1.969 . S
Zn141 O155 1.965 . S
Zn141 O157 2.024 . S
C142 O143 1.229 . S
C142 O151 1.058 . S
O143 C142 1.229 . S
C144 O145 1.229 . S
C144 O157 1.058 . S
O145 C144 1.229 . S
O146 Zn140 1.969 . S
O146 C149 1.267 . S
O147 Zn140 1.965 . S
O147 C158 1.260 . S
O148 Zn141 1.969 . S
O148 C158 1.258 . S
C149 O146 1.267 . S
C149 O150 1.228 . S
O150 C149 1.228 . S
O151 Zn140 2.024 . S
O151 C142 1.058 . S
C152 O153 1.228 . S
C152 O154 1.267 . S
O153 C152 1.228 . S
O154 Zn141 1.969 . S
O154 C152 1.267 . S
O155 Zn141 1.965 . S
O155 C159 1.260 . S
O156 Zn140 1.969 . S
O156 C159 1.258 . S
O157 Zn141 2.024 . S
O157 C144 1.058 . S
C158 O147 1.260 . S
C158 O148 1.258 . S
C159 O155 1.260 . S
C159 O156 1.258 . S
Zn160 O166 1.969 . S
Zn160 O167 1.965 . S
Zn160 O171 2.024 . S
Zn160 O176 1.969 . S
Zn161 O168 1.969 . S
Zn161 O174 1.969 . S
Zn161 O175 1.965 . S
Zn161 O177 2.024 . S
C162 O163 1.229 . S
C162 O171 1.058 . S
O163 C162 1.229 . S
C164 O165 1.229 . S
C164 O177 1.058 . S
O165 C164 1.229 . S
O166 Zn160 1.969 . S
O166 C169 1.267 1_565 S
O167 Zn160 1.965 . S
O167 C178 1.260 . S
O168 Zn161 1.969 . S
O168 C178 1.258 . S
C169 O166 1.267 1_545 S
C169 O170 1.228 1_545 S
O170 C169 1.228 1_565 S
O171 Zn160 2.024 . S
O171 C162 1.058 . S
C172 O173 1.228 . S
C172 O174 1.267 . S
O173 C172 1.228 . S
O174 Zn161 1.969 . S
O174 C172 1.267 . S
O175 Zn161 1.965 . S
O175 C179 1.260 . S
O176 Zn160 1.969 . S
O176 C179 1.258 . S
O177 Zn161 2.024 . S
O177 C164 1.058 . S
C178 O167 1.260 . S
C178 O168 1.258 . S
C179 O175 1.260 . S
C179 O176 1.258 . S
Zn180 O186 1.969 . S
Zn180 O187 1.965 . S
Zn180 O191 2.024 . S
Zn180 O196 1.969 . S
Zn181 O188 1.969 . S
Zn181 O194 1.969 . S
Zn181 O195 1.965 . S
Zn181 O197 2.024 . S
C182 O183 1.229 . S
C182 O191 1.058 . S
O183 C182 1.229 . S
C184 O185 1.229 . S
C184 O197 1.058 . S
O185 C184 1.229 . S
O186 Zn180 1.969 . S
O186 C189 1.267 . S
O187 Zn180 1.965 . S
O187 C198 1.260 . S
O188 Zn181 1.969 . S
O188 C198 1.258 . S
C189 O186 1.267 . S
C189 O190 1.228 . S
O190 C189 1.228 . S
O191 Zn180 2.024 . S
O191 C182 1.058 . S
C192 O193 1.228 . S
C192 O194 1.267 . S
O193 C192 1.228 . S
O194 Zn181 1.969 . S
O194 C192 1.267 . S
O195 Zn181 1.965 . S
O195 C199 1.260 . S
O196 Zn180 1.969 . S
O196 C199 1.258 . S
O197 Zn181 2.024 . S
O197 C184 1.058 . S
C198 O187 1.260 . S
C198 O188 1.258 . S
C199 O195 1.260 . S
C199 O196 1.258 . S
Zn200 O206 1.969 . S
Zn200 O207 1.965 . S
Zn200 O211 2.024 . S
Zn200 O216 1.969 . S
Zn201 O208 1.969 . S
Zn201 O214 1.969 . S
Zn201 O215 1.965 . S
Zn201 O217 2.024 . S
C202 O203 1.229 . S
C202 O211 1.058 . S
O203 C202 1.229 . S
C204 O205 1.229 . S
C204 O217 1.058 . S
O205 C204 1.229 . S
O206 Zn200 1.969 . S
O206 C209 1.267 . S
O207 Zn200 1.965 . S
O207 C218 1.260 . S
O208 Zn201 1.969 . S
O208 C218 1.258 . S
C209 O206 1.267 . S
C209 O210 1.228 . S
O210 C209 1.228 . S
O211 Zn200 2.024 . S
O211 C202 1.058 . S
C212 O213 1.228 . S
C212 O214 1.267 . S
O213 C212 1.228 . S
O214 Zn201 1.969 . S
O214 C212 1.267 . S
O215 Zn201 1.965 . S
O215 C219 1.260 . S
O216 Zn200 1.969 . S
O216 C219 1.258 . S
O217 Zn201 2.024 . S
O217 C204 1.058 . S
C218 O207 1.260 . S
C218 O208 1.258 . S
C219 O215 1.260 . S
C219 O216 1.258 . S
Zn220 O226 1.969 . S
Zn220 O227 1.965 . S
Zn220 O231 2.024 . S
Zn220 O236 1.969 . S
Zn221 O228 1.969 . S
Zn221 O234 1.969 . S
Zn221 O235 1.965 . S
Zn221 O237 2.024 . S
C222 O223 1.229 . S
C222 O231 1.058 . S
O223 C222 1.229 . S
C224 O225 1.229 . S
C224 O237 1.058 . S
O225 C224 1.229 . S
O226 Zn220 1.969 . S
O226 C229 1.267 . S
O227 Zn220 1.965 . S
O227 C238 1.260 . S
O228 Zn221 1.969 . S
O228 C238 1.258 . S
C229 O226 1.267 . S
C229 O230 1.228 . S
O230 C229 1.228 . S
O231 Zn220 2.024 . S
O231 C222 1.058 . S
C232 O233 1.228 . S
C232 O234 1.267 . S
O233 C232 1.228 . S
O234 Zn221 1.969 . S
O234 C232 1.267 . S
O235 Zn221 1.965 . S
O235 C239 1.260 . S
O236 Zn220 1.969 . S
O236 C239 1.258 . S
O237 Zn221 2.024 . S
O237 C224 1.058 . S
C238 O227 1.260 . S
C238 O228 1.258 . S
C239 O235 1.260 . S
C239 O236 1.258 . S
Zn240 O246 1.969 . S
Zn240 O247 1.965 . S
Zn240 O251 2.024 . S
Zn240 O256 1.969 . S
Zn241 O248 1.969 . S
Zn241 O254 1.969 . S
Zn241 O255 1.965 . S
Zn241 O257 2.024 . S
C242 O243 1.229 . S
C242 O251 1.058 . S
O243 C242 1.229 . S
C244 O245 1.229 . S
C244 O257 1.058 . S
O245 C244 1.229 . S
O246 Zn240 1.969 . S
O246 C249 1.267 . S
O247 Zn240 1.965 . S
O247 C258 1.260 . S
O248 Zn241 1.969 . S
O248 C258 1.258 . S
C249 O246 1.267 . S
C249 O250 1.228 . S
O250 C249 1.228 . S
O251 Zn240 2.024 . S
O251 C242 1.058 . S
C252 O253 1.228 . S
C252 O254 1.267 . S
O253 C252 1.228 . S
O254 Zn241 1.969 . S
O254 C252 1.267 . S
O255 Zn241 1.965 . S
O255 C259 1.260 . S
O256 Zn240 1.969 . S
O256 C259 1.258 . S
O257 Zn241 2.024 . S
O257 C244 1.058 . S
C258 O247 1.260 . S
C258 O248 1.258 . S
C259 O255 1.260 . S
C259 O256 1.258 . S
Zn260 O266 1.969 . S
Zn260 O267 1.965 . S
Zn260 O271 2.024 . S
Zn260 O276 1.969 . S
Zn261 O268 1.969 . S
Zn261 O274 1.969 . S
Zn261 O275 1.965 . S
Zn261 O277 2.024 . S
C262 O263 1.229 . S
C262 O271 1.058 . S
O263 C262 1.229 . S
C264 O265 1.229 . S
C264 O277 1.058 . S
O265 C264 1.229 . S
O266 Zn260 1.969 . S
O266 C269 1.267 . S
O267 Zn260 1.965 . S
O267 C278 1.260 . S
O268 Zn261 1.969 . S
O268 C278 1.258 . S
C269 O266 1.267 . S
C269 O270 1.228 . S
O270 C269 1.228 . S
O271 Zn260 2.024 . S
O271 C262 1.058 . S
C272 O273 1.228 . S
C272 O274 1.267 . S
O273 C272 1.228 . S
O274 Zn261 1.969 . S
O274 C272 1.267 . S
O275 Zn261 1.965 . S
O275 C279 1.260 . S
O276 Zn260 1.969 . S
O276 C279 1.258 . S
O277 Zn261 2.024 . S
O277 C264 1.058 . S
C278 O267 1.260 . S
C278 O268 1.258 . S
C279 O275 1.260 . S
C279 O276 1.258 . S
Zn280 O286 1.969 . S
Zn280 O287 1.965 . S
Zn280 O291 2.024 . S
Zn280 O296 1.969 . S
Zn281 O288 1.969 . S
Zn281 O294 1.969 . S
Zn281 O295 1.965 . S
Zn281 O297 2.024 . S
C282 O283 1.229 . S
C282 O291 1.058 . S
O283 C282 1.229 . S
C284 O285 1.229 . S
C284 O297 1.058 . S
O285 C284 1.229 . S
O286 Zn280 1.969 . S
O286 C289 1.267 . S
O287 Zn280 1.965 . S
O287 C298 1.260 . S
O288 Zn281 1.969 . S
O288 C298 1.258 . S
C289 O286 1.267 . S
C289 O290 1.228 . S
O290 C289 1.228 . S
O291 Zn280 2.024 . S
O291 C282 1.058 . S
C292 O293 1.228 . S
C292 O294 1.267 . S
O293 C292 1.228 . S
O294 Zn281 1.969 . S
O294 C292 1.267 . S
O295 Zn281 1.965 . S
O295 C299 1.260 . S
O296 Zn280 1.969 . S
O296 C299 1.258 . S
O297 Zn281 2.024 . S
O297 C284 1.058 . S
C298 O287 1.260 . S
C298 O288 1.258 . S
C299 O295 1.260 . S
C299 O296 1.258 . S
Zn300 O306 1.969 . S
Zn300 O307 1.965 . S
Zn300 O311 2.024 . S
Zn300 O316 1.969 . S
Zn301 O308 1.969 . S
Zn301 O314 1.969 . S
Zn301 O315 1.965 . S
Zn301 O317 2.024 . S
C302 O303 1.229 . S
C302 O311 1.058 . S
O303 C302 1.229 . S
C304 O305 1.229 . S
C304 O317 1.058 . S
O305 C304 1.229 . S
O306 Zn300 1.969 . S
O306 C309 1.267 . S
O307 Zn300 1.965 . S
O307 C318 1.260 . S
O308 Zn301 1.969 . S
O308 C318 1.258 . S
C309 O306 1.267 . S
C309 O310 1.228 . S
O310 C309 1.228 . S
O311 Zn300 2.024 . S
O311 C302 1.058 . S
C312 O313 1.228 . S
C312 O314 1.267 . S
O313 C312 1.228 . S
O314 Zn301 1.969 . S
O314 C312 1.267 . S
O315 Zn301 1.965 . S
O315 C319 1.260 . S
O316 Zn300 1.969 . S
O316 C319 1.258 . S
O317 Zn301 2.024 . S
O317 C304 1.058 . S
C318 O307 1.260 . S
C318 O308 1.258 . S
C319 O315 1.260 . S
C319 O316 1.258 . S
Zn320 O326 1.969 . S
Zn320 O327 1.965 . S
Zn320 O331 2.024 . S
Zn320 O336 1.969 . S
Zn321 O328 1.969 . S
Zn321 O334 1.969 . S
Zn321 O335 1.965 . S
Zn321 O337 2.024 . S
C322 O323 1.229 . S
C322 O331 1.058 . S
O323 C322 1.229 . S
C324 O325 1.229 . S
C324 O337 1.058 . S
O325 C324 1.229 . S
O326 Zn320 1.969 . S
O326 C329 1.267 1_655 S
O327 Zn320 1.965 . S
O327 C338 1.260 . S
O328 Zn321 1.969 . S
O328 C338 1.258 . S
C329 O326 1.267 1_455 S
C329 O330 1.228 1_455 S
O330 C329 1.228 1_655 S
O331 Zn320 2.024 . S
O331 C322 1.058 . S
C332 O333 1.228 . S
C332 O334 1.267 . S
O333 C332 1.228 . S
O334 Zn321 1.969 . S
O334 C332 1.267 . S
O335 Zn321 1.965 . S
O335 C339 1.260 . S
O336 Zn320 1.969 . S
O336 C339 1.258 . S
O337 Zn321 2.024 . S
O337 C324 1.058 . S
C338 O327 1.260 . S
C338 O328 1.258 . S
C339 O335 1.260 . S
C339 O336 1.258 . S
Zn340 O346 1.969 . S
Zn340 O347 1.965 . S
Zn340 O351 2.024 . S
Zn340 O356 1.969 . S
Zn341 O348 1.969 . S
Zn341 O354 1.969 . S
Zn341 O355 1.965 . S
Zn341 O357 2.024 . S
C342 O343 1.229 . S
C342 O351 1.058 . S
O343 C342 1.229 . S
C344 O345 1.229 . S
C344 O357 1.058 . S
O345 C344 1.229 . S
O346 Zn340 1.969 . S
O346 C349 1.267 . S
O347 Zn340 1.965 . S
O347 C358 1.260 . S
O348 Zn341 1.969 . S
O348 C358 1.258 . S
C349 O346 1.267 . S
C349 O350 1.228 . S
O350 C349 1.228 . S
O351 Zn340 2.024 . S
O351 C342 1.058 . S
C352 O353 1.228 . S
C352 O354 1.267 . S
O353 C352 1.228 . S
O354 Zn341 1.969 . S
O354 C352 1.267 . S
O355 Zn341 1.965 . S
O355 C359 1.260 . S
O356 Zn340 1.969 . S
O356 C359 1.258 . S
O357 Zn341 2.024 . S
O357 C344 1.058 . S
C358 O347 1.260 . S
C358 O348 1.258 . S
C359 O355 1.260 . S
C359 O356 1.258 . S
H360 C366 0.930 . S
H361 C370 0.930 . S
H362 C375 0.929 . S
H363 C373 0.929 . S
H364 C368 0.929 . S
H365 C374 0.929 . S
C366 H360 0.930 . S
C366 C367 1.367 . S
C366 C374 1.378 . S
C367 C366 1.367 . S
C367 C375 1.433 . S
C368 H364 0.929 . S
C368 C370 1.378 . S
C368 C372 1.350 . S
C369 C372 1.463 . S
C369 C374 1.350 . S
C369 N377 1.427 . S
C370 H361 0.930 . S
C370 C368 1.378 . S
C370 C371 1.367 . S
C371 C370 1.367 . S
C371 C373 1.433 . S
C372 C368 1.350 . S
C372 C369 1.463 . S
C372 N376 1.427 . S
C373 H363 0.929 . S
C373 C371 1.433 . S
C373 N376 1.384 . S
C374 H365 0.929 . S
C374 C366 1.378 . S
C374 C369 1.350 . S
C375 H362 0.929 . S
C375 C367 1.433 . S
C375 N377 1.384 . S
N376 C372 1.427 . S
N376 C373 1.384 . S
N377 C369 1.427 . S
N377 C375 1.384 . S
H378 C384 0.930 . S
H379 C388 0.930 . S
H380 C393 0.929 . S
H381 C391 0.929 . S
H382 C386 0.929 . S
H383 C392 0.929 . S
C384 H378 0.930 . S
C384 C385 1.367 . S
C384 C392 1.378 . S
C385 C384 1.367 . S
C385 C393 1.433 . S
C386 H382 0.929 . S
C386 C388 1.378 . S
C386 C390 1.350 . S
C387 C390 1.463 . S
C387 C392 1.350 . S
C387 N395 1.427 . S
C388 H379 0.930 . S
C388 C386 1.378 . S
C388 C389 1.367 . S
C389 C388 1.367 . S
C389 C391 1.433 . S
C390 C386 1.350 . S
C390 C387 1.463 . S
C390 N394 1.427 . S
C391 H381 0.929 . S
C391 C389 1.433 . S
C391 N394 1.384 . S
C392 H383 0.929 . S
C392 C384 1.378 . S
C392 C387 1.350 . S
C393 H380 0.929 . S
C393 C385 1.433 . S
C393 N395 1.384 . S
N394 C390 1.427 . S
N394 C391 1.384 . S
N395 C387 1.427 . S
N395 C393 1.384 . S
H396 C402 0.930 . S
H397 C406 0.930 . S
H398 C411 0.929 . S
H399 C409 0.929 . S
H400 C404 0.929 . S
H401 C410 0.929 . S
C402 H396 0.930 . S
C402 C403 1.367 . S
C402 C410 1.378 . S
C403 C402 1.367 . S
C403 C411 1.433 . S
C404 H400 0.929 . S
C404 C406 1.378 . S
C404 C408 1.350 . S
C405 C408 1.463 . S
C405 C410 1.350 . S
C405 N413 1.427 . S
C406 H397 0.930 . S
C406 C404 1.378 . S
C406 C407 1.367 . S
C407 C406 1.367 . S
C407 C409 1.433 . S
C408 C404 1.350 . S
C408 C405 1.463 . S
C408 N412 1.427 . S
C409 H399 0.929 . S
C409 C407 1.433 . S
C409 N412 1.384 . S
C410 H401 0.929 . S
C410 C402 1.378 . S
C410 C405 1.350 . S
C411 H398 0.929 . S
C411 C403 1.433 . S
C411 N413 1.384 . S
N412 C408 1.427 . S
N412 C409 1.384 . S
N413 C405 1.427 . S
N413 C411 1.384 . S
H414 C420 0.930 . S
H415 C424 0.930 . S
H416 C429 0.929 . S
H417 C427 0.929 . S
H418 C422 0.929 . S
H419 C428 0.929 . S
C420 H414 0.930 . S
C420 C421 1.367 . S
C420 C428 1.378 . S
C421 C420 1.367 . S
C421 C429 1.433 . S
C422 H418 0.929 . S
C422 C424 1.378 . S
C422 C426 1.350 . S
C423 C426 1.463 . S
C423 C428 1.350 . S
C423 N431 1.427 . S
C424 H415 0.930 . S
C424 C422 1.378 . S
C424 C425 1.367 . S
C425 C424 1.367 . S
C425 C427 1.433 . S
C426 C422 1.350 . S
C426 C423 1.463 . S
C426 N430 1.427 . S
C427 H417 0.929 . S
C427 C425 1.433 . S
C427 N430 1.384 . S
C428 H419 0.929 . S
C428 C420 1.378 . S
C428 C423 1.350 . S
C429 H416 0.929 . S
C429 C421 1.433 . S
C429 N431 1.384 . S
N430 C426 1.427 . S
N430 C427 1.384 . S
N431 C423 1.427 . S
N431 C429 1.384 . S
H432 C438 0.930 . S
H433 C442 0.930 . S
H434 C447 0.929 . S
H435 C445 0.929 . S
H436 C440 0.929 . S
H437 C446 0.929 . S
C438 H432 0.930 . S
C438 C439 1.367 . S
C438 C446 1.378 . S
C439 C438 1.367 . S
C439 C447 1.433 . S
C440 H436 0.929 . S
C440 C442 1.378 . S
C440 C444 1.350 . S
C441 C444 1.463 . S
C441 C446 1.350 . S
C441 N449 1.427 . S
C442 H433 0.930 . S
C442 C440 1.378 . S
C442 C443 1.367 . S
C443 C442 1.367 . S
C443 C445 1.433 . S
C444 C440 1.350 . S
C444 C441 1.463 . S
C444 N448 1.427 . S
C445 H435 0.929 . S
C445 C443 1.433 . S
C445 N448 1.384 . S
C446 H437 0.929 . S
C446 C438 1.378 . S
C446 C441 1.350 . S
C447 H434 0.929 . S
C447 C439 1.433 . S
C447 N449 1.384 . S
N448 C444 1.427 . S
N448 C445 1.384 . S
N449 C441 1.427 . S
N449 C447 1.384 . S
H450 C456 0.930 . S
H451 C460 0.930 . S
H452 C465 0.929 . S
H453 C463 0.929 . S
H454 C458 0.929 . S
H455 C464 0.929 . S
C456 H450 0.930 . S
C456 C457 1.367 . S
C456 C464 1.378 . S
C457 C456 1.367 . S
C457 C465 1.433 . S
C458 H454 0.929 . S
C458 C460 1.378 . S
C458 C462 1.350 . S
C459 C462 1.463 . S
C459 C464 1.350 . S
C459 N467 1.427 . S
C460 H451 0.930 . S
C460 C458 1.378 . S
C460 C461 1.367 . S
C461 C460 1.367 . S
C461 C463 1.433 . S
C462 C458 1.350 . S
C462 C459 1.463 . S
C462 N466 1.427 . S
C463 H453 0.929 . S
C463 C461 1.433 . S
C463 N466 1.384 . S
C464 H455 0.929 . S
C464 C456 1.378 . S
C464 C459 1.350 . S
C465 H452 0.929 . S
C465 C457 1.433 . S
C465 N467 1.384 . S
N466 C462 1.427 . S
N466 C463 1.384 . S
N467 C459 1.427 . S
N467 C465 1.384 . S
H468 C474 0.930 . S
H469 C478 0.930 . S
H470 C483 0.929 . S
H471 C481 0.929 . S
H472 C476 0.929 . S
H473 C482 0.929 . S
C474 H468 0.930 . S
C474 C475 1.367 . S
C474 C482 1.378 . S
C475 C474 1.367 . S
C475 C483 1.433 . S
C476 H472 0.929 . S
C476 C478 1.378 . S
C476 C480 1.350 . S
C477 C480 1.463 . S
C477 C482 1.350 . S
C477 N485 1.427 . S
C478 H469 0.930 . S
C478 C476 1.378 . S
C478 C479 1.367 . S
C479 C478 1.367 . S
C479 C481 1.433 . S
C480 C476 1.350 . S
C480 C477 1.463 . S
C480 N484 1.427 . S
C481 H471 0.929 . S
C481 C479 1.433 . S
C481 N484 1.384 . S
C482 H473 0.929 . S
C482 C474 1.378 . S
C482 C477 1.350 . S
C483 H470 0.929 . S
C483 C475 1.433 . S
C483 N485 1.384 . S
N484 C480 1.427 . S
N484 C481 1.384 . S
N485 C477 1.427 . S
N485 C483 1.384 . S
H486 C492 0.930 . S
H487 C496 0.930 1_565 S
H488 C501 0.929 . S
H489 C499 0.929 . S
H490 C494 0.929 . S
H491 C500 0.929 . S
C492 H486 0.930 . S
C492 C493 1.367 1_455 S
C492 C500 1.378 1_455 S
C493 C492 1.367 1_655 S
C493 C501 1.433 . S
C494 H490 0.929 . S
C494 C496 1.378 . S
C494 C498 1.350 . S
C495 C498 1.463 . S
C495 C500 1.350 . S
C495 N503 1.427 . S
C496 H487 0.930 1_545 S
C496 C494 1.378 . S
C496 C497 1.367 1_545 S
C497 C496 1.367 1_565 S
C497 C499 1.433 . S
C498 C494 1.350 . S
C498 C495 1.463 . S
C498 N502 1.427 . S
C499 H489 0.929 . S
C499 C497 1.433 . S
C499 N502 1.384 1_565 S
C500 H491 0.929 . S
C500 C492 1.378 1_655 S
C500 C495 1.350 . S
C501 H488 0.929 . S
C501 C493 1.433 . S
C501 N503 1.384 . S
N502 C498 1.427 . S
N502 C499 1.384 1_545 S
N503 C495 1.427 . S
N503 C501 1.384 . S
H504 C510 0.930 . S
H505 C514 0.930 . S
H506 C519 0.929 . S
H507 C517 0.929 . S
H508 C512 0.929 . S
H509 C518 0.929 . S
C510 H504 0.930 . S
C510 C511 1.367 . S
C510 C518 1.378 1_455 S
C511 C510 1.367 . S
C511 C519 1.433 . S
C512 H508 0.929 . S
C512 C514 1.378 . S
C512 C516 1.350 . S
C513 C516 1.463 . S
C513 C518 1.350 . S
C513 N521 1.427 . S
C514 H505 0.930 . S
C514 C512 1.378 . S
C514 C515 1.367 . S
C515 C514 1.367 . S
C515 C517 1.433 . S
C516 C512 1.350 . S
C516 C513 1.463 . S
C516 N520 1.427 . S
C517 H507 0.929 . S
C517 C515 1.433 . S
C517 N520 1.384 . S
C518 H509 0.929 . S
C518 C510 1.378 1_655 S
C518 C513 1.350 . S
C519 H506 0.929 . S
C519 C511 1.433 . S
C519 N521 1.384 1_455 S
N520 C516 1.427 . S
N520 C517 1.384 . S
N521 C513 1.427 . S
N521 C519 1.384 1_655 S
H522 C528 0.930 . S
H523 C532 0.930 . S
H524 C537 0.929 . S
H525 C535 0.929 . S
H526 C530 0.929 . S
H527 C536 0.929 . S
C528 H522 0.930 . S
C528 C529 1.367 . S
C528 C536 1.378 . S
C529 C528 1.367 . S
C529 C537 1.433 . S
C530 H526 0.929 . S
C530 C532 1.378 . S
C530 C534 1.350 . S
C531 C534 1.463 . S
C531 C536 1.350 . S
C531 N539 1.427 . S
C532 H523 0.930 . S
C532 C530 1.378 . S
C532 C533 1.367 . S
C533 C532 1.367 . S
C533 C535 1.433 . S
C534 C530 1.350 . S
C534 C531 1.463 . S
C534 N538 1.427 . S
C535 H525 0.929 . S
C535 C533 1.433 . S
C535 N538 1.384 . S
C536 H527 0.929 . S
C536 C528 1.378 . S
C536 C531 1.350 . S
C537 H524 0.929 . S
C537 C529 1.433 . S
C537 N539 1.384 . S
N538 C534 1.427 . S
N538 C535 1.384 . S
N539 C531 1.427 . S
N539 C537 1.384 . S
H540 C546 0.930 . S
H541 C550 0.930 . S
H542 C555 0.929 . S
H543 C553 0.929 . S
H544 C548 0.929 . S
H545 C554 0.929 . S
C546 H540 0.930 . S
C546 C547 1.367 . S
C546 C554 1.378 . S
C547 C546 1.367 . S
C547 C555 1.433 . S
C548 H544 0.929 . S
C548 C550 1.378 . S
C548 C552 1.350 . S
C549 C552 1.463 . S
C549 C554 1.350 . S
C549 N557 1.427 . S
C550 H541 0.930 . S
C550 C548 1.378 . S
C550 C551 1.367 . S
C551 C550 1.367 . S
C551 C553 1.433 . S
C552 C548 1.350 . S
C552 C549 1.463 . S
C552 N556 1.427 . S
C553 H543 0.929 . S
C553 C551 1.433 . S
C553 N556 1.384 . S
C554 H545 0.929 . S
C554 C546 1.378 . S
C554 C549 1.350 . S
C555 H542 0.929 . S
C555 C547 1.433 . S
C555 N557 1.384 . S
N556 C552 1.427 . S
N556 C553 1.384 . S
N557 C549 1.427 . S
N557 C555 1.384 . S
H558 C564 0.930 . S
H559 C568 0.930 . S
H560 C573 0.929 . S
H561 C571 0.929 . S
H562 C566 0.929 . S
H563 C572 0.929 . S
C564 H558 0.930 . S
C564 C565 1.367 . S
C564 C572 1.378 . S
C565 C564 1.367 . S
C565 C573 1.433 . S
C566 H562 0.929 . S
C566 C568 1.378 . S
C566 C570 1.350 . S
C567 C570 1.463 . S
C567 C572 1.350 . S
C567 N575 1.427 . S
C568 H559 0.930 . S
C568 C566 1.378 . S
C568 C569 1.367 . S
C569 C568 1.367 . S
C569 C571 1.433 . S
C570 C566 1.350 . S
C570 C567 1.463 . S
C570 N574 1.427 . S
C571 H561 0.929 . S
C571 C569 1.433 . S
C571 N574 1.384 . S
C572 H563 0.929 . S
C572 C564 1.378 . S
C572 C567 1.350 . S
C573 H560 0.929 . S
C573 C565 1.433 . S
C573 N575 1.384 . S
N574 C570 1.427 . S
N574 C571 1.384 . S
N575 C567 1.427 . S
N575 C573 1.384 . S
H576 C582 0.930 . S
H577 C586 0.930 . S
H578 C591 0.929 . S
H579 C589 0.929 . S
H580 C584 0.929 . S
H581 C590 0.929 . S
C582 H576 0.930 . S
C582 C583 1.367 . S
C582 C590 1.378 . S
C583 C582 1.367 . S
C583 C591 1.433 . S
C584 H580 0.929 . S
C584 C586 1.378 . S
C584 C588 1.350 . S
C585 C588 1.463 . S
C585 C590 1.350 . S
C585 N593 1.427 . S
C586 H577 0.930 . S
C586 C584 1.378 . S
C586 C587 1.367 . S
C587 C586 1.367 . S
C587 C589 1.433 . S
C588 C584 1.350 . S
C588 C585 1.463 . S
C588 N592 1.427 . S
C589 H579 0.929 . S
C589 C587 1.433 . S
C589 N592 1.384 . S
C590 H581 0.929 . S
C590 C582 1.378 . S
C590 C585 1.350 . S
C591 H578 0.929 . S
C591 C583 1.433 . S
C591 N593 1.384 . S
N592 C588 1.427 . S
N592 C589 1.384 . S
N593 C585 1.427 . S
N593 C591 1.384 . S
H594 C600 0.930 . S
H595 C604 0.930 . S
H596 C609 0.929 . S
H597 C607 0.929 . S
H598 C602 0.929 . S
H599 C608 0.929 . S
C600 H594 0.930 . S
C600 C601 1.367 . S
C600 C608 1.378 . S
C601 C600 1.367 . S
C601 C609 1.433 . S
C602 H598 0.929 . S
C602 C604 1.378 . S
C602 C606 1.350 . S
C603 C606 1.463 . S
C603 C608 1.350 . S
C603 N611 1.427 . S
C604 H595 0.930 . S
C604 C602 1.378 . S
C604 C605 1.367 . S
C605 C604 1.367 . S
C605 C607 1.433 . S
C606 C602 1.350 . S
C606 C603 1.463 . S
C606 N610 1.427 . S
C607 H597 0.929 . S
C607 C605 1.433 . S
C607 N610 1.384 . S
C608 H599 0.929 . S
C608 C600 1.378 . S
C608 C603 1.350 . S
C609 H596 0.929 . S
C609 C601 1.433 . S
C609 N611 1.384 . S
N610 C606 1.427 . S
N610 C607 1.384 . S
N611 C603 1.427 . S
N611 C609 1.384 . S
H612 C618 0.930 . S
H613 C622 0.930 . S
H614 C627 0.929 . S
H615 C625 0.929 . S
H616 C620 0.929 . S
H617 C626 0.929 . S
C618 H612 0.930 . S
C618 C619 1.367 . S
C618 C626 1.378 . S
C619 C618 1.367 . S
C619 C627 1.433 . S
C620 H616 0.929 . S
C620 C622 1.378 . S
C620 C624 1.350 . S
C621 C624 1.463 . S
C621 C626 1.350 . S
C621 N629 1.427 . S
C622 H613 0.930 . S
C622 C620 1.378 . S
C622 C623 1.367 . S
C623 C622 1.367 . S
C623 C625 1.433 . S
C624 C620 1.350 . S
C624 C621 1.463 . S
C624 N628 1.427 . S
C625 H615 0.929 . S
C625 C623 1.433 . S
C625 N628 1.384 . S
C626 H617 0.929 . S
C626 C618 1.378 . S
C626 C621 1.350 . S
C627 H614 0.929 . S
C627 C619 1.433 . S
C627 N629 1.384 . S
N628 C624 1.427 . S
N628 C625 1.384 . S
N629 C621 1.427 . S
N629 C627 1.384 . S
H630 C636 0.930 . S
H631 C640 0.930 . S
H632 C645 0.929 . S
H633 C643 0.929 . S
H634 C638 0.929 . S
H635 C644 0.929 . S
C636 H630 0.930 . S
C636 C637 1.367 . S
C636 C644 1.378 . S
C637 C636 1.367 . S
C637 C645 1.433 . S
C638 H634 0.929 . S
C638 C640 1.378 . S
C638 C642 1.350 . S
C639 C642 1.463 . S
C639 C644 1.350 . S
C639 N647 1.427 . S
C640 H631 0.930 . S
C640 C638 1.378 . S
C640 C641 1.367 . S
C641 C640 1.367 . S
C641 C643 1.433 . S
C642 C638 1.350 . S
C642 C639 1.463 . S
C642 N646 1.427 . S
C643 H633 0.929 . S
C643 C641 1.433 . S
C643 N646 1.384 . S
C644 H635 0.929 . S
C644 C636 1.378 . S
C644 C639 1.350 . S
C645 H632 0.929 . S
C645 C637 1.433 . S
C645 N647 1.384 . S
N646 C642 1.427 . S
N646 C643 1.384 . S
N647 C639 1.427 . S
N647 C645 1.384 . S
H648 C654 0.930 . S
H649 C658 0.930 . S
H650 C663 0.929 . S
H651 C661 0.929 . S
H652 C656 0.929 . S
H653 C662 0.929 . S
C654 H648 0.930 . S
C654 C655 1.367 . S
C654 C662 1.378 . S
C655 C654 1.367 . S
C655 C663 1.433 . S
C656 H652 0.929 . S
C656 C658 1.378 . S
C656 C660 1.350 1_545 S
C657 C660 1.463 . S
C657 C662 1.350 . S
C657 N665 1.427 . S
C658 H649 0.930 . S
C658 C656 1.378 . S
C658 C659 1.367 . S
C659 C658 1.367 . S
C659 C661 1.433 . S
C660 C656 1.350 1_565 S
C660 C657 1.463 . S
C660 N664 1.427 . S
C661 H651 0.929 . S
C661 C659 1.433 . S
C661 N664 1.384 1_545 S
C662 H653 0.929 . S
C662 C654 1.378 . S
C662 C657 1.350 . S
C663 H650 0.929 . S
C663 C655 1.433 . S
C663 N665 1.384 . S
N664 C660 1.427 . S
N664 C661 1.384 1_565 S
N665 C657 1.427 . S
N665 C663 1.384 . S
H666 C672 0.930 . S
H667 C676 0.930 . S
H668 C681 0.929 1_545 S
H669 C679 0.929 1_655 S
H670 C674 0.929 . S
H671 C680 0.929 . S
C672 H666 0.930 . S
C672 C673 1.367 . S
C672 C680 1.378 . S
C673 C672 1.367 . S
C673 C681 1.433 . S
C674 H670 0.929 . S
C674 C676 1.378 1_455 S
C674 C678 1.350 . S
C675 C678 1.463 . S
C675 C680 1.350 . S
C675 N683 1.427 . S
C676 H667 0.930 . S
C676 C674 1.378 1_655 S
C676 C677 1.367 . S
C677 C676 1.367 . S
C677 C679 1.433 1_655 S
C678 C674 1.350 . S
C678 C675 1.463 . S
C678 N682 1.427 . S
C679 H669 0.929 1_455 S
C679 C677 1.433 1_455 S
C679 N682 1.384 . S
C680 H671 0.929 . S
C680 C672 1.378 . S
C680 C675 1.350 . S
C681 H668 0.929 1_565 S
C681 C673 1.433 . S
C681 N683 1.384 . S
N682 C678 1.427 . S
N682 C679 1.384 . S
N683 C675 1.427 . S
N683 C681 1.384 . S
H684 C690 0.930 . S
H685 C694 0.930 . S
H686 C699 0.929 . S
H687 C697 0.929 . S
H688 C692 0.929 . S
H689 C698 0.929 . S
C690 H684 0.930 . S
C690 C691 1.367 1_565 S
C690 C698 1.378 . S
C691 C690 1.367 1_545 S
C691 C699 1.433 . S
C692 H688 0.929 . S
C692 C694 1.378 . S
C692 C696 1.350 . S
C693 C696 1.463 1_554 S
C693 C698 1.350 1_545 S
C693 N701 1.427 . S
C694 H685 0.930 . S
C694 C692 1.378 . S
C694 C695 1.367 . S
C695 C694 1.367 . S
C695 C697 1.433 1_545 S
C696 C692 1.350 . S
C696 C693 1.463 1_556 S
C696 N700 1.427 1_545 S
C697 H687 0.929 . S
C697 C695 1.433 1_565 S
C697 N700 1.384 . S
C698 H689 0.929 . S
C698 C690 1.378 . S
C698 C693 1.350 1_565 S
C699 H686 0.929 . S
C699 C691 1.433 . S
C699 N701 1.384 . S
N700 C696 1.427 1_565 S
N700 C697 1.384 . S
N701 C693 1.427 . S
N701 C699 1.384 . S
H702 C708 0.930 . S
H703 C712 0.930 . S
H704 C717 0.929 . S
H705 C715 0.929 . S
H706 C710 0.929 . S
H707 C716 0.929 . S
C708 H702 0.930 . S
C708 C709 1.367 . S
C708 C716 1.378 . S
C709 C708 1.367 . S
C709 C717 1.433 . S
C710 H706 0.929 . S
C710 C712 1.378 . S
C710 C714 1.350 . S
C711 C714 1.463 1_556 S
C711 C716 1.350 . S
C711 N719 1.427 . S
C712 H703 0.930 . S
C712 C710 1.378 . S
C712 C713 1.367 . S
C713 C712 1.367 . S
C713 C715 1.433 . S
C714 C710 1.350 . S
C714 C711 1.463 1_554 S
C714 N718 1.427 . S
C715 H705 0.929 . S
C715 C713 1.433 . S
C715 N718 1.384 . S
C716 H707 0.929 . S
C716 C708 1.378 . S
C716 C711 1.350 . S
C717 H704 0.929 . S
C717 C709 1.433 . S
C717 N719 1.384 . S
N718 C714 1.427 . S
N718 C715 1.384 . S
N719 C711 1.427 . S
N719 C717 1.384 . S
H720 C726 0.930 . S
H721 C730 0.930 . S
H722 C735 0.929 . S
H723 C733 0.929 . S
H724 C728 0.929 . S
H725 C734 0.929 . S
C726 H720 0.930 . S
C726 C727 1.367 . S
C726 C734 1.378 . S
C727 C726 1.367 . S
C727 C735 1.433 . S
C728 H724 0.929 . S
C728 C730 1.378 . S
C728 C732 1.350 . S
C729 C732 1.463 1_556 S
C729 C734 1.350 . S
C729 N737 1.427 . S
C730 H721 0.930 . S
C730 C728 1.378 . S
C730 C731 1.367 . S
C731 C730 1.367 . S
C731 C733 1.433 . S
C732 C728 1.350 . S
C732 C729 1.463 1_554 S
C732 N736 1.427 . S
C733 H723 0.929 . S
C733 C731 1.433 . S
C733 N736 1.384 . S
C734 H725 0.929 . S
C734 C726 1.378 . S
C734 C729 1.350 . S
C735 H722 0.929 . S
C735 C727 1.433 . S
C735 N737 1.384 . S
N736 C732 1.427 . S
N736 C733 1.384 . S
N737 C729 1.427 . S
N737 C735 1.384 . S
H738 C744 0.930 . S
H739 C748 0.930 . S
H740 C753 0.929 . S
H741 C751 0.929 . S
H742 C746 0.929 . S
H743 C752 0.929 . S
C744 H738 0.930 . S
C744 C745 1.367 . S
C744 C752 1.378 . S
C745 C744 1.367 . S
C745 C753 1.433 . S
C746 H742 0.929 . S
C746 C748 1.378 . S
C746 C750 1.350 . S
C747 C750 1.463 . S
C747 C752 1.350 . S
C747 N755 1.427 . S
C748 H739 0.930 . S
C748 C746 1.378 . S
C748 C749 1.367 . S
C749 C748 1.367 . S
C749 C751 1.433 . S
C750 C746 1.350 . S
C750 C747 1.463 . S
C750 N754 1.427 . S
C751 H741 0.929 . S
C751 C749 1.433 . S
C751 N754 1.384 . S
C752 H743 0.929 . S
C752 C744 1.378 . S
C752 C747 1.350 . S
C753 H740 0.929 . S
C753 C745 1.433 . S
C753 N755 1.384 . S
N754 C750 1.427 . S
N754 C751 1.384 . S
N755 C747 1.427 . S
N755 C753 1.384 . S
H756 C762 0.930 . S
H757 C766 0.930 . S
H758 C771 0.929 . S
H759 C769 0.929 . S
H760 C764 0.929 . S
H761 C770 0.929 . S
C762 H756 0.930 . S
C762 C763 1.367 . S
C762 C770 1.378 . S
C763 C762 1.367 . S
C763 C771 1.433 . S
C764 H760 0.929 . S
C764 C766 1.378 . S
C764 C768 1.350 . S
C765 C768 1.463 . S
C765 C770 1.350 . S
C765 N773 1.427 . S
C766 H757 0.930 . S
C766 C764 1.378 . S
C766 C767 1.367 . S
C767 C766 1.367 . S
C767 C769 1.433 . S
C768 C764 1.350 . S
C768 C765 1.463 . S
C768 N772 1.427 . S
C769 H759 0.929 . S
C769 C767 1.433 . S
C769 N772 1.384 . S
C770 H761 0.929 . S
C770 C762 1.378 . S
C770 C765 1.350 . S
C771 H758 0.929 . S
C771 C763 1.433 . S
C771 N773 1.384 . S
N772 C768 1.427 . S
N772 C769 1.384 . S
N773 C765 1.427 . S
N773 C771 1.384 . S
H774 C780 0.930 . S
H775 C784 0.930 . S
H776 C789 0.929 . S
H777 C787 0.929 . S
H778 C782 0.929 . S
H779 C788 0.929 . S
C780 H774 0.930 . S
C780 C781 1.367 . S
C780 C788 1.378 . S
C781 C780 1.367 . S
C781 C789 1.433 . S
C782 H778 0.929 . S
C782 C784 1.378 . S
C782 C786 1.350 . S
C783 C786 1.463 . S
C783 C788 1.350 . S
C783 N791 1.427 . S
C784 H775 0.930 . S
C784 C782 1.378 . S
C784 C785 1.367 . S
C785 C784 1.367 . S
C785 C787 1.433 . S
C786 C782 1.350 . S
C786 C783 1.463 . S
C786 N790 1.427 . S
C787 H777 0.929 . S
C787 C785 1.433 . S
C787 N790 1.384 . S
C788 H779 0.929 . S
C788 C780 1.378 . S
C788 C783 1.350 . S
C789 H776 0.929 . S
C789 C781 1.433 . S
C789 N791 1.384 . S
N790 C786 1.427 . S
N790 C787 1.384 . S
N791 C783 1.427 . S
N791 C789 1.384 . S
H792 C798 0.930 . S
H793 C802 0.930 . S
H794 C807 0.929 . S
H795 C805 0.929 . S
H796 C800 0.929 . S
H797 C806 0.929 . S
C798 H792 0.930 . S
C798 C799 1.367 . S
C798 C806 1.378 . S
C799 C798 1.367 . S
C799 C807 1.433 . S
C800 H796 0.929 . S
C800 C802 1.378 . S
C800 C804 1.350 . S
C801 C804 1.463 . S
C801 C806 1.350 . S
C801 N809 1.427 . S
C802 H793 0.930 . S
C802 C800 1.378 . S
C802 C803 1.367 . S
C803 C802 1.367 . S
C803 C805 1.433 . S
C804 C800 1.350 . S
C804 C801 1.463 . S
C804 N808 1.427 . S
C805 H795 0.929 . S
C805 C803 1.433 . S
C805 N808 1.384 . S
C806 H797 0.929 . S
C806 C798 1.378 . S
C806 C801 1.350 . S
C807 H794 0.929 . S
C807 C799 1.433 . S
C807 N809 1.384 . S
N808 C804 1.427 . S
N808 C805 1.384 . S
N809 C801 1.427 . S
N809 C807 1.384 . S
H810 C816 0.930 . S
H811 C820 0.930 . S
H812 C825 0.929 . S
H813 C823 0.929 . S
H814 C818 0.929 . S
H815 C824 0.929 . S
C816 H810 0.930 . S
C816 C817 1.367 . S
C816 C824 1.378 . S
C817 C816 1.367 . S
C817 C825 1.433 . S
C818 H814 0.929 . S
C818 C820 1.378 . S
C818 C822 1.350 . S
C819 C822 1.463 . S
C819 C824 1.350 . S
C819 N827 1.427 . S
C820 H811 0.930 . S
C820 C818 1.378 . S
C820 C821 1.367 . S
C821 C820 1.367 . S
C821 C823 1.433 . S
C822 C818 1.350 . S
C822 C819 1.463 . S
C822 N826 1.427 . S
C823 H813 0.929 . S
C823 C821 1.433 . S
C823 N826 1.384 . S
C824 H815 0.929 . S
C824 C816 1.378 . S
C824 C819 1.350 . S
C825 H812 0.929 . S
C825 C817 1.433 . S
C825 N827 1.384 . S
N826 C822 1.427 . S
N826 C823 1.384 . S
N827 C819 1.427 . S
N827 C825 1.384 . S
H828 C834 0.930 . S
H829 C838 0.930 . S
H830 C843 0.929 . S
H831 C841 0.929 . S
H832 C836 0.929 . S
H833 C842 0.929 . S
C834 H828 0.930 . S
C834 C835 1.367 . S
C834 C842 1.378 . S
C835 C834 1.367 . S
C835 C843 1.433 . S
C836 H832 0.929 . S
C836 C838 1.378 . S
C836 C840 1.350 . S
C837 C840 1.463 . S
C837 C842 1.350 . S
C837 N845 1.427 . S
C838 H829 0.930 . S
C838 C836 1.378 . S
C838 C839 1.367 . S
C839 C838 1.367 . S
C839 C841 1.433 . S
C840 C836 1.350 . S
C840 C837 1.463 . S
C840 N844 1.427 . S
C841 H831 0.929 . S
C841 C839 1.433 . S
C841 N844 1.384 . S
C842 H833 0.929 . S
C842 C834 1.378 . S
C842 C837 1.350 . S
C843 H830 0.929 . S
C843 C835 1.433 . S
C843 N845 1.384 . S
N844 C840 1.427 . S
N844 C841 1.384 . S
N845 C837 1.427 . S
N845 C843 1.384 . S
H846 C852 0.930 . S
H847 C856 0.923 1_545 S
H848 C861 0.929 . S
H849 C859 0.929 . S
H850 C854 0.929 . S
H851 C860 0.929 . S
C852 H846 0.930 . S
C852 C853 1.367 . S
C852 C860 1.378 . S
C853 C852 1.367 . S
C853 C861 1.433 . S
C854 H850 0.929 . S
C854 C856 1.378 . S
C854 C858 1.350 . S
C855 C858 1.463 . S
C855 C860 1.350 . S
C855 N863 1.427 . S
C856 H847 0.923 1_565 S
C856 C854 1.378 . S
C856 C857 1.374 . S
C857 C856 1.374 . S
C857 C859 1.433 . S
C858 C854 1.350 . S
C858 C855 1.463 . S
C858 N862 1.427 . S
C859 H849 0.929 . S
C859 C857 1.433 . S
C859 N862 1.384 . S
C860 H851 0.929 . S
C860 C852 1.378 . S
C860 C855 1.350 . S
C861 H848 0.929 . S
C861 C853 1.433 . S
C861 N863 1.384 . S
N862 C858 1.427 . S
N862 C859 1.384 . S
N863 C855 1.427 . S
N863 C861 1.384 . S
H864 C870 0.930 . S
H865 C874 0.930 . S
H866 C879 0.929 . S
H867 C877 0.929 . S
H868 C872 0.929 . S
H869 C878 0.929 . S
C870 H864 0.930 . S
C870 C871 1.367 . S
C870 C878 1.378 . S
C871 C870 1.367 . S
C871 C879 1.433 . S
C872 H868 0.929 . S
C872 C874 1.378 . S
C872 C876 1.350 . S
C873 C876 1.463 . S
C873 C878 1.350 . S
C873 N881 1.427 . S
C874 H865 0.930 . S
C874 C872 1.378 . S
C874 C875 1.367 . S
C875 C874 1.367 . S
C875 C877 1.433 . S
C876 C872 1.350 . S
C876 C873 1.463 . S
C876 N880 1.427 . S
C877 H867 0.929 . S
C877 C875 1.433 . S
C877 N880 1.384 . S
C878 H869 0.929 . S
C878 C870 1.378 . S
C878 C873 1.350 . S
C879 H866 0.929 . S
C879 C871 1.433 . S
C879 N881 1.384 . S
N880 C876 1.427 . S
N880 C877 1.384 . S
N881 C873 1.427 . S
N881 C879 1.384 . S
H882 C888 0.930 . S
H883 C892 0.930 . S
H884 C897 0.929 . S
H885 C895 0.929 . S
H886 C890 0.929 . S
H887 C896 0.929 . S
C888 H882 0.930 . S
C888 C889 1.367 . S
C888 C896 1.378 . S
C889 C888 1.367 . S
C889 C897 1.433 . S
C890 H886 0.929 . S
C890 C892 1.378 . S
C890 C894 1.350 . S
C891 C894 1.463 . S
C891 C896 1.350 . S
C891 N899 1.427 . S
C892 H883 0.930 . S
C892 C890 1.378 . S
C892 C893 1.367 . S
C893 C892 1.367 . S
C893 C895 1.433 . S
C894 C890 1.350 . S
C894 C891 1.463 . S
C894 N898 1.427 . S
C895 H885 0.929 . S
C895 C893 1.433 . S
C895 N898 1.384 . S
C896 H887 0.929 . S
C896 C888 1.378 . S
C896 C891 1.350 . S
C897 H884 0.929 . S
C897 C889 1.433 . S
C897 N899 1.384 . S
N898 C894 1.427 . S
N898 C895 1.384 . S
N899 C891 1.427 . S
N899 C897 1.384 . S
H900 C906 0.930 1_455 S
H901 C910 0.930 . S
H902 C915 0.929 . S
H903 C913 0.929 . S
H904 C908 0.929 . S
H905 C914 0.929 . S
C906 H900 0.930 1_655 S
C906 C907 1.367 . S
C906 C914 1.378 . S
C907 C906 1.367 . S
C907 C915 1.433 . S
C908 H904 0.929 . S
C908 C910 1.378 . S
C908 C912 1.350 . S
C909 C912 1.463 . S
C909 C914 1.350 . S
C909 N917 1.427 . S
C910 H901 0.930 . S
C910 C908 1.378 . S
C910 C911 1.367 . S
C911 C910 1.367 . S
C911 C913 1.433 . S
C912 C908 1.350 . S
C912 C909 1.463 . S
C912 N916 1.427 . S
C913 H903 0.929 . S
C913 C911 1.433 . S
C913 N916 1.384 . S
C914 H905 0.929 . S
C914 C906 1.378 . S
C914 C909 1.350 . S
C915 H902 0.929 . S
C915 C907 1.433 . S
C915 N917 1.384 . S
N916 C912 1.427 . S
N916 C913 1.384 . S
N917 C909 1.427 . S
N917 C915 1.384 . S
H918 C924 0.930 . S
H919 C928 0.930 . S
H920 C933 0.929 . S
H921 C931 0.929 . S
H922 C926 0.929 . S
H923 C932 0.929 . S
C924 H918 0.930 . S
C924 C925 1.367 . S
C924 C932 1.378 . S
C925 C924 1.367 . S
C925 C933 1.433 . S
C926 H922 0.929 . S
C926 C928 1.378 . S
C926 C930 1.350 . S
C927 C930 1.463 . S
C927 C932 1.350 . S
C927 N935 1.427 . S
C928 H919 0.930 . S
C928 C926 1.378 . S
C928 C929 1.367 . S
C929 C928 1.367 . S
C929 C931 1.433 . S
C930 C926 1.350 . S
C930 C927 1.463 . S
C930 N934 1.427 . S
C931 H921 0.929 . S
C931 C929 1.433 . S
C931 N934 1.384 . S
C932 H923 0.929 . S
C932 C924 1.378 . S
C932 C927 1.350 . S
C933 H920 0.929 . S
C933 C925 1.433 . S
C933 N935 1.384 . S
N934 C930 1.427 . S
N934 C931 1.384 . S
N935 C927 1.427 . S
N935 C933 1.384 . S
H936 C942 0.930 . S
H937 C946 0.930 . S
H938 C951 0.929 . S
H939 C949 0.929 . S
H940 C944 0.929 . S
H941 C950 0.929 . S
C942 H936 0.930 . S
C942 C943 1.367 . S
C942 C950 1.378 . S
C943 C942 1.367 . S
C943 C951 1.433 . S
C944 H940 0.929 . S
C944 C946 1.378 . S
C944 C948 1.350 . S
C945 C948 1.463 . S
C945 C950 1.350 . S
C945 N953 1.427 . S
C946 H937 0.930 . S
C946 C944 1.378 . S
C946 C947 1.367 . S
C947 C946 1.367 . S
C947 C949 1.433 . S
C948 C944 1.350 . S
C948 C945 1.463 . S
C948 N952 1.427 . S
C949 H939 0.929 . S
C949 C947 1.433 . S
C949 N952 1.384 . S
C950 H941 0.929 . S
C950 C942 1.378 . S
C950 C945 1.350 . S
C951 H938 0.929 . S
C951 C943 1.433 . S
C951 N953 1.384 . S
N952 C948 1.427 . S
N952 C949 1.384 . S
N953 C945 1.427 . S
N953 C951 1.384 . S
H954 C960 0.930 . S
H955 C964 0.930 . S
H956 C969 0.929 . S
H957 C967 0.929 . S
H958 C962 0.929 . S
H959 C968 0.929 . S
C960 H954 0.930 . S
C960 C961 1.367 . S
C960 C968 1.378 . S
C961 C960 1.367 . S
C961 C969 1.433 . S
C962 H958 0.929 . S
C962 C964 1.378 . S
C962 C966 1.350 . S
C963 C966 1.463 1_655 S
C963 C968 1.350 . S
C963 N971 1.427 . S
C964 H955 0.930 . S
C964 C962 1.378 . S
C964 C965 1.367 . S
C965 C964 1.367 . S
C965 C967 1.433 . S
C966 C962 1.350 . S
C966 C963 1.463 1_455 S
C966 N970 1.427 . S
C967 H957 0.929 . S
C967 C965 1.433 . S
C967 N970 1.384 . S
C968 H959 0.929 . S
C968 C960 1.378 . S
C968 C963 1.350 . S
C969 H956 0.929 . S
C969 C961 1.433 . S
C969 N971 1.384 . S
N970 C966 1.427 . S
N970 C967 1.384 . S
N971 C963 1.427 . S
N971 C969 1.384 . S
H972 C978 0.930 . S
H973 C982 0.930 . S
H974 C987 0.929 . S
H975 C985 0.929 . S
H976 C980 0.929 . S
H977 C986 0.929 . S
C978 H972 0.930 . S
C978 C979 1.367 . S
C978 C986 1.378 . S
C979 C978 1.367 . S
C979 C987 1.433 . S
C980 H976 0.929 . S
C980 C982 1.378 . S
C980 C984 1.350 . S
C981 C984 1.463 . S
C981 C986 1.350 . S
C981 N989 1.427 . S
C982 H973 0.930 . S
C982 C980 1.378 . S
C982 C983 1.367 . S
C983 C982 1.367 . S
C983 C985 1.433 . S
C984 C980 1.350 . S
C984 C981 1.463 . S
C984 N988 1.427 . S
C985 H975 0.929 . S
C985 C983 1.433 . S
C985 N988 1.384 . S
C986 H977 0.929 . S
C986 C978 1.378 . S
C986 C981 1.350 . S
C987 H974 0.929 . S
C987 C979 1.433 . S
C987 N989 1.384 . S
N988 C984 1.427 . S
N988 C985 1.384 . S
N989 C981 1.427 . S
N989 C987 1.384 . S
H990 C996 0.930 . S
H991 C1000 0.930 . S
H992 C1005 0.929 . S
H993 C1003 0.929 . S
H994 C998 0.929 . S
H995 C1004 0.929 . S
C996 H990 0.930 . S
C996 C997 1.367 . S
C996 C1004 1.378 . S
C997 C996 1.367 . S
C997 C1005 1.433 . S
C998 H994 0.929 . S
C998 C1000 1.378 . S
C998 C1002 1.350 . S
C999 C1002 1.463 1_565 S
C999 C1004 1.350 . S
C999 N1007 1.427 1_565 S
C1000 H991 0.930 . S
C1000 C998 1.378 . S
C1000 C1001 1.367 . S
C1001 C1000 1.367 . S
C1001 C1003 1.433 . S
C1002 C998 1.350 . S
C1002 C999 1.463 1_545 S
C1002 N1006 1.427 . S
C1003 H993 0.929 . S
C1003 C1001 1.433 . S
C1003 N1006 1.384 . S
C1004 H995 0.929 . S
C1004 C996 1.378 . S
C1004 C999 1.350 . S
C1005 H992 0.929 . S
C1005 C997 1.433 . S
C1005 N1007 1.384 1_565 S
N1006 C1002 1.427 . S
N1006 C1003 1.384 . S
N1007 C999 1.427 1_545 S
N1007 C1005 1.384 1_545 S
H1008 C1014 0.930 . S
H1009 C1018 0.930 . S
H1010 C1023 0.929 . S
H1011 C1021 0.929 . S
H1012 C1016 0.929 . S
H1013 C1022 0.929 . S
C1014 H1008 0.930 . S
C1014 C1015 1.367 . S
C1014 C1022 1.378 . S
C1015 C1014 1.367 . S
C1015 C1023 1.433 . S
C1016 H1012 0.929 . S
C1016 C1018 1.378 . S
C1016 C1020 1.350 . S
C1017 C1020 1.463 . S
C1017 C1022 1.350 . S
C1017 N1025 1.427 . S
C1018 H1009 0.930 . S
C1018 C1016 1.378 . S
C1018 C1019 1.367 . S
C1019 C1018 1.367 . S
C1019 C1021 1.433 . S
C1020 C1016 1.350 . S
C1020 C1017 1.463 . S
C1020 N1024 1.427 . S
C1021 H1011 0.929 . S
C1021 C1019 1.433 . S
C1021 N1024 1.384 . S
C1022 H1013 0.929 . S
C1022 C1014 1.378 . S
C1022 C1017 1.350 . S
C1023 H1010 0.929 . S
C1023 C1015 1.433 . S
C1023 N1025 1.384 . S
N1024 C1020 1.427 . S
N1024 C1021 1.384 . S
N1025 C1017 1.427 . S
N1025 C1023 1.384 . S
H1026 C1032 0.930 . S
H1027 C1036 0.930 . S
H1028 C1041 0.929 . S
H1029 C1039 0.929 . S
H1030 C1034 0.929 . S
H1031 C1040 0.929 . S
C1032 H1026 0.930 . S
C1032 C1033 1.367 . S
C1032 C1040 1.378 . S
C1033 C1032 1.367 . S
C1033 C1041 1.433 . S
C1034 H1030 0.929 . S
C1034 C1036 1.378 . S
C1034 C1038 1.350 . S
C1035 C1038 1.463 . S
C1035 C1040 1.350 . S
C1035 N1043 1.427 . S
C1036 H1027 0.930 . S
C1036 C1034 1.378 . S
C1036 C1037 1.367 . S
C1037 C1036 1.367 . S
C1037 C1039 1.433 . S
C1038 C1034 1.350 . S
C1038 C1035 1.463 . S
C1038 N1042 1.427 . S
C1039 H1029 0.929 . S
C1039 C1037 1.433 . S
C1039 N1042 1.384 . S
C1040 H1031 0.929 . S
C1040 C1032 1.378 . S
C1040 C1035 1.350 . S
C1041 H1028 0.929 . S
C1041 C1033 1.433 . S
C1041 N1043 1.384 . S
N1042 C1038 1.427 . S
N1042 C1039 1.384 . S
N1043 C1035 1.427 . S
N1043 C1041 1.384 . S
H1044 C1050 0.930 . S
H1045 C1054 0.930 . S
H1046 C1059 0.929 . S
H1047 C1057 0.929 . S
H1048 C1052 0.929 . S
H1049 C1058 0.929 . S
C1050 H1044 0.930 . S
C1050 C1051 1.367 . S
C1050 C1058 1.378 . S
C1051 C1050 1.367 . S
C1051 C1059 1.433 . S
C1052 H1048 0.929 . S
C1052 C1054 1.378 . S
C1052 C1056 1.350 . S
C1053 C1056 1.463 . S
C1053 C1058 1.350 . S
C1053 N1061 1.427 . S
C1054 H1045 0.930 . S
C1054 C1052 1.378 . S
C1054 C1055 1.367 . S
C1055 C1054 1.367 . S
C1055 C1057 1.433 . S
C1056 C1052 1.350 . S
C1056 C1053 1.463 . S
C1056 N1060 1.427 . S
C1057 H1047 0.929 . S
C1057 C1055 1.433 . S
C1057 N1060 1.384 . S
C1058 H1049 0.929 . S
C1058 C1050 1.378 . S
C1058 C1053 1.350 . S
C1059 H1046 0.929 . S
C1059 C1051 1.433 . S
C1059 N1061 1.384 . S
N1060 C1056 1.427 . S
N1060 C1057 1.384 . S
N1061 C1053 1.427 . S
N1061 C1059 1.384 . S
H1062 C1068 0.930 . S
H1063 C1072 0.930 . S
H1064 C1077 0.929 . S
H1065 C1075 0.929 . S
H1066 C1070 0.929 . S
H1067 C1076 0.929 . S
C1068 H1062 0.930 . S
C1068 C1069 1.367 . S
C1068 C1076 1.378 . S
C1069 C1068 1.367 . S
C1069 C1077 1.433 . S
C1070 H1066 0.929 . S
C1070 C1072 1.378 . S
C1070 C1074 1.350 . S
C1071 C1074 1.463 . S
C1071 C1076 1.350 . S
C1071 N1079 1.427 . S
C1072 H1063 0.930 . S
C1072 C1070 1.378 . S
C1072 C1073 1.367 . S
C1073 C1072 1.367 . S
C1073 C1075 1.433 . S
C1074 C1070 1.350 . S
C1074 C1071 1.463 . S
C1074 N1078 1.427 . S
C1075 H1065 0.929 . S
C1075 C1073 1.433 . S
C1075 N1078 1.384 . S
C1076 H1067 0.929 . S
C1076 C1068 1.378 . S
C1076 C1071 1.350 . S
C1077 H1064 0.929 . S
C1077 C1069 1.433 . S
C1077 N1079 1.384 . S
N1078 C1074 1.427 . S
N1078 C1075 1.384 . S
N1079 C1071 1.427 . S
N1079 C1077 1.384 . S
H1080 C1086 0.930 . S
H1081 C1090 0.930 . S
H1082 C1095 0.929 . S
H1083 C1093 0.929 . S
H1084 C1088 0.929 . S
H1085 C1094 0.929 . S
C1086 H1080 0.930 . S
C1086 C1087 1.367 . S
C1086 C1094 1.378 . S
C1087 C1086 1.367 . S
C1087 C1095 1.433 . S
C1088 H1084 0.929 . S
C1088 C1090 1.378 . S
C1088 C1092 1.350 . S
C1089 C1092 1.463 . S
C1089 C1094 1.350 . S
C1089 N1097 1.427 . S
C1090 H1081 0.930 . S
C1090 C1088 1.378 . S
C1090 C1091 1.367 . S
C1091 C1090 1.367 . S
C1091 C1093 1.433 . S
C1092 C1088 1.350 . S
C1092 C1089 1.463 . S
C1092 N1096 1.427 . S
C1093 H1083 0.929 . S
C1093 C1091 1.433 . S
C1093 N1096 1.384 . S
C1094 H1085 0.929 . S
C1094 C1086 1.378 . S
C1094 C1089 1.350 . S
C1095 H1082 0.929 . S
C1095 C1087 1.433 . S
C1095 N1097 1.384 . S
N1096 C1092 1.427 . S
N1096 C1093 1.384 . S
N1097 C1089 1.427 . S
N1097 C1095 1.384 . S
H1098 C1104 0.930 . S
H1099 C1108 0.930 . S
H1100 C1113 0.929 . S
H1101 C1111 0.929 . S
H1102 C1106 0.929 . S
H1103 C1112 0.929 . S
C1104 H1098 0.930 . S
C1104 C1105 1.367 . S
C1104 C1112 1.378 . S
C1105 C1104 1.367 . S
C1105 C1113 1.433 . S
C1106 H1102 0.929 . S
C1106 C1108 1.378 . S
C1106 C1110 1.350 . S
C1107 C1110 1.463 . S
C1107 C1112 1.350 . S
C1107 N1115 1.427 . S
C1108 H1099 0.930 . S
C1108 C1106 1.378 . S
C1108 C1109 1.367 . S
C1109 C1108 1.367 . S
C1109 C1111 1.433 . S
C1110 C1106 1.350 . S
C1110 C1107 1.463 . S
C1110 N1114 1.427 . S
C1111 H1101 0.929 . S
C1111 C1109 1.433 . S
C1111 N1114 1.384 . S
C1112 H1103 0.929 . S
C1112 C1104 1.378 . S
C1112 C1107 1.350 . S
C1113 H1100 0.929 . S
C1113 C1105 1.433 . S
C1113 N1115 1.384 . S
N1114 C1110 1.427 . S
N1114 C1111 1.384 . S
N1115 C1107 1.427 . S
N1115 C1113 1.384 . S
H1116 C1122 0.930 . S
H1117 C1126 0.930 . S
H1118 C1131 0.929 . S
H1119 C1129 0.929 . S
H1120 C1124 0.929 . S
H1121 C1130 0.929 . S
C1122 H1116 0.930 . S
C1122 C1123 1.367 . S
C1122 C1130 1.378 . S
C1123 C1122 1.367 . S
C1123 C1131 1.433 . S
C1124 H1120 0.929 . S
C1124 C1126 1.378 . S
C1124 C1128 1.350 . S
C1125 C1128 1.463 . S
C1125 C1130 1.350 . S
C1125 N1133 1.427 . S
C1126 H1117 0.930 . S
C1126 C1124 1.378 . S
C1126 C1127 1.367 . S
C1127 C1126 1.367 . S
C1127 C1129 1.433 . S
C1128 C1124 1.350 . S
C1128 C1125 1.463 . S
C1128 N1132 1.427 . S
C1129 H1119 0.929 . S
C1129 C1127 1.433 . S
C1129 N1132 1.384 . S
C1130 H1121 0.929 . S
C1130 C1122 1.378 . S
C1130 C1125 1.350 . S
C1131 H1118 0.929 . S
C1131 C1123 1.433 . S
C1131 N1133 1.384 . S
N1132 C1128 1.427 . S
N1132 C1129 1.384 . S
N1133 C1125 1.427 . S
N1133 C1131 1.384 . S
H1134 C1140 0.930 . S
H1135 C1144 0.930 . S
H1136 C1149 0.929 . S
H1137 C1147 0.929 . S
H1138 C1142 0.929 . S
H1139 C1148 0.929 . S
C1140 H1134 0.930 . S
C1140 C1141 1.367 . S
C1140 C1148 1.378 . S
C1141 C1140 1.367 . S
C1141 C1149 1.433 . S
C1142 H1138 0.929 . S
C1142 C1144 1.378 . S
C1142 C1146 1.350 . S
C1143 C1146 1.463 . S
C1143 C1148 1.350 . S
C1143 N1151 1.427 . S
C1144 H1135 0.930 . S
C1144 C1142 1.378 . S
C1144 C1145 1.367 . S
C1145 C1144 1.367 . S
C1145 C1147 1.433 . S
C1146 C1142 1.350 . S
C1146 C1143 1.463 . S
C1146 N1150 1.427 . S
C1147 H1137 0.929 . S
C1147 C1145 1.433 . S
C1147 N1150 1.384 . S
C1148 H1139 0.929 . S
C1148 C1140 1.378 . S
C1148 C1143 1.350 . S
C1149 H1136 0.929 . S
C1149 C1141 1.433 . S
C1149 N1151 1.384 . S
N1150 C1146 1.427 . S
N1150 C1147 1.384 . S
N1151 C1143 1.427 . S
N1151 C1149 1.384 . S
H1152 C1158 0.930 . S
H1153 C1162 0.930 . S
H1154 C1167 0.929 . S
H1155 C1165 0.929 . S
H1156 C1160 0.929 . S
H1157 C1166 0.929 . S
C1158 H1152 0.930 . S
C1158 C1159 1.367 . S
C1158 C1166 1.378 . S
C1159 C1158 1.367 . S
C1159 C1167 1.433 . S
C1160 H1156 0.929 . S
C1160 C1162 1.378 . S
C1160 C1164 1.350 . S
C1161 C1164 1.463 . S
C1161 C1166 1.350 . S
C1161 N1169 1.427 . S
C1162 H1153 0.930 . S
C1162 C1160 1.378 . S
C1162 C1163 1.367 . S
C1163 C1162 1.367 . S
C1163 C1165 1.433 . S
C1164 C1160 1.350 . S
C1164 C1161 1.463 . S
C1164 N1168 1.427 . S
C1165 H1155 0.929 . S
C1165 C1163 1.433 . S
C1165 N1168 1.384 . S
C1166 H1157 0.929 . S
C1166 C1158 1.378 . S
C1166 C1161 1.350 . S
C1167 H1154 0.929 . S
C1167 C1159 1.433 . S
C1167 N1169 1.384 . S
N1168 C1164 1.427 . S
N1168 C1165 1.384 . S
N1169 C1161 1.427 . S
N1169 C1167 1.384 . S
H1170 C1176 0.930 . S
H1171 C1180 0.930 . S
H1172 C1185 0.929 . S
H1173 C1183 0.929 . S
H1174 C1178 0.929 . S
H1175 C1184 0.929 . S
C1176 H1170 0.930 . S
C1176 C1177 1.367 . S
C1176 C1184 1.378 . S
C1177 C1176 1.367 . S
C1177 C1185 1.433 . S
C1178 H1174 0.929 . S
C1178 C1180 1.378 1_655 S
C1178 C1182 1.350 . S
C1179 C1182 1.463 . S
C1179 C1184 1.350 . S
C1179 N1187 1.427 . S
C1180 H1171 0.930 . S
C1180 C1178 1.378 1_455 S
C1180 C1181 1.367 . S
C1181 C1180 1.367 . S
C1181 C1183 1.433 . S
C1182 C1178 1.350 . S
C1182 C1179 1.463 . S
C1182 N1186 1.427 . S
C1183 H1173 0.929 . S
C1183 C1181 1.433 . S
C1183 N1186 1.384 1_455 S
C1184 H1175 0.929 . S
C1184 C1176 1.378 . S
C1184 C1179 1.350 . S
C1185 H1172 0.929 . S
C1185 C1177 1.433 . S
C1185 N1187 1.384 . S
N1186 C1182 1.427 . S
N1186 C1183 1.384 1_655 S
N1187 C1179 1.427 . S
N1187 C1185 1.384 . S
H1188 C1194 0.930 1_565 S
H1189 C1198 0.930 . S
H1190 C1203 0.929 . S
H1191 C1201 0.929 . S
H1192 C1196 0.929 . S
H1193 C1202 0.929 . S
C1194 H1188 0.930 1_545 S
C1194 C1195 1.367 . S
C1194 C1202 1.378 . S
C1195 C1194 1.367 . S
C1195 C1203 1.433 . S
C1196 H1192 0.929 . S
C1196 C1198 1.378 . S
C1196 C1200 1.350 . S
C1197 C1200 1.463 . S
C1197 C1202 1.350 . S
C1197 N1205 1.427 . S
C1198 H1189 0.930 . S
C1198 C1196 1.378 . S
C1198 C1199 1.367 . S
C1199 C1198 1.367 . S
C1199 C1201 1.433 . S
C1200 C1196 1.350 . S
C1200 C1197 1.463 . S
C1200 N1204 1.427 . S
C1201 H1191 0.929 . S
C1201 C1199 1.433 . S
C1201 N1204 1.384 . S
C1202 H1193 0.929 . S
C1202 C1194 1.378 . S
C1202 C1197 1.350 . S
C1203 H1190 0.929 . S
C1203 C1195 1.433 . S
C1203 N1205 1.384 . S
N1204 C1200 1.427 . S
N1204 C1201 1.384 . S
N1205 C1197 1.427 . S
N1205 C1203 1.384 . S
H1206 C1212 0.930 . S
H1207 C1216 0.930 . S
H1208 C1221 0.909 1_565 S
H1209 C1219 0.929 . S
H1210 C1214 0.929 . S
H1211 C1220 0.929 . S
C1212 H1206 0.930 . S
C1212 C1213 1.367 1_545 S
C1212 C1220 1.378 . S
C1213 C1212 1.367 1_565 S
C1213 C1221 1.441 1_565 S
C1214 H1210 0.929 . S
C1214 C1216 1.378 1_655 S
C1214 C1218 1.350 . S
C1215 C1218 1.463 . S
C1215 C1220 1.350 . S
C1215 N1223 1.427 . S
C1216 H1207 0.930 . S
C1216 C1214 1.378 1_455 S
C1216 C1217 1.367 . S
C1217 C1216 1.367 . S
C1217 C1219 1.433 1_455 S
C1218 C1214 1.350 . S
C1218 C1215 1.463 . S
C1218 N1222 1.427 . S
C1219 H1209 0.929 . S
C1219 C1217 1.433 1_655 S
C1219 N1222 1.384 . S
C1220 H1211 0.929 . S
C1220 C1212 1.378 . S
C1220 C1215 1.350 . S
C1221 H1208 0.909 1_545 S
C1221 C1213 1.441 1_545 S
C1221 N1223 1.397 . S
N1222 C1218 1.427 . S
N1222 C1219 1.384 . S
N1223 C1215 1.427 . S
N1223 C1221 1.397 . S
H1224 C1230 0.930 . S
H1225 C1234 0.930 . S
H1226 C1239 0.929 . S
H1227 C1237 0.929 . S
H1228 C1232 0.929 . S
H1229 C1238 0.929 . S
C1230 H1224 0.930 . S
C1230 C1231 1.367 . S
C1230 C1238 1.378 . S
C1231 C1230 1.367 . S
C1231 C1239 1.433 . S
C1232 H1228 0.929 . S
C1232 C1234 1.378 1_565 S
C1232 C1236 1.350 . S
C1233 C1236 1.463 . S
C1233 C1238 1.350 . S
C1233 N1241 1.427 . S
C1234 H1225 0.930 . S
C1234 C1232 1.378 1_545 S
C1234 C1235 1.367 . S
C1235 C1234 1.367 . S
C1235 C1237 1.433 . S
C1236 C1232 1.350 . S
C1236 C1233 1.463 . S
C1236 N1240 1.427 . S
C1237 H1227 0.929 . S
C1237 C1235 1.433 . S
C1237 N1240 1.384 1_545 S
C1238 H1229 0.929 . S
C1238 C1230 1.378 . S
C1238 C1233 1.350 . S
C1239 H1226 0.929 . S
C1239 C1231 1.433 . S
C1239 N1241 1.384 . S
N1240 C1236 1.427 . S
N1240 C1237 1.384 1_565 S
N1241 C1233 1.427 . S
N1241 C1239 1.384 . S
H1242 C1248 0.930 . S
H1243 C1252 0.930 . S
H1244 C1257 0.929 . S
H1245 C1255 0.929 1_655 S
H1246 C1250 0.929 . S
H1247 C1256 0.929 . S
C1248 H1242 0.930 . S
C1248 C1249 1.367 . S
C1248 C1256 1.378 1_545 S
C1249 C1248 1.367 . S
C1249 C1257 1.433 1_545 S
C1250 H1246 0.929 . S
C1250 C1252 1.378 . S
C1250 C1254 1.350 . S
C1251 C1254 1.463 . S
C1251 C1256 1.350 . S
C1251 N1259 1.427 . S
C1252 H1243 0.930 . S
C1252 C1250 1.378 . S
C1252 C1253 1.367 1_455 S
C1253 C1252 1.367 1_655 S
C1253 C1255 1.433 1_655 S
C1254 C1250 1.350 . S
C1254 C1251 1.463 . S
C1254 N1258 1.427 . S
C1255 H1245 0.929 1_455 S
C1255 C1253 1.433 1_455 S
C1255 N1258 1.384 . S
C1256 H1247 0.929 . S
C1256 C1248 1.378 1_565 S
C1256 C1251 1.350 . S
C1257 H1244 0.929 . S
C1257 C1249 1.433 1_565 S
C1257 N1259 1.384 . S
N1258 C1254 1.427 . S
N1258 C1255 1.384 . S
N1259 C1251 1.427 . S
N1259 C1257 1.384 . S
H1260 C1266 0.930 . S
H1261 C1270 0.930 . S
H1262 C1275 0.929 . S
H1263 C1273 0.929 . S
H1264 C1268 0.929 . S
H1265 C1274 0.929 . S
C1266 H1260 0.930 . S
C1266 C1267 1.367 . S
C1266 C1274 1.378 . S
C1267 C1266 1.367 . S
C1267 C1275 1.433 . S
C1268 H1264 0.929 . S
C1268 C1270 1.378 . S
C1268 C1272 1.350 . S
C1269 C1272 1.463 . S
C1269 C1274 1.350 . S
C1269 N1277 1.427 . S
C1270 H1261 0.930 . S
C1270 C1268 1.378 . S
C1270 C1271 1.367 . S
C1271 C1270 1.367 . S
C1271 C1273 1.433 . S
C1272 C1268 1.350 . S
C1272 C1269 1.463 . S
C1272 N1276 1.427 . S
C1273 H1263 0.929 . S
C1273 C1271 1.433 . S
C1273 N1276 1.384 . S
C1274 H1265 0.929 . S
C1274 C1266 1.378 . S
C1274 C1269 1.350 . S
C1275 H1262 0.929 . S
C1275 C1267 1.433 . S
C1275 N1277 1.384 . S
N1276 C1272 1.427 . S
N1276 C1273 1.384 . S
N1277 C1269 1.427 . S
N1277 C1275 1.384 . S
H1278 C1284 0.930 . S
H1279 C1288 0.930 . S
H1280 C1293 0.929 . S
H1281 C1291 0.929 . S
H1282 C1286 0.929 . S
H1283 C1292 0.929 . S
C1284 H1278 0.930 . S
C1284 C1285 1.367 . S
C1284 C1292 1.378 . S
C1285 C1284 1.367 . S
C1285 C1293 1.433 . S
C1286 H1282 0.929 . S
C1286 C1288 1.378 . S
C1286 C1290 1.350 . S
C1287 C1290 1.463 . S
C1287 C1292 1.350 . S
C1287 N1295 1.427 . S
C1288 H1279 0.930 . S
C1288 C1286 1.378 . S
C1288 C1289 1.367 . S
C1289 C1288 1.367 . S
C1289 C1291 1.433 . S
C1290 C1286 1.350 . S
C1290 C1287 1.463 . S
C1290 N1294 1.427 . S
C1291 H1281 0.929 . S
C1291 C1289 1.433 . S
C1291 N1294 1.384 . S
C1292 H1283 0.929 . S
C1292 C1284 1.378 . S
C1292 C1287 1.350 . S
C1293 H1280 0.929 . S
C1293 C1285 1.433 . S
C1293 N1295 1.384 . S
N1294 C1290 1.427 . S
N1294 C1291 1.384 . S
N1295 C1287 1.427 . S
N1295 C1293 1.384 . S
H1296 C1302 0.930 . S
H1297 C1306 0.930 . S
H1298 C1311 0.929 . S
H1299 C1309 0.929 . S
H1300 C1304 0.929 . S
H1301 C1310 0.929 . S
C1302 H1296 0.930 . S
C1302 C1303 1.367 . S
C1302 C1310 1.378 . S
C1303 C1302 1.367 . S
C1303 C1311 1.433 . S
C1304 H1300 0.929 . S
C1304 C1306 1.378 . S
C1304 C1308 1.350 . S
C1305 C1308 1.463 . S
C1305 C1310 1.350 . S
C1305 N1313 1.427 . S
C1306 H1297 0.930 . S
C1306 C1304 1.378 . S
C1306 C1307 1.367 . S
C1307 C1306 1.367 . S
C1307 C1309 1.433 . S
C1308 C1304 1.350 . S
C1308 C1305 1.463 . S
C1308 N1312 1.427 . S
C1309 H1299 0.929 . S
C1309 C1307 1.433 . S
C1309 N1312 1.384 . S
C1310 H1301 0.929 . S
C1310 C1302 1.378 . S
C1310 C1305 1.350 . S
C1311 H1298 0.929 . S
C1311 C1303 1.433 . S
C1311 N1313 1.384 . S
N1312 C1308 1.427 . S
N1312 C1309 1.384 . S
N1313 C1305 1.427 . S
N1313 C1311 1.384 . S
H1314 C1320 0.930 . S
H1315 C1324 0.930 . S
H1316 C1329 0.929 . S
H1317 C1327 0.929 . S
H1318 C1322 0.929 . S
H1319 C1328 0.929 . S
C1320 H1314 0.930 . S
C1320 C1321 1.367 . S
C1320 C1328 1.378 . S
C1321 C1320 1.367 . S
C1321 C1329 1.433 . S
C1322 H1318 0.929 . S
C1322 C1324 1.378 . S
C1322 C1326 1.350 . S
C1323 C1326 1.463 . S
C1323 C1328 1.350 . S
C1323 N1331 1.427 . S
C1324 H1315 0.930 . S
C1324 C1322 1.378 . S
C1324 C1325 1.367 . S
C1325 C1324 1.367 . S
C1325 C1327 1.433 . S
C1326 C1322 1.350 . S
C1326 C1323 1.463 . S
C1326 N1330 1.427 . S
C1327 H1317 0.929 . S
C1327 C1325 1.433 . S
C1327 N1330 1.384 . S
C1328 H1319 0.929 . S
C1328 C1320 1.378 . S
C1328 C1323 1.350 . S
C1329 H1316 0.929 . S
C1329 C1321 1.433 . S
C1329 N1331 1.384 . S
N1330 C1326 1.427 . S
N1330 C1327 1.384 . S
N1331 C1323 1.427 . S
N1331 C1329 1.384 . S
C367 C2 1.017 . S
C371 C49 0.988 . S
C385 C9 0.999 . S
C389 C22 1.027 . S
C403 C29 1.009 . S
C407 C42 1.007 . S
C421 C62 1.016 . S
C425 C89 0.989 . S
C439 C109 0.990 . S
C443 C82 1.029 . S
C457 C102 1.015 . S
C461 C69 0.990 . S
C475 C169 1.013 . S
C479 C122 1.014 . S
C493 C129 0.985 1_655 S
C497 C142 1.024 . S
C511 C162 1.017 . S
C515 C149 0.988 . S
C529 C209 0.986 . S
C533 C182 1.020 . S
C547 C202 1.016 . S
C551 C229 1.012 . S
C565 C189 0.996 . S
C569 C222 1.028 . S
C583 C242 1.019 . S
C587 C289 0.987 . S
C601 C249 1.007 . S
C605 C262 1.021 . S
C619 C269 0.994 . S
C623 C282 1.011 . S
C637 C329 1.007 . S
C641 C302 1.022 . S
C655 C349 1.011 . S
C659 C322 1.007 . S
C673 C309 0.999 1_565 S
C677 C342 1.008 . S
C691 C19 1.727 . S
C695 C119 1.727 . S
C709 C79 1.732 . S
C713 C39 1.733 . S
C727 C99 1.728 . S
C731 C59 1.727 . S
C745 C139 1.736 . S
C749 C239 1.736 . S
C763 C159 1.736 . S
C767 C199 1.736 . S
C781 C219 1.731 . S
C785 C179 1.731 . S
C799 C259 1.737 . S
C803 C359 1.737 . S
C817 C319 1.732 . S
C821 C279 1.731 . S
C835 C339 1.727 . S
C839 C299 1.727 . S
C853 C218 1.937 . S
C857 C18 1.933 1_565 S
C871 C38 1.924 . S
C875 C238 1.924 . S
C889 C198 1.935 . S
C893 C58 1.936 . S
C907 C78 1.935 1_655 S
C911 C298 1.936 . S
C925 C98 1.935 . S
C929 C258 1.936 . S
C943 C278 1.936 . S
C947 C118 1.936 . S
C961 C338 1.933 . S
C965 C138 1.926 . S
C979 C158 1.923 . S
C983 C358 1.925 . S
C997 C178 1.932 . S
C1001 C318 1.937 . S
C1015 C52 1.485 . S
C1019 C4 1.380 . S
C1033 C12 1.484 . S
C1037 C24 1.378 . S
C1051 C44 1.370 . S
C1055 C32 1.493 . S
C1069 C92 1.493 . S
C1073 C64 1.372 . S
C1087 C112 1.492 . S
C1091 C84 1.374 . S
C1105 C104 1.378 . S
C1109 C72 1.489 . S
C1123 C172 1.494 . S
C1127 C124 1.368 . S
C1141 C144 1.377 . S
C1145 C132 1.483 . S
C1159 C152 1.484 . S
C1163 C164 1.365 . S
C1177 C184 1.369 . S
C1181 C212 1.494 . S
C1195 C204 1.356 1_545 S
C1199 C232 1.490 . S
C1213 C192 1.494 . S
C1217 C224 1.357 . S
C1231 C244 1.358 . S
C1235 C292 1.488 . S
C1249 C264 1.358 . S
C1253 C252 1.487 . S
C1267 C272 1.492 . S
C1271 C284 1.374 1_455 S
C1285 C304 1.375 . S
C1289 C332 1.491 . S
C1303 C324 1.365 . S
C1307 C352 1.494 . S
C1321 C312 1.494 . S
C1325 C344 1.359 . S
