# Generated by pormake.
# Topology rob, (6)-cn, num edge types: 1
# Building blocks:
#     Node 0, Type 0, BuildingBlock: KUMBOL_clean_sbu_1, # of connection points: 6
#     Node 1, Type 0, BuildingBlock: KUMBOL_clean_sbu_1, # of connection points: 6
#     Node 2, Type 0, BuildingBlock: KUMBOL_clean_sbu_1, # of connection points: 6
#     Node 3, Type 0, BuildingBlock: KUMBOL_clean_sbu_1, # of connection points: 6
#     Edge 4, Type (0, 0), BuildingBlock: OJICUG_clean_linker_0, # of connection points: 2
#     Edge 5, Type (0, 0), BuildingBlock: OJICUG_clean_linker_0, # of connection points: 2
#     Edge 6, Type (0, 0), BuildingBlock: OJICUG_clean_linker_0, # of connection points: 2
#     Edge 7, Type (0, 0), BuildingBlock: OJICUG_clean_linker_0, # of connection points: 2
#     Edge 8, Type (0, 0), BuildingBlock: OJICUG_clean_linker_0, # of connection points: 2
#     Edge 9, Type (0, 0), BuildingBlock: OJICUG_clean_linker_0, # of connection points: 2
#     Edge 10, Type (0, 0), BuildingBlock: OJICUG_clean_linker_0, # of connection points: 2
#     Edge 11, Type (0, 0), BuildingBlock: OJICUG_clean_linker_0, # of connection points: 2
#     Edge 12, Type (0, 0), BuildingBlock: OJICUG_clean_linker_0, # of connection points: 2
#     Edge 13, Type (0, 0), BuildingBlock: OJICUG_clean_linker_0, # of connection points: 2
#     Edge 14, Type (0, 0), BuildingBlock: OJICUG_clean_linker_0, # of connection points: 2
#     Edge 15, Type (0, 0), BuildingBlock: OJICUG_clean_linker_0, # of connection points: 2
# Relax obj value: 0.026
# Max RMSD: 0.137
# Mean RMSD: 0.137
data_MOF--net-rob--node1-KUMBOL_clean_sbu_1--edge1-OJICUG_clean_linker_0
_symmetry_space_group_name_H-M    P1
_symmetry_Int_Tables_number       1
_symmetry_cell_setting            triclinic
loop_
_symmetry_equiv_pos_as_xyz
'x, y, z'
_cell_length_a     14.653142
_cell_length_b     17.712342
_cell_length_c     26.847169
_cell_angle_alpha  110.49158
_cell_angle_beta   89.632149
_cell_angle_gamma 90.080588
loop_
_atom_site_label
_atom_site_type_symbol
_atom_site_fract_x
_atom_site_fract_y
_atom_site_fract_z
_atom_type_partial_charge
C0 C 0.09078 0.44153 0.09521 0.0
C1 C 0.9363 0.40454 0.06338 0.0
C2 C 0.02462 0.38258 0.07324 0.0
C3 C 0.92012 0.48441 0.06842 0.0
C4 C 0.07331 0.52182 0.10231 0.0
C5 C 0.99137 0.54065 0.08435 0.0
N6 N 0.17388 0.41986 0.10672 0.0
C7 C 0.23913 0.47588 0.13063 0.0
C8 C 0.14127 0.57993 0.12332 0.0
C9 C 0.22393 0.55707 0.13905 0.0
Gd10 Gd 0.32431 0.13654 0.96062 0.0
Gd11 Gd 0.19563 0.28293 0.08009 0.0
N12 N 0.04806 0.30402 0.05855 0.0
C13 C 0.87061 0.34425 0.04293 0.0
C14 C 0.9851 0.2444 0.03878 0.0
C15 C 0.89515 0.26363 0.03087 0.0
H16 H 1.00357 0.18221 0.02925 0.0
H17 H 0.8454 0.21629 1.01464 0.0
H18 H 0.5161 0.23736 1.01178 0.0
H19 H 0.30259 0.45795 0.14343 0.0
H20 H 0.67428 0.20338 0.02649 0.0
H21 H 0.80195 0.35909 0.03468 0.0
H22 H 0.85568 0.50094 0.0557 0.0
H23 H 0.21747 -0.03851 0.89724 0.0
H24 H 0.13018 0.64254 0.12809 0.0
H25 H 0.27609 0.60149 0.15686 0.0
H26 H 0.66439 0.91862 0.98501 0.0
H27 H 0.98816 0.59707 0.07874 0.0
H28 H 0.39005 0.7769 0.91242 0.0
H29 H 0.2441 0.81792 0.8837 0.0
N30 N 0.34614 -0.00039 0.93399 0.0
C31 C 0.42925 -0.02203 0.94551 0.0
C32 C 0.28094 0.94357 0.91004 0.0
C33 C 0.3789 0.83953 0.91726 0.0
C34 C 0.29621 0.86237 0.90155 0.0
C35 C 0.44679 0.89768 0.93834 0.0
H36 H 0.532 0.82237 0.9618 0.0
N37 N 0.4718 0.1155 0.98231 0.0
C38 C 0.49533 0.03696 0.96757 0.0
C39 C 0.64925 0.07539 0.99803 0.0
C40 C 0.58365 0.01505 0.97747 0.0
C41 C 0.53466 0.17517 1.0022 0.0
C42 C 0.62461 0.156 1.01017 0.0
O43 O 0.17265 0.28474 0.99539 0.0
O44 O 0.18057 0.1529 0.94646 0.0
O45 O 0.35191 0.06585 0.87768 0.0
O46 O 0.3739 0.19524 0.90724 0.0
O47 O 0.15836 0.14876 0.06162 0.0
O48 O 0.18519 0.0827 0.97258 0.0
O49 O 0.34713 0.13471 0.04531 0.0
O50 O 0.33944 0.26659 0.09407 0.0
O51 O 0.16756 0.35371 0.16294 0.0
O52 O 0.14712 0.22413 0.13366 0.0
O53 O 0.36126 0.27075 0.97896 0.0
O54 O 0.33471 0.33679 0.06802 0.0
C55 C 0.16068 0.22484 0.94971 0.0
C56 C 0.14517 0.08577 1.01778 0.0
C57 C 0.3443 0.13382 0.81575 0.0
C58 C 0.37933 0.16974 0.73789 0.0
C59 C 0.23048 0.1146 0.74742 0.0
C60 C 0.25758 0.1073 0.79533 0.0
C61 C 0.29068 0.14573 0.71884 0.0
C62 C 0.40424 0.16545 0.78728 0.0
C63 C 0.37587 0.12859 0.86613 0.0
C64 C 0.59993 0.93515 0.97231 0.0
C65 C 0.52876 0.87885 0.95627 0.0
H66 H 0.7179 0.06059 1.00631 0.0
C67 C 0.35922 0.19469 0.09093 0.0
C68 C 0.37461 0.33372 0.02278 0.0
C69 C 0.17592 0.28647 0.22524 0.0
C70 C 0.14067 0.25235 0.30378 0.0
C71 C 0.28957 0.30703 0.29381 0.0
C72 C 0.26262 0.31324 0.24557 0.0
C73 C 0.22925 0.27671 0.32279 0.0
C74 C 0.11588 0.2556 0.25409 0.0
C75 C 0.14437 0.29093 0.17464 0.0
H76 H 0.16306 0.09502 0.73198 0.0
H77 H 0.21085 0.0818 0.81658 0.0
H78 H 0.26863 0.14832 0.6811 0.0
H79 H 0.47125 0.18559 0.80346 0.0
H80 H 0.35695 0.32687 0.30921 0.0
H81 H 0.3094 0.33821 0.22403 0.0
H82 H 0.25114 0.275 0.36078 0.0
H83 H 0.04887 0.23527 0.23799 0.0
C84 C 0.59038 0.94124 0.09546 0.0
C85 C 0.43592 0.90407 0.06364 0.0
C86 C 0.52433 0.88221 0.07343 0.0
C87 C 0.41952 -0.01602 0.06884 0.0
C88 C 0.57267 0.02155 0.10275 0.0
C89 C 0.49064 0.04032 0.08485 0.0
N90 N 0.67361 0.91965 0.10684 0.0
C91 C 0.73878 -0.02427 0.1308 0.0
C92 C 0.64049 0.07977 0.12386 0.0
C93 C 0.72331 0.05695 0.13944 0.0
Gd94 Gd 0.82432 0.63658 0.9604 0.0
Gd95 Gd 0.69565 0.78273 0.08002 0.0
N96 N 0.54795 0.80366 0.05859 0.0
C97 C 0.37035 0.84369 0.04311 0.0
C98 C 0.48513 0.74396 0.03875 0.0
C99 C 0.3951 0.76308 0.0309 0.0
H100 H 0.50376 0.68178 0.02909 0.0
H101 H 0.34546 0.71568 1.0146 0.0
H102 H 0.0163 0.73746 1.0111 0.0
H103 H 0.80235 0.95783 0.14348 0.0
H104 H 0.17458 0.70354 0.02564 0.0
H105 H 0.30164 0.85845 0.03491 0.0
H106 H 0.35503 0.00049 0.05615 0.0
H107 H 0.71758 0.46146 0.89701 0.0
H108 H 0.62919 0.14241 0.1288 0.0
H109 H 0.77537 0.10144 0.1573 0.0
H110 H 0.1647 0.41887 0.98462 0.0
H111 H 0.48735 0.09676 0.07929 0.0
H112 H 0.89037 0.27699 0.91218 0.0
H113 H 0.74435 0.31791 0.88347 0.0
N114 N 0.84629 0.49965 0.93369 0.0
C115 C 0.92946 0.47805 0.94514 0.0
C116 C 0.7811 0.44358 0.90976 0.0
C117 C 0.87917 0.3396 0.91699 0.0
C118 C 0.79644 0.36239 0.90129 0.0
C119 C 0.94706 0.39778 0.93802 0.0
H120 H 0.03229 0.32264 0.96162 0.0
N121 N 0.972 0.6156 0.98182 0.0
C122 C 0.99556 0.53706 0.9671 0.0
C123 C 0.14956 0.57556 0.99736 0.0
C124 C 0.08394 0.51519 0.97693 0.0
C125 C 0.03488 0.67529 1.00156 0.0
C126 C 0.1249 0.65615 1.00943 0.0
O127 O 0.6724 0.78437 0.99533 0.0
O128 O 0.68045 0.65255 0.94637 0.0
O129 O 0.87261 0.69553 0.90687 0.0
O130 O 0.85246 0.56591 0.87753 0.0
O131 O 0.65866 0.64852 0.06159 0.0
O132 O 0.68545 0.58245 0.97254 0.0
O133 O 0.84767 0.63505 0.04513 0.0
O134 O 0.83957 0.76691 0.094 0.0
O135 O 0.6481 0.72368 0.13368 0.0
O136 O 0.66704 0.85344 0.16282 0.0
O137 O 0.86125 0.77081 0.97881 0.0
O138 O 0.83446 0.83692 0.06786 0.0
C139 C 0.6603 0.72446 0.94967 0.0
C140 C 0.6455 0.58551 1.01777 0.0
C141 C 0.84399 0.63324 0.81529 0.0
C142 C 0.87925 0.66758 0.73685 0.0
C143 C 0.7303 0.61295 0.74677 0.0
C144 C 0.75724 0.60662 0.79498 0.0
C145 C 0.79066 0.64331 0.71783 0.0
C146 C 0.90409 0.6641 0.78646 0.0
C147 C 0.87551 0.62876 0.86588 0.0
C148 C 0.10023 0.43534 0.97189 0.0
C149 C 0.02905 0.37904 0.95597 0.0
H150 H 0.21826 0.56079 1.00558 0.0
C151 C 0.85983 0.69504 0.09074 0.0
C152 C 0.87441 0.83384 0.02262 0.0
C153 C 0.67611 0.78666 0.2253 0.0
C154 C 0.64071 0.75375 0.30426 0.0
C155 C 0.78989 0.80754 0.29385 0.0
C156 C 0.76298 0.8132 0.24544 0.0
C157 C 0.72939 0.77795 0.32314 0.0
C158 C 0.61588 0.75656 0.25448 0.0
C159 C 0.64458 0.79056 0.17458 0.0
H160 H 0.6629 0.59321 0.73137 0.0
H161 H 0.71041 0.58168 0.81651 0.0
H162 H 0.76879 0.64517 0.67987 0.0
H163 H 0.97113 0.68432 0.80255 0.0
H164 H 0.85738 0.82724 0.30912 0.0
H165 H 0.80989 0.83761 0.22365 0.0
H166 H 0.75122 0.77662 0.36125 0.0
H167 H 0.54874 0.73641 0.23854 0.0
C168 C 0.04041 0.51242 0.45809 0.0
C169 C 0.89148 0.57499 0.46372 0.0
C170 C 0.98774 0.5795 0.46285 0.0
C171 C 0.84938 0.50284 0.46153 0.0
C172 C 0.99859 0.44122 0.45809 0.0
C173 C 0.90286 0.43674 0.45994 0.0
N174 N 0.13273 0.51769 0.45576 0.0
C175 C 0.18674 0.45244 0.45016 0.0
C176 C 0.05493 0.37892 0.46 0.0
C177 C 0.14877 0.38265 0.45368 0.0
Gd178 Gd 0.32914 0.7814 0.58303 0.0
Gd179 Gd 0.19052 0.64131 0.45839 0.0
N180 N 0.03058 0.64901 0.46645 0.0
C181 C 0.84045 0.64307 0.46667 0.0
C182 C 0.98091 0.71351 0.46545 0.0
C183 C 0.88553 0.71246 0.46687 0.0
H184 H 0.01375 0.76429 0.4607 0.0
H185 H 0.84694 0.76448 0.46676 0.0
H186 H 0.50626 0.65826 0.57966 0.0
H187 H 0.2592 0.45367 0.44387 0.0
H188 H 0.67301 0.65821 0.57318 0.0
H189 H 0.7665 0.642 0.46741 0.0
H190 H 0.77567 0.49831 0.46276 0.0
H191 H 0.26 -0.03082 0.59816 0.0
H192 H 0.02781 0.33038 0.47015 0.0
H193 H 0.19195 0.33315 0.45371 0.0
H194 H 0.74355 0.92509 0.5784 0.0
H195 H 0.86906 0.38334 0.46115 0.0
H196 H 0.49095 0.09316 0.572 0.0
H197 H 0.32688 0.08998 0.58849 0.0
N198 N 0.38659 0.9053 0.58595 0.0
C199 C 0.47888 0.91068 0.58348 0.0
C200 C 0.33243 -0.02947 0.59178 0.0
C201 C 0.464 0.04439 0.58197 0.0
C202 C 0.37019 0.04047 0.58836 0.0
C203 C 0.52051 -0.01797 0.58361 0.0
H204 H 0.6499 0.0401 0.58054 0.0
N205 N 0.48904 0.7739 0.57459 0.0
C206 C 0.5317 0.84357 0.57841 0.0
C207 C 0.67915 0.77998 0.57394 0.0
C208 C 0.62795 0.84817 0.57736 0.0
C209 C 0.53891 0.70924 0.57511 0.0
C210 C 0.63426 0.71036 0.57346 0.0
O211 O 0.13831 0.64819 0.54049 0.0
O212 O 0.18006 0.77526 0.59292 0.0
O213 O 0.36335 0.74982 0.65254 0.0
O214 O 0.32639 0.87201 0.6617 0.0
O215 O 0.17665 0.77926 0.47491 0.0
O216 O 0.1959 0.84113 0.56504 0.0
O217 O 0.38144 0.77452 0.50096 0.0
O218 O 0.33958 0.64751 0.44857 0.0
O219 O 0.1565 0.67225 0.38859 0.0
O220 O 0.19382 0.55032 0.37988 0.0
O221 O 0.3429 0.64348 0.56653 0.0
O222 O 0.32371 0.58158 0.47641 0.0
C223 C 0.13587 0.70928 0.58607 0.0
C224 C 0.15723 0.83967 0.51972 0.0
C225 C 0.43777 0.85669 0.72129 0.0
C226 C 0.54838 0.84267 0.78632 0.0
C227 C 0.53226 -0.02967 0.77139 0.0
C228 C 0.46558 0.93716 0.73339 0.0
C229 C 0.57212 0.92438 0.79819 0.0
C230 C 0.48059 0.80935 0.74725 0.0
C231 C 0.35992 0.82466 0.68465 0.0
C232 C 0.66987 0.92048 0.57976 0.0
C233 C 0.61621 -0.01339 0.58164 0.0
H234 H 0.75309 0.7811 0.57301 0.0
C235 C 0.38372 0.71348 0.45536 0.0
C236 C 0.3623 0.58304 0.52174 0.0
C237 C 0.08276 0.56479 0.31987 0.0
C238 C 0.97234 0.578 0.25452 0.0
C239 C 0.9892 0.45055 0.26962 0.0
C240 C 0.05551 0.48417 0.30777 0.0
C241 C 0.94914 0.49618 0.24267 0.0
C242 C 0.03975 0.61179 0.29373 0.0
C243 C 0.16029 0.59732 0.35666 0.0
H244 H 0.55158 0.03284 0.78118 0.0
H245 H 0.43456 -0.02452 0.71439 0.0
H246 H 0.61971 0.95457 0.82946 0.0
H247 H 0.45985 0.74717 0.7373 0.0
H248 H 0.97031 0.38794 0.25983 0.0
H249 H 0.08672 0.44609 0.32689 0.0
H250 H 0.90184 0.4657 0.2113 0.0
H251 H 0.06006 0.67407 0.30365 0.0
C252 C 0.53976 0.01324 0.45965 0.0
C253 C 0.39092 0.07606 0.46558 0.0
C254 C 0.48718 0.08039 0.46448 0.0
C255 C 0.34874 0.00399 0.46348 0.0
C256 C 0.49789 0.94212 0.45976 0.0
C257 C 0.40216 0.93779 0.46175 0.0
N258 N 0.63207 0.01825 0.45697 0.0
C259 C 0.68598 0.95289 0.45119 0.0
C260 C 0.5542 0.87967 0.46145 0.0
C261 C 0.64799 0.88319 0.45484 0.0
Gd262 Gd 0.82956 0.28152 0.58292 0.0
Gd263 Gd 0.68989 0.14155 0.459 0.0
N264 N 0.53009 0.14974 0.46779 0.0
C265 C 0.33996 0.14419 0.46857 0.0
C266 C 0.48045 0.21427 0.46681 0.0
C267 C 0.38509 0.21344 0.46855 0.0
H268 H 0.51329 0.26484 0.46178 0.0
H269 H 0.34653 0.26548 0.46845 0.0
H270 H 1.00594 0.15848 0.58095 0.0
H271 H 0.75836 0.9539 0.44459 0.0
H272 H 0.17275 0.15782 0.57465 0.0
H273 H 0.26601 0.14324 0.46946 0.0
H274 H 0.27503 -0.00043 0.46483 0.0
H275 H 0.76131 0.46912 0.59693 0.0
H276 H 0.52714 0.83108 0.47155 0.0
H277 H 0.69113 0.83355 0.45466 0.0
H278 H 0.24464 0.4232 0.57732 0.0
H279 H 0.36827 0.8844 0.46288 0.0
H280 H 0.99279 0.59145 0.56976 0.0
H281 H 0.82874 0.58913 0.58647 0.0
N282 N 0.88756 0.40474 0.58487 0.0
C283 C 0.97988 0.4097 0.58227 0.0
C284 C 0.83372 0.47005 0.59038 0.0
C285 C 0.96563 0.54302 0.58001 0.0
C286 C 0.87181 0.53957 0.58651 0.0
C287 C 0.02186 0.48068 0.58198 0.0
H288 H 0.15155 0.5382 0.57872 0.0
N289 N 0.98939 0.27334 0.5745 0.0
C290 C 0.03238 0.34259 0.57767 0.0
C291 C 0.17951 0.27887 0.57407 0.0
C292 C 0.12865 0.34689 0.5767 0.0
C293 C 0.0389 0.20893 0.57581 0.0
C294 C 0.13427 0.20976 0.57427 0.0
O295 O 0.6381 0.14924 0.54137 0.0
O296 O 0.68054 0.2763 0.59357 0.0
O297 O 0.86362 0.25052 0.65269 0.0
O298 O 0.82816 0.37284 0.66135 0.0
O299 O 0.67672 0.27939 0.47515 0.0
O300 O 0.69631 0.3415 0.56519 0.0
O301 O 0.88155 0.27389 0.5006 0.0
O302 O 0.83886 0.14696 0.44823 0.0
O303 O 0.65488 0.17231 0.38926 0.0
O304 O 0.69167 0.05028 0.38057 0.0
O305 O 0.84295 0.14365 0.56663 0.0
O306 O 0.82325 0.0816 0.4766 0.0
C307 C 0.63572 0.21063 0.5868 0.0
C308 C 0.65746 0.33992 0.51989 0.0
C309 C 0.93934 0.3572 0.72097 0.0
C310 C 0.04982 0.34292 0.78602 0.0
C311 C 0.03464 0.47042 0.77076 0.0
C312 C 0.96778 0.43745 0.73285 0.0
C313 C 0.07414 0.42446 0.79767 0.0
C314 C 0.9818 0.30981 0.74704 0.0
C315 C 0.86113 0.32555 0.68452 0.0
C316 C 0.17093 0.41883 0.57861 0.0
C317 C 0.11759 0.48494 0.58005 0.0
H318 H 0.25347 0.27981 0.57332 0.0
C319 C 0.88376 0.21263 0.45509 0.0
C320 C 0.86225 0.08318 0.52185 0.0
C321 C 0.58 0.06506 0.32095 0.0
C322 C 0.46978 0.07822 0.25547 0.0
C323 C 0.48543 0.95121 0.27129 0.0
C324 C 0.55199 -0.01526 0.3093 0.0
C325 C 0.44584 -0.00335 0.24406 0.0
C326 C 0.53743 0.11192 0.29456 0.0
C327 C 0.65803 0.09731 0.35742 0.0
H328 H 0.05439 0.5328 0.78042 0.0
H329 H 0.93706 0.4758 0.71377 0.0
H330 H 0.12189 0.45455 0.82887 0.0
H331 H 0.96058 0.24779 0.73725 0.0
H332 H 0.46602 0.88878 0.2618 0.0
H333 H 0.58284 0.94676 0.32862 0.0
H334 H 0.39835 -0.03384 0.21281 0.0
H335 H 0.55834 0.17399 0.30417 0.0
C336 C 0.54578 0.45979 0.97196 0.0
C337 C 0.57673 0.52035 1.01888 0.0
H338 H 0.46018 0.35589 0.93596 0.0
C339 C 0.53909 0.51865 0.06722 0.0
H340 H 0.57067 0.45844 0.93366 0.0
C341 C 0.47441 0.45937 0.06857 0.0
C342 C 0.44344 0.39883 0.02164 0.0
H343 H 0.55999 0.56328 0.10457 0.0
H344 H 0.44953 0.46073 0.10687 0.0
C345 C 0.48109 0.40052 0.97331 0.0
C346 C 0.46581 0.50664 0.56806 0.0
C347 C 0.43591 0.51872 0.52111 0.0
H348 H 0.55602 0.44524 0.60515 0.0
C349 C 0.48219 0.47144 0.47384 0.0
H350 H 0.4339 0.54072 0.60571 0.0
C351 C 0.55399 0.41636 0.47359 0.0
C352 C 0.58388 0.40426 0.52053 0.0
H353 H 0.46379 0.47776 0.4365 0.0
H354 H 0.58591 0.38229 0.43594 0.0
C355 C 0.53761 0.45155 0.56781 0.0
C356 C 0.0455 0.96007 0.9719 0.0
C357 C 0.07637 0.02062 1.01886 0.0
H358 H 0.96001 0.85611 0.93585 0.0
C359 C 0.03867 0.01888 0.06717 0.0
H360 H 0.07042 0.95875 0.93362 0.0
C361 C 0.97402 0.95957 0.06848 0.0
C362 C 0.94316 0.89901 0.02153 0.0
H363 H 0.05952 0.06351 0.10453 0.0
H364 H 0.9491 -0.03911 0.10676 0.0
C365 C 0.98085 0.90075 0.97321 0.0
C366 C 0.98215 -0.02838 0.47385 0.0
C367 C 0.93584 0.0188 0.52114 0.0
H368 H 0.08581 0.88244 0.43586 0.0
C369 C 0.96561 0.00645 0.56803 0.0
H370 H 0.96383 -0.02188 0.43655 0.0
C371 C 0.03732 0.95123 0.5677 0.0
C372 C 0.08363 0.90404 0.52041 0.0
H373 H 0.93365 0.0404 0.60569 0.0
H374 H 0.05563 0.94474 0.605 0.0
C375 C 0.05386 0.91639 0.47352 0.0
C376 C 0.3449 0.10049 0.19707 0.0
C377 C 0.42943 0.12396 0.22299 0.0
H378 H 0.25772 0.10202 0.13359 0.0
C379 C 0.4789 0.18515 0.21238 0.0
H380 H 0.30099 0.05783 0.20614 0.0
C381 C 0.45017 0.21445 0.17283 0.0
C382 C 0.37369 0.18089 0.14166 0.0
H383 H 0.54361 0.20625 0.23125 0.0
H384 H 0.49297 0.25717 0.16292 0.0
C385 C 0.3185 0.12711 0.15602 0.0
C386 C 0.59612 0.68931 0.37123 0.0
C387 C 0.57166 0.73231 0.338 0.0
H388 H 0.55439 0.64939 0.43493 0.0
C389 C 0.48114 0.76001 0.33983 0.0
H390 H 0.66457 0.66575 0.3701 0.0
C391 C 0.41842 0.74945 0.37612 0.0
C392 C 0.44558 0.71304 0.41219 0.0
H393 H 0.45966 0.79374 0.31524 0.0
H394 H 0.35006 0.77356 0.37791 0.0
C395 C 0.53321 0.67932 0.40794 0.0
C396 C 0.70063 0.79245 0.88477 0.0
C397 C 0.64558 0.73849 0.89904 0.0
H398 H 0.71761 0.86241 0.83505 0.0
C399 C 0.56897 0.70509 0.86795 0.0
H400 H 0.76152 0.8174 0.90713 0.0
C401 C 0.53992 0.73483 0.82865 0.0
C402 C 0.58915 0.79632 0.81827 0.0
H403 H 0.5263 0.66222 0.87777 0.0
H404 H 0.47509 0.71388 0.80989 0.0
C405 C 0.67388 0.81952 0.844 0.0
C406 C 0.48646 0.24509 0.63451 0.0
C407 C 0.57412 0.2114 0.63016 0.0
H408 H 0.35522 0.25852 0.67246 0.0
C409 C 0.60161 0.17538 0.66637 0.0
H410 H 0.46507 0.27487 0.60747 0.0
C411 C 0.53908 0.16473 0.70272 0.0
C412 C 0.44839 0.19208 0.70452 0.0
H413 H 0.67007 0.15146 0.66459 0.0
H414 H 0.5608 0.13098 0.72724 0.0
C415 C 0.42373 0.2351 0.67132 0.0
C416 C 0.95134 0.71482 0.17244 0.0
C417 C 0.87473 0.6812 0.14141 0.0
H418 H 0.04531 0.70652 0.2306 0.0
C419 C 0.81983 0.62728 0.15582 0.0
H420 H 0.99389 0.75764 0.16249 0.0
C421 C 0.84673 0.60049 0.1967 0.0
C422 C 0.93141 0.624 0.22241 0.0
H423 H 0.75897 0.60214 0.1335 0.0
H424 H 0.80318 0.55757 0.20574 0.0
C425 C 0.9805 0.68541 0.21186 0.0
C426 C 0.91826 0.24752 0.37542 0.0
C427 C 0.94562 0.21181 0.41182 0.0
H428 H 0.95926 0.2913 0.31427 0.0
C429 C 0.03335 0.17833 0.40773 0.0
H430 H 0.84979 0.27135 0.37705 0.0
C431 C 0.09619 0.18806 0.3709 0.0
C432 C 0.07158 0.23062 0.3374 0.0
H433 H 0.05466 0.14884 0.43495 0.0
H434 H 0.16473 0.16476 0.36992 0.0
C435 C 0.98091 0.25789 0.33903 0.0
C436 C 0.04074 0.2353 0.82855 0.0
C437 C 0.09025 0.2966 0.81812 0.0
H438 H 0.02668 0.16283 0.87773 0.0
C439 C 0.17499 0.31964 0.84389 0.0
H440 H 0.97591 0.21445 0.80975 0.0
C441 C 0.20147 0.29262 0.88474 0.0
C442 C 0.14616 0.23885 0.89904 0.0
H443 H 0.21898 0.36231 0.83489 0.0
H444 H 0.26241 0.3174 0.90709 0.0
C445 C 0.06955 0.20557 0.8679 0.0
C446 C 0.98643 0.74313 0.6336 0.0
C447 C 0.07416 0.70959 0.62929 0.0
H448 H 0.85509 0.75623 0.67142 0.0
C449 C 0.10154 0.67317 0.66531 0.0
H450 H 0.96508 0.7731 0.60666 0.0
C451 C 0.03892 0.66226 0.70153 0.0
C452 C 0.94827 0.68967 0.70337 0.0
H453 H 0.16999 0.64923 0.66349 0.0
H454 H 0.06057 0.62839 0.726 0.0
C455 C 0.92362 0.73284 0.67027 0.0
loop_
_geom_bond_atom_site_label_1
_geom_bond_atom_site_label_2
_geom_bond_distance
_geom_bond_site_symmetry_2
_ccdc_geom_bond_type
C0 C2 1.422 1_455 S
C0 C4 1.415 1_455 S
C0 N6 1.369 . S
C1 C2 1.421 . S
C1 C3 1.417 . S
C1 C13 1.422 1_554 S
C2 C0 1.422 1_655 S
C2 C1 1.421 . S
C2 N12 1.359 . S
C3 C1 1.417 . S
C3 C5 1.329 . S
C3 H22 0.930 1_554 S
C4 C0 1.415 1_655 S
C4 C5 1.437 . S
C4 C8 1.413 1_655 S
C5 C3 1.329 . S
C5 C4 1.437 . S
C5 H27 0.929 . S
N6 C0 1.369 . S
N6 C7 1.338 . S
N6 Gd11 2.622 . S
C7 N6 1.338 . S
C7 C9 1.378 . S
C7 H19 0.929 . S
C8 C4 1.413 1_455 S
C8 C9 1.348 . S
C8 H24 0.931 . S
C9 C7 1.378 . S
C9 C8 1.348 . S
C9 H25 0.930 . S
Gd10 N30 2.622 1_545 S
Gd10 N37 2.570 . S
Gd10 O44 2.353 . S
Gd10 O45 2.468 . S
Gd10 O46 2.427 . S
Gd10 O48 2.388 . S
Gd10 O49 2.386 1_556 S
Gd10 O53 2.307 . S
Gd10 C63 2.805 . S
Gd11 N6 2.622 . S
Gd11 N12 2.570 1_455 S
Gd11 O43 2.386 1_554 S
Gd11 O47 2.307 . S
Gd11 O50 2.353 . S
Gd11 O51 2.468 . S
Gd11 O52 2.427 . S
Gd11 O54 2.388 . S
Gd11 C75 2.805 . S
N12 C2 1.359 . S
N12 Gd11 2.570 1_655 S
N12 C14 1.343 . S
C13 C1 1.422 1_556 S
C13 C15 1.321 1_556 S
C13 H21 0.931 . S
C14 N12 1.343 . S
C14 C15 1.390 . S
C14 H16 0.931 . S
C15 C13 1.321 1_554 S
C15 C14 1.390 . S
C15 H17 0.930 1_554 S
H16 C14 0.931 . S
H17 C15 0.930 1_556 S
H18 C41 0.931 . S
H19 C7 0.929 . S
H20 C42 0.930 1_554 S
H21 C13 0.931 . S
H22 C3 0.930 1_556 S
H23 C32 0.929 . S
H24 C8 0.931 . S
H25 C9 0.930 . S
H26 C64 0.930 1_554 S
H27 C5 0.929 . S
H28 C33 0.931 . S
H29 C34 0.930 . S
N30 Gd10 2.622 1_565 S
N30 C31 1.369 . S
N30 C32 1.338 . S
C31 N30 1.369 . S
C31 C35 1.415 . S
C31 C38 1.422 1_565 S
C32 H23 0.929 . S
C32 N30 1.338 . S
C32 C34 1.378 . S
C33 H28 0.931 . S
C33 C34 1.348 . S
C33 C35 1.413 . S
C34 H29 0.930 . S
C34 C32 1.378 . S
C34 C33 1.348 . S
C35 C31 1.415 . S
C35 C33 1.413 . S
C35 C65 1.437 . S
H36 C65 0.929 . S
N37 Gd10 2.570 . S
N37 C38 1.359 . S
N37 C41 1.343 . S
C38 C31 1.422 1_545 S
C38 N37 1.359 . S
C38 C40 1.421 . S
C39 C40 1.422 1_554 S
C39 C42 1.321 1_554 S
C39 H66 0.931 . S
C40 C38 1.421 . S
C40 C39 1.422 1_556 S
C40 C64 1.417 1_545 S
C41 H18 0.931 . S
C41 N37 1.343 . S
C41 C42 1.390 . S
C42 H20 0.930 1_556 S
C42 C39 1.321 1_556 S
C42 C41 1.390 . S
O43 Gd11 2.386 1_556 S
O43 C55 1.265 . S
O44 Gd10 2.353 . S
O44 C55 1.242 . S
O45 Gd10 2.468 . S
O45 C63 1.263 . S
O46 Gd10 2.427 . S
O46 C63 1.252 . S
O47 Gd11 2.307 . S
O47 C56 1.261 1_554 S
O48 Gd10 2.388 . S
O48 C56 1.252 . S
O49 Gd10 2.386 1_554 S
O49 C67 1.265 . S
O50 Gd11 2.353 . S
O50 C67 1.242 . S
O51 Gd11 2.468 . S
O51 C75 1.263 . S
O52 Gd11 2.427 . S
O52 C75 1.252 . S
O53 Gd10 2.307 . S
O53 C68 1.261 1_556 S
O54 Gd11 2.388 . S
O54 C68 1.252 . S
C55 O43 1.265 . S
C55 O44 1.242 . S
C56 O47 1.261 1_556 S
C56 O48 1.252 . S
C57 C60 1.394 . S
C57 C62 1.370 . S
C57 C63 1.500 . S
C58 C61 1.383 . S
C58 C62 1.395 . S
C59 C60 1.396 1_565 S
C59 C61 1.365 1_565 S
C59 H76 0.929 . S
C60 C57 1.394 . S
C60 C59 1.396 1_545 S
C60 H77 0.930 1_545 S
C61 C58 1.383 . S
C61 C59 1.365 1_545 S
C61 H78 0.931 . S
C62 C57 1.370 . S
C62 C58 1.395 . S
C62 H79 0.930 . S
C63 Gd10 2.805 . S
C63 O45 1.263 . S
C63 O46 1.252 . S
C63 C57 1.500 . S
C64 H26 0.930 1_556 S
C64 C40 1.417 1_565 S
C64 C65 1.329 . S
C65 C35 1.437 . S
C65 H36 0.929 . S
C65 C64 1.329 . S
H66 C39 0.931 . S
C67 O49 1.265 . S
C67 O50 1.242 . S
C68 O53 1.261 1_554 S
C68 O54 1.252 . S
C69 C72 1.394 . S
C69 C74 1.370 . S
C69 C75 1.500 . S
C70 C73 1.383 . S
C70 C74 1.395 1_655 S
C71 C72 1.396 . S
C71 C73 1.365 1_455 S
C71 H80 0.929 . S
C72 C69 1.394 . S
C72 C71 1.396 . S
C72 H81 0.930 . S
C73 C70 1.383 . S
C73 C71 1.365 1_655 S
C73 H82 0.931 . S
C74 C69 1.370 . S
C74 C70 1.395 1_455 S
C74 H83 0.930 . S
C75 Gd11 2.805 . S
C75 O51 1.263 . S
C75 O52 1.252 . S
C75 C69 1.500 . S
H76 C59 0.929 . S
H77 C60 0.930 1_565 S
H78 C61 0.931 . S
H79 C62 0.930 . S
H80 C71 0.929 . S
H81 C72 0.930 . S
H82 C73 0.931 . S
H83 C74 0.930 . S
C84 C86 1.422 1_545 S
C84 C88 1.415 . S
C84 N90 1.369 . S
C85 C86 1.421 . S
C85 C87 1.417 1_565 S
C85 C97 1.422 1_554 S
C86 C84 1.422 1_565 S
C86 C85 1.421 . S
C86 N96 1.359 . S
C87 C85 1.417 1_545 S
C87 C89 1.329 . S
C87 H106 0.930 1_554 S
C88 C84 1.415 . S
C88 C89 1.437 . S
C88 C92 1.413 . S
C89 C87 1.329 . S
C89 C88 1.437 . S
C89 H111 0.929 . S
N90 C84 1.369 . S
N90 C91 1.338 . S
N90 Gd95 2.622 1_545 S
C91 N90 1.338 . S
C91 C93 1.378 . S
C91 H103 0.929 . S
C92 C88 1.413 . S
C92 C93 1.348 . S
C92 H108 0.931 . S
C93 C91 1.378 . S
C93 C92 1.348 . S
C93 H109 0.930 . S
Gd94 N114 2.622 . S
Gd94 N121 2.570 1_655 S
Gd94 O128 2.353 . S
Gd94 O129 2.468 . S
Gd94 O130 2.427 . S
Gd94 O132 2.388 . S
Gd94 O133 2.386 1_556 S
Gd94 O137 2.307 . S
Gd94 C147 2.805 . S
Gd95 N90 2.622 1_565 S
Gd95 N96 2.570 . S
Gd95 O127 2.386 1_554 S
Gd95 O131 2.307 . S
Gd95 O134 2.353 . S
Gd95 O135 2.468 . S
Gd95 O136 2.427 . S
Gd95 O138 2.388 . S
Gd95 C159 2.805 . S
N96 C86 1.359 . S
N96 Gd95 2.570 . S
N96 C98 1.343 . S
C97 C85 1.422 1_556 S
C97 C99 1.321 1_556 S
C97 H105 0.931 . S
C98 N96 1.343 . S
C98 C99 1.390 . S
C98 H100 0.931 . S
C99 C97 1.321 1_554 S
C99 C98 1.390 . S
C99 H101 0.930 1_554 S
H100 C98 0.931 . S
H101 C99 0.930 1_556 S
H102 C125 0.931 . S
H103 C91 0.929 . S
H104 C126 0.930 1_554 S
H105 C97 0.931 . S
H106 C87 0.930 1_556 S
H107 C116 0.929 . S
H108 C92 0.931 . S
H109 C93 0.930 . S
H110 C148 0.930 1_554 S
H111 C89 0.929 . S
H112 C117 0.931 . S
H113 C118 0.930 . S
N114 Gd94 2.622 . S
N114 C115 1.369 . S
N114 C116 1.338 . S
C115 N114 1.369 . S
C115 C119 1.415 1_655 S
C115 C122 1.422 1_655 S
C116 H107 0.929 . S
C116 N114 1.338 . S
C116 C118 1.378 . S
C117 H112 0.931 . S
C117 C118 1.348 . S
C117 C119 1.413 1_655 S
C118 H113 0.930 . S
C118 C116 1.378 . S
C118 C117 1.348 . S
C119 C115 1.415 1_455 S
C119 C117 1.413 1_455 S
C119 C149 1.437 . S
H120 C149 0.929 . S
N121 Gd94 2.570 1_455 S
N121 C122 1.359 . S
N121 C125 1.343 . S
C122 C115 1.422 1_455 S
C122 N121 1.359 . S
C122 C124 1.421 . S
C123 C124 1.422 1_554 S
C123 C126 1.321 1_554 S
C123 H150 0.931 . S
C124 C122 1.421 . S
C124 C123 1.422 1_556 S
C124 C148 1.417 . S
C125 H102 0.931 . S
C125 N121 1.343 . S
C125 C126 1.390 . S
C126 H104 0.930 1_556 S
C126 C123 1.321 1_556 S
C126 C125 1.390 . S
O127 Gd95 2.386 1_556 S
O127 C139 1.265 . S
O128 Gd94 2.353 . S
O128 C139 1.242 . S
O129 Gd94 2.468 . S
O129 C147 1.263 . S
O130 Gd94 2.427 . S
O130 C147 1.252 . S
O131 Gd95 2.307 . S
O131 C140 1.261 1_554 S
O132 Gd94 2.388 . S
O132 C140 1.252 . S
O133 Gd94 2.386 1_554 S
O133 C151 1.265 . S
O134 Gd95 2.353 . S
O134 C151 1.242 . S
O135 Gd95 2.468 . S
O135 C159 1.263 . S
O136 Gd95 2.427 . S
O136 C159 1.252 . S
O137 Gd94 2.307 . S
O137 C152 1.261 1_556 S
O138 Gd95 2.388 . S
O138 C152 1.252 . S
C139 O127 1.265 . S
C139 O128 1.242 . S
C140 O131 1.261 1_556 S
C140 O132 1.252 . S
C141 C144 1.394 . S
C141 C146 1.370 . S
C141 C147 1.500 . S
C142 C145 1.383 . S
C142 C146 1.395 1_455 S
C143 C144 1.396 . S
C143 C145 1.365 1_655 S
C143 H160 0.929 . S
C144 C141 1.394 . S
C144 C143 1.396 . S
C144 H161 0.930 . S
C145 C142 1.383 . S
C145 C143 1.365 1_455 S
C145 H162 0.931 . S
C146 C141 1.370 . S
C146 C142 1.395 1_655 S
C146 H163 0.930 . S
C147 Gd94 2.805 . S
C147 O129 1.263 . S
C147 O130 1.252 . S
C147 C141 1.500 . S
C148 H110 0.930 1_556 S
C148 C124 1.417 . S
C148 C149 1.329 . S
C149 C119 1.437 . S
C149 H120 0.929 . S
C149 C148 1.329 . S
H150 C123 0.931 . S
C151 O133 1.265 . S
C151 O134 1.242 . S
C152 O137 1.261 1_554 S
C152 O138 1.252 . S
C153 C156 1.394 . S
C153 C158 1.370 . S
C153 C159 1.500 . S
C154 C157 1.383 . S
C154 C158 1.395 . S
C155 C156 1.396 1_545 S
C155 C157 1.365 1_545 S
C155 H164 0.929 . S
C156 C153 1.394 . S
C156 C155 1.396 1_565 S
C156 H165 0.930 1_565 S
C157 C154 1.383 . S
C157 C155 1.365 1_565 S
C157 H166 0.931 . S
C158 C153 1.370 . S
C158 C154 1.395 . S
C158 H167 0.930 . S
C159 Gd95 2.805 . S
C159 O135 1.263 . S
C159 O136 1.252 . S
C159 C153 1.500 . S
H160 C143 0.929 . S
H161 C144 0.930 . S
H162 C145 0.931 . S
H163 C146 0.930 . S
H164 C155 0.929 . S
H165 C156 0.930 1_545 S
H166 C157 0.931 . S
H167 C158 0.930 . S
C168 C170 1.422 1_455 S
C168 C172 1.415 1_455 S
C168 N174 1.369 . S
C169 C170 1.421 . S
C169 C171 1.417 . S
C169 C181 1.422 . S
C170 C168 1.422 1_655 S
C170 C169 1.421 . S
C170 N180 1.359 . S
C171 C169 1.417 . S
C171 C173 1.329 . S
C171 H190 0.930 . S
C172 C168 1.415 1_655 S
C172 C173 1.437 . S
C172 C176 1.413 1_655 S
C173 C171 1.329 . S
C173 C172 1.437 . S
C173 H195 0.929 . S
N174 C168 1.369 . S
N174 C175 1.338 . S
N174 Gd179 2.622 . S
C175 N174 1.338 . S
C175 C177 1.378 . S
C175 H187 0.929 . S
C176 C172 1.413 1_455 S
C176 C177 1.348 . S
C176 H192 0.931 . S
C177 C175 1.378 . S
C177 C176 1.348 . S
C177 H193 0.930 . S
Gd178 N198 2.622 1_565 S
Gd178 N205 2.570 . S
Gd178 O212 2.353 . S
Gd178 O213 2.468 . S
Gd178 O214 2.427 . S
Gd178 O216 2.388 . S
Gd178 O217 2.386 . S
Gd178 O221 2.307 . S
Gd178 C231 2.805 . S
Gd179 N174 2.622 . S
Gd179 N180 2.570 1_455 S
Gd179 O211 2.386 . S
Gd179 O215 2.307 . S
Gd179 O218 2.353 . S
Gd179 O219 2.468 . S
Gd179 O220 2.427 . S
Gd179 O222 2.388 . S
Gd179 C243 2.805 . S
N180 C170 1.359 . S
N180 Gd179 2.570 1_655 S
N180 C182 1.343 . S
C181 C169 1.422 . S
C181 C183 1.321 . S
C181 H189 0.931 . S
C182 N180 1.343 . S
C182 C183 1.390 . S
C182 H184 0.931 . S
C183 C181 1.321 . S
C183 C182 1.390 . S
C183 H185 0.930 . S
H184 C182 0.931 . S
H185 C183 0.930 . S
H186 C209 0.931 . S
H187 C175 0.929 . S
H188 C210 0.930 . S
H189 C181 0.931 . S
H190 C171 0.930 . S
H191 C200 0.929 . S
H192 C176 0.931 . S
H193 C177 0.930 . S
H194 C232 0.930 . S
H195 C173 0.929 . S
H196 C201 0.931 . S
H197 C202 0.930 . S
N198 Gd178 2.622 1_545 S
N198 C199 1.369 . S
N198 C200 1.338 . S
C199 N198 1.369 . S
C199 C203 1.415 . S
C199 C206 1.422 1_545 S
C200 H191 0.929 . S
C200 N198 1.338 . S
C200 C202 1.378 . S
C201 H196 0.931 . S
C201 C202 1.348 . S
C201 C203 1.413 . S
C202 H197 0.930 . S
C202 C200 1.378 . S
C202 C201 1.348 . S
C203 C199 1.415 . S
C203 C201 1.413 . S
C203 C233 1.437 . S
H204 C233 0.929 . S
N205 Gd178 2.570 . S
N205 C206 1.359 . S
N205 C209 1.343 . S
C206 C199 1.422 1_565 S
C206 N205 1.359 . S
C206 C208 1.421 . S
C207 C208 1.422 . S
C207 C210 1.321 . S
C207 H234 0.931 . S
C208 C206 1.421 . S
C208 C207 1.422 . S
C208 C232 1.417 1_565 S
C209 H186 0.931 . S
C209 N205 1.343 . S
C209 C210 1.390 . S
C210 H188 0.930 . S
C210 C207 1.321 . S
C210 C209 1.390 . S
O211 Gd179 2.386 . S
O211 C223 1.265 . S
O212 Gd178 2.353 . S
O212 C223 1.242 . S
O213 Gd178 2.468 . S
O213 C231 1.263 . S
O214 Gd178 2.427 . S
O214 C231 1.252 . S
O215 Gd179 2.307 . S
O215 C224 1.261 . S
O216 Gd178 2.388 . S
O216 C224 1.252 . S
O217 Gd178 2.386 . S
O217 C235 1.265 . S
O218 Gd179 2.353 . S
O218 C235 1.242 . S
O219 Gd179 2.468 . S
O219 C243 1.263 . S
O220 Gd179 2.427 . S
O220 C243 1.252 . S
O221 Gd178 2.307 . S
O221 C236 1.261 . S
O222 Gd179 2.388 . S
O222 C236 1.252 . S
C223 O211 1.265 . S
C223 O212 1.242 . S
C224 O215 1.261 . S
C224 O216 1.252 . S
C225 C228 1.394 . S
C225 C230 1.370 . S
C225 C231 1.500 . S
C226 C229 1.383 . S
C226 C230 1.395 . S
C227 C228 1.396 1_545 S
C227 C229 1.365 1_545 S
C227 H244 0.929 . S
C228 C225 1.394 . S
C228 C227 1.396 1_565 S
C228 H245 0.930 1_565 S
C229 C226 1.383 . S
C229 C227 1.365 1_565 S
C229 H246 0.931 . S
C230 C225 1.370 . S
C230 C226 1.395 . S
C230 H247 0.930 . S
C231 Gd178 2.805 . S
C231 O213 1.263 . S
C231 O214 1.252 . S
C231 C225 1.500 . S
C232 H194 0.930 . S
C232 C208 1.417 1_545 S
C232 C233 1.329 . S
C233 C203 1.437 . S
C233 H204 0.929 . S
C233 C232 1.329 . S
H234 C207 0.931 . S
C235 O217 1.265 . S
C235 O218 1.242 . S
C236 O221 1.261 . S
C236 O222 1.252 . S
C237 C240 1.394 . S
C237 C242 1.370 . S
C237 C243 1.500 . S
C238 C241 1.383 . S
C238 C242 1.395 1_655 S
C239 C240 1.396 . S
C239 C241 1.365 1_455 S
C239 H248 0.929 . S
C240 C237 1.394 . S
C240 C239 1.396 . S
C240 H249 0.930 . S
C241 C238 1.383 . S
C241 C239 1.365 1_655 S
C241 H250 0.931 . S
C242 C237 1.370 . S
C242 C238 1.395 1_455 S
C242 H251 0.930 . S
C243 Gd179 2.805 . S
C243 O219 1.263 . S
C243 O220 1.252 . S
C243 C237 1.500 . S
H244 C227 0.929 . S
H245 C228 0.930 1_545 S
H246 C229 0.931 . S
H247 C230 0.930 . S
H248 C239 0.929 . S
H249 C240 0.930 . S
H250 C241 0.931 . S
H251 C242 0.930 . S
C252 C254 1.422 1_565 S
C252 C256 1.415 . S
C252 N258 1.369 . S
C253 C254 1.421 . S
C253 C255 1.417 1_545 S
C253 C265 1.422 . S
C254 C252 1.422 1_545 S
C254 C253 1.421 . S
C254 N264 1.359 . S
C255 C253 1.417 1_565 S
C255 C257 1.329 . S
C255 H274 0.930 . S
C256 C252 1.415 . S
C256 C257 1.437 . S
C256 C260 1.413 . S
C257 C255 1.329 . S
C257 C256 1.437 . S
C257 H279 0.929 . S
N258 C252 1.369 . S
N258 C259 1.338 . S
N258 Gd263 2.622 1_565 S
C259 N258 1.338 . S
C259 C261 1.378 . S
C259 H271 0.929 . S
C260 C256 1.413 . S
C260 C261 1.348 . S
C260 H276 0.931 . S
C261 C259 1.378 . S
C261 C260 1.348 . S
C261 H277 0.930 . S
Gd262 N282 2.622 . S
Gd262 N289 2.570 1_655 S
Gd262 O296 2.353 . S
Gd262 O297 2.468 . S
Gd262 O298 2.427 . S
Gd262 O300 2.388 . S
Gd262 O301 2.386 . S
Gd262 O305 2.307 . S
Gd262 C315 2.805 . S
Gd263 N258 2.622 1_545 S
Gd263 N264 2.570 . S
Gd263 O295 2.386 . S
Gd263 O299 2.307 . S
Gd263 O302 2.353 . S
Gd263 O303 2.468 . S
Gd263 O304 2.427 . S
Gd263 O306 2.388 . S
Gd263 C327 2.805 . S
N264 C254 1.359 . S
N264 Gd263 2.570 . S
N264 C266 1.343 . S
C265 C253 1.422 . S
C265 C267 1.321 . S
C265 H273 0.931 . S
C266 N264 1.343 . S
C266 C267 1.390 . S
C266 H268 0.931 . S
C267 C265 1.321 . S
C267 C266 1.390 . S
C267 H269 0.930 . S
H268 C266 0.931 . S
H269 C267 0.930 . S
H270 C293 0.931 . S
H271 C259 0.929 . S
H272 C294 0.930 . S
H273 C265 0.931 . S
H274 C255 0.930 . S
H275 C284 0.929 . S
H276 C260 0.931 . S
H277 C261 0.930 . S
H278 C316 0.930 . S
H279 C257 0.929 . S
H280 C285 0.931 . S
H281 C286 0.930 . S
N282 Gd262 2.622 . S
N282 C283 1.369 . S
N282 C284 1.338 . S
C283 N282 1.369 . S
C283 C287 1.415 1_655 S
C283 C290 1.422 1_655 S
C284 H275 0.929 . S
C284 N282 1.338 . S
C284 C286 1.378 . S
C285 H280 0.931 . S
C285 C286 1.348 . S
C285 C287 1.413 1_655 S
C286 H281 0.930 . S
C286 C284 1.378 . S
C286 C285 1.348 . S
C287 C283 1.415 1_455 S
C287 C285 1.413 1_455 S
C287 C317 1.437 . S
H288 C317 0.929 . S
N289 Gd262 2.570 1_455 S
N289 C290 1.359 . S
N289 C293 1.343 . S
C290 C283 1.422 1_455 S
C290 N289 1.359 . S
C290 C292 1.421 . S
C291 C292 1.422 . S
C291 C294 1.321 . S
C291 H318 0.931 . S
C292 C290 1.421 . S
C292 C291 1.422 . S
C292 C316 1.417 . S
C293 H270 0.931 . S
C293 N289 1.343 . S
C293 C294 1.390 . S
C294 H272 0.930 . S
C294 C291 1.321 . S
C294 C293 1.390 . S
O295 Gd263 2.386 . S
O295 C307 1.265 . S
O296 Gd262 2.353 . S
O296 C307 1.242 . S
O297 Gd262 2.468 . S
O297 C315 1.263 . S
O298 Gd262 2.427 . S
O298 C315 1.252 . S
O299 Gd263 2.307 . S
O299 C308 1.261 . S
O300 Gd262 2.388 . S
O300 C308 1.252 . S
O301 Gd262 2.386 . S
O301 C319 1.265 . S
O302 Gd263 2.353 . S
O302 C319 1.242 . S
O303 Gd263 2.468 . S
O303 C327 1.263 . S
O304 Gd263 2.427 . S
O304 C327 1.252 . S
O305 Gd262 2.307 . S
O305 C320 1.261 . S
O306 Gd263 2.388 . S
O306 C320 1.252 . S
C307 O295 1.265 . S
C307 O296 1.242 . S
C308 O299 1.261 . S
C308 O300 1.252 . S
C309 C312 1.394 . S
C309 C314 1.370 . S
C309 C315 1.500 . S
C310 C313 1.383 . S
C310 C314 1.395 1_455 S
C311 C312 1.396 . S
C311 C313 1.365 1_655 S
C311 H328 0.929 . S
C312 C309 1.394 . S
C312 C311 1.396 . S
C312 H329 0.930 . S
C313 C310 1.383 . S
C313 C311 1.365 1_455 S
C313 H330 0.931 . S
C314 C309 1.370 . S
C314 C310 1.395 1_655 S
C314 H331 0.930 . S
C315 Gd262 2.805 . S
C315 O297 1.263 . S
C315 O298 1.252 . S
C315 C309 1.500 . S
C316 H278 0.930 . S
C316 C292 1.417 . S
C316 C317 1.329 . S
C317 C287 1.437 . S
C317 H288 0.929 . S
C317 C316 1.329 . S
H318 C291 0.931 . S
C319 O301 1.265 . S
C319 O302 1.242 . S
C320 O305 1.261 . S
C320 O306 1.252 . S
C321 C324 1.394 . S
C321 C326 1.370 . S
C321 C327 1.500 . S
C322 C325 1.383 . S
C322 C326 1.395 . S
C323 C324 1.396 1_565 S
C323 C325 1.365 1_565 S
C323 H332 0.929 . S
C324 C321 1.394 . S
C324 C323 1.396 1_545 S
C324 H333 0.930 1_545 S
C325 C322 1.383 . S
C325 C323 1.365 1_545 S
C325 H334 0.931 . S
C326 C321 1.370 . S
C326 C322 1.395 . S
C326 H335 0.930 . S
C327 Gd263 2.805 . S
C327 O303 1.263 . S
C327 O304 1.252 . S
C327 C321 1.500 . S
H328 C311 0.929 . S
H329 C312 0.930 . S
H330 C313 0.931 . S
H331 C314 0.930 . S
H332 C323 0.929 . S
H333 C324 0.930 1_565 S
H334 C325 0.931 . S
H335 C326 0.930 . S
C336 C337 1.387 . S
C336 H340 0.950 . S
C336 C345 1.390 . S
C337 C336 1.387 . S
C337 C339 1.387 1_556 S
H338 C345 0.950 . S
C339 C337 1.387 1_554 S
C339 C341 1.390 . S
C339 H343 0.950 . S
H340 C336 0.950 . S
C341 C339 1.390 . S
C341 C342 1.387 . S
C341 H344 0.950 . S
C342 C341 1.387 . S
C342 C345 1.387 1_554 S
H343 C339 0.950 . S
H344 C341 0.950 . S
C345 C336 1.390 . S
C345 H338 0.950 . S
C345 C342 1.387 1_556 S
C346 C347 1.387 . S
C346 H350 0.950 . S
C346 C355 1.390 . S
C347 C346 1.387 . S
C347 C349 1.387 . S
H348 C355 0.950 . S
C349 C347 1.387 . S
C349 C351 1.390 . S
C349 H353 0.950 . S
H350 C346 0.950 . S
C351 C349 1.390 . S
C351 C352 1.387 . S
C351 H354 0.950 . S
C352 C351 1.387 . S
C352 C355 1.387 . S
H353 C349 0.950 . S
H354 C351 0.950 . S
C355 C346 1.390 . S
C355 H348 0.950 . S
C355 C352 1.387 . S
C356 C357 1.387 1_565 S
C356 H360 0.950 . S
C356 C365 1.390 1_455 S
C357 C356 1.387 1_545 S
C357 C359 1.387 1_556 S
H358 C365 0.950 . S
C359 C357 1.387 1_554 S
C359 C361 1.390 1_455 S
C359 H363 0.950 . S
H360 C356 0.950 . S
C361 C359 1.390 1_655 S
C361 C362 1.387 1_545 S
C361 H364 0.950 . S
C362 C361 1.387 1_565 S
C362 C365 1.387 1_554 S
H363 C359 0.950 . S
H364 C361 0.950 . S
C365 C356 1.390 1_655 S
C365 H358 0.950 . S
C365 C362 1.387 1_556 S
C366 C367 1.387 1_565 S
C366 H370 0.950 . S
C366 C375 1.390 1_655 S
C367 C366 1.387 1_545 S
C367 C369 1.387 . S
H368 C375 0.950 . S
C369 C367 1.387 . S
C369 C371 1.390 1_655 S
C369 H373 0.950 . S
H370 C366 0.950 . S
C371 C369 1.390 1_455 S
C371 C372 1.387 1_545 S
C371 H374 0.950 . S
C372 C371 1.387 1_565 S
C372 C375 1.387 . S
H373 C369 0.950 . S
H374 C371 0.950 . S
C375 C366 1.390 1_455 S
C375 H368 0.950 . S
C375 C372 1.387 . S
C376 C377 1.387 . S
C376 H380 0.950 . S
C376 C385 1.390 . S
C377 C376 1.387 . S
C377 C379 1.387 . S
H378 C385 0.950 . S
C379 C377 1.387 . S
C379 C381 1.390 . S
C379 H383 0.950 . S
H380 C376 0.950 . S
C381 C379 1.390 . S
C381 C382 1.387 . S
C381 H384 0.950 . S
C382 C381 1.387 . S
C382 C385 1.387 . S
H383 C379 0.950 . S
H384 C381 0.950 . S
C385 C376 1.390 . S
C385 H378 0.950 . S
C385 C382 1.387 . S
C386 C387 1.387 . S
C386 H390 0.950 . S
C386 C395 1.390 . S
C387 C386 1.387 . S
C387 C389 1.387 . S
H388 C395 0.950 . S
C389 C387 1.387 . S
C389 C391 1.390 . S
C389 H393 0.950 . S
H390 C386 0.950 . S
C391 C389 1.390 . S
C391 C392 1.387 . S
C391 H394 0.950 . S
C392 C391 1.387 . S
C392 C395 1.387 . S
H393 C389 0.950 . S
H394 C391 0.950 . S
C395 C386 1.390 . S
C395 H388 0.950 . S
C395 C392 1.387 . S
C396 C397 1.387 . S
C396 H400 0.950 . S
C396 C405 1.390 . S
C397 C396 1.387 . S
C397 C399 1.387 . S
H398 C405 0.950 . S
C399 C397 1.387 . S
C399 C401 1.390 . S
C399 H403 0.950 . S
H400 C396 0.950 . S
C401 C399 1.390 . S
C401 C402 1.387 . S
C401 H404 0.950 . S
C402 C401 1.387 . S
C402 C405 1.387 . S
H403 C399 0.950 . S
H404 C401 0.950 . S
C405 C396 1.390 . S
C405 H398 0.950 . S
C405 C402 1.387 . S
C406 C407 1.387 . S
C406 H410 0.950 . S
C406 C415 1.390 . S
C407 C406 1.387 . S
C407 C409 1.387 . S
H408 C415 0.950 . S
C409 C407 1.387 . S
C409 C411 1.390 . S
C409 H413 0.950 . S
H410 C406 0.950 . S
C411 C409 1.390 . S
C411 C412 1.387 . S
C411 H414 0.950 . S
C412 C411 1.387 . S
C412 C415 1.387 . S
H413 C409 0.950 . S
H414 C411 0.950 . S
C415 C406 1.390 . S
C415 H408 0.950 . S
C415 C412 1.387 . S
C416 C417 1.387 . S
C416 H420 0.950 . S
C416 C425 1.390 . S
C417 C416 1.387 . S
C417 C419 1.387 . S
H418 C425 0.950 . S
C419 C417 1.387 . S
C419 C421 1.390 . S
C419 H423 0.950 . S
H420 C416 0.950 . S
C421 C419 1.390 . S
C421 C422 1.387 . S
C421 H424 0.950 . S
C422 C421 1.387 . S
C422 C425 1.387 . S
H423 C419 0.950 . S
H424 C421 0.950 . S
C425 C416 1.390 . S
C425 H418 0.950 . S
C425 C422 1.387 . S
C426 C427 1.387 . S
C426 H430 0.950 . S
C426 C435 1.390 . S
C427 C426 1.387 . S
C427 C429 1.387 . S
H428 C435 0.950 . S
C429 C427 1.387 . S
C429 C431 1.390 . S
C429 H433 0.950 . S
H430 C426 0.950 . S
C431 C429 1.390 . S
C431 C432 1.387 . S
C431 H434 0.950 . S
C432 C431 1.387 . S
C432 C435 1.387 . S
H433 C429 0.950 . S
H434 C431 0.950 . S
C435 C426 1.390 . S
C435 H428 0.950 . S
C435 C432 1.387 . S
C436 C437 1.387 . S
C436 H440 0.950 . S
C436 C445 1.390 . S
C437 C436 1.387 . S
C437 C439 1.387 . S
H438 C445 0.950 . S
C439 C437 1.387 . S
C439 C441 1.390 . S
C439 H443 0.950 1_455 S
H440 C436 0.950 . S
C441 C439 1.390 . S
C441 C442 1.387 . S
C441 H444 0.950 . S
C442 C441 1.387 . S
C442 C445 1.387 . S
H443 C439 0.950 1_655 S
H444 C441 0.950 . S
C445 C436 1.390 . S
C445 H438 0.950 . S
C445 C442 1.387 . S
C446 C447 1.387 . S
C446 H450 0.950 . S
C446 C455 1.390 . S
C447 C446 1.387 . S
C447 C449 1.387 . S
H448 C455 0.950 . S
C449 C447 1.387 . S
C449 C451 1.390 . S
C449 H453 0.950 . S
H450 C446 0.950 . S
C451 C449 1.390 . S
C451 C452 1.387 . S
C451 H454 0.950 . S
C452 C451 1.387 . S
C452 C455 1.387 . S
H453 C449 0.950 . S
H454 C451 0.950 . S
C455 C446 1.390 . S
C455 H448 0.950 . S
C455 C452 1.387 . S
C337 C140 1.538 . S
C342 C68 1.538 . S
C347 C236 1.538 . S
C352 C308 1.538 . S
C357 C56 1.538 . S
C362 C152 1.538 . S
C367 C320 1.540 . S
C372 C224 1.540 . S
C377 C322 1.337 . S
C382 C67 1.390 . S
C387 C154 1.340 . S
C392 C235 1.392 . S
C397 C139 1.393 . S
C402 C226 1.339 . S
C407 C307 1.392 . S
C412 C58 1.337 . S
C417 C151 1.393 . S
C422 C238 1.338 . S
C427 C319 1.391 . S
C432 C70 1.335 . S
C437 C310 1.338 . S
C442 C55 1.392 . S
C447 C223 1.391 . S
C452 C142 1.338 . S
