# Generated by pormake.
# Topology smd, (6)-cn, num edge types: 1
# Building blocks:
#     Node 0, Type 0, BuildingBlock: CUWYAW_clean_sbu_0, # of connection points: 6
#     Node 1, Type 0, BuildingBlock: CUWYAW_clean_sbu_0, # of connection points: 6
#     Node 2, Type 0, BuildingBlock: CUWYAW_clean_sbu_0, # of connection points: 6
#     Node 3, Type 0, BuildingBlock: CUWYAW_clean_sbu_0, # of connection points: 6
#     Node 4, Type 0, BuildingBlock: CUWYAW_clean_sbu_0, # of connection points: 6
#     Node 5, Type 0, BuildingBlock: CUWYAW_clean_sbu_0, # of connection points: 6
#     Node 6, Type 0, BuildingBlock: CUWYAW_clean_sbu_0, # of connection points: 6
#     Node 7, Type 0, BuildingBlock: CUWYAW_clean_sbu_0, # of connection points: 6
#     Node 8, Type 0, BuildingBlock: CUWYAW_clean_sbu_0, # of connection points: 6
#     Node 9, Type 0, BuildingBlock: CUWYAW_clean_sbu_0, # of connection points: 6
#     Node 10, Type 0, BuildingBlock: CUWYAW_clean_sbu_0, # of connection points: 6
#     Node 11, Type 0, BuildingBlock: CUWYAW_clean_sbu_0, # of connection points: 6
#     Node 12, Type 0, BuildingBlock: CUWYAW_clean_sbu_0, # of connection points: 6
#     Node 13, Type 0, BuildingBlock: CUWYAW_clean_sbu_0, # of connection points: 6
#     Node 14, Type 0, BuildingBlock: CUWYAW_clean_sbu_0, # of connection points: 6
#     Node 15, Type 0, BuildingBlock: CUWYAW_clean_sbu_0, # of connection points: 6
#     Node 16, Type 0, BuildingBlock: CUWYAW_clean_sbu_0, # of connection points: 6
#     Node 17, Type 0, BuildingBlock: CUWYAW_clean_sbu_0, # of connection points: 6
#     Edge 18, Type (0, 0), BuildingBlock: AJUNOK_clean_linker_0, # of connection points: 2
#     Edge 19, Type (0, 0), BuildingBlock: AJUNOK_clean_linker_0, # of connection points: 2
#     Edge 20, Type (0, 0), BuildingBlock: AJUNOK_clean_linker_0, # of connection points: 2
#     Edge 21, Type (0, 0), BuildingBlock: AJUNOK_clean_linker_0, # of connection points: 2
#     Edge 22, Type (0, 0), BuildingBlock: AJUNOK_clean_linker_0, # of connection points: 2
#     Edge 23, Type (0, 0), BuildingBlock: AJUNOK_clean_linker_0, # of connection points: 2
#     Edge 24, Type (0, 0), BuildingBlock: AJUNOK_clean_linker_0, # of connection points: 2
#     Edge 25, Type (0, 0), BuildingBlock: AJUNOK_clean_linker_0, # of connection points: 2
#     Edge 26, Type (0, 0), BuildingBlock: AJUNOK_clean_linker_0, # of connection points: 2
#     Edge 27, Type (0, 0), BuildingBlock: AJUNOK_clean_linker_0, # of connection points: 2
#     Edge 28, Type (0, 0), BuildingBlock: AJUNOK_clean_linker_0, # of connection points: 2
#     Edge 29, Type (0, 0), BuildingBlock: AJUNOK_clean_linker_0, # of connection points: 2
#     Edge 30, Type (0, 0), BuildingBlock: AJUNOK_clean_linker_0, # of connection points: 2
#     Edge 31, Type (0, 0), BuildingBlock: AJUNOK_clean_linker_0, # of connection points: 2
#     Edge 32, Type (0, 0), BuildingBlock: AJUNOK_clean_linker_0, # of connection points: 2
#     Edge 33, Type (0, 0), BuildingBlock: AJUNOK_clean_linker_0, # of connection points: 2
#     Edge 34, Type (0, 0), BuildingBlock: AJUNOK_clean_linker_0, # of connection points: 2
#     Edge 35, Type (0, 0), BuildingBlock: AJUNOK_clean_linker_0, # of connection points: 2
#     Edge 36, Type (0, 0), BuildingBlock: AJUNOK_clean_linker_0, # of connection points: 2
#     Edge 37, Type (0, 0), BuildingBlock: AJUNOK_clean_linker_0, # of connection points: 2
#     Edge 38, Type (0, 0), BuildingBlock: AJUNOK_clean_linker_0, # of connection points: 2
#     Edge 39, Type (0, 0), BuildingBlock: AJUNOK_clean_linker_0, # of connection points: 2
#     Edge 40, Type (0, 0), BuildingBlock: AJUNOK_clean_linker_0, # of connection points: 2
#     Edge 41, Type (0, 0), BuildingBlock: AJUNOK_clean_linker_0, # of connection points: 2
#     Edge 42, Type (0, 0), BuildingBlock: AJUNOK_clean_linker_0, # of connection points: 2
#     Edge 43, Type (0, 0), BuildingBlock: AJUNOK_clean_linker_0, # of connection points: 2
#     Edge 44, Type (0, 0), BuildingBlock: AJUNOK_clean_linker_0, # of connection points: 2
#     Edge 45, Type (0, 0), BuildingBlock: AJUNOK_clean_linker_0, # of connection points: 2
#     Edge 46, Type (0, 0), BuildingBlock: AJUNOK_clean_linker_0, # of connection points: 2
#     Edge 47, Type (0, 0), BuildingBlock: AJUNOK_clean_linker_0, # of connection points: 2
#     Edge 48, Type (0, 0), BuildingBlock: AJUNOK_clean_linker_0, # of connection points: 2
#     Edge 49, Type (0, 0), BuildingBlock: AJUNOK_clean_linker_0, # of connection points: 2
#     Edge 50, Type (0, 0), BuildingBlock: AJUNOK_clean_linker_0, # of connection points: 2
#     Edge 51, Type (0, 0), BuildingBlock: AJUNOK_clean_linker_0, # of connection points: 2
#     Edge 52, Type (0, 0), BuildingBlock: AJUNOK_clean_linker_0, # of connection points: 2
#     Edge 53, Type (0, 0), BuildingBlock: AJUNOK_clean_linker_0, # of connection points: 2
#     Edge 54, Type (0, 0), BuildingBlock: AJUNOK_clean_linker_0, # of connection points: 2
#     Edge 55, Type (0, 0), BuildingBlock: AJUNOK_clean_linker_0, # of connection points: 2
#     Edge 56, Type (0, 0), BuildingBlock: AJUNOK_clean_linker_0, # of connection points: 2
#     Edge 57, Type (0, 0), BuildingBlock: AJUNOK_clean_linker_0, # of connection points: 2
#     Edge 58, Type (0, 0), BuildingBlock: AJUNOK_clean_linker_0, # of connection points: 2
#     Edge 59, Type (0, 0), BuildingBlock: AJUNOK_clean_linker_0, # of connection points: 2
#     Edge 60, Type (0, 0), BuildingBlock: AJUNOK_clean_linker_0, # of connection points: 2
#     Edge 61, Type (0, 0), BuildingBlock: AJUNOK_clean_linker_0, # of connection points: 2
#     Edge 62, Type (0, 0), BuildingBlock: AJUNOK_clean_linker_0, # of connection points: 2
#     Edge 63, Type (0, 0), BuildingBlock: AJUNOK_clean_linker_0, # of connection points: 2
#     Edge 64, Type (0, 0), BuildingBlock: AJUNOK_clean_linker_0, # of connection points: 2
#     Edge 65, Type (0, 0), BuildingBlock: AJUNOK_clean_linker_0, # of connection points: 2
#     Edge 66, Type (0, 0), BuildingBlock: AJUNOK_clean_linker_0, # of connection points: 2
#     Edge 67, Type (0, 0), BuildingBlock: AJUNOK_clean_linker_0, # of connection points: 2
#     Edge 68, Type (0, 0), BuildingBlock: AJUNOK_clean_linker_0, # of connection points: 2
#     Edge 69, Type (0, 0), BuildingBlock: AJUNOK_clean_linker_0, # of connection points: 2
#     Edge 70, Type (0, 0), BuildingBlock: AJUNOK_clean_linker_0, # of connection points: 2
#     Edge 71, Type (0, 0), BuildingBlock: AJUNOK_clean_linker_0, # of connection points: 2
# Relax obj value: 0.292
# Max RMSD: 0.376
# Mean RMSD: 0.349
data_MOF--net-smd--node1-CUWYAW_clean_sbu_0--edge1-AJUNOK_clean_linker_0
_symmetry_space_group_name_H-M    P1
_symmetry_Int_Tables_number       1
_symmetry_cell_setting            triclinic
loop_
_symmetry_equiv_pos_as_xyz
'x, y, z'
_cell_length_a     47.496232
_cell_length_b     47.624677
_cell_length_c     20.852141
_cell_angle_alpha  92.685599
_cell_angle_beta   93.006709
_cell_angle_gamma 119.86808
loop_
_atom_site_label
_atom_site_type_symbol
_atom_site_fract_x
_atom_site_fract_y
_atom_site_fract_z
_atom_type_partial_charge
C0 C 0.96793 0.22452 0.36285 0.0
Eu1 Eu 0.99729 0.23598 0.47922 0.0
C2 C 0.97765 0.23114 0.29634 0.0
C3 C 0.95651 0.23304 0.24936 0.0
C4 C 0.96559 0.24018 0.1866 0.0
C5 C 0.99621 0.24597 0.16964 0.0
C6 C 1.01738 0.24407 0.21689 0.0
C7 C 1.00816 0.23665 0.27952 0.0
C8 C 0.97366 0.25959 0.57768 0.0
C9 C 0.05996 0.30327 0.46431 0.0
C10 C 0.062 0.2784 0.71001 0.0
Eu11 Eu 0.0378 0.26047 0.5892 0.0
C12 C 0.05147 0.27458 0.77629 0.0
C13 C 0.07338 0.27753 0.82751 0.0
C14 C 0.06442 0.27442 0.89088 0.0
C15 C 0.03335 0.26857 0.90479 0.0
C16 C 1.01128 0.26538 0.85313 0.0
C17 C 1.02023 0.26831 0.78954 0.0
C18 C 0.07 0.24327 0.50604 0.0
C19 C 0.97423 0.18349 0.57247 0.0
O20 O 0.97356 0.20369 0.39125 0.0
O21 O 0.97505 0.24986 0.40172 0.0
O22 O 0.95691 0.23182 0.54412 0.0
O23 O 1.00167 0.27329 0.55775 0.0
O24 O 0.04024 0.27463 0.43514 0.0
O25 O 0.06151 0.30615 0.5287 0.0
O26 O 0.05411 0.29541 0.6737 0.0
O27 O 0.05899 0.25274 0.6779 0.0
O28 O 0.08283 0.26931 0.54483 0.0
O29 O 0.03905 0.22629 0.51141 0.0
O30 O 0.99235 0.21034 0.61237 0.0
O31 O 0.97648 0.18615 0.51077 0.0
H32 H 0.93295 0.22911 0.26129 0.0
H33 H 0.94879 0.24157 0.15145 0.0
H34 H 0.04094 0.24795 0.20519 0.0
H35 H 0.02497 0.23544 0.31491 0.0
H36 H 0.09751 0.28213 0.81846 0.0
H37 H 0.08173 0.27607 0.92891 0.0
H38 H 0.98713 0.2608 0.86193 0.0
H39 H 1.00277 0.26562 0.7508 0.0
C40 C 0.76471 0.81165 0.70618 0.0
Eu41 Eu 0.77929 0.79786 0.59422 0.0
C42 C 0.76708 0.80411 0.77354 0.0
C43 C 0.73933 0.79181 0.8082 0.0
C44 C 0.74073 0.78399 0.8717 0.0
C45 C 0.77008 0.78877 0.902 0.0
C46 C 0.79788 0.80113 0.86738 0.0
C47 C 0.79635 0.80849 0.80356 0.0
C48 C 0.73093 0.77918 0.49106 0.0
C49 C 0.76713 0.72745 0.6111 0.0
C50 C 0.79475 0.75277 0.37223 0.0
Eu51 Eu 0.79072 0.77213 0.48949 0.0
C52 C 0.78978 0.75797 0.30403 0.0
C53 C 0.8167 0.77209 0.26721 0.0
C54 C 0.81264 0.77626 0.20214 0.0
C55 C 0.78151 0.76624 0.1722 0.0
C56 C 0.75451 0.75212 0.20901 0.0
C57 C 0.75858 0.74788 0.27417 0.0
C58 C 0.84192 0.7872 0.5775 0.0
C59 C 0.80955 0.85063 0.50234 0.0
O60 O 0.79182 0.83073 0.68098 0.0
O61 O 0.7442 0.78723 0.66595 0.0
O62 O 0.74473 0.80666 0.5257 0.0
O63 O 0.74298 0.76281 0.5126 0.0
O64 O 0.77925 0.75618 0.64146 0.0
O65 O 0.76485 0.72559 0.54685 0.0
O66 O 0.76909 0.73769 0.40415 0.0
O67 O 0.81913 0.77679 0.40741 0.0
O68 O 0.82491 0.76002 0.5427 0.0
O69 O 0.82941 0.80542 0.56812 0.0
O70 O 0.79851 0.82368 0.46235 0.0
O71 O 0.81041 0.84742 0.56402 0.0
H72 H 0.71653 0.78834 0.78613 0.0
H73 H 0.71906 0.77485 0.89758 0.0
H74 H 0.82077 0.80495 0.8897 0.0
H75 H 0.81807 0.81766 0.77787 0.0
H76 H 0.84095 0.77969 0.2887 0.0
H77 H 0.83387 0.78702 0.17496 0.0
H78 H 0.73028 0.74464 0.18763 0.0
H79 H 0.7373 0.73659 0.30093 0.0
C80 C 0.27707 0.0596 0.38413 0.0
Eu81 Eu 0.25736 0.02845 0.48775 0.0
C82 C 0.27462 0.05094 0.31419 0.0
C83 C 0.29998 0.07102 0.27745 0.0
C84 C 0.29869 0.06286 0.21147 0.0
C85 C 0.27197 0.03435 0.18085 0.0
C86 C 0.24666 1.01417 0.21796 0.0
C87 C 0.24805 0.02228 0.28403 0.0
C88 C 0.30745 0.05533 0.59127 0.0
C89 C 0.26103 0.96925 0.46164 0.0
C90 C 0.24352 0.9765 0.69719 0.0
Eu91 Eu 0.24214 1.0012 0.58782 0.0
C92 C 0.24967 0.98594 0.76751 0.0
C93 C 0.2269 0.96567 0.80857 0.0
C94 C 0.23174 0.97373 0.87517 0.0
C95 C 0.25966 1.00216 0.90249 0.0
C96 C 0.28266 0.02243 0.86143 0.0
C97 C 0.27767 1.01445 0.79454 0.0
C98 C 0.18401 0.97071 0.5144 0.0
C99 C 0.22848 0.06095 0.57358 0.0
O100 O 0.25045 0.05423 0.40971 0.0
O101 O 0.29445 0.05124 0.42024 0.0
O102 O 0.30784 0.03956 0.53932 0.0
O103 O 0.2797 0.05196 0.58893 0.0
O104 O 0.24717 0.98308 0.43259 0.0
O105 O 0.26686 0.9765 0.52559 0.0
O106 O 0.26817 0.98956 0.66202 0.0
O107 O 0.2173 0.97413 0.6686 0.0
O108 O 0.18885 0.98403 0.5723 0.0
O109 O 0.21156 0.97751 0.49374 0.0
O110 O 0.23908 0.04785 0.61671 0.0
O111 O 0.22749 0.05162 0.51316 0.0
H112 H 0.32085 0.09311 0.29986 0.0
H113 H 0.31833 0.07917 0.18418 0.0
H114 H 0.22585 0.99195 0.19588 0.0
H115 H 0.22842 1.00613 0.31154 0.0
H116 H 0.20519 0.94352 0.78901 0.0
H117 H 0.21366 0.95758 0.9055 0.0
H118 H 0.30417 0.04476 0.88089 0.0
H119 H 0.29558 0.03067 0.76411 0.0
C120 C 0.97368 0.75235 0.37697 0.0
Eu121 Eu 0.9978 0.77104 0.4973 0.0
C122 C 0.98465 0.75803 0.31104 0.0
C123 C 0.97689 0.77713 0.27265 0.0
C124 C 0.98611 0.78201 0.20971 0.0
C125 C 1.00312 0.76773 0.18339 0.0
C126 C 1.01097 0.74865 0.22177 0.0
C127 C 1.00166 0.74368 0.28475 0.0
C128 C 0.96343 0.78696 0.57797 0.0
C129 C 0.06086 0.84791 0.51139 0.0
C130 C 0.06525 0.81116 0.72515 0.0
Eu131 Eu 0.03658 0.79683 0.60811 0.0
C132 C 0.05574 0.80441 0.79171 0.0
C133 C 0.06591 0.78621 0.82735 0.0
C134 C 0.05731 0.77949 0.8903 0.0
C135 C 0.03847 0.79099 0.9191 0.0
C136 C 0.02849 0.8094 0.88367 0.0
C137 C 0.03691 0.81595 0.82054 0.0
C138 C 0.06284 0.7744 0.51386 0.0
C139 C 0.97779 0.7269 0.61918 0.0
O140 O 0.98316 0.73634 0.41279 0.0
O141 O 0.97413 0.77654 0.40999 0.0
O142 O 0.9521 0.76008 0.54231 0.0
O143 O 0.99423 0.80487 0.57264 0.0
O144 O 0.04329 0.82073 0.47219 0.0
O145 O 0.05741 0.84597 0.5729 0.0
O146 O 0.05765 0.83027 0.69506 0.0
O147 O 0.06076 0.78637 0.6875 0.0
O148 O 0.0786 0.80213 0.54766 0.0
O149 O 0.03454 0.75989 0.53194 0.0
O150 O 0.99423 0.75569 0.64998 0.0
O151 O 0.97832 0.72483 0.55532 0.0
H152 H 0.96341 0.78813 0.29114 0.0
H153 H 0.97946 0.7966 0.1812 0.0
H154 H 0.02451 0.73773 0.20328 0.0
H155 H 1.00765 0.72848 0.31258 0.0
H156 H 0.08065 0.77724 0.80652 0.0
H157 H 0.06582 0.76572 0.91681 0.0
H158 H 1.01388 0.81848 0.90467 0.0
H159 H 0.02865 0.83002 0.79446 0.0
C160 C 0.23993 0.27962 0.69665 0.0
Eu161 Eu 0.24217 0.25917 0.57888 0.0
C162 C 0.24514 0.27353 0.76374 0.0
C163 C 0.23345 0.28487 0.81308 0.0
C164 C 0.23697 0.27852 0.87693 0.0
C165 C 0.25232 0.2607 0.89286 0.0
C166 C 0.26433 0.24961 0.84324 0.0
C167 C 0.2608 0.256 0.77918 0.0
C168 C 0.18996 0.24268 0.49351 0.0
C169 C 0.2245 0.18121 0.5688 0.0
C170 C 0.26499 0.21465 0.36156 0.0
Eu171 Eu 0.25247 0.2317 0.47336 0.0
C172 C 0.26164 0.21967 0.29288 0.0
C173 C 0.27663 0.20984 0.24795 0.0
C174 C 0.27515 0.21579 0.18306 0.0
C175 C 0.25913 0.23229 0.16191 0.0
C176 C 0.24364 0.24162 0.20712 0.0
C177 C 0.2447 0.23517 0.27183 0.0
C178 C 0.30333 0.25606 0.57336 0.0
C179 C 0.26347 0.30083 0.45297 0.0
O180 O 0.26552 0.29338 0.66423 0.0
O181 O 0.21485 0.25617 0.66199 0.0
O182 O 0.207 0.27019 0.52731 0.0
O183 O 0.2028 0.22466 0.50248 0.0
O184 O 0.23635 0.20866 0.60747 0.0
O185 O 0.22197 0.18331 0.50712 0.0
O186 O 0.23822 0.19696 0.38879 0.0
O187 O 0.28582 0.24027 0.3988 0.0
O188 O 0.28981 0.22723 0.54378 0.0
O189 O 0.28922 0.26996 0.54944 0.0
O190 O 0.25052 0.27154 0.42498 0.0
O191 O 0.26649 0.3042 0.51732 0.0
H192 H 0.22135 0.29848 0.80212 0.0
H193 H 0.22769 0.28761 0.91399 0.0
H194 H 0.27581 0.23538 0.85368 0.0
H195 H 0.26991 0.24695 0.74168 0.0
H196 H 0.28961 0.19761 0.26312 0.0
H197 H 0.28643 0.20727 0.14944 0.0
H198 H 0.23109 0.25436 0.19268 0.0
H199 H 0.23268 0.24271 0.30554 0.0
C200 C 0.80195 0.05739 0.38238 0.0
Eu201 Eu 0.79518 0.03535 0.49675 0.0
C202 C 0.79505 0.04533 0.31333 0.0
C203 C 0.8204 0.04807 0.27748 0.0
C204 C 0.81461 0.03848 0.21151 0.0
C205 C 0.78336 0.02604 0.1798 0.0
C206 C 0.75796 0.02328 0.21556 0.0
C207 C 0.76376 0.03289 0.28158 0.0
C208 C 0.846 0.07099 0.58681 0.0
C209 C 0.80984 0.97309 0.50382 0.0
C210 C 0.75812 0.96958 0.69765 0.0
Eu211 Eu 0.77913 0.99905 0.593 0.0
C212 C 0.76155 0.9778 0.76796 0.0
C213 C 0.73399 0.97243 0.79921 0.0
C214 C 0.7365 0.97995 0.86564 0.0
C215 C 0.76659 0.99266 0.90237 0.0
C216 C 0.79417 0.9981 0.87101 0.0
C217 C 0.79171 0.99076 0.80451 0.0
C218 C 0.73128 0.97357 0.48706 0.0
C219 C 0.77449 0.06091 0.62307 0.0
O220 O 0.77715 0.0508 0.41538 0.0
O221 O 0.82459 0.05498 0.41559 0.0
O222 O 0.83047 0.08183 0.55323 0.0
O223 O 0.83183 0.03975 0.57578 0.0
O224 O 0.80042 0.98916 0.46504 0.0
O225 O 0.80972 0.97843 0.56539 0.0
O226 O 0.7833 0.97178 0.67076 0.0
O227 O 0.74261 0.98041 0.6626 0.0
O228 O 0.74345 0.95781 0.51485 0.0
O229 O 0.74548 1.00169 0.51484 0.0
O230 O 0.78437 0.04278 0.64958 0.0
O231 O 0.77219 0.05984 0.55897 0.0
H232 H 0.84486 0.05799 0.3003 0.0
H233 H 0.83464 0.04085 0.18516 0.0
H234 H 0.73378 1.01445 0.19223 0.0
H235 H 0.74384 0.03106 0.30738 0.0
H236 H 0.71046 0.96252 0.7721 0.0
H237 H 0.71494 0.97615 0.88807 0.0
H238 H 0.81766 1.00776 0.89809 0.0
H239 H 0.81342 0.99522 0.78189 0.0
C240 C 0.73405 0.60964 1.02369 0.0
Eu241 Eu 0.70488 0.58726 0.90717 0.0
C242 C 0.72523 0.60532 0.09094 0.0
C243 C 0.74894 0.6238 0.14184 0.0
C244 C 0.74076 0.62098 0.2058 0.0
C245 C 0.70859 0.5999 0.22002 0.0
C246 C 0.68491 0.58125 0.16886 0.0
C247 C 0.69319 0.58384 0.10498 0.0
C248 C 0.72714 0.633 0.8125 0.0
C249 C 0.64269 0.58978 0.92379 0.0
C250 C 0.64257 0.55854 0.67672 0.0
Eu251 Eu 0.66642 0.56748 0.79728 0.0
C252 C 0.65347 0.56668 0.61163 0.0
C253 C 0.63054 0.55227 0.55796 0.0
C254 C 0.63995 0.55954 0.49561 0.0
C255 C 0.67256 0.58156 0.48548 0.0
C256 C 0.6956 0.59592 0.53951 0.0
C257 C 0.68612 0.58859 0.60208 0.0
C258 C 0.63352 0.51949 0.87598 0.0
C259 C 0.73223 0.5587 0.81455 0.0
O260 O 0.73321 0.58507 0.99117 0.0
O261 O 0.72158 0.62359 0.98919 0.0
O262 O 0.74467 0.62384 0.84496 0.0
O263 O 0.69908 0.61777 0.83133 0.0
O264 O 0.65996 0.57885 0.95129 0.0
O265 O 0.64434 0.59269 0.86051 0.0
O266 O 0.64708 0.5825 0.7169 0.0
O267 O 0.64912 0.53823 0.70455 0.0
O268 O 0.62071 0.53079 0.83622 0.0
O269 O 0.66475 0.53423 0.87352 0.0
O270 O 0.71444 0.56616 0.77449 0.0
O271 O 0.72664 0.55796 0.87506 0.0
H272 H 0.77378 0.64061 0.13208 0.0
H273 H 0.7595 0.63566 0.24414 0.0
H274 H 0.66005 0.56437 0.17832 0.0
H275 H 0.67454 0.56908 0.06668 0.0
H276 H 0.60526 0.5352 0.56426 0.0
H277 H 0.62175 0.54744 0.45516 0.0
H278 H 0.72089 0.61296 0.53337 0.0
H279 H 0.70424 0.59995 0.64289 0.0
C280 C 0.44372 0.14852 0.03747 0.0
Eu281 Eu 0.45514 0.13587 0.92161 0.0
C282 C 0.44964 0.14129 0.10405 0.0
C283 C 0.42543 0.11382 0.13088 0.0
C284 C 0.43036 0.10716 0.19387 0.0
C285 C 0.45947 0.12799 0.23209 0.0
C286 C 0.48385 0.15525 0.20518 0.0
C287 C 0.47898 0.16187 0.142 0.0
C288 C 0.40117 0.10761 0.82776 0.0
C289 C 0.45341 0.07112 0.94246 0.0
C290 C 0.45875 0.07873 0.69819 0.0
Eu291 Eu 0.46451 0.11034 0.80922 0.0
C292 C 0.4654 0.08432 0.63016 0.0
C293 C 0.49206 0.11279 0.61216 0.0
C294 C 0.49427 0.11969 0.54723 0.0
C295 C 0.46948 0.09864 0.49941 0.0
C296 C 0.4436 0.06953 0.51771 0.0
C297 C 0.44166 0.06247 0.5822 0.0
C298 C 0.52471 0.1492 0.87262 0.0
C299 C 0.47655 0.18528 0.82001 0.0
O300 O 0.4689 0.16915 1.00854 0.0
O301 O 0.42265 0.12372 0.99836 0.0
O302 O 0.41352 0.13628 0.85749 0.0
O303 O 0.41834 0.09609 0.84802 0.0
O304 O 0.46337 0.09985 0.97025 0.0
O305 O 0.44889 0.06735 0.87787 0.0
O306 O 0.4377 0.08637 0.71754 0.0
O307 O 0.48279 0.08703 0.74231 0.0
O308 O 0.51656 0.1509 0.81332 0.0
O309 O 0.49903 0.12966 0.89883 0.0
O310 O 0.4638 0.15774 0.78135 0.0
O311 O 0.4831 0.18384 0.88113 0.0
H312 H 0.40243 0.09755 0.10338 0.0
H313 H 0.41105 0.08603 0.21323 0.0
H314 H 0.50677 0.17148 0.23303 0.0
H315 H 0.49816 0.18323 0.12309 0.0
H316 H 0.51055 0.13014 0.64838 0.0
H317 H 0.51506 0.14185 0.53474 0.0
H318 H 0.42398 0.05279 0.48261 0.0
H319 H 0.42066 0.04053 0.5951 0.0
C320 C 0.90118 0.30435 1.01789 0.0
Eu321 Eu 0.91381 0.33316 0.91046 0.0
C322 C 0.9084 0.31461 0.08763 0.0
C323 C 0.90194 0.29145 0.13231 0.0
C324 C 0.90813 0.30075 0.19866 0.0
C325 C 0.92084 0.33344 0.22166 0.0
C326 C 0.92806 0.3567 0.17651 0.0
C327 C 0.92181 0.34737 0.11021 0.0
C328 C 0.93226 0.3061 0.80817 0.0
C329 C 0.98193 0.39643 0.94586 0.0
C330 C 0.95791 0.39745 0.70426 0.0
Eu331 Eu 0.9328 0.37012 0.80959 0.0
C332 C 0.95241 0.38771 0.63426 0.0
C333 C 0.96079 0.41146 0.59028 0.0
C334 C 0.95588 0.40281 0.5238 0.0
C335 C 0.94237 0.37014 0.49981 0.0
C336 C 0.93443 0.3464 0.54409 0.0
C337 C 0.93925 0.35507 0.61066 0.0
C338 C 0.90093 0.39318 0.8803 0.0
C339 C 0.85767 0.31038 0.80902 0.0
O340 O 0.88136 0.31152 0.98641 0.0
O341 O 0.92605 0.30971 0.98591 0.0
O342 O 0.90572 0.29042 0.83653 0.0
O343 O 0.9468 0.33455 0.83449 0.0
O344 O 0.95842 0.37068 0.96723 0.0
O345 O 0.97839 0.40311 0.88517 0.0
O346 O 0.96926 0.38313 0.74012 0.0
O347 O 0.93515 0.40016 0.7309 0.0
O348 O 0.89459 0.38414 0.81937 0.0
O349 O 0.92128 0.38519 0.90384 0.0
O350 O 0.88286 0.32265 0.77257 0.0
O351 O 0.86418 0.31961 0.87028 0.0
H352 H 0.89182 0.26607 0.1159 0.0
H353 H 0.90236 0.28224 0.23205 0.0
H354 H 0.93863 0.38218 0.19245 0.0
H355 H 0.92728 0.36573 0.07661 0.0
H356 H 0.97123 0.4368 0.60739 0.0
H357 H 0.96293 0.42177 0.49109 0.0
H358 H 0.92399 0.32104 0.5272 0.0
H359 H 0.93262 0.33627 0.64368 0.0
C360 C 0.64615 0.08624 0.69228 0.0
Eu361 Eu 0.67207 0.11642 0.80695 0.0
C362 C 0.65554 0.09434 0.62605 0.0
C363 C 0.63248 0.07894 0.57272 0.0
C364 C 0.64166 0.08578 0.50985 0.0
C365 C 0.67417 0.10796 0.49903 0.0
C366 C 0.69714 0.12347 0.55272 0.0
C367 C 0.68794 0.11674 0.61545 0.0
C368 C 0.6501 0.1523 0.87126 0.0
C369 C 0.73383 0.19096 0.81635 0.0
C370 C 0.73846 0.16391 0.0433 0.0
Eu371 Eu 0.71095 0.14415 0.92517 0.0
C372 C 0.72896 0.1564 0.10969 0.0
C373 C 0.75293 0.16911 0.16191 0.0
C374 C 0.74451 0.16121 0.22478 0.0
C375 C 0.7119 0.14003 0.23678 0.0
C376 C 0.68795 0.12768 0.18424 0.0
C377 C 0.69636 0.13584 0.12152 0.0
C378 C 0.73654 0.11943 0.83435 0.0
C379 C 0.6486 0.07444 0.9361 0.0
O380 O 0.66614 0.08145 0.72881 0.0
O381 O 0.6363 0.10367 0.72349 0.0
O382 O 0.65738 0.15467 0.81202 0.0
O383 O 0.65879 0.13364 0.89706 0.0
O384 O 0.71877 0.16297 0.77945 0.0
O385 O 0.72753 0.19045 0.877 0.0
O386 O 0.72562 0.1783 1.01087 0.0
O387 O 0.73911 0.14092 1.00777 0.0
O388 O 0.7532 0.14751 0.86697 0.0
O389 O 0.70821 0.10661 0.85189 0.0
O390 O 0.67325 0.10006 0.96727 0.0
O391 O 0.64268 0.07381 0.8723 0.0
H392 H 0.60742 0.06144 0.57966 0.0
H393 H 0.62341 0.07337 0.46956 0.0
H394 H 0.72221 0.14111 0.54627 0.0
H395 H 0.70623 0.12894 0.65576 0.0
H396 H 0.77824 0.18517 0.15406 0.0
H397 H 0.76354 0.17201 0.26404 0.0
H398 H 0.6627 0.11135 0.19165 0.0
H399 H 0.6774 0.12599 0.08226 0.0
C400 C 0.95055 0.55951 0.70046 0.0
Eu401 Eu 0.92882 0.56695 0.81007 0.0
C402 C 0.94945 0.56862 0.63381 0.0
C403 C 0.96026 0.55614 0.58473 0.0
C404 C 0.95789 0.56308 0.52072 0.0
C405 C 0.94476 0.58285 0.50432 0.0
C406 C 0.9342 0.59559 0.55391 0.0
C407 C 0.93649 0.58851 0.61797 0.0
C408 C 0.89891 0.51497 0.88226 0.0
C409 C 0.85649 0.55891 0.81483 0.0
C410 C 0.9009 0.60452 1.03116 0.0
Eu411 Eu 0.91339 0.58926 0.91776 0.0
C412 C 0.90961 0.6032 0.09974 0.0
C413 C 0.90188 0.61913 0.14801 0.0
C414 C 0.90896 0.61731 0.21332 0.0
C415 C 0.92412 0.59963 0.23185 0.0
C416 C 0.93214 0.58393 0.18317 0.0
C417 C 0.92501 0.58574 0.1178 0.0
C418 C 0.93183 0.63269 0.81965 0.0
C419 C 0.98197 0.59526 0.9412 0.0
O420 O 0.92289 0.53822 0.72006 0.0
O421 O 0.96777 0.58298 0.74494 0.0
O422 O 0.89087 0.51536 0.82236 0.0
O423 O 0.91991 0.54405 0.90451 0.0
O424 O 0.88147 0.56923 0.77823 0.0
O425 O 0.86266 0.55544 0.87459 0.0
O426 O 0.88238 0.57668 0.99763 0.0
O427 O 0.92431 0.62501 0.99883 0.0
O428 O 0.90736 0.62528 0.85342 0.0
O429 O 0.94528 0.61752 0.84006 0.0
O430 O 0.96119 0.60207 0.96526 0.0
O431 O 0.97506 0.57994 0.88184 0.0
H432 H 0.97005 0.54049 0.59573 0.0
H433 H 0.96556 0.55224 0.48377 0.0
H434 H 0.92405 0.61094 0.5431 0.0
H435 H 0.92776 0.59821 0.65501 0.0
H436 H 0.89008 0.6328 0.13518 0.0
H437 H 0.90263 0.62982 0.24945 0.0
H438 H 0.94329 0.56963 0.19559 0.0
H439 H 0.93116 0.57319 0.08138 0.0
C440 C 0.46595 0.39235 0.70207 0.0
Eu441 Eu 0.45999 0.36885 0.81504 0.0
C442 C 0.46043 0.38221 0.63277 0.0
C443 C 0.47883 0.40511 0.59027 0.0
C444 C 0.47494 0.39626 0.52426 0.0
C445 C 0.45259 0.36425 0.4995 0.0
C446 C 0.43353 0.34144 0.54204 0.0
C447 C 0.43753 0.35032 0.60837 0.0
C448 C 0.51269 0.4041 0.90145 0.0
C449 C 0.47519 0.30707 0.81985 0.0
C450 C 0.42813 0.30439 1.01957 0.0
Eu451 Eu 0.44634 0.33321 0.91312 0.0
C452 C 0.43281 0.31325 0.08937 0.0
C453 C 0.41294 0.29024 0.13035 0.0
C454 C 0.4162 0.29846 0.19666 0.0
C455 C 0.43951 0.32987 0.22311 0.0
C456 C 0.45915 0.35301 0.18166 0.0
C457 C 0.45585 0.34475 0.11531 0.0
C458 C 0.39677 0.30585 0.81021 0.0
C459 C 0.44091 0.39455 0.9437 0.0
O460 O 0.44034 0.38304 0.73394 0.0
O461 O 0.48901 0.3903 0.73426 0.0
O462 O 0.49628 0.41512 0.87141 0.0
O463 O 0.49814 0.37296 0.88996 0.0
O464 O 0.46458 0.32251 0.78191 0.0
O465 O 0.47686 0.31325 0.88168 0.0
O466 O 0.45337 0.30765 0.99135 0.0
O467 O 0.41176 0.31478 0.98606 0.0
O468 O 0.40949 0.29073 0.83866 0.0
O469 O 0.41101 0.33437 0.83638 0.0
O470 O 0.45256 0.37761 0.96908 0.0
O471 O 0.43668 0.39231 0.8796 0.0
H472 H 0.49641 0.42989 0.60826 0.0
H473 H 0.48941 0.4145 0.49246 0.0
H474 H 0.41606 0.31663 0.52414 0.0
H475 H 0.42304 0.3323 0.64054 0.0
H476 H 0.39481 0.26589 0.111 0.0
H477 H 0.40075 0.28016 0.2274 0.0
H478 H 0.47682 0.3776 0.20048 0.0
H479 H 0.47115 0.36297 0.08429 0.0
C480 C 0.30577 0.88417 1.02579 0.0
Eu481 Eu 0.33253 0.90177 0.14475 0.0
C482 C 0.31703 0.89304 0.96041 0.0
C483 C 0.29549 0.8922 0.91051 0.0
C484 C 0.30562 0.90019 0.84846 0.0
C485 C 0.33764 0.90925 0.8345 0.0
C486 C 0.35937 0.91072 0.88513 0.0
C487 C 0.34916 0.90253 0.94705 0.0
C488 C 0.30771 0.92259 0.24476 0.0
C489 C 0.39445 0.9712 0.13007 0.0
C490 C 0.40337 0.95653 0.37436 0.0
Eu491 Eu 0.37486 0.928 0.25944 0.0
C492 C 0.39394 0.95101 0.44179 0.0
C493 C 0.41745 0.95663 0.49213 0.0
C494 C 0.40887 0.95068 0.55565 0.0
C495 C 0.37649 0.93901 0.57063 0.0
C496 C 0.35308 0.93404 0.52032 0.0
C497 C 0.36162 0.9397 0.45666 0.0
C498 C 0.39566 0.8941 0.18542 0.0
C499 C 0.31355 0.85294 0.24814 0.0
O500 O 0.31723 0.86846 0.05777 0.0
O501 O 0.30462 0.90642 0.06287 0.0
O502 O 0.29083 0.89578 0.20783 0.0
O503 O 0.33587 0.93678 0.2257 0.0
O504 O 0.36597 0.94816 0.10504 0.0
O505 O 0.40474 0.96955 0.1905 0.0
O506 O 0.38766 0.96614 0.3367 0.0
O507 O 0.40788 0.93472 0.34416 0.0
O508 O 0.39025 0.89052 0.24555 0.0
O509 O 0.38535 0.91256 0.16469 0.0
O510 O 0.32913 0.88047 0.28659 0.0
O511 O 0.3184 0.85458 0.18685 0.0
H512 H 0.27064 0.88511 0.91942 0.0
H513 H 0.28814 0.89872 0.81101 0.0
H514 H 0.38446 0.91851 0.87715 0.0
H515 H 0.36652 0.90392 0.98471 0.0
H516 H 0.44254 0.96545 0.48225 0.0
H517 H 0.42766 0.95534 0.59321 0.0
H518 H 0.32793 0.92501 0.52993 0.0
H519 H 0.34285 0.93486 0.41896 0.0
C520 C 0.12262 0.50042 0.38621 0.0
Eu521 Eu 0.12978 0.48071 0.27228 0.0
C522 C 0.12485 0.49282 0.45402 0.0
C523 C 0.09788 0.48324 0.4903 0.0
C524 C 0.09922 0.47593 0.55431 0.0
C525 C 0.12774 0.47836 0.584 0.0
C526 C 0.15467 0.48768 0.54745 0.0
C527 C 0.15324 0.49478 0.48318 0.0
C528 C 0.07914 0.45669 0.17282 0.0
C529 C 0.11955 0.41015 0.29055 0.0
C530 C 0.13395 0.4215 0.048 0.0
Eu531 Eu 0.13937 0.45202 0.16014 0.0
C532 C 0.13325 0.42925 0.97966 0.0
C533 C 0.16083 0.43956 0.94479 0.0
C534 C 0.16016 0.44756 0.88095 0.0
C535 C 0.13193 0.44549 0.85058 0.0
C536 C 0.10412 0.43433 0.88488 0.0
C537 C 0.10475 0.42632 0.94843 0.0
C538 C 0.19802 0.48759 0.23153 0.0
C539 C 0.15547 0.52761 0.16578 0.0
O540 O 0.14966 0.51527 0.35772 0.0
O541 O 0.0985 0.47772 0.34792 0.0
O542 O 0.0916 0.48519 0.20354 0.0
O543 O 0.09408 0.44354 0.19612 0.0
O544 O 0.12251 0.43665 0.31898 0.0
O545 O 0.12425 0.40911 0.22775 0.0
O546 O 0.10945 0.41769 0.07916 0.0
O547 O 0.1614 0.43765 0.08416 0.0
O548 O 0.19255 0.49009 0.17119 0.0
O549 O 0.17067 0.46924 0.25408 0.0
O550 O 0.14109 0.49965 0.12853 0.0
O551 O 0.1615 0.52664 0.2274 0.0
H552 H 0.07561 0.48129 0.46897 0.0
H553 H 0.07774 0.46805 0.58037 0.0
H554 H 0.17698 0.48973 0.56875 0.0
H555 H 0.17439 0.5018 0.45646 0.0
H556 H 0.18302 0.44171 0.96702 0.0
H557 H 0.18194 0.45591 0.85568 0.0
H558 H 0.0817 0.43158 0.86241 0.0
H559 H 0.0828 0.41793 0.97307 0.0
C560 C 0.60112 0.7428 0.04062 0.0
Eu561 Eu 0.59121 0.71446 0.14846 0.0
C562 C 0.59716 0.73317 0.9706 0.0
C563 C 0.62019 0.75411 0.93075 0.0
C564 C 0.61806 0.74501 0.86501 0.0
C565 C 0.59295 0.71453 0.83754 0.0
C566 C 0.56937 0.69388 0.87732 0.0
C567 C 0.57153 0.70303 0.94322 0.0
C568 C 0.64187 0.74162 0.24933 0.0
C569 C 0.59891 0.65376 0.1144 0.0
C570 C 0.5831 0.65225 0.35904 0.0
Eu571 Eu 0.57993 0.67756 0.25132 0.0
C572 C 0.58384 0.66116 0.42877 0.0
C573 C 0.56218 0.63815 0.46795 0.0
C574 C 0.5634 0.64612 0.53417 0.0
C575 C 0.58664 0.67714 0.56279 0.0
C576 C 0.60808 0.70023 0.52343 0.0
C577 C 0.60663 0.69241 0.45729 0.0
C578 C 0.52167 0.65301 0.18008 0.0
C579 C 0.56239 0.73607 0.25257 0.0
O580 O 0.57462 0.73324 0.07034 0.0
O581 O 0.62349 0.74024 0.07464 0.0
O582 O 0.629 0.75709 0.22247 0.0
O583 O 0.62701 0.71332 0.22255 0.0
O584 O 0.59524 0.67679 0.09183 0.0
O585 O 0.59415 0.64815 0.17664 0.0
O586 O 0.60823 0.67177 0.32972 0.0
O587 O 0.55603 0.64229 0.32316 0.0
O588 O 0.52697 0.66264 0.24078 0.0
O589 O 0.5491 0.66181 0.15694 0.0
O590 O 0.57746 0.72412 0.28864 0.0
O591 O 0.55665 0.72678 0.19122 0.0
H592 H 0.6401 0.77751 0.95067 0.0
H593 H 0.63615 0.76189 0.83566 0.0
H594 H 0.5498 0.67021 0.85789 0.0
H595 H 0.55356 0.68629 0.97297 0.0
H596 H 0.54441 0.61392 0.44738 0.0
H597 H 0.54654 0.62785 0.56327 0.0
H598 H 0.62586 0.7245 0.54376 0.0
H599 H 0.62348 0.71092 0.42862 0.0
C600 C 0.31688 0.43118 1.03099 0.0
Eu601 Eu 0.34022 0.44905 0.15228 0.0
C602 C 0.32894 0.43339 0.96628 0.0
C603 C 0.3085 0.41081 0.91545 0.0
C604 C 0.3186 0.41325 0.85298 0.0
C605 C 0.34949 0.43835 0.83983 0.0
C606 C 0.37027 0.46054 0.89137 0.0
C607 C 0.36016 0.458 0.954 0.0
C608 C 0.30818 0.46646 0.23524 0.0
C609 C 0.40385 0.52591 0.17239 0.0
C610 C 0.40989 0.48164 0.3791 0.0
Eu611 Eu 0.3805 0.47244 0.2634 0.0
C612 C 0.40101 0.47403 0.446 0.0
C613 C 0.41985 0.49675 0.49806 0.0
C614 C 0.41234 0.48969 0.56166 0.0
C615 C 0.38566 0.45981 0.57454 0.0
C616 C 0.36688 0.43702 0.52248 0.0
C617 C 0.37459 0.44395 0.45897 0.0
C618 C 0.40272 0.44845 0.16327 0.0
C619 C 0.31756 0.40614 0.27569 0.0
O620 O 0.32202 0.45808 0.06155 0.0
O621 O 0.32165 0.41285 0.06926 0.0
O622 O 0.29519 0.4406 0.19591 0.0
O623 O 0.33924 0.48297 0.23093 0.0
O624 O 0.38572 0.49966 0.13097 0.0
O625 O 0.40175 0.52249 0.2339 0.0
O626 O 0.40435 0.50318 0.35365 0.0
O627 O 0.40264 0.45707 0.33776 0.0
O628 O 0.42009 0.47632 0.19624 0.0
O629 O 0.37513 0.43524 0.18448 0.0
O630 O 0.33612 0.43486 0.30539 0.0
O631 O 0.31779 0.40321 0.21179 0.0
H632 H 0.28442 0.39147 0.92389 0.0
H633 H 0.3021 0.39556 0.81475 0.0
H634 H 0.39398 0.4805 0.88302 0.0
H635 H 0.37647 0.47561 0.99254 0.0
H636 H 0.44047 0.52 0.48951 0.0
H637 H 0.42708 0.50781 0.6008 0.0
H638 H 0.3464 0.41369 0.53106 0.0
H639 H 0.36001 0.42568 0.42008 0.0
C640 C 0.5774 0.95597 0.36971 0.0
Eu641 Eu 0.5798 0.93487 0.25239 0.0
C642 C 0.58375 0.95158 0.43782 0.0
C643 C 0.56716 0.95779 0.48512 0.0
C644 C 0.57211 0.95345 0.54987 0.0
C645 C 0.59401 0.943 0.56914 0.0
C646 C 0.61064 0.93673 0.52148 0.0
C647 C 0.60557 0.94098 0.45645 0.0
C648 C 0.52717 0.91592 0.16646 0.0
C649 C 0.56177 0.85675 0.24608 0.0
C650 C 0.60339 0.88998 1.03469 0.0
Eu651 Eu 0.59011 0.90569 0.14694 0.0
C652 C 0.602 0.89775 0.96697 0.0
C653 C 0.62322 0.89579 0.92493 0.0
C654 C 0.62312 0.90405 0.86123 0.0
C655 C 0.60202 0.91482 0.83838 0.0
C656 C 0.58079 0.91682 0.8807 0.0
C657 C 0.58074 0.90832 0.94428 0.0
C658 C 0.64008 0.92908 0.24773 0.0
C659 C 0.59925 0.97417 0.12293 0.0
O660 O 0.55272 0.93139 0.33639 0.0
O661 O 0.60241 0.97046 0.336 0.0
O662 O 0.54375 0.94401 0.19853 0.0
O663 O 0.54083 0.89883 0.17744 0.0
O664 O 0.57327 0.88455 0.28343 0.0
O665 O 0.55997 0.85791 0.18376 0.0
O666 O 0.57577 0.87252 0.05966 0.0
O667 O 0.62466 0.9139 0.07497 0.0
O668 O 0.62677 0.90053 0.21697 0.0
O669 O 0.62654 0.94366 0.22388 0.0
O670 O 0.58728 0.94465 0.09698 0.0
O671 O 0.60243 0.97877 0.18726 0.0
H672 H 0.55004 0.96574 0.47184 0.0
H673 H 0.5582 0.95765 0.58469 0.0
H674 H 0.62765 0.92863 0.53451 0.0
H675 H 0.61852 0.93583 0.42078 0.0
H676 H 0.64005 0.888 0.94151 0.0
H677 H 0.63986 0.90241 0.83002 0.0
H678 H 0.56393 0.92459 0.8644 0.0
H679 H 0.56423 0.9102 0.97578 0.0
C680 C 0.13814 0.73001 0.06107 0.0
Eu681 Eu 0.13395 0.70594 0.17314 0.0
C682 C 0.13207 0.71963 0.99162 0.0
C683 C 0.14592 0.74317 0.94746 0.0
C684 C 0.1409 0.73411 0.88126 0.0
C685 C 0.12153 0.70128 0.85771 0.0
C686 C 0.10766 0.67768 0.90232 0.0
C687 C 0.11303 0.68677 0.96871 0.0
C688 C 0.18488 0.74106 0.26423 0.0
C689 C 0.15418 0.6477 0.17101 0.0
C690 C 0.11239 0.63916 0.38208 0.0
Eu691 Eu 0.12364 0.66755 0.27425 0.0
C692 C 0.11286 0.64851 0.45072 0.0
C693 C 0.09424 0.62458 0.49139 0.0
C694 C 0.09409 0.63299 0.55656 0.0
C695 C 0.11243 0.66557 0.58215 0.0
C696 C 0.13093 0.68954 0.54106 0.0
C697 C 0.13108 0.6811 0.47589 0.0
C698 C 0.07574 0.63848 0.16977 0.0
C699 C 0.10821 0.72416 0.30118 0.0
O700 O 0.11273 0.71982 0.09402 0.0
O701 O 0.16208 0.72897 0.09224 0.0
O702 O 0.16769 0.75152 0.23514 0.0
O703 O 0.17225 0.71052 0.24816 0.0
O704 O 0.14164 0.66239 0.13598 0.0
O705 O 0.15616 0.65209 0.23354 0.0
O706 O 0.14042 0.65171 0.35727 0.0
O707 O 0.08991 0.63923 0.34363 0.0
O708 O 0.08892 0.6241 0.19977 0.0
O709 O 0.08782 0.66665 0.19708 0.0
O710 O 0.12069 0.70803 0.32761 0.0
O711 O 0.10661 0.72449 0.23725 0.0
H712 H 0.16096 0.76863 0.96427 0.0
H713 H 0.15279 0.75283 0.84862 0.0
H714 H 0.09268 0.65219 0.88587 0.0
H715 H 0.1025 0.66818 1.00209 0.0
H716 H 0.07978 0.59934 0.47271 0.0
H717 H 0.07949 0.61403 0.58694 0.0
H718 H 0.14576 0.71476 0.55955 0.0
H719 H 0.14557 0.69999 0.44529 0.0
C720 C 0.08536 0.34992 0.31027 0.0
C721 C 0.10916 0.38188 0.33273 0.0
C722 C 0.07056 0.32519 0.35313 0.0
C723 C 0.07852 0.33074 0.42114 0.0
H724 H 0.07683 0.34427 0.25961 0.0
H725 H 0.05176 0.3015 0.33234 0.0
S726 S 0.14238 0.40926 0.50415 0.0
N727 N 0.14207 0.41693 0.42779 0.0
N728 N 0.11433 0.37075 0.50695 0.0
C729 C 0.10333 0.36224 0.44373 0.0
C730 C 0.11849 0.38749 0.40013 0.0
C731 C 0.69583 0.73993 0.39391 0.0
C732 C 0.70819 0.77025 0.42966 0.0
C733 C 0.67553 0.73155 0.33548 0.0
C734 C 0.66567 0.75264 0.30977 0.0
H735 H 0.70211 0.72242 0.41086 0.0
H736 H 0.6676 0.70816 0.31005 0.0
S737 S 0.69429 0.83661 0.37981 0.0
N738 N 0.71061 0.8224 0.43154 0.0
N739 N 0.67296 0.80683 0.32289 0.0
C740 C 0.67864 0.7834 0.34402 0.0
C741 C 0.69947 0.79204 0.40348 0.0
C742 C 0.2574 0.92334 0.38648 0.0
C743 C 0.27638 0.9548 0.41877 0.0
C744 C 0.26766 0.91292 0.33156 0.0
C745 C 0.29706 0.93368 0.30443 0.0
H746 H 0.23367 0.90697 0.4022 0.0
H747 H 0.25187 0.88857 0.30912 0.0
S748 S 0.35422 0.01969 0.36588 0.0
N749 N 0.3256 1.00689 0.41666 0.0
N750 N 0.34382 0.98838 0.31327 0.0
C751 C 0.31595 0.96533 0.33581 0.0
C752 C 0.3059 0.97556 0.39248 0.0
C753 C 0.34896 0.05371 0.67307 0.0
C754 C 0.33171 0.06894 0.65086 0.0
C755 C 0.36974 0.0652 0.73148 0.0
C756 C 0.37613 0.09374 0.76893 0.0
H757 H 0.34555 0.03204 0.64627 0.0
H758 H 0.38105 0.05152 0.7472 0.0
S759 S 0.33458 0.14081 0.73582 0.0
N760 N 0.32013 0.11226 0.67538 0.0
N761 N 0.36059 0.135 0.78093 0.0
C762 C 0.35842 0.10866 0.74778 0.0
C763 C 0.3362 0.09616 0.68996 0.0
C764 C 0.92265 0.26337 0.71556 0.0
C765 C 0.94312 0.29398 0.75017 0.0
C766 C 0.93236 0.25257 0.66025 0.0
C767 C 0.96301 0.27184 0.6358 0.0
H768 H 0.89875 0.24753 0.73116 0.0
H769 H 0.9156 0.22875 0.6365 0.0
S770 S 0.02631 0.35376 0.70845 0.0
N771 N 0.99647 0.34266 0.75607 0.0
N772 N 1.01347 0.32364 0.65166 0.0
C773 C 0.98351 0.30254 0.66976 0.0
C774 C 0.97397 0.31319 0.72669 0.0
C775 C 0.7239 0.68272 0.67179 0.0
C776 C 0.7559 0.69864 0.65209 0.0
C777 C 0.71481 0.66158 0.72254 0.0
C778 C 0.73724 0.65514 0.75696 0.0
H779 H 0.7059 0.6876 0.64928 0.0
H780 H 0.69 0.6507 0.73578 0.0
S781 S 0.8241 0.68992 0.72404 0.0
N782 N 0.80991 0.70582 0.67159 0.0
N783 N 0.79311 0.66624 0.76486 0.0
C784 C 0.76912 0.67033 0.73662 0.0
C785 C 0.77834 0.69196 0.68522 0.0
C786 C 0.93486 0.69137 0.69282 0.0
C787 C 0.9626 0.69818 0.65987 0.0
C788 C 0.92471 0.66994 0.74301 0.0
C789 C 0.9424 0.65497 0.76461 0.0
H790 H 0.92132 0.70348 0.68094 0.0
H791 H 0.90321 0.66572 0.76617 0.0
S792 S 1.01825 0.66645 0.69781 0.0
N793 N 1.0079 0.68852 0.65427 0.0
N794 N 0.99019 0.65009 0.74923 0.0
C795 C 0.97038 0.66194 0.73232 0.0
C796 C 0.98014 0.68303 0.68026 0.0
C797 C 0.33781 0.24953 0.66439 0.0
C798 C 0.32762 0.26911 0.63311 0.0
C799 C 0.35967 0.26126 0.72134 0.0
C800 C 0.37238 0.29316 0.75062 0.0
H801 H 0.32873 0.22476 0.64484 0.0
H802 H 0.36665 0.24508 0.74265 0.0
S803 S 0.3536 0.3546 0.68898 0.0
N804 N 0.33307 0.32269 0.63619 0.0
N805 N 0.37196 0.34371 0.74353 0.0
C806 C 0.36203 0.31278 0.7202 0.0
C807 C 0.34038 0.30111 0.66168 0.0
C808 C 0.72578 0.07421 0.74947 0.0
C809 C 0.74665 0.10623 0.77751 0.0
C810 C 0.73395 0.0609 0.69624 0.0
C811 C 0.7634 0.0788 0.66746 0.0
H812 H 0.70311 0.05877 0.76997 0.0
H813 H 0.71748 0.03573 0.67897 0.0
S814 S 0.82811 0.16285 0.724 0.0
N815 N 0.79924 0.15495 0.77299 0.0
N816 N 0.81435 0.12999 0.67367 0.0
C817 C 0.78468 0.11073 0.69505 0.0
C818 C 0.77641 0.12435 0.74959 0.0
C819 C 0.67464 0.92099 0.3358 0.0
C820 C 0.66399 0.941 0.3079 0.0
C821 C 0.69597 0.93133 0.39335 0.0
C822 C 0.70761 0.96221 0.42663 0.0
H823 H 0.66636 0.89692 0.31299 0.0
H824 H 0.70341 0.91496 0.41183 0.0
S825 S 0.68691 0.02402 0.37544 0.0
N826 N 0.6679 0.99384 0.3185 0.0
N827 N 0.70561 1.01221 0.42724 0.0
C828 C 0.69687 0.98226 0.39954 0.0
C829 C 0.67583 0.97206 0.34033 0.0
C830 C 0.05349 0.73345 0.41959 0.0
C831 C 0.0745 0.76315 0.45658 0.0
C832 C 0.06376 0.72229 0.36616 0.0
C833 C 0.09552 0.74031 0.34622 0.0
H834 H 0.02894 0.71821 0.43277 0.0
H835 H 0.04694 0.69865 0.34168 0.0
S836 S 0.16093 0.81884 0.42725 0.0
N837 N 0.12933 0.80989 0.46909 0.0
N838 N 0.1483 0.78892 0.36998 0.0
C839 C 0.11678 0.76995 0.38268 0.0
C840 C 0.10639 0.78136 0.43709 0.0
C841 C 0.29498 0.34728 0.30166 0.0
C842 C 0.29952 0.37834 0.31755 0.0
C843 C 0.28353 0.32307 0.346 0.0
C844 C 0.27588 0.32835 0.40886 0.0
H845 H 0.30159 0.34196 0.2556 0.0
H846 H 0.28154 0.30005 0.3311 0.0
S847 S 0.28016 0.40446 0.47258 0.0
N848 N 0.29293 0.41222 0.39985 0.0
N849 N 0.27192 0.36695 0.4822 0.0
C850 C 0.27944 0.35901 0.42474 0.0
C851 C 0.29094 0.38371 0.37945 0.0
C852 C 0.02566 0.44804 1.01555 0.0
C853 C 1.01168 0.41479 0.99407 0.0
C854 C 0.0474 0.46185 0.073 0.0
C855 C 0.05566 0.44292 0.11208 0.0
H856 H 1.01869 0.46314 0.98966 0.0
H857 H 0.05732 0.48738 0.08743 0.0
S858 S 0.02473 0.35453 0.07865 0.0
N859 N 1.00866 0.36387 1.0171 0.0
N860 N 0.04649 0.38869 0.12489 0.0
C861 C 0.04163 0.4098 0.0908 0.0
C862 C 1.02063 0.39617 1.03216 0.0
C863 C 0.61872 0.59174 1.02974 0.0
C864 C 0.62722 0.60333 0.96796 0.0
C865 C 0.60921 0.60727 0.07685 0.0
C866 C 0.6085 0.63582 0.06529 0.0
H867 H 0.62014 0.57074 0.04266 0.0
H868 H 0.60294 0.59713 0.12286 0.0
S869 S 0.63318 0.67879 0.91432 0.0
N870 N 0.6362 0.64613 0.90015 0.0
N871 N 0.62039 0.67635 0.98694 0.0
C872 C 0.61779 0.64795 1.00369 0.0
C873 C 0.62653 0.63156 0.95571 0.0
C874 C 0.41657 1.0129 0.97038 0.0
C875 C 0.44338 0.044 0.98754 0.0
C876 C 0.40224 0.99009 1.01671 0.0
C877 C 0.41377 0.99656 0.08337 0.0
H878 H 0.40529 1.00664 0.92141 0.0
H879 H 0.38095 0.96719 0.99958 0.0
S880 S 0.48579 0.07345 0.15314 0.0
N881 N 0.48261 0.07937 0.07628 0.0
N882 N 0.45581 0.03639 0.16189 0.0
C883 C 0.44168 0.02699 0.10059 0.0
C884 C 0.45627 0.05052 0.05337 0.0
C885 C 0.63076 0.01778 0.96881 0.0
C886 C 0.62955 0.04661 0.9769 0.0
C887 C 0.62124 0.99534 1.01668 0.0
C888 C 0.61026 1.00044 0.07591 0.0
H889 H 0.64074 1.01324 0.92662 0.0
H890 H 0.62345 0.97397 1.00766 0.0
S891 S 0.59888 0.0704 0.11812 0.0
N892 N 0.61408 0.07788 0.0473 0.0
N893 N 0.59632 0.03584 0.13638 0.0
C894 C 0.608 0.02872 0.0838 0.0
C895 C 0.61757 0.05159 1.03476 0.0
C896 C 0.04673 0.64782 0.07508 0.0
C897 C 0.05455 0.62665 0.1062 0.0
C898 C 0.02681 0.63818 1.01653 0.0
C899 C 1.01238 0.6064 0.98595 0.0
H900 H 0.0553 0.67203 0.09707 0.0
H901 H 1.02083 0.65542 0.99699 0.0
S902 S 0.02441 0.54073 0.0466 0.0
N903 N 0.04663 0.57202 0.10014 0.0
N904 N 1.00785 0.55358 0.99213 0.0
C905 C 1.02041 0.58496 1.01555 0.0
C906 C 0.04154 0.59506 0.07502 0.0
C907 C 0.44208 0.45397 0.07778 0.0
C908 C 0.41166 0.43575 0.10356 0.0
C909 C 0.45069 0.44182 1.02287 0.0
C910 C 0.42899 0.4112 0.98958 0.0
H911 H 0.45985 0.47751 0.10128 0.0
H912 H 0.47502 0.45607 1.00773 0.0
S913 S 0.34688 0.35312 0.03728 0.0
N914 N 0.36046 0.38447 0.0914 0.0
N915 N 0.37595 0.36283 0.98814 0.0
C916 C 0.39847 0.39307 1.01428 0.0
C917 C 0.38998 0.405 0.07078 0.0
C918 C 0.1002 0.21185 0.52052 0.0
C919 C 0.09285 0.23197 0.48362 0.0
C920 C 0.13014 0.21175 0.51751 0.0
C921 C 0.15429 0.23191 0.47764 0.0
H922 H 0.08416 0.19839 0.5565 0.0
H923 H 0.13567 0.1982 0.55125 0.0
S924 S 0.14666 0.28784 0.3691 0.0
N925 N 0.11204 0.27119 0.40355 0.0
N926 N 0.1674 0.27117 0.39816 0.0
C927 C 0.14617 0.25042 0.43778 0.0
C928 C 0.11587 0.25043 0.4407 0.0
C929 C 0.79147 0.91685 0.44558 0.0
C930 C 0.81539 0.94519 0.48331 0.0
C931 C 0.7916 0.88681 0.44508 0.0
C932 C 0.81524 0.88348 0.48309 0.0
H933 H 0.77109 0.91709 0.42035 0.0
H934 H 0.77164 0.86551 0.41864 0.0
S935 S 0.88563 0.9511 0.58294 0.0
N936 N 0.86542 0.96819 0.55337 0.0
N937 N 0.86519 0.91273 0.55341 0.0
C938 C 0.84046 0.91228 0.51666 0.0
C939 C 0.84058 0.94264 0.51661 0.0
C940 C 0.11681 0.88098 0.46722 0.0
C941 C 0.08889 0.87946 0.49203 0.0
C942 C 0.14713 0.91084 0.46868 0.0
C943 C 0.15089 0.94065 0.49479 0.0
H944 H 0.11596 0.85866 0.45096 0.0
H945 H 0.16822 0.91011 0.4535 0.0
S946 S 0.08446 0.95073 0.55828 0.0
N947 N 0.06691 0.91131 0.53815 0.0
N948 N 0.12247 0.9665 0.53962 0.0
C949 C 0.12243 0.93952 0.51506 0.0
C950 C 0.09199 0.90936 0.51412 0.0
C951 C 0.24436 0.14699 0.62682 0.0
C952 C 0.22009 0.14906 0.58841 0.0
C953 C 0.24546 0.11755 0.62719 0.0
C954 C 0.22263 0.08903 0.58857 0.0
H955 H 0.26408 0.16878 0.65275 0.0
H956 H 0.26574 0.11791 0.65407 0.0
S957 S 0.15187 0.08019 0.48634 0.0
N958 N 0.17067 0.11843 0.51668 0.0
N959 N 0.17324 0.06441 0.5164 0.0
C960 C 0.19716 0.09039 0.55386 0.0
C961 C 0.19577 0.1199 0.55409 0.0
C962 C 0.89236 0.12478 0.63709 0.0
C963 C 0.88216 0.0947 0.60138 0.0
C964 C 0.92357 0.15262 0.63338 0.0
C965 C 0.94606 0.15214 0.59234 0.0
H966 H 0.87509 0.12753 0.66478 0.0
H967 H 0.9289 0.17538 0.65854 0.0
S968 S 0.9328 0.07936 0.49135 0.0
N969 N 0.89864 0.06616 0.52683 0.0
N970 N 0.95633 0.1179 0.51849 0.0
C971 C 0.93688 0.12174 0.55925 0.0
C972 C 0.90536 0.0933 0.56406 0.0
C973 C 0.91471 0.77873 0.63466 0.0
C974 C 0.93921 0.79762 0.59448 0.0
C975 C 0.88493 0.7789 0.63471 0.0
C976 C 0.87753 0.79776 0.59428 0.0
H977 H 0.91751 0.76162 0.66296 0.0
H978 H 0.86642 0.76208 0.66336 0.0
S979 S 0.93323 0.85235 0.48025 0.0
N980 N 0.95406 0.83681 0.51425 0.0
N981 N 0.89838 0.83692 0.51402 0.0
C982 C 0.90252 0.81822 0.5564 0.0
C983 C 0.93308 0.81816 0.55652 0.0
C984 C 0.79952 0.54138 0.75787 0.0
C985 C 0.82682 0.56274 0.8013 0.0
C986 C 0.76923 0.5412 0.75777 0.0
C987 C 0.76504 0.56246 0.80099 0.0
H988 H 0.80092 0.52344 0.72645 0.0
H989 H 0.74856 0.52313 0.72634 0.0
S990 S 0.82897 0.62399 0.92213 0.0
N991 N 0.84686 0.60602 0.88727 0.0
N992 N 0.79191 0.60646 0.88553 0.0
C993 C 0.79268 0.58473 0.84198 0.0
C994 C 0.82287 0.58465 0.84261 0.0
C995 C 0.50489 0.27611 0.83316 0.0
C996 C 0.47992 0.27876 0.79911 0.0
C997 C 0.50491 0.24646 0.83409 0.0
C998 C 0.47994 0.21728 0.80103 0.0
H999 H 0.52364 0.29685 0.86346 0.0
H1000 H 0.52385 0.24603 0.86461 0.0
S1001 S 0.41002 0.21076 0.69908 0.0
N1002 N 0.43046 0.24943 0.72709 0.0
N1003 N 0.43051 0.19384 0.72848 0.0
C1004 C 0.45594 0.21987 0.76274 0.0
C1005 C 0.45593 0.2504 0.76189 0.0
C1006 C 0.78732 0.22295 0.76272 0.0
C1007 C 0.76176 0.22227 0.796 0.0
C1008 C 0.8177 0.25226 0.7601 0.0
C1009 C 0.82356 0.28232 0.78945 0.0
H1010 H 0.78479 0.20038 0.74274 0.0
H1011 H 0.83746 0.25083 0.73947 0.0
S1012 S 0.76279 0.29487 0.87219 0.0
N1013 N 0.74354 0.25538 0.85169 0.0
N1014 N 0.7992 0.30959 0.8454 0.0
C1015 C 0.79702 0.28216 0.81728 0.0
C1016 C 0.76662 0.25254 0.82085 0.0
C1017 C 0.92617 0.48311 0.92279 0.0
C1018 C 0.89779 0.48402 0.90173 0.0
C1019 C 0.92667 0.45332 0.92271 0.0
C1020 C 0.89876 0.42298 0.90163 0.0
H1021 H 0.9488 0.5057 0.93462 0.0
H1022 H 0.9497 0.45441 0.93442 0.0
S1023 S 0.81761 0.4114 0.84777 0.0
N1024 N 0.84058 0.4511 0.86415 0.0
N1025 N 0.84148 0.39618 0.86402 0.0
C1026 C 0.86995 0.42362 0.88464 0.0
C1027 C 0.86946 0.45366 0.88468 0.0
C1028 C 0.56965 0.42915 0.86345 0.0
C1029 C 0.54909 0.42738 0.91173 0.0
C1030 C 0.59982 0.45798 0.85712 0.0
C1031 C 0.61121 0.48645 0.89907 0.0
H1032 H 0.56089 0.40931 0.82627 0.0
H1033 H 0.61279 0.45892 0.81533 0.0
S1034 S 0.56789 0.49418 1.03587 0.0
N1035 N 0.54364 0.45657 1.00404 0.0
N1036 N 0.59974 0.50971 0.99287 0.0
C1037 C 0.59192 0.48404 0.94999 0.0
C1038 C 0.56122 0.45494 0.95613 0.0
C1039 C 0.59421 0.13117 0.91685 0.0
C1040 C 0.62083 0.15541 0.88717 0.0
C1041 C 0.56378 0.13045 0.91727 0.0
C1042 C 0.55855 0.15394 0.88807 0.0
H1043 H 0.59615 0.11144 0.93622 0.0
H1044 H 0.54366 0.11017 0.93691 0.0
S1045 S 0.62127 0.22459 0.81102 0.0
N1046 N 0.64021 0.20502 0.83335 0.0
N1047 N 0.58407 0.20368 0.83412 0.0
C1048 C 0.58566 0.17926 0.86219 0.0
C1049 C 0.61635 0.17999 0.86175 0.0
C1050 C 0.46791 0.87839 0.18722 0.0
C1051 C 0.49106 0.9035 0.15333 0.0
C1052 C 0.43626 0.87395 0.19278 0.0
C1053 C 0.42591 0.89418 0.16442 0.0
H1054 H 0.47511 0.86372 0.21409 0.0
H1055 H 0.42037 0.85563 0.22297 0.0
S1056 S 0.47617 0.96163 0.06523 0.0
N1057 N 0.50038 0.94752 0.08739 0.0
N1058 N 0.44133 0.93869 0.09626 0.0
C1059 C 0.44806 0.91779 0.12647 0.0
C1060 C 0.48038 0.92257 0.12153 0.0
C1061 C 0.13327 0.59128 0.11485 0.0
C1062 C 0.15936 0.6205 0.14578 0.0
C1063 C 0.13337 0.56136 0.11447 0.0
C1064 C 0.15955 0.5594 0.14517 0.0
H1065 H 0.1114 0.59088 0.09603 0.0
H1066 H 0.11159 0.53928 0.09515 0.0
S1067 S 0.2357 0.62951 0.22435 0.0
N1068 N 0.21353 0.64567 0.20105 0.0
N1069 N 0.21377 0.59043 0.20035 0.0
C1070 C 0.18679 0.58897 0.17096 0.0
C1071 C 0.1867 0.61913 0.17122 0.0
C1072 C 0.46128 0.61768 0.18716 0.0
C1073 C 0.48954 0.62217 0.15913 0.0
C1074 C 0.43264 0.58696 0.18521 0.0
C1075 C 0.43014 0.5587 0.15436 0.0
H1076 H 0.46199 0.63787 0.21491 0.0
H1077 H 0.41281 0.58497 0.21179 0.0
S1078 S 0.49586 0.55661 0.06893 0.0
N1079 N 0.51216 0.59522 0.09579 0.0
N1080 N 0.45836 0.53781 0.09151 0.0
C1081 C 0.45733 0.56301 0.12217 0.0
C1082 C 0.48687 0.59452 0.12459 0.0
C1083 C 0.53276 0.76656 0.23432 0.0
C1084 C 0.55673 0.76388 0.27225 0.0
C1085 C 0.53256 0.79598 0.23235 0.0
C1086 C 0.55607 0.82471 0.26875 0.0
H1087 H 0.51527 0.74623 0.20145 0.0
H1088 H 0.5151 0.79677 0.19795 0.0
S1089 S 0.61902 0.82962 0.38912 0.0
N1090 N 0.60123 0.79173 0.3565 0.0
N1091 N 0.60049 0.84697 0.35324 0.0
C1092 C 0.57782 0.82166 0.31286 0.0
C1093 C 0.57822 0.79138 0.31457 0.0
C1094 C 0.26236 0.82316 0.30726 0.0
C1095 C 0.28487 0.82201 0.26726 0.0
C1096 C 0.23103 0.79568 0.31101 0.0
C1097 C 0.22087 0.76538 0.27651 0.0
H1098 H 0.2679 0.8461 0.33183 0.0
H1099 H 0.21378 0.7988 0.33807 0.0
S1100 S 0.27189 0.7481 0.17107 0.0
N1101 N 0.29545 0.78685 0.19663 0.0
N1102 N 0.23747 0.73561 0.20526 0.0
C1103 C 0.24413 0.76324 0.24062 0.0
C1104 C 0.27575 0.79134 0.23566 0.0
C1105 C 0.25673 0.45746 0.28159 0.0
C1106 C 0.28584 0.4789 0.25436 0.0
C1107 C 0.22944 0.46213 0.28057 0.0
C1108 C 0.22957 0.48822 0.25098 0.0
H1109 H 0.25414 0.43544 0.29989 0.0
H1110 H 0.2072 0.44361 0.29829 0.0
S1111 S 0.30035 0.55305 0.1774 0.0
N1112 N 0.31357 0.52875 0.20149 0.0
N1113 N 0.2627 0.53737 0.1985 0.0
C1114 C 0.25928 0.51101 0.22747 0.0
C1115 C 0.2872 0.50645 0.22936 0.0
C1116 C 0.98447 0.23301 0.04933 0.0
C1117 C 1.00567 0.25319 0.10247 0.0
C1118 C 0.99331 0.23851 0.98581 0.0
C1119 C 0.02369 0.26454 0.97257 0.0
H1120 H 0.96112 0.21227 0.057 0.0
H1121 H 0.9765 0.22168 0.94686 0.0
S1122 S 0.0863 0.32701 0.09418 0.0
N1123 N 0.05731 0.30179 0.13722 0.0
N1124 N 0.07373 0.31249 1.01824 0.0
C1125 C 0.04462 0.28562 1.02524 0.0
C1126 C 0.03568 0.27986 0.08993 0.0
C1127 C 0.79851 0.80144 0.07996 0.0
C1128 C 0.77761 0.7712 0.10305 0.0
C1129 C 0.79591 0.80679 1.01494 0.0
C1130 C 0.77219 0.78218 0.97046 0.0
H1131 H 0.81692 0.82127 0.11257 0.0
H1132 H 0.81239 0.83052 0.99944 0.0
S1133 S 0.71307 0.69795 1.00487 0.0
N1134 N 0.73346 0.71575 0.07528 0.0
N1135 N 0.72828 0.72604 0.95313 0.0
C1136 C 0.75121 0.75177 0.99259 0.0
C1137 C 0.75398 0.74623 0.05884 0.0
C1138 C 0.24094 0.01773 0.07163 0.0
C1139 C 0.26977 0.02623 0.11001 0.0
C1140 C 0.23806 1.01022 1.00485 0.0
C1141 C 0.26389 1.01089 0.97343 0.0
H1142 H 0.22048 0.01725 0.0933 0.0
H1143 H 0.21545 1.0041 0.97741 0.0
S1144 S 0.34373 0.02905 0.05228 0.0
N1145 N 0.32419 0.03326 0.1119 0.0
N1146 N 0.31876 0.01919 0.98637 0.0
C1147 C 0.29281 0.01907 1.01118 0.0
C1148 C 0.29574 0.0267 0.07936 0.0
C1149 C 0.03548 0.81004 1.03135 0.0
C1150 C 0.02969 0.78438 0.98639 0.0
C1151 C 0.02714 0.80446 0.09493 0.0
C1152 C 1.01259 0.77297 0.1161 0.0
H1153 H 0.04679 0.83471 1.01738 0.0
H1154 H 0.03231 0.82504 0.12792 0.0
S1155 S 0.99029 0.69717 1.01593 0.0
N1156 N 1.00739 0.72616 0.96662 0.0
N1157 N 0.99146 0.71558 0.08596 0.0
C1158 C 1.0065 0.74705 0.07148 0.0
C1159 C 1.0151 0.75277 1.00673 0.0
C1160 C 0.22891 0.23446 0.06111 0.0
C1161 C 0.25813 0.23944 0.09295 0.0
C1162 C 0.22729 0.24121 0.99663 0.0
C1163 C 0.25478 0.25312 0.96093 0.0
H1164 H 0.20692 0.22492 0.086 0.0
H1165 H 0.20416 0.23676 0.97432 0.0
S1166 S 0.33752 0.27171 1.02204 0.0
N1167 N 0.3156 0.25823 0.08409 0.0
N1168 N 0.31234 0.27036 0.96271 0.0
C1169 C 0.28416 0.25821 0.99198 0.0
C1170 C 0.28589 0.25153 0.05789 0.0
C1171 C 0.79939 0.03867 0.06774 0.0
C1172 C 0.7778 0.0171 0.10915 0.0
C1173 C 0.79534 0.03068 1.00109 0.0
C1174 C 0.76955 1.00076 0.9731 0.0
H1175 H 0.81955 0.06206 0.08699 0.0
H1176 H 0.8125 0.04818 0.97118 0.0
S1177 S 0.70686 0.93522 0.06062 0.0
N1178 N 0.72997 0.96427 0.1176 0.0
N1179 N 0.7224 0.94913 0.99226 0.0
C1180 C 0.74763 0.97899 1.0139 0.0
C1181 C 0.75174 0.98718 0.08188 0.0
C1182 C 0.71823 0.59105 0.33529 0.0
C1183 C 0.6999 0.59694 0.28812 0.0
C1184 C 0.70968 0.58684 0.39915 0.0
C1185 C 0.68251 0.58845 0.41853 0.0
H1186 H 0.73889 0.58887 0.32236 0.0
H1187 H 0.72398 0.58141 0.4332 0.0
S1188 S 0.62914 0.60766 0.31556 0.0
N1189 N 0.65505 0.60697 0.26656 0.0
N1190 N 0.63915 0.59938 0.38636 0.0
C1191 C 0.66472 0.59554 0.37232 0.0
C1192 C 0.67335 0.59969 0.30728 0.0
C1193 C 0.4598 0.08345 0.37942 0.0
C1194 C 0.46934 0.10735 0.4313 0.0
C1195 C 0.45697 0.09035 0.31537 0.0
C1196 C 0.46392 0.12154 0.30022 0.0
H1197 H 0.45422 0.05905 0.38834 0.0
H1198 H 0.44921 0.07104 0.27739 0.0
S1199 S 0.48778 0.19227 0.41772 0.0
N1200 N 0.48416 0.1632 0.46265 0.0
N1201 N 0.4796 0.17622 0.34247 0.0
C1202 C 0.47363 0.14571 0.35137 0.0
C1203 C 0.4762 0.13863 0.41669 0.0
C1204 C 0.94181 0.3317 0.33429 0.0
C1205 C 0.92614 0.34309 0.29248 0.0
C1206 C 0.94687 0.3404 0.40109 0.0
C1207 C 0.93649 0.36088 0.42884 0.0
H1208 H 0.95061 0.31622 0.31515 0.0
H1209 H 0.9594 0.33136 0.43114 0.0
S1210 S 0.89148 0.39474 0.34163 0.0
N1211 N 0.89842 0.37425 0.28463 0.0
N1212 N 0.90799 0.39063 0.40962 0.0
C1213 C 0.92032 0.37198 0.38774 0.0
C1214 C 0.91514 0.36311 0.31984 0.0
C1215 C 0.67486 0.13088 0.32569 0.0
C1216 C 0.70262 0.13124 0.30373 0.0
C1217 C 0.66569 0.12301 0.38833 0.0
C1218 C 0.68396 0.11533 0.43206 0.0
H1219 H 0.66029 0.13725 0.29454 0.0
H1220 H 0.64442 0.12355 0.40305 0.0
S1221 S 0.75704 0.10987 0.39738 0.0
N1222 N 0.747 0.12093 0.33002 0.0
N1223 N 0.73013 0.10679 0.44775 0.0
C1224 C 0.71146 0.11508 0.41058 0.0
C1225 C 0.72068 0.12286 0.3466 0.0
C1226 C 0.90589 0.58881 0.34399 0.0
C1227 C 0.93051 0.59676 0.3017 0.0
C1228 C 0.91089 0.58495 0.40935 0.0
C1229 C 0.94074 0.58888 0.43541 0.0
H1230 H 0.88224 0.58482 0.32611 0.0
H1231 H 0.89088 0.57805 0.43936 0.0
S1232 S 1.01431 0.61343 0.34714 0.0
N1233 N 0.98672 0.61091 0.29204 0.0
N1234 N 0.99614 0.60373 0.41455 0.0
C1235 C 0.96587 0.59775 0.39409 0.0
C1236 C 0.96076 0.60165 0.32749 0.0
C1237 C 0.41575 0.33084 0.3275 0.0
C1238 C 0.44327 0.33837 0.29379 0.0
C1239 C 0.41883 0.3389 0.39416 0.0
C1240 C 0.44956 0.35482 0.42946 0.0
H1241 H 0.39168 0.31907 0.302 0.0
H1242 H 0.3971 0.33316 0.41802 0.0
S1243 S 0.52877 0.37697 0.36525 0.0
N1244 N 0.50193 0.36065 0.30165 0.0
N1245 N 0.50774 0.37585 0.42662 0.0
C1246 C 0.47715 0.36184 0.39658 0.0
C1247 C 0.47401 0.35363 0.32887 0.0
C1248 C 0.34856 0.94319 0.66804 0.0
C1249 C 0.36706 0.93144 0.63813 0.0
C1250 C 0.33937 0.93615 0.73122 0.0
C1251 C 0.34811 0.91687 0.76741 0.0
H1252 H 0.34139 0.95829 0.64265 0.0
H1253 H 0.32553 0.94618 0.7521 0.0
S1254 S 0.39391 0.87765 0.70904 0.0
N1255 N 0.39224 0.8981 0.64857 0.0
N1256 N 0.37477 0.88456 0.76613 0.0
C1257 C 0.3662 0.9046 0.73753 0.0
C1258 C 0.37568 0.91192 0.67342 0.0
C1259 C 0.14289 0.44293 0.73413 0.0
C1260 C 0.13135 0.45479 0.78326 0.0
C1261 C 0.14192 0.45087 0.67024 0.0
C1262 C 0.12927 0.47091 0.65264 0.0
H1263 H 0.15229 0.42695 0.74492 0.0
H1264 H 0.15076 0.44081 0.63424 0.0
S1265 S 0.09924 0.51111 0.76447 0.0
N1266 N 0.10907 0.48955 0.81075 0.0
N1267 N 0.10721 0.50437 0.69104 0.0
C1268 C 0.11835 0.48352 0.70167 0.0
C1269 C 0.11938 0.47549 0.76672 0.0
C1270 C 0.56204 0.68981 0.72856 0.0
C1271 C 0.59165 0.70418 0.76795 0.0
C1272 C 0.56048 0.68067 0.66268 0.0
C1273 C 0.58848 0.68563 0.63339 0.0
H1274 H 0.53997 0.68616 0.74849 0.0
H1275 H 0.53729 0.67029 0.63412 0.0
S1276 S 0.67113 0.71856 0.71636 0.0
N1277 N 0.64907 0.72021 0.77344 0.0
N1278 N 0.64614 0.70345 0.64997 0.0
C1279 C 0.61802 0.69911 0.6725 0.0
C1280 C 0.6196 0.70827 0.73955 0.0
C1281 C 0.33671 0.4399 0.72162 0.0
C1282 C 0.35903 0.44233 0.772 0.0
C1283 C 0.34532 0.44492 0.65793 0.0
C1284 C 0.37671 0.45288 0.6419 0.0
H1285 H 0.31254 0.4348 0.73166 0.0
H1286 H 0.32749 0.44336 0.62116 0.0
S1287 S 0.44295 0.45825 0.7535 0.0
N1288 N 0.41304 0.45024 0.79968 0.0
N1289 N 0.42934 0.46038 0.68038 0.0
C1290 C 0.39898 0.45449 0.69118 0.0
C1291 C 0.39014 0.44908 0.75602 0.0
C1292 C 0.59919 0.90171 0.71881 0.0
C1293 C 0.60173 0.92333 0.77025 0.0
C1294 C 0.59745 0.90855 0.65423 0.0
C1295 C 0.59831 0.93739 0.63828 0.0
H1296 H 0.5977 0.87887 0.72849 0.0
H1297 H 0.5945 0.89064 0.61648 0.0
S1298 S 0.60917 1.00402 0.75532 0.0
N1299 N 0.60782 0.97602 0.80089 0.0
N1300 N 0.60501 0.98913 0.68007 0.0
C1301 C 0.60212 0.95979 0.68944 0.0
C1302 C 0.60371 0.95271 0.75513 0.0
C1303 C 0.11883 0.65686 0.69858 0.0
C1304 C 0.11307 0.67429 0.652 0.0
C1305 C 0.1209 0.66536 0.76473 0.0
C1306 C 0.11718 0.6916 0.78713 0.0
H1307 H 0.12259 0.63694 0.68378 0.0
H1308 H 0.12634 0.65178 0.79857 0.0
S1309 S 0.09826 0.74288 0.68478 0.0
N1310 N 0.10143 0.71757 0.63279 0.0
N1311 N 0.10495 0.73338 0.75696 0.0
C1312 C 0.11041 0.70861 0.74097 0.0
C1313 C 0.10845 0.70002 0.67357 0.0
loop_
_geom_bond_atom_site_label_1
_geom_bond_atom_site_label_2
_geom_bond_distance
_geom_bond_site_symmetry_2
_ccdc_geom_bond_type
C0 Eu1 2.835 . S
C0 C2 1.500 . S
C0 O20 1.257 1_655 S
C0 O21 1.260 . S
Eu1 C0 2.835 . S
Eu1 O20 2.473 1_655 S
Eu1 O21 2.480 . S
Eu1 O22 2.430 . S
Eu1 O23 2.670 . S
Eu1 O24 2.394 1_655 S
Eu1 O29 2.355 1_655 S
Eu1 O31 2.374 . S
C2 C0 1.500 . S
C2 C3 1.377 . S
C2 C7 1.377 1_655 S
C3 C2 1.377 . S
C3 C4 1.395 . S
C3 H32 0.931 . S
C4 C3 1.395 . S
C4 C5 1.383 1_655 S
C4 H33 0.931 . S
C5 C4 1.383 1_455 S
C5 C6 1.394 . S
C6 C5 1.394 . S
C6 C7 1.378 . S
C6 H34 0.931 . S
C7 C2 1.377 1_455 S
C7 C6 1.378 . S
C7 H35 0.931 . S
C8 O22 1.259 . S
C8 O23 1.270 . S
C9 O24 1.251 . S
C9 O25 1.251 . S
C10 Eu11 2.835 . S
C10 C12 1.500 . S
C10 O26 1.248 1_455 S
C10 O27 1.260 . S
Eu11 C10 2.835 . S
Eu11 O23 2.355 1_455 S
Eu11 O25 2.374 . S
Eu11 O26 2.466 1_455 S
Eu11 O27 2.480 . S
Eu11 O28 2.430 . S
Eu11 O29 2.670 . S
Eu11 O30 2.394 1_455 S
C12 C10 1.500 . S
C12 C13 1.377 . S
C12 C17 1.377 1_455 S
C13 C12 1.377 . S
C13 C14 1.395 . S
C13 H36 0.931 . S
C14 C13 1.395 . S
C14 C15 1.383 . S
C14 H37 0.931 . S
C15 C14 1.383 . S
C15 C16 1.394 1_455 S
C16 C15 1.394 1_655 S
C16 C17 1.378 . S
C16 H38 0.931 . S
C17 C12 1.377 1_655 S
C17 C16 1.378 . S
C17 H39 0.931 . S
C18 O28 1.259 . S
C18 O29 1.270 . S
C19 O30 1.251 . S
C19 O31 1.251 . S
O20 C0 1.257 1_455 S
O20 Eu1 2.473 1_455 S
O21 C0 1.260 . S
O21 Eu1 2.480 . S
O22 Eu1 2.430 . S
O22 C8 1.259 . S
O23 Eu1 2.670 . S
O23 C8 1.270 . S
O23 Eu11 2.355 1_655 S
O24 Eu1 2.394 1_455 S
O24 C9 1.251 . S
O25 C9 1.251 . S
O25 Eu11 2.374 . S
O26 C10 1.248 1_655 S
O26 Eu11 2.466 1_655 S
O27 C10 1.260 . S
O27 Eu11 2.480 . S
O28 Eu11 2.430 . S
O28 C18 1.259 . S
O29 Eu1 2.355 1_455 S
O29 Eu11 2.670 . S
O29 C18 1.270 . S
O30 Eu11 2.394 1_655 S
O30 C19 1.251 . S
O31 Eu1 2.374 . S
O31 C19 1.251 . S
H32 C3 0.931 . S
H33 C4 0.931 . S
H34 C6 0.931 . S
H35 C7 0.931 . S
H36 C13 0.931 . S
H37 C14 0.931 . S
H38 C16 0.931 . S
H39 C17 0.931 . S
C40 Eu41 2.835 . S
C40 C42 1.500 . S
C40 O60 1.257 . S
C40 O61 1.260 . S
Eu41 C40 2.835 . S
Eu41 O60 2.473 . S
Eu41 O61 2.480 . S
Eu41 O62 2.430 . S
Eu41 O63 2.670 . S
Eu41 O64 2.394 . S
Eu41 O69 2.355 . S
Eu41 O71 2.374 . S
C42 C40 1.500 . S
C42 C43 1.377 . S
C42 C47 1.377 . S
C43 C42 1.377 . S
C43 C44 1.395 . S
C43 H72 0.931 . S
C44 C43 1.395 . S
C44 C45 1.383 . S
C44 H73 0.931 . S
C45 C44 1.383 . S
C45 C46 1.394 . S
C46 C45 1.394 . S
C46 C47 1.378 . S
C46 H74 0.931 . S
C47 C42 1.377 . S
C47 C46 1.378 . S
C47 H75 0.931 . S
C48 O62 1.259 . S
C48 O63 1.270 . S
C49 O64 1.251 . S
C49 O65 1.251 . S
C50 Eu51 2.835 . S
C50 C52 1.500 . S
C50 O66 1.257 . S
C50 O67 1.260 . S
Eu51 C50 2.835 . S
Eu51 O63 2.355 . S
Eu51 O65 2.374 . S
Eu51 O66 2.473 . S
Eu51 O67 2.480 . S
Eu51 O68 2.430 . S
Eu51 O69 2.670 . S
Eu51 O70 2.394 . S
C52 C50 1.500 . S
C52 C53 1.377 . S
C52 C57 1.377 . S
C53 C52 1.377 . S
C53 C54 1.395 . S
C53 H76 0.931 . S
C54 C53 1.395 . S
C54 C55 1.383 . S
C54 H77 0.931 . S
C55 C54 1.383 . S
C55 C56 1.394 . S
C56 C55 1.394 . S
C56 C57 1.378 . S
C56 H78 0.931 . S
C57 C52 1.377 . S
C57 C56 1.378 . S
C57 H79 0.931 . S
C58 O68 1.259 . S
C58 O69 1.270 . S
C59 O70 1.251 . S
C59 O71 1.251 . S
O60 C40 1.257 . S
O60 Eu41 2.473 . S
O61 C40 1.260 . S
O61 Eu41 2.480 . S
O62 Eu41 2.430 . S
O62 C48 1.259 . S
O63 Eu41 2.670 . S
O63 C48 1.270 . S
O63 Eu51 2.355 . S
O64 Eu41 2.394 . S
O64 C49 1.251 . S
O65 C49 1.251 . S
O65 Eu51 2.374 . S
O66 C50 1.257 . S
O66 Eu51 2.473 . S
O67 C50 1.260 . S
O67 Eu51 2.480 . S
O68 Eu51 2.430 . S
O68 C58 1.259 . S
O69 Eu41 2.355 . S
O69 Eu51 2.670 . S
O69 C58 1.270 . S
O70 Eu51 2.394 . S
O70 C59 1.251 . S
O71 Eu41 2.374 . S
O71 C59 1.251 . S
H72 C43 0.931 . S
H73 C44 0.931 . S
H74 C46 0.931 . S
H75 C47 0.931 . S
H76 C53 0.931 . S
H77 C54 0.931 . S
H78 C56 0.931 . S
H79 C57 0.931 . S
C80 Eu81 2.835 . S
C80 C82 1.505 . S
C80 O100 1.257 1_545 S
C80 O101 1.260 . S
Eu81 C80 2.835 . S
Eu81 O100 2.473 1_545 S
Eu81 O101 2.480 . S
Eu81 O102 2.430 . S
Eu81 O103 2.670 . S
Eu81 O104 2.394 1_545 S
Eu81 O109 2.355 1_545 S
Eu81 O111 2.374 . S
C82 C80 1.505 . S
C82 C83 1.384 . S
C82 C87 1.367 1_545 S
C83 C82 1.384 . S
C83 C84 1.395 . S
C83 H112 0.931 . S
C84 C83 1.395 . S
C84 C85 1.383 1_545 S
C84 H113 0.931 . S
C85 C84 1.383 1_565 S
C85 C86 1.394 . S
C86 C85 1.394 . S
C86 C87 1.378 . S
C86 H114 0.931 . S
C87 C82 1.367 1_565 S
C87 C86 1.378 . S
C87 H115 0.931 . S
C88 O102 1.259 . S
C88 O103 1.270 . S
C89 O104 1.251 . S
C89 O105 1.251 . S
C90 Eu91 2.835 . S
C90 C92 1.500 1_565 S
C90 O106 1.257 1_565 S
C90 O107 1.260 . S
Eu91 C90 2.835 . S
Eu91 O103 2.355 1_565 S
Eu91 O105 2.374 . S
Eu91 O106 2.473 1_565 S
Eu91 O107 2.480 . S
Eu91 O108 2.430 . S
Eu91 O109 2.670 . S
Eu91 O110 2.394 1_565 S
C92 C90 1.500 1_545 S
C92 C93 1.377 1_545 S
C92 C97 1.377 . S
C93 C92 1.377 1_565 S
C93 C94 1.395 . S
C93 H116 0.931 . S
C94 C93 1.395 . S
C94 C95 1.383 1_565 S
C94 H117 0.931 . S
C95 C94 1.383 1_545 S
C95 C96 1.394 . S
C96 C95 1.394 . S
C96 C97 1.378 . S
C96 H118 0.931 . S
C97 C92 1.377 . S
C97 C96 1.378 . S
C97 H119 0.931 . S
C98 O108 1.259 . S
C98 O109 1.270 . S
C99 O110 1.251 . S
C99 O111 1.251 . S
O100 C80 1.257 1_565 S
O100 Eu81 2.473 1_565 S
O101 C80 1.260 . S
O101 Eu81 2.480 . S
O102 Eu81 2.430 . S
O102 C88 1.259 . S
O103 Eu81 2.670 . S
O103 C88 1.270 . S
O103 Eu91 2.355 1_545 S
O104 Eu81 2.394 1_565 S
O104 C89 1.251 . S
O105 C89 1.251 . S
O105 Eu91 2.374 . S
O106 C90 1.257 1_545 S
O106 Eu91 2.473 1_545 S
O107 C90 1.260 . S
O107 Eu91 2.480 . S
O108 Eu91 2.430 . S
O108 C98 1.259 . S
O109 Eu81 2.355 1_565 S
O109 Eu91 2.670 . S
O109 C98 1.270 . S
O110 Eu91 2.394 1_545 S
O110 C99 1.251 . S
O111 Eu81 2.374 . S
O111 C99 1.251 . S
H112 C83 0.931 . S
H113 C84 0.931 . S
H114 C86 0.931 . S
H115 C87 0.931 . S
H116 C93 0.931 . S
H117 C94 0.931 . S
H118 C96 0.931 . S
H119 C97 0.931 . S
C120 Eu121 2.835 . S
C120 C122 1.500 . S
C120 O140 1.257 1_655 S
C120 O141 1.260 . S
Eu121 C120 2.835 . S
Eu121 O140 2.473 1_655 S
Eu121 O141 2.480 . S
Eu121 O142 2.430 . S
Eu121 O143 2.670 . S
Eu121 O144 2.394 1_655 S
Eu121 O149 2.355 1_655 S
Eu121 O151 2.374 . S
C122 C120 1.500 . S
C122 C123 1.377 . S
C122 C127 1.377 1_655 S
C123 C122 1.377 . S
C123 C124 1.395 . S
C123 H152 0.931 . S
C124 C123 1.395 . S
C124 C125 1.383 1_655 S
C124 H153 0.931 . S
C125 C124 1.383 1_455 S
C125 C126 1.394 . S
C126 C125 1.394 . S
C126 C127 1.378 . S
C126 H154 0.931 . S
C127 C122 1.377 1_455 S
C127 C126 1.378 . S
C127 H155 0.931 . S
C128 O142 1.259 . S
C128 O143 1.270 . S
C129 O144 1.251 . S
C129 O145 1.251 . S
C130 Eu131 2.835 . S
C130 C132 1.500 . S
C130 O146 1.257 1_455 S
C130 O147 1.260 . S
Eu131 C130 2.835 . S
Eu131 O143 2.355 1_455 S
Eu131 O145 2.374 . S
Eu131 O146 2.473 1_455 S
Eu131 O147 2.480 . S
Eu131 O148 2.430 . S
Eu131 O149 2.670 . S
Eu131 O150 2.394 1_455 S
C132 C130 1.500 . S
C132 C133 1.377 . S
C132 C137 1.377 1_455 S
C133 C132 1.377 . S
C133 C134 1.395 . S
C133 H156 0.931 . S
C134 C133 1.395 . S
C134 C135 1.383 . S
C134 H157 0.931 . S
C135 C134 1.383 . S
C135 C136 1.394 1_455 S
C136 C135 1.394 1_655 S
C136 C137 1.378 . S
C136 H158 0.931 . S
C137 C132 1.377 1_655 S
C137 C136 1.378 . S
C137 H159 0.931 . S
C138 O148 1.259 . S
C138 O149 1.270 . S
C139 O150 1.251 . S
C139 O151 1.251 . S
O140 C120 1.257 1_455 S
O140 Eu121 2.473 1_455 S
O141 C120 1.260 . S
O141 Eu121 2.480 . S
O142 Eu121 2.430 . S
O142 C128 1.259 . S
O143 Eu121 2.670 . S
O143 C128 1.270 . S
O143 Eu131 2.355 1_655 S
O144 Eu121 2.394 1_455 S
O144 C129 1.251 . S
O145 C129 1.251 . S
O145 Eu131 2.374 . S
O146 C130 1.257 1_655 S
O146 Eu131 2.473 1_655 S
O147 C130 1.260 . S
O147 Eu131 2.480 . S
O148 Eu131 2.430 . S
O148 C138 1.259 . S
O149 Eu121 2.355 1_455 S
O149 Eu131 2.670 . S
O149 C138 1.270 . S
O150 Eu131 2.394 1_655 S
O150 C139 1.251 . S
O151 Eu121 2.374 . S
O151 C139 1.251 . S
H152 C123 0.931 . S
H153 C124 0.931 . S
H154 C126 0.931 . S
H155 C127 0.931 . S
H156 C133 0.931 . S
H157 C134 0.931 . S
H158 C136 0.931 . S
H159 C137 0.931 . S
C160 Eu161 2.835 . S
C160 C162 1.500 . S
C160 O180 1.257 . S
C160 O181 1.260 . S
Eu161 C160 2.835 . S
Eu161 O180 2.473 . S
Eu161 O181 2.480 . S
Eu161 O182 2.430 . S
Eu161 O183 2.670 . S
Eu161 O184 2.394 . S
Eu161 O189 2.355 . S
Eu161 O191 2.374 . S
C162 C160 1.500 . S
C162 C163 1.377 . S
C162 C167 1.377 . S
C163 C162 1.377 . S
C163 C164 1.395 . S
C163 H192 0.931 . S
C164 C163 1.395 . S
C164 C165 1.383 . S
C164 H193 0.931 . S
C165 C164 1.383 . S
C165 C166 1.394 . S
C166 C165 1.394 . S
C166 C167 1.378 . S
C166 H194 0.931 . S
C167 C162 1.377 . S
C167 C166 1.378 . S
C167 H195 0.931 . S
C168 O182 1.259 . S
C168 O183 1.270 . S
C169 O184 1.251 . S
C169 O185 1.251 . S
C170 Eu171 2.835 . S
C170 C172 1.500 . S
C170 O186 1.257 . S
C170 O187 1.260 . S
Eu171 C170 2.835 . S
Eu171 O183 2.355 . S
Eu171 O185 2.374 . S
Eu171 O186 2.473 . S
Eu171 O187 2.480 . S
Eu171 O188 2.430 . S
Eu171 O189 2.670 . S
Eu171 O190 2.394 . S
C172 C170 1.500 . S
C172 C173 1.377 . S
C172 C177 1.377 . S
C173 C172 1.377 . S
C173 C174 1.395 . S
C173 H196 0.931 . S
C174 C173 1.395 . S
C174 C175 1.383 . S
C174 H197 0.931 . S
C175 C174 1.383 . S
C175 C176 1.394 . S
C176 C175 1.394 . S
C176 C177 1.378 . S
C176 H198 0.931 . S
C177 C172 1.377 . S
C177 C176 1.378 . S
C177 H199 0.931 . S
C178 O188 1.259 . S
C178 O189 1.270 . S
C179 O190 1.251 . S
C179 O191 1.251 . S
O180 C160 1.257 . S
O180 Eu161 2.473 . S
O181 C160 1.260 . S
O181 Eu161 2.480 . S
O182 Eu161 2.430 . S
O182 C168 1.259 . S
O183 Eu161 2.670 . S
O183 C168 1.270 . S
O183 Eu171 2.355 . S
O184 Eu161 2.394 . S
O184 C169 1.251 . S
O185 C169 1.251 . S
O185 Eu171 2.374 . S
O186 C170 1.257 . S
O186 Eu171 2.473 . S
O187 C170 1.260 . S
O187 Eu171 2.480 . S
O188 Eu171 2.430 . S
O188 C178 1.259 . S
O189 Eu161 2.355 . S
O189 Eu171 2.670 . S
O189 C178 1.270 . S
O190 Eu171 2.394 . S
O190 C179 1.251 . S
O191 Eu161 2.374 . S
O191 C179 1.251 . S
H192 C163 0.931 . S
H193 C164 0.931 . S
H194 C166 0.931 . S
H195 C167 0.931 . S
H196 C173 0.931 . S
H197 C174 0.931 . S
H198 C176 0.931 . S
H199 C177 0.931 . S
C200 Eu201 2.835 . S
C200 C202 1.500 . S
C200 O220 1.257 1_545 S
C200 O221 1.260 . S
Eu201 C200 2.835 . S
Eu201 O220 2.473 1_545 S
Eu201 O221 2.480 . S
Eu201 O222 2.430 . S
Eu201 O223 2.670 . S
Eu201 O224 2.394 1_545 S
Eu201 O229 2.355 1_545 S
Eu201 O231 2.374 . S
C202 C200 1.500 . S
C202 C203 1.377 . S
C202 C207 1.377 1_545 S
C203 C202 1.377 . S
C203 C204 1.395 . S
C203 H232 0.931 . S
C204 C203 1.395 . S
C204 C205 1.383 1_545 S
C204 H233 0.931 . S
C205 C204 1.383 1_565 S
C205 C206 1.394 . S
C206 C205 1.394 . S
C206 C207 1.378 . S
C206 H234 0.931 . S
C207 C202 1.377 1_565 S
C207 C206 1.378 . S
C207 H235 0.931 . S
C208 O222 1.259 . S
C208 O223 1.270 . S
C209 O224 1.251 . S
C209 O225 1.251 . S
C210 Eu211 2.835 . S
C210 C212 1.500 1_565 S
C210 O226 1.257 1_565 S
C210 O227 1.260 . S
Eu211 C210 2.835 . S
Eu211 O223 2.355 1_565 S
Eu211 O225 2.374 . S
Eu211 O226 2.473 1_565 S
Eu211 O227 2.480 . S
Eu211 O228 2.430 . S
Eu211 O229 2.670 . S
Eu211 O230 2.394 1_565 S
C212 C210 1.500 1_545 S
C212 C213 1.377 1_545 S
C212 C217 1.377 . S
C213 C212 1.377 1_565 S
C213 C214 1.395 . S
C213 H236 0.931 . S
C214 C213 1.395 . S
C214 C215 1.383 1_565 S
C214 H237 0.931 . S
C215 C214 1.383 1_545 S
C215 C216 1.394 . S
C216 C215 1.394 . S
C216 C217 1.378 . S
C216 H238 0.931 . S
C217 C212 1.377 . S
C217 C216 1.378 . S
C217 H239 0.931 . S
C218 O228 1.259 . S
C218 O229 1.270 . S
C219 O230 1.251 . S
C219 O231 1.251 . S
O220 C200 1.257 1_565 S
O220 Eu201 2.473 1_565 S
O221 C200 1.260 . S
O221 Eu201 2.480 . S
O222 Eu201 2.430 . S
O222 C208 1.259 . S
O223 Eu201 2.670 . S
O223 C208 1.270 . S
O223 Eu211 2.355 1_545 S
O224 Eu201 2.394 1_565 S
O224 C209 1.251 . S
O225 C209 1.251 . S
O225 Eu211 2.374 . S
O226 C210 1.257 1_545 S
O226 Eu211 2.473 1_545 S
O227 C210 1.260 . S
O227 Eu211 2.480 . S
O228 Eu211 2.430 . S
O228 C218 1.259 . S
O229 Eu201 2.355 1_565 S
O229 Eu211 2.670 . S
O229 C218 1.270 . S
O230 Eu211 2.394 1_545 S
O230 C219 1.251 . S
O231 Eu201 2.374 . S
O231 C219 1.251 . S
H232 C203 0.931 . S
H233 C204 0.931 . S
H234 C206 0.931 . S
H235 C207 0.931 . S
H236 C213 0.931 . S
H237 C214 0.931 . S
H238 C216 0.931 . S
H239 C217 0.931 . S
C240 Eu241 2.835 . S
C240 C242 1.500 1_556 S
C240 O260 1.257 . S
C240 O261 1.260 . S
Eu241 C240 2.835 . S
Eu241 O260 2.473 . S
Eu241 O261 2.480 . S
Eu241 O262 2.430 . S
Eu241 O263 2.670 . S
Eu241 O264 2.394 . S
Eu241 O269 2.355 . S
Eu241 O271 2.374 . S
C242 C240 1.500 1_554 S
C242 C243 1.377 . S
C242 C247 1.377 . S
C243 C242 1.377 . S
C243 C244 1.395 . S
C243 H272 0.931 . S
C244 C243 1.395 . S
C244 C245 1.383 . S
C244 H273 0.931 . S
C245 C244 1.383 . S
C245 C246 1.394 . S
C246 C245 1.394 . S
C246 C247 1.378 . S
C246 H274 0.931 . S
C247 C242 1.377 . S
C247 C246 1.378 . S
C247 H275 0.931 . S
C248 O262 1.259 . S
C248 O263 1.270 . S
C249 O264 1.251 . S
C249 O265 1.251 . S
C250 Eu251 2.835 . S
C250 C252 1.500 . S
C250 O266 1.257 . S
C250 O267 1.260 . S
Eu251 C250 2.835 . S
Eu251 O263 2.355 . S
Eu251 O265 2.374 . S
Eu251 O266 2.473 . S
Eu251 O267 2.480 . S
Eu251 O268 2.430 . S
Eu251 O269 2.670 . S
Eu251 O270 2.394 . S
C252 C250 1.500 . S
C252 C253 1.377 . S
C252 C257 1.377 . S
C253 C252 1.377 . S
C253 C254 1.395 . S
C253 H276 0.931 . S
C254 C253 1.395 . S
C254 C255 1.383 . S
C254 H277 0.931 . S
C255 C254 1.383 . S
C255 C256 1.394 . S
C256 C255 1.394 . S
C256 C257 1.378 . S
C256 H278 0.931 . S
C257 C252 1.377 . S
C257 C256 1.378 . S
C257 H279 0.931 . S
C258 O268 1.259 . S
C258 O269 1.270 . S
C259 O270 1.251 . S
C259 O271 1.251 . S
O260 C240 1.257 . S
O260 Eu241 2.473 . S
O261 C240 1.260 . S
O261 Eu241 2.480 . S
O262 Eu241 2.430 . S
O262 C248 1.259 . S
O263 Eu241 2.670 . S
O263 C248 1.270 . S
O263 Eu251 2.355 . S
O264 Eu241 2.394 . S
O264 C249 1.251 . S
O265 C249 1.251 . S
O265 Eu251 2.374 . S
O266 C250 1.257 . S
O266 Eu251 2.473 . S
O267 C250 1.260 . S
O267 Eu251 2.480 . S
O268 Eu251 2.430 . S
O268 C258 1.259 . S
O269 Eu241 2.355 . S
O269 Eu251 2.670 . S
O269 C258 1.270 . S
O270 Eu251 2.394 . S
O270 C259 1.251 . S
O271 Eu241 2.374 . S
O271 C259 1.251 . S
H272 C243 0.931 . S
H273 C244 0.931 . S
H274 C246 0.931 . S
H275 C247 0.931 . S
H276 C253 0.931 . S
H277 C254 0.931 . S
H278 C256 0.931 . S
H279 C257 0.931 . S
C280 Eu281 2.835 . S
C280 C282 1.500 1_556 S
C280 O300 1.257 . S
C280 O301 1.260 . S
Eu281 C280 2.835 . S
Eu281 O300 2.473 . S
Eu281 O301 2.480 . S
Eu281 O302 2.430 . S
Eu281 O303 2.670 . S
Eu281 O304 2.394 . S
Eu281 O309 2.355 . S
Eu281 O311 2.374 . S
C282 C280 1.500 1_554 S
C282 C283 1.377 . S
C282 C287 1.377 . S
C283 C282 1.377 . S
C283 C284 1.395 . S
C283 H312 0.931 . S
C284 C283 1.395 . S
C284 C285 1.383 . S
C284 H313 0.931 . S
C285 C284 1.383 . S
C285 C286 1.394 . S
C286 C285 1.394 . S
C286 C287 1.378 . S
C286 H314 0.931 . S
C287 C282 1.377 . S
C287 C286 1.378 . S
C287 H315 0.931 . S
C288 O302 1.259 . S
C288 O303 1.270 . S
C289 O304 1.251 . S
C289 O305 1.251 . S
C290 Eu291 2.835 . S
C290 C292 1.500 . S
C290 O306 1.257 . S
C290 O307 1.260 . S
Eu291 C290 2.835 . S
Eu291 O303 2.355 . S
Eu291 O305 2.374 . S
Eu291 O306 2.473 . S
Eu291 O307 2.480 . S
Eu291 O308 2.430 . S
Eu291 O309 2.670 . S
Eu291 O310 2.394 . S
C292 C290 1.500 . S
C292 C293 1.377 . S
C292 C297 1.377 . S
C293 C292 1.377 . S
C293 C294 1.395 . S
C293 H316 0.931 . S
C294 C293 1.395 . S
C294 C295 1.383 . S
C294 H317 0.931 . S
C295 C294 1.383 . S
C295 C296 1.394 . S
C296 C295 1.394 . S
C296 C297 1.378 . S
C296 H318 0.931 . S
C297 C292 1.377 . S
C297 C296 1.378 . S
C297 H319 0.931 . S
C298 O308 1.259 . S
C298 O309 1.270 . S
C299 O310 1.251 . S
C299 O311 1.251 . S
O300 C280 1.257 . S
O300 Eu281 2.473 . S
O301 C280 1.260 . S
O301 Eu281 2.480 . S
O302 Eu281 2.430 . S
O302 C288 1.259 . S
O303 Eu281 2.670 . S
O303 C288 1.270 . S
O303 Eu291 2.355 . S
O304 Eu281 2.394 . S
O304 C289 1.251 . S
O305 C289 1.251 . S
O305 Eu291 2.374 . S
O306 C290 1.257 . S
O306 Eu291 2.473 . S
O307 C290 1.260 . S
O307 Eu291 2.480 . S
O308 Eu291 2.430 . S
O308 C298 1.259 . S
O309 Eu281 2.355 . S
O309 Eu291 2.670 . S
O309 C298 1.270 . S
O310 Eu291 2.394 . S
O310 C299 1.251 . S
O311 Eu281 2.374 . S
O311 C299 1.251 . S
H312 C283 0.931 . S
H313 C284 0.931 . S
H314 C286 0.931 . S
H315 C287 0.931 . S
H316 C293 0.931 . S
H317 C294 0.931 . S
H318 C296 0.931 . S
H319 C297 0.931 . S
C320 Eu321 2.835 . S
C320 C322 1.500 1_556 S
C320 O340 1.257 . S
C320 O341 1.260 . S
Eu321 C320 2.835 . S
Eu321 O340 2.473 . S
Eu321 O341 2.480 . S
Eu321 O342 2.430 . S
Eu321 O343 2.670 . S
Eu321 O344 2.394 . S
Eu321 O349 2.355 . S
Eu321 O351 2.374 . S
C322 C320 1.500 1_554 S
C322 C323 1.377 . S
C322 C327 1.377 . S
C323 C322 1.377 . S
C323 C324 1.395 . S
C323 H352 0.931 . S
C324 C323 1.395 . S
C324 C325 1.383 . S
C324 H353 0.931 . S
C325 C324 1.383 . S
C325 C326 1.394 . S
C326 C325 1.394 . S
C326 C327 1.378 . S
C326 H354 0.931 . S
C327 C322 1.377 . S
C327 C326 1.378 . S
C327 H355 0.931 . S
C328 O342 1.259 . S
C328 O343 1.270 . S
C329 O344 1.251 . S
C329 O345 1.251 . S
C330 Eu331 2.835 . S
C330 C332 1.500 . S
C330 O346 1.257 . S
C330 O347 1.260 . S
Eu331 C330 2.835 . S
Eu331 O343 2.355 . S
Eu331 O345 2.374 . S
Eu331 O346 2.473 . S
Eu331 O347 2.480 . S
Eu331 O348 2.430 . S
Eu331 O349 2.670 . S
Eu331 O350 2.394 . S
C332 C330 1.500 . S
C332 C333 1.377 . S
C332 C337 1.377 . S
C333 C332 1.377 . S
C333 C334 1.395 . S
C333 H356 0.931 . S
C334 C333 1.395 . S
C334 C335 1.383 . S
C334 H357 0.931 . S
C335 C334 1.383 . S
C335 C336 1.394 . S
C336 C335 1.394 . S
C336 C337 1.378 . S
C336 H358 0.931 . S
C337 C332 1.377 . S
C337 C336 1.378 . S
C337 H359 0.931 . S
C338 O348 1.259 . S
C338 O349 1.270 . S
C339 O350 1.251 . S
C339 O351 1.251 . S
O340 C320 1.257 . S
O340 Eu321 2.473 . S
O341 C320 1.260 . S
O341 Eu321 2.480 . S
O342 Eu321 2.430 . S
O342 C328 1.259 . S
O343 Eu321 2.670 . S
O343 C328 1.270 . S
O343 Eu331 2.355 . S
O344 Eu321 2.394 . S
O344 C329 1.251 . S
O345 C329 1.251 . S
O345 Eu331 2.374 . S
O346 C330 1.257 . S
O346 Eu331 2.473 . S
O347 C330 1.260 . S
O347 Eu331 2.480 . S
O348 Eu331 2.430 . S
O348 C338 1.259 . S
O349 Eu321 2.355 . S
O349 Eu331 2.670 . S
O349 C338 1.270 . S
O350 Eu331 2.394 . S
O350 C339 1.251 . S
O351 Eu321 2.374 . S
O351 C339 1.251 . S
H352 C323 0.931 . S
H353 C324 0.931 . S
H354 C326 0.931 . S
H355 C327 0.931 . S
H356 C333 0.931 . S
H357 C334 0.931 . S
H358 C336 0.931 . S
H359 C337 0.931 . S
C360 Eu361 2.835 . S
C360 C362 1.500 . S
C360 O380 1.257 . S
C360 O381 1.260 . S
Eu361 C360 2.835 . S
Eu361 O380 2.473 . S
Eu361 O381 2.480 . S
Eu361 O382 2.430 . S
Eu361 O383 2.670 . S
Eu361 O384 2.394 . S
Eu361 O389 2.355 . S
Eu361 O391 2.374 . S
C362 C360 1.500 . S
C362 C363 1.377 . S
C362 C367 1.377 . S
C363 C362 1.377 . S
C363 C364 1.395 . S
C363 H392 0.931 . S
C364 C363 1.395 . S
C364 C365 1.383 . S
C364 H393 0.931 . S
C365 C364 1.383 . S
C365 C366 1.394 . S
C366 C365 1.394 . S
C366 C367 1.378 . S
C366 H394 0.931 . S
C367 C362 1.377 . S
C367 C366 1.378 . S
C367 H395 0.931 . S
C368 O382 1.259 . S
C368 O383 1.270 . S
C369 O384 1.251 . S
C369 O385 1.251 . S
C370 Eu371 2.835 1_554 S
C370 C372 1.500 . S
C370 O386 1.257 1_554 S
C370 O387 1.260 1_554 S
Eu371 C370 2.835 1_556 S
Eu371 O383 2.355 . S
Eu371 O385 2.374 . S
Eu371 O386 2.473 . S
Eu371 O387 2.480 . S
Eu371 O388 2.430 . S
Eu371 O389 2.670 . S
Eu371 O390 2.394 . S
C372 C370 1.500 . S
C372 C373 1.377 . S
C372 C377 1.377 . S
C373 C372 1.377 . S
C373 C374 1.395 . S
C373 H396 0.931 . S
C374 C373 1.395 . S
C374 C375 1.383 . S
C374 H397 0.931 . S
C375 C374 1.383 . S
C375 C376 1.394 . S
C376 C375 1.394 . S
C376 C377 1.378 . S
C376 H398 0.931 . S
C377 C372 1.377 . S
C377 C376 1.378 . S
C377 H399 0.931 . S
C378 O388 1.259 . S
C378 O389 1.270 . S
C379 O390 1.251 . S
C379 O391 1.251 . S
O380 C360 1.257 . S
O380 Eu361 2.473 . S
O381 C360 1.260 . S
O381 Eu361 2.480 . S
O382 Eu361 2.430 . S
O382 C368 1.259 . S
O383 Eu361 2.670 . S
O383 C368 1.270 . S
O383 Eu371 2.355 . S
O384 Eu361 2.394 . S
O384 C369 1.251 . S
O385 C369 1.251 . S
O385 Eu371 2.374 . S
O386 C370 1.257 1_556 S
O386 Eu371 2.473 . S
O387 C370 1.260 1_556 S
O387 Eu371 2.480 . S
O388 Eu371 2.430 . S
O388 C378 1.259 . S
O389 Eu361 2.355 . S
O389 Eu371 2.670 . S
O389 C378 1.270 . S
O390 Eu371 2.394 . S
O390 C379 1.251 . S
O391 Eu361 2.374 . S
O391 C379 1.251 . S
H392 C363 0.931 . S
H393 C364 0.931 . S
H394 C366 0.931 . S
H395 C367 0.931 . S
H396 C373 0.931 . S
H397 C374 0.931 . S
H398 C376 0.931 . S
H399 C377 0.931 . S
C400 Eu401 2.835 . S
C400 C402 1.500 . S
C400 O420 1.257 . S
C400 O421 1.260 . S
Eu401 C400 2.835 . S
Eu401 O420 2.473 . S
Eu401 O421 2.480 . S
Eu401 O422 2.430 . S
Eu401 O423 2.670 . S
Eu401 O424 2.394 . S
Eu401 O429 2.355 . S
Eu401 O431 2.374 . S
C402 C400 1.500 . S
C402 C403 1.377 . S
C402 C407 1.377 . S
C403 C402 1.377 . S
C403 C404 1.395 . S
C403 H432 0.931 . S
C404 C403 1.395 . S
C404 C405 1.383 . S
C404 H433 0.931 . S
C405 C404 1.383 . S
C405 C406 1.394 . S
C406 C405 1.394 . S
C406 C407 1.378 . S
C406 H434 0.931 . S
C407 C402 1.377 . S
C407 C406 1.378 . S
C407 H435 0.931 . S
C408 O422 1.259 . S
C408 O423 1.270 . S
C409 O424 1.251 . S
C409 O425 1.251 . S
C410 Eu411 2.835 1_554 S
C410 C412 1.500 . S
C410 O426 1.257 1_554 S
C410 O427 1.260 . S
Eu411 C410 2.835 1_556 S
Eu411 O423 2.355 . S
Eu411 O425 2.374 . S
Eu411 O426 2.473 . S
Eu411 O427 2.480 1_556 S
Eu411 O428 2.430 . S
Eu411 O429 2.670 . S
Eu411 O430 2.394 . S
C412 C410 1.500 . S
C412 C413 1.377 . S
C412 C417 1.377 . S
C413 C412 1.377 . S
C413 C414 1.395 . S
C413 H436 0.931 . S
C414 C413 1.395 . S
C414 C415 1.383 . S
C414 H437 0.931 . S
C415 C414 1.383 . S
C415 C416 1.394 . S
C416 C415 1.394 . S
C416 C417 1.378 . S
C416 H438 0.931 . S
C417 C412 1.377 . S
C417 C416 1.378 . S
C417 H439 0.931 . S
C418 O428 1.259 . S
C418 O429 1.270 . S
C419 O430 1.251 . S
C419 O431 1.251 . S
O420 C400 1.257 . S
O420 Eu401 2.473 . S
O421 C400 1.260 . S
O421 Eu401 2.480 . S
O422 Eu401 2.430 . S
O422 C408 1.259 . S
O423 Eu401 2.670 . S
O423 C408 1.270 . S
O423 Eu411 2.355 . S
O424 Eu401 2.394 . S
O424 C409 1.251 . S
O425 C409 1.251 . S
O425 Eu411 2.374 . S
O426 C410 1.257 1_556 S
O426 Eu411 2.473 . S
O427 C410 1.260 . S
O427 Eu411 2.480 1_554 S
O428 Eu411 2.430 . S
O428 C418 1.259 . S
O429 Eu401 2.355 . S
O429 Eu411 2.670 . S
O429 C418 1.270 . S
O430 Eu411 2.394 . S
O430 C419 1.251 . S
O431 Eu401 2.374 . S
O431 C419 1.251 . S
H432 C403 0.931 . S
H433 C404 0.931 . S
H434 C406 0.931 . S
H435 C407 0.931 . S
H436 C413 0.931 . S
H437 C414 0.931 . S
H438 C416 0.931 . S
H439 C417 0.931 . S
C440 Eu441 2.835 . S
C440 C442 1.500 . S
C440 O460 1.257 . S
C440 O461 1.260 . S
Eu441 C440 2.835 . S
Eu441 O460 2.473 . S
Eu441 O461 2.480 . S
Eu441 O462 2.430 . S
Eu441 O463 2.670 . S
Eu441 O464 2.394 . S
Eu441 O469 2.355 . S
Eu441 O471 2.374 . S
C442 C440 1.500 . S
C442 C443 1.377 . S
C442 C447 1.377 . S
C443 C442 1.377 . S
C443 C444 1.395 . S
C443 H472 0.931 . S
C444 C443 1.395 . S
C444 C445 1.383 . S
C444 H473 0.931 . S
C445 C444 1.383 . S
C445 C446 1.394 . S
C446 C445 1.394 . S
C446 C447 1.378 . S
C446 H474 0.931 . S
C447 C442 1.377 . S
C447 C446 1.378 . S
C447 H475 0.931 . S
C448 O462 1.259 . S
C448 O463 1.270 . S
C449 O464 1.251 . S
C449 O465 1.251 . S
C450 Eu451 2.835 1_554 S
C450 C452 1.500 . S
C450 O466 1.257 1_554 S
C450 O467 1.260 1_554 S
Eu451 C450 2.835 1_556 S
Eu451 O463 2.355 . S
Eu451 O465 2.374 . S
Eu451 O466 2.473 . S
Eu451 O467 2.480 . S
Eu451 O468 2.430 . S
Eu451 O469 2.670 . S
Eu451 O470 2.394 . S
C452 C450 1.500 . S
C452 C453 1.377 . S
C452 C457 1.377 . S
C453 C452 1.377 . S
C453 C454 1.395 . S
C453 H476 0.931 . S
C454 C453 1.395 . S
C454 C455 1.383 . S
C454 H477 0.931 . S
C455 C454 1.383 . S
C455 C456 1.394 . S
C456 C455 1.394 . S
C456 C457 1.378 . S
C456 H478 0.931 . S
C457 C452 1.377 . S
C457 C456 1.378 . S
C457 H479 0.931 . S
C458 O468 1.259 . S
C458 O469 1.270 . S
C459 O470 1.251 . S
C459 O471 1.251 . S
O460 C440 1.257 . S
O460 Eu441 2.473 . S
O461 C440 1.260 . S
O461 Eu441 2.480 . S
O462 Eu441 2.430 . S
O462 C448 1.259 . S
O463 Eu441 2.670 . S
O463 C448 1.270 . S
O463 Eu451 2.355 . S
O464 Eu441 2.394 . S
O464 C449 1.251 . S
O465 C449 1.251 . S
O465 Eu451 2.374 . S
O466 C450 1.257 1_556 S
O466 Eu451 2.473 . S
O467 C450 1.260 1_556 S
O467 Eu451 2.480 . S
O468 Eu451 2.430 . S
O468 C458 1.259 . S
O469 Eu441 2.355 . S
O469 Eu451 2.670 . S
O469 C458 1.270 . S
O470 Eu451 2.394 . S
O470 C459 1.251 . S
O471 Eu441 2.374 . S
O471 C459 1.251 . S
H472 C443 0.931 . S
H473 C444 0.931 . S
H474 C446 0.931 . S
H475 C447 0.931 . S
H476 C453 0.931 . S
H477 C454 0.931 . S
H478 C456 0.931 . S
H479 C457 0.931 . S
C480 Eu481 2.835 1_556 S
C480 C482 1.500 . S
C480 O500 1.257 . S
C480 O501 1.260 . S
Eu481 C480 2.835 1_554 S
Eu481 O500 2.473 1_554 S
Eu481 O501 2.480 1_554 S
Eu481 O502 2.430 . S
Eu481 O503 2.670 . S
Eu481 O504 2.394 . S
Eu481 O509 2.355 . S
Eu481 O511 2.374 . S
C482 C480 1.500 . S
C482 C483 1.377 . S
C482 C487 1.377 . S
C483 C482 1.377 . S
C483 C484 1.395 . S
C483 H512 0.931 . S
C484 C483 1.395 . S
C484 C485 1.383 . S
C484 H513 0.931 . S
C485 C484 1.383 . S
C485 C486 1.394 . S
C486 C485 1.394 . S
C486 C487 1.378 . S
C486 H514 0.931 . S
C487 C482 1.377 . S
C487 C486 1.378 . S
C487 H515 0.931 . S
C488 O502 1.259 . S
C488 O503 1.270 . S
C489 O504 1.251 . S
C489 O505 1.251 . S
C490 Eu491 2.835 . S
C490 C492 1.500 . S
C490 O506 1.257 . S
C490 O507 1.260 . S
Eu491 C490 2.835 . S
Eu491 O503 2.355 . S
Eu491 O505 2.374 . S
Eu491 O506 2.473 . S
Eu491 O507 2.480 . S
Eu491 O508 2.430 . S
Eu491 O509 2.670 . S
Eu491 O510 2.394 . S
C492 C490 1.500 . S
C492 C493 1.377 . S
C492 C497 1.377 . S
C493 C492 1.377 . S
C493 C494 1.395 . S
C493 H516 0.931 . S
C494 C493 1.395 . S
C494 C495 1.383 . S
C494 H517 0.931 . S
C495 C494 1.383 . S
C495 C496 1.394 . S
C496 C495 1.394 . S
C496 C497 1.378 . S
C496 H518 0.931 . S
C497 C492 1.377 . S
C497 C496 1.378 . S
C497 H519 0.931 . S
C498 O508 1.259 . S
C498 O509 1.270 . S
C499 O510 1.251 . S
C499 O511 1.251 . S
O500 C480 1.257 . S
O500 Eu481 2.473 1_556 S
O501 C480 1.260 . S
O501 Eu481 2.480 1_556 S
O502 Eu481 2.430 . S
O502 C488 1.259 . S
O503 Eu481 2.670 . S
O503 C488 1.270 . S
O503 Eu491 2.355 . S
O504 Eu481 2.394 . S
O504 C489 1.251 . S
O505 C489 1.251 . S
O505 Eu491 2.374 . S
O506 C490 1.257 . S
O506 Eu491 2.473 . S
O507 C490 1.260 . S
O507 Eu491 2.480 . S
O508 Eu491 2.430 . S
O508 C498 1.259 . S
O509 Eu481 2.355 . S
O509 Eu491 2.670 . S
O509 C498 1.270 . S
O510 Eu491 2.394 . S
O510 C499 1.251 . S
O511 Eu481 2.374 . S
O511 C499 1.251 . S
H512 C483 0.931 . S
H513 C484 0.931 . S
H514 C486 0.931 . S
H515 C487 0.931 . S
H516 C493 0.931 . S
H517 C494 0.931 . S
H518 C496 0.931 . S
H519 C497 0.931 . S
C520 Eu521 2.835 . S
C520 C522 1.500 . S
C520 O540 1.257 . S
C520 O541 1.260 . S
Eu521 C520 2.835 . S
Eu521 O540 2.473 . S
Eu521 O541 2.480 . S
Eu521 O542 2.430 . S
Eu521 O543 2.670 . S
Eu521 O544 2.394 . S
Eu521 O549 2.355 . S
Eu521 O551 2.374 . S
C522 C520 1.500 . S
C522 C523 1.377 . S
C522 C527 1.377 . S
C523 C522 1.377 . S
C523 C524 1.395 . S
C523 H552 0.931 . S
C524 C523 1.395 . S
C524 C525 1.383 . S
C524 H553 0.931 . S
C525 C524 1.383 . S
C525 C526 1.394 . S
C526 C525 1.394 . S
C526 C527 1.378 . S
C526 H554 0.931 . S
C527 C522 1.377 . S
C527 C526 1.378 . S
C527 H555 0.931 . S
C528 O542 1.259 . S
C528 O543 1.270 . S
C529 O544 1.251 . S
C529 O545 1.251 . S
C530 Eu531 2.835 1_556 S
C530 C532 1.500 . S
C530 O546 1.257 . S
C530 O547 1.260 . S
Eu531 C530 2.835 1_554 S
Eu531 O543 2.355 . S
Eu531 O545 2.374 . S
Eu531 O546 2.473 1_554 S
Eu531 O547 2.480 1_554 S
Eu531 O548 2.430 . S
Eu531 O549 2.670 . S
Eu531 O550 2.394 . S
C532 C530 1.500 . S
C532 C533 1.377 . S
C532 C537 1.377 . S
C533 C532 1.377 . S
C533 C534 1.395 . S
C533 H556 0.931 . S
C534 C533 1.395 . S
C534 C535 1.383 . S
C534 H557 0.931 . S
C535 C534 1.383 . S
C535 C536 1.394 . S
C536 C535 1.394 . S
C536 C537 1.378 . S
C536 H558 0.931 . S
C537 C532 1.377 . S
C537 C536 1.378 . S
C537 H559 0.931 . S
C538 O548 1.259 . S
C538 O549 1.270 . S
C539 O550 1.251 . S
C539 O551 1.251 . S
O540 C520 1.257 . S
O540 Eu521 2.473 . S
O541 C520 1.260 . S
O541 Eu521 2.480 . S
O542 Eu521 2.430 . S
O542 C528 1.259 . S
O543 Eu521 2.670 . S
O543 C528 1.270 . S
O543 Eu531 2.355 . S
O544 Eu521 2.394 . S
O544 C529 1.251 . S
O545 C529 1.251 . S
O545 Eu531 2.374 . S
O546 C530 1.257 . S
O546 Eu531 2.473 1_556 S
O547 C530 1.260 . S
O547 Eu531 2.480 1_556 S
O548 Eu531 2.430 . S
O548 C538 1.259 . S
O549 Eu521 2.355 . S
O549 Eu531 2.670 . S
O549 C538 1.270 . S
O550 Eu531 2.394 . S
O550 C539 1.251 . S
O551 Eu521 2.374 . S
O551 C539 1.251 . S
H552 C523 0.931 . S
H553 C524 0.931 . S
H554 C526 0.931 . S
H555 C527 0.931 . S
H556 C533 0.931 . S
H557 C534 0.931 . S
H558 C536 0.931 . S
H559 C537 0.931 . S
C560 Eu561 2.835 1_556 S
C560 C562 1.500 . S
C560 O580 1.257 1_556 S
C560 O581 1.260 1_556 S
Eu561 C560 2.835 1_554 S
Eu561 O580 2.473 . S
Eu561 O581 2.480 . S
Eu561 O582 2.430 . S
Eu561 O583 2.670 . S
Eu561 O584 2.394 . S
Eu561 O589 2.355 . S
Eu561 O591 2.374 . S
C562 C560 1.500 . S
C562 C563 1.377 . S
C562 C567 1.377 . S
C563 C562 1.377 . S
C563 C564 1.395 . S
C563 H592 0.931 . S
C564 C563 1.395 . S
C564 C565 1.383 . S
C564 H593 0.931 . S
C565 C564 1.383 . S
C565 C566 1.394 . S
C566 C565 1.394 . S
C566 C567 1.378 . S
C566 H594 0.931 . S
C567 C562 1.377 . S
C567 C566 1.378 . S
C567 H595 0.931 . S
C568 O582 1.259 . S
C568 O583 1.270 . S
C569 O584 1.251 . S
C569 O585 1.251 . S
C570 Eu571 2.835 . S
C570 C572 1.500 . S
C570 O586 1.257 . S
C570 O587 1.260 . S
Eu571 C570 2.835 . S
Eu571 O583 2.355 . S
Eu571 O585 2.374 . S
Eu571 O586 2.473 . S
Eu571 O587 2.480 . S
Eu571 O588 2.430 . S
Eu571 O589 2.670 . S
Eu571 O590 2.394 . S
C572 C570 1.500 . S
C572 C573 1.377 . S
C572 C577 1.377 . S
C573 C572 1.377 . S
C573 C574 1.395 . S
C573 H596 0.931 . S
C574 C573 1.395 . S
C574 C575 1.383 . S
C574 H597 0.931 . S
C575 C574 1.383 . S
C575 C576 1.394 . S
C576 C575 1.394 . S
C576 C577 1.378 . S
C576 H598 0.931 . S
C577 C572 1.377 . S
C577 C576 1.378 . S
C577 H599 0.931 . S
C578 O588 1.259 . S
C578 O589 1.270 . S
C579 O590 1.251 . S
C579 O591 1.251 . S
O580 C560 1.257 1_554 S
O580 Eu561 2.473 . S
O581 C560 1.260 1_554 S
O581 Eu561 2.480 . S
O582 Eu561 2.430 . S
O582 C568 1.259 . S
O583 Eu561 2.670 . S
O583 C568 1.270 . S
O583 Eu571 2.355 . S
O584 Eu561 2.394 . S
O584 C569 1.251 . S
O585 C569 1.251 . S
O585 Eu571 2.374 . S
O586 C570 1.257 . S
O586 Eu571 2.473 . S
O587 C570 1.260 . S
O587 Eu571 2.480 . S
O588 Eu571 2.430 . S
O588 C578 1.259 . S
O589 Eu561 2.355 . S
O589 Eu571 2.670 . S
O589 C578 1.270 . S
O590 Eu571 2.394 . S
O590 C579 1.251 . S
O591 Eu561 2.374 . S
O591 C579 1.251 . S
H592 C563 0.931 . S
H593 C564 0.931 . S
H594 C566 0.931 . S
H595 C567 0.931 . S
H596 C573 0.931 . S
H597 C574 0.931 . S
H598 C576 0.931 . S
H599 C577 0.931 . S
C600 Eu601 2.835 1_556 S
C600 C602 1.500 . S
C600 O620 1.257 1_556 S
C600 O621 1.260 1_556 S
Eu601 C600 2.835 1_554 S
Eu601 O620 2.473 . S
Eu601 O621 2.480 . S
Eu601 O622 2.430 . S
Eu601 O623 2.670 . S
Eu601 O624 2.394 . S
Eu601 O629 2.355 . S
Eu601 O631 2.374 . S
C602 C600 1.500 . S
C602 C603 1.377 . S
C602 C607 1.377 . S
C603 C602 1.377 . S
C603 C604 1.395 . S
C603 H632 0.931 . S
C604 C603 1.395 . S
C604 C605 1.383 . S
C604 H633 0.931 . S
C605 C604 1.383 . S
C605 C606 1.394 . S
C606 C605 1.394 . S
C606 C607 1.378 . S
C606 H634 0.931 . S
C607 C602 1.377 . S
C607 C606 1.378 . S
C607 H635 0.931 . S
C608 O622 1.259 . S
C608 O623 1.270 . S
C609 O624 1.251 . S
C609 O625 1.251 . S
C610 Eu611 2.835 . S
C610 C612 1.500 . S
C610 O626 1.257 . S
C610 O627 1.260 . S
Eu611 C610 2.835 . S
Eu611 O623 2.355 . S
Eu611 O625 2.374 . S
Eu611 O626 2.473 . S
Eu611 O627 2.480 . S
Eu611 O628 2.430 . S
Eu611 O629 2.670 . S
Eu611 O630 2.394 . S
C612 C610 1.500 . S
C612 C613 1.377 . S
C612 C617 1.377 . S
C613 C612 1.377 . S
C613 C614 1.395 . S
C613 H636 0.931 . S
C614 C613 1.395 . S
C614 C615 1.383 . S
C614 H637 0.931 . S
C615 C614 1.383 . S
C615 C616 1.394 . S
C616 C615 1.394 . S
C616 C617 1.378 . S
C616 H638 0.931 . S
C617 C612 1.377 . S
C617 C616 1.378 . S
C617 H639 0.931 . S
C618 O628 1.259 . S
C618 O629 1.270 . S
C619 O630 1.251 . S
C619 O631 1.251 . S
O620 C600 1.257 1_554 S
O620 Eu601 2.473 . S
O621 C600 1.260 1_554 S
O621 Eu601 2.480 . S
O622 Eu601 2.430 . S
O622 C608 1.259 . S
O623 Eu601 2.670 . S
O623 C608 1.270 . S
O623 Eu611 2.355 . S
O624 Eu601 2.394 . S
O624 C609 1.251 . S
O625 C609 1.251 . S
O625 Eu611 2.374 . S
O626 C610 1.257 . S
O626 Eu611 2.473 . S
O627 C610 1.260 . S
O627 Eu611 2.480 . S
O628 Eu611 2.430 . S
O628 C618 1.259 . S
O629 Eu601 2.355 . S
O629 Eu611 2.670 . S
O629 C618 1.270 . S
O630 Eu611 2.394 . S
O630 C619 1.251 . S
O631 Eu601 2.374 . S
O631 C619 1.251 . S
H632 C603 0.931 . S
H633 C604 0.931 . S
H634 C606 0.931 . S
H635 C607 0.931 . S
H636 C613 0.931 . S
H637 C614 0.931 . S
H638 C616 0.931 . S
H639 C617 0.931 . S
C640 Eu641 2.835 . S
C640 C642 1.500 . S
C640 O660 1.257 . S
C640 O661 1.260 . S
Eu641 C640 2.835 . S
Eu641 O660 2.473 . S
Eu641 O661 2.480 . S
Eu641 O662 2.430 . S
Eu641 O663 2.670 . S
Eu641 O664 2.394 . S
Eu641 O669 2.355 . S
Eu641 O671 2.374 . S
C642 C640 1.500 . S
C642 C643 1.377 . S
C642 C647 1.377 . S
C643 C642 1.377 . S
C643 C644 1.395 . S
C643 H672 0.931 . S
C644 C643 1.395 . S
C644 C645 1.383 . S
C644 H673 0.931 . S
C645 C644 1.383 . S
C645 C646 1.394 . S
C646 C645 1.394 . S
C646 C647 1.378 . S
C646 H674 0.931 . S
C647 C642 1.377 . S
C647 C646 1.378 . S
C647 H675 0.931 . S
C648 O662 1.259 . S
C648 O663 1.270 . S
C649 O664 1.251 . S
C649 O665 1.251 . S
C650 Eu651 2.835 . S
C650 C652 1.500 1_554 S
C650 O666 1.257 . S
C650 O667 1.260 . S
Eu651 C650 2.835 . S
Eu651 O663 2.355 . S
Eu651 O665 2.374 . S
Eu651 O666 2.473 . S
Eu651 O667 2.480 . S
Eu651 O668 2.430 . S
Eu651 O669 2.670 . S
Eu651 O670 2.394 . S
C652 C650 1.500 1_556 S
C652 C653 1.377 . S
C652 C657 1.377 . S
C653 C652 1.377 . S
C653 C654 1.395 . S
C653 H676 0.931 . S
C654 C653 1.395 . S
C654 C655 1.383 . S
C654 H677 0.931 . S
C655 C654 1.383 . S
C655 C656 1.394 . S
C656 C655 1.394 . S
C656 C657 1.378 . S
C656 H678 0.931 . S
C657 C652 1.377 . S
C657 C656 1.378 . S
C657 H679 0.931 . S
C658 O668 1.259 . S
C658 O669 1.270 . S
C659 O670 1.251 . S
C659 O671 1.251 . S
O660 C640 1.257 . S
O660 Eu641 2.473 . S
O661 C640 1.260 . S
O661 Eu641 2.480 . S
O662 Eu641 2.430 . S
O662 C648 1.259 . S
O663 Eu641 2.670 . S
O663 C648 1.270 . S
O663 Eu651 2.355 . S
O664 Eu641 2.394 . S
O664 C649 1.251 . S
O665 C649 1.251 . S
O665 Eu651 2.374 . S
O666 C650 1.257 . S
O666 Eu651 2.473 . S
O667 C650 1.260 . S
O667 Eu651 2.480 . S
O668 Eu651 2.430 . S
O668 C658 1.259 . S
O669 Eu641 2.355 . S
O669 Eu651 2.670 . S
O669 C658 1.270 . S
O670 Eu651 2.394 . S
O670 C659 1.251 . S
O671 Eu641 2.374 . S
O671 C659 1.251 . S
H672 C643 0.931 . S
H673 C644 0.931 . S
H674 C646 0.931 . S
H675 C647 0.931 . S
H676 C653 0.931 . S
H677 C654 0.931 . S
H678 C656 0.931 . S
H679 C657 0.931 . S
C680 Eu681 2.835 . S
C680 C682 1.500 1_554 S
C680 O700 1.257 . S
C680 O701 1.260 . S
Eu681 C680 2.835 . S
Eu681 O700 2.473 . S
Eu681 O701 2.480 . S
Eu681 O702 2.430 . S
Eu681 O703 2.670 . S
Eu681 O704 2.394 . S
Eu681 O709 2.355 . S
Eu681 O711 2.374 . S
C682 C680 1.500 1_556 S
C682 C683 1.377 . S
C682 C687 1.377 . S
C683 C682 1.377 . S
C683 C684 1.395 . S
C683 H712 0.931 . S
C684 C683 1.395 . S
C684 C685 1.383 . S
C684 H713 0.931 . S
C685 C684 1.383 . S
C685 C686 1.394 . S
C686 C685 1.394 . S
C686 C687 1.378 . S
C686 H714 0.931 . S
C687 C682 1.377 . S
C687 C686 1.378 . S
C687 H715 0.931 . S
C688 O702 1.259 . S
C688 O703 1.270 . S
C689 O704 1.251 . S
C689 O705 1.251 . S
C690 Eu691 2.835 . S
C690 C692 1.500 . S
C690 O706 1.257 . S
C690 O707 1.260 . S
Eu691 C690 2.835 . S
Eu691 O703 2.355 . S
Eu691 O705 2.374 . S
Eu691 O706 2.473 . S
Eu691 O707 2.480 . S
Eu691 O708 2.430 . S
Eu691 O709 2.670 . S
Eu691 O710 2.394 . S
C692 C690 1.500 . S
C692 C693 1.377 . S
C692 C697 1.377 . S
C693 C692 1.377 . S
C693 C694 1.395 . S
C693 H716 0.931 . S
C694 C693 1.395 . S
C694 C695 1.383 . S
C694 H717 0.931 . S
C695 C694 1.383 . S
C695 C696 1.394 . S
C696 C695 1.394 . S
C696 C697 1.378 . S
C696 H718 0.931 . S
C697 C692 1.377 . S
C697 C696 1.378 . S
C697 H719 0.931 . S
C698 O708 1.259 . S
C698 O709 1.270 . S
C699 O710 1.251 . S
C699 O711 1.251 . S
O700 C680 1.257 . S
O700 Eu681 2.473 . S
O701 C680 1.260 . S
O701 Eu681 2.480 . S
O702 Eu681 2.430 . S
O702 C688 1.259 . S
O703 Eu681 2.670 . S
O703 C688 1.270 . S
O703 Eu691 2.355 . S
O704 Eu681 2.394 . S
O704 C689 1.251 . S
O705 C689 1.251 . S
O705 Eu691 2.374 . S
O706 C690 1.257 . S
O706 Eu691 2.473 . S
O707 C690 1.260 . S
O707 Eu691 2.480 . S
O708 Eu691 2.430 . S
O708 C698 1.259 . S
O709 Eu681 2.355 . S
O709 Eu691 2.670 . S
O709 C698 1.270 . S
O710 Eu691 2.394 . S
O710 C699 1.251 . S
O711 Eu681 2.374 . S
O711 C699 1.251 . S
H712 C683 0.931 . S
H713 C684 0.931 . S
H714 C686 0.931 . S
H715 C687 0.931 . S
H716 C693 0.931 . S
H717 C694 0.931 . S
H718 C696 0.931 . S
H719 C697 0.931 . S
C720 C721 1.369 . S
C720 C722 1.419 . S
C720 H724 0.930 . S
C721 C720 1.369 . S
C721 C730 1.429 . S
C722 C720 1.419 . S
C722 C723 1.363 . S
C722 H725 0.929 . S
C723 C722 1.363 . S
C723 C729 1.428 . S
H724 C720 0.930 . S
H725 C722 0.929 . S
S726 N727 1.613 . S
S726 N728 1.610 . S
N727 S726 1.613 . S
N727 C730 1.350 . S
N728 S726 1.610 . S
N728 C729 1.351 . S
C729 C723 1.428 . S
C729 N728 1.351 . S
C729 C730 1.434 . S
C730 C721 1.429 . S
C730 N727 1.350 . S
C730 C729 1.434 . S
C731 C732 1.369 . S
C731 C733 1.419 . S
C731 H735 0.930 . S
C732 C731 1.369 . S
C732 C741 1.429 . S
C733 C731 1.419 . S
C733 C734 1.363 . S
C733 H736 0.929 . S
C734 C733 1.363 . S
C734 C740 1.428 . S
H735 C731 0.930 . S
H736 C733 0.929 . S
S737 N738 1.613 . S
S737 N739 1.610 . S
N738 S737 1.613 . S
N738 C741 1.350 . S
N739 S737 1.610 . S
N739 C740 1.351 . S
C740 C734 1.428 . S
C740 N739 1.351 . S
C740 C741 1.434 . S
C741 C732 1.429 . S
C741 N738 1.350 . S
C741 C740 1.434 . S
C742 C743 1.369 . S
C742 C744 1.419 . S
C742 H746 0.930 . S
C743 C742 1.369 . S
C743 C752 1.429 . S
C744 C742 1.419 . S
C744 C745 1.363 . S
C744 H747 0.929 . S
C745 C744 1.363 . S
C745 C751 1.428 . S
H746 C742 0.930 . S
H747 C744 0.929 . S
S748 N749 1.619 . S
S748 N750 1.610 1_545 S
N749 S748 1.619 . S
N749 C752 1.327 1_545 S
N750 S748 1.610 1_565 S
N750 C751 1.351 . S
C751 C745 1.428 . S
C751 N750 1.351 . S
C751 C752 1.434 . S
C752 C743 1.429 . S
C752 N749 1.327 1_565 S
C752 C751 1.434 . S
C753 C754 1.369 . S
C753 C755 1.419 . S
C753 H757 0.930 . S
C754 C753 1.369 . S
C754 C763 1.429 . S
C755 C753 1.419 . S
C755 C756 1.363 . S
C755 H758 0.929 . S
C756 C755 1.363 . S
C756 C762 1.428 . S
H757 C753 0.930 . S
H758 C755 0.929 . S
S759 N760 1.613 . S
S759 N761 1.610 . S
N760 S759 1.613 . S
N760 C763 1.350 . S
N761 S759 1.610 . S
N761 C762 1.351 . S
C762 C756 1.428 . S
C762 N761 1.351 . S
C762 C763 1.434 . S
C763 C754 1.429 . S
C763 N760 1.350 . S
C763 C762 1.434 . S
C764 C765 1.369 . S
C764 C766 1.419 . S
C764 H768 0.930 . S
C765 C764 1.369 . S
C765 C774 1.429 . S
C766 C764 1.419 . S
C766 C767 1.363 . S
C766 H769 0.929 . S
C767 C766 1.363 . S
C767 C773 1.428 . S
H768 C764 0.930 . S
H769 C766 0.929 . S
S770 N771 1.613 . S
S770 N772 1.610 . S
N771 S770 1.613 . S
N771 C774 1.350 . S
N772 S770 1.610 . S
N772 C773 1.351 . S
C773 C767 1.428 . S
C773 N772 1.351 . S
C773 C774 1.434 . S
C774 C765 1.429 . S
C774 N771 1.350 . S
C774 C773 1.434 . S
C775 C776 1.369 . S
C775 C777 1.419 . S
C775 H779 0.930 . S
C776 C775 1.369 . S
C776 C785 1.429 . S
C777 C775 1.419 . S
C777 C778 1.363 . S
C777 H780 0.929 . S
C778 C777 1.363 . S
C778 C784 1.428 . S
H779 C775 0.930 . S
H780 C777 0.929 . S
S781 N782 1.613 . S
S781 N783 1.610 . S
N782 S781 1.613 . S
N782 C785 1.350 . S
N783 S781 1.610 . S
N783 C784 1.351 . S
C784 C778 1.428 . S
C784 N783 1.351 . S
C784 C785 1.434 . S
C785 C776 1.429 . S
C785 N782 1.350 . S
C785 C784 1.434 . S
C786 C787 1.369 . S
C786 C788 1.419 . S
C786 H790 0.930 . S
C787 C786 1.369 . S
C787 C796 1.429 . S
C788 C786 1.419 . S
C788 C789 1.363 . S
C788 H791 0.929 . S
C789 C788 1.363 . S
C789 C795 1.428 . S
H790 C786 0.930 . S
H791 C788 0.929 . S
S792 N793 1.613 . S
S792 N794 1.610 . S
N793 S792 1.613 . S
N793 C796 1.350 . S
N794 S792 1.610 . S
N794 C795 1.351 . S
C795 C789 1.428 . S
C795 N794 1.351 . S
C795 C796 1.434 . S
C796 C787 1.429 . S
C796 N793 1.350 . S
C796 C795 1.434 . S
C797 C798 1.369 . S
C797 C799 1.419 . S
C797 H801 0.930 . S
C798 C797 1.369 . S
C798 C807 1.429 . S
C799 C797 1.419 . S
C799 C800 1.363 . S
C799 H802 0.929 . S
C800 C799 1.363 . S
C800 C806 1.428 . S
H801 C797 0.930 . S
H802 C799 0.929 . S
S803 N804 1.613 . S
S803 N805 1.610 . S
N804 S803 1.613 . S
N804 C807 1.350 . S
N805 S803 1.610 . S
N805 C806 1.351 . S
C806 C800 1.428 . S
C806 N805 1.351 . S
C806 C807 1.434 . S
C807 C798 1.429 . S
C807 N804 1.350 . S
C807 C806 1.434 . S
C808 C809 1.369 . S
C808 C810 1.419 . S
C808 H812 0.930 . S
C809 C808 1.369 . S
C809 C818 1.429 . S
C810 C808 1.419 . S
C810 C811 1.363 . S
C810 H813 0.929 . S
C811 C810 1.363 . S
C811 C817 1.428 . S
H812 C808 0.930 . S
H813 C810 0.929 . S
S814 N815 1.613 . S
S814 N816 1.610 . S
N815 S814 1.613 . S
N815 C818 1.350 . S
N816 S814 1.610 . S
N816 C817 1.351 . S
C817 C811 1.428 . S
C817 N816 1.351 . S
C817 C818 1.434 . S
C818 C809 1.429 . S
C818 N815 1.350 . S
C818 C817 1.434 . S
C819 C820 1.369 . S
C819 C821 1.419 . S
C819 H823 0.930 . S
C820 C819 1.369 . S
C820 C829 1.429 . S
C821 C819 1.419 . S
C821 C822 1.363 . S
C821 H824 0.929 . S
C822 C821 1.363 . S
C822 C828 1.428 . S
H823 C819 0.930 . S
H824 C821 0.929 . S
S825 N826 1.613 . S
S825 N827 1.610 . S
N826 S825 1.613 . S
N826 C829 1.350 . S
N827 S825 1.610 . S
N827 C828 1.351 . S
C828 C822 1.428 . S
C828 N827 1.351 . S
C828 C829 1.434 . S
C829 C820 1.429 . S
C829 N826 1.350 . S
C829 C828 1.434 . S
C830 C831 1.369 . S
C830 C832 1.419 . S
C830 H834 0.930 . S
C831 C830 1.369 . S
C831 C840 1.429 . S
C832 C830 1.419 . S
C832 C833 1.363 . S
C832 H835 0.929 . S
C833 C832 1.363 . S
C833 C839 1.428 . S
H834 C830 0.930 . S
H835 C832 0.929 . S
S836 N837 1.613 . S
S836 N838 1.610 . S
N837 S836 1.613 . S
N837 C840 1.350 . S
N838 S836 1.610 . S
N838 C839 1.351 . S
C839 C833 1.428 . S
C839 N838 1.351 . S
C839 C840 1.434 . S
C840 C831 1.429 . S
C840 N837 1.350 . S
C840 C839 1.434 . S
C841 C842 1.369 . S
C841 C843 1.419 . S
C841 H845 0.930 . S
C842 C841 1.369 . S
C842 C851 1.429 . S
C843 C841 1.419 . S
C843 C844 1.363 . S
C843 H846 0.929 . S
C844 C843 1.363 . S
C844 C850 1.428 . S
H845 C841 0.930 . S
H846 C843 0.929 . S
S847 N848 1.613 . S
S847 N849 1.610 . S
N848 S847 1.613 . S
N848 C851 1.350 . S
N849 S847 1.610 . S
N849 C850 1.351 . S
C850 C844 1.428 . S
C850 N849 1.351 . S
C850 C851 1.434 . S
C851 C842 1.429 . S
C851 N848 1.350 . S
C851 C850 1.434 . S
C852 C853 1.369 . S
C852 C854 1.408 1_656 S
C852 H856 0.930 . S
C853 C852 1.369 . S
C853 C862 1.429 1_655 S
C854 C852 1.408 1_454 S
C854 C855 1.385 . S
C854 H857 0.918 1_455 S
C855 C854 1.385 . S
C855 C861 1.428 . S
H856 C852 0.930 . S
H857 C854 0.918 1_655 S
S858 N859 1.613 . S
S858 N860 1.610 1_556 S
N859 S858 1.613 . S
N859 C862 1.350 . S
N860 S858 1.610 1_554 S
N860 C861 1.351 . S
C861 C855 1.428 . S
C861 N860 1.351 . S
C861 C862 1.434 1_554 S
C862 C853 1.429 1_455 S
C862 N859 1.350 . S
C862 C861 1.434 1_556 S
C863 C864 1.369 . S
C863 C865 1.419 1_556 S
C863 H867 0.930 . S
C864 C863 1.369 . S
C864 C873 1.429 . S
C865 C863 1.419 1_554 S
C865 C866 1.363 . S
C865 H868 0.929 . S
C866 C865 1.363 . S
C866 C872 1.428 1_554 S
H867 C863 0.930 . S
H868 C865 0.929 . S
S869 N870 1.613 . S
S869 N871 1.610 . S
N870 S869 1.613 . S
N870 C873 1.350 . S
N871 S869 1.610 . S
N871 C872 1.351 . S
C872 C866 1.428 1_556 S
C872 N871 1.351 . S
C872 C873 1.434 . S
C873 C864 1.429 . S
C873 N870 1.350 . S
C873 C872 1.434 . S
C874 C875 1.369 1_565 S
C874 C876 1.419 . S
C874 H878 0.930 . S
C875 C874 1.369 1_545 S
C875 C884 1.429 . S
C876 C874 1.419 . S
C876 C877 1.363 1_556 S
C876 H879 0.929 . S
C877 C876 1.363 1_554 S
C877 C883 1.428 1_565 S
H878 C874 0.930 . S
H879 C876 0.929 . S
S880 N881 1.613 1_554 S
S880 N882 1.610 . S
N881 S880 1.613 1_556 S
N881 C884 1.350 . S
N882 S880 1.610 . S
N882 C883 1.351 . S
C883 C877 1.428 1_545 S
C883 N882 1.351 . S
C883 C884 1.434 1_554 S
C884 C875 1.429 . S
C884 N881 1.350 . S
C884 C883 1.434 1_556 S
C885 C886 1.369 1_565 S
C885 C887 1.419 1_556 S
C885 H889 0.930 . S
C886 C885 1.369 1_545 S
C886 C895 1.429 1_556 S
C887 C885 1.419 1_554 S
C887 C888 1.363 . S
C887 H890 0.929 . S
C888 C887 1.363 . S
C888 C894 1.428 1_565 S
H889 C885 0.930 . S
H890 C887 0.929 . S
S891 N892 1.613 . S
S891 N893 1.610 . S
N892 S891 1.613 . S
N892 C895 1.350 . S
N893 S891 1.610 . S
N893 C894 1.351 . S
C894 C888 1.428 1_545 S
C894 N893 1.351 . S
C894 C895 1.434 . S
C895 C886 1.429 1_554 S
C895 N892 1.350 . S
C895 C894 1.434 . S
C896 C897 1.369 . S
C896 C898 1.419 1_554 S
C896 H900 0.930 . S
C897 C896 1.369 . S
C897 C906 1.429 1_455 S
C898 C896 1.419 1_556 S
C898 C899 1.363 1_455 S
C898 H901 0.929 . S
C899 C898 1.363 1_655 S
C899 C905 1.428 1_556 S
H900 C896 0.930 . S
H901 C898 0.929 . S
S902 N903 1.613 . S
S902 N904 1.610 . S
N903 S902 1.613 . S
N903 C906 1.350 . S
N904 S902 1.610 . S
N904 C905 1.351 . S
C905 C899 1.428 1_554 S
C905 N904 1.351 . S
C905 C906 1.434 . S
C906 C897 1.429 1_655 S
C906 N903 1.350 . S
C906 C905 1.434 . S
C907 C908 1.369 . S
C907 C909 1.419 . S
C907 H911 0.930 . S
C908 C907 1.369 . S
C908 C917 1.429 . S
C909 C907 1.419 . S
C909 C910 1.363 1_554 S
C909 H912 0.929 . S
C910 C909 1.363 1_556 S
C910 C916 1.428 . S
H911 C907 0.930 . S
H912 C909 0.929 . S
S913 N914 1.613 1_556 S
S913 N915 1.610 . S
N914 S913 1.613 1_554 S
N914 C917 1.350 . S
N915 S913 1.610 . S
N915 C916 1.351 . S
C916 C910 1.428 . S
C916 N915 1.351 . S
C916 C917 1.434 1_556 S
C917 C908 1.429 . S
C917 N914 1.350 . S
C917 C916 1.434 1_554 S
C918 C919 1.369 . S
C918 C920 1.419 . S
C918 H922 0.930 . S
C919 C918 1.369 . S
C919 C928 1.429 . S
C920 C918 1.419 . S
C920 C921 1.363 . S
C920 H923 0.929 . S
C921 C920 1.363 . S
C921 C927 1.428 . S
H922 C918 0.930 . S
H923 C920 0.929 . S
S924 N925 1.613 . S
S924 N926 1.610 . S
N925 S924 1.613 . S
N925 C928 1.350 . S
N926 S924 1.610 . S
N926 C927 1.351 . S
C927 C921 1.428 . S
C927 N926 1.351 . S
C927 C928 1.434 . S
C928 C919 1.429 . S
C928 N925 1.350 . S
C928 C927 1.434 . S
C929 C930 1.369 . S
C929 C931 1.419 . S
C929 H933 0.930 . S
C930 C929 1.369 . S
C930 C939 1.429 . S
C931 C929 1.419 . S
C931 C932 1.363 . S
C931 H934 0.929 . S
C932 C931 1.363 . S
C932 C938 1.428 . S
H933 C929 0.930 . S
H934 C931 0.929 . S
S935 N936 1.613 . S
S935 N937 1.610 . S
N936 S935 1.613 . S
N936 C939 1.350 . S
N937 S935 1.610 . S
N937 C938 1.351 . S
C938 C932 1.428 . S
C938 N937 1.351 . S
C938 C939 1.434 . S
C939 C930 1.429 . S
C939 N936 1.350 . S
C939 C938 1.434 . S
C940 C941 1.369 . S
C940 C942 1.419 . S
C940 H944 0.930 . S
C941 C940 1.369 . S
C941 C950 1.429 . S
C942 C940 1.419 . S
C942 C943 1.363 . S
C942 H945 0.929 . S
C943 C942 1.363 . S
C943 C949 1.428 . S
H944 C940 0.930 . S
H945 C942 0.929 . S
S946 N947 1.613 . S
S946 N948 1.610 . S
N947 S946 1.613 . S
N947 C950 1.350 . S
N948 S946 1.610 . S
N948 C949 1.351 . S
C949 C943 1.428 . S
C949 N948 1.351 . S
C949 C950 1.434 . S
C950 C941 1.429 . S
C950 N947 1.350 . S
C950 C949 1.434 . S
C951 C952 1.369 . S
C951 C953 1.419 . S
C951 H955 0.930 . S
C952 C951 1.369 . S
C952 C961 1.429 . S
C953 C951 1.419 . S
C953 C954 1.363 . S
C953 H956 0.929 . S
C954 C953 1.363 . S
C954 C960 1.428 . S
H955 C951 0.930 . S
H956 C953 0.929 . S
S957 N958 1.613 . S
S957 N959 1.610 . S
N958 S957 1.613 . S
N958 C961 1.350 . S
N959 S957 1.610 . S
N959 C960 1.351 . S
C960 C954 1.428 . S
C960 N959 1.351 . S
C960 C961 1.434 . S
C961 C952 1.429 . S
C961 N958 1.350 . S
C961 C960 1.434 . S
C962 C963 1.369 . S
C962 C964 1.419 . S
C962 H966 0.930 . S
C963 C962 1.369 . S
C963 C972 1.429 . S
C964 C962 1.419 . S
C964 C965 1.363 . S
C964 H967 0.929 . S
C965 C964 1.363 . S
C965 C971 1.428 . S
H966 C962 0.930 . S
H967 C964 0.929 . S
S968 N969 1.613 . S
S968 N970 1.610 . S
N969 S968 1.613 . S
N969 C972 1.350 . S
N970 S968 1.610 . S
N970 C971 1.351 . S
C971 C965 1.428 . S
C971 N970 1.351 . S
C971 C972 1.434 . S
C972 C963 1.429 . S
C972 N969 1.350 . S
C972 C971 1.434 . S
C973 C974 1.369 . S
C973 C975 1.419 . S
C973 H977 0.930 . S
C974 C973 1.369 . S
C974 C983 1.429 . S
C975 C973 1.419 . S
C975 C976 1.363 . S
C975 H978 0.929 . S
C976 C975 1.363 . S
C976 C982 1.428 . S
H977 C973 0.930 . S
H978 C975 0.929 . S
S979 N980 1.613 . S
S979 N981 1.610 . S
N980 S979 1.613 . S
N980 C983 1.350 . S
N981 S979 1.610 . S
N981 C982 1.351 . S
C982 C976 1.428 . S
C982 N981 1.351 . S
C982 C983 1.434 . S
C983 C974 1.429 . S
C983 N980 1.350 . S
C983 C982 1.434 . S
C984 C985 1.369 . S
C984 C986 1.419 . S
C984 H988 0.930 . S
C985 C984 1.369 . S
C985 C994 1.429 . S
C986 C984 1.419 . S
C986 C987 1.363 . S
C986 H989 0.929 . S
C987 C986 1.363 . S
C987 C993 1.428 . S
H988 C984 0.930 . S
H989 C986 0.929 . S
S990 N991 1.613 . S
S990 N992 1.610 . S
N991 S990 1.613 . S
N991 C994 1.350 . S
N992 S990 1.610 . S
N992 C993 1.351 . S
C993 C987 1.428 . S
C993 N992 1.351 . S
C993 C994 1.434 . S
C994 C985 1.429 . S
C994 N991 1.350 . S
C994 C993 1.434 . S
C995 C996 1.369 . S
C995 C997 1.419 . S
C995 H999 0.930 . S
C996 C995 1.369 . S
C996 C1005 1.429 . S
C997 C995 1.419 . S
C997 C998 1.363 . S
C997 H1000 0.929 . S
C998 C997 1.363 . S
C998 C1004 1.428 . S
H999 C995 0.930 . S
H1000 C997 0.929 . S
S1001 N1002 1.613 . S
S1001 N1003 1.610 . S
N1002 S1001 1.613 . S
N1002 C1005 1.350 . S
N1003 S1001 1.610 . S
N1003 C1004 1.351 . S
C1004 C998 1.428 . S
C1004 N1003 1.351 . S
C1004 C1005 1.434 . S
C1005 C996 1.429 . S
C1005 N1002 1.350 . S
C1005 C1004 1.434 . S
C1006 C1007 1.369 . S
C1006 C1008 1.419 . S
C1006 H1010 0.930 . S
C1007 C1006 1.369 . S
C1007 C1016 1.429 . S
C1008 C1006 1.419 . S
C1008 C1009 1.363 . S
C1008 H1011 0.929 . S
C1009 C1008 1.363 . S
C1009 C1015 1.428 . S
H1010 C1006 0.930 . S
H1011 C1008 0.929 . S
S1012 N1013 1.613 . S
S1012 N1014 1.610 . S
N1013 S1012 1.613 . S
N1013 C1016 1.350 . S
N1014 S1012 1.610 . S
N1014 C1015 1.351 . S
C1015 C1009 1.428 . S
C1015 N1014 1.351 . S
C1015 C1016 1.434 . S
C1016 C1007 1.429 . S
C1016 N1013 1.350 . S
C1016 C1015 1.434 . S
C1017 C1018 1.369 . S
C1017 C1019 1.419 . S
C1017 H1021 0.930 . S
C1018 C1017 1.369 . S
C1018 C1027 1.429 . S
C1019 C1017 1.419 . S
C1019 C1020 1.363 . S
C1019 H1022 0.929 . S
C1020 C1019 1.363 . S
C1020 C1026 1.428 . S
H1021 C1017 0.930 . S
H1022 C1019 0.929 . S
S1023 N1024 1.613 . S
S1023 N1025 1.610 . S
N1024 S1023 1.613 . S
N1024 C1027 1.350 . S
N1025 S1023 1.610 . S
N1025 C1026 1.351 . S
C1026 C1020 1.428 . S
C1026 N1025 1.351 . S
C1026 C1027 1.434 . S
C1027 C1018 1.429 . S
C1027 N1024 1.350 . S
C1027 C1026 1.434 . S
C1028 C1029 1.369 . S
C1028 C1030 1.419 . S
C1028 H1032 0.930 . S
C1029 C1028 1.369 . S
C1029 C1038 1.429 . S
C1030 C1028 1.419 . S
C1030 C1031 1.363 . S
C1030 H1033 0.929 . S
C1031 C1030 1.363 . S
C1031 C1037 1.428 . S
H1032 C1028 0.930 . S
H1033 C1030 0.929 . S
S1034 N1035 1.613 . S
S1034 N1036 1.610 . S
N1035 S1034 1.613 . S
N1035 C1038 1.350 . S
N1036 S1034 1.610 . S
N1036 C1037 1.351 . S
C1037 C1031 1.428 . S
C1037 N1036 1.351 . S
C1037 C1038 1.434 . S
C1038 C1029 1.429 . S
C1038 N1035 1.350 . S
C1038 C1037 1.434 . S
C1039 C1040 1.369 . S
C1039 C1041 1.419 . S
C1039 H1043 0.930 . S
C1040 C1039 1.369 . S
C1040 C1049 1.429 . S
C1041 C1039 1.419 . S
C1041 C1042 1.363 . S
C1041 H1044 0.929 . S
C1042 C1041 1.363 . S
C1042 C1048 1.428 . S
H1043 C1039 0.930 . S
H1044 C1041 0.929 . S
S1045 N1046 1.613 . S
S1045 N1047 1.610 . S
N1046 S1045 1.613 . S
N1046 C1049 1.350 . S
N1047 S1045 1.610 . S
N1047 C1048 1.351 . S
C1048 C1042 1.428 . S
C1048 N1047 1.351 . S
C1048 C1049 1.434 . S
C1049 C1040 1.429 . S
C1049 N1046 1.350 . S
C1049 C1048 1.434 . S
C1050 C1051 1.369 . S
C1050 C1052 1.419 . S
C1050 H1054 0.930 . S
C1051 C1050 1.369 . S
C1051 C1060 1.429 . S
C1052 C1050 1.419 . S
C1052 C1053 1.363 . S
C1052 H1055 0.929 . S
C1053 C1052 1.363 . S
C1053 C1059 1.428 . S
H1054 C1050 0.930 . S
H1055 C1052 0.929 . S
S1056 N1057 1.613 . S
S1056 N1058 1.610 . S
N1057 S1056 1.613 . S
N1057 C1060 1.350 . S
N1058 S1056 1.610 . S
N1058 C1059 1.351 . S
C1059 C1053 1.428 . S
C1059 N1058 1.351 . S
C1059 C1060 1.434 . S
C1060 C1051 1.429 . S
C1060 N1057 1.350 . S
C1060 C1059 1.434 . S
C1061 C1062 1.369 . S
C1061 C1063 1.419 . S
C1061 H1065 0.930 . S
C1062 C1061 1.369 . S
C1062 C1071 1.429 . S
C1063 C1061 1.419 . S
C1063 C1064 1.363 . S
C1063 H1066 0.929 . S
C1064 C1063 1.363 . S
C1064 C1070 1.428 . S
H1065 C1061 0.930 . S
H1066 C1063 0.929 . S
S1067 N1068 1.613 . S
S1067 N1069 1.610 . S
N1068 S1067 1.613 . S
N1068 C1071 1.350 . S
N1069 S1067 1.610 . S
N1069 C1070 1.351 . S
C1070 C1064 1.428 . S
C1070 N1069 1.351 . S
C1070 C1071 1.434 . S
C1071 C1062 1.429 . S
C1071 N1068 1.350 . S
C1071 C1070 1.434 . S
C1072 C1073 1.369 . S
C1072 C1074 1.419 . S
C1072 H1076 0.930 . S
C1073 C1072 1.369 . S
C1073 C1082 1.429 . S
C1074 C1072 1.419 . S
C1074 C1075 1.363 . S
C1074 H1077 0.929 . S
C1075 C1074 1.363 . S
C1075 C1081 1.428 . S
H1076 C1072 0.930 . S
H1077 C1074 0.929 . S
S1078 N1079 1.613 . S
S1078 N1080 1.610 . S
N1079 S1078 1.613 . S
N1079 C1082 1.350 . S
N1080 S1078 1.610 . S
N1080 C1081 1.351 . S
C1081 C1075 1.428 . S
C1081 N1080 1.351 . S
C1081 C1082 1.434 . S
C1082 C1073 1.429 . S
C1082 N1079 1.350 . S
C1082 C1081 1.434 . S
C1083 C1084 1.369 . S
C1083 C1085 1.419 . S
C1083 H1087 0.930 . S
C1084 C1083 1.369 . S
C1084 C1093 1.429 . S
C1085 C1083 1.419 . S
C1085 C1086 1.363 . S
C1085 H1088 0.929 . S
C1086 C1085 1.363 . S
C1086 C1092 1.428 . S
H1087 C1083 0.930 . S
H1088 C1085 0.929 . S
S1089 N1090 1.613 . S
S1089 N1091 1.610 . S
N1090 S1089 1.613 . S
N1090 C1093 1.350 . S
N1091 S1089 1.610 . S
N1091 C1092 1.351 . S
C1092 C1086 1.428 . S
C1092 N1091 1.351 . S
C1092 C1093 1.434 . S
C1093 C1084 1.429 . S
C1093 N1090 1.350 . S
C1093 C1092 1.434 . S
C1094 C1095 1.369 . S
C1094 C1096 1.419 . S
C1094 H1098 0.930 . S
C1095 C1094 1.369 . S
C1095 C1104 1.429 . S
C1096 C1094 1.419 . S
C1096 C1097 1.363 . S
C1096 H1099 0.929 . S
C1097 C1096 1.363 . S
C1097 C1103 1.428 . S
H1098 C1094 0.930 . S
H1099 C1096 0.929 . S
S1100 N1101 1.613 . S
S1100 N1102 1.610 . S
N1101 S1100 1.613 . S
N1101 C1104 1.350 . S
N1102 S1100 1.610 . S
N1102 C1103 1.351 . S
C1103 C1097 1.428 . S
C1103 N1102 1.351 . S
C1103 C1104 1.434 . S
C1104 C1095 1.429 . S
C1104 N1101 1.350 . S
C1104 C1103 1.434 . S
C1105 C1106 1.369 . S
C1105 C1107 1.419 . S
C1105 H1109 0.930 . S
C1106 C1105 1.369 . S
C1106 C1115 1.429 . S
C1107 C1105 1.419 . S
C1107 C1108 1.363 . S
C1107 H1110 0.929 . S
C1108 C1107 1.363 . S
C1108 C1114 1.428 . S
H1109 C1105 0.930 . S
H1110 C1107 0.929 . S
S1111 N1112 1.613 . S
S1111 N1113 1.610 . S
N1112 S1111 1.613 . S
N1112 C1115 1.350 . S
N1113 S1111 1.610 . S
N1113 C1114 1.351 . S
C1114 C1108 1.428 . S
C1114 N1113 1.351 . S
C1114 C1115 1.434 . S
C1115 C1106 1.429 . S
C1115 N1112 1.350 . S
C1115 C1114 1.434 . S
C1116 C1117 1.369 1_655 S
C1116 C1118 1.419 1_554 S
C1116 H1120 0.930 . S
C1117 C1116 1.369 1_455 S
C1117 C1126 1.429 . S
C1118 C1116 1.419 1_556 S
C1118 C1119 1.363 1_655 S
C1118 H1121 0.929 . S
C1119 C1118 1.363 1_455 S
C1119 C1125 1.428 . S
H1120 C1116 0.930 . S
H1121 C1118 0.929 . S
S1122 N1123 1.613 . S
S1122 N1124 1.610 1_554 S
N1123 S1122 1.613 . S
N1123 C1126 1.350 . S
N1124 S1122 1.610 1_556 S
N1124 C1125 1.351 . S
C1125 C1119 1.428 . S
C1125 N1124 1.351 . S
C1125 C1126 1.434 1_556 S
C1126 C1117 1.429 . S
C1126 N1123 1.350 . S
C1126 C1125 1.434 1_554 S
C1127 C1128 1.369 1_556 S
C1127 C1129 1.419 . S
C1127 H1131 0.930 1_556 S
C1128 C1127 1.369 1_554 S
C1128 C1137 1.429 . S
C1129 C1127 1.419 . S
C1129 C1130 1.363 . S
C1129 H1132 0.929 . S
C1130 C1129 1.363 . S
C1130 C1136 1.428 . S
H1131 C1127 0.930 1_554 S
H1132 C1129 0.929 . S
S1133 N1134 1.613 . S
S1133 N1135 1.610 1_554 S
N1134 S1133 1.613 . S
N1134 C1137 1.350 . S
N1135 S1133 1.610 1_556 S
N1135 C1136 1.351 . S
C1136 C1130 1.428 . S
C1136 N1135 1.351 . S
C1136 C1137 1.434 1_556 S
C1137 C1128 1.429 . S
C1137 N1134 1.350 . S
C1137 C1136 1.434 1_554 S
C1138 C1139 1.369 . S
C1138 C1140 1.419 1_564 S
C1138 H1142 0.930 . S
C1139 C1138 1.369 . S
C1139 C1148 1.429 . S
C1140 C1138 1.419 1_546 S
C1140 C1141 1.363 . S
C1140 H1143 0.929 . S
C1141 C1140 1.363 . S
C1141 C1147 1.428 . S
H1142 C1138 0.930 . S
H1143 C1140 0.929 . S
S1144 N1145 1.613 1_546 S
S1144 N1146 1.610 . S
N1145 S1144 1.613 1_564 S
N1145 C1148 1.350 . S
N1146 S1144 1.610 . S
N1146 C1147 1.351 . S
C1147 C1141 1.428 . S
C1147 N1146 1.351 . S
C1147 C1148 1.434 1_546 S
C1148 C1139 1.429 . S
C1148 N1145 1.350 . S
C1148 C1147 1.434 1_564 S
C1149 C1150 1.369 . S
C1149 C1151 1.419 1_556 S
C1149 H1153 0.930 . S
C1150 C1149 1.369 . S
C1150 C1159 1.429 1_456 S
C1151 C1149 1.419 1_554 S
C1151 C1152 1.363 . S
C1151 H1154 0.929 . S
C1152 C1151 1.363 . S
C1152 C1158 1.428 1_455 S
H1153 C1149 0.930 . S
H1154 C1151 0.929 . S
S1155 N1156 1.613 . S
S1155 N1157 1.610 . S
N1156 S1155 1.613 . S
N1156 C1159 1.350 . S
N1157 S1155 1.610 . S
N1157 C1158 1.351 . S
C1158 C1152 1.428 1_655 S
C1158 N1157 1.351 . S
C1158 C1159 1.434 . S
C1159 C1150 1.429 1_654 S
C1159 N1156 1.350 . S
C1159 C1158 1.434 . S
C1160 C1161 1.369 . S
C1160 C1162 1.419 . S
C1160 H1164 0.930 . S
C1161 C1160 1.369 . S
C1161 C1170 1.429 . S
C1162 C1160 1.419 . S
C1162 C1163 1.363 1_554 S
C1162 H1165 0.929 . S
C1163 C1162 1.363 1_556 S
C1163 C1169 1.428 . S
H1164 C1160 0.930 . S
H1165 C1162 0.929 . S
S1166 N1167 1.606 1_556 S
S1166 N1168 1.614 . S
N1167 S1166 1.606 1_554 S
N1167 C1170 1.350 . S
N1168 S1166 1.614 . S
N1168 C1169 1.351 . S
C1169 C1163 1.428 . S
C1169 N1168 1.351 . S
C1169 C1170 1.434 1_556 S
C1170 C1161 1.429 . S
C1170 N1167 1.350 . S
C1170 C1169 1.434 1_554 S
C1171 C1172 1.369 1_545 S
C1171 C1173 1.419 1_554 S
C1171 H1175 0.930 . S
C1172 C1171 1.369 1_565 S
C1172 C1181 1.429 . S
C1173 C1171 1.419 1_556 S
C1173 C1174 1.363 . S
C1173 H1176 0.929 . S
C1174 C1173 1.363 . S
C1174 C1180 1.428 1_545 S
H1175 C1171 0.930 . S
H1176 C1173 0.929 . S
S1177 N1178 1.613 1_556 S
S1177 N1179 1.610 . S
N1178 S1177 1.613 1_554 S
N1178 C1181 1.350 . S
N1179 S1177 1.610 . S
N1179 C1180 1.351 . S
C1180 C1174 1.428 1_565 S
C1180 N1179 1.351 . S
C1180 C1181 1.434 1_556 S
C1181 C1172 1.429 . S
C1181 N1178 1.350 . S
C1181 C1180 1.434 1_554 S
C1182 C1183 1.369 . S
C1182 C1184 1.419 . S
C1182 H1186 0.930 . S
C1183 C1182 1.369 . S
C1183 C1192 1.429 . S
C1184 C1182 1.419 . S
C1184 C1185 1.363 . S
C1184 H1187 0.929 . S
C1185 C1184 1.363 . S
C1185 C1191 1.428 . S
H1186 C1182 0.930 . S
H1187 C1184 0.929 . S
S1188 N1189 1.613 . S
S1188 N1190 1.610 . S
N1189 S1188 1.613 . S
N1189 C1192 1.350 . S
N1190 S1188 1.610 . S
N1190 C1191 1.351 . S
C1191 C1185 1.428 . S
C1191 N1190 1.351 . S
C1191 C1192 1.434 . S
C1192 C1183 1.429 . S
C1192 N1189 1.350 . S
C1192 C1191 1.434 . S
C1193 C1194 1.369 . S
C1193 C1195 1.419 . S
C1193 H1197 0.930 . S
C1194 C1193 1.369 . S
C1194 C1203 1.429 . S
C1195 C1193 1.419 . S
C1195 C1196 1.363 . S
C1195 H1198 0.929 . S
C1196 C1195 1.363 . S
C1196 C1202 1.428 . S
H1197 C1193 0.930 . S
H1198 C1195 0.929 . S
S1199 N1200 1.613 . S
S1199 N1201 1.610 . S
N1200 S1199 1.613 . S
N1200 C1203 1.350 . S
N1201 S1199 1.610 . S
N1201 C1202 1.351 . S
C1202 C1196 1.428 . S
C1202 N1201 1.351 . S
C1202 C1203 1.434 . S
C1203 C1194 1.429 . S
C1203 N1200 1.350 . S
C1203 C1202 1.434 . S
C1204 C1205 1.369 . S
C1204 C1206 1.419 . S
C1204 H1208 0.930 . S
C1205 C1204 1.369 . S
C1205 C1214 1.429 . S
C1206 C1204 1.419 . S
C1206 C1207 1.363 . S
C1206 H1209 0.929 . S
C1207 C1206 1.363 . S
C1207 C1213 1.428 . S
H1208 C1204 0.930 . S
H1209 C1206 0.929 . S
S1210 N1211 1.613 . S
S1210 N1212 1.610 . S
N1211 S1210 1.613 . S
N1211 C1214 1.350 . S
N1212 S1210 1.610 . S
N1212 C1213 1.351 . S
C1213 C1207 1.428 . S
C1213 N1212 1.351 . S
C1213 C1214 1.434 . S
C1214 C1205 1.429 . S
C1214 N1211 1.350 . S
C1214 C1213 1.434 . S
C1215 C1216 1.369 . S
C1215 C1217 1.419 . S
C1215 H1219 0.930 . S
C1216 C1215 1.369 . S
C1216 C1225 1.429 . S
C1217 C1215 1.419 . S
C1217 C1218 1.363 . S
C1217 H1220 0.929 . S
C1218 C1217 1.363 . S
C1218 C1224 1.428 . S
H1219 C1215 0.930 . S
H1220 C1217 0.929 . S
S1221 N1222 1.613 . S
S1221 N1223 1.610 . S
N1222 S1221 1.613 . S
N1222 C1225 1.350 . S
N1223 S1221 1.610 . S
N1223 C1224 1.351 . S
C1224 C1218 1.428 . S
C1224 N1223 1.351 . S
C1224 C1225 1.434 . S
C1225 C1216 1.429 . S
C1225 N1222 1.350 . S
C1225 C1224 1.434 . S
C1226 C1227 1.369 . S
C1226 C1228 1.419 . S
C1226 H1230 0.930 . S
C1227 C1226 1.369 . S
C1227 C1236 1.429 . S
C1228 C1226 1.419 . S
C1228 C1229 1.363 . S
C1228 H1231 0.929 . S
C1229 C1228 1.363 . S
C1229 C1235 1.428 . S
H1230 C1226 0.930 . S
H1231 C1228 0.929 . S
S1232 N1233 1.613 . S
S1232 N1234 1.610 . S
N1233 S1232 1.613 . S
N1233 C1236 1.350 . S
N1234 S1232 1.610 . S
N1234 C1235 1.351 . S
C1235 C1229 1.428 . S
C1235 N1234 1.351 . S
C1235 C1236 1.434 . S
C1236 C1227 1.429 . S
C1236 N1233 1.350 . S
C1236 C1235 1.434 . S
C1237 C1238 1.369 . S
C1237 C1239 1.419 . S
C1237 H1241 0.930 . S
C1238 C1237 1.369 . S
C1238 C1247 1.429 . S
C1239 C1237 1.419 . S
C1239 C1240 1.363 . S
C1239 H1242 0.929 . S
C1240 C1239 1.363 . S
C1240 C1246 1.428 . S
H1241 C1237 0.930 . S
H1242 C1239 0.929 . S
S1243 N1244 1.613 . S
S1243 N1245 1.610 . S
N1244 S1243 1.613 . S
N1244 C1247 1.350 . S
N1245 S1243 1.610 . S
N1245 C1246 1.351 . S
C1246 C1240 1.428 . S
C1246 N1245 1.351 . S
C1246 C1247 1.434 . S
C1247 C1238 1.429 . S
C1247 N1244 1.350 . S
C1247 C1246 1.434 . S
C1248 C1249 1.369 . S
C1248 C1250 1.419 . S
C1248 H1252 0.930 . S
C1249 C1248 1.369 . S
C1249 C1258 1.429 . S
C1250 C1248 1.419 . S
C1250 C1251 1.363 . S
C1250 H1253 0.929 . S
C1251 C1250 1.363 . S
C1251 C1257 1.428 . S
H1252 C1248 0.930 . S
H1253 C1250 0.929 . S
S1254 N1255 1.613 . S
S1254 N1256 1.610 . S
N1255 S1254 1.613 . S
N1255 C1258 1.350 . S
N1256 S1254 1.610 . S
N1256 C1257 1.351 . S
C1257 C1251 1.428 . S
C1257 N1256 1.351 . S
C1257 C1258 1.434 . S
C1258 C1249 1.429 . S
C1258 N1255 1.350 . S
C1258 C1257 1.434 . S
C1259 C1260 1.369 . S
C1259 C1261 1.419 . S
C1259 H1263 0.930 . S
C1260 C1259 1.369 . S
C1260 C1269 1.429 . S
C1261 C1259 1.419 . S
C1261 C1262 1.363 . S
C1261 H1264 0.929 . S
C1262 C1261 1.363 . S
C1262 C1268 1.428 . S
H1263 C1259 0.930 . S
H1264 C1261 0.929 . S
S1265 N1266 1.613 . S
S1265 N1267 1.610 . S
N1266 S1265 1.613 . S
N1266 C1269 1.350 . S
N1267 S1265 1.610 . S
N1267 C1268 1.351 . S
C1268 C1262 1.428 . S
C1268 N1267 1.351 . S
C1268 C1269 1.434 . S
C1269 C1260 1.429 . S
C1269 N1266 1.350 . S
C1269 C1268 1.434 . S
C1270 C1271 1.369 . S
C1270 C1272 1.419 . S
C1270 H1274 0.930 . S
C1271 C1270 1.369 . S
C1271 C1280 1.429 . S
C1272 C1270 1.419 . S
C1272 C1273 1.363 . S
C1272 H1275 0.929 . S
C1273 C1272 1.363 . S
C1273 C1279 1.428 . S
H1274 C1270 0.930 . S
H1275 C1272 0.929 . S
S1276 N1277 1.613 . S
S1276 N1278 1.610 . S
N1277 S1276 1.613 . S
N1277 C1280 1.350 . S
N1278 S1276 1.610 . S
N1278 C1279 1.351 . S
C1279 C1273 1.428 . S
C1279 N1278 1.351 . S
C1279 C1280 1.434 . S
C1280 C1271 1.429 . S
C1280 N1277 1.350 . S
C1280 C1279 1.434 . S
C1281 C1282 1.369 . S
C1281 C1283 1.419 . S
C1281 H1285 0.930 . S
C1282 C1281 1.369 . S
C1282 C1291 1.429 . S
C1283 C1281 1.419 . S
C1283 C1284 1.363 . S
C1283 H1286 0.929 . S
C1284 C1283 1.363 . S
C1284 C1290 1.428 . S
H1285 C1281 0.930 . S
H1286 C1283 0.929 . S
S1287 N1288 1.613 . S
S1287 N1289 1.610 . S
N1288 S1287 1.613 . S
N1288 C1291 1.350 . S
N1289 S1287 1.610 . S
N1289 C1290 1.351 . S
C1290 C1284 1.428 . S
C1290 N1289 1.351 . S
C1290 C1291 1.434 . S
C1291 C1282 1.429 . S
C1291 N1288 1.350 . S
C1291 C1290 1.434 . S
C1292 C1293 1.369 . S
C1292 C1294 1.419 . S
C1292 H1296 0.930 . S
C1293 C1292 1.369 . S
C1293 C1302 1.429 . S
C1294 C1292 1.419 . S
C1294 C1295 1.363 . S
C1294 H1297 0.929 . S
C1295 C1294 1.363 . S
C1295 C1301 1.428 . S
H1296 C1292 0.930 . S
H1297 C1294 0.929 . S
S1298 N1299 1.613 . S
S1298 N1300 1.610 . S
N1299 S1298 1.613 . S
N1299 C1302 1.350 . S
N1300 S1298 1.610 . S
N1300 C1301 1.351 . S
C1301 C1295 1.428 . S
C1301 N1300 1.351 . S
C1301 C1302 1.434 . S
C1302 C1293 1.429 . S
C1302 N1299 1.350 . S
C1302 C1301 1.434 . S
C1303 C1304 1.369 . S
C1303 C1305 1.419 . S
C1303 H1307 0.930 . S
C1304 C1303 1.369 . S
C1304 C1313 1.429 . S
C1305 C1303 1.419 . S
C1305 C1306 1.363 . S
C1305 H1308 0.929 . S
C1306 C1305 1.363 . S
C1306 C1312 1.428 . S
H1307 C1303 0.930 . S
H1308 C1305 0.929 . S
S1309 N1310 1.613 . S
S1309 N1311 1.610 . S
N1310 S1309 1.613 . S
N1310 C1313 1.350 . S
N1311 S1309 1.610 . S
N1311 C1312 1.351 . S
C1312 C1306 1.428 . S
C1312 N1311 1.351 . S
C1312 C1313 1.434 . S
C1313 C1304 1.429 . S
C1313 N1310 1.350 . S
C1313 C1312 1.434 . S
C721 C529 2.483 . S
C723 C9 2.495 . S
C732 C48 2.084 . S
C734 C568 2.084 . S
C743 C89 2.285 . S
C745 C488 2.312 . S
C754 C88 1.956 . S
C756 C288 1.953 . S
C765 C328 2.225 . S
C767 C8 2.214 . S
C776 C49 2.362 . S
C778 C248 2.387 . S
C787 C139 2.291 . S
C789 C418 2.301 . S
C798 C178 1.845 . S
C800 C458 1.848 . S
C809 C378 2.046 . S
C811 C219 2.023 . S
C820 C658 2.086 . S
C822 C218 2.103 . S
C831 C138 2.312 . S
C833 C699 2.294 . S
C842 C619 2.505 . S
C844 C179 2.481 . S
C853 C329 2.182 . S
C855 C528 2.218 . S
C864 C249 2.387 . S
C866 C569 2.376 . S
C875 C289 2.610 . S
C877 C489 2.634 . S
C886 C379 2.725 . S
C888 C659 2.718 . S
C897 C698 2.331 . S
C899 C419 2.317 . S
C908 C618 2.572 . S
C910 C459 2.547 . S
C919 C18 1.451 . S
C921 C168 1.450 . S
C930 C209 1.872 . S
C932 C59 1.874 . S
C941 C129 1.690 . S
C943 C98 1.529 . S
C952 C169 1.887 . S
C954 C99 1.928 . S
C963 C208 1.661 . S
C965 C19 1.732 . S
C974 C128 1.530 . S
C976 C58 1.578 . S
C985 C409 1.920 . S
C987 C259 1.910 . S
C996 C449 1.995 . S
C998 C299 1.986 . S
C1007 C369 2.007 . S
C1009 C339 1.915 . S
C1018 C408 1.520 . S
C1020 C338 1.520 . S
C1029 C448 1.437 . S
C1031 C258 1.554 . S
C1040 C368 1.462 . S
C1042 C298 1.470 . S
C1051 C648 1.552 . S
C1053 C498 1.504 . S
C1062 C689 1.901 . S
C1064 C539 1.860 . S
C1073 C578 1.631 . S
C1075 C609 1.706 . S
C1084 C579 2.015 . S
C1086 C649 2.018 . S
C1095 C499 1.803 . S
C1097 C688 1.640 . S
C1106 C608 1.540 . S
C1108 C538 1.538 . S
C1117 C5 1.298 . S
C1119 C15 1.292 . S
C1128 C55 1.415 . S
C1130 C45 1.425 . S
C1139 C85 1.341 . S
C1141 C95 1.336 . S
C1150 C135 1.382 . S
C1152 C125 1.375 . S
C1161 C175 1.307 . S
C1163 C165 1.298 . S
C1172 C205 1.492 . S
C1174 C215 1.488 . S
C1183 C245 1.602 . S
C1185 C255 1.595 . S
C1194 C295 1.276 . S
C1196 C285 1.268 . S
C1205 C325 1.636 . S
C1207 C335 1.636 . S
C1216 C375 1.253 . S
C1218 C365 1.245 . S
C1227 C415 1.565 . S
C1229 C405 1.566 . S
C1238 C455 1.305 . S
C1240 C445 1.310 . S
C1249 C495 1.270 . S
C1251 C485 1.262 . S
C1260 C535 1.396 . S
C1262 C525 1.396 . S
C1271 C565 1.327 . S
C1273 C575 1.330 . S
C1282 C605 1.415 . S
C1284 C615 1.424 . S
C1293 C655 1.279 . S
C1295 C645 1.282 . S
C1304 C695 1.409 . S
C1306 C685 1.402 . S
