# Generated by pormake.
# Topology qtz-e, (6)-cn, num edge types: 1
# Building blocks:
#     Node 0, Type 0, BuildingBlock: UKALOJ_clean_sbu_0, # of connection points: 6
#     Node 1, Type 0, BuildingBlock: UKALOJ_clean_sbu_0, # of connection points: 6
#     Node 2, Type 0, BuildingBlock: UKALOJ_clean_sbu_0, # of connection points: 6
#     Node 3, Type 0, BuildingBlock: UKALOJ_clean_sbu_0, # of connection points: 6
#     Node 4, Type 0, BuildingBlock: UKALOJ_clean_sbu_0, # of connection points: 6
#     Node 5, Type 0, BuildingBlock: UKALOJ_clean_sbu_0, # of connection points: 6
#     Edge 6, Type (0, 0), BuildingBlock: MIFKUJ_clean_linker_0, # of connection points: 2
#     Edge 7, Type (0, 0), BuildingBlock: MIFKUJ_clean_linker_0, # of connection points: 2
#     Edge 8, Type (0, 0), BuildingBlock: MIFKUJ_clean_linker_0, # of connection points: 2
#     Edge 9, Type (0, 0), BuildingBlock: MIFKUJ_clean_linker_0, # of connection points: 2
#     Edge 10, Type (0, 0), BuildingBlock: MIFKUJ_clean_linker_0, # of connection points: 2
#     Edge 11, Type (0, 0), BuildingBlock: MIFKUJ_clean_linker_0, # of connection points: 2
#     Edge 12, Type (0, 0), BuildingBlock: MIFKUJ_clean_linker_0, # of connection points: 2
#     Edge 13, Type (0, 0), BuildingBlock: MIFKUJ_clean_linker_0, # of connection points: 2
#     Edge 14, Type (0, 0), BuildingBlock: MIFKUJ_clean_linker_0, # of connection points: 2
#     Edge 15, Type (0, 0), BuildingBlock: MIFKUJ_clean_linker_0, # of connection points: 2
#     Edge 16, Type (0, 0), BuildingBlock: MIFKUJ_clean_linker_0, # of connection points: 2
#     Edge 17, Type (0, 0), BuildingBlock: MIFKUJ_clean_linker_0, # of connection points: 2
#     Edge 18, Type (0, 0), BuildingBlock: MIFKUJ_clean_linker_0, # of connection points: 2
#     Edge 19, Type (0, 0), BuildingBlock: MIFKUJ_clean_linker_0, # of connection points: 2
#     Edge 20, Type (0, 0), BuildingBlock: MIFKUJ_clean_linker_0, # of connection points: 2
#     Edge 21, Type (0, 0), BuildingBlock: MIFKUJ_clean_linker_0, # of connection points: 2
#     Edge 22, Type (0, 0), BuildingBlock: MIFKUJ_clean_linker_0, # of connection points: 2
#     Edge 23, Type (0, 0), BuildingBlock: MIFKUJ_clean_linker_0, # of connection points: 2
# Relax obj value: 0.452
# Max RMSD: 0.260
# Mean RMSD: 0.260
data_MOF--net-qtz-e--node1-UKALOJ_clean_sbu_0--edge1-MIFKUJ_clean_linker_0
_symmetry_space_group_name_H-M    P1
_symmetry_Int_Tables_number       1
_symmetry_cell_setting            triclinic
loop_
_symmetry_equiv_pos_as_xyz
'x, y, z'
_cell_length_a     35.288073
_cell_length_b     35.358281
_cell_length_c     45.925476
_cell_angle_alpha  90.038665
_cell_angle_beta   89.986569
_cell_angle_gamma 120.07091
loop_
_atom_site_label
_atom_site_type_symbol
_atom_site_fract_x
_atom_site_fract_y
_atom_site_fract_z
_atom_type_partial_charge
Zn0 Zn 0.21399 0.41162 0.01379 0.0
O1 O 0.1643 0.42615 0.02085 0.0
C2 C 0.16279 0.32661 0.04099 0.0
Zn3 Zn 0.17392 0.36314 0.98003 0.0
C4 C 0.12861 0.40675 0.0068 0.0
O5 O 0.12259 0.37724 0.98845 0.0
C6 C 0.26193 0.37234 0.98631 0.0
O7 O 0.19538 0.40876 0.94648 0.0
O8 O 0.23732 0.45743 0.97892 0.0
N9 N 0.13375 0.31391 0.95267 0.0
C10 C 0.14213 0.30029 0.92739 0.0
C11 C 0.07698 0.25312 0.93971 0.0
N12 N 0.0931 0.28475 0.9602 0.0
N13 N 0.1071 0.26261 0.91879 0.0
C14 C 0.24884 0.4792 0.06394 0.0
C15 C 0.31641 0.51777 0.05294 0.0
N16 N 0.2557 0.46044 0.04064 0.0
N17 N 0.29785 0.48416 0.03401 0.0
N18 N 0.28627 0.515 0.07204 0.0
H19 H 0.18312 0.42858 0.07468 0.0
H20 H 0.19046 0.48246 0.06866 0.0
H21 H 0.2097 0.47117 0.10179 0.0
C22 C 0.20534 0.46407 0.07809 0.0
C23 C 0.18536 0.32166 0.91195 0.0
H24 H 0.17979 0.32023 0.88813 0.0
H25 H 0.20257 0.30333 0.91672 0.0
H26 H 0.20641 0.35607 0.91858 0.0
O27 O 0.22747 0.35195 0.971 0.0
O28 O 0.26351 0.39768 0.00632 0.0
C29 C 0.22376 0.44778 0.95284 0.0
O30 O 0.19007 0.36582 0.04803 0.0
O31 O 0.15187 0.31737 0.01444 0.0
Zn32 Zn 0.81733 0.17442 0.31986 0.0
O33 O 0.7898 0.18799 0.28418 0.0
C34 C 0.88878 0.2691 0.32404 0.0
Zn35 Zn 0.80274 0.21562 0.34892 0.0
C36 C 0.77696 0.2155 0.28688 0.0
O37 O 0.77938 0.23289 0.31159 0.0
C38 C 0.84372 0.17422 0.3816 0.0
O39 O 0.74082 0.1611 0.35395 0.0
O40 O 0.75511 0.11748 0.3282 0.0
N41 N 0.78566 0.25185 0.37444 0.0
C42 C 0.75875 0.24055 0.39758 0.0
C43 C 0.78296 0.30829 0.3896 0.0
N44 N 0.80084 0.29398 0.36957 0.0
N45 N 0.7563 0.27522 0.40728 0.0
C46 C 0.86243 0.15115 0.27115 0.0
C47 C 0.84749 0.08659 0.28231 0.0
N48 N 0.8357 0.13892 0.29443 0.0
N49 N 0.82615 0.09864 0.30123 0.0
N50 N 0.87044 0.11915 0.26332 0.0
H51 H 0.8592 0.20818 0.25776 0.0
H52 H 0.88669 0.19084 0.23255 0.0
H53 H 0.91332 0.21762 0.26573 0.0
C54 C 0.88117 0.19441 0.25592 0.0
C55 C 0.7366 0.19633 0.4117 0.0
H56 H 0.70356 0.17618 0.4021 0.0
H57 H 0.73266 0.19925 0.43543 0.0
H58 H 0.75537 0.17933 0.40831 0.0
O59 O 0.82694 0.19832 0.38535 0.0
O60 O 0.84462 0.16038 0.35623 0.0
C61 C 0.72827 0.1237 0.34307 0.0
O62 O 0.87825 0.23342 0.31103 0.0
O63 O 0.86344 0.27012 0.34308 0.0
Zn64 Zn 0.57805 0.81389 0.681 0.0
O65 O 0.56293 0.74933 0.67787 0.0
C66 C 0.65851 0.84121 0.7139 0.0
Zn67 Zn 0.63289 0.83003 0.65091 0.0
C68 C 0.58627 0.73685 0.66468 0.0
O69 O 0.62184 0.76492 0.65272 0.0
C70 C 0.61936 0.90551 0.66479 0.0
O71 O 0.5917 0.81163 0.61429 0.0
O72 O 0.53916 0.80338 0.64387 0.0
N73 N 0.68695 0.84802 0.626 0.0
C74 C 0.70479 0.8777 0.60456 0.0
C75 C 0.75074 0.85749 0.61525 0.0
N76 N 0.71536 0.83515 0.63247 0.0
N77 N 0.74453 0.88403 0.59743 0.0
C78 C 0.5041 0.76331 0.72588 0.0
C79 C 0.46804 0.79691 0.72406 0.0
N80 N 0.52452 0.79618 0.70662 0.0
N81 N 0.50214 0.81707 0.70555 0.0
N82 N 0.46846 0.76289 0.73684 0.0
H83 H 0.5563 0.74935 0.73353 0.0
H84 H 0.50568 0.70394 0.72069 0.0
H85 H 0.5102 0.72178 0.75784 0.0
C86 C 0.52019 0.73306 0.73511 0.0
C87 C 0.68496 0.90279 0.59177 0.0
H88 H 0.64881 0.8842 0.59335 0.0
H89 H 0.69464 0.91047 0.56859 0.0
H90 H 0.69755 0.93414 0.6037 0.0
O91 O 0.64129 0.89452 0.64839 0.0
O92 O 0.59225 0.87807 0.6827 0.0
C93 C 0.55241 0.80263 0.61826 0.0
O94 O 0.61763 0.8248 0.71784 0.0
O95 O 0.6735 0.84785 0.68812 0.0
Zn96 Zn 0.7886 0.57845 0.01243 0.0
O97 O 0.85065 0.58685 0.01525 0.0
C98 C 0.81362 0.64902 0.05361 0.0
Zn99 Zn 0.81298 0.64033 0.98791 0.0
C100 C 0.88294 0.61926 0.00335 0.0
O101 O 0.87742 0.64748 0.98972 0.0
C102 C 0.71686 0.59575 -0.00284 0.0
O103 O 0.8039 0.61079 0.94674 0.0
O104 O 0.78157 0.54989 0.97105 0.0
N105 N 0.83887 0.70078 0.96962 0.0
C106 C 0.82212 0.71691 0.95018 0.0
C107 C 0.88537 0.76901 0.96208 0.0
N108 N 0.87818 0.73315 0.97699 0.0
N109 N 0.85041 0.75966 0.94538 0.0
C110 C 0.76906 0.5014 0.05401 0.0
C111 C 0.71948 0.44771 0.02992 0.0
N112 N 0.76184 0.51769 0.02953 0.0
N113 N 0.73099 0.48434 0.01465 0.0
N114 N 0.74274 0.4576 0.05475 0.0
H115 H 0.83035 0.558 0.06646 0.0
H116 H 0.81671 0.50862 0.08626 0.0
H117 H 0.78816 0.53782 0.09367 0.0
C118 C 0.80329 0.528 0.07625 0.0
C119 C 0.77919 0.69036 0.93474 0.0
H120 H 0.77013 0.65562 0.9332 0.0
H121 H 0.78066 0.70314 0.91246 0.0
H122 H 0.75322 0.69244 0.94703 0.0
O123 O 0.74753 0.63052 0.98589 0.0
O124 O 0.72596 0.5694 0.00969 0.0
C125 C 0.79013 0.57007 0.94696 0.0
O126 O 0.79703 0.60778 0.05342 0.0
O127 O 0.82248 0.6697 0.02963 0.0
Zn128 Zn 0.18358 0.75303 0.34864 0.0
O129 O 0.24745 0.80328 0.35241 0.0
C130 C 0.15169 0.80192 0.38219 0.0
Zn131 Zn 0.17181 0.79614 0.31945 0.0
C132 C 0.26284 0.84044 0.34057 0.0
O133 O 0.23759 0.84919 0.32586 0.0
C134 C 0.09462 0.70518 0.32601 0.0
O135 O 0.19402 0.77741 0.28301 0.0
O136 O 0.20283 0.73232 0.31124 0.0
N137 N 0.1571 0.83483 0.29434 0.0
C138 C 0.13599 0.827 0.26864 0.0
C139 C 0.14495 0.88757 0.28461 0.0
N140 N 0.163 0.87269 0.30409 0.0
N141 N 0.12826 0.85972 0.26199 0.0
C142 C 0.22101 0.72122 0.39777 0.0
C143 C 0.20636 0.65862 0.38191 0.0
N144 N 0.19774 0.71378 0.37307 0.0
N145 N 0.18835 0.67472 0.36339 0.0
N146 N 0.22663 0.68704 0.40379 0.0
H147 H 0.27744 0.77586 0.41688 0.0
H148 H 0.22756 0.75713 0.43683 0.0
H149 H 0.23652 0.78851 0.40437 0.0
C150 C 0.24176 0.7633 0.41462 0.0
C151 C 0.11926 0.78568 0.25121 0.0
H152 H 0.1372 0.79324 0.23025 0.0
H153 H 0.084 0.77202 0.24621 0.0
H154 H 0.12369 0.76064 0.26238 0.0
O155 O 0.1069 0.74107 0.31277 0.0
O156 O 0.12035 0.70223 0.34386 0.0
C157 C 0.20522 0.74876 0.28626 0.0
O158 O 0.16455 0.77449 0.38562 0.0
O159 O 0.15059 0.81541 0.35673 0.0
Zn160 Zn 0.36359 0.18315 0.65082 0.0
O161 O 0.41534 0.20579 0.6211 0.0
C162 C 0.37837 0.10969 0.6678 0.0
Zn163 Zn 0.40928 0.19886 0.68798 0.0
C164 C 0.45372 0.2178 0.63018 0.0
O165 O 0.46058 0.21747 0.65733 0.0
C166 C 0.31851 0.16389 0.70827 0.0
O167 O 0.41933 0.26248 0.68715 0.0
O168 O 0.3714 0.24693 0.65211 0.0
N169 N 0.45207 0.21432 0.72181 0.0
C170 C 0.48871 0.25186 0.72862 0.0
C171 C 0.47764 0.20658 0.76271 0.0
N172 N 0.4454 0.18608 0.74291 0.0
N173 N 0.50507 0.24796 0.75421 0.0
C174 C 0.30958 0.1395 0.59526 0.0
C175 C 0.2579 0.1539 0.59894 0.0
N176 N 0.31879 0.16635 0.61826 0.0
N177 N 0.28698 0.17577 0.62027 0.0
N178 N 0.27153 0.13117 0.58281 0.0
H179 H 0.33674 0.11473 0.56336 0.0
H180 H 0.31753 0.08339 0.59618 0.0
H181 H 0.36846 0.13492 0.59593 0.0
C182 C 0.33473 0.1171 0.58728 0.0
C183 C 0.50936 0.29203 0.71001 0.0
H184 H 0.50155 0.28389 0.68675 0.0
H185 H 0.54547 0.31006 0.7128 0.0
H186 H 0.49679 0.31374 0.7169 0.0
O187 O 0.35726 0.17956 0.71792 0.0
O188 O 0.31202 0.16089 0.68098 0.0
C189 C 0.39964 0.27451 0.6696 0.0
O190 O 0.35829 0.1201 0.64938 0.0
O191 O 0.40003 0.13622 0.688 0.0
H192 H 0.25977 0.71555 0.28747 0.0
H193 H 0.28191 0.68706 0.2464 0.0
H194 H 0.20918 0.7225 0.1878 0.0
H195 H 0.18632 0.75052 0.22899 0.0
H196 H 0.18991 0.6383 0.18079 0.0
H197 H 0.31801 0.77874 0.18601 0.0
H198 H 0.37997 0.84152 0.21021 0.0
H199 H 0.43311 0.76038 0.23497 0.0
H200 H 0.37105 0.69689 0.21134 0.0
H201 H 0.25745 0.56944 0.05849 0.0
H202 H 0.25321 0.622 0.09129 0.0
H203 H 0.31755 0.58949 0.15857 0.0
H204 H 0.32218 0.53721 0.12529 0.0
H205 H 0.34307 0.6788 0.15739 0.0
H206 H 0.21065 0.53755 0.15736 0.0
H207 H 0.14758 0.47397 0.13462 0.0
H208 H 0.10214 0.55726 0.10057 0.0
H209 H 0.16534 0.62153 0.12284 0.0
C210 C 0.24868 0.71739 0.2658 0.0
C211 C 0.22097 0.73464 0.26131 0.0
C212 C 0.26166 0.70153 0.24237 0.0
C213 C 0.24739 0.70304 0.21413 0.0
C214 C 0.22055 0.72123 0.20949 0.0
C215 C 0.20767 0.73727 0.23294 0.0
C216 C 0.25812 0.68275 0.18985 0.0
C217 C 0.22341 0.64779 0.17518 0.0
C218 C 0.30184 0.69466 0.18318 0.0
C219 C 0.33965 0.73293 0.19705 0.0
C220 C 0.34274 0.77419 0.19678 0.0
C221 C 0.3779 0.80992 0.21038 0.0
C222 C 0.41041 0.80492 0.22417 0.0
C223 C 0.40788 0.7642 0.2243 0.0
C224 C 0.37274 0.72833 0.21076 0.0
C225 C 0.27146 0.57451 0.08011 0.0
C226 C 0.28989 0.54971 0.08979 0.0
C227 C 0.26904 0.60426 0.09873 0.0
C228 C 0.28457 0.60904 0.12737 0.0
C229 C 0.30546 0.58614 0.13649 0.0
C230 C 0.30803 0.55642 0.1177 0.0
C231 C 0.27486 0.6343 0.14857 0.0
C232 C 0.30966 0.66994 0.1627 0.0
C233 C 0.23117 0.62307 0.1548 0.0
C234 C 0.19299 0.58443 0.14152 0.0
C235 C 0.18742 0.54238 0.14484 0.0
C236 C 0.15162 0.50622 0.13207 0.0
C237 C 0.12094 0.5116 0.11612 0.0
C238 C 0.12598 0.55317 0.11292 0.0
C239 C 0.16176 0.58948 0.12563 0.0
H240 H 0.09318 0.48351 0.10636 0.0
H241 H 0.43758 0.83262 0.23472 0.0
H242 H 0.44624 0.19734 0.5727 0.0
H243 H 0.50528 0.21436 0.53815 0.0
H244 H 0.60101 0.28364 0.60518 0.0
H245 H 0.54187 0.26593 0.64032 0.0
H246 H 0.61191 0.32565 0.54318 0.0
H247 H 0.59802 0.20097 0.59551 0.0
H248 H 0.55782 0.12767 0.61749 0.0
H249 H 0.50239 0.07218 0.53425 0.0
H250 H 0.54209 0.14539 0.51177 0.0
H251 H 0.78219 0.33081 0.4527 0.0
H252 H 0.73635 0.32852 0.49384 0.0
H253 H 0.62362 0.22072 0.45309 0.0
H254 H 0.66957 0.22278 0.41254 0.0
H255 H 0.62926 0.20251 0.50783 0.0
H256 H 0.63921 0.32532 0.45536 0.0
H257 H 0.6771 0.39796 0.43216 0.0
H258 H 0.73683 0.45679 0.51384 0.0
H259 H 0.69972 0.38436 0.53744 0.0
C260 C 0.47983 0.21648 0.58009 0.0
C261 C 0.48955 0.23025 0.60918 0.0
C262 C 0.51342 0.2261 0.56035 0.0
C263 C 0.55721 0.25013 0.56928 0.0
C264 C 0.56725 0.2651 0.59805 0.0
C265 C 0.53354 0.2548 0.61802 0.0
C266 C 0.59201 0.25772 0.54846 0.0
C267 C 0.61658 0.29912 0.53577 0.0
C268 C 0.59703 0.2227 0.53859 0.0
C269 C 0.57274 0.1787 0.55203 0.0
C270 C 0.57692 0.17321 0.58195 0.0
C271 C 0.55432 0.13165 0.59448 0.0
C272 C 0.52752 0.0953 0.57727 0.0
C273 C 0.5232 0.10041 0.54752 0.0
C274 C 0.5458 0.14191 0.53487 0.0
C275 C 0.74751 0.30706 0.45264 0.0
C276 C 0.72922 0.27648 0.43001 0.0
C277 C 0.72141 0.30577 0.47597 0.0
C278 C 0.6766 0.27435 0.47653 0.0
C279 C 0.65819 0.2449 0.45325 0.0
C280 C 0.6843 0.24598 0.43019 0.0
C281 C 0.64884 0.27039 0.5018 0.0
C282 C 0.6254 0.22946 0.5154 0.0
C283 C 0.64474 0.30586 0.51226 0.0
C284 C 0.66714 0.34936 0.49808 0.0
C285 C 0.66075 0.35369 0.46831 0.0
C286 C 0.68201 0.39484 0.4551 0.0
C287 C 0.70947 0.43195 0.47149 0.0
C288 C 0.71563 0.428 0.50115 0.0
C289 C 0.69448 0.38692 0.51446 0.0
H290 H 0.72589 0.46378 0.46123 0.0
H291 H 0.51025 0.06315 0.58691 0.0
H292 H 0.2638 0.53619 0.9596 0.0
H293 H 0.2978 0.59192 0.92149 0.0
H294 H 0.25965 0.49075 0.8568 0.0
H295 H 0.22471 0.43487 0.89453 0.0
H296 H 0.35538 0.56021 0.86346 0.0
H297 H 0.20914 0.5377 0.85125 0.0
H298 H 0.14158 0.53419 0.86916 0.0
H299 H 0.21524 0.66842 0.89601 0.0
H300 H 0.28343 0.67253 0.87867 0.0
H301 H 0.42489 0.67535 0.73258 0.0
H302 H 0.3766 0.62329 0.76942 0.0
H303 H 0.39233 0.73039 0.82314 0.0
H304 H 0.44044 0.78252 0.78596 0.0
H305 H 0.30806 0.66086 0.82444 0.0
H306 H 0.45243 0.68748 0.83544 0.0
H307 H 0.52341 0.69341 0.82423 0.0
H308 H 0.45925 0.5556 0.80711 0.0
H309 H 0.38755 0.54906 0.81696 0.0
C310 C 0.26226 0.5259 0.93719 0.0
C311 C 0.24185 0.48132 0.92995 0.0
C312 C 0.28139 0.55766 0.91553 0.0
C313 C 0.28085 0.54517 0.88651 0.0
C314 C 0.25996 0.50076 0.87915 0.0
C315 C 0.24011 0.469 0.90068 0.0
C316 C 0.3057 0.57833 0.86423 0.0
C317 C 0.34482 0.58178 0.85442 0.0
C318 C 0.2925 0.60753 0.85386 0.0
C319 C 0.25148 0.60526 0.86398 0.0
C320 C 0.21102 0.56634 0.86124 0.0
C321 C 0.17259 0.56427 0.87123 0.0
C322 C 0.17415 0.60101 0.88381 0.0
C323 C 0.21411 0.63996 0.88631 0.0
C324 C 0.25266 0.64219 0.87638 0.0
C325 C 0.41787 0.68755 0.75228 0.0
C326 C 0.43698 0.73263 0.75704 0.0
C327 C 0.39037 0.65799 0.77319 0.0
C328 C 0.38189 0.67315 0.79924 0.0
C329 C 0.39882 0.71816 0.80324 0.0
C330 C 0.4262 0.74778 0.78217 0.0
C331 C 0.3574 0.64193 0.82279 0.0
C332 C 0.31861 0.63911 0.83315 0.0
C333 C 0.37136 0.61366 0.83415 0.0
C334 C 0.41434 0.6179 0.82657 0.0
C335 C 0.45323 0.65855 0.82869 0.0
C336 C 0.49368 0.662 0.82267 0.0
C337 C 0.49585 0.6249 0.81503 0.0
C338 C 0.45753 0.5843 0.81314 0.0
C339 C 0.41693 0.58076 0.81874 0.0
H340 H 0.52722 0.6276 0.81053 0.0
H341 H 0.14437 0.5993 0.89157 0.0
H342 H 0.77487 0.18999 0.23042 0.0
H343 H 0.75854 0.21941 0.18718 0.0
H344 H 0.73104 0.30235 0.24156 0.0
H345 H 0.74557 0.27178 0.28494 0.0
H346 H 0.67748 0.27532 0.19848 0.0
H347 H 0.83447 0.33466 0.20846 0.0
H348 H 0.9028 0.33173 0.21064 0.0
H349 H 0.87703 0.27323 0.12579 0.0
H350 H 0.80797 0.27475 0.12329 0.0
H351 H 0.73573 0.4626 0.11289 0.0
H352 H 0.73191 0.40994 0.14916 0.0
H353 H 0.73803 0.32977 0.08049 0.0
H354 H 0.74234 0.38284 0.04424 0.0
H355 H 0.79649 0.3456 0.12542 0.0
H356 H 0.64421 0.29517 0.11341 0.0
H357 H 0.57812 0.30198 0.11049 0.0
H358 H 0.59747 0.3477 0.19886 0.0
H359 H 0.66407 0.34179 0.20219 0.0
C360 C 0.76475 0.21407 0.23319 0.0
C361 C 0.76236 0.22936 0.26104 0.0
C362 C 0.7557 0.23103 0.20845 0.0
C363 C 0.74491 0.26404 0.21116 0.0
C364 C 0.73994 0.27733 0.239 0.0
C365 C 0.7485 0.26007 0.26374 0.0
C366 C 0.74096 0.28664 0.18525 0.0
C367 C 0.70361 0.29086 0.18259 0.0
C368 C 0.77455 0.30587 0.16403 0.0
C369 C 0.81574 0.30431 0.16585 0.0
C370 C 0.84312 0.32076 0.19039 0.0
C371 C 0.88202 0.31943 0.19167 0.0
C372 C 0.89426 0.3024 0.1684 0.0
C373 C 0.8675 0.28641 0.14382 0.0
C374 C 0.82843 0.28739 0.14248 0.0
C375 C 0.73665 0.43391 0.1057 0.0
C376 C 0.74009 0.42684 0.07603 0.0
C377 C 0.73392 0.40369 0.12628 0.0
C378 C 0.73441 0.36596 0.11737 0.0
C379 C 0.73751 0.3587 0.08768 0.0
C380 C 0.73991 0.38879 0.06711 0.0
C381 C 0.73371 0.33519 0.13927 0.0
C382 C 0.77012 0.32945 0.1411 0.0
C383 C 0.69952 0.3149 0.15983 0.0
C384 C 0.65934 0.31832 0.15797 0.0
C385 C 0.63458 0.307 0.13215 0.0
C386 C 0.59698 0.31064 0.13044 0.0
C387 C 0.58365 0.32534 0.15446 0.0
C388 C 0.60784 0.33634 0.18027 0.0
C389 C 0.64549 0.33279 0.18209 0.0
H390 H 0.55453 0.32814 0.15308 0.0
H391 H 0.92449 0.30158 0.16942 0.0
H392 H 0.4692 0.78843 0.61905 0.0
H393 H 0.41557 0.75979 0.57984 0.0
H394 H 0.51079 0.75539 0.52311 0.0
H395 H 0.56524 0.78494 0.56225 0.0
H396 H 0.46538 0.78671 0.49553 0.0
H397 H 0.43159 0.66251 0.55289 0.0
H398 H 0.41729 0.61991 0.5981 0.0
H399 H 0.3022 0.62912 0.61363 0.0
H400 H 0.31624 0.67252 0.56879 0.0
H401 H 0.2944 0.67496 0.39236 0.0
H402 H 0.35175 0.68435 0.42683 0.0
H403 H 0.2824 0.70625 0.49622 0.0
H404 H 0.22487 0.696 0.46182 0.0
H405 H 0.31916 0.65707 0.51377 0.0
H406 H 0.36105 0.78971 0.45774 0.0
H407 H 0.37968 0.83439 0.41312 0.0
H408 H 0.48329 0.80768 0.39472 0.0
H409 H 0.4647 0.76206 0.43884 0.0
C410 C 0.47889 0.78159 0.59821 0.0
C411 C 0.52133 0.78862 0.59377 0.0
C412 C 0.4481 0.76495 0.5759 0.0
C413 C 0.45898 0.75454 0.54885 0.0
C414 C 0.50173 0.76288 0.54397 0.0
C415 C 0.53274 0.7798 0.5663 0.0
C416 C 0.42551 0.73547 0.52572 0.0
C417 C 0.43371 0.75779 0.49922 0.0
C418 C 0.38424 0.69784 0.53074 0.0
C419 C 0.37513 0.67103 0.55751 0.0
C420 C 0.40336 0.65569 0.56602 0.0
C421 C 0.3953 0.63138 0.59159 0.0
C422 C 0.35888 0.62185 0.60874 0.0
C423 C 0.3304 0.63653 0.60032 0.0
C424 C 0.33837 0.66095 0.5748 0.0
C425 C 0.29115 0.68073 0.41514 0.0
C426 C 0.25596 0.68549 0.42461 0.0
C427 C 0.32386 0.68635 0.43469 0.0
C428 C 0.32156 0.69671 0.4639 0.0
C429 C 0.28483 0.69851 0.47371 0.0
C430 C 0.25226 0.69301 0.45415 0.0
C431 C 0.35868 0.70905 0.48392 0.0
C432 C 0.35113 0.68542 0.50986 0.0
C433 C 0.40076 0.74523 0.47824 0.0
C434 C 0.41105 0.7719 0.45137 0.0
C435 C 0.38741 0.79286 0.44398 0.0
C436 C 0.39802 0.81844 0.4188 0.0
C437 C 0.43253 0.82368 0.40108 0.0
C438 C 0.45645 0.80339 0.40843 0.0
C439 C 0.44586 0.77764 0.43347 0.0
H440 H 0.44097 0.84362 0.38172 0.0
H441 H 0.35271 0.60305 0.62854 0.0
H442 H 0.76418 0.58778 0.89543 0.0
H443 H 0.72857 0.53593 0.85545 0.0
H444 H 0.75693 0.44388 0.89745 0.0
H445 H 0.79165 0.49506 0.9378 0.0
H446 H 0.75456 0.44731 0.82805 0.0
H447 H 0.67191 0.423 0.91934 0.0
H448 H 0.64986 0.45204 0.96084 0.0
H449 H 0.59693 0.50786 0.90176 0.0
H450 H 0.61902 0.47935 0.85994 0.0
H451 H 0.5711 0.24373 0.78055 0.0
H452 H 0.63095 0.30206 0.80911 0.0
H453 H 0.57625 0.38557 0.79395 0.0
H454 H 0.51602 0.32701 0.76682 0.0
H455 H 0.59647 0.38734 0.84886 0.0
H456 H 0.6679 0.39959 0.75722 0.0
H457 H 0.69271 0.3731 0.7158 0.0
H458 H 0.76879 0.34213 0.77373 0.0
H459 H 0.74392 0.36786 0.81557 0.0
C460 C 0.7643 0.5572 0.89556 0.0
C461 C 0.77986 0.54493 0.91979 0.0
C462 C 0.74418 0.52777 0.8727 0.0
C463 C 0.7402 0.48626 0.87371 0.0
C464 C 0.7601 0.47596 0.8963 0.0
C465 C 0.77947 0.50499 0.9194 0.0
C466 C 0.70708 0.4508 0.85557 0.0
C467 C 0.71997 0.43382 0.83253 0.0
C468 C 0.66219 0.43368 0.86159 0.0
C469 C 0.64732 0.44934 0.88661 0.0
C470 C 0.65565 0.44156 0.91525 0.0
C471 C 0.64312 0.45785 0.93882 0.0
C472 C 0.62192 0.48167 0.93395 0.0
C473 C 0.61317 0.48922 0.90552 0.0
C474 C 0.62563 0.47297 0.88188 0.0
C475 C 0.57222 0.27467 0.78344 0.0
C476 C 0.53992 0.28158 0.77097 0.0
C477 C 0.6064 0.30796 0.79944 0.0
C478 C 0.60844 0.34841 0.80314 0.0
C479 C 0.57559 0.35482 0.79109 0.0
C480 C 0.54151 0.32161 0.77532 0.0
C481 C 0.64348 0.38368 0.82064 0.0
C482 C 0.63094 0.40061 0.84398 0.0
C483 C 0.68855 0.40054 0.8147 0.0
C484 C 0.70368 0.38523 0.78956 0.0
C485 C 0.68964 0.38679 0.76116 0.0
C486 C 0.70376 0.37198 0.7376 0.0
C487 C 0.73221 0.35583 0.74214 0.0
C488 C 0.7467 0.35458 0.77025 0.0
C489 C 0.73263 0.36931 0.79389 0.0
H490 H 0.74311 0.34437 0.72387 0.0
H491 H 0.61225 0.49414 0.95225 0.0
H492 H 0.30314 0.40006 0.93454 0.0
H493 H 0.38293 0.43962 0.92921 0.0
H494 H 0.39523 0.3957 0.01449 0.0
H495 H 0.31578 0.35782 0.02021 0.0
H496 H 0.43349 0.48189 0.01236 0.0
H497 H 0.43075 0.36981 0.95022 0.0
H498 H 0.40951 0.32166 0.90722 0.0
H499 H 0.46531 0.43363 0.85092 0.0
H500 H 0.48629 0.48247 0.89358 0.0
H501 H 0.65151 0.54465 0.03395 0.0
H502 H 0.57326 0.51066 0.02547 0.0
H503 H 0.59756 0.58157 0.94474 0.0
H504 H 0.67702 0.61581 0.95313 0.0
H505 H 0.54048 0.49328 0.93806 0.0
H506 H 0.54989 0.60505 -0.00045 0.0
H507 H 0.57262 0.65419 0.04208 0.0
H508 H 0.5048 0.54386 0.09899 0.0
H509 H 0.48218 0.49396 0.05687 0.0
C510 C 0.32285 0.39681 0.95138 0.0
C511 C 0.30356 0.3758 0.97773 0.0
C512 C 0.36851 0.41981 0.94844 0.0
C513 C 0.39512 0.42121 0.97166 0.0
C514 C 0.37535 0.39545 0.99643 0.0
C515 C 0.32994 0.37324 -0.00045 0.0
C516 C 0.44239 0.45469 0.97265 0.0
C517 C 0.45696 0.4839 0.99628 0.0
C518 C 0.47259 0.45924 0.95074 0.0
C519 C 0.45952 0.42979 0.92511 0.0
C520 C 0.43803 0.38417 0.92867 0.0
C521 C 0.42615 0.35675 0.90435 0.0
C522 C 0.4359 0.37457 0.87635 0.0
C523 C 0.45767 0.41986 0.87261 0.0
C524 C 0.46956 0.44742 0.89686 0.0
C525 C 0.64031 0.55387 0.01469 0.0
C526 C 0.67032 0.58299 0.99425 0.0
C527 C 0.59549 0.53448 0.0099 0.0
C528 C 0.57949 0.54379 0.98458 0.0
C529 C 0.60928 0.57419 0.96452 0.0
C530 C 0.65454 0.59399 0.96945 0.0
C531 C 0.53178 0.51855 0.97861 0.0
C532 C 0.51694 0.49136 0.95397 0.0
C533 C 0.50112 0.51581 -0.00049 0.0
C534 C 0.51448 0.54572 0.025 0.0
C535 C 0.54005 0.59122 0.02114 0.0
C536 C 0.55288 0.61923 0.04519 0.0
C537 C 0.5402 0.60216 0.07322 0.0
C538 C 0.51458 0.55704 0.07726 0.0
C539 C 0.50168 0.52888 0.0533 0.0
H540 H 0.55018 0.6239 0.09181 0.0
H541 H 0.42671 0.35328 0.85755 0.0
H542 H 0.04228 0.63542 0.35941 0.0
H543 H 0.00321 0.56017 0.34198 0.0
H544 H 0.02428 0.60577 0.25322 0.0
H545 H 0.06365 0.68165 0.2706 0.0
H546 H 0.93246 0.51139 0.2823 0.0
H547 H 0.08561 0.5847 0.25106 0.0
H548 H 0.1641 0.63802 0.25653 0.0
H549 H 0.1652 0.58272 0.33957 0.0
H550 H 0.08638 0.52931 0.33465 0.0
H551 H 0.90053 0.2961 0.26801 0.0
H552 H 0.93586 0.37293 0.25266 0.0
H553 H 0.98633 0.4138 0.33941 0.0
H554 H 0.95003 0.33746 0.35511 0.0
H555 H 0.04453 0.46657 0.29277 0.0
H556 H 0.89307 0.40559 0.32815 0.0
H557 H 0.81281 0.35735 0.32782 0.0
H558 H 0.80812 0.38942 0.23826 0.0
H559 H 0.88845 0.43803 0.2381 0.0
C560 C 0.03664 0.6295 0.33623 0.0
C561 C 0.05629 0.66421 0.31635 0.0
C562 C 0.01457 0.58653 0.32629 0.0
C563 C 0.0118 0.57771 0.29638 0.0
C564 C 0.02639 0.61218 0.2764 0.0
C565 C 0.04847 0.65547 0.28638 0.0
C566 C 0.00101 0.53345 0.2872 0.0
C567 C 0.95707 0.5016 0.28329 0.0
C568 C 0.0331 0.5208 0.28918 0.0
C569 C 0.08012 0.55343 0.29262 0.0
C570 C 0.10249 0.58435 0.27066 0.0
C571 C 0.14708 0.61457 0.27366 0.0
C572 C 0.16965 0.61406 0.29853 0.0
C573 C 0.14765 0.58326 0.32041 0.0
C574 C 0.10304 0.55299 0.31751 0.0
C575 C 0.92104 0.32145 0.28338 0.0
C576 C 0.92315 0.31112 0.31267 0.0
C577 C 0.9406 0.36516 0.27465 0.0
C578 C 0.96314 0.3987 0.29496 0.0
C579 C 0.96908 0.38824 0.32343 0.0
C580 C 0.94873 0.34472 0.33233 0.0
C581 C 0.97585 0.44434 0.28811 0.0
C582 C 0.02013 0.47635 0.28977 0.0
C583 C 0.94405 0.45703 0.28376 0.0
C584 C 0.89663 0.42502 0.28304 0.0
C585 C 0.87497 0.4018 0.30828 0.0
C586 C 0.82951 0.37462 0.30823 0.0
C587 C 0.80545 0.37056 0.28311 0.0
C588 C 0.82684 0.39285 0.25775 0.0
C589 C 0.8723 0.42021 0.25771 0.0
H590 H 0.77017 0.35048 0.28342 0.0
H591 H 0.20421 0.63728 0.30082 0.0
H592 H 0.38591 0.0795 0.61472 0.0
H593 H 0.43169 0.04721 0.60507 0.0
H594 H 0.44051 0.02997 0.69731 0.0
H595 H 0.39557 0.06312 0.7071 0.0
H596 H 0.52063 0.08511 0.67091 0.0
H597 H 0.38981 0.94252 0.64993 0.0
H598 H 0.32209 0.89807 0.62176 0.0
H599 H 0.39596 0.93539 0.54221 0.0
H600 H 0.46406 0.98038 0.5699 0.0
H601 H 0.60754 0.95516 0.70431 0.0
H602 H 0.57382 -0.00085 0.69435 0.0
H603 H 0.5868 0.98592 0.60196 0.0
H604 H 0.62073 0.94138 0.61206 0.0
H605 H 0.50371 0.95735 0.61526 0.0
H606 H 0.63332 0.08805 0.63164 0.0
H607 H 0.70394 0.1412 0.65368 0.0
H608 H 0.63863 0.13837 0.73323 0.0
H609 H 0.56765 0.08465 0.71187 0.0
C610 C 0.39571 0.06683 0.63286 0.0
C611 C 0.3876 0.07423 0.66171 0.0
C612 C 0.42227 0.04872 0.6273 0.0
C613 C 0.44013 0.03702 0.65053 0.0
C614 C 0.42745 0.03936 0.67912 0.0
C615 C 0.40137 0.05782 0.68468 0.0
C616 C 0.47659 0.02841 0.64582 0.0
C617 C 0.51687 0.05686 0.65907 0.0
C618 C 0.47261 0.99372 0.62837 0.0
C619 C 0.43195 0.96497 0.61197 0.0
C620 C 0.39158 0.94126 0.62643 0.0
C621 C 0.35314 0.91598 0.61055 0.0
C622 C 0.35472 0.91394 0.58022 0.0
C623 C 0.39479 0.93696 0.56571 0.0
C624 C 0.43332 0.96227 0.58149 0.0
C625 C 0.60518 0.96343 0.68192 0.0
C626 C 0.61661 0.94491 0.65899 0.0
C627 C 0.58576 0.98853 0.67617 0.0
C628 C 0.57743 0.99561 0.64736 0.0
C629 C 0.59276 0.9807 0.62434 0.0
C630 C 0.61268 0.95579 0.63013 0.0
C631 C 0.54702 0.01241 0.64218 0.0
C632 C 0.50788 0.98592 0.62687 0.0
C633 C 0.55248 0.04988 0.65694 0.0
C634 C 0.59509 0.0821 0.67014 0.0
C635 C 0.63401 0.09848 0.65392 0.0
C636 C 0.67413 0.12877 0.66628 0.0
C637 C 0.67578 0.14313 0.69485 0.0
C638 C 0.6373 0.12724 0.7111 0.0
C639 C 0.59708 0.09691 0.69884 0.0
H640 H 0.70687 0.16659 0.70438 0.0
H641 H 0.3249 0.89455 0.56795 0.0
H642 H 0.50161 0.67779 0.65597 0.0
H643 H 0.46832 0.59911 0.65026 0.0
H644 H 0.59555 0.61035 0.65744 0.0
H645 H 0.62963 0.69039 0.66175 0.0
H646 H 0.54258 0.54669 0.61837 0.0
H647 H 0.53236 0.58653 0.71621 0.0
H648 H 0.5167 0.6292 0.75165 0.0
H649 H 0.38101 0.5598 0.72726 0.0
H650 H 0.39615 0.51762 0.69082 0.0
H651 H 0.48251 0.34077 0.67475 0.0
H652 H 0.51001 0.41858 0.66978 0.0
H653 H 0.37941 0.39295 0.65119 0.0
H654 H 0.35123 0.31379 0.65674 0.0
H655 H 0.43005 0.46275 0.69356 0.0
H656 H 0.44319 0.41842 0.5969 0.0
H657 H 0.46396 0.38034 0.56084 0.0
H658 H 0.59885 0.45859 0.58587 0.0
H659 H 0.57881 0.49671 0.62242 0.0
C660 C 0.52259 0.66356 0.6562 0.0
C661 C 0.56804 0.6898 0.66002 0.0
C662 C 0.50354 0.61865 0.65279 0.0
C663 C 0.52934 0.59885 0.65415 0.0
C664 C 0.5751 0.62512 0.65651 0.0
C665 C 0.59447 0.67058 0.65919 0.0
C666 C 0.50775 0.55066 0.65566 0.0
C667 C 0.51827 0.52832 0.63492 0.0
C668 C 0.47556 0.52679 0.67708 0.0
C669 C 0.46546 0.54919 0.70062 0.0
C670 C 0.49916 0.58033 0.71839 0.0
C671 C 0.49042 0.60455 0.73856 0.0
C672 C 0.44793 0.59728 0.74161 0.0
C673 C 0.41394 0.56543 0.72475 0.0
C674 C 0.42258 0.54138 0.7043 0.0
C675 C 0.45936 0.35156 0.6704 0.0
C676 C 0.41459 0.32139 0.66695 0.0
C677 C 0.47526 0.39604 0.66708 0.0
C678 C 0.44676 0.41135 0.66001 0.0
C679 C 0.40182 0.38151 0.65666 0.0
C680 C 0.38583 0.33655 0.65977 0.0
C681 C 0.46482 0.45876 0.65622 0.0
C682 C 0.4539 0.48105 0.67675 0.0
C683 C 0.49715 0.48254 0.63491 0.0
C684 C 0.50943 0.46025 0.61254 0.0
C685 C 0.47725 0.42734 0.59485 0.0
C686 C 0.4889 0.40576 0.57431 0.0
C687 C 0.53269 0.41698 0.5711 0.0
C688 C 0.56494 0.44993 0.58838 0.0
C689 C 0.55346 0.47158 0.60899 0.0
H690 H 0.54163 0.4002 0.55521 0.0
H691 H 0.44142 0.6163 0.75712 0.0
H692 H 0.11639 0.44734 0.05318 0.0
H693 H 0.07872 0.48942 0.05314 0.0
H694 H 0.0344 0.44688 0.96536 0.0
H695 H 0.07286 0.40522 0.96505 0.0
H696 H 0.0771 0.53788 0.9728 0.0
H697 H 0.96131 0.40857 0.02004 0.0
H698 H 0.93131 0.3509 0.05756 0.0
H699 H 0.97351 0.44838 0.12466 0.0
H700 H 0.00413 0.50664 0.08754 0.0
H701 H 0.92107 0.60666 0.95642 0.0
H702 H 0.97118 0.57799 0.95796 0.0
H703 H 0.98666 0.60113 0.05073 0.0
H704 H 0.93416 0.62712 0.04924 0.0
H705 H 0.96296 0.5227 0.04245 0.0
H706 H 0.07469 0.65218 -0.00143 0.0
H707 H 0.1096 0.71318 0.96368 0.0
H708 H 0.08358 0.6225 0.8939 0.0
H709 H 0.04805 0.56087 0.92828 0.0
C710 C 0.0981 0.44643 0.03403 0.0
C711 C 0.09785 0.42335 0.00903 0.0
C712 C 0.07644 0.47031 0.0341 0.0
C713 C 0.05396 0.47134 0.00923 0.0
C714 C 0.05174 0.44654 0.98473 0.0
C715 C 0.07327 0.42241 0.9847 0.0
C716 C 0.03519 0.50048 0.00827 0.0
C717 C 0.05165 0.53436 0.98769 0.0
C718 C 0.0037 0.497 0.0287 0.0
C719 C 0.98521 0.46195 0.05102 0.0
C720 C 0.96442 0.4177 0.0428 0.0
C721 C 0.94724 0.38491 0.064 0.0
C722 C 0.95053 0.39597 0.09348 0.0
C723 C 0.97096 0.43985 0.10182 0.0
C724 C 0.98815 0.47276 0.08072 0.0
C725 C 0.93691 0.60754 0.97683 0.0
C726 C 0.92448 0.61951 0.00265 0.0
C727 C 0.96552 0.59102 0.97777 0.0
C728 C 0.98282 0.58723 0.0045 0.0
C729 C 0.97357 0.60339 0.02988 0.0
C730 C 0.9441 0.61881 0.02901 0.0
C731 C 0.00449 0.56048 0.00667 0.0
C732 C 0.98863 0.52685 0.02754 0.0
C733 C 0.03726 0.56487 0.98688 0.0
C734 C 0.0583 0.60183 0.96601 0.0
C735 C 0.07604 0.64519 0.97574 0.0
C736 C 0.09605 0.6799 0.95606 0.0
C737 C 0.09874 0.67171 0.92659 0.0
C738 C 0.08147 0.62879 0.91674 0.0
C739 C 0.06145 0.59395 0.93633 0.0
H740 H 0.11427 0.69863 0.91139 0.0
H741 H 0.93722 0.37054 0.10985 0.0
H742 H 0.31022 0.92951 0.33118 0.0
H743 H 0.39047 0.97585 0.33147 0.0
H744 H 0.40251 0.86246 0.34902 0.0
H745 H 0.32365 0.81719 0.35075 0.0
H746 H 0.45689 0.92373 0.3814 0.0
H747 H 0.42205 0.91067 0.28043 0.0
H748 H 0.38485 0.91417 0.23593 0.0
H749 H 0.44033 0.05252 0.24746 0.0
H750 H 0.47746 0.04975 0.29228 0.0
H751 H 0.68822 0.03515 0.332 0.0
H752 H 0.60878 0.98274 0.33176 0.0
H753 H 0.58373 0.08586 0.35637 0.0
H754 H 0.66186 0.13764 0.35731 0.0
H755 H 0.53807 0.02666 0.30114 0.0
H756 H 0.56788 0.0312 0.40681 0.0
H757 H 0.60537 0.02124 0.44895 0.0
H758 H 0.56 0.88863 0.42291 0.0
H759 H 0.52316 0.89827 0.38024 0.0
C760 C 0.3302 0.91481 0.33543 0.0
C761 C 0.31068 0.86992 0.34125 0.0
C762 C 0.37595 0.94112 0.33537 0.0
C763 C 0.40261 0.92256 0.34026 0.0
C764 C 0.38285 0.87771 0.34579 0.0
C765 C 0.33756 0.85183 0.34663 0.0
C766 C 0.45111 0.94941 0.34001 0.0
C767 C 0.4745 0.94573 0.36359 0.0
C768 C 0.47437 0.97805 0.3168 0.0
C769 C 0.45216 0.97993 0.28987 0.0
C770 C 0.42604 0.94179 0.2736 0.0
C771 C 0.40503 0.94365 0.2483 0.0
C772 C 0.41013 0.98352 0.23892 0.0
C773 C 0.43636 0.02164 0.25479 0.0
C774 C 0.45743 0.01996 0.28012 0.0
C775 C 0.6657 0.04636 0.33771 0.0
C776 C 0.68134 0.0904 0.34491 0.0
C777 C 0.62053 0.01655 0.3375 0.0
C778 C 0.59078 0.03077 0.34396 0.0
C779 C 0.60635 0.07446 0.35133 0.0
C780 C 0.65111 0.10388 0.35207 0.0
C781 C 0.54312 0.00086 0.34247 0.0
C782 C 0.52009 0.00413 0.31865 0.0
C783 C 0.52023 0.97088 0.36496 0.0
C784 C 0.5431 0.96554 0.39027 0.0
C785 C 0.56637 0.00011 0.4099 0.0
C786 C 0.58744 0.99451 0.4339 0.0
C787 C 0.58517 0.95436 0.43857 0.0
C788 C 0.56182 0.91974 0.41925 0.0
C789 C 0.54085 0.92525 0.39516 0.0
H790 H 0.60142 0.95006 0.4572 0.0
H791 H 0.39383 0.9849 0.21933 0.0
H792 H 0.31634 0.15344 0.76738 0.0
H793 H 0.26014 0.14905 0.80083 0.0
H794 H 0.18298 0.14851 0.72793 0.0
H795 H 0.23819 0.15177 0.69431 0.0
H796 H 0.22174 0.22409 0.77302 0.0
H797 H 0.13297 0.06833 0.76049 0.0
H798 H 0.11883 0.99263 0.76025 0.0
H799 H 0.1521 0.00305 0.85096 0.0
H800 H 0.16713 0.0791 0.85164 0.0
H801 H 0.08379 0.25887 0.86289 0.0
H802 H 0.101 0.22275 0.8235 0.0
H803 H 0.15156 0.16904 0.88682 0.0
H804 H 0.13302 0.20421 0.92595 0.0
H805 H 0.11681 0.11377 0.84243 0.0
H806 H 0.22261 0.26634 0.85445 0.0
H807 H 0.25026 0.34558 0.85813 0.0
H808 H 0.19707 0.3443 0.77382 0.0
H809 H 0.1697 0.2651 0.76947 0.0
C810 C 0.28684 0.15116 0.75847 0.0
C811 C 0.28188 0.15349 0.72828 0.0
C812 C 0.25471 0.14834 0.77756 0.0
C813 C 0.21755 0.14826 0.76669 0.0
C814 C 0.21133 0.14807 0.73658 0.0
C815 C 0.243 0.1501 0.71747 0.0
C816 C 0.18998 0.15682 0.78655 0.0
C817 C 0.19787 0.19972 0.78769 0.0
C818 C 0.16053 0.1253 0.80638 0.0
C819 C 0.1516 0.0796 0.80603 0.0
C820 C 0.13775 0.05467 0.78031 0.0
C821 C 0.12945 0.01164 0.78012 0.0
C822 C 0.13467 0.99307 0.80556 0.0
C823 C 0.14811 0.01748 0.83127 0.0
C824 C 0.15648 0.06054 0.83157 0.0
C825 C 0.09693 0.23784 0.8682 0.0
C826 C 0.10694 0.23369 0.89706 0.0
C827 C 0.10709 0.2176 0.84586 0.0
C828 C 0.12825 0.19385 0.85225 0.0
C829 C 0.13516 0.18707 0.88141 0.0
C830 C 0.1246 0.20699 0.90369 0.0
C831 C 0.14837 0.18113 0.82877 0.0
C832 C 0.13968 0.13781 0.82718 0.0
C833 C 0.17838 0.21257 0.809 0.0
C834 C 0.19363 0.25981 0.81181 0.0
C835 C 0.21656 0.28294 0.8368 0.0
C836 C 0.23236 0.32785 0.83894 0.0
C837 C 0.22512 0.34989 0.81633 0.0
C838 C 0.20247 0.32714 0.79138 0.0
C839 C 0.18699 0.2823 0.789 0.0
H840 H 0.23724 0.38463 0.81808 0.0
H841 H 0.12821 0.95974 0.80537 0.0
H842 H 0.95666 0.17333 0.26732 0.0
H843 H 0.01022 0.1915 0.22822 0.0
H844 H 0.90999 0.09121 0.17428 0.0
H845 H 0.85625 0.07359 0.21365 0.0
H846 H 0.04446 0.15386 0.1937 0.0
H847 H 0.91961 0.13832 0.10641 0.0
H848 H 0.84944 0.13759 0.1028 0.0
H849 H 0.87939 0.21343 0.18122 0.0
H850 H 0.95013 0.21552 0.18492 0.0
H851 H 0.09848 0.24206 0.03273 0.0
H852 H 0.05263 0.18982 0.06989 0.0
H853 H 0.12925 0.28174 0.13714 0.0
H854 H 0.17533 0.33456 0.10007 0.0
H855 H 0.00424 0.21069 0.10744 0.0
H856 H 0.12301 0.22162 0.19851 0.0
H857 H 0.19646 0.23 0.20317 0.0
H858 H 0.18346 0.17321 0.11849 0.0
H859 H 0.1097 0.16388 0.11347 0.0
C860 C 0.94664 0.15452 0.24734 0.0
C861 C 0.90272 0.12251 0.24305 0.0
C862 C 0.97711 0.16467 0.22513 0.0
C863 C 0.96391 0.14308 0.19825 0.0
C864 C 0.92067 0.10846 0.19482 0.0
C865 C 0.89014 0.09828 0.21718 0.0
C866 C 0.99373 0.16119 0.17301 0.0
C867 C 0.03573 0.16617 0.17475 0.0
C868 C 0.98211 0.17705 0.14828 0.0
C869 C 0.93981 0.17639 0.14617 0.0
C870 C 0.91123 0.1549 0.12284 0.0
C871 C 0.87141 0.15435 0.12075 0.0
C872 C 0.85992 0.17534 0.14183 0.0
C873 C 0.88831 0.19711 0.16496 0.0
C874 C 0.92826 0.19799 0.16706 0.0
C875 C 0.10624 0.25094 0.05543 0.0
C876 C 0.14027 0.29269 0.06348 0.0
C877 C 0.07998 0.22097 0.0766 0.0
C878 C 0.0876 0.23195 0.10617 0.0
C879 C 0.12317 0.27253 0.11438 0.0
C880 C 0.14933 0.30273 0.09319 0.0
C881 C 0.05514 0.20364 0.12813 0.0
C882 C 0.01267 0.19721 0.12591 0.0
C883 C 0.06673 0.18737 0.1526 0.0
C884 C 0.1109 0.19237 0.15554 0.0
C885 C 0.13572 0.21071 0.18094 0.0
C886 C 0.17744 0.21567 0.18363 0.0
C887 C 0.19466 0.20226 0.16111 0.0
C888 C 0.17015 0.18374 0.13587 0.0
C889 C 0.12841 0.17868 0.13307 0.0
H890 H 0.22697 0.20614 0.16323 0.0
H891 H 0.82908 0.17487 0.1402 0.0
H892 H 0.79532 0.96566 0.61639 0.0
H893 H 0.83925 0.0302 0.58583 0.0
H894 H 0.8082 0.94661 0.51054 0.0
H895 H 0.76452 0.88223 0.54139 0.0
H896 H 0.89508 0.02163 0.50976 0.0
H897 H 0.74088 0.98522 0.52475 0.0
H898 H 0.67826 0.97263 0.55562 0.0
H899 H 0.75794 0.09616 0.59786 0.0
H900 H 0.8208 0.10973 0.56691 0.0
H901 H 0.85635 0.10452 0.3837 0.0
H902 H 0.86635 0.07095 0.42688 0.0
H903 H 0.87529 0.17623 0.47973 0.0
H904 H 0.86281 0.20884 0.43647 0.0
H905 H 0.81786 0.10594 0.5012 0.0
H906 H 0.96276 0.15237 0.47335 0.0
H907 H 0.02488 0.16739 0.44141 0.0
H908 H 0.96909 0.03007 0.42505 0.0
H909 H 0.90624 0.01418 0.4565 0.0
C910 C 0.79941 0.96136 0.59348 0.0
C911 C 0.77721 0.91963 0.58094 0.0
C912 C 0.82421 0.99796 0.5761 0.0
C913 C 0.82663 0.99303 0.54597 0.0
C914 C 0.80692 0.95094 0.53381 0.0
C915 C 0.78209 0.91434 0.55125 0.0
C916 C 0.84367 0.0313 0.52654 0.0
C917 C 0.87855 0.04039 0.50778 0.0
C918 C 0.82308 0.05672 0.52497 0.0
C919 C 0.78554 0.04825 0.54379 0.0
C920 C 0.74503 0.00955 0.54073 0.0
C921 C 0.7095 0.00232 0.55815 0.0
C922 C 0.71422 0.03342 0.57882 0.0
C923 C 0.75438 0.07203 0.58192 0.0
C924 C 0.78989 0.0796 0.56436 0.0
C925 C 0.86148 0.12111 0.4044 0.0
C926 C 0.8582 0.15895 0.40681 0.0
C927 C 0.86774 0.1021 0.42914 0.0
C928 C 0.87201 0.12118 0.45667 0.0
C929 C 0.87201 0.16084 0.45875 0.0
C930 C 0.86481 0.17941 0.43405 0.0
C931 C 0.86871 0.09585 0.48324 0.0
C932 C 0.83601 0.0888 0.5035 0.0
C933 C 0.89183 0.07288 0.48629 0.0
C934 C 0.92963 0.08211 0.46729 0.0
C935 C 0.96354 0.12536 0.46281 0.0
C936 C -0.00107 0.13403 0.44479 0.0
C937 C 0.00092 0.09971 0.4312 0.0
C938 C 0.96753 0.05662 0.43562 0.0
C939 C 0.93205 0.04776 0.4536 0.0
H940 H 0.02834 0.10649 0.41725 0.0
H941 H 0.68672 0.02771 0.59234 0.0
H942 H 0.74772 0.88054 0.71288 0.0
H943 H 0.79629 0.89026 0.75364 0.0
H944 H 0.68552 0.8335 0.81192 0.0
H945 H 0.63673 0.82421 0.7714 0.0
H946 H 0.75916 0.90167 0.83753 0.0
H947 H 0.71998 0.77018 0.78113 0.0
H948 H 0.71567 0.73056 0.73588 0.0
H949 H 0.85547 0.80614 0.72669 0.0
H950 H 0.86049 0.84663 0.77171 0.0
H951 H 0.78209 0.77327 0.94347 0.0
H952 H 0.76704 0.81218 0.90545 0.0
H953 H 0.89307 0.85209 0.86668 0.0
H954 H 0.90739 0.81173 0.90458 0.0
H955 H 0.82979 0.81115 0.82856 0.0
H956 H 0.86871 0.92899 0.89305 0.0
H957 H 0.8715 0.96637 0.93899 0.0
H958 H 0.73288 0.91637 0.93437 0.0
H959 H 0.72907 0.87812 0.88862 0.0
C960 C 0.73374 0.87065 0.73444 0.0
C961 C 0.6883 0.85101 0.73889 0.0
C962 C 0.76157 0.87636 0.75769 0.0
C963 C 0.74438 0.86217 0.78567 0.0
C964 C 0.69939 0.84476 0.79046 0.0
C965 C 0.67154 0.83919 0.76725 0.0
C966 C 0.7721 0.86085 0.8093 0.0
C967 C 0.77475 0.882 0.83571 0.0
C968 C 0.79356 0.83632 0.80644 0.0
C969 C 0.79056 0.81177 0.77953 0.0
C970 C 0.74975 0.77855 0.76933 0.0
C971 C 0.74718 0.75591 0.74375 0.0
C972 C 0.78526 0.76593 0.72837 0.0
C973 C 0.82599 0.7985 0.73859 0.0
C974 C 0.82873 0.82129 0.76413 0.0
C975 C 0.80669 0.7909 0.92701 0.0
C976 C 0.84532 0.78884 0.9263 0.0
C977 C 0.79845 0.81366 0.90556 0.0
C978 C 0.82903 0.83524 0.88325 0.0
C979 C 0.86909 0.83573 0.88373 0.0
C980 C 0.8773 0.81285 0.90528 0.0
C981 C 0.81584 0.85084 0.85738 0.0
C982 C 0.81566 0.83215 0.83038 0.0
C983 C 0.79661 0.87751 0.85984 0.0
C984 C 0.79861 0.90052 0.88738 0.0
C985 C 0.83875 0.9257 0.90191 0.0
C986 C 0.84052 0.9471 0.92792 0.0
C987 C 0.80239 0.94372 0.9396 0.0
C988 C 0.76241 0.91899 0.92528 0.0
C989 C 0.76044 0.89751 0.89926 0.0
H990 H 0.80384 0.96031 0.95974 0.0
H991 H 0.78321 0.74837 0.70857 0.0
H992 H 0.05782 0.8685 0.27124 0.0
H993 H 0.99706 0.84758 0.23709 0.0
H994 H 0.07003 0.82537 0.17043 0.0
H995 H 0.13136 0.84837 0.20419 0.0
H996 H 0.01899 0.84994 0.14587 0.0
H997 H 0.0035 0.74357 0.2168 0.0
H998 H 0.00125 0.71568 0.26637 0.0
H999 H 0.89194 0.73237 0.28748 0.0
H1000 H 0.89394 0.76091 0.23809 0.0
H1001 H 0.83764 0.6238 0.10278 0.0
H1002 H 0.88297 0.67143 0.1419 0.0
H1003 H 0.87065 0.77764 0.10607 0.0
H1004 H 0.82727 0.73052 0.06574 0.0
H1005 H 0.88635 0.71934 0.18402 0.0
H1006 H 0.96728 0.87096 0.10952 0.0
H1007 H 0.97619 0.88849 0.05704 0.0
H1008 H 0.96582 0.76464 0.03821 0.0
H1009 H 0.95753 0.74674 0.09058 0.0
C1010 C 0.06135 0.8608 0.24894 0.0
C1011 C 0.09849 0.8588 0.24037 0.0
C1012 C 0.02661 0.84853 0.22954 0.0
C1013 C 0.02853 0.83368 0.2015 0.0
C1014 C 0.06761 0.83628 0.19205 0.0
C1015 C 0.10245 0.84898 0.21134 0.0
C1016 C 0.98847 0.80979 0.18352 0.0
C1017 C 0.98968 0.82184 0.15431 0.0
C1018 C 0.95074 0.77227 0.1943 0.0
C1019 C 0.94921 0.75488 0.22393 0.0
C1020 C 0.97918 0.74156 0.2321 0.0
C1021 C 0.97794 0.72562 0.26013 0.0
C1022 C 0.94657 0.7224 0.28009 0.0
C1023 C 0.91629 0.73499 0.27202 0.0
C1024 C 0.91745 0.75106 0.24401 0.0
C1025 C 0.84354 0.65694 0.10365 0.0
C1026 C 0.82963 0.67374 0.08099 0.0
C1027 C 0.86949 0.68422 0.12609 0.0
C1028 C 0.88131 0.72853 0.1265 0.0
C1029 C 0.86302 0.74392 0.10574 0.0
C1030 C 0.83803 0.71693 0.08282 0.0
C1031 C 0.91693 0.75915 0.14619 0.0
C1032 C 0.91499 0.7483 0.17575 0.0
C1033 C 0.95499 0.79636 0.13532 0.0
C1034 C 0.96123 0.80735 0.10389 0.0
C1035 C 0.96711 0.8476 0.09417 0.0
C1036 C 0.97203 0.85758 0.06445 0.0
C1037 C 0.9714 0.82762 0.04429 0.0
C1038 C 0.96618 0.78776 0.05383 0.0
C1039 C 0.9614 0.77771 0.08351 0.0
H1040 H 0.97504 0.83534 0.0213 0.0
H1041 H 0.94564 0.71004 0.30179 0.0
H1042 H 0.1928 0.06226 0.59524 0.0
H1043 H 0.15416 0.99435 0.5668 0.0
H1044 H 0.25287 0.05171 0.49988 0.0
H1045 H 0.29062 0.11989 0.52794 0.0
H1046 H 0.12176 0.97284 0.50765 0.0
H1047 H 0.28699 0.97587 0.48939 0.0
H1048 H 0.35718 0.00154 0.51499 0.0
H1049 H 0.2951 0.99475 0.59674 0.0
H1050 H 0.22435 0.96816 0.57176 0.0
H1051 H 0.13228 0.86741 0.38231 0.0
H1052 H 0.13338 0.91044 0.42389 0.0
H1053 H 0.15261 0.82516 0.48158 0.0
H1054 H 0.15298 0.78254 0.43975 0.0
H1055 H 0.21265 0.904 0.49079 0.0
H1056 H 0.05916 0.83559 0.4859 0.0
H1057 H 0.98593 0.80543 0.46389 0.0
H1058 H 0.01787 0.93359 0.43517 0.0
H1059 H 0.09156 0.96449 0.45659 0.0
C1060 C 0.20528 0.06056 0.57403 0.0
C1061 C 0.24486 0.09556 0.56378 0.0
C1062 C 0.18343 0.02192 0.55795 0.0
C1063 C 0.2013 0.01799 0.53165 0.0
C1064 C 0.2391 0.05411 0.52042 0.0
C1065 C 0.2606 0.0928 0.53634 0.0
C1066 C 0.18279 0.97545 0.5168 0.0
C1067 C 0.14127 0.95741 0.50401 0.0
C1068 C 0.2078 0.95462 0.51335 0.0
C1069 C 0.25035 0.9704 0.5286 0.0
C1070 C 0.28822 0.97966 0.51284 0.0
C1071 C 0.32813 0.99438 0.52725 0.0
C1072 C 0.33062 -7e-05 0.55745 0.0
C1073 C 0.29316 0.9906 0.57333 0.0
C1074 C 0.25315 0.97577 0.55904 0.0
C1075 C 0.13569 0.8571 0.40388 0.0
C1076 C 0.14315 0.82193 0.40771 0.0
C1077 C 0.13593 0.88158 0.42774 0.0
C1078 C 0.1429 0.87097 0.45593 0.0
C1079 C 0.14724 0.83397 0.46001 0.0
C1080 C 0.14739 0.80962 0.43609 0.0
C1081 C 0.15227 0.90231 0.48005 0.0
C1082 C 0.19236 0.91851 0.49475 0.0
C1083 C 0.1254 0.92068 0.48577 0.0
C1084 C 0.08104 0.90235 0.4728 0.0
C1085 C 0.05071 0.85733 0.47472 0.0
C1086 C 0.00908 0.8401 0.46236 0.0
C1087 C 0.99727 0.86757 0.44812 0.0
C1088 C 0.02706 0.91235 0.44623 0.0
C1089 C 0.06875 0.92976 0.45853 0.0
H1090 H 0.96502 0.85416 0.43857 0.0
H1091 H 0.36153 0.01131 0.56856 0.0
loop_
_geom_bond_atom_site_label_1
_geom_bond_atom_site_label_2
_geom_bond_distance
_geom_bond_site_symmetry_2
_ccdc_geom_bond_type
Zn0 O1 2.055 . S
Zn0 O8 2.046 1_554 S
Zn0 N16 2.036 . S
Zn0 O28 2.053 . S
Zn0 O30 2.066 . S
O1 Zn0 2.055 . S
O1 C4 1.259 1_554 S
C2 O30 1.256 . S
C2 O31 1.244 . S
Zn3 O5 2.046 . S
Zn3 O7 2.055 . S
Zn3 N9 2.036 . S
Zn3 O27 2.066 . S
Zn3 O31 2.053 1_556 S
C4 O1 1.259 1_556 S
C4 O5 1.254 . S
O5 Zn3 2.046 . S
O5 C4 1.254 . S
C6 O27 1.256 1_554 S
C6 O28 1.244 . S
O7 Zn3 2.055 . S
O7 C29 1.259 . S
O8 Zn0 2.046 1_556 S
O8 C29 1.254 . S
N9 Zn3 2.036 . S
N9 C10 1.298 . S
N9 N12 1.398 . S
C10 N9 1.298 . S
C10 N13 1.367 . S
C10 C23 1.481 . S
C11 N12 1.299 . S
C11 N13 1.379 . S
N12 N9 1.398 . S
N12 C11 1.299 . S
N13 C10 1.367 . S
N13 C11 1.379 . S
C14 N16 1.298 . S
C14 N18 1.367 . S
C14 C22 1.481 . S
C15 N17 1.299 . S
C15 N18 1.379 . S
N16 Zn0 2.036 . S
N16 C14 1.298 . S
N16 N17 1.398 . S
N17 C15 1.299 . S
N17 N16 1.398 . S
N18 C14 1.367 . S
N18 C15 1.379 . S
H19 C22 0.980 . S
H20 C22 0.981 . S
H21 C22 0.981 . S
C22 C14 1.481 . S
C22 H19 0.980 . S
C22 H20 0.981 . S
C22 H21 0.981 . S
C23 C10 1.481 . S
C23 H24 0.980 . S
C23 H25 0.981 . S
C23 H26 0.981 . S
H24 C23 0.980 . S
H25 C23 0.981 . S
H26 C23 0.981 . S
O27 Zn3 2.066 . S
O27 C6 1.256 1_556 S
O28 Zn0 2.053 . S
O28 C6 1.244 . S
C29 O7 1.259 . S
C29 O8 1.254 . S
O30 Zn0 2.066 . S
O30 C2 1.256 . S
O31 C2 1.244 . S
O31 Zn3 2.053 1_554 S
Zn32 O33 2.055 . S
Zn32 O40 2.046 . S
Zn32 N48 2.036 . S
Zn32 O60 2.053 . S
Zn32 O62 2.066 . S
O33 Zn32 2.055 . S
O33 C36 1.259 . S
C34 O62 1.256 . S
C34 O63 1.244 . S
Zn35 O37 2.046 . S
Zn35 O39 2.055 . S
Zn35 N41 2.036 . S
Zn35 O59 2.066 . S
Zn35 O63 2.053 . S
C36 O33 1.259 . S
C36 O37 1.254 . S
O37 Zn35 2.046 . S
O37 C36 1.254 . S
C38 O59 1.256 . S
C38 O60 1.244 . S
O39 Zn35 2.055 . S
O39 C61 1.259 . S
O40 Zn32 2.046 . S
O40 C61 1.254 . S
N41 Zn35 2.036 . S
N41 C42 1.298 . S
N41 N44 1.398 . S
C42 N41 1.298 . S
C42 N45 1.367 . S
C42 C55 1.481 . S
C43 N44 1.299 . S
C43 N45 1.379 . S
N44 N41 1.398 . S
N44 C43 1.299 . S
N45 C42 1.367 . S
N45 C43 1.379 . S
C46 N48 1.298 . S
C46 N50 1.367 . S
C46 C54 1.481 . S
C47 N49 1.299 . S
C47 N50 1.379 . S
N48 Zn32 2.036 . S
N48 C46 1.298 . S
N48 N49 1.398 . S
N49 C47 1.299 . S
N49 N48 1.398 . S
N50 C46 1.367 . S
N50 C47 1.379 . S
H51 C54 0.980 . S
H52 C54 0.981 . S
H53 C54 0.981 . S
C54 C46 1.481 . S
C54 H51 0.980 . S
C54 H52 0.981 . S
C54 H53 0.981 . S
C55 C42 1.481 . S
C55 H56 0.980 . S
C55 H57 0.981 . S
C55 H58 0.981 . S
H56 C55 0.980 . S
H57 C55 0.981 . S
H58 C55 0.981 . S
O59 Zn35 2.066 . S
O59 C38 1.256 . S
O60 Zn32 2.053 . S
O60 C38 1.244 . S
C61 O39 1.259 . S
C61 O40 1.254 . S
O62 Zn32 2.066 . S
O62 C34 1.256 . S
O63 C34 1.244 . S
O63 Zn35 2.053 . S
Zn64 O65 2.055 . S
Zn64 O72 2.046 . S
Zn64 N80 2.036 . S
Zn64 O92 2.053 . S
Zn64 O94 2.066 . S
O65 Zn64 2.055 . S
O65 C68 1.259 . S
C66 O94 1.256 . S
C66 O95 1.244 . S
Zn67 O69 2.046 . S
Zn67 O71 2.055 . S
Zn67 N73 2.036 . S
Zn67 O91 2.066 . S
Zn67 O95 2.053 . S
C68 O65 1.259 . S
C68 O69 1.254 . S
O69 Zn67 2.046 . S
O69 C68 1.254 . S
C70 O91 1.256 . S
C70 O92 1.244 . S
O71 Zn67 2.055 . S
O71 C93 1.259 . S
O72 Zn64 2.046 . S
O72 C93 1.254 . S
N73 Zn67 2.036 . S
N73 C74 1.298 . S
N73 N76 1.398 . S
C74 N73 1.298 . S
C74 N77 1.367 . S
C74 C87 1.481 . S
C75 N76 1.299 . S
C75 N77 1.379 . S
N76 N73 1.398 . S
N76 C75 1.299 . S
N77 C74 1.367 . S
N77 C75 1.379 . S
C78 N80 1.298 . S
C78 N82 1.367 . S
C78 C86 1.481 . S
C79 N81 1.299 . S
C79 N82 1.379 . S
N80 Zn64 2.036 . S
N80 C78 1.298 . S
N80 N81 1.398 . S
N81 C79 1.299 . S
N81 N80 1.398 . S
N82 C78 1.367 . S
N82 C79 1.379 . S
H83 C86 0.980 . S
H84 C86 0.981 . S
H85 C86 0.981 . S
C86 C78 1.481 . S
C86 H83 0.980 . S
C86 H84 0.981 . S
C86 H85 0.981 . S
C87 C74 1.481 . S
C87 H88 0.980 . S
C87 H89 0.981 . S
C87 H90 0.981 . S
H88 C87 0.980 . S
H89 C87 0.981 . S
H90 C87 0.981 . S
O91 Zn67 2.066 . S
O91 C70 1.256 . S
O92 Zn64 2.053 . S
O92 C70 1.244 . S
C93 O71 1.259 . S
C93 O72 1.254 . S
O94 Zn64 2.066 . S
O94 C66 1.256 . S
O95 C66 1.244 . S
O95 Zn67 2.053 . S
Zn96 O97 2.055 . S
Zn96 O104 2.046 1_554 S
Zn96 N112 2.036 . S
Zn96 O124 2.053 . S
Zn96 O126 2.066 . S
O97 Zn96 2.055 . S
O97 C100 1.259 1_554 S
C98 O126 1.256 . S
C98 O127 1.244 . S
Zn99 O101 2.046 . S
Zn99 O103 2.055 . S
Zn99 N105 2.036 . S
Zn99 O123 2.066 . S
Zn99 O127 2.053 1_556 S
C100 O97 1.259 1_556 S
C100 O101 1.254 . S
O101 Zn99 2.046 . S
O101 C100 1.254 . S
C102 O123 1.256 1_554 S
C102 O124 1.244 . S
O103 Zn99 2.055 . S
O103 C125 1.259 . S
O104 Zn96 2.046 1_556 S
O104 C125 1.254 . S
N105 Zn99 2.036 . S
N105 C106 1.298 . S
N105 N108 1.398 . S
C106 N105 1.298 . S
C106 N109 1.367 . S
C106 C119 1.481 . S
C107 N108 1.299 . S
C107 N109 1.379 . S
N108 N105 1.398 . S
N108 C107 1.299 . S
N109 C106 1.367 . S
N109 C107 1.379 . S
C110 N112 1.298 . S
C110 N114 1.367 . S
C110 C118 1.481 . S
C111 N113 1.299 . S
C111 N114 1.379 . S
N112 Zn96 2.036 . S
N112 C110 1.298 . S
N112 N113 1.398 . S
N113 C111 1.299 . S
N113 N112 1.398 . S
N114 C110 1.367 . S
N114 C111 1.379 . S
H115 C118 0.980 . S
H116 C118 0.981 . S
H117 C118 0.981 . S
C118 C110 1.481 . S
C118 H115 0.980 . S
C118 H116 0.981 . S
C118 H117 0.981 . S
C119 C106 1.481 . S
C119 H120 0.980 . S
C119 H121 0.981 . S
C119 H122 0.981 . S
H120 C119 0.980 . S
H121 C119 0.981 . S
H122 C119 0.981 . S
O123 Zn99 2.066 . S
O123 C102 1.256 1_556 S
O124 Zn96 2.053 . S
O124 C102 1.244 . S
C125 O103 1.259 . S
C125 O104 1.254 . S
O126 Zn96 2.066 . S
O126 C98 1.256 . S
O127 C98 1.244 . S
O127 Zn99 2.053 1_554 S
Zn128 O129 2.055 . S
Zn128 O136 2.046 . S
Zn128 N144 2.036 . S
Zn128 O156 2.053 . S
Zn128 O158 2.066 . S
O129 Zn128 2.055 . S
O129 C132 1.259 . S
C130 O158 1.256 . S
C130 O159 1.244 . S
Zn131 O133 2.046 . S
Zn131 O135 2.055 . S
Zn131 N137 2.036 . S
Zn131 O155 2.066 . S
Zn131 O159 2.053 . S
C132 O129 1.259 . S
C132 O133 1.254 . S
O133 Zn131 2.046 . S
O133 C132 1.254 . S
C134 O155 1.256 . S
C134 O156 1.244 . S
O135 Zn131 2.055 . S
O135 C157 1.259 . S
O136 Zn128 2.046 . S
O136 C157 1.254 . S
N137 Zn131 2.036 . S
N137 C138 1.298 . S
N137 N140 1.398 . S
C138 N137 1.298 . S
C138 N141 1.367 . S
C138 C151 1.481 . S
C139 N140 1.299 . S
C139 N141 1.379 . S
N140 N137 1.398 . S
N140 C139 1.299 . S
N141 C138 1.367 . S
N141 C139 1.379 . S
C142 N144 1.298 . S
C142 N146 1.367 . S
C142 C150 1.481 . S
C143 N145 1.299 . S
C143 N146 1.379 . S
N144 Zn128 2.036 . S
N144 C142 1.298 . S
N144 N145 1.398 . S
N145 C143 1.299 . S
N145 N144 1.398 . S
N146 C142 1.367 . S
N146 C143 1.379 . S
H147 C150 0.980 . S
H148 C150 0.981 . S
H149 C150 0.981 . S
C150 C142 1.481 . S
C150 H147 0.980 . S
C150 H148 0.981 . S
C150 H149 0.981 . S
C151 C138 1.481 . S
C151 H152 0.980 . S
C151 H153 0.981 . S
C151 H154 0.981 . S
H152 C151 0.980 . S
H153 C151 0.981 . S
H154 C151 0.981 . S
O155 Zn131 2.066 . S
O155 C134 1.256 . S
O156 Zn128 2.053 . S
O156 C134 1.244 . S
C157 O135 1.259 . S
C157 O136 1.254 . S
O158 Zn128 2.066 . S
O158 C130 1.256 . S
O159 C130 1.244 . S
O159 Zn131 2.053 . S
Zn160 O161 2.055 . S
Zn160 O168 2.046 . S
Zn160 N176 2.036 . S
Zn160 O188 2.053 . S
Zn160 O190 2.066 . S
O161 Zn160 2.055 . S
O161 C164 1.259 . S
C162 O190 1.256 . S
C162 O191 1.244 . S
Zn163 O165 2.046 . S
Zn163 O167 2.055 . S
Zn163 N169 2.036 . S
Zn163 O187 2.066 . S
Zn163 O191 2.053 . S
C164 O161 1.259 . S
C164 O165 1.254 . S
O165 Zn163 2.046 . S
O165 C164 1.254 . S
C166 O187 1.256 . S
C166 O188 1.244 . S
O167 Zn163 2.055 . S
O167 C189 1.259 . S
O168 Zn160 2.046 . S
O168 C189 1.254 . S
N169 Zn163 2.036 . S
N169 C170 1.298 . S
N169 N172 1.398 . S
C170 N169 1.298 . S
C170 N173 1.367 . S
C170 C183 1.481 . S
C171 N172 1.299 . S
C171 N173 1.379 . S
N172 N169 1.398 . S
N172 C171 1.299 . S
N173 C170 1.367 . S
N173 C171 1.379 . S
C174 N176 1.298 . S
C174 N178 1.367 . S
C174 C182 1.481 . S
C175 N177 1.299 . S
C175 N178 1.379 . S
N176 Zn160 2.036 . S
N176 C174 1.298 . S
N176 N177 1.398 . S
N177 C175 1.299 . S
N177 N176 1.398 . S
N178 C174 1.367 . S
N178 C175 1.379 . S
H179 C182 0.980 . S
H180 C182 0.981 . S
H181 C182 0.981 . S
C182 C174 1.481 . S
C182 H179 0.980 . S
C182 H180 0.981 . S
C182 H181 0.981 . S
C183 C170 1.481 . S
C183 H184 0.980 . S
C183 H185 0.981 . S
C183 H186 0.981 . S
H184 C183 0.980 . S
H185 C183 0.981 . S
H186 C183 0.981 . S
O187 Zn163 2.066 . S
O187 C166 1.256 . S
O188 Zn160 2.053 . S
O188 C166 1.244 . S
C189 O167 1.259 . S
C189 O168 1.254 . S
O190 Zn160 2.066 . S
O190 C162 1.256 . S
O191 C162 1.244 . S
O191 Zn163 2.053 . S
H192 C210 0.951 . S
H193 C212 0.951 . S
H194 C214 0.950 . S
H195 C215 0.950 . S
H196 C217 0.950 . S
H197 C220 0.950 . S
H198 C221 0.950 . S
H199 C223 0.950 . S
H200 C224 0.950 . S
H201 C225 0.951 . S
H202 C227 0.951 . S
H203 C229 0.950 . S
H204 C230 0.950 . S
H205 C232 0.950 . S
H206 C235 0.950 . S
H207 C236 0.950 . S
H208 C238 0.950 . S
H209 C239 0.950 . S
C210 H192 0.951 . S
C210 C211 1.366 . S
C210 C212 1.388 . S
C211 C210 1.366 . S
C211 C215 1.385 . S
C212 H193 0.951 . S
C212 C210 1.388 . S
C212 C213 1.366 . S
C213 C212 1.366 . S
C213 C214 1.414 . S
C213 C216 1.499 . S
C214 H194 0.950 . S
C214 C213 1.414 . S
C214 C215 1.374 . S
C215 H195 0.950 . S
C215 C211 1.385 . S
C215 C214 1.374 . S
C216 C213 1.499 . S
C216 C217 1.373 . S
C216 C218 1.389 . S
C217 H196 0.950 . S
C217 C216 1.373 . S
C217 C233 1.377 . S
C218 C216 1.389 . S
C218 C219 1.524 . S
C218 C232 1.377 . S
C219 C218 1.524 . S
C219 C220 1.397 . S
C219 C224 1.363 . S
C220 H197 0.950 . S
C220 C219 1.397 . S
C220 C221 1.334 . S
C221 H198 0.950 . S
C221 C220 1.334 . S
C221 C222 1.287 . S
C222 C221 1.287 . S
C222 C223 1.524 . S
C222 H241 0.913 . S
C223 H199 0.950 . S
C223 C222 1.524 . S
C223 C224 1.415 . S
C224 H200 0.950 . S
C224 C219 1.363 . S
C224 C223 1.415 . S
C225 H201 0.951 . S
C225 C226 1.366 . S
C225 C227 1.388 . S
C226 C225 1.366 . S
C226 C230 1.385 . S
C227 H202 0.951 . S
C227 C225 1.388 . S
C227 C228 1.366 . S
C228 C227 1.366 . S
C228 C229 1.414 . S
C228 C231 1.499 . S
C229 H203 0.950 . S
C229 C228 1.414 . S
C229 C230 1.374 . S
C230 H204 0.950 . S
C230 C226 1.385 . S
C230 C229 1.374 . S
C231 C228 1.499 . S
C231 C232 1.373 . S
C231 C233 1.389 . S
C232 H205 0.950 . S
C232 C218 1.377 . S
C232 C231 1.373 . S
C233 C217 1.377 . S
C233 C231 1.389 . S
C233 C234 1.524 . S
C234 C233 1.524 . S
C234 C235 1.397 . S
C234 C239 1.363 . S
C235 H206 0.950 . S
C235 C234 1.397 . S
C235 C236 1.334 . S
C236 H207 0.950 . S
C236 C235 1.334 . S
C236 C237 1.287 . S
C237 C236 1.287 . S
C237 C238 1.524 . S
C237 H240 0.999 . S
C238 H208 0.950 . S
C238 C237 1.524 . S
C238 C239 1.415 . S
C239 H209 0.950 . S
C239 C234 1.363 . S
C239 C238 1.415 . S
H240 C237 0.999 . S
H241 C222 0.913 . S
H242 C260 0.951 . S
H243 C262 0.951 . S
H244 C264 0.950 . S
H245 C265 0.950 . S
H246 C267 0.950 . S
H247 C270 0.950 . S
H248 C271 0.950 . S
H249 C273 0.950 . S
H250 C274 0.950 . S
H251 C275 0.951 . S
H252 C277 0.951 . S
H253 C279 0.950 . S
H254 C280 0.950 . S
H255 C282 0.950 . S
H256 C285 0.950 . S
H257 C286 0.950 . S
H258 C288 0.950 . S
H259 C289 0.950 . S
C260 H242 0.951 . S
C260 C261 1.366 . S
C260 C262 1.388 . S
C261 C260 1.366 . S
C261 C265 1.385 . S
C262 H243 0.951 . S
C262 C260 1.388 . S
C262 C263 1.366 . S
C263 C262 1.366 . S
C263 C264 1.414 . S
C263 C266 1.499 . S
C264 H244 0.950 . S
C264 C263 1.414 . S
C264 C265 1.374 . S
C265 H245 0.950 . S
C265 C261 1.385 . S
C265 C264 1.374 . S
C266 C263 1.499 . S
C266 C267 1.373 . S
C266 C268 1.389 . S
C267 H246 0.950 . S
C267 C266 1.373 . S
C267 C283 1.377 . S
C268 C266 1.389 . S
C268 C269 1.524 . S
C268 C282 1.377 . S
C269 C268 1.524 . S
C269 C270 1.397 . S
C269 C274 1.363 . S
C270 H247 0.950 . S
C270 C269 1.397 . S
C270 C271 1.334 . S
C271 H248 0.950 . S
C271 C270 1.334 . S
C271 C272 1.287 . S
C272 C271 1.287 . S
C272 C273 1.524 . S
C272 H291 0.913 . S
C273 H249 0.950 . S
C273 C272 1.524 . S
C273 C274 1.415 . S
C274 H250 0.950 . S
C274 C269 1.363 . S
C274 C273 1.415 . S
C275 H251 0.951 . S
C275 C276 1.366 . S
C275 C277 1.388 . S
C276 C275 1.366 . S
C276 C280 1.385 . S
C277 H252 0.951 . S
C277 C275 1.388 . S
C277 C278 1.366 . S
C278 C277 1.366 . S
C278 C279 1.414 . S
C278 C281 1.499 . S
C279 H253 0.950 . S
C279 C278 1.414 . S
C279 C280 1.374 . S
C280 H254 0.950 . S
C280 C276 1.385 . S
C280 C279 1.374 . S
C281 C278 1.499 . S
C281 C282 1.373 . S
C281 C283 1.389 . S
C282 H255 0.950 . S
C282 C268 1.377 . S
C282 C281 1.373 . S
C283 C267 1.377 . S
C283 C281 1.389 . S
C283 C284 1.524 . S
C284 C283 1.524 . S
C284 C285 1.397 . S
C284 C289 1.363 . S
C285 H256 0.950 . S
C285 C284 1.397 . S
C285 C286 1.334 . S
C286 H257 0.950 . S
C286 C285 1.334 . S
C286 C287 1.287 . S
C287 C286 1.287 . S
C287 C288 1.524 . S
C287 H290 0.999 . S
C288 H258 0.950 . S
C288 C287 1.524 . S
C288 C289 1.415 . S
C289 H259 0.950 . S
C289 C284 1.363 . S
C289 C288 1.415 . S
H290 C287 0.999 . S
H291 C272 0.913 . S
H292 C310 0.951 . S
H293 C312 0.951 . S
H294 C314 0.950 . S
H295 C315 0.950 . S
H296 C317 0.950 . S
H297 C320 0.950 . S
H298 C321 0.950 . S
H299 C323 0.950 . S
H300 C324 0.950 . S
H301 C325 0.951 . S
H302 C327 0.951 . S
H303 C329 0.950 . S
H304 C330 0.950 . S
H305 C332 0.950 . S
H306 C335 0.950 . S
H307 C336 0.950 . S
H308 C338 0.950 . S
H309 C339 0.950 . S
C310 H292 0.951 . S
C310 C311 1.366 . S
C310 C312 1.388 . S
C311 C310 1.366 . S
C311 C315 1.385 . S
C312 H293 0.951 . S
C312 C310 1.388 . S
C312 C313 1.366 . S
C313 C312 1.366 . S
C313 C314 1.414 . S
C313 C316 1.499 . S
C314 H294 0.950 . S
C314 C313 1.414 . S
C314 C315 1.374 . S
C315 H295 0.950 . S
C315 C311 1.385 . S
C315 C314 1.374 . S
C316 C313 1.499 . S
C316 C317 1.373 . S
C316 C318 1.389 . S
C317 H296 0.950 . S
C317 C316 1.373 . S
C317 C333 1.377 . S
C318 C316 1.389 . S
C318 C319 1.524 . S
C318 C332 1.377 . S
C319 C318 1.524 . S
C319 C320 1.397 . S
C319 C324 1.363 . S
C320 H297 0.950 . S
C320 C319 1.397 . S
C320 C321 1.334 . S
C321 H298 0.950 . S
C321 C320 1.334 . S
C321 C322 1.287 . S
C322 C321 1.287 . S
C322 C323 1.524 . S
C322 H341 0.913 . S
C323 H299 0.950 . S
C323 C322 1.524 . S
C323 C324 1.415 . S
C324 H300 0.950 . S
C324 C319 1.363 . S
C324 C323 1.415 . S
C325 H301 0.951 . S
C325 C326 1.366 . S
C325 C327 1.388 . S
C326 C325 1.366 . S
C326 C330 1.385 . S
C327 H302 0.951 . S
C327 C325 1.388 . S
C327 C328 1.366 . S
C328 C327 1.366 . S
C328 C329 1.414 . S
C328 C331 1.499 . S
C329 H303 0.950 . S
C329 C328 1.414 . S
C329 C330 1.374 . S
C330 H304 0.950 . S
C330 C326 1.385 . S
C330 C329 1.374 . S
C331 C328 1.499 . S
C331 C332 1.373 . S
C331 C333 1.389 . S
C332 H305 0.950 . S
C332 C318 1.377 . S
C332 C331 1.373 . S
C333 C317 1.377 . S
C333 C331 1.389 . S
C333 C334 1.524 . S
C334 C333 1.524 . S
C334 C335 1.397 . S
C334 C339 1.363 . S
C335 H306 0.950 . S
C335 C334 1.397 . S
C335 C336 1.334 . S
C336 H307 0.950 . S
C336 C335 1.334 . S
C336 C337 1.287 . S
C337 C336 1.287 . S
C337 C338 1.524 . S
C337 H340 0.999 . S
C338 H308 0.950 . S
C338 C337 1.524 . S
C338 C339 1.415 . S
C339 H309 0.950 . S
C339 C334 1.363 . S
C339 C338 1.415 . S
H340 C337 0.999 . S
H341 C322 0.913 . S
H342 C360 0.951 . S
H343 C362 0.951 . S
H344 C364 0.950 . S
H345 C365 0.950 . S
H346 C367 0.950 . S
H347 C370 0.950 . S
H348 C371 0.950 . S
H349 C373 0.950 . S
H350 C374 0.950 . S
H351 C375 0.951 . S
H352 C377 0.951 . S
H353 C379 0.950 . S
H354 C380 0.950 . S
H355 C382 0.950 . S
H356 C385 0.950 . S
H357 C386 0.950 . S
H358 C388 0.950 . S
H359 C389 0.950 . S
C360 H342 0.951 . S
C360 C361 1.366 . S
C360 C362 1.388 . S
C361 C360 1.366 . S
C361 C365 1.385 . S
C362 H343 0.951 . S
C362 C360 1.388 . S
C362 C363 1.366 . S
C363 C362 1.366 . S
C363 C364 1.414 . S
C363 C366 1.499 . S
C364 H344 0.950 . S
C364 C363 1.414 . S
C364 C365 1.374 . S
C365 H345 0.950 . S
C365 C361 1.385 . S
C365 C364 1.374 . S
C366 C363 1.499 . S
C366 C367 1.373 . S
C366 C368 1.389 . S
C367 H346 0.950 . S
C367 C366 1.373 . S
C367 C383 1.377 . S
C368 C366 1.389 . S
C368 C369 1.524 . S
C368 C382 1.377 . S
C369 C368 1.524 . S
C369 C370 1.397 . S
C369 C374 1.363 . S
C370 H347 0.950 . S
C370 C369 1.397 . S
C370 C371 1.334 . S
C371 H348 0.950 . S
C371 C370 1.334 . S
C371 C372 1.287 . S
C372 C371 1.287 . S
C372 C373 1.524 . S
C372 H391 0.913 . S
C373 H349 0.950 . S
C373 C372 1.524 . S
C373 C374 1.415 . S
C374 H350 0.950 . S
C374 C369 1.363 . S
C374 C373 1.415 . S
C375 H351 0.951 . S
C375 C376 1.366 . S
C375 C377 1.388 . S
C376 C375 1.366 . S
C376 C380 1.385 . S
C377 H352 0.951 . S
C377 C375 1.388 . S
C377 C378 1.366 . S
C378 C377 1.366 . S
C378 C379 1.414 . S
C378 C381 1.499 . S
C379 H353 0.950 . S
C379 C378 1.414 . S
C379 C380 1.374 . S
C380 H354 0.950 . S
C380 C376 1.385 . S
C380 C379 1.374 . S
C381 C378 1.499 . S
C381 C382 1.373 . S
C381 C383 1.389 . S
C382 H355 0.950 . S
C382 C368 1.377 . S
C382 C381 1.373 . S
C383 C367 1.377 . S
C383 C381 1.389 . S
C383 C384 1.524 . S
C384 C383 1.524 . S
C384 C385 1.397 . S
C384 C389 1.363 . S
C385 H356 0.950 . S
C385 C384 1.397 . S
C385 C386 1.334 . S
C386 H357 0.950 . S
C386 C385 1.334 . S
C386 C387 1.287 . S
C387 C386 1.287 . S
C387 C388 1.524 . S
C387 H390 0.999 . S
C388 H358 0.950 . S
C388 C387 1.524 . S
C388 C389 1.415 . S
C389 H359 0.950 . S
C389 C384 1.363 . S
C389 C388 1.415 . S
H390 C387 0.999 . S
H391 C372 0.913 . S
H392 C410 0.951 . S
H393 C412 0.951 . S
H394 C414 0.950 . S
H395 C415 0.950 . S
H396 C417 0.950 . S
H397 C420 0.950 . S
H398 C421 0.950 . S
H399 C423 0.950 . S
H400 C424 0.950 . S
H401 C425 0.951 . S
H402 C427 0.951 . S
H403 C429 0.950 . S
H404 C430 0.950 . S
H405 C432 0.950 . S
H406 C435 0.950 . S
H407 C436 0.950 . S
H408 C438 0.950 . S
H409 C439 0.950 . S
C410 H392 0.951 . S
C410 C411 1.366 . S
C410 C412 1.388 . S
C411 C410 1.366 . S
C411 C415 1.385 . S
C412 H393 0.951 . S
C412 C410 1.388 . S
C412 C413 1.366 . S
C413 C412 1.366 . S
C413 C414 1.414 . S
C413 C416 1.499 . S
C414 H394 0.950 . S
C414 C413 1.414 . S
C414 C415 1.374 . S
C415 H395 0.950 . S
C415 C411 1.385 . S
C415 C414 1.374 . S
C416 C413 1.499 . S
C416 C417 1.373 . S
C416 C418 1.389 . S
C417 H396 0.950 . S
C417 C416 1.373 . S
C417 C433 1.377 . S
C418 C416 1.389 . S
C418 C419 1.524 . S
C418 C432 1.377 . S
C419 C418 1.524 . S
C419 C420 1.397 . S
C419 C424 1.363 . S
C420 H397 0.950 . S
C420 C419 1.397 . S
C420 C421 1.334 . S
C421 H398 0.950 . S
C421 C420 1.334 . S
C421 C422 1.287 . S
C422 C421 1.287 . S
C422 C423 1.524 . S
C422 H441 0.913 . S
C423 H399 0.950 . S
C423 C422 1.524 . S
C423 C424 1.415 . S
C424 H400 0.950 . S
C424 C419 1.363 . S
C424 C423 1.415 . S
C425 H401 0.951 . S
C425 C426 1.366 . S
C425 C427 1.388 . S
C426 C425 1.366 . S
C426 C430 1.385 . S
C427 H402 0.951 . S
C427 C425 1.388 . S
C427 C428 1.366 . S
C428 C427 1.366 . S
C428 C429 1.414 . S
C428 C431 1.499 . S
C429 H403 0.950 . S
C429 C428 1.414 . S
C429 C430 1.374 . S
C430 H404 0.950 . S
C430 C426 1.385 . S
C430 C429 1.374 . S
C431 C428 1.499 . S
C431 C432 1.373 . S
C431 C433 1.389 . S
C432 H405 0.950 . S
C432 C418 1.377 . S
C432 C431 1.373 . S
C433 C417 1.377 . S
C433 C431 1.389 . S
C433 C434 1.524 . S
C434 C433 1.524 . S
C434 C435 1.397 . S
C434 C439 1.363 . S
C435 H406 0.950 . S
C435 C434 1.397 . S
C435 C436 1.334 . S
C436 H407 0.950 . S
C436 C435 1.334 . S
C436 C437 1.287 . S
C437 C436 1.287 . S
C437 C438 1.524 . S
C437 H440 0.999 . S
C438 H408 0.950 . S
C438 C437 1.524 . S
C438 C439 1.415 . S
C439 H409 0.950 . S
C439 C434 1.363 . S
C439 C438 1.415 . S
H440 C437 0.999 . S
H441 C422 0.913 . S
H442 C460 0.951 . S
H443 C462 0.951 . S
H444 C464 0.950 . S
H445 C465 0.950 . S
H446 C467 0.950 . S
H447 C470 0.950 . S
H448 C471 0.950 . S
H449 C473 0.950 . S
H450 C474 0.950 . S
H451 C475 0.951 . S
H452 C477 0.951 . S
H453 C479 0.950 . S
H454 C480 0.950 . S
H455 C482 0.950 . S
H456 C485 0.950 . S
H457 C486 0.950 . S
H458 C488 0.950 . S
H459 C489 0.950 . S
C460 H442 0.951 . S
C460 C461 1.366 . S
C460 C462 1.388 . S
C461 C460 1.366 . S
C461 C465 1.385 . S
C462 H443 0.951 . S
C462 C460 1.388 . S
C462 C463 1.366 . S
C463 C462 1.366 . S
C463 C464 1.414 . S
C463 C466 1.499 . S
C464 H444 0.950 . S
C464 C463 1.414 . S
C464 C465 1.374 . S
C465 H445 0.950 . S
C465 C461 1.385 . S
C465 C464 1.374 . S
C466 C463 1.499 . S
C466 C467 1.373 . S
C466 C468 1.389 . S
C467 H446 0.950 . S
C467 C466 1.373 . S
C467 C483 1.377 . S
C468 C466 1.389 . S
C468 C469 1.524 . S
C468 C482 1.377 . S
C469 C468 1.524 . S
C469 C470 1.397 . S
C469 C474 1.363 . S
C470 H447 0.950 . S
C470 C469 1.397 . S
C470 C471 1.334 . S
C471 H448 0.950 . S
C471 C470 1.334 . S
C471 C472 1.287 . S
C472 C471 1.287 . S
C472 C473 1.524 . S
C472 H491 0.913 . S
C473 H449 0.950 . S
C473 C472 1.524 . S
C473 C474 1.415 . S
C474 H450 0.950 . S
C474 C469 1.363 . S
C474 C473 1.415 . S
C475 H451 0.951 . S
C475 C476 1.366 . S
C475 C477 1.388 . S
C476 C475 1.366 . S
C476 C480 1.385 . S
C477 H452 0.951 . S
C477 C475 1.388 . S
C477 C478 1.366 . S
C478 C477 1.366 . S
C478 C479 1.414 . S
C478 C481 1.499 . S
C479 H453 0.950 . S
C479 C478 1.414 . S
C479 C480 1.374 . S
C480 H454 0.950 . S
C480 C476 1.385 . S
C480 C479 1.374 . S
C481 C478 1.499 . S
C481 C482 1.373 . S
C481 C483 1.389 . S
C482 H455 0.950 . S
C482 C468 1.377 . S
C482 C481 1.373 . S
C483 C467 1.377 . S
C483 C481 1.389 . S
C483 C484 1.524 . S
C484 C483 1.524 . S
C484 C485 1.397 . S
C484 C489 1.363 . S
C485 H456 0.950 . S
C485 C484 1.397 . S
C485 C486 1.334 . S
C486 H457 0.950 . S
C486 C485 1.334 . S
C486 C487 1.287 . S
C487 C486 1.287 . S
C487 C488 1.524 . S
C487 H490 0.999 . S
C488 H458 0.950 . S
C488 C487 1.524 . S
C488 C489 1.415 . S
C489 H459 0.950 . S
C489 C484 1.363 . S
C489 C488 1.415 . S
H490 C487 0.999 . S
H491 C472 0.913 . S
H492 C510 0.951 1_556 S
H493 C512 0.940 1_556 S
H494 C514 0.950 . S
H495 C515 0.950 . S
H496 C517 0.950 . S
H497 C520 0.950 . S
H498 C521 0.950 . S
H499 C523 0.950 . S
H500 C524 0.950 . S
H501 C525 0.951 . S
H502 C527 0.951 . S
H503 C529 0.950 1_556 S
H504 C530 0.950 1_556 S
H505 C532 0.950 . S
H506 C535 0.950 . S
H507 C536 0.950 . S
H508 C538 0.950 . S
H509 C539 0.950 . S
C510 H492 0.951 1_554 S
C510 C511 1.366 . S
C510 C512 1.389 . S
C511 C510 1.366 . S
C511 C515 1.385 . S
C512 H493 0.940 1_554 S
C512 C510 1.389 . S
C512 C513 1.377 . S
C513 C512 1.377 . S
C513 C514 1.414 . S
C513 C516 1.499 . S
C514 H494 0.950 . S
C514 C513 1.414 . S
C514 C515 1.374 . S
C515 H495 0.950 . S
C515 C511 1.385 . S
C515 C514 1.374 . S
C516 C513 1.499 . S
C516 C517 1.373 . S
C516 C518 1.389 1_554 S
C517 H496 0.950 . S
C517 C516 1.373 . S
C517 C533 1.377 . S
C518 C516 1.389 1_556 S
C518 C519 1.524 . S
C518 C532 1.377 . S
C519 C518 1.524 . S
C519 C520 1.397 . S
C519 C524 1.363 . S
C520 H497 0.950 . S
C520 C519 1.397 . S
C520 C521 1.334 . S
C521 H498 0.950 . S
C521 C520 1.334 . S
C521 C522 1.287 . S
C522 C521 1.287 . S
C522 C523 1.524 . S
C522 H541 0.913 . S
C523 H499 0.950 . S
C523 C522 1.524 . S
C523 C524 1.415 . S
C524 H500 0.950 . S
C524 C519 1.363 . S
C524 C523 1.415 . S
C525 H501 0.951 . S
C525 C526 1.366 . S
C525 C527 1.388 . S
C526 C525 1.366 . S
C526 C530 1.385 . S
C527 H502 0.951 . S
C527 C525 1.388 . S
C527 C528 1.366 . S
C528 C527 1.366 . S
C528 C529 1.414 . S
C528 C531 1.499 . S
C529 H503 0.950 1_554 S
C529 C528 1.414 . S
C529 C530 1.374 . S
C530 H504 0.950 1_554 S
C530 C526 1.385 . S
C530 C529 1.374 . S
C531 C528 1.499 . S
C531 C532 1.373 1_554 S
C531 C533 1.389 . S
C532 H505 0.950 . S
C532 C518 1.377 . S
C532 C531 1.373 1_556 S
C533 C517 1.377 . S
C533 C531 1.389 . S
C533 C534 1.524 . S
C534 C533 1.524 . S
C534 C535 1.397 . S
C534 C539 1.363 . S
C535 H506 0.950 . S
C535 C534 1.397 . S
C535 C536 1.334 . S
C536 H507 0.950 . S
C536 C535 1.334 . S
C536 C537 1.287 . S
C537 C536 1.287 . S
C537 C538 1.524 . S
C537 H540 0.999 . S
C538 H508 0.950 . S
C538 C537 1.524 . S
C538 C539 1.415 . S
C539 H509 0.950 . S
C539 C534 1.363 . S
C539 C538 1.415 . S
H540 C537 0.999 . S
H541 C522 0.913 . S
H542 C560 0.951 . S
H543 C562 0.951 . S
H544 C564 0.950 . S
H545 C565 0.950 . S
H546 C567 0.950 . S
H547 C570 0.950 . S
H548 C571 0.950 . S
H549 C573 0.950 . S
H550 C574 0.950 . S
H551 C575 0.951 . S
H552 C577 0.951 . S
H553 C579 0.950 . S
H554 C580 0.950 . S
H555 C582 0.950 . S
H556 C585 0.950 . S
H557 C586 0.950 . S
H558 C588 0.950 . S
H559 C589 0.950 . S
C560 H542 0.951 . S
C560 C561 1.366 . S
C560 C562 1.388 . S
C561 C560 1.366 . S
C561 C565 1.385 . S
C562 H543 0.951 . S
C562 C560 1.388 . S
C562 C563 1.366 . S
C563 C562 1.366 . S
C563 C564 1.414 . S
C563 C566 1.499 . S
C564 H544 0.950 . S
C564 C563 1.414 . S
C564 C565 1.374 . S
C565 H545 0.950 . S
C565 C561 1.385 . S
C565 C564 1.374 . S
C566 C563 1.499 . S
C566 C567 1.373 1_455 S
C566 C568 1.389 . S
C567 H546 0.950 . S
C567 C566 1.373 1_655 S
C567 C583 1.377 . S
C568 C566 1.389 . S
C568 C569 1.524 . S
C568 C582 1.377 . S
C569 C568 1.524 . S
C569 C570 1.397 . S
C569 C574 1.363 . S
C570 H547 0.950 . S
C570 C569 1.397 . S
C570 C571 1.334 . S
C571 H548 0.950 . S
C571 C570 1.334 . S
C571 C572 1.287 . S
C572 C571 1.287 . S
C572 C573 1.524 . S
C572 H591 0.913 . S
C573 H549 0.950 . S
C573 C572 1.524 . S
C573 C574 1.415 . S
C574 H550 0.950 . S
C574 C569 1.363 . S
C574 C573 1.415 . S
C575 H551 0.951 . S
C575 C576 1.366 . S
C575 C577 1.388 . S
C576 C575 1.366 . S
C576 C580 1.385 . S
C577 H552 0.951 . S
C577 C575 1.388 . S
C577 C578 1.366 . S
C578 C577 1.366 . S
C578 C579 1.414 . S
C578 C581 1.499 . S
C579 H553 0.950 . S
C579 C578 1.414 . S
C579 C580 1.374 . S
C580 H554 0.950 . S
C580 C576 1.385 . S
C580 C579 1.374 . S
C581 C578 1.499 . S
C581 C582 1.373 1_655 S
C581 C583 1.389 . S
C582 H555 0.950 . S
C582 C568 1.377 . S
C582 C581 1.373 1_455 S
C583 C567 1.377 . S
C583 C581 1.389 . S
C583 C584 1.524 . S
C584 C583 1.524 . S
C584 C585 1.397 . S
C584 C589 1.363 . S
C585 H556 0.950 . S
C585 C584 1.397 . S
C585 C586 1.334 . S
C586 H557 0.950 . S
C586 C585 1.334 . S
C586 C587 1.287 . S
C587 C586 1.287 . S
C587 C588 1.524 . S
C587 H590 0.999 . S
C588 H558 0.950 . S
C588 C587 1.524 . S
C588 C589 1.415 . S
C589 H559 0.950 . S
C589 C584 1.363 . S
C589 C588 1.415 . S
H590 C587 0.999 . S
H591 C572 0.913 . S
H592 C610 0.951 . S
H593 C612 0.951 . S
H594 C614 0.950 . S
H595 C615 0.950 . S
H596 C617 0.950 . S
H597 C620 0.950 . S
H598 C621 0.950 . S
H599 C623 0.950 . S
H600 C624 0.950 . S
H601 C625 0.951 . S
H602 C627 0.951 . S
H603 C629 0.950 . S
H604 C630 0.950 . S
H605 C632 0.950 . S
H606 C635 0.950 . S
H607 C636 0.950 . S
H608 C638 0.950 . S
H609 C639 0.950 . S
C610 H592 0.951 . S
C610 C611 1.366 . S
C610 C612 1.388 . S
C611 C610 1.366 . S
C611 C615 1.385 . S
C612 H593 0.951 . S
C612 C610 1.388 . S
C612 C613 1.366 . S
C613 C612 1.366 . S
C613 C614 1.414 . S
C613 C616 1.499 . S
C614 H594 0.950 . S
C614 C613 1.414 . S
C614 C615 1.374 . S
C615 H595 0.950 . S
C615 C611 1.385 . S
C615 C614 1.374 . S
C616 C613 1.499 . S
C616 C617 1.373 . S
C616 C618 1.389 1_545 S
C617 H596 0.950 . S
C617 C616 1.373 . S
C617 C633 1.377 . S
C618 C616 1.389 1_565 S
C618 C619 1.524 . S
C618 C632 1.377 . S
C619 C618 1.524 . S
C619 C620 1.397 . S
C619 C624 1.363 . S
C620 H597 0.950 . S
C620 C619 1.397 . S
C620 C621 1.334 . S
C621 H598 0.950 . S
C621 C620 1.334 . S
C621 C622 1.287 . S
C622 C621 1.287 . S
C622 C623 1.524 . S
C622 H641 0.913 . S
C623 H599 0.950 . S
C623 C622 1.524 . S
C623 C624 1.415 . S
C624 H600 0.950 . S
C624 C619 1.363 . S
C624 C623 1.415 . S
C625 H601 0.951 . S
C625 C626 1.366 . S
C625 C627 1.388 . S
C626 C625 1.366 . S
C626 C630 1.385 . S
C627 H602 0.951 . S
C627 C625 1.388 . S
C627 C628 1.366 . S
C628 C627 1.366 . S
C628 C629 1.414 . S
C628 C631 1.499 . S
C629 H603 0.950 . S
C629 C628 1.414 . S
C629 C630 1.374 . S
C630 H604 0.950 . S
C630 C626 1.385 . S
C630 C629 1.374 . S
C631 C628 1.499 . S
C631 C632 1.373 . S
C631 C633 1.389 1_565 S
C632 H605 0.950 . S
C632 C618 1.377 . S
C632 C631 1.373 . S
C633 C617 1.377 . S
C633 C631 1.389 1_545 S
C633 C634 1.524 . S
C634 C633 1.524 . S
C634 C635 1.397 . S
C634 C639 1.363 . S
C635 H606 0.950 . S
C635 C634 1.397 . S
C635 C636 1.334 . S
C636 H607 0.950 . S
C636 C635 1.334 . S
C636 C637 1.287 . S
C637 C636 1.287 . S
C637 C638 1.524 . S
C637 H640 0.999 . S
C638 H608 0.950 . S
C638 C637 1.524 . S
C638 C639 1.415 . S
C639 H609 0.950 . S
C639 C634 1.363 . S
C639 C638 1.415 . S
H640 C637 0.999 . S
H641 C622 0.913 . S
H642 C660 0.951 . S
H643 C662 0.951 . S
H644 C664 0.950 . S
H645 C665 0.950 . S
H646 C667 0.950 . S
H647 C670 0.950 . S
H648 C671 0.950 . S
H649 C673 0.950 . S
H650 C674 0.950 . S
H651 C675 0.951 . S
H652 C677 0.951 . S
H653 C679 0.950 . S
H654 C680 0.950 . S
H655 C682 0.950 . S
H656 C685 0.950 . S
H657 C686 0.950 . S
H658 C688 0.950 . S
H659 C689 0.950 . S
C660 H642 0.951 . S
C660 C661 1.366 . S
C660 C662 1.388 . S
C661 C660 1.366 . S
C661 C665 1.385 . S
C662 H643 0.951 . S
C662 C660 1.388 . S
C662 C663 1.366 . S
C663 C662 1.366 . S
C663 C664 1.414 . S
C663 C666 1.499 . S
C664 H644 0.950 . S
C664 C663 1.414 . S
C664 C665 1.374 . S
C665 H645 0.950 . S
C665 C661 1.385 . S
C665 C664 1.374 . S
C666 C663 1.499 . S
C666 C667 1.373 . S
C666 C668 1.389 . S
C667 H646 0.950 . S
C667 C666 1.373 . S
C667 C683 1.377 . S
C668 C666 1.389 . S
C668 C669 1.524 . S
C668 C682 1.377 . S
C669 C668 1.524 . S
C669 C670 1.397 . S
C669 C674 1.363 . S
C670 H647 0.950 . S
C670 C669 1.397 . S
C670 C671 1.334 . S
C671 H648 0.950 . S
C671 C670 1.334 . S
C671 C672 1.287 . S
C672 C671 1.287 . S
C672 C673 1.524 . S
C672 H691 0.913 . S
C673 H649 0.950 . S
C673 C672 1.524 . S
C673 C674 1.415 . S
C674 H650 0.950 . S
C674 C669 1.363 . S
C674 C673 1.415 . S
C675 H651 0.951 . S
C675 C676 1.366 . S
C675 C677 1.388 . S
C676 C675 1.366 . S
C676 C680 1.385 . S
C677 H652 0.951 . S
C677 C675 1.388 . S
C677 C678 1.366 . S
C678 C677 1.366 . S
C678 C679 1.414 . S
C678 C681 1.499 . S
C679 H653 0.950 . S
C679 C678 1.414 . S
C679 C680 1.374 . S
C680 H654 0.950 . S
C680 C676 1.385 . S
C680 C679 1.374 . S
C681 C678 1.499 . S
C681 C682 1.373 . S
C681 C683 1.389 . S
C682 H655 0.950 . S
C682 C668 1.377 . S
C682 C681 1.373 . S
C683 C667 1.377 . S
C683 C681 1.389 . S
C683 C684 1.524 . S
C684 C683 1.524 . S
C684 C685 1.397 . S
C684 C689 1.363 . S
C685 H656 0.950 . S
C685 C684 1.397 . S
C685 C686 1.334 . S
C686 H657 0.950 . S
C686 C685 1.334 . S
C686 C687 1.287 . S
C687 C686 1.287 . S
C687 C688 1.524 . S
C687 H690 0.999 . S
C688 H658 0.950 . S
C688 C687 1.524 . S
C688 C689 1.415 . S
C689 H659 0.950 . S
C689 C684 1.363 . S
C689 C688 1.415 . S
H690 C687 0.999 . S
H691 C672 0.913 . S
H692 C710 0.951 . S
H693 C712 0.951 . S
H694 C714 0.950 . S
H695 C715 0.950 . S
H696 C717 0.950 . S
H697 C720 0.950 . S
H698 C721 0.950 . S
H699 C723 0.950 . S
H700 C724 0.950 . S
H701 C725 0.951 . S
H702 C727 0.951 . S
H703 C729 0.950 . S
H704 C730 0.950 . S
H705 C732 0.950 . S
H706 C735 0.950 . S
H707 C736 0.950 . S
H708 C738 0.950 . S
H709 C739 0.950 . S
C710 H692 0.951 . S
C710 C711 1.366 1_554 S
C710 C712 1.388 . S
C711 C710 1.366 1_556 S
C711 C715 1.385 . S
C712 H693 0.951 . S
C712 C710 1.388 . S
C712 C713 1.366 1_554 S
C713 C712 1.366 1_556 S
C713 C714 1.414 . S
C713 C716 1.499 . S
C714 H694 0.950 . S
C714 C713 1.414 . S
C714 C715 1.374 . S
C715 H695 0.950 . S
C715 C711 1.385 . S
C715 C714 1.374 . S
C716 C713 1.499 . S
C716 C717 1.373 . S
C716 C718 1.389 1_455 S
C717 H696 0.950 . S
C717 C716 1.373 . S
C717 C733 1.377 . S
C718 C716 1.389 1_655 S
C718 C719 1.524 . S
C718 C732 1.377 . S
C719 C718 1.524 . S
C719 C720 1.397 . S
C719 C724 1.363 1_556 S
C720 H697 0.950 . S
C720 C719 1.397 . S
C720 C721 1.334 . S
C721 H698 0.950 . S
C721 C720 1.334 . S
C721 C722 1.287 . S
C722 C721 1.287 . S
C722 C723 1.524 1_556 S
C722 H741 0.913 . S
C723 H699 0.950 . S
C723 C722 1.524 1_554 S
C723 C724 1.415 . S
C724 H700 0.950 . S
C724 C719 1.363 1_554 S
C724 C723 1.415 . S
C725 H701 0.951 . S
C725 C726 1.366 . S
C725 C727 1.388 . S
C726 C725 1.366 . S
C726 C730 1.385 1_556 S
C727 H702 0.951 . S
C727 C725 1.388 . S
C727 C728 1.366 . S
C728 C727 1.366 . S
C728 C729 1.414 1_556 S
C728 C731 1.499 . S
C729 H703 0.950 . S
C729 C728 1.414 1_554 S
C729 C730 1.374 . S
C730 H704 0.950 . S
C730 C726 1.385 1_554 S
C730 C729 1.374 . S
C731 C728 1.499 . S
C731 C732 1.373 . S
C731 C733 1.389 1_655 S
C732 H705 0.950 . S
C732 C718 1.377 . S
C732 C731 1.373 . S
C733 C717 1.377 . S
C733 C731 1.389 1_455 S
C733 C734 1.524 . S
C734 C733 1.524 . S
C734 C735 1.397 1_556 S
C734 C739 1.363 . S
C735 H706 0.950 . S
C735 C734 1.397 1_554 S
C735 C736 1.334 . S
C736 H707 0.950 . S
C736 C735 1.334 . S
C736 C737 1.287 1_554 S
C737 C736 1.287 1_556 S
C737 C738 1.524 . S
C737 H740 0.999 . S
C738 H708 0.950 . S
C738 C737 1.524 . S
C738 C739 1.415 . S
C739 H709 0.950 . S
C739 C734 1.363 . S
C739 C738 1.415 . S
H740 C737 0.999 . S
H741 C722 0.913 . S
H742 C760 0.951 . S
H743 C762 0.951 1_545 S
H744 C764 0.950 . S
H745 C765 0.950 . S
H746 C767 0.950 . S
H747 C770 0.950 . S
H748 C771 0.950 . S
H749 C773 0.950 . S
H750 C774 0.950 . S
H751 C775 0.951 . S
H752 C777 0.951 1_565 S
H753 C779 0.950 . S
H754 C780 0.950 . S
H755 C782 0.950 . S
H756 C785 0.950 . S
H757 C786 0.950 . S
H758 C788 0.950 . S
H759 C789 0.950 . S
C760 H742 0.951 . S
C760 C761 1.366 . S
C760 C762 1.388 . S
C761 C760 1.366 . S
C761 C765 1.385 . S
C762 H743 0.951 1_565 S
C762 C760 1.388 . S
C762 C763 1.366 . S
C763 C762 1.366 . S
C763 C764 1.414 . S
C763 C766 1.499 . S
C764 H744 0.950 . S
C764 C763 1.414 . S
C764 C765 1.374 . S
C765 H745 0.950 . S
C765 C761 1.385 . S
C765 C764 1.374 . S
C766 C763 1.499 . S
C766 C767 1.373 . S
C766 C768 1.389 1_565 S
C767 H746 0.950 . S
C767 C766 1.373 . S
C767 C783 1.377 . S
C768 C766 1.389 1_545 S
C768 C769 1.524 . S
C768 C782 1.377 . S
C769 C768 1.524 . S
C769 C770 1.397 1_545 S
C769 C774 1.363 . S
C770 H747 0.950 . S
C770 C769 1.397 1_565 S
C770 C771 1.334 . S
C771 H748 0.950 . S
C771 C770 1.334 . S
C771 C772 1.287 1_565 S
C772 C771 1.287 1_545 S
C772 C773 1.524 . S
C772 H791 0.913 . S
C773 H749 0.950 . S
C773 C772 1.524 . S
C773 C774 1.415 . S
C774 H750 0.950 . S
C774 C769 1.363 . S
C774 C773 1.415 . S
C775 H751 0.951 . S
C775 C776 1.366 . S
C775 C777 1.388 . S
C776 C775 1.366 . S
C776 C780 1.385 . S
C777 H752 0.951 1_545 S
C777 C775 1.388 . S
C777 C778 1.366 . S
C778 C777 1.366 . S
C778 C779 1.414 . S
C778 C781 1.499 . S
C779 H753 0.950 . S
C779 C778 1.414 . S
C779 C780 1.374 . S
C780 H754 0.950 . S
C780 C776 1.385 . S
C780 C779 1.374 . S
C781 C778 1.499 . S
C781 C782 1.373 . S
C781 C783 1.389 1_545 S
C782 H755 0.950 . S
C782 C768 1.377 . S
C782 C781 1.373 . S
C783 C767 1.377 . S
C783 C781 1.389 1_565 S
C783 C784 1.524 . S
C784 C783 1.524 . S
C784 C785 1.397 1_565 S
C784 C789 1.363 . S
C785 H756 0.950 . S
C785 C784 1.397 1_545 S
C785 C786 1.334 . S
C786 H757 0.950 . S
C786 C785 1.334 . S
C786 C787 1.287 1_545 S
C787 C786 1.287 1_565 S
C787 C788 1.524 . S
C787 H790 0.999 . S
C788 H758 0.950 . S
C788 C787 1.524 . S
C788 C789 1.415 . S
C789 H759 0.950 . S
C789 C784 1.363 . S
C789 C788 1.415 . S
H790 C787 0.999 . S
H791 C772 0.913 . S
H792 C810 0.951 . S
H793 C812 0.951 . S
H794 C814 0.950 . S
H795 C815 0.950 . S
H796 C817 0.950 . S
H797 C820 0.950 . S
H798 C821 0.950 . S
H799 C823 0.950 . S
H800 C824 0.950 . S
H801 C825 0.951 . S
H802 C827 0.951 . S
H803 C829 0.950 . S
H804 C830 0.950 . S
H805 C832 0.950 . S
H806 C835 0.950 . S
H807 C836 0.950 . S
H808 C838 0.950 . S
H809 C839 0.950 . S
C810 H792 0.951 . S
C810 C811 1.366 . S
C810 C812 1.388 . S
C811 C810 1.366 . S
C811 C815 1.385 . S
C812 H793 0.951 . S
C812 C810 1.388 . S
C812 C813 1.366 . S
C813 C812 1.366 . S
C813 C814 1.414 . S
C813 C816 1.499 . S
C814 H794 0.950 . S
C814 C813 1.414 . S
C814 C815 1.374 . S
C815 H795 0.950 . S
C815 C811 1.385 . S
C815 C814 1.374 . S
C816 C813 1.499 . S
C816 C817 1.373 . S
C816 C818 1.389 . S
C817 H796 0.950 . S
C817 C816 1.373 . S
C817 C833 1.377 . S
C818 C816 1.389 . S
C818 C819 1.524 . S
C818 C832 1.377 . S
C819 C818 1.524 . S
C819 C820 1.397 . S
C819 C824 1.363 . S
C820 H797 0.950 . S
C820 C819 1.397 . S
C820 C821 1.334 . S
C821 H798 0.950 . S
C821 C820 1.334 . S
C821 C822 1.287 . S
C822 C821 1.287 . S
C822 C823 1.524 . S
C822 H841 0.913 . S
C823 H799 0.950 . S
C823 C822 1.524 . S
C823 C824 1.415 . S
C824 H800 0.950 . S
C824 C819 1.363 . S
C824 C823 1.415 . S
C825 H801 0.951 . S
C825 C826 1.366 . S
C825 C827 1.388 . S
C826 C825 1.366 . S
C826 C830 1.385 . S
C827 H802 0.951 . S
C827 C825 1.388 . S
C827 C828 1.366 . S
C828 C827 1.366 . S
C828 C829 1.414 . S
C828 C831 1.499 . S
C829 H803 0.950 . S
C829 C828 1.414 . S
C829 C830 1.374 . S
C830 H804 0.950 . S
C830 C826 1.385 . S
C830 C829 1.374 . S
C831 C828 1.499 . S
C831 C832 1.373 . S
C831 C833 1.389 . S
C832 H805 0.950 . S
C832 C818 1.377 . S
C832 C831 1.373 . S
C833 C817 1.377 . S
C833 C831 1.389 . S
C833 C834 1.524 . S
C834 C833 1.524 . S
C834 C835 1.397 . S
C834 C839 1.363 . S
C835 H806 0.950 . S
C835 C834 1.397 . S
C835 C836 1.334 . S
C836 H807 0.950 . S
C836 C835 1.334 . S
C836 C837 1.287 . S
C837 C836 1.287 . S
C837 C838 1.524 . S
C837 H840 0.999 . S
C838 H808 0.950 . S
C838 C837 1.524 . S
C838 C839 1.415 . S
C839 H809 0.950 . S
C839 C834 1.363 . S
C839 C838 1.415 . S
H840 C837 0.999 . S
H841 C822 0.913 . S
H842 C860 0.951 . S
H843 C862 0.951 . S
H844 C864 0.950 . S
H845 C865 0.950 . S
H846 C867 0.950 . S
H847 C870 0.950 . S
H848 C871 0.950 . S
H849 C873 0.950 . S
H850 C874 0.950 . S
H851 C875 0.951 . S
H852 C877 0.951 . S
H853 C879 0.950 . S
H854 C880 0.950 . S
H855 C882 0.950 . S
H856 C885 0.950 . S
H857 C886 0.950 . S
H858 C888 0.950 . S
H859 C889 0.950 . S
C860 H842 0.951 . S
C860 C861 1.366 . S
C860 C862 1.388 . S
C861 C860 1.366 . S
C861 C865 1.385 . S
C862 H843 0.951 . S
C862 C860 1.388 . S
C862 C863 1.366 . S
C863 C862 1.366 . S
C863 C864 1.414 . S
C863 C866 1.499 1_655 S
C864 H844 0.950 . S
C864 C863 1.414 . S
C864 C865 1.374 . S
C865 H845 0.950 . S
C865 C861 1.385 . S
C865 C864 1.374 . S
C866 C863 1.499 1_455 S
C866 C867 1.373 . S
C866 C868 1.389 1_455 S
C867 H846 0.950 . S
C867 C866 1.373 . S
C867 C883 1.377 . S
C868 C866 1.389 1_655 S
C868 C869 1.524 . S
C868 C882 1.377 1_655 S
C869 C868 1.524 . S
C869 C870 1.397 . S
C869 C874 1.363 . S
C870 H847 0.950 . S
C870 C869 1.397 . S
C870 C871 1.334 . S
C871 H848 0.950 . S
C871 C870 1.334 . S
C871 C872 1.287 . S
C872 C871 1.287 . S
C872 C873 1.524 . S
C872 H891 0.913 . S
C873 H849 0.950 . S
C873 C872 1.524 . S
C873 C874 1.415 . S
C874 H850 0.950 . S
C874 C869 1.363 . S
C874 C873 1.415 . S
C875 H851 0.951 . S
C875 C876 1.366 . S
C875 C877 1.388 . S
C876 C875 1.366 . S
C876 C880 1.385 . S
C877 H852 0.951 . S
C877 C875 1.388 . S
C877 C878 1.366 . S
C878 C877 1.366 . S
C878 C879 1.414 . S
C878 C881 1.499 . S
C879 H853 0.950 . S
C879 C878 1.414 . S
C879 C880 1.374 . S
C880 H854 0.950 . S
C880 C876 1.385 . S
C880 C879 1.374 . S
C881 C878 1.499 . S
C881 C882 1.373 . S
C881 C883 1.389 . S
C882 H855 0.950 . S
C882 C868 1.377 1_455 S
C882 C881 1.373 . S
C883 C867 1.377 . S
C883 C881 1.389 . S
C883 C884 1.524 . S
C884 C883 1.524 . S
C884 C885 1.397 . S
C884 C889 1.363 . S
C885 H856 0.950 . S
C885 C884 1.397 . S
C885 C886 1.334 . S
C886 H857 0.950 . S
C886 C885 1.334 . S
C886 C887 1.287 . S
C887 C886 1.287 . S
C887 C888 1.524 . S
C887 H890 0.999 . S
C888 H858 0.950 . S
C888 C887 1.524 . S
C888 C889 1.415 . S
C889 H859 0.950 . S
C889 C884 1.363 . S
C889 C888 1.415 . S
H890 C887 0.999 . S
H891 C872 0.913 . S
H892 C910 0.951 . S
H893 C912 0.951 1_545 S
H894 C914 0.950 . S
H895 C915 0.950 . S
H896 C917 0.950 1_565 S
H897 C920 0.950 . S
H898 C921 0.950 . S
H899 C923 0.950 . S
H900 C924 0.950 . S
H901 C925 0.951 . S
H902 C927 0.951 . S
H903 C929 0.950 . S
H904 C930 0.950 . S
H905 C932 0.950 . S
H906 C935 0.950 . S
H907 C936 0.950 . S
H908 C938 0.950 . S
H909 C939 0.950 . S
C910 H892 0.951 . S
C910 C911 1.366 . S
C910 C912 1.388 . S
C911 C910 1.366 . S
C911 C915 1.385 . S
C912 H893 0.951 1_565 S
C912 C910 1.388 . S
C912 C913 1.366 . S
C913 C912 1.366 . S
C913 C914 1.414 . S
C913 C916 1.499 1_565 S
C914 H894 0.950 . S
C914 C913 1.414 . S
C914 C915 1.374 . S
C915 H895 0.950 . S
C915 C911 1.385 . S
C915 C914 1.374 . S
C916 C913 1.499 1_545 S
C916 C917 1.373 . S
C916 C918 1.389 . S
C917 H896 0.950 1_545 S
C917 C916 1.373 . S
C917 C933 1.377 . S
C918 C916 1.389 . S
C918 C919 1.524 . S
C918 C932 1.377 . S
C919 C918 1.524 . S
C919 C920 1.397 1_545 S
C919 C924 1.363 . S
C920 H897 0.950 . S
C920 C919 1.397 1_565 S
C920 C921 1.334 . S
C921 H898 0.950 . S
C921 C920 1.334 . S
C921 C922 1.287 1_565 S
C922 C921 1.287 1_545 S
C922 C923 1.524 . S
C922 H941 0.913 . S
C923 H899 0.950 . S
C923 C922 1.524 . S
C923 C924 1.415 . S
C924 H900 0.950 . S
C924 C919 1.363 . S
C924 C923 1.415 . S
C925 H901 0.951 . S
C925 C926 1.366 . S
C925 C927 1.388 . S
C926 C925 1.366 . S
C926 C930 1.385 . S
C927 H902 0.951 . S
C927 C925 1.388 . S
C927 C928 1.366 . S
C928 C927 1.366 . S
C928 C929 1.414 . S
C928 C931 1.499 . S
C929 H903 0.950 . S
C929 C928 1.414 . S
C929 C930 1.374 . S
C930 H904 0.950 . S
C930 C926 1.385 . S
C930 C929 1.374 . S
C931 C928 1.499 . S
C931 C932 1.373 . S
C931 C933 1.389 . S
C932 H905 0.950 . S
C932 C918 1.377 . S
C932 C931 1.373 . S
C933 C917 1.377 . S
C933 C931 1.389 . S
C933 C934 1.524 . S
C934 C933 1.524 . S
C934 C935 1.397 . S
C934 C939 1.363 1_545 S
C935 H906 0.950 . S
C935 C934 1.397 . S
C935 C936 1.334 . S
C936 H907 0.950 . S
C936 C935 1.334 . S
C936 C937 1.287 . S
C937 C936 1.287 . S
C937 C938 1.524 1_545 S
C937 H940 0.999 . S
C938 H908 0.950 . S
C938 C937 1.524 1_565 S
C938 C939 1.415 . S
C939 H909 0.950 . S
C939 C934 1.363 1_565 S
C939 C938 1.415 . S
H940 C937 0.999 . S
H941 C922 0.913 . S
H942 C960 0.951 . S
H943 C962 0.951 . S
H944 C964 0.950 . S
H945 C965 0.950 . S
H946 C967 0.950 . S
H947 C970 0.950 . S
H948 C971 0.950 . S
H949 C973 0.950 . S
H950 C974 0.950 . S
H951 C975 0.951 . S
H952 C977 0.951 . S
H953 C979 0.950 . S
H954 C980 0.950 . S
H955 C982 0.950 . S
H956 C985 0.950 . S
H957 C986 0.950 . S
H958 C988 0.950 . S
H959 C989 0.950 . S
C960 H942 0.951 . S
C960 C961 1.366 . S
C960 C962 1.388 . S
C961 C960 1.366 . S
C961 C965 1.385 . S
C962 H943 0.951 . S
C962 C960 1.388 . S
C962 C963 1.366 . S
C963 C962 1.366 . S
C963 C964 1.414 . S
C963 C966 1.499 . S
C964 H944 0.950 . S
C964 C963 1.414 . S
C964 C965 1.374 . S
C965 H945 0.950 . S
C965 C961 1.385 . S
C965 C964 1.374 . S
C966 C963 1.499 . S
C966 C967 1.373 . S
C966 C968 1.389 . S
C967 H946 0.950 . S
C967 C966 1.373 . S
C967 C983 1.377 . S
C968 C966 1.389 . S
C968 C969 1.524 . S
C968 C982 1.377 . S
C969 C968 1.524 . S
C969 C970 1.397 . S
C969 C974 1.363 . S
C970 H947 0.950 . S
C970 C969 1.397 . S
C970 C971 1.334 . S
C971 H948 0.950 . S
C971 C970 1.334 . S
C971 C972 1.287 . S
C972 C971 1.287 . S
C972 C973 1.524 . S
C972 H991 0.913 . S
C973 H949 0.950 . S
C973 C972 1.524 . S
C973 C974 1.415 . S
C974 H950 0.950 . S
C974 C969 1.363 . S
C974 C973 1.415 . S
C975 H951 0.951 . S
C975 C976 1.366 . S
C975 C977 1.388 . S
C976 C975 1.366 . S
C976 C980 1.385 . S
C977 H952 0.951 . S
C977 C975 1.388 . S
C977 C978 1.366 . S
C978 C977 1.366 . S
C978 C979 1.414 . S
C978 C981 1.499 . S
C979 H953 0.950 . S
C979 C978 1.414 . S
C979 C980 1.374 . S
C980 H954 0.950 . S
C980 C976 1.385 . S
C980 C979 1.374 . S
C981 C978 1.499 . S
C981 C982 1.373 . S
C981 C983 1.389 . S
C982 H955 0.950 . S
C982 C968 1.377 . S
C982 C981 1.373 . S
C983 C967 1.377 . S
C983 C981 1.389 . S
C983 C984 1.524 . S
C984 C983 1.524 . S
C984 C985 1.397 . S
C984 C989 1.363 . S
C985 H956 0.950 . S
C985 C984 1.397 . S
C985 C986 1.334 . S
C986 H957 0.950 . S
C986 C985 1.334 . S
C986 C987 1.287 . S
C987 C986 1.287 . S
C987 C988 1.524 . S
C987 H990 0.999 . S
C988 H958 0.950 . S
C988 C987 1.524 . S
C988 C989 1.415 . S
C989 H959 0.950 . S
C989 C984 1.363 . S
C989 C988 1.415 . S
H990 C987 0.999 . S
H991 C972 0.913 . S
H992 C1010 0.951 . S
H993 C1012 0.951 1_655 S
H994 C1014 0.950 . S
H995 C1015 0.950 . S
H996 C1017 0.950 . S
H997 C1020 0.950 . S
H998 C1021 0.950 . S
H999 C1023 0.950 . S
H1000 C1024 0.950 . S
H1001 C1025 0.951 . S
H1002 C1027 0.951 . S
H1003 C1029 0.950 . S
H1004 C1030 0.950 . S
H1005 C1032 0.950 . S
H1006 C1035 0.950 . S
H1007 C1036 0.950 . S
H1008 C1038 0.950 . S
H1009 C1039 0.950 . S
C1010 H992 0.951 . S
C1010 C1011 1.366 . S
C1010 C1012 1.388 . S
C1011 C1010 1.366 . S
C1011 C1015 1.385 . S
C1012 H993 0.951 1_455 S
C1012 C1010 1.388 . S
C1012 C1013 1.366 . S
C1013 C1012 1.366 . S
C1013 C1014 1.414 . S
C1013 C1016 1.499 1_455 S
C1014 H994 0.950 . S
C1014 C1013 1.414 . S
C1014 C1015 1.374 . S
C1015 H995 0.950 . S
C1015 C1011 1.385 . S
C1015 C1014 1.374 . S
C1016 C1013 1.499 1_655 S
C1016 C1017 1.373 1_655 S
C1016 C1018 1.389 . S
C1017 H996 0.950 . S
C1017 C1016 1.373 1_455 S
C1017 C1033 1.377 1_455 S
C1018 C1016 1.389 . S
C1018 C1019 1.524 . S
C1018 C1032 1.377 . S
C1019 C1018 1.524 . S
C1019 C1020 1.397 . S
C1019 C1024 1.363 . S
C1020 H997 0.950 . S
C1020 C1019 1.397 . S
C1020 C1021 1.334 . S
C1021 H998 0.950 . S
C1021 C1020 1.334 . S
C1021 C1022 1.287 . S
C1022 C1021 1.287 . S
C1022 C1023 1.524 . S
C1022 H1041 0.913 . S
C1023 H999 0.950 . S
C1023 C1022 1.524 . S
C1023 C1024 1.415 . S
C1024 H1000 0.950 . S
C1024 C1019 1.363 . S
C1024 C1023 1.415 . S
C1025 H1001 0.951 . S
C1025 C1026 1.366 . S
C1025 C1027 1.388 . S
C1026 C1025 1.366 . S
C1026 C1030 1.385 . S
C1027 H1002 0.951 . S
C1027 C1025 1.388 . S
C1027 C1028 1.366 . S
C1028 C1027 1.366 . S
C1028 C1029 1.414 . S
C1028 C1031 1.499 . S
C1029 H1003 0.950 . S
C1029 C1028 1.414 . S
C1029 C1030 1.374 . S
C1030 H1004 0.950 . S
C1030 C1026 1.385 . S
C1030 C1029 1.374 . S
C1031 C1028 1.499 . S
C1031 C1032 1.373 . S
C1031 C1033 1.389 . S
C1032 H1005 0.950 . S
C1032 C1018 1.377 . S
C1032 C1031 1.373 . S
C1033 C1017 1.377 1_655 S
C1033 C1031 1.389 . S
C1033 C1034 1.524 1_655 S
C1034 C1033 1.524 1_455 S
C1034 C1035 1.397 1_455 S
C1034 C1039 1.363 . S
C1035 H1006 0.950 . S
C1035 C1034 1.397 1_655 S
C1035 C1036 1.334 1_655 S
C1036 H1007 0.950 . S
C1036 C1035 1.334 1_455 S
C1036 C1037 1.287 . S
C1037 C1036 1.287 . S
C1037 C1038 1.524 . S
C1037 H1040 0.999 . S
C1038 H1008 0.950 . S
C1038 C1037 1.524 . S
C1038 C1039 1.415 . S
C1039 H1009 0.950 . S
C1039 C1034 1.363 . S
C1039 C1038 1.415 . S
H1040 C1037 0.999 . S
H1041 C1022 0.913 . S
H1042 C1060 0.951 . S
H1043 C1062 0.951 . S
H1044 C1064 0.950 . S
H1045 C1065 0.950 . S
H1046 C1067 0.950 . S
H1047 C1070 0.950 . S
H1048 C1071 0.950 . S
H1049 C1073 0.950 . S
H1050 C1074 0.950 1_565 S
H1051 C1075 0.951 . S
H1052 C1077 0.951 . S
H1053 C1079 0.950 . S
H1054 C1080 0.950 . S
H1055 C1082 0.950 . S
H1056 C1085 0.950 . S
H1057 C1086 0.950 . S
H1058 C1088 0.950 . S
H1059 C1089 0.950 . S
C1060 H1042 0.951 . S
C1060 C1061 1.366 . S
C1060 C1062 1.388 . S
C1061 C1060 1.366 . S
C1061 C1065 1.385 . S
C1062 H1043 0.951 . S
C1062 C1060 1.388 . S
C1062 C1063 1.366 . S
C1063 C1062 1.366 . S
C1063 C1064 1.414 . S
C1063 C1066 1.499 1_545 S
C1064 H1044 0.950 . S
C1064 C1063 1.414 . S
C1064 C1065 1.374 . S
C1065 H1045 0.950 . S
C1065 C1061 1.385 . S
C1065 C1064 1.374 . S
C1066 C1063 1.499 1_565 S
C1066 C1067 1.373 . S
C1066 C1068 1.389 . S
C1067 H1046 0.950 . S
C1067 C1066 1.373 . S
C1067 C1083 1.377 . S
C1068 C1066 1.389 . S
C1068 C1069 1.524 1_565 S
C1068 C1082 1.377 . S
C1069 C1068 1.524 1_545 S
C1069 C1070 1.397 . S
C1069 C1074 1.363 . S
C1070 H1047 0.950 . S
C1070 C1069 1.397 . S
C1070 C1071 1.334 . S
C1071 H1048 0.950 . S
C1071 C1070 1.334 . S
C1071 C1072 1.287 . S
C1072 C1071 1.287 . S
C1072 C1073 1.524 . S
C1072 H1091 0.913 . S
C1073 H1049 0.950 . S
C1073 C1072 1.524 . S
C1073 C1074 1.415 . S
C1074 H1050 0.950 1_545 S
C1074 C1069 1.363 . S
C1074 C1073 1.415 . S
C1075 H1051 0.951 . S
C1075 C1076 1.366 . S
C1075 C1077 1.388 . S
C1076 C1075 1.366 . S
C1076 C1080 1.385 . S
C1077 H1052 0.951 . S
C1077 C1075 1.388 . S
C1077 C1078 1.366 . S
C1078 C1077 1.366 . S
C1078 C1079 1.414 . S
C1078 C1081 1.499 . S
C1079 H1053 0.950 . S
C1079 C1078 1.414 . S
C1079 C1080 1.374 . S
C1080 H1054 0.950 . S
C1080 C1076 1.385 . S
C1080 C1079 1.374 . S
C1081 C1078 1.499 . S
C1081 C1082 1.373 . S
C1081 C1083 1.389 . S
C1082 H1055 0.950 . S
C1082 C1068 1.377 . S
C1082 C1081 1.373 . S
C1083 C1067 1.377 . S
C1083 C1081 1.389 . S
C1083 C1084 1.524 . S
C1084 C1083 1.524 . S
C1084 C1085 1.397 . S
C1084 C1089 1.363 . S
C1085 H1056 0.950 . S
C1085 C1084 1.397 . S
C1085 C1086 1.334 . S
C1086 H1057 0.950 . S
C1086 C1085 1.334 . S
C1086 C1087 1.287 . S
C1087 C1086 1.287 . S
C1087 C1088 1.524 . S
C1087 H1090 0.999 . S
C1088 H1058 0.950 . S
C1088 C1087 1.524 . S
C1088 C1089 1.415 . S
C1089 H1059 0.950 . S
C1089 C1084 1.363 . S
C1089 C1088 1.415 . S
H1090 C1087 0.999 . S
H1091 C1072 0.913 . S
C211 C157 0.510 . S
C226 N18 0.520 . S
C261 C164 0.510 . S
C276 N45 0.522 . S
C311 C29 0.511 . S
C326 N82 0.520 . S
C361 C36 0.510 . S
C376 N114 0.522 . S
C411 C93 0.510 . S
C426 N146 0.521 . S
C461 C125 0.509 . S
C476 N173 0.522 . S
C511 C6 1.342 . S
C526 C102 1.341 . S
C561 C134 1.342 . S
C576 C34 1.342 . S
C611 C162 1.341 . S
C626 C70 1.341 . S
C661 C68 1.273 . S
C676 C189 1.272 . S
C711 C4 1.272 . S
C726 C100 1.272 . S
C761 C132 1.272 . S
C776 C61 1.273 . S
C811 C166 0.661 . S
C826 N13 0.660 . S
C861 N50 0.660 . S
C876 C2 0.662 . S
C911 N77 0.660 . S
C926 C38 0.661 . S
C961 C66 0.661 . S
C976 N109 0.659 . S
C1011 N141 0.659 . S
C1026 C98 0.661 . S
C1061 N178 0.660 . S
C1076 C130 0.661 . S
