# Generated by pormake.
# Topology wkj, (6)-cn, num edge types: 1
# Building blocks:
#     Node 0, Type 0, BuildingBlock: BETDIP_clean_sbu_0, # of connection points: 6
#     Node 1, Type 0, BuildingBlock: BETDIP_clean_sbu_0, # of connection points: 6
#     Node 2, Type 0, BuildingBlock: BETDIP_clean_sbu_0, # of connection points: 6
#     Node 3, Type 0, BuildingBlock: BETDIP_clean_sbu_0, # of connection points: 6
#     Node 4, Type 0, BuildingBlock: BETDIP_clean_sbu_0, # of connection points: 6
#     Node 5, Type 0, BuildingBlock: BETDIP_clean_sbu_0, # of connection points: 6
#     Node 6, Type 0, BuildingBlock: BETDIP_clean_sbu_0, # of connection points: 6
#     Node 7, Type 0, BuildingBlock: BETDIP_clean_sbu_0, # of connection points: 6
#     Node 8, Type 0, BuildingBlock: BETDIP_clean_sbu_0, # of connection points: 6
#     Node 9, Type 0, BuildingBlock: BETDIP_clean_sbu_0, # of connection points: 6
#     Node 10, Type 0, BuildingBlock: BETDIP_clean_sbu_0, # of connection points: 6
#     Node 11, Type 0, BuildingBlock: BETDIP_clean_sbu_0, # of connection points: 6
#     Edge 12, Type (0, 0), BuildingBlock: UVAHIK_clean_linker_0, # of connection points: 2
#     Edge 13, Type (0, 0), BuildingBlock: UVAHIK_clean_linker_0, # of connection points: 2
#     Edge 14, Type (0, 0), BuildingBlock: UVAHIK_clean_linker_0, # of connection points: 2
#     Edge 15, Type (0, 0), BuildingBlock: UVAHIK_clean_linker_0, # of connection points: 2
#     Edge 16, Type (0, 0), BuildingBlock: UVAHIK_clean_linker_0, # of connection points: 2
#     Edge 17, Type (0, 0), BuildingBlock: UVAHIK_clean_linker_0, # of connection points: 2
#     Edge 18, Type (0, 0), BuildingBlock: UVAHIK_clean_linker_0, # of connection points: 2
#     Edge 19, Type (0, 0), BuildingBlock: UVAHIK_clean_linker_0, # of connection points: 2
#     Edge 20, Type (0, 0), BuildingBlock: UVAHIK_clean_linker_0, # of connection points: 2
#     Edge 21, Type (0, 0), BuildingBlock: UVAHIK_clean_linker_0, # of connection points: 2
#     Edge 22, Type (0, 0), BuildingBlock: UVAHIK_clean_linker_0, # of connection points: 2
#     Edge 23, Type (0, 0), BuildingBlock: UVAHIK_clean_linker_0, # of connection points: 2
#     Edge 24, Type (0, 0), BuildingBlock: UVAHIK_clean_linker_0, # of connection points: 2
#     Edge 25, Type (0, 0), BuildingBlock: UVAHIK_clean_linker_0, # of connection points: 2
#     Edge 26, Type (0, 0), BuildingBlock: UVAHIK_clean_linker_0, # of connection points: 2
#     Edge 27, Type (0, 0), BuildingBlock: UVAHIK_clean_linker_0, # of connection points: 2
#     Edge 28, Type (0, 0), BuildingBlock: UVAHIK_clean_linker_0, # of connection points: 2
#     Edge 29, Type (0, 0), BuildingBlock: UVAHIK_clean_linker_0, # of connection points: 2
#     Edge 30, Type (0, 0), BuildingBlock: UVAHIK_clean_linker_0, # of connection points: 2
#     Edge 31, Type (0, 0), BuildingBlock: UVAHIK_clean_linker_0, # of connection points: 2
#     Edge 32, Type (0, 0), BuildingBlock: UVAHIK_clean_linker_0, # of connection points: 2
#     Edge 33, Type (0, 0), BuildingBlock: UVAHIK_clean_linker_0, # of connection points: 2
#     Edge 34, Type (0, 0), BuildingBlock: UVAHIK_clean_linker_0, # of connection points: 2
#     Edge 35, Type (0, 0), BuildingBlock: UVAHIK_clean_linker_0, # of connection points: 2
#     Edge 36, Type (0, 0), BuildingBlock: UVAHIK_clean_linker_0, # of connection points: 2
#     Edge 37, Type (0, 0), BuildingBlock: UVAHIK_clean_linker_0, # of connection points: 2
#     Edge 38, Type (0, 0), BuildingBlock: UVAHIK_clean_linker_0, # of connection points: 2
#     Edge 39, Type (0, 0), BuildingBlock: UVAHIK_clean_linker_0, # of connection points: 2
#     Edge 40, Type (0, 0), BuildingBlock: UVAHIK_clean_linker_0, # of connection points: 2
#     Edge 41, Type (0, 0), BuildingBlock: UVAHIK_clean_linker_0, # of connection points: 2
#     Edge 42, Type (0, 0), BuildingBlock: UVAHIK_clean_linker_0, # of connection points: 2
#     Edge 43, Type (0, 0), BuildingBlock: UVAHIK_clean_linker_0, # of connection points: 2
#     Edge 44, Type (0, 0), BuildingBlock: UVAHIK_clean_linker_0, # of connection points: 2
#     Edge 45, Type (0, 0), BuildingBlock: UVAHIK_clean_linker_0, # of connection points: 2
#     Edge 46, Type (0, 0), BuildingBlock: UVAHIK_clean_linker_0, # of connection points: 2
#     Edge 47, Type (0, 0), BuildingBlock: UVAHIK_clean_linker_0, # of connection points: 2
# Relax obj value: 0.589
# Max RMSD: 0.174
# Mean RMSD: 0.174
data_MOF--net-wkj--node1-BETDIP_clean_sbu_0--edge1-UVAHIK_clean_linker_0
_symmetry_space_group_name_H-M    P1
_symmetry_Int_Tables_number       1
_symmetry_cell_setting            triclinic
loop_
_symmetry_equiv_pos_as_xyz
'x, y, z'
_cell_length_a     60.988034
_cell_length_b     60.913142
_cell_length_c     38.638896
_cell_angle_alpha  90.320696
_cell_angle_beta   90.000798
_cell_angle_gamma 119.91753
loop_
_atom_site_label
_atom_site_type_symbol
_atom_site_fract_x
_atom_site_fract_y
_atom_site_fract_z
_atom_type_partial_charge
Tb0 Tb 0.473 0.09921 0.3402 0.0
Tb1 Tb 0.52104 0.10486 0.32345 0.0
C2 C 0.42684 0.08491 0.34936 0.0
C3 C 0.41003 0.07875 0.3792 0.0
C4 C 0.41821 0.07656 0.41219 0.0
C5 C 0.40193 0.07017 0.44038 0.0
C6 C 0.37724 0.06615 0.43616 0.0
C7 C 0.3693 0.06876 0.40302 0.0
C8 C 0.3856 0.075 0.37474 0.0
C9 C 0.50578 0.14654 0.32184 0.0
C10 C 0.51072 0.10849 0.40618 0.0
C11 C 0.56813 0.12875 0.31548 0.0
C12 C 0.58468 0.14749 0.29006 0.0
C13 C 0.60726 0.16867 0.30127 0.0
C14 C 0.6206 0.18935 0.27932 0.0
C15 C 0.6114 0.1891 0.24591 0.0
C16 C 0.58949 0.1672 0.23422 0.0
C17 C 0.57614 0.14668 0.25618 0.0
C18 C 0.48691 0.05882 0.34496 0.0
C19 C 0.48241 0.08093 0.26244 0.0
O20 O 0.43548 0.06949 0.34327 0.0
O21 O 0.4445 0.10858 0.34696 0.0
O22 O 0.50281 0.12639 0.307 0.0
O23 O 0.49116 0.13984 0.34853 0.0
O24 O 0.48706 0.10199 0.39607 0.0
O25 O 0.52717 0.11155 0.38122 0.0
O26 O 0.55586 0.13672 0.33479 0.0
O27 O 0.55363 0.10537 0.30457 0.0
O28 O 0.49095 0.07991 0.35495 0.0
O29 O 0.50554 0.06302 0.32447 0.0
O30 O 0.5068 0.09287 0.27039 0.0
O31 O 0.4661 0.08052 0.28632 0.0
H32 H 0.43708 0.07956 0.41611 0.0
H33 H 0.40855 0.06783 0.46534 0.0
H34 H 0.35053 0.06604 0.39894 0.0
H35 H 0.37911 0.0768 0.34937 0.0
H36 H 0.61389 0.16974 0.32759 0.0
H37 H 0.63738 0.20592 0.28904 0.0
H38 H 0.58226 0.16615 0.20829 0.0
H39 H 0.55859 0.13068 0.24712 0.0
Tb40 Tb 0.38591 0.47387 0.67425 0.0
Tb41 Tb 0.42408 0.52406 0.65702 0.0
C42 C 0.3582 0.42653 0.68012 0.0
C43 C 0.3496 0.40697 0.7066 0.0
C44 C 0.35721 0.4132 0.74113 0.0
C45 C 0.34951 0.39408 0.76573 0.0
C46 C 0.33409 0.36849 0.75609 0.0
C47 C 0.3263 0.36244 0.72145 0.0
C48 C 0.334 0.38159 0.69689 0.0
C49 C 0.36563 0.50266 0.65951 0.0
C50 C 0.41319 0.51198 0.74023 0.0
C51 C 0.4419 0.57086 0.64994 0.0
C52 C 0.43343 0.58555 0.62927 0.0
C53 C 0.40765 0.57833 0.62809 0.0
C54 C 0.3993 0.59131 0.60734 0.0
C55 C 0.41649 0.61168 0.587 0.0
C56 C 0.44243 0.61958 0.58921 0.0
C57 C 0.45084 0.60659 0.61023 0.0
C58 C 0.44149 0.49358 0.67594 0.0
C59 C 0.4122 0.48583 0.59584 0.0
O60 O 0.38226 0.43779 0.67274 0.0
O61 O 0.34991 0.44249 0.68266 0.0
O62 O 0.3838 0.50253 0.64301 0.0
O63 O 0.36003 0.48749 0.68538 0.0
O64 O 0.39789 0.48775 0.73008 0.0
O65 O 0.42431 0.52916 0.71523 0.0
O66 O 0.42645 0.55753 0.67468 0.0
O67 O 0.4506 0.55813 0.63295 0.0
O68 O 0.42332 0.49523 0.68698 0.0
O69 O 0.4542 0.51319 0.65618 0.0
O70 O 0.42205 0.51019 0.60347 0.0
O71 O 0.39835 0.46888 0.62018 0.0
H72 H 0.36936 0.43276 0.74891 0.0
H73 H 0.3562 0.3993 0.79211 0.0
H74 H 0.31433 0.34294 0.71336 0.0
H75 H 0.32799 0.37657 0.67022 0.0
H76 H 0.39375 0.56228 0.6427 0.0
H77 H 0.37924 0.58489 0.60638 0.0
H78 H 0.45608 0.63501 0.57344 0.0
H79 H 0.4708 0.61253 0.6109 0.0
Tb80 Tb 0.9062 0.39527 1.00796 0.0
Tb81 Tb 0.89576 0.43428 0.99004 0.0
C82 C 0.92017 0.36299 1.01722 0.0
C83 C 0.93266 0.35709 1.04503 0.0
C84 C 0.94207 0.37285 1.07421 0.0
C85 C 0.95163 0.3658 0.10214 0.0
C86 C 0.95165 0.34269 0.10152 0.0
C87 C 0.94287 0.32732 1.07171 0.0
C88 C 0.93342 0.3345 1.04367 0.0
C89 C 0.85751 0.37744 0.99121 0.0
C90 C 0.90021 0.4254 1.07359 0.0
C91 C 0.86746 0.45272 0.98132 0.0
C92 C 0.84814 0.44741 0.95492 0.0
C93 C 0.82529 0.44611 0.96435 0.0
C94 C 0.80472 0.43585 0.94142 0.0
C95 C 0.80678 0.42656 0.90894 0.0
C96 C 0.83015 0.42914 0.89906 0.0
C97 C 0.85056 0.43929 0.92188 0.0
C98 C 0.94397 0.4516 1.00289 0.0
C99 C 0.92103 0.41961 0.92913 0.0
O100 O 0.93371 0.38444 1.00141 0.0
O101 O 0.89773 0.35919 1.02466 0.0
O102 O 0.87672 0.39441 0.97537 0.0
O103 O 0.86577 0.37176 1.01838 0.0
O104 O 0.90842 0.40971 1.06296 0.0
O105 O 0.89347 0.43629 1.04886 0.0
O106 O 0.86182 0.43336 1.00131 0.0
O107 O 0.89108 0.46395 0.97101 0.0
O108 O 0.92527 0.43426 1.01828 0.0
O109 O 0.93564 0.46265 0.98224 0.0
O110 O 0.90761 0.43086 0.93653 0.0
O111 O 0.92309 0.4052 0.95368 0.0
H112 H 0.94144 0.39028 1.07576 0.0
H113 H 0.95869 0.37829 0.12445 0.0
H114 H 0.94246 0.30935 1.07054 0.0
H115 H 0.92602 0.32205 1.02135 0.0
H116 H 0.82299 0.4519 0.99003 0.0
H117 H 0.78696 0.43416 0.94962 0.0
H118 H 0.83251 0.42274 0.87384 0.0
H119 H 0.86788 0.43977 0.91419 0.0
Tb120 Tb 0.53638 0.92065 0.33607 0.0
Tb121 Tb 0.48523 0.90656 0.32011 0.0
C122 C 0.58092 0.93597 0.35663 0.0
C123 C 0.59496 0.93899 0.38871 0.0
C124 C 0.61985 0.95905 0.39144 0.0
C125 C 0.63414 0.96181 0.42098 0.0
C126 C 0.62381 0.94441 0.44826 0.0
C127 C 0.59876 0.92423 0.44535 0.0
C128 C 0.5844 0.92161 0.41586 0.0
C129 C 0.51184 0.87626 0.30274 0.0
C130 C 0.49511 0.907 0.40049 0.0
C131 C 0.44176 0.87931 0.29585 0.0
C132 C 0.43367 0.85956 0.26875 0.0
C133 C 0.4204 0.8339 0.27834 0.0
C134 C 0.41832 0.81508 0.2555 0.0
C135 C 0.42923 0.82157 0.22248 0.0
C136 C 0.44069 0.84703 0.21199 0.0
C137 C 0.44303 0.86584 0.23491 0.0
C138 C 0.51139 0.95279 0.34682 0.0
C139 C 0.52659 0.9365 0.26037 0.0
O140 O 0.57148 0.95087 0.35251 0.0
O141 O 0.56528 0.91276 0.34683 0.0
O142 O 0.50319 0.88372 0.32742 0.0
O143 O 0.53412 0.89463 0.29549 0.0
O144 O 0.51858 0.91299 0.39036 0.0
O145 O 0.47791 0.90233 0.3763 0.0
O146 O 0.44991 0.8739 0.32401 0.0
O147 O 0.4564 0.90296 0.28655 0.0
O148 O 0.5191 0.942 0.32663 0.0
O149 O 0.487 0.93855 0.34958 0.0
O150 O 0.50237 0.92013 0.26737 0.0
O151 O 0.54362 0.94165 0.28555 0.0
H152 H 0.62825 0.9726 0.37065 0.0
H153 H 0.65313 0.97791 0.42269 0.0
H154 H 0.59028 0.91041 0.46578 0.0
H155 H 0.56516 0.90594 0.41417 0.0
H156 H 0.41304 0.82854 0.30433 0.0
H157 H 0.40926 0.79567 0.26433 0.0
H158 H 0.44849 0.85257 0.18626 0.0
H159 H 0.45328 0.88538 0.22658 0.0
Tb160 Tb 0.63132 0.54051 0.6723 0.0
Tb161 Tb 0.5932 0.49033 0.65643 0.0
C162 C 0.66159 0.58427 0.6952 0.0
C163 C 0.67136 0.5967 0.72899 0.0
C164 C 0.65537 0.59804 0.754 0.0
C165 C 0.66497 0.60907 0.78622 0.0
C166 C 0.6908 0.61935 0.79383 0.0
C167 C 0.70697 0.61876 0.76849 0.0
C168 C 0.69729 0.60743 0.73635 0.0
C169 C 0.65038 0.51554 0.63827 0.0
C170 C 0.60295 0.49968 0.73691 0.0
C171 C 0.57256 0.44547 0.63398 0.0
C172 C 0.5822 0.43244 0.61212 0.0
C173 C 0.60833 0.44343 0.60689 0.0
C174 C 0.61797 0.43077 0.58765 0.0
C175 C 0.60161 0.40697 0.57278 0.0
C176 C 0.57539 0.39583 0.57848 0.0
C177 C 0.56577 0.40847 0.59813 0.0
C178 C 0.57458 0.51801 0.68296 0.0
C179 C 0.60529 0.53181 0.59638 0.0
O180 O 0.63784 0.57635 0.68798 0.0
O181 O 0.66833 0.56789 0.6859 0.0
O182 O 0.63415 0.50663 0.6628 0.0
O183 O 0.65435 0.53794 0.6315 0.0
O184 O 0.62091 0.52286 0.72669 0.0
O185 O 0.59 0.48274 0.7126 0.0
O186 O 0.58396 0.45278 0.66384 0.0
O187 O 0.56975 0.46321 0.61931 0.0
O188 O 0.59288 0.52498 0.66292 0.0
O189 O 0.56382 0.49361 0.68575 0.0
O190 O 0.59564 0.50732 0.60394 0.0
O191 O 0.61891 0.54885 0.62102 0.0
H192 H 0.63549 0.59066 0.74884 0.0
H193 H 0.65222 0.60979 0.80512 0.0
H194 H 0.72696 0.62664 0.77377 0.0
H195 H 0.71004 0.60689 0.71728 0.0
H196 H 0.62128 0.4618 0.61787 0.0
H197 H 0.63826 0.43978 0.5841 0.0
H198 H 0.56225 0.37771 0.56689 0.0
H199 H 0.54555 0.39965 0.60222 0.0
Tb200 Tb 0.10031 0.60735 1.00732 0.0
Tb201 Tb 0.13855 0.59742 0.99353 0.0
C202 C 0.06782 0.619 1.02577 0.0
C203 C 0.04765 0.61489 1.04999 0.0
C204 C 0.02816 0.59057 1.05876 0.0
C205 C 0.00792 0.58773 1.0791 0.0
C206 C 1.00691 0.60915 0.09073 0.0
C207 C 0.02673 0.63338 1.08227 0.0
C208 C 0.04685 0.63619 1.06206 0.0
C209 C 0.14388 0.64767 0.98439 0.0
C210 C 0.12052 0.59059 1.07336 0.0
C211 C 0.18031 0.6029 0.97334 0.0
C212 C 0.19902 0.61919 0.94783 0.0
C213 C 0.1945 0.63548 0.92747 0.0
C214 C 0.21278 0.65183 0.90423 0.0
C215 C 0.23579 0.65193 0.9007 0.0
C216 C 0.24038 0.6358 0.92158 0.0
C217 C 0.22213 0.61962 0.94515 0.0
C218 C 0.09888 0.55435 1.00878 0.0
C219 C 0.0983 0.59178 0.9306 0.0
O220 O 0.06337 0.60099 1.00359 0.0
O221 O 0.091 0.63029 1.0376 0.0
O222 O 0.14122 0.63199 1.00727 0.0
O223 O 0.12158 0.64051 0.97257 0.0
O224 O 0.10134 0.59217 1.05975 0.0
O225 O 0.13952 0.59469 1.05208 0.0
O226 O 0.17779 0.6151 0.99941 0.0
O227 O 0.15844 0.58546 0.96127 0.0
O228 O 0.09865 0.57206 0.99176 0.0
O229 O 0.12166 0.56177 1.01922 0.0
O230 O 0.12192 0.59649 0.93869 0.0
O231 O 0.08441 0.59215 0.9564 0.0
H232 H 0.02835 0.57385 1.04948 0.0
H233 H 0.99291 0.56882 1.08526 0.0
H234 H 0.02684 0.65025 0.09153 0.0
H235 H 0.06167 0.6551 1.05537 0.0
H236 H 0.17674 0.6354 0.92938 0.0
H237 H 0.20844 0.66365 0.88806 0.0
H238 H 0.25792 0.63548 0.91937 0.0
H239 H 0.22599 0.60736 0.96111 0.0
Tb240 Tb 0.92902 0.5417 0.52219 0.0
Tb241 Tb 0.91729 0.49104 0.53253 0.0
C242 C 0.94154 0.58589 0.50283 0.0
C243 C 0.9407 0.59749 0.46977 0.0
C244 C 0.95917 0.60322 0.44429 0.0
C245 C 0.95689 0.61205 0.41203 0.0
C246 C 0.93619 0.61543 0.40465 0.0
C247 C 0.91836 0.61083 0.43063 0.0
C248 C 0.92069 0.6021 0.46298 0.0
C249 C 0.8858 0.51551 0.55706 0.0
C250 C 0.91333 0.50247 0.45405 0.0
C251 C 0.89296 0.4459 0.55245 0.0
C252 C 0.87254 0.43373 0.57808 0.0
C253 C 0.84852 0.41475 0.56689 0.0
C254 C 0.8273 0.40731 0.58781 0.0
C255 C 0.8298 0.41856 0.62049 0.0
C256 C 0.85419 0.43612 0.63265 0.0
C257 C 0.87532 0.44383 0.61155 0.0
C258 C 0.96223 0.51931 0.50324 0.0
C259 C 0.94908 0.53049 0.59406 0.0
O260 O 0.95738 0.57739 0.50515 0.0
O261 O 0.91964 0.57017 0.51625 0.0
O262 O 0.89271 0.50767 0.5307 0.0
O263 O 0.90445 0.53751 0.56537 0.0
O264 O 0.91901 0.52538 0.46668 0.0
O265 O 0.91071 0.48497 0.47636 0.0
O266 O 0.88661 0.4546 0.52581 0.0
O267 O 0.91577 0.46199 0.56365 0.0
O268 O 0.95205 0.52576 0.52609 0.0
O269 O 0.94828 0.49502 0.49874 0.0
O270 O 0.93329 0.50634 0.58544 0.0
O271 O 0.95208 0.54829 0.57119 0.0
H272 H 0.975 0.60023 0.44882 0.0
H273 H 0.97079 0.61514 0.39236 0.0
H274 H 0.90237 0.61351 0.4257 0.0
H275 H 0.90642 0.59827 0.48239 0.0
H276 H 0.84592 0.40686 0.54102 0.0
H277 H 0.80886 0.39375 0.57761 0.0
H278 H 0.85693 0.44457 0.65816 0.0
H279 H 0.89357 0.45855 0.62089 0.0
Tb280 Tb 0.38508 0.92321 0.83777 0.0
Tb281 Tb 0.42665 0.91629 0.85521 0.0
C282 C 0.35408 0.93851 0.82761 0.0
C283 C 0.34286 0.94351 0.79731 0.0
C284 C 0.35348 0.94585 0.76447 0.0
C285 C 0.34302 0.95115 0.73586 0.0
C286 C 0.32153 0.95389 0.73949 0.0
C287 C 0.31069 0.95107 0.77247 0.0
C288 C 0.32133 0.94594 0.80117 0.0
C289 C 0.36952 0.87562 0.85606 0.0
C290 C 0.41284 0.91224 0.77249 0.0
C291 C 0.44857 0.89109 0.86383 0.0
C292 C 0.44297 0.86938 0.88599 0.0
C293 C 0.41776 0.85151 0.89369 0.0
C294 C 0.41211 0.83032 0.91345 0.0
C295 C 0.43156 0.82676 0.92671 0.0
C296 C 0.45684 0.84457 0.91872 0.0
C297 C 0.46248 0.8657 0.89837 0.0
C298 C 0.43993 0.9626 0.83252 0.0
C299 C 0.41261 0.94148 0.91552 0.0
O300 O 0.37838 0.95356 0.83195 0.0
O301 O 0.34744 0.91484 0.83249 0.0
O302 O 0.38686 0.89552 0.87103 0.0
O303 O 0.36201 0.88267 0.82925 0.0
O304 O 0.39595 0.91925 0.78216 0.0
O305 O 0.42602 0.9091 0.79767 0.0
O306 O 0.43153 0.88619 0.83995 0.0
O307 O 0.45593 0.91292 0.87922 0.0
O308 O 0.42236 0.94161 0.82327 0.0
O309 O 0.45406 0.95787 0.85294 0.0
O310 O 0.42469 0.92908 0.9079 0.0
O311 O 0.39696 0.94214 0.89146 0.0
H312 H 0.37002 0.94387 0.76099 0.0
H313 H 0.3522 0.95369 0.71103 0.0
H314 H 0.29402 0.95281 0.7761 0.0
H315 H 0.31282 0.94398 0.82641 0.0
H316 H 0.40232 0.85385 0.88429 0.0
H317 H 0.39243 0.81684 0.91865 0.0
H318 H 0.47229 0.8426 0.92897 0.0
H319 H 0.48203 0.87923 0.89254 0.0
Tb320 Tb 0.47499 0.39217 0.17437 0.0
Tb321 Tb 0.52554 0.42908 0.19151 0.0
C322 C 0.43122 0.36266 0.15106 0.0
C323 C 0.4195 0.35054 0.11783 0.0
C324 C 0.42266 0.36482 1.08798 0.0
C325 C 0.41163 0.35274 1.05678 0.0
C326 C 0.39719 0.32616 1.0548 0.0
C327 C 0.39388 0.3119 1.08474 0.0
C328 C 0.40496 0.32401 0.11598 0.0
C329 C 0.49888 0.3722 0.20847 0.0
C330 C 0.51698 0.41919 0.11074 0.0
C331 C 0.56948 0.44669 0.21517 0.0
C332 C 0.57989 0.43605 0.24015 0.0
C333 C 0.59722 0.42883 0.22847 0.0
C334 C 0.60344 0.41396 0.24912 0.0
C335 C 0.5927 0.40632 0.28211 0.0
C336 C 0.57654 0.41492 0.29452 0.0
C337 C 0.57001 0.42942 0.27367 0.0
C338 C 0.49977 0.44934 0.16429 0.0
C339 C 0.48352 0.41743 0.25067 0.0
O340 O 0.44084 0.38717 0.15391 0.0
O341 O 0.44578 0.35509 0.16488 0.0
O342 O 0.50806 0.38828 0.18396 0.0
O343 O 0.47655 0.36848 0.21505 0.0
O344 O 0.49356 0.40148 0.1205 0.0
O345 O 0.53363 0.43218 0.13536 0.0
O346 O 0.56156 0.43355 0.18653 0.0
O347 O 0.55365 0.45373 0.2266 0.0
O348 O 0.49171 0.43083 0.18427 0.0
O349 O 0.52413 0.45927 0.16211 0.0
O350 O 0.50784 0.42528 0.2441 0.0
O351 O 0.46685 0.40579 0.2249 0.0
H352 H 0.43347 0.38527 1.08861 0.0
H353 H 0.41405 0.36428 1.03431 0.0
H354 H 0.38291 0.29141 1.08395 0.0
H355 H 0.40225 0.31263 0.13875 0.0
H356 H 0.60495 0.43358 0.20258 0.0
H357 H 0.61589 0.40771 0.23866 0.0
H358 H 0.56856 0.41013 0.32026 0.0
H359 H 0.55656 0.43462 0.28341 0.0
Tb360 Tb 0.08719 0.46811 0.51454 0.0
Tb361 Tb 0.09798 0.51824 0.52896 0.0
C362 C 0.06867 0.42111 0.50515 0.0
C363 C 0.06415 0.40514 0.47446 0.0
C364 C 0.06608 0.41519 0.44138 0.0
C365 C 0.06105 0.39992 0.41216 0.0
C366 C 0.05415 0.37426 0.41539 0.0
C367 C 0.05263 0.36433 0.44867 0.0
C368 C 0.05763 0.37971 0.47802 0.0
C369 C 0.13574 0.49767 0.53064 0.0
C370 C 0.10248 0.5057 0.44755 0.0
C371 C 0.12363 0.56569 0.53459 0.0
C372 C 0.14292 0.58417 0.55804 0.0
C373 C 0.15799 0.60922 0.54705 0.0
C374 C 0.17868 0.62641 0.56691 0.0
C375 C 0.18463 0.61874 0.59809 0.0
C376 C 0.16906 0.59363 0.6093 0.0
C377 C 0.14845 0.57645 0.58933 0.0
C378 C 0.05119 0.48708 0.50521 0.0
C379 C 0.06995 0.48133 0.59041 0.0
O380 O 0.05518 0.43231 0.50708 0.0
O381 O 0.09236 0.43652 0.51282 0.0
O382 O 0.11716 0.49775 0.54624 0.0
O383 O 0.12672 0.48193 0.50498 0.0
O384 O 0.09265 0.48161 0.45832 0.0
O385 O 0.10713 0.52319 0.47181 0.0
O386 O 0.1309 0.55194 0.51735 0.0
O387 O 0.10059 0.55222 0.54657 0.0
O388 O 0.07164 0.48894 0.49686 0.0
O389 O 0.05688 0.50632 0.52545 0.0
O390 O 0.08437 0.50552 0.58216 0.0
O391 O 0.06801 0.46383 0.56727 0.0
H392 H 0.07106 0.43476 0.4381 0.0
H393 H 0.06183 0.40809 0.38706 0.0
H394 H 0.04748 0.3447 0.45202 0.0
H395 H 0.05617 0.37172 0.50346 0.0
H396 H 0.15418 0.61529 0.52258 0.0
H397 H 0.19038 0.64549 0.5574 0.0
H398 H 0.17279 0.58723 0.63352 0.0
H399 H 0.13717 0.55703 0.5979 0.0
Tb400 Tb 0.62104 0.0954 0.84529 0.0
Tb401 Tb 0.58125 0.10619 0.86065 0.0
C402 C 0.65246 0.08247 0.82598 0.0
C403 C 0.66105 0.07339 0.79635 0.0
C404 C 0.65237 0.04739 0.79258 0.0
C405 C 0.66255 0.03873 0.76727 0.0
C406 C 0.68174 0.05589 0.7453 0.0
C407 C 0.69027 0.0819 0.74876 0.0
C408 C 0.68011 0.09059 0.77421 0.0
C409 C 0.63789 0.13887 0.88024 0.0
C410 C 0.59189 0.10679 0.78035 0.0
C411 C 0.56138 0.1306 0.8839 0.0
C412 C 0.57102 0.15057 0.91077 0.0
C413 C 0.57889 0.17565 0.90114 0.0
C414 C 0.59413 0.19583 0.92326 0.0
C415 C 0.60157 0.19122 0.95555 0.0
C416 C 0.59196 0.16599 0.96618 0.0
C417 C 0.57701 0.14588 0.94397 0.0
C418 C 0.56465 0.06032 0.8337 0.0
C419 C 0.595 0.07839 0.92085 0.0
O420 O 0.63028 0.06684 0.83896 0.0
O421 O 0.6569 0.1058 0.8254 0.0
O422 O 0.622 0.13106 0.85531 0.0
O423 O 0.64369 0.12159 0.88615 0.0
O424 O 0.60933 0.10077 0.79066 0.0
O425 O 0.57912 0.11125 0.80443 0.0
O426 O 0.5755 0.13707 0.85622 0.0
O427 O 0.55434 0.10739 0.89357 0.0
O428 O 0.58274 0.07231 0.85393 0.0
O429 O 0.55281 0.07301 0.8307 0.0
O430 O 0.58544 0.09334 0.9135 0.0
O431 O 0.60816 0.07456 0.89611 0.0
H432 H 0.638 0.03369 0.8096 0.0
H433 H 0.65524 0.01853 0.76474 0.0
H434 H 0.70508 0.09554 0.73221 0.0
H435 H 0.68756 0.11079 0.77695 0.0
H436 H 0.57462 0.17974 0.87556 0.0
H437 H 0.60109 0.215 0.91434 0.0
H438 H 0.59661 0.16174 0.9914 0.0
H439 H 0.57127 0.1268 0.95223 0.0
Tb440 Tb 0.53867 0.62817 0.17773 0.0
Tb441 Tb 0.49116 0.58544 0.19449 0.0
C442 C 0.58496 0.66028 0.17083 0.0
C443 C 0.60466 0.66862 0.14448 0.0
C444 C 0.59854 0.66124 0.10983 0.0
C445 C 0.61773 0.66852 1.08538 0.0
C446 C 0.6433 0.68324 0.09529 0.0
C447 C 0.64926 0.69082 0.13003 0.0
C448 C 0.63003 0.68357 0.15444 0.0
C449 C 0.50558 0.64229 0.19708 0.0
C450 C 0.50104 0.59845 0.11181 0.0
C451 C 0.44439 0.56287 0.20437 0.0
C452 C 0.42975 0.56704 0.23137 0.0
C453 C 0.41433 0.57714 0.22188 0.0
C454 C 0.4065 0.58854 0.24669 0.0
C455 C 0.41378 0.58975 0.28142 0.0
C456 C 0.42687 0.57719 0.29133 0.0
C457 C 0.43497 0.56611 0.26653 0.0
C458 C 0.52599 0.57435 0.17304 0.0
C459 C 0.52991 0.60041 0.25506 0.0
O460 O 0.57657 0.6374 0.18246 0.0
O461 O 0.56669 0.66507 0.16495 0.0
O462 O 0.50883 0.62523 0.21141 0.0
O463 O 0.52048 0.65068 0.17081 0.0
O464 O 0.52481 0.6156 0.12182 0.0
O465 O 0.48466 0.58539 0.13689 0.0
O466 O 0.45617 0.58215 0.18352 0.0
O467 O 0.45877 0.55356 0.21394 0.0
O468 O 0.52147 0.59099 0.16296 0.0
O469 O 0.50725 0.55953 0.19305 0.0
O470 O 0.50554 0.58753 0.24724 0.0
O471 O 0.54589 0.61671 0.23141 0.0
H472 H 0.57899 0.64956 0.10182 0.0
H473 H 0.61258 0.662 1.05891 0.0
H474 H 0.66876 0.70222 0.13832 0.0
H475 H 0.63497 0.68936 0.1812 0.0
H476 H 0.41008 0.57807 0.19488 0.0
H477 H 0.39633 0.59792 0.23827 0.0
H478 H 0.43205 0.5771 0.31812 0.0
H479 H 0.44671 0.55839 0.27475 0.0
C480 C 0.50729 0.17411 0.27063 0.0
C481 C 0.51317 0.17175 0.30524 0.0
C482 C 0.50925 0.19703 0.25848 0.0
C483 C 0.51314 0.25765 0.29342 0.0
H484 H 0.52212 0.27792 0.19731 0.0
C485 C 0.49299 0.3367 0.24741 0.0
C486 C 0.50599 0.35264 0.21936 0.0
C487 C 0.49632 0.31625 0.25671 0.0
C488 C 0.51984 0.27283 0.2244 0.0
H489 H 0.52679 0.19241 0.35341 0.0
H490 H 0.53158 0.23205 0.33231 0.0
H491 H 0.52394 0.24019 0.21446 0.0
H492 H 0.53341 0.35915 0.17942 0.0
H493 H 0.53968 0.32353 0.19594 0.0
H494 H 0.50967 0.29036 0.30373 0.0
C495 C 0.52447 0.21622 0.31445 0.0
C496 C 0.52056 0.25075 0.23429 0.0
C497 C 0.52217 0.19338 0.32658 0.0
C498 C 0.52311 0.34755 0.2013 0.0
C499 C 0.52646 0.32681 0.21064 0.0
C500 C 0.51254 0.27963 0.28361 0.0
C501 C 0.51726 0.21847 0.28045 0.0
C502 C 0.51711 0.24254 0.26912 0.0
C503 C 0.51296 0.31056 0.23852 0.0
C504 C 0.51554 0.28767 0.24883 0.0
H505 H 0.4998 0.15783 0.25347 0.0
H506 H 0.50335 0.19746 0.2322 0.0
H507 H 0.50989 0.25233 0.32039 0.0
H508 H 0.47953 0.33969 0.26204 0.0
H509 H 0.48505 0.30438 0.27781 0.0
C510 C 0.32361 0.50086 0.66555 0.0
C511 C 0.3455 0.50808 0.6455 0.0
C512 C 0.30313 0.50321 0.65341 0.0
C513 C 0.27532 0.51532 0.57206 0.0
H514 H 0.22685 0.51386 0.63817 0.0
C515 C 0.17681 0.49756 0.52514 0.0
C516 C 0.16156 0.50427 0.54501 0.0
C517 C 0.19995 0.50084 0.53747 0.0
C518 C 0.2401 0.51459 0.61898 0.0
H519 H 0.36268 0.52446 0.59637 0.0
H520 H 0.32756 0.52986 0.57555 0.0
H521 H 0.26534 0.5159 0.65845 0.0
H522 H 0.16007 0.52077 0.59403 0.0
H523 H 0.20111 0.52761 0.61532 0.0
H524 H 0.25089 0.51567 0.53261 0.0
C525 C 0.32577 0.52141 0.60068 0.0
C526 C 0.26242 0.51526 0.63079 0.0
C527 C 0.34631 0.51859 0.61276 0.0
C528 C 0.17101 0.51526 0.57778 0.0
C529 C 0.19467 0.51894 0.59012 0.0
C530 C 0.25324 0.51511 0.56026 0.0
C531 C 0.30347 0.5135 0.62065 0.0
C532 C 0.28039 0.51502 0.60767 0.0
C533 C 0.20965 0.51157 0.57028 0.0
C534 C 0.23467 0.51411 0.58336 0.0
H535 H 0.32185 0.4926 0.69087 0.0
H536 H 0.28668 0.49614 0.66986 0.0
H537 H 0.28811 0.51512 0.55283 0.0
H538 H 0.17055 0.489 0.49978 0.0
H539 H 0.20978 0.49412 0.52113 0.0
C540 C 0.82949 0.34985 0.94102 0.0
C541 C 0.83236 0.35813 0.97574 0.0
C542 C 0.80686 0.32825 0.92939 0.0
C543 C 0.74808 0.27062 0.96546 0.0
H544 H 0.72714 0.2576 0.86941 0.0
C545 C 0.67177 0.16986 0.92027 0.0
C546 C 0.65593 0.16589 0.89155 0.0
C547 C 0.69135 0.19414 0.92968 0.0
C548 C 0.73239 0.26089 0.89649 0.0
H549 H 0.81286 0.3506 1.02469 0.0
H550 H 0.77356 0.31468 1.0045 0.0
H551 H 0.76391 0.29799 0.8862 0.0
H552 H 0.64839 0.18537 0.85067 0.0
H553 H 0.68238 0.22812 0.86745 0.0
H554 H 0.7163 0.23414 0.97613 0.0
C555 C 0.78886 0.32375 0.98615 0.0
C556 C 0.75397 0.28419 0.90619 0.0
C557 C 0.81149 0.3449 0.9978 0.0
C558 C 0.65998 0.1875 0.87306 0.0
C559 C 0.67981 0.2121 0.88255 0.0
C560 C 0.72652 0.24759 0.95586 0.0
C561 C 0.78617 0.31428 0.95197 0.0
C562 C 0.76248 0.28957 0.94096 0.0
C563 C 0.69613 0.21591 0.91096 0.0
C564 C 0.71831 0.24189 0.9211 0.0
H565 H 0.8452 0.35923 0.92328 0.0
H566 H 0.80612 0.32197 0.90295 0.0
H567 H 0.75364 0.27312 0.9924 0.0
H568 H 0.66951 0.15387 0.93522 0.0
H569 H 0.70333 0.19554 0.95121 0.0
C570 C 0.50512 0.66968 0.24762 0.0
C571 C 0.49758 0.65967 0.21391 0.0
C572 C 0.50296 0.69075 0.25916 0.0
C573 C 0.49545 0.74468 0.22243 0.0
H574 H 0.4912 0.76041 0.31856 0.0
C575 C 0.51616 0.84543 0.26363 0.0
C576 C 0.50443 0.84931 0.29263 0.0
C577 C 0.51269 0.82138 0.25513 0.0
C578 C 0.49213 0.75634 0.29147 0.0
H579 H 0.48089 0.66371 0.16678 0.0
H580 H 0.4758 0.69875 0.18699 0.0
H581 H 0.48943 0.7205 0.30313 0.0
H582 H 0.47909 0.82987 0.33509 0.0
H583 H 0.47267 0.78761 0.32012 0.0
H584 H 0.49757 0.78 0.21051 0.0
C585 C 0.48428 0.6913 0.20452 0.0
C586 C 0.49145 0.73334 0.28254 0.0
C587 C 0.48674 0.67063 0.19298 0.0
C588 C 0.48839 0.82781 0.31246 0.0
C589 C 0.48496 0.80351 0.30399 0.0
C590 C 0.49604 0.76749 0.2313 0.0
C591 C 0.49315 0.70256 0.23742 0.0
C592 C 0.49321 0.72698 0.24773 0.0
C593 C 0.49726 0.7998 0.27521 0.0
C594 C 0.49473 0.77411 0.26604 0.0
H595 H 0.51411 0.66226 0.26434 0.0
H596 H 0.51018 0.6985 0.2846 0.0
H597 H 0.49734 0.74134 0.19536 0.0
H598 H 0.52875 0.86134 0.24766 0.0
H599 H 0.52297 0.82003 0.23316 0.0
C600 C 0.68837 0.52339 0.60297 0.0
C601 C 0.67062 0.50888 0.6287 0.0
C602 C 0.70949 0.52068 0.59546 0.0
C603 C 0.73884 0.47942 0.6023 0.0
H604 H 0.80139 0.54308 0.59172 0.0
C605 C 0.83684 0.49049 0.55005 0.0
C606 C 0.85903 0.50897 0.56698 0.0
C607 C 0.81268 0.48749 0.55826 0.0
C608 C 0.78422 0.525 0.59458 0.0
H609 H 0.66137 0.47892 0.66562 0.0
H610 H 0.69819 0.47369 0.65191 0.0
H611 H 0.76235 0.54308 0.6048 0.0
H612 H 0.8722 0.53783 0.60714 0.0
H613 H 0.83114 0.53292 0.62066 0.0
H614 H 0.76112 0.46147 0.5916 0.0
C615 C 0.69564 0.48754 0.63772 0.0
C616 C 0.76154 0.525 0.60195 0.0
C617 C 0.6744 0.49051 0.64565 0.0
C618 C 0.85591 0.52355 0.59303 0.0
C619 C 0.83211 0.52082 0.60081 0.0
C620 C 0.76164 0.47942 0.59426 0.0
C621 C 0.71399 0.50308 0.61299 0.0
C622 C 0.7383 0.50228 0.60603 0.0
C623 C 0.80996 0.50311 0.58327 0.0
C624 C 0.78488 0.50229 0.59046 0.0
H625 H 0.68631 0.53759 0.58888 0.0
H626 H 0.72256 0.53271 0.5758 0.0
H627 H 0.72152 0.46146 0.60498 0.0
H628 H 0.8382 0.47882 0.52988 0.0
H629 H 0.79624 0.47355 0.54407 0.0
C630 C 0.33658 0.82946 0.85133 0.0
C631 C 0.35128 0.85063 0.87274 0.0
C632 C 0.3161 0.80702 0.86441 0.0
C633 C 0.28242 0.77279 0.94717 0.0
H634 H 0.22709 0.73466 0.88324 0.0
C635 C 0.19192 0.67689 0.98768 0.0
C636 C 0.16837 0.67039 0.97257 0.0
C637 C 0.21468 0.69806 0.97612 0.0
C638 C 0.24207 0.74503 0.90186 0.0
H639 H 0.35575 0.8641 0.92558 0.0
H640 H 0.31982 0.82525 0.94854 0.0
H641 H 0.26472 0.77218 0.86359 0.0
H642 H 0.15082 0.68169 0.93323 0.0
H643 H 0.1898 0.7185 0.91379 0.0
H644 H 0.2591 0.74594 0.98579 0.0
C645 C 0.32437 0.8257 0.92139 0.0
C646 C 0.26425 0.76667 0.89026 0.0
C647 C 0.34523 0.84818 0.90825 0.0
C648 C 0.16844 0.68589 0.94558 0.0
C649 C 0.19111 0.70707 0.93414 0.0
C650 C 0.2601 0.75112 0.95885 0.0
C651 C 0.3089 0.80476 0.89955 0.0
C652 C 0.28505 0.78116 0.91254 0.0
C653 C 0.21484 0.71372 0.94906 0.0
C654 C 0.2393 0.73677 0.93651 0.0
H655 H 0.34053 0.83048 0.82387 0.0
H656 H 0.30571 0.79151 0.84647 0.0
H657 H 0.29771 0.78284 0.96547 0.0
H658 H 0.19283 0.66554 1.00848 0.0
H659 H 0.23224 0.70188 0.98825 0.0
C660 C 0.61836 0.23454 0.9824 0.0
C661 C 0.61977 0.21236 0.978 0.0
C662 C 0.63296 0.25234 1.00786 0.0
C663 C 0.67585 0.25948 1.08379 0.0
H664 H 0.6288 0.27453 0.13042 0.0
C665 C 0.60886 0.21828 0.20326 0.0
C666 C 0.62381 0.21167 0.22331 0.0
C667 C 0.61968 0.23639 0.17746 0.0
C668 C 0.64211 0.27021 0.11792 0.0
H669 H 0.64039 0.19344 0.99293 0.0
H670 H 0.66394 0.22263 1.03843 0.0
H671 H 0.6283 0.2722 1.06835 0.0
H672 H 0.66232 0.22139 0.23543 0.0
H673 H 0.68156 0.25393 0.19118 0.0
H674 H 0.68677 0.25346 0.13346 0.0
C675 C 0.65208 0.2271 1.02264 0.0
C676 C 0.64221 0.26936 1.08182 0.0
C677 C 0.63797 0.20974 0.99683 0.0
C678 C 0.65023 0.22573 0.21982 0.0
C679 C 0.66123 0.24427 0.19419 0.0
C680 C 0.67475 0.25894 0.1199 0.0
C681 C 0.64877 0.24798 1.03004 0.0
C682 C 0.65715 0.26111 1.06442 0.0
C683 C 0.64594 0.24878 0.17121 0.0
C684 C 0.65582 0.26151 0.13717 0.0
H685 H 0.60493 0.23745 0.96768 0.0
H686 H 0.63059 0.26865 1.0114 0.0
H687 H 0.68935 0.25543 1.07135 0.0
H688 H 0.58849 0.20847 0.20625 0.0
H689 H 0.60687 0.23889 0.16077 0.0
C690 C 0.4296 0.62094 0.33002 0.0
C691 C 0.41005 0.60596 0.30677 0.0
C692 C 0.42599 0.63473 0.3559 0.0
C693 C 0.41742 0.66345 0.41073 0.0
H694 H 0.35348 0.61991 0.45535 0.0
C695 C 0.41947 0.64821 0.55295 0.0
C696 C 0.407 0.62218 0.56017 0.0
C697 C 0.41306 0.65707 0.52343 0.0
C698 C 0.37153 0.63235 0.44336 0.0
H699 H 0.37212 0.59565 0.29028 0.0
H700 H 0.36587 0.62038 0.33527 0.0
H701 H 0.35747 0.61579 0.39383 0.0
H702 H 0.37685 0.58528 0.5437 0.0
H703 H 0.36648 0.60009 0.4924 0.0
H704 H 0.43261 0.67721 0.4608 0.0
C705 C 0.38383 0.62084 0.3341 0.0
C706 C 0.37371 0.63032 0.40767 0.0
C707 C 0.38741 0.60672 0.30822 0.0
C708 C 0.38675 0.6055 0.53902 0.0
C709 C 0.38064 0.6142 0.50942 0.0
C710 C 0.41555 0.66468 0.4466 0.0
C711 C 0.40279 0.63432 0.35908 0.0
C712 C 0.39743 0.64411 0.39158 0.0
C713 C 0.39452 0.63995 0.50014 0.0
C714 C 0.39322 0.64725 0.46366 0.0
H715 H 0.44763 0.6215 0.32885 0.0
H716 H 0.44106 0.64441 0.37462 0.0
H717 H 0.43555 0.67565 0.39876 0.0
H718 H 0.43483 0.66156 0.56931 0.0
H719 H 0.4237 0.67712 0.51789 0.0
C720 C 0.76947 0.42417 0.87756 0.0
C721 C 0.78485 0.41371 0.88516 0.0
C722 C 0.7527 0.41497 0.84943 0.0
C723 C 0.73768 0.37063 0.77218 0.0
H724 H 0.75234 0.43194 0.72424 0.0
C725 C 0.78612 0.38844 0.64323 0.0
C726 C 0.80718 0.41299 0.64144 0.0
C727 C 0.76628 0.3831 0.6661 0.0
C728 C 0.7484 0.41462 0.73713 0.0
H729 H 0.79177 0.38291 0.87333 0.0
H730 H 0.7644 0.36799 0.82385 0.0
H731 H 0.74711 0.43003 0.78596 0.0
H732 H 0.82232 0.45179 0.659 0.0
H733 H 0.78958 0.44247 0.70032 0.0
H734 H 0.74301 0.35676 0.72422 0.0
C735 C 0.76456 0.3831 0.83885 0.0
C736 C 0.74476 0.41325 0.77289 0.0
C737 C 0.78087 0.392 0.86711 0.0
C738 C 0.80693 0.43242 0.66078 0.0
C739 C 0.78751 0.42706 0.68404 0.0
C740 C 0.74271 0.37253 0.73673 0.0
C741 C 0.75148 0.39553 0.828 0.0
C742 C 0.74223 0.39224 0.79138 0.0
C743 C 0.76733 0.40209 0.68824 0.0
C744 C 0.75086 0.39566 0.71957 0.0
H745 H 0.77171 0.44059 0.89167 0.0
H746 H 0.74215 0.42437 0.84313 0.0
H747 H 0.73344 0.3532 0.78498 0.0
H748 H 0.78546 0.37305 0.62823 0.0
H749 H 0.75078 0.3638 0.6675 0.0
C750 C 0.40688 0.80015 0.97661 0.0
C751 C 0.42548 0.80589 0.95138 0.0
C752 C 0.403 0.78301 1.00273 0.0
C753 C 0.4408 0.76351 1.0524 0.0
H754 H 0.38132 0.74202 0.10908 0.0
C755 C 0.40783 0.77802 0.19535 0.0
C756 C 0.42922 0.80223 0.19892 0.0
C757 C 0.40663 0.76172 0.16879 0.0
C758 C 0.39813 0.74712 0.09406 0.0
H759 H 0.45326 0.79653 0.9322 0.0
H760 H 0.44659 0.76648 0.97838 0.0
H761 H 0.37748 0.74141 1.04711 0.0
H762 H 0.4676 0.82664 0.18123 0.0
H763 H 0.46501 0.79977 0.13394 0.0
H764 H 0.46139 0.76864 0.09923 0.0
C765 C 0.43516 0.77552 0.97803 0.0
C766 C 0.39589 0.74708 1.05814 0.0
C767 C 0.43909 0.79284 0.9517 0.0
C768 C 0.45036 0.80859 0.17808 0.0
C769 C 0.449 0.79265 0.15122 0.0
C770 C 0.44285 0.76246 1.0883 0.0
C771 C 0.41764 0.77105 1.00459 0.0
C772 C 0.41769 0.75838 1.03742 0.0
C773 C 0.42652 0.76959 0.14475 0.0
C774 C 0.42219 0.75753 0.10968 0.0
H775 H 0.39631 0.81009 0.97761 0.0
H776 H 0.38977 0.78079 1.02296 0.0
H777 H 0.45797 0.77135 1.03727 0.0
H778 H 0.39139 0.77226 0.21155 0.0
H779 H 0.38939 0.74371 0.16583 0.0
C780 C 0.57931 0.37156 0.32539 0.0
C781 C 0.59813 0.38948 0.30376 0.0
C782 C 0.58528 0.35901 0.3504 0.0
C783 C 0.60004 0.33879 0.40958 0.0
H784 H 0.6641 0.39027 0.44723 0.0
C785 C 0.60158 0.36881 0.54709 0.0
C786 C 0.61159 0.39518 0.54843 0.0
C787 C 0.60813 0.35776 0.52007 0.0
C788 C 0.64607 0.3756 0.4372 0.0
H789 H 0.63726 0.40529 0.2879 0.0
H790 H 0.64734 0.38218 0.3299 0.0
H791 H 0.65751 0.38766 0.38572 0.0
H792 H 0.6377 0.43073 0.52395 0.0
H793 H 0.64848 0.41198 0.47716 0.0
H794 H 0.58732 0.32953 0.46155 0.0
C795 C 0.62822 0.37892 0.3292 0.0
C796 C 0.64232 0.37377 0.40145 0.0
C797 C 0.62235 0.39203 0.30466 0.0
C798 C 0.62975 0.41037 0.52394 0.0
C799 C 0.63612 0.39942 0.49697 0.0
C800 C 0.60338 0.34147 0.44542 0.0
C801 C 0.61024 0.36359 0.3541 0.0
C802 C 0.6182 0.35719 0.38747 0.0
C803 C 0.62453 0.37289 0.49363 0.0
C804 C 0.62552 0.36183 0.45951 0.0
H805 H 0.56011 0.36817 0.3243 0.0
H806 H 0.57052 0.3474 0.36845 0.0
H807 H 0.58193 0.32423 0.39969 0.0
H808 H 0.58795 0.35665 0.56614 0.0
H809 H 0.59925 0.33733 0.51892 0.0
C810 C 0.25765 0.69063 0.8636 0.0
C811 C 0.25313 0.66632 0.87211 0.0
C812 C 0.26755 0.70096 0.83124 0.0
C813 C 0.28623 0.68519 0.74577 0.0
H814 H 0.23153 0.6948 0.71328 0.0
C815 C 0.22153 0.62855 0.63656 0.0
C816 C 0.20672 0.6368 0.61924 0.0
C817 C 0.23992 0.64431 0.66041 0.0
C818 C 0.24752 0.69293 0.72136 0.0
H819 H 0.25847 0.63526 0.85547 0.0
H820 H 0.27507 0.65278 0.79926 0.0
H821 H 0.24416 0.70303 0.773 0.0
H822 H 0.20132 0.66899 0.61091 0.0
H823 H 0.23383 0.69672 0.65202 0.0
H824 H 0.28793 0.67301 0.69423 0.0
C825 C 0.27137 0.66422 0.81728 0.0
C826 C 0.25488 0.69774 0.75596 0.0
C827 C 0.26167 0.65401 0.84964 0.0
C828 C 0.21228 0.66197 0.62398 0.0
C829 C 0.23084 0.67784 0.64768 0.0
C830 C 0.27884 0.68036 0.71102 0.0
C831 C 0.27273 0.68696 0.80677 0.0
C832 C 0.27294 0.69204 0.76915 0.0
C833 C 0.24406 0.66879 0.66734 0.0
C834 C 0.25811 0.68238 0.69914 0.0
H835 H 0.25182 0.70081 0.8809 0.0
H836 H 0.26901 0.71885 0.8243 0.0
H837 H 0.30074 0.68133 0.75493 0.0
H838 H 0.21822 0.6095 0.63275 0.0
H839 H 0.24953 0.63653 0.67515 0.0
C840 C 0.4353 0.95499 0.97547 0.0
C841 C 0.4179 0.95545 0.95141 0.0
C842 C 0.44133 0.96817 1.00798 0.0
C843 C 0.42159 1.00486 1.0725 0.0
H844 H 0.48513 0.02209 0.11666 0.0
C845 C 0.44817 0.05276 0.21541 0.0
C846 C 0.47379 0.06711 0.22646 0.0
C847 C 0.44098 0.03961 0.18263 0.0
C848 C 0.46726 0.01786 0.10519 0.0
H849 H 0.39342 0.97144 0.9454 0.0
H850 H 0.40369 0.99412 1.00121 0.0
H851 H 0.47422 1.00031 1.06117 0.0
H852 H 0.51156 0.07796 0.20885 0.0
H853 H 0.49951 0.05597 0.15333 0.0
H854 H 0.41491 0.02286 0.11653 0.0
C855 C 0.41278 0.98322 0.99511 0.0
C856 C 0.46066 1.00467 1.07262 0.0
C857 C 0.40679 0.97002 0.96236 0.0
C858 C 0.49161 0.06744 0.20246 0.0
C859 C 0.48448 0.0543 0.16991 0.0
C860 C 0.42817 0.018 0.10525 0.0
C861 C 0.43044 0.98292 1.01913 0.0
C862 C 0.43756 0.9976 1.05492 0.0
C863 C 0.45889 0.03975 0.15867 0.0
C864 C 0.45132 0.02509 0.12286 0.0
H865 H 0.44461 0.94431 0.96916 0.0
H866 H 0.4546 0.96638 1.02461 0.0
H867 H 0.40353 1.00013 1.0612 0.0
H868 H 0.43342 0.05145 0.23232 0.0
H869 H 0.42103 0.02886 0.17647 0.0
C870 C 0.45243 0.42366 0.29116 0.0
C871 C 0.47538 0.42334 0.28643 0.0
C872 C 0.44558 0.43021 0.32362 0.0
C873 C 0.45872 0.43606 0.42199 0.0
H874 H 0.42436 0.47502 0.42401 0.0
C875 C 0.41641 0.4539 0.55402 0.0
C876 C 0.41794 0.47768 0.55992 0.0
C877 C 0.42329 0.4473 0.5216 0.0
C878 C 0.43395 0.46411 0.42448 0.0
H879 H 0.50869 0.42993 0.315 0.0
H880 H 0.49652 0.44014 0.37088 0.0
H881 H 0.43589 0.4638 0.36846 0.0
H882 H 0.42826 0.51277 0.5335 0.0
H883 H 0.43899 0.5011 0.4777 0.0
H884 H 0.45626 0.43587 0.47799 0.0
C885 C 0.48368 0.43557 0.34921 0.0
C886 C 0.44054 0.45741 0.39196 0.0
C887 C 0.49083 0.42966 0.31654 0.0
C888 C 0.42643 0.49421 0.53101 0.0
C889 C 0.43268 0.48737 0.49837 0.0
C890 C 0.45153 0.44219 0.45448 0.0
C891 C 0.4609 0.43628 0.35388 0.0
C892 C 0.45332 0.44328 0.38952 0.0
C893 C 0.43158 0.46376 0.49254 0.0
C894 C 0.43903 0.45659 0.45693 0.0
H895 H 0.4397 0.4192 0.26938 0.0
H896 H 0.42783 0.43015 0.325 0.0
H897 H 0.46829 0.42514 0.42244 0.0
H898 H 0.41031 0.44034 0.57489 0.0
H899 H 0.42178 0.42887 0.51928 0.0
C900 C 0.03949 0.44888 0.63727 0.0
C901 C 0.05498 0.47416 0.62561 0.0
C902 C 0.02541 0.44284 0.66915 0.0
C903 C 1.0027 0.47178 0.74247 0.0
H904 H 0.98239 0.40846 0.789 0.0
C905 C 0.93585 0.44205 0.86885 0.0
C906 C 0.93547 0.42471 0.89369 0.0
C907 C 0.95001 0.44781 0.83718 0.0
C908 C 0.98779 0.42645 0.77699 0.0
H909 H 0.06651 0.51265 0.64116 0.0
H910 H 0.04271 0.5025 0.69517 0.0
H911 H 1.00656 0.41844 0.73534 0.0
H912 H 0.95134 0.40034 0.90217 0.0
H913 H 0.97541 0.40998 0.84813 0.0
H914 H 0.98416 0.47992 0.78422 0.0
C915 C 0.04108 0.48688 0.67975 0.0
C916 C 1.00181 0.43221 0.74514 0.0
C917 C 0.05526 0.49289 0.64811 0.0
C918 C 0.9503 0.41351 0.88446 0.0
C919 C 0.9644 0.41917 0.85267 0.0
C920 C 0.98853 0.46594 0.77416 0.0
C921 C 0.02554 0.46162 0.69164 0.0
C922 C 0.00991 0.45514 0.72658 0.0
C923 C 0.96488 0.43662 0.82773 0.0
C924 C 0.9805 0.44304 0.79279 0.0
H925 H 0.03808 0.43345 0.62156 0.0
H926 H 0.01395 0.42306 0.67576 0.0
H927 H 0.00772 0.4896 0.73021 0.0
H928 H 0.92519 0.45156 0.87397 0.0
H929 H 0.94895 0.46111 0.81981 0.0
C930 C 0.51836 0.94178 0.19538 0.0
C931 C 0.53426 0.95063 0.22505 0.0
C932 C 0.52511 0.95511 0.16315 0.0
C933 C 0.56773 0.02026 0.12227 0.0
H934 H 0.55129 0.98384 1.03502 0.0
C935 C 0.58063 0.07214 0.98548 0.0
C936 C 0.58911 0.0643 0.95618 0.0
C937 C 0.57452 0.05882 1.01769 0.0
C938 C 0.5562 0.99464 1.05892 0.0
H939 H 0.57024 0.98183 0.24208 0.0
H940 H 0.58148 1.00509 0.18718 0.0
H941 H 0.53982 0.96056 0.08982 0.0
H942 H 0.59701 0.03491 0.93979 0.0
H943 H 0.5858 0.01161 0.99468 0.0
H944 H 0.58359 0.05432 0.09137 0.0
C945 C 0.56369 0.98746 0.18855 0.0
C946 C 0.54935 0.98103 0.09092 0.0
C947 C 0.55723 0.97382 0.22051 0.0
C948 C 0.59083 0.04212 0.96107 0.0
C949 C 0.58413 0.02844 0.99302 0.0
C950 C 0.57402 0.03385 0.09027 0.0
C951 C 0.54791 0.97853 0.15871 0.0
C952 C 0.55505 0.99338 0.12371 0.0
C953 C 0.57584 0.03638 1.02249 0.0
C954 C 0.56864 0.02151 1.05747 0.0
H955 H 0.50047 0.92426 0.19692 0.0
H956 H 0.51198 0.94713 0.1417 0.0
H957 H 0.57257 0.03106 0.14617 0.0
H958 H 0.57874 0.08885 0.98365 0.0
H959 H 0.56818 0.06598 1.03883 0.0
C960 C 0.58265 0.5216 0.53611 0.0
C961 C 0.59896 0.53975 0.56089 0.0
C962 C 0.57593 0.52848 0.50403 0.0
C963 C 0.59243 0.58536 0.44253 0.0
H964 H 0.53025 0.53744 0.3966 0.0
C965 C 0.56458 0.6071 0.3015 0.0
C966 C 0.53892 0.59516 0.2905 0.0
C967 C 0.57217 0.60104 0.33371 0.0
C968 C 0.54771 0.5515 0.40863 0.0
H969 H 0.62066 0.58034 0.56877 0.0
H970 H 0.6093 0.59224 0.51388 0.0
H971 H 0.542 0.52643 0.45121 0.0
H972 H 0.50152 0.56686 0.30749 0.0
H973 H 0.51428 0.55671 0.36206 0.0
H974 H 0.59792 0.61055 0.39997 0.0
C975 C 0.60161 0.57229 0.51894 0.0
C976 C 0.5548 0.54487 0.44063 0.0
C977 C 0.60823 0.56536 0.55119 0.0
C978 C 0.52147 0.57686 0.31391 0.0
C979 C 0.52902 0.57073 0.34586 0.0
C980 C 0.5854 0.59195 0.41034 0.0
C981 C 0.58508 0.5541 0.49416 0.0
C982 C 0.57742 0.56153 0.45891 0.0
C983 C 0.55466 0.58247 0.35704 0.0
C984 C 0.5627 0.5753 0.39218 0.0
H985 H 0.57475 0.50165 0.54155 0.0
H986 H 0.56357 0.51332 0.48669 0.0
H987 H 0.61011 0.59919 0.45433 0.0
H988 H 0.57906 0.62117 0.28499 0.0
H989 H 0.59214 0.61081 0.33989 0.0
C990 C 0.09812 0.59063 0.86165 0.0
C991 C 0.08542 0.58477 0.89401 0.0
C992 C 0.08466 0.58499 0.82908 0.0
C993 C 0.01737 0.54538 0.78839 0.0
H994 H 0.04588 0.58807 0.70825 0.0
C995 C 0.96124 0.51834 0.65297 0.0
C996 C 0.96486 0.53713 0.6284 0.0
C997 C 0.97609 0.52395 0.68397 0.0
C998 C 0.03718 0.57575 0.73014 0.0
H999 H 0.04743 0.5675 0.91492 0.0
H1000 H 0.02487 0.55766 0.86022 0.0
H1001 H 0.07066 0.59756 0.7618 0.0
H1002 H 0.98851 0.57733 0.61944 0.0
H1003 H 0.01395 0.58706 0.6725 0.0
H1004 H 0.98396 0.52357 0.7571 0.0
C1005 C 0.04527 0.56666 0.85932 0.0
C1006 C 0.05183 0.58119 0.76142 0.0
C1007 C 0.05859 0.57259 0.89148 0.0
C1008 C 0.98449 0.56197 0.63695 0.0
C1009 C 0.9995 0.56759 0.6679 0.0
C1010 C 1.00287 0.53978 0.75709 0.0
C1011 C 0.05768 0.57272 0.82684 0.0
C1012 C 0.04236 0.56634 0.79185 0.0
C1013 C 0.99585 0.54879 0.69264 0.0
C1014 C 0.0121 0.55484 0.7268 0.0
H1015 H 0.11857 0.60007 0.86135 0.0
H1016 H 0.0956 0.59015 0.80546 0.0
H1017 H 0.00875 0.53281 0.81007 0.0
H1018 H 0.94676 0.49887 0.64822 0.0
H1019 H 0.97217 0.50836 0.70095 0.0
C1020 C 0.46017 0.03907 0.39661 0.0
C1021 C 0.47268 0.03655 0.36744 0.0
C1022 C 0.45619 0.02419 0.42579 0.0
C1023 C 0.47376 0.97879 0.46201 0.0
H1024 H 0.53774 0.04096 0.47158 0.0
C1025 C 0.52421 0.99514 0.37112 0.0
C1026 C 0.52711 0.97382 0.37085 0.0
C1027 C 0.52894 0.00937 0.40148 0.0
C1028 C 0.51994 0.02326 0.47158 0.0
H1029 H 0.48382 0.01204 0.34191 0.0
H1030 H 0.47461 0.98433 0.39179 0.0
H1031 H 0.49917 0.04267 0.46691 0.0
H1032 H 0.54463 0.95568 0.39867 0.0
H1033 H 0.54706 0.97633 0.45348 0.0
H1034 H 0.49499 0.95978 0.46355 0.0
C1035 C 0.46984 0.9992 0.39328 0.0
C1036 C 0.49755 0.02416 0.46849 0.0
C1037 C 0.47529 0.01509 0.36465 0.0
C1038 C 0.53952 0.97013 0.39902 0.0
C1039 C 0.54213 0.98286 0.4303 0.0
C1040 C 0.49605 0.97795 0.4669 0.0
C1041 C 0.46363 0.00588 0.42541 0.0
C1042 C 0.47543 1.00236 0.45684 0.0
C1043 C 0.53396 1.0006 0.43258 0.0
C1044 C 0.51942 1.00053 0.46334 0.0
H1045 H 0.45643 0.05458 0.39872 0.0
H1046 H 0.45076 0.02939 0.44983 0.0
H1047 H 0.45664 0.96145 0.45509 0.0
H1048 H 0.51581 0.9992 0.34916 0.0
H1049 H 0.52377 0.02399 0.40187 0.0
C1050 C 0.47627 0.48508 0.69367 0.0
C1051 C 0.45135 0.48002 0.69663 0.0
C1052 C 0.4873 0.47916 0.72123 0.0
C1053 C 0.48864 0.50234 0.79855 0.0
H1054 H 0.55059 0.5001 0.7955 0.0
C1055 C 0.58569 0.54532 0.73592 0.0
C1056 C 0.57007 0.53436 0.70682 0.0
C1057 C 0.57543 0.54799 0.76692 0.0
C1058 C 0.53337 0.50097 0.79826 0.0
H1059 H 0.41681 0.45942 0.72663 0.0
H1060 H 0.43735 0.45361 0.77664 0.0
H1061 H 0.51115 0.46233 0.78174 0.0
H1062 H 0.53461 0.52596 0.68343 0.0
H1063 H 0.51752 0.5335 0.736 0.0
H1064 H 0.51168 0.54228 0.80626 0.0
C1065 C 0.4481 0.46102 0.75304 0.0
C1066 C 0.5106 0.47901 0.79033 0.0
C1067 C 0.43661 0.46514 0.72459 0.0
C1068 C 0.54664 0.5332 0.7061 0.0
C1069 C 0.53701 0.53774 0.73642 0.0
C1070 C 0.51169 0.52452 0.80456 0.0
C1071 C 0.47417 0.4703 0.75277 0.0
C1072 C 0.48884 0.48087 0.78504 0.0
C1073 C 0.54976 0.54079 0.76815 0.0
C1074 C 0.53419 0.5245 0.79699 0.0
H1075 H 0.48778 0.49556 0.67181 0.0
H1076 H 0.50722 0.48521 0.71982 0.0
H1077 H 0.47178 0.50396 0.79659 0.0
H1078 H 0.60475 0.54901 0.73634 0.0
H1079 H 0.58625 0.55161 0.7906 0.0
C1080 C 0.97229 0.43455 1.01625 0.0
C1081 C 0.96603 0.44897 0.99463 0.0
C1082 C 0.98761 0.42515 1.00424 0.0
C1083 C 0.02898 0.43238 0.92683 0.0
H1084 H 0.06908 0.43522 1.005 0.0
C1085 C 0.08812 0.52429 0.96024 0.0
C1086 C 0.08621 0.52838 0.99561 0.0
C1087 C 0.08432 0.50095 0.94838 0.0
C1088 C 0.05807 0.43468 0.98269 0.0
H1089 H 0.97307 0.46751 0.94501 0.0
H1090 H 1.0011 0.45331 0.92483 0.0
H1091 H 0.02353 0.40978 1.00811 0.0
H1092 H 0.07996 0.51196 1.04648 0.0
H1093 H 0.07103 0.47083 1.02642 0.0
H1094 H 0.06374 0.45897 0.90319 0.0
C1095 C 0.99297 0.44709 0.95018 0.0
C1096 C 0.03171 0.42006 0.98451 0.0
C1097 C 0.97738 0.45613 0.96212 0.0
C1098 C 0.0803 0.50879 1.01889 0.0
C1099 C 0.07606 0.48533 1.00712 0.0
C1100 C 0.05526 0.448 0.92624 0.0
C1101 C 0.9979 0.43078 0.97059 0.0
C1102 C 0.01723 0.42386 0.95924 0.0
C1103 C 0.07782 0.48077 0.97147 0.0
C1104 C 0.06821 0.45425 0.95817 0.0
H1105 H 0.96387 0.42904 1.04168 0.0
H1106 H 0.99078 0.41311 1.02146 0.0
H1107 H 0.01823 0.43149 0.90404 0.0
H1108 H 0.0941 0.53964 0.94194 0.0
H1109 H 0.08645 0.49891 0.92097 0.0
C1110 C 0.03133 0.462 0.45181 0.0
C1111 C 0.02942 0.47488 0.48111 0.0
C1112 C 0.0176 0.45973 0.42184 0.0
C1113 C 0.97674 0.48275 0.38412 0.0
H1114 H 0.04241 0.54242 0.37306 0.0
C1115 C 1.00392 0.53479 0.47561 0.0
C1116 C 0.98192 0.53632 0.47863 0.0
C1117 C 0.01607 0.5392 0.44365 0.0
C1118 C 0.0237 0.52583 0.37361 0.0
H1119 H 1.00647 0.48815 0.50585 0.0
H1120 H 0.98123 0.48296 0.45405 0.0
H1121 H 0.03927 0.50152 0.37882 0.0
H1122 H 0.961 0.55229 0.4544 0.0
H1123 H 0.97929 0.55609 0.39766 0.0
H1124 H 0.96171 0.50754 0.38196 0.0
C1125 C 0.99473 0.47634 0.45321 0.0
C1126 C 0.02182 0.5021 0.37733 0.0
C1127 C 0.00932 0.47967 0.48286 0.0
C1128 C 0.97607 0.54818 0.45195 0.0
C1129 C 0.98736 0.55145 0.41948 0.0
C1130 C 0.97873 0.50638 0.37887 0.0
C1131 C 1.00105 0.46937 0.42138 0.0
C1132 C 0.99893 0.48167 0.38953 0.0
C1133 C 1.00507 0.54349 0.4141 0.0
C1134 C 1.00271 0.52829 0.3826 0.0
H1135 H 0.04556 0.45642 0.45043 0.0
H1136 H 0.02244 0.45367 0.39803 0.0
H1137 H 0.95851 0.4669 0.39116 0.0
H1138 H 0.00994 0.52739 0.49666 0.0
H1139 H 0.0308 0.5343 0.44116 0.0
C1140 C 0.47321 1.00525 0.8112 0.0
C1141 C 0.44892 0.98426 0.80856 0.0
C1142 C 0.48466 0.01987 0.78178 0.0
C1143 C 0.48727 0.99205 0.7083 0.0
H1144 H 0.55062 0.05459 0.71323 0.0
C1145 C 0.57915 0.04381 0.78432 0.0
C1146 C 0.56128 0.03966 0.81017 0.0
C1147 C 0.57106 0.0312 0.75247 0.0
C1148 C 0.53312 0.0369 0.70993 0.0
H1149 H 0.4152 0.96636 0.77627 0.0
H1150 H 0.43623 0.98929 0.72425 0.0
H1151 H 0.51169 0.05543 0.71932 0.0
H1152 H 0.52409 0.01316 0.82879 0.0
H1153 H 0.51043 0.98909 0.77518 0.0
H1154 H 0.50906 0.9734 0.70714 0.0
C1155 C 0.44644 0.99494 0.74861 0.0
C1156 C 0.51061 0.0375 0.71347 0.0
C1157 C 0.43464 0.98134 0.7784 0.0
C1158 C 0.53759 0.01785 0.80806 0.0
C1159 C 0.53002 1.00391 0.77727 0.0
C1160 C 0.50997 0.99161 0.70632 0.0
C1161 C 0.47235 0.01249 0.74929 0.0
C1162 C 0.48799 0.01466 0.71872 0.0
C1163 C 0.54541 0.01326 0.74758 0.0
C1164 C 0.53257 0.01373 0.71513 0.0
H1165 H 0.48407 0.00882 0.83477 0.0
H1166 H 0.50443 0.03426 0.78346 0.0
H1167 H 0.46985 0.97403 0.70986 0.0
H1168 H 0.59856 0.05853 0.78684 0.0
H1169 H 0.58381 0.03806 0.73059 0.0
C1170 C 0.55573 0.58389 0.12428 0.0
C1171 C 0.54164 0.56746 0.15139 0.0
C1172 C 0.56083 0.57432 0.09438 0.0
C1173 C 0.54217 0.51255 1.05194 0.0
H1174 H 0.48056 0.51526 1.04084 0.0
C1175 C 0.48703 0.47879 0.13997 0.0
C1176 C 0.48459 0.45476 0.13962 0.0
C1177 C 0.48405 0.48906 0.10929 0.0
C1178 C 0.49775 0.51416 1.04132 0.0
H1179 H 0.52912 0.53067 0.17344 0.0
H1180 H 0.53941 0.51406 0.12208 0.0
H1181 H 0.52019 0.55398 1.04926 0.0
H1182 H 0.46966 0.42014 0.10975 0.0
H1183 H 0.46871 0.4391 1.05531 0.0
H1184 H 0.5192 0.4726 1.04705 0.0
C1185 C 0.54486 0.53392 0.12261 0.0
C1186 C 0.52076 0.53655 1.04655 0.0
C1187 C 0.53865 0.54321 0.15203 0.0
C1188 C 0.47395 0.43941 0.11018 0.0
C1189 C 0.47242 0.45005 1.07897 0.0
C1190 C 0.51932 0.49038 1.04504 0.0
C1191 C 0.55267 0.54843 0.09199 0.0
C1192 C 0.54173 0.53498 1.05885 0.0
C1193 C 0.48061 0.47598 1.07764 0.0
C1194 C 0.49658 0.491 1.04819 0.0
H1195 H 0.55977 0.60331 0.12406 0.0
H1196 H 0.56754 0.58617 1.07163 0.0
H1197 H 0.55849 0.51096 1.05913 0.0
H1198 H 0.49395 0.49058 0.1629 0.0
H1199 H 0.48929 0.50887 0.10964 0.0
C1200 C 0.3117 0.95121 0.67617 0.0
C1201 C 0.31147 0.96093 0.70911 0.0
C1202 C 0.30655 0.96098 0.64674 0.0
C1203 C 0.31228 0.02114 0.61901 0.0
H1204 H 0.29715 0.98594 0.53084 0.0
C1205 C 0.36892 0.06794 0.49926 0.0
C1206 C 0.35972 0.05813 0.4661 0.0
C1207 C 0.35375 0.05753 0.52831 0.0
C1208 C 0.30084 0.99619 0.55509 0.0
H1209 H 0.30321 0.9869 0.73721 0.0
H1210 H 0.29308 1.00318 0.68592 0.0
H1211 H 0.28402 0.96178 0.58382 0.0
H1212 H 0.3265 0.03118 0.43718 0.0
H1213 H 0.29962 0.01372 0.48781 0.0
H1214 H 0.3289 0.05554 0.59027 0.0
C1215 C 0.29814 0.98859 0.68271 0.0
C1216 C 0.29365 0.98224 0.58564 0.0
C1217 C 0.30367 0.97903 0.7122 0.0
C1218 C 0.33424 0.03915 0.46237 0.0
C1219 C 0.3189 0.02893 0.49148 0.0
C1220 C 0.31894 0.03507 0.58845 0.0
C1221 C 0.3006 0.98048 0.6495 0.0
C1222 C 0.30086 0.99457 0.61797 0.0
C1223 C 0.32879 0.03727 0.52494 0.0
C1224 C 0.3149 0.02282 0.55618 0.0
H1225 H 0.31697 0.93677 0.67293 0.0
H1226 H 0.3089 0.95429 0.62178 0.0
H1227 H 0.31805 0.03145 0.64329 0.0
H1228 H 0.38826 0.08301 0.50298 0.0
H1229 H 0.36229 0.06443 0.55349 0.0
C1230 C 0.39815 0.32266 0.99049 0.0
C1231 C 0.385 0.31368 1.0217 0.0
C1232 C 0.38566 0.3139 0.95894 0.0
C1233 C 0.32266 0.29186 0.92478 0.0
H1234 H 0.35898 0.30005 0.83919 0.0
C1235 C 0.32096 0.35126 0.81572 0.0
C1236 C 0.32744 0.34826 0.7819 0.0
C1237 C 0.31882 0.33449 0.84159 0.0
C1238 C 0.34802 0.29693 0.86255 0.0
H1239 H 0.34897 0.28688 1.04445 0.0
H1240 H 0.32714 0.27119 0.98911 0.0
H1241 H 0.37431 0.29122 0.89227 0.0
H1242 H 0.33465 0.32411 0.74791 0.0
H1243 H 0.33051 0.29447 0.79312 0.0
H1244 H 0.29681 0.29833 0.89522 0.0
C1245 C 0.34704 0.28534 0.98908 0.0
C1246 C 0.35704 0.29217 0.89314 0.0
C1247 C 0.35958 0.29421 1.02076 0.0
C1248 C 0.32968 0.32694 0.77381 0.0
C1249 C 0.32747 0.31005 0.79974 0.0
C1250 C 0.31343 0.29626 0.89411 0.0
C1251 C 0.35971 0.29582 0.95785 0.0
C1252 C 0.34554 0.29151 0.92492 0.0
C1253 C 0.32304 0.31424 0.8342 0.0
C1254 C 0.3271 0.30074 0.86317 0.0
H1255 H 0.41789 0.3373 0.99044 0.0
H1256 H 0.39605 0.32267 0.93554 0.0
H1257 H 0.31314 0.29125 0.9487 0.0
H1258 H 0.31863 0.36726 0.82254 0.0
H1259 H 0.31565 0.33855 0.86784 0.0
C1260 C 0.95282 0.33821 0.16561 0.0
C1261 C 0.95979 0.3343 0.13251 0.0
C1262 C 0.9613 0.33161 0.19506 0.0
C1263 C 0.01377 0.32351 0.22487 0.0
H1264 H 0.97558 0.30881 0.31004 0.0
C1265 C 0.05973 0.36763 0.35275 0.0
C1266 C 0.04689 0.35788 0.38404 0.0
C1267 C 0.04969 0.35478 0.32166 0.0
C1268 C 0.98651 0.31222 0.28661 0.0
H1269 H 0.98034 0.31941 0.10432 0.0
H1270 H 0.99488 0.30739 0.15606 0.0
H1271 H 0.95428 0.30338 0.25523 0.0
H1272 H 0.01501 0.32547 0.40773 0.0
H1273 H 0.99807 0.30245 0.35362 0.0
H1274 H 0.04603 0.33239 0.2563 0.0
C1275 C 0.98311 0.31593 0.15912 0.0
C1276 C 0.97428 0.3095 0.25506 0.0
C1277 C 0.97465 0.32267 0.1295 0.0
C1278 C 0.0253 0.33363 0.38404 0.0
C1279 C 0.01541 0.32055 0.3529 0.0
C1280 C 0.02593 0.3258 0.25644 0.0
C1281 C 0.97681 0.32067 0.19228 0.0
C1282 C 0.98809 0.31669 0.22405 0.0
C1283 C 0.02671 0.33163 0.32114 0.0
C1284 C 0.01279 0.32175 0.28784 0.0
H1285 H 0.94096 0.34666 0.16883 0.0
H1286 H 0.95641 0.33602 0.22008 0.0
H1287 H 0.02499 0.329 0.20148 0.0
H1288 H 0.07681 0.38596 0.35199 0.0
H1289 H 0.05904 0.36411 0.29793 0.0
C1290 C 0.69656 0.02644 0.72452 0.0
C1291 C 0.69176 0.04633 0.71782 0.0
C1292 C 0.70158 0.01439 0.69737 0.0
C1293 C 0.71071 0.01575 0.60152 0.0
H1294 H 0.65973 0.94473 0.60778 0.0
C1295 C 0.66492 0.95799 0.47927 0.0
C1296 C 0.63861 0.94838 0.48045 0.0
C1297 C 0.6793 0.96535 0.50968 0.0
C1298 C 0.67439 0.9644 0.60572 0.0
H1299 H 0.69052 0.07056 0.67794 0.0
H1300 H 0.69883 0.04943 0.63064 0.0
H1301 H 0.67415 0.97039 0.66007 0.0
H1302 H 0.60667 0.93758 0.5147 0.0
H1303 H 0.63153 0.95011 0.56736 0.0
H1304 H 0.70894 0.01023 0.54672 0.0
C1305 C 0.69915 0.04327 0.65678 0.0
C1306 C 0.68289 0.97912 0.63574 0.0
C1307 C 0.69421 0.05535 0.68391 0.0
C1308 C 0.6268 0.94461 0.51279 0.0
C1309 C 0.64111 0.95175 0.5431 0.0
C1310 C 0.70211 1.00103 0.57144 0.0
C1311 C 0.70179 0.02196 0.66304 0.0
C1312 C 0.69987 1.00532 0.63368 0.0
C1313 C 0.66759 0.96298 0.5418 0.0
C1314 C 0.68264 0.97564 0.57316 0.0
H1315 H 0.69535 0.01951 0.75061 0.0
H1316 H 0.70393 0.99829 0.70305 0.0
H1317 H 0.72425 0.03577 0.59924 0.0
H1318 H 0.67451 0.96061 0.45477 0.0
H1319 H 0.69965 0.97379 0.50799 0.0
C1320 C 0.66127 0.69624 1.03594 0.0
C1321 C 0.66353 0.68921 1.06968 0.0
C1322 C 0.67783 0.69756 1.01014 0.0
C1323 C 0.71601 0.70113 0.95811 0.0
H1324 H 0.71541 0.6372 0.95865 0.0
C1325 C 0.72174 0.6551 0.83144 0.0
C1326 C 0.70059 0.6307 0.82822 0.0
C1327 C 0.72883 0.66691 0.8639 0.0
C1328 C 0.71614 0.65534 0.95825 0.0
H1329 H 0.68619 0.68016 0.10365 0.0
H1330 H 0.71539 0.68274 1.05853 0.0
H1331 H 0.70709 0.65311 1.01186 0.0
H1332 H 0.67147 0.59874 0.85623 0.0
H1333 H 0.68353 0.61926 0.91259 0.0
H1334 H 0.72254 0.70198 0.90368 0.0
C1335 C 0.7006 0.68693 1.05196 0.0
C1336 C 0.71164 0.66464 0.98886 0.0
C1337 C 0.68397 0.68559 1.07782 0.0
C1338 C 0.68766 0.61769 0.85805 0.0
C1339 C 0.69483 0.62935 0.89037 0.0
C1340 C 0.72038 0.69174 0.92743 0.0
C1341 C 0.69705 0.6919 1.01755 0.0
C1342 C 0.70994 0.68683 0.98862 0.0
C1343 C 0.71504 0.65434 0.89357 0.0
C1344 C 0.71888 0.66795 0.92687 0.0
H1345 H 0.64595 0.69958 1.02911 0.0
H1346 H 0.67434 0.70121 0.9839 0.0
H1347 H 0.71539 0.71859 0.95733 0.0
H1348 H 0.732 0.66548 0.80872 0.0
H1349 H 0.7445 0.68615 0.86565 0.0
C1350 C 0.97596 0.62279 0.10859 0.0
C1351 C 0.986 0.6066 0.11298 0.0
C1352 C 0.95936 0.62334 0.13299 0.0
C1353 C 0.92238 0.59148 0.21206 0.0
H1354 H 0.95019 0.66018 0.24673 0.0
C1355 C 0.90851 0.60684 0.35276 0.0
C1356 C 0.93218 0.62132 0.36891 0.0
C1357 C 0.90609 0.60821 0.31701 0.0
C1358 C 0.94189 0.64091 0.23715 0.0
H1359 H 0.98516 0.57709 0.145 0.0
H1360 H 0.95639 0.57809 0.18756 0.0
H1361 H 0.96158 0.65299 0.18915 0.0
H1362 H 0.97109 0.65068 0.36124 0.0
H1363 H 0.96715 0.6527 0.29898 0.0
H1364 H 0.90469 0.5793 0.26125 0.0
C1365 C 0.96103 0.59018 0.16513 0.0
C1366 C 0.94821 0.63676 0.20399 0.0
C1367 C 0.97763 0.58965 0.14078 0.0
C1368 C 0.95274 0.639 0.34931 0.0
C1369 C 0.95034 0.64036 0.31364 0.0
C1370 C 0.91616 0.59562 0.24525 0.0
C1371 C 0.95243 0.60766 0.16216 0.0
C1372 C 0.93971 0.61196 0.19197 0.0
C1373 C 0.92731 0.62406 0.29687 0.0
C1374 C 0.92709 0.62034 0.25889 0.0
H1375 H 0.98167 0.63569 1.08693 0.0
H1376 H 0.95277 0.63676 0.12979 0.0
H1377 H 0.91514 0.57217 0.20316 0.0
H1378 H 0.8923 0.59304 0.36726 0.0
H1379 H 0.88803 0.59567 0.30487 0.0
C1380 C 0.50124 0.1005 0.47312 0.0
C1381 C 0.5185 0.10874 0.445 0.0
C1382 C 0.50888 0.09992 0.50826 0.0
C1383 C 0.56653 0.10859 0.56506 0.0
H1384 H 0.52321 0.10307 0.64136 0.0
C1385 C 0.59634 0.10225 0.71278 0.0
C1386 C 0.58482 0.10731 0.74136 0.0
C1387 C 0.58855 0.10208 0.67746 0.0
C1388 C 0.53612 0.1049 0.62094 0.0
H1389 H 0.55816 0.12275 0.43462 0.0
H1390 H 0.57127 0.12235 0.49394 0.0
H1391 H 0.51003 0.10398 0.58242 0.0
H1392 H 0.55523 0.11614 0.75227 0.0
H1393 H 0.54234 0.11629 0.69291 0.0
H1394 H 0.59284 0.11002 0.60369 0.0
C1395 C 0.55147 0.11582 0.48949 0.0
C1396 C 0.52813 0.10511 0.58599 0.0
C1397 C 0.54382 0.1163 0.45452 0.0
C1398 C 0.56508 0.11218 0.73209 0.0
C1399 C 0.55733 0.11202 0.69703 0.0
C1400 C 0.57455 0.10845 0.60004 0.0
C1401 C 0.53436 0.10756 0.51792 0.0
C1402 C 0.54302 0.10705 0.55651 0.0
C1403 C 0.56862 0.1069 0.66816 0.0
C1404 C 0.55972 0.10669 0.62951 0.0
H1405 H 0.48148 0.09408 0.46798 0.0
H1406 H 0.49433 0.09299 0.52783 0.0
H1407 H 0.57914 0.10975 0.54459 0.0
H1408 H 0.61137 0.09807 0.71764 0.0
H1409 H 0.59815 0.09768 0.65744 0.0
C1410 C 0.41393 0.50288 0.80696 0.0
C1411 C 0.42134 0.52008 0.77888 0.0
C1412 C 0.42258 0.51094 0.84192 0.0
C1413 C 0.47108 0.56951 0.89756 0.0
H1414 H 0.43422 0.52738 0.975 0.0
C1415 C 0.50951 0.60051 1.04436 0.0
C1416 C 0.49294 0.59053 1.07311 0.0
C1417 C 0.50142 0.5921 1.00931 0.0
C1418 C 0.44503 0.53991 0.9542 0.0
H1419 H 0.44463 0.56013 0.76833 0.0
H1420 H 0.45899 0.57388 0.82744 0.0
H1421 H 0.41937 0.5133 0.91622 0.0
H1422 H 0.45402 0.5629 1.08472 0.0
H1423 H 0.44022 0.5489 1.02558 0.0
H1424 H 0.49652 0.5963 0.93559 0.0
C1425 C 0.44662 0.55384 0.82299 0.0
C1426 C 0.43641 0.53143 0.91944 0.0
C1427 C 0.438 0.54579 0.78822 0.0
C1428 C 0.46786 0.57156 1.06432 0.0
C1429 C 0.4598 0.56316 1.0295 0.0
C1430 C 0.47972 0.57797 0.93232 0.0
C1431 C 0.43933 0.53679 0.85134 0.0
C1432 C 0.449 0.54592 0.88966 0.0
C1433 C 0.4762 0.57303 1.00048 0.0
C1434 C 0.467 0.56359 0.96212 0.0
H1435 H 0.4015 0.48288 0.80194 0.0
H1436 H 0.41622 0.49649 0.86156 0.0
H1437 H 0.48222 0.58178 0.87673 0.0
H1438 H 0.52904 0.61483 1.04888 0.0
H1439 H 0.5154 0.60053 0.98908 0.0
C1440 C 0.91069 0.42429 0.13951 0.0
C1441 C 0.90132 0.43327 0.11266 0.0
C1442 C 0.91211 0.43202 0.17511 0.0
C1443 C 0.90442 0.47966 0.23655 0.0
H1444 H 0.91233 0.44058 0.30883 0.0
C1445 C 0.91603 0.51318 0.38708 0.0
C1446 C 0.91127 0.4958 0.41436 0.0
C1447 C 0.91503 0.5063 0.35104 0.0
C1448 C 0.90986 0.452 0.28961 0.0
H1449 H 0.88608 0.45827 0.10518 0.0
H1450 H 0.8881 0.47119 0.1656 0.0
H1451 H 0.90962 0.4275 0.2489 0.0
H1452 H 0.90169 0.45681 0.42208 0.0
H1453 H 0.89957 0.44507 0.36159 0.0
H1454 H 0.90421 0.5039 0.27756 0.0
C1455 C 0.89484 0.45823 0.15957 0.0
C1456 C 0.9086 0.44442 0.25404 0.0
C1457 C 0.89346 0.45053 0.12401 0.0
C1458 C 0.90547 0.47122 0.40301 0.0
C1459 C 0.90448 0.46438 0.36728 0.0
C1460 C 0.90567 0.48724 0.27221 0.0
C1461 C 0.90425 0.44934 0.18667 0.0
C1462 C 0.90577 0.45787 0.22593 0.0
C1463 C 0.9093 0.48158 0.33969 0.0
C1464 C 0.90833 0.47366 0.30028 0.0
H1465 H 0.91722 0.41119 0.13302 0.0
H1466 H 0.91986 0.4244 0.19351 0.0
H1467 H 0.90259 0.4914 0.2172 0.0
H1468 H 0.92092 0.53243 0.39351 0.0
H1469 H 0.91926 0.52084 0.33204 0.0
C1470 C 0.50471 0.91462 0.46768 0.0
C1471 C 0.48756 0.90703 0.43933 0.0
C1472 C 0.49716 0.91558 0.50277 0.0
C1473 C 0.44085 0.91087 0.55836 0.0
H1474 H 0.48091 0.91083 0.63576 0.0
C1475 C 0.41106 0.91895 0.70522 0.0
C1476 C 0.42031 0.91139 0.73384 0.0
C1477 C 0.41922 0.91891 0.67022 0.0
C1478 C 0.46895 0.91063 0.61497 0.0
H1479 H 0.44823 0.89466 0.42849 0.0
H1480 H 0.43531 0.89579 0.48763 0.0
H1481 H 0.49431 0.90941 0.57693 0.0
H1482 H 0.44634 0.89795 0.74534 0.0
H1483 H 0.45982 0.8974 0.68624 0.0
H1484 H 0.41525 0.91162 0.59634 0.0
C1485 C 0.45494 0.90146 0.4834 0.0
C1486 C 0.47707 0.91011 0.58018 0.0
C1487 C 0.46247 0.90053 0.44855 0.0
C1488 C 0.43827 0.9039 0.72501 0.0
C1489 C 0.44637 0.90381 0.6902 0.0
C1490 C 0.43272 0.91137 0.59313 0.0
C1491 C 0.47192 0.90907 0.51202 0.0
C1492 C 0.4633 0.91009 0.5504 0.0
C1493 C 0.43725 0.91134 0.66129 0.0
C1494 C 0.44637 0.91117 0.62293 0.0
H1495 H 0.5243 0.92024 0.46278 0.0
H1496 H 0.51156 0.92193 0.52264 0.0
H1497 H 0.42923 0.91134 0.53757 0.0
H1498 H 0.39757 0.92528 0.70983 0.0
H1499 H 0.41142 0.92531 0.65014 0.0
C1500 C 0.60534 0.50934 0.80438 0.0
C1501 C 0.59544 0.49222 0.77589 0.0
C1502 C 0.59696 0.50191 0.83953 0.0
C1503 C 0.54555 0.44561 0.89559 0.0
H1504 H 0.58529 0.48671 0.97283 0.0
C1505 C 0.50839 0.41609 1.04301 0.0
C1506 C 0.52507 0.42628 1.07183 0.0
C1507 C 0.51638 0.42399 1.00786 0.0
C1508 C 0.5736 0.47443 0.95213 0.0
H1509 H 0.56786 0.45301 0.76508 0.0
H1510 H 0.55402 0.44028 0.82422 0.0
H1511 H 0.5998 0.49981 0.91399 0.0
H1512 H 0.56413 0.45383 1.08325 0.0
H1513 H 0.57779 0.46689 1.02411 0.0
H1514 H 0.51956 0.42003 0.93373 0.0
C1515 C 0.56823 0.45983 0.82009 0.0
C1516 C 0.58209 0.48238 0.91725 0.0
C1517 C 0.57656 0.46725 0.78517 0.0
C1518 C 0.5502 0.44494 1.06289 0.0
C1519 C 0.55817 0.4528 1.02797 0.0
C1520 C 0.53707 0.43766 0.93046 0.0
C1521 C 0.57797 0.47678 0.84886 0.0
C1522 C 0.56849 0.46827 0.88742 0.0
C1523 C 0.54167 0.44274 0.99886 0.0
C1524 C 0.55078 0.45166 0.9603 0.0
H1525 H 0.61954 0.52887 0.79954 0.0
H1526 H 0.60535 0.51634 0.8594 0.0
H1527 H 0.53355 0.43365 0.87488 0.0
H1528 H 0.48878 0.40204 1.04756 0.0
H1529 H 0.50226 0.4154 0.98772 0.0
C1530 C 0.09138 0.49597 0.38125 0.0
C1531 C 0.10507 0.51327 0.40843 0.0
C1532 C 0.09286 0.5038 0.34581 0.0
C1533 C 0.13294 0.55853 0.28213 0.0
H1534 H 0.07496 0.52528 0.22112 0.0
C1535 C 0.14032 0.58321 0.12972 0.0
C1536 C 0.11934 0.58194 0.11184 0.0
C1537 C 0.13878 0.57507 0.16498 0.0
C1538 C 0.09157 0.5351 0.23738 0.0
H1539 H 0.13127 0.55316 0.41695 0.0
H1540 H 0.13447 0.56636 0.35654 0.0
H1541 H 0.07197 0.51113 0.28111 0.0
H1542 H 0.07981 0.57004 0.11979 0.0
H1543 H 0.07703 0.55567 0.17958 0.0
H1544 H 0.15263 0.58232 0.23836 0.0
C1545 C 0.12234 0.5465 0.3623 0.0
C1546 C 0.08987 0.52666 0.27247 0.0
C1547 C 0.12044 0.53879 0.3977 0.0
C1548 C 0.09669 0.57171 0.13157 0.0
C1549 C 0.09503 0.56315 0.16652 0.0
C1550 C 0.13479 0.56665 0.24686 0.0
C1551 C 0.10852 0.52937 0.335 0.0
C1552 C 0.11045 0.53817 0.29625 0.0
C1553 C 0.11602 0.56458 0.18465 0.0
C1554 C 0.11413 0.55536 0.22319 0.0
H1555 H 0.07897 0.47621 0.38741 0.0
H1556 H 0.08174 0.48947 0.32666 0.0
H1557 H 0.1496 0.56826 0.29832 0.0
H1558 H 0.15825 0.59071 0.11645 0.0
H1559 H 0.15564 0.57666 0.17666 0.0
loop_
_geom_bond_atom_site_label_1
_geom_bond_atom_site_label_2
_geom_bond_distance
_geom_bond_site_symmetry_2
_ccdc_geom_bond_type
Tb0 C2 2.809 . S
Tb0 O20 2.484 . S
Tb0 O21 2.440 . S
Tb0 O22 2.658 . S
Tb0 O23 2.409 . S
Tb0 O24 2.378 . S
Tb0 O28 2.325 . S
Tb0 O31 2.341 . S
Tb1 C11 2.809 . S
Tb1 O22 2.325 . S
Tb1 O25 2.341 . S
Tb1 O26 2.484 . S
Tb1 O27 2.440 . S
Tb1 O28 2.658 . S
Tb1 O29 2.409 . S
Tb1 O30 2.378 . S
C2 Tb0 2.809 . S
C2 C3 1.514 . S
C2 O20 1.248 . S
C2 O21 1.266 . S
C3 C2 1.514 . S
C3 C4 1.359 . S
C3 C8 1.348 . S
C4 C3 1.359 . S
C4 C5 1.380 . S
C4 H32 0.929 . S
C5 C4 1.380 . S
C5 C6 1.347 . S
C5 H33 0.931 . S
C6 C5 1.347 . S
C6 C7 1.369 . S
C7 C6 1.369 . S
C7 C8 1.408 . S
C7 H34 0.930 . S
C8 C3 1.348 . S
C8 C7 1.408 . S
C8 H35 0.930 . S
C9 O22 1.281 . S
C9 O23 1.254 . S
C10 O24 1.236 . S
C10 O25 1.266 . S
C11 Tb1 2.809 . S
C11 C12 1.514 . S
C11 O26 1.248 . S
C11 O27 1.266 . S
C12 C11 1.514 . S
C12 C13 1.359 . S
C12 C17 1.348 . S
C13 C12 1.359 . S
C13 C14 1.380 . S
C13 H36 0.929 . S
C14 C13 1.380 . S
C14 C15 1.347 . S
C14 H37 0.931 . S
C15 C14 1.347 . S
C15 C16 1.369 . S
C16 C15 1.369 . S
C16 C17 1.408 . S
C16 H38 0.930 . S
C17 C12 1.348 . S
C17 C16 1.408 . S
C17 H39 0.930 . S
C18 O28 1.281 . S
C18 O29 1.254 . S
C19 O30 1.236 . S
C19 O31 1.266 . S
O20 Tb0 2.484 . S
O20 C2 1.248 . S
O21 Tb0 2.440 . S
O21 C2 1.266 . S
O22 Tb0 2.658 . S
O22 Tb1 2.325 . S
O22 C9 1.281 . S
O23 Tb0 2.409 . S
O23 C9 1.254 . S
O24 Tb0 2.378 . S
O24 C10 1.236 . S
O25 Tb1 2.341 . S
O25 C10 1.266 . S
O26 Tb1 2.484 . S
O26 C11 1.248 . S
O27 Tb1 2.440 . S
O27 C11 1.266 . S
O28 Tb0 2.325 . S
O28 Tb1 2.658 . S
O28 C18 1.281 . S
O29 Tb1 2.409 . S
O29 C18 1.254 . S
O30 Tb1 2.378 . S
O30 C19 1.236 . S
O31 Tb0 2.341 . S
O31 C19 1.266 . S
H32 C4 0.929 . S
H33 C5 0.931 . S
H34 C7 0.930 . S
H35 C8 0.930 . S
H36 C13 0.929 . S
H37 C14 0.931 . S
H38 C16 0.930 . S
H39 C17 0.930 . S
Tb40 C42 2.809 . S
Tb40 O60 2.484 . S
Tb40 O61 2.440 . S
Tb40 O62 2.658 . S
Tb40 O63 2.409 . S
Tb40 O64 2.378 . S
Tb40 O68 2.325 . S
Tb40 O71 2.341 . S
Tb41 C51 2.809 . S
Tb41 O62 2.325 . S
Tb41 O65 2.341 . S
Tb41 O66 2.484 . S
Tb41 O67 2.440 . S
Tb41 O68 2.658 . S
Tb41 O69 2.409 . S
Tb41 O70 2.378 . S
C42 Tb40 2.809 . S
C42 C43 1.514 . S
C42 O60 1.248 . S
C42 O61 1.266 . S
C43 C42 1.514 . S
C43 C44 1.359 . S
C43 C48 1.348 . S
C44 C43 1.359 . S
C44 C45 1.380 . S
C44 H72 0.929 . S
C45 C44 1.380 . S
C45 C46 1.347 . S
C45 H73 0.931 . S
C46 C45 1.347 . S
C46 C47 1.369 . S
C47 C46 1.369 . S
C47 C48 1.408 . S
C47 H74 0.930 . S
C48 C43 1.348 . S
C48 C47 1.408 . S
C48 H75 0.930 . S
C49 O62 1.281 . S
C49 O63 1.254 . S
C50 O64 1.236 . S
C50 O65 1.266 . S
C51 Tb41 2.809 . S
C51 C52 1.514 . S
C51 O66 1.248 . S
C51 O67 1.266 . S
C52 C51 1.514 . S
C52 C53 1.359 . S
C52 C57 1.348 . S
C53 C52 1.359 . S
C53 C54 1.380 . S
C53 H76 0.929 . S
C54 C53 1.380 . S
C54 C55 1.347 . S
C54 H77 0.931 . S
C55 C54 1.347 . S
C55 C56 1.369 . S
C56 C55 1.369 . S
C56 C57 1.408 . S
C56 H78 0.930 . S
C57 C52 1.348 . S
C57 C56 1.408 . S
C57 H79 0.930 . S
C58 O68 1.281 . S
C58 O69 1.254 . S
C59 O70 1.236 . S
C59 O71 1.266 . S
O60 Tb40 2.484 . S
O60 C42 1.248 . S
O61 Tb40 2.440 . S
O61 C42 1.266 . S
O62 Tb40 2.658 . S
O62 Tb41 2.325 . S
O62 C49 1.281 . S
O63 Tb40 2.409 . S
O63 C49 1.254 . S
O64 Tb40 2.378 . S
O64 C50 1.236 . S
O65 Tb41 2.341 . S
O65 C50 1.266 . S
O66 Tb41 2.484 . S
O66 C51 1.248 . S
O67 Tb41 2.440 . S
O67 C51 1.266 . S
O68 Tb40 2.325 . S
O68 Tb41 2.658 . S
O68 C58 1.281 . S
O69 Tb41 2.409 . S
O69 C58 1.254 . S
O70 Tb41 2.378 . S
O70 C59 1.236 . S
O71 Tb40 2.341 . S
O71 C59 1.266 . S
H72 C44 0.929 . S
H73 C45 0.931 . S
H74 C47 0.930 . S
H75 C48 0.930 . S
H76 C53 0.929 . S
H77 C54 0.931 . S
H78 C56 0.930 . S
H79 C57 0.930 . S
Tb80 C82 2.809 . S
Tb80 O100 2.484 . S
Tb80 O101 2.440 . S
Tb80 O102 2.658 . S
Tb80 O103 2.409 . S
Tb80 O104 2.378 . S
Tb80 O108 2.325 . S
Tb80 O111 2.341 . S
Tb81 C91 2.809 . S
Tb81 O102 2.325 . S
Tb81 O105 2.341 . S
Tb81 O106 2.484 . S
Tb81 O107 2.440 . S
Tb81 O108 2.658 . S
Tb81 O109 2.409 . S
Tb81 O110 2.378 . S
C82 Tb80 2.809 . S
C82 C83 1.514 1_556 S
C82 O100 1.248 . S
C82 O101 1.266 . S
C83 C82 1.514 1_554 S
C83 C84 1.359 . S
C83 C88 1.348 . S
C84 C83 1.359 . S
C84 C85 1.380 . S
C84 H112 0.929 . S
C85 C84 1.380 . S
C85 C86 1.347 . S
C85 H113 0.931 . S
C86 C85 1.347 . S
C86 C87 1.369 . S
C87 C86 1.369 . S
C87 C88 1.408 . S
C87 H114 0.930 . S
C88 C83 1.348 . S
C88 C87 1.408 . S
C88 H115 0.930 . S
C89 O102 1.281 . S
C89 O103 1.254 . S
C90 O104 1.236 . S
C90 O105 1.266 . S
C91 Tb81 2.809 . S
C91 C92 1.514 . S
C91 O106 1.248 . S
C91 O107 1.266 . S
C92 C91 1.514 . S
C92 C93 1.359 . S
C92 C97 1.348 . S
C93 C92 1.359 . S
C93 C94 1.380 . S
C93 H116 0.929 . S
C94 C93 1.380 . S
C94 C95 1.347 . S
C94 H117 0.931 . S
C95 C94 1.347 . S
C95 C96 1.369 . S
C96 C95 1.369 . S
C96 C97 1.408 . S
C96 H118 0.930 . S
C97 C92 1.348 . S
C97 C96 1.408 . S
C97 H119 0.930 . S
C98 O108 1.281 . S
C98 O109 1.254 . S
C99 O110 1.236 . S
C99 O111 1.266 . S
O100 Tb80 2.484 . S
O100 C82 1.248 . S
O101 Tb80 2.440 . S
O101 C82 1.266 . S
O102 Tb80 2.658 . S
O102 Tb81 2.325 . S
O102 C89 1.281 . S
O103 Tb80 2.409 . S
O103 C89 1.254 . S
O104 Tb80 2.378 . S
O104 C90 1.236 . S
O105 Tb81 2.341 . S
O105 C90 1.266 . S
O106 Tb81 2.484 . S
O106 C91 1.248 . S
O107 Tb81 2.440 . S
O107 C91 1.266 . S
O108 Tb80 2.325 . S
O108 Tb81 2.658 . S
O108 C98 1.281 . S
O109 Tb81 2.409 . S
O109 C98 1.254 . S
O110 Tb81 2.378 . S
O110 C99 1.236 . S
O111 Tb80 2.341 . S
O111 C99 1.266 . S
H112 C84 0.929 . S
H113 C85 0.931 . S
H114 C87 0.930 . S
H115 C88 0.930 . S
H116 C93 0.929 . S
H117 C94 0.931 . S
H118 C96 0.930 . S
H119 C97 0.930 . S
Tb120 C122 2.809 . S
Tb120 O140 2.484 . S
Tb120 O141 2.440 . S
Tb120 O142 2.658 . S
Tb120 O143 2.409 . S
Tb120 O144 2.378 . S
Tb120 O148 2.325 . S
Tb120 O151 2.341 . S
Tb121 C131 2.809 . S
Tb121 O142 2.325 . S
Tb121 O145 2.341 . S
Tb121 O146 2.484 . S
Tb121 O147 2.440 . S
Tb121 O148 2.658 . S
Tb121 O149 2.409 . S
Tb121 O150 2.378 . S
C122 Tb120 2.809 . S
C122 C123 1.514 . S
C122 O140 1.248 . S
C122 O141 1.266 . S
C123 C122 1.514 . S
C123 C124 1.359 . S
C123 C128 1.348 . S
C124 C123 1.359 . S
C124 C125 1.380 . S
C124 H152 0.929 . S
C125 C124 1.380 . S
C125 C126 1.347 . S
C125 H153 0.931 . S
C126 C125 1.347 . S
C126 C127 1.369 . S
C127 C126 1.369 . S
C127 C128 1.408 . S
C127 H154 0.930 . S
C128 C123 1.348 . S
C128 C127 1.408 . S
C128 H155 0.930 . S
C129 O142 1.281 . S
C129 O143 1.254 . S
C130 O144 1.236 . S
C130 O145 1.266 . S
C131 Tb121 2.809 . S
C131 C132 1.514 . S
C131 O146 1.248 . S
C131 O147 1.266 . S
C132 C131 1.514 . S
C132 C133 1.359 . S
C132 C137 1.348 . S
C133 C132 1.359 . S
C133 C134 1.380 . S
C133 H156 0.929 . S
C134 C133 1.380 . S
C134 C135 1.347 . S
C134 H157 0.931 . S
C135 C134 1.347 . S
C135 C136 1.369 . S
C136 C135 1.369 . S
C136 C137 1.408 . S
C136 H158 0.930 . S
C137 C132 1.348 . S
C137 C136 1.408 . S
C137 H159 0.930 . S
C138 O148 1.281 . S
C138 O149 1.254 . S
C139 O150 1.236 . S
C139 O151 1.266 . S
O140 Tb120 2.484 . S
O140 C122 1.248 . S
O141 Tb120 2.440 . S
O141 C122 1.266 . S
O142 Tb120 2.658 . S
O142 Tb121 2.325 . S
O142 C129 1.281 . S
O143 Tb120 2.409 . S
O143 C129 1.254 . S
O144 Tb120 2.378 . S
O144 C130 1.236 . S
O145 Tb121 2.341 . S
O145 C130 1.266 . S
O146 Tb121 2.484 . S
O146 C131 1.248 . S
O147 Tb121 2.440 . S
O147 C131 1.266 . S
O148 Tb120 2.325 . S
O148 Tb121 2.658 . S
O148 C138 1.281 . S
O149 Tb121 2.409 . S
O149 C138 1.254 . S
O150 Tb121 2.378 . S
O150 C139 1.236 . S
O151 Tb120 2.341 . S
O151 C139 1.266 . S
H152 C124 0.929 . S
H153 C125 0.931 . S
H154 C127 0.930 . S
H155 C128 0.930 . S
H156 C133 0.929 . S
H157 C134 0.931 . S
H158 C136 0.930 . S
H159 C137 0.930 . S
Tb160 C162 2.809 . S
Tb160 O180 2.484 . S
Tb160 O181 2.440 . S
Tb160 O182 2.658 . S
Tb160 O183 2.409 . S
Tb160 O184 2.378 . S
Tb160 O188 2.325 . S
Tb160 O191 2.341 . S
Tb161 C171 2.809 . S
Tb161 O182 2.325 . S
Tb161 O185 2.341 . S
Tb161 O186 2.484 . S
Tb161 O187 2.440 . S
Tb161 O188 2.658 . S
Tb161 O189 2.409 . S
Tb161 O190 2.378 . S
C162 Tb160 2.809 . S
C162 C163 1.514 . S
C162 O180 1.248 . S
C162 O181 1.266 . S
C163 C162 1.514 . S
C163 C164 1.359 . S
C163 C168 1.348 . S
C164 C163 1.359 . S
C164 C165 1.380 . S
C164 H192 0.929 . S
C165 C164 1.380 . S
C165 C166 1.347 . S
C165 H193 0.931 . S
C166 C165 1.347 . S
C166 C167 1.369 . S
C167 C166 1.369 . S
C167 C168 1.408 . S
C167 H194 0.930 . S
C168 C163 1.348 . S
C168 C167 1.408 . S
C168 H195 0.930 . S
C169 O182 1.281 . S
C169 O183 1.254 . S
C170 O184 1.236 . S
C170 O185 1.266 . S
C171 Tb161 2.809 . S
C171 C172 1.514 . S
C171 O186 1.248 . S
C171 O187 1.266 . S
C172 C171 1.514 . S
C172 C173 1.359 . S
C172 C177 1.348 . S
C173 C172 1.359 . S
C173 C174 1.380 . S
C173 H196 0.929 . S
C174 C173 1.380 . S
C174 C175 1.347 . S
C174 H197 0.931 . S
C175 C174 1.347 . S
C175 C176 1.369 . S
C176 C175 1.369 . S
C176 C177 1.408 . S
C176 H198 0.930 . S
C177 C172 1.348 . S
C177 C176 1.408 . S
C177 H199 0.930 . S
C178 O188 1.281 . S
C178 O189 1.254 . S
C179 O190 1.236 . S
C179 O191 1.266 . S
O180 Tb160 2.484 . S
O180 C162 1.248 . S
O181 Tb160 2.440 . S
O181 C162 1.266 . S
O182 Tb160 2.658 . S
O182 Tb161 2.325 . S
O182 C169 1.281 . S
O183 Tb160 2.409 . S
O183 C169 1.254 . S
O184 Tb160 2.378 . S
O184 C170 1.236 . S
O185 Tb161 2.341 . S
O185 C170 1.266 . S
O186 Tb161 2.484 . S
O186 C171 1.248 . S
O187 Tb161 2.440 . S
O187 C171 1.266 . S
O188 Tb160 2.325 . S
O188 Tb161 2.658 . S
O188 C178 1.281 . S
O189 Tb161 2.409 . S
O189 C178 1.254 . S
O190 Tb161 2.378 . S
O190 C179 1.236 . S
O191 Tb160 2.341 . S
O191 C179 1.266 . S
H192 C164 0.929 . S
H193 C165 0.931 . S
H194 C167 0.930 . S
H195 C168 0.930 . S
H196 C173 0.929 . S
H197 C174 0.931 . S
H198 C176 0.930 . S
H199 C177 0.930 . S
Tb200 C202 2.809 . S
Tb200 O220 2.484 . S
Tb200 O221 2.440 . S
Tb200 O222 2.658 . S
Tb200 O223 2.409 . S
Tb200 O224 2.378 . S
Tb200 O228 2.325 . S
Tb200 O231 2.341 . S
Tb201 C211 2.809 . S
Tb201 O222 2.325 . S
Tb201 O225 2.341 . S
Tb201 O226 2.484 . S
Tb201 O227 2.440 . S
Tb201 O228 2.658 . S
Tb201 O229 2.409 . S
Tb201 O230 2.378 . S
C202 Tb200 2.809 . S
C202 C203 1.514 1_556 S
C202 O220 1.248 . S
C202 O221 1.266 . S
C203 C202 1.514 1_554 S
C203 C204 1.359 . S
C203 C208 1.348 . S
C204 C203 1.359 . S
C204 C205 1.380 . S
C204 H232 0.929 . S
C205 C204 1.380 . S
C205 C206 1.347 . S
C205 H233 0.931 . S
C206 C205 1.347 . S
C206 C207 1.369 . S
C207 C206 1.369 . S
C207 C208 1.408 . S
C207 H234 0.930 . S
C208 C203 1.348 . S
C208 C207 1.408 . S
C208 H235 0.930 . S
C209 O222 1.281 . S
C209 O223 1.254 . S
C210 O224 1.236 . S
C210 O225 1.266 . S
C211 Tb201 2.809 . S
C211 C212 1.514 . S
C211 O226 1.248 . S
C211 O227 1.266 . S
C212 C211 1.514 . S
C212 C213 1.359 . S
C212 C217 1.348 . S
C213 C212 1.359 . S
C213 C214 1.380 . S
C213 H236 0.929 . S
C214 C213 1.380 . S
C214 C215 1.347 . S
C214 H237 0.931 . S
C215 C214 1.347 . S
C215 C216 1.369 . S
C216 C215 1.369 . S
C216 C217 1.408 . S
C216 H238 0.930 . S
C217 C212 1.348 . S
C217 C216 1.408 . S
C217 H239 0.930 . S
C218 O228 1.281 . S
C218 O229 1.254 . S
C219 O230 1.236 . S
C219 O231 1.266 . S
O220 Tb200 2.484 . S
O220 C202 1.248 . S
O221 Tb200 2.440 . S
O221 C202 1.266 . S
O222 Tb200 2.658 . S
O222 Tb201 2.325 . S
O222 C209 1.281 . S
O223 Tb200 2.409 . S
O223 C209 1.254 . S
O224 Tb200 2.378 . S
O224 C210 1.236 . S
O225 Tb201 2.341 . S
O225 C210 1.266 . S
O226 Tb201 2.484 . S
O226 C211 1.248 . S
O227 Tb201 2.440 . S
O227 C211 1.266 . S
O228 Tb200 2.325 . S
O228 Tb201 2.658 . S
O228 C218 1.281 . S
O229 Tb201 2.409 . S
O229 C218 1.254 . S
O230 Tb201 2.378 . S
O230 C219 1.236 . S
O231 Tb200 2.341 . S
O231 C219 1.266 . S
H232 C204 0.929 . S
H233 C205 0.931 . S
H234 C207 0.930 . S
H235 C208 0.930 . S
H236 C213 0.929 . S
H237 C214 0.931 . S
H238 C216 0.930 . S
H239 C217 0.930 . S
Tb240 C242 2.809 . S
Tb240 O260 2.484 . S
Tb240 O261 2.440 . S
Tb240 O262 2.658 . S
Tb240 O263 2.409 . S
Tb240 O264 2.378 . S
Tb240 O268 2.325 . S
Tb240 O271 2.341 . S
Tb241 C251 2.809 . S
Tb241 O262 2.325 . S
Tb241 O265 2.341 . S
Tb241 O266 2.484 . S
Tb241 O267 2.440 . S
Tb241 O268 2.658 . S
Tb241 O269 2.409 . S
Tb241 O270 2.378 . S
C242 Tb240 2.809 . S
C242 C243 1.514 . S
C242 O260 1.248 . S
C242 O261 1.266 . S
C243 C242 1.514 . S
C243 C244 1.359 . S
C243 C248 1.348 . S
C244 C243 1.359 . S
C244 C245 1.380 . S
C244 H272 0.929 . S
C245 C244 1.380 . S
C245 C246 1.347 . S
C245 H273 0.931 . S
C246 C245 1.347 . S
C246 C247 1.369 . S
C247 C246 1.369 . S
C247 C248 1.408 . S
C247 H274 0.930 . S
C248 C243 1.348 . S
C248 C247 1.408 . S
C248 H275 0.930 . S
C249 O262 1.281 . S
C249 O263 1.254 . S
C250 O264 1.236 . S
C250 O265 1.266 . S
C251 Tb241 2.809 . S
C251 C252 1.514 . S
C251 O266 1.248 . S
C251 O267 1.266 . S
C252 C251 1.514 . S
C252 C253 1.359 . S
C252 C257 1.348 . S
C253 C252 1.359 . S
C253 C254 1.380 . S
C253 H276 0.929 . S
C254 C253 1.380 . S
C254 C255 1.347 . S
C254 H277 0.931 . S
C255 C254 1.347 . S
C255 C256 1.369 . S
C256 C255 1.369 . S
C256 C257 1.408 . S
C256 H278 0.930 . S
C257 C252 1.348 . S
C257 C256 1.408 . S
C257 H279 0.930 . S
C258 O268 1.281 . S
C258 O269 1.254 . S
C259 O270 1.236 . S
C259 O271 1.266 . S
O260 Tb240 2.484 . S
O260 C242 1.248 . S
O261 Tb240 2.440 . S
O261 C242 1.266 . S
O262 Tb240 2.658 . S
O262 Tb241 2.325 . S
O262 C249 1.281 . S
O263 Tb240 2.409 . S
O263 C249 1.254 . S
O264 Tb240 2.378 . S
O264 C250 1.236 . S
O265 Tb241 2.341 . S
O265 C250 1.266 . S
O266 Tb241 2.484 . S
O266 C251 1.248 . S
O267 Tb241 2.440 . S
O267 C251 1.266 . S
O268 Tb240 2.325 . S
O268 Tb241 2.658 . S
O268 C258 1.281 . S
O269 Tb241 2.409 . S
O269 C258 1.254 . S
O270 Tb241 2.378 . S
O270 C259 1.236 . S
O271 Tb240 2.341 . S
O271 C259 1.266 . S
H272 C244 0.929 . S
H273 C245 0.931 . S
H274 C247 0.930 . S
H275 C248 0.930 . S
H276 C253 0.929 . S
H277 C254 0.931 . S
H278 C256 0.930 . S
H279 C257 0.930 . S
Tb280 C282 2.809 . S
Tb280 O300 2.484 . S
Tb280 O301 2.440 . S
Tb280 O302 2.658 . S
Tb280 O303 2.409 . S
Tb280 O304 2.378 . S
Tb280 O308 2.325 . S
Tb280 O311 2.341 . S
Tb281 C291 2.809 . S
Tb281 O302 2.325 . S
Tb281 O305 2.341 . S
Tb281 O306 2.484 . S
Tb281 O307 2.440 . S
Tb281 O308 2.658 . S
Tb281 O309 2.409 . S
Tb281 O310 2.378 . S
C282 Tb280 2.809 . S
C282 C283 1.514 . S
C282 O300 1.248 . S
C282 O301 1.266 . S
C283 C282 1.514 . S
C283 C284 1.359 . S
C283 C288 1.348 . S
C284 C283 1.359 . S
C284 C285 1.380 . S
C284 H312 0.929 . S
C285 C284 1.380 . S
C285 C286 1.347 . S
C285 H313 0.931 . S
C286 C285 1.347 . S
C286 C287 1.369 . S
C287 C286 1.369 . S
C287 C288 1.408 . S
C287 H314 0.930 . S
C288 C283 1.348 . S
C288 C287 1.408 . S
C288 H315 0.930 . S
C289 O302 1.281 . S
C289 O303 1.254 . S
C290 O304 1.236 . S
C290 O305 1.266 . S
C291 Tb281 2.809 . S
C291 C292 1.514 . S
C291 O306 1.248 . S
C291 O307 1.266 . S
C292 C291 1.514 . S
C292 C293 1.359 . S
C292 C297 1.348 . S
C293 C292 1.359 . S
C293 C294 1.380 . S
C293 H316 0.929 . S
C294 C293 1.380 . S
C294 C295 1.347 . S
C294 H317 0.931 . S
C295 C294 1.347 . S
C295 C296 1.369 . S
C296 C295 1.369 . S
C296 C297 1.408 . S
C296 H318 0.930 . S
C297 C292 1.348 . S
C297 C296 1.408 . S
C297 H319 0.930 . S
C298 O308 1.281 . S
C298 O309 1.254 . S
C299 O310 1.236 . S
C299 O311 1.266 . S
O300 Tb280 2.484 . S
O300 C282 1.248 . S
O301 Tb280 2.440 . S
O301 C282 1.266 . S
O302 Tb280 2.658 . S
O302 Tb281 2.325 . S
O302 C289 1.281 . S
O303 Tb280 2.409 . S
O303 C289 1.254 . S
O304 Tb280 2.378 . S
O304 C290 1.236 . S
O305 Tb281 2.341 . S
O305 C290 1.266 . S
O306 Tb281 2.484 . S
O306 C291 1.248 . S
O307 Tb281 2.440 . S
O307 C291 1.266 . S
O308 Tb280 2.325 . S
O308 Tb281 2.658 . S
O308 C298 1.281 . S
O309 Tb281 2.409 . S
O309 C298 1.254 . S
O310 Tb281 2.378 . S
O310 C299 1.236 . S
O311 Tb280 2.341 . S
O311 C299 1.266 . S
H312 C284 0.929 . S
H313 C285 0.931 . S
H314 C287 0.930 . S
H315 C288 0.930 . S
H316 C293 0.929 . S
H317 C294 0.931 . S
H318 C296 0.930 . S
H319 C297 0.930 . S
Tb320 C322 2.809 . S
Tb320 O340 2.484 . S
Tb320 O341 2.440 . S
Tb320 O342 2.658 . S
Tb320 O343 2.409 . S
Tb320 O344 2.378 . S
Tb320 O348 2.325 . S
Tb320 O351 2.341 . S
Tb321 C331 2.809 . S
Tb321 O342 2.325 . S
Tb321 O345 2.341 . S
Tb321 O346 2.484 . S
Tb321 O347 2.440 . S
Tb321 O348 2.658 . S
Tb321 O349 2.409 . S
Tb321 O350 2.378 . S
C322 Tb320 2.809 . S
C322 C323 1.514 1_554 S
C322 O340 1.248 . S
C322 O341 1.266 . S
C323 C322 1.514 1_556 S
C323 C324 1.359 . S
C323 C328 1.348 . S
C324 C323 1.359 . S
C324 C325 1.380 . S
C324 H352 0.929 . S
C325 C324 1.380 . S
C325 C326 1.347 . S
C325 H353 0.931 . S
C326 C325 1.347 . S
C326 C327 1.369 . S
C327 C326 1.369 . S
C327 C328 1.408 . S
C327 H354 0.930 . S
C328 C323 1.348 . S
C328 C327 1.408 . S
C328 H355 0.930 . S
C329 O342 1.281 . S
C329 O343 1.254 . S
C330 O344 1.236 . S
C330 O345 1.266 . S
C331 Tb321 2.809 . S
C331 C332 1.514 . S
C331 O346 1.248 . S
C331 O347 1.266 . S
C332 C331 1.514 . S
C332 C333 1.359 . S
C332 C337 1.348 . S
C333 C332 1.359 . S
C333 C334 1.380 . S
C333 H356 0.929 . S
C334 C333 1.380 . S
C334 C335 1.347 . S
C334 H357 0.931 . S
C335 C334 1.347 . S
C335 C336 1.369 . S
C336 C335 1.369 . S
C336 C337 1.408 . S
C336 H358 0.930 . S
C337 C332 1.348 . S
C337 C336 1.408 . S
C337 H359 0.930 . S
C338 O348 1.281 . S
C338 O349 1.254 . S
C339 O350 1.236 . S
C339 O351 1.266 . S
O340 Tb320 2.484 . S
O340 C322 1.248 . S
O341 Tb320 2.440 . S
O341 C322 1.266 . S
O342 Tb320 2.658 . S
O342 Tb321 2.325 . S
O342 C329 1.281 . S
O343 Tb320 2.409 . S
O343 C329 1.254 . S
O344 Tb320 2.378 . S
O344 C330 1.236 . S
O345 Tb321 2.341 . S
O345 C330 1.266 . S
O346 Tb321 2.484 . S
O346 C331 1.248 . S
O347 Tb321 2.440 . S
O347 C331 1.266 . S
O348 Tb320 2.325 . S
O348 Tb321 2.658 . S
O348 C338 1.281 . S
O349 Tb321 2.409 . S
O349 C338 1.254 . S
O350 Tb321 2.378 . S
O350 C339 1.236 . S
O351 Tb320 2.341 . S
O351 C339 1.266 . S
H352 C324 0.929 . S
H353 C325 0.931 . S
H354 C327 0.930 . S
H355 C328 0.930 . S
H356 C333 0.929 . S
H357 C334 0.931 . S
H358 C336 0.930 . S
H359 C337 0.930 . S
Tb360 C362 2.809 . S
Tb360 O380 2.484 . S
Tb360 O381 2.440 . S
Tb360 O382 2.658 . S
Tb360 O383 2.409 . S
Tb360 O384 2.378 . S
Tb360 O388 2.325 . S
Tb360 O391 2.341 . S
Tb361 C371 2.809 . S
Tb361 O382 2.325 . S
Tb361 O385 2.341 . S
Tb361 O386 2.484 . S
Tb361 O387 2.440 . S
Tb361 O388 2.658 . S
Tb361 O389 2.409 . S
Tb361 O390 2.378 . S
C362 Tb360 2.809 . S
C362 C363 1.514 . S
C362 O380 1.248 . S
C362 O381 1.266 . S
C363 C362 1.514 . S
C363 C364 1.359 . S
C363 C368 1.348 . S
C364 C363 1.359 . S
C364 C365 1.380 . S
C364 H392 0.929 . S
C365 C364 1.380 . S
C365 C366 1.347 . S
C365 H393 0.931 . S
C366 C365 1.347 . S
C366 C367 1.369 . S
C367 C366 1.369 . S
C367 C368 1.408 . S
C367 H394 0.930 . S
C368 C363 1.348 . S
C368 C367 1.408 . S
C368 H395 0.930 . S
C369 O382 1.281 . S
C369 O383 1.254 . S
C370 O384 1.236 . S
C370 O385 1.266 . S
C371 Tb361 2.809 . S
C371 C372 1.514 . S
C371 O386 1.248 . S
C371 O387 1.266 . S
C372 C371 1.514 . S
C372 C373 1.359 . S
C372 C377 1.348 . S
C373 C372 1.359 . S
C373 C374 1.380 . S
C373 H396 0.929 . S
C374 C373 1.380 . S
C374 C375 1.347 . S
C374 H397 0.931 . S
C375 C374 1.347 . S
C375 C376 1.369 . S
C376 C375 1.369 . S
C376 C377 1.408 . S
C376 H398 0.930 . S
C377 C372 1.348 . S
C377 C376 1.408 . S
C377 H399 0.930 . S
C378 O388 1.281 . S
C378 O389 1.254 . S
C379 O390 1.236 . S
C379 O391 1.266 . S
O380 Tb360 2.484 . S
O380 C362 1.248 . S
O381 Tb360 2.440 . S
O381 C362 1.266 . S
O382 Tb360 2.658 . S
O382 Tb361 2.325 . S
O382 C369 1.281 . S
O383 Tb360 2.409 . S
O383 C369 1.254 . S
O384 Tb360 2.378 . S
O384 C370 1.236 . S
O385 Tb361 2.341 . S
O385 C370 1.266 . S
O386 Tb361 2.484 . S
O386 C371 1.248 . S
O387 Tb361 2.440 . S
O387 C371 1.266 . S
O388 Tb360 2.325 . S
O388 Tb361 2.658 . S
O388 C378 1.281 . S
O389 Tb361 2.409 . S
O389 C378 1.254 . S
O390 Tb361 2.378 . S
O390 C379 1.236 . S
O391 Tb360 2.341 . S
O391 C379 1.266 . S
H392 C364 0.929 . S
H393 C365 0.931 . S
H394 C367 0.930 . S
H395 C368 0.930 . S
H396 C373 0.929 . S
H397 C374 0.931 . S
H398 C376 0.930 . S
H399 C377 0.930 . S
Tb400 C402 2.809 . S
Tb400 O420 2.484 . S
Tb400 O421 2.440 . S
Tb400 O422 2.658 . S
Tb400 O423 2.409 . S
Tb400 O424 2.378 . S
Tb400 O428 2.325 . S
Tb400 O431 2.341 . S
Tb401 C411 2.809 . S
Tb401 O422 2.325 . S
Tb401 O425 2.341 . S
Tb401 O426 2.484 . S
Tb401 O427 2.440 . S
Tb401 O428 2.658 . S
Tb401 O429 2.409 . S
Tb401 O430 2.378 . S
C402 Tb400 2.809 . S
C402 C403 1.514 . S
C402 O420 1.248 . S
C402 O421 1.266 . S
C403 C402 1.514 . S
C403 C404 1.359 . S
C403 C408 1.348 . S
C404 C403 1.359 . S
C404 C405 1.380 . S
C404 H432 0.929 . S
C405 C404 1.380 . S
C405 C406 1.347 . S
C405 H433 0.931 . S
C406 C405 1.347 . S
C406 C407 1.369 . S
C407 C406 1.369 . S
C407 C408 1.408 . S
C407 H434 0.930 . S
C408 C403 1.348 . S
C408 C407 1.408 . S
C408 H435 0.930 . S
C409 O422 1.281 . S
C409 O423 1.254 . S
C410 O424 1.236 . S
C410 O425 1.266 . S
C411 Tb401 2.809 . S
C411 C412 1.514 . S
C411 O426 1.248 . S
C411 O427 1.266 . S
C412 C411 1.514 . S
C412 C413 1.359 . S
C412 C417 1.348 . S
C413 C412 1.359 . S
C413 C414 1.380 . S
C413 H436 0.929 . S
C414 C413 1.380 . S
C414 C415 1.347 . S
C414 H437 0.931 . S
C415 C414 1.347 . S
C415 C416 1.369 . S
C416 C415 1.369 . S
C416 C417 1.408 . S
C416 H438 0.930 . S
C417 C412 1.348 . S
C417 C416 1.408 . S
C417 H439 0.930 . S
C418 O428 1.281 . S
C418 O429 1.254 . S
C419 O430 1.236 . S
C419 O431 1.266 . S
O420 Tb400 2.484 . S
O420 C402 1.248 . S
O421 Tb400 2.440 . S
O421 C402 1.266 . S
O422 Tb400 2.658 . S
O422 Tb401 2.325 . S
O422 C409 1.281 . S
O423 Tb400 2.409 . S
O423 C409 1.254 . S
O424 Tb400 2.378 . S
O424 C410 1.236 . S
O425 Tb401 2.341 . S
O425 C410 1.266 . S
O426 Tb401 2.484 . S
O426 C411 1.248 . S
O427 Tb401 2.440 . S
O427 C411 1.266 . S
O428 Tb400 2.325 . S
O428 Tb401 2.658 . S
O428 C418 1.281 . S
O429 Tb401 2.409 . S
O429 C418 1.254 . S
O430 Tb401 2.378 . S
O430 C419 1.236 . S
O431 Tb400 2.341 . S
O431 C419 1.266 . S
H432 C404 0.929 . S
H433 C405 0.931 . S
H434 C407 0.930 . S
H435 C408 0.930 . S
H436 C413 0.929 . S
H437 C414 0.931 . S
H438 C416 0.930 . S
H439 C417 0.930 . S
Tb440 C442 2.809 . S
Tb440 O460 2.484 . S
Tb440 O461 2.440 . S
Tb440 O462 2.658 . S
Tb440 O463 2.409 . S
Tb440 O464 2.378 . S
Tb440 O468 2.325 . S
Tb440 O471 2.341 . S
Tb441 C451 2.809 . S
Tb441 O462 2.325 . S
Tb441 O465 2.341 . S
Tb441 O466 2.484 . S
Tb441 O467 2.440 . S
Tb441 O468 2.658 . S
Tb441 O469 2.409 . S
Tb441 O470 2.378 . S
C442 Tb440 2.809 . S
C442 C443 1.514 1_554 S
C442 O460 1.248 . S
C442 O461 1.266 . S
C443 C442 1.514 1_556 S
C443 C444 1.359 . S
C443 C448 1.348 . S
C444 C443 1.359 . S
C444 C445 1.380 . S
C444 H472 0.929 . S
C445 C444 1.380 . S
C445 C446 1.347 . S
C445 H473 0.931 . S
C446 C445 1.347 . S
C446 C447 1.369 . S
C447 C446 1.369 . S
C447 C448 1.408 . S
C447 H474 0.930 . S
C448 C443 1.348 . S
C448 C447 1.408 . S
C448 H475 0.930 . S
C449 O462 1.281 . S
C449 O463 1.254 . S
C450 O464 1.236 . S
C450 O465 1.266 . S
C451 Tb441 2.809 . S
C451 C452 1.514 . S
C451 O466 1.248 . S
C451 O467 1.266 . S
C452 C451 1.514 . S
C452 C453 1.359 . S
C452 C457 1.348 . S
C453 C452 1.359 . S
C453 C454 1.380 . S
C453 H476 0.929 . S
C454 C453 1.380 . S
C454 C455 1.347 . S
C454 H477 0.931 . S
C455 C454 1.347 . S
C455 C456 1.369 . S
C456 C455 1.369 . S
C456 C457 1.408 . S
C456 H478 0.930 . S
C457 C452 1.348 . S
C457 C456 1.408 . S
C457 H479 0.930 . S
C458 O468 1.281 . S
C458 O469 1.254 . S
C459 O470 1.236 . S
C459 O471 1.266 . S
O460 Tb440 2.484 . S
O460 C442 1.248 . S
O461 Tb440 2.440 . S
O461 C442 1.266 . S
O462 Tb440 2.658 . S
O462 Tb441 2.325 . S
O462 C449 1.281 . S
O463 Tb440 2.409 . S
O463 C449 1.254 . S
O464 Tb440 2.378 . S
O464 C450 1.236 . S
O465 Tb441 2.341 . S
O465 C450 1.266 . S
O466 Tb441 2.484 . S
O466 C451 1.248 . S
O467 Tb441 2.440 . S
O467 C451 1.266 . S
O468 Tb440 2.325 . S
O468 Tb441 2.658 . S
O468 C458 1.281 . S
O469 Tb441 2.409 . S
O469 C458 1.254 . S
O470 Tb441 2.378 . S
O470 C459 1.236 . S
O471 Tb440 2.341 . S
O471 C459 1.266 . S
H472 C444 0.929 . S
H473 C445 0.931 . S
H474 C447 0.930 . S
H475 C448 0.930 . S
H476 C453 0.929 . S
H477 C454 0.931 . S
H478 C456 0.930 . S
H479 C457 0.930 . S
C480 C481 1.349 . S
C480 C482 1.327 . S
C480 H505 0.950 . S
C481 C480 1.349 . S
C481 C497 1.349 . S
C482 C480 1.327 . S
C482 C501 1.429 . S
C482 H506 0.950 . S
C483 C500 1.574 . S
C483 C502 1.368 . S
C483 H507 0.949 . S
H484 C488 0.949 . S
C485 C486 1.349 . S
C485 C487 1.327 . S
C485 H508 0.950 . S
C486 C485 1.349 . S
C486 C498 1.349 . S
C487 C485 1.327 . S
C487 C503 1.429 . S
C487 H509 0.950 . S
C488 H484 0.949 . S
C488 C496 1.574 . S
C488 C504 1.368 . S
H489 C497 0.950 . S
H490 C495 0.950 . S
H491 C496 0.949 . S
H492 C498 0.950 . S
H493 C499 0.950 . S
H494 C500 0.949 . S
C495 H490 0.950 . S
C495 C497 1.327 . S
C495 C501 1.429 . S
C496 C488 1.574 . S
C496 H491 0.949 . S
C496 C502 1.368 . S
C497 C481 1.349 . S
C497 H489 0.950 . S
C497 C495 1.327 . S
C498 C486 1.349 . S
C498 H492 0.950 . S
C498 C499 1.327 . S
C499 H493 0.950 . S
C499 C498 1.327 . S
C499 C503 1.429 . S
C500 C483 1.574 . S
C500 H494 0.949 . S
C500 C504 1.368 . S
C501 C482 1.429 . S
C501 C495 1.429 . S
C501 C502 1.523 . S
C502 C483 1.368 . S
C502 C496 1.368 . S
C502 C501 1.523 . S
C503 C487 1.429 . S
C503 C499 1.429 . S
C503 C504 1.523 . S
C504 C488 1.368 . S
C504 C500 1.368 . S
C504 C503 1.523 . S
H505 C480 0.950 . S
H506 C482 0.950 . S
H507 C483 0.949 . S
H508 C485 0.950 . S
H509 C487 0.950 . S
C510 C511 1.349 . S
C510 C512 1.327 . S
C510 H535 0.950 . S
C511 C510 1.349 . S
C511 C527 1.349 . S
C512 C510 1.327 . S
C512 C531 1.429 . S
C512 H536 0.950 . S
C513 C530 1.574 . S
C513 C532 1.368 . S
C513 H537 0.949 . S
H514 C518 0.949 . S
C515 C516 1.349 . S
C515 C517 1.327 . S
C515 H538 0.950 . S
C516 C515 1.349 . S
C516 C528 1.349 . S
C517 C515 1.327 . S
C517 C533 1.429 . S
C517 H539 0.950 . S
C518 H514 0.949 . S
C518 C526 1.574 . S
C518 C534 1.368 . S
H519 C527 0.950 . S
H520 C525 0.950 . S
H521 C526 0.949 . S
H522 C528 0.950 . S
H523 C529 0.950 . S
H524 C530 0.949 . S
C525 H520 0.950 . S
C525 C527 1.327 . S
C525 C531 1.429 . S
C526 C518 1.574 . S
C526 H521 0.949 . S
C526 C532 1.368 . S
C527 C511 1.349 . S
C527 H519 0.950 . S
C527 C525 1.327 . S
C528 C516 1.349 . S
C528 H522 0.950 . S
C528 C529 1.327 . S
C529 H523 0.950 . S
C529 C528 1.327 . S
C529 C533 1.429 . S
C530 C513 1.574 . S
C530 H524 0.949 . S
C530 C534 1.368 . S
C531 C512 1.429 . S
C531 C525 1.429 . S
C531 C532 1.523 . S
C532 C513 1.368 . S
C532 C526 1.368 . S
C532 C531 1.523 . S
C533 C517 1.429 . S
C533 C529 1.429 . S
C533 C534 1.523 . S
C534 C518 1.368 . S
C534 C530 1.368 . S
C534 C533 1.523 . S
H535 C510 0.950 . S
H536 C512 0.950 . S
H537 C513 0.949 . S
H538 C515 0.950 . S
H539 C517 0.950 . S
C540 C541 1.349 . S
C540 C542 1.327 . S
C540 H565 0.950 . S
C541 C540 1.349 . S
C541 C557 1.349 . S
C542 C540 1.327 . S
C542 C561 1.429 . S
C542 H566 0.950 . S
C543 C560 1.574 . S
C543 C562 1.368 . S
C543 H567 0.949 . S
H544 C548 0.949 . S
C545 C546 1.349 . S
C545 C547 1.327 . S
C545 H568 0.950 . S
C546 C545 1.349 . S
C546 C558 1.349 . S
C547 C545 1.327 . S
C547 C563 1.429 . S
C547 H569 0.950 . S
C548 H544 0.949 . S
C548 C556 1.574 . S
C548 C564 1.368 . S
H549 C557 0.950 . S
H550 C555 0.950 . S
H551 C556 0.949 . S
H552 C558 0.950 . S
H553 C559 0.950 . S
H554 C560 0.949 . S
C555 H550 0.950 . S
C555 C557 1.327 . S
C555 C561 1.429 . S
C556 C548 1.574 . S
C556 H551 0.949 . S
C556 C562 1.368 . S
C557 C541 1.349 . S
C557 H549 0.950 . S
C557 C555 1.327 . S
C558 C546 1.349 . S
C558 H552 0.950 . S
C558 C559 1.327 . S
C559 H553 0.950 . S
C559 C558 1.327 . S
C559 C563 1.429 . S
C560 C543 1.574 . S
C560 H554 0.949 . S
C560 C564 1.368 . S
C561 C542 1.429 . S
C561 C555 1.429 . S
C561 C562 1.523 . S
C562 C543 1.368 . S
C562 C556 1.368 . S
C562 C561 1.523 . S
C563 C547 1.429 . S
C563 C559 1.429 . S
C563 C564 1.523 . S
C564 C548 1.368 . S
C564 C560 1.368 . S
C564 C563 1.523 . S
H565 C540 0.950 . S
H566 C542 0.950 . S
H567 C543 0.949 . S
H568 C545 0.950 . S
H569 C547 0.950 . S
C570 C571 1.349 . S
C570 C572 1.327 . S
C570 H595 0.950 . S
C571 C570 1.349 . S
C571 C587 1.349 . S
C572 C570 1.327 . S
C572 C591 1.429 . S
C572 H596 0.950 . S
C573 C590 1.574 . S
C573 C592 1.368 . S
C573 H597 0.949 . S
H574 C578 0.949 . S
C575 C576 1.349 . S
C575 C577 1.327 . S
C575 H598 0.950 . S
C576 C575 1.349 . S
C576 C588 1.349 . S
C577 C575 1.327 . S
C577 C593 1.429 . S
C577 H599 0.950 . S
C578 H574 0.949 . S
C578 C586 1.574 . S
C578 C594 1.368 . S
H579 C587 0.950 . S
H580 C585 0.950 . S
H581 C586 0.949 . S
H582 C588 0.950 . S
H583 C589 0.950 . S
H584 C590 0.949 . S
C585 H580 0.950 . S
C585 C587 1.327 . S
C585 C591 1.429 . S
C586 C578 1.574 . S
C586 H581 0.949 . S
C586 C592 1.368 . S
C587 C571 1.349 . S
C587 H579 0.950 . S
C587 C585 1.327 . S
C588 C576 1.349 . S
C588 H582 0.950 . S
C588 C589 1.327 . S
C589 H583 0.950 . S
C589 C588 1.327 . S
C589 C593 1.429 . S
C590 C573 1.574 . S
C590 H584 0.949 . S
C590 C594 1.368 . S
C591 C572 1.429 . S
C591 C585 1.429 . S
C591 C592 1.523 . S
C592 C573 1.368 . S
C592 C586 1.368 . S
C592 C591 1.523 . S
C593 C577 1.429 . S
C593 C589 1.429 . S
C593 C594 1.523 . S
C594 C578 1.368 . S
C594 C590 1.368 . S
C594 C593 1.523 . S
H595 C570 0.950 . S
H596 C572 0.950 . S
H597 C573 0.949 . S
H598 C575 0.950 . S
H599 C577 0.950 . S
C600 C601 1.349 . S
C600 C602 1.327 . S
C600 H625 0.950 . S
C601 C600 1.349 . S
C601 C617 1.349 . S
C602 C600 1.327 . S
C602 C621 1.429 . S
C602 H626 0.950 . S
C603 C620 1.574 . S
C603 C622 1.368 . S
C603 H627 0.949 . S
H604 C608 0.949 . S
C605 C606 1.349 . S
C605 C607 1.327 . S
C605 H628 0.950 . S
C606 C605 1.349 . S
C606 C618 1.349 . S
C607 C605 1.327 . S
C607 C623 1.429 . S
C607 H629 0.950 . S
C608 H604 0.949 . S
C608 C616 1.574 . S
C608 C624 1.368 . S
H609 C617 0.950 . S
H610 C615 0.950 . S
H611 C616 0.949 . S
H612 C618 0.950 . S
H613 C619 0.950 . S
H614 C620 0.949 . S
C615 H610 0.950 . S
C615 C617 1.327 . S
C615 C621 1.429 . S
C616 C608 1.574 . S
C616 H611 0.949 . S
C616 C622 1.368 . S
C617 C601 1.349 . S
C617 H609 0.950 . S
C617 C615 1.327 . S
C618 C606 1.349 . S
C618 H612 0.950 . S
C618 C619 1.327 . S
C619 H613 0.950 . S
C619 C618 1.327 . S
C619 C623 1.429 . S
C620 C603 1.574 . S
C620 H614 0.949 . S
C620 C624 1.368 . S
C621 C602 1.429 . S
C621 C615 1.429 . S
C621 C622 1.523 . S
C622 C603 1.368 . S
C622 C616 1.368 . S
C622 C621 1.523 . S
C623 C607 1.429 . S
C623 C619 1.429 . S
C623 C624 1.523 . S
C624 C608 1.368 . S
C624 C620 1.368 . S
C624 C623 1.523 . S
H625 C600 0.950 . S
H626 C602 0.950 . S
H627 C603 0.949 . S
H628 C605 0.950 . S
H629 C607 0.950 . S
C630 C631 1.349 . S
C630 C632 1.327 . S
C630 H655 0.950 . S
C631 C630 1.349 . S
C631 C647 1.349 . S
C632 C630 1.327 . S
C632 C651 1.429 . S
C632 H656 0.950 . S
C633 C650 1.574 . S
C633 C652 1.368 . S
C633 H657 0.949 . S
H634 C638 0.949 . S
C635 C636 1.349 . S
C635 C637 1.327 . S
C635 H658 0.950 . S
C636 C635 1.349 . S
C636 C648 1.349 . S
C637 C635 1.327 . S
C637 C653 1.429 . S
C637 H659 0.950 . S
C638 H634 0.949 . S
C638 C646 1.574 . S
C638 C654 1.368 . S
H639 C647 0.950 . S
H640 C645 0.950 . S
H641 C646 0.949 . S
H642 C648 0.950 . S
H643 C649 0.950 . S
H644 C650 0.949 . S
C645 H640 0.950 . S
C645 C647 1.327 . S
C645 C651 1.429 . S
C646 C638 1.574 . S
C646 H641 0.949 . S
C646 C652 1.368 . S
C647 C631 1.349 . S
C647 H639 0.950 . S
C647 C645 1.327 . S
C648 C636 1.349 . S
C648 H642 0.950 . S
C648 C649 1.327 . S
C649 H643 0.950 . S
C649 C648 1.327 . S
C649 C653 1.429 . S
C650 C633 1.574 . S
C650 H644 0.949 . S
C650 C654 1.368 . S
C651 C632 1.429 . S
C651 C645 1.429 . S
C651 C652 1.523 . S
C652 C633 1.368 . S
C652 C646 1.368 . S
C652 C651 1.523 . S
C653 C637 1.429 . S
C653 C649 1.429 . S
C653 C654 1.523 . S
C654 C638 1.368 . S
C654 C650 1.368 . S
C654 C653 1.523 . S
H655 C630 0.950 . S
H656 C632 0.950 . S
H657 C633 0.949 . S
H658 C635 0.950 . S
H659 C637 0.950 . S
C660 C661 1.349 . S
C660 C662 1.327 . S
C660 H685 0.950 . S
C661 C660 1.349 . S
C661 C677 1.349 . S
C662 C660 1.327 . S
C662 C681 1.429 . S
C662 H686 0.950 . S
C663 C680 1.574 1_556 S
C663 C682 1.368 . S
C663 H687 0.949 . S
H664 C668 0.949 . S
C665 C666 1.349 . S
C665 C667 1.327 . S
C665 H688 0.950 . S
C666 C665 1.349 . S
C666 C678 1.349 . S
C667 C665 1.327 . S
C667 C683 1.429 . S
C667 H689 0.950 . S
C668 H664 0.949 . S
C668 C676 1.574 1_554 S
C668 C684 1.368 . S
H669 C677 0.950 . S
H670 C675 0.950 . S
H671 C676 0.949 . S
H672 C678 0.950 . S
H673 C679 0.950 . S
H674 C680 0.949 . S
C675 H670 0.950 . S
C675 C677 1.327 . S
C675 C681 1.429 . S
C676 C668 1.574 1_556 S
C676 H671 0.949 . S
C676 C682 1.368 . S
C677 C661 1.349 . S
C677 H669 0.950 . S
C677 C675 1.327 . S
C678 C666 1.349 . S
C678 H672 0.950 . S
C678 C679 1.327 . S
C679 H673 0.950 . S
C679 C678 1.327 . S
C679 C683 1.429 . S
C680 C663 1.574 1_554 S
C680 H674 0.949 . S
C680 C684 1.368 . S
C681 C662 1.429 . S
C681 C675 1.429 . S
C681 C682 1.523 . S
C682 C663 1.368 . S
C682 C676 1.368 . S
C682 C681 1.523 . S
C683 C667 1.429 . S
C683 C679 1.429 . S
C683 C684 1.523 . S
C684 C668 1.368 . S
C684 C680 1.368 . S
C684 C683 1.523 . S
H685 C660 0.950 . S
H686 C662 0.950 . S
H687 C663 0.949 . S
H688 C665 0.950 . S
H689 C667 0.950 . S
C690 C691 1.349 . S
C690 C692 1.327 . S
C690 H715 0.950 . S
C691 C690 1.349 . S
C691 C707 1.349 . S
C692 C690 1.327 . S
C692 C711 1.429 . S
C692 H716 0.950 . S
C693 C710 1.574 . S
C693 C712 1.368 . S
C693 H717 0.949 . S
H694 C698 0.949 . S
C695 C696 1.349 . S
C695 C697 1.327 . S
C695 H718 0.950 . S
C696 C695 1.349 . S
C696 C708 1.349 . S
C697 C695 1.327 . S
C697 C713 1.429 . S
C697 H719 0.950 . S
C698 H694 0.949 . S
C698 C706 1.574 . S
C698 C714 1.368 . S
H699 C707 0.950 . S
H700 C705 0.950 . S
H701 C706 0.949 . S
H702 C708 0.950 . S
H703 C709 0.950 . S
H704 C710 0.949 . S
C705 H700 0.950 . S
C705 C707 1.327 . S
C705 C711 1.429 . S
C706 C698 1.574 . S
C706 H701 0.949 . S
C706 C712 1.368 . S
C707 C691 1.349 . S
C707 H699 0.950 . S
C707 C705 1.327 . S
C708 C696 1.349 . S
C708 H702 0.950 . S
C708 C709 1.327 . S
C709 H703 0.950 . S
C709 C708 1.327 . S
C709 C713 1.429 . S
C710 C693 1.574 . S
C710 H704 0.949 . S
C710 C714 1.368 . S
C711 C692 1.429 . S
C711 C705 1.429 . S
C711 C712 1.523 . S
C712 C693 1.368 . S
C712 C706 1.368 . S
C712 C711 1.523 . S
C713 C697 1.429 . S
C713 C709 1.429 . S
C713 C714 1.523 . S
C714 C698 1.368 . S
C714 C710 1.368 . S
C714 C713 1.523 . S
H715 C690 0.950 . S
H716 C692 0.950 . S
H717 C693 0.949 . S
H718 C695 0.950 . S
H719 C697 0.950 . S
C720 C721 1.349 . S
C720 C722 1.327 . S
C720 H745 0.950 . S
C721 C720 1.349 . S
C721 C737 1.349 . S
C722 C720 1.327 . S
C722 C741 1.429 . S
C722 H746 0.950 . S
C723 C740 1.574 . S
C723 C742 1.368 . S
C723 H747 0.949 . S
H724 C728 0.949 . S
C725 C726 1.349 . S
C725 C727 1.327 . S
C725 H748 0.950 . S
C726 C725 1.349 . S
C726 C738 1.349 . S
C727 C725 1.327 . S
C727 C743 1.429 . S
C727 H749 0.950 . S
C728 H724 0.949 . S
C728 C736 1.574 . S
C728 C744 1.368 . S
H729 C737 0.950 . S
H730 C735 0.950 . S
H731 C736 0.949 . S
H732 C738 0.950 . S
H733 C739 0.950 . S
H734 C740 0.949 . S
C735 H730 0.950 . S
C735 C737 1.327 . S
C735 C741 1.429 . S
C736 C728 1.574 . S
C736 H731 0.949 . S
C736 C742 1.368 . S
C737 C721 1.349 . S
C737 H729 0.950 . S
C737 C735 1.327 . S
C738 C726 1.349 . S
C738 H732 0.950 . S
C738 C739 1.327 . S
C739 H733 0.950 . S
C739 C738 1.327 . S
C739 C743 1.429 . S
C740 C723 1.574 . S
C740 H734 0.949 . S
C740 C744 1.368 . S
C741 C722 1.429 . S
C741 C735 1.429 . S
C741 C742 1.523 . S
C742 C723 1.368 . S
C742 C736 1.368 . S
C742 C741 1.523 . S
C743 C727 1.429 . S
C743 C739 1.429 . S
C743 C744 1.523 . S
C744 C728 1.368 . S
C744 C740 1.368 . S
C744 C743 1.523 . S
H745 C720 0.950 . S
H746 C722 0.950 . S
H747 C723 0.949 . S
H748 C725 0.950 . S
H749 C727 0.950 . S
C750 C751 1.349 . S
C750 C752 1.327 . S
C750 H775 0.950 . S
C751 C750 1.349 . S
C751 C767 1.349 . S
C752 C750 1.327 . S
C752 C771 1.429 . S
C752 H776 0.950 . S
C753 C770 1.574 1_556 S
C753 C772 1.368 . S
C753 H777 0.949 . S
H754 C758 0.949 . S
C755 C756 1.349 . S
C755 C757 1.327 . S
C755 H778 0.950 . S
C756 C755 1.349 . S
C756 C768 1.349 . S
C757 C755 1.327 . S
C757 C773 1.429 . S
C757 H779 0.950 . S
C758 H754 0.949 . S
C758 C766 1.574 1_554 S
C758 C774 1.368 . S
H759 C767 0.950 . S
H760 C765 0.950 . S
H761 C766 0.949 . S
H762 C768 0.950 . S
H763 C769 0.950 . S
H764 C770 0.949 . S
C765 H760 0.950 . S
C765 C767 1.327 . S
C765 C771 1.429 . S
C766 C758 1.574 1_556 S
C766 H761 0.949 . S
C766 C772 1.368 . S
C767 C751 1.349 . S
C767 H759 0.950 . S
C767 C765 1.327 . S
C768 C756 1.349 . S
C768 H762 0.950 . S
C768 C769 1.327 . S
C769 H763 0.950 . S
C769 C768 1.327 . S
C769 C773 1.429 . S
C770 C753 1.574 1_554 S
C770 H764 0.949 . S
C770 C774 1.368 . S
C771 C752 1.429 . S
C771 C765 1.429 . S
C771 C772 1.523 . S
C772 C753 1.368 . S
C772 C766 1.368 . S
C772 C771 1.523 . S
C773 C757 1.429 . S
C773 C769 1.429 . S
C773 C774 1.523 . S
C774 C758 1.368 . S
C774 C770 1.368 . S
C774 C773 1.523 . S
H775 C750 0.950 . S
H776 C752 0.950 . S
H777 C753 0.949 . S
H778 C755 0.950 . S
H779 C757 0.950 . S
C780 C781 1.349 . S
C780 C782 1.327 . S
C780 H805 0.950 . S
C781 C780 1.349 . S
C781 C797 1.349 . S
C782 C780 1.327 . S
C782 C801 1.429 . S
C782 H806 0.950 . S
C783 C800 1.574 . S
C783 C802 1.368 . S
C783 H807 0.949 . S
H784 C788 0.949 . S
C785 C786 1.349 . S
C785 C787 1.327 . S
C785 H808 0.950 . S
C786 C785 1.349 . S
C786 C798 1.349 . S
C787 C785 1.327 . S
C787 C803 1.429 . S
C787 H809 0.950 . S
C788 H784 0.949 . S
C788 C796 1.574 . S
C788 C804 1.368 . S
H789 C797 0.950 . S
H790 C795 0.950 . S
H791 C796 0.949 . S
H792 C798 0.950 . S
H793 C799 0.950 . S
H794 C800 0.949 . S
C795 H790 0.950 . S
C795 C797 1.327 . S
C795 C801 1.429 . S
C796 C788 1.574 . S
C796 H791 0.949 . S
C796 C802 1.368 . S
C797 C781 1.349 . S
C797 H789 0.950 . S
C797 C795 1.327 . S
C798 C786 1.349 . S
C798 H792 0.950 . S
C798 C799 1.327 . S
C799 H793 0.950 . S
C799 C798 1.327 . S
C799 C803 1.429 . S
C800 C783 1.574 . S
C800 H794 0.949 . S
C800 C804 1.368 . S
C801 C782 1.429 . S
C801 C795 1.429 . S
C801 C802 1.523 . S
C802 C783 1.368 . S
C802 C796 1.368 . S
C802 C801 1.523 . S
C803 C787 1.429 . S
C803 C799 1.429 . S
C803 C804 1.523 . S
C804 C788 1.368 . S
C804 C800 1.368 . S
C804 C803 1.523 . S
H805 C780 0.950 . S
H806 C782 0.950 . S
H807 C783 0.949 . S
H808 C785 0.950 . S
H809 C787 0.950 . S
C810 C811 1.349 . S
C810 C812 1.327 . S
C810 H835 0.950 . S
C811 C810 1.349 . S
C811 C827 1.349 . S
C812 C810 1.327 . S
C812 C831 1.429 . S
C812 H836 0.950 . S
C813 C830 1.574 . S
C813 C832 1.368 . S
C813 H837 0.949 . S
H814 C818 0.949 . S
C815 C816 1.349 . S
C815 C817 1.327 . S
C815 H838 0.950 . S
C816 C815 1.349 . S
C816 C828 1.349 . S
C817 C815 1.327 . S
C817 C833 1.429 . S
C817 H839 0.950 . S
C818 H814 0.949 . S
C818 C826 1.574 . S
C818 C834 1.368 . S
H819 C827 0.950 . S
H820 C825 0.950 . S
H821 C826 0.949 . S
H822 C828 0.950 . S
H823 C829 0.950 . S
H824 C830 0.949 . S
C825 H820 0.950 . S
C825 C827 1.327 . S
C825 C831 1.429 . S
C826 C818 1.574 . S
C826 H821 0.949 . S
C826 C832 1.368 . S
C827 C811 1.349 . S
C827 H819 0.950 . S
C827 C825 1.327 . S
C828 C816 1.349 . S
C828 H822 0.950 . S
C828 C829 1.327 . S
C829 H823 0.950 . S
C829 C828 1.327 . S
C829 C833 1.429 . S
C830 C813 1.574 . S
C830 H824 0.949 . S
C830 C834 1.368 . S
C831 C812 1.429 . S
C831 C825 1.429 . S
C831 C832 1.523 . S
C832 C813 1.368 . S
C832 C826 1.368 . S
C832 C831 1.523 . S
C833 C817 1.429 . S
C833 C829 1.429 . S
C833 C834 1.523 . S
C834 C818 1.368 . S
C834 C830 1.368 . S
C834 C833 1.523 . S
H835 C810 0.950 . S
H836 C812 0.950 . S
H837 C813 0.949 . S
H838 C815 0.950 . S
H839 C817 0.950 . S
C840 C841 1.349 . S
C840 C842 1.327 . S
C840 H865 0.950 . S
C841 C840 1.349 . S
C841 C857 1.349 . S
C842 C840 1.327 . S
C842 C861 1.429 . S
C842 H866 0.950 . S
C843 C860 1.574 1_556 S
C843 C862 1.368 1_545 S
C843 H867 0.949 . S
H844 C848 0.949 . S
C845 C846 1.349 . S
C845 C847 1.327 . S
C845 H868 0.950 . S
C846 C845 1.349 . S
C846 C858 1.349 . S
C847 C845 1.327 . S
C847 C863 1.429 . S
C847 H869 0.950 . S
C848 H844 0.949 . S
C848 C856 1.574 1_554 S
C848 C864 1.368 1_565 S
H849 C857 0.950 . S
H850 C855 0.950 . S
H851 C856 0.949 . S
H852 C858 0.950 . S
H853 C859 0.950 . S
H854 C860 0.949 . S
C855 H850 0.950 . S
C855 C857 1.327 . S
C855 C861 1.429 . S
C856 C848 1.574 1_556 S
C856 H851 0.949 . S
C856 C862 1.368 . S
C857 C841 1.349 . S
C857 H849 0.950 . S
C857 C855 1.327 . S
C858 C846 1.349 . S
C858 H852 0.950 . S
C858 C859 1.327 . S
C859 H853 0.950 . S
C859 C858 1.327 . S
C859 C863 1.429 . S
C860 C843 1.574 1_554 S
C860 H854 0.949 . S
C860 C864 1.368 . S
C861 C842 1.429 . S
C861 C855 1.429 . S
C861 C862 1.523 . S
C862 C843 1.368 1_565 S
C862 C856 1.368 . S
C862 C861 1.523 . S
C863 C847 1.429 . S
C863 C859 1.429 . S
C863 C864 1.523 . S
C864 C848 1.368 1_545 S
C864 C860 1.368 . S
C864 C863 1.523 . S
H865 C840 0.950 . S
H866 C842 0.950 . S
H867 C843 0.949 . S
H868 C845 0.950 . S
H869 C847 0.950 . S
C870 C871 1.349 . S
C870 C872 1.327 . S
C870 H895 0.950 . S
C871 C870 1.349 . S
C871 C887 1.349 . S
C872 C870 1.327 . S
C872 C891 1.429 . S
C872 H896 0.950 . S
C873 C890 1.574 . S
C873 C892 1.368 . S
C873 H897 0.949 . S
H874 C878 0.949 . S
C875 C876 1.349 . S
C875 C877 1.327 . S
C875 H898 0.950 . S
C876 C875 1.349 . S
C876 C888 1.349 . S
C877 C875 1.327 . S
C877 C893 1.429 . S
C877 H899 0.950 . S
C878 H874 0.949 . S
C878 C886 1.574 . S
C878 C894 1.368 . S
H879 C887 0.950 . S
H880 C885 0.950 . S
H881 C886 0.949 . S
H882 C888 0.950 . S
H883 C889 0.950 . S
H884 C890 0.949 . S
C885 H880 0.950 . S
C885 C887 1.327 . S
C885 C891 1.429 . S
C886 C878 1.574 . S
C886 H881 0.949 . S
C886 C892 1.368 . S
C887 C871 1.349 . S
C887 H879 0.950 . S
C887 C885 1.327 . S
C888 C876 1.349 . S
C888 H882 0.950 . S
C888 C889 1.327 . S
C889 H883 0.950 . S
C889 C888 1.327 . S
C889 C893 1.429 . S
C890 C873 1.574 . S
C890 H884 0.949 . S
C890 C894 1.368 . S
C891 C872 1.429 . S
C891 C885 1.429 . S
C891 C892 1.523 . S
C892 C873 1.368 . S
C892 C886 1.368 . S
C892 C891 1.523 . S
C893 C877 1.429 . S
C893 C889 1.429 . S
C893 C894 1.523 . S
C894 C878 1.368 . S
C894 C890 1.368 . S
C894 C893 1.523 . S
H895 C870 0.950 . S
H896 C872 0.950 . S
H897 C873 0.949 . S
H898 C875 0.950 . S
H899 C877 0.950 . S
C900 C901 1.349 . S
C900 C902 1.327 . S
C900 H925 0.950 . S
C901 C900 1.349 . S
C901 C917 1.349 . S
C902 C900 1.327 . S
C902 C921 1.429 . S
C902 H926 0.950 . S
C903 C920 1.574 1_455 S
C903 C922 1.368 . S
C903 H927 0.949 . S
H904 C908 0.949 . S
C905 C906 1.349 . S
C905 C907 1.327 . S
C905 H928 0.950 . S
C906 C905 1.349 . S
C906 C918 1.349 . S
C907 C905 1.327 . S
C907 C923 1.429 . S
C907 H929 0.950 . S
C908 H904 0.949 . S
C908 C916 1.574 1_655 S
C908 C924 1.368 . S
H909 C917 0.950 . S
H910 C915 0.950 . S
H911 C916 0.949 . S
H912 C918 0.950 . S
H913 C919 0.950 . S
H914 C920 0.949 . S
C915 H910 0.950 . S
C915 C917 1.327 . S
C915 C921 1.429 . S
C916 C908 1.574 1_455 S
C916 H911 0.949 . S
C916 C922 1.368 . S
C917 C901 1.349 . S
C917 H909 0.950 . S
C917 C915 1.327 . S
C918 C906 1.349 . S
C918 H912 0.950 . S
C918 C919 1.327 . S
C919 H913 0.950 . S
C919 C918 1.327 . S
C919 C923 1.429 . S
C920 C903 1.574 1_655 S
C920 H914 0.949 . S
C920 C924 1.368 . S
C921 C902 1.429 . S
C921 C915 1.429 . S
C921 C922 1.523 . S
C922 C903 1.368 . S
C922 C916 1.368 . S
C922 C921 1.523 . S
C923 C907 1.429 . S
C923 C919 1.429 . S
C923 C924 1.523 . S
C924 C908 1.368 . S
C924 C920 1.368 . S
C924 C923 1.523 . S
H925 C900 0.950 . S
H926 C902 0.950 . S
H927 C903 0.949 . S
H928 C905 0.950 . S
H929 C907 0.950 . S
C930 C931 1.349 . S
C930 C932 1.327 . S
C930 H955 0.950 . S
C931 C930 1.349 . S
C931 C947 1.349 . S
C932 C930 1.327 . S
C932 C951 1.429 . S
C932 H956 0.950 . S
C933 C950 1.574 1_554 S
C933 C952 1.368 1_545 S
C933 H957 0.949 . S
H934 C938 0.949 . S
C935 C936 1.349 . S
C935 C937 1.327 . S
C935 H958 0.950 . S
C936 C935 1.349 . S
C936 C948 1.349 . S
C937 C935 1.327 . S
C937 C953 1.429 . S
C937 H959 0.950 . S
C938 H934 0.949 . S
C938 C946 1.574 1_556 S
C938 C954 1.368 1_565 S
H939 C947 0.950 . S
H940 C945 0.950 1_545 S
H941 C946 0.949 . S
H942 C948 0.950 . S
H943 C949 0.950 1_565 S
H944 C950 0.949 . S
C945 H940 0.950 1_565 S
C945 C947 1.327 . S
C945 C951 1.429 . S
C946 C938 1.574 1_554 S
C946 H941 0.949 . S
C946 C952 1.368 . S
C947 C931 1.349 . S
C947 H939 0.950 . S
C947 C945 1.327 . S
C948 C936 1.349 . S
C948 H942 0.950 . S
C948 C949 1.327 . S
C949 H943 0.950 1_545 S
C949 C948 1.327 . S
C949 C953 1.429 . S
C950 C933 1.574 1_556 S
C950 H944 0.949 . S
C950 C954 1.368 . S
C951 C932 1.429 . S
C951 C945 1.429 . S
C951 C952 1.523 . S
C952 C933 1.368 1_565 S
C952 C946 1.368 . S
C952 C951 1.523 . S
C953 C937 1.429 . S
C953 C949 1.429 . S
C953 C954 1.523 . S
C954 C938 1.368 1_545 S
C954 C950 1.368 . S
C954 C953 1.523 . S
H955 C930 0.950 . S
H956 C932 0.950 . S
H957 C933 0.949 . S
H958 C935 0.950 . S
H959 C937 0.950 . S
C960 C961 1.349 . S
C960 C962 1.327 . S
C960 H985 0.950 . S
C961 C960 1.349 . S
C961 C977 1.349 . S
C962 C960 1.327 . S
C962 C981 1.429 . S
C962 H986 0.950 . S
C963 C980 1.574 . S
C963 C982 1.368 . S
C963 H987 0.949 . S
H964 C968 0.949 . S
C965 C966 1.349 . S
C965 C967 1.327 . S
C965 H988 0.950 . S
C966 C965 1.349 . S
C966 C978 1.349 . S
C967 C965 1.327 . S
C967 C983 1.429 . S
C967 H989 0.950 . S
C968 H964 0.949 . S
C968 C976 1.574 . S
C968 C984 1.368 . S
H969 C977 0.950 . S
H970 C975 0.950 . S
H971 C976 0.949 . S
H972 C978 0.950 . S
H973 C979 0.950 . S
H974 C980 0.949 . S
C975 H970 0.950 . S
C975 C977 1.327 . S
C975 C981 1.429 . S
C976 C968 1.574 . S
C976 H971 0.949 . S
C976 C982 1.368 . S
C977 C961 1.349 . S
C977 H969 0.950 . S
C977 C975 1.327 . S
C978 C966 1.349 . S
C978 H972 0.950 . S
C978 C979 1.327 . S
C979 H973 0.950 . S
C979 C978 1.327 . S
C979 C983 1.429 . S
C980 C963 1.574 . S
C980 H974 0.949 . S
C980 C984 1.368 . S
C981 C962 1.429 . S
C981 C975 1.429 . S
C981 C982 1.523 . S
C982 C963 1.368 . S
C982 C976 1.368 . S
C982 C981 1.523 . S
C983 C967 1.429 . S
C983 C979 1.429 . S
C983 C984 1.523 . S
C984 C968 1.368 . S
C984 C980 1.368 . S
C984 C983 1.523 . S
H985 C960 0.950 . S
H986 C962 0.950 . S
H987 C963 0.949 . S
H988 C965 0.950 . S
H989 C967 0.950 . S
C990 C991 1.349 . S
C990 C992 1.327 . S
C990 H1015 0.950 . S
C991 C990 1.349 . S
C991 C1007 1.349 . S
C992 C990 1.327 . S
C992 C1011 1.429 . S
C992 H1016 0.950 . S
C993 C1010 1.574 . S
C993 C1012 1.368 1_655 S
C993 H1017 0.949 . S
H994 C998 0.949 . S
C995 C996 1.349 . S
C995 C997 1.327 . S
C995 H1018 0.950 . S
C996 C995 1.349 . S
C996 C1008 1.349 . S
C997 C995 1.327 . S
C997 C1013 1.429 . S
C997 H1019 0.950 . S
C998 H994 0.949 . S
C998 C1006 1.574 . S
C998 C1014 1.368 1_455 S
H999 C1007 0.950 . S
H1000 C1005 0.950 1_655 S
H1001 C1006 0.949 . S
H1002 C1008 0.950 . S
H1003 C1009 0.950 1_455 S
H1004 C1010 0.949 . S
C1005 H1000 0.950 1_455 S
C1005 C1007 1.327 . S
C1005 C1011 1.429 . S
C1006 C998 1.574 . S
C1006 H1001 0.949 . S
C1006 C1012 1.368 . S
C1007 C991 1.349 . S
C1007 H999 0.950 . S
C1007 C1005 1.327 . S
C1008 C996 1.349 . S
C1008 H1002 0.950 . S
C1008 C1009 1.327 . S
C1009 H1003 0.950 1_655 S
C1009 C1008 1.327 . S
C1009 C1013 1.429 . S
C1010 C993 1.574 . S
C1010 H1004 0.949 . S
C1010 C1014 1.368 . S
C1011 C992 1.429 . S
C1011 C1005 1.429 . S
C1011 C1012 1.523 . S
C1012 C993 1.368 1_455 S
C1012 C1006 1.368 . S
C1012 C1011 1.523 . S
C1013 C997 1.429 . S
C1013 C1009 1.429 . S
C1013 C1014 1.523 . S
C1014 C998 1.368 1_655 S
C1014 C1010 1.368 . S
C1014 C1013 1.523 . S
H1015 C990 0.950 . S
H1016 C992 0.950 . S
H1017 C993 0.949 . S
H1018 C995 0.950 . S
H1019 C997 0.950 . S
C1020 C1021 1.349 . S
C1020 C1022 1.327 . S
C1020 H1045 0.950 . S
C1021 C1020 1.349 . S
C1021 C1037 1.349 . S
C1022 C1020 1.327 . S
C1022 C1041 1.429 . S
C1022 H1046 0.950 . S
C1023 C1040 1.558 1_545 S
C1023 C1042 1.368 . S
C1023 H1047 0.949 . S
H1024 C1028 0.949 . S
C1025 C1026 1.349 . S
C1025 C1027 1.327 . S
C1025 H1048 0.950 . S
C1026 C1025 1.349 . S
C1026 C1038 1.349 . S
C1027 C1025 1.327 . S
C1027 C1043 1.429 . S
C1027 H1049 0.950 . S
C1028 H1024 0.949 . S
C1028 C1036 1.558 1_565 S
C1028 C1044 1.368 . S
H1029 C1037 0.950 . S
H1030 C1035 0.950 . S
H1031 C1036 0.934 . S
H1032 C1038 0.950 . S
H1033 C1039 0.950 . S
H1034 C1040 0.934 . S
C1035 H1030 0.950 . S
C1035 C1037 1.327 . S
C1035 C1041 1.429 . S
C1036 C1028 1.558 1_545 S
C1036 H1031 0.934 . S
C1036 C1042 1.377 . S
C1037 C1021 1.349 . S
C1037 H1029 0.950 . S
C1037 C1035 1.327 . S
C1038 C1026 1.349 . S
C1038 H1032 0.950 . S
C1038 C1039 1.327 . S
C1039 H1033 0.950 . S
C1039 C1038 1.327 . S
C1039 C1043 1.429 . S
C1040 C1023 1.558 1_565 S
C1040 H1034 0.934 . S
C1040 C1044 1.377 . S
C1041 C1022 1.429 . S
C1041 C1035 1.429 . S
C1041 C1042 1.523 . S
C1042 C1023 1.368 . S
C1042 C1036 1.377 . S
C1042 C1041 1.523 . S
C1043 C1027 1.429 . S
C1043 C1039 1.429 . S
C1043 C1044 1.523 . S
C1044 C1028 1.368 . S
C1044 C1040 1.377 . S
C1044 C1043 1.523 . S
H1045 C1020 0.950 . S
H1046 C1022 0.950 . S
H1047 C1023 0.949 . S
H1048 C1025 0.950 . S
H1049 C1027 0.950 . S
C1050 C1051 1.349 . S
C1050 C1052 1.327 . S
C1050 H1075 0.950 . S
C1051 C1050 1.349 . S
C1051 C1067 1.349 . S
C1052 C1050 1.327 . S
C1052 C1071 1.429 . S
C1052 H1076 0.950 . S
C1053 C1070 1.574 . S
C1053 C1072 1.368 . S
C1053 H1077 0.949 . S
H1054 C1058 0.949 . S
C1055 C1056 1.349 . S
C1055 C1057 1.327 . S
C1055 H1078 0.950 . S
C1056 C1055 1.349 . S
C1056 C1068 1.349 . S
C1057 C1055 1.327 . S
C1057 C1073 1.429 . S
C1057 H1079 0.950 . S
C1058 H1054 0.949 . S
C1058 C1066 1.574 . S
C1058 C1074 1.368 . S
H1059 C1067 0.950 . S
H1060 C1065 0.950 . S
H1061 C1066 0.949 . S
H1062 C1068 0.950 . S
H1063 C1069 0.950 . S
H1064 C1070 0.949 . S
C1065 H1060 0.950 . S
C1065 C1067 1.327 . S
C1065 C1071 1.429 . S
C1066 C1058 1.574 . S
C1066 H1061 0.949 . S
C1066 C1072 1.368 . S
C1067 C1051 1.349 . S
C1067 H1059 0.950 . S
C1067 C1065 1.327 . S
C1068 C1056 1.349 . S
C1068 H1062 0.950 . S
C1068 C1069 1.327 . S
C1069 H1063 0.950 . S
C1069 C1068 1.327 . S
C1069 C1073 1.429 . S
C1070 C1053 1.574 . S
C1070 H1064 0.949 . S
C1070 C1074 1.368 . S
C1071 C1052 1.429 . S
C1071 C1065 1.429 . S
C1071 C1072 1.523 . S
C1072 C1053 1.368 . S
C1072 C1066 1.368 . S
C1072 C1071 1.523 . S
C1073 C1057 1.429 . S
C1073 C1069 1.429 . S
C1073 C1074 1.523 . S
C1074 C1058 1.368 . S
C1074 C1070 1.368 . S
C1074 C1073 1.523 . S
H1075 C1050 0.950 . S
H1076 C1052 0.950 . S
H1077 C1053 0.949 . S
H1078 C1055 0.950 . S
H1079 C1057 0.950 . S
C1080 C1081 1.349 . S
C1080 C1082 1.327 . S
C1080 H1105 0.950 . S
C1081 C1080 1.349 . S
C1081 C1097 1.349 . S
C1082 C1080 1.327 . S
C1082 C1101 1.429 . S
C1082 H1106 0.950 . S
C1083 C1100 1.570 1_655 S
C1083 C1102 1.368 . S
C1083 H1107 0.949 . S
H1084 C1088 0.949 . S
C1085 C1086 1.349 . S
C1085 C1087 1.327 . S
C1085 H1108 0.950 . S
C1086 C1085 1.349 . S
C1086 C1098 1.349 . S
C1087 C1085 1.327 . S
C1087 C1103 1.429 . S
C1087 H1109 0.950 . S
C1088 H1084 0.949 . S
C1088 C1096 1.570 1_455 S
C1088 C1104 1.368 . S
H1089 C1097 0.950 . S
H1090 C1095 0.950 . S
H1091 C1096 0.963 . S
H1092 C1098 0.950 . S
H1093 C1099 0.950 . S
H1094 C1100 0.963 . S
C1095 H1090 0.950 . S
C1095 C1097 1.327 . S
C1095 C1101 1.429 . S
C1096 C1088 1.570 1_655 S
C1096 H1091 0.963 . S
C1096 C1102 1.378 . S
C1097 C1081 1.349 . S
C1097 H1089 0.950 . S
C1097 C1095 1.327 . S
C1098 C1086 1.349 . S
C1098 H1092 0.950 . S
C1098 C1099 1.327 . S
C1099 H1093 0.950 . S
C1099 C1098 1.327 . S
C1099 C1103 1.429 . S
C1100 C1083 1.570 1_455 S
C1100 H1094 0.963 . S
C1100 C1104 1.378 . S
C1101 C1082 1.429 . S
C1101 C1095 1.429 . S
C1101 C1102 1.523 . S
C1102 C1083 1.368 . S
C1102 C1096 1.378 . S
C1102 C1101 1.523 . S
C1103 C1087 1.429 . S
C1103 C1099 1.429 . S
C1103 C1104 1.523 . S
C1104 C1088 1.368 . S
C1104 C1100 1.378 . S
C1104 C1103 1.523 . S
H1105 C1080 0.950 . S
H1106 C1082 0.950 . S
H1107 C1083 0.949 . S
H1108 C1085 0.950 . S
H1109 C1087 0.950 . S
C1110 C1111 1.349 . S
C1110 C1112 1.327 . S
C1110 H1135 0.950 . S
C1111 C1110 1.349 . S
C1111 C1127 1.349 . S
C1112 C1110 1.327 . S
C1112 C1131 1.429 . S
C1112 H1136 0.950 . S
C1113 C1130 1.558 1_455 S
C1113 C1132 1.368 . S
C1113 H1137 0.949 . S
H1114 C1118 0.949 . S
C1115 C1116 1.349 . S
C1115 C1117 1.327 . S
C1115 H1138 0.950 . S
C1116 C1115 1.349 . S
C1116 C1128 1.349 . S
C1117 C1115 1.327 . S
C1117 C1133 1.429 . S
C1117 H1139 0.950 . S
C1118 H1114 0.949 . S
C1118 C1126 1.558 1_655 S
C1118 C1134 1.368 . S
H1119 C1127 0.950 . S
H1120 C1125 0.950 . S
H1121 C1126 0.934 . S
H1122 C1128 0.950 . S
H1123 C1129 0.950 . S
H1124 C1130 0.934 . S
C1125 H1120 0.950 . S
C1125 C1127 1.327 . S
C1125 C1131 1.429 . S
C1126 C1118 1.558 1_455 S
C1126 H1121 0.934 . S
C1126 C1132 1.377 . S
C1127 C1111 1.349 . S
C1127 H1119 0.950 . S
C1127 C1125 1.327 . S
C1128 C1116 1.349 . S
C1128 H1122 0.950 . S
C1128 C1129 1.327 . S
C1129 H1123 0.950 . S
C1129 C1128 1.327 . S
C1129 C1133 1.429 . S
C1130 C1113 1.558 1_655 S
C1130 H1124 0.934 . S
C1130 C1134 1.377 . S
C1131 C1112 1.429 . S
C1131 C1125 1.429 . S
C1131 C1132 1.523 . S
C1132 C1113 1.368 . S
C1132 C1126 1.377 . S
C1132 C1131 1.523 . S
C1133 C1117 1.429 . S
C1133 C1129 1.429 . S
C1133 C1134 1.523 . S
C1134 C1118 1.368 . S
C1134 C1130 1.377 . S
C1134 C1133 1.523 . S
H1135 C1110 0.950 . S
H1136 C1112 0.950 . S
H1137 C1113 0.949 . S
H1138 C1115 0.950 . S
H1139 C1117 0.950 . S
C1140 C1141 1.349 . S
C1140 C1142 1.327 . S
C1140 H1165 0.950 . S
C1141 C1140 1.349 . S
C1141 C1157 1.349 . S
C1142 C1140 1.327 . S
C1142 C1161 1.429 . S
C1142 H1166 0.950 . S
C1143 C1160 1.570 1_565 S
C1143 C1162 1.378 . S
C1143 H1167 0.963 . S
H1144 C1148 0.963 . S
C1145 C1146 1.349 . S
C1145 C1147 1.327 . S
C1145 H1168 0.950 . S
C1146 C1145 1.349 . S
C1146 C1158 1.349 . S
C1147 C1145 1.327 . S
C1147 C1163 1.429 . S
C1147 H1169 0.950 . S
C1148 H1144 0.963 . S
C1148 C1156 1.570 1_545 S
C1148 C1164 1.378 . S
H1149 C1157 0.950 . S
H1150 C1155 0.950 . S
H1151 C1156 0.949 . S
H1152 C1158 0.950 . S
H1153 C1159 0.950 . S
H1154 C1160 0.949 . S
C1155 H1150 0.950 . S
C1155 C1157 1.327 . S
C1155 C1161 1.429 . S
C1156 C1148 1.570 1_565 S
C1156 H1151 0.949 . S
C1156 C1162 1.368 . S
C1157 C1141 1.349 . S
C1157 H1149 0.950 . S
C1157 C1155 1.327 . S
C1158 C1146 1.349 . S
C1158 H1152 0.950 . S
C1158 C1159 1.327 . S
C1159 H1153 0.950 . S
C1159 C1158 1.327 . S
C1159 C1163 1.429 . S
C1160 C1143 1.570 1_545 S
C1160 H1154 0.949 . S
C1160 C1164 1.368 . S
C1161 C1142 1.429 . S
C1161 C1155 1.429 . S
C1161 C1162 1.523 . S
C1162 C1143 1.378 . S
C1162 C1156 1.368 . S
C1162 C1161 1.523 . S
C1163 C1147 1.429 . S
C1163 C1159 1.429 . S
C1163 C1164 1.523 . S
C1164 C1148 1.378 . S
C1164 C1160 1.368 . S
C1164 C1163 1.523 . S
H1165 C1140 0.950 . S
H1166 C1142 0.950 . S
H1167 C1143 0.963 . S
H1168 C1145 0.950 . S
H1169 C1147 0.950 . S
C1170 C1171 1.349 . S
C1170 C1172 1.327 . S
C1170 H1195 0.950 . S
C1171 C1170 1.349 . S
C1171 C1187 1.349 . S
C1172 C1170 1.327 . S
C1172 C1191 1.429 . S
C1172 H1196 0.950 . S
C1173 C1190 1.574 . S
C1173 C1192 1.368 . S
C1173 H1197 0.949 . S
H1174 C1178 0.949 . S
C1175 C1176 1.349 . S
C1175 C1177 1.327 . S
C1175 H1198 0.950 . S
C1176 C1175 1.349 . S
C1176 C1188 1.349 . S
C1177 C1175 1.327 . S
C1177 C1193 1.429 . S
C1177 H1199 0.950 . S
C1178 H1174 0.949 . S
C1178 C1186 1.574 . S
C1178 C1194 1.368 . S
H1179 C1187 0.950 . S
H1180 C1185 0.950 . S
H1181 C1186 0.949 . S
H1182 C1188 0.950 . S
H1183 C1189 0.950 . S
H1184 C1190 0.949 . S
C1185 H1180 0.950 . S
C1185 C1187 1.327 . S
C1185 C1191 1.429 . S
C1186 C1178 1.574 . S
C1186 H1181 0.949 . S
C1186 C1192 1.368 . S
C1187 C1171 1.349 . S
C1187 H1179 0.950 . S
C1187 C1185 1.327 . S
C1188 C1176 1.349 . S
C1188 H1182 0.950 . S
C1188 C1189 1.327 . S
C1189 H1183 0.950 . S
C1189 C1188 1.327 . S
C1189 C1193 1.429 . S
C1190 C1173 1.574 . S
C1190 H1184 0.949 . S
C1190 C1194 1.368 . S
C1191 C1172 1.429 . S
C1191 C1185 1.429 . S
C1191 C1192 1.523 . S
C1192 C1173 1.368 . S
C1192 C1186 1.368 . S
C1192 C1191 1.523 . S
C1193 C1177 1.429 . S
C1193 C1189 1.429 . S
C1193 C1194 1.523 . S
C1194 C1178 1.368 . S
C1194 C1190 1.368 . S
C1194 C1193 1.523 . S
H1195 C1170 0.950 . S
H1196 C1172 0.950 . S
H1197 C1173 0.949 . S
H1198 C1175 0.950 . S
H1199 C1177 0.950 . S
C1200 C1201 1.349 . S
C1200 C1202 1.327 . S
C1200 H1225 0.950 . S
C1201 C1200 1.349 . S
C1201 C1217 1.349 . S
C1202 C1200 1.327 . S
C1202 C1221 1.429 . S
C1202 H1226 0.950 . S
C1203 C1220 1.574 . S
C1203 C1222 1.368 1_545 S
C1203 H1227 0.949 . S
H1204 C1208 0.949 . S
C1205 C1206 1.349 . S
C1205 C1207 1.327 . S
C1205 H1228 0.950 . S
C1206 C1205 1.349 . S
C1206 C1218 1.349 . S
C1207 C1205 1.327 . S
C1207 C1223 1.429 . S
C1207 H1229 0.950 . S
C1208 H1204 0.949 . S
C1208 C1216 1.574 . S
C1208 C1224 1.368 1_565 S
H1209 C1217 0.950 . S
H1210 C1215 0.950 . S
H1211 C1216 0.949 . S
H1212 C1218 0.950 . S
H1213 C1219 0.950 . S
H1214 C1220 0.949 . S
C1215 H1210 0.950 . S
C1215 C1217 1.327 . S
C1215 C1221 1.429 . S
C1216 C1208 1.574 . S
C1216 H1211 0.949 . S
C1216 C1222 1.368 . S
C1217 C1201 1.349 . S
C1217 H1209 0.950 . S
C1217 C1215 1.327 . S
C1218 C1206 1.349 . S
C1218 H1212 0.950 . S
C1218 C1219 1.327 . S
C1219 H1213 0.950 . S
C1219 C1218 1.327 . S
C1219 C1223 1.429 . S
C1220 C1203 1.574 . S
C1220 H1214 0.949 . S
C1220 C1224 1.368 . S
C1221 C1202 1.429 . S
C1221 C1215 1.429 . S
C1221 C1222 1.523 . S
C1222 C1203 1.368 1_565 S
C1222 C1216 1.368 . S
C1222 C1221 1.523 . S
C1223 C1207 1.429 . S
C1223 C1219 1.429 . S
C1223 C1224 1.523 . S
C1224 C1208 1.368 1_545 S
C1224 C1220 1.368 . S
C1224 C1223 1.523 . S
H1225 C1200 0.950 . S
H1226 C1202 0.950 . S
H1227 C1203 0.949 . S
H1228 C1205 0.950 . S
H1229 C1207 0.950 . S
C1230 C1231 1.349 . S
C1230 C1232 1.327 . S
C1230 H1255 0.950 . S
C1231 C1230 1.349 . S
C1231 C1247 1.349 . S
C1232 C1230 1.327 . S
C1232 C1251 1.429 . S
C1232 H1256 0.950 . S
C1233 C1250 1.574 . S
C1233 C1252 1.368 . S
C1233 H1257 0.949 . S
H1234 C1238 0.949 . S
C1235 C1236 1.349 . S
C1235 C1237 1.327 . S
C1235 H1258 0.950 . S
C1236 C1235 1.349 . S
C1236 C1248 1.349 . S
C1237 C1235 1.327 . S
C1237 C1253 1.429 . S
C1237 H1259 0.950 . S
C1238 H1234 0.949 . S
C1238 C1246 1.574 . S
C1238 C1254 1.368 . S
H1239 C1247 0.950 . S
H1240 C1245 0.950 . S
H1241 C1246 0.949 . S
H1242 C1248 0.950 . S
H1243 C1249 0.950 . S
H1244 C1250 0.949 . S
C1245 H1240 0.950 . S
C1245 C1247 1.327 . S
C1245 C1251 1.429 . S
C1246 C1238 1.574 . S
C1246 H1241 0.949 . S
C1246 C1252 1.368 . S
C1247 C1231 1.349 . S
C1247 H1239 0.950 . S
C1247 C1245 1.327 . S
C1248 C1236 1.349 . S
C1248 H1242 0.950 . S
C1248 C1249 1.327 . S
C1249 H1243 0.950 . S
C1249 C1248 1.327 . S
C1249 C1253 1.429 . S
C1250 C1233 1.574 . S
C1250 H1244 0.949 . S
C1250 C1254 1.368 . S
C1251 C1232 1.429 . S
C1251 C1245 1.429 . S
C1251 C1252 1.523 . S
C1252 C1233 1.368 . S
C1252 C1246 1.368 . S
C1252 C1251 1.523 . S
C1253 C1237 1.429 . S
C1253 C1249 1.429 . S
C1253 C1254 1.523 . S
C1254 C1238 1.368 . S
C1254 C1250 1.368 . S
C1254 C1253 1.523 . S
H1255 C1230 0.950 . S
H1256 C1232 0.950 . S
H1257 C1233 0.949 . S
H1258 C1235 0.950 . S
H1259 C1237 0.950 . S
C1260 C1261 1.349 . S
C1260 C1262 1.327 . S
C1260 H1285 0.950 . S
C1261 C1260 1.349 . S
C1261 C1277 1.349 . S
C1262 C1260 1.327 . S
C1262 C1281 1.429 . S
C1262 H1286 0.950 . S
C1263 C1280 1.574 . S
C1263 C1282 1.368 1_455 S
C1263 H1287 0.949 . S
H1264 C1268 0.949 . S
C1265 C1266 1.349 . S
C1265 C1267 1.327 . S
C1265 H1288 0.950 . S
C1266 C1265 1.349 . S
C1266 C1278 1.349 . S
C1267 C1265 1.327 . S
C1267 C1283 1.429 . S
C1267 H1289 0.950 . S
C1268 H1264 0.949 . S
C1268 C1276 1.574 . S
C1268 C1284 1.368 1_655 S
H1269 C1277 0.950 . S
H1270 C1275 0.950 . S
H1271 C1276 0.949 . S
H1272 C1278 0.950 . S
H1273 C1279 0.950 . S
H1274 C1280 0.949 . S
C1275 H1270 0.950 . S
C1275 C1277 1.327 . S
C1275 C1281 1.429 . S
C1276 C1268 1.574 . S
C1276 H1271 0.949 . S
C1276 C1282 1.368 . S
C1277 C1261 1.349 . S
C1277 H1269 0.950 . S
C1277 C1275 1.327 . S
C1278 C1266 1.349 . S
C1278 H1272 0.950 . S
C1278 C1279 1.327 . S
C1279 H1273 0.950 . S
C1279 C1278 1.327 . S
C1279 C1283 1.429 . S
C1280 C1263 1.574 . S
C1280 H1274 0.949 . S
C1280 C1284 1.368 . S
C1281 C1262 1.429 . S
C1281 C1275 1.429 . S
C1281 C1282 1.523 . S
C1282 C1263 1.368 1_655 S
C1282 C1276 1.368 . S
C1282 C1281 1.523 . S
C1283 C1267 1.429 . S
C1283 C1279 1.429 . S
C1283 C1284 1.523 . S
C1284 C1268 1.368 1_455 S
C1284 C1280 1.368 . S
C1284 C1283 1.523 . S
H1285 C1260 0.950 . S
H1286 C1262 0.950 . S
H1287 C1263 0.949 . S
H1288 C1265 0.950 . S
H1289 C1267 0.950 . S
C1290 C1291 1.349 . S
C1290 C1292 1.327 . S
C1290 H1315 0.950 . S
C1291 C1290 1.349 . S
C1291 C1307 1.349 . S
C1292 C1290 1.327 . S
C1292 C1311 1.429 . S
C1292 H1316 0.950 . S
C1293 C1310 1.574 . S
C1293 C1312 1.368 . S
C1293 H1317 0.949 . S
H1294 C1298 0.949 . S
C1295 C1296 1.349 . S
C1295 C1297 1.327 . S
C1295 H1318 0.950 . S
C1296 C1295 1.349 . S
C1296 C1308 1.349 . S
C1297 C1295 1.327 . S
C1297 C1313 1.429 . S
C1297 H1319 0.950 . S
C1298 H1294 0.949 . S
C1298 C1306 1.574 . S
C1298 C1314 1.368 . S
H1299 C1307 0.950 . S
H1300 C1305 0.950 . S
H1301 C1306 0.949 . S
H1302 C1308 0.950 . S
H1303 C1309 0.950 . S
H1304 C1310 0.949 . S
C1305 H1300 0.950 . S
C1305 C1307 1.327 . S
C1305 C1311 1.429 . S
C1306 C1298 1.574 . S
C1306 H1301 0.949 . S
C1306 C1312 1.368 1_565 S
C1307 C1291 1.349 . S
C1307 H1299 0.950 . S
C1307 C1305 1.327 . S
C1308 C1296 1.349 . S
C1308 H1302 0.950 . S
C1308 C1309 1.327 . S
C1309 H1303 0.950 . S
C1309 C1308 1.327 . S
C1309 C1313 1.429 . S
C1310 C1293 1.574 . S
C1310 H1304 0.949 . S
C1310 C1314 1.368 1_545 S
C1311 C1292 1.429 . S
C1311 C1305 1.429 . S
C1311 C1312 1.523 . S
C1312 C1293 1.368 . S
C1312 C1306 1.368 1_545 S
C1312 C1311 1.523 . S
C1313 C1297 1.429 . S
C1313 C1309 1.429 . S
C1313 C1314 1.523 . S
C1314 C1298 1.368 . S
C1314 C1310 1.368 1_565 S
C1314 C1313 1.523 . S
H1315 C1290 0.950 . S
H1316 C1292 0.950 . S
H1317 C1293 0.949 . S
H1318 C1295 0.950 . S
H1319 C1297 0.950 . S
C1320 C1321 1.349 . S
C1320 C1322 1.327 . S
C1320 H1345 0.950 . S
C1321 C1320 1.349 . S
C1321 C1337 1.349 . S
C1322 C1320 1.327 . S
C1322 C1341 1.429 . S
C1322 H1346 0.950 . S
C1323 C1340 1.574 . S
C1323 C1342 1.368 . S
C1323 H1347 0.949 . S
H1324 C1328 0.949 . S
C1325 C1326 1.349 . S
C1325 C1327 1.327 . S
C1325 H1348 0.950 . S
C1326 C1325 1.349 . S
C1326 C1338 1.349 . S
C1327 C1325 1.327 . S
C1327 C1343 1.429 . S
C1327 H1349 0.950 . S
C1328 H1324 0.949 . S
C1328 C1336 1.574 . S
C1328 C1344 1.368 . S
H1329 C1337 0.950 . S
H1330 C1335 0.950 . S
H1331 C1336 0.949 . S
H1332 C1338 0.950 . S
H1333 C1339 0.950 . S
H1334 C1340 0.949 . S
C1335 H1330 0.950 . S
C1335 C1337 1.327 . S
C1335 C1341 1.429 . S
C1336 C1328 1.574 . S
C1336 H1331 0.949 . S
C1336 C1342 1.368 . S
C1337 C1321 1.349 . S
C1337 H1329 0.950 . S
C1337 C1335 1.327 . S
C1338 C1326 1.349 . S
C1338 H1332 0.950 . S
C1338 C1339 1.327 . S
C1339 H1333 0.950 . S
C1339 C1338 1.327 . S
C1339 C1343 1.429 . S
C1340 C1323 1.574 . S
C1340 H1334 0.949 . S
C1340 C1344 1.368 . S
C1341 C1322 1.429 . S
C1341 C1335 1.429 . S
C1341 C1342 1.523 . S
C1342 C1323 1.368 . S
C1342 C1336 1.368 . S
C1342 C1341 1.523 . S
C1343 C1327 1.429 . S
C1343 C1339 1.429 . S
C1343 C1344 1.523 . S
C1344 C1328 1.368 . S
C1344 C1340 1.368 . S
C1344 C1343 1.523 . S
H1345 C1320 0.950 . S
H1346 C1322 0.950 . S
H1347 C1323 0.949 . S
H1348 C1325 0.950 . S
H1349 C1327 0.950 . S
C1350 C1351 1.349 . S
C1350 C1352 1.327 . S
C1350 H1375 0.950 . S
C1351 C1350 1.349 . S
C1351 C1367 1.349 . S
C1352 C1350 1.327 . S
C1352 C1371 1.429 . S
C1352 H1376 0.950 . S
C1353 C1370 1.574 1_455 S
C1353 C1372 1.368 . S
C1353 H1377 0.949 . S
H1354 C1358 0.949 . S
C1355 C1356 1.349 . S
C1355 C1357 1.327 . S
C1355 H1378 0.950 . S
C1356 C1355 1.349 . S
C1356 C1368 1.349 . S
C1357 C1355 1.327 . S
C1357 C1373 1.429 . S
C1357 H1379 0.950 . S
C1358 H1354 0.949 . S
C1358 C1366 1.574 1_655 S
C1358 C1374 1.368 . S
H1359 C1367 0.950 . S
H1360 C1365 0.950 . S
H1361 C1366 0.949 . S
H1362 C1368 0.950 . S
H1363 C1369 0.950 . S
H1364 C1370 0.949 . S
C1365 H1360 0.950 . S
C1365 C1367 1.327 . S
C1365 C1371 1.429 . S
C1366 C1358 1.574 1_455 S
C1366 H1361 0.949 . S
C1366 C1372 1.368 . S
C1367 C1351 1.349 . S
C1367 H1359 0.950 . S
C1367 C1365 1.327 . S
C1368 C1356 1.349 . S
C1368 H1362 0.950 . S
C1368 C1369 1.327 . S
C1369 H1363 0.950 . S
C1369 C1368 1.327 . S
C1369 C1373 1.429 . S
C1370 C1353 1.574 1_655 S
C1370 H1364 0.949 . S
C1370 C1374 1.368 . S
C1371 C1352 1.429 . S
C1371 C1365 1.429 . S
C1371 C1372 1.523 . S
C1372 C1353 1.368 . S
C1372 C1366 1.368 . S
C1372 C1371 1.523 . S
C1373 C1357 1.429 . S
C1373 C1369 1.429 . S
C1373 C1374 1.523 . S
C1374 C1358 1.368 . S
C1374 C1370 1.368 . S
C1374 C1373 1.523 . S
H1375 C1350 0.950 . S
H1376 C1352 0.950 . S
H1377 C1353 0.949 . S
H1378 C1355 0.950 . S
H1379 C1357 0.950 . S
C1380 C1381 1.349 . S
C1380 C1382 1.327 . S
C1380 H1405 0.950 . S
C1381 C1380 1.349 . S
C1381 C1397 1.349 . S
C1382 C1380 1.327 . S
C1382 C1401 1.429 . S
C1382 H1406 0.950 . S
C1383 C1400 1.574 . S
C1383 C1402 1.368 . S
C1383 H1407 0.949 . S
H1384 C1388 0.949 . S
C1385 C1386 1.349 . S
C1385 C1387 1.327 . S
C1385 H1408 0.950 . S
C1386 C1385 1.349 . S
C1386 C1398 1.349 . S
C1387 C1385 1.327 . S
C1387 C1403 1.429 . S
C1387 H1409 0.950 . S
C1388 H1384 0.949 . S
C1388 C1396 1.574 . S
C1388 C1404 1.368 . S
H1389 C1397 0.950 . S
H1390 C1395 0.950 . S
H1391 C1396 0.949 . S
H1392 C1398 0.950 . S
H1393 C1399 0.950 . S
H1394 C1400 0.949 . S
C1395 H1390 0.950 . S
C1395 C1397 1.327 . S
C1395 C1401 1.429 . S
C1396 C1388 1.574 . S
C1396 H1391 0.949 . S
C1396 C1402 1.368 . S
C1397 C1381 1.349 . S
C1397 H1389 0.950 . S
C1397 C1395 1.327 . S
C1398 C1386 1.349 . S
C1398 H1392 0.950 . S
C1398 C1399 1.327 . S
C1399 H1393 0.950 . S
C1399 C1398 1.327 . S
C1399 C1403 1.429 . S
C1400 C1383 1.574 . S
C1400 H1394 0.949 . S
C1400 C1404 1.368 . S
C1401 C1382 1.429 . S
C1401 C1395 1.429 . S
C1401 C1402 1.523 . S
C1402 C1383 1.368 . S
C1402 C1396 1.368 . S
C1402 C1401 1.523 . S
C1403 C1387 1.429 . S
C1403 C1399 1.429 . S
C1403 C1404 1.523 . S
C1404 C1388 1.368 . S
C1404 C1400 1.368 . S
C1404 C1403 1.523 . S
H1405 C1380 0.950 . S
H1406 C1382 0.950 . S
H1407 C1383 0.949 . S
H1408 C1385 0.950 . S
H1409 C1387 0.950 . S
C1410 C1411 1.349 . S
C1410 C1412 1.327 . S
C1410 H1435 0.950 . S
C1411 C1410 1.349 . S
C1411 C1427 1.349 . S
C1412 C1410 1.327 . S
C1412 C1431 1.429 . S
C1412 H1436 0.950 . S
C1413 C1430 1.574 . S
C1413 C1432 1.368 . S
C1413 H1437 0.949 . S
H1414 C1418 0.949 . S
C1415 C1416 1.349 . S
C1415 C1417 1.327 . S
C1415 H1438 0.950 . S
C1416 C1415 1.349 . S
C1416 C1428 1.349 . S
C1417 C1415 1.327 . S
C1417 C1433 1.429 . S
C1417 H1439 0.950 . S
C1418 H1414 0.949 . S
C1418 C1426 1.574 . S
C1418 C1434 1.368 . S
H1419 C1427 0.950 . S
H1420 C1425 0.950 . S
H1421 C1426 0.949 . S
H1422 C1428 0.950 . S
H1423 C1429 0.950 . S
H1424 C1430 0.949 . S
C1425 H1420 0.950 . S
C1425 C1427 1.327 . S
C1425 C1431 1.429 . S
C1426 C1418 1.574 . S
C1426 H1421 0.949 . S
C1426 C1432 1.368 . S
C1427 C1411 1.349 . S
C1427 H1419 0.950 . S
C1427 C1425 1.327 . S
C1428 C1416 1.349 . S
C1428 H1422 0.950 . S
C1428 C1429 1.327 . S
C1429 H1423 0.950 . S
C1429 C1428 1.327 . S
C1429 C1433 1.429 . S
C1430 C1413 1.574 . S
C1430 H1424 0.949 . S
C1430 C1434 1.368 . S
C1431 C1412 1.429 . S
C1431 C1425 1.429 . S
C1431 C1432 1.523 . S
C1432 C1413 1.368 . S
C1432 C1426 1.368 . S
C1432 C1431 1.523 . S
C1433 C1417 1.429 . S
C1433 C1429 1.429 . S
C1433 C1434 1.523 . S
C1434 C1418 1.368 . S
C1434 C1430 1.368 . S
C1434 C1433 1.523 . S
H1435 C1410 0.950 . S
H1436 C1412 0.950 . S
H1437 C1413 0.949 . S
H1438 C1415 0.950 . S
H1439 C1417 0.950 . S
C1440 C1441 1.349 . S
C1440 C1442 1.327 . S
C1440 H1465 0.950 . S
C1441 C1440 1.349 . S
C1441 C1457 1.349 . S
C1442 C1440 1.327 . S
C1442 C1461 1.429 . S
C1442 H1466 0.950 . S
C1443 C1460 1.574 . S
C1443 C1462 1.368 . S
C1443 H1467 0.949 . S
H1444 C1448 0.949 . S
C1445 C1446 1.349 . S
C1445 C1447 1.327 . S
C1445 H1468 0.950 . S
C1446 C1445 1.349 . S
C1446 C1458 1.349 . S
C1447 C1445 1.327 . S
C1447 C1463 1.429 . S
C1447 H1469 0.950 . S
C1448 H1444 0.949 . S
C1448 C1456 1.574 . S
C1448 C1464 1.368 . S
H1449 C1457 0.950 . S
H1450 C1455 0.950 . S
H1451 C1456 0.949 . S
H1452 C1458 0.950 . S
H1453 C1459 0.950 . S
H1454 C1460 0.949 . S
C1455 H1450 0.950 . S
C1455 C1457 1.327 . S
C1455 C1461 1.429 . S
C1456 C1448 1.574 . S
C1456 H1451 0.949 . S
C1456 C1462 1.368 . S
C1457 C1441 1.349 . S
C1457 H1449 0.950 . S
C1457 C1455 1.327 . S
C1458 C1446 1.349 . S
C1458 H1452 0.950 . S
C1458 C1459 1.327 . S
C1459 H1453 0.950 . S
C1459 C1458 1.327 . S
C1459 C1463 1.429 . S
C1460 C1443 1.574 . S
C1460 H1454 0.949 . S
C1460 C1464 1.368 . S
C1461 C1442 1.429 . S
C1461 C1455 1.429 . S
C1461 C1462 1.523 . S
C1462 C1443 1.368 . S
C1462 C1456 1.368 . S
C1462 C1461 1.523 . S
C1463 C1447 1.429 . S
C1463 C1459 1.429 . S
C1463 C1464 1.523 . S
C1464 C1448 1.368 . S
C1464 C1460 1.368 . S
C1464 C1463 1.523 . S
H1465 C1440 0.950 . S
H1466 C1442 0.950 . S
H1467 C1443 0.949 . S
H1468 C1445 0.950 . S
H1469 C1447 0.950 . S
C1470 C1471 1.349 . S
C1470 C1472 1.327 . S
C1470 H1495 0.950 . S
C1471 C1470 1.349 . S
C1471 C1487 1.349 . S
C1472 C1470 1.327 . S
C1472 C1491 1.429 . S
C1472 H1496 0.950 . S
C1473 C1490 1.574 . S
C1473 C1492 1.368 . S
C1473 H1497 0.949 . S
H1474 C1478 0.949 . S
C1475 C1476 1.349 . S
C1475 C1477 1.327 . S
C1475 H1498 0.950 . S
C1476 C1475 1.349 . S
C1476 C1488 1.349 . S
C1477 C1475 1.327 . S
C1477 C1493 1.429 . S
C1477 H1499 0.950 . S
C1478 H1474 0.949 . S
C1478 C1486 1.574 . S
C1478 C1494 1.368 . S
H1479 C1487 0.950 . S
H1480 C1485 0.950 . S
H1481 C1486 0.949 . S
H1482 C1488 0.950 . S
H1483 C1489 0.950 . S
H1484 C1490 0.949 . S
C1485 H1480 0.950 . S
C1485 C1487 1.327 . S
C1485 C1491 1.429 . S
C1486 C1478 1.574 . S
C1486 H1481 0.949 . S
C1486 C1492 1.368 . S
C1487 C1471 1.349 . S
C1487 H1479 0.950 . S
C1487 C1485 1.327 . S
C1488 C1476 1.349 . S
C1488 H1482 0.950 . S
C1488 C1489 1.327 . S
C1489 H1483 0.950 . S
C1489 C1488 1.327 . S
C1489 C1493 1.429 . S
C1490 C1473 1.574 . S
C1490 H1484 0.949 . S
C1490 C1494 1.368 . S
C1491 C1472 1.429 . S
C1491 C1485 1.429 . S
C1491 C1492 1.523 . S
C1492 C1473 1.368 . S
C1492 C1486 1.368 . S
C1492 C1491 1.523 . S
C1493 C1477 1.429 . S
C1493 C1489 1.429 . S
C1493 C1494 1.523 . S
C1494 C1478 1.368 . S
C1494 C1490 1.368 . S
C1494 C1493 1.523 . S
H1495 C1470 0.950 . S
H1496 C1472 0.950 . S
H1497 C1473 0.949 . S
H1498 C1475 0.950 . S
H1499 C1477 0.950 . S
C1500 C1501 1.349 . S
C1500 C1502 1.327 . S
C1500 H1525 0.950 . S
C1501 C1500 1.349 . S
C1501 C1517 1.349 . S
C1502 C1500 1.327 . S
C1502 C1521 1.429 . S
C1502 H1526 0.950 . S
C1503 C1520 1.574 . S
C1503 C1522 1.368 . S
C1503 H1527 0.949 . S
H1504 C1508 0.949 . S
C1505 C1506 1.349 . S
C1505 C1507 1.327 . S
C1505 H1528 0.950 . S
C1506 C1505 1.349 . S
C1506 C1518 1.349 . S
C1507 C1505 1.327 . S
C1507 C1523 1.429 . S
C1507 H1529 0.950 . S
C1508 H1504 0.949 . S
C1508 C1516 1.574 . S
C1508 C1524 1.368 . S
H1509 C1517 0.950 . S
H1510 C1515 0.950 . S
H1511 C1516 0.949 . S
H1512 C1518 0.950 . S
H1513 C1519 0.950 . S
H1514 C1520 0.949 . S
C1515 H1510 0.950 . S
C1515 C1517 1.327 . S
C1515 C1521 1.429 . S
C1516 C1508 1.574 . S
C1516 H1511 0.949 . S
C1516 C1522 1.368 . S
C1517 C1501 1.349 . S
C1517 H1509 0.950 . S
C1517 C1515 1.327 . S
C1518 C1506 1.349 . S
C1518 H1512 0.950 . S
C1518 C1519 1.327 . S
C1519 H1513 0.950 . S
C1519 C1518 1.327 . S
C1519 C1523 1.429 . S
C1520 C1503 1.574 . S
C1520 H1514 0.949 . S
C1520 C1524 1.368 . S
C1521 C1502 1.429 . S
C1521 C1515 1.429 . S
C1521 C1522 1.523 . S
C1522 C1503 1.368 . S
C1522 C1516 1.368 . S
C1522 C1521 1.523 . S
C1523 C1507 1.429 . S
C1523 C1519 1.429 . S
C1523 C1524 1.523 . S
C1524 C1508 1.368 . S
C1524 C1520 1.368 . S
C1524 C1523 1.523 . S
H1525 C1500 0.950 . S
H1526 C1502 0.950 . S
H1527 C1503 0.949 . S
H1528 C1505 0.950 . S
H1529 C1507 0.950 . S
C1530 C1531 1.349 . S
C1530 C1532 1.327 . S
C1530 H1555 0.950 . S
C1531 C1530 1.349 . S
C1531 C1547 1.349 . S
C1532 C1530 1.327 . S
C1532 C1551 1.429 . S
C1532 H1556 0.950 . S
C1533 C1550 1.574 . S
C1533 C1552 1.368 . S
C1533 H1557 0.949 . S
H1534 C1538 0.949 . S
C1535 C1536 1.349 . S
C1535 C1537 1.327 . S
C1535 H1558 0.950 . S
C1536 C1535 1.349 . S
C1536 C1548 1.349 . S
C1537 C1535 1.327 . S
C1537 C1553 1.429 . S
C1537 H1559 0.950 . S
C1538 H1534 0.949 . S
C1538 C1546 1.574 . S
C1538 C1554 1.368 . S
H1539 C1547 0.950 . S
H1540 C1545 0.950 . S
H1541 C1546 0.949 . S
H1542 C1548 0.950 . S
H1543 C1549 0.950 . S
H1544 C1550 0.949 . S
C1545 H1540 0.950 . S
C1545 C1547 1.327 . S
C1545 C1551 1.429 . S
C1546 C1538 1.574 . S
C1546 H1541 0.949 . S
C1546 C1552 1.368 . S
C1547 C1531 1.349 . S
C1547 H1539 0.950 . S
C1547 C1545 1.327 . S
C1548 C1536 1.349 . S
C1548 H1542 0.950 . S
C1548 C1549 1.327 . S
C1549 H1543 0.950 . S
C1549 C1548 1.327 . S
C1549 C1553 1.429 . S
C1550 C1533 1.574 . S
C1550 H1544 0.949 . S
C1550 C1554 1.368 . S
C1551 C1532 1.429 . S
C1551 C1545 1.429 . S
C1551 C1552 1.523 . S
C1552 C1533 1.368 . S
C1552 C1546 1.368 . S
C1552 C1551 1.523 . S
C1553 C1537 1.429 . S
C1553 C1549 1.429 . S
C1553 C1554 1.523 . S
C1554 C1538 1.368 . S
C1554 C1550 1.368 . S
C1554 C1553 1.523 . S
H1555 C1530 0.950 . S
H1556 C1532 0.950 . S
H1557 C1533 0.949 . S
H1558 C1535 0.950 . S
H1559 C1537 0.950 . S
C481 C9 0.988 . S
C486 C329 0.988 . S
C511 C49 0.988 . S
C516 C369 0.988 . S
C541 C89 0.988 . S
C546 C409 0.988 . S
C571 C449 0.988 . S
C576 C129 0.988 . S
C601 C169 0.988 . S
C606 C249 0.988 . S
C631 C289 0.988 . S
C636 C209 0.988 . S
C661 C415 1.635 . S
C666 C15 1.635 . S
C691 C455 1.636 . S
C696 C55 1.636 . S
C721 C95 1.635 . S
C726 C255 1.635 . S
C751 C295 1.635 . S
C756 C135 1.635 . S
C781 C335 1.636 . S
C786 C175 1.636 . S
C811 C215 1.635 . S
C816 C375 1.635 . S
C841 C299 4.174 . S
C846 C19 4.174 . S
C871 C339 4.174 . S
C876 C59 4.174 . S
C901 C379 4.174 . S
C906 C99 4.174 . S
C931 C139 4.174 . S
C936 C419 4.174 . S
C961 C179 4.174 . S
C966 C459 4.174 . S
C991 C219 4.174 . S
C996 C259 4.174 . S
C1021 C18 0.832 . S
C1026 C138 0.832 . S
C1051 C58 0.832 . S
C1056 C178 0.832 . S
C1081 C98 0.832 . S
C1086 C218 0.832 . S
C1111 C378 0.832 . S
C1116 C258 0.832 . S
C1141 C298 0.832 . S
C1146 C418 0.832 . S
C1171 C458 0.832 . S
C1176 C338 0.832 . S
C1201 C286 0.671 . S
C1206 C6 0.671 . S
C1231 C326 0.671 . S
C1236 C46 0.671 . S
C1261 C86 0.671 . S
C1266 C366 0.671 . S
C1291 C406 0.671 . S
C1296 C126 0.671 . S
C1321 C446 0.671 . S
C1326 C166 0.671 . S
C1351 C206 0.671 . S
C1356 C246 0.671 . S
C1381 C10 4.657 . S
C1386 C410 4.657 . S
C1411 C50 4.657 . S
C1416 C450 4.657 1_556 S
C1441 C90 4.657 1_554 S
C1446 C250 4.657 . S
C1471 C130 4.657 . S
C1476 C290 4.657 . S
C1501 C170 4.657 . S
C1506 C330 4.657 1_556 S
C1531 C370 4.657 . S
C1536 C210 4.657 1_554 S
