# Generated by pormake.
# Topology tfs, (6)-cn, num edge types: 1
# Building blocks:
#     Node 0, Type 0, BuildingBlock: HISSIN_clean_sbu_0, # of connection points: 6
#     Node 1, Type 0, BuildingBlock: HISSIN_clean_sbu_0, # of connection points: 6
#     Node 2, Type 0, BuildingBlock: HISSIN_clean_sbu_0, # of connection points: 6
#     Node 3, Type 0, BuildingBlock: HISSIN_clean_sbu_0, # of connection points: 6
#     Node 4, Type 0, BuildingBlock: HISSIN_clean_sbu_0, # of connection points: 6
#     Node 5, Type 0, BuildingBlock: HISSIN_clean_sbu_0, # of connection points: 6
#     Edge 6, Type (0, 0), BuildingBlock: UVAHIK_clean_linker_0, # of connection points: 2
#     Edge 7, Type (0, 0), BuildingBlock: UVAHIK_clean_linker_0, # of connection points: 2
#     Edge 8, Type (0, 0), BuildingBlock: UVAHIK_clean_linker_0, # of connection points: 2
#     Edge 9, Type (0, 0), BuildingBlock: UVAHIK_clean_linker_0, # of connection points: 2
#     Edge 10, Type (0, 0), BuildingBlock: UVAHIK_clean_linker_0, # of connection points: 2
#     Edge 11, Type (0, 0), BuildingBlock: UVAHIK_clean_linker_0, # of connection points: 2
#     Edge 12, Type (0, 0), BuildingBlock: UVAHIK_clean_linker_0, # of connection points: 2
#     Edge 13, Type (0, 0), BuildingBlock: UVAHIK_clean_linker_0, # of connection points: 2
#     Edge 14, Type (0, 0), BuildingBlock: UVAHIK_clean_linker_0, # of connection points: 2
#     Edge 15, Type (0, 0), BuildingBlock: UVAHIK_clean_linker_0, # of connection points: 2
#     Edge 16, Type (0, 0), BuildingBlock: UVAHIK_clean_linker_0, # of connection points: 2
#     Edge 17, Type (0, 0), BuildingBlock: UVAHIK_clean_linker_0, # of connection points: 2
#     Edge 18, Type (0, 0), BuildingBlock: UVAHIK_clean_linker_0, # of connection points: 2
#     Edge 19, Type (0, 0), BuildingBlock: UVAHIK_clean_linker_0, # of connection points: 2
#     Edge 20, Type (0, 0), BuildingBlock: UVAHIK_clean_linker_0, # of connection points: 2
#     Edge 21, Type (0, 0), BuildingBlock: UVAHIK_clean_linker_0, # of connection points: 2
#     Edge 22, Type (0, 0), BuildingBlock: UVAHIK_clean_linker_0, # of connection points: 2
#     Edge 23, Type (0, 0), BuildingBlock: UVAHIK_clean_linker_0, # of connection points: 2
# Relax obj value: 0.522
# Max RMSD: 0.292
# Mean RMSD: 0.292
data_MOF--net-tfs--node1-HISSIN_clean_sbu_0--edge1-UVAHIK_clean_linker_0
_symmetry_space_group_name_H-M    P1
_symmetry_Int_Tables_number       1
_symmetry_cell_setting            triclinic
loop_
_symmetry_equiv_pos_as_xyz
'x, y, z'
_cell_length_a     67.07041
_cell_length_b     67.092933
_cell_length_c     19.739821
_cell_angle_alpha  90.075845
_cell_angle_beta   90.074001
_cell_angle_gamma 119.99277
loop_
_atom_site_label
_atom_site_type_symbol
_atom_site_fract_x
_atom_site_fract_y
_atom_site_fract_z
_atom_type_partial_charge
Eu0 Eu 0.21916 0.4026 0.00571 0.0
Eu1 Eu 0.19267 0.43293 0.00234 0.0
C2 C 0.20474 0.41734 0.13874 0.0
C3 C 0.24021 0.35773 -0.00621 0.0
C4 C 0.22251 0.33608 0.01521 0.0
C5 C 0.2609 0.33961 0.94849 0.0
C6 C 0.22424 0.31636 0.00427 0.0
C7 C 0.25917 0.35922 0.95943 0.0
C8 C 0.24367 0.31798 0.97177 0.0
C9 C 0.24074 0.37929 0.01228 0.0
O10 O 0.22976 0.45943 0.02161 0.0
O11 O 0.24706 0.43907 0.9858 0.0
C12 C 0.2481 0.45847 0.00342 0.0
O13 O 0.20591 0.40045 0.8998 0.0
O14 O 0.18119 0.4535 0.05772 0.0
O15 O 0.17204 0.44539 0.95181 0.0
O16 O 0.20811 0.4356 0.89934 0.0
C17 C 0.20703 0.41798 0.86692 0.0
O18 O 0.1814 0.37645 0.01885 0.0
O19 O 0.16586 0.39709 0.97219 0.0
O20 O 0.18743 0.41586 0.10397 0.0
O21 O 0.24382 0.39371 0.96366 0.0
O22 O 0.22651 0.37852 0.05867 0.0
O23 O 0.22263 0.419 0.10723 0.0
C24 C 0.1762 0.48032 -0.00581 0.0
C25 C 0.19482 0.49611 0.95475 0.0
C26 C 0.16627 0.50974 0.0181 0.0
C27 C 0.19905 0.51864 0.94672 0.0
C28 C 0.16202 0.48729 0.02579 0.0
C29 C 0.18477 0.5257 0.97826 0.0
C30 C 0.17147 0.45671 0.00487 0.0
C31 C 0.16398 0.37759 -0.00756 0.0
H32 H 0.20768 0.33445 0.04195 0.0
H33 H 0.27631 0.34163 0.92446 0.0
H34 H 0.21059 0.29993 0.02228 0.0
H35 H 0.27314 0.37576 0.94317 0.0
H36 H 0.20606 0.49102 0.93035 0.0
H37 H 0.15522 0.51468 0.04436 0.0
H38 H 0.21334 0.53043 0.91537 0.0
H39 H 0.14772 0.47538 0.057 0.0
Eu40 Eu 0.81677 0.219 0.00023 0.0
Eu41 Eu 0.75965 0.19195 -0.00373 0.0
C42 C 0.78718 0.20273 0.13359 0.0
C43 C 0.88294 0.24096 -0.01029 0.0
C44 C 0.88683 0.22303 0.00912 0.0
C45 C 0.92216 0.26247 0.94802 0.0
C46 C 0.90844 0.22505 -0.00093 0.0
C47 C 0.90065 0.26045 0.95808 0.0
C48 C 0.92649 0.245 0.96948 0.0
C49 C 0.86169 0.2411 0.00788 0.0
O50 O 0.77029 0.22863 0.02138 0.0
O51 O 0.80746 0.24651 0.9818 0.0
C52 C 0.78915 0.24719 0.00208 0.0
O53 O 0.80621 0.20673 0.89329 0.0
O54 O 0.72716 0.17912 0.04969 0.0
O55 O 0.72692 0.17302 0.94178 0.0
O56 O 0.77259 0.2078 0.89386 0.0
C57 C 0.78938 0.20733 0.86107 0.0
O58 O 0.80563 0.18124 0.00905 0.0
O59 O 0.76879 0.16525 0.96609 0.0
O60 O 0.7708 0.18605 0.09817 0.0
O61 O 0.85032 0.24422 0.95932 0.0
O62 O 0.84823 0.22653 0.05353 0.0
O63 O 0.80382 0.22072 0.10347 0.0
C64 C 0.69677 0.178 0.9852 0.0
C65 C 0.67827 0.16482 0.94151 0.0
C66 C 0.67944 0.20126 0.01382 0.0
C67 C 0.6604 0.16968 0.93429 0.0
C68 C 0.6974 0.1965 0.02057 0.0
C69 C 0.66057 0.18774 0.97117 0.0
C70 C 0.71472 0.17168 -0.00524 0.0
C71 C 0.78685 0.16371 0.98389 0.0
H72 H 0.87344 0.20777 0.03369 0.0
H73 H 0.9357 0.27825 0.9262 0.0
H74 H 0.91115 0.21119 0.01556 0.0
H75 H 0.89811 0.27459 0.94339 0.0
H76 H 0.67751 0.15056 0.91343 0.0
H77 H 0.68007 0.21515 0.04352 0.0
H78 H 0.64641 0.1592 0.89993 0.0
H79 H 0.71156 0.20706 0.05438 0.0
Eu80 Eu 0.60038 0.81791 0.00984 0.0
Eu81 Eu 0.56878 0.76083 0.00651 0.0
C82 C 0.58687 0.78849 0.14383 0.0
C83 C 0.64558 0.8837 -0.00645 0.0
C84 C 0.66766 0.88765 0.01003 0.0
C85 C 0.66273 0.92243 0.94836 0.0
C86 C 0.68713 0.90906 -0.0032 0.0
C87 C 0.64337 0.90112 0.96154 0.0
C88 C 0.68483 0.92686 0.96696 0.0
C89 C 0.62445 0.86281 0.01534 0.0
O90 O 0.54352 0.77217 0.03447 0.0
O91 O 0.56362 0.80979 -0.00154 0.0
C92 C 0.54451 0.79167 0.01894 0.0
O93 O 0.60013 0.80684 0.90227 0.0
O94 O 0.54935 0.72834 0.06006 0.0
O95 O 0.55392 0.72811 0.95149 0.0
O96 O 0.56481 0.77403 0.90559 0.0
C97 C 0.58196 0.79042 0.87143 0.0
O98 O 0.62601 0.80546 0.0175 0.0
O99 O 0.60396 0.76931 0.97126 0.0
O100 O 0.58623 0.77165 0.10833 0.0
O101 O 0.60866 0.8515 0.96964 0.0
O102 O 0.62626 0.84932 0.0595 0.0
O103 O 0.58647 0.80568 0.11393 0.0
C104 C 0.51937 0.69786 -0.00258 0.0
C105 C 0.5137 0.67939 0.95332 0.0
C106 C 0.4792 0.67997 0.03119 0.0
C107 C 0.49104 0.66122 0.94859 0.0
C108 C 0.50187 0.69822 0.03552 0.0
C109 C 0.47356 0.66107 0.9884 0.0
C110 C 0.5437 0.71592 0.00501 0.0
C111 C 0.62393 0.78672 -0.01048 0.0
H112 H 0.66986 0.87448 0.03486 0.0
H113 H 0.66019 0.9358 0.92651 0.0
H114 H 0.70393 0.91183 0.01114 0.0
H115 H 0.6265 0.89857 0.9491 0.0
H116 H 0.52692 0.67883 0.9232 0.0
H117 H 0.46626 0.68035 0.06304 0.0
H118 H 0.48726 0.6472 0.91409 0.0
H119 H 0.50574 0.71234 0.06974 0.0
Eu120 Eu 0.78279 0.59785 0.01569 0.0
Eu121 Eu 0.80832 0.56673 0.01454 0.0
C122 C 0.79597 0.5826 0.14995 0.0
C123 C 0.76359 0.64395 -0.00168 0.0
C124 C 0.77817 0.66489 0.03143 0.0
C125 C 0.7464 0.66277 0.93575 0.0
C126 C 0.77652 0.68448 0.0177 0.0
C127 C 0.74804 0.64325 0.94948 0.0
C128 C 0.76022 0.68349 0.97081 0.0
C129 C 0.76219 0.62217 0.0195 0.0
O130 O 0.77107 0.5408 0.03346 0.0
O131 O 0.7547 0.56158 -0.00612 0.0
C132 C 0.75312 0.54204 0.01255 0.0
O133 O 0.79601 0.59937 0.91006 0.0
O134 O 0.82036 0.54711 0.07222 0.0
O135 O 0.82762 0.55258 0.96481 0.0
O136 O 0.79299 0.56385 0.91101 0.0
C137 C 0.79433 0.58145 0.87784 0.0
O138 O 0.82065 0.62331 0.03077 0.0
O139 O 0.83537 0.60217 0.98259 0.0
O140 O 0.81338 0.58403 0.11595 0.0
O141 O 0.75852 0.60701 0.97247 0.0
O142 O 0.77623 0.62288 0.06658 0.0
O143 O 0.77839 0.5814 0.11753 0.0
C144 C 0.82326 0.51835 0.01282 0.0
C145 C 0.80208 0.5015 0.98595 0.0
C146 C 0.83362 0.4891 0.03419 0.0
C147 C 0.7967 0.47848 0.98318 0.0
C148 C 0.839 0.51205 0.03657 0.0
C149 C 0.81236 0.47203 0.00789 0.0
C150 C 0.82894 0.54239 0.01947 0.0
C151 C 0.83771 0.62179 0.0036 0.0
H152 H 0.79028 0.66597 0.06962 0.0
H153 H 0.73336 0.6612 0.90026 0.0
H154 H 0.78755 0.70023 0.04512 0.0
H155 H 0.73636 0.62729 0.92391 0.0
H156 H 0.78964 0.5061 0.96795 0.0
H157 H 0.84615 0.48472 0.05271 0.0
H158 H 0.78014 0.46568 0.96313 0.0
H159 H 0.8554 0.52487 0.05759 0.0
Eu160 Eu 0.18653 0.78255 0.97132 0.0
Eu161 Eu 0.2432 0.80851 0.97786 0.0
C162 C 0.21335 0.79369 0.11107 0.0
C163 C 0.12139 0.76459 0.97841 0.0
C164 C 0.10606 0.75132 0.02984 0.0
C165 C 0.09405 0.77621 0.94169 0.0
C166 C 0.0847 0.75001 0.03605 0.0
C167 C 0.11547 0.77758 0.93561 0.0
C168 C 0.07814 0.7618 -0.00947 0.0
C169 C 0.14167 0.76209 0.96429 0.0
O170 O 0.23257 0.77146 0.95767 0.0
O171 O 0.19443 0.75407 -0.01094 0.0
C172 C 0.21291 0.75304 0.97282 0.0
O173 O 0.1997 0.7789 0.87053 0.0
O174 O 0.27563 0.82947 0.03203 0.0
O175 O 0.27591 0.81975 0.92731 0.0
O176 O 0.23241 0.81369 0.87431 0.0
C177 C 0.21635 0.79656 0.83935 0.0
O178 O 0.19872 0.82016 0.95356 0.0
O179 O 0.2338 0.83517 0.00681 0.0
O180 O 0.22957 0.792 0.07899 0.0
O181 O 0.15537 0.77424 0.91518 0.0
O182 O 0.15274 0.75999 0.01574 0.0
O183 O 0.19755 0.79572 0.07754 0.0
C184 C 0.30659 0.82449 -0.00271 0.0
C185 C 0.30405 0.80277 0.98427 0.0
C186 C 0.34578 0.83822 0.0349 0.0
C187 C 0.32248 0.79894 -0.00475 0.0
C188 C 0.32741 0.84205 0.02358 0.0
C189 C 0.34369 0.81676 0.01973 0.0
C190 C 0.28814 0.82953 0.98143 0.0
C191 C 0.21681 0.83737 0.98233 0.0
H192 H 0.11006 0.74094 0.06307 0.0
H193 H 0.08956 0.78567 0.90631 0.0
H194 H 0.07274 0.73852 0.07365 0.0
H195 H 0.12688 0.78796 0.89534 0.0
H196 H 0.28802 0.78892 0.96426 0.0
H197 H 0.36169 0.85217 0.05508 0.0
H198 H 0.32032 0.78227 0.98256 0.0
H199 H 0.3296 0.85887 0.03439 0.0
Eu200 Eu 0.40347 0.18559 0.9846 0.0
Eu201 Eu 0.43373 0.24257 0.9832 0.0
C202 C 0.41867 0.21434 0.1191 0.0
C203 C 0.35668 0.1204 0.97627 0.0
C204 C 0.33767 0.11543 0.01755 0.0
C205 C 0.33445 0.08284 0.92313 0.0
C206 C 0.31752 0.09403 0.01314 0.0
C207 C 0.35461 0.10417 0.92773 0.0
C208 C 0.31599 0.07723 0.96744 0.0
C209 C 0.37954 0.14069 -0.01083 0.0
O210 O 0.46037 0.23196 -0.00053 0.0
O211 O 0.43992 0.19413 0.96455 0.0
C212 C 0.45937 0.21263 0.98114 0.0
O213 O 0.40177 0.19692 0.87871 0.0
O214 O 0.454 0.27441 0.03953 0.0
O215 O 0.44618 0.27583 0.93373 0.0
O216 O 0.43642 0.2306 0.87913 0.0
C217 C 0.41919 0.21368 0.8465 0.0
O218 O 0.37749 0.19716 0.00146 0.0
O219 O 0.39766 0.23329 0.95463 0.0
O220 O 0.41763 0.23064 0.08575 0.0
O221 O 0.39197 0.15208 0.93708 0.0
O222 O 0.38159 0.15407 0.03993 0.0
O223 O 0.41971 0.19789 0.08665 0.0
C224 C 0.48112 0.30609 0.97692 0.0
C225 C 0.49879 0.3013 0.96265 0.0
C226 C 0.50905 0.34685 0.97988 0.0
C227 C 0.52159 0.31927 0.9575 0.0
C228 C 0.48634 0.32891 0.98497 0.0
C229 C 0.52699 0.34226 0.96656 0.0
C230 C 0.45738 0.28754 0.98719 0.0
C231 C 0.37835 0.21565 0.97586 0.0
H232 H 0.3387 0.12759 0.05546 0.0
H233 H 0.33396 0.07019 0.88797 0.0
H234 H 0.30348 0.09027 0.04747 0.0
H235 H 0.36906 0.10749 0.89573 0.0
H236 H 0.49498 0.28369 0.95645 0.0
H237 H 0.51262 0.36428 0.98831 0.0
H238 H 0.53496 0.31518 0.94658 0.0
H239 H 0.47289 0.33284 -0.00346 0.0
C240 C 0.33917 0.20579 0.0179 0.0
C241 C 0.35715 0.21711 0.97105 0.0
C242 C 0.32025 0.20928 0.01671 0.0
C243 C 0.28881 0.22961 0.91051 0.0
H244 H 0.2812 0.25653 0.07534 0.0
C245 C 0.25773 0.29484 0.90901 0.0
C246 C 0.24714 0.2978 0.9665 0.0
C247 C 0.26472 0.27844 0.90851 0.0
C248 C 0.28251 0.24848 0.02927 0.0
H249 H 0.36888 0.23981 0.88403 0.0
H250 H 0.33573 0.24545 0.8811 0.0
H251 H 0.30528 0.23889 0.07628 0.0
H252 H 0.23406 0.28458 0.06679 0.0
H253 H 0.24549 0.25534 0.06496 0.0
H254 H 0.26646 0.23955 0.86291 0.0
C255 C 0.33629 0.23408 0.91901 0.0
C256 C 0.2964 0.23842 0.0299 0.0
C257 C 0.35535 0.231 0.92108 0.0
C258 C 0.24214 0.28276 0.02157 0.0
C259 C 0.24898 0.26617 0.02087 0.0
C260 C 0.27466 0.23938 0.91003 0.0
C261 C 0.31878 0.22365 0.96758 0.0
C262 C 0.30037 0.2297 0.96995 0.0
C263 C 0.26108 0.26435 0.96525 0.0
C264 C 0.27209 0.24981 0.96874 0.0
H265 H 0.34018 0.19503 0.05704 0.0
H266 H 0.30696 0.20108 0.05474 0.0
H267 H 0.29141 0.22274 0.86377 0.0
H268 H 0.26146 0.30585 0.86522 0.0
H269 H 0.27414 0.27776 0.86489 0.0
C270 C 0.13396 0.3382 0.03105 0.0
C271 C 0.14133 0.35653 0.98512 0.0
C272 C 0.11144 0.3195 0.02759 0.0
C273 C 0.06043 0.2898 0.91647 0.0
H274 H 0.02481 0.28094 0.07947 0.0
C275 C 0.96433 0.2601 0.90964 0.0
C276 C 0.95024 0.24865 0.96544 0.0
C277 C 0.9877 0.26698 0.91051 0.0
C278 C 0.03446 0.28262 0.03383 0.0
H279 H 0.13153 0.36908 0.89729 0.0
H280 H 0.09257 0.3364 0.8905 0.0
H281 H 0.06658 0.30437 0.08375 0.0
H282 H 0.94947 0.2341 0.06415 0.0
H283 H 0.99012 0.24542 0.06469 0.0
H284 H 0.02838 0.26853 0.86599 0.0
C285 C 0.10401 0.33647 0.92943 0.0
C286 C 0.05845 0.29612 0.03638 0.0
C287 C 0.12626 0.35528 0.9337 0.0
C288 C 0.95978 0.24283 0.02019 0.0
C289 C 0.98319 0.24959 0.02088 0.0
C290 C 0.03647 0.27607 0.91403 0.0
C291 C 0.09619 0.31863 0.97713 0.0
C292 C 0.07157 0.30054 0.97721 0.0
C293 C 0.99761 0.26241 0.96698 0.0
C294 C 0.0231 0.27306 0.9721 0.0
H295 H 0.14525 0.33878 0.07124 0.0
H296 H 0.10579 0.30595 0.06497 0.0
H297 H 0.07021 0.29273 0.87027 0.0
H298 H 0.95745 0.2645 0.86613 0.0
H299 H 0.9982 0.27697 0.86824 0.0
C300 C 0.79754 0.13429 0.01899 0.0
C301 C 0.78553 0.14121 0.97549 0.0
C302 C 0.7941 0.11193 0.01479 0.0
C303 C 0.77176 0.06064 0.90463 0.0
H304 H 0.74829 0.02552 0.07006 0.0
C305 C 0.70656 0.96422 0.90417 0.0
C306 C 0.70487 0.95054 0.96012 0.0
C307 C 0.7229 0.98763 0.90317 0.0
C308 C 0.75536 0.03503 0.02363 0.0
H309 H 0.76166 0.13078 0.89103 0.0
H310 H 0.75603 0.09208 0.88295 0.0
H311 H 0.76597 0.06721 0.0734 0.0
H312 H 0.72029 0.95049 0.05679 0.0
H313 H 0.74939 0.99116 0.05387 0.0
H314 H 0.76074 0.02851 0.85439 0.0
C315 C 0.76793 0.10376 0.92055 0.0
C316 C 0.76546 0.05898 0.02566 0.0
C317 C 0.771 0.12585 0.9256 0.0
C318 C 0.7211 0.96048 0.01277 0.0
C319 C 0.73761 0.98391 0.01152 0.0
C320 C 0.76193 0.03672 0.90268 0.0
C321 C 0.77904 0.09639 0.96597 0.0
C322 C 0.77295 0.0719 0.96579 0.0
C323 C 0.7382 0.99796 0.95782 0.0
C324 C 0.75275 0.02351 0.96172 0.0
H325 H 0.80882 0.1458 0.05797 0.0
H326 H 0.80285 0.10663 0.0504 0.0
H327 H 0.77767 0.07027 0.85785 0.0
H328 H 0.69461 0.95703 0.86216 0.0
H329 H 0.72262 0.99782 0.8611 0.0
C330 C 0.74973 0.70792 0.89965 0.0
C331 C 0.75576 0.70297 0.96313 0.0
C332 C 0.74107 0.72295 0.89454 0.0
C333 C 0.73211 0.76641 0.98316 0.0
H334 H 0.67226 0.73456 0.8963 0.0
C335 C 0.66117 0.79036 0.02785 0.0
C336 C 0.64449 0.78473 0.97728 0.0
C337 C 0.67861 0.78486 0.01928 0.0
C338 C 0.68915 0.74414 0.91928 0.0
H339 H 0.75906 0.71139 0.07029 0.0
H340 H 0.74426 0.73788 0.061 0.0
H341 H 0.69711 0.71811 0.89197 0.0
H342 H 0.63386 0.77098 0.87612 0.0
H343 H 0.66493 0.76275 0.85912 0.0
H344 H 0.72405 0.79248 0.0107 0.0
C345 C 0.74623 0.73008 0.01529 0.0
C346 C 0.70339 0.73458 0.91693 0.0
C347 C 0.75475 0.71491 0.02052 0.0
C348 C 0.64638 0.77513 0.91626 0.0
C349 C 0.66409 0.77024 0.9069 0.0
C350 C 0.71795 0.77624 0.98464 0.0
C351 C 0.73845 0.73351 0.95268 0.0
C352 C 0.72487 0.7454 0.94956 0.0
C353 C 0.67989 0.7741 0.95932 0.0
C354 C 0.6961 0.76505 0.95345 0.0
H355 H 0.75077 0.69941 0.85424 0.0
H356 H 0.7355 0.72557 0.84547 0.0
H357 H 0.74863 0.77512 0.00866 0.0
H358 H 0.65994 0.79772 0.07546 0.0
H359 H 0.6903 0.78799 0.06104 0.0
C360 C 0.04132 0.75351 0.04818 0.0
C361 C 0.05383 0.75647 0.98825 0.0
C362 C 0.01744 0.74428 0.04588 0.0
C363 C 0.96996 0.70267 0.94588 0.0
H364 H 0.93189 0.7209 0.04572 0.0
C365 C 0.87255 0.64585 0.93524 0.0
C366 C 0.86039 0.64251 -0.00428 0.0
C367 C 0.89526 0.66366 0.92967 0.0
C368 C 0.94227 0.71546 0.01801 0.0
H369 H 0.05124 0.75328 0.87872 0.0
H370 H 0.0097 0.73726 0.87494 0.0
H371 H 0.97384 0.74586 0.04608 0.0
H372 H 0.86179 0.65547 0.09703 0.0
H373 H 0.90207 0.68598 0.08907 0.0
H374 H 0.93913 0.67184 0.9208 0.0
C375 C 0.01837 0.74207 0.92357 0.0
C376 C 0.96625 0.72983 0.01798 0.0
C377 C 0.04219 0.75143 0.92579 0.0
C378 C 0.87091 0.65786 0.04978 0.0
C379 C 0.89395 0.67538 0.04495 0.0
C380 C 0.94619 0.68821 0.9468 0.0
C381 C 0.00569 0.73767 0.98367 0.0
C382 C 0.98026 0.72353 0.98175 0.0
C383 C 0.90663 0.67807 0.98536 0.0
C384 C 0.93194 0.69435 0.98273 0.0
H385 H 0.04987 0.75743 0.09699 0.0
H386 H 0.00803 0.74098 0.09296 0.0
H387 H 0.9804 0.69713 0.91881 0.0
H388 H 0.86459 0.63436 0.89254 0.0
H389 H 0.9041 0.66566 0.88214 0.0
C390 C 0.22723 0.87295 0.04699 0.0
C391 C 0.2186 0.86006 0.98742 0.0
C392 C 0.23186 0.89563 0.04998 0.0
C393 C 0.22661 0.94117 0.95463 0.0
H394 H 0.28274 0.98099 0.05361 0.0
C395 C 0.28741 0.03957 0.91361 0.0
C396 C 0.29689 0.05305 0.97217 0.0
C397 C 0.27272 0.01577 0.91875 0.0
C398 C 0.26684 0.97009 0.02658 0.0
H399 H 0.20713 0.86013 0.88501 0.0
H400 H 0.21646 0.90032 0.88845 0.0
H401 H 0.26708 0.93979 0.05656 0.0
H402 H 0.29729 0.05232 0.08205 0.0
H403 H 0.27172 0.0109 0.09078 0.0
H404 H 0.22758 0.97217 0.92154 0.0
C405 C 0.21898 0.89281 0.93386 0.0
C406 C 0.25772 0.94635 0.02849 0.0
C407 C 0.21372 0.86982 0.9316 0.0
C408 C 0.29015 0.04249 0.03597 0.0
C409 C 0.27566 0.01875 0.04103 0.0
C410 C 0.23605 0.9651 0.95181 0.0
C411 C 0.22874 0.90622 -0.00742 0.0
C412 C 0.23748 0.93149 -0.00741 0.0
C413 C 0.26747 0.00508 0.98248 0.0
C414 C 0.25626 0.97973 0.98784 0.0
H415 H 0.23079 0.86559 0.09103 0.0
H416 H 0.23854 0.90504 0.0969 0.0
H417 H 0.21089 0.93032 0.9269 0.0
H418 H 0.29215 0.04728 0.8638 0.0
H419 H 0.26668 0.00558 0.87282 0.0
C420 C 0.23121 0.72829 0.96589 0.0
C421 C 0.21135 0.73023 0.97162 0.0
C422 C 0.22953 0.70663 0.96556 0.0
C423 C 0.18963 0.64585 0.01315 0.0
H424 H 0.22775 0.63275 0.89455 0.0
C425 C 0.17052 0.55367 0.96511 0.0
C426 C 0.1891 0.54961 0.97081 0.0
C427 C 0.1743 0.57608 0.96336 0.0
C428 C 0.21714 0.63626 0.9283 0.0
H429 H 0.17411 0.71087 0.98 0.0
H430 H 0.17116 0.67333 0.97792 0.0
H431 H 0.23237 0.6713 0.89574 0.0
H432 H 0.22632 0.56608 0.97702 0.0
H433 H 0.2329 0.60536 0.97267 0.0
H434 H 0.17414 0.61075 0.04475 0.0
C435 C 0.18811 0.68847 0.97543 0.0
C436 C 0.21981 0.65833 0.92918 0.0
C437 C 0.18979 0.71006 0.97623 0.0
C438 C 0.21163 0.56857 0.97205 0.0
C439 C 0.21542 0.59106 0.96975 0.0
C440 C 0.18685 0.62381 0.01182 0.0
C441 C 0.20794 0.68645 0.9706 0.0
C442 C 0.20592 0.66333 0.9712 0.0
C443 C 0.19674 0.59501 0.96664 0.0
C444 C 0.20042 0.61871 0.96899 0.0
H445 H 0.2481 0.74349 0.96245 0.0
H446 H 0.24518 0.70573 0.96249 0.0
H447 H 0.17903 0.64919 0.04737 0.0
H448 H 0.15298 0.5395 0.96235 0.0
H449 H 0.1596 0.57862 0.95959 0.0
C450 C 0.48001 0.19047 0.96674 0.0
C451 C 0.48091 0.21159 0.97815 0.0
C452 C 0.5002 0.18934 0.96296 0.0
C453 C 0.56192 0.22082 0.00956 0.0
H454 H 0.56508 0.17885 0.8805 0.0
C455 C 0.6442 0.21437 0.96871 0.0
C456 C 0.64076 0.19189 0.96699 0.0
C457 C 0.62543 0.21807 0.9669 0.0
C458 C 0.5644 0.19057 0.91702 0.0
H459 H 0.50386 0.24815 -0.00558 0.0
H460 H 0.53916 0.2462 0.98679 0.0
H461 H 0.53111 0.18315 0.8831 0.0
H462 H 0.61472 0.15568 0.96285 0.0
H463 H 0.58218 0.16219 0.95836 0.0
H464 H 0.59534 0.22821 0.04323 0.0
C465 C 0.52278 0.23045 0.98177 0.0
C466 C 0.54492 0.193 0.91869 0.0
C467 C 0.50253 0.23157 0.98588 0.0
C468 C 0.61811 0.17324 0.96281 0.0
C469 C 0.59941 0.17695 0.96044 0.0
C470 C 0.58151 0.21849 0.00757 0.0
C471 C 0.52185 0.20931 0.97006 0.0
C472 C 0.54326 0.20788 0.96568 0.0
C473 C 0.60285 0.19938 0.96273 0.0
C474 C 0.5828 0.20308 0.96193 0.0
H475 H 0.46368 0.1747 0.96102 0.0
H476 H 0.49879 0.17269 0.95527 0.0
H477 H 0.56114 0.23226 0.04688 0.0
H478 H 0.6614 0.22915 0.97095 0.0
H479 H 0.62861 0.23556 0.96806 0.0
C480 C 0.43042 0.6436 -0.00779 0.0
C481 C 0.44983 0.64082 0.98753 0.0
C482 C 0.40823 0.62442 -0.00585 0.0
C483 C 0.37762 0.56199 0.03223 0.0
H484 H 0.32679 0.56144 0.93668 0.0
C485 C 0.291 0.47892 -0.00818 0.0
C486 C 0.27078 0.47991 0.00237 0.0
C487 C 0.31245 0.499 -0.00895 0.0
C488 C 0.34078 0.56145 0.9642 0.0
H489 H 0.46094 0.61553 0.98121 0.0
H490 H 0.42239 0.58229 0.98219 0.0
H491 H 0.36502 0.59567 0.93221 0.0
H492 H 0.25731 0.50293 0.01971 0.0
H493 H 0.29492 0.53808 0.01823 0.0
H494 H 0.35348 0.5277 0.06339 0.0
C495 C 0.4243 0.59927 0.98557 0.0
C496 C 0.36268 0.58106 0.96172 0.0
C497 C 0.44644 0.6184 0.98394 0.0
C498 C 0.27254 0.50153 0.01165 0.0
C499 C 0.29405 0.52168 0.0104 0.0
C500 C 0.35581 0.5424 0.03437 0.0
C501 C 0.40491 0.60201 -0.00864 0.0
C502 C 0.38141 0.58149 -0.00472 0.0
C503 C 0.31424 0.5206 0.00044 0.0
C504 C 0.33718 0.54183 -1e-05 0.0
H505 H 0.43237 0.66061 -0.00567 0.0
H506 H 0.3937 0.62717 -0.0009 0.0
H507 H 0.39151 0.56189 0.05997 0.0
H508 H 0.29032 0.4626 0.98438 0.0
H509 H 0.32766 0.49763 0.98235 0.0
C510 C 0.79685 0.43383 0.94929 0.0
C511 C 0.80665 0.44762 0.00703 0.0
C512 C 0.79264 0.4112 0.94765 0.0
C513 C 0.78565 0.36347 0.05728 0.0
H514 H 0.8055 0.34401 0.89848 0.0
C515 C 0.77085 0.2712 0.02624 0.0
C516 C 0.78967 0.26953 0.00191 0.0
C517 C 0.77134 0.29228 0.02548 0.0
C518 C 0.79991 0.34922 0.94322 0.0
H519 H 0.81889 0.44827 0.10918 0.0
H520 H 0.81173 0.40891 0.10614 0.0
H521 H 0.80877 0.38191 0.90035 0.0
H522 H 0.82374 0.28878 0.95755 0.0
H523 H 0.82457 0.32547 0.95654 0.0
H524 H 0.77731 0.331 0.10076 0.0
C525 C 0.80725 0.41551 0.06218 0.0
C526 C 0.80155 0.37082 0.944 0.0
C527 C 0.81158 0.43814 0.06366 0.0
C528 C 0.80894 0.28941 0.97667 0.0
C529 C 0.80936 0.31043 0.97562 0.0
C530 C 0.7839 0.34182 0.05635 0.0
C531 C 0.79796 0.40186 0.00393 0.0
C532 C 0.79469 0.37829 0.00135 0.0
C533 C 0.79058 0.31211 1e-05 0.0
C534 C 0.79128 0.33458 -0.00036 0.0
H535 H 0.79296 0.44071 0.90479 0.0
H536 H 0.78529 0.40102 0.90225 0.0
H537 H 0.78004 0.36868 0.10196 0.0
H538 H 0.7557 0.25623 0.04587 0.0
H539 H 0.75652 0.293 0.0441 0.0
C540 C 0.3859 0.83095 0.0077 0.0
C541 C 0.36387 0.81335 0.02671 0.0
C542 C 0.4049 0.82781 0.0128 0.0
C543 C 0.42114 0.7831 0.01767 0.0
H544 H 0.47946 0.83307 0.08251 0.0
C545 C 0.50251 0.77448 0.04628 0.0
C546 C 0.52336 0.79335 0.02434 0.0
C547 C 0.48262 0.77619 0.05129 0.0
C548 C 0.46335 0.81902 0.06375 0.0
H549 H 0.34462 0.77868 0.06669 0.0
H550 H 0.37789 0.77312 0.07501 0.0
H551 H 0.44545 0.83734 0.08336 0.0
H552 H 0.53956 0.82881 -0.00976 0.0
H553 H 0.50492 0.83165 -0.00182 0.0
H554 H 0.43915 0.76493 -0.003 0.0
C555 C 0.38035 0.78931 0.05576 0.0
C556 C 0.44386 0.82145 0.06434 0.0
C557 C 0.3613 0.79249 0.05091 0.0
C558 C 0.52385 0.81394 0.00756 0.0
C559 C 0.504 0.81564 0.01256 0.0
C560 C 0.44068 0.78068 0.01694 0.0
C561 C 0.40235 0.80696 0.03676 0.0
C562 C 0.42262 0.80366 0.04046 0.0
C563 C 0.48316 0.79681 0.03456 0.0
C564 C 0.46207 0.79874 0.03911 0.0
H565 H 0.38844 0.84705 0.98745 0.0
H566 H 0.42154 0.84158 -0.00347 0.0
H567 H 0.40506 0.76917 -0.00168 0.0
H568 H 0.50152 0.75836 0.05974 0.0
H569 H 0.46689 0.76144 0.06899 0.0
C570 C 0.71152 0.52146 0.97964 0.0
C571 C 0.73038 0.52076 0.00809 0.0
C572 C 0.69007 0.50152 0.97455 0.0
C573 C 0.66148 0.43796 0.97502 0.0
H574 H 0.60701 0.44261 0.00916 0.0
C575 C 0.5689 0.35926 -0.00411 0.0
C576 C 0.55122 0.36146 0.9647 0.0
C577 C 0.59132 0.37803 -0.00084 0.0
C578 C 0.62205 0.44107 -0.0012 0.0
H579 H 0.74144 0.49842 0.05338 0.0
H580 H 0.70376 0.4636 0.04563 0.0
H581 H 0.64492 0.47654 0.02143 0.0
H582 H 0.54355 0.38472 0.9092 0.0
H583 H 0.58256 0.41745 0.91551 0.0
H584 H 0.63837 0.40229 0.95321 0.0
C585 C 0.70571 0.47958 0.02638 0.0
C586 C 0.64379 0.46053 0.00578 0.0
C587 C 0.72727 0.49958 0.03122 0.0
C588 C 0.55665 0.38259 0.93486 0.0
C589 C 0.57899 0.40133 0.93842 0.0
C590 C 0.63966 0.41841 0.96843 0.0
C591 C 0.68684 0.48035 -0.00186 0.0
C592 C 0.66378 0.45929 -0.0067 0.0
C593 C 0.59647 0.39938 0.9716 0.0
C594 C 0.61972 0.41985 0.9796 0.0
H595 H 0.71329 0.53741 0.96071 0.0
H596 H 0.67605 0.50268 0.9513 0.0
H597 H 0.67651 0.43645 0.96435 0.0
H598 H 0.56526 0.3433 0.02 0.0
H599 H 0.60442 0.37606 0.02543 0.0
C600 C 0.20215 0.39762 0.75672 0.0
C601 C 0.20641 0.41755 0.79216 0.0
C602 C 0.2011 0.39701 0.68611 0.0
C603 C 0.21363 0.40512 0.53768 0.0
H604 H 0.18461 0.4344 0.44193 0.0
C605 C 0.22351 0.42041 0.2505 0.0
C606 C 0.20414 0.41694 0.21345 0.0
C607 C 0.22307 0.41997 0.3211 0.0
C608 C 0.19257 0.42595 0.46793 0.0
H609 H 0.21303 0.45253 0.78132 0.0
H610 H 0.21167 0.45161 0.65799 0.0
H611 H 0.18472 0.43418 0.56541 0.0
H612 H 0.16904 0.41021 0.2213 0.0
H613 H 0.16815 0.4091 0.34485 0.0
H614 H 0.22104 0.39644 0.44035 0.0
C615 C 0.20871 0.43631 0.68485 0.0
C616 C 0.1929 0.42608 0.53866 0.0
C617 C 0.20965 0.43688 0.75552 0.0
C618 C 0.18428 0.41303 0.24847 0.0
C619 C 0.1838 0.4125 0.31922 0.0
C620 C 0.21323 0.40492 0.46703 0.0
C621 C 0.20439 0.41635 0.64937 0.0
C622 C 0.20356 0.41579 0.57429 0.0
C623 C 0.2032 0.41594 0.35627 0.0
C624 C 0.20286 0.41548 0.43136 0.0
H625 H 0.1994 0.38237 0.78346 0.0
H626 H 0.19741 0.38127 0.66034 0.0
H627 H 0.22217 0.39723 0.56356 0.0
H628 H 0.23913 0.42359 0.22506 0.0
H629 H 0.23843 0.42308 0.34814 0.0
C630 C 0.80913 0.21336 0.7495 0.0
C631 C 0.78891 0.20677 0.78641 0.0
C632 C 0.80855 0.21233 0.67881 0.0
C633 C 0.77175 0.20732 0.53084 0.0
H634 H 0.81277 0.19167 0.43637 0.0
C635 C 0.76617 0.18787 0.24304 0.0
C636 C 0.78686 0.20153 0.20813 0.0
C637 C 0.76588 0.18755 0.31383 0.0
C638 C 0.80126 0.19607 0.46229 0.0
H639 H 0.75217 0.1936 0.77863 0.0
H640 H 0.75092 0.19091 0.65568 0.0
H641 H 0.81308 0.1928 0.55987 0.0
H642 H 0.82353 0.22504 0.21948 0.0
H643 H 0.82306 0.22397 0.34322 0.0
H644 H 0.75957 0.20991 0.43262 0.0
C645 C 0.76741 0.19762 0.68081 0.0
C646 C 0.80153 0.19692 0.53297 0.0
C647 C 0.76808 0.19905 0.75141 0.0
C648 C 0.80732 0.21444 0.24512 0.0
C649 C 0.8071 0.21376 0.31577 0.0
C650 C 0.77121 0.20606 0.46019 0.0
C651 C 0.78764 0.20427 0.64351 0.0
C652 C 0.78694 0.20278 0.56822 0.0
C653 C 0.78635 0.20049 0.35066 0.0
C654 C 0.78611 0.20064 0.42541 0.0
H655 H 0.82547 0.21954 0.77519 0.0
H656 H 0.82456 0.21807 0.65194 0.0
H657 H 0.76056 0.2123 0.55594 0.0
H658 H 0.75015 0.17781 0.21571 0.0
H659 H 0.74971 0.17714 0.33986 0.0
C660 C 0.59525 0.80987 0.75936 0.0
C661 C 0.58124 0.78986 0.79673 0.0
C662 C 0.59519 0.80918 0.68866 0.0
C663 C 0.58591 0.77144 0.54623 0.0
H664 H 0.57667 0.81513 0.44221 0.0
C665 C 0.57864 0.76714 0.25357 0.0
C666 C 0.58738 0.78802 0.21844 0.0
C667 C 0.5777 0.7668 0.32438 0.0
C668 C 0.57969 0.80304 0.47031 0.0
H669 H 0.55627 0.75341 0.78961 0.0
H670 H 0.55658 0.75217 0.66572 0.0
H671 H 0.57539 0.81585 0.56542 0.0
H672 H 0.60297 0.82499 0.22945 0.0
H673 H 0.60235 0.82459 0.35245 0.0
H674 H 0.59104 0.75909 0.45167 0.0
C675 C 0.56741 0.76837 0.69137 0.0
C676 C 0.57878 0.80339 0.54088 0.0
C677 C 0.56715 0.76914 0.76209 0.0
C678 C 0.59586 0.8086 0.25525 0.0
C679 C 0.59531 0.80832 0.32585 0.0
C680 C 0.58722 0.77132 0.47557 0.0
C681 C 0.58143 0.78839 0.65415 0.0
C682 C 0.58191 0.78762 0.5794 0.0
C683 C 0.58584 0.7874 0.36143 0.0
C684 C 0.58419 0.78719 0.43666 0.0
H685 H 0.60626 0.82609 0.78472 0.0
H686 H 0.60622 0.82481 0.66093 0.0
H687 H 0.58858 0.75923 0.57507 0.0
H688 H 0.57186 0.751 0.22632 0.0
H689 H 0.57005 0.75034 0.34986 0.0
C690 C 0.78922 0.56109 0.76732 0.0
C691 C 0.79439 0.58125 0.80302 0.0
C692 C 0.78949 0.56099 0.69658 0.0
C693 C 0.81391 0.599 0.54991 0.0
H694 H 0.76361 0.54931 0.45075 0.0
C695 C 0.81605 0.58683 0.26052 0.0
C696 C 0.7961 0.58233 0.22472 0.0
C697 C 0.81609 0.58657 0.33129 0.0
C698 C 0.77773 0.56332 0.47783 0.0
H699 H 0.80396 0.61716 0.79254 0.0
H700 H 0.8045 0.61696 0.66901 0.0
H701 H 0.76309 0.54921 0.57453 0.0
H702 H 0.7605 0.57391 0.23495 0.0
H703 H 0.76059 0.57336 0.35842 0.0
H704 H 0.82848 0.61319 0.45317 0.0
C705 C 0.80032 0.60127 0.69585 0.0
C706 C 0.77753 0.56316 0.54855 0.0
C707 C 0.79986 0.60132 0.76655 0.0
C708 C 0.77617 0.57747 0.26104 0.0
C709 C 0.77615 0.57701 0.33172 0.0
C710 C 0.81422 0.59905 0.47918 0.0
C711 C 0.79513 0.58111 0.66021 0.0
C712 C 0.79555 0.58106 0.58524 0.0
C713 C 0.79611 0.5816 0.36751 0.0
C714 C 0.79607 0.58128 0.44248 0.0
H715 H 0.78493 0.54534 0.79393 0.0
H716 H 0.78559 0.54526 0.67033 0.0
H717 H 0.82812 0.61292 0.57699 0.0
H718 H 0.83168 0.59063 0.23396 0.0
H719 H 0.83166 0.58999 0.35768 0.0
C720 C 0.22923 0.7905 0.22267 0.0
C721 C 0.2135 0.79431 0.18585 0.0
C722 C 0.22975 0.79164 0.2933 0.0
C723 C 0.23619 0.80799 0.43897 0.0
H724 H 0.17876 0.78147 0.53837 0.0
C725 C 0.23287 0.81685 0.72961 0.0
C726 C 0.21661 0.79718 0.7646 0.0
C727 C 0.2327 0.8174 0.65883 0.0
C728 C 0.19495 0.78883 0.51137 0.0
H729 H 0.18607 0.80242 0.19421 0.0
H730 H 0.18721 0.8047 0.31739 0.0
H731 H 0.17802 0.78019 0.41514 0.0
H732 H 0.18761 0.76255 0.75288 0.0
H733 H 0.18759 0.76337 0.62986 0.0
H734 H 0.25308 0.81595 0.53538 0.0
C735 C 0.19888 0.80047 0.29174 0.0
C736 C 0.19453 0.78835 0.44072 0.0
C737 C 0.19829 0.79924 0.22111 0.0
C738 C 0.2003 0.77804 0.7275 0.0
C739 C 0.20018 0.77855 0.65692 0.0
C740 C 0.23661 0.8084 0.50969 0.0
C741 C 0.21463 0.7967 0.32863 0.0
C742 C 0.21514 0.79779 0.40371 0.0
C743 C 0.2163 0.79826 0.62176 0.0
C744 C 0.21598 0.79867 0.54666 0.0
H745 H 0.24114 0.78659 0.19703 0.0
H746 H 0.24184 0.78827 0.32026 0.0
H747 H 0.25239 0.81569 0.4119 0.0
H748 H 0.2456 0.83192 0.7568 0.0
H749 H 0.24519 0.83292 0.63321 0.0
C750 C 0.40609 0.19314 0.73568 0.0
C751 C 0.41921 0.21372 0.7719 0.0
C752 C 0.40612 0.1932 0.66497 0.0
C753 C 0.41315 0.22869 0.51953 0.0
H754 H 0.42919 0.18861 0.42128 0.0
C755 C 0.42509 0.23474 0.2298 0.0
C756 C 0.41844 0.21433 0.19369 0.0
C757 C 0.42523 0.23474 0.30053 0.0
C758 C 0.42427 0.19963 0.44774 0.0
H759 H 0.44236 0.25052 0.7629 0.0
H760 H 0.4419 0.25064 0.63898 0.0
H761 H 0.42877 0.18809 0.54475 0.0
H762 H 0.40618 0.17781 0.20276 0.0
H763 H 0.40545 0.17754 0.32592 0.0
H764 H 0.40782 0.23973 0.4232 0.0
C765 C 0.43184 0.2345 0.66553 0.0
C766 C 0.42418 0.19939 0.51842 0.0
C767 C 0.43219 0.23439 0.73622 0.0
C768 C 0.41163 0.19386 0.22941 0.0
C769 C 0.41136 0.19376 0.30008 0.0
C770 C 0.41282 0.22864 0.44882 0.0
C771 C 0.41889 0.2139 0.62944 0.0
C772 C 0.41873 0.21399 0.55477 0.0
C773 C 0.41833 0.21423 0.33662 0.0
C774 C 0.41847 0.21417 0.41196 0.0
H775 H 0.39599 0.17695 0.76195 0.0
H776 H 0.39594 0.17713 0.63799 0.0
H777 H 0.40868 0.23993 0.54676 0.0
H778 H 0.43059 0.25081 0.20342 0.0
H779 H 0.43111 0.25091 0.32679 0.0
loop_
_geom_bond_atom_site_label_1
_geom_bond_atom_site_label_2
_geom_bond_distance
_geom_bond_site_symmetry_2
_ccdc_geom_bond_type
Eu0 C9 2.828 1_556 S
Eu0 O11 2.392 . S
Eu0 O13 2.418 . S
Eu0 O18 2.373 . S
Eu0 O21 2.488 . S
Eu0 O22 2.471 1_556 S
Eu0 O23 2.349 1_556 S
Eu1 O10 2.373 . S
Eu1 O14 2.488 . S
Eu1 O15 2.471 1_554 S
Eu1 O16 2.349 1_554 S
Eu1 O19 2.392 . S
Eu1 O20 2.418 . S
Eu1 C30 2.828 1_554 S
C2 O20 1.244 . S
C2 O23 1.265 . S
C3 C4 1.379 . S
C3 C7 1.373 1_554 S
C3 C9 1.505 . S
C4 C3 1.379 . S
C4 C6 1.369 . S
C4 H32 0.930 . S
C5 C7 1.383 . S
C5 C8 1.382 1_556 S
C5 H33 0.930 . S
C6 C4 1.369 . S
C6 C8 1.392 . S
C6 H34 0.930 . S
C7 C3 1.373 1_556 S
C7 C5 1.383 . S
C7 H35 0.931 . S
C8 C5 1.382 1_554 S
C8 C6 1.392 . S
C9 Eu0 2.828 1_554 S
C9 C3 1.505 . S
C9 O21 1.249 1_554 S
C9 O22 1.244 . S
O10 Eu1 2.373 . S
O10 C12 1.258 . S
O11 Eu0 2.392 . S
O11 C12 1.242 1_556 S
C12 O10 1.258 . S
C12 O11 1.242 1_554 S
O13 Eu0 2.418 . S
O13 C17 1.244 . S
O14 Eu1 2.488 . S
O14 C30 1.249 1_554 S
O15 Eu1 2.471 1_556 S
O15 C30 1.244 . S
O16 Eu1 2.349 1_556 S
O16 C17 1.265 . S
C17 O13 1.244 . S
C17 O16 1.265 . S
O18 Eu0 2.373 . S
O18 C31 1.258 . S
O19 Eu1 2.392 . S
O19 C31 1.242 1_554 S
O20 Eu1 2.418 . S
O20 C2 1.244 . S
O21 Eu0 2.488 . S
O21 C9 1.249 1_556 S
O22 Eu0 2.471 1_554 S
O22 C9 1.244 . S
O23 Eu0 2.349 1_554 S
O23 C2 1.265 . S
C24 C25 1.379 . S
C24 C28 1.373 1_556 S
C24 C30 1.505 . S
C25 C24 1.379 . S
C25 C27 1.369 . S
C25 H36 0.930 . S
C26 C28 1.383 . S
C26 C29 1.382 1_554 S
C26 H37 0.930 . S
C27 C25 1.369 . S
C27 C29 1.392 . S
C27 H38 0.930 . S
C28 C24 1.373 1_554 S
C28 C26 1.383 . S
C28 H39 0.931 . S
C29 C26 1.382 1_556 S
C29 C27 1.392 . S
C30 Eu1 2.828 1_556 S
C30 O14 1.249 1_556 S
C30 O15 1.244 . S
C30 C24 1.505 . S
C31 O18 1.258 . S
C31 O19 1.242 1_556 S
H32 C4 0.930 . S
H33 C5 0.930 . S
H34 C6 0.930 . S
H35 C7 0.931 . S
H36 C25 0.930 . S
H37 C26 0.930 . S
H38 C27 0.930 . S
H39 C28 0.931 . S
Eu40 C49 2.828 1_556 S
Eu40 O51 2.392 . S
Eu40 O53 2.418 . S
Eu40 O58 2.373 . S
Eu40 O61 2.488 . S
Eu40 O62 2.471 1_556 S
Eu40 O63 2.349 1_556 S
Eu41 O50 2.373 . S
Eu41 O54 2.488 . S
Eu41 O55 2.471 1_554 S
Eu41 O56 2.349 1_554 S
Eu41 O59 2.392 . S
Eu41 O60 2.418 . S
Eu41 C70 2.828 1_554 S
C42 O60 1.244 . S
C42 O63 1.265 . S
C43 C44 1.379 . S
C43 C47 1.373 1_554 S
C43 C49 1.505 . S
C44 C43 1.379 . S
C44 C46 1.369 . S
C44 H72 0.930 . S
C45 C47 1.383 . S
C45 C48 1.382 1_556 S
C45 H73 0.930 . S
C46 C44 1.369 . S
C46 C48 1.392 . S
C46 H74 0.930 . S
C47 C43 1.373 1_556 S
C47 C45 1.383 . S
C47 H75 0.931 . S
C48 C45 1.382 1_554 S
C48 C46 1.392 . S
C49 Eu40 2.828 1_554 S
C49 C43 1.505 . S
C49 O61 1.249 1_554 S
C49 O62 1.244 . S
O50 Eu41 2.373 . S
O50 C52 1.258 . S
O51 Eu40 2.392 . S
O51 C52 1.242 1_556 S
C52 O50 1.258 . S
C52 O51 1.242 1_554 S
O53 Eu40 2.418 . S
O53 C57 1.244 . S
O54 Eu41 2.488 . S
O54 C70 1.249 1_554 S
O55 Eu41 2.471 1_556 S
O55 C70 1.244 . S
O56 Eu41 2.349 1_556 S
O56 C57 1.265 . S
C57 O53 1.244 . S
C57 O56 1.265 . S
O58 Eu40 2.373 . S
O58 C71 1.258 . S
O59 Eu41 2.392 . S
O59 C71 1.242 1_554 S
O60 Eu41 2.418 . S
O60 C42 1.244 . S
O61 Eu40 2.488 . S
O61 C49 1.249 1_556 S
O62 Eu40 2.471 1_554 S
O62 C49 1.244 . S
O63 Eu40 2.349 1_554 S
O63 C42 1.265 . S
C64 C65 1.379 . S
C64 C68 1.373 1_556 S
C64 C70 1.505 . S
C65 C64 1.379 . S
C65 C67 1.369 . S
C65 H76 0.930 . S
C66 C68 1.383 . S
C66 C69 1.382 1_554 S
C66 H77 0.930 . S
C67 C65 1.369 . S
C67 C69 1.392 . S
C67 H78 0.930 . S
C68 C64 1.373 1_554 S
C68 C66 1.383 . S
C68 H79 0.931 . S
C69 C66 1.382 1_556 S
C69 C67 1.392 . S
C70 Eu41 2.828 1_556 S
C70 O54 1.249 1_556 S
C70 O55 1.244 . S
C70 C64 1.505 . S
C71 O58 1.258 . S
C71 O59 1.242 1_556 S
H72 C44 0.930 . S
H73 C45 0.930 . S
H74 C46 0.930 . S
H75 C47 0.931 . S
H76 C65 0.930 . S
H77 C66 0.930 . S
H78 C67 0.930 . S
H79 C68 0.931 . S
Eu80 C89 2.828 1_556 S
Eu80 O91 2.392 . S
Eu80 O93 2.418 . S
Eu80 O98 2.373 . S
Eu80 O101 2.488 . S
Eu80 O102 2.471 1_556 S
Eu80 O103 2.349 1_556 S
Eu81 O90 2.373 . S
Eu81 O94 2.488 . S
Eu81 O95 2.471 1_554 S
Eu81 O96 2.349 1_554 S
Eu81 O99 2.392 . S
Eu81 O100 2.418 . S
Eu81 C110 2.828 1_554 S
C82 O100 1.244 . S
C82 O103 1.265 . S
C83 C84 1.379 . S
C83 C87 1.373 1_554 S
C83 C89 1.505 . S
C84 C83 1.379 . S
C84 C86 1.369 . S
C84 H112 0.930 . S
C85 C87 1.383 . S
C85 C88 1.382 1_556 S
C85 H113 0.930 . S
C86 C84 1.369 . S
C86 C88 1.392 . S
C86 H114 0.930 . S
C87 C83 1.373 1_556 S
C87 C85 1.383 . S
C87 H115 0.931 . S
C88 C85 1.382 1_554 S
C88 C86 1.392 . S
C89 Eu80 2.828 1_554 S
C89 C83 1.505 . S
C89 O101 1.249 1_554 S
C89 O102 1.244 . S
O90 Eu81 2.373 . S
O90 C92 1.258 . S
O91 Eu80 2.392 . S
O91 C92 1.242 1_556 S
C92 O90 1.258 . S
C92 O91 1.242 1_554 S
O93 Eu80 2.418 . S
O93 C97 1.244 . S
O94 Eu81 2.488 . S
O94 C110 1.249 1_554 S
O95 Eu81 2.471 1_556 S
O95 C110 1.244 . S
O96 Eu81 2.349 1_556 S
O96 C97 1.265 . S
C97 O93 1.244 . S
C97 O96 1.265 . S
O98 Eu80 2.373 . S
O98 C111 1.258 . S
O99 Eu81 2.392 . S
O99 C111 1.242 1_554 S
O100 Eu81 2.418 . S
O100 C82 1.244 . S
O101 Eu80 2.488 . S
O101 C89 1.249 1_556 S
O102 Eu80 2.471 1_554 S
O102 C89 1.244 . S
O103 Eu80 2.349 1_554 S
O103 C82 1.265 . S
C104 C105 1.379 . S
C104 C108 1.373 1_556 S
C104 C110 1.505 . S
C105 C104 1.379 . S
C105 C107 1.369 . S
C105 H116 0.930 . S
C106 C108 1.383 . S
C106 C109 1.382 1_554 S
C106 H117 0.930 . S
C107 C105 1.369 . S
C107 C109 1.392 . S
C107 H118 0.930 . S
C108 C104 1.373 1_554 S
C108 C106 1.383 . S
C108 H119 0.931 . S
C109 C106 1.382 1_556 S
C109 C107 1.392 . S
C110 Eu81 2.828 1_556 S
C110 O94 1.249 1_556 S
C110 O95 1.244 . S
C110 C104 1.505 . S
C111 O98 1.258 . S
C111 O99 1.242 1_556 S
H112 C84 0.930 . S
H113 C85 0.930 . S
H114 C86 0.930 . S
H115 C87 0.931 . S
H116 C105 0.930 . S
H117 C106 0.930 . S
H118 C107 0.930 . S
H119 C108 0.931 . S
Eu120 C129 2.828 1_556 S
Eu120 O131 2.392 . S
Eu120 O133 2.418 . S
Eu120 O138 2.373 . S
Eu120 O141 2.488 . S
Eu120 O142 2.471 1_556 S
Eu120 O143 2.349 1_556 S
Eu121 O130 2.373 . S
Eu121 O134 2.488 . S
Eu121 O135 2.471 1_554 S
Eu121 O136 2.349 1_554 S
Eu121 O139 2.392 . S
Eu121 O140 2.418 . S
Eu121 C150 2.828 1_554 S
C122 O140 1.244 . S
C122 O143 1.265 . S
C123 C124 1.379 . S
C123 C127 1.373 1_554 S
C123 C129 1.505 . S
C124 C123 1.379 . S
C124 C126 1.369 . S
C124 H152 0.930 . S
C125 C127 1.383 . S
C125 C128 1.382 1_556 S
C125 H153 0.930 . S
C126 C124 1.369 . S
C126 C128 1.392 . S
C126 H154 0.930 . S
C127 C123 1.373 1_556 S
C127 C125 1.383 . S
C127 H155 0.931 . S
C128 C125 1.382 1_554 S
C128 C126 1.392 . S
C129 Eu120 2.828 1_554 S
C129 C123 1.505 . S
C129 O141 1.249 1_554 S
C129 O142 1.244 . S
O130 Eu121 2.373 . S
O130 C132 1.258 . S
O131 Eu120 2.392 . S
O131 C132 1.242 1_556 S
C132 O130 1.258 . S
C132 O131 1.242 1_554 S
O133 Eu120 2.418 . S
O133 C137 1.244 . S
O134 Eu121 2.488 . S
O134 C150 1.249 1_554 S
O135 Eu121 2.471 1_556 S
O135 C150 1.244 . S
O136 Eu121 2.349 1_556 S
O136 C137 1.265 . S
C137 O133 1.244 . S
C137 O136 1.265 . S
O138 Eu120 2.373 . S
O138 C151 1.258 . S
O139 Eu121 2.392 . S
O139 C151 1.242 1_554 S
O140 Eu121 2.418 . S
O140 C122 1.244 . S
O141 Eu120 2.488 . S
O141 C129 1.249 1_556 S
O142 Eu120 2.471 1_554 S
O142 C129 1.244 . S
O143 Eu120 2.349 1_554 S
O143 C122 1.265 . S
C144 C145 1.379 . S
C144 C148 1.373 1_556 S
C144 C150 1.505 . S
C145 C144 1.379 . S
C145 C147 1.369 . S
C145 H156 0.930 . S
C146 C148 1.383 . S
C146 C149 1.382 1_554 S
C146 H157 0.930 . S
C147 C145 1.369 . S
C147 C149 1.392 . S
C147 H158 0.930 . S
C148 C144 1.373 1_554 S
C148 C146 1.383 . S
C148 H159 0.931 . S
C149 C146 1.382 1_556 S
C149 C147 1.392 . S
C150 Eu121 2.828 1_556 S
C150 O134 1.249 1_556 S
C150 O135 1.244 . S
C150 C144 1.505 . S
C151 O138 1.258 . S
C151 O139 1.242 1_556 S
H152 C124 0.930 . S
H153 C125 0.930 . S
H154 C126 0.930 . S
H155 C127 0.931 . S
H156 C145 0.930 . S
H157 C146 0.930 . S
H158 C147 0.930 . S
H159 C148 0.931 . S
Eu160 C169 2.828 1_556 S
Eu160 O171 2.392 . S
Eu160 O173 2.418 . S
Eu160 O178 2.373 . S
Eu160 O181 2.488 . S
Eu160 O182 2.471 1_556 S
Eu160 O183 2.349 1_556 S
Eu161 O170 2.373 . S
Eu161 O174 2.488 . S
Eu161 O175 2.471 1_554 S
Eu161 O176 2.349 1_554 S
Eu161 O179 2.392 . S
Eu161 O180 2.418 . S
Eu161 C190 2.828 1_554 S
C162 O180 1.244 . S
C162 O183 1.265 . S
C163 C164 1.379 . S
C163 C167 1.373 1_554 S
C163 C169 1.505 . S
C164 C163 1.379 . S
C164 C166 1.369 . S
C164 H192 0.930 . S
C165 C167 1.383 . S
C165 C168 1.382 1_556 S
C165 H193 0.930 . S
C166 C164 1.369 . S
C166 C168 1.392 . S
C166 H194 0.930 . S
C167 C163 1.373 1_556 S
C167 C165 1.383 . S
C167 H195 0.931 . S
C168 C165 1.382 1_554 S
C168 C166 1.392 . S
C169 Eu160 2.828 1_554 S
C169 C163 1.505 . S
C169 O181 1.249 1_554 S
C169 O182 1.244 . S
O170 Eu161 2.373 . S
O170 C172 1.258 . S
O171 Eu160 2.392 . S
O171 C172 1.242 1_556 S
C172 O170 1.258 . S
C172 O171 1.242 1_554 S
O173 Eu160 2.418 . S
O173 C177 1.244 . S
O174 Eu161 2.488 . S
O174 C190 1.249 1_554 S
O175 Eu161 2.471 1_556 S
O175 C190 1.244 . S
O176 Eu161 2.349 1_556 S
O176 C177 1.265 . S
C177 O173 1.244 . S
C177 O176 1.265 . S
O178 Eu160 2.373 . S
O178 C191 1.258 . S
O179 Eu161 2.392 . S
O179 C191 1.242 1_554 S
O180 Eu161 2.418 . S
O180 C162 1.244 . S
O181 Eu160 2.488 . S
O181 C169 1.249 1_556 S
O182 Eu160 2.471 1_554 S
O182 C169 1.244 . S
O183 Eu160 2.349 1_554 S
O183 C162 1.265 . S
C184 C185 1.379 . S
C184 C188 1.373 1_556 S
C184 C190 1.505 . S
C185 C184 1.379 . S
C185 C187 1.369 . S
C185 H196 0.930 . S
C186 C188 1.383 . S
C186 C189 1.382 1_554 S
C186 H197 0.930 . S
C187 C185 1.369 . S
C187 C189 1.392 . S
C187 H198 0.930 . S
C188 C184 1.373 1_554 S
C188 C186 1.383 . S
C188 H199 0.931 . S
C189 C186 1.382 1_556 S
C189 C187 1.392 . S
C190 Eu161 2.828 1_556 S
C190 O174 1.249 1_556 S
C190 O175 1.244 . S
C190 C184 1.505 . S
C191 O178 1.258 . S
C191 O179 1.242 1_556 S
H192 C164 0.930 . S
H193 C165 0.930 . S
H194 C166 0.930 . S
H195 C167 0.931 . S
H196 C185 0.930 . S
H197 C186 0.930 . S
H198 C187 0.930 . S
H199 C188 0.931 . S
Eu200 C209 2.828 1_556 S
Eu200 O211 2.392 . S
Eu200 O213 2.418 . S
Eu200 O218 2.373 . S
Eu200 O221 2.488 . S
Eu200 O222 2.471 1_556 S
Eu200 O223 2.349 1_556 S
Eu201 O210 2.373 . S
Eu201 O214 2.488 . S
Eu201 O215 2.471 1_554 S
Eu201 O216 2.349 1_554 S
Eu201 O219 2.392 . S
Eu201 O220 2.418 . S
Eu201 C230 2.828 1_554 S
C202 O220 1.244 . S
C202 O223 1.265 . S
C203 C204 1.379 . S
C203 C207 1.373 1_554 S
C203 C209 1.505 . S
C204 C203 1.379 . S
C204 C206 1.369 . S
C204 H232 0.930 . S
C205 C207 1.383 . S
C205 C208 1.382 1_556 S
C205 H233 0.930 . S
C206 C204 1.369 . S
C206 C208 1.392 . S
C206 H234 0.930 . S
C207 C203 1.373 1_556 S
C207 C205 1.383 . S
C207 H235 0.931 . S
C208 C205 1.382 1_554 S
C208 C206 1.392 . S
C209 Eu200 2.828 1_554 S
C209 C203 1.505 . S
C209 O221 1.249 1_554 S
C209 O222 1.244 . S
O210 Eu201 2.373 . S
O210 C212 1.258 . S
O211 Eu200 2.392 . S
O211 C212 1.242 1_556 S
C212 O210 1.258 . S
C212 O211 1.242 1_554 S
O213 Eu200 2.418 . S
O213 C217 1.244 . S
O214 Eu201 2.488 . S
O214 C230 1.249 1_554 S
O215 Eu201 2.471 1_556 S
O215 C230 1.244 . S
O216 Eu201 2.349 1_556 S
O216 C217 1.265 . S
C217 O213 1.244 . S
C217 O216 1.265 . S
O218 Eu200 2.373 . S
O218 C231 1.258 . S
O219 Eu201 2.392 . S
O219 C231 1.242 1_554 S
O220 Eu201 2.418 . S
O220 C202 1.244 . S
O221 Eu200 2.488 . S
O221 C209 1.249 1_556 S
O222 Eu200 2.471 1_554 S
O222 C209 1.244 . S
O223 Eu200 2.349 1_554 S
O223 C202 1.265 . S
C224 C225 1.379 . S
C224 C228 1.373 1_556 S
C224 C230 1.505 . S
C225 C224 1.379 . S
C225 C227 1.369 . S
C225 H236 0.930 . S
C226 C228 1.383 . S
C226 C229 1.382 1_554 S
C226 H237 0.930 . S
C227 C225 1.369 . S
C227 C229 1.392 . S
C227 H238 0.930 . S
C228 C224 1.373 1_554 S
C228 C226 1.383 . S
C228 H239 0.931 . S
C229 C226 1.382 1_556 S
C229 C227 1.392 . S
C230 Eu201 2.828 1_556 S
C230 O214 1.249 1_556 S
C230 O215 1.244 . S
C230 C224 1.505 . S
C231 O218 1.258 . S
C231 O219 1.242 1_556 S
H232 C204 0.930 . S
H233 C205 0.930 . S
H234 C206 0.930 . S
H235 C207 0.931 . S
H236 C225 0.930 . S
H237 C226 0.930 . S
H238 C227 0.930 . S
H239 C228 0.931 . S
C240 C241 1.349 1_554 S
C240 C242 1.327 . S
C240 H265 0.950 . S
C241 C240 1.349 1_556 S
C241 C257 1.349 . S
C242 C240 1.327 . S
C242 C261 1.429 . S
C242 H266 0.950 . S
C243 C260 1.574 . S
C243 C262 1.368 1_556 S
C243 H267 0.949 . S
H244 C248 0.949 . S
C245 C246 1.349 1_556 S
C245 C247 1.327 . S
C245 H268 0.950 . S
C246 C245 1.349 1_554 S
C246 C258 1.349 . S
C247 C245 1.327 . S
C247 C263 1.429 1_556 S
C247 H269 0.950 . S
C248 H244 0.949 . S
C248 C256 1.574 . S
C248 C264 1.368 . S
H249 C257 0.950 . S
H250 C255 0.950 . S
H251 C256 0.949 . S
H252 C258 0.950 . S
H253 C259 0.950 . S
H254 C260 0.949 . S
C255 H250 0.950 . S
C255 C257 1.327 . S
C255 C261 1.429 1_556 S
C256 C248 1.574 . S
C256 H251 0.949 . S
C256 C262 1.368 . S
C257 C241 1.349 . S
C257 H249 0.950 . S
C257 C255 1.327 . S
C258 C246 1.349 . S
C258 H252 0.950 . S
C258 C259 1.327 . S
C259 H253 0.950 . S
C259 C258 1.327 . S
C259 C263 1.429 . S
C260 C243 1.574 . S
C260 H254 0.949 . S
C260 C264 1.368 1_556 S
C261 C242 1.429 . S
C261 C255 1.429 1_554 S
C261 C262 1.523 . S
C262 C243 1.368 1_554 S
C262 C256 1.368 . S
C262 C261 1.523 . S
C263 C247 1.429 1_554 S
C263 C259 1.429 . S
C263 C264 1.523 . S
C264 C248 1.368 . S
C264 C260 1.368 1_554 S
C264 C263 1.523 . S
H265 C240 0.950 . S
H266 C242 0.950 . S
H267 C243 0.949 . S
H268 C245 0.950 . S
H269 C247 0.950 . S
C270 C271 1.349 1_554 S
C270 C272 1.327 . S
C270 H295 0.950 . S
C271 C270 1.349 1_556 S
C271 C287 1.349 . S
C272 C270 1.327 . S
C272 C291 1.429 . S
C272 H296 0.950 . S
C273 C290 1.574 . S
C273 C292 1.368 1_556 S
C273 H297 0.949 . S
H274 C278 0.949 . S
C275 C276 1.349 1_556 S
C275 C277 1.327 . S
C275 H298 0.950 . S
C276 C275 1.349 1_554 S
C276 C288 1.349 . S
C277 C275 1.327 . S
C277 C293 1.429 1_556 S
C277 H299 0.950 . S
C278 H274 0.949 . S
C278 C286 1.574 . S
C278 C294 1.368 . S
H279 C287 0.950 . S
H280 C285 0.950 . S
H281 C286 0.949 . S
H282 C288 0.950 . S
H283 C289 0.950 . S
H284 C290 0.949 . S
C285 H280 0.950 . S
C285 C287 1.327 . S
C285 C291 1.429 1_556 S
C286 C278 1.574 . S
C286 H281 0.949 . S
C286 C292 1.368 . S
C287 C271 1.349 . S
C287 H279 0.950 . S
C287 C285 1.327 . S
C288 C276 1.349 . S
C288 H282 0.950 . S
C288 C289 1.327 . S
C289 H283 0.950 . S
C289 C288 1.327 . S
C289 C293 1.429 . S
C290 C273 1.574 . S
C290 H284 0.949 . S
C290 C294 1.368 1_556 S
C291 C272 1.429 . S
C291 C285 1.429 1_554 S
C291 C292 1.523 . S
C292 C273 1.368 1_554 S
C292 C286 1.368 . S
C292 C291 1.523 . S
C293 C277 1.429 1_554 S
C293 C289 1.429 . S
C293 C294 1.523 1_655 S
C294 C278 1.368 . S
C294 C290 1.368 1_554 S
C294 C293 1.523 1_455 S
H295 C270 0.950 . S
H296 C272 0.950 . S
H297 C273 0.949 . S
H298 C275 0.950 . S
H299 C277 0.950 . S
C300 C301 1.349 1_554 S
C300 C302 1.327 . S
C300 H325 0.950 . S
C301 C300 1.349 1_556 S
C301 C317 1.349 . S
C302 C300 1.327 . S
C302 C321 1.429 . S
C302 H326 0.950 . S
C303 C320 1.574 . S
C303 C322 1.368 1_556 S
C303 H327 0.949 . S
H304 C308 0.949 . S
C305 C306 1.349 1_556 S
C305 C307 1.327 . S
C305 H328 0.950 . S
C306 C305 1.349 1_554 S
C306 C318 1.349 . S
C307 C305 1.327 . S
C307 C323 1.429 1_556 S
C307 H329 0.950 . S
C308 H304 0.949 . S
C308 C316 1.574 . S
C308 C324 1.368 . S
H309 C317 0.950 . S
H310 C315 0.950 . S
H311 C316 0.949 . S
H312 C318 0.950 . S
H313 C319 0.950 . S
H314 C320 0.949 . S
C315 H310 0.950 . S
C315 C317 1.327 . S
C315 C321 1.429 1_556 S
C316 C308 1.574 . S
C316 H311 0.949 . S
C316 C322 1.368 . S
C317 C301 1.349 . S
C317 H309 0.950 . S
C317 C315 1.327 . S
C318 C306 1.349 . S
C318 H312 0.950 . S
C318 C319 1.327 . S
C319 H313 0.950 . S
C319 C318 1.327 . S
C319 C323 1.429 . S
C320 C303 1.574 . S
C320 H314 0.949 . S
C320 C324 1.368 1_556 S
C321 C302 1.429 . S
C321 C315 1.429 1_554 S
C321 C322 1.523 . S
C322 C303 1.368 1_554 S
C322 C316 1.368 . S
C322 C321 1.523 . S
C323 C307 1.429 1_554 S
C323 C319 1.429 . S
C323 C324 1.523 1_565 S
C324 C308 1.368 . S
C324 C320 1.368 1_554 S
C324 C323 1.523 1_545 S
H325 C300 0.950 . S
H326 C302 0.950 . S
H327 C303 0.949 . S
H328 C305 0.950 . S
H329 C307 0.950 . S
C330 C331 1.349 1_556 S
C330 C332 1.327 . S
C330 H355 0.950 . S
C331 C330 1.349 1_554 S
C331 C347 1.349 . S
C332 C330 1.327 . S
C332 C351 1.429 1_556 S
C332 H356 0.950 . S
C333 C350 1.574 . S
C333 C352 1.368 . S
C333 H357 0.949 . S
H334 C338 0.949 . S
C335 C336 1.349 1_554 S
C335 C337 1.327 . S
C335 H358 0.950 . S
C336 C335 1.349 1_556 S
C336 C348 1.349 . S
C337 C335 1.327 . S
C337 C353 1.429 . S
C337 H359 0.950 . S
C338 H334 0.949 . S
C338 C346 1.574 . S
C338 C354 1.368 1_556 S
H339 C347 0.950 . S
H340 C345 0.950 . S
H341 C346 0.949 . S
H342 C348 0.950 . S
H343 C349 0.950 . S
H344 C350 0.949 . S
C345 H340 0.950 . S
C345 C347 1.327 . S
C345 C351 1.429 . S
C346 C338 1.574 . S
C346 H341 0.949 . S
C346 C352 1.368 1_556 S
C347 C331 1.349 . S
C347 H339 0.950 . S
C347 C345 1.327 . S
C348 C336 1.349 . S
C348 H342 0.950 . S
C348 C349 1.327 . S
C349 H343 0.950 . S
C349 C348 1.327 . S
C349 C353 1.429 1_556 S
C350 C333 1.574 . S
C350 H344 0.949 . S
C350 C354 1.368 . S
C351 C332 1.429 1_554 S
C351 C345 1.429 . S
C351 C352 1.523 . S
C352 C333 1.368 . S
C352 C346 1.368 1_554 S
C352 C351 1.523 . S
C353 C337 1.429 . S
C353 C349 1.429 1_554 S
C353 C354 1.523 . S
C354 C338 1.368 1_554 S
C354 C350 1.368 . S
C354 C353 1.523 . S
H355 C330 0.950 . S
H356 C332 0.950 . S
H357 C333 0.949 . S
H358 C335 0.950 . S
H359 C337 0.950 . S
C360 C361 1.349 . S
C360 C362 1.327 . S
C360 H385 0.950 . S
C361 C360 1.349 . S
C361 C377 1.349 1_554 S
C362 C360 1.327 . S
C362 C381 1.429 . S
C362 H386 0.950 . S
C363 C380 1.574 . S
C363 C382 1.368 1_556 S
C363 H387 0.949 . S
H364 C368 0.949 . S
C365 C366 1.349 . S
C365 C367 1.327 . S
C365 H388 0.950 . S
C366 C365 1.349 . S
C366 C378 1.349 1_556 S
C367 C365 1.327 . S
C367 C383 1.429 1_556 S
C367 H389 0.950 . S
C368 H364 0.949 . S
C368 C376 1.574 . S
C368 C384 1.368 . S
H369 C377 0.950 . S
H370 C375 0.950 . S
H371 C376 0.949 . S
H372 C378 0.950 . S
H373 C379 0.950 . S
H374 C380 0.949 . S
C375 H370 0.950 . S
C375 C377 1.327 . S
C375 C381 1.429 1_556 S
C376 C368 1.574 . S
C376 H371 0.949 . S
C376 C382 1.368 . S
C377 C361 1.349 1_556 S
C377 H369 0.950 . S
C377 C375 1.327 . S
C378 C366 1.349 1_554 S
C378 H372 0.950 . S
C378 C379 1.327 . S
C379 H373 0.950 . S
C379 C378 1.327 . S
C379 C383 1.429 . S
C380 C363 1.574 . S
C380 H374 0.949 . S
C380 C384 1.368 1_556 S
C381 C362 1.429 . S
C381 C375 1.429 1_554 S
C381 C382 1.523 1_455 S
C382 C363 1.368 1_554 S
C382 C376 1.368 . S
C382 C381 1.523 1_655 S
C383 C367 1.429 1_554 S
C383 C379 1.429 . S
C383 C384 1.523 . S
C384 C368 1.368 . S
C384 C380 1.368 1_554 S
C384 C383 1.523 . S
H385 C360 0.950 . S
H386 C362 0.950 . S
H387 C363 0.949 . S
H388 C365 0.950 . S
H389 C367 0.950 . S
C390 C391 1.349 1_554 S
C390 C392 1.327 . S
C390 H415 0.950 . S
C391 C390 1.349 1_556 S
C391 C407 1.349 . S
C392 C390 1.327 . S
C392 C411 1.429 . S
C392 H416 0.950 . S
C393 C410 1.574 . S
C393 C412 1.368 1_556 S
C393 H417 0.949 . S
H394 C398 0.949 . S
C395 C396 1.349 1_556 S
C395 C397 1.327 . S
C395 H418 0.950 . S
C396 C395 1.349 1_554 S
C396 C408 1.349 . S
C397 C395 1.327 . S
C397 C413 1.429 1_556 S
C397 H419 0.950 . S
C398 H394 0.949 . S
C398 C406 1.574 . S
C398 C414 1.368 . S
H399 C407 0.950 . S
H400 C405 0.950 . S
H401 C406 0.949 . S
H402 C408 0.950 . S
H403 C409 0.950 . S
H404 C410 0.949 . S
C405 H400 0.950 . S
C405 C407 1.327 . S
C405 C411 1.429 1_556 S
C406 C398 1.574 . S
C406 H401 0.949 . S
C406 C412 1.368 . S
C407 C391 1.349 . S
C407 H399 0.950 . S
C407 C405 1.327 . S
C408 C396 1.349 . S
C408 H402 0.950 . S
C408 C409 1.327 . S
C409 H403 0.950 . S
C409 C408 1.327 . S
C409 C413 1.429 . S
C410 C393 1.574 . S
C410 H404 0.949 . S
C410 C414 1.368 1_556 S
C411 C392 1.429 . S
C411 C405 1.429 1_554 S
C411 C412 1.523 . S
C412 C393 1.368 1_554 S
C412 C406 1.368 . S
C412 C411 1.523 . S
C413 C397 1.429 1_554 S
C413 C409 1.429 . S
C413 C414 1.523 1_545 S
C414 C398 1.368 . S
C414 C410 1.368 1_554 S
C414 C413 1.523 1_565 S
H415 C390 0.950 . S
H416 C392 0.950 . S
H417 C393 0.949 . S
H418 C395 0.950 . S
H419 C397 0.950 . S
C420 C421 1.343 1_556 S
C420 C422 1.327 . S
C420 H445 0.950 . S
C421 C420 1.343 1_554 S
C421 C437 1.355 . S
C422 C420 1.327 . S
C422 C441 1.429 . S
C422 H446 0.950 . S
C423 C440 1.574 . S
C423 C442 1.368 1_554 S
C423 H447 0.949 . S
H424 C428 0.949 . S
C425 C426 1.349 1_554 S
C425 C427 1.327 . S
C425 H448 0.950 . S
C426 C425 1.349 1_556 S
C426 C438 1.349 . S
C427 C425 1.327 . S
C427 C443 1.429 1_554 S
C427 H449 0.950 . S
C428 H424 0.949 . S
C428 C436 1.574 . S
C428 C444 1.368 . S
H429 C437 0.950 . S
H430 C435 0.950 . S
H431 C436 0.949 . S
H432 C438 0.950 . S
H433 C439 0.950 . S
H434 C440 0.949 . S
C435 H430 0.950 . S
C435 C437 1.327 . S
C435 C441 1.429 1_554 S
C436 C428 1.574 . S
C436 H431 0.949 . S
C436 C442 1.368 . S
C437 C421 1.355 . S
C437 H429 0.950 . S
C437 C435 1.327 . S
C438 C426 1.349 . S
C438 H432 0.950 . S
C438 C439 1.327 . S
C439 H433 0.950 . S
C439 C438 1.327 . S
C439 C443 1.429 . S
C440 C423 1.574 . S
C440 H434 0.949 . S
C440 C444 1.368 1_554 S
C441 C422 1.429 . S
C441 C435 1.429 1_556 S
C441 C442 1.523 . S
C442 C423 1.368 1_556 S
C442 C436 1.368 . S
C442 C441 1.523 . S
C443 C427 1.429 1_556 S
C443 C439 1.429 . S
C443 C444 1.523 . S
C444 C428 1.368 . S
C444 C440 1.368 1_556 S
C444 C443 1.523 . S
H445 C420 0.950 . S
H446 C422 0.950 . S
H447 C423 0.949 . S
H448 C425 0.950 . S
H449 C427 0.950 . S
C450 C451 1.342 1_556 S
C450 C452 1.327 . S
C450 H475 0.950 . S
C451 C450 1.342 1_554 S
C451 C467 1.355 . S
C452 C450 1.327 . S
C452 C471 1.429 . S
C452 H476 0.950 . S
C453 C470 1.574 . S
C453 C472 1.368 1_554 S
C453 H477 0.949 . S
H454 C458 0.949 . S
C455 C456 1.349 1_554 S
C455 C457 1.327 . S
C455 H478 0.950 . S
C456 C455 1.349 1_556 S
C456 C468 1.349 . S
C457 C455 1.327 . S
C457 C473 1.429 1_554 S
C457 H479 0.950 . S
C458 H454 0.949 . S
C458 C466 1.574 . S
C458 C474 1.368 . S
H459 C467 0.950 . S
H460 C465 0.950 . S
H461 C466 0.949 . S
H462 C468 0.950 . S
H463 C469 0.950 . S
H464 C470 0.949 . S
C465 H460 0.950 . S
C465 C467 1.327 . S
C465 C471 1.429 1_554 S
C466 C458 1.574 . S
C466 H461 0.949 . S
C466 C472 1.368 . S
C467 C451 1.355 . S
C467 H459 0.950 . S
C467 C465 1.327 . S
C468 C456 1.349 . S
C468 H462 0.950 . S
C468 C469 1.327 . S
C469 H463 0.950 . S
C469 C468 1.327 . S
C469 C473 1.429 . S
C470 C453 1.574 . S
C470 H464 0.949 . S
C470 C474 1.368 1_554 S
C471 C452 1.429 . S
C471 C465 1.429 1_556 S
C471 C472 1.523 . S
C472 C453 1.368 1_556 S
C472 C466 1.368 . S
C472 C471 1.523 . S
C473 C457 1.429 1_556 S
C473 C469 1.429 . S
C473 C474 1.523 . S
C474 C458 1.368 . S
C474 C470 1.368 1_556 S
C474 C473 1.523 . S
H475 C450 0.950 . S
H476 C452 0.950 . S
H477 C453 0.949 . S
H478 C455 0.950 . S
H479 C457 0.950 . S
C480 C481 1.349 1_554 S
C480 C482 1.327 . S
C480 H505 0.950 . S
C481 C480 1.349 1_556 S
C481 C497 1.349 . S
C482 C480 1.327 . S
C482 C501 1.429 1_554 S
C482 H506 0.950 . S
C483 C500 1.574 . S
C483 C502 1.368 . S
C483 H507 0.949 . S
H484 C488 0.949 . S
C485 C486 1.343 1_556 S
C485 C487 1.327 . S
C485 H508 0.950 . S
C486 C485 1.343 1_554 S
C486 C498 1.354 . S
C487 C485 1.327 . S
C487 C503 1.429 . S
C487 H509 0.950 . S
C488 H484 0.949 . S
C488 C496 1.574 . S
C488 C504 1.368 1_554 S
H489 C497 0.950 . S
H490 C495 0.950 . S
H491 C496 0.949 . S
H492 C498 0.950 . S
H493 C499 0.950 . S
H494 C500 0.949 . S
C495 H490 0.950 . S
C495 C497 1.327 . S
C495 C501 1.429 . S
C496 C488 1.574 . S
C496 H491 0.949 . S
C496 C502 1.368 1_554 S
C497 C481 1.349 . S
C497 H489 0.950 . S
C497 C495 1.327 . S
C498 C486 1.354 . S
C498 H492 0.950 . S
C498 C499 1.327 . S
C499 H493 0.950 . S
C499 C498 1.327 . S
C499 C503 1.429 1_554 S
C500 C483 1.574 . S
C500 H494 0.949 . S
C500 C504 1.368 . S
C501 C482 1.429 1_556 S
C501 C495 1.429 . S
C501 C502 1.523 . S
C502 C483 1.368 . S
C502 C496 1.368 1_556 S
C502 C501 1.523 . S
C503 C487 1.429 . S
C503 C499 1.429 1_556 S
C503 C504 1.523 . S
C504 C488 1.368 1_556 S
C504 C500 1.368 . S
C504 C503 1.523 . S
H505 C480 0.950 . S
H506 C482 0.950 . S
H507 C483 0.949 . S
H508 C485 0.950 . S
H509 C487 0.950 . S
C510 C511 1.349 . S
C510 C512 1.327 . S
C510 H535 0.950 . S
C511 C510 1.349 . S
C511 C527 1.349 1_556 S
C512 C510 1.327 . S
C512 C531 1.429 . S
C512 H536 0.950 . S
C513 C530 1.574 . S
C513 C532 1.368 1_554 S
C513 H537 0.949 . S
H514 C518 0.949 . S
C515 C516 1.355 . S
C515 C517 1.327 . S
C515 H538 0.950 . S
C516 C515 1.355 . S
C516 C528 1.343 1_554 S
C517 C515 1.327 . S
C517 C533 1.429 1_554 S
C517 H539 0.950 . S
C518 H514 0.949 . S
C518 C526 1.574 . S
C518 C534 1.368 . S
H519 C527 0.950 . S
H520 C525 0.950 . S
H521 C526 0.949 . S
H522 C528 0.950 . S
H523 C529 0.950 . S
H524 C530 0.949 . S
C525 H520 0.950 . S
C525 C527 1.327 . S
C525 C531 1.429 1_554 S
C526 C518 1.574 . S
C526 H521 0.949 . S
C526 C532 1.368 . S
C527 C511 1.349 1_554 S
C527 H519 0.950 . S
C527 C525 1.327 . S
C528 C516 1.343 1_556 S
C528 H522 0.950 . S
C528 C529 1.327 . S
C529 H523 0.950 . S
C529 C528 1.327 . S
C529 C533 1.429 . S
C530 C513 1.574 . S
C530 H524 0.949 . S
C530 C534 1.368 1_554 S
C531 C512 1.429 . S
C531 C525 1.429 1_556 S
C531 C532 1.523 . S
C532 C513 1.368 1_556 S
C532 C526 1.368 . S
C532 C531 1.523 . S
C533 C517 1.429 1_556 S
C533 C529 1.429 . S
C533 C534 1.523 . S
C534 C518 1.368 . S
C534 C530 1.368 1_556 S
C534 C533 1.523 . S
H535 C510 0.950 . S
H536 C512 0.950 . S
H537 C513 0.949 . S
H538 C515 0.950 . S
H539 C517 0.950 . S
C540 C541 1.349 . S
C540 C542 1.327 . S
C540 H565 0.950 1_556 S
C541 C540 1.349 . S
C541 C557 1.349 . S
C542 C540 1.327 . S
C542 C561 1.429 . S
C542 H566 0.950 1_556 S
C543 C560 1.574 . S
C543 C562 1.368 . S
C543 H567 0.949 . S
H544 C548 0.949 . S
C545 C546 1.346 1_556 S
C545 C547 1.327 . S
C545 H568 0.950 . S
C546 C545 1.346 1_554 S
C546 C558 1.351 . S
C547 C545 1.327 . S
C547 C563 1.429 . S
C547 H569 0.950 . S
C548 H544 0.949 . S
C548 C556 1.574 . S
C548 C564 1.368 1_554 S
H549 C557 0.950 . S
H550 C555 0.950 . S
H551 C556 0.949 . S
H552 C558 0.950 . S
H553 C559 0.950 . S
H554 C560 0.949 . S
C555 H550 0.950 . S
C555 C557 1.327 . S
C555 C561 1.429 . S
C556 C548 1.574 . S
C556 H551 0.949 . S
C556 C562 1.368 1_554 S
C557 C541 1.349 . S
C557 H549 0.950 . S
C557 C555 1.327 . S
C558 C546 1.351 . S
C558 H552 0.950 . S
C558 C559 1.327 . S
C559 H553 0.950 . S
C559 C558 1.327 . S
C559 C563 1.429 1_554 S
C560 C543 1.574 . S
C560 H554 0.949 . S
C560 C564 1.368 . S
C561 C542 1.429 . S
C561 C555 1.429 . S
C561 C562 1.523 . S
C562 C543 1.368 . S
C562 C556 1.368 1_556 S
C562 C561 1.523 . S
C563 C547 1.429 . S
C563 C559 1.429 1_556 S
C563 C564 1.523 . S
C564 C548 1.368 1_556 S
C564 C560 1.368 . S
C564 C563 1.523 . S
H565 C540 0.950 1_554 S
H566 C542 0.950 1_554 S
H567 C543 0.949 . S
H568 C545 0.950 . S
H569 C547 0.950 . S
C570 C571 1.354 . S
C570 C572 1.327 . S
C570 H595 0.950 . S
C571 C570 1.354 . S
C571 C587 1.343 1_554 S
C572 C570 1.327 . S
C572 C591 1.429 1_554 S
C572 H596 0.950 . S
C573 C590 1.574 . S
C573 C592 1.368 . S
C573 H597 0.949 . S
H574 C578 0.949 . S
C575 C576 1.349 . S
C575 C577 1.327 . S
C575 H598 0.950 . S
C576 C575 1.349 . S
C576 C588 1.349 1_556 S
C577 C575 1.327 . S
C577 C593 1.429 . S
C577 H599 0.950 . S
C578 H574 0.949 . S
C578 C586 1.574 . S
C578 C594 1.368 1_554 S
H579 C587 0.950 . S
H580 C585 0.950 . S
H581 C586 0.949 . S
H582 C588 0.950 . S
H583 C589 0.950 . S
H584 C590 0.949 . S
C585 H580 0.950 . S
C585 C587 1.327 . S
C585 C591 1.429 . S
C586 C578 1.574 . S
C586 H581 0.949 . S
C586 C592 1.368 1_554 S
C587 C571 1.343 1_556 S
C587 H579 0.950 . S
C587 C585 1.327 . S
C588 C576 1.349 1_554 S
C588 H582 0.950 . S
C588 C589 1.327 . S
C589 H583 0.950 . S
C589 C588 1.327 . S
C589 C593 1.429 1_554 S
C590 C573 1.574 . S
C590 H584 0.949 . S
C590 C594 1.368 . S
C591 C572 1.429 1_556 S
C591 C585 1.429 . S
C591 C592 1.523 . S
C592 C573 1.368 . S
C592 C586 1.368 1_556 S
C592 C591 1.523 . S
C593 C577 1.429 . S
C593 C589 1.429 1_556 S
C593 C594 1.523 . S
C594 C578 1.368 1_556 S
C594 C590 1.368 . S
C594 C593 1.523 . S
H595 C570 0.950 . S
H596 C572 0.950 . S
H597 C573 0.949 . S
H598 C575 0.950 . S
H599 C577 0.950 . S
C600 C601 1.349 . S
C600 C602 1.327 . S
C600 H625 0.950 . S
C601 C600 1.349 . S
C601 C617 1.349 . S
C602 C600 1.327 . S
C602 C621 1.429 . S
C602 H626 0.950 . S
C603 C620 1.574 . S
C603 C622 1.368 . S
C603 H627 0.949 . S
H604 C608 0.949 . S
C605 C606 1.349 . S
C605 C607 1.327 . S
C605 H628 0.950 . S
C606 C605 1.349 . S
C606 C618 1.349 . S
C607 C605 1.327 . S
C607 C623 1.429 . S
C607 H629 0.950 . S
C608 H604 0.949 . S
C608 C616 1.574 . S
C608 C624 1.368 . S
H609 C617 0.950 . S
H610 C615 0.950 . S
H611 C616 0.949 . S
H612 C618 0.950 . S
H613 C619 0.950 . S
H614 C620 0.949 . S
C615 H610 0.950 . S
C615 C617 1.327 . S
C615 C621 1.429 . S
C616 C608 1.574 . S
C616 H611 0.949 . S
C616 C622 1.368 . S
C617 C601 1.349 . S
C617 H609 0.950 . S
C617 C615 1.327 . S
C618 C606 1.349 . S
C618 H612 0.950 . S
C618 C619 1.327 . S
C619 H613 0.950 . S
C619 C618 1.327 . S
C619 C623 1.429 . S
C620 C603 1.574 . S
C620 H614 0.949 . S
C620 C624 1.368 . S
C621 C602 1.429 . S
C621 C615 1.429 . S
C621 C622 1.523 . S
C622 C603 1.368 . S
C622 C616 1.368 . S
C622 C621 1.523 . S
C623 C607 1.429 . S
C623 C619 1.429 . S
C623 C624 1.523 . S
C624 C608 1.368 . S
C624 C620 1.368 . S
C624 C623 1.523 . S
H625 C600 0.950 . S
H626 C602 0.950 . S
H627 C603 0.949 . S
H628 C605 0.950 . S
H629 C607 0.950 . S
C630 C631 1.349 . S
C630 C632 1.327 . S
C630 H655 0.950 . S
C631 C630 1.349 . S
C631 C647 1.349 . S
C632 C630 1.327 . S
C632 C651 1.429 . S
C632 H656 0.950 . S
C633 C650 1.574 . S
C633 C652 1.368 . S
C633 H657 0.949 . S
H634 C638 0.949 . S
C635 C636 1.349 . S
C635 C637 1.327 . S
C635 H658 0.950 . S
C636 C635 1.349 . S
C636 C648 1.349 . S
C637 C635 1.327 . S
C637 C653 1.429 . S
C637 H659 0.950 . S
C638 H634 0.949 . S
C638 C646 1.574 . S
C638 C654 1.368 . S
H639 C647 0.950 . S
H640 C645 0.950 . S
H641 C646 0.949 . S
H642 C648 0.950 . S
H643 C649 0.950 . S
H644 C650 0.949 . S
C645 H640 0.950 . S
C645 C647 1.327 . S
C645 C651 1.429 . S
C646 C638 1.574 . S
C646 H641 0.949 . S
C646 C652 1.368 . S
C647 C631 1.349 . S
C647 H639 0.950 . S
C647 C645 1.327 . S
C648 C636 1.349 . S
C648 H642 0.950 . S
C648 C649 1.327 . S
C649 H643 0.950 . S
C649 C648 1.327 . S
C649 C653 1.429 . S
C650 C633 1.574 . S
C650 H644 0.949 . S
C650 C654 1.368 . S
C651 C632 1.429 . S
C651 C645 1.429 . S
C651 C652 1.523 . S
C652 C633 1.368 . S
C652 C646 1.368 . S
C652 C651 1.523 . S
C653 C637 1.429 . S
C653 C649 1.429 . S
C653 C654 1.523 . S
C654 C638 1.368 . S
C654 C650 1.368 . S
C654 C653 1.523 . S
H655 C630 0.950 . S
H656 C632 0.950 . S
H657 C633 0.949 . S
H658 C635 0.950 . S
H659 C637 0.950 . S
C660 C661 1.349 . S
C660 C662 1.327 . S
C660 H685 0.950 . S
C661 C660 1.349 . S
C661 C677 1.349 . S
C662 C660 1.327 . S
C662 C681 1.429 . S
C662 H686 0.950 . S
C663 C680 1.574 . S
C663 C682 1.368 . S
C663 H687 0.949 . S
H664 C668 0.949 . S
C665 C666 1.349 . S
C665 C667 1.327 . S
C665 H688 0.950 . S
C666 C665 1.349 . S
C666 C678 1.349 . S
C667 C665 1.327 . S
C667 C683 1.429 . S
C667 H689 0.950 . S
C668 H664 0.949 . S
C668 C676 1.574 . S
C668 C684 1.368 . S
H669 C677 0.950 . S
H670 C675 0.950 . S
H671 C676 0.949 . S
H672 C678 0.950 . S
H673 C679 0.950 . S
H674 C680 0.949 . S
C675 H670 0.950 . S
C675 C677 1.327 . S
C675 C681 1.429 . S
C676 C668 1.574 . S
C676 H671 0.949 . S
C676 C682 1.368 . S
C677 C661 1.349 . S
C677 H669 0.950 . S
C677 C675 1.327 . S
C678 C666 1.349 . S
C678 H672 0.950 . S
C678 C679 1.327 . S
C679 H673 0.950 . S
C679 C678 1.327 . S
C679 C683 1.429 . S
C680 C663 1.574 . S
C680 H674 0.949 . S
C680 C684 1.368 . S
C681 C662 1.429 . S
C681 C675 1.429 . S
C681 C682 1.523 . S
C682 C663 1.368 . S
C682 C676 1.368 . S
C682 C681 1.523 . S
C683 C667 1.429 . S
C683 C679 1.429 . S
C683 C684 1.523 . S
C684 C668 1.368 . S
C684 C680 1.368 . S
C684 C683 1.523 . S
H685 C660 0.950 . S
H686 C662 0.950 . S
H687 C663 0.949 . S
H688 C665 0.950 . S
H689 C667 0.950 . S
C690 C691 1.349 . S
C690 C692 1.327 . S
C690 H715 0.950 . S
C691 C690 1.349 . S
C691 C707 1.349 . S
C692 C690 1.327 . S
C692 C711 1.429 . S
C692 H716 0.950 . S
C693 C710 1.574 . S
C693 C712 1.368 . S
C693 H717 0.949 . S
H694 C698 0.949 . S
C695 C696 1.349 . S
C695 C697 1.327 . S
C695 H718 0.950 . S
C696 C695 1.349 . S
C696 C708 1.349 . S
C697 C695 1.327 . S
C697 C713 1.429 . S
C697 H719 0.950 . S
C698 H694 0.949 . S
C698 C706 1.574 . S
C698 C714 1.368 . S
H699 C707 0.950 . S
H700 C705 0.950 . S
H701 C706 0.949 . S
H702 C708 0.950 . S
H703 C709 0.950 . S
H704 C710 0.949 . S
C705 H700 0.950 . S
C705 C707 1.327 . S
C705 C711 1.429 . S
C706 C698 1.574 . S
C706 H701 0.949 . S
C706 C712 1.368 . S
C707 C691 1.349 . S
C707 H699 0.950 . S
C707 C705 1.327 . S
C708 C696 1.349 . S
C708 H702 0.950 . S
C708 C709 1.327 . S
C709 H703 0.950 . S
C709 C708 1.327 . S
C709 C713 1.429 . S
C710 C693 1.574 . S
C710 H704 0.949 . S
C710 C714 1.368 . S
C711 C692 1.429 . S
C711 C705 1.429 . S
C711 C712 1.523 . S
C712 C693 1.368 . S
C712 C706 1.368 . S
C712 C711 1.523 . S
C713 C697 1.429 . S
C713 C709 1.429 . S
C713 C714 1.523 . S
C714 C698 1.368 . S
C714 C710 1.368 . S
C714 C713 1.523 . S
H715 C690 0.950 . S
H716 C692 0.950 . S
H717 C693 0.949 . S
H718 C695 0.950 . S
H719 C697 0.950 . S
C720 C721 1.349 . S
C720 C722 1.327 . S
C720 H745 0.950 . S
C721 C720 1.349 . S
C721 C737 1.349 . S
C722 C720 1.327 . S
C722 C741 1.429 . S
C722 H746 0.950 . S
C723 C740 1.574 . S
C723 C742 1.368 . S
C723 H747 0.949 . S
H724 C728 0.949 . S
C725 C726 1.349 . S
C725 C727 1.327 . S
C725 H748 0.950 . S
C726 C725 1.349 . S
C726 C738 1.349 . S
C727 C725 1.327 . S
C727 C743 1.429 . S
C727 H749 0.950 . S
C728 H724 0.949 . S
C728 C736 1.574 . S
C728 C744 1.368 . S
H729 C737 0.950 . S
H730 C735 0.950 . S
H731 C736 0.949 . S
H732 C738 0.950 . S
H733 C739 0.950 . S
H734 C740 0.949 . S
C735 H730 0.950 . S
C735 C737 1.327 . S
C735 C741 1.429 . S
C736 C728 1.574 . S
C736 H731 0.949 . S
C736 C742 1.368 . S
C737 C721 1.349 . S
C737 H729 0.950 . S
C737 C735 1.327 . S
C738 C726 1.349 . S
C738 H732 0.950 . S
C738 C739 1.327 . S
C739 H733 0.950 . S
C739 C738 1.327 . S
C739 C743 1.429 . S
C740 C723 1.574 . S
C740 H734 0.949 . S
C740 C744 1.368 . S
C741 C722 1.429 . S
C741 C735 1.429 . S
C741 C742 1.523 . S
C742 C723 1.368 . S
C742 C736 1.368 . S
C742 C741 1.523 . S
C743 C727 1.429 . S
C743 C739 1.429 . S
C743 C744 1.523 . S
C744 C728 1.368 . S
C744 C740 1.368 . S
C744 C743 1.523 . S
H745 C720 0.950 . S
H746 C722 0.950 . S
H747 C723 0.949 . S
H748 C725 0.950 . S
H749 C727 0.950 . S
C750 C751 1.349 . S
C750 C752 1.327 . S
C750 H775 0.950 . S
C751 C750 1.349 . S
C751 C767 1.349 . S
C752 C750 1.327 . S
C752 C771 1.429 . S
C752 H776 0.950 . S
C753 C770 1.574 . S
C753 C772 1.368 . S
C753 H777 0.949 . S
H754 C758 0.949 . S
C755 C756 1.349 . S
C755 C757 1.327 . S
C755 H778 0.950 . S
C756 C755 1.349 . S
C756 C768 1.349 . S
C757 C755 1.327 . S
C757 C773 1.429 . S
C757 H779 0.950 . S
C758 H754 0.949 . S
C758 C766 1.574 . S
C758 C774 1.368 . S
H759 C767 0.950 . S
H760 C765 0.950 . S
H761 C766 0.949 . S
H762 C768 0.950 . S
H763 C769 0.950 . S
H764 C770 0.949 . S
C765 H760 0.950 . S
C765 C767 1.327 . S
C765 C771 1.429 . S
C766 C758 1.574 . S
C766 H761 0.949 . S
C766 C772 1.368 . S
C767 C751 1.349 . S
C767 H759 0.950 . S
C767 C765 1.327 . S
C768 C756 1.349 . S
C768 H762 0.950 . S
C768 C769 1.327 . S
C769 H763 0.950 . S
C769 C768 1.327 . S
C769 C773 1.429 . S
C770 C753 1.574 . S
C770 H764 0.949 . S
C770 C774 1.368 . S
C771 C752 1.429 . S
C771 C765 1.429 . S
C771 C772 1.523 . S
C772 C753 1.368 . S
C772 C766 1.368 . S
C772 C771 1.523 . S
C773 C757 1.429 . S
C773 C769 1.429 . S
C773 C774 1.523 . S
C774 C758 1.368 . S
C774 C770 1.368 . S
C774 C773 1.523 . S
H775 C750 0.950 . S
H776 C752 0.950 . S
H777 C753 0.949 . S
H778 C755 0.950 . S
H779 C757 0.950 . S
C241 C231 1.625 . S
C246 C8 1.447 . S
C271 C31 1.625 . S
C276 C48 1.447 . S
C301 C71 1.625 . S
C306 C88 1.447 . S
C331 C128 1.447 . S
C336 C111 1.625 . S
C361 C168 1.447 . S
C366 C151 1.625 . S
C391 C191 1.625 . S
C396 C208 1.447 . S
C421 C172 2.009 . S
C426 C29 1.988 . S
C451 C212 2.009 . S
C456 C69 1.988 . S
C481 C109 1.988 . S
C486 C12 2.009 . S
C511 C149 1.988 . S
C516 C52 2.009 . S
C541 C189 1.988 . S
C546 C92 2.009 . S
C571 C132 2.009 . S
C576 C229 1.988 . S
C601 C17 1.459 . S
C606 C2 1.459 . S
C631 C57 1.459 . S
C636 C42 1.459 . S
C661 C97 1.459 . S
C666 C82 1.459 . S
C691 C137 1.459 . S
C696 C122 1.459 . S
C721 C162 1.459 . S
C726 C177 1.459 . S
C751 C217 1.459 . S
C756 C202 1.459 . S
