# Generated by pormake.
# Topology vba, (4)-cn, num edge types: 1
# Building blocks:
#     Node 0, Type 0, BuildingBlock: ESEHIV_clean_sbu_0, # of connection points: 4
#     Node 1, Type 0, BuildingBlock: ESEHIV_clean_sbu_0, # of connection points: 4
#     Node 2, Type 0, BuildingBlock: ESEHIV_clean_sbu_0, # of connection points: 4
#     Node 3, Type 0, BuildingBlock: ESEHIV_clean_sbu_0, # of connection points: 4
#     Node 4, Type 0, BuildingBlock: ESEHIV_clean_sbu_0, # of connection points: 4
#     Node 5, Type 0, BuildingBlock: ESEHIV_clean_sbu_0, # of connection points: 4
#     Node 6, Type 0, BuildingBlock: ESEHIV_clean_sbu_0, # of connection points: 4
#     Node 7, Type 0, BuildingBlock: ESEHIV_clean_sbu_0, # of connection points: 4
#     Node 8, Type 0, BuildingBlock: ESEHIV_clean_sbu_0, # of connection points: 4
#     Node 9, Type 0, BuildingBlock: ESEHIV_clean_sbu_0, # of connection points: 4
#     Node 10, Type 0, BuildingBlock: ESEHIV_clean_sbu_0, # of connection points: 4
#     Node 11, Type 0, BuildingBlock: ESEHIV_clean_sbu_0, # of connection points: 4
#     Node 12, Type 0, BuildingBlock: ESEHIV_clean_sbu_0, # of connection points: 4
#     Node 13, Type 0, BuildingBlock: ESEHIV_clean_sbu_0, # of connection points: 4
#     Node 14, Type 0, BuildingBlock: ESEHIV_clean_sbu_0, # of connection points: 4
#     Node 15, Type 0, BuildingBlock: ESEHIV_clean_sbu_0, # of connection points: 4
#     Node 16, Type 0, BuildingBlock: ESEHIV_clean_sbu_0, # of connection points: 4
#     Node 17, Type 0, BuildingBlock: ESEHIV_clean_sbu_0, # of connection points: 4
#     Node 18, Type 0, BuildingBlock: ESEHIV_clean_sbu_0, # of connection points: 4
#     Node 19, Type 0, BuildingBlock: ESEHIV_clean_sbu_0, # of connection points: 4
#     Node 20, Type 0, BuildingBlock: ESEHIV_clean_sbu_0, # of connection points: 4
#     Node 21, Type 0, BuildingBlock: ESEHIV_clean_sbu_0, # of connection points: 4
#     Node 22, Type 0, BuildingBlock: ESEHIV_clean_sbu_0, # of connection points: 4
#     Node 23, Type 0, BuildingBlock: ESEHIV_clean_sbu_0, # of connection points: 4
#     Node 24, Type 0, BuildingBlock: ESEHIV_clean_sbu_0, # of connection points: 4
#     Node 25, Type 0, BuildingBlock: ESEHIV_clean_sbu_0, # of connection points: 4
#     Node 26, Type 0, BuildingBlock: ESEHIV_clean_sbu_0, # of connection points: 4
#     Node 27, Type 0, BuildingBlock: ESEHIV_clean_sbu_0, # of connection points: 4
#     Node 28, Type 0, BuildingBlock: ESEHIV_clean_sbu_0, # of connection points: 4
#     Node 29, Type 0, BuildingBlock: ESEHIV_clean_sbu_0, # of connection points: 4
#     Node 30, Type 0, BuildingBlock: ESEHIV_clean_sbu_0, # of connection points: 4
#     Node 31, Type 0, BuildingBlock: ESEHIV_clean_sbu_0, # of connection points: 4
#     Edge 32, Type (0, 0), BuildingBlock: AJUNOK_clean_linker_0, # of connection points: 2
#     Edge 33, Type (0, 0), BuildingBlock: AJUNOK_clean_linker_0, # of connection points: 2
#     Edge 34, Type (0, 0), BuildingBlock: AJUNOK_clean_linker_0, # of connection points: 2
#     Edge 35, Type (0, 0), BuildingBlock: AJUNOK_clean_linker_0, # of connection points: 2
#     Edge 36, Type (0, 0), BuildingBlock: AJUNOK_clean_linker_0, # of connection points: 2
#     Edge 37, Type (0, 0), BuildingBlock: AJUNOK_clean_linker_0, # of connection points: 2
#     Edge 38, Type (0, 0), BuildingBlock: AJUNOK_clean_linker_0, # of connection points: 2
#     Edge 39, Type (0, 0), BuildingBlock: AJUNOK_clean_linker_0, # of connection points: 2
#     Edge 40, Type (0, 0), BuildingBlock: AJUNOK_clean_linker_0, # of connection points: 2
#     Edge 41, Type (0, 0), BuildingBlock: AJUNOK_clean_linker_0, # of connection points: 2
#     Edge 42, Type (0, 0), BuildingBlock: AJUNOK_clean_linker_0, # of connection points: 2
#     Edge 43, Type (0, 0), BuildingBlock: AJUNOK_clean_linker_0, # of connection points: 2
#     Edge 44, Type (0, 0), BuildingBlock: AJUNOK_clean_linker_0, # of connection points: 2
#     Edge 45, Type (0, 0), BuildingBlock: AJUNOK_clean_linker_0, # of connection points: 2
#     Edge 46, Type (0, 0), BuildingBlock: AJUNOK_clean_linker_0, # of connection points: 2
#     Edge 47, Type (0, 0), BuildingBlock: AJUNOK_clean_linker_0, # of connection points: 2
#     Edge 48, Type (0, 0), BuildingBlock: AJUNOK_clean_linker_0, # of connection points: 2
#     Edge 49, Type (0, 0), BuildingBlock: AJUNOK_clean_linker_0, # of connection points: 2
#     Edge 50, Type (0, 0), BuildingBlock: AJUNOK_clean_linker_0, # of connection points: 2
#     Edge 51, Type (0, 0), BuildingBlock: AJUNOK_clean_linker_0, # of connection points: 2
#     Edge 52, Type (0, 0), BuildingBlock: AJUNOK_clean_linker_0, # of connection points: 2
#     Edge 53, Type (0, 0), BuildingBlock: AJUNOK_clean_linker_0, # of connection points: 2
#     Edge 54, Type (0, 0), BuildingBlock: AJUNOK_clean_linker_0, # of connection points: 2
#     Edge 55, Type (0, 0), BuildingBlock: AJUNOK_clean_linker_0, # of connection points: 2
#     Edge 56, Type (0, 0), BuildingBlock: AJUNOK_clean_linker_0, # of connection points: 2
#     Edge 57, Type (0, 0), BuildingBlock: AJUNOK_clean_linker_0, # of connection points: 2
#     Edge 58, Type (0, 0), BuildingBlock: AJUNOK_clean_linker_0, # of connection points: 2
#     Edge 59, Type (0, 0), BuildingBlock: AJUNOK_clean_linker_0, # of connection points: 2
#     Edge 60, Type (0, 0), BuildingBlock: AJUNOK_clean_linker_0, # of connection points: 2
#     Edge 61, Type (0, 0), BuildingBlock: AJUNOK_clean_linker_0, # of connection points: 2
#     Edge 62, Type (0, 0), BuildingBlock: AJUNOK_clean_linker_0, # of connection points: 2
#     Edge 63, Type (0, 0), BuildingBlock: AJUNOK_clean_linker_0, # of connection points: 2
#     Edge 64, Type (0, 0), BuildingBlock: AJUNOK_clean_linker_0, # of connection points: 2
#     Edge 65, Type (0, 0), BuildingBlock: AJUNOK_clean_linker_0, # of connection points: 2
#     Edge 66, Type (0, 0), BuildingBlock: AJUNOK_clean_linker_0, # of connection points: 2
#     Edge 67, Type (0, 0), BuildingBlock: AJUNOK_clean_linker_0, # of connection points: 2
#     Edge 68, Type (0, 0), BuildingBlock: AJUNOK_clean_linker_0, # of connection points: 2
#     Edge 69, Type (0, 0), BuildingBlock: AJUNOK_clean_linker_0, # of connection points: 2
#     Edge 70, Type (0, 0), BuildingBlock: AJUNOK_clean_linker_0, # of connection points: 2
#     Edge 71, Type (0, 0), BuildingBlock: AJUNOK_clean_linker_0, # of connection points: 2
#     Edge 72, Type (0, 0), BuildingBlock: AJUNOK_clean_linker_0, # of connection points: 2
#     Edge 73, Type (0, 0), BuildingBlock: AJUNOK_clean_linker_0, # of connection points: 2
#     Edge 74, Type (0, 0), BuildingBlock: AJUNOK_clean_linker_0, # of connection points: 2
#     Edge 75, Type (0, 0), BuildingBlock: AJUNOK_clean_linker_0, # of connection points: 2
#     Edge 76, Type (0, 0), BuildingBlock: AJUNOK_clean_linker_0, # of connection points: 2
#     Edge 77, Type (0, 0), BuildingBlock: AJUNOK_clean_linker_0, # of connection points: 2
#     Edge 78, Type (0, 0), BuildingBlock: AJUNOK_clean_linker_0, # of connection points: 2
#     Edge 79, Type (0, 0), BuildingBlock: AJUNOK_clean_linker_0, # of connection points: 2
#     Edge 80, Type (0, 0), BuildingBlock: AJUNOK_clean_linker_0, # of connection points: 2
#     Edge 81, Type (0, 0), BuildingBlock: AJUNOK_clean_linker_0, # of connection points: 2
#     Edge 82, Type (0, 0), BuildingBlock: AJUNOK_clean_linker_0, # of connection points: 2
#     Edge 83, Type (0, 0), BuildingBlock: AJUNOK_clean_linker_0, # of connection points: 2
#     Edge 84, Type (0, 0), BuildingBlock: AJUNOK_clean_linker_0, # of connection points: 2
#     Edge 85, Type (0, 0), BuildingBlock: AJUNOK_clean_linker_0, # of connection points: 2
#     Edge 86, Type (0, 0), BuildingBlock: AJUNOK_clean_linker_0, # of connection points: 2
#     Edge 87, Type (0, 0), BuildingBlock: AJUNOK_clean_linker_0, # of connection points: 2
#     Edge 88, Type (0, 0), BuildingBlock: AJUNOK_clean_linker_0, # of connection points: 2
#     Edge 89, Type (0, 0), BuildingBlock: AJUNOK_clean_linker_0, # of connection points: 2
#     Edge 90, Type (0, 0), BuildingBlock: AJUNOK_clean_linker_0, # of connection points: 2
#     Edge 91, Type (0, 0), BuildingBlock: AJUNOK_clean_linker_0, # of connection points: 2
#     Edge 92, Type (0, 0), BuildingBlock: AJUNOK_clean_linker_0, # of connection points: 2
#     Edge 93, Type (0, 0), BuildingBlock: AJUNOK_clean_linker_0, # of connection points: 2
#     Edge 94, Type (0, 0), BuildingBlock: AJUNOK_clean_linker_0, # of connection points: 2
#     Edge 95, Type (0, 0), BuildingBlock: AJUNOK_clean_linker_0, # of connection points: 2
# Relax obj value: 0.004
# Max RMSD: 0.020
# Mean RMSD: 0.020
data_MOF--net-vba--node1-ESEHIV_clean_sbu_0--edge1-AJUNOK_clean_linker_0
_symmetry_space_group_name_H-M    P1
_symmetry_Int_Tables_number       1
_symmetry_cell_setting            triclinic
loop_
_symmetry_equiv_pos_as_xyz
'x, y, z'
_cell_length_a     19.053221
_cell_length_b     89.359526
_cell_length_c     38.593209
_cell_angle_alpha  89.892956
_cell_angle_beta   90.026642
_cell_angle_gamma 89.82921
loop_
_atom_site_label
_atom_site_type_symbol
_atom_site_fract_x
_atom_site_fract_y
_atom_site_fract_z
_atom_type_partial_charge
Cu0 Cu 0.35637 0.09269 0.04157 0.0
N1 N 0.33969 0.11361 0.04298 0.0
N2 N 0.28031 0.13545 0.03971 0.0
C3 C 0.27597 0.12032 0.041 0.0
C4 C 0.34982 0.13834 0.04119 0.0
C5 C 0.38611 0.12493 0.04294 0.0
O6 O 0.29787 0.08367 0.07814 0.0
C7 C 0.39674 0.09107 0.97327 0.0
O8 O 0.44738 0.09893 0.98734 0.0
H9 H 0.22733 0.11417 0.04042 0.0
H10 H 0.4425 0.12356 0.04315 0.0
N11 N 0.44863 0.08666 0.05327 0.0
N12 N 0.54431 0.0719 0.05576 0.0
C13 C 0.4774 0.07334 0.04449 0.0
C14 C 0.49881 0.09382 0.07128 0.0
C15 C 0.55785 0.08477 0.07276 0.0
C16 C 0.23133 0.08327 0.08147 0.0
O17 O 0.19159 0.08728 0.05521 0.0
H18 H 0.44992 0.06492 0.02965 0.0
H19 H 0.49284 0.10476 0.08282 0.0
O20 O 0.34578 0.08682 0.99261 0.0
H21 H 0.37307 0.14936 0.04 0.0
H22 H 0.60643 0.08736 0.08597 0.0
Cu23 Cu 1.01081 0.22307 1.0018 0.0
N24 N 1.01217 0.20279 1.0156 0.0
N25 N 0.06158 0.18029 0.02591 0.0
C26 C 0.07261 0.195 0.01973 0.0
C27 C 0.99103 0.17878 0.02605 0.0
C28 C 0.96074 0.19264 0.01963 0.0
O29 O 0.07738 0.23214 0.03443 0.0
C30 C 1.00968 0.23079 0.92897 0.0
O31 O 0.98799 0.24412 0.93845 0.0
H32 H 0.12405 0.19997 1.01686 0.0
H33 H 0.9053 0.19499 1.01733 0.0
N34 N 0.9235 0.23326 1.00492 0.0
N35 N 0.84742 0.25251 0.9998 0.0
C36 C 0.91468 0.24831 1.00608 0.0
C37 C 0.8592 0.22778 0.9982 0.0
C38 C 0.81234 0.23955 0.99533 0.0
C39 C 0.0559 0.23238 0.06588 0.0
O40 O 0.99089 0.22831 0.07204 0.0
H41 H 0.95779 0.25609 1.00876 0.0
H42 H 0.84776 0.21613 0.99348 0.0
O43 O 0.03272 0.22177 0.95206 0.0
H44 H 0.96314 0.16841 0.03035 0.0
H45 H 0.75703 0.23861 0.98935 0.0
Cu46 Cu 0.29777 0.2214 0.24821 0.0
N47 N 0.28819 0.20044 0.2411 0.0
N48 N 0.23284 0.17816 0.23804 0.0
C49 C 0.22595 0.19314 0.24252 0.0
C50 C 0.30249 0.17596 0.23378 0.0
C51 C 0.3363 0.18965 0.23546 0.0
O52 O 0.2296 0.23028 0.21585 0.0
C53 C 0.33741 0.21788 0.3152 0.0
O54 O 0.3794 0.20892 0.29792 0.0
H55 H 0.17668 0.19874 0.24779 0.0
H56 H 0.39213 0.19151 0.23332 0.0
N57 N 0.38464 0.23079 0.23906 0.0
N58 N 0.46275 0.24957 0.24408 0.0
C59 C 0.3946 0.24543 0.24628 0.0
C60 C 0.44887 0.22542 0.23149 0.0
C61 C 0.49691 0.23698 0.23428 0.0
C62 C 0.24705 0.22906 0.18393 0.0
O63 O 0.3086 0.22316 0.17677 0.0
H64 H 0.3521 0.25278 0.25377 0.0
H65 H 0.46069 0.21384 0.22596 0.0
O66 O 0.28963 0.22491 0.29835 0.0
H67 H 0.32736 0.16521 0.22968 0.0
H68 H 0.55312 0.23601 0.23088 0.0
Cu69 Cu 0.96329 0.08802 0.25347 0.0
N70 N 0.96867 0.10916 0.24765 0.0
N71 N 0.01841 0.13205 0.24327 0.0
C72 C 0.02896 0.11703 0.24375 0.0
C73 C 0.9483 0.13366 0.24734 0.0
C74 C 0.91801 0.11963 0.25002 0.0
O75 O 0.02983 0.07975 0.21942 0.0
C76 C 0.91779 0.0873 0.32137 0.0
O77 O 0.86458 0.09349 0.30507 0.0
H78 H 0.08006 0.11186 0.24184 0.0
H79 H 0.86317 0.11729 0.25465 0.0
N80 N 0.8773 0.07856 0.24224 0.0
N81 N 0.79802 0.05981 0.24396 0.0
C82 C 0.86588 0.06389 0.24877 0.0
C83 C 0.81467 0.08401 0.23211 0.0
C84 C 0.76598 0.07251 0.23305 0.0
C85 C 0.09654 0.08067 0.21803 0.0
O86 O 0.13101 0.08548 0.24528 0.0
H87 H 0.90723 0.05648 0.25742 0.0
H88 H 0.80427 0.09562 0.22599 0.0
O89 O 0.97272 0.08394 0.3037 0.0
H90 H 0.92081 0.14422 0.24981 0.0
H91 H 0.71049 0.07363 0.22758 0.0
Cu92 Cu 0.75109 0.97668 1.01334 0.0
N93 N 0.82637 0.96401 0.02785 0.0
N94 N 0.90582 0.94522 0.02989 0.0
C95 C 0.84993 0.95119 1.01285 0.0
C96 C 0.91707 0.95455 0.05678 0.0
C97 C 0.86839 0.96602 0.05548 0.0
O98 O 0.74899 0.97653 0.96243 0.0
C99 C 0.66033 0.96419 0.0649 0.0
O100 O 0.71573 0.9564 0.07425 0.0
H101 H 0.82737 0.94648 0.98956 0.0
H102 H 0.86365 0.97515 0.07369 0.0
N103 N 0.76095 0.99689 0.02655 0.0
N104 N 0.72631 1.02047 0.0382 0.0
C105 C 0.70744 1.00686 0.02603 0.0
C106 C 0.8159 1.00442 0.03964 0.0
C107 C 0.79472 1.01891 0.04693 0.0
C108 C 0.80212 0.98251 0.94778 0.0
O109 O 0.85178 0.98796 0.9677 0.0
H110 H 0.6553 1.00412 1.01696 0.0
H111 H 0.86742 0.9997 0.04411 0.0
O112 O 0.66254 0.97172 0.0368 0.0
H113 H 0.95728 0.95311 0.07633 0.0
H114 H 0.82688 1.02743 0.05881 0.0
Cu115 Cu 0.11388 0.84681 1.00186 0.0
N116 N 0.10688 0.86795 0.99654 0.0
N117 N 0.06864 0.89187 0.99935 0.0
C118 C 0.05765 0.87749 1.00939 0.0
C119 C 0.12667 0.89128 0.97932 0.0
C120 C 0.14989 0.87664 0.97764 0.0
O121 O 0.04634 0.83747 0.96898 0.0
C122 C 0.12176 0.82925 0.06496 0.0
O123 O 0.12233 0.81771 0.04392 0.0
H124 H 0.01479 0.87398 0.02588 0.0
H125 H 0.19474 0.87258 0.96325 0.0
N126 N 0.20166 0.83918 0.98653 0.0
N127 N 0.2923 0.82299 0.98347 0.0
C128 C 0.24923 0.8309 1.00455 0.0
C129 C 0.2166 0.83652 0.953 0.0
C130 C 0.27181 0.82653 0.95105 0.0
C131 C 0.98791 0.84297 0.95859 0.0
O132 O 0.96175 0.85464 0.97475 0.0
H133 H 0.24857 0.8296 0.03239 0.0
H134 H 0.18506 0.84043 0.93148 0.0
O135 O 0.10995 0.84221 0.0521 0.0
H136 H 0.15005 0.90075 0.96617 0.0
H137 H 0.2922 0.82144 0.92766 0.0
Cu138 Cu 0.74538 0.83654 0.77385 0.0
N139 N 0.73736 0.85751 0.77783 0.0
N140 N 0.77425 0.88134 0.78087 0.0
C141 C 0.7909 0.86678 0.78585 0.0
C142 C 0.70724 0.88124 0.76944 0.0
C143 C 0.68476 0.86656 0.76747 0.0
O144 O 0.80434 0.83063 0.81417 0.0
C145 C 0.78635 0.84258 0.70253 0.0
O146 O 0.80662 0.85574 0.71369 0.0
H147 H 0.84249 0.8629 0.79334 0.0
H148 H 0.63531 0.86275 0.75701 0.0
N149 N 0.65828 0.82643 0.77926 0.0
N150 N 0.57684 0.80806 0.77659 0.0
C151 C 0.6453 0.81187 0.77177 0.0
C152 C 0.59612 0.83201 0.78956 0.0
C153 C 0.54628 0.82082 0.78795 0.0
C154 C 0.86956 0.83287 0.82001 0.0
O155 O 0.91024 0.83712 0.79438 0.0
H156 H 0.686 0.80426 0.76335 0.0
H157 H 0.58726 0.84347 0.79738 0.0
O158 O 0.77137 0.83241 0.72486 0.0
H159 H 0.67811 0.89097 0.76082 0.0
H160 H 0.49118 0.82215 0.79402 0.0
Cu161 Cu 0.99385 0.97616 0.7574 0.0
N162 N 0.999 0.95551 0.76842 0.0
N163 N 0.96094 0.9321 0.77863 0.0
C164 C 0.94326 0.94621 0.76946 0.0
C165 C 0.03121 0.93244 0.78307 0.0
C166 C 0.05447 0.94688 0.77692 0.0
O167 O 0.92897 0.98477 0.79159 0.0
C168 C 0.97372 0.96792 0.68581 0.0
O169 O 0.96561 0.95426 0.69757 0.0
H170 H 0.89109 0.9495 0.76175 0.0
H171 H 0.10813 0.95073 0.77828 0.0
N172 N 0.0783 0.98682 0.76491 0.0
N173 N 0.15322 1.00635 0.76422 0.0
C174 C 0.09428 1.00023 0.75052 0.0
C175 C 0.12898 0.98435 0.78854 0.0
C176 C 0.17534 0.99624 0.78793 0.0
C177 C 0.8668 0.98073 0.79957 0.0
O178 O 0.83104 0.97241 0.77791 0.0
H179 H 0.06227 1.00548 0.73076 0.0
H180 H 0.13051 0.97493 0.80613 0.0
O181 O 0.97564 0.97876 0.70743 0.0
H182 H 0.06349 0.92295 0.79032 0.0
H183 H 0.2202 0.99763 0.80484 0.0
Cu184 Cu 0.29998 0.58273 0.52613 0.0
N185 N 0.22954 0.59662 0.51137 0.0
N186 N 0.16725 0.61813 0.5066 0.0
C187 C 0.22208 0.61102 0.5221 0.0
C188 C 0.13977 0.60778 0.48505 0.0
C189 C 0.17791 0.59463 0.48805 0.0
O190 O 0.29686 0.58313 0.57741 0.0
C191 C 0.39067 0.59438 0.47334 0.0
O192 O 0.33829 0.60348 0.46647 0.0
H193 H 0.25636 0.6162 0.54094 0.0
H194 H 0.16927 0.58443 0.47368 0.0
N195 N 0.28685 0.56239 0.51355 0.0
N196 N 0.31852 0.53849 0.50196 0.0
C197 C 0.33968 0.5522 0.51269 0.0
C198 C 0.22944 0.55478 0.50372 0.0
C199 C 0.24856 0.54012 0.49682 0.0
C200 C 0.23899 0.57823 0.58991 0.0
O201 O 0.19098 0.5736 0.568 0.0
H202 H 0.39315 0.55491 0.51957 0.0
H203 H 0.17719 0.55948 0.50198 0.0
O204 O 0.38902 0.58673 0.50142 0.0
H205 H 0.09639 0.60966 0.46745 0.0
H206 H 0.2127 0.53135 0.48936 0.0
Cu207 Cu 0.94628 0.71482 0.53953 0.0
N208 N 0.01965 0.70198 0.5234 0.0
N209 N 0.08107 0.68056 0.51496 0.0
C210 C 0.02325 0.687 0.52923 0.0
C211 C 0.11586 0.69207 0.50015 0.0
C212 C 0.0781 0.70517 0.50531 0.0
O213 O 0.96005 0.71639 0.59048 0.0
C214 C 0.85684 0.70251 0.48838 0.0
O215 O 0.91216 0.69473 0.4791 0.0
H216 H 0.98406 0.68099 0.54394 0.0
H217 H 0.09246 0.71623 0.49646 0.0
N218 N 0.9413 0.73484 0.524 0.0
N219 N 0.87941 0.75597 0.51369 0.0
C220 C 0.88595 0.74347 0.53326 0.0
C221 C 0.97194 0.74222 0.49768 0.0
C222 C 0.93448 0.75532 0.49156 0.0
C223 C 1.01212 0.72475 0.59865 0.0
O224 O 0.04777 0.73106 0.57345 0.0
H225 H 0.84743 0.73989 0.55211 0.0
H226 H 0.01544 0.73801 0.48256 0.0
O227 O 0.85653 0.70866 0.51836 0.0
H228 H 0.1647 0.69108 0.48602 0.0
H229 H 0.94615 0.76344 0.47159 0.0
Cu230 Cu 0.26898 0.72212 0.77261 0.0
N231 N 0.27509 0.70199 0.75938 0.0
N232 N 0.23279 0.67889 0.75014 0.0
C233 C 0.21977 0.69273 0.76261 0.0
C234 C 0.2999 0.67944 0.73877 0.0
C235 C 0.3258 0.69374 0.7444 0.0
O236 O 0.1775 0.72715 0.75081 0.0
C237 C 0.27288 0.7327 0.84392 0.0
O238 O 0.25086 0.74559 0.83155 0.0
H239 H 0.17 0.69626 0.7734 0.0
H240 H 0.37759 0.6978 0.73791 0.0
N241 N 0.34387 0.7342 0.7554 0.0
N242 N 0.42423 0.75273 0.75042 0.0
C243 C 0.37695 0.74576 0.77131 0.0
C244 C 0.3716 0.7338 0.72339 0.0
C245 C 0.42012 0.74517 0.72013 0.0
C246 C 0.17197 0.73556 0.72413 0.0
O247 O 0.2238 0.74466 0.71671 0.0
H248 H 0.36617 0.74913 0.79763 0.0
H249 H 0.35538 0.72614 0.70326 0.0
O250 O 0.27647 0.72151 0.82359 0.0
H251 H 0.32886 0.67018 0.72773 0.0
H252 H 0.44732 0.74802 0.69646 0.0
Cu253 Cu 0.99711 0.58604 0.76688 0.0
N254 N 0.9923 0.60681 0.75787 0.0
N255 N 0.03293 0.63034 0.75262 0.0
C256 C 0.04575 0.61564 0.74716 0.0
C257 C 0.9684 0.63081 0.767 0.0
C258 C 0.9438 0.61637 0.77034 0.0
O259 O 0.06889 0.57774 0.7353 0.0
C260 C 0.99393 0.57348 0.83596 0.0
O261 O 0.9956 0.56026 0.8213 0.0
H262 H 0.0956 0.61138 0.73841 0.0
H263 H 0.89667 0.61305 0.78387 0.0
N264 N 0.91157 0.57598 0.75784 0.0
N265 N 0.83198 0.55746 0.76167 0.0
C266 C 0.90094 0.56104 0.76057 0.0
C267 C 0.84674 0.58196 0.75581 0.0
C268 C 0.7978 0.57063 0.75809 0.0
C269 C 0.13343 0.58142 0.73228 0.0
O270 O 0.16319 0.58925 0.75699 0.0
H271 H 0.94292 0.55299 0.76402 0.0
H272 H 0.83541 0.5938 0.75466 0.0
O273 O 1.00677 0.58502 0.81755 0.0
H274 H 0.94262 0.6408 0.77651 0.0
H275 H 0.74137 0.57204 0.7582 0.0
Cu276 Cu 0.67219 0.46089 0.50131 0.0
N277 N 0.67262 0.43956 0.49696 0.0
N278 N 0.70231 0.41505 0.50062 0.0
C279 C 0.7167 0.42923 0.51126 0.0
C280 C 0.64758 0.41664 0.47864 0.0
C281 C 0.62953 0.43158 0.47653 0.0
O282 O 0.74549 0.46931 0.47017 0.0
C283 C 0.62679 0.46105 0.57017 0.0
O284 O 0.58355 0.4512 0.55674 0.0
H285 H 0.75874 0.43205 0.52893 0.0
H286 H 0.58844 0.43633 0.46059 0.0
N287 N 0.58805 0.46993 0.48487 0.0
N288 N 0.50045 0.4869 0.47878 0.0
C289 C 0.54896 0.48074 0.50044 0.0
C290 C 0.56421 0.46944 0.45213 0.0
C291 C 0.51079 0.47978 0.44829 0.0
C292 C 0.7991 0.46238 0.45813 0.0
O293 O 0.81566 0.44924 0.47108 0.0
H294 H 0.5579 0.48444 0.52675 0.0
H295 H 0.58727 0.46273 0.43177 0.0
O296 O 0.67506 0.46644 0.55074 0.0
H297 H 0.62335 0.40767 0.46416 0.0
H298 H 0.48516 0.48246 0.42406 0.0
Cu299 Cu 1.01247 0.33006 0.51348 0.0
N300 N 0.92774 0.34018 0.52558 0.0
N301 N 0.84676 0.35873 0.52797 0.0
C302 C 0.90939 0.35415 0.5149 0.0
C303 C 0.82556 0.34716 0.54804 0.0
C304 C 0.87511 0.33581 0.54644 0.0
O305 O 0.01842 0.33266 0.46241 0.0
C306 C 0.07398 0.33266 0.57703 0.0
O307 O 0.01707 0.32478 0.58284 0.0
H308 H 0.94126 0.3608 0.49753 0.0
H309 H 0.87319 0.32519 0.5599 0.0
N310 N 0.01876 0.30899 0.521 0.0
N311 N 0.07251 0.28674 0.5297 0.0
C312 C 0.08066 0.30166 0.52496 0.0
C313 C 0.96947 0.29826 0.52328 0.0
C314 C 1.00243 0.28457 0.52836 0.0
C315 C 0.96625 0.32657 0.44683 0.0
O316 O 0.91933 0.31975 0.46609 0.0
H317 H 0.13102 0.30722 0.524 0.0
H318 H 0.91355 0.30022 0.52142 0.0
O319 O 0.08447 0.3376 0.54619 0.0
H320 H 0.77828 0.34696 0.56353 0.0
H321 H 0.97672 0.27386 0.53144 0.0
Cu322 Cu 0.75038 0.33539 0.25995 0.0
N323 N 0.74889 0.35656 0.26273 0.0
N324 N 0.79646 0.37967 0.2628 0.0
C325 C 0.7996 0.36555 0.27575 0.0
C326 C 0.73972 0.37965 0.24182 0.0
C327 C 0.71107 0.36548 0.24165 0.0
O328 O 0.81878 0.32775 0.29452 0.0
C329 C 0.74153 0.31946 0.19488 0.0
O330 O 0.74325 0.30702 0.2129 0.0
H331 H 0.83966 0.36166 0.29331 0.0
H332 H 0.6697 0.36159 0.22473 0.0
N333 N 0.6636 0.3263 0.27094 0.0
N334 N 0.58433 0.30766 0.27173 0.0
C335 C 0.6531 0.31134 0.27276 0.0
C336 C 0.59879 0.33231 0.2694 0.0
C337 C 0.54991 0.32087 0.27005 0.0
C338 C 0.88197 0.3318 0.3007 0.0
O339 O 0.91531 0.33998 0.27775 0.0
H340 H 0.69528 0.3032 0.27273 0.0
H341 H 0.58788 0.34406 0.26534 0.0
O342 O 0.75878 0.33167 0.20974 0.0
H343 H 0.72345 0.38887 0.22542 0.0
H344 H 0.49377 0.32212 0.26674 0.0
Cu345 Cu 0.04816 0.47192 0.27475 0.0
N346 N 0.0439 0.45128 0.26535 0.0
N347 N 0.99871 0.42806 0.26259 0.0
C348 C 0.98737 0.44254 0.27133 0.0
C349 C 0.06531 0.42779 0.25038 0.0
C350 C 0.0931 0.44204 0.25243 0.0
O351 O 1.00339 0.474 0.321 0.0
C352 C 0.01493 0.48674 0.20715 0.0
O353 O 0.97311 0.49608 0.19079 0.0
H354 H 0.93885 0.44676 0.28218 0.0
H355 H 0.14487 0.44548 0.24422 0.0
N356 N 0.13925 0.48007 0.27608 0.0
N357 N 0.22389 0.49753 0.27268 0.0
C358 C 0.1545 0.49458 0.26967 0.0
C359 C 0.20118 0.47358 0.28366 0.0
C360 C 0.25338 0.48429 0.28162 0.0
C361 C 0.93822 0.47667 0.32618 0.0
O362 O 0.89788 0.47951 0.29934 0.0
H363 H 0.11519 0.50284 0.26281 0.0
H364 H 0.20785 0.46194 0.2907 0.0
O365 O 0.99929 0.48324 0.23851 0.0
H366 H 0.09171 0.41817 0.23947 0.0
H367 H 0.30838 0.48253 0.28736 0.0
Cu368 Cu 0.83975 0.08948 0.53885 0.0
N369 N 0.82296 0.11045 0.54068 0.0
N370 N 0.7606 0.13201 0.54039 0.0
C371 C 0.75871 0.11689 0.53788 0.0
C372 C 0.82927 0.1352 0.54507 0.0
C373 C 0.86744 0.12196 0.54506 0.0
O374 O 0.77934 0.08121 0.57573 0.0
C375 C 0.88449 0.08816 0.47145 0.0
O376 O 0.93252 0.09637 0.48664 0.0
H377 H 0.71119 0.11052 0.5347 0.0
H378 H 0.92364 0.12087 0.548 0.0
N379 N 0.93109 0.08271 0.55085 0.0
N380 N 0.02473 0.06724 0.55188 0.0
C381 C 0.95763 0.06925 0.54129 0.0
C382 C 0.98301 0.08936 0.56869 0.0
C383 C 0.0407 0.07989 0.5693 0.0
C384 C 0.71277 0.0817 0.57924 0.0
O385 O 0.67345 0.08482 0.55221 0.0
H386 H 0.92858 0.0612 0.52609 0.0
H387 H 0.97938 0.10031 0.58045 0.0
O388 O 0.83188 0.08375 0.48955 0.0
H389 H 0.85071 0.14632 0.54799 0.0
H390 H 0.09023 0.08208 0.58203 0.0
Cu391 Cu 0.45818 0.21703 0.52731 0.0
N392 N 0.47086 0.19638 0.53615 0.0
N393 N 0.52908 0.17442 0.53925 0.0
C394 C 0.5343 0.1895 0.53728 0.0
C395 C 0.45932 0.1717 0.53964 0.0
C396 C 0.42366 0.18522 0.53763 0.0
O397 O 0.54276 0.2253 0.54958 0.0
C398 C 0.43265 0.22911 0.45704 0.0
O399 O 0.43021 0.24271 0.46986 0.0
H400 H 0.58356 0.19541 0.53501 0.0
H401 H 0.3674 0.18677 0.53622 0.0
N402 N 0.37526 0.22544 0.54723 0.0
N403 N 0.28315 0.24106 0.55465 0.0
C404 C 0.32585 0.23415 0.53158 0.0
C405 C 0.36147 0.22665 0.58135 0.0
C406 C 0.30538 0.2363 0.58598 0.0
C407 C 0.54333 0.23645 0.57014 0.0
O408 O 0.48926 0.2456 0.57012 0.0
H409 H 0.32324 0.23608 0.50401 0.0
H410 H 0.39315 0.22167 0.60161 0.0
O411 O 0.44979 0.21819 0.47668 0.0
H412 H 0.43561 0.16073 0.54099 0.0
H413 H 0.28433 0.24001 0.61057 0.0
Cu414 Cu 0.76854 0.22706 0.75927 0.0
N415 N 0.69579 0.2143 0.77589 0.0
N416 N 0.62348 0.19432 0.77951 0.0
C417 C 0.67639 0.20102 0.76175 0.0
C418 C 0.60902 0.20386 0.80569 0.0
C419 C 0.65357 0.21603 0.80354 0.0
O420 O 0.75383 0.22821 0.70866 0.0
C421 C 0.86514 0.21238 0.80451 0.0
O422 O 0.81114 0.20424 0.81389 0.0
H423 H 0.70009 0.1965 0.73853 0.0
H424 H 0.65539 0.22539 0.82119 0.0
N425 N 0.77002 0.24702 0.77589 0.0
N426 N 0.81836 0.26948 0.78771 0.0
C427 C 0.82627 0.25608 0.77177 0.0
C428 C 0.72465 0.25495 0.79533 0.0
C429 C 0.7543 0.26874 0.80268 0.0
C430 C 0.70105 0.2362 0.69954 0.0
O431 O 0.66557 0.24314 0.72389 0.0
H432 H 0.87343 0.25258 0.75841 0.0
H433 H 0.67404 0.25099 0.80395 0.0
O434 O 0.86025 0.22036 0.77708 0.0
H435 H 0.5695 0.20208 0.82541 0.0
H436 H 0.73043 0.27752 0.81797 0.0
Cu437 Cu 0.44538 0.09319 0.75363 0.0
N438 N 0.44217 0.11448 0.74956 0.0
N439 N 0.4742 0.1388 0.75296 0.0
C440 C 0.49383 0.12431 0.75784 0.0
C441 C 0.40732 0.13798 0.7415 0.0
C442 C 0.38792 0.12311 0.73941 0.0
O443 O 0.51358 0.08555 0.71934 0.0
C444 C 0.40586 0.09149 0.82233 0.0
O445 O 0.34944 0.09712 0.80761 0.0
H446 H 0.54399 0.12091 0.76839 0.0
H447 H 0.33721 0.11893 0.73155 0.0
N448 N 0.36127 0.08301 0.74194 0.0
N449 N 0.28315 0.06409 0.73932 0.0
C450 C 0.34183 0.06949 0.7547 0.0
C451 C 0.31381 0.08614 0.71712 0.0
C452 C 0.26565 0.07459 0.71555 0.0
C453 C 0.57744 0.08932 0.71471 0.0
O454 O 0.60767 0.09817 0.73732 0.0
H455 H 0.37105 0.06361 0.77458 0.0
H456 H 0.31566 0.09581 0.70027 0.0
O457 O 0.45927 0.08873 0.80316 0.0
H458 H 0.37446 0.14749 0.73505 0.0
H459 H 0.22306 0.07371 0.69712 0.0
Cu460 Cu 0.22016 0.97087 0.5046 0.0
N461 N 0.28951 0.95677 0.5197 0.0
N462 N 0.3455 0.93462 0.5278 0.0
C463 C 0.29204 0.94198 0.51162 0.0
C464 C 0.3778 0.94532 0.54661 0.0
C465 C 0.34332 0.95881 0.54177 0.0
O466 O 0.21849 0.9702 0.4534 0.0
C467 C 0.14081 0.96956 0.56251 0.0
O468 O 0.20301 0.97351 0.57389 0.0
H469 H 0.25538 0.93678 0.49398 0.0
H470 H 0.35591 0.96927 0.55424 0.0
N471 N 0.23339 0.99134 0.51662 0.0
N472 N 0.20095 1.01509 0.52882 0.0
C473 C 0.18066 1.00156 0.51665 0.0
C474 C 0.28932 0.99868 0.5293 0.0
C475 C 0.26952 1.01323 0.53691 0.0
C476 C 0.27124 0.97646 0.43887 0.0
O477 O 0.31938 0.9824 0.45891 0.0
H478 H 0.12781 0.99898 0.50835 0.0
H479 H 0.34052 0.99378 0.5335 0.0
O480 O 0.13378 0.96638 0.53037 0.0
H481 H 0.42235 0.94348 0.56353 0.0
H482 H 0.30276 1.02156 0.54879 0.0
Cu483 Cu 0.57492 0.83936 0.50841 0.0
N484 N 0.49625 0.85098 0.52296 0.0
N485 N 0.4293 0.87181 0.5287 0.0
C486 C 0.49113 0.86596 0.51759 0.0
C487 C 0.39439 0.85993 0.54194 0.0
C488 C 0.4354 0.84717 0.53823 0.0
O489 O 0.57007 0.84103 0.4571 0.0
C490 C 0.6392 0.84163 0.57056 0.0
O491 O 0.57571 0.83675 0.57724 0.0
H492 H 0.53193 0.87243 0.50513 0.0
H493 H 0.42168 0.83594 0.54611 0.0
N494 N 0.58059 0.81839 0.51579 0.0
N495 N 0.64224 0.79686 0.51943 0.0
C496 C 0.63828 0.81072 0.50546 0.0
C497 C 0.54621 0.80895 0.53704 0.0
C498 C 0.58427 0.79571 0.53942 0.0
C499 C 0.51671 0.83389 0.4452 0.0
O500 O 0.47718 0.82671 0.46759 0.0
H501 H 0.67968 0.81575 0.49021 0.0
H502 H 0.49978 0.81183 0.55172 0.0
O503 O 0.65345 0.84544 0.53918 0.0
H504 H 0.34335 0.86038 0.55416 0.0
H505 H 0.57173 0.78622 0.55573 0.0
Cu506 Cu 0.2436 0.83626 0.27754 0.0
N507 N 0.23809 0.85681 0.28847 0.0
N508 N 0.27895 0.88038 0.2923 0.0
C509 C 0.28004 0.86735 0.27439 0.0
C510 C 0.23262 0.87797 0.31824 0.0
C511 C 0.20772 0.86349 0.31585 0.0
O512 O 0.32819 0.82934 0.30353 0.0
C513 C 0.23633 0.82395 0.20694 0.0
O514 O 0.25075 0.81084 0.22072 0.0
H515 H 0.31551 0.86497 0.25326 0.0
H516 H 0.1736 0.85797 0.33418 0.0
N517 N 0.16646 0.82506 0.29534 0.0
N518 N 0.08483 0.80695 0.30166 0.0
C519 C 0.12893 0.81411 0.27958 0.0
C520 C 0.14524 0.82468 0.3286 0.0
C521 C 0.09514 0.81366 0.33254 0.0
C522 C 0.38497 0.83683 0.3077 0.0
O523 O 0.3985 0.84788 0.28636 0.0
H524 H 0.13475 0.81115 0.25263 0.0
H525 H 0.16747 0.83141 0.3491 0.0
O526 O 0.23859 0.83553 0.22624 0.0
H527 H 0.22003 0.88585 0.33857 0.0
H528 H 0.07134 0.81027 0.35676 0.0
Cu529 Cu 0.49945 0.97284 0.26144 0.0
N530 N 0.51318 0.95265 0.27436 0.0
N531 N 0.47756 0.92884 0.28057 0.0
C532 C 0.46424 0.94335 0.28785 0.0
C533 C 0.53834 0.9289 0.2627 0.0
C534 C 0.56017 0.94354 0.25901 0.0
O535 O 0.42075 0.98032 0.28968 0.0
C536 C 0.49731 0.98045 0.1862 0.0
O537 O 0.49133 0.99479 0.19298 0.0
H538 H 0.41615 0.94708 0.29975 0.0
H539 H 0.60281 0.94736 0.24278 0.0
N540 N 0.57759 0.98492 0.27348 0.0
N541 N 0.65535 1.00396 0.27544 0.0
C542 C 0.61029 0.99595 0.25546 0.0
C543 C 0.60282 0.98605 0.30588 0.0
C544 C 0.65002 0.99769 0.30724 0.0
C545 C 0.35975 0.97473 0.29401 0.0
O546 O 0.33597 0.96502 0.27138 0.0
H547 H 0.5999 0.9984 0.22856 0.0
H548 H 0.58469 0.97945 0.3276 0.0
O549 O 0.49279 0.97101 0.21087 0.0
H550 H 0.56213 0.91919 0.25071 0.0
H551 H 0.67462 1.00178 0.33062 0.0
Cu552 Cu 0.84291 0.59596 0.03225 0.0
N553 N 0.84619 0.617 0.03962 0.0
N554 N 0.81379 0.64137 0.0397 0.0
C555 C 0.79753 0.62725 0.02946 0.0
C556 C 0.87526 0.63984 0.05687 0.0
C557 C 0.89473 0.62492 0.05696 0.0
O558 O 0.76723 0.5883 0.06218 0.0
C559 C 0.84578 0.57995 0.96861 0.0
O560 O 0.83217 0.56821 0.98791 0.0
H561 H 0.75159 0.62437 1.01442 0.0
H562 H 0.94081 0.62016 0.06915 0.0
N563 N 0.92564 0.58526 0.04379 0.0
N564 N 0.99482 0.56471 0.04253 0.0
C565 C 0.92888 0.57016 0.04677 0.0
C566 C 0.99226 0.58955 0.03817 0.0
C567 C 0.03482 0.57699 0.03757 0.0
C568 C 0.77977 0.5887 0.09479 0.0
O569 O 0.84151 0.59354 0.10493 0.0
H570 H 0.88253 0.56323 0.04819 0.0
H571 H 1.0079 0.60083 0.03158 0.0
O572 O 0.83833 0.59293 0.98186 0.0
H573 H 0.90383 0.64887 0.06904 0.0
H574 H 0.09035 0.57689 0.03167 0.0
Cu575 Cu 0.51478 0.72934 0.02965 0.0
N576 N 0.59501 0.71766 1.01761 0.0
N577 N 0.67055 0.69809 1.01576 0.0
C578 C 0.60908 0.70351 0.02857 0.0
C579 C 0.69595 0.7094 0.99614 0.0
C580 C 0.64961 0.72133 0.99726 0.0
O581 O 0.50506 0.72695 0.0804 0.0
C582 C 0.44935 0.72742 0.96672 0.0
O583 O 0.51239 0.73228 0.95892 0.0
H584 H 0.57548 0.69749 0.04632 0.0
H585 H 0.65545 0.73195 0.9841 0.0
N586 N 0.52038 0.75028 0.02177 0.0
N587 N 0.4799 0.77377 1.01376 0.0
C588 C 0.46317 0.75923 0.01908 0.0
C589 C 0.57556 0.75949 1.01766 0.0
C590 C 0.55079 0.77395 1.01277 0.0
C591 C 0.55578 0.73276 0.09754 0.0
O592 O 0.60577 0.73945 0.08002 0.0
H593 H 0.40993 0.75512 0.02101 0.0
H594 H 0.62991 0.75598 1.01801 0.0
O595 O 0.43674 0.72386 0.9983 0.0
H596 H 0.74459 0.70906 0.98168 0.0
H597 H 0.58258 0.78374 1.00789 0.0
Cu598 Cu 0.76067 0.72308 0.283 0.0
N599 N 0.77002 0.70332 0.26658 0.0
N600 N 0.73511 0.67967 0.25661 0.0
C601 C 0.72493 0.69231 0.27518 0.0
C602 C 0.79136 0.68269 0.23643 0.0
C603 C 0.81254 0.69726 0.24254 0.0
O604 O 0.68426 0.73158 0.25415 0.0
C605 C 0.74982 0.72789 0.36023 0.0
O606 O 0.75148 0.74251 0.35669 0.0
H607 H 0.68296 0.69385 0.2937 0.0
H608 H 0.85486 0.70304 0.22966 0.0
N609 N 0.8411 0.73499 0.27311 0.0
N610 N 0.92033 0.7538 0.27267 0.0
C611 C 0.87168 0.74617 0.29152 0.0
C612 C 0.87138 0.73571 0.24167 0.0
C613 C 0.92011 0.74706 0.2414 0.0
C614 C 0.62985 0.72457 0.2435 0.0
O615 O 0.60987 0.7125 0.26009 0.0
H616 H 0.85755 0.74883 0.31788 0.0
H617 H 0.85608 0.72903 0.21964 0.0
O618 O 0.74848 0.71965 0.33326 0.0
H619 H 0.81569 0.67506 0.21835 0.0
H620 H 0.95045 0.75058 0.21914 0.0
Cu621 Cu 0.51321 0.58594 0.26967 0.0
N622 N 0.50231 0.60647 0.26123 0.0
N623 N 0.54207 0.63003 0.25831 0.0
C624 C 0.55541 0.6155 0.25128 0.0
C625 C 0.47808 0.63017 0.27327 0.0
C626 C 0.45376 0.61565 0.27509 0.0
O627 O 0.58702 0.57997 0.23666 0.0
C628 C 0.5136 0.57654 0.34248 0.0
O629 O 0.49108 0.56341 0.33225 0.0
H630 H 0.60592 0.61136 0.24268 0.0
H631 H 0.40744 0.61193 0.28877 0.0
N632 N 0.43026 0.57486 0.26137 0.0
N633 N 0.35372 0.55573 0.25872 0.0
C634 C 0.42149 0.55985 0.26356 0.0
C635 C 0.36601 0.58037 0.25437 0.0
C636 C 0.31894 0.56868 0.25287 0.0
C637 C 0.57025 0.58081 0.20456 0.0
O638 O 0.50475 0.584 0.19679 0.0
H639 H 0.46357 0.55219 0.27004 0.0
H640 H 0.35382 0.59211 0.25121 0.0
O641 O 0.53323 0.58608 0.31984 0.0
H642 H 0.45297 0.63994 0.28432 0.0
H643 H 0.26312 0.56967 0.24813 0.0
Cu644 Cu 0.23294 0.47237 0.02617 0.0
N645 N 0.23749 0.45157 1.01576 0.0
N646 N 0.28819 0.42905 1.00618 0.0
C647 C 0.29774 0.44347 1.01605 0.0
C648 C 0.21858 0.42807 0.99969 0.0
C649 C 0.18776 0.44191 1.00532 0.0
O650 O 0.30643 0.48066 0.99534 0.0
C651 C 0.18706 0.4671 0.09327 0.0
O652 O 0.15291 0.45709 0.07507 0.0
H653 H 0.34814 0.4482 0.02279 0.0
H654 H 0.13292 0.44467 1.00202 0.0
N655 N 0.15004 0.48305 1.01516 0.0
N656 N 0.07929 0.50325 1.01799 0.0
C657 C 0.14618 0.49814 1.0176 0.0
C658 C 0.08288 0.47844 1.01369 0.0
C659 C 0.03927 0.49086 1.0152 0.0
C660 C 0.29047 0.47973 0.96306 0.0
O661 O 0.22812 0.47453 0.95511 0.0
H662 H 0.19159 0.50515 0.02195 0.0
H663 H 0.06641 0.46688 1.01407 0.0
O664 O 0.23364 0.47491 0.07743 0.0
H665 H 0.19113 0.41803 0.99205 0.0
H666 H 0.98248 0.4907 1.01558 0.0
Cu667 Cu 0.56831 0.33906 1.0009 0.0
N668 N 0.5572 0.36024 0.99832 0.0
N669 N 0.50261 0.38274 0.99939 0.0
C670 C 0.49542 0.36775 0.99515 0.0
C671 C 0.5717 0.38472 1.00554 0.0
C672 C 0.60496 0.37095 1.00488 0.0
O673 O 0.50024 0.33075 0.96752 0.0
C674 C 0.58619 0.3216 0.06292 0.0
O675 O 0.5886 0.31001 0.04215 0.0
H676 H 0.44547 0.36226 0.99174 0.0
H677 H 0.6597 0.36892 1.01039 0.0
N678 N 0.65755 0.33143 0.98808 0.0
N679 N 0.7378 0.3128 0.98597 0.0
C680 C 0.66983 0.3168 0.98089 0.0
C681 C 0.72059 0.3369 0.99732 0.0
C682 C 0.76984 0.32555 0.99589 0.0
C683 C 0.43363 0.3308 0.97049 0.0
O684 O 0.406 0.33456 1.00042 0.0
H685 H 0.62802 0.30887 0.97633 0.0
H686 H 0.72917 0.34789 1.00805 0.0
O687 O 0.56509 0.33414 0.05074 0.0
H688 H 0.59635 0.39536 1.01094 0.0
H689 H 0.82404 0.32638 1.00405 0.0
Cu690 Cu 0.19949 0.34104 0.78326 0.0
N691 N 0.21154 0.36192 0.78845 0.0
N692 N 0.26747 0.38394 0.79352 0.0
C693 C 0.27363 0.36884 0.79396 0.0
C694 C 0.19872 0.38659 0.78747 0.0
C695 C 0.16438 0.37304 0.78455 0.0
O696 O 0.26595 0.33224 0.81726 0.0
C697 C 0.20971 0.34529 0.70882 0.0
O698 O 0.21526 0.35955 0.71634 0.0
H699 H 0.32291 0.36289 0.79667 0.0
H700 H 0.1094 0.37142 0.77872 0.0
N701 N 0.10785 0.33422 0.79456 0.0
N702 N 0.01336 0.31911 0.79844 0.0
C703 C 0.07976 0.32076 0.78623 0.0
C704 C 0.05737 0.34131 0.81261 0.0
C705 C 0.99958 0.33206 0.81516 0.0
C706 C 0.25098 0.33488 0.84904 0.0
O707 O 0.19347 0.34247 0.85572 0.0
H708 H 0.10825 0.31224 0.77211 0.0
H709 H 0.06236 0.3524 0.82349 0.0
O710 O 0.21057 0.3357 0.73362 0.0
H711 H 0.17511 0.39757 0.78481 0.0
H712 H 0.95081 0.33473 0.82816 0.0
Cu713 Cu 0.54739 0.47152 0.78448 0.0
N714 N 0.54043 0.45092 0.79478 0.0
N715 N 0.48664 0.42861 0.8005 0.0
C716 C 0.47946 0.44329 0.79237 0.0
C717 C 0.5555 0.42697 0.80822 0.0
C718 C 0.58836 0.44071 0.80484 0.0
O719 O 0.47761 0.48037 0.81646 0.0
C720 C 0.5684 0.48077 0.71283 0.0
O721 O 0.60262 0.49215 0.72582 0.0
H722 H 0.43042 0.44851 0.78485 0.0
H723 H 0.64333 0.44298 0.80912 0.0
N724 N 0.63559 0.48048 0.7933 0.0
N725 N 0.71537 0.49905 0.79135 0.0
C726 C 0.64669 0.49542 0.795 0.0
C727 C 0.69973 0.47441 0.78918 0.0
C728 C 0.74876 0.48576 0.78816 0.0
C729 C 0.49311 0.47946 0.84878 0.0
O730 O 0.55559 0.47434 0.85714 0.0
H731 H 0.6042 0.50348 0.79467 0.0
H732 H 0.70977 0.46271 0.78415 0.0
O733 O 0.53362 0.47228 0.73339 0.0
H734 H 0.58115 0.41654 0.81486 0.0
H735 H 0.80431 0.48434 0.78328 0.0
C736 C 0.12547 0.07982 0.11998 0.0
C737 C 0.19903 0.08042 0.11639 0.0
C738 C 0.0932 0.07909 0.15276 0.0
C739 C 0.1328 0.07908 0.18368 0.0
H740 H 0.09209 0.08035 0.09728 0.0
H741 H 0.03639 0.07917 0.15376 0.0
S742 S 0.32746 0.07904 0.18898 0.0
N743 N 0.31079 0.07977 0.14704 0.0
N744 N 0.25021 0.07859 0.2083 0.0
C745 C 0.20648 0.07899 0.18049 0.0
C746 C 0.23946 0.0796 0.14704 0.0
C747 C 0.22306 0.23159 0.12012 0.0
C748 C 0.19805 0.23243 0.15456 0.0
C749 C 0.1776 0.23254 0.09146 0.0
C750 C 0.10485 0.23432 0.09587 0.0
H751 H 0.27825 0.22965 0.11508 0.0
H752 H 0.19941 0.23112 0.06576 0.0
S753 S 0.01299 0.239 0.18027 0.0
N754 N 0.09607 0.23651 0.19108 0.0
N755 N 1.01065 0.23838 0.13753 0.0
C756 C 0.07956 0.23609 0.13009 0.0
C757 C 0.12602 0.23514 0.15929 0.0
C758 C 0.88616 0.99012 0.86003 0.0
C759 C 0.84226 0.98279 0.83615 0.0
C760 C 0.87124 0.99023 0.89559 0.0
C761 C 0.81153 0.98306 0.90929 0.0
H762 H 0.93416 0.99543 0.85145 0.0
H763 H 0.90827 0.99576 0.91255 0.0
S764 S 0.67466 0.96371 0.85781 0.0
N765 N 0.73269 0.96918 0.82868 0.0
N766 N 0.70486 0.96944 0.89562 0.0
C767 C 0.76504 0.97633 0.88566 0.0
C768 C 0.78028 0.9762 0.84917 0.0
C769 C 0.96951 0.83144 0.86338 0.0
C770 C 0.89713 0.83323 0.8566 0.0
C771 C 0.99785 0.83361 0.89687 0.0
C772 C 0.9554 0.83807 0.92499 0.0
H773 H 1.00499 0.82866 0.84242 0.0
H774 H 0.05408 0.83255 0.90029 0.0
S775 S 0.76233 0.84369 0.92189 0.0
N776 N 0.78328 0.83901 0.88183 0.0
N777 N 0.83661 0.84352 0.94396 0.0
C778 C 0.88278 0.83948 0.91881 0.0
C779 C 0.8537 0.83695 0.88495 0.0
C780 C 0.16496 0.56905 0.63911 0.0
C781 C 0.22162 0.57796 0.62781 0.0
C782 C 0.13957 0.5697 0.67322 0.0
C783 C 0.16946 0.57928 0.69802 0.0
H784 H 0.1383 0.56171 0.62113 0.0
H785 H 0.0945 0.56291 0.67985 0.0
S786 S 0.32179 0.60441 0.68268 0.0
N787 N 0.30924 0.59618 0.64489 0.0
N788 N 0.26185 0.59747 0.70908 0.0
C789 C 0.22838 0.58779 0.68762 0.0
C790 C 0.25434 0.58711 0.65261 0.0
C791 C 0.06452 0.74189 0.64243 0.0
C792 C 0.036 0.72771 0.63497 0.0
C793 C 0.10331 0.74456 0.67274 0.0
C794 C 0.11593 0.73319 0.69729 0.0
H795 H 0.05989 0.75088 0.6237 0.0
H796 H 0.12682 0.75549 0.67603 0.0
S797 S 0.04849 0.69426 0.6917 0.0
N798 N 0.01916 0.70235 0.65592 0.0
N799 N 0.09199 0.70731 0.71303 0.0
C800 C 0.08366 0.71919 0.69141 0.0
C801 C 0.0438 0.71646 0.66028 0.0
C802 C 0.9379 0.4655 0.38653 0.0
C803 C 0.90598 0.4748 0.3615 0.0
C804 C 0.9042 0.46204 0.41811 0.0
C805 C 0.83751 0.46793 0.42657 0.0
H806 H 0.98813 0.4603 0.38112 0.0
H807 H 0.93016 0.45437 0.43574 0.0
S808 S 0.73359 0.49392 0.37138 0.0
N809 N 0.80503 0.49055 0.34843 0.0
N810 N 0.74276 0.4843 0.40767 0.0
C811 C 0.80653 0.47783 0.40249 0.0
C812 C 0.84036 0.48117 0.37008 0.0
C813 C 0.87808 0.31966 0.3595 0.0
C814 C 0.91215 0.32939 0.33634 0.0
C815 C 0.89827 0.31856 0.39441 0.0
C816 C 0.9535 0.32719 0.40838 0.0
H817 H 0.8339 0.31303 0.35087 0.0
H818 H 0.8686 0.31103 0.41079 0.0
S819 S 0.06364 0.35377 0.35858 0.0
N820 N 1.00734 0.34732 0.32971 0.0
N821 N 0.0446 0.34529 0.39546 0.0
C822 C 0.99018 0.33655 0.38533 0.0
C823 C 0.96973 0.33763 0.34942 0.0
C824 C 0.60744 0.08018 0.61893 0.0
C825 C 0.68072 0.08149 0.61483 0.0
C826 C 0.57499 0.08197 0.65151 0.0
C827 C 0.6141 0.08544 0.68149 0.0
H828 H 0.57443 0.07812 0.5966 0.0
H829 H 0.51831 0.08126 0.65284 0.0
S830 S 0.80802 0.08908 0.68573 0.0
N831 N 0.79183 0.08556 0.64453 0.0
N832 N 0.73086 0.08919 0.70517 0.0
C833 C 0.68759 0.08625 0.67803 0.0
C834 C 0.7208 0.0842 0.64497 0.0
C835 C 0.59129 0.24918 0.62294 0.0
C836 C 0.59584 0.23731 0.59911 0.0
C837 C 0.62909 0.24904 0.65415 0.0
C838 C 0.67386 0.23707 0.66321 0.0
H839 H 0.55557 0.25843 0.61832 0.0
H840 H 0.62084 0.25821 0.67204 0.0
S841 S 0.71241 0.20405 0.60829 0.0
N842 N 0.65485 0.21381 0.58546 0.0
N843 N 0.72585 0.21365 0.64421 0.0
C844 C 0.68318 0.22562 0.63866 0.0
C845 C 0.64425 0.22571 0.60668 0.0
C846 C 0.3297 0.98755 0.38682 0.0
C847 C 0.28236 0.97696 0.40047 0.0
C848 C 0.35053 0.9873 0.35195 0.0
C849 C 0.32529 0.97643 0.32877 0.0
H850 H 0.35291 0.99591 0.40353 0.0
H851 H 0.38909 0.99541 0.34349 0.0
S852 S 0.19589 0.94676 0.35052 0.0
N853 N 0.20714 0.95583 0.38736 0.0
N854 N 0.24623 0.95526 0.32177 0.0
C855 C 0.27479 0.96623 0.34153 0.0
C856 C 0.25338 0.96652 0.3773 0.0
C857 C 0.4431 0.82326 0.39726 0.0
C858 C 0.4937 0.83385 0.40792 0.0
C859 C 0.4112 0.82383 0.3644 0.0
C860 C 0.42817 0.83504 0.3402 0.0
H861 H 0.42598 0.81458 0.41494 0.0
H862 H 0.371 0.81568 0.35848 0.0
S863 S 0.56164 0.86487 0.35369 0.0
N864 N 0.56238 0.85539 0.39047 0.0
N865 N 0.50332 0.85654 0.32867 0.0
C866 C 0.48149 0.84529 0.34976 0.0
C867 C 0.51399 0.84468 0.38348 0.0
C868 C 0.74503 0.5851 0.15722 0.0
C869 C 0.72601 0.58491 0.12179 0.0
C870 C 0.69534 0.58302 0.18376 0.0
C871 C 0.62403 0.58068 0.17622 0.0
H872 H 0.7988 0.58727 0.16476 0.0
H873 H 0.7127 0.58383 0.21042 0.0
S874 S 0.54712 0.57767 0.08783 0.0
N875 N 0.63103 0.58108 0.0808 0.0
N876 N 0.53778 0.57714 0.13035 0.0
C877 C 0.60468 0.57978 0.14088 0.0
C878 C 0.65545 0.58188 0.11382 0.0
C879 C 0.62922 0.73945 0.18803 0.0
C880 C 0.59983 0.72796 0.2083 0.0
C881 C 0.61162 0.74123 0.15291 0.0
C882 C 0.56353 0.73168 0.13611 0.0
H883 H 0.6686 0.74679 0.19889 0.0
H884 H 0.63797 0.74998 0.1385 0.0
S885 S 0.46575 0.70072 0.17794 0.0
N886 N 0.51527 0.70753 0.20928 0.0
N887 N 0.48271 0.71097 0.1433 0.0
C888 C 0.53045 0.7207 0.15642 0.0
C889 C 0.54847 0.71882 0.19239 0.0
C890 C 0.46287 0.48145 0.91233 0.0
C891 C 0.44074 0.48204 0.87731 0.0
C892 C 0.41472 0.48163 0.94011 0.0
C893 C 0.34198 0.48233 0.93421 0.0
H894 H 0.51809 0.48032 0.9185 0.0
H895 H 0.43463 0.48047 0.96627 0.0
S896 S 0.25623 0.48585 0.84781 0.0
N897 N 0.34073 0.48466 0.83878 0.0
N898 N 0.25052 0.48508 0.89046 0.0
C899 C 0.3193 0.4838 0.8994 0.0
C900 C 0.36841 0.48365 0.87116 0.0
C901 C 0.37192 0.33159 0.87567 0.0
C902 C 0.29833 0.33095 0.87869 0.0
C903 C 0.41573 0.33074 0.90523 0.0
C904 C 0.38775 0.32921 0.93902 0.0
H905 H 0.39567 0.33358 0.8506 0.0
H906 H 0.47177 0.33202 0.90166 0.0
S907 S 0.19884 0.32473 0.96022 0.0
N908 N 0.20012 0.32704 0.91779 0.0
N909 N 0.28158 0.32543 0.97276 0.0
C910 C 0.3145 0.32761 0.94193 0.0
C911 C 0.27016 0.32849 0.91199 0.0
C912 C 0.56482 0.04444 0.0535 0.0
C913 C 0.59073 0.05915 0.05107 0.0
C914 C 0.60922 0.03193 0.04935 0.0
C915 C 0.6815 0.03356 0.04231 0.0
H916 H 0.50992 0.04259 0.05924 0.0
H917 H 0.5868 1.02088 0.0522 0.0
S918 S 0.77379 0.06973 0.02964 0.0
N919 N 0.69234 0.07462 0.03898 0.0
N920 N 0.77533 0.05126 0.03062 0.0
C921 C 0.70764 0.04825 0.03907 0.0
C922 C 0.66247 0.06097 0.04356 0.0
C923 C 0.81634 0.29393 1.01392 0.0
C924 C 0.76631 0.2977 0.98827 0.0
C925 C 0.84293 0.27926 1.01732 0.0
C926 C 0.82038 0.26763 0.99545 0.0
H927 H 0.83417 0.30233 0.03205 0.0
H928 H 0.88047 0.27691 0.0377 0.0
S929 S 0.69621 0.2718 0.92176 0.0
N930 N 0.69939 0.28867 0.93908 0.0
N931 N 0.74888 0.26122 0.94546 0.0
C932 C 0.77156 0.27129 0.96924 0.0
C933 C 0.74467 0.28625 0.96571 0.0
C934 C 0.55435 0.269 0.23474 0.0
C935 C 0.49338 0.26409 0.25207 0.0
C936 C 0.58448 0.28308 0.24171 0.0
C937 C 0.55476 0.29292 0.26616 0.0
H938 H 0.57839 0.26203 0.21514 0.0
H939 H 0.63048 0.28644 0.22723 0.0
S940 S 0.40024 0.2851 0.32144 0.0
N941 N 0.40839 0.26998 0.29724 0.0
N942 N 0.46371 0.29648 0.30915 0.0
C943 C 0.49477 0.28812 0.28408 0.0
C944 C 0.46448 0.27372 0.27737 0.0
C945 C 0.66929 1.02739 0.24064 0.0
C946 C 0.6944 1.01743 0.26626 0.0
C947 C 0.7037 0.04101 0.2333 0.0
C948 C 0.76503 0.04539 0.25114 0.0
H949 H 0.62158 1.02484 0.22666 0.0
H950 H 0.68176 0.04819 0.21344 0.0
S951 S 0.85434 1.0231 0.31986 0.0
N952 N 0.78729 1.01264 0.30809 0.0
N953 N 0.84903 0.03836 0.29592 0.0
C954 C 0.79122 0.03542 0.27653 0.0
C955 C 0.75669 1.02148 0.28367 0.0
C956 C 0.37011 0.78413 0.98834 0.0
C957 C 0.43183 0.78618 1.0079 0.0
C958 C 0.32497 0.79618 0.98048 0.0
C959 C 0.33814 0.8107 0.99294 0.0
H960 H 0.35727 0.77318 0.97838 0.0
H961 H 0.27909 0.79413 0.96463 0.0
S962 S 0.48765 0.82191 0.04831 0.0
N963 N 0.50103 0.80388 0.04124 0.0
N964 N 0.41455 0.82631 0.02752 0.0
C965 C 0.39768 0.81282 1.01376 0.0
C966 C 0.44486 0.80065 0.02098 0.0
C967 C 0.47958 0.79007 0.78877 0.0
C968 C 0.5418 0.79371 0.77069 0.0
C969 C 0.44257 0.77668 0.78253 0.0
C970 C 0.46566 0.76612 0.75787 0.0
H971 H 0.45882 0.79766 0.80805 0.0
H972 H 0.39447 0.77479 0.79674 0.0
S973 S 0.62771 0.76957 0.70464 0.0
N974 N 0.62516 0.78522 0.72719 0.0
N975 N 0.55827 0.75992 0.71686 0.0
C976 C 0.52897 0.76938 0.7403 0.0
C977 C 0.5663 0.78312 0.74639 0.0
C978 C 0.25781 1.02293 0.75999 0.0
C979 C 0.1846 1.0209 0.75705 0.0
C980 C 0.28942 0.03697 0.7543 0.0
C981 C 0.24942 0.04971 0.74534 0.0
H982 H 0.29123 1.01351 0.76648 0.0
H983 H 0.3459 0.03781 0.75651 0.0
S984 S 0.0552 0.05092 0.73729 0.0
N985 N 0.07272 0.03326 0.74653 0.0
N986 N 0.13185 0.05946 0.73574 0.0
C987 C 0.17611 0.0479 0.74266 0.0
C988 C 0.14386 0.03359 0.74851 0.0
C989 C 0.4696 0.51063 0.50972 0.0
C990 C 0.45271 0.49942 0.4854 0.0
C991 C 0.42563 0.52319 0.51511 0.0
C992 C 0.36229 0.52521 0.49655 0.0
H993 H 0.51798 0.50989 0.52431 0.0
H994 H 0.44158 0.53138 0.53414 0.0
S995 S 0.29252 0.49897 0.43027 0.0
N996 N 0.36586 0.49098 0.44364 0.0
N997 N 0.28597 0.5147 0.45233 0.0
C998 C 0.34461 0.51401 0.4723 0.0
C999 C 0.38899 0.50116 0.46708 0.0
C1000 C 0.72573 0.77896 0.54705 0.0
C1001 C 0.7012 0.78652 0.51733 0.0
C1002 C 0.78425 0.76926 0.54567 0.0
C1003 C 0.82087 0.76655 0.51446 0.0
H1004 H 0.7002 0.78077 0.57175 0.0
H1005 H 0.80131 0.76393 0.56943 0.0
S1006 S 0.77321 0.78251 0.42852 0.0
N1007 N 0.71581 0.79004 0.45543 0.0
N1008 N 0.82407 0.77165 0.4525 0.0
C1009 C 0.79588 0.77386 0.48439 0.0
C1010 C 0.73665 0.78385 0.48592 0.0
C1011 C 0.83058 0.52984 0.75489 0.0
C1012 C 0.80197 0.54293 0.76947 0.0
C1013 C 0.80247 0.51562 0.76229 0.0
C1014 C 0.74485 0.51381 0.78493 0.0
H1015 H 0.87444 0.53064 0.73716 0.0
H1016 H 0.82548 0.50601 0.74958 0.0
S1017 S 0.65571 0.54439 0.83296 0.0
N1018 N 0.71572 0.55304 0.80952 0.0
N1019 N 0.66367 0.52644 0.8237 0.0
C1020 C 0.71686 0.5268 0.80031 0.0
C1021 C 0.74519 0.54129 0.79256 0.0
C1022 C 0.12279 0.26129 0.51961 0.0
C1023 C 0.12678 0.27549 0.53548 0.0
C1024 C 0.17473 0.2502 0.52525 0.0
C1025 C 0.23164 0.2527 0.54779 0.0
H1026 H 0.07948 0.25879 0.50243 0.0
H1027 H 0.16967 0.23948 0.51248 0.0
S1028 S 0.26727 0.28784 0.59559 0.0
N1029 N 0.19392 0.29137 0.57422 0.0
N1030 N 0.28946 0.2705 0.58553 0.0
C1031 C 0.23623 0.26681 0.56378 0.0
C1032 C 0.18447 0.27819 0.55743 0.0
C1033 C 0.22288 0.52517 0.27901 0.0
C1034 C 0.25791 0.51197 0.26894 0.0
C1035 C 0.25454 0.5393 0.2757 0.0
C1036 C 0.32277 0.54095 0.26209 0.0
H1037 H 0.17075 0.52456 0.29006 0.0
H1038 H 0.2255 0.54902 0.28436 0.0
S1039 S 0.43511 0.5101 0.22912 0.0
N1040 N 0.36356 0.5016 0.243 0.0
N1041 N 0.42284 0.5281 0.23676 0.0
C1042 C 0.35821 0.52787 0.25155 0.0
C1043 C 0.32591 0.51344 0.25496 0.0
C1044 C 0.08503 1.027 0.54144 0.0
C1045 C 0.15732 1.02835 0.53398 0.0
C1046 C 0.04216 0.03968 0.54707 0.0
C1047 C 0.06954 0.0543 0.54569 0.0
H1048 H 0.06137 1.01605 0.5435 0.0
H1049 H 0.98727 0.03801 0.55314 0.0
S1050 S 0.25289 0.06426 0.52317 0.0
N1051 N 0.25244 0.04578 0.52272 0.0
N1052 N 0.17241 0.0694 0.53372 0.0
C1053 C 0.1412 0.05585 0.53757 0.0
C1054 C 0.18481 0.04297 0.53163 0.0
C1055 C 0.87209 0.29072 0.81985 0.0
C1056 C 0.86871 0.2817 0.78995 0.0
C1057 C 0.91974 0.30271 0.82249 0.0
C1058 C 0.96657 0.3063 0.79541 0.0
H1059 H 0.83799 0.28842 0.84163 0.0
H1060 H 0.92022 0.30919 0.84617 0.0
S1061 S 0.97583 0.28696 0.71046 0.0
N1062 N 0.91465 0.27776 0.73192 0.0
N1063 N 1.00393 0.30014 0.73697 0.0
C1064 C 0.96366 0.29742 0.7653 0.0
C1065 C 0.91494 0.2852 0.76256 0.0
C1066 C 0.06659 0.78253 0.27216 0.0
C1067 C 0.04246 0.79373 0.29487 0.0
C1068 C 0.02727 0.76948 0.26586 0.0
C1069 C 0.96149 0.76698 0.28173 0.0
H1070 H 0.11693 0.78375 0.25948 0.0
H1071 H 0.04897 0.76122 0.2484 0.0
S1072 S 0.87217 0.79336 0.34168 0.0
N1073 N 0.94711 0.80169 0.33239 0.0
N1074 N 0.87302 0.77738 0.32026 0.0
C1075 C 0.93651 0.77816 0.3044 0.0
C1076 C 0.97688 0.79144 0.31097 0.0
C1077 C 0.09073 0.53058 1.00787 0.0
C1078 C 0.05655 0.51854 0.02421 0.0
C1079 C 0.07052 0.54553 1.01401 0.0
C1080 C 0.01566 0.54917 0.03716 0.0
H1081 H 0.13298 0.52838 0.98981 0.0
H1082 H 0.09761 0.55427 1.00001 0.0
S1083 S 0.91368 0.52179 0.08914 0.0
N1084 N 0.96755 0.51131 0.06598 0.0
N1085 N 0.93044 0.53927 0.07801 0.0
C1086 C 0.98185 0.5372 0.05412 0.0
C1087 C 1.00205 0.52197 0.04758 0.0
C1088 C 0.33756 0.08886 0.91516 0.0
C1089 C 0.39909 0.08848 0.93514 0.0
C1090 C 0.34066 0.08926 0.87873 0.0
C1091 C 0.40532 0.08912 0.8607 0.0
H1092 H 0.28684 0.08965 0.92771 0.0
H1093 H 0.29166 0.09011 0.86461 0.0
S1094 S 0.58136 0.08618 0.90116 0.0
N1095 N 0.52653 0.08657 0.93427 0.0
N1096 N 0.53201 0.08717 0.86603 0.0
C1097 C 0.46698 0.08777 0.88041 0.0
C1098 C 0.46391 0.08752 0.91751 0.0
C1099 C 0.97508 0.23536 0.86684 0.0
C1100 C 0.98964 0.22514 0.89382 0.0
C1101 C 0.94104 0.23085 0.83618 0.0
C1102 C 0.91876 0.21596 0.83148 0.0
H1103 H 0.98678 0.24713 0.87015 0.0
H1104 H 0.92733 0.23935 0.81731 0.0
S1105 S 0.95108 0.1844 0.8921 0.0
N1106 N 0.98536 0.19904 0.91185 0.0
N1107 N 0.91993 0.19073 0.85491 0.0
C1108 C 0.93724 0.20545 0.85713 0.0
C1109 C 0.97305 0.20997 0.88807 0.0
C1110 C 0.37627 0.2376 0.40077 0.0
C1111 C 0.40699 0.2261 0.42099 0.0
C1112 C 0.34966 0.23483 0.36723 0.0
C1113 C 0.35299 0.22045 0.35254 0.0
H1114 H 0.37299 0.24889 0.41081 0.0
H1115 H 0.32888 0.2441 0.35226 0.0
S1116 S 0.4242 0.18623 0.39473 0.0
N1117 N 0.43608 0.19956 0.42364 0.0
N1118 N 0.38646 0.19446 0.36123 0.0
C1119 C 0.38196 0.20882 0.37269 0.0
C1120 C 0.40884 0.2116 0.40666 0.0
C1121 C 0.83478 0.08523 0.41132 0.0
C1122 C 0.89282 0.08506 0.43369 0.0
C1123 C 0.84388 0.08529 0.3751 0.0
C1124 C 0.9113 0.08499 0.35966 0.0
H1125 H 0.7822 0.08618 0.42176 0.0
H1126 H 0.79734 0.08604 0.35906 0.0
S1127 S 0.08001 0.08229 0.4071 0.0
N1128 N 0.01998 0.08302 0.43792 0.0
N1129 N 0.03659 0.08299 0.37007 0.0
C1130 C 0.96947 0.08375 0.3818 0.0
C1131 C 0.9603 0.08385 0.41869 0.0
C1132 C 0.57813 0.98182 0.09558 0.0
C1133 C 0.60497 0.96722 0.09129 0.0
C1134 C 0.53936 0.98582 0.12529 0.0
C1135 C 0.52503 0.97534 0.15176 0.0
H1136 H 0.59124 0.9905 0.07708 0.0
H1137 H 0.52367 0.9974 0.12826 0.0
S1138 S 0.57381 0.93498 0.14987 0.0
N1139 N 0.608 0.9419 0.11398 0.0
N1140 N 0.53372 0.94912 0.16899 0.0
C1141 C 0.54665 0.96039 0.14617 0.0
C1142 C 0.58702 0.95642 0.11623 0.0
C1143 C 0.15739 0.84019 0.12306 0.0
C1144 C 0.14781 0.82756 0.10168 0.0
C1145 C 0.18695 0.83897 0.15654 0.0
C1146 C 0.20869 0.82507 0.17039 0.0
H1147 H 0.14258 0.8512 0.11379 0.0
H1148 H 0.19253 0.84908 0.17172 0.0
S1149 S 0.19523 0.78842 0.12535 0.0
N1150 N 0.16261 0.80056 0.09735 0.0
N1151 N 0.21789 0.79832 0.1596 0.0
C1152 C 0.19929 0.81234 0.1493 0.0
C1153 C 0.16899 0.81356 0.11529 0.0
C1154 C 0.72055 0.82899 0.65551 0.0
C1155 C 0.76347 0.84105 0.66535 0.0
C1156 C 0.68517 0.82893 0.62354 0.0
C1157 C 0.69123 0.84081 0.59954 0.0
H1158 H 0.71057 0.81991 0.67345 0.0
H1159 H 0.64985 0.81973 0.61825 0.0
S1160 S 0.8047 0.87405 0.60994 0.0
N1161 N 0.81612 0.86452 0.64625 0.0
N1162 N 0.74923 0.86422 0.58629 0.0
C1163 C 0.73821 0.85235 0.6076 0.0
C1164 C 0.77425 0.8525 0.64042 0.0
C1165 C 0.04326 0.95772 0.5964 0.0
C1166 C 0.08143 0.97051 0.58716 0.0
C1167 C 1.00294 0.95743 0.627 0.0
C1168 C 0.99938 0.96993 0.64945 0.0
H1169 H 0.04908 0.94752 0.58151 0.0
H1170 H 0.97832 0.94697 0.63423 0.0
S1171 S 0.0807 1.00699 0.63293 0.0
N1172 N 0.10643 0.99652 0.60006 0.0
N1173 N 0.03024 0.99615 0.65696 0.0
C1174 C 0.03197 0.98323 0.63842 0.0
C1175 C 0.07328 0.98345 0.6075 0.0
C1176 C 0.44998 0.60078 0.41717 0.0
C1177 C 0.43933 0.59041 0.44424 0.0
C1178 C 0.47977 0.59647 0.38532 0.0
C1179 C 0.49891 0.58149 0.37878 0.0
H1180 H 0.43166 0.61221 0.41991 0.0
H1181 H 0.48301 0.60476 0.36486 0.0
S1182 S 0.49097 0.55029 0.44225 0.0
N1183 N 0.45861 0.56479 0.46343 0.0
N1184 N 0.51194 0.5566 0.40338 0.0
C1185 C 0.49311 0.57123 0.40634 0.0
C1186 C 0.4642 0.5757 0.43909 0.0
C1187 C 0.77208 0.72976 0.42493 0.0
C1188 C 0.76169 0.72082 0.39521 0.0
C1189 C 0.79575 0.72355 0.45655 0.0
C1190 C 0.81084 0.70816 0.45974 0.0
H1191 H 0.76538 0.74179 0.42338 0.0
H1192 H 0.80714 0.73106 0.47775 0.0
S1193 S 0.78201 0.67941 0.39201 0.0
N1194 N 0.75971 0.6953 0.37304 0.0
N1195 N 0.80578 0.68391 0.43179 0.0
C1196 C 0.79559 0.69897 0.43118 0.0
C1197 C 0.77068 0.70521 0.39917 0.0
C1198 C 0.35451 0.71701 0.92753 0.0
C1199 C 0.39349 0.72923 0.93995 0.0
C1200 C 0.31312 0.71829 0.89717 0.0
C1201 C 0.30796 0.73192 0.87865 0.0
H1202 H 0.3592 0.7062 0.9401 0.0
H1203 H 0.28659 0.70842 0.88758 0.0
S1204 S 0.39871 0.7673 0.90136 0.0
N1205 N 0.42364 0.75536 0.93165 0.0
N1206 N 0.34453 0.75794 0.8761 0.0
C1207 C 0.34429 0.74434 0.89196 0.0
C1208 C 0.38738 0.74294 0.92216 0.0
C1209 C 0.93115 0.58894 0.88116 0.0
C1210 C 0.96156 0.57519 0.87109 0.0
C1211 C 0.89293 0.59034 0.91226 0.0
C1212 C 0.88307 0.57805 0.93469 0.0
H1213 H 0.93536 0.59866 0.8645 0.0
H1214 H 0.87058 0.60114 0.91864 0.0
S1215 S 0.95744 0.53989 0.92201 0.0
N1216 N 0.98258 0.54928 0.88732 0.0
N1217 N 0.91142 0.55184 0.9454 0.0
C1218 C 0.91467 0.56433 0.92528 0.0
C1219 C 0.95366 0.56292 0.89369 0.0
C1220 C 0.57 0.45808 0.62871 0.0
C1221 C 0.61403 0.46639 0.60644 0.0
C1222 C 0.55387 0.46296 0.66247 0.0
C1223 C 0.58048 0.4765 0.67563 0.0
H1224 H 0.54794 0.44756 0.62011 0.0
H1225 H 0.52097 0.45593 0.67851 0.0
S1226 S 0.69517 0.50298 0.62724 0.0
N1227 N 0.68197 0.48914 0.59975 0.0
N1228 N 0.65166 0.49845 0.66271 0.0
C1229 C 0.62365 0.48508 0.65335 0.0
C1230 C 0.64049 0.48001 0.61903 0.0
C1231 C 0.15167 0.34911 0.61405 0.0
C1232 C 0.12276 0.33502 0.60683 0.0
C1233 C 0.18377 0.35205 0.64634 0.0
C1234 C 0.18883 0.34099 0.67261 0.0
H1235 H 0.14544 0.35818 0.59564 0.0
H1236 H 0.20174 0.36333 0.65127 0.0
S1237 S 0.13131 0.30153 0.66394 0.0
N1238 N 0.10822 0.30943 0.62696 0.0
N1239 N 0.16931 0.31482 0.68681 0.0
C1240 C 0.16507 0.32654 0.6644 0.0
C1241 C 0.13182 0.32361 0.6318 0.0
C1242 C 0.64297 0.33397 0.1148 0.0
C1243 C 0.62229 0.3208 0.0975 0.0
C1244 C 0.68339 0.33347 0.14543 0.0
C1245 C 0.70499 0.31977 0.16036 0.0
H1246 H 0.62884 0.34482 0.10434 0.0
H1247 H 0.69696 0.34395 0.15772 0.0
S1248 S 0.66423 0.28198 0.12569 0.0
N1249 N 0.6264 0.29359 0.09808 0.0
N1250 N 0.70179 0.29265 0.15516 0.0
C1251 C 0.68446 0.30652 0.14335 0.0
C1252 C 0.64338 0.30703 0.11218 0.0
C1253 C 0.12347 0.48999 0.17103 0.0
C1254 C 0.0747 0.4803 0.18703 0.0
C1255 C 0.16529 0.48534 0.14269 0.0
C1256 C 0.15929 0.47082 0.1288 0.0
H1257 H 0.12577 0.50161 0.17894 0.0
H1258 H 0.19824 0.49353 0.12996 0.0
S1259 S 0.04165 0.44093 0.16228 0.0
N1260 N 0.0244 0.45548 0.18716 0.0
N1261 N 0.10433 0.44641 0.13565 0.0
C1262 C 0.11418 0.46075 0.14628 0.0
C1263 C 0.07147 0.46556 0.17482 0.0
C1264 C 0.17719 0.17163 0.04817 0.0
C1265 C 0.11471 0.16871 0.02988 0.0
C1266 C 0.23031 0.1607 0.05155 0.0
C1267 C 0.22371 0.14637 0.03661 0.0
H1268 H 0.18485 0.18243 0.06021 0.0
H1269 H 0.27688 0.1635 0.06621 0.0
S1270 S 0.07308 0.13357 0.9832 0.0
N1271 N 0.051 0.15069 0.99506 0.0
N1272 N 0.1506 0.13032 1.00086 0.0
C1273 C 0.1617 0.14339 1.01786 0.0
C1274 C 0.10742 0.1545 1.01464 0.0
C1275 C 0.19154 0.15259 0.25376 0.0
C1276 C 0.17827 0.16677 0.23898 0.0
C1277 C 0.1395 0.14139 0.255 0.0
C1278 C 0.07158 0.14376 0.24136 0.0
H1279 H 0.2424 0.1502 0.26502 0.0
H1280 H 0.15243 0.13084 0.26728 0.0
S1281 S 1.012 0.17838 0.19642 0.0
N1282 N 0.09325 0.18217 0.20836 0.0
N1283 N 0.99616 0.16123 0.21028 0.0
C1284 C 0.05811 0.15781 0.22585 0.0
C1285 C 0.11109 0.16924 0.22476 0.0
C1286 C 0.95373 0.90515 1.00625 0.0
C1287 C 0.02778 0.90519 1.00768 0.0
C1288 C 0.91403 0.91831 1.01259 0.0
C1289 C 0.94673 0.93193 0.02139 0.0
H1290 H 0.92642 0.89495 0.99959 0.0
H1291 H 0.85734 0.91776 1.01124 0.0
S1292 S 0.13878 0.93798 0.02897 0.0
N1293 N 0.1316 0.92012 0.01874 0.0
N1294 N 0.05776 0.94454 0.03079 0.0
C1295 C 0.02057 0.93204 0.02306 0.0
C1296 C 0.06079 0.91878 1.01617 0.0
C1297 C 0.8918 0.8926 0.77137 0.0
C1298 C 0.82142 0.89402 0.7822 0.0
C1299 C 0.93738 0.90497 0.77086 0.0
C1300 C 0.91454 0.9193 0.78116 0.0
H1301 H 0.91131 0.88192 0.76229 0.0
H1302 H 0.99038 0.90339 0.76142 0.0
S1303 S 0.73803 0.92857 0.81597 0.0
N1304 N 0.73305 0.91063 0.80617 0.0
N1305 N 0.81839 0.93379 0.8056 0.0
C1306 C 0.84499 0.92074 0.79319 0.0
C1307 C 0.79861 0.90816 0.79358 0.0
C1308 C 0.17281 0.66049 0.51594 0.0
C1309 C 0.1014 0.66478 0.51455 0.0
C1310 C 0.19385 0.6453 0.51433 0.0
C1311 C 0.14458 0.63366 0.5106 0.0
H1312 H 0.21296 0.66897 0.51837 0.0
H1313 H 0.24934 0.64268 0.51508 0.0
S1314 S 0.95106 0.63864 0.50632 0.0
N1315 N 0.98148 0.65587 0.50959 0.0
N1316 N 0.02061 0.62758 0.50682 0.0
C1317 C 0.07301 0.63778 0.50959 0.0
C1318 C 0.05158 0.65321 0.51155 0.0
C1319 C 0.13305 0.66523 0.77639 0.0
C1320 C 0.18414 0.6664 0.75013 0.0
C1321 C 0.08374 0.6536 0.77674 0.0
C1322 C 0.08314 0.64249 0.75091 0.0
H1323 H 0.13157 0.6733 0.79726 0.0
H1324 H 0.0466 0.65314 0.79792 0.0
S1325 S 0.20257 0.64071 0.67509 0.0
N1326 N 0.22884 0.65565 0.69661 0.0
N1327 N 0.13666 0.63369 0.69757 0.0
C1328 C 0.13364 0.6435 0.72436 0.0
C1329 C 0.18391 0.65543 0.7239 0.0
C1330 C 0.81194 0.40024 0.51185 0.0
C1331 C 0.73811 0.40106 0.50932 0.0
C1332 C 0.84712 0.38645 0.51764 0.0
C1333 C 0.81004 0.37288 0.52176 0.0
H1334 H 0.84286 0.41029 0.50849 0.0
H1335 H 0.90384 0.38644 0.51918 0.0
S1336 S 0.61604 0.36894 0.51823 0.0
N1337 N 0.6294 0.38701 0.51239 0.0
N1338 N 0.69467 0.36137 0.52261 0.0
C1339 C 0.73619 0.37363 0.51968 0.0
C1340 C 0.7006 0.3876 0.51363 0.0
C1341 C 0.82708 0.4067 0.26173 0.0
C1342 C 0.84802 0.39163 0.26544 0.0
C1343 C 0.87616 0.41846 0.26133 0.0
C1344 C 0.94884 0.41576 0.26453 0.0
H1345 H 0.77203 0.40946 0.2588 0.0
H1346 H 0.85687 0.42975 0.25762 0.0
S1347 S 0.03212 0.37842 0.27608 0.0
N1348 N 0.9476 0.37477 0.27256 0.0
N1349 N 0.03884 0.39679 0.27337 0.0
C1350 C 0.97054 0.40078 0.26909 0.0
C1351 C 0.92055 0.38877 0.26927 0.0
C1352 C 0.70434 0.156 0.55858 0.0
C1353 C 0.70188 0.14253 0.53951 0.0
C1354 C 0.64802 0.16629 0.55834 0.0
C1355 C 0.58632 0.1636 0.53925 0.0
H1356 H 0.74985 0.15854 0.57426 0.0
H1357 H 0.65228 0.17637 0.57366 0.0
S1358 S 0.55511 0.13095 0.48206 0.0
N1359 N 0.63352 0.12777 0.4988 0.0
N1360 N 0.52806 0.14691 0.49898 0.0
C1361 C 0.58336 0.15033 0.51969 0.0
C1362 C 0.64087 0.13988 0.51967 0.0
C1363 C 0.47892 0.16536 0.77233 0.0
C1364 C 0.51356 0.15248 0.75983 0.0
C1365 C 0.51505 0.17884 0.77861 0.0
C1366 C 0.58762 0.18026 0.77221 0.0
H1367 H 0.4232 0.16499 0.77772 0.0
H1368 H 0.48553 0.18833 0.78822 0.0
S1369 S 0.70363 0.14999 0.73919 0.0
N1370 N 0.62534 0.14214 0.74109 0.0
N1371 N 0.69301 0.16736 0.75287 0.0
C1372 C 0.62307 0.16749 0.75957 0.0
C1373 C 0.58627 0.15367 0.75351 0.0
C1374 C 0.43591 0.91435 0.53016 0.0
C1375 C 0.36504 0.91878 0.52643 0.0
C1376 C 0.4563 0.89913 0.53043 0.0
C1377 C 0.4069 0.88748 0.52738 0.0
H1378 H 0.47636 0.92274 0.5328 0.0
H1379 H 0.51137 0.89649 0.53375 0.0
S1380 S 0.21456 0.8928 0.51618 0.0
N1381 N 0.24532 0.91 0.51931 0.0
N1382 N 0.28344 0.88161 0.51922 0.0
C1383 C 0.33586 0.89173 0.52323 0.0
C1384 C 0.31509 0.90726 0.52281 0.0
C1385 C 0.39661 0.91309 0.31502 0.0
C1386 C 0.42795 0.91668 0.28314 0.0
C1387 C 0.34756 0.90138 0.31777 0.0
C1388 C 0.32675 0.89295 0.28857 0.0
H1389 H 0.41111 0.91925 0.33807 0.0
H1390 H 0.32692 0.89877 0.34317 0.0
S1391 S 0.38653 0.89955 0.19817 0.0
N1392 N 0.43094 0.91181 0.22137 0.0
N1393 N 0.33731 0.89027 0.22603 0.0
C1394 C 0.35602 0.89691 0.25627 0.0
C1395 C 0.40679 0.90865 0.25367 0.0
C1396 C 0.77849 0.68257 0.02284 0.0
C1397 C 0.70459 0.68367 0.02219 0.0
C1398 C 0.81319 0.66882 0.02846 0.0
C1399 C 0.77601 0.65535 0.03337 0.0
H1400 H 0.81014 0.6925 0.01936 0.0
H1401 H 0.86999 0.66873 0.0286 0.0
S1402 S 0.58177 0.65184 0.03409 0.0
N1403 N 0.59533 0.66982 0.02678 0.0
N1404 N 0.66032 0.64412 0.0377 0.0
C1405 C 0.70204 0.65623 0.03275 0.0
C1406 C 0.66653 0.67031 0.02721 0.0
C1407 C 0.6501 0.66309 0.2865 0.0
C1408 C 0.69003 0.66657 0.25676 0.0
C1409 C 0.60173 0.65126 0.28672 0.0
C1410 C 0.59188 0.64218 0.25744 0.0
H1411 H 0.65609 0.66957 0.30996 0.0
H1412 H 0.57231 0.64907 0.31018 0.0
S1413 S 0.68088 0.6463 0.1727 0.0
N1414 N 0.7139 0.65988 0.19664 0.0
N1415 N 0.6252 0.6373 0.19797 0.0
C1416 C 0.63192 0.64524 0.22776 0.0
C1417 C 0.68044 0.65748 0.2272 0.0
C1418 C 0.40027 0.41735 0.02596 0.0
C1419 C 0.34126 0.41726 1.00386 0.0
C1420 C 0.4523 0.40611 0.02433 0.0
C1421 C 0.44789 0.39415 1.00064 0.0
H1422 H 0.406 0.4261 0.0451 0.0
H1423 H 0.49598 0.40669 0.04222 0.0
S1424 S 0.30794 0.38916 0.93479 0.0
N1425 N 0.28452 0.40447 0.95579 0.0
N1426 N 0.38135 0.38337 0.95328 0.0
C1427 C 0.38971 0.39395 0.97813 0.0
C1428 C 0.33681 0.40547 0.97959 0.0
C1429 C 0.37593 0.41849 0.77583 0.0
C1430 C 0.4323 0.4172 0.79939 0.0
C1431 C 0.32249 0.40767 0.7742 0.0
C1432 C 0.32305 0.39496 0.79585 0.0
H1433 H 0.37342 0.42785 0.75806 0.0
H1434 H 0.28085 0.40913 0.75539 0.0
S1435 S 0.45464 0.3867 0.86417 0.0
N1436 N 0.48222 0.40248 0.84652 0.0
N1437 N 0.3827 0.38209 0.84286 0.0
C1438 C 0.37848 0.39355 0.81975 0.0
C1439 C 0.43275 0.40464 0.82166 0.0
loop_
_geom_bond_atom_site_label_1
_geom_bond_atom_site_label_2
_geom_bond_distance
_geom_bond_site_symmetry_2
_ccdc_geom_bond_type
Cu0 N1 1.999 . S
Cu0 O6 1.974 . S
Cu0 N11 1.985 . S
Cu0 O20 1.959 1_554 S
N1 Cu0 1.999 . S
N1 C3 1.263 . S
N1 C5 1.389 1_554 S
N2 C3 1.358 . S
N2 C4 1.400 1_554 S
C3 N1 1.263 . S
C3 N2 1.358 . S
C3 H9 0.930 . S
C4 N2 1.400 1_556 S
C4 C5 1.351 . S
C4 H21 0.930 . S
C5 N1 1.389 1_556 S
C5 C4 1.351 . S
C5 H10 0.930 . S
O6 Cu0 1.974 . S
O6 C16 1.282 . S
C7 O8 1.261 . S
C7 O20 1.251 . S
O8 C7 1.261 . S
H9 C3 0.930 . S
H10 C5 0.930 . S
N11 Cu0 1.985 . S
N11 C13 1.329 1_554 S
N11 C14 1.390 . S
N12 C13 1.341 1_554 S
N12 C15 1.336 . S
C13 N11 1.329 1_556 S
C13 N12 1.341 1_556 S
C13 H18 0.939 . S
C14 N11 1.390 . S
C14 C15 1.346 . S
C14 H19 0.930 . S
C15 N12 1.336 . S
C15 C14 1.346 . S
C15 H22 0.929 . S
C16 O6 1.282 . S
C16 O17 1.216 . S
O17 C16 1.216 . S
H18 C13 0.939 . S
H19 C14 0.930 . S
O20 Cu0 1.959 1_556 S
O20 C7 1.251 . S
H21 C4 0.930 . S
H22 C15 0.929 . S
Cu23 N24 1.999 . S
Cu23 O29 1.974 . S
Cu23 N34 1.985 . S
Cu23 O43 1.959 1_554 S
N24 Cu23 1.999 . S
N24 C26 1.263 1_655 S
N24 C28 1.389 1_554 S
N25 C26 1.358 . S
N25 C27 1.400 1_554 S
C26 N24 1.263 1_455 S
C26 N25 1.358 . S
C26 H32 0.930 . S
C27 N25 1.400 1_556 S
C27 C28 1.351 1_455 S
C27 H44 0.930 1_455 S
C28 N24 1.389 1_556 S
C28 C27 1.351 1_655 S
C28 H33 0.930 . S
O29 Cu23 1.974 . S
O29 C39 1.282 1_655 S
C30 O31 1.268 . S
C30 O43 1.251 . S
O31 C30 1.268 . S
H32 C26 0.930 . S
H33 C28 0.930 . S
N34 Cu23 1.985 . S
N34 C36 1.328 1_554 S
N34 C37 1.390 . S
N35 C36 1.340 1_554 S
N35 C38 1.336 . S
C36 N34 1.328 1_556 S
C36 N35 1.340 1_556 S
C36 H41 0.940 . S
C37 N34 1.390 . S
C37 C38 1.346 . S
C37 H42 0.930 . S
C38 N35 1.336 . S
C38 C37 1.346 . S
C38 H45 0.929 . S
C39 O29 1.282 1_455 S
C39 O40 1.216 . S
O40 C39 1.216 . S
H41 C36 0.940 . S
H42 C37 0.930 . S
O43 Cu23 1.959 1_556 S
O43 C30 1.251 . S
H44 C27 0.930 1_655 S
H45 C38 0.929 . S
Cu46 N47 1.999 . S
Cu46 O52 1.974 . S
Cu46 N57 1.985 . S
Cu46 O66 1.959 . S
N47 Cu46 1.999 . S
N47 C49 1.263 . S
N47 C51 1.389 . S
N48 C49 1.358 . S
N48 C50 1.400 . S
C49 N47 1.263 . S
C49 N48 1.358 . S
C49 H55 0.930 . S
C50 N48 1.400 . S
C50 C51 1.351 . S
C50 H67 0.930 . S
C51 N47 1.389 . S
C51 C50 1.351 . S
C51 H56 0.930 . S
O52 Cu46 1.974 . S
O52 C62 1.282 . S
C53 O54 1.261 . S
C53 O66 1.251 . S
O54 C53 1.261 . S
H55 C49 0.930 . S
H56 C51 0.930 . S
N57 Cu46 1.985 . S
N57 C59 1.335 . S
N57 C60 1.390 . S
N58 C59 1.345 . S
N58 C61 1.336 . S
C59 N57 1.335 . S
C59 N58 1.345 . S
C59 H64 0.930 . S
C60 N57 1.390 . S
C60 C61 1.346 . S
C60 H65 0.930 . S
C61 N58 1.336 . S
C61 C60 1.346 . S
C61 H68 0.929 . S
C62 O52 1.282 . S
C62 O63 1.216 . S
O63 C62 1.216 . S
H64 C59 0.930 . S
H65 C60 0.930 . S
O66 Cu46 1.959 . S
O66 C53 1.251 . S
H67 C50 0.930 . S
H68 C61 0.929 . S
Cu69 N70 1.999 . S
Cu69 O75 1.974 . S
Cu69 N80 1.985 . S
Cu69 O89 1.959 . S
N70 Cu69 1.999 . S
N70 C72 1.263 1_655 S
N70 C74 1.389 . S
N71 C72 1.358 . S
N71 C73 1.400 . S
C72 N70 1.263 1_455 S
C72 N71 1.358 . S
C72 H78 0.930 . S
C73 N71 1.400 . S
C73 C74 1.351 1_455 S
C73 H90 0.930 1_455 S
C74 N70 1.389 . S
C74 C73 1.351 1_655 S
C74 H79 0.930 . S
O75 Cu69 1.974 . S
O75 C85 1.282 1_655 S
C76 O77 1.270 . S
C76 O89 1.251 . S
O77 C76 1.270 . S
H78 C72 0.930 . S
H79 C74 0.930 . S
N80 Cu69 1.985 . S
N80 C82 1.335 . S
N80 C83 1.390 . S
N81 C82 1.345 . S
N81 C84 1.336 . S
C82 N80 1.335 . S
C82 N81 1.345 . S
C82 H87 0.930 . S
C83 N80 1.390 . S
C83 C84 1.346 . S
C83 H88 0.930 . S
C84 N81 1.336 . S
C84 C83 1.346 . S
C84 H91 0.929 . S
C85 O75 1.282 1_455 S
C85 O86 1.216 . S
O86 C85 1.216 . S
H87 C82 0.930 . S
H88 C83 0.930 . S
O89 Cu69 1.959 . S
O89 C76 1.251 . S
H90 C73 0.930 1_655 S
H91 C84 0.929 . S
Cu92 N93 1.999 . S
Cu92 O98 1.974 . S
Cu92 N103 1.985 . S
Cu92 O112 1.959 1_556 S
N93 Cu92 1.999 . S
N93 C95 1.263 . S
N93 C97 1.389 1_556 S
N94 C95 1.358 . S
N94 C96 1.400 1_556 S
C95 N93 1.263 . S
C95 N94 1.358 . S
C95 H101 0.930 . S
C96 N94 1.400 1_554 S
C96 C97 1.351 . S
C96 H113 0.930 . S
C97 N93 1.389 1_554 S
C97 C96 1.351 . S
C97 H102 0.930 . S
O98 Cu92 1.974 . S
O98 C108 1.282 . S
C99 O100 1.261 . S
C99 O112 1.251 . S
O100 C99 1.261 . S
H101 C95 0.930 . S
H102 C97 0.930 . S
N103 Cu92 1.985 . S
N103 C105 1.329 1_556 S
N103 C106 1.390 . S
N104 C105 1.341 1_556 S
N104 C107 1.336 . S
C105 N103 1.329 1_554 S
C105 N104 1.341 1_554 S
C105 H110 0.939 . S
C106 N103 1.390 . S
C106 C107 1.346 . S
C106 H111 0.930 . S
C107 N104 1.336 . S
C107 C106 1.346 . S
C107 H114 0.929 . S
C108 O98 1.282 . S
C108 O109 1.216 . S
O109 C108 1.216 . S
H110 C105 0.939 . S
H111 C106 0.930 . S
O112 Cu92 1.959 1_554 S
O112 C99 1.251 . S
H113 C96 0.930 . S
H114 C107 0.929 . S
Cu115 N116 1.999 . S
Cu115 O121 1.974 . S
Cu115 N126 1.985 . S
Cu115 O135 1.959 1_556 S
N116 Cu115 1.999 . S
N116 C118 1.263 1_455 S
N116 C120 1.389 1_556 S
N117 C118 1.358 . S
N117 C119 1.400 1_556 S
C118 N116 1.263 1_655 S
C118 N117 1.358 . S
C118 H124 0.930 . S
C119 N117 1.400 1_554 S
C119 C120 1.351 1_655 S
C119 H136 0.930 1_655 S
C120 N116 1.389 1_554 S
C120 C119 1.351 1_455 S
C120 H125 0.930 . S
O121 Cu115 1.974 . S
O121 C131 1.282 1_455 S
C122 O123 1.268 . S
C122 O135 1.251 . S
O123 C122 1.268 . S
H124 C118 0.930 . S
H125 C120 0.930 . S
N126 Cu115 1.985 . S
N126 C128 1.328 1_556 S
N126 C129 1.390 . S
N127 C128 1.340 1_556 S
N127 C130 1.336 . S
C128 N126 1.328 1_554 S
C128 N127 1.340 1_554 S
C128 H133 0.940 . S
C129 N126 1.390 . S
C129 C130 1.346 . S
C129 H134 0.930 . S
C130 N127 1.336 . S
C130 C129 1.346 . S
C130 H137 0.929 . S
C131 O121 1.282 1_655 S
C131 O132 1.216 . S
O132 C131 1.216 . S
H133 C128 0.940 . S
H134 C129 0.930 . S
O135 Cu115 1.959 1_554 S
O135 C122 1.251 . S
H136 C119 0.930 1_455 S
H137 C130 0.929 . S
Cu138 N139 1.999 . S
Cu138 O144 1.974 . S
Cu138 N149 1.985 . S
Cu138 O158 1.959 . S
N139 Cu138 1.999 . S
N139 C141 1.263 . S
N139 C143 1.389 . S
N140 C141 1.358 . S
N140 C142 1.400 . S
C141 N139 1.263 . S
C141 N140 1.358 . S
C141 H147 0.930 . S
C142 N140 1.400 . S
C142 C143 1.351 . S
C142 H159 0.930 . S
C143 N139 1.389 . S
C143 C142 1.351 . S
C143 H148 0.930 . S
O144 Cu138 1.974 . S
O144 C154 1.282 . S
C145 O146 1.261 . S
C145 O158 1.251 . S
O146 C145 1.261 . S
H147 C141 0.930 . S
H148 C143 0.930 . S
N149 Cu138 1.985 . S
N149 C151 1.335 . S
N149 C152 1.390 . S
N150 C151 1.345 . S
N150 C153 1.336 . S
C151 N149 1.335 . S
C151 N150 1.345 . S
C151 H156 0.930 . S
C152 N149 1.390 . S
C152 C153 1.346 . S
C152 H157 0.930 . S
C153 N150 1.336 . S
C153 C152 1.346 . S
C153 H160 0.929 . S
C154 O144 1.282 . S
C154 O155 1.216 . S
O155 C154 1.216 . S
H156 C151 0.930 . S
H157 C152 0.930 . S
O158 Cu138 1.959 . S
O158 C145 1.251 . S
H159 C142 0.930 . S
H160 C153 0.929 . S
Cu161 N162 1.999 . S
Cu161 O167 1.974 . S
Cu161 N172 1.985 . S
Cu161 O181 1.959 . S
N162 Cu161 1.999 . S
N162 C164 1.263 1_455 S
N162 C166 1.389 . S
N163 C164 1.358 . S
N163 C165 1.400 . S
C164 N162 1.263 1_655 S
C164 N163 1.358 . S
C164 H170 0.930 . S
C165 N163 1.400 . S
C165 C166 1.351 1_655 S
C165 H182 0.930 1_655 S
C166 N162 1.389 . S
C166 C165 1.351 1_455 S
C166 H171 0.930 . S
O167 Cu161 1.974 . S
O167 C177 1.282 1_455 S
C168 O169 1.270 . S
C168 O181 1.251 . S
O169 C168 1.270 . S
H170 C164 0.930 . S
H171 C166 0.930 . S
N172 Cu161 1.985 . S
N172 C174 1.335 . S
N172 C175 1.390 . S
N173 C174 1.345 . S
N173 C176 1.336 . S
C174 N172 1.335 . S
C174 N173 1.345 . S
C174 H179 0.930 . S
C175 N172 1.390 . S
C175 C176 1.346 . S
C175 H180 0.930 . S
C176 N173 1.336 . S
C176 C175 1.346 . S
C176 H183 0.929 . S
C177 O167 1.282 1_655 S
C177 O178 1.216 . S
O178 C177 1.216 . S
H179 C174 0.930 . S
H180 C175 0.930 . S
O181 Cu161 1.959 . S
O181 C168 1.251 . S
H182 C165 0.930 1_455 S
H183 C176 0.929 . S
Cu184 N185 1.999 . S
Cu184 O190 1.974 . S
Cu184 N195 1.985 . S
Cu184 O204 1.959 . S
N185 Cu184 1.999 . S
N185 C187 1.263 . S
N185 C189 1.389 . S
N186 C187 1.358 . S
N186 C188 1.400 . S
C187 N185 1.263 . S
C187 N186 1.358 . S
C187 H193 0.930 . S
C188 N186 1.400 . S
C188 C189 1.351 . S
C188 H205 0.930 . S
C189 N185 1.389 . S
C189 C188 1.351 . S
C189 H194 0.930 . S
O190 Cu184 1.974 . S
O190 C200 1.282 . S
C191 O192 1.261 . S
C191 O204 1.251 . S
O192 C191 1.261 . S
H193 C187 0.930 . S
H194 C189 0.930 . S
N195 Cu184 1.985 . S
N195 C197 1.335 . S
N195 C198 1.390 . S
N196 C197 1.345 . S
N196 C199 1.336 . S
C197 N195 1.335 . S
C197 N196 1.345 . S
C197 H202 0.930 . S
C198 N195 1.390 . S
C198 C199 1.346 . S
C198 H203 0.930 . S
C199 N196 1.336 . S
C199 C198 1.346 . S
C199 H206 0.929 . S
C200 O190 1.282 . S
C200 O201 1.216 . S
O201 C200 1.216 . S
H202 C197 0.930 . S
H203 C198 0.930 . S
O204 Cu184 1.959 . S
O204 C191 1.251 . S
H205 C188 0.930 . S
H206 C199 0.929 . S
Cu207 N208 1.999 . S
Cu207 O213 1.974 . S
Cu207 N218 1.985 . S
Cu207 O227 1.959 . S
N208 Cu207 1.999 . S
N208 C210 1.263 1_655 S
N208 C212 1.389 . S
N209 C210 1.358 . S
N209 C211 1.400 . S
C210 N208 1.263 1_455 S
C210 N209 1.358 . S
C210 H216 0.930 . S
C211 N209 1.400 . S
C211 C212 1.351 1_455 S
C211 H228 0.930 1_455 S
C212 N208 1.389 . S
C212 C211 1.351 1_655 S
C212 H217 0.930 . S
O213 Cu207 1.974 . S
O213 C223 1.282 1_655 S
C214 O215 1.271 . S
C214 O227 1.251 . S
O215 C214 1.271 . S
H216 C210 0.930 . S
H217 C212 0.930 . S
N218 Cu207 1.985 . S
N218 C220 1.335 . S
N218 C221 1.390 . S
N219 C220 1.345 . S
N219 C222 1.336 . S
C220 N218 1.335 . S
C220 N219 1.345 . S
C220 H225 0.930 . S
C221 N218 1.390 . S
C221 C222 1.346 . S
C221 H226 0.930 . S
C222 N219 1.336 . S
C222 C221 1.346 . S
C222 H229 0.929 . S
C223 O213 1.282 1_455 S
C223 O224 1.216 . S
O224 C223 1.216 . S
H225 C220 0.930 . S
H226 C221 0.930 . S
O227 Cu207 1.959 . S
O227 C214 1.251 . S
H228 C211 0.930 1_655 S
H229 C222 0.929 . S
Cu230 N231 1.999 . S
Cu230 O236 1.974 . S
Cu230 N241 1.985 . S
Cu230 O250 1.959 . S
N231 Cu230 1.999 . S
N231 C233 1.263 . S
N231 C235 1.389 . S
N232 C233 1.358 . S
N232 C234 1.400 . S
C233 N231 1.263 . S
C233 N232 1.358 . S
C233 H239 0.930 . S
C234 N232 1.400 . S
C234 C235 1.351 . S
C234 H251 0.930 . S
C235 N231 1.389 . S
C235 C234 1.351 . S
C235 H240 0.930 . S
O236 Cu230 1.974 . S
O236 C246 1.282 . S
C237 O238 1.261 . S
C237 O250 1.251 . S
O238 C237 1.261 . S
H239 C233 0.930 . S
H240 C235 0.930 . S
N241 Cu230 1.985 . S
N241 C243 1.335 . S
N241 C244 1.390 . S
N242 C243 1.345 . S
N242 C245 1.336 . S
C243 N241 1.335 . S
C243 N242 1.345 . S
C243 H248 0.930 . S
C244 N241 1.390 . S
C244 C245 1.346 . S
C244 H249 0.930 . S
C245 N242 1.336 . S
C245 C244 1.346 . S
C245 H252 0.929 . S
C246 O236 1.282 . S
C246 O247 1.216 . S
O247 C246 1.216 . S
H248 C243 0.930 . S
H249 C244 0.930 . S
O250 Cu230 1.959 . S
O250 C237 1.251 . S
H251 C234 0.930 . S
H252 C245 0.929 . S
Cu253 N254 1.999 . S
Cu253 O259 1.974 . S
Cu253 N264 1.985 . S
Cu253 O273 1.959 . S
N254 Cu253 1.999 . S
N254 C256 1.263 1_655 S
N254 C258 1.389 . S
N255 C256 1.358 . S
N255 C257 1.400 . S
C256 N254 1.263 1_455 S
C256 N255 1.358 . S
C256 H262 0.930 . S
C257 N255 1.400 . S
C257 C258 1.351 1_455 S
C257 H274 0.930 1_455 S
C258 N254 1.389 . S
C258 C257 1.351 1_655 S
C258 H263 0.930 . S
O259 Cu253 1.974 . S
O259 C269 1.282 1_655 S
C260 O261 1.269 . S
C260 O273 1.251 . S
O261 C260 1.269 . S
H262 C256 0.930 . S
H263 C258 0.930 . S
N264 Cu253 1.985 . S
N264 C266 1.335 . S
N264 C267 1.390 . S
N265 C266 1.345 . S
N265 C268 1.336 . S
C266 N264 1.335 . S
C266 N265 1.345 . S
C266 H271 0.930 . S
C267 N264 1.390 . S
C267 C268 1.346 . S
C267 H272 0.930 . S
C268 N265 1.336 . S
C268 C267 1.346 . S
C268 H275 0.929 . S
C269 O259 1.282 1_455 S
C269 O270 1.216 . S
O270 C269 1.216 . S
H271 C266 0.930 . S
H272 C267 0.930 . S
O273 Cu253 1.959 . S
O273 C260 1.251 . S
H274 C257 0.930 1_655 S
H275 C268 0.929 . S
Cu276 N277 1.999 . S
Cu276 O282 1.974 . S
Cu276 N287 1.985 . S
Cu276 O296 1.959 . S
N277 Cu276 1.999 . S
N277 C279 1.263 . S
N277 C281 1.389 . S
N278 C279 1.358 . S
N278 C280 1.400 . S
C279 N277 1.263 . S
C279 N278 1.358 . S
C279 H285 0.930 . S
C280 N278 1.400 . S
C280 C281 1.351 . S
C280 H297 0.930 . S
C281 N277 1.389 . S
C281 C280 1.351 . S
C281 H286 0.930 . S
O282 Cu276 1.974 . S
O282 C292 1.282 . S
C283 O284 1.261 . S
C283 O296 1.251 . S
O284 C283 1.261 . S
H285 C279 0.930 . S
H286 C281 0.930 . S
N287 Cu276 1.985 . S
N287 C289 1.335 . S
N287 C290 1.390 . S
N288 C289 1.345 . S
N288 C291 1.336 . S
C289 N287 1.335 . S
C289 N288 1.345 . S
C289 H294 0.930 . S
C290 N287 1.390 . S
C290 C291 1.346 . S
C290 H295 0.930 . S
C291 N288 1.336 . S
C291 C290 1.346 . S
C291 H298 0.929 . S
C292 O282 1.282 . S
C292 O293 1.216 . S
O293 C292 1.216 . S
H294 C289 0.930 . S
H295 C290 0.930 . S
O296 Cu276 1.959 . S
O296 C283 1.251 . S
H297 C280 0.930 . S
H298 C291 0.929 . S
Cu299 N300 1.999 . S
Cu299 O305 1.974 . S
Cu299 N310 1.985 . S
Cu299 O319 1.959 . S
N300 Cu299 1.999 . S
N300 C302 1.263 1_455 S
N300 C304 1.389 . S
N301 C302 1.358 . S
N301 C303 1.400 . S
C302 N300 1.263 1_655 S
C302 N301 1.358 . S
C302 H308 0.930 . S
C303 N301 1.400 . S
C303 C304 1.351 1_655 S
C303 H320 0.930 1_655 S
C304 N300 1.389 . S
C304 C303 1.351 1_455 S
C304 H309 0.930 . S
O305 Cu299 1.974 . S
O305 C315 1.282 1_455 S
C306 O307 1.271 . S
C306 O319 1.251 . S
O307 C306 1.271 . S
H308 C302 0.930 . S
H309 C304 0.930 . S
N310 Cu299 1.985 . S
N310 C312 1.335 . S
N310 C313 1.390 . S
N311 C312 1.345 . S
N311 C314 1.336 . S
C312 N310 1.335 . S
C312 N311 1.345 . S
C312 H317 0.930 . S
C313 N310 1.390 . S
C313 C314 1.346 . S
C313 H318 0.930 . S
C314 N311 1.336 . S
C314 C313 1.346 . S
C314 H321 0.929 . S
C315 O305 1.282 1_655 S
C315 O316 1.216 . S
O316 C315 1.216 . S
H317 C312 0.930 . S
H318 C313 0.930 . S
O319 Cu299 1.959 . S
O319 C306 1.251 . S
H320 C303 0.930 1_455 S
H321 C314 0.929 . S
Cu322 N323 1.999 . S
Cu322 O328 1.974 . S
Cu322 N333 1.985 . S
Cu322 O342 1.959 . S
N323 Cu322 1.999 . S
N323 C325 1.263 . S
N323 C327 1.389 . S
N324 C325 1.358 . S
N324 C326 1.400 . S
C325 N323 1.263 . S
C325 N324 1.358 . S
C325 H331 0.930 . S
C326 N324 1.400 . S
C326 C327 1.351 . S
C326 H343 0.930 . S
C327 N323 1.389 . S
C327 C326 1.351 . S
C327 H332 0.930 . S
O328 Cu322 1.974 . S
O328 C338 1.282 . S
C329 O330 1.261 . S
C329 O342 1.251 . S
O330 C329 1.261 . S
H331 C325 0.930 . S
H332 C327 0.930 . S
N333 Cu322 1.985 . S
N333 C335 1.335 . S
N333 C336 1.390 . S
N334 C335 1.345 . S
N334 C337 1.336 . S
C335 N333 1.335 . S
C335 N334 1.345 . S
C335 H340 0.930 . S
C336 N333 1.390 . S
C336 C337 1.346 . S
C336 H341 0.930 . S
C337 N334 1.336 . S
C337 C336 1.346 . S
C337 H344 0.929 . S
C338 O328 1.282 . S
C338 O339 1.216 . S
O339 C338 1.216 . S
H340 C335 0.930 . S
H341 C336 0.930 . S
O342 Cu322 1.959 . S
O342 C329 1.251 . S
H343 C326 0.930 . S
H344 C337 0.929 . S
Cu345 N346 1.999 . S
Cu345 O351 1.974 . S
Cu345 N356 1.985 . S
Cu345 O365 1.959 . S
N346 Cu345 1.999 . S
N346 C348 1.263 1_455 S
N346 C350 1.389 . S
N347 C348 1.358 . S
N347 C349 1.400 . S
C348 N346 1.263 1_655 S
C348 N347 1.358 . S
C348 H354 0.930 . S
C349 N347 1.400 . S
C349 C350 1.351 1_655 S
C349 H366 0.930 1_655 S
C350 N346 1.389 . S
C350 C349 1.351 1_455 S
C350 H355 0.930 . S
O351 Cu345 1.974 . S
O351 C361 1.282 1_455 S
C352 O353 1.269 . S
C352 O365 1.251 . S
O353 C352 1.269 . S
H354 C348 0.930 . S
H355 C350 0.930 . S
N356 Cu345 1.985 . S
N356 C358 1.335 . S
N356 C359 1.390 . S
N357 C358 1.345 . S
N357 C360 1.336 . S
C358 N356 1.335 . S
C358 N357 1.345 . S
C358 H363 0.930 . S
C359 N356 1.390 . S
C359 C360 1.346 . S
C359 H364 0.930 . S
C360 N357 1.336 . S
C360 C359 1.346 . S
C360 H367 0.929 . S
C361 O351 1.282 1_655 S
C361 O362 1.216 . S
O362 C361 1.216 . S
H363 C358 0.930 . S
H364 C359 0.930 . S
O365 Cu345 1.959 . S
O365 C352 1.251 . S
H366 C349 0.930 1_455 S
H367 C360 0.929 . S
Cu368 N369 1.999 . S
Cu368 O374 1.974 . S
Cu368 N379 1.985 . S
Cu368 O388 1.959 . S
N369 Cu368 1.999 . S
N369 C371 1.263 . S
N369 C373 1.389 . S
N370 C371 1.358 . S
N370 C372 1.400 . S
C371 N369 1.263 . S
C371 N370 1.358 . S
C371 H377 0.930 . S
C372 N370 1.400 . S
C372 C373 1.351 . S
C372 H389 0.930 . S
C373 N369 1.389 . S
C373 C372 1.351 . S
C373 H378 0.930 . S
O374 Cu368 1.974 . S
O374 C384 1.282 . S
C375 O376 1.261 . S
C375 O388 1.251 . S
O376 C375 1.261 . S
H377 C371 0.930 . S
H378 C373 0.930 . S
N379 Cu368 1.985 . S
N379 C381 1.335 . S
N379 C382 1.390 . S
N380 C381 1.345 . S
N380 C383 1.336 . S
C381 N379 1.335 . S
C381 N380 1.345 . S
C381 H386 0.930 . S
C382 N379 1.390 . S
C382 C383 1.346 . S
C382 H387 0.930 . S
C383 N380 1.336 . S
C383 C382 1.346 . S
C383 H390 0.929 . S
C384 O374 1.282 . S
C384 O385 1.216 . S
O385 C384 1.216 . S
H386 C381 0.930 . S
H387 C382 0.930 . S
O388 Cu368 1.959 . S
O388 C375 1.251 . S
H389 C372 0.930 . S
H390 C383 0.929 . S
Cu391 N392 1.999 . S
Cu391 O397 1.974 . S
Cu391 N402 1.985 . S
Cu391 O411 1.959 . S
N392 Cu391 1.999 . S
N392 C394 1.263 . S
N392 C396 1.389 . S
N393 C394 1.358 . S
N393 C395 1.400 . S
C394 N392 1.263 . S
C394 N393 1.358 . S
C394 H400 0.930 . S
C395 N393 1.400 . S
C395 C396 1.351 . S
C395 H412 0.930 . S
C396 N392 1.389 . S
C396 C395 1.351 . S
C396 H401 0.930 . S
O397 Cu391 1.974 . S
O397 C407 1.282 . S
C398 O399 1.261 . S
C398 O411 1.251 . S
O399 C398 1.261 . S
H400 C394 0.930 . S
H401 C396 0.930 . S
N402 Cu391 1.985 . S
N402 C404 1.335 . S
N402 C405 1.390 . S
N403 C404 1.345 . S
N403 C406 1.336 . S
C404 N402 1.335 . S
C404 N403 1.345 . S
C404 H409 0.930 . S
C405 N402 1.390 . S
C405 C406 1.346 . S
C405 H410 0.930 . S
C406 N403 1.336 . S
C406 C405 1.346 . S
C406 H413 0.929 . S
C407 O397 1.282 . S
C407 O408 1.216 . S
O408 C407 1.216 . S
H409 C404 0.930 . S
H410 C405 0.930 . S
O411 Cu391 1.959 . S
O411 C398 1.251 . S
H412 C395 0.930 . S
H413 C406 0.929 . S
Cu414 N415 1.999 . S
Cu414 O420 1.974 . S
Cu414 N425 1.985 . S
Cu414 O434 1.959 . S
N415 Cu414 1.999 . S
N415 C417 1.263 . S
N415 C419 1.389 . S
N416 C417 1.358 . S
N416 C418 1.400 . S
C417 N415 1.263 . S
C417 N416 1.358 . S
C417 H423 0.930 . S
C418 N416 1.400 . S
C418 C419 1.351 . S
C418 H435 0.930 . S
C419 N415 1.389 . S
C419 C418 1.351 . S
C419 H424 0.930 . S
O420 Cu414 1.974 . S
O420 C430 1.282 . S
C421 O422 1.261 . S
C421 O434 1.251 . S
O422 C421 1.261 . S
H423 C417 0.930 . S
H424 C419 0.930 . S
N425 Cu414 1.985 . S
N425 C427 1.335 . S
N425 C428 1.390 . S
N426 C427 1.345 . S
N426 C429 1.336 . S
C427 N425 1.335 . S
C427 N426 1.345 . S
C427 H432 0.930 . S
C428 N425 1.390 . S
C428 C429 1.346 . S
C428 H433 0.930 . S
C429 N426 1.336 . S
C429 C428 1.346 . S
C429 H436 0.929 . S
C430 O420 1.282 . S
C430 O431 1.216 . S
O431 C430 1.216 . S
H432 C427 0.930 . S
H433 C428 0.930 . S
O434 Cu414 1.959 . S
O434 C421 1.251 . S
H435 C418 0.930 . S
H436 C429 0.929 . S
Cu437 N438 1.999 . S
Cu437 O443 1.974 . S
Cu437 N448 1.985 . S
Cu437 O457 1.959 . S
N438 Cu437 1.999 . S
N438 C440 1.263 . S
N438 C442 1.389 . S
N439 C440 1.358 . S
N439 C441 1.400 . S
C440 N438 1.263 . S
C440 N439 1.358 . S
C440 H446 0.930 . S
C441 N439 1.400 . S
C441 C442 1.351 . S
C441 H458 0.930 . S
C442 N438 1.389 . S
C442 C441 1.351 . S
C442 H447 0.930 . S
O443 Cu437 1.974 . S
O443 C453 1.282 . S
C444 O445 1.261 . S
C444 O457 1.251 . S
O445 C444 1.261 . S
H446 C440 0.930 . S
H447 C442 0.930 . S
N448 Cu437 1.985 . S
N448 C450 1.335 . S
N448 C451 1.390 . S
N449 C450 1.345 . S
N449 C452 1.336 . S
C450 N448 1.335 . S
C450 N449 1.345 . S
C450 H455 0.930 . S
C451 N448 1.390 . S
C451 C452 1.346 . S
C451 H456 0.930 . S
C452 N449 1.336 . S
C452 C451 1.346 . S
C452 H459 0.929 . S
C453 O443 1.282 . S
C453 O454 1.216 . S
O454 C453 1.216 . S
H455 C450 0.930 . S
H456 C451 0.930 . S
O457 Cu437 1.959 . S
O457 C444 1.251 . S
H458 C441 0.930 . S
H459 C452 0.929 . S
Cu460 N461 1.999 . S
Cu460 O466 1.974 . S
Cu460 N471 1.985 . S
Cu460 O480 1.959 . S
N461 Cu460 1.999 . S
N461 C463 1.263 . S
N461 C465 1.389 . S
N462 C463 1.358 . S
N462 C464 1.400 . S
C463 N461 1.263 . S
C463 N462 1.358 . S
C463 H469 0.930 . S
C464 N462 1.400 . S
C464 C465 1.351 . S
C464 H481 0.930 . S
C465 N461 1.389 . S
C465 C464 1.351 . S
C465 H470 0.930 . S
O466 Cu460 1.974 . S
O466 C476 1.282 . S
C467 O468 1.261 . S
C467 O480 1.251 . S
O468 C467 1.261 . S
H469 C463 0.930 . S
H470 C465 0.930 . S
N471 Cu460 1.985 . S
N471 C473 1.335 . S
N471 C474 1.390 . S
N472 C473 1.345 . S
N472 C475 1.336 . S
C473 N471 1.335 . S
C473 N472 1.345 . S
C473 H478 0.930 . S
C474 N471 1.390 . S
C474 C475 1.346 . S
C474 H479 0.930 . S
C475 N472 1.336 . S
C475 C474 1.346 . S
C475 H482 0.929 . S
C476 O466 1.282 . S
C476 O477 1.216 . S
O477 C476 1.216 . S
H478 C473 0.930 . S
H479 C474 0.930 . S
O480 Cu460 1.959 . S
O480 C467 1.251 . S
H481 C464 0.930 . S
H482 C475 0.929 . S
Cu483 N484 1.999 . S
Cu483 O489 1.974 . S
Cu483 N494 1.985 . S
Cu483 O503 1.959 . S
N484 Cu483 1.999 . S
N484 C486 1.263 . S
N484 C488 1.389 . S
N485 C486 1.358 . S
N485 C487 1.400 . S
C486 N484 1.263 . S
C486 N485 1.358 . S
C486 H492 0.930 . S
C487 N485 1.400 . S
C487 C488 1.351 . S
C487 H504 0.930 . S
C488 N484 1.389 . S
C488 C487 1.351 . S
C488 H493 0.930 . S
O489 Cu483 1.974 . S
O489 C499 1.282 . S
C490 O491 1.261 . S
C490 O503 1.251 . S
O491 C490 1.261 . S
H492 C486 0.930 . S
H493 C488 0.930 . S
N494 Cu483 1.985 . S
N494 C496 1.335 . S
N494 C497 1.390 . S
N495 C496 1.345 . S
N495 C498 1.336 . S
C496 N494 1.335 . S
C496 N495 1.345 . S
C496 H501 0.930 . S
C497 N494 1.390 . S
C497 C498 1.346 . S
C497 H502 0.930 . S
C498 N495 1.336 . S
C498 C497 1.346 . S
C498 H505 0.929 . S
C499 O489 1.282 . S
C499 O500 1.216 . S
O500 C499 1.216 . S
H501 C496 0.930 . S
H502 C497 0.930 . S
O503 Cu483 1.959 . S
O503 C490 1.251 . S
H504 C487 0.930 . S
H505 C498 0.929 . S
Cu506 N507 1.999 . S
Cu506 O512 1.974 . S
Cu506 N517 1.985 . S
Cu506 O526 1.959 . S
N507 Cu506 1.999 . S
N507 C509 1.263 . S
N507 C511 1.389 . S
N508 C509 1.358 . S
N508 C510 1.400 . S
C509 N507 1.263 . S
C509 N508 1.358 . S
C509 H515 0.930 . S
C510 N508 1.400 . S
C510 C511 1.351 . S
C510 H527 0.930 . S
C511 N507 1.389 . S
C511 C510 1.351 . S
C511 H516 0.930 . S
O512 Cu506 1.974 . S
O512 C522 1.282 . S
C513 O514 1.261 . S
C513 O526 1.251 . S
O514 C513 1.261 . S
H515 C509 0.930 . S
H516 C511 0.930 . S
N517 Cu506 1.985 . S
N517 C519 1.335 . S
N517 C520 1.390 . S
N518 C519 1.345 . S
N518 C521 1.336 . S
C519 N517 1.335 . S
C519 N518 1.345 . S
C519 H524 0.930 . S
C520 N517 1.390 . S
C520 C521 1.346 . S
C520 H525 0.930 . S
C521 N518 1.336 . S
C521 C520 1.346 . S
C521 H528 0.929 . S
C522 O512 1.282 . S
C522 O523 1.216 . S
O523 C522 1.216 . S
H524 C519 0.930 . S
H525 C520 0.930 . S
O526 Cu506 1.959 . S
O526 C513 1.251 . S
H527 C510 0.930 . S
H528 C521 0.929 . S
Cu529 N530 1.999 . S
Cu529 O535 1.974 . S
Cu529 N540 1.985 . S
Cu529 O549 1.959 . S
N530 Cu529 1.999 . S
N530 C532 1.263 . S
N530 C534 1.389 . S
N531 C532 1.358 . S
N531 C533 1.400 . S
C532 N530 1.263 . S
C532 N531 1.358 . S
C532 H538 0.930 . S
C533 N531 1.400 . S
C533 C534 1.351 . S
C533 H550 0.930 . S
C534 N530 1.389 . S
C534 C533 1.351 . S
C534 H539 0.930 . S
O535 Cu529 1.974 . S
O535 C545 1.282 . S
C536 O537 1.261 . S
C536 O549 1.251 . S
O537 C536 1.261 . S
H538 C532 0.930 . S
H539 C534 0.930 . S
N540 Cu529 1.985 . S
N540 C542 1.335 . S
N540 C543 1.390 . S
N541 C542 1.345 . S
N541 C544 1.336 . S
C542 N540 1.335 . S
C542 N541 1.345 . S
C542 H547 0.930 . S
C543 N540 1.390 . S
C543 C544 1.346 . S
C543 H548 0.930 . S
C544 N541 1.336 . S
C544 C543 1.346 . S
C544 H551 0.929 . S
C545 O535 1.282 . S
C545 O546 1.216 . S
O546 C545 1.216 . S
H547 C542 0.930 . S
H548 C543 0.930 . S
O549 Cu529 1.959 . S
O549 C536 1.251 . S
H550 C533 0.930 . S
H551 C544 0.929 . S
Cu552 N553 1.999 . S
Cu552 O558 1.974 . S
Cu552 N563 1.985 . S
Cu552 O572 1.959 1_554 S
N553 Cu552 1.999 . S
N553 C555 1.263 . S
N553 C557 1.389 1_554 S
N554 C555 1.358 . S
N554 C556 1.400 1_554 S
C555 N553 1.263 . S
C555 N554 1.358 . S
C555 H561 0.930 . S
C556 N554 1.400 1_556 S
C556 C557 1.351 . S
C556 H573 0.930 . S
C557 N553 1.389 1_556 S
C557 C556 1.351 . S
C557 H562 0.930 . S
O558 Cu552 1.974 . S
O558 C568 1.282 . S
C559 O560 1.261 . S
C559 O572 1.251 . S
O560 C559 1.261 . S
H561 C555 0.930 . S
H562 C557 0.930 . S
N563 Cu552 1.985 . S
N563 C565 1.329 1_554 S
N563 C566 1.390 . S
N564 C565 1.340 1_554 S
N564 C567 1.336 . S
C565 N563 1.329 1_556 S
C565 N564 1.340 1_556 S
C565 H570 0.940 . S
C566 N563 1.390 . S
C566 C567 1.346 . S
C566 H571 0.930 . S
C567 N564 1.336 . S
C567 C566 1.346 . S
C567 H574 0.929 . S
C568 O558 1.282 . S
C568 O569 1.216 . S
O569 C568 1.216 . S
H570 C565 0.940 . S
H571 C566 0.930 . S
O572 Cu552 1.959 1_556 S
O572 C559 1.251 . S
H573 C556 0.930 . S
H574 C567 0.929 . S
Cu575 N576 1.999 . S
Cu575 O581 1.974 . S
Cu575 N586 1.985 . S
Cu575 O595 1.959 1_554 S
N576 Cu575 1.999 . S
N576 C578 1.263 . S
N576 C580 1.389 1_554 S
N577 C578 1.358 . S
N577 C579 1.400 1_554 S
C578 N576 1.263 . S
C578 N577 1.358 . S
C578 H584 0.930 . S
C579 N577 1.400 1_556 S
C579 C580 1.351 . S
C579 H596 0.930 . S
C580 N576 1.389 1_556 S
C580 C579 1.351 . S
C580 H585 0.930 . S
O581 Cu575 1.974 . S
O581 C591 1.282 . S
C582 O583 1.261 . S
C582 O595 1.251 . S
O583 C582 1.261 . S
H584 C578 0.930 . S
H585 C580 0.930 . S
N586 Cu575 1.985 . S
N586 C588 1.328 1_554 S
N586 C589 1.390 . S
N587 C588 1.340 1_554 S
N587 C590 1.336 . S
C588 N586 1.328 1_556 S
C588 N587 1.340 1_556 S
C588 H593 0.940 . S
C589 N586 1.390 . S
C589 C590 1.346 . S
C589 H594 0.930 . S
C590 N587 1.336 . S
C590 C589 1.346 . S
C590 H597 0.929 . S
C591 O581 1.282 . S
C591 O592 1.216 . S
O592 C591 1.216 . S
H593 C588 0.940 . S
H594 C589 0.930 . S
O595 Cu575 1.959 1_556 S
O595 C582 1.251 . S
H596 C579 0.930 . S
H597 C590 0.929 . S
Cu598 N599 1.999 . S
Cu598 O604 1.974 . S
Cu598 N609 1.985 . S
Cu598 O618 1.959 . S
N599 Cu598 1.999 . S
N599 C601 1.263 . S
N599 C603 1.389 . S
N600 C601 1.358 . S
N600 C602 1.400 . S
C601 N599 1.263 . S
C601 N600 1.358 . S
C601 H607 0.930 . S
C602 N600 1.400 . S
C602 C603 1.351 . S
C602 H619 0.930 . S
C603 N599 1.389 . S
C603 C602 1.351 . S
C603 H608 0.930 . S
O604 Cu598 1.974 . S
O604 C614 1.282 . S
C605 O606 1.261 . S
C605 O618 1.251 . S
O606 C605 1.261 . S
H607 C601 0.930 . S
H608 C603 0.930 . S
N609 Cu598 1.985 . S
N609 C611 1.335 . S
N609 C612 1.390 . S
N610 C611 1.345 . S
N610 C613 1.336 . S
C611 N609 1.335 . S
C611 N610 1.345 . S
C611 H616 0.930 . S
C612 N609 1.390 . S
C612 C613 1.346 . S
C612 H617 0.930 . S
C613 N610 1.336 . S
C613 C612 1.346 . S
C613 H620 0.929 . S
C614 O604 1.282 . S
C614 O615 1.216 . S
O615 C614 1.216 . S
H616 C611 0.930 . S
H617 C612 0.930 . S
O618 Cu598 1.959 . S
O618 C605 1.251 . S
H619 C602 0.930 . S
H620 C613 0.929 . S
Cu621 N622 1.999 . S
Cu621 O627 1.974 . S
Cu621 N632 1.985 . S
Cu621 O641 1.959 . S
N622 Cu621 1.999 . S
N622 C624 1.263 . S
N622 C626 1.389 . S
N623 C624 1.358 . S
N623 C625 1.400 . S
C624 N622 1.263 . S
C624 N623 1.358 . S
C624 H630 0.930 . S
C625 N623 1.400 . S
C625 C626 1.351 . S
C625 H642 0.930 . S
C626 N622 1.389 . S
C626 C625 1.351 . S
C626 H631 0.930 . S
O627 Cu621 1.974 . S
O627 C637 1.282 . S
C628 O629 1.261 . S
C628 O641 1.251 . S
O629 C628 1.261 . S
H630 C624 0.930 . S
H631 C626 0.930 . S
N632 Cu621 1.985 . S
N632 C634 1.335 . S
N632 C635 1.390 . S
N633 C634 1.345 . S
N633 C636 1.336 . S
C634 N632 1.335 . S
C634 N633 1.345 . S
C634 H639 0.930 . S
C635 N632 1.390 . S
C635 C636 1.346 . S
C635 H640 0.930 . S
C636 N633 1.336 . S
C636 C635 1.346 . S
C636 H643 0.929 . S
C637 O627 1.282 . S
C637 O638 1.216 . S
O638 C637 1.216 . S
H639 C634 0.930 . S
H640 C635 0.930 . S
O641 Cu621 1.959 . S
O641 C628 1.251 . S
H642 C625 0.930 . S
H643 C636 0.929 . S
Cu644 N645 1.999 . S
Cu644 O650 1.974 . S
Cu644 N655 1.985 . S
Cu644 O664 1.959 1_556 S
N645 Cu644 1.999 . S
N645 C647 1.263 . S
N645 C649 1.389 1_556 S
N646 C647 1.358 . S
N646 C648 1.400 1_556 S
C647 N645 1.263 . S
C647 N646 1.358 . S
C647 H653 0.930 . S
C648 N646 1.400 1_554 S
C648 C649 1.351 . S
C648 H665 0.930 . S
C649 N645 1.389 1_554 S
C649 C648 1.351 . S
C649 H654 0.930 . S
O650 Cu644 1.974 . S
O650 C660 1.282 . S
C651 O652 1.261 . S
C651 O664 1.251 . S
O652 C651 1.261 . S
H653 C647 0.930 . S
H654 C649 0.930 . S
N655 Cu644 1.985 . S
N655 C657 1.329 1_556 S
N655 C658 1.390 . S
N656 C657 1.340 1_556 S
N656 C659 1.336 . S
C657 N655 1.329 1_554 S
C657 N656 1.340 1_554 S
C657 H662 0.940 . S
C658 N655 1.390 . S
C658 C659 1.346 . S
C658 H663 0.930 . S
C659 N656 1.336 . S
C659 C658 1.346 . S
C659 H666 0.929 . S
C660 O650 1.282 . S
C660 O661 1.216 . S
O661 C660 1.216 . S
H662 C657 0.940 . S
H663 C658 0.930 . S
O664 Cu644 1.959 1_554 S
O664 C651 1.251 . S
H665 C648 0.930 . S
H666 C659 0.929 . S
Cu667 N668 1.999 . S
Cu667 O673 1.974 . S
Cu667 N678 1.985 . S
Cu667 O687 1.959 1_556 S
N668 Cu667 1.999 . S
N668 C670 1.263 . S
N668 C672 1.389 1_556 S
N669 C670 1.358 . S
N669 C671 1.400 1_556 S
C670 N668 1.263 . S
C670 N669 1.358 . S
C670 H676 0.930 . S
C671 N669 1.400 1_554 S
C671 C672 1.351 . S
C671 H688 0.930 . S
C672 N668 1.389 1_554 S
C672 C671 1.351 . S
C672 H677 0.930 . S
O673 Cu667 1.974 . S
O673 C683 1.282 . S
C674 O675 1.261 . S
C674 O687 1.251 . S
O675 C674 1.261 . S
H676 C670 0.930 . S
H677 C672 0.930 . S
N678 Cu667 1.985 . S
N678 C680 1.328 1_556 S
N678 C681 1.390 . S
N679 C680 1.340 1_556 S
N679 C682 1.336 . S
C680 N678 1.328 1_554 S
C680 N679 1.340 1_554 S
C680 H685 0.940 . S
C681 N678 1.390 . S
C681 C682 1.346 . S
C681 H686 0.930 . S
C682 N679 1.336 . S
C682 C681 1.346 . S
C682 H689 0.929 . S
C683 O673 1.282 . S
C683 O684 1.216 . S
O684 C683 1.216 . S
H685 C680 0.940 . S
H686 C681 0.930 . S
O687 Cu667 1.959 1_554 S
O687 C674 1.251 . S
H688 C671 0.930 . S
H689 C682 0.929 . S
Cu690 N691 1.999 . S
Cu690 O696 1.974 . S
Cu690 N701 1.985 . S
Cu690 O710 1.959 . S
N691 Cu690 1.999 . S
N691 C693 1.263 . S
N691 C695 1.389 . S
N692 C693 1.358 . S
N692 C694 1.400 . S
C693 N691 1.263 . S
C693 N692 1.358 . S
C693 H699 0.930 . S
C694 N692 1.400 . S
C694 C695 1.351 . S
C694 H711 0.930 . S
C695 N691 1.389 . S
C695 C694 1.351 . S
C695 H700 0.930 . S
O696 Cu690 1.974 . S
O696 C706 1.282 . S
C697 O698 1.261 . S
C697 O710 1.251 . S
O698 C697 1.261 . S
H699 C693 0.930 . S
H700 C695 0.930 . S
N701 Cu690 1.985 . S
N701 C703 1.335 . S
N701 C704 1.390 . S
N702 C703 1.345 . S
N702 C705 1.336 . S
C703 N701 1.335 . S
C703 N702 1.345 . S
C703 H708 0.930 . S
C704 N701 1.390 . S
C704 C705 1.346 . S
C704 H709 0.930 . S
C705 N702 1.336 . S
C705 C704 1.346 . S
C705 H712 0.929 . S
C706 O696 1.282 . S
C706 O707 1.216 . S
O707 C706 1.216 . S
H708 C703 0.930 . S
H709 C704 0.930 . S
O710 Cu690 1.959 . S
O710 C697 1.251 . S
H711 C694 0.930 . S
H712 C705 0.929 . S
Cu713 N714 1.999 . S
Cu713 O719 1.974 . S
Cu713 N724 1.985 . S
Cu713 O733 1.959 . S
N714 Cu713 1.999 . S
N714 C716 1.263 . S
N714 C718 1.389 . S
N715 C716 1.358 . S
N715 C717 1.400 . S
C716 N714 1.263 . S
C716 N715 1.358 . S
C716 H722 0.930 . S
C717 N715 1.400 . S
C717 C718 1.351 . S
C717 H734 0.930 . S
C718 N714 1.389 . S
C718 C717 1.351 . S
C718 H723 0.930 . S
O719 Cu713 1.974 . S
O719 C729 1.282 . S
C720 O721 1.261 . S
C720 O733 1.251 . S
O721 C720 1.261 . S
H722 C716 0.930 . S
H723 C718 0.930 . S
N724 Cu713 1.985 . S
N724 C726 1.335 . S
N724 C727 1.390 . S
N725 C726 1.345 . S
N725 C728 1.336 . S
C726 N724 1.335 . S
C726 N725 1.345 . S
C726 H731 0.930 . S
C727 N724 1.390 . S
C727 C728 1.346 . S
C727 H732 0.930 . S
C728 N725 1.336 . S
C728 C727 1.346 . S
C728 H735 0.929 . S
C729 O719 1.282 . S
C729 O730 1.216 . S
O730 C729 1.216 . S
H731 C726 0.930 . S
H732 C727 0.930 . S
O733 Cu713 1.959 . S
O733 C720 1.251 . S
H734 C717 0.930 . S
H735 C728 0.929 . S
C736 C737 1.369 . S
C736 C738 1.419 . S
C736 H740 0.930 . S
C737 C736 1.369 . S
C737 C746 1.429 . S
C738 C736 1.419 . S
C738 C739 1.363 . S
C738 H741 0.929 . S
C739 C738 1.363 . S
C739 C745 1.428 . S
H740 C736 0.930 . S
H741 C738 0.929 . S
S742 N743 1.613 . S
S742 N744 1.610 . S
N743 S742 1.613 . S
N743 C746 1.350 . S
N744 S742 1.610 . S
N744 C745 1.351 . S
C745 C739 1.428 . S
C745 N744 1.351 . S
C745 C746 1.434 . S
C746 C737 1.429 . S
C746 N743 1.350 . S
C746 C745 1.434 . S
C747 C748 1.369 . S
C747 C749 1.419 . S
C747 H751 0.930 . S
C748 C747 1.369 . S
C748 C757 1.429 . S
C749 C747 1.419 . S
C749 C750 1.363 . S
C749 H752 0.929 . S
C750 C749 1.363 . S
C750 C756 1.428 . S
H751 C747 0.930 . S
H752 C749 0.929 . S
S753 N754 1.613 . S
S753 N755 1.610 . S
N754 S753 1.613 . S
N754 C757 1.350 . S
N755 S753 1.610 . S
N755 C756 1.351 . S
C756 C750 1.428 . S
C756 N755 1.351 . S
C756 C757 1.434 . S
C757 C748 1.429 . S
C757 N754 1.350 . S
C757 C756 1.434 . S
C758 C759 1.369 . S
C758 C760 1.419 . S
C758 H762 0.930 . S
C759 C758 1.369 . S
C759 C768 1.429 . S
C760 C758 1.419 . S
C760 C761 1.363 . S
C760 H763 0.929 . S
C761 C760 1.363 . S
C761 C767 1.428 . S
H762 C758 0.930 . S
H763 C760 0.929 . S
S764 N765 1.613 . S
S764 N766 1.610 . S
N765 S764 1.613 . S
N765 C768 1.350 . S
N766 S764 1.610 . S
N766 C767 1.351 . S
C767 C761 1.428 . S
C767 N766 1.351 . S
C767 C768 1.434 . S
C768 C759 1.429 . S
C768 N765 1.350 . S
C768 C767 1.434 . S
C769 C770 1.369 . S
C769 C771 1.419 . S
C769 H773 0.930 . S
C770 C769 1.369 . S
C770 C779 1.429 . S
C771 C769 1.419 . S
C771 C772 1.363 . S
C771 H774 0.929 . S
C772 C771 1.363 . S
C772 C778 1.428 . S
H773 C769 0.930 . S
H774 C771 0.929 . S
S775 N776 1.613 . S
S775 N777 1.610 . S
N776 S775 1.613 . S
N776 C779 1.350 . S
N777 S775 1.610 . S
N777 C778 1.351 . S
C778 C772 1.428 . S
C778 N777 1.351 . S
C778 C779 1.434 . S
C779 C770 1.429 . S
C779 N776 1.350 . S
C779 C778 1.434 . S
C780 C781 1.369 . S
C780 C782 1.419 . S
C780 H784 0.930 . S
C781 C780 1.369 . S
C781 C790 1.429 . S
C782 C780 1.419 . S
C782 C783 1.363 . S
C782 H785 0.929 . S
C783 C782 1.363 . S
C783 C789 1.428 . S
H784 C780 0.930 . S
H785 C782 0.929 . S
S786 N787 1.613 . S
S786 N788 1.610 . S
N787 S786 1.613 . S
N787 C790 1.350 . S
N788 S786 1.610 . S
N788 C789 1.351 . S
C789 C783 1.428 . S
C789 N788 1.351 . S
C789 C790 1.434 . S
C790 C781 1.429 . S
C790 N787 1.350 . S
C790 C789 1.434 . S
C791 C792 1.369 . S
C791 C793 1.419 . S
C791 H795 0.930 . S
C792 C791 1.369 . S
C792 C801 1.429 . S
C793 C791 1.419 . S
C793 C794 1.363 . S
C793 H796 0.929 . S
C794 C793 1.363 . S
C794 C800 1.428 . S
H795 C791 0.930 . S
H796 C793 0.929 . S
S797 N798 1.613 . S
S797 N799 1.610 . S
N798 S797 1.613 . S
N798 C801 1.350 . S
N799 S797 1.610 . S
N799 C800 1.351 . S
C800 C794 1.428 . S
C800 N799 1.351 . S
C800 C801 1.434 . S
C801 C792 1.429 . S
C801 N798 1.350 . S
C801 C800 1.434 . S
C802 C803 1.369 . S
C802 C804 1.419 . S
C802 H806 0.930 . S
C803 C802 1.369 . S
C803 C812 1.429 . S
C804 C802 1.419 . S
C804 C805 1.363 . S
C804 H807 0.929 . S
C805 C804 1.363 . S
C805 C811 1.428 . S
H806 C802 0.930 . S
H807 C804 0.929 . S
S808 N809 1.613 . S
S808 N810 1.610 . S
N809 S808 1.613 . S
N809 C812 1.350 . S
N810 S808 1.610 . S
N810 C811 1.351 . S
C811 C805 1.428 . S
C811 N810 1.351 . S
C811 C812 1.434 . S
C812 C803 1.429 . S
C812 N809 1.350 . S
C812 C811 1.434 . S
C813 C814 1.369 . S
C813 C815 1.419 . S
C813 H817 0.930 . S
C814 C813 1.369 . S
C814 C823 1.429 . S
C815 C813 1.419 . S
C815 C816 1.363 . S
C815 H818 0.929 . S
C816 C815 1.363 . S
C816 C822 1.428 . S
H817 C813 0.930 . S
H818 C815 0.929 . S
S819 N820 1.613 1_455 S
S819 N821 1.610 . S
N820 S819 1.613 1_655 S
N820 C823 1.350 . S
N821 S819 1.610 . S
N821 C822 1.351 1_455 S
C822 C816 1.428 . S
C822 N821 1.351 1_655 S
C822 C823 1.434 . S
C823 C814 1.429 . S
C823 N820 1.350 . S
C823 C822 1.434 . S
C824 C825 1.369 . S
C824 C826 1.419 . S
C824 H828 0.930 . S
C825 C824 1.369 . S
C825 C834 1.429 . S
C826 C824 1.419 . S
C826 C827 1.363 . S
C826 H829 0.929 . S
C827 C826 1.363 . S
C827 C833 1.428 . S
H828 C824 0.930 . S
H829 C826 0.929 . S
S830 N831 1.613 . S
S830 N832 1.610 . S
N831 S830 1.613 . S
N831 C834 1.350 . S
N832 S830 1.610 . S
N832 C833 1.351 . S
C833 C827 1.428 . S
C833 N832 1.351 . S
C833 C834 1.434 . S
C834 C825 1.429 . S
C834 N831 1.350 . S
C834 C833 1.434 . S
C835 C836 1.369 . S
C835 C837 1.419 . S
C835 H839 0.930 . S
C836 C835 1.369 . S
C836 C845 1.429 . S
C837 C835 1.419 . S
C837 C838 1.363 . S
C837 H840 0.929 . S
C838 C837 1.363 . S
C838 C844 1.428 . S
H839 C835 0.930 . S
H840 C837 0.929 . S
S841 N842 1.613 . S
S841 N843 1.610 . S
N842 S841 1.613 . S
N842 C845 1.350 . S
N843 S841 1.610 . S
N843 C844 1.351 . S
C844 C838 1.428 . S
C844 N843 1.351 . S
C844 C845 1.434 . S
C845 C836 1.429 . S
C845 N842 1.350 . S
C845 C844 1.434 . S
C846 C847 1.369 . S
C846 C848 1.419 . S
C846 H850 0.930 . S
C847 C846 1.369 . S
C847 C856 1.429 . S
C848 C846 1.419 . S
C848 C849 1.363 . S
C848 H851 0.929 . S
C849 C848 1.363 . S
C849 C855 1.428 . S
H850 C846 0.930 . S
H851 C848 0.929 . S
S852 N853 1.613 . S
S852 N854 1.610 . S
N853 S852 1.613 . S
N853 C856 1.350 . S
N854 S852 1.610 . S
N854 C855 1.351 . S
C855 C849 1.428 . S
C855 N854 1.351 . S
C855 C856 1.434 . S
C856 C847 1.429 . S
C856 N853 1.350 . S
C856 C855 1.434 . S
C857 C858 1.369 . S
C857 C859 1.419 . S
C857 H861 0.930 . S
C858 C857 1.369 . S
C858 C867 1.429 . S
C859 C857 1.419 . S
C859 C860 1.363 . S
C859 H862 0.929 . S
C860 C859 1.363 . S
C860 C866 1.428 . S
H861 C857 0.930 . S
H862 C859 0.929 . S
S863 N864 1.613 . S
S863 N865 1.610 . S
N864 S863 1.613 . S
N864 C867 1.350 . S
N865 S863 1.610 . S
N865 C866 1.351 . S
C866 C860 1.428 . S
C866 N865 1.351 . S
C866 C867 1.434 . S
C867 C858 1.429 . S
C867 N864 1.350 . S
C867 C866 1.434 . S
C868 C869 1.369 . S
C868 C870 1.419 . S
C868 H872 0.930 . S
C869 C868 1.369 . S
C869 C878 1.429 . S
C870 C868 1.419 . S
C870 C871 1.363 . S
C870 H873 0.929 . S
C871 C870 1.363 . S
C871 C877 1.428 . S
H872 C868 0.930 . S
H873 C870 0.929 . S
S874 N875 1.613 . S
S874 N876 1.610 . S
N875 S874 1.613 . S
N875 C878 1.350 . S
N876 S874 1.610 . S
N876 C877 1.351 . S
C877 C871 1.428 . S
C877 N876 1.351 . S
C877 C878 1.434 . S
C878 C869 1.429 . S
C878 N875 1.350 . S
C878 C877 1.434 . S
C879 C880 1.369 . S
C879 C881 1.419 . S
C879 H883 0.930 . S
C880 C879 1.369 . S
C880 C889 1.429 . S
C881 C879 1.419 . S
C881 C882 1.363 . S
C881 H884 0.929 . S
C882 C881 1.363 . S
C882 C888 1.428 . S
H883 C879 0.930 . S
H884 C881 0.929 . S
S885 N886 1.613 . S
S885 N887 1.610 . S
N886 S885 1.613 . S
N886 C889 1.350 . S
N887 S885 1.610 . S
N887 C888 1.351 . S
C888 C882 1.428 . S
C888 N887 1.351 . S
C888 C889 1.434 . S
C889 C880 1.429 . S
C889 N886 1.350 . S
C889 C888 1.434 . S
C890 C891 1.369 . S
C890 C892 1.419 . S
C890 H894 0.930 . S
C891 C890 1.369 . S
C891 C900 1.429 . S
C892 C890 1.419 . S
C892 C893 1.363 . S
C892 H895 0.929 . S
C893 C892 1.363 . S
C893 C899 1.428 . S
H894 C890 0.930 . S
H895 C892 0.929 . S
S896 N897 1.613 . S
S896 N898 1.610 . S
N897 S896 1.613 . S
N897 C900 1.350 . S
N898 S896 1.610 . S
N898 C899 1.351 . S
C899 C893 1.428 . S
C899 N898 1.351 . S
C899 C900 1.434 . S
C900 C891 1.429 . S
C900 N897 1.350 . S
C900 C899 1.434 . S
C901 C902 1.369 . S
C901 C903 1.419 . S
C901 H905 0.930 . S
C902 C901 1.369 . S
C902 C911 1.429 . S
C903 C901 1.419 . S
C903 C904 1.363 . S
C903 H906 0.929 . S
C904 C903 1.363 . S
C904 C910 1.428 . S
H905 C901 0.930 . S
H906 C903 0.929 . S
S907 N908 1.613 . S
S907 N909 1.610 . S
N908 S907 1.613 . S
N908 C911 1.350 . S
N909 S907 1.610 . S
N909 C910 1.351 . S
C910 C904 1.428 . S
C910 N909 1.351 . S
C910 C911 1.434 . S
C911 C902 1.429 . S
C911 N908 1.350 . S
C911 C910 1.434 . S
C912 C913 1.369 1_566 S
C912 C914 1.419 . S
C912 H916 0.930 . S
C913 C912 1.369 1_544 S
C913 C922 1.429 . S
C914 C912 1.419 . S
C914 C915 1.363 . S
C914 H917 0.929 . S
C915 C914 1.363 . S
C915 C921 1.428 1_566 S
H916 C912 0.930 . S
H917 C914 0.929 . S
S918 N919 1.613 . S
S918 N920 1.610 . S
N919 S918 1.613 . S
N919 C922 1.350 . S
N920 S918 1.610 . S
N920 C921 1.351 . S
C921 C915 1.428 1_544 S
C921 N920 1.351 . S
C921 C922 1.434 . S
C922 C913 1.429 . S
C922 N919 1.350 . S
C922 C921 1.434 . S
C923 C924 1.369 . S
C923 C925 1.419 . S
C923 H927 0.930 . S
C924 C923 1.369 . S
C924 C933 1.429 1_556 S
C925 C923 1.419 . S
C925 C926 1.363 1_556 S
C925 H928 0.929 . S
C926 C925 1.363 1_554 S
C926 C932 1.428 . S
H927 C923 0.930 . S
H928 C925 0.929 . S
S929 N930 1.613 . S
S929 N931 1.610 . S
N930 S929 1.613 . S
N930 C933 1.350 . S
N931 S929 1.610 . S
N931 C932 1.351 . S
C932 C926 1.428 . S
C932 N931 1.351 . S
C932 C933 1.434 . S
C933 C924 1.429 1_554 S
C933 N930 1.350 . S
C933 C932 1.434 . S
C934 C935 1.369 . S
C934 C936 1.419 . S
C934 H938 0.930 . S
C935 C934 1.369 . S
C935 C944 1.429 . S
C936 C934 1.419 . S
C936 C937 1.363 . S
C936 H939 0.929 . S
C937 C936 1.363 . S
C937 C943 1.428 . S
H938 C934 0.930 . S
H939 C936 0.929 . S
S940 N941 1.613 . S
S940 N942 1.610 . S
N941 S940 1.613 . S
N941 C944 1.350 . S
N942 S940 1.610 . S
N942 C943 1.351 . S
C943 C937 1.428 . S
C943 N942 1.351 . S
C943 C944 1.434 . S
C944 C935 1.429 . S
C944 N941 1.350 . S
C944 C943 1.434 . S
C945 C946 1.369 . S
C945 C947 1.419 1_565 S
C945 H949 0.930 . S
C946 C945 1.369 . S
C946 C955 1.429 . S
C947 C945 1.419 1_545 S
C947 C948 1.363 . S
C947 H950 0.929 . S
C948 C947 1.363 . S
C948 C954 1.428 . S
H949 C945 0.930 . S
H950 C947 0.929 . S
S951 N952 1.613 1_545 S
S951 N953 1.610 . S
N952 S951 1.613 1_565 S
N952 C955 1.350 . S
N953 S951 1.610 . S
N953 C954 1.351 . S
C954 C948 1.428 . S
C954 N953 1.351 . S
C954 C955 1.434 1_545 S
C955 C946 1.429 . S
C955 N952 1.350 . S
C955 C954 1.434 1_565 S
C956 C957 1.369 1_556 S
C956 C958 1.419 . S
C956 H960 0.930 . S
C957 C956 1.369 1_554 S
C957 C966 1.429 . S
C958 C956 1.419 . S
C958 C959 1.363 . S
C958 H961 0.929 . S
C959 C958 1.363 . S
C959 C965 1.428 1_556 S
H960 C956 0.930 . S
H961 C958 0.929 . S
S962 N963 1.613 . S
S962 N964 1.610 . S
N963 S962 1.613 . S
N963 C966 1.350 . S
N964 S962 1.610 . S
N964 C965 1.351 . S
C965 C959 1.428 1_554 S
C965 N964 1.351 . S
C965 C966 1.434 . S
C966 C957 1.429 . S
C966 N963 1.350 . S
C966 C965 1.434 . S
C967 C968 1.369 . S
C967 C969 1.419 . S
C967 H971 0.930 . S
C968 C967 1.369 . S
C968 C977 1.429 . S
C969 C967 1.419 . S
C969 C970 1.363 . S
C969 H972 0.929 . S
C970 C969 1.363 . S
C970 C976 1.428 . S
H971 C967 0.930 . S
H972 C969 0.929 . S
S973 N974 1.613 . S
S973 N975 1.610 . S
N974 S973 1.613 . S
N974 C977 1.350 . S
N975 S973 1.610 . S
N975 C976 1.351 . S
C976 C970 1.428 . S
C976 N975 1.351 . S
C976 C977 1.434 . S
C977 C968 1.429 . S
C977 N974 1.350 . S
C977 C976 1.434 . S
C978 C979 1.369 . S
C978 C980 1.419 . S
C978 H982 0.930 . S
C979 C978 1.369 . S
C979 C988 1.429 1_565 S
C980 C978 1.419 . S
C980 C981 1.363 1_565 S
C980 H983 0.929 . S
C981 C980 1.363 1_545 S
C981 C987 1.428 . S
H982 C978 0.930 . S
H983 C980 0.929 . S
S984 N985 1.613 . S
S984 N986 1.610 . S
N985 S984 1.613 . S
N985 C988 1.350 . S
N986 S984 1.610 . S
N986 C987 1.351 . S
C987 C981 1.428 . S
C987 N986 1.351 . S
C987 C988 1.434 . S
C988 C979 1.429 1_545 S
C988 N985 1.350 . S
C988 C987 1.434 . S
C989 C990 1.369 . S
C989 C991 1.419 . S
C989 H993 0.930 . S
C990 C989 1.369 . S
C990 C999 1.429 . S
C991 C989 1.419 . S
C991 C992 1.363 . S
C991 H994 0.929 . S
C992 C991 1.363 . S
C992 C998 1.428 . S
H993 C989 0.930 . S
H994 C991 0.929 . S
S995 N996 1.613 . S
S995 N997 1.610 . S
N996 S995 1.613 . S
N996 C999 1.350 . S
N997 S995 1.610 . S
N997 C998 1.351 . S
C998 C992 1.428 . S
C998 N997 1.351 . S
C998 C999 1.434 . S
C999 C990 1.429 . S
C999 N996 1.350 . S
C999 C998 1.434 . S
C1000 C1001 1.369 . S
C1000 C1002 1.419 . S
C1000 H1004 0.930 . S
C1001 C1000 1.369 . S
C1001 C1010 1.429 . S
C1002 C1000 1.419 . S
C1002 C1003 1.363 . S
C1002 H1005 0.929 . S
C1003 C1002 1.363 . S
C1003 C1009 1.428 . S
H1004 C1000 0.930 . S
H1005 C1002 0.929 . S
S1006 N1007 1.613 . S
S1006 N1008 1.610 . S
N1007 S1006 1.613 . S
N1007 C1010 1.350 . S
N1008 S1006 1.610 . S
N1008 C1009 1.351 . S
C1009 C1003 1.428 . S
C1009 N1008 1.351 . S
C1009 C1010 1.434 . S
C1010 C1001 1.429 . S
C1010 N1007 1.350 . S
C1010 C1009 1.434 . S
C1011 C1012 1.369 . S
C1011 C1013 1.419 . S
C1011 H1015 0.930 . S
C1012 C1011 1.369 . S
C1012 C1021 1.429 . S
C1013 C1011 1.419 . S
C1013 C1014 1.363 . S
C1013 H1016 0.929 . S
C1014 C1013 1.363 . S
C1014 C1020 1.428 . S
H1015 C1011 0.930 . S
H1016 C1013 0.929 . S
S1017 N1018 1.613 . S
S1017 N1019 1.610 . S
N1018 S1017 1.613 . S
N1018 C1021 1.350 . S
N1019 S1017 1.610 . S
N1019 C1020 1.351 . S
C1020 C1014 1.428 . S
C1020 N1019 1.351 . S
C1020 C1021 1.434 . S
C1021 C1012 1.429 . S
C1021 N1018 1.350 . S
C1021 C1020 1.434 . S
C1022 C1023 1.369 . S
C1022 C1024 1.419 . S
C1022 H1026 0.930 . S
C1023 C1022 1.369 . S
C1023 C1032 1.429 . S
C1024 C1022 1.419 . S
C1024 C1025 1.363 . S
C1024 H1027 0.929 . S
C1025 C1024 1.363 . S
C1025 C1031 1.428 . S
H1026 C1022 0.930 . S
H1027 C1024 0.929 . S
S1028 N1029 1.613 . S
S1028 N1030 1.610 . S
N1029 S1028 1.613 . S
N1029 C1032 1.350 . S
N1030 S1028 1.610 . S
N1030 C1031 1.351 . S
C1031 C1025 1.428 . S
C1031 N1030 1.351 . S
C1031 C1032 1.434 . S
C1032 C1023 1.429 . S
C1032 N1029 1.350 . S
C1032 C1031 1.434 . S
C1033 C1034 1.369 . S
C1033 C1035 1.419 . S
C1033 H1037 0.930 . S
C1034 C1033 1.369 . S
C1034 C1043 1.429 . S
C1035 C1033 1.419 . S
C1035 C1036 1.363 . S
C1035 H1038 0.929 . S
C1036 C1035 1.363 . S
C1036 C1042 1.428 . S
H1037 C1033 0.930 . S
H1038 C1035 0.929 . S
S1039 N1040 1.613 . S
S1039 N1041 1.610 . S
N1040 S1039 1.613 . S
N1040 C1043 1.350 . S
N1041 S1039 1.610 . S
N1041 C1042 1.351 . S
C1042 C1036 1.428 . S
C1042 N1041 1.351 . S
C1042 C1043 1.434 . S
C1043 C1034 1.429 . S
C1043 N1040 1.350 . S
C1043 C1042 1.434 . S
C1044 C1045 1.369 1_655 S
C1044 C1046 1.419 . S
C1044 H1048 0.930 . S
C1045 C1044 1.369 1_455 S
C1045 C1054 1.429 1_565 S
C1046 C1044 1.419 . S
C1046 C1047 1.363 1_565 S
C1046 H1049 0.929 . S
C1047 C1046 1.363 1_545 S
C1047 C1053 1.428 1_655 S
H1048 C1044 0.930 . S
H1049 C1046 0.929 . S
S1050 N1051 1.613 . S
S1050 N1052 1.610 . S
N1051 S1050 1.613 . S
N1051 C1054 1.350 . S
N1052 S1050 1.610 . S
N1052 C1053 1.351 . S
C1053 C1047 1.428 1_455 S
C1053 N1052 1.351 . S
C1053 C1054 1.434 . S
C1054 C1045 1.429 1_545 S
C1054 N1051 1.350 . S
C1054 C1053 1.434 . S
C1055 C1056 1.369 1_455 S
C1055 C1057 1.419 . S
C1055 H1059 0.930 . S
C1056 C1055 1.369 1_655 S
C1056 C1065 1.429 . S
C1057 C1055 1.419 . S
C1057 C1058 1.363 . S
C1057 H1060 0.929 . S
C1058 C1057 1.363 . S
C1058 C1064 1.428 1_455 S
H1059 C1055 0.930 . S
H1060 C1057 0.929 . S
S1061 N1062 1.613 . S
S1061 N1063 1.610 . S
N1062 S1061 1.613 . S
N1062 C1065 1.350 . S
N1063 S1061 1.610 . S
N1063 C1064 1.351 . S
C1064 C1058 1.428 1_655 S
C1064 N1063 1.351 . S
C1064 C1065 1.434 . S
C1065 C1056 1.429 . S
C1065 N1062 1.350 . S
C1065 C1064 1.434 . S
C1066 C1067 1.369 . S
C1066 C1068 1.419 1_455 S
C1066 H1070 0.930 . S
C1067 C1066 1.369 . S
C1067 C1076 1.429 . S
C1068 C1066 1.419 1_655 S
C1068 C1069 1.363 . S
C1068 H1071 0.929 . S
C1069 C1068 1.363 . S
C1069 C1075 1.428 . S
H1070 C1066 0.930 . S
H1071 C1068 0.929 . S
S1072 N1073 1.613 1_655 S
S1072 N1074 1.610 . S
N1073 S1072 1.613 1_455 S
N1073 C1076 1.350 . S
N1074 S1072 1.610 . S
N1074 C1075 1.351 . S
C1075 C1069 1.428 . S
C1075 N1074 1.351 . S
C1075 C1076 1.434 1_655 S
C1076 C1067 1.429 . S
C1076 N1073 1.350 . S
C1076 C1075 1.434 1_455 S
C1077 C1078 1.369 1_554 S
C1077 C1079 1.419 . S
C1077 H1081 0.930 . S
C1078 C1077 1.369 1_556 S
C1078 C1087 1.429 1_455 S
C1079 C1077 1.419 . S
C1079 C1080 1.363 1_455 S
C1079 H1082 0.929 . S
C1080 C1079 1.363 1_655 S
C1080 C1086 1.428 1_554 S
H1081 C1077 0.930 . S
H1082 C1079 0.929 . S
S1083 N1084 1.613 . S
S1083 N1085 1.610 . S
N1084 S1083 1.613 . S
N1084 C1087 1.350 . S
N1085 S1083 1.610 . S
N1085 C1086 1.351 . S
C1086 C1080 1.428 1_556 S
C1086 N1085 1.351 . S
C1086 C1087 1.434 . S
C1087 C1078 1.429 1_655 S
C1087 N1084 1.350 . S
C1087 C1086 1.434 . S
C1088 C1089 1.369 . S
C1088 C1090 1.419 . S
C1088 H1092 0.930 . S
C1089 C1088 1.369 . S
C1089 C1098 1.429 . S
C1090 C1088 1.419 . S
C1090 C1091 1.363 . S
C1090 H1093 0.929 . S
C1091 C1090 1.363 . S
C1091 C1097 1.428 . S
H1092 C1088 0.930 . S
H1093 C1090 0.929 . S
S1094 N1095 1.613 . S
S1094 N1096 1.610 . S
N1095 S1094 1.613 . S
N1095 C1098 1.350 . S
N1096 S1094 1.610 . S
N1096 C1097 1.351 . S
C1097 C1091 1.428 . S
C1097 N1096 1.351 . S
C1097 C1098 1.434 . S
C1098 C1089 1.429 . S
C1098 N1095 1.350 . S
C1098 C1097 1.434 . S
C1099 C1100 1.369 . S
C1099 C1101 1.419 . S
C1099 H1103 0.930 . S
C1100 C1099 1.369 . S
C1100 C1109 1.429 . S
C1101 C1099 1.419 . S
C1101 C1102 1.363 . S
C1101 H1104 0.929 . S
C1102 C1101 1.363 . S
C1102 C1108 1.428 . S
H1103 C1099 0.930 . S
H1104 C1101 0.929 . S
S1105 N1106 1.613 . S
S1105 N1107 1.610 . S
N1106 S1105 1.613 . S
N1106 C1109 1.350 . S
N1107 S1105 1.610 . S
N1107 C1108 1.351 . S
C1108 C1102 1.428 . S
C1108 N1107 1.351 . S
C1108 C1109 1.434 . S
C1109 C1100 1.429 . S
C1109 N1106 1.350 . S
C1109 C1108 1.434 . S
C1110 C1111 1.369 . S
C1110 C1112 1.419 . S
C1110 H1114 0.930 . S
C1111 C1110 1.369 . S
C1111 C1120 1.429 . S
C1112 C1110 1.419 . S
C1112 C1113 1.363 . S
C1112 H1115 0.929 . S
C1113 C1112 1.363 . S
C1113 C1119 1.428 . S
H1114 C1110 0.930 . S
H1115 C1112 0.929 . S
S1116 N1117 1.613 . S
S1116 N1118 1.610 . S
N1117 S1116 1.613 . S
N1117 C1120 1.350 . S
N1118 S1116 1.610 . S
N1118 C1119 1.351 . S
C1119 C1113 1.428 . S
C1119 N1118 1.351 . S
C1119 C1120 1.434 . S
C1120 C1111 1.429 . S
C1120 N1117 1.350 . S
C1120 C1119 1.434 . S
C1121 C1122 1.369 . S
C1121 C1123 1.419 . S
C1121 H1125 0.930 . S
C1122 C1121 1.369 . S
C1122 C1131 1.429 . S
C1123 C1121 1.419 . S
C1123 C1124 1.363 . S
C1123 H1126 0.929 . S
C1124 C1123 1.363 . S
C1124 C1130 1.428 . S
H1125 C1121 0.930 . S
H1126 C1123 0.929 . S
S1127 N1128 1.613 1_455 S
S1127 N1129 1.610 . S
N1128 S1127 1.613 1_655 S
N1128 C1131 1.350 . S
N1129 S1127 1.610 . S
N1129 C1130 1.351 1_455 S
C1130 C1124 1.428 . S
C1130 N1129 1.351 1_655 S
C1130 C1131 1.434 . S
C1131 C1122 1.429 . S
C1131 N1128 1.350 . S
C1131 C1130 1.434 . S
C1132 C1133 1.369 . S
C1132 C1134 1.419 . S
C1132 H1136 0.930 . S
C1133 C1132 1.369 . S
C1133 C1142 1.429 . S
C1134 C1132 1.419 . S
C1134 C1135 1.363 . S
C1134 H1137 0.929 . S
C1135 C1134 1.363 . S
C1135 C1141 1.428 . S
H1136 C1132 0.930 . S
H1137 C1134 0.929 . S
S1138 N1139 1.613 . S
S1138 N1140 1.610 . S
N1139 S1138 1.613 . S
N1139 C1142 1.350 . S
N1140 S1138 1.610 . S
N1140 C1141 1.351 . S
C1141 C1135 1.428 . S
C1141 N1140 1.351 . S
C1141 C1142 1.434 . S
C1142 C1133 1.429 . S
C1142 N1139 1.350 . S
C1142 C1141 1.434 . S
C1143 C1144 1.369 . S
C1143 C1145 1.419 . S
C1143 H1147 0.930 . S
C1144 C1143 1.369 . S
C1144 C1153 1.429 . S
C1145 C1143 1.419 . S
C1145 C1146 1.363 . S
C1145 H1148 0.929 . S
C1146 C1145 1.363 . S
C1146 C1152 1.428 . S
H1147 C1143 0.930 . S
H1148 C1145 0.929 . S
S1149 N1150 1.613 . S
S1149 N1151 1.610 . S
N1150 S1149 1.613 . S
N1150 C1153 1.350 . S
N1151 S1149 1.610 . S
N1151 C1152 1.351 . S
C1152 C1146 1.428 . S
C1152 N1151 1.351 . S
C1152 C1153 1.434 . S
C1153 C1144 1.429 . S
C1153 N1150 1.350 . S
C1153 C1152 1.434 . S
C1154 C1155 1.369 . S
C1154 C1156 1.419 . S
C1154 H1158 0.930 . S
C1155 C1154 1.369 . S
C1155 C1164 1.429 . S
C1156 C1154 1.419 . S
C1156 C1157 1.363 . S
C1156 H1159 0.929 . S
C1157 C1156 1.363 . S
C1157 C1163 1.428 . S
H1158 C1154 0.930 . S
H1159 C1156 0.929 . S
S1160 N1161 1.613 . S
S1160 N1162 1.610 . S
N1161 S1160 1.613 . S
N1161 C1164 1.350 . S
N1162 S1160 1.610 . S
N1162 C1163 1.351 . S
C1163 C1157 1.428 . S
C1163 N1162 1.351 . S
C1163 C1164 1.434 . S
C1164 C1155 1.429 . S
C1164 N1161 1.350 . S
C1164 C1163 1.434 . S
C1165 C1166 1.369 . S
C1165 C1167 1.419 . S
C1165 H1169 0.930 . S
C1166 C1165 1.369 . S
C1166 C1175 1.429 . S
C1167 C1165 1.419 . S
C1167 C1168 1.363 . S
C1167 H1170 0.929 . S
C1168 C1167 1.363 . S
C1168 C1174 1.428 . S
H1169 C1165 0.930 . S
H1170 C1167 0.929 . S
S1171 N1172 1.613 . S
S1171 N1173 1.610 . S
N1172 S1171 1.613 . S
N1172 C1175 1.350 . S
N1173 S1171 1.610 . S
N1173 C1174 1.351 . S
C1174 C1168 1.428 . S
C1174 N1173 1.351 . S
C1174 C1175 1.434 . S
C1175 C1166 1.429 . S
C1175 N1172 1.350 . S
C1175 C1174 1.434 . S
C1176 C1177 1.369 . S
C1176 C1178 1.419 . S
C1176 H1180 0.930 . S
C1177 C1176 1.369 . S
C1177 C1186 1.429 . S
C1178 C1176 1.419 . S
C1178 C1179 1.363 . S
C1178 H1181 0.929 . S
C1179 C1178 1.363 . S
C1179 C1185 1.428 . S
H1180 C1176 0.930 . S
H1181 C1178 0.929 . S
S1182 N1183 1.613 . S
S1182 N1184 1.610 . S
N1183 S1182 1.613 . S
N1183 C1186 1.350 . S
N1184 S1182 1.610 . S
N1184 C1185 1.351 . S
C1185 C1179 1.428 . S
C1185 N1184 1.351 . S
C1185 C1186 1.434 . S
C1186 C1177 1.429 . S
C1186 N1183 1.350 . S
C1186 C1185 1.434 . S
C1187 C1188 1.369 . S
C1187 C1189 1.419 . S
C1187 H1191 0.930 . S
C1188 C1187 1.369 . S
C1188 C1197 1.429 . S
C1189 C1187 1.419 . S
C1189 C1190 1.363 . S
C1189 H1192 0.929 . S
C1190 C1189 1.363 . S
C1190 C1196 1.428 . S
H1191 C1187 0.930 . S
H1192 C1189 0.929 . S
S1193 N1194 1.613 . S
S1193 N1195 1.610 . S
N1194 S1193 1.613 . S
N1194 C1197 1.350 . S
N1195 S1193 1.610 . S
N1195 C1196 1.351 . S
C1196 C1190 1.428 . S
C1196 N1195 1.351 . S
C1196 C1197 1.434 . S
C1197 C1188 1.429 . S
C1197 N1194 1.350 . S
C1197 C1196 1.434 . S
C1198 C1199 1.369 . S
C1198 C1200 1.419 . S
C1198 H1202 0.930 . S
C1199 C1198 1.369 . S
C1199 C1208 1.429 . S
C1200 C1198 1.419 . S
C1200 C1201 1.363 . S
C1200 H1203 0.929 . S
C1201 C1200 1.363 . S
C1201 C1207 1.428 . S
H1202 C1198 0.930 . S
H1203 C1200 0.929 . S
S1204 N1205 1.613 . S
S1204 N1206 1.610 . S
N1205 S1204 1.613 . S
N1205 C1208 1.350 . S
N1206 S1204 1.610 . S
N1206 C1207 1.351 . S
C1207 C1201 1.428 . S
C1207 N1206 1.351 . S
C1207 C1208 1.434 . S
C1208 C1199 1.429 . S
C1208 N1205 1.350 . S
C1208 C1207 1.434 . S
C1209 C1210 1.369 . S
C1209 C1211 1.419 . S
C1209 H1213 0.930 . S
C1210 C1209 1.369 . S
C1210 C1219 1.429 . S
C1211 C1209 1.419 . S
C1211 C1212 1.363 . S
C1211 H1214 0.929 . S
C1212 C1211 1.363 . S
C1212 C1218 1.428 . S
H1213 C1209 0.930 . S
H1214 C1211 0.929 . S
S1215 N1216 1.613 . S
S1215 N1217 1.610 . S
N1216 S1215 1.613 . S
N1216 C1219 1.350 . S
N1217 S1215 1.610 . S
N1217 C1218 1.351 . S
C1218 C1212 1.428 . S
C1218 N1217 1.351 . S
C1218 C1219 1.434 . S
C1219 C1210 1.429 . S
C1219 N1216 1.350 . S
C1219 C1218 1.434 . S
C1220 C1221 1.369 . S
C1220 C1222 1.419 . S
C1220 H1224 0.930 . S
C1221 C1220 1.369 . S
C1221 C1230 1.429 . S
C1222 C1220 1.419 . S
C1222 C1223 1.363 . S
C1222 H1225 0.929 . S
C1223 C1222 1.363 . S
C1223 C1229 1.428 . S
H1224 C1220 0.930 . S
H1225 C1222 0.929 . S
S1226 N1227 1.613 . S
S1226 N1228 1.610 . S
N1227 S1226 1.613 . S
N1227 C1230 1.350 . S
N1228 S1226 1.610 . S
N1228 C1229 1.351 . S
C1229 C1223 1.428 . S
C1229 N1228 1.351 . S
C1229 C1230 1.434 . S
C1230 C1221 1.429 . S
C1230 N1227 1.350 . S
C1230 C1229 1.434 . S
C1231 C1232 1.369 . S
C1231 C1233 1.419 . S
C1231 H1235 0.930 . S
C1232 C1231 1.369 . S
C1232 C1241 1.429 . S
C1233 C1231 1.419 . S
C1233 C1234 1.363 . S
C1233 H1236 0.929 . S
C1234 C1233 1.363 . S
C1234 C1240 1.428 . S
H1235 C1231 0.930 . S
H1236 C1233 0.929 . S
S1237 N1238 1.613 . S
S1237 N1239 1.610 1_655 S
N1238 S1237 1.613 . S
N1238 C1241 1.350 1_655 S
N1239 S1237 1.610 1_455 S
N1239 C1240 1.351 . S
C1240 C1234 1.428 . S
C1240 N1239 1.351 . S
C1240 C1241 1.434 . S
C1241 C1232 1.429 . S
C1241 N1238 1.350 1_455 S
C1241 C1240 1.434 . S
C1242 C1243 1.369 . S
C1242 C1244 1.419 . S
C1242 H1246 0.930 . S
C1243 C1242 1.369 . S
C1243 C1252 1.429 . S
C1244 C1242 1.419 . S
C1244 C1245 1.363 . S
C1244 H1247 0.929 . S
C1245 C1244 1.363 . S
C1245 C1251 1.428 . S
H1246 C1242 0.930 . S
H1247 C1244 0.929 . S
S1248 N1249 1.613 . S
S1248 N1250 1.610 . S
N1249 S1248 1.613 . S
N1249 C1252 1.350 . S
N1250 S1248 1.610 . S
N1250 C1251 1.351 . S
C1251 C1245 1.428 . S
C1251 N1250 1.351 . S
C1251 C1252 1.434 . S
C1252 C1243 1.429 . S
C1252 N1249 1.350 . S
C1252 C1251 1.434 . S
C1253 C1254 1.369 . S
C1253 C1255 1.419 . S
C1253 H1257 0.930 . S
C1254 C1253 1.369 . S
C1254 C1263 1.429 . S
C1255 C1253 1.419 . S
C1255 C1256 1.363 . S
C1255 H1258 0.929 . S
C1256 C1255 1.363 . S
C1256 C1262 1.428 . S
H1257 C1253 0.930 . S
H1258 C1255 0.929 . S
S1259 N1260 1.613 . S
S1259 N1261 1.610 . S
N1260 S1259 1.613 . S
N1260 C1263 1.350 . S
N1261 S1259 1.610 . S
N1261 C1262 1.351 . S
C1262 C1256 1.428 . S
C1262 N1261 1.351 . S
C1262 C1263 1.434 . S
C1263 C1254 1.429 . S
C1263 N1260 1.350 . S
C1263 C1262 1.434 . S
C1264 C1265 1.369 . S
C1264 C1266 1.419 . S
C1264 H1268 0.930 . S
C1265 C1264 1.369 . S
C1265 C1274 1.429 1_554 S
C1266 C1264 1.419 . S
C1266 C1267 1.363 . S
C1266 H1269 0.929 . S
C1267 C1266 1.363 . S
C1267 C1273 1.428 1_554 S
H1268 C1264 0.930 . S
H1269 C1266 0.929 . S
S1270 N1271 1.613 . S
S1270 N1272 1.610 . S
N1271 S1270 1.613 . S
N1271 C1274 1.350 . S
N1272 S1270 1.610 . S
N1272 C1273 1.351 . S
C1273 C1267 1.428 1_556 S
C1273 N1272 1.351 . S
C1273 C1274 1.434 . S
C1274 C1265 1.429 1_556 S
C1274 N1271 1.350 . S
C1274 C1273 1.434 . S
C1275 C1276 1.369 . S
C1275 C1277 1.419 . S
C1275 H1279 0.930 . S
C1276 C1275 1.369 . S
C1276 C1285 1.429 . S
C1277 C1275 1.419 . S
C1277 C1278 1.363 . S
C1277 H1280 0.929 . S
C1278 C1277 1.363 . S
C1278 C1284 1.428 . S
H1279 C1275 0.930 . S
H1280 C1277 0.929 . S
S1281 N1282 1.613 . S
S1281 N1283 1.610 . S
N1282 S1281 1.613 . S
N1282 C1285 1.350 . S
N1283 S1281 1.610 . S
N1283 C1284 1.351 . S
C1284 C1278 1.428 . S
C1284 N1283 1.351 . S
C1284 C1285 1.434 . S
C1285 C1276 1.429 . S
C1285 N1282 1.350 . S
C1285 C1284 1.434 . S
C1286 C1287 1.369 . S
C1286 C1288 1.419 . S
C1286 H1290 0.930 . S
C1287 C1286 1.369 . S
C1287 C1296 1.429 1_556 S
C1288 C1286 1.419 . S
C1288 C1289 1.363 . S
C1288 H1291 0.929 . S
C1289 C1288 1.363 . S
C1289 C1295 1.428 1_556 S
H1290 C1286 0.930 . S
H1291 C1288 0.929 . S
S1292 N1293 1.613 1_455 S
S1292 N1294 1.610 1_455 S
N1293 S1292 1.613 1_655 S
N1293 C1296 1.350 . S
N1294 S1292 1.610 1_655 S
N1294 C1295 1.351 . S
C1295 C1289 1.428 1_554 S
C1295 N1294 1.351 . S
C1295 C1296 1.434 . S
C1296 C1287 1.429 1_554 S
C1296 N1293 1.350 . S
C1296 C1295 1.434 . S
C1297 C1298 1.369 . S
C1297 C1299 1.419 . S
C1297 H1301 0.930 . S
C1298 C1297 1.369 . S
C1298 C1307 1.429 . S
C1299 C1297 1.419 . S
C1299 C1300 1.363 . S
C1299 H1302 0.929 . S
C1300 C1299 1.363 . S
C1300 C1306 1.428 . S
H1301 C1297 0.930 . S
H1302 C1299 0.929 . S
S1303 N1304 1.613 . S
S1303 N1305 1.610 . S
N1304 S1303 1.613 . S
N1304 C1307 1.350 . S
N1305 S1303 1.610 . S
N1305 C1306 1.351 . S
C1306 C1300 1.428 . S
C1306 N1305 1.351 . S
C1306 C1307 1.434 . S
C1307 C1298 1.429 . S
C1307 N1304 1.350 . S
C1307 C1306 1.434 . S
C1308 C1309 1.369 . S
C1308 C1310 1.419 . S
C1308 H1312 0.930 . S
C1309 C1308 1.369 . S
C1309 C1318 1.429 . S
C1310 C1308 1.419 . S
C1310 C1311 1.363 . S
C1310 H1313 0.929 . S
C1311 C1310 1.363 . S
C1311 C1317 1.428 . S
H1312 C1308 0.930 . S
H1313 C1310 0.929 . S
S1314 N1315 1.613 . S
S1314 N1316 1.610 1_655 S
N1315 S1314 1.613 . S
N1315 C1318 1.350 1_655 S
N1316 S1314 1.610 1_455 S
N1316 C1317 1.351 . S
C1317 C1311 1.428 . S
C1317 N1316 1.351 . S
C1317 C1318 1.434 . S
C1318 C1309 1.429 . S
C1318 N1315 1.350 1_455 S
C1318 C1317 1.434 . S
C1319 C1320 1.369 . S
C1319 C1321 1.419 . S
C1319 H1323 0.930 . S
C1320 C1319 1.369 . S
C1320 C1329 1.429 . S
C1321 C1319 1.419 . S
C1321 C1322 1.363 . S
C1321 H1324 0.929 . S
C1322 C1321 1.363 . S
C1322 C1328 1.428 . S
H1323 C1319 0.930 . S
H1324 C1321 0.929 . S
S1325 N1326 1.613 . S
S1325 N1327 1.610 . S
N1326 S1325 1.613 . S
N1326 C1329 1.350 . S
N1327 S1325 1.610 . S
N1327 C1328 1.351 . S
C1328 C1322 1.428 . S
C1328 N1327 1.351 . S
C1328 C1329 1.434 . S
C1329 C1320 1.429 . S
C1329 N1326 1.350 . S
C1329 C1328 1.434 . S
C1330 C1331 1.369 . S
C1330 C1332 1.419 . S
C1330 H1334 0.930 . S
C1331 C1330 1.369 . S
C1331 C1340 1.429 . S
C1332 C1330 1.419 . S
C1332 C1333 1.363 . S
C1332 H1335 0.929 . S
C1333 C1332 1.363 . S
C1333 C1339 1.428 . S
H1334 C1330 0.930 . S
H1335 C1332 0.929 . S
S1336 N1337 1.613 . S
S1336 N1338 1.610 . S
N1337 S1336 1.613 . S
N1337 C1340 1.350 . S
N1338 S1336 1.610 . S
N1338 C1339 1.351 . S
C1339 C1333 1.428 . S
C1339 N1338 1.351 . S
C1339 C1340 1.434 . S
C1340 C1331 1.429 . S
C1340 N1337 1.350 . S
C1340 C1339 1.434 . S
C1341 C1342 1.369 . S
C1341 C1343 1.419 . S
C1341 H1345 0.930 . S
C1342 C1341 1.369 . S
C1342 C1351 1.429 . S
C1343 C1341 1.419 . S
C1343 C1344 1.363 . S
C1343 H1346 0.929 . S
C1344 C1343 1.363 . S
C1344 C1350 1.428 . S
H1345 C1341 0.930 . S
H1346 C1343 0.929 . S
S1347 N1348 1.613 1_455 S
S1347 N1349 1.616 . S
N1348 S1347 1.613 1_655 S
N1348 C1351 1.350 . S
N1349 S1347 1.616 . S
N1349 C1350 1.335 1_455 S
C1350 C1344 1.428 . S
C1350 N1349 1.335 1_655 S
C1350 C1351 1.434 . S
C1351 C1342 1.429 . S
C1351 N1348 1.350 . S
C1351 C1350 1.434 . S
C1352 C1353 1.369 . S
C1352 C1354 1.419 . S
C1352 H1356 0.930 . S
C1353 C1352 1.369 . S
C1353 C1362 1.429 . S
C1354 C1352 1.419 . S
C1354 C1355 1.363 . S
C1354 H1357 0.929 . S
C1355 C1354 1.363 . S
C1355 C1361 1.428 . S
H1356 C1352 0.930 . S
H1357 C1354 0.929 . S
S1358 N1359 1.613 . S
S1358 N1360 1.610 . S
N1359 S1358 1.613 . S
N1359 C1362 1.350 . S
N1360 S1358 1.610 . S
N1360 C1361 1.351 . S
C1361 C1355 1.428 . S
C1361 N1360 1.351 . S
C1361 C1362 1.434 . S
C1362 C1353 1.429 . S
C1362 N1359 1.350 . S
C1362 C1361 1.434 . S
C1363 C1364 1.369 . S
C1363 C1365 1.419 . S
C1363 H1367 0.930 . S
C1364 C1363 1.369 . S
C1364 C1373 1.429 . S
C1365 C1363 1.419 . S
C1365 C1366 1.363 . S
C1365 H1368 0.929 . S
C1366 C1365 1.363 . S
C1366 C1372 1.428 . S
H1367 C1363 0.930 . S
H1368 C1365 0.929 . S
S1369 N1370 1.613 . S
S1369 N1371 1.610 . S
N1370 S1369 1.613 . S
N1370 C1373 1.350 . S
N1371 S1369 1.610 . S
N1371 C1372 1.351 . S
C1372 C1366 1.428 . S
C1372 N1371 1.351 . S
C1372 C1373 1.434 . S
C1373 C1364 1.429 . S
C1373 N1370 1.350 . S
C1373 C1372 1.434 . S
C1374 C1375 1.369 . S
C1374 C1376 1.419 . S
C1374 H1378 0.930 . S
C1375 C1374 1.369 . S
C1375 C1384 1.429 . S
C1376 C1374 1.419 . S
C1376 C1377 1.363 . S
C1376 H1379 0.929 . S
C1377 C1376 1.363 . S
C1377 C1383 1.428 . S
H1378 C1374 0.930 . S
H1379 C1376 0.929 . S
S1380 N1381 1.613 . S
S1380 N1382 1.610 . S
N1381 S1380 1.613 . S
N1381 C1384 1.350 . S
N1382 S1380 1.610 . S
N1382 C1383 1.351 . S
C1383 C1377 1.428 . S
C1383 N1382 1.351 . S
C1383 C1384 1.434 . S
C1384 C1375 1.429 . S
C1384 N1381 1.350 . S
C1384 C1383 1.434 . S
C1385 C1386 1.369 . S
C1385 C1387 1.419 . S
C1385 H1389 0.930 . S
C1386 C1385 1.369 . S
C1386 C1395 1.429 . S
C1387 C1385 1.419 . S
C1387 C1388 1.363 . S
C1387 H1390 0.929 . S
C1388 C1387 1.363 . S
C1388 C1394 1.428 . S
H1389 C1385 0.930 . S
H1390 C1387 0.929 . S
S1391 N1392 1.613 . S
S1391 N1393 1.610 . S
N1392 S1391 1.613 . S
N1392 C1395 1.350 . S
N1393 S1391 1.610 . S
N1393 C1394 1.351 . S
C1394 C1388 1.428 . S
C1394 N1393 1.351 . S
C1394 C1395 1.434 . S
C1395 C1386 1.429 . S
C1395 N1392 1.350 . S
C1395 C1394 1.434 . S
C1396 C1397 1.369 . S
C1396 C1398 1.419 . S
C1396 H1400 0.930 . S
C1397 C1396 1.369 . S
C1397 C1406 1.429 1_554 S
C1398 C1396 1.419 . S
C1398 C1399 1.363 . S
C1398 H1401 0.929 . S
C1399 C1398 1.363 . S
C1399 C1405 1.428 1_554 S
H1400 C1396 0.930 . S
H1401 C1398 0.929 . S
S1402 N1403 1.613 . S
S1402 N1404 1.610 . S
N1403 S1402 1.613 . S
N1403 C1406 1.350 . S
N1404 S1402 1.610 . S
N1404 C1405 1.351 . S
C1405 C1399 1.428 1_556 S
C1405 N1404 1.351 . S
C1405 C1406 1.434 . S
C1406 C1397 1.429 1_556 S
C1406 N1403 1.350 . S
C1406 C1405 1.434 . S
C1407 C1408 1.369 . S
C1407 C1409 1.419 . S
C1407 H1411 0.930 . S
C1408 C1407 1.369 . S
C1408 C1417 1.429 . S
C1409 C1407 1.419 . S
C1409 C1410 1.363 . S
C1409 H1412 0.929 . S
C1410 C1409 1.363 . S
C1410 C1416 1.428 . S
H1411 C1407 0.930 . S
H1412 C1409 0.929 . S
S1413 N1414 1.613 . S
S1413 N1415 1.610 . S
N1414 S1413 1.613 . S
N1414 C1417 1.350 . S
N1415 S1413 1.610 . S
N1415 C1416 1.351 . S
C1416 C1410 1.428 . S
C1416 N1415 1.351 . S
C1416 C1417 1.434 . S
C1417 C1408 1.429 . S
C1417 N1414 1.350 . S
C1417 C1416 1.434 . S
C1418 C1419 1.369 . S
C1418 C1420 1.419 . S
C1418 H1422 0.930 . S
C1419 C1418 1.369 . S
C1419 C1428 1.429 . S
C1420 C1418 1.419 . S
C1420 C1421 1.363 . S
C1420 H1423 0.929 . S
C1421 C1420 1.363 . S
C1421 C1427 1.428 . S
H1422 C1418 0.930 . S
H1423 C1420 0.929 . S
S1424 N1425 1.613 . S
S1424 N1426 1.610 . S
N1425 S1424 1.613 . S
N1425 C1428 1.350 . S
N1426 S1424 1.610 . S
N1426 C1427 1.351 . S
C1427 C1421 1.428 . S
C1427 N1426 1.351 . S
C1427 C1428 1.434 . S
C1428 C1419 1.429 . S
C1428 N1425 1.350 . S
C1428 C1427 1.434 . S
C1429 C1430 1.369 . S
C1429 C1431 1.419 . S
C1429 H1433 0.930 . S
C1430 C1429 1.369 . S
C1430 C1439 1.429 . S
C1431 C1429 1.419 . S
C1431 C1432 1.363 . S
C1431 H1434 0.929 . S
C1432 C1431 1.363 . S
C1432 C1438 1.428 . S
H1433 C1429 0.930 . S
H1434 C1431 0.929 . S
S1435 N1436 1.613 . S
S1435 N1437 1.610 . S
N1436 S1435 1.613 . S
N1436 C1439 1.350 . S
N1437 S1435 1.610 . S
N1437 C1438 1.351 . S
C1438 C1432 1.428 . S
C1438 N1437 1.351 . S
C1438 C1439 1.434 . S
C1439 C1430 1.429 . S
C1439 N1436 1.350 . S
C1439 C1438 1.434 . S
C737 C16 1.529 . S
C739 C85 1.528 . S
C748 C62 1.528 . S
C750 C39 1.528 . S
C759 C177 1.529 . S
C761 C108 1.531 . S
C770 C154 1.531 . S
C772 C131 1.530 . S
C781 C200 1.531 . S
C783 C269 1.529 . S
C792 C223 1.532 . S
C794 C246 1.530 . S
C803 C361 1.527 . S
C805 C292 1.529 . S
C814 C338 1.528 . S
C816 C315 1.530 . S
C825 C384 1.529 . S
C827 C453 1.528 . S
C836 C407 1.531 . S
C838 C430 1.530 . S
C847 C476 1.531 . S
C849 C545 1.530 . S
C858 C499 1.529 . S
C860 C522 1.528 . S
C869 C568 1.528 . S
C871 C637 1.528 . S
C880 C614 1.529 . S
C882 C591 1.531 . S
C891 C729 1.531 . S
C893 C660 1.531 . S
C902 C706 1.528 . S
C904 C683 1.528 . S
C913 N12 1.541 . S
C915 N104 1.540 . S
C924 N679 1.543 . S
C926 N35 1.539 . S
C935 N58 1.542 . S
C937 N334 1.539 . S
C946 N541 1.538 . S
C948 N81 1.542 . S
C957 N587 1.538 . S
C959 N127 1.542 . S
C968 N150 1.542 . S
C970 N242 1.538 . S
C979 N173 1.542 . S
C981 N449 1.539 . S
C990 N288 1.538 . S
C992 N196 1.541 . S
C1001 N495 1.540 . S
C1003 N219 1.539 . S
C1012 N265 1.538 . S
C1014 N725 1.542 . S
C1023 N311 1.540 . S
C1025 N403 1.539 . S
C1034 N357 1.539 . S
C1036 N633 1.541 . S
C1045 N472 1.538 . S
C1047 N380 1.540 . S
C1056 N426 1.537 . S
C1058 N702 1.542 . S
C1067 N518 1.537 . S
C1069 N610 1.542 . S
C1078 N656 1.539 . S
C1080 N564 1.541 . S
C1089 C7 1.446 . S
C1091 C444 1.446 . S
C1100 C30 1.445 . S
C1102 C421 1.445 . S
C1111 C398 1.445 . S
C1113 C53 1.445 . S
C1122 C375 1.446 . S
C1124 C76 1.445 . S
C1133 C99 1.445 . S
C1135 C536 1.445 . S
C1144 C122 1.446 . S
C1146 C513 1.446 . S
C1155 C145 1.445 . S
C1157 C490 1.446 . S
C1166 C467 1.445 . S
C1168 C168 1.446 . S
C1177 C191 1.447 . S
C1179 C628 1.446 . S
C1188 C605 1.445 . S
C1190 C214 1.445 . S
C1199 C582 1.446 . S
C1201 C237 1.446 . S
C1210 C260 1.446 . S
C1212 C559 1.446 . S
C1221 C283 1.446 . S
C1223 C720 1.446 . S
C1232 C306 1.445 . S
C1234 C697 1.446 . S
C1243 C674 1.446 . S
C1245 C329 1.446 . S
C1254 C352 1.446 . S
C1256 C651 1.445 . S
C1265 N25 1.454 . S
C1267 N2 1.459 . S
C1276 N48 1.463 . S
C1278 N71 1.457 . S
C1287 N117 1.454 . S
C1289 N94 1.460 . S
C1298 N140 1.456 . S
C1300 N163 1.462 . S
C1309 N209 1.453 . S
C1311 N186 1.463 . S
C1320 N232 1.458 . S
C1322 N255 1.461 . S
C1331 N278 1.454 . S
C1333 N301 1.460 . S
C1342 N324 1.464 . S
C1344 N347 1.454 . S
C1353 N370 1.456 . S
C1355 N393 1.457 . S
C1364 N439 1.464 . S
C1366 N416 1.455 . S
C1375 N462 1.453 . S
C1377 N485 1.463 . S
C1386 N531 1.458 . S
C1388 N508 1.457 . S
C1397 N577 1.453 . S
C1399 N554 1.463 . S
C1408 N600 1.459 . S
C1410 N623 1.461 . S
C1419 N646 1.453 . S
C1421 N669 1.462 . S
C1430 N715 1.457 . S
C1432 N692 1.461 . S
