# Generated by pormake.
# Topology uog, (4)-cn, num edge types: 1
# Building blocks:
#     Node 0, Type 0, BuildingBlock: KOZSID_clean_sbu_0, # of connection points: 4
#     Node 1, Type 0, BuildingBlock: KOZSID_clean_sbu_0, # of connection points: 4
#     Node 2, Type 0, BuildingBlock: KOZSID_clean_sbu_0, # of connection points: 4
#     Node 3, Type 0, BuildingBlock: KOZSID_clean_sbu_0, # of connection points: 4
#     Node 4, Type 0, BuildingBlock: KOZSID_clean_sbu_0, # of connection points: 4
#     Node 5, Type 0, BuildingBlock: KOZSID_clean_sbu_0, # of connection points: 4
#     Edge 6, Type (0, 0), BuildingBlock: OJICUG_clean_linker_0, # of connection points: 2
#     Edge 7, Type (0, 0), BuildingBlock: OJICUG_clean_linker_0, # of connection points: 2
#     Edge 8, Type (0, 0), BuildingBlock: OJICUG_clean_linker_0, # of connection points: 2
#     Edge 9, Type (0, 0), BuildingBlock: OJICUG_clean_linker_0, # of connection points: 2
#     Edge 10, Type (0, 0), BuildingBlock: OJICUG_clean_linker_0, # of connection points: 2
#     Edge 11, Type (0, 0), BuildingBlock: OJICUG_clean_linker_0, # of connection points: 2
#     Edge 12, Type (0, 0), BuildingBlock: OJICUG_clean_linker_0, # of connection points: 2
#     Edge 13, Type (0, 0), BuildingBlock: OJICUG_clean_linker_0, # of connection points: 2
#     Edge 14, Type (0, 0), BuildingBlock: OJICUG_clean_linker_0, # of connection points: 2
#     Edge 15, Type (0, 0), BuildingBlock: OJICUG_clean_linker_0, # of connection points: 2
#     Edge 16, Type (0, 0), BuildingBlock: OJICUG_clean_linker_0, # of connection points: 2
#     Edge 17, Type (0, 0), BuildingBlock: OJICUG_clean_linker_0, # of connection points: 2
# Relax obj value: 0.022
# Max RMSD: 0.265
# Mean RMSD: 0.265
data_MOF--net-uog--node1-KOZSID_clean_sbu_0--edge1-OJICUG_clean_linker_0
_symmetry_space_group_name_H-M    P1
_symmetry_Int_Tables_number       1
_symmetry_cell_setting            triclinic
loop_
_symmetry_equiv_pos_as_xyz
'x, y, z'
_cell_length_a     29.715429
_cell_length_b     29.816342
_cell_length_c     35.590953
_cell_angle_alpha  90.23909
_cell_angle_beta   89.951385
_cell_angle_gamma 120.11784
loop_
_atom_site_label
_atom_site_type_symbol
_atom_site_fract_x
_atom_site_fract_y
_atom_site_fract_z
_atom_type_partial_charge
C0 C 0.57118 0.3354 0.24639 0.0
C1 C 0.52193 0.32491 0.25651 0.0
C2 C 0.48969 0.2983 0.22672 0.0
C3 C 0.52101 0.29407 0.20002 0.0
N4 N 0.57069 0.31576 0.21126 0.0
Co5 Co 0.63088 0.3283 0.17854 0.0
N6 N 0.58806 0.30091 0.13201 0.0
C7 C 0.5359 0.27803 0.13066 0.0
C8 C 0.51642 0.2614 0.09512 0.0
C9 C 0.55898 0.27441 0.07273 0.0
C10 C 0.6024 0.29819 0.09585 0.0
N11 N 0.69362 0.34509 0.1474 0.0
C12 C 0.69949 0.34279 0.10972 0.0
C13 C 0.74935 0.35224 0.10111 0.0
C14 C 0.77525 0.36027 0.13404 0.0
C15 C 0.7402 0.35481 0.16098 0.0
N16 N 0.67408 0.35084 0.22505 0.0
C17 C 0.71859 0.35009 0.22986 0.0
C18 C 0.73026 0.34674 0.26664 0.0
C19 C 0.69049 0.34561 0.28649 0.0
C20 C 0.65865 0.35044 0.2607 0.0
N21 N 0.6173 0.25553 0.18713 0.0
C22 C 0.58185 0.14624 0.19169 0.0
C23 C 0.61192 0.17696 0.16147 0.0
C24 C 0.62846 0.23019 0.15958 0.0
C25 C 0.57261 0.17304 0.22077 0.0
C26 C 0.59073 0.22707 0.2181 0.0
N27 N 0.63871 0.39925 0.16887 0.0
C28 C 0.62734 0.468 0.19712 0.0
C29 C 0.60064 0.47148 0.16541 0.0
C30 C 0.60032 0.44243 0.13394 0.0
C31 C 0.62056 0.40848 0.13592 0.0
C32 C 0.64692 0.43311 0.19776 0.0
H33 H 0.61889 0.38835 0.11052 0.0
H34 H 0.66709 0.4324 0.22226 0.0
H35 H 0.64892 0.24979 0.13468 0.0
H36 H 0.58161 0.24517 0.24084 0.0
C37 C 0.50749 0.27657 0.16277 0.0
C38 C 0.61769 0.36063 0.27111 0.0
C39 C 0.65686 0.32144 0.08213 0.0
C40 C 0.74843 0.35322 0.19916 0.0
H41 H 0.51067 0.33534 0.28258 0.0
H42 H 0.44865 0.28536 0.2243 0.0
H43 H 0.47618 0.24317 0.08626 0.0
H44 H 0.55819 0.26828 0.04271 0.0
H45 H 0.76457 0.34895 0.07431 0.0
H46 H 0.81382 0.36575 0.13802 0.0
H47 H 0.7629 0.34419 0.27754 0.0
H48 H 0.68363 0.33988 0.31622 0.0
H49 H 0.62262 0.16017 0.13861 0.0
H50 H 0.55 0.15236 0.24512 0.0
H51 H 0.6329 0.49164 0.22174 0.0
H52 H 0.58263 0.44374 0.10777 0.0
C53 C 0.29121 0.56704 0.57054 0.0
C54 C 0.25451 0.52024 0.58608 0.0
C55 C 0.24581 0.4824 0.56018 0.0
C56 C 0.27713 0.508 0.53007 0.0
N57 N 0.30558 0.55953 0.53546 0.0
Co58 Co 0.34761 0.61141 0.49588 0.0
N59 N 0.33075 0.55797 0.45581 0.0
C60 C 0.30279 0.50642 0.46094 0.0
C61 C 0.30447 0.47876 0.43053 0.0
C62 C 0.33598 0.51517 0.40468 0.0
C63 C 0.35141 0.5633 0.42054 0.0
N64 N 0.38522 0.66511 0.45668 0.0
C65 C 0.3883 0.65977 0.41917 0.0
C66 C 0.40777 0.70714 0.40099 0.0
C67 C 0.42107 0.74387 0.42829 0.0
C68 C 0.40738 0.71678 0.46126 0.0
N69 N 0.37014 0.66573 0.53595 0.0
C70 C 0.40554 0.71641 0.53221 0.0
C71 C 0.41978 0.74325 0.56548 0.0
C72 C 0.39073 0.70761 0.59208 0.0
C73 C 0.35931 0.66126 0.57319 0.0
N74 N 0.41045 0.6037 0.50681 0.0
C75 C 0.47963 0.56207 0.51004 0.0
C76 C 0.48274 0.59588 0.48129 0.0
C77 C 0.44887 0.61643 0.48046 0.0
C78 C 0.44385 0.55396 0.53898 0.0
C79 C 0.41077 0.57541 0.53715 0.0
N80 N 0.2821 0.61383 0.48431 0.0
C81 C 0.20651 0.61684 0.50799 0.0
C82 C 0.17478 0.5867 0.47788 0.0
C83 C 0.20032 0.57547 0.44918 0.0
C84 C 0.25337 0.58993 0.45259 0.0
C85 C 0.25937 0.63033 0.51038 0.0
H86 H 0.26995 0.57967 0.42959 0.0
H87 H 0.2808 0.65304 0.53418 0.0
H88 H 0.45344 0.64132 0.45738 0.0
H89 H 0.3842 0.56697 0.56014 0.0
C90 C 0.27843 0.48604 0.49546 0.0
C91 C 0.31278 0.61799 0.58985 0.0
C92 C 0.38451 0.61356 0.40143 0.0
C93 C 0.419 0.73871 0.49689 0.0
H94 H 0.23553 0.51398 0.61303 0.0
H95 H 0.21861 0.44125 0.56258 0.0
H96 H 0.28622 0.43706 0.42785 0.0
H97 H 0.3467 0.50698 0.37757 0.0
H98 H 0.41527 0.71496 0.37133 0.0
H99 H 0.44032 0.78547 0.42461 0.0
H100 H 0.44594 0.78437 0.56967 0.0
H101 H 0.38987 0.71584 0.62158 0.0
H102 H 0.51102 0.60642 0.45899 0.0
H103 H 0.43957 0.52942 0.56259 0.0
H104 H 0.19069 0.62973 0.53018 0.0
H105 H 0.17919 0.55362 0.42459 0.0
C106 C 0.75051 0.28894 0.91254 0.0
C107 C 0.75619 0.25146 0.93139 0.0
C108 C 0.76919 0.22624 0.90489 0.0
C109 C 0.77102 0.24969 0.87132 0.0
N110 N 0.7611 0.28888 0.87513 0.0
Co111 Co 0.75626 0.32967 0.83244 0.0
N112 N 0.78852 0.30388 0.79547 0.0
C113 C 0.79639 0.26379 0.80105 0.0
C114 C 0.8162 0.25238 0.76984 0.0
C115 C 0.82068 0.28734 0.74285 0.0
C116 C 0.80348 0.31833 0.7591 0.0
N117 N 0.74934 0.37013 0.79051 0.0
C118 C 0.77561 0.3857 0.75776 0.0
C119 C 0.76708 0.42236 0.73997 0.0
C120 C 0.73193 0.42757 0.76109 0.0
C121 C 0.72225 0.39532 0.79097 0.0
N122 N 0.72369 0.35689 0.8686 0.0
C123 C 0.69642 0.38022 0.85905 0.0
C124 C 0.67211 0.38904 0.88826 0.0
C125 C 0.68371 0.36952 0.91861 0.0
C126 C 0.71559 0.35052 0.90622 0.0
N127 N 0.82929 0.38871 0.8434 0.0
C128 C 0.93937 0.46331 0.84425 0.0
C129 C 0.90204 0.47665 0.83263 0.0
C130 C 0.84764 0.43941 0.83307 0.0
C131 C 0.91937 0.41231 0.85672 0.0
C132 C 0.86562 0.37634 0.85572 0.0
N133 N 0.68609 0.26701 0.82112 0.0
C134 C 0.61431 0.18759 0.84707 0.0
C135 C 0.60904 0.15856 0.81425 0.0
C136 C 0.63977 0.18784 0.78348 0.0
C137 C 0.67665 0.24155 0.78723 0.0
C138 C 0.65234 0.24069 0.8499 0.0
H139 H 0.69996 0.26135 0.76306 0.0
H140 H 0.65629 0.25897 0.87667 0.0
H141 H 0.8209 0.45162 0.82383 0.0
H142 H 0.85469 0.33753 0.86332 0.0
C143 C 0.78647 0.23965 0.83636 0.0
C144 C 0.73102 0.32089 0.93044 0.0
C145 C 0.79895 0.35901 0.73859 0.0
C146 C 0.69661 0.39639 0.82285 0.0
H147 H 0.75047 0.24254 0.96105 0.0
H148 H 0.77681 0.19483 0.90964 0.0
H149 H 0.82626 0.22232 0.76699 0.0
H150 H 0.83441 0.2895 0.71437 0.0
H151 H 0.78281 0.44168 0.71351 0.0
H152 H 0.71702 0.45353 0.75614 0.0
H153 H 0.6481 0.40685 0.88746 0.0
H154 H 0.6678 0.36738 0.94629 0.0
H155 H 0.91469 0.51565 0.82313 0.0
H156 H 0.9455 0.39899 0.86568 0.0
H157 H 0.59029 0.16948 0.87141 0.0
H158 H 0.63754 0.1694 0.7568 0.0
C159 C 0.5172 0.73313 0.24002 0.0
C160 C 0.56722 0.74696 0.25097 0.0
C161 C 0.59972 0.77702 0.22252 0.0
C162 C 0.56787 0.77968 0.19563 0.0
N163 N 0.51753 0.75369 0.20552 0.0
Co164 Co 0.45762 0.73818 0.17179 0.0
N165 N 0.50181 0.76902 0.1263 0.0
C166 C 0.55413 0.79604 0.12634 0.0
C167 C 0.57458 0.81483 0.09144 0.0
C168 C 0.53248 0.79897 0.06797 0.0
C169 C 0.48837 0.77134 0.08984 0.0
N170 N 0.39548 0.71864 0.13904 0.0
C171 C 0.39088 0.72095 0.1012 0.0
C172 C 0.34012 0.70696 0.09118 0.0
C173 C 0.3123 0.69638 0.12346 0.0
C174 C 0.34715 0.70459 0.15135 0.0
N175 N 0.4127 0.71222 0.21729 0.0
C176 C 0.36499 0.70639 0.22088 0.0
C177 C 0.34719 0.69924 0.25711 0.0
C178 C 0.3862 0.70054 0.27801 0.0
C179 C 0.42509 0.70759 0.25296 0.0
N180 N 0.46638 0.80886 0.18156 0.0
C181 C 0.49834 0.9171 0.18863 0.0
C182 C 0.47103 0.8873 0.15699 0.0
C183 C 0.45602 0.83443 0.15394 0.0
C184 C 0.5061 0.88963 0.21777 0.0
C185 C 0.48962 0.83613 0.21386 0.0
N186 N 0.45467 0.66923 0.16173 0.0
C187 C 0.46057 0.59745 0.19008 0.0
C188 C 0.49355 0.5974 0.16142 0.0
C189 C 0.50079 0.63033 0.13095 0.0
C190 C 0.48036 0.66414 0.13123 0.0
C191 C 0.44086 0.63229 0.18919 0.0
H192 H 0.488 0.68731 0.10659 0.0
H193 H 0.41566 0.6299 0.21157 0.0
H194 H 0.43755 0.81525 0.1282 0.0
H195 H 0.49751 0.81751 0.23677 0.0
C196 C 0.58214 0.79917 0.15902 0.0
C197 C 0.4698 0.70264 0.26314 0.0
C198 C 0.43451 0.74553 0.07471 0.0
C199 C 0.33609 0.70236 0.18935 0.0
H200 H 0.57901 0.73613 0.27649 0.0
H201 H 0.64138 0.79295 0.22092 0.0
H202 H 0.61526 0.83649 0.08372 0.0
H203 H 0.53407 0.80613 0.03809 0.0
H204 H 0.32509 0.70819 0.0638 0.0
H205 H 0.27209 0.68649 0.12637 0.0
H206 H 0.30973 0.69222 0.26696 0.0
H207 H 0.38527 0.69475 0.30802 0.0
H208 H 0.46146 0.90458 0.13394 0.0
H209 H 0.52645 0.90946 0.24316 0.0
H210 H 0.45006 0.57104 0.21349 0.0
H211 H 0.52409 0.63216 0.10705 0.0
C212 C 0.79351 0.46708 0.5761 0.0
C213 C 0.81782 0.5094 0.60018 0.0
C214 C 0.82958 0.55264 0.57932 0.0
C215 C 0.81173 0.53466 0.54367 0.0
N216 N 0.78909 0.48276 0.54091 0.0
Co217 Co 0.76094 0.44215 0.49367 0.0
N218 N 0.77052 0.50294 0.46358 0.0
C219 C 0.79249 0.55201 0.47598 0.0
C220 C 0.78561 0.58364 0.45135 0.0
C221 C 0.75688 0.55222 0.4218 0.0
C222 C 0.74784 0.5031 0.42999 0.0
N223 N 0.7381 0.4016 0.44612 0.0
C224 C 0.73374 0.41737 0.41163 0.0
C225 C 0.73725 0.38712 0.38371 0.0
C226 C 0.74019 0.34806 0.40125 0.0
C227 C 0.74033 0.35851 0.43884 0.0
N228 N 0.7466 0.37865 0.5223 0.0
C229 C 0.73751 0.33335 0.50678 0.0
C230 C 0.73236 0.29703 0.53227 0.0
C231 C 0.74014 0.32085 0.56619 0.0
C232 C 0.74953 0.37095 0.55959 0.0
N233 N 0.68915 0.43136 0.50559 0.0
C234 C 0.6114 0.46217 0.50905 0.0
C235 C 0.61381 0.43239 0.47893 0.0
C236 C 0.65152 0.41626 0.47842 0.0
C237 C 0.64472 0.46959 0.5394 0.0
C238 C 0.68165 0.45308 0.53752 0.0
N239 N 0.83438 0.45842 0.48299 0.0
C240 C 0.91508 0.46638 0.5067 0.0
C241 C 0.94472 0.4989 0.47715 0.0
C242 C 0.91651 0.50795 0.44916 0.0
C243 C 0.86191 0.4874 0.4525 0.0
C244 C 0.86118 0.44709 0.50913 0.0
H245 H 0.84251 0.49657 0.4308 0.0
H246 H 0.84227 0.42447 0.53344 0.0
H247 H 0.6512 0.39309 0.4553 0.0
H248 H 0.70519 0.46058 0.56208 0.0
C249 C 0.81172 0.56422 0.51292 0.0
C250 C 0.77281 0.41247 0.58802 0.0
C251 C 0.72081 0.45734 0.40481 0.0
C252 C 0.73875 0.32738 0.4681 0.0
H253 H 0.82542 0.50901 0.62987 0.0
H254 H 0.84791 0.59232 0.58923 0.0
H255 H 0.79792 0.62423 0.45517 0.0
H256 H 0.74394 0.56388 0.39722 0.0
H257 H 0.73923 0.39443 0.35404 0.0
H258 H 0.74228 0.31626 0.38827 0.0
H259 H 0.72707 0.25895 0.52671 0.0
H260 H 0.74353 0.30413 0.59214 0.0
H261 H 0.5871 0.42184 0.45553 0.0
H262 H 0.64442 0.49032 0.56432 0.0
H263 H 0.93334 0.45592 0.52859 0.0
H264 H 0.93654 0.53228 0.42533 0.0
C265 C 0.33757 0.77224 0.90442 0.0
C266 C 0.31555 0.79556 0.92537 0.0
C267 C 0.28739 0.80734 0.90073 0.0
C268 C 0.29354 0.79052 0.86609 0.0
N269 N 0.32358 0.76868 0.86734 0.0
Co270 Co 0.34419 0.74217 0.82266 0.0
N271 N 0.29966 0.75427 0.78645 0.0
C272 C 0.27046 0.77551 0.79527 0.0
C273 C 0.23889 0.77308 0.76611 0.0
C274 C 0.24851 0.74832 0.73711 0.0
C275 C 0.28569 0.73718 0.75006 0.0
N276 N 0.36923 0.71946 0.77816 0.0
C277 C 0.35672 0.71654 0.74132 0.0
C278 C 0.39174 0.71124 0.71853 0.0
C279 C 0.42703 0.70947 0.74182 0.0
C280 C 0.41188 0.71456 0.77716 0.0
N281 N 0.38763 0.72665 0.85767 0.0
C282 C 0.42409 0.71464 0.84733 0.0
C283 C 0.45062 0.70903 0.87651 0.0
C284 C 0.43076 0.71895 0.90768 0.0
C285 C 0.39257 0.72977 0.89568 0.0
N286 N 0.28072 0.67066 0.83098 0.0
C287 C 0.17068 0.59757 0.83663 0.0
C288 C 0.19843 0.60481 0.80298 0.0
C289 C 0.25294 0.63956 0.80124 0.0
C290 C 0.2013 0.62301 0.8684 0.0
C291 C 0.25551 0.65818 0.8651 0.0
N292 N 0.40362 0.81556 0.81527 0.0
C293 C 0.47166 0.89646 0.84303 0.0
C294 C 0.47373 0.92634 0.81175 0.0
C295 C 0.44149 0.89775 0.7812 0.0
C296 C 0.40772 0.84316 0.78333 0.0
C297 C 0.4368 0.84244 0.84435 0.0
H298 H 0.38367 0.82389 0.75924 0.0
H299 H 0.43609 0.82334 0.86994 0.0
H300 H 0.27183 0.64205 0.77527 0.0
H301 H 0.27597 0.67666 0.89044 0.0
C302 C 0.27012 0.79209 0.83221 0.0
C303 C 0.36854 0.75065 0.92095 0.0
C304 C 0.30871 0.71197 0.72712 0.0
C305 C 0.43501 0.71188 0.80996 0.0
H306 H 0.31884 0.80251 0.95538 0.0
H307 H 0.2645 0.82531 0.90744 0.0
H308 H 0.21088 0.78617 0.76626 0.0
H309 H 0.23021 0.73935 0.70972 0.0
H310 H 0.39071 0.70729 0.6883 0.0
H311 H 0.45928 0.70417 0.73401 0.0
H312 H 0.48237 0.70109 0.87516 0.0
H313 H 0.44565 0.72138 0.93578 0.0
H314 H 0.17821 0.58384 0.77782 0.0
H315 H 0.18331 0.61775 0.89571 0.0
H316 H 0.49644 0.91434 0.86717 0.0
H317 H 0.44069 0.91723 0.75588 0.0
C318 C 0.54839 0.05802 0.22519 0.0
C319 C 0.55989 0.08733 0.19175 0.0
H320 H 0.5201 0.98338 0.25097 0.0
C321 C 0.55011 0.05929 0.15769 0.0
H322 H 0.55525 0.07706 0.25223 0.0
C323 C 0.53094 1.00536 0.15696 0.0
C324 C 0.51932 0.97583 0.19023 0.0
H325 H 0.55673 0.07873 0.13097 0.0
H326 H 0.52598 0.98717 0.12975 0.0
C327 C 0.52857 1.0036 0.22445 0.0
C328 C 0.53069 0.52486 0.47584 0.0
C329 C 0.5129 0.53578 0.50974 0.0
H330 H 0.57446 0.49426 0.44871 0.0
C331 C 0.52685 0.52038 0.54324 0.0
H332 H 0.52069 0.5347 0.4491 0.0
C333 C 0.5572 0.49591 0.54293 0.0
C334 C 0.57563 0.48564 0.50911 0.0
H335 H 0.51504 0.52784 0.57021 0.0
H336 H 0.5659 0.48484 0.56966 0.0
C337 C 0.56126 0.50049 0.47554 0.0
C338 C 1.03116 0.50117 0.87211 0.0
C339 C 0.99839 0.50038 0.84296 0.0
H340 H 0.10893 0.53102 0.89334 0.0
C341 C 1.02332 0.53262 0.81177 0.0
H342 H 1.01427 0.47739 0.89677 0.0
C343 C 0.07845 0.56324 0.80953 0.0
C344 C 0.11119 0.56384 0.8387 0.0
H345 H 1.00022 0.5332 0.78847 0.0
H346 H 0.09547 0.58701 0.78488 0.0
C347 C 0.08606 0.53242 0.8702 0.0
C348 C 0.08749 0.55539 0.4431 0.0
C349 C 0.11605 0.56627 0.47707 0.0
H350 H 1.01299 0.52616 0.41607 0.0
C351 C 0.0872 0.55575 0.51067 0.0
H352 H 0.10731 0.5632 0.41636 0.0
C353 C 1.03279 0.53505 0.51045 0.0
C354 C 1.004 0.52323 0.47661 0.0
H355 H 0.10637 0.56247 0.53764 0.0
H356 H 1.01337 0.52854 0.53728 0.0
C357 C 1.03278 0.53445 0.44289 0.0
C358 C 0.5254 1.01465 0.84569 0.0
C359 C 0.50816 0.986 0.81175 0.0
H360 H 0.5701 0.08757 0.87346 0.0
C361 C 0.52422 1.01562 0.7783 0.0
H362 H 0.51395 0.9953 0.87252 0.0
C363 C 0.55575 0.07059 0.77889 0.0
C364 C 0.57343 0.09905 0.81296 0.0
H365 H 0.51303 0.99658 0.75122 0.0
H366 H 0.56586 0.09049 0.75223 0.0
C367 C 0.55744 0.06922 0.84627 0.0
C368 C 0.53064 0.54698 0.19696 0.0
C369 C 0.51997 0.56408 0.16276 0.0
H370 H 0.5627 0.5054 0.22501 0.0
C371 C 0.53683 0.55027 0.1297 0.0
H372 H 0.51948 0.55656 0.22342 0.0
C373 C 0.56325 0.52182 0.13069 0.0
C374 C 0.57385 0.5045 0.16476 0.0
H375 H 0.52942 0.56093 0.10239 0.0
H376 H 0.57571 0.51403 0.10414 0.0
C377 C 0.55668 0.51788 0.19793 0.0
C378 C 0.67587 0.27179 0.98703 0.0
C379 C 0.71651 0.31768 0.97134 0.0
H380 H 0.62508 0.23648 0.03454 0.0
C381 C 0.73455 0.36419 0.99164 0.0
H382 H 0.65986 0.23556 0.97165 0.0
C383 C 0.71069 0.36556 0.02518 0.0
C384 C 0.6713 0.31976 0.04169 0.0
H385 H 0.76486 0.40038 0.98002 0.0
H386 H 0.72506 0.40245 0.03944 0.0
C387 C 0.65442 0.27264 0.0223 0.0
C388 C 0.4152 0.619 0.29761 0.0
C389 C 0.4622 0.66728 0.2959 0.0
H390 H 0.35153 0.5659 0.33203 0.0
C391 C 0.49002 0.68698 0.32953 0.0
H392 H 0.39252 0.6021 0.2724 0.0
C393 C 0.46792 0.66298 0.36407 0.0
C394 C 0.41596 0.62128 0.36604 0.0
H395 H 0.52579 0.72399 0.3299 0.0
H396 H 0.48862 0.68179 0.38968 0.0
C397 C 0.39141 0.59747 0.33217 0.0
C398 C 0.83929 0.39974 0.67661 0.0
C399 C 0.79666 0.36095 0.69661 0.0
H400 H 0.86551 0.44657 0.62658 0.0
C401 C 0.74694 0.33913 0.68017 0.0
H402 H 0.87774 0.41864 0.68909 0.0
C403 C 0.73933 0.35882 0.64667 0.0
C404 C 0.78161 0.398 0.62674 0.0
H405 H 0.71309 0.3106 0.69543 0.0
H406 H 0.70012 0.3427 0.63584 0.0
C407 C 0.83196 0.41731 0.64165 0.0
C408 C 0.36627 0.70378 0.97992 0.0
C409 C 0.37966 0.75107 0.96234 0.0
H410 H 0.37691 0.66538 0.02701 0.0
C411 C 0.41383 0.79739 0.98144 0.0
H412 H 0.34112 0.66744 0.96564 0.0
C413 C 0.43386 0.79619 0.01722 0.0
C414 C 0.42156 0.74867 0.0341 0.0
H415 H 0.42611 0.83444 0.96827 0.0
H416 H 0.45852 0.83233 0.03184 0.0
C417 C 0.38797 0.70263 0.0146 0.0
C418 C 0.70195 0.47074 0.33783 0.0
C419 C 0.68306 0.44731 0.3728 0.0
H420 H 0.69536 0.46294 0.27831 0.0
C421 C 0.63356 0.40144 0.37309 0.0
H422 H 0.74025 0.50486 0.33594 0.0
C423 C 0.60716 0.37671 0.33958 0.0
C424 C 0.62924 0.3969 0.30443 0.0
H425 H 0.61747 0.38104 0.399 0.0
H426 H 0.57273 0.33866 0.34129 0.0
C427 C 0.67559 0.44603 0.30433 0.0
C428 C 0.28251 0.62838 0.69244 0.0
C429 C 0.28516 0.67722 0.69295 0.0
H430 H 0.2916 0.57248 0.66011 0.0
C431 C 0.28233 0.69784 0.65822 0.0
H432 H 0.28504 0.61115 0.71847 0.0
C433 C 0.28318 0.67358 0.62427 0.0
C434 C 0.28947 0.62947 0.62404 0.0
H435 H 0.28508 0.73542 0.65708 0.0
H436 H 0.28526 0.693 0.59813 0.0
C437 C 0.28605 0.60563 0.65864 0.0
loop_
_geom_bond_atom_site_label_1
_geom_bond_atom_site_label_2
_geom_bond_distance
_geom_bond_site_symmetry_2
_ccdc_geom_bond_type
C0 C1 1.443 . S
C0 N4 1.376 . S
C0 C38 1.389 . S
C1 C0 1.443 . S
C1 C2 1.340 . S
C1 H41 0.951 . S
C2 C1 1.340 . S
C2 C3 1.439 . S
C2 H42 0.950 . S
C3 C2 1.439 . S
C3 N4 1.374 . S
C3 C37 1.395 . S
N4 C0 1.376 . S
N4 C3 1.374 . S
N4 Co5 2.008 . S
Co5 N4 2.008 . S
Co5 N6 1.995 . S
Co5 N11 2.008 . S
Co5 N16 1.995 . S
Co5 N21 2.282 . S
Co5 N27 2.282 . S
N6 Co5 1.995 . S
N6 C7 1.376 . S
N6 C10 1.383 . S
C7 N6 1.376 . S
C7 C8 1.446 . S
C7 C37 1.391 . S
C8 C7 1.446 . S
C8 C9 1.339 . S
C8 H43 0.949 . S
C9 C8 1.339 . S
C9 C10 1.439 . S
C9 H44 0.950 . S
C10 N6 1.383 . S
C10 C9 1.439 . S
C10 C39 1.392 . S
N11 Co5 2.008 . S
N11 C12 1.376 . S
N11 C15 1.374 . S
C12 N11 1.376 . S
C12 C13 1.443 . S
C12 C39 1.389 . S
C13 C12 1.443 . S
C13 C14 1.340 . S
C13 H45 0.951 . S
C14 C13 1.340 . S
C14 C15 1.439 . S
C14 H46 0.950 . S
C15 N11 1.374 . S
C15 C14 1.439 . S
C15 C40 1.395 . S
N16 Co5 1.995 . S
N16 C17 1.376 . S
N16 C20 1.383 . S
C17 N16 1.376 . S
C17 C18 1.446 . S
C17 C40 1.391 . S
C18 C17 1.446 . S
C18 C19 1.339 . S
C18 H47 0.949 . S
C19 C18 1.339 . S
C19 C20 1.439 . S
C19 H48 0.950 . S
C20 N16 1.383 . S
C20 C19 1.439 . S
C20 C38 1.392 . S
N21 Co5 2.282 . S
N21 C24 1.332 . S
N21 C26 1.332 . S
C22 C23 1.386 . S
C22 C25 1.388 . S
C23 C22 1.386 . S
C23 C24 1.382 . S
C23 H49 0.950 . S
C24 N21 1.332 . S
C24 C23 1.382 . S
C24 H35 0.952 . S
C25 C22 1.388 . S
C25 C26 1.382 . S
C25 H50 0.950 . S
C26 N21 1.332 . S
C26 C25 1.382 . S
C26 H36 0.948 . S
N27 Co5 2.282 . S
N27 C31 1.332 . S
N27 C32 1.332 . S
C28 C29 1.388 . S
C28 C32 1.382 . S
C28 H51 0.950 . S
C29 C28 1.388 . S
C29 C30 1.386 . S
C30 C29 1.386 . S
C30 C31 1.382 . S
C30 H52 0.950 . S
C31 N27 1.332 . S
C31 C30 1.382 . S
C31 H33 0.952 . S
C32 N27 1.332 . S
C32 C28 1.382 . S
C32 H34 0.948 . S
H33 C31 0.952 . S
H34 C32 0.948 . S
H35 C24 0.952 . S
H36 C26 0.948 . S
C37 C3 1.395 . S
C37 C7 1.391 . S
C38 C0 1.389 . S
C38 C20 1.392 . S
C39 C10 1.392 . S
C39 C12 1.389 . S
C40 C15 1.395 . S
C40 C17 1.391 . S
H41 C1 0.951 . S
H42 C2 0.950 . S
H43 C8 0.949 . S
H44 C9 0.950 . S
H45 C13 0.951 . S
H46 C14 0.950 . S
H47 C18 0.949 . S
H48 C19 0.950 . S
H49 C23 0.950 . S
H50 C25 0.950 . S
H51 C28 0.950 . S
H52 C30 0.950 . S
C53 C54 1.443 . S
C53 N57 1.376 . S
C53 C91 1.389 . S
C54 C53 1.443 . S
C54 C55 1.340 . S
C54 H94 0.951 . S
C55 C54 1.340 . S
C55 C56 1.439 . S
C55 H95 0.950 . S
C56 C55 1.439 . S
C56 N57 1.374 . S
C56 C90 1.395 . S
N57 C53 1.376 . S
N57 C56 1.374 . S
N57 Co58 2.008 . S
Co58 N57 2.008 . S
Co58 N59 1.995 . S
Co58 N64 2.008 . S
Co58 N69 1.995 . S
Co58 N74 2.282 . S
Co58 N80 2.282 . S
N59 Co58 1.995 . S
N59 C60 1.376 . S
N59 C63 1.383 . S
C60 N59 1.376 . S
C60 C61 1.446 . S
C60 C90 1.391 . S
C61 C60 1.446 . S
C61 C62 1.339 . S
C61 H96 0.949 . S
C62 C61 1.339 . S
C62 C63 1.439 . S
C62 H97 0.950 . S
C63 N59 1.383 . S
C63 C62 1.439 . S
C63 C92 1.392 . S
N64 Co58 2.008 . S
N64 C65 1.376 . S
N64 C68 1.374 . S
C65 N64 1.376 . S
C65 C66 1.443 . S
C65 C92 1.389 . S
C66 C65 1.443 . S
C66 C67 1.340 . S
C66 H98 0.951 . S
C67 C66 1.340 . S
C67 C68 1.439 . S
C67 H99 0.950 . S
C68 N64 1.374 . S
C68 C67 1.439 . S
C68 C93 1.395 . S
N69 Co58 1.995 . S
N69 C70 1.376 . S
N69 C73 1.383 . S
C70 N69 1.376 . S
C70 C71 1.446 . S
C70 C93 1.391 . S
C71 C70 1.446 . S
C71 C72 1.339 . S
C71 H100 0.949 . S
C72 C71 1.339 . S
C72 C73 1.439 . S
C72 H101 0.950 . S
C73 N69 1.383 . S
C73 C72 1.439 . S
C73 C91 1.392 . S
N74 Co58 2.282 . S
N74 C77 1.332 . S
N74 C79 1.332 . S
C75 C76 1.386 . S
C75 C78 1.388 . S
C76 C75 1.386 . S
C76 C77 1.382 . S
C76 H102 0.950 . S
C77 N74 1.332 . S
C77 C76 1.382 . S
C77 H88 0.952 . S
C78 C75 1.388 . S
C78 C79 1.382 . S
C78 H103 0.950 . S
C79 N74 1.332 . S
C79 C78 1.382 . S
C79 H89 0.948 . S
N80 Co58 2.282 . S
N80 C84 1.332 . S
N80 C85 1.332 . S
C81 C82 1.388 . S
C81 C85 1.382 . S
C81 H104 0.950 . S
C82 C81 1.388 . S
C82 C83 1.386 . S
C83 C82 1.386 . S
C83 C84 1.382 . S
C83 H105 0.950 . S
C84 N80 1.332 . S
C84 C83 1.382 . S
C84 H86 0.952 . S
C85 N80 1.332 . S
C85 C81 1.382 . S
C85 H87 0.948 . S
H86 C84 0.952 . S
H87 C85 0.948 . S
H88 C77 0.952 . S
H89 C79 0.948 . S
C90 C56 1.395 . S
C90 C60 1.391 . S
C91 C53 1.389 . S
C91 C73 1.392 . S
C92 C63 1.392 . S
C92 C65 1.389 . S
C93 C68 1.395 . S
C93 C70 1.391 . S
H94 C54 0.951 . S
H95 C55 0.950 . S
H96 C61 0.949 . S
H97 C62 0.950 . S
H98 C66 0.951 . S
H99 C67 0.950 . S
H100 C71 0.949 . S
H101 C72 0.950 . S
H102 C76 0.950 . S
H103 C78 0.950 . S
H104 C81 0.950 . S
H105 C83 0.950 . S
C106 C107 1.443 . S
C106 N110 1.376 . S
C106 C144 1.389 . S
C107 C106 1.443 . S
C107 C108 1.340 . S
C107 H147 0.951 . S
C108 C107 1.340 . S
C108 C109 1.439 . S
C108 H148 0.950 . S
C109 C108 1.439 . S
C109 N110 1.374 . S
C109 C143 1.395 . S
N110 C106 1.376 . S
N110 C109 1.374 . S
N110 Co111 2.008 . S
Co111 N110 2.008 . S
Co111 N112 1.995 . S
Co111 N117 2.008 . S
Co111 N122 1.995 . S
Co111 N127 2.282 . S
Co111 N133 2.282 . S
N112 Co111 1.995 . S
N112 C113 1.376 . S
N112 C116 1.383 . S
C113 N112 1.376 . S
C113 C114 1.446 . S
C113 C143 1.391 . S
C114 C113 1.446 . S
C114 C115 1.339 . S
C114 H149 0.949 . S
C115 C114 1.339 . S
C115 C116 1.439 . S
C115 H150 0.950 . S
C116 N112 1.383 . S
C116 C115 1.439 . S
C116 C145 1.392 . S
N117 Co111 2.008 . S
N117 C118 1.376 . S
N117 C121 1.374 . S
C118 N117 1.376 . S
C118 C119 1.443 . S
C118 C145 1.389 . S
C119 C118 1.443 . S
C119 C120 1.340 . S
C119 H151 0.951 . S
C120 C119 1.340 . S
C120 C121 1.439 . S
C120 H152 0.950 . S
C121 N117 1.374 . S
C121 C120 1.439 . S
C121 C146 1.395 . S
N122 Co111 1.995 . S
N122 C123 1.376 . S
N122 C126 1.383 . S
C123 N122 1.376 . S
C123 C124 1.446 . S
C123 C146 1.391 . S
C124 C123 1.446 . S
C124 C125 1.339 . S
C124 H153 0.949 . S
C125 C124 1.339 . S
C125 C126 1.439 . S
C125 H154 0.950 . S
C126 N122 1.383 . S
C126 C125 1.439 . S
C126 C144 1.392 . S
N127 Co111 2.282 . S
N127 C130 1.332 . S
N127 C132 1.332 . S
C128 C129 1.386 . S
C128 C131 1.388 . S
C129 C128 1.386 . S
C129 C130 1.382 . S
C129 H155 0.950 . S
C130 N127 1.332 . S
C130 C129 1.382 . S
C130 H141 0.952 . S
C131 C128 1.388 . S
C131 C132 1.382 . S
C131 H156 0.950 . S
C132 N127 1.332 . S
C132 C131 1.382 . S
C132 H142 0.948 . S
N133 Co111 2.282 . S
N133 C137 1.332 . S
N133 C138 1.332 . S
C134 C135 1.388 . S
C134 C138 1.382 . S
C134 H157 0.950 . S
C135 C134 1.388 . S
C135 C136 1.386 . S
C136 C135 1.386 . S
C136 C137 1.382 . S
C136 H158 0.950 . S
C137 N133 1.332 . S
C137 C136 1.382 . S
C137 H139 0.952 . S
C138 N133 1.332 . S
C138 C134 1.382 . S
C138 H140 0.948 . S
H139 C137 0.952 . S
H140 C138 0.948 . S
H141 C130 0.952 . S
H142 C132 0.948 . S
C143 C109 1.395 . S
C143 C113 1.391 . S
C144 C106 1.389 . S
C144 C126 1.392 . S
C145 C116 1.392 . S
C145 C118 1.389 . S
C146 C121 1.395 . S
C146 C123 1.391 . S
H147 C107 0.951 . S
H148 C108 0.950 . S
H149 C114 0.949 . S
H150 C115 0.950 . S
H151 C119 0.951 . S
H152 C120 0.950 . S
H153 C124 0.949 . S
H154 C125 0.950 . S
H155 C129 0.950 . S
H156 C131 0.950 . S
H157 C134 0.950 . S
H158 C136 0.950 . S
C159 C160 1.443 . S
C159 N163 1.376 . S
C159 C197 1.389 . S
C160 C159 1.443 . S
C160 C161 1.340 . S
C160 H200 0.951 . S
C161 C160 1.340 . S
C161 C162 1.439 . S
C161 H201 0.950 . S
C162 C161 1.439 . S
C162 N163 1.374 . S
C162 C196 1.395 . S
N163 C159 1.376 . S
N163 C162 1.374 . S
N163 Co164 2.008 . S
Co164 N163 2.008 . S
Co164 N165 1.995 . S
Co164 N170 2.008 . S
Co164 N175 1.995 . S
Co164 N180 2.282 . S
Co164 N186 2.282 . S
N165 Co164 1.995 . S
N165 C166 1.376 . S
N165 C169 1.383 . S
C166 N165 1.376 . S
C166 C167 1.446 . S
C166 C196 1.391 . S
C167 C166 1.446 . S
C167 C168 1.339 . S
C167 H202 0.949 . S
C168 C167 1.339 . S
C168 C169 1.439 . S
C168 H203 0.950 . S
C169 N165 1.383 . S
C169 C168 1.439 . S
C169 C198 1.392 . S
N170 Co164 2.008 . S
N170 C171 1.376 . S
N170 C174 1.374 . S
C171 N170 1.376 . S
C171 C172 1.443 . S
C171 C198 1.389 . S
C172 C171 1.443 . S
C172 C173 1.340 . S
C172 H204 0.951 . S
C173 C172 1.340 . S
C173 C174 1.439 . S
C173 H205 0.950 . S
C174 N170 1.374 . S
C174 C173 1.439 . S
C174 C199 1.395 . S
N175 Co164 1.995 . S
N175 C176 1.376 . S
N175 C179 1.383 . S
C176 N175 1.376 . S
C176 C177 1.446 . S
C176 C199 1.391 . S
C177 C176 1.446 . S
C177 C178 1.339 . S
C177 H206 0.949 . S
C178 C177 1.339 . S
C178 C179 1.439 . S
C178 H207 0.950 . S
C179 N175 1.383 . S
C179 C178 1.439 . S
C179 C197 1.392 . S
N180 Co164 2.282 . S
N180 C183 1.332 . S
N180 C185 1.332 . S
C181 C182 1.386 . S
C181 C184 1.388 . S
C182 C181 1.386 . S
C182 C183 1.382 . S
C182 H208 0.950 . S
C183 N180 1.332 . S
C183 C182 1.382 . S
C183 H194 0.952 . S
C184 C181 1.388 . S
C184 C185 1.382 . S
C184 H209 0.950 . S
C185 N180 1.332 . S
C185 C184 1.382 . S
C185 H195 0.948 . S
N186 Co164 2.282 . S
N186 C190 1.332 . S
N186 C191 1.332 . S
C187 C188 1.388 . S
C187 C191 1.382 . S
C187 H210 0.950 . S
C188 C187 1.388 . S
C188 C189 1.386 . S
C189 C188 1.386 . S
C189 C190 1.382 . S
C189 H211 0.950 . S
C190 N186 1.332 . S
C190 C189 1.382 . S
C190 H192 0.952 . S
C191 N186 1.332 . S
C191 C187 1.382 . S
C191 H193 0.948 . S
H192 C190 0.952 . S
H193 C191 0.948 . S
H194 C183 0.952 . S
H195 C185 0.948 . S
C196 C162 1.395 . S
C196 C166 1.391 . S
C197 C159 1.389 . S
C197 C179 1.392 . S
C198 C169 1.392 . S
C198 C171 1.389 . S
C199 C174 1.395 . S
C199 C176 1.391 . S
H200 C160 0.951 . S
H201 C161 0.950 . S
H202 C167 0.949 . S
H203 C168 0.950 . S
H204 C172 0.951 . S
H205 C173 0.950 . S
H206 C177 0.949 . S
H207 C178 0.950 . S
H208 C182 0.950 . S
H209 C184 0.950 . S
H210 C187 0.950 . S
H211 C189 0.950 . S
C212 C213 1.443 . S
C212 N216 1.376 . S
C212 C250 1.389 . S
C213 C212 1.443 . S
C213 C214 1.340 . S
C213 H253 0.951 . S
C214 C213 1.340 . S
C214 C215 1.439 . S
C214 H254 0.950 . S
C215 C214 1.439 . S
C215 N216 1.374 . S
C215 C249 1.395 . S
N216 C212 1.376 . S
N216 C215 1.374 . S
N216 Co217 2.008 . S
Co217 N216 2.008 . S
Co217 N218 1.995 . S
Co217 N223 2.008 . S
Co217 N228 1.995 . S
Co217 N233 2.282 . S
Co217 N239 2.282 . S
N218 Co217 1.995 . S
N218 C219 1.376 . S
N218 C222 1.383 . S
C219 N218 1.376 . S
C219 C220 1.446 . S
C219 C249 1.391 . S
C220 C219 1.446 . S
C220 C221 1.339 . S
C220 H255 0.949 . S
C221 C220 1.339 . S
C221 C222 1.439 . S
C221 H256 0.950 . S
C222 N218 1.383 . S
C222 C221 1.439 . S
C222 C251 1.392 . S
N223 Co217 2.008 . S
N223 C224 1.376 . S
N223 C227 1.374 . S
C224 N223 1.376 . S
C224 C225 1.443 . S
C224 C251 1.389 . S
C225 C224 1.443 . S
C225 C226 1.340 . S
C225 H257 0.951 . S
C226 C225 1.340 . S
C226 C227 1.439 . S
C226 H258 0.950 . S
C227 N223 1.374 . S
C227 C226 1.439 . S
C227 C252 1.395 . S
N228 Co217 1.995 . S
N228 C229 1.376 . S
N228 C232 1.383 . S
C229 N228 1.376 . S
C229 C230 1.446 . S
C229 C252 1.391 . S
C230 C229 1.446 . S
C230 C231 1.339 . S
C230 H259 0.949 . S
C231 C230 1.339 . S
C231 C232 1.439 . S
C231 H260 0.950 . S
C232 N228 1.383 . S
C232 C231 1.439 . S
C232 C250 1.392 . S
N233 Co217 2.282 . S
N233 C236 1.332 . S
N233 C238 1.332 . S
C234 C235 1.386 . S
C234 C237 1.388 . S
C235 C234 1.386 . S
C235 C236 1.382 . S
C235 H261 0.950 . S
C236 N233 1.332 . S
C236 C235 1.382 . S
C236 H247 0.952 . S
C237 C234 1.388 . S
C237 C238 1.382 . S
C237 H262 0.950 . S
C238 N233 1.332 . S
C238 C237 1.382 . S
C238 H248 0.948 . S
N239 Co217 2.282 . S
N239 C243 1.332 . S
N239 C244 1.332 . S
C240 C241 1.388 . S
C240 C244 1.382 . S
C240 H263 0.950 . S
C241 C240 1.388 . S
C241 C242 1.386 . S
C242 C241 1.386 . S
C242 C243 1.382 . S
C242 H264 0.950 . S
C243 N239 1.332 . S
C243 C242 1.382 . S
C243 H245 0.952 . S
C244 N239 1.332 . S
C244 C240 1.382 . S
C244 H246 0.948 . S
H245 C243 0.952 . S
H246 C244 0.948 . S
H247 C236 0.952 . S
H248 C238 0.948 . S
C249 C215 1.395 . S
C249 C219 1.391 . S
C250 C212 1.389 . S
C250 C232 1.392 . S
C251 C222 1.392 . S
C251 C224 1.389 . S
C252 C227 1.395 . S
C252 C229 1.391 . S
H253 C213 0.951 . S
H254 C214 0.950 . S
H255 C220 0.949 . S
H256 C221 0.950 . S
H257 C225 0.951 . S
H258 C226 0.950 . S
H259 C230 0.949 . S
H260 C231 0.950 . S
H261 C235 0.950 . S
H262 C237 0.950 . S
H263 C240 0.950 . S
H264 C242 0.950 . S
C265 C266 1.443 . S
C265 N269 1.376 . S
C265 C303 1.389 . S
C266 C265 1.443 . S
C266 C267 1.340 . S
C266 H306 0.951 . S
C267 C266 1.340 . S
C267 C268 1.439 . S
C267 H307 0.950 . S
C268 C267 1.439 . S
C268 N269 1.374 . S
C268 C302 1.395 . S
N269 C265 1.376 . S
N269 C268 1.374 . S
N269 Co270 2.008 . S
Co270 N269 2.008 . S
Co270 N271 1.995 . S
Co270 N276 2.008 . S
Co270 N281 1.995 . S
Co270 N286 2.282 . S
Co270 N292 2.282 . S
N271 Co270 1.995 . S
N271 C272 1.376 . S
N271 C275 1.383 . S
C272 N271 1.376 . S
C272 C273 1.446 . S
C272 C302 1.391 . S
C273 C272 1.446 . S
C273 C274 1.339 . S
C273 H308 0.949 . S
C274 C273 1.339 . S
C274 C275 1.439 . S
C274 H309 0.950 . S
C275 N271 1.383 . S
C275 C274 1.439 . S
C275 C304 1.392 . S
N276 Co270 2.008 . S
N276 C277 1.376 . S
N276 C280 1.374 . S
C277 N276 1.376 . S
C277 C278 1.443 . S
C277 C304 1.389 . S
C278 C277 1.443 . S
C278 C279 1.340 . S
C278 H310 0.951 . S
C279 C278 1.340 . S
C279 C280 1.439 . S
C279 H311 0.950 . S
C280 N276 1.374 . S
C280 C279 1.439 . S
C280 C305 1.395 . S
N281 Co270 1.995 . S
N281 C282 1.376 . S
N281 C285 1.383 . S
C282 N281 1.376 . S
C282 C283 1.446 . S
C282 C305 1.391 . S
C283 C282 1.446 . S
C283 C284 1.339 . S
C283 H312 0.949 . S
C284 C283 1.339 . S
C284 C285 1.439 . S
C284 H313 0.950 . S
C285 N281 1.383 . S
C285 C284 1.439 . S
C285 C303 1.392 . S
N286 Co270 2.282 . S
N286 C289 1.332 . S
N286 C291 1.332 . S
C287 C288 1.386 . S
C287 C290 1.388 . S
C288 C287 1.386 . S
C288 C289 1.382 . S
C288 H314 0.950 . S
C289 N286 1.332 . S
C289 C288 1.382 . S
C289 H300 0.952 . S
C290 C287 1.388 . S
C290 C291 1.382 . S
C290 H315 0.950 . S
C291 N286 1.332 . S
C291 C290 1.382 . S
C291 H301 0.948 . S
N292 Co270 2.282 . S
N292 C296 1.332 . S
N292 C297 1.332 . S
C293 C294 1.388 . S
C293 C297 1.382 . S
C293 H316 0.950 . S
C294 C293 1.388 . S
C294 C295 1.386 . S
C295 C294 1.386 . S
C295 C296 1.382 . S
C295 H317 0.950 . S
C296 N292 1.332 . S
C296 C295 1.382 . S
C296 H298 0.952 . S
C297 N292 1.332 . S
C297 C293 1.382 . S
C297 H299 0.948 . S
H298 C296 0.952 . S
H299 C297 0.948 . S
H300 C289 0.952 . S
H301 C291 0.948 . S
C302 C268 1.395 . S
C302 C272 1.391 . S
C303 C265 1.389 . S
C303 C285 1.392 . S
C304 C275 1.392 . S
C304 C277 1.389 . S
C305 C280 1.395 . S
C305 C282 1.391 . S
H306 C266 0.951 . S
H307 C267 0.950 . S
H308 C273 0.949 . S
H309 C274 0.950 . S
H310 C278 0.951 . S
H311 C279 0.950 . S
H312 C283 0.949 . S
H313 C284 0.950 . S
H314 C288 0.950 . S
H315 C290 0.950 . S
H316 C293 0.950 . S
H317 C295 0.950 . S
C318 C319 1.387 . S
C318 H322 0.950 . S
C318 C327 1.390 1_545 S
C319 C318 1.387 . S
C319 C321 1.387 . S
H320 C327 0.950 . S
C321 C319 1.387 . S
C321 C323 1.390 1_545 S
C321 H325 0.950 . S
H322 C318 0.950 . S
C323 C321 1.390 1_565 S
C323 C324 1.387 . S
C323 H326 0.950 . S
C324 C323 1.387 . S
C324 C327 1.387 . S
H325 C321 0.950 . S
H326 C323 0.950 . S
C327 C318 1.390 1_565 S
C327 H320 0.950 . S
C327 C324 1.387 . S
C328 C329 1.387 . S
C328 H332 0.950 . S
C328 C337 1.390 . S
C329 C328 1.387 . S
C329 C331 1.387 . S
H330 C337 0.950 . S
C331 C329 1.387 . S
C331 C333 1.390 . S
C331 H335 0.950 . S
H332 C328 0.950 . S
C333 C331 1.390 . S
C333 C334 1.387 . S
C333 H336 0.950 . S
C334 C333 1.387 . S
C334 C337 1.387 . S
H335 C331 0.950 . S
H336 C333 0.950 . S
C337 C328 1.390 . S
C337 H330 0.950 . S
C337 C334 1.387 . S
C338 C339 1.387 . S
C338 H342 0.950 . S
C338 C347 1.390 1_655 S
C339 C338 1.387 . S
C339 C341 1.387 . S
H340 C347 0.950 . S
C341 C339 1.387 . S
C341 C343 1.390 1_655 S
C341 H345 0.950 . S
H342 C338 0.950 . S
C343 C341 1.390 1_455 S
C343 C344 1.387 . S
C343 H346 0.950 . S
C344 C343 1.387 . S
C344 C347 1.387 . S
H345 C341 0.950 . S
H346 C343 0.950 . S
C347 C338 1.390 1_455 S
C347 H340 0.950 . S
C347 C344 1.387 . S
C348 C349 1.387 . S
C348 H352 0.950 . S
C348 C357 1.390 1_455 S
C349 C348 1.387 . S
C349 C351 1.387 . S
H350 C357 0.950 . S
C351 C349 1.387 . S
C351 C353 1.390 1_455 S
C351 H355 0.950 . S
H352 C348 0.950 . S
C353 C351 1.390 1_655 S
C353 C354 1.387 . S
C353 H356 0.950 . S
C354 C353 1.387 . S
C354 C357 1.387 . S
H355 C351 0.950 . S
H356 C353 0.950 . S
C357 C348 1.390 1_655 S
C357 H350 0.950 . S
C357 C354 1.387 . S
C358 C359 1.387 . S
C358 H362 0.950 . S
C358 C367 1.390 1_565 S
C359 C358 1.387 . S
C359 C361 1.387 . S
H360 C367 0.950 . S
C361 C359 1.387 . S
C361 C363 1.390 1_565 S
C361 H365 0.950 . S
H362 C358 0.950 . S
C363 C361 1.390 1_545 S
C363 C364 1.387 . S
C363 H366 0.950 . S
C364 C363 1.387 . S
C364 C367 1.387 . S
H365 C361 0.950 . S
H366 C363 0.950 . S
C367 C358 1.390 1_545 S
C367 H360 0.950 . S
C367 C364 1.387 . S
C368 C369 1.387 . S
C368 H372 0.950 . S
C368 C377 1.390 . S
C369 C368 1.387 . S
C369 C371 1.387 . S
H370 C377 0.950 . S
C371 C369 1.387 . S
C371 C373 1.390 . S
C371 H375 0.950 . S
H372 C368 0.950 . S
C373 C371 1.390 . S
C373 C374 1.387 . S
C373 H376 0.950 . S
C374 C373 1.387 . S
C374 C377 1.387 . S
H375 C371 0.950 . S
H376 C373 0.950 . S
C377 C368 1.390 . S
C377 H370 0.950 . S
C377 C374 1.387 . S
C378 C379 1.387 . S
C378 H382 0.950 . S
C378 C387 1.390 1_556 S
C379 C378 1.387 . S
C379 C381 1.387 . S
H380 C387 0.950 . S
C381 C379 1.387 . S
C381 C383 1.390 1_556 S
C381 H385 0.950 . S
H382 C378 0.950 . S
C383 C381 1.390 1_554 S
C383 C384 1.387 . S
C383 H386 0.950 . S
C384 C383 1.387 . S
C384 C387 1.387 . S
H385 C381 0.950 . S
H386 C383 0.950 . S
C387 C378 1.390 1_554 S
C387 H380 0.950 . S
C387 C384 1.387 . S
C388 C389 1.387 . S
C388 H392 0.950 . S
C388 C397 1.390 . S
C389 C388 1.387 . S
C389 C391 1.387 . S
H390 C397 0.950 . S
C391 C389 1.387 . S
C391 C393 1.390 . S
C391 H395 0.950 . S
H392 C388 0.950 . S
C393 C391 1.390 . S
C393 C394 1.387 . S
C393 H396 0.950 . S
C394 C393 1.387 . S
C394 C397 1.387 . S
H395 C391 0.950 . S
H396 C393 0.950 . S
C397 C388 1.390 . S
C397 H390 0.950 . S
C397 C394 1.387 . S
C398 C399 1.387 . S
C398 H402 0.950 . S
C398 C407 1.390 . S
C399 C398 1.387 . S
C399 C401 1.387 . S
H400 C407 0.950 . S
C401 C399 1.387 . S
C401 C403 1.390 . S
C401 H405 0.950 . S
H402 C398 0.950 . S
C403 C401 1.390 . S
C403 C404 1.387 . S
C403 H406 0.950 . S
C404 C403 1.387 . S
C404 C407 1.387 . S
H405 C401 0.950 . S
H406 C403 0.950 . S
C407 C398 1.390 . S
C407 H400 0.950 . S
C407 C404 1.387 . S
C408 C409 1.387 . S
C408 H412 0.950 . S
C408 C417 1.390 1_556 S
C409 C408 1.387 . S
C409 C411 1.387 . S
H410 C417 0.950 . S
C411 C409 1.387 . S
C411 C413 1.390 1_556 S
C411 H415 0.950 . S
H412 C408 0.950 . S
C413 C411 1.390 1_554 S
C413 C414 1.387 . S
C413 H416 0.950 . S
C414 C413 1.387 . S
C414 C417 1.387 . S
H415 C411 0.950 . S
H416 C413 0.950 . S
C417 C408 1.390 1_554 S
C417 H410 0.950 . S
C417 C414 1.387 . S
C418 C419 1.387 . S
C418 H422 0.950 . S
C418 C427 1.390 . S
C419 C418 1.387 . S
C419 C421 1.387 . S
H420 C427 0.950 . S
C421 C419 1.387 . S
C421 C423 1.390 . S
C421 H425 0.950 . S
H422 C418 0.950 . S
C423 C421 1.390 . S
C423 C424 1.387 . S
C423 H426 0.950 . S
C424 C423 1.387 . S
C424 C427 1.387 . S
H425 C421 0.950 . S
H426 C423 0.950 . S
C427 C418 1.390 . S
C427 H420 0.950 . S
C427 C424 1.387 . S
C428 C429 1.387 . S
C428 H432 0.950 . S
C428 C437 1.390 . S
C429 C428 1.387 . S
C429 C431 1.387 . S
H430 C437 0.950 . S
C431 C429 1.387 . S
C431 C433 1.390 . S
C431 H435 0.950 . S
H432 C428 0.950 . S
C433 C431 1.390 . S
C433 C434 1.387 . S
C433 H436 0.950 . S
C434 C433 1.387 . S
C434 C437 1.387 . S
H435 C431 0.950 . S
H436 C433 0.950 . S
C437 C428 1.390 . S
C437 H430 0.950 . S
C437 C434 1.387 . S
C319 C22 1.699 . S
C324 C181 1.699 . S
C329 C75 1.696 . S
C334 C234 1.696 . S
C339 C128 1.699 . S
C344 C287 1.699 . S
C349 C82 1.706 . S
C354 C241 1.706 . S
C359 C294 1.704 . S
C364 C135 1.704 . S
C369 C188 1.704 . S
C374 C29 1.704 . S
C379 C144 2.309 . S
C384 C39 2.293 . S
C389 C197 2.310 . S
C394 C92 2.294 . S
C399 C145 2.293 . S
C404 C250 2.310 . S
C409 C303 2.312 . S
C414 C198 2.295 . S
C419 C251 2.295 . S
C424 C38 2.310 . S
C429 C304 2.294 . S
C434 C91 2.311 . S
