# Generated by pormake.
# Topology uky, (4)-cn, num edge types: 1
# Building blocks:
#     Node 0, Type 0, BuildingBlock: QUQFOY_clean_sbu_1, # of connection points: 4
#     Node 1, Type 0, BuildingBlock: QUQFOY_clean_sbu_1, # of connection points: 4
#     Node 2, Type 0, BuildingBlock: QUQFOY_clean_sbu_1, # of connection points: 4
#     Node 3, Type 0, BuildingBlock: QUQFOY_clean_sbu_1, # of connection points: 4
#     Node 4, Type 0, BuildingBlock: QUQFOY_clean_sbu_1, # of connection points: 4
#     Node 5, Type 0, BuildingBlock: QUQFOY_clean_sbu_1, # of connection points: 4
#     Node 6, Type 0, BuildingBlock: QUQFOY_clean_sbu_1, # of connection points: 4
#     Node 7, Type 0, BuildingBlock: QUQFOY_clean_sbu_1, # of connection points: 4
#     Node 8, Type 0, BuildingBlock: QUQFOY_clean_sbu_1, # of connection points: 4
#     Node 9, Type 0, BuildingBlock: QUQFOY_clean_sbu_1, # of connection points: 4
#     Node 10, Type 0, BuildingBlock: QUQFOY_clean_sbu_1, # of connection points: 4
#     Node 11, Type 0, BuildingBlock: QUQFOY_clean_sbu_1, # of connection points: 4
#     Node 12, Type 0, BuildingBlock: QUQFOY_clean_sbu_1, # of connection points: 4
#     Node 13, Type 0, BuildingBlock: QUQFOY_clean_sbu_1, # of connection points: 4
#     Node 14, Type 0, BuildingBlock: QUQFOY_clean_sbu_1, # of connection points: 4
#     Node 15, Type 0, BuildingBlock: QUQFOY_clean_sbu_1, # of connection points: 4
#     Node 16, Type 0, BuildingBlock: QUQFOY_clean_sbu_1, # of connection points: 4
#     Node 17, Type 0, BuildingBlock: QUQFOY_clean_sbu_1, # of connection points: 4
#     Node 18, Type 0, BuildingBlock: QUQFOY_clean_sbu_1, # of connection points: 4
#     Node 19, Type 0, BuildingBlock: QUQFOY_clean_sbu_1, # of connection points: 4
#     Node 20, Type 0, BuildingBlock: QUQFOY_clean_sbu_1, # of connection points: 4
#     Node 21, Type 0, BuildingBlock: QUQFOY_clean_sbu_1, # of connection points: 4
#     Node 22, Type 0, BuildingBlock: QUQFOY_clean_sbu_1, # of connection points: 4
#     Node 23, Type 0, BuildingBlock: QUQFOY_clean_sbu_1, # of connection points: 4
#     Node 24, Type 0, BuildingBlock: QUQFOY_clean_sbu_1, # of connection points: 4
#     Node 25, Type 0, BuildingBlock: QUQFOY_clean_sbu_1, # of connection points: 4
#     Node 26, Type 0, BuildingBlock: QUQFOY_clean_sbu_1, # of connection points: 4
#     Node 27, Type 0, BuildingBlock: QUQFOY_clean_sbu_1, # of connection points: 4
#     Node 28, Type 0, BuildingBlock: QUQFOY_clean_sbu_1, # of connection points: 4
#     Node 29, Type 0, BuildingBlock: QUQFOY_clean_sbu_1, # of connection points: 4
#     Node 30, Type 0, BuildingBlock: QUQFOY_clean_sbu_1, # of connection points: 4
#     Node 31, Type 0, BuildingBlock: QUQFOY_clean_sbu_1, # of connection points: 4
#     Node 32, Type 0, BuildingBlock: QUQFOY_clean_sbu_1, # of connection points: 4
#     Node 33, Type 0, BuildingBlock: QUQFOY_clean_sbu_1, # of connection points: 4
#     Node 34, Type 0, BuildingBlock: QUQFOY_clean_sbu_1, # of connection points: 4
#     Node 35, Type 0, BuildingBlock: QUQFOY_clean_sbu_1, # of connection points: 4
#     Node 36, Type 0, BuildingBlock: QUQFOY_clean_sbu_1, # of connection points: 4
#     Node 37, Type 0, BuildingBlock: QUQFOY_clean_sbu_1, # of connection points: 4
#     Node 38, Type 0, BuildingBlock: QUQFOY_clean_sbu_1, # of connection points: 4
#     Node 39, Type 0, BuildingBlock: QUQFOY_clean_sbu_1, # of connection points: 4
#     Node 40, Type 0, BuildingBlock: QUQFOY_clean_sbu_1, # of connection points: 4
#     Node 41, Type 0, BuildingBlock: QUQFOY_clean_sbu_1, # of connection points: 4
#     Node 42, Type 0, BuildingBlock: QUQFOY_clean_sbu_1, # of connection points: 4
#     Node 43, Type 0, BuildingBlock: QUQFOY_clean_sbu_1, # of connection points: 4
#     Node 44, Type 0, BuildingBlock: QUQFOY_clean_sbu_1, # of connection points: 4
#     Node 45, Type 0, BuildingBlock: QUQFOY_clean_sbu_1, # of connection points: 4
#     Node 46, Type 0, BuildingBlock: QUQFOY_clean_sbu_1, # of connection points: 4
#     Node 47, Type 0, BuildingBlock: QUQFOY_clean_sbu_1, # of connection points: 4
#     Edge 48, Type (0, 0), BuildingBlock: EZIPEK_clean_linker_0, # of connection points: 2
#     Edge 49, Type (0, 0), BuildingBlock: EZIPEK_clean_linker_0, # of connection points: 2
#     Edge 50, Type (0, 0), BuildingBlock: EZIPEK_clean_linker_0, # of connection points: 2
#     Edge 51, Type (0, 0), BuildingBlock: EZIPEK_clean_linker_0, # of connection points: 2
#     Edge 52, Type (0, 0), BuildingBlock: EZIPEK_clean_linker_0, # of connection points: 2
#     Edge 53, Type (0, 0), BuildingBlock: EZIPEK_clean_linker_0, # of connection points: 2
#     Edge 54, Type (0, 0), BuildingBlock: EZIPEK_clean_linker_0, # of connection points: 2
#     Edge 55, Type (0, 0), BuildingBlock: EZIPEK_clean_linker_0, # of connection points: 2
#     Edge 56, Type (0, 0), BuildingBlock: EZIPEK_clean_linker_0, # of connection points: 2
#     Edge 57, Type (0, 0), BuildingBlock: EZIPEK_clean_linker_0, # of connection points: 2
#     Edge 58, Type (0, 0), BuildingBlock: EZIPEK_clean_linker_0, # of connection points: 2
#     Edge 59, Type (0, 0), BuildingBlock: EZIPEK_clean_linker_0, # of connection points: 2
#     Edge 60, Type (0, 0), BuildingBlock: EZIPEK_clean_linker_0, # of connection points: 2
#     Edge 61, Type (0, 0), BuildingBlock: EZIPEK_clean_linker_0, # of connection points: 2
#     Edge 62, Type (0, 0), BuildingBlock: EZIPEK_clean_linker_0, # of connection points: 2
#     Edge 63, Type (0, 0), BuildingBlock: EZIPEK_clean_linker_0, # of connection points: 2
#     Edge 64, Type (0, 0), BuildingBlock: EZIPEK_clean_linker_0, # of connection points: 2
#     Edge 65, Type (0, 0), BuildingBlock: EZIPEK_clean_linker_0, # of connection points: 2
#     Edge 66, Type (0, 0), BuildingBlock: EZIPEK_clean_linker_0, # of connection points: 2
#     Edge 67, Type (0, 0), BuildingBlock: EZIPEK_clean_linker_0, # of connection points: 2
#     Edge 68, Type (0, 0), BuildingBlock: EZIPEK_clean_linker_0, # of connection points: 2
#     Edge 69, Type (0, 0), BuildingBlock: EZIPEK_clean_linker_0, # of connection points: 2
#     Edge 70, Type (0, 0), BuildingBlock: EZIPEK_clean_linker_0, # of connection points: 2
#     Edge 71, Type (0, 0), BuildingBlock: EZIPEK_clean_linker_0, # of connection points: 2
#     Edge 72, Type (0, 0), BuildingBlock: EZIPEK_clean_linker_0, # of connection points: 2
#     Edge 73, Type (0, 0), BuildingBlock: EZIPEK_clean_linker_0, # of connection points: 2
#     Edge 74, Type (0, 0), BuildingBlock: EZIPEK_clean_linker_0, # of connection points: 2
#     Edge 75, Type (0, 0), BuildingBlock: EZIPEK_clean_linker_0, # of connection points: 2
#     Edge 76, Type (0, 0), BuildingBlock: EZIPEK_clean_linker_0, # of connection points: 2
#     Edge 77, Type (0, 0), BuildingBlock: EZIPEK_clean_linker_0, # of connection points: 2
#     Edge 78, Type (0, 0), BuildingBlock: EZIPEK_clean_linker_0, # of connection points: 2
#     Edge 79, Type (0, 0), BuildingBlock: EZIPEK_clean_linker_0, # of connection points: 2
#     Edge 80, Type (0, 0), BuildingBlock: EZIPEK_clean_linker_0, # of connection points: 2
#     Edge 81, Type (0, 0), BuildingBlock: EZIPEK_clean_linker_0, # of connection points: 2
#     Edge 82, Type (0, 0), BuildingBlock: EZIPEK_clean_linker_0, # of connection points: 2
#     Edge 83, Type (0, 0), BuildingBlock: EZIPEK_clean_linker_0, # of connection points: 2
#     Edge 84, Type (0, 0), BuildingBlock: EZIPEK_clean_linker_0, # of connection points: 2
#     Edge 85, Type (0, 0), BuildingBlock: EZIPEK_clean_linker_0, # of connection points: 2
#     Edge 86, Type (0, 0), BuildingBlock: EZIPEK_clean_linker_0, # of connection points: 2
#     Edge 87, Type (0, 0), BuildingBlock: EZIPEK_clean_linker_0, # of connection points: 2
#     Edge 88, Type (0, 0), BuildingBlock: EZIPEK_clean_linker_0, # of connection points: 2
#     Edge 89, Type (0, 0), BuildingBlock: EZIPEK_clean_linker_0, # of connection points: 2
#     Edge 90, Type (0, 0), BuildingBlock: EZIPEK_clean_linker_0, # of connection points: 2
#     Edge 91, Type (0, 0), BuildingBlock: EZIPEK_clean_linker_0, # of connection points: 2
#     Edge 92, Type (0, 0), BuildingBlock: EZIPEK_clean_linker_0, # of connection points: 2
#     Edge 93, Type (0, 0), BuildingBlock: EZIPEK_clean_linker_0, # of connection points: 2
#     Edge 94, Type (0, 0), BuildingBlock: EZIPEK_clean_linker_0, # of connection points: 2
#     Edge 95, Type (0, 0), BuildingBlock: EZIPEK_clean_linker_0, # of connection points: 2
#     Edge 96, Type (0, 0), BuildingBlock: EZIPEK_clean_linker_0, # of connection points: 2
#     Edge 97, Type (0, 0), BuildingBlock: EZIPEK_clean_linker_0, # of connection points: 2
#     Edge 98, Type (0, 0), BuildingBlock: EZIPEK_clean_linker_0, # of connection points: 2
#     Edge 99, Type (0, 0), BuildingBlock: EZIPEK_clean_linker_0, # of connection points: 2
#     Edge 100, Type (0, 0), BuildingBlock: EZIPEK_clean_linker_0, # of connection points: 2
#     Edge 101, Type (0, 0), BuildingBlock: EZIPEK_clean_linker_0, # of connection points: 2
#     Edge 102, Type (0, 0), BuildingBlock: EZIPEK_clean_linker_0, # of connection points: 2
#     Edge 103, Type (0, 0), BuildingBlock: EZIPEK_clean_linker_0, # of connection points: 2
#     Edge 104, Type (0, 0), BuildingBlock: EZIPEK_clean_linker_0, # of connection points: 2
#     Edge 105, Type (0, 0), BuildingBlock: EZIPEK_clean_linker_0, # of connection points: 2
#     Edge 106, Type (0, 0), BuildingBlock: EZIPEK_clean_linker_0, # of connection points: 2
#     Edge 107, Type (0, 0), BuildingBlock: EZIPEK_clean_linker_0, # of connection points: 2
#     Edge 108, Type (0, 0), BuildingBlock: EZIPEK_clean_linker_0, # of connection points: 2
#     Edge 109, Type (0, 0), BuildingBlock: EZIPEK_clean_linker_0, # of connection points: 2
#     Edge 110, Type (0, 0), BuildingBlock: EZIPEK_clean_linker_0, # of connection points: 2
#     Edge 111, Type (0, 0), BuildingBlock: EZIPEK_clean_linker_0, # of connection points: 2
#     Edge 112, Type (0, 0), BuildingBlock: EZIPEK_clean_linker_0, # of connection points: 2
#     Edge 113, Type (0, 0), BuildingBlock: EZIPEK_clean_linker_0, # of connection points: 2
#     Edge 114, Type (0, 0), BuildingBlock: EZIPEK_clean_linker_0, # of connection points: 2
#     Edge 115, Type (0, 0), BuildingBlock: EZIPEK_clean_linker_0, # of connection points: 2
#     Edge 116, Type (0, 0), BuildingBlock: EZIPEK_clean_linker_0, # of connection points: 2
#     Edge 117, Type (0, 0), BuildingBlock: EZIPEK_clean_linker_0, # of connection points: 2
#     Edge 118, Type (0, 0), BuildingBlock: EZIPEK_clean_linker_0, # of connection points: 2
#     Edge 119, Type (0, 0), BuildingBlock: EZIPEK_clean_linker_0, # of connection points: 2
#     Edge 120, Type (0, 0), BuildingBlock: EZIPEK_clean_linker_0, # of connection points: 2
#     Edge 121, Type (0, 0), BuildingBlock: EZIPEK_clean_linker_0, # of connection points: 2
#     Edge 122, Type (0, 0), BuildingBlock: EZIPEK_clean_linker_0, # of connection points: 2
#     Edge 123, Type (0, 0), BuildingBlock: EZIPEK_clean_linker_0, # of connection points: 2
#     Edge 124, Type (0, 0), BuildingBlock: EZIPEK_clean_linker_0, # of connection points: 2
#     Edge 125, Type (0, 0), BuildingBlock: EZIPEK_clean_linker_0, # of connection points: 2
#     Edge 126, Type (0, 0), BuildingBlock: EZIPEK_clean_linker_0, # of connection points: 2
#     Edge 127, Type (0, 0), BuildingBlock: EZIPEK_clean_linker_0, # of connection points: 2
#     Edge 128, Type (0, 0), BuildingBlock: EZIPEK_clean_linker_0, # of connection points: 2
#     Edge 129, Type (0, 0), BuildingBlock: EZIPEK_clean_linker_0, # of connection points: 2
#     Edge 130, Type (0, 0), BuildingBlock: EZIPEK_clean_linker_0, # of connection points: 2
#     Edge 131, Type (0, 0), BuildingBlock: EZIPEK_clean_linker_0, # of connection points: 2
#     Edge 132, Type (0, 0), BuildingBlock: EZIPEK_clean_linker_0, # of connection points: 2
#     Edge 133, Type (0, 0), BuildingBlock: EZIPEK_clean_linker_0, # of connection points: 2
#     Edge 134, Type (0, 0), BuildingBlock: EZIPEK_clean_linker_0, # of connection points: 2
#     Edge 135, Type (0, 0), BuildingBlock: EZIPEK_clean_linker_0, # of connection points: 2
#     Edge 136, Type (0, 0), BuildingBlock: EZIPEK_clean_linker_0, # of connection points: 2
#     Edge 137, Type (0, 0), BuildingBlock: EZIPEK_clean_linker_0, # of connection points: 2
#     Edge 138, Type (0, 0), BuildingBlock: EZIPEK_clean_linker_0, # of connection points: 2
#     Edge 139, Type (0, 0), BuildingBlock: EZIPEK_clean_linker_0, # of connection points: 2
#     Edge 140, Type (0, 0), BuildingBlock: EZIPEK_clean_linker_0, # of connection points: 2
#     Edge 141, Type (0, 0), BuildingBlock: EZIPEK_clean_linker_0, # of connection points: 2
#     Edge 142, Type (0, 0), BuildingBlock: EZIPEK_clean_linker_0, # of connection points: 2
#     Edge 143, Type (0, 0), BuildingBlock: EZIPEK_clean_linker_0, # of connection points: 2
# Relax obj value: 0.297
# Max RMSD: 0.260
# Mean RMSD: 0.254
data_MOF--net-uky--node1-QUQFOY_clean_sbu_1--edge1-EZIPEK_clean_linker_0
_symmetry_space_group_name_H-M    P1
_symmetry_Int_Tables_number       1
_symmetry_cell_setting            triclinic
loop_
_symmetry_equiv_pos_as_xyz
'x, y, z'
_cell_length_a     47.496803
_cell_length_b     47.521277
_cell_length_c     47.527884
_cell_angle_alpha  89.961906
_cell_angle_beta   89.961697
_cell_angle_gamma 89.96652
loop_
_atom_site_label
_atom_site_type_symbol
_atom_site_fract_x
_atom_site_fract_y
_atom_site_fract_z
_atom_type_partial_charge
O0 O 0.25136 0.18578 0.42273 0.0
Cd1 Cd 0.23679 0.17642 0.38289 0.0
Cd2 Cd 0.24959 0.23117 0.37446 0.0
O3 O 0.25141 0.23204 0.41783 0.0
O4 O 0.20881 0.14527 0.38732 0.0
O5 O 0.19741 0.1891 0.37569 0.0
C6 C 0.18963 0.16392 0.38243 0.0
C7 C 0.2257 0.26509 0.34868 0.0
C8 C 0.25353 0.21028 0.43324 0.0
C9 C 0.28304 0.18775 0.34262 0.0
O10 O 0.28186 0.21271 0.35207 0.0
O11 O 0.26529 0.1693 0.35051 0.0
O12 O 0.21451 0.24069 0.35288 0.0
O13 O 0.2494 0.27072 0.36059 0.0
O14 O 0.07019 0.99933 0.67962 0.0
Cd15 Cd 0.07654 0.98318 0.63984 0.0
Cd16 Cd 0.0215 0.99439 0.63486 0.0
O17 O 0.0238 0.99545 0.67837 0.0
O18 O 0.10882 0.95624 0.64106 0.0
O19 O 0.06425 0.9432 0.63658 0.0
C20 C 0.09038 0.93631 0.63986 0.0
C21 C 0.98734 0.97023 0.60947 0.0
C22 C 0.04645 0.99973 0.69201 0.0
C23 C 0.0613 0.02805 0.59961 0.0
O24 O 0.03753 0.02751 0.61181 0.0
O25 O 0.08009 0.00998 0.60561 0.0
O26 O 0.98128 0.99304 0.62286 0.0
O27 O 0.0122 0.95963 0.61261 0.0
O28 O 0.25645 0.81987 0.9311 0.0
Cd29 Cd 0.27032 0.83021 0.89119 0.0
Cd30 Cd 0.26472 0.77423 0.88315 0.0
O31 O 0.26282 0.7739 0.92658 0.0
O32 O 0.31053 0.82007 0.88516 0.0
O33 O 0.29594 0.86372 0.89241 0.0
C34 C 0.31655 0.8463 0.88894 0.0
C35 C 0.2922 0.74348 0.85668 0.0
C36 C 0.25728 0.79528 0.94171 0.0
C37 C 0.22629 0.81258 0.85083 0.0
O38 O 0.23039 0.78811 0.86066 0.0
O39 O 0.24187 0.83303 0.85817 0.0
O40 O 0.26946 0.73506 0.86889 0.0
O41 O 0.30082 0.76873 0.86165 0.0
O42 O 0.4301 0.0065 0.17911 0.0
Cd43 Cd 0.42331 0.02101 0.13862 0.0
Cd44 Cd 0.47851 0.00802 0.13319 0.0
O45 O 0.47653 0.00893 0.17664 0.0
O46 O 0.4351 0.06097 0.13286 0.0
O47 O 0.3908 0.04775 0.13906 0.0
C48 C 0.40893 0.06778 0.13606 0.0
C49 C 0.51443 0.02955 0.10795 0.0
C50 C 0.45411 0.00585 0.19096 0.0
C51 C 0.43736 0.97447 0.09941 0.0
O52 O 0.46136 0.97475 0.11113 0.0
O53 O 0.41903 0.99301 0.10545 0.0
O54 O 0.48997 0.04134 0.10975 0.0
O55 O 0.51893 0.00681 0.12203 0.0
O56 O 0.24278 0.81714 0.07241 0.0
Cd57 Cd 0.23137 0.82909 0.11228 0.0
Cd58 Cd 0.22753 0.7721 0.12032 0.0
O59 O 0.23087 0.77227 0.07663 0.0
O60 O 0.2051 0.86195 0.11 0.0
O61 O 0.19208 0.81846 0.12146 0.0
C62 C 0.18527 0.84407 0.11532 0.0
C63 C 0.20131 0.73902 0.14546 0.0
C64 C 0.23888 0.793 0.06159 0.0
C65 C 0.27297 0.80681 0.15135 0.0
O66 O 0.26204 0.78359 0.14382 0.0
O67 O 0.26291 0.8299 0.14233 0.0
O68 O 0.22377 0.73191 0.13204 0.0
O69 O 0.19197 0.76433 0.14233 0.0
O70 O 0.43126 0.99088 0.32301 0.0
Cd71 Cd 0.42158 0.97657 0.36282 0.0
Cd72 Cd 0.4782 0.98369 0.37006 0.0
O73 O 0.4775 0.98621 0.32646 0.0
O74 O 0.38942 0.94968 0.35924 0.0
O75 O 0.43319 0.93703 0.36995 0.0
C76 C 0.40762 0.93 0.36384 0.0
C77 C 0.51222 0.95881 0.39532 0.0
C78 C 0.45556 0.99077 0.31177 0.0
C79 C 0.43772 0.02037 0.40335 0.0
O80 O 0.46235 0.01654 0.39367 0.0
O81 O 0.41732 0.00495 0.39553 0.0
O82 O 0.51818 0.98225 0.38302 0.0
O83 O 0.48762 0.94805 0.39114 0.0
O84 O 0.25914 0.18955 0.56653 0.0
Cd85 Cd 0.26956 0.18088 0.60767 0.0
Cd86 Cd 0.26784 0.23661 0.6116 0.0
O87 O 0.27314 0.23382 0.56834 0.0
O88 O 0.29709 0.14916 0.60698 0.0
O89 O 0.30796 0.19306 0.61881 0.0
C90 C 0.31604 0.16778 0.61288 0.0
C91 C 0.28855 0.27164 0.63908 0.0
C92 C 0.26537 0.21245 0.55422 0.0
C93 C 0.22164 0.20089 0.63939 0.0
O94 O 0.22999 0.22407 0.62891 0.0
O95 O 0.23731 0.17937 0.63685 0.0
O96 O 0.26872 0.2775 0.62156 0.0
O97 O 0.29816 0.24625 0.63966 0.0
O98 O 0.07459 0.0154 0.82361 0.0
Cd99 Cd 0.08481 0.02888 0.86357 0.0
Cd100 Cd 0.02793 0.02323 0.87091 0.0
O101 O 0.0286 0.02186 0.82729 0.0
O102 O 0.11488 0.05822 0.8598 0.0
O103 O 0.07114 0.06706 0.87353 0.0
C104 C 0.09563 0.07635 0.86629 0.0
C105 C 0.99387 0.04794 0.89629 0.0
C106 C 0.05029 0.01657 0.81248 0.0
C107 C 0.06817 0.98485 0.90331 0.0
O108 O 0.04357 0.98987 0.8941 0.0
O109 O 0.08906 0.99971 0.8956 0.0
O110 O 0.98788 0.02461 0.88385 0.0
O111 O 0.01849 0.05863 0.89228 0.0
O112 O 0.4302 0.24491 0.17479 0.0
Cd113 Cd 0.38971 0.2331 0.16602 0.0
Cd114 Cd 0.38368 0.22973 0.22346 0.0
O115 O 0.42728 0.23486 0.22025 0.0
O116 O 0.38824 0.20643 0.13336 0.0
O117 O 0.38328 0.19363 0.17793 0.0
C118 C 0.38613 0.18655 0.15185 0.0
C119 C 0.36365 0.20007 0.2579 0.0
C120 C 0.44171 0.2421 0.19878 0.0
C121 C 0.34935 0.2736 0.19037 0.0
O122 O 0.35735 0.26286 0.21355 0.0
O123 O 0.35889 0.26408 0.16725 0.0
O124 O 0.36489 0.19249 0.23191 0.0
O125 O 0.37517 0.22375 0.26433 0.0
O126 O 0.01111 0.17935 0.43209 0.0
Cd127 Cd 0.02642 0.13965 0.42312 0.0
Cd128 Cd 0.01868 0.13332 0.47925 0.0
O129 O 0.01575 0.17675 0.47836 0.0
O130 O 0.05316 0.14312 0.39071 0.0
O131 O 0.06637 0.1341 0.43464 0.0
C132 C 0.07309 0.13955 0.40885 0.0
C133 C 0.04416 0.10835 0.51292 0.0
C134 C 0.01096 0.19099 0.45619 0.0
C135 C 0.98258 0.09901 0.43971 0.0
O136 O 0.9858 0.10953 0.46403 0.0
O137 O 0.99871 0.10603 0.41952 0.0
O138 O 0.02055 0.12025 0.51908 0.0
O139 O 0.05474 0.11294 0.48832 0.0
O140 O 0.07244 0.75668 0.68839 0.0
Cd141 Cd 0.11212 0.77244 0.68014 0.0
Cd142 Cd 0.11836 0.76386 0.7358 0.0
O143 O 0.07489 0.76088 0.73471 0.0
O144 O 0.11031 0.7982 0.64685 0.0
O145 O 0.11578 0.8128 0.69075 0.0
C146 C 0.11215 0.81879 0.66448 0.0
C147 C 0.14374 0.7912 0.76756 0.0
C148 C 0.06071 0.75626 0.71247 0.0
C149 C 0.15361 0.72897 0.69689 0.0
O150 O 0.14235 0.73087 0.72102 0.0
O151 O 0.14659 0.74569 0.67722 0.0
O152 O 0.1386 0.80041 0.74253 0.0
O153 O 0.13206 0.76794 0.77527 0.0
O154 O 0.49248 0.82369 0.93103 0.0
Cd155 Cd 0.48142 0.86405 0.9207 0.0
Cd156 Cd 0.47728 0.8715 0.97788 0.0
O157 O 0.48039 0.8277 0.97596 0.0
O158 O 0.45523 0.86507 0.88775 0.0
O159 O 0.44197 0.87182 0.93197 0.0
C160 C 0.43517 0.8683 0.90589 0.0
C161 C 0.45001 0.8949 0.0118 0.0
C162 C 0.48838 0.81279 0.95512 0.0
C163 C 0.52264 0.9034 0.94395 0.0
O164 O 0.5115 0.89594 0.96711 0.0
O165 O 0.51298 0.89406 0.92086 0.0
O166 O 0.47313 0.88231 0.01835 0.0
O167 O 0.44094 0.89195 0.98642 0.0
O168 O 0.42685 0.75324 0.32063 0.0
Cd169 Cd 0.38589 0.76656 0.32629 0.0
Cd170 Cd 0.38291 0.75928 0.27072 0.0
O171 O 0.42632 0.76061 0.27483 0.0
O172 O 0.38557 0.79412 0.358 0.0
O173 O 0.37983 0.80577 0.31303 0.0
C174 C 0.38306 0.81337 0.33895 0.0
C175 C 0.35888 0.78125 0.23361 0.0
C176 C 0.43983 0.75548 0.29734 0.0
C177 C 0.34792 0.7213 0.30639 0.0
O178 O 0.36098 0.72388 0.28318 0.0
O179 O 0.35294 0.73794 0.32674 0.0
O180 O 0.3562 0.79026 0.25909 0.0
O181 O 0.37731 0.76187 0.22926 0.0
O182 O 0.49282 0.17685 0.56446 0.0
Cd183 Cd 0.47785 0.13741 0.5746 0.0
Cd184 Cd 0.48379 0.12987 0.51873 0.0
O185 O 0.48499 0.17342 0.51873 0.0
O186 O 0.45238 0.14157 0.60781 0.0
O187 O 0.43764 0.1321 0.56442 0.0
C188 C 0.43187 0.13799 0.59033 0.0
C189 C 0.4579 0.10359 0.48648 0.0
C190 C 0.49099 0.18813 0.54026 0.0
C191 C 0.52156 0.09707 0.55777 0.0
O192 O 0.51804 0.10749 0.53342 0.0
O193 O 0.50554 0.10397 0.57805 0.0
O194 O 0.48051 0.11663 0.47904 0.0
O195 O 0.44852 0.10741 0.5117 0.0
O196 O 0.07066 0.2502 0.81532 0.0
Cd197 Cd 0.11059 0.23984 0.82806 0.0
Cd198 Cd 0.12021 0.23463 0.77052 0.0
O199 O 0.07639 0.2342 0.77197 0.0
O200 O 0.10893 0.21475 0.86166 0.0
O201 O 0.12121 0.20047 0.81874 0.0
C202 C 0.11543 0.19452 0.84466 0.0
C203 C 0.14279 0.21704 0.73022 0.0
C204 C 0.0606 0.24352 0.79149 0.0
C205 C 0.14934 0.28141 0.80594 0.0
O206 O 0.1425 0.26989 0.78279 0.0
O207 O 0.13981 0.27181 0.82898 0.0
O208 O 0.12517 0.23751 0.72908 0.0
O209 O 0.14578 0.20444 0.7541 0.0
O210 O 0.00776 0.82694 0.06136 0.0
Cd211 Cd 0.02256 0.86621 0.07266 0.0
Cd212 Cd 0.01704 0.87499 0.01621 0.0
O213 O 0.01303 0.83156 0.01529 0.0
O214 O 0.04872 0.86178 0.1054 0.0
O215 O 0.06243 0.8733 0.0622 0.0
C216 C 0.06884 0.8669 0.08782 0.0
C217 C 0.04448 0.90093 0.98478 0.0
C218 C 0.00769 0.81642 0.03675 0.0
C219 C 0.97977 0.90789 0.05627 0.0
O220 O 0.98414 0.89887 0.03152 0.0
O221 O 0.99463 0.89937 0.07682 0.0
O222 O 0.02101 0.88975 0.97701 0.0
O223 O 0.0538 0.89513 0.00961 0.0
O224 O 0.17979 0.42758 0.24165 0.0
Cd225 Cd 0.17561 0.38773 0.22519 0.0
Cd226 Cd 0.23016 0.38761 0.23046 0.0
O227 O 0.22358 0.43051 0.22643 0.0
O228 O 0.14228 0.38665 0.19978 0.0
O229 O 0.18666 0.38658 0.18487 0.0
C230 C 0.16005 0.38797 0.1792 0.0
C231 C 0.26644 0.36165 0.20962 0.0
C232 C 0.20144 0.44218 0.23593 0.0
C233 C 0.19887 0.35179 0.26936 0.0
O234 O 0.21956 0.36862 0.26796 0.0
O235 O 0.17943 0.35285 0.25103 0.0
O236 O 0.2407 0.35842 0.20145 0.0
O237 O 0.27156 0.38194 0.22685 0.0
O238 O 0.68456 0.06983 0.76035 0.0
Cd239 Cd 0.67943 0.1102 0.77505 0.0
Cd240 Cd 0.73452 0.11243 0.76906 0.0
O241 O 0.72965 0.06909 0.77146 0.0
O242 O 0.64619 0.11136 0.8006 0.0
O243 O 0.69052 0.11403 0.81524 0.0
C244 C 0.664 0.11203 0.82114 0.0
C245 C 0.77115 0.13781 0.79009 0.0
C246 C 0.70733 0.05628 0.7641 0.0
C247 C 0.7005 0.14716 0.73004 0.0
O248 O 0.723 0.13292 0.73253 0.0
O249 O 0.68024 0.14361 0.74716 0.0
O250 O 0.74558 0.14053 0.79897 0.0
O251 O 0.77596 0.11834 0.77188 0.0
O252 O 0.17822 0.43875 0.00365 0.0
Cd253 Cd 0.13755 0.43542 0.01856 0.0
Cd254 Cd 0.13902 0.4903 0.0137 0.0
O255 O 0.1815 0.48238 0.01911 0.0
O256 O 0.13444 0.40123 0.04267 0.0
O257 O 0.13544 0.44491 0.05925 0.0
C258 C 0.13563 0.41809 0.06396 0.0
C259 C 0.11392 0.52672 0.03503 0.0
C260 C 0.19308 0.46001 0.01012 0.0
C261 C 0.10255 0.46051 0.97415 0.0
O262 O 0.11995 0.48074 0.97582 0.0
O263 O 0.10327 0.44073 0.99214 0.0
O264 O 0.13451 0.53173 0.01809 0.0
O265 O 0.11 0.50092 0.04271 0.0
O266 O 0.81856 0.92805 0.25898 0.0
Cd267 Cd 0.82643 0.88812 0.27374 0.0
Cd268 Cd 0.77057 0.88263 0.26813 0.0
O269 O 0.77304 0.92625 0.26873 0.0
O270 O 0.81583 0.88406 0.31401 0.0
O271 O 0.85984 0.88906 0.29918 0.0
C272 C 0.84219 0.88757 0.31983 0.0
C273 C 0.73777 0.85649 0.29354 0.0
C274 C 0.7949 0.94021 0.26196 0.0
C275 C 0.80769 0.8489 0.22981 0.0
O276 O 0.78392 0.86067 0.23311 0.0
O277 O 0.82812 0.85464 0.24605 0.0
O278 O 0.73036 0.87095 0.2718 0.0
O279 O 0.76334 0.85888 0.30249 0.0
O280 O 0.82589 0.07344 0.00486 0.0
Cd281 Cd 0.86566 0.08257 0.01968 0.0
Cd282 Cd 0.87303 0.02645 0.01109 0.0
O283 O 0.82955 0.02715 0.00857 0.0
O284 O 0.86243 0.11378 0.04775 0.0
O285 O 0.87178 0.06928 0.05879 0.0
C286 C 0.86639 0.0947 0.06673 0.0
C287 C 0.89843 0.99308 0.03653 0.0
C288 C 0.81474 0.04911 0.00451 0.0
C289 C 0.90691 0.06712 0.97594 0.0
O290 O 0.89674 0.04257 0.97856 0.0
O291 O 0.89926 0.08693 0.9922 0.0
O292 O 0.88654 0.9867 0.01301 0.0
O293 O 0.89369 0.01767 0.04701 0.0
O294 O 0.32518 0.58055 0.74794 0.0
Cd295 Cd 0.33207 0.6199 0.73117 0.0
Cd296 Cd 0.27653 0.62524 0.73903 0.0
O297 O 0.27928 0.58176 0.74002 0.0
O298 O 0.3639 0.61805 0.70376 0.0
O299 O 0.31903 0.62204 0.6915 0.0
C300 C 0.345 0.61842 0.68421 0.0
C301 C 0.24226 0.65023 0.71434 0.0
C302 C 0.30151 0.56818 0.74632 0.0
C303 C 0.31499 0.66047 0.77443 0.0
O304 O 0.29129 0.64833 0.77261 0.0
O305 O 0.33468 0.65463 0.7573 0.0
O306 O 0.23624 0.6371 0.73731 0.0
O307 O 0.26712 0.64694 0.70383 0.0
O308 O 0.17917 0.56159 0.49369 0.0
Cd309 Cd 0.13906 0.57297 0.48299 0.0
Cd310 Cd 0.13035 0.5162 0.47655 0.0
O311 O 0.17413 0.51713 0.48049 0.0
O312 O 0.13873 0.60732 0.4586 0.0
O313 O 0.13105 0.56402 0.44302 0.0
C314 C 0.13499 0.59038 0.43764 0.0
C315 C 0.10843 0.48342 0.4465 0.0
C316 C 0.18948 0.53735 0.48913 0.0
C317 C 0.09851 0.54862 0.52285 0.0
O318 O 0.1052 0.52572 0.51073 0.0
O319 O 0.10894 0.57175 0.51442 0.0
O320 O 0.12024 0.47592 0.46972 0.0
O321 O 0.11036 0.50957 0.43959 0.0
O322 O 0.32434 0.42729 0.99588 0.0
Cd323 Cd 0.36431 0.41781 0.98158 0.0
Cd324 Cd 0.37299 0.47332 0.99393 0.0
O325 O 0.32959 0.47353 0.99647 0.0
O326 O 0.36011 0.38751 0.9527 0.0
O327 O 0.37228 0.43157 0.94282 0.0
C328 C 0.36542 0.4067 0.93418 0.0
C329 C 0.39741 0.50924 0.9712 0.0
C330 C 0.31401 0.45185 0.99834 0.0
C331 C 0.40522 0.42929 0.02701 0.0
O332 O 0.39637 0.45445 0.02531 0.0
O333 O 0.39664 0.41054 0.00997 0.0
O334 O 0.38593 0.51319 0.99545 0.0
O335 O 0.39347 0.48539 0.95882 0.0
O336 O 0.7436 0.68161 0.9309 0.0
Cd337 Cd 0.72889 0.67158 0.89134 0.0
Cd338 Cd 0.73568 0.72767 0.88341 0.0
O339 O 0.73787 0.72764 0.92692 0.0
O340 O 0.70161 0.63973 0.89542 0.0
O341 O 0.68937 0.68365 0.88496 0.0
C342 C 0.68209 0.65821 0.89123 0.0
C343 C 0.71001 0.76043 0.85751 0.0
C344 C 0.74297 0.70601 0.94187 0.0
C345 C 0.77266 0.68784 0.85051 0.0
O346 O 0.76915 0.71239 0.86044 0.0
O347 O 0.75692 0.66757 0.85811 0.0
O348 O 0.73286 0.76748 0.87029 0.0
O349 O 0.70032 0.73535 0.86134 0.0
O350 O 0.56631 0.49024 0.17944 0.0
Cd351 Cd 0.57943 0.47966 0.13979 0.0
Cd352 Cd 0.52248 0.47216 0.13089 0.0
O353 O 0.52256 0.47496 0.17472 0.0
O354 O 0.61183 0.45322 0.14436 0.0
O355 O 0.56991 0.44086 0.12778 0.0
C356 C 0.5944 0.4336 0.13708 0.0
C357 C 0.48967 0.44299 0.10779 0.0
C358 C 0.54245 0.48446 0.18997 0.0
C359 C 0.55602 0.51973 0.10036 0.0
O360 O 0.53336 0.50691 0.10683 0.0
O361 O 0.57946 0.51157 0.1104 0.0
O362 O 0.48231 0.4663 0.11953 0.0
O363 O 0.51557 0.43543 0.1105 0.0
O364 O 0.75841 0.31226 0.43266 0.0
Cd365 Cd 0.76802 0.32642 0.39302 0.0
Cd366 Cd 0.7752 0.26998 0.382 0.0
O367 O 0.77294 0.2685 0.4257 0.0
O368 O 0.79208 0.36079 0.39583 0.0
O369 O 0.80772 0.31869 0.38253 0.0
C370 C 0.81289 0.34454 0.38918 0.0
C371 C 0.80233 0.23772 0.35676 0.0
C372 C 0.76421 0.28788 0.44201 0.0
C373 C 0.72776 0.30384 0.35264 0.0
O374 O 0.74022 0.28091 0.3586 0.0
O375 O 0.73611 0.32681 0.36346 0.0
O376 O 0.77981 0.23013 0.36978 0.0
O377 O 0.81107 0.26322 0.36008 0.0
O378 O 0.92818 0.50261 0.67887 0.0
Cd379 Cd 0.92298 0.51713 0.63833 0.0
Cd380 Cd 0.97843 0.50922 0.63601 0.0
O381 O 0.97368 0.51191 0.67926 0.0
O382 O 0.89083 0.54421 0.63811 0.0
O383 O 0.93579 0.55672 0.63401 0.0
C384 C 0.90963 0.5638 0.63665 0.0
C385 C 0.01575 0.52899 0.61074 0.0
C386 C 0.9511 0.50581 0.69229 0.0
C387 C 0.94313 0.47201 0.60073 0.0
O388 O 0.96555 0.47348 0.6152 0.0
O389 O 0.92325 0.48952 0.60464 0.0
O390 O 0.99057 0.53896 0.60825 0.0
O391 O 0.01991 0.51031 0.62995 0.0
O392 O 0.7473 0.31083 0.57137 0.0
Cd393 Cd 0.73267 0.32216 0.61073 0.0
Cd394 Cd 0.74398 0.26673 0.6213 0.0
O395 O 0.74675 0.26475 0.57797 0.0
O396 O 0.70568 0.35385 0.60487 0.0
O397 O 0.69298 0.31103 0.6188 0.0
C398 C 0.68598 0.33616 0.61101 0.0
C399 C 0.72099 0.23227 0.64728 0.0
C400 C 0.74939 0.28592 0.56185 0.0
C401 C 0.77717 0.31115 0.65268 0.0
O402 O 0.77534 0.2858 0.64446 0.0
O403 O 0.76061 0.32992 0.64322 0.0
O404 O 0.74485 0.22727 0.63539 0.0
O405 O 0.70902 0.25628 0.64281 0.0
O406 O 0.92341 0.49395 0.82606 0.0
Cd407 Cd 0.91731 0.4798 0.86674 0.0
Cd408 Cd 0.9726 0.49266 0.87084 0.0
O409 O 0.96977 0.49069 0.82746 0.0
O410 O 0.88883 0.44888 0.865 0.0
O411 O 0.93392 0.44214 0.87524 0.0
C412 C 0.90937 0.4317 0.86985 0.0
C413 C 0.01159 0.47545 0.89494 0.0
C414 C 0.9471 0.49389 0.81361 0.0
C415 C 0.9305 0.5268 0.9045 0.0
O416 O 0.95451 0.52553 0.89281 0.0
O417 O 0.91164 0.50864 0.89896 0.0
O418 O 0.98837 0.46136 0.89471 0.0
O419 O 0.01315 0.49804 0.88005 0.0
O420 O 0.75662 0.68368 0.07489 0.0
Cd421 Cd 0.77159 0.6767 0.11501 0.0
Cd422 Cd 0.76424 0.73227 0.11957 0.0
O423 O 0.76486 0.72949 0.07612 0.0
O424 O 0.79838 0.64416 0.11496 0.0
O425 O 0.81156 0.6887 0.11881 0.0
C426 C 0.81841 0.66251 0.11614 0.0
C427 C 0.78886 0.76544 0.14562 0.0
C428 C 0.75876 0.7073 0.06245 0.0
C429 C 0.72699 0.69534 0.1541 0.0
O430 O 0.72939 0.71878 0.14154 0.0
O431 O 0.74388 0.67528 0.14878 0.0
O432 O 0.76713 0.77251 0.13097 0.0
O433 O 0.79833 0.74006 0.14331 0.0
O434 O 0.56269 0.5032 0.32151 0.0
Cd435 Cd 0.57151 0.51852 0.3612 0.0
Cd436 Cd 0.51617 0.50871 0.36776 0.0
O437 O 0.51635 0.50661 0.3244 0.0
O438 O 0.6041 0.54487 0.35773 0.0
O439 O 0.56024 0.5585 0.36679 0.0
C440 C 0.58614 0.56493 0.36149 0.0
C441 C 0.48298 0.53321 0.39393 0.0
C442 C 0.53853 0.50248 0.30999 0.0
C443 C 0.55653 0.47393 0.40166 0.0
O444 O 0.53229 0.47561 0.3906 0.0
O445 O 0.57589 0.4911 0.39485 0.0
O446 O 0.47647 0.51023 0.3811 0.0
O447 O 0.50765 0.54383 0.38972 0.0
O448 O 0.92859 0.74129 0.68663 0.0
Cd449 Cd 0.88871 0.72726 0.67695 0.0
Cd450 Cd 0.88189 0.73212 0.73336 0.0
O451 O 0.92563 0.73242 0.73219 0.0
O452 O 0.89253 0.69955 0.64551 0.0
O453 O 0.88015 0.68816 0.68908 0.0
C454 C 0.887 0.68034 0.66397 0.0
C455 C 0.85588 0.70716 0.76665 0.0
C456 C 0.94015 0.73884 0.71061 0.0
C457 C 0.84898 0.77094 0.69465 0.0
O458 O 0.85923 0.76638 0.71892 0.0
O459 O 0.8561 0.75588 0.67371 0.0
O460 O 0.86963 0.72949 0.77351 0.0
O461 O 0.85885 0.69747 0.74146 0.0
O462 O 0.50341 0.6791 0.93676 0.0
Cd463 Cd 0.51835 0.63858 0.93124 0.0
Cd464 Cd 0.50941 0.6358 0.98597 0.0
O465 O 0.51107 0.67914 0.98251 0.0
O466 O 0.54583 0.63873 0.89936 0.0
O467 O 0.55782 0.6336 0.94429 0.0
C468 C 0.56524 0.63654 0.91828 0.0
C469 C 0.53104 0.60961 0.0216 0.0
C470 C 0.50533 0.6923 0.95995 0.0
C471 C 0.47285 0.60069 0.95041 0.0
O472 O 0.47365 0.61512 0.97287 0.0
O473 O 0.4911 0.60448 0.93117 0.0
O474 O 0.51204 0.62818 0.0271 0.0
O475 O 0.54006 0.60817 0.996 0.0
O476 O 0.57662 0.25484 0.17997 0.0
Cd477 Cd 0.61722 0.26978 0.17566 0.0
Cd478 Cd 0.61804 0.26181 0.23059 0.0
O479 O 0.57486 0.26528 0.2251 0.0
O480 O 0.61646 0.29841 0.14497 0.0
O481 O 0.62353 0.30864 0.19002 0.0
C482 C 0.61919 0.3171 0.16453 0.0
C483 C 0.64232 0.28176 0.26856 0.0
C484 C 0.56254 0.25838 0.20241 0.0
C485 C 0.65347 0.22399 0.19531 0.0
O486 O 0.63871 0.22576 0.21756 0.0
O487 O 0.65064 0.24194 0.17565 0.0
O488 O 0.62322 0.26288 0.27222 0.0
O489 O 0.64559 0.29148 0.24339 0.0
O490 O 0.99212 0.32248 0.42895 0.0
Cd491 Cd 0.97838 0.36279 0.4203 0.0
Cd492 Cd 0.98941 0.36988 0.47586 0.0
O493 O 0.9898 0.32629 0.47522 0.0
O494 O 0.9485 0.35961 0.39083 0.0
O495 O 0.9404 0.37284 0.43486 0.0
C496 C 0.93071 0.36607 0.41039 0.0
C497 C 0.96655 0.3946 0.51151 0.0
C498 C 0.99298 0.31136 0.45326 0.0
C499 C 0.02476 0.4017 0.43295 0.0
O500 O 0.02226 0.39234 0.4579 0.0
O501 O 0.00777 0.39416 0.41371 0.0
O502 O 0.98998 0.38174 0.51619 0.0
O503 O 0.95512 0.39212 0.48702 0.0
O504 O 0.93197 0.25685 0.81646 0.0
Cd505 Cd 0.89263 0.26805 0.83056 0.0
Cd506 Cd 0.88145 0.27272 0.77399 0.0
O507 O 0.92509 0.26975 0.77219 0.0
O508 O 0.89615 0.29301 0.86429 0.0
O509 O 0.88289 0.30786 0.82192 0.0
C510 C 0.88969 0.31355 0.84763 0.0
C511 C 0.85643 0.29816 0.74015 0.0
C512 C 0.94129 0.26131 0.79178 0.0
C513 C 0.85216 0.2268 0.80989 0.0
O514 O 0.85819 0.23818 0.78642 0.0
O515 O 0.86272 0.23639 0.8325 0.0
O516 O 0.86935 0.2752 0.7339 0.0
O517 O 0.85961 0.30823 0.76517 0.0
O518 O 0.99254 0.68663 0.06269 0.0
Cd519 Cd 0.98181 0.64662 0.07464 0.0
Cd520 Cd 0.97818 0.63716 0.01814 0.0
O521 O 0.98007 0.68109 0.01808 0.0
O522 O 0.95727 0.64715 0.10884 0.0
O523 O 0.94185 0.63821 0.06574 0.0
C524 C 0.93635 0.64286 0.09197 0.0
C525 C 0.95094 0.61108 0.98655 0.0
C526 C 0.98818 0.69673 0.03831 0.0
C527 C 0.02409 0.60737 0.05281 0.0
O528 O 0.01349 0.61434 0.02924 0.0
O529 O 0.01356 0.61681 0.0755 0.0
O530 O 0.97292 0.62466 0.9783 0.0
O531 O 0.94269 0.61445 0.01221 0.0
O532 O 0.57403 0.74567 0.32306 0.0
Cd533 Cd 0.61366 0.72945 0.32994 0.0
Cd534 Cd 0.61873 0.73789 0.27441 0.0
O535 O 0.57502 0.73683 0.27747 0.0
O536 O 0.61019 0.69973 0.35957 0.0
O537 O 0.61924 0.69088 0.31461 0.0
C538 C 0.61342 0.68165 0.33951 0.0
C539 C 0.64439 0.71481 0.23954 0.0
C540 C 0.56136 0.74308 0.29967 0.0
C541 C 0.65334 0.7737 0.31377 0.0
O542 O 0.64125 0.77168 0.29001 0.0
O543 O 0.64753 0.75661 0.33354 0.0
O544 O 0.62992 0.73705 0.23383 0.0
O545 O 0.64234 0.70417 0.26445 0.0
O546 O 0.50676 0.31947 0.56648 0.0
Cd547 Cd 0.52107 0.35918 0.57657 0.0
Cd548 Cd 0.51156 0.36755 0.52107 0.0
O549 O 0.51052 0.32394 0.52035 0.0
O550 O 0.55016 0.35361 0.6065 0.0
O551 O 0.55971 0.36885 0.56343 0.0
C552 C 0.56861 0.36028 0.58764 0.0
C553 C 0.53609 0.39379 0.48759 0.0
C554 C 0.50654 0.30871 0.54201 0.0
C555 C 0.4756 0.39897 0.5638 0.0
O556 O 0.4786 0.38994 0.53882 0.0
O557 O 0.49217 0.3911 0.58331 0.0
O558 O 0.51241 0.382 0.48159 0.0
O559 O 0.54701 0.3889 0.51195 0.0
O560 O 0.68121 0.92358 0.74661 0.0
Cd561 Cd 0.67337 0.88403 0.73062 0.0
Cd562 Cd 0.7292 0.87837 0.73901 0.0
O563 O 0.72729 0.922 0.74034 0.0
O564 O 0.64308 0.88875 0.70182 0.0
O565 O 0.68719 0.87713 0.69165 0.0
C566 C 0.66239 0.88435 0.68315 0.0
C567 C 0.76387 0.85326 0.71505 0.0
C568 C 0.70499 0.93578 0.74592 0.0
C569 C 0.68899 0.84391 0.7746 0.0
O570 O 0.71319 0.85499 0.77198 0.0
O571 O 0.66896 0.85061 0.75815 0.0
O572 O 0.76959 0.86656 0.73797 0.0
O573 O 0.73908 0.85618 0.70432 0.0
O574 O 0.17345 0.57429 0.25642 0.0
Cd575 Cd 0.16718 0.61412 0.27254 0.0
Cd576 Cd 0.22301 0.61906 0.2626 0.0
O577 O 0.21988 0.5757 0.2603 0.0
O578 O 0.17996 0.61765 0.31235 0.0
O579 O 0.13521 0.61345 0.29993 0.0
C580 C 0.15389 0.6147 0.31963 0.0
C581 C 0.25894 0.64248 0.28626 0.0
C582 C 0.19728 0.56209 0.25568 0.0
C583 C 0.18352 0.65466 0.22831 0.0
O584 O 0.20757 0.64315 0.23001 0.0
O585 O 0.16395 0.64805 0.24531 0.0
O586 O 0.26375 0.62933 0.26304 0.0
O587 O 0.23424 0.64034 0.29745 0.0
O588 O 0.67954 0.9358 0.50511 0.0
Cd589 Cd 0.63983 0.92522 0.51946 0.0
Cd590 Cd 0.63155 0.98124 0.51231 0.0
O591 O 0.67524 0.98172 0.51109 0.0
O592 O 0.6453 0.89405 0.54724 0.0
O593 O 0.63087 0.93693 0.55874 0.0
C594 C 0.63907 0.9122 0.5665 0.0
C595 C 0.60502 0.01387 0.5376 0.0
C596 C 0.69041 0.96021 0.50609 0.0
C597 C 0.59897 0.94012 0.47564 0.0
O598 O 0.60841 0.96486 0.47927 0.0
O599 O 0.60701 0.91995 0.49129 0.0
O600 O 0.61704 0.02064 0.51422 0.0
O601 O 0.61024 0.98934 0.54803 0.0
O602 O 0.32124 0.43344 0.75714 0.0
Cd603 Cd 0.32596 0.39214 0.77002 0.0
Cd604 Cd 0.27038 0.39154 0.76326 0.0
O605 O 0.27571 0.43452 0.76626 0.0
O606 O 0.35816 0.39016 0.79707 0.0
O607 O 0.31318 0.38611 0.80943 0.0
C608 C 0.33937 0.38802 0.81663 0.0
C609 C 0.23293 0.36725 0.78394 0.0
C610 C 0.2985 0.44721 0.76038 0.0
C611 C 0.30408 0.35693 0.72368 0.0
O612 O 0.28179 0.3714 0.72667 0.0
O613 O 0.32436 0.35951 0.74097 0.0
O614 O 0.2583 0.36387 0.7931 0.0
O615 O 0.22882 0.38655 0.76536 0.0
O616 O 0.32022 0.55898 0.50827 0.0
Cd617 Cd 0.35999 0.5687 0.52243 0.0
Cd618 Cd 0.36747 0.51237 0.51771 0.0
O619 O 0.32396 0.51283 0.51369 0.0
O620 O 0.35856 0.60333 0.54622 0.0
O621 O 0.36574 0.56045 0.5631 0.0
C622 C 0.36184 0.58697 0.56768 0.0
C623 C 0.39181 0.48082 0.5469 0.0
C624 C 0.30921 0.53459 0.50837 0.0
C625 C 0.40083 0.55049 0.47931 0.0
O626 O 0.39162 0.52591 0.48427 0.0
O627 O 0.39259 0.5714 0.49376 0.0
O628 O 0.3872 0.50638 0.55477 0.0
O629 O 0.38073 0.47283 0.52346 0.0
O630 O 0.82241 0.07119 0.24613 0.0
Cd631 Cd 0.83238 0.11099 0.23195 0.0
Cd632 Cd 0.77632 0.11985 0.2417 0.0
O633 O 0.77612 0.07638 0.24479 0.0
O634 O 0.86296 0.10753 0.20331 0.0
O635 O 0.81881 0.11946 0.19331 0.0
C636 C 0.84391 0.11331 0.18479 0.0
C637 C 0.74125 0.14461 0.21801 0.0
C638 C 0.79777 0.06088 0.24775 0.0
C639 C 0.81944 0.15243 0.27602 0.0
O640 O 0.79427 0.14395 0.27307 0.0
O641 O 0.83901 0.14326 0.26027 0.0
O642 O 0.73646 0.13315 0.24212 0.0
O643 O 0.76531 0.14016 0.20616 0.0
O644 O 0.67993 0.06839 0.99887 0.0
Cd645 Cd 0.6395 0.0736 0.98405 0.0
Cd646 Cd 0.63809 0.0188 0.98779 0.0
O647 O 0.68101 0.02472 0.98314 0.0
O648 O 0.63776 0.10669 0.95824 0.0
O649 O 0.63704 0.06222 0.94392 0.0
C650 C 0.63831 0.08872 0.93784 0.0
C651 C 0.612 0.98357 0.96567 0.0
C652 C 0.69368 0.04639 0.99235 0.0
C653 C 0.60326 0.04986 0.02818 0.0
O654 O 0.61903 0.02843 0.02561 0.0
O655 O 0.60516 0.07009 0.01079 0.0
O656 O 0.60903 0.00957 0.9583 0.0
O657 O 0.63208 0.97767 0.98293 0.0
O658 O 0.82352 0.94048 0.4955 0.0
Cd659 Cd 0.86377 0.93177 0.48184 0.0
Cd660 Cd 0.86957 0.98767 0.48736 0.0
O661 O 0.82583 0.98632 0.4876 0.0
O662 O 0.8631 0.89747 0.45751 0.0
O663 O 0.86876 0.94082 0.44128 0.0
C664 C 0.86527 0.91432 0.43628 0.0
C665 C 0.8971 0.01804 0.46048 0.0
C666 C 0.81157 0.96435 0.49331 0.0
C667 C 0.90287 0.95079 0.52621 0.0
O668 O 0.89147 0.97466 0.52251 0.0
O669 O 0.89678 0.9302 0.51029 0.0
O670 O 0.88338 0.02702 0.48213 0.0
O671 O 0.89283 0.9925 0.45227 0.0
C672 C 0.24181 0.22972 0.51024 0.0
C673 C 0.26364 0.21392 0.52314 0.0
C674 C 0.28158 0.20032 0.47668 0.0
C675 C 0.25787 0.21324 0.46397 0.0
N676 N 0.21308 0.23689 0.46874 0.0
N677 N 0.30251 0.18135 0.51907 0.0
C678 C 0.23747 0.22734 0.48072 0.0
C679 C 0.28302 0.19838 0.50648 0.0
N680 N 0.22495 0.24673 0.52622 0.0
N681 N 0.30323 0.19079 0.46025 0.0
H682 H 0.30488 0.17989 0.5408 0.0
H683 H 0.31496 0.16705 0.50806 0.0
H684 H 0.30316 0.1924 0.43835 0.0
H685 H 0.32239 0.18384 0.46832 0.0
H686 H 0.21095 0.26127 0.51766 0.0
H687 H 0.22628 0.24781 0.54809 0.0
H688 H 0.19599 0.24426 0.48031 0.0
H689 H 0.20878 0.23528 0.4473 0.0
C690 C 0.05542 0.03061 0.7337 0.0
C691 C 0.04543 0.00473 0.72276 0.0
C692 C 0.03487 0.98824 0.77062 0.0
C693 C 0.04761 0.0129 0.78162 0.0
N694 N 0.0726 0.05652 0.77405 0.0
N695 N 0.02921 0.95723 0.73051 0.0
C696 C 0.05867 0.03378 0.76326 0.0
C697 C 0.03583 0.98315 0.74111 0.0
N698 N 0.06076 0.05255 0.71583 0.0
N699 N 0.02205 0.96956 0.78838 0.0
H700 H 0.02994 0.9525 0.7091 0.0
H701 H 0.02523 0.93967 0.74299 0.0
H702 H 0.02231 0.97166 0.81021 0.0
H703 H 0.00953 0.95298 0.78146 0.0
H704 H 0.06518 0.0729 0.72259 0.0
H705 H 0.05825 0.05111 0.69407 0.0
H706 H 0.08411 0.07059 0.76181 0.0
H707 H 0.0743 0.06044 0.79554 0.0
C708 C 0.2751 0.80022 0.99097 0.0
C709 C 0.25332 0.79181 0.97238 0.0
C710 C 0.22245 0.78134 0.01246 0.0
C711 C 0.24444 0.78935 0.03108 0.0
N712 N 0.2936 0.79937 0.0385 0.0
N713 N 0.20839 0.76952 0.96479 0.0
C714 C 0.27136 0.79674 0.02042 0.0
C715 C 0.22771 0.78066 0.98296 0.0
N716 N 0.29925 0.8119 0.98047 0.0
N717 N 0.19611 0.77593 0.02277 0.0
H718 H 0.21094 0.76984 0.943 0.0
H719 H 0.1908 0.75818 0.97129 0.0
H720 H 0.1914 0.77557 0.04416 0.0
H721 H 0.17838 0.77359 0.01012 0.0
H722 H 0.31435 0.82169 0.99296 0.0
H723 H 0.30354 0.81336 0.95898 0.0
H724 H 0.31435 0.802 0.03193 0.0
H725 H 0.29176 0.79611 0.06014 0.0
C726 C 0.44843 0.02135 0.26945 0.0
C727 C 0.4579 0.99549 0.28099 0.0
C728 C 0.46804 0.97768 0.2335 0.0
C729 C 0.45594 0.00246 0.22193 0.0
N730 N 0.43322 0.04748 0.22829 0.0
N731 N 0.47442 0.94789 0.27446 0.0
C732 C 0.44568 0.02417 0.23976 0.0
C733 C 0.46742 0.97344 0.26316 0.0
N734 N 0.44323 0.04363 0.28693 0.0
N735 N 0.48001 0.95811 0.21611 0.0
H736 H 0.475 0.94404 0.29603 0.0
H737 H 0.47793 0.92985 0.26256 0.0
H738 H 0.47907 0.95931 0.19422 0.0
H739 H 0.49232 0.94145 0.22324 0.0
H740 H 0.43905 0.06395 0.2799 0.0
H741 H 0.44556 0.04244 0.30873 0.0
H742 H 0.42205 0.06226 0.23998 0.0
H743 H 0.4327 0.05147 0.20672 0.0
C744 C 0.51964 0.23005 0.21464 0.0
C745 C 0.53159 0.25439 0.20211 0.0
C746 C 0.48436 0.27242 0.1917 0.0
C747 C 0.47252 0.24675 0.20136 0.0
N748 N 0.47937 0.1989 0.21723 0.0
N749 N 0.52577 0.29664 0.17448 0.0
C750 C 0.49025 0.22499 0.21177 0.0
C751 C 0.51408 0.27493 0.18931 0.0
N752 N 0.53637 0.21162 0.22907 0.0
N753 N 0.46725 0.29484 0.1859 0.0
H754 H 0.54743 0.29934 0.17236 0.0
H755 H 0.51404 0.31054 0.16223 0.0
H756 H 0.44543 0.29412 0.18828 0.0
H757 H 0.47482 0.31494 0.18155 0.0
H758 H 0.52842 0.19536 0.24144 0.0
H759 H 0.5582 0.21369 0.23032 0.0
H760 H 0.49175 0.18142 0.22186 0.0
H761 H 0.45818 0.19391 0.21454 0.0
C762 C 0.0221 0.26965 0.46787 0.0
C763 C 0.99696 0.28049 0.45584 0.0
C764 C 0.97929 0.23243 0.44885 0.0
C765 C 0.00554 0.22166 0.4581 0.0
N766 N 0.05316 0.22955 0.4739 0.0
N767 N 0.95225 0.27266 0.43294 0.0
C768 C 0.02719 0.24012 0.46727 0.0
C769 C 0.97574 0.26199 0.44574 0.0
N770 N 0.04125 0.2876 0.47966 0.0
N771 N 0.95738 0.21436 0.44411 0.0
H772 H 0.94792 0.29412 0.43173 0.0
H773 H 0.93779 0.2604 0.42199 0.0
H774 H 0.95914 0.19261 0.4466 0.0
H775 H 0.93683 0.22089 0.44021 0.0
H776 H 0.05818 0.28092 0.49186 0.0
H777 H 0.0394 0.30944 0.47875 0.0
H778 H 0.07087 0.24199 0.47723 0.0
H779 H 0.05769 0.2081 0.47421 0.0
C780 C 0.0117 0.77185 0.72533 0.0
C781 C 0.03 0.7509 0.71431 0.0
C782 C 0.98934 0.72236 0.7004 0.0
C783 C 0.97107 0.74246 0.71296 0.0
N784 N 0.9647 0.78423 0.74109 0.0
N785 N 0.03676 0.70375 0.69693 0.0
C786 C 0.98224 0.76644 0.72681 0.0
C787 C 0.01895 0.72544 0.70342 0.0
N788 N 0.0222 0.7976 0.73275 0.0
N789 N 0.97844 0.7005 0.68522 0.0
H790 H 0.05855 0.70506 0.69938 0.0
H791 H 0.02989 0.68362 0.69173 0.0
H792 H 0.95693 0.69677 0.68334 0.0
H793 H 0.99064 0.68718 0.6728 0.0
H794 H 0.0096 0.81479 0.73783 0.0
H795 H 0.04351 0.80268 0.73153 0.0
H796 H 0.97188 0.80011 0.75435 0.0
H797 H 0.94287 0.78197 0.7413 0.0
C798 C 0.47127 0.76366 0.94692 0.0
C799 C 0.4918 0.78202 0.95842 0.0
C800 C 0.52145 0.74165 0.97101 0.0
C801 C 0.5003 0.72317 0.96067 0.0
N802 N 0.45254 0.71627 0.94485 0.0
N803 N 0.53411 0.78897 0.98548 0.0
C804 C 0.47449 0.73409 0.95025 0.0
C805 C 0.51611 0.77112 0.97189 0.0
N806 N 0.44876 0.77448 0.93257 0.0
N807 N 0.54723 0.73126 0.97855 0.0
H808 H 0.53155 0.81077 0.98553 0.0
H809 H 0.5504 0.78212 0.99845 0.0
H810 H 0.55212 0.7099 0.97837 0.0
H811 H 0.56458 0.7439 0.98292 0.0
H812 H 0.43505 0.76224 0.92066 0.0
H813 H 0.44469 0.79601 0.93108 0.0
H814 H 0.43229 0.72313 0.94001 0.0
H815 H 0.45375 0.69457 0.94789 0.0
C816 C 0.51809 0.7691 0.28369 0.0
C817 C 0.53029 0.74626 0.2986 0.0
C818 C 0.48319 0.72752 0.30863 0.0
C819 C 0.47094 0.75192 0.29652 0.0
N820 N 0.47687 0.79813 0.27601 0.0
N821 N 0.52446 0.70592 0.32912 0.0
C822 C 0.4884 0.77324 0.28475 0.0
C823 C 0.51284 0.72619 0.31232 0.0
N824 N 0.53488 0.78705 0.2687 0.0
N825 N 0.46663 0.70494 0.3153 0.0
H826 H 0.54606 0.70351 0.33194 0.0
H827 H 0.51259 0.69288 0.34216 0.0
H828 H 0.44494 0.70459 0.31187 0.0
H829 H 0.47468 0.68547 0.32137 0.0
H830 H 0.52705 0.80186 0.25456 0.0
H831 H 0.55681 0.78605 0.26899 0.0
H832 H 0.48877 0.81569 0.27054 0.0
H833 H 0.45535 0.80226 0.27638 0.0
C834 C 0.52492 0.25973 0.54921 0.0
C835 C 0.5033 0.27781 0.53913 0.0
C836 C 0.47366 0.23685 0.52855 0.0
C837 C 0.49581 0.21883 0.53751 0.0
N838 N 0.54452 0.21261 0.55013 0.0
N839 N 0.45895 0.28392 0.51518 0.0
C840 C 0.52203 0.23015 0.54604 0.0
C841 C 0.47834 0.26644 0.52731 0.0
N842 N 0.54807 0.27077 0.56224 0.0
N843 N 0.44766 0.22591 0.52285 0.0
H844 H 0.46078 0.30578 0.5153 0.0
H845 H 0.44199 0.27675 0.50331 0.0
H846 H 0.44328 0.20443 0.52344 0.0
H847 H 0.42977 0.23816 0.51961 0.0
H848 H 0.56278 0.25865 0.57307 0.0
H849 H 0.55171 0.2923 0.56396 0.0
H850 H 0.56498 0.21971 0.55346 0.0
H851 H 0.54329 0.19085 0.54746 0.0
C852 C 0.99005 0.28008 0.78433 0.0
C853 C 0.97158 0.25668 0.78616 0.0
C854 C 0.01171 0.22415 0.78645 0.0
C855 C 0.03017 0.24763 0.78628 0.0
N856 N 0.03799 0.29703 0.7784 0.0
N857 N 0.96366 0.20682 0.78261 0.0
C858 C 0.01962 0.27537 0.78314 0.0
C859 C 0.98211 0.22876 0.78522 0.0
N860 N 0.97929 0.30677 0.78479 0.0
N861 N 0.02254 0.19758 0.78869 0.0
H862 H 0.94191 0.2097 0.78147 0.0
H863 H 0.9697 0.18602 0.77944 0.0
H864 H 0.04409 0.19344 0.78795 0.0
H865 H 0.01049 0.17967 0.79226 0.0
H866 H 0.99144 0.32483 0.78706 0.0
H867 H 0.95776 0.31095 0.78399 0.0
H868 H 0.03184 0.31743 0.77337 0.0
H869 H 0.05974 0.29414 0.77729 0.0
C870 C 0.97084 0.74602 0.04506 0.0
C871 C 0.99149 0.72742 0.0341 0.0
C872 C 0.02231 0.76734 0.02305 0.0
C873 C 0.00136 0.78603 0.03341 0.0
N874 N 0.9535 0.79396 0.0483 0.0
N875 N 0.03428 0.72001 0.00789 0.0
C876 C 0.97494 0.77557 0.04266 0.0
C877 C 0.01633 0.73802 0.02138 0.0
N878 N 0.94756 0.73541 0.05828 0.0
N879 N 0.0485 0.77733 0.01645 0.0
H880 H 0.03102 0.69832 0.0071 0.0
H881 H 0.05117 0.7267 0.99563 0.0
H882 H 0.05382 0.79859 0.01741 0.0
H883 H 0.06566 0.76443 0.01205 0.0
H884 H 0.93354 0.74767 0.06984 0.0
H885 H 0.94301 0.71394 0.05908 0.0
H886 H 0.93292 0.7877 0.05245 0.0
H887 H 0.95566 0.81572 0.04629 0.0
C888 C 0.18876 0.49082 0.22005 0.0
C889 C 0.20092 0.4729 0.24061 0.0
C890 C 0.20887 0.5132 0.27174 0.0
C891 C 0.19866 0.53142 0.25036 0.0
N892 N 0.18287 0.53848 0.20265 0.0
N893 N 0.22613 0.46678 0.2842 0.0
C894 C 0.18957 0.52048 0.2241 0.0
C895 C 0.21214 0.48405 0.26589 0.0
N896 N 0.17623 0.47942 0.1968 0.0
N897 N 0.21411 0.52352 0.29809 0.0
H898 H 0.22805 0.44513 0.28113 0.0
H899 H 0.2376 0.47413 0.30134 0.0
H900 H 0.21155 0.54467 0.30339 0.0
H901 H 0.21859 0.51085 0.31539 0.0
H902 H 0.16407 0.49098 0.18271 0.0
H903 H 0.17647 0.4579 0.19248 0.0
H904 H 0.17896 0.53196 0.18212 0.0
H905 H 0.18347 0.56032 0.20475 0.0
C906 C 0.69924 0.0146 0.73288 0.0
C907 C 0.70787 0.02543 0.7593 0.0
C908 C 0.71785 0.97745 0.77581 0.0
C909 C 0.70636 0.9666 0.75048 0.0
N910 N 0.68182 0.97463 0.70668 0.0
N911 N 0.7209 0.01714 0.8077 0.0
C912 C 0.6957 0.98512 0.72957 0.0
C913 C 0.71618 0.00687 0.78124 0.0
N914 N 0.69567 0.03237 0.71051 0.0
N915 N 0.73014 0.95964 0.79477 0.0
H916 H 0.71917 0.03842 0.81276 0.0
H917 H 0.72402 0.00437 0.82523 0.0
H918 H 0.73041 0.93784 0.79228 0.0
H919 H 0.74174 0.96658 0.81201 0.0
H920 H 0.69234 0.02539 0.69001 0.0
H921 H 0.69888 0.05404 0.71179 0.0
H922 H 0.67087 0.9872 0.69245 0.0
H923 H 0.67917 0.95318 0.70309 0.0
C924 C 0.23991 0.44322 0.02769 0.0
C925 C 0.22409 0.45864 0.00757 0.0
C926 C 0.26714 0.4693 0.98117 0.0
C927 C 0.2832 0.45516 0.00209 0.0
N928 N 0.28583 0.43295 0.04763 0.0
N929 N 0.22241 0.48984 0.96758 0.0
C930 C 0.26983 0.44319 0.02599 0.0
C931 C 0.23767 0.47285 0.98511 0.0
N932 N 0.22628 0.42858 0.0484 0.0
N933 N 0.27977 0.47803 0.9568 0.0
H934 H 0.20057 0.49184 0.96882 0.0
H935 H 0.2315 0.50347 0.95303 0.0
H936 H 0.30127 0.47604 0.95297 0.0
H937 H 0.2687 0.48526 0.93933 0.0
H938 H 0.23618 0.41416 0.0616 0.0
H939 H 0.20456 0.42962 0.05146 0.0
H940 H 0.27757 0.42656 0.06688 0.0
H941 H 0.30779 0.43308 0.04733 0.0
C942 C 0.78259 0.01305 0.23108 0.0
C943 C 0.79449 0.03023 0.25246 0.0
C944 C 0.80608 0.98831 0.2803 0.0
C945 C 0.79338 0.97121 0.25935 0.0
N946 N 0.76551 0.96697 0.21719 0.0
N947 N 0.81241 0.03516 0.2996 0.0
C948 C 0.7802 0.98352 0.23556 0.0
C949 C 0.80483 0.0181 0.2777 0.0
N950 N 0.77504 0.02471 0.20586 0.0
N951 N 0.81956 0.97602 0.30259 0.0
H952 H 0.81134 0.05707 0.29855 0.0
H953 H 0.81739 0.02778 0.3196 0.0
H954 H 0.81926 0.9544 0.30638 0.0
H955 H 0.83233 0.98701 0.31658 0.0
H956 H 0.76951 0.01297 0.18824 0.0
H957 H 0.77626 0.04621 0.20171 0.0
H958 H 0.75271 0.97496 0.20131 0.0
H959 H 0.76447 0.94512 0.21898 0.0
C960 C 0.74139 0.05941 0.97406 0.0
C961 C 0.72469 0.04611 0.99494 0.0
C962 C 0.76697 0.03471 0.02221 0.0
C963 C 0.78387 0.04665 1.00057 0.0
N964 N 0.78782 0.06552 0.95363 0.0
N965 N 0.72118 0.01717 0.03647 0.0
C966 C 0.77124 0.05774 0.97586 0.0
C967 C 0.73739 0.03244 0.01822 0.0
N968 N 0.72868 0.07379 0.9526 0.0
N969 N 0.77892 0.02696 0.04723 0.0
H970 H 0.6993 0.01605 0.03499 0.0
H971 H 0.72951 0.00397 0.05185 0.0
H972 H 0.80045 0.0282 0.0512 0.0
H973 H 0.76731 0.02143 0.06497 0.0
H974 H 0.73949 0.08678 0.93864 0.0
H975 H 0.70691 0.07417 0.94973 0.0
H976 H 0.77993 0.07109 0.93398 0.0
H977 H 0.80973 0.06397 0.95397 0.0
C978 C 0.3082 0.48995 0.73093 0.0
C979 C 0.29842 0.47823 0.75663 0.0
C980 C 0.28781 0.52565 0.77439 0.0
C981 C 0.30021 0.53729 0.74988 0.0
N982 N 0.32464 0.53116 0.70574 0.0
N983 N 0.28189 0.48477 0.8043 0.0
C984 C 0.31126 0.51961 0.72849 0.0
C985 C 0.28881 0.49602 0.77872 0.0
N986 N 0.313 0.47285 0.70828 0.0
N987 N 0.27496 0.54291 0.79351 0.0
H988 H 0.28188 0.46325 0.80837 0.0
H989 H 0.27817 0.49679 0.82222 0.0
H990 H 0.27511 0.5648 0.79186 0.0
H991 H 0.26254 0.53559 0.81002 0.0
H992 H 0.31724 0.48033 0.68812 0.0
H993 H 0.31004 0.45111 0.70884 0.0
H994 H 0.33632 0.51944 0.69137 0.0
H995 H 0.32562 0.55278 0.70206 0.0
C996 C 0.26 0.52177 0.52328 0.0
C997 C 0.27875 0.53184 0.50224 0.0
C998 C 0.2388 0.54405 0.47192 0.0
C999 C 0.22014 0.53325 0.4926 0.0
N1000 N 0.21255 0.50708 0.53535 0.0
N1001 N 0.2867 0.54659 0.45436 0.0
C1002 C 0.23065 0.52042 0.51739 0.0
C1003 C 0.26833 0.54124 0.47588 0.0
N1004 N 0.27 0.51516 0.54944 0.0
N1005 N 0.22826 0.55748 0.44873 0.0
H1006 H 0.30845 0.54425 0.45641 0.0
H1007 H 0.2804 0.55081 0.43381 0.0
H1008 H 0.20677 0.55865 0.4443 0.0
H1009 H 0.24064 0.56889 0.43469 0.0
H1010 H 0.25708 0.51085 0.56661 0.0
H1011 H 0.29127 0.5161 0.55476 0.0
H1012 H 0.21916 0.49472 0.5522 0.0
H1013 H 0.19083 0.50651 0.53215 0.0
C1014 C 0.77636 0.69669 0.01391 0.0
C1015 C 0.75539 0.70867 0.03153 0.0
C1016 C 0.72647 0.71995 0.99027 0.0
C1017 C 0.74793 0.7089 0.97255 0.0
N1018 N 0.79557 0.6924 0.9668 0.0
N1019 N 0.71268 0.73562 0.03688 0.0
C1020 C 0.77352 0.6988 0.9842 0.0
C1021 C 0.7312 0.72168 0.01979 0.0
N1022 N 0.79895 0.68316 0.02559 0.0
N1023 N 0.70095 0.72732 0.97914 0.0
H1024 H 0.71449 0.73597 0.05874 0.0
H1025 H 0.69657 0.74843 0.02936 0.0
H1026 H 0.69659 0.7268 0.95768 0.0
H1027 H 0.68331 0.73205 0.99126 0.0
H1028 H 0.81301 0.67091 0.01408 0.0
H1029 H 0.80287 0.68277 0.04718 0.0
H1030 H 0.81574 0.68767 0.97394 0.0
H1031 H 0.79449 0.69439 0.94496 0.0
C1032 C 0.52422 0.51656 0.2609 0.0
C1033 C 0.53653 0.49656 0.27944 0.0
C1034 C 0.55238 0.4685 0.23924 0.0
C1035 C 0.53865 0.48755 0.22073 0.0
N1036 N 0.50749 0.52702 0.21379 0.0
N1037 N 0.55609 0.45029 0.2867 0.0
C1038 C 0.52306 0.5106 0.23156 0.0
C1039 C 0.54876 0.47155 0.26872 0.0
N1040 N 0.51529 0.54199 0.271 0.0
N1041 N 0.56949 0.44789 0.22873 0.0
H1042 H 0.55311 0.45151 0.30842 0.0
H1043 H 0.56242 0.43043 0.27993 0.0
H1044 H 0.57241 0.44455 0.20729 0.0
H1045 H 0.58256 0.43552 0.24126 0.0
H1046 H 0.50915 0.55862 0.25812 0.0
H1047 H 0.51626 0.54749 0.2922 0.0
H1048 H 0.4933 0.54221 0.22076 0.0
H1049 H 0.50712 0.52404 0.19205 0.0
C1050 C 0.78502 0.28348 0.49017 0.0
C1051 C 0.761 0.28242 0.47247 0.0
C1052 C 0.73051 0.27642 0.51368 0.0
C1053 C 0.75396 0.28179 0.53135 0.0
N1054 N 0.80344 0.29121 0.53718 0.0
N1055 N 0.71078 0.27847 0.4666 0.0
C1056 C 0.78127 0.28533 0.51981 0.0
C1057 C 0.73369 0.27885 0.48401 0.0
N1058 N 0.81136 0.28252 0.47859 0.0
N1059 N 0.70531 0.26873 0.52529 0.0
H1060 H 0.71248 0.27864 0.44471 0.0
H1061 H 0.69008 0.27944 0.47373 0.0
H1062 H 0.70231 0.26673 0.54693 0.0
H1063 H 0.68806 0.26202 0.51359 0.0
H1064 H 0.82974 0.28057 0.49034 0.0
H1065 H 0.81482 0.28136 0.45696 0.0
H1066 H 0.8232 0.29738 0.52999 0.0
H1067 H 0.80167 0.29138 0.55907 0.0
C1068 C 0.96041 0.52502 0.74084 0.0
C1069 C 0.95134 0.50249 0.72337 0.0
C1070 C 0.93755 0.47531 0.7651 0.0
C1071 C 0.94831 0.49703 0.78259 0.0
N1072 N 0.9729 0.54116 0.7876 0.0
N1073 N 0.93703 0.45403 0.71878 0.0
C1074 C 0.96078 0.52138 0.77057 0.0
C1075 C 0.94138 0.47706 0.73548 0.0
N1076 N 0.96727 0.55042 0.72915 0.0
N1077 N 0.92358 0.45299 0.77674 0.0
H1078 H 0.94048 0.45416 0.6971 0.0
H1079 H 0.93274 0.43402 0.72661 0.0
H1080 H 0.92147 0.45004 0.79835 0.0
H1081 H 0.91231 0.43837 0.76496 0.0
H1082 H 0.97059 0.56864 0.74082 0.0
H1083 H 0.96754 0.5541 0.70755 0.0
H1084 H 0.98555 0.55742 0.78013 0.0
H1085 H 0.97172 0.54049 0.8095 0.0
C1086 C 0.76876 0.95655 0.52297 0.0
C1087 C 0.78062 0.96614 0.49733 0.0
C1088 C 0.73321 0.97599 0.47907 0.0
C1089 C 0.72141 0.96316 0.50334 0.0
N1090 N 0.72792 0.93809 0.54714 0.0
N1091 N 0.77433 0.98147 0.4493 0.0
C1092 C 0.73919 0.95251 0.52493 0.0
C1093 C 0.76293 0.97523 0.47498 0.0
N1094 N 0.78573 0.95228 0.54583 0.0
N1095 N 0.71601 0.9886 0.45975 0.0
H1096 H 0.79589 0.98077 0.44522 0.0
H1097 H 0.76235 0.98507 0.43131 0.0
H1098 H 0.69411 0.98821 0.46117 0.0
H1099 H 0.72346 0.00111 0.44337 0.0
H1100 H 0.77806 0.94816 0.56595 0.0
H1101 H 0.80743 0.95565 0.54536 0.0
H1102 H 0.73999 0.927 0.56169 0.0
H1103 H 0.70637 0.93533 0.54995 0.0
C1104 C 0.21184 0.30195 0.27955 0.0
C1105 C 0.20057 0.32788 0.28917 0.0
C1106 C 0.20214 0.31114 0.33795 0.0
C1107 C 0.21351 0.28525 0.32833 0.0
N1108 N 0.2244 0.25363 0.29006 0.0
N1109 N 0.18002 0.35579 0.32601 0.0
C1110 C 0.21657 0.27982 0.29911 0.0
C1111 C 0.1941 0.33202 0.31797 0.0
N1112 N 0.21966 0.29909 0.25196 0.0
N1113 N 0.19969 0.3159 0.36621 0.0
H1114 H 0.174 0.37135 0.31171 0.0
H1115 H 0.17241 0.35923 0.34625 0.0
H1116 H 0.20392 0.30044 0.38124 0.0
H1117 H 0.1946 0.33533 0.37492 0.0
H1118 H 0.23151 0.28231 0.24434 0.0
H1119 H 0.21589 0.31445 0.23674 0.0
H1120 H 0.22385 0.24741 0.26907 0.0
H1121 H 0.22958 0.2372 0.30363 0.0
C1122 C 0.97434 0.95826 0.55958 0.0
C1123 C 0.96711 0.95868 0.58864 0.0
C1124 C 0.91783 0.94865 0.5768 0.0
C1125 C 0.92514 0.94828 0.54787 0.0
N1126 N 0.96097 0.9455 0.51204 0.0
N1127 N 0.93393 0.9478 0.62533 0.0
C1128 C 0.95368 0.95039 0.53944 0.0
C1129 C 0.9394 0.95177 0.59737 0.0
N1130 N 1.00015 0.96763 0.55087 0.0
N1131 N 0.89015 0.94681 0.58448 0.0
H1132 H 0.94949 0.94955 0.64072 0.0
H1133 H 0.91481 0.94036 0.63304 0.0
H1134 H 0.8741 0.94296 0.56999 0.0
H1135 H 0.88295 0.95032 0.60487 0.0
H1136 H 0.00524 0.97125 0.52987 0.0
H1137 H 0.01589 0.97419 0.56459 0.0
H1138 H 0.98174 0.94385 0.50521 0.0
H1139 H 0.94631 0.94051 0.49652 0.0
C1140 C 0.3152 0.69757 0.84453 0.0
C1141 C 0.30645 0.72487 0.83599 0.0
C1142 C 0.31143 0.71145 0.78635 0.0
C1143 C 0.31794 0.68365 0.79496 0.0
N1144 N 0.33257 0.65128 0.83086 0.0
N1145 N 0.30265 0.76 0.79925 0.0
C1146 C 0.32208 0.67712 0.82372 0.0
C1147 C 0.30699 0.73262 0.80705 0.0
N1148 N 0.31621 0.69122 0.87257 0.0
N1149 N 0.30767 0.71709 0.75836 0.0
H1150 H 0.29781 0.77603 0.81332 0.0
H1151 H 0.30579 0.76751 0.77893 0.0
H1152 H 0.31221 0.70249 0.74261 0.0
H1153 H 0.29894 0.73562 0.7506 0.0
H1154 H 0.31938 0.67108 0.88054 0.0
H1155 H 0.31332 0.70638 0.88819 0.0
H1156 H 0.33794 0.64535 0.85122 0.0
H1157 H 0.33789 0.63622 0.81578 0.0
C1158 C 0.55474 0.03316 0.03939 0.0
C1159 C 0.57909 0.0483 0.04779 0.0
C1160 C 0.55976 0.05388 0.09537 0.0
C1161 C 0.53536 0.03892 0.08687 0.0
N1162 N 0.50704 0.01842 0.05007 0.0
N1163 N 0.60329 0.07714 0.08157 0.0
C1164 C 0.53201 0.02998 0.05858 0.0
C1165 C 0.58109 0.06004 0.07514 0.0
N1166 N 0.55382 0.02091 0.01334 0.0
N1167 N 0.56275 0.06149 0.12294 0.0
H1168 H 0.61935 0.08158 0.06724 0.0
H1169 H 0.60493 0.08848 0.10021 0.0
H1170 H 0.54694 0.05833 0.13788 0.0
H1171 H 0.58119 0.06972 0.13139 0.0
H1172 H 0.53863 0.00637 0.00725 0.0
H1173 H 0.56927 0.02403 0.99807 0.0
H1174 H 0.50202 0.01434 0.02916 0.0
H1175 H 0.49025 0.01467 0.0637 0.0
C1176 C 0.18043 0.69231 0.15793 0.0
C1177 C 0.18916 0.71948 0.16657 0.0
C1178 C 0.18332 0.70563 0.21602 0.0
C1179 C 0.17964 0.67737 0.20735 0.0
N1180 N 0.17391 0.64316 0.17052 0.0
N1181 N 0.20126 0.75173 0.20409 0.0
C1182 C 0.1776 0.67057 0.17838 0.0
C1183 C 0.19061 0.72634 0.19569 0.0
N1184 N 0.17468 0.6875 0.13018 0.0
N1185 N 0.18054 0.71251 0.24381 0.0
H1186 H 0.20728 0.76757 0.1902 0.0
H1187 H 0.20627 0.75641 0.22489 0.0
H1188 H 0.176 0.69768 0.25934 0.0
H1189 H 0.18015 0.73316 0.25112 0.0
H1190 H 0.166 0.66888 0.12262 0.0
H1191 H 0.1763 0.70326 0.11494 0.0
H1192 H 0.17558 0.63613 0.14985 0.0
H1193 H 0.17027 0.6271 0.18506 0.0
C1194 C 0.58122 0.9326 0.42663 0.0
C1195 C 0.57538 0.93648 0.45558 0.0
C1196 C 0.52573 0.94623 0.44488 0.0
C1197 C 0.5325 0.9464 0.41569 0.0
N1198 N 0.56542 0.93769 0.37817 0.0
N1199 N 0.54269 0.9456 0.49315 0.0
C1200 C 0.55987 0.93862 0.40639 0.0
C1201 C 0.54762 0.94224 0.46497 0.0
N1202 N 0.60727 0.92321 0.41875 0.0
N1203 N 0.49857 0.95061 0.45346 0.0
H1204 H 0.55784 0.94125 0.50843 0.0
H1205 H 0.52414 0.95361 0.50159 0.0
H1206 H 0.48219 0.95573 0.43986 0.0
H1207 H 0.49161 0.94766 0.474 0.0
H1208 H 0.61288 0.91811 0.39823 0.0
H1209 H 0.62299 0.91858 0.43339 0.0
H1210 H 0.58539 0.93507 0.3696 0.0
H1211 H 0.54974 0.94014 0.36299 0.0
C1212 C 0.31643 0.31265 0.65771 0.0
C1213 C 0.29548 0.29178 0.66176 0.0
C1214 C 0.28517 0.31051 0.70868 0.0
C1215 C 0.3036 0.33338 0.70329 0.0
N1216 N 0.33607 0.35748 0.67276 0.0
N1217 N 0.25794 0.27188 0.68971 0.0
C1218 C 0.31932 0.33467 0.67792 0.0
C1219 C 0.27943 0.29088 0.68695 0.0
N1220 N 0.33359 0.31119 0.63466 0.0
N1221 N 0.27367 0.30722 0.73489 0.0
H1222 H 0.25361 0.25637 0.67481 0.0
H1223 H 0.2431 0.27262 0.70583 0.0
H1224 H 0.27756 0.32107 0.75147 0.0
H1225 H 0.26239 0.28948 0.74107 0.0
H1226 H 0.35096 0.32416 0.63155 0.0
H1227 H 0.33158 0.29549 0.61945 0.0
H1228 H 0.34582 0.36135 0.65354 0.0
H1229 H 0.33902 0.37353 0.68744 0.0
C1230 C 0.95829 0.06526 0.96563 0.0
C1231 C 0.93059 0.07089 0.95607 0.0
C1232 C 0.94624 0.06822 0.90698 0.0
C1233 C 0.97353 0.06047 0.91647 0.0
N1234 N 0.00736 0.0568 0.95437 0.0
N1235 N 0.89882 0.08382 0.91904 0.0
C1236 C 0.98023 0.06104 0.94566 0.0
C1237 C 0.92484 0.07447 0.92708 0.0
N1238 N 0.96309 0.06217 0.99386 0.0
N1239 N 0.94083 0.06894 0.87873 0.0
H1240 H 0.88309 0.08868 0.9336 0.0
H1241 H 0.89326 0.08864 0.89844 0.0
H1242 H 0.95657 0.06637 0.86362 0.0
H1243 H 0.92091 0.07156 0.87006 0.0
H1244 H 0.9816 0.05421 0.00243 0.0
H1245 H 0.94788 0.06665 0.00905 0.0
H1246 H 0.01424 0.06007 0.97488 0.0
H1247 H 0.0238 0.0515 0.94091 0.0
C1248 C 0.35475 0.18661 0.30824 0.0
C1249 C 0.34678 0.18452 0.27953 0.0
C1250 C 0.29793 0.17562 0.29325 0.0
C1251 C 0.30521 0.18098 0.3217 0.0
N1252 N 0.34088 0.18318 0.35749 0.0
N1253 N 0.31458 0.16251 0.24693 0.0
C1254 C 0.33388 0.1836 0.3296 0.0
C1255 C 0.31961 0.17419 0.27267 0.0
N1256 N 0.38224 0.1919 0.31476 0.0
N1257 N 0.2703 0.17369 0.2855 0.0
H1258 H 0.33057 0.15832 0.23256 0.0
H1259 H 0.29552 0.15308 0.24161 0.0
H1260 H 0.25373 0.17436 0.29987 0.0
H1261 H 0.26376 0.17343 0.26458 0.0
H1262 H 0.3894 0.19689 0.33482 0.0
H1263 H 0.3981 0.19127 0.29954 0.0
H1264 H 0.36144 0.18334 0.365 0.0
H1265 H 0.32586 0.18051 0.37332 0.0
C1266 C 0.06767 0.07746 0.58278 0.0
C1267 C 0.06549 0.04845 0.5764 0.0
C1268 C 0.05988 0.05949 0.52624 0.0
C1269 C 0.05722 0.08849 0.53332 0.0
N1270 N 0.06157 0.12585 0.56719 0.0
N1271 N 0.06041 0.01107 0.54259 0.0
C1272 C 0.06238 0.09771 0.56128 0.0
C1273 C 0.06258 0.03924 0.54817 0.0
N1274 N 0.07498 0.08541 0.60944 0.0
N1275 N 0.05923 0.05114 0.49871 0.0
H1276 H 0.06359 0.99559 0.5578 0.0
H1277 H 0.0541 0.00285 0.52332 0.0
H1278 H 0.05572 0.0647 0.48193 0.0
H1279 H 0.06428 0.0309 0.49205 0.0
H1280 H 0.0789 0.10606 0.61549 0.0
H1281 H 0.07921 0.0708 0.6253 0.0
H1282 H 0.06192 0.13418 0.58742 0.0
H1283 H 0.06004 0.14116 0.55151 0.0
C1284 C 0.15563 0.8123 0.81446 0.0
C1285 C 0.16414 0.80533 0.78664 0.0
C1286 C 0.21378 0.81099 0.79991 0.0
C1287 C 0.20528 0.81582 0.82808 0.0
N1288 N 0.16925 0.82756 0.86149 0.0
N1289 N 0.20069 0.80508 0.75105 0.0
C1290 C 0.17646 0.81873 0.83507 0.0
C1291 C 0.19299 0.80728 0.7787 0.0
N1292 N 0.12762 0.8121 0.82111 0.0
N1293 N 0.24182 0.8082 0.79385 0.0
H1294 H 0.18663 0.80112 0.73479 0.0
H1295 H 0.22086 0.80937 0.74366 0.0
H1296 H 0.25762 0.8123 0.80852 0.0
H1297 H 0.24957 0.80056 0.77485 0.0
H1298 H 0.11977 0.81389 0.84146 0.0
H1299 H 0.11194 0.80961 0.80595 0.0
H1300 H 0.14878 0.83199 0.86786 0.0
H1301 H 0.18431 0.83244 0.8767 0.0
C1302 C 0.43376 0.90469 0.06108 0.0
C1303 C 0.43629 0.91393 0.03274 0.0
C1304 C 0.43273 0.96308 0.04812 0.0
C1305 C 0.43225 0.95391 0.07653 0.0
N1306 N 0.42514 0.91681 0.11013 0.0
N1307 N 0.42733 0.95111 0.99897 0.0
C1308 C 0.43035 0.92487 0.08301 0.0
C1309 C 0.43203 0.94282 0.02611 0.0
N1310 N 0.43516 0.87654 0.06685 0.0
N1311 N 0.43577 0.99107 0.04209 0.0
H1312 H 0.4257 0.93726 0.98217 0.0
H1313 H 0.42155 0.97153 0.99349 0.0
H1314 H 0.43575 0.00674 0.05742 0.0
H1315 H 0.44041 0.99867 0.02206 0.0
H1316 H 0.43689 0.8682 0.08701 0.0
H1317 H 0.435 0.86134 0.051 0.0
H1318 H 0.42143 0.89614 0.1163 0.0
H1319 H 0.42239 0.93133 0.12638 0.0
C1320 C 0.33274 0.77205 0.18808 0.0
C1321 C 0.33956 0.79066 0.21054 0.0
C1322 C 0.30306 0.8231 0.19319 0.0
C1323 C 0.29861 0.80539 0.16948 0.0
N1324 N 0.31928 0.77004 0.13932 0.0
N1325 N 0.33708 0.83858 0.22779 0.0
C1326 C 0.31707 0.78242 0.16514 0.0
C1327 C 0.32661 0.81774 0.21107 0.0
N1328 N 0.33848 0.74389 0.18937 0.0
N1329 N 0.28445 0.84399 0.19973 0.0
H1330 H 0.3556 0.83631 0.23933 0.0
H1331 H 0.32944 0.85915 0.22722 0.0
H1332 H 0.26656 0.84838 0.18791 0.0
H1333 H 0.28563 0.85535 0.21846 0.0
H1334 H 0.33205 0.72993 0.1737 0.0
H1335 H 0.34527 0.73369 0.20751 0.0
H1336 H 0.33385 0.75413 0.13516 0.0
H1337 H 0.3091 0.77807 0.12157 0.0
C1338 C 0.43356 0.07074 0.41826 0.0
C1339 C 0.43405 0.04183 0.42558 0.0
C1340 C 0.44484 0.05368 0.4745 0.0
C1341 C 0.44506 0.08272 0.46713 0.0
N1342 N 0.43262 0.11927 0.43437 0.0
N1343 N 0.43242 0.00595 0.46126 0.0
C1344 C 0.43706 0.09136 0.4397 0.0
C1345 C 0.43682 0.03344 0.45401 0.0
N1346 N 0.43078 0.07834 0.39066 0.0
N1347 N 0.45454 0.04514 0.50022 0.0
H1348 H 0.42712 0.99054 0.44657 0.0
H1349 H 0.43139 0.99894 0.482 0.0
H1350 H 0.46094 0.05896 0.51593 0.0
H1351 H 0.45833 0.02418 0.50537 0.0
H1352 H 0.4336 0.09879 0.38334 0.0
H1353 H 0.42673 0.06372 0.37479 0.0
H1354 H 0.42451 0.1269 0.4155 0.0
H1355 H 0.43466 0.13466 0.44989 0.0
C1356 C 0.16747 0.18254 0.69724 0.0
C1357 C 0.16086 0.21062 0.70536 0.0
C1358 C 0.18198 0.2273 0.66181 0.0
C1359 C 0.1956 0.20113 0.65764 0.0
N1360 N 0.19632 0.15138 0.66882 0.0
N1361 N 0.16957 0.26043 0.69759 0.0
C1362 C 0.18696 0.17788 0.67464 0.0
C1363 C 0.1702 0.23324 0.68826 0.0
N1364 N 0.15404 0.16046 0.70986 0.0
N1365 N 0.17935 0.24624 0.64038 0.0
H1366 H 0.16438 0.26594 0.71818 0.0
H1367 H 0.17802 0.27698 0.68587 0.0
H1368 H 0.18444 0.2411 0.61963 0.0
H1369 H 0.16827 0.26507 0.64266 0.0
H1370 H 0.156 0.13969 0.70316 0.0
H1371 H 0.13866 0.16311 0.72528 0.0
H1372 H 0.19468 0.13472 0.68298 0.0
H1373 H 0.20499 0.14586 0.64948 0.0
C1374 C 0.06713 0.91378 0.93877 0.0
C1375 C 0.05859 0.92185 0.96626 0.0
C1376 C 0.06452 0.97171 0.95391 0.0
C1377 C 0.07099 0.96363 0.92595 0.0
N1378 N 0.0847 0.92819 0.89273 0.0
N1379 N 0.05491 0.95788 0.00207 0.0
C1380 C 0.07449 0.93494 0.91877 0.0
C1381 C 0.0595 0.95062 0.97459 0.0
N1382 N 0.06749 0.88588 0.93176 0.0
N1383 N 0.0615 0.99966 0.96016 0.0
H1384 H 0.04943 0.94355 0.01768 0.0
H1385 H 0.05828 0.97796 0.01008 0.0
H1386 H 0.0666 0.01561 0.94594 0.0
H1387 H 0.05292 0.00726 0.97881 0.0
H1388 H 0.0706 0.87832 0.91147 0.0
H1389 H 0.06407 0.86997 0.94652 0.0
H1390 H 0.08957 0.90785 0.8863 0.0
H1391 H 0.09025 0.94351 0.87799 0.0
C1392 C 0.31017 0.33424 0.22246 0.0
C1393 C 0.28892 0.34074 0.20239 0.0
C1394 C 0.30692 0.30221 0.1728 0.0
C1395 C 0.33006 0.2985 0.1915 0.0
N1396 N 0.35851 0.32015 0.22773 0.0
N1397 N 0.27279 0.33538 0.15439 0.0
C1398 C 0.33333 0.31762 0.21413 0.0
C1399 C 0.28902 0.32615 0.17622 0.0
N1400 N 0.30751 0.34159 0.25013 0.0
N1401 N 0.30088 0.2825 0.15282 0.0
H1402 H 0.2609 0.35379 0.15538 0.0
H1403 H 0.27392 0.32663 0.1343 0.0
H1404 H 0.31239 0.26404 0.15025 0.0
H1405 H 0.28262 0.28324 0.14068 0.0
H1406 H 0.32209 0.33537 0.26533 0.0
H1407 H 0.2891 0.34982 0.25873 0.0
H1408 H 0.36193 0.33525 0.24329 0.0
H1409 H 0.3767 0.30981 0.22098 0.0
C1410 C 0.79394 0.1722 0.82442 0.0
C1411 C 0.7937 0.15845 0.79778 0.0
C1412 C 0.83772 0.1824 0.78633 0.0
C1413 C 0.8342 0.20099 0.80933 0.0
N1414 N 0.80566 0.21514 0.84918 0.0
N1415 N 0.81213 0.15901 0.7499 0.0
C1416 C 0.81153 0.19627 0.82835 0.0
C1417 C 0.81482 0.16563 0.77774 0.0
N1418 N 0.77815 0.16204 0.84617 0.0
N1419 N 0.86282 0.18087 0.77238 0.0
H1420 H 0.79376 0.15097 0.7411 0.0
H1421 H 0.8266 0.16573 0.7348 0.0
H1422 H 0.8807 0.19174 0.77908 0.0
H1423 H 0.86654 0.16619 0.75648 0.0
H1424 H 0.77938 0.17016 0.8665 0.0
H1425 H 0.76659 0.14345 0.84477 0.0
H1426 H 0.78761 0.21381 0.86159 0.0
H1427 H 0.81728 0.2334 0.85246 0.0
C1428 C 0.05356 0.56602 0.07112 0.0
C1429 C 0.04982 0.58929 0.05262 0.0
C1430 C 0.08706 0.571 0.02247 0.0
C1431 C 0.09319 0.54933 0.04227 0.0
N1432 N 0.08694 0.53231 0.08986 0.0
N1433 N 0.07166 0.61902 0.01757 0.0
C1434 C 0.07795 0.54872 0.06806 0.0
C1435 C 0.0696 0.59355 0.03072 0.0
N1436 N 0.03345 0.55925 0.09051 0.0
N1437 N 0.09539 0.56921 0.99499 0.0
H1438 H 0.06025 0.63662 0.02412 0.0
H1439 H 0.0872 0.62329 0.00263 0.0
H1440 H 0.10423 0.55124 0.98613 0.0
H1441 H 0.08942 0.58405 0.97995 0.0
H1442 H 0.03423 0.54081 0.10237 0.0
H1443 H 0.01475 0.57042 0.0929 0.0
H1444 H 0.07764 0.53289 0.10973 0.0
H1445 H 0.10565 0.52085 0.08913 0.0
C1446 C 0.70431 0.78597 0.31202 0.0
C1447 C 0.67619 0.79471 0.31673 0.0
C1448 C 0.69119 0.8441 0.31511 0.0
C1449 C 0.71811 0.83536 0.30554 0.0
N1450 N 0.74964 0.79766 0.29202 0.0
N1451 N 0.64219 0.8317 0.3231 0.0
C1452 C 0.72476 0.8062 0.30378 0.0
C1453 C 0.66949 0.82372 0.31869 0.0
N1454 N 0.71134 0.75821 0.31481 0.0
N1455 N 0.6866 0.87187 0.32103 0.0
H1456 H 0.62621 0.81723 0.32731 0.0
H1457 H 0.63516 0.85238 0.32143 0.0
H1458 H 0.70231 0.88708 0.31892 0.0
H1459 H 0.66827 0.87943 0.33035 0.0
H1460 H 0.73201 0.75091 0.31441 0.0
H1461 H 0.69672 0.74273 0.32012 0.0
H1462 H 0.75402 0.77683 0.28683 0.0
H1463 H 0.76517 0.81149 0.28511 0.0
C1464 C 0.90986 0.94566 0.05681 0.0
C1465 C 0.91883 0.97323 0.04949 0.0
C1466 C 0.96829 0.959 0.05465 0.0
C1467 C 0.95927 0.93105 0.05983 0.0
N1468 N 0.92277 0.89836 0.07202 0.0
N1469 N 0.95606 0.00794 0.0471 0.0
C1470 C 0.93036 0.92464 0.06307 0.0
C1471 C 0.94788 0.98056 0.05059 0.0
N1472 N 0.88171 0.93962 0.0571 0.0
N1473 N 0.99645 0.96445 0.05193 0.0
H1474 H 0.94226 0.02422 0.04224 0.0
H1475 H 0.9764 0.01516 0.05072 0.0
H1476 H 0.01192 0.94951 0.05641 0.0
H1477 H 0.0047 0.98322 0.04425 0.0
H1478 H 0.87345 0.91948 0.05934 0.0
H1479 H 0.86629 0.95506 0.05455 0.0
H1480 H 0.90223 0.89234 0.07661 0.0
H1481 H 0.9376 0.88286 0.07679 0.0
C1482 C 0.22766 0.69954 0.70155 0.0
C1483 C 0.2215 0.67021 0.70204 0.0
C1484 C 0.17224 0.68027 0.68953 0.0
C1485 C 0.17757 0.70931 0.6934 0.0
N1486 N 0.20966 0.74738 0.70258 0.0
N1487 N 0.18905 0.63211 0.69423 0.0
C1488 C 0.20523 0.7192 0.69862 0.0
C1489 C 0.19411 0.66043 0.69502 0.0
N1490 N 0.2548 0.7087 0.70446 0.0
N1491 N 0.14623 0.67189 0.68053 0.0
H1492 H 0.20509 0.6172 0.69601 0.0
H1493 H 0.16914 0.62323 0.6924 0.0
H1494 H 0.13009 0.6862 0.67628 0.0
H1495 H 0.14107 0.65129 0.67529 0.0
H1496 H 0.26106 0.7294 0.70105 0.0
H1497 H 0.27178 0.69547 0.70839 0.0
H1498 H 0.2282 0.75589 0.71051 0.0
H1499 H 0.19409 0.76248 0.69915 0.0
C1500 C 0.07605 0.41313 0.42925 0.0
C1501 C 0.04764 0.42206 0.42699 0.0
C1502 C 0.06351 0.47075 0.42102 0.0
C1503 C 0.09059 0.46274 0.43078 0.0
N1504 N 0.12506 0.42622 0.43667 0.0
N1505 N 0.01382 0.45944 0.42046 0.0
C1506 C 0.09765 0.43374 0.43219 0.0
C1507 C 0.04123 0.45083 0.4222 0.0
N1508 N 0.08208 0.385 0.42858 0.0
N1509 N 0.05917 0.49694 0.41002 0.0
H1510 H 0.99686 0.44552 0.42084 0.0
H1511 H 0.00785 0.48053 0.42062 0.0
H1512 H 0.07555 0.51091 0.40598 0.0
H1513 H 0.04019 0.50315 0.40097 0.0
H1514 H 0.10235 0.37672 0.42863 0.0
H1515 H 0.06652 0.36972 0.42601 0.0
H1516 H 0.13176 0.40584 0.44098 0.0
H1517 H 0.14136 0.44094 0.43592 0.0
C1518 C 0.4646 0.54899 0.95541 0.0
C1519 C 0.45368 0.57616 0.94939 0.0
C1520 C 0.40542 0.55812 0.95279 0.0
C1521 C 0.41633 0.53105 0.95932 0.0
N1522 N 0.4559 0.49909 0.96121 0.0
N1523 N 0.41476 0.60589 0.93677 0.0
C1524 C 0.44579 0.52592 0.95847 0.0
C1525 C 0.42434 0.58047 0.94626 0.0
N1526 N 0.49281 0.54561 0.96028 0.0
N1527 N 0.37697 0.56247 0.95344 0.0
H1528 H 0.42831 0.62247 0.93182 0.0
H1529 H 0.39386 0.61 0.9317 0.0
H1530 H 0.36256 0.54613 0.95621 0.0
H1531 H 0.36757 0.58221 0.95219 0.0
H1532 H 0.50164 0.52736 0.96856 0.0
H1533 H 0.50748 0.56175 0.95788 0.0
H1534 H 0.47676 0.49358 0.95733 0.0
H1535 H 0.4432 0.48172 0.96536 0.0
C1536 C 0.69815 0.77273 0.8075 0.0
C1537 C 0.69739 0.77982 0.83657 0.0
C1538 C 0.68434 0.82835 0.82474 0.0
C1539 C 0.68566 0.82133 0.79579 0.0
N1540 N 0.68638 0.78594 0.75959 0.0
N1541 N 0.68333 0.81183 0.87316 0.0
C1542 C 0.68979 0.79309 0.78723 0.0
C1543 C 0.68832 0.80688 0.84527 0.0
N1544 N 0.70904 0.74744 0.79904 0.0
N1545 N 0.68029 0.85575 0.83247 0.0
H1546 H 0.68584 0.79629 0.88849 0.0
H1547 H 0.67445 0.83033 0.88081 0.0
H1548 H 0.67582 0.87158 0.81789 0.0
H1549 H 0.68244 0.86303 0.85301 0.0
H1550 H 0.71353 0.7426 0.77815 0.0
H1551 H 0.71576 0.73188 0.81294 0.0
H1552 H 0.68642 0.76524 0.75241 0.0
H1553 H 0.68088 0.80054 0.74415 0.0
C1554 C 0.47633 0.41924 0.06211 0.0
C1555 C 0.46897 0.42742 0.08991 0.0
C1556 C 0.41889 0.42367 0.07745 0.0
C1557 C 0.42665 0.42272 0.04867 0.0
N1558 N 0.46261 0.41919 0.01301 0.0
N1559 N 0.43367 0.43066 0.12599 0.0
C1560 C 0.4553 0.41976 0.04083 0.0
C1561 C 0.44024 0.42713 0.09822 0.0
N1562 N 0.50307 0.41059 0.05601 0.0
N1563 N 0.3911 0.42137 0.08462 0.0
H1564 H 0.44907 0.43047 0.14166 0.0
H1565 H 0.41337 0.43376 0.1336 0.0
H1566 H 0.37533 0.41847 0.0696 0.0
H1567 H 0.38371 0.42034 0.10519 0.0
H1568 H 0.50892 0.40254 0.03649 0.0
H1569 H 0.5184 0.40756 0.07131 0.0
H1570 H 0.4833 0.42092 0.00595 0.0
H1571 H 0.44782 0.41879 0.9968 0.0
C1572 C 0.8155 0.22466 0.30715 0.0
C1573 C 0.81557 0.21811 0.33638 0.0
C1574 C 0.82593 0.16869 0.32569 0.0
C1575 C 0.82473 0.17512 0.29662 0.0
N1576 N 0.82674 0.20964 0.25964 0.0
N1577 N 0.82834 0.18632 0.37363 0.0
C1578 C 0.82263 0.20336 0.28741 0.0
C1579 C 0.82337 0.19084 0.34568 0.0
N1580 N 0.80625 0.25035 0.298 0.0
N1581 N 0.8284 0.14129 0.33406 0.0
H1582 H 0.82696 0.20242 0.38851 0.0
H1583 H 0.83624 0.16754 0.3817 0.0
H1584 H 0.8317 0.1249 0.31981 0.0
H1585 H 0.82608 0.13465 0.35481 0.0
H1586 H 0.80221 0.25493 0.27696 0.0
H1587 H 0.80055 0.2667 0.31141 0.0
H1588 H 0.82818 0.23012 0.25198 0.0
H1589 H 0.83141 0.19432 0.24463 0.0
C1590 C 0.05861 0.51531 0.58231 0.0
C1591 C 0.03852 0.53611 0.59016 0.0
C1592 C 0.05755 0.56679 0.55306 0.0
C1593 C 0.07958 0.54709 0.54795 0.0
N1594 N 0.10641 0.50826 0.56714 0.0
N1595 N 0.02519 0.58523 0.58788 0.0
C1596 C 0.08194 0.5233 0.56578 0.0
C1597 C 0.03992 0.56305 0.5771 0.0
N1598 N 0.05463 0.48745 0.58828 0.0
N1599 N 0.05224 0.58811 0.53454 0.0
H1600 H 0.01364 0.58388 0.60649 0.0
H1601 H 0.02735 0.60569 0.58024 0.0
H1602 H 0.06346 0.59102 0.51596 0.0
H1603 H 0.03468 0.60118 0.53632 0.0
H1604 H 0.06832 0.47187 0.58106 0.0
H1605 H 0.03593 0.47937 0.59636 0.0
H1606 H 0.10923 0.49173 0.58134 0.0
H1607 H 0.12476 0.51458 0.55684 0.0
C1608 C 0.7021 0.18458 0.65922 0.0
C1609 C 0.70966 0.21202 0.66809 0.0
C1610 C 0.70296 0.19819 0.7174 0.0
C1611 C 0.69949 0.16984 0.70867 0.0
N1612 N 0.69569 0.1354 0.67173 0.0
N1613 N 0.71994 0.24477 0.70557 0.0
C1614 C 0.69881 0.16288 0.67965 0.0
C1615 C 0.71027 0.21898 0.69715 0.0
N1616 N 0.69769 0.17952 0.63126 0.0
N1617 N 0.69986 0.2052 0.74514 0.0
H1618 H 0.72556 0.26074 0.69162 0.0
H1619 H 0.72447 0.24981 0.72639 0.0
H1620 H 0.69606 0.19048 0.76094 0.0
H1621 H 0.69885 0.22588 0.7523 0.0
H1622 H 0.68976 0.16069 0.6234 0.0
H1623 H 0.69973 0.19517 0.61598 0.0
H1624 H 0.69833 0.12829 0.65119 0.0
H1625 H 0.69159 0.1193 0.6861 0.0
C1626 C 0.07642 0.44439 0.93091 0.0
C1627 C 0.0785 0.46275 0.95439 0.0
C1628 C 0.03425 0.48578 0.94087 0.0
C1629 C 0.03373 0.46941 0.91594 0.0
N1630 N 0.05416 0.43418 0.88591 0.0
N1631 N 0.06031 0.50169 0.98159 0.0
C1632 C 0.05466 0.4488 0.91067 0.0
C1633 C 0.05765 0.48367 0.95931 0.0
N1634 N 0.09523 0.42279 0.92806 0.0
N1635 N 0.01177 0.50264 0.94741 0.0
H1636 H 0.07548 0.49928 0.9972 0.0
H1637 H 0.04835 0.5199 0.98404 0.0
H1638 H 0.99417 0.50479 0.93445 0.0
H1639 H 0.00927 0.51277 0.96665 0.0
H1640 H 0.09339 0.40691 0.91312 0.0
H1641 H 0.11203 0.41973 0.94185 0.0
H1642 H 0.07024 0.42091 0.87921 0.0
H1643 H 0.03806 0.43649 0.87115 0.0
C1644 C 0.81197 0.8338 0.17943 0.0
C1645 C 0.81021 0.82654 0.20832 0.0
C1646 C 0.79824 0.778 0.19609 0.0
C1647 C 0.80008 0.78511 0.16705 0.0
N1648 N 0.81494 0.81751 0.13106 0.0
N1649 N 0.80908 0.79078 0.24424 0.0
C1650 C 0.809 0.81236 0.15872 0.0
C1651 C 0.80608 0.79823 0.21662 0.0
N1652 N 0.81565 0.8613 0.17188 0.0
N1653 N 0.78677 0.75287 0.20424 0.0
H1654 H 0.81418 0.8052 0.25996 0.0
H1655 H 0.80911 0.76998 0.25117 0.0
H1656 H 0.77999 0.73752 0.19019 0.0
H1657 H 0.7816 0.74814 0.22501 0.0
H1658 H 0.81379 0.8686 0.15131 0.0
H1659 H 0.81935 0.87718 0.18659 0.0
H1660 H 0.82384 0.83617 0.12381 0.0
H1661 H 0.81329 0.80201 0.11559 0.0
C1662 C 0.45113 0.55278 0.4648 0.0
C1663 C 0.42238 0.55395 0.45715 0.0
C1664 C 0.43536 0.55131 0.4073 0.0
C1665 C 0.46344 0.54498 0.41524 0.0
N1666 N 0.49789 0.53729 0.45201 0.0
N1667 N 0.38636 0.55481 0.42157 0.0
C1668 C 0.47151 0.54569 0.44408 0.0
C1669 C 0.41428 0.55371 0.42845 0.0
N1670 N 0.45887 0.55788 0.49202 0.0
N1671 N 0.42908 0.55529 0.37952 0.0
H1672 H 0.37059 0.558 0.43654 0.0
H1673 H 0.37872 0.55135 0.40134 0.0
H1674 H 0.44432 0.55408 0.36373 0.0
H1675 H 0.40957 0.56227 0.37237 0.0
H1676 H 0.47972 0.56017 0.49838 0.0
H1677 H 0.44432 0.56248 0.50782 0.0
H1678 H 0.5037 0.53391 0.47286 0.0
H1679 H 0.51355 0.53146 0.43785 0.0
C1680 C 0.82281 0.68262 0.83496 0.0
C1681 C 0.79386 0.68427 0.82798 0.0
C1682 C 0.80563 0.69657 0.77936 0.0
C1683 C 0.83474 0.69527 0.78632 0.0
N1684 N 0.87119 0.68069 0.81831 0.0
N1685 N 0.75761 0.68526 0.79266 0.0
C1686 C 0.84337 0.68616 0.81341 0.0
C1687 C 0.78531 0.68846 0.79977 0.0
N1688 N 0.83055 0.67867 0.86237 0.0
N1689 N 0.7972 0.70774 0.75419 0.0
H1690 H 0.74217 0.67981 0.8073 0.0
H1691 H 0.75039 0.68538 0.77197 0.0
H1692 H 0.81112 0.71452 0.73866 0.0
H1693 H 0.77633 0.71253 0.74949 0.0
H1694 H 0.85115 0.68057 0.86957 0.0
H1695 H 0.81592 0.67461 0.87827 0.0
H1696 H 0.87871 0.67173 0.83683 0.0
H1697 H 0.88654 0.68285 0.80274 0.0
C1698 C 0.52944 0.56273 0.08656 0.0
C1699 C 0.55353 0.54558 0.08264 0.0
C1700 C 0.56706 0.57627 0.04328 0.0
C1701 C 0.53971 0.58859 0.04339 0.0
N1702 N 0.49184 0.58495 0.06149 0.0
N1703 N 0.594 0.53428 0.05365 0.0
C1704 C 0.52 0.57967 0.06411 0.0
C1705 C 0.57224 0.55191 0.06011 0.0
N1706 N 0.5154 0.56292 0.11165 0.0
N1707 N 0.5883 0.58807 0.02794 0.0
H1708 H 0.59808 0.51571 0.06454 0.0
H1709 H 0.60633 0.53684 0.03568 0.0
H1710 H 0.58594 0.60694 0.01699 0.0
H1711 H 0.60904 0.58098 0.02901 0.0
H1712 H 0.49867 0.57659 0.11562 0.0
H1713 H 0.52274 0.55214 0.12933 0.0
H1714 H 0.47706 0.57695 0.07563 0.0
H1715 H 0.48273 0.59327 0.04338 0.0
C1716 C 0.67412 0.31701 0.29333 0.0
C1717 C 0.66177 0.28974 0.29199 0.0
C1718 C 0.68505 0.2783 0.33635 0.0
C1719 C 0.70254 0.30231 0.33393 0.0
N1720 N 0.71557 0.3434 0.30657 0.0
N1721 N 0.6638 0.24152 0.30935 0.0
C1722 C 0.69752 0.32163 0.31158 0.0
C1723 C 0.66926 0.26953 0.31281 0.0
N1724 N 0.66323 0.3387 0.27795 0.0
N1725 N 0.68359 0.26363 0.36103 0.0
H1726 H 0.65634 0.23287 0.29067 0.0
H1727 H 0.67084 0.22634 0.32358 0.0
H1728 H 0.69366 0.27039 0.37934 0.0
H1729 H 0.66961 0.24695 0.36397 0.0
H1730 H 0.67028 0.35937 0.27998 0.0
H1731 H 0.64498 0.33671 0.26593 0.0
H1732 H 0.71404 0.35614 0.28877 0.0
H1733 H 0.73352 0.34719 0.31852 0.0
C1734 C 0.94228 0.42257 0.58225 0.0
C1735 C 0.94236 0.45195 0.57689 0.0
C1736 C 0.95499 0.44347 0.52758 0.0
C1737 C 0.95491 0.41406 0.53291 0.0
N1738 N 0.94276 0.37518 0.56299 0.0
N1739 N 0.94265 0.49029 0.54347 0.0
C1740 C 0.94672 0.40347 0.55958 0.0
C1741 C 0.94638 0.46232 0.54915 0.0
N1742 N 0.93861 0.41305 0.60915 0.0
N1743 N 0.96541 0.45361 0.50269 0.0
H1744 H 0.93791 0.5052 0.5588 0.0
H1745 H 0.94198 0.49847 0.52315 0.0
H1746 H 0.97225 0.44076 0.48629 0.0
H1747 H 0.96951 0.47481 0.499 0.0
H1748 H 0.94166 0.39223 0.61521 0.0
H1749 H 0.93359 0.42642 0.62584 0.0
H1750 H 0.9344 0.36615 0.58111 0.0
H1751 H 0.94563 0.36082 0.54663 0.0
C1752 C 0.80704 0.31073 0.72564 0.0
C1753 C 0.83639 0.3105 0.71961 0.0
C1754 C 0.82656 0.31846 0.66957 0.0
C1755 C 0.79735 0.31753 0.67551 0.0
N1756 N 0.75973 0.32097 0.70928 0.0
N1757 N 0.87422 0.32171 0.6879 0.0
C1758 C 0.78764 0.31674 0.70367 0.0
C1759 C 0.84617 0.31697 0.69216 0.0
N1760 N 0.79748 0.30279 0.75161 0.0
N1761 N 0.83543 0.31967 0.64224 0.0
H1762 H 0.88882 0.3211 0.70431 0.0
H1763 H 0.88264 0.32868 0.66891 0.0
H1764 H 0.82148 0.32224 0.62546 0.0
H1765 H 0.85631 0.31705 0.63608 0.0
H1766 H 0.77637 0.29889 0.75605 0.0
H1767 H 0.81065 0.29807 0.76846 0.0
H1768 H 0.75172 0.3234 0.72954 0.0
H1769 H 0.74491 0.32474 0.69355 0.0
C1770 C 0.9249 0.57711 0.91938 0.0
C1771 C 0.9264 0.54825 0.92678 0.0
C1772 C 0.93891 0.56074 0.97518 0.0
C1773 C 0.93798 0.58975 0.96772 0.0
N1774 N 0.92332 0.62572 0.93525 0.0
N1775 N 0.92697 0.51268 0.9629 0.0
C1776 C 0.92868 0.59797 0.94057 0.0
C1777 C 0.93045 0.54017 0.95519 0.0
N1778 N 0.92082 0.58446 0.89188 0.0
N1779 N 0.95023 0.55255 1.00036 0.0
H1780 H 0.92152 0.49694 0.94864 0.0
H1781 H 0.92682 0.50595 0.98376 0.0
H1782 H 0.95728 0.56656 0.01564 0.0
H1783 H 0.95486 0.53171 0.0053 0.0
H1784 H 0.92286 0.60493 0.88433 0.0
H1785 H 0.91642 0.56964 0.87629 0.0
H1786 H 0.91429 0.63301 0.91667 0.0
H1787 H 0.92558 0.64126 0.95059 0.0
C1788 C 0.65634 0.69577 0.19175 0.0
C1789 C 0.66529 0.70403 0.21899 0.0
C1790 C 0.71453 0.69667 0.20507 0.0
C1791 C 0.70576 0.69299 0.17683 0.0
N1792 N 0.66867 0.68912 0.14258 0.0
N1793 N 0.70325 0.71595 0.25077 0.0
C1794 C 0.6767 0.69231 0.17 0.0
C1795 C 0.69447 0.70496 0.22566 0.0
N1796 N 0.62841 0.69081 0.18691 0.0
N1797 N 0.74216 0.69283 0.21214 0.0
H1798 H 0.68955 0.72307 0.26634 0.0
H1799 H 0.72423 0.72046 0.25528 0.0
H1800 H 0.75762 0.68749 0.19751 0.0
H1801 H 0.74931 0.6924 0.23285 0.0
H1802 H 0.62067 0.68234 0.16827 0.0
H1803 H 0.61315 0.69287 0.20259 0.0
H1804 H 0.64808 0.69182 0.13558 0.0
H1805 H 0.68303 0.68493 0.12648 0.0
C1806 C 0.55676 0.46281 0.45297 0.0
C1807 C 0.56048 0.45353 0.42486 0.0
C1808 C 0.55554 0.40435 0.43967 0.0
C1809 C 0.54917 0.41371 0.46734 0.0
N1810 N 0.5489 0.451 0.50202 0.0
N1811 N 0.56982 0.41652 0.39188 0.0
C1812 C 0.55187 0.44265 0.47462 0.0
C1813 C 0.56205 0.4245 0.41842 0.0
N1814 N 0.55598 0.49106 0.45849 0.0
N1815 N 0.55479 0.37618 0.4338 0.0
H1816 H 0.57506 0.43112 0.37632 0.0
H1817 H 0.57292 0.39581 0.38558 0.0
H1818 H 0.55214 0.36093 0.44939 0.0
H1819 H 0.55645 0.36769 0.41372 0.0
H1820 H 0.54968 0.49977 0.47754 0.0
H1821 H 0.56084 0.50626 0.44343 0.0
H1822 H 0.55377 0.47105 0.50927 0.0
H1823 H 0.54292 0.43761 0.51827 0.0
C1824 C 0.77744 0.80341 0.70393 0.0
C1825 C 0.78424 0.83256 0.70358 0.0
C1826 C 0.83329 0.82127 0.69185 0.0
C1827 C 0.82639 0.79225 0.6922 0.0
N1828 N 0.79117 0.75584 0.69149 0.0
N1829 N 0.81648 0.86959 0.69115 0.0
C1830 C 0.79812 0.78344 0.69563 0.0
C1831 C 0.81155 0.8416 0.69555 0.0
N1832 N 0.75208 0.79455 0.71437 0.0
N1833 N 0.86078 0.82925 0.6889 0.0
H1834 H 0.8008 0.88482 0.69345 0.0
H1835 H 0.8352 0.87747 0.68293 0.0
H1836 H 0.87687 0.81488 0.68473 0.0
H1837 H 0.86782 0.84978 0.69179 0.0
H1838 H 0.7474 0.77354 0.71848 0.0
H1839 H 0.73636 0.80818 0.72129 0.0
H1840 H 0.77049 0.74858 0.69093 0.0
H1841 H 0.80595 0.74056 0.68601 0.0
C1842 C 0.27471 0.69163 0.29749 0.0
C1843 C 0.28035 0.66224 0.2975 0.0
C1844 C 0.33016 0.6715 0.30781 0.0
C1845 C 0.32442 0.7008 0.30797 0.0
N1846 N 0.29046 0.7386 0.30946 0.0
N1847 N 0.31148 0.62387 0.30858 0.0
C1848 C 0.29637 0.71074 0.30526 0.0
C1849 C 0.30753 0.65208 0.30457 0.0
N1850 N 0.24943 0.70154 0.2878 0.0
N1851 N 0.35735 0.66234 0.31009 0.0
H1852 H 0.29515 0.60931 0.30666 0.0
H1853 H 0.33009 0.61514 0.31616 0.0
H1854 H 0.37411 0.67595 0.3141 0.0
H1855 H 0.3635 0.64158 0.30679 0.0
H1856 H 0.24547 0.72272 0.2838 0.0
H1857 H 0.23297 0.68859 0.28137 0.0
H1858 H 0.27004 0.74646 0.311 0.0
H1859 H 0.30581 0.75362 0.31381 0.0
C1860 C 0.57159 0.08186 0.56339 0.0
C1861 C 0.54281 0.07453 0.56108 0.0
C1862 C 0.55543 0.02519 0.55252 0.0
C1863 C 0.58423 0.03333 0.55059 0.0
N1864 N 0.62055 0.06804 0.55706 0.0
N1865 N 0.50644 0.03987 0.55518 0.0
C1866 C 0.59256 0.06127 0.55723 0.0
C1867 C 0.5345 0.04621 0.55684 0.0
N1868 N 0.5786 0.10855 0.5715 0.0
N1869 N 0.54796 0.99755 0.54954 0.0
H1870 H 0.49066 0.05443 0.5598 0.0
H1871 H 0.49851 0.02069 0.54829 0.0
H1872 H 0.56202 0.98162 0.54431 0.0
H1873 H 0.52795 0.98976 0.55383 0.0
H1874 H 0.59904 0.11537 0.57527 0.0
H1875 H 0.56343 0.12371 0.57634 0.0
H1876 H 0.62835 0.08839 0.55885 0.0
H1877 H 0.63634 0.05294 0.55473 0.0
C1878 C 0.20876 0.33492 0.81913 0.0
C1879 C 0.20971 0.34762 0.79202 0.0
C1880 C 0.16519 0.3246 0.78096 0.0
C1881 C 0.16795 0.30672 0.80465 0.0
N1882 N 0.19619 0.29296 0.84499 0.0
N1883 N 0.1919 0.34595 0.74398 0.0
C1884 C 0.19065 0.31141 0.82367 0.0
C1885 C 0.18868 0.34035 0.77201 0.0
N1886 N 0.22444 0.34551 0.84072 0.0
N1887 N 0.14029 0.32645 0.76674 0.0
H1888 H 0.21055 0.35338 0.73519 0.0
H1889 H 0.17748 0.33903 0.72895 0.0
H1890 H 0.12198 0.31651 0.77375 0.0
H1891 H 0.13724 0.34061 0.75023 0.0
H1892 H 0.22268 0.33816 0.86132 0.0
H1893 H 0.23645 0.36377 0.83878 0.0
H1894 H 0.21423 0.29438 0.85739 0.0
H1895 H 0.18454 0.27481 0.84867 0.0
C1896 C 0.43874 0.4697 0.56951 0.0
C1897 C 0.41089 0.46122 0.56252 0.0
C1898 C 0.42476 0.41171 0.56882 0.0
C1899 C 0.45334 0.42019 0.56913 0.0
N1900 N 0.4882 0.45699 0.56996 0.0
N1901 N 0.37579 0.42481 0.5612 0.0
C1902 C 0.46051 0.44912 0.57015 0.0
C1903 C 0.40339 0.43232 0.56433 0.0
N1904 N 0.44452 0.49715 0.57575 0.0
N1905 N 0.41832 0.38395 0.57272 0.0
H1906 H 0.35964 0.43971 0.56058 0.0
H1907 H 0.3688 0.40419 0.55908 0.0
H1908 H 0.43376 0.36871 0.57627 0.0
H1909 H 0.39794 0.37616 0.57447 0.0
H1910 H 0.464 0.50392 0.58315 0.0
H1911 H 0.42918 0.51268 0.57721 0.0
H1912 H 0.49485 0.47761 0.56666 0.0
H1913 H 0.50473 0.4426 0.57132 0.0
C1914 C 0.70458 0.21354 0.20197 0.0
C1915 C 0.67721 0.20381 0.19497 0.0
C1916 C 0.69319 0.15483 0.19849 0.0
C1917 C 0.72045 0.16454 0.20597 0.0
N1918 N 0.75383 0.20277 0.2097 0.0
N1919 N 0.64633 0.16629 0.18113 0.0
C1920 C 0.72676 0.19378 0.20572 0.0
C1921 C 0.67182 0.17471 0.19146 0.0
N1922 N 0.7089 0.24158 0.20701 0.0
N1923 N 0.68769 0.12659 0.19871 0.0
H1924 H 0.63046 0.18054 0.17582 0.0
H1925 H 0.64153 0.14562 0.17577 0.0
H1926 H 0.70334 0.1115 0.20191 0.0
H1927 H 0.66764 0.11802 0.19671 0.0
H1928 H 0.72717 0.24967 0.21596 0.0
H1929 H 0.69348 0.2569 0.20397 0.0
H1930 H 0.76035 0.2234 0.20628 0.0
H1931 H 0.77049 0.18939 0.21458 0.0
C1932 C 0.58396 0.93994 0.97702 0.0
C1933 C 0.59097 0.96161 0.95758 0.0
C1934 C 0.55258 0.94508 0.92705 0.0
C1935 C 0.5482 0.92166 0.94524 0.0
N1936 N 0.5688 0.89183 0.98099 0.0
N1937 N 0.58649 0.97915 0.90996 0.0
C1938 C 0.56704 0.91737 0.96792 0.0
C1939 C 0.57674 0.96247 0.93122 0.0
N1940 N 0.59102 0.94175 0.00483 0.0
N1941 N 0.5333 0.95183 0.90685 0.0
H1942 H 0.60505 0.99075 0.91153 0.0
H1943 H 0.57801 0.97874 0.88974 0.0
H1944 H 0.51484 0.94052 0.90359 0.0
H1945 H 0.53445 0.97034 0.89513 0.0
H1946 H 0.58441 0.92687 0.01958 0.0
H1947 H 0.5994 0.95978 0.01401 0.0
H1948 H 0.58367 0.88765 0.9966 0.0
H1949 H 0.55798 0.87413 0.97378 0.0
C1950 C 0.93377 0.08214 0.42929 0.0
C1951 C 0.96196 0.07584 0.43667 0.0
C1952 C 0.94815 0.02819 0.45114 0.0
C1953 C 0.91938 0.03593 0.44771 0.0
N1954 N 0.88433 0.06879 0.43164 0.0
N1955 N 0.99705 0.04325 0.45304 0.0
C1956 C 0.91209 0.06241 0.43587 0.0
C1957 C 0.96951 0.04871 0.44654 0.0
N1958 N 0.92797 0.1071 0.41621 0.0
N1959 N 0.95506 0.00149 0.45948 0.0
H1960 H 0.01332 0.05722 0.44828 0.0
H1961 H 0.00393 0.02556 0.46395 0.0
H1962 H 0.9403 0.98631 0.46505 0.0
H1963 H 0.97546 0.99355 0.45947 0.0
H1964 H 0.90827 0.11274 0.40853 0.0
H1965 H 0.94366 0.12166 0.41125 0.0
H1966 H 0.87695 0.08854 0.42579 0.0
H1967 H 0.86827 0.05409 0.43459 0.0
C1968 C 0.11638 0.16882 0.41415 0.0
C1969 C 0.10276 0.14561 0.40126 0.0
C1970 C 0.14521 0.13631 0.37319 0.0
C1971 C 0.15961 0.15767 0.38831 0.0
N1972 N 0.16059 0.19006 0.42751 0.0
N1973 N 0.10475 0.10509 0.3709 0.0
C1974 C 0.14566 0.17282 0.40996 0.0
C1975 C 0.11729 0.12876 0.38133 0.0
N1976 N 0.10114 0.1878 0.42951 0.0
N1977 N 0.1579 0.1239 0.35056 0.0
H1978 H 0.08434 0.09909 0.37637 0.0
H1979 H 0.11522 0.0903 0.35859 0.0
H1980 H 0.17824 0.12905 0.34405 0.0
H1981 H 0.14757 0.11026 0.3369 0.0
H1982 H 0.10944 0.20672 0.43683 0.0
H1983 H 0.07945 0.18615 0.4325 0.0
H1984 H 0.15199 0.19916 0.44551 0.0
H1985 H 0.18226 0.19307 0.42586 0.0
C1986 C 0.11791 0.89832 0.66522 0.0
C1987 C 0.09858 0.90629 0.64375 0.0
C1988 C 0.08736 0.8566 0.63608 0.0
C1989 C 0.10892 0.84859 0.6553 0.0
N1990 N 0.15035 0.86255 0.68124 0.0
N1991 N 0.07153 0.89203 0.60317 0.0
C1992 C 0.12605 0.86968 0.66762 0.0
C1993 C 0.08544 0.88511 0.62735 0.0
N1994 N 0.12707 0.91738 0.68468 0.0
N1995 N 0.06741 0.83773 0.62756 0.0
H1996 H 0.07084 0.91253 0.59532 0.0
H1997 H 0.06365 0.87696 0.58933 0.0
H1998 H 0.06626 0.81715 0.63498 0.0
H1999 H 0.04992 0.84359 0.61567 0.0
H2000 H 0.13911 0.91161 0.70209 0.0
H2001 H 0.12 0.93809 0.6856 0.0
H2002 H 0.16464 0.8775 0.68853 0.0
H2003 H 0.1578 0.84192 0.68223 0.0
C2004 C 0.39558 0.84458 0.87895 0.0
C2005 C 0.40493 0.86592 0.89778 0.0
C2006 C 0.35591 0.87489 0.91116 0.0
C2007 C 0.34652 0.85558 0.89029 0.0
N2008 N 0.35804 0.82961 0.84813 0.0
N2009 N 0.39275 0.90726 0.92474 0.0
C2010 C 0.36656 0.84295 0.8721 0.0
C2011 C 0.38467 0.88306 0.91151 0.0
N2012 N 0.41359 0.82435 0.86922 0.0
N2013 N 0.33828 0.88393 0.93201 0.0
H2014 H 0.41343 0.91464 0.92425 0.0
H2015 H 0.37835 0.92152 0.93317 0.0
H2016 H 0.31768 0.87688 0.93441 0.0
H2017 H 0.34527 0.8959 0.949 0.0
H2018 H 0.40671 0.80708 0.85759 0.0
H2019 H 0.43451 0.82263 0.87545 0.0
H2020 H 0.3722 0.822 0.83318 0.0
H2021 H 0.33707 0.82923 0.84161 0.0
C2022 C 0.37243 0.13598 0.15853 0.0
C2023 C 0.38896 0.15625 0.14413 0.0
C2024 C 0.41257 0.1178 0.11897 0.0
C2025 C 0.40025 0.09791 0.13752 0.0
N2026 N 0.37257 0.0899 0.17972 0.0
N2027 N 0.42984 0.16524 0.11465 0.0
C2028 C 0.38107 0.10738 0.15851 0.0
C2029 C 0.41029 0.14695 0.12518 0.0
N2030 N 0.34829 0.14389 0.17202 0.0
N2031 N 0.42611 0.10903 0.09517 0.0
H2032 H 0.43089 0.1864 0.12012 0.0
H2033 H 0.4472 0.15856 0.10298 0.0
H2034 H 0.42708 0.08793 0.08918 0.0
H2035 H 0.43335 0.12297 0.07984 0.0
H2036 H 0.33439 0.12942 0.18093 0.0
H2037 H 0.34056 0.16443 0.17137 0.0
H2038 H 0.36071 0.09694 0.19679 0.0
H2039 H 0.38002 0.06945 0.18226 0.0
C2040 C 0.14293 0.83756 0.08525 0.0
C2041 C 0.15559 0.85093 0.10871 0.0
C2042 C 0.11188 0.87717 0.11733 0.0
C2043 C 0.09857 0.86157 0.09559 0.0
N2044 N 0.09972 0.82225 0.06337 0.0
N2045 N 0.15185 0.88124 0.14908 0.0
C2046 C 0.11362 0.84047 0.08079 0.0
C2047 C 0.14001 0.87021 0.12534 0.0
N2048 N 0.1591 0.82296 0.06643 0.0
N2049 N 0.09799 0.89916 0.12961 0.0
H2050 H 0.17248 0.87678 0.15517 0.0
H2051 H 0.14072 0.89315 0.16373 0.0
H2052 H 0.07746 0.90477 0.12417 0.0
H2053 H 0.10744 0.91314 0.14356 0.0
H2054 H 0.15139 0.8155 0.04732 0.0
H2055 H 0.18086 0.82084 0.06842 0.0
H2056 H 0.10923 0.80461 0.05447 0.0
H2057 H 0.07802 0.82291 0.06012 0.0
C2058 C 0.3788 0.8862 0.37284 0.0
C2059 C 0.40059 0.90021 0.35792 0.0
C2060 C 0.41224 0.85658 0.3333 0.0
C2061 C 0.38867 0.84324 0.34586 0.0
N2062 N 0.34726 0.84597 0.37502 0.0
N2063 N 0.43307 0.9005 0.31874 0.0
C2064 C 0.37129 0.8582 0.36501 0.0
C2065 C 0.41591 0.88591 0.33667 0.0
N2066 N 0.36598 0.89928 0.39501 0.0
N2067 N 0.43196 0.84105 0.3192 0.0
H2068 H 0.43546 0.92229 0.31958 0.0
H2069 H 0.44244 0.89143 0.3011 0.0
H2070 H 0.43084 0.81923 0.3173 0.0
H2071 H 0.45099 0.84941 0.31216 0.0
H2072 H 0.35197 0.88921 0.40852 0.0
H2073 H 0.3711 0.91968 0.40129 0.0
H2074 H 0.33221 0.85674 0.38678 0.0
H2075 H 0.34127 0.82555 0.36967 0.0
C2076 C 0.39228 0.17208 0.5884 0.0
C2077 C 0.40289 0.14604 0.59829 0.0
C2078 C 0.35822 0.13697 0.62254 0.0
C2079 C 0.34642 0.16115 0.60942 0.0
N2080 N 0.35132 0.199 0.57542 0.0
N2081 N 0.39599 0.1024 0.62302 0.0
C2082 C 0.36323 0.17813 0.59132 0.0
C2083 C 0.38591 0.12812 0.615 0.0
N2084 N 0.41014 0.19143 0.57672 0.0
N2085 N 0.34334 0.1231 0.64289 0.0
H2086 H 0.41637 0.09569 0.6183 0.0
H2087 H 0.38364 0.08705 0.63261 0.0
H2088 H 0.32338 0.12952 0.64943 0.0
H2089 H 0.35172 0.10694 0.65509 0.0
H2090 H 0.40414 0.21201 0.57209 0.0
H2091 H 0.43168 0.1879 0.57422 0.0
H2092 H 0.36207 0.20945 0.55942 0.0
H2093 H 0.33005 0.2042 0.576 0.0
C2094 C 0.13157 0.14841 0.86558 0.0
C2095 C 0.11029 0.16496 0.85288 0.0
C2096 C 0.0803 0.12353 0.84791 0.0
C2097 C 0.10052 0.10708 0.86269 0.0
N2098 N 0.14282 0.10546 0.89084 0.0
N2099 N 0.06166 0.16999 0.83921 0.0
C2100 C 0.12552 0.11995 0.87301 0.0
C2101 C 0.08378 0.15306 0.84646 0.0
N2102 N 0.15758 0.15975 0.87018 0.0
N2103 N 0.05877 0.11103 0.83347 0.0
H2104 H 0.06329 0.19183 0.83772 0.0
H2105 H 0.04109 0.16257 0.83749 0.0
H2106 H 0.05596 0.08936 0.83217 0.0
H2107 H 0.04547 0.1221 0.81999 0.0
H2108 H 0.1749 0.14792 0.87656 0.0
H2109 H 0.16223 0.18076 0.86576 0.0
H2110 H 0.15994 0.11456 0.90102 0.0
H2111 H 0.13844 0.08508 0.89769 0.0
C2112 C 0.16252 0.37694 0.12769 0.0
C2113 C 0.15049 0.39287 0.14983 0.0
C2114 C 0.123 0.41951 0.11518 0.0
C2115 C 0.13891 0.40721 0.09313 0.0
N2116 N 0.17811 0.3774 0.07941 0.0
N2117 N 0.12289 0.43347 0.16394 0.0
C2118 C 0.15968 0.38655 0.09953 0.0
C2119 C 0.13147 0.41515 0.14349 0.0
N2120 N 0.17636 0.35239 0.13345 0.0
N2121 N 0.09953 0.43501 0.10916 0.0
H2122 H 0.12949 0.43233 0.18479 0.0
H2123 H 0.11153 0.45172 0.15954 0.0
H2124 H 0.0921 0.43781 0.0887 0.0
H2125 H 0.08578 0.44232 0.12463 0.0
H2126 H 0.18328 0.33866 0.11781 0.0
H2127 H 0.17811 0.34425 0.15377 0.0
H2128 H 0.19544 0.36476 0.08403 0.0
H2129 H 0.17814 0.38464 0.05875 0.0
C2130 C 0.66648 0.12573 0.87211 0.0
C2131 C 0.65457 0.10864 0.85079 0.0
C2132 C 0.62634 0.08451 0.88665 0.0
C2133 C 0.6421 0.09787 0.90813 0.0
N2134 N 0.68188 0.12752 0.92038 0.0
N2135 N 0.62737 0.06706 0.83906 0.0
C2136 C 0.66332 0.11771 0.90073 0.0
C2137 C 0.63542 0.08685 0.85829 0.0
N2138 N 0.68047 0.14987 0.86515 0.0
N2139 N 0.60249 0.06983 0.89319 0.0
H2140 H 0.63496 0.06635 0.81852 0.0
H2141 H 0.61566 0.04932 0.8445 0.0
H2142 H 0.59456 0.06858 0.91363 0.0
H2143 H 0.58898 0.06172 0.87794 0.0
H2144 H 0.68737 0.16433 0.88012 0.0
H2145 H 0.68232 0.15698 0.84446 0.0
H2146 H 0.6994 0.13964 0.91514 0.0
H2147 H 0.68185 0.12117 0.94134 0.0
C2148 C 0.8706 0.91334 0.35685 0.0
C2149 C 0.8514 0.89155 0.34949 0.0
C2150 C 0.84091 0.8844 0.3994 0.0
C2151 C 0.86224 0.9041 0.40682 0.0
N2152 N 0.9033 0.93015 0.39194 0.0
N2153 N 0.82532 0.85066 0.3647 0.0
C2154 C 0.87906 0.9162 0.38532 0.0
C2155 C 0.83889 0.87518 0.37108 0.0
N2156 N 0.87925 0.93272 0.33743 0.0
N2157 N 0.82113 0.87598 0.41853 0.0
H2158 H 0.82454 0.84255 0.34433 0.0
H2159 H 0.81787 0.8369 0.38009 0.0
H2160 H 0.81984 0.88382 0.43892 0.0
H2161 H 0.80382 0.86369 0.413 0.0
H2162 H 0.89111 0.95036 0.34284 0.0
H2163 H 0.87198 0.93331 0.31679 0.0
H2164 H 0.91735 0.93737 0.37669 0.0
H2165 H 0.91096 0.93147 0.41246 0.0
C2166 C 0.83412 0.08902 0.1393 0.0
C2167 C 0.84972 0.10948 0.15443 0.0
C2168 C 0.87789 0.11942 0.11223 0.0
C2169 C 0.86061 0.10069 0.09671 0.0
N2170 N 0.81807 0.07304 0.09382 0.0
N2171 N 0.88363 0.14719 0.15474 0.0
C2172 C 0.8375 0.08705 0.10977 0.0
C2173 C 0.87089 0.12555 0.14076 0.0
N2174 N 0.81708 0.07047 0.15325 0.0
N2175 N 0.9014 0.1306 0.09999 0.0
H2176 H 0.87886 0.15229 0.17555 0.0
H2177 H 0.89715 0.1615 0.14512 0.0
H2178 H 0.90693 0.12666 0.07911 0.0
H2179 H 0.91649 0.14201 0.11102 0.0
H2180 H 0.80763 0.05325 0.14354 0.0
H2181 H 0.81464 0.07044 0.17505 0.0
H2182 H 0.79925 0.06523 0.10195 0.0
H2183 H 0.81927 0.07179 0.07195 0.0
C2184 C 0.37814 0.5869 0.61798 0.0
C2185 C 0.35998 0.59791 0.597 0.0
C2186 C 0.33835 0.6282 0.63272 0.0
C2187 C 0.35239 0.61303 0.65425 0.0
N2188 N 0.3814 0.57271 0.6665 0.0
N2189 N 0.31788 0.62499 0.58649 0.0
C2190 C 0.37135 0.59104 0.64675 0.0
C2191 C 0.33883 0.61767 0.60479 0.0
N2192 N 0.40215 0.57287 0.61059 0.0
N2193 N 0.32483 0.65285 0.63874 0.0
H2194 H 0.31557 0.61614 0.5666 0.0
H2195 H 0.30074 0.63734 0.59244 0.0
H2196 H 0.32516 0.66196 0.65871 0.0
H2197 H 0.31625 0.66577 0.62321 0.0
H2198 H 0.41712 0.56646 0.6253 0.0
H2199 H 0.4087 0.5707 0.58975 0.0
H2200 H 0.39307 0.55489 0.66122 0.0
H2201 H 0.37546 0.5731 0.68757 0.0
C2202 C 0.12627 0.5905 0.35847 0.0
C2203 C 0.14604 0.61133 0.34985 0.0
C2204 C 0.1589 0.61879 0.39918 0.0
C2205 C 0.13705 0.6002 0.4079 0.0
N2206 N 0.09448 0.57548 0.39528 0.0
N2207 N 0.17435 0.65135 0.36327 0.0
C2208 C 0.1189 0.58844 0.38735 0.0
C2209 C 0.16011 0.62749 0.37061 0.0
N2210 N 0.116 0.57121 0.33981 0.0
N2211 N 0.17983 0.6266 0.41727 0.0
H2212 H 0.17453 0.65922 0.34277 0.0
H2213 H 0.18301 0.66499 0.3781 0.0
H2214 H 0.18162 0.61907 0.43775 0.0
H2215 H 0.19743 0.63798 0.41074 0.0
H2216 H 0.10361 0.5542 0.34602 0.0
H2217 H 0.12247 0.56993 0.31892 0.0
H2218 H 0.07952 0.56855 0.38082 0.0
H2219 H 0.08771 0.57471 0.41616 0.0
C2220 C 0.37341 0.3796 0.8891 0.0
C2221 C 0.35961 0.40159 0.90395 0.0
C2222 C 0.33596 0.41627 0.86067 0.0
C2223 C 0.34705 0.39246 0.84653 0.0
N2224 N 0.37392 0.34947 0.84777 0.0
N2225 N 0.32235 0.43628 0.90525 0.0
C2226 C 0.36522 0.37355 0.86085 0.0
C2227 C 0.33939 0.41868 0.89012 0.0
N2228 N 0.39488 0.36517 0.90166 0.0
N2229 N 0.32315 0.43731 0.84579 0.0
H2230 H 0.3231 0.43779 0.92711 0.0
H2231 H 0.30537 0.44701 0.89642 0.0
H2232 H 0.32134 0.43701 0.82394 0.0
H2233 H 0.31723 0.45642 0.85478 0.0
H2234 H 0.40763 0.35083 0.89107 0.0
H2235 H 0.40149 0.36926 0.92218 0.0
H2236 H 0.38478 0.33342 0.858 0.0
H2237 H 0.36834 0.34456 0.82712 0.0
C2238 C 0.60934 0.62375 0.89139 0.0
C2239 C 0.59518 0.64139 0.91092 0.0
C2240 C 0.63885 0.66717 0.91961 0.0
C2241 C 0.65231 0.65173 0.89789 0.0
N2242 N 0.64971 0.61757 0.86054 0.0
N2243 N 0.5948 0.68431 0.93818 0.0
C2244 C 0.63741 0.63053 0.88307 0.0
C2245 C 0.60947 0.66434 0.92353 0.0
N2246 N 0.59632 0.60011 0.88151 0.0
N2247 N 0.65431 0.68366 0.9374 0.0
H2248 H 0.57298 0.68383 0.94049 0.0
H2249 H 0.60387 0.70294 0.94532 0.0
H2250 H 0.67615 0.6854 0.93611 0.0
H2251 H 0.64586 0.69308 0.95531 0.0
H2252 H 0.6065 0.58488 0.86948 0.0
H2253 H 0.57588 0.59453 0.8873 0.0
H2254 H 0.63897 0.60405 0.84708 0.0
H2255 H 0.67018 0.6221 0.85396 0.0
C2256 C 0.59087 0.36112 0.1712 0.0
C2257 C 0.61409 0.34733 0.15827 0.0
C2258 C 0.62499 0.39043 0.13153 0.0
C2259 C 0.60076 0.40355 0.14322 0.0
N2260 N 0.55845 0.40021 0.17166 0.0
N2261 N 0.65267 0.34775 0.12534 0.0
C2262 C 0.5831 0.38856 0.16227 0.0
C2263 C 0.63097 0.3617 0.13816 0.0
N2264 N 0.5763 0.34827 0.19251 0.0
N2265 N 0.64226 0.4055 0.1141 0.0
H2266 H 0.65905 0.3276 0.13128 0.0
H2267 H 0.66384 0.35552 0.10819 0.0
H2268 H 0.63735 0.42567 0.10697 0.0
H2269 H 0.66194 0.39864 0.10738 0.0
H2270 H 0.56242 0.35885 0.20578 0.0
H2271 H 0.57907 0.32741 0.1985 0.0
H2272 H 0.54255 0.38867 0.18137 0.0
H2273 H 0.55271 0.42109 0.16864 0.0
C2274 C 0.85858 0.36751 0.37481 0.0
C2275 C 0.84217 0.35318 0.39514 0.0
C2276 C 0.88357 0.34699 0.42503 0.0
C2277 C 0.89991 0.36299 0.40569 0.0
N2278 N 0.90146 0.39355 0.36512 0.0
N2279 N 0.83712 0.3361 0.44267 0.0
C2280 C 0.88699 0.37472 0.38135 0.0
C2281 C 0.85407 0.3452 0.42125 0.0
N2282 N 0.8472 0.37373 0.34916 0.0
N2283 N 0.89623 0.33173 0.44592 0.0
H2284 H 0.81532 0.33428 0.44074 0.0
H2285 H 0.84438 0.33309 0.46314 0.0
H2286 H 0.9179 0.33094 0.449 0.0
H2287 H 0.88541 0.3173 0.45841 0.0
H2288 H 0.85895 0.38137 0.33231 0.0
H2289 H 0.82622 0.36947 0.34423 0.0
H2290 H 0.89236 0.40474 0.34862 0.0
H2291 H 0.92187 0.40008 0.36986 0.0
C2292 C 0.90777 0.63307 0.67553 0.0
C2293 C 0.89113 0.65004 0.65731 0.0
C2294 C 0.8873 0.61039 0.62426 0.0
C2295 C 0.90213 0.59319 0.64357 0.0
N2296 N 0.91919 0.58597 0.69081 0.0
N2297 N 0.86016 0.65309 0.61716 0.0
C2298 C 0.91013 0.60387 0.67018 0.0
C2299 C 0.87951 0.63822 0.63238 0.0
N2300 N 0.92277 0.64484 0.69708 0.0
N2301 N 0.88121 0.60036 0.59804 0.0
H2302 H 0.85316 0.67304 0.62305 0.0
H2303 H 0.849 0.64462 0.60032 0.0
H2304 H 0.88619 0.5799 0.59177 0.0
H2305 H 0.87314 0.61285 0.58194 0.0
H2306 H 0.93764 0.63369 0.70873 0.0
H2307 H 0.92278 0.66625 0.70163 0.0
H2308 H 0.92231 0.59229 0.71157 0.0
H2309 H 0.92065 0.56426 0.68798 0.0
C2310 C 0.61257 0.36878 0.61618 0.0
C2311 C 0.59917 0.35567 0.59283 0.0
C2312 C 0.64282 0.33003 0.58175 0.0
C2313 C 0.65616 0.34316 0.60501 0.0
N2314 N 0.65566 0.37678 0.64281 0.0
N2315 N 0.60208 0.32601 0.55146 0.0
C2316 C 0.64157 0.3631 0.62177 0.0
C2317 C 0.61449 0.33699 0.57503 0.0
N2318 N 0.59745 0.38668 0.63293 0.0
N2319 N 0.65727 0.31047 0.56624 0.0
H2320 H 0.58082 0.32801 0.54673 0.0
H2321 H 0.61301 0.31578 0.5355 0.0
H2322 H 0.67876 0.30674 0.56855 0.0
H2323 H 0.64799 0.29691 0.5518 0.0
H2324 H 0.60455 0.39462 0.65202 0.0
H2325 H 0.5771 0.39332 0.62805 0.0
H2326 H 0.64748 0.39349 0.65431 0.0
H2327 H 0.67645 0.37216 0.64817 0.0
C2328 C 0.92038 0.3559 0.84596 0.0
C2329 C 0.89541 0.34303 0.85593 0.0
C2330 C 0.88254 0.38688 0.87996 0.0
C2331 C 0.90541 0.40079 0.86649 0.0
N2332 N 0.94297 0.39907 0.83192 0.0
N2333 N 0.85145 0.34622 0.88085 0.0
C2334 C 0.92365 0.38544 0.84837 0.0
C2335 C 0.87612 0.35848 0.8726 0.0
N2336 N 0.94137 0.33978 0.83464 0.0
N2337 N 0.86768 0.40043 0.90052 0.0
H2338 H 0.84661 0.32528 0.87639 0.0
H2339 H 0.83509 0.35725 0.89042 0.0
H2340 H 0.87242 0.42083 0.90706 0.0
H2341 H 0.8525 0.39062 0.91292 0.0
H2342 H 0.96129 0.34768 0.82995 0.0
H2343 H 0.93991 0.31796 0.8327 0.0
H2344 H 0.95435 0.38905 0.81607 0.0
H2345 H 0.94573 0.42079 0.83185 0.0
C2346 C 0.85706 0.63432 0.09227 0.0
C2347 C 0.84854 0.65425 0.11296 0.0
C2348 C 0.89791 0.66715 0.12009 0.0
C2349 C 0.90657 0.64512 0.1017 0.0
N2350 N 0.89377 0.60228 0.07756 0.0
N2351 N 0.86215 0.68279 0.15272 0.0
C2352 C 0.88594 0.62687 0.09021 0.0
C2353 C 0.86939 0.66839 0.12894 0.0
N2354 N 0.83833 0.62396 0.07309 0.0
N2355 N 0.91598 0.68824 0.12751 0.0
H2356 H 0.84168 0.68302 0.16068 0.0
H2357 H 0.87707 0.69156 0.16621 0.0
H2358 H 0.93635 0.69012 0.11968 0.0
H2359 H 0.90947 0.70591 0.13878 0.0
H2360 H 0.8445 0.61145 0.05616 0.0
H2361 H 0.81743 0.63042 0.07181 0.0
H2362 H 0.87922 0.5873 0.07085 0.0
H2363 H 0.91463 0.59542 0.07688 0.0
C2364 C 0.58741 0.63715 0.32762 0.0
C2365 C 0.60785 0.65126 0.34436 0.0
C2366 C 0.61304 0.60893 0.37367 0.0
C2367 C 0.5941 0.59448 0.35575 0.0
N2368 N 0.56838 0.59261 0.31201 0.0
N2369 N 0.64404 0.64904 0.37986 0.0
C2370 C 0.58279 0.60794 0.33166 0.0
C2371 C 0.62177 0.63671 0.36648 0.0
N2372 N 0.57129 0.65177 0.30877 0.0
N2373 N 0.62203 0.5964 0.39796 0.0
H2374 H 0.65145 0.66903 0.37463 0.0
H2375 H 0.65682 0.63853 0.39423 0.0
H2376 H 0.61622 0.57601 0.40365 0.0
H2377 H 0.63339 0.60691 0.41345 0.0
H2378 H 0.55374 0.64319 0.29883 0.0
H2379 H 0.57359 0.67317 0.30476 0.0
H2380 H 0.56252 0.60063 0.29246 0.0
H2381 H 0.5646 0.57107 0.31396 0.0
C2382 C 0.66407 0.92137 0.61212 0.0
C2383 C 0.64386 0.90556 0.59671 0.0
C2384 C 0.63539 0.87573 0.63828 0.0
C2385 C 0.65691 0.89041 0.65295 0.0
N2386 N 0.69479 0.92453 0.65246 0.0
N2387 N 0.61109 0.86695 0.59411 0.0
C2388 C 0.67215 0.91237 0.63946 0.0
C2389 C 0.62979 0.88246 0.60952 0.0
N2390 N 0.67536 0.94542 0.60097 0.0
N2391 N 0.62026 0.85539 0.65194 0.0
H2392 H 0.60467 0.87264 0.57391 0.0
H2393 H 0.60261 0.84789 0.60073 0.0
H2394 H 0.62525 0.84832 0.6721 0.0
H2395 H 0.60212 0.84615 0.64391 0.0
H2396 H 0.68669 0.96001 0.61273 0.0
H2397 H 0.67196 0.95227 0.58048 0.0
H2398 H 0.70924 0.93734 0.6421 0.0
H2399 H 0.70069 0.92052 0.67314 0.0
loop_
_geom_bond_atom_site_label_1
_geom_bond_atom_site_label_2
_geom_bond_distance
_geom_bond_site_symmetry_2
_ccdc_geom_bond_type
O0 Cd1 2.223 . S
O0 C8 1.315 . S
Cd1 O0 2.223 . S
Cd1 O4 2.297 . S
Cd1 O5 2.439 . S
Cd1 O11 2.240 . S
Cd2 O3 2.240 . S
Cd2 O10 2.223 . S
Cd2 O12 2.297 . S
Cd2 O13 2.439 . S
O3 Cd2 2.240 . S
O3 C8 1.279 . S
O4 Cd1 2.297 . S
O4 C6 1.247 . S
O5 Cd1 2.439 . S
O5 C6 1.208 . S
C6 O4 1.247 . S
C6 O5 1.208 . S
C7 O12 1.247 . S
C7 O13 1.208 . S
C8 O0 1.315 . S
C8 O3 1.279 . S
C9 O10 1.315 . S
C9 O11 1.279 . S
O10 Cd2 2.223 . S
O10 C9 1.315 . S
O11 Cd1 2.240 . S
O11 C9 1.279 . S
O12 Cd2 2.297 . S
O12 C7 1.247 . S
O13 Cd2 2.439 . S
O13 C7 1.208 . S
O14 Cd15 2.223 . S
O14 C22 1.315 . S
Cd15 O14 2.223 . S
Cd15 O18 2.297 . S
Cd15 O19 2.439 . S
Cd15 O25 2.240 . S
Cd16 O17 2.240 . S
Cd16 O24 2.223 1_565 S
Cd16 O26 2.297 . S
Cd16 O27 2.439 . S
O17 Cd16 2.240 . S
O17 C22 1.279 1_655 S
O18 Cd15 2.297 . S
O18 C20 1.247 . S
O19 Cd15 2.439 . S
O19 C20 1.208 . S
C20 O18 1.247 . S
C20 O19 1.208 . S
C21 O26 1.247 . S
C21 O27 1.208 . S
C22 O14 1.315 . S
C22 O17 1.279 1_455 S
C23 O24 1.315 1_455 S
C23 O25 1.279 1_545 S
O24 Cd16 2.223 1_545 S
O24 C23 1.315 1_655 S
O25 Cd15 2.240 . S
O25 C23 1.279 1_565 S
O26 Cd16 2.297 . S
O26 C21 1.247 . S
O27 Cd16 2.439 . S
O27 C21 1.208 . S
O28 Cd29 2.223 . S
O28 C36 1.315 . S
Cd29 O28 2.223 . S
Cd29 O32 2.297 . S
Cd29 O33 2.439 . S
Cd29 O39 2.240 . S
Cd30 O31 2.240 . S
Cd30 O38 2.223 . S
Cd30 O40 2.297 . S
Cd30 O41 2.439 . S
O31 Cd30 2.240 . S
O31 C36 1.279 . S
O32 Cd29 2.297 . S
O32 C34 1.247 . S
O33 Cd29 2.439 . S
O33 C34 1.208 . S
C34 O32 1.247 . S
C34 O33 1.208 . S
C35 O40 1.247 . S
C35 O41 1.208 . S
C36 O28 1.315 . S
C36 O31 1.279 . S
C37 O38 1.315 . S
C37 O39 1.279 . S
O38 Cd30 2.223 . S
O38 C37 1.315 . S
O39 Cd29 2.240 . S
O39 C37 1.279 . S
O40 Cd30 2.297 . S
O40 C35 1.247 . S
O41 Cd30 2.439 . S
O41 C35 1.208 . S
O42 Cd43 2.223 . S
O42 C50 1.315 . S
Cd43 O42 2.223 . S
Cd43 O46 2.297 . S
Cd43 O47 2.439 . S
Cd43 O53 2.240 . S
Cd44 O45 2.240 . S
Cd44 O52 2.223 1_545 S
Cd44 O54 2.297 . S
Cd44 O55 2.439 . S
O45 Cd44 2.240 . S
O45 C50 1.279 . S
O46 Cd43 2.297 . S
O46 C48 1.247 . S
O47 Cd43 2.439 . S
O47 C48 1.208 . S
C48 O46 1.247 . S
C48 O47 1.208 . S
C49 O54 1.247 . S
C49 O55 1.208 . S
C50 O42 1.315 . S
C50 O45 1.279 . S
C51 O52 1.315 . S
C51 O53 1.279 1_565 S
O52 Cd44 2.223 1_565 S
O52 C51 1.315 . S
O53 Cd43 2.240 . S
O53 C51 1.279 1_545 S
O54 Cd44 2.297 . S
O54 C49 1.247 . S
O55 Cd44 2.439 . S
O55 C49 1.208 . S
O56 Cd57 2.223 . S
O56 C64 1.315 . S
Cd57 O56 2.223 . S
Cd57 O60 2.297 . S
Cd57 O61 2.439 . S
Cd57 O67 2.240 . S
Cd58 O59 2.240 . S
Cd58 O66 2.223 . S
Cd58 O68 2.297 . S
Cd58 O69 2.439 . S
O59 Cd58 2.240 . S
O59 C64 1.279 . S
O60 Cd57 2.297 . S
O60 C62 1.247 . S
O61 Cd57 2.439 . S
O61 C62 1.208 . S
C62 O60 1.247 . S
C62 O61 1.208 . S
C63 O68 1.247 . S
C63 O69 1.208 . S
C64 O56 1.315 . S
C64 O59 1.279 . S
C65 O66 1.315 . S
C65 O67 1.279 . S
O66 Cd58 2.223 . S
O66 C65 1.315 . S
O67 Cd57 2.240 . S
O67 C65 1.279 . S
O68 Cd58 2.297 . S
O68 C63 1.247 . S
O69 Cd58 2.439 . S
O69 C63 1.208 . S
O70 Cd71 2.223 . S
O70 C78 1.315 . S
Cd71 O70 2.223 . S
Cd71 O74 2.297 . S
Cd71 O75 2.439 . S
Cd71 O81 2.240 . S
Cd72 O73 2.240 . S
Cd72 O80 2.223 1_565 S
Cd72 O82 2.297 . S
Cd72 O83 2.439 . S
O73 Cd72 2.240 . S
O73 C78 1.279 . S
O74 Cd71 2.297 . S
O74 C76 1.247 . S
O75 Cd71 2.439 . S
O75 C76 1.208 . S
C76 O74 1.247 . S
C76 O75 1.208 . S
C77 O82 1.247 . S
C77 O83 1.208 . S
C78 O70 1.315 . S
C78 O73 1.279 . S
C79 O80 1.315 . S
C79 O81 1.279 1_545 S
O80 Cd72 2.223 1_545 S
O80 C79 1.315 . S
O81 Cd71 2.240 . S
O81 C79 1.279 1_565 S
O82 Cd72 2.297 . S
O82 C77 1.247 . S
O83 Cd72 2.439 . S
O83 C77 1.208 . S
O84 Cd85 2.223 . S
O84 C92 1.315 . S
Cd85 O84 2.223 . S
Cd85 O88 2.297 . S
Cd85 O89 2.439 . S
Cd85 O95 2.240 . S
Cd86 O87 2.240 . S
Cd86 O94 2.223 . S
Cd86 O96 2.297 . S
Cd86 O97 2.439 . S
O87 Cd86 2.240 . S
O87 C92 1.279 . S
O88 Cd85 2.297 . S
O88 C90 1.247 . S
O89 Cd85 2.439 . S
O89 C90 1.208 . S
C90 O88 1.247 . S
C90 O89 1.208 . S
C91 O96 1.247 . S
C91 O97 1.208 . S
C92 O84 1.315 . S
C92 O87 1.279 . S
C93 O94 1.315 . S
C93 O95 1.279 . S
O94 Cd86 2.223 . S
O94 C93 1.315 . S
O95 Cd85 2.240 . S
O95 C93 1.279 . S
O96 Cd86 2.297 . S
O96 C91 1.247 . S
O97 Cd86 2.439 . S
O97 C91 1.208 . S
O98 Cd99 2.223 . S
O98 C106 1.315 . S
Cd99 O98 2.223 . S
Cd99 O102 2.297 . S
Cd99 O103 2.439 . S
Cd99 O109 2.240 . S
Cd100 O101 2.240 . S
Cd100 O108 2.223 1_545 S
Cd100 O110 2.297 . S
Cd100 O111 2.439 . S
O101 Cd100 2.240 . S
O101 C106 1.279 1_655 S
O102 Cd99 2.297 . S
O102 C104 1.247 . S
O103 Cd99 2.439 . S
O103 C104 1.208 . S
C104 O102 1.247 . S
C104 O103 1.208 . S
C105 O110 1.247 . S
C105 O111 1.208 . S
C106 O98 1.315 . S
C106 O101 1.279 1_455 S
C107 O108 1.315 1_455 S
C107 O109 1.279 1_565 S
O108 Cd100 2.223 1_565 S
O108 C107 1.315 1_655 S
O109 Cd99 2.240 . S
O109 C107 1.279 1_545 S
O110 Cd100 2.297 . S
O110 C105 1.247 . S
O111 Cd100 2.439 . S
O111 C105 1.208 . S
O112 Cd113 2.223 . S
O112 C120 1.315 . S
Cd113 O112 2.223 . S
Cd113 O116 2.297 . S
Cd113 O117 2.439 . S
Cd113 O123 2.240 . S
Cd114 O115 2.240 . S
Cd114 O122 2.223 . S
Cd114 O124 2.297 . S
Cd114 O125 2.439 . S
O115 Cd114 2.240 . S
O115 C120 1.279 . S
O116 Cd113 2.297 . S
O116 C118 1.247 . S
O117 Cd113 2.439 . S
O117 C118 1.208 . S
C118 O116 1.247 . S
C118 O117 1.208 . S
C119 O124 1.247 . S
C119 O125 1.208 . S
C120 O112 1.315 . S
C120 O115 1.279 . S
C121 O122 1.315 . S
C121 O123 1.279 . S
O122 Cd114 2.223 . S
O122 C121 1.315 . S
O123 Cd113 2.240 . S
O123 C121 1.279 . S
O124 Cd114 2.297 . S
O124 C119 1.247 . S
O125 Cd114 2.439 . S
O125 C119 1.208 . S
O126 Cd127 2.223 . S
O126 C134 1.315 . S
Cd127 O126 2.223 . S
Cd127 O130 2.297 . S
Cd127 O131 2.439 . S
Cd127 O137 2.240 . S
Cd128 O129 2.240 . S
Cd128 O136 2.223 1_455 S
Cd128 O138 2.297 . S
Cd128 O139 2.439 . S
O129 Cd128 2.240 . S
O129 C134 1.279 . S
O130 Cd127 2.297 . S
O130 C132 1.247 . S
O131 Cd127 2.439 . S
O131 C132 1.208 . S
C132 O130 1.247 . S
C132 O131 1.208 . S
C133 O138 1.247 . S
C133 O139 1.208 . S
C134 O126 1.315 . S
C134 O129 1.279 . S
C135 O136 1.315 . S
C135 O137 1.279 1_655 S
O136 Cd128 2.223 1_655 S
O136 C135 1.315 . S
O137 Cd127 2.240 . S
O137 C135 1.279 1_455 S
O138 Cd128 2.297 . S
O138 C133 1.247 . S
O139 Cd128 2.439 . S
O139 C133 1.208 . S
O140 Cd141 2.223 . S
O140 C148 1.315 . S
Cd141 O140 2.223 . S
Cd141 O144 2.297 . S
Cd141 O145 2.439 . S
Cd141 O151 2.240 . S
Cd142 O143 2.240 . S
Cd142 O150 2.223 . S
Cd142 O152 2.297 . S
Cd142 O153 2.439 . S
O143 Cd142 2.240 . S
O143 C148 1.279 . S
O144 Cd141 2.297 . S
O144 C146 1.247 . S
O145 Cd141 2.439 . S
O145 C146 1.208 . S
C146 O144 1.247 . S
C146 O145 1.208 . S
C147 O152 1.247 . S
C147 O153 1.208 . S
C148 O140 1.315 . S
C148 O143 1.279 . S
C149 O150 1.315 . S
C149 O151 1.279 . S
O150 Cd142 2.223 . S
O150 C149 1.315 . S
O151 Cd141 2.240 . S
O151 C149 1.279 . S
O152 Cd142 2.297 . S
O152 C147 1.247 . S
O153 Cd142 2.439 . S
O153 C147 1.208 . S
O154 Cd155 2.223 . S
O154 C162 1.315 . S
Cd155 O154 2.223 . S
Cd155 O158 2.297 . S
Cd155 O159 2.439 . S
Cd155 O165 2.240 . S
Cd156 O157 2.240 . S
Cd156 O164 2.223 . S
Cd156 O166 2.297 . S
Cd156 O167 2.439 . S
O157 Cd156 2.240 . S
O157 C162 1.279 1_554 S
O158 Cd155 2.297 . S
O158 C160 1.247 . S
O159 Cd155 2.439 . S
O159 C160 1.208 . S
C160 O158 1.247 . S
C160 O159 1.208 . S
C161 O166 1.247 . S
C161 O167 1.208 . S
C162 O154 1.315 . S
C162 O157 1.279 1_556 S
C163 O164 1.315 1_556 S
C163 O165 1.279 . S
O164 Cd156 2.223 . S
O164 C163 1.315 1_554 S
O165 Cd155 2.240 . S
O165 C163 1.279 . S
O166 Cd156 2.297 . S
O166 C161 1.247 . S
O167 Cd156 2.439 . S
O167 C161 1.208 . S
O168 Cd169 2.223 . S
O168 C176 1.315 . S
Cd169 O168 2.223 . S
Cd169 O172 2.297 . S
Cd169 O173 2.439 . S
Cd169 O179 2.240 . S
Cd170 O171 2.240 . S
Cd170 O178 2.223 . S
Cd170 O180 2.297 . S
Cd170 O181 2.439 . S
O171 Cd170 2.240 . S
O171 C176 1.279 . S
O172 Cd169 2.297 . S
O172 C174 1.247 . S
O173 Cd169 2.439 . S
O173 C174 1.208 . S
C174 O172 1.247 . S
C174 O173 1.208 . S
C175 O180 1.247 . S
C175 O181 1.208 . S
C176 O168 1.315 . S
C176 O171 1.279 . S
C177 O178 1.315 . S
C177 O179 1.279 . S
O178 Cd170 2.223 . S
O178 C177 1.315 . S
O179 Cd169 2.240 . S
O179 C177 1.279 . S
O180 Cd170 2.297 . S
O180 C175 1.247 . S
O181 Cd170 2.439 . S
O181 C175 1.208 . S
O182 Cd183 2.223 . S
O182 C190 1.315 . S
Cd183 O182 2.223 . S
Cd183 O186 2.297 . S
Cd183 O187 2.439 . S
Cd183 O193 2.240 . S
Cd184 O185 2.240 . S
Cd184 O192 2.223 . S
Cd184 O194 2.297 . S
Cd184 O195 2.439 . S
O185 Cd184 2.240 . S
O185 C190 1.279 . S
O186 Cd183 2.297 . S
O186 C188 1.247 . S
O187 Cd183 2.439 . S
O187 C188 1.208 . S
C188 O186 1.247 . S
C188 O187 1.208 . S
C189 O194 1.247 . S
C189 O195 1.208 . S
C190 O182 1.315 . S
C190 O185 1.279 . S
C191 O192 1.315 . S
C191 O193 1.279 . S
O192 Cd184 2.223 . S
O192 C191 1.315 . S
O193 Cd183 2.240 . S
O193 C191 1.279 . S
O194 Cd184 2.297 . S
O194 C189 1.247 . S
O195 Cd184 2.439 . S
O195 C189 1.208 . S
O196 Cd197 2.223 . S
O196 C204 1.315 . S
Cd197 O196 2.223 . S
Cd197 O200 2.297 . S
Cd197 O201 2.439 . S
Cd197 O207 2.240 . S
Cd198 O199 2.240 . S
Cd198 O206 2.223 . S
Cd198 O208 2.297 . S
Cd198 O209 2.439 . S
O199 Cd198 2.240 . S
O199 C204 1.279 . S
O200 Cd197 2.297 . S
O200 C202 1.247 . S
O201 Cd197 2.439 . S
O201 C202 1.208 . S
C202 O200 1.247 . S
C202 O201 1.208 . S
C203 O208 1.247 . S
C203 O209 1.208 . S
C204 O196 1.315 . S
C204 O199 1.279 . S
C205 O206 1.315 . S
C205 O207 1.279 . S
O206 Cd198 2.223 . S
O206 C205 1.315 . S
O207 Cd197 2.240 . S
O207 C205 1.279 . S
O208 Cd198 2.297 . S
O208 C203 1.247 . S
O209 Cd198 2.439 . S
O209 C203 1.208 . S
O210 Cd211 2.223 . S
O210 C218 1.315 . S
Cd211 O210 2.223 . S
Cd211 O214 2.297 . S
Cd211 O215 2.439 . S
Cd211 O221 2.240 . S
Cd212 O213 2.240 . S
Cd212 O220 2.223 1_455 S
Cd212 O222 2.297 . S
Cd212 O223 2.439 . S
O213 Cd212 2.240 . S
O213 C218 1.279 1_556 S
O214 Cd211 2.297 . S
O214 C216 1.247 . S
O215 Cd211 2.439 . S
O215 C216 1.208 . S
C216 O214 1.247 . S
C216 O215 1.208 . S
C217 O222 1.247 . S
C217 O223 1.208 . S
C218 O210 1.315 . S
C218 O213 1.279 1_554 S
C219 O220 1.315 1_554 S
C219 O221 1.279 1_655 S
O220 Cd212 2.223 1_655 S
O220 C219 1.315 1_556 S
O221 Cd211 2.240 . S
O221 C219 1.279 1_455 S
O222 Cd212 2.297 . S
O222 C217 1.247 . S
O223 Cd212 2.439 . S
O223 C217 1.208 . S
O224 Cd225 2.223 . S
O224 C232 1.315 . S
Cd225 O224 2.223 . S
Cd225 O228 2.297 . S
Cd225 O229 2.439 . S
Cd225 O235 2.240 . S
Cd226 O227 2.240 . S
Cd226 O234 2.223 . S
Cd226 O236 2.297 . S
Cd226 O237 2.439 . S
O227 Cd226 2.240 . S
O227 C232 1.279 . S
O228 Cd225 2.297 . S
O228 C230 1.247 . S
O229 Cd225 2.439 . S
O229 C230 1.208 . S
C230 O228 1.247 . S
C230 O229 1.208 . S
C231 O236 1.247 . S
C231 O237 1.208 . S
C232 O224 1.315 . S
C232 O227 1.279 . S
C233 O234 1.315 . S
C233 O235 1.279 . S
O234 Cd226 2.223 . S
O234 C233 1.315 . S
O235 Cd225 2.240 . S
O235 C233 1.279 . S
O236 Cd226 2.297 . S
O236 C231 1.247 . S
O237 Cd226 2.439 . S
O237 C231 1.208 . S
O238 Cd239 2.223 . S
O238 C246 1.315 . S
Cd239 O238 2.223 . S
Cd239 O242 2.297 . S
Cd239 O243 2.439 . S
Cd239 O249 2.240 . S
Cd240 O241 2.240 . S
Cd240 O248 2.223 . S
Cd240 O250 2.297 . S
Cd240 O251 2.439 . S
O241 Cd240 2.240 . S
O241 C246 1.279 . S
O242 Cd239 2.297 . S
O242 C244 1.247 . S
O243 Cd239 2.439 . S
O243 C244 1.208 . S
C244 O242 1.247 . S
C244 O243 1.208 . S
C245 O250 1.247 . S
C245 O251 1.208 . S
C246 O238 1.315 . S
C246 O241 1.279 . S
C247 O248 1.315 . S
C247 O249 1.279 . S
O248 Cd240 2.223 . S
O248 C247 1.315 . S
O249 Cd239 2.240 . S
O249 C247 1.279 . S
O250 Cd240 2.297 . S
O250 C245 1.247 . S
O251 Cd240 2.439 . S
O251 C245 1.208 . S
O252 Cd253 2.223 . S
O252 C260 1.315 . S
Cd253 O252 2.223 . S
Cd253 O256 2.297 . S
Cd253 O257 2.439 . S
Cd253 O263 2.240 . S
Cd254 O255 2.240 . S
Cd254 O262 2.223 1_554 S
Cd254 O264 2.297 . S
Cd254 O265 2.439 . S
O255 Cd254 2.240 . S
O255 C260 1.279 . S
O256 Cd253 2.297 . S
O256 C258 1.247 . S
O257 Cd253 2.439 . S
O257 C258 1.208 . S
C258 O256 1.247 . S
C258 O257 1.208 . S
C259 O264 1.247 . S
C259 O265 1.208 . S
C260 O252 1.315 . S
C260 O255 1.279 . S
C261 O262 1.315 . S
C261 O263 1.279 1_556 S
O262 Cd254 2.223 1_556 S
O262 C261 1.315 . S
O263 Cd253 2.240 . S
O263 C261 1.279 1_554 S
O264 Cd254 2.297 . S
O264 C259 1.247 . S
O265 Cd254 2.439 . S
O265 C259 1.208 . S
O266 Cd267 2.223 . S
O266 C274 1.315 . S
Cd267 O266 2.223 . S
Cd267 O270 2.297 . S
Cd267 O271 2.439 . S
Cd267 O277 2.240 . S
Cd268 O269 2.240 . S
Cd268 O276 2.223 . S
Cd268 O278 2.297 . S
Cd268 O279 2.439 . S
O269 Cd268 2.240 . S
O269 C274 1.279 . S
O270 Cd267 2.297 . S
O270 C272 1.247 . S
O271 Cd267 2.439 . S
O271 C272 1.208 . S
C272 O270 1.247 . S
C272 O271 1.208 . S
C273 O278 1.247 . S
C273 O279 1.208 . S
C274 O266 1.315 . S
C274 O269 1.279 . S
C275 O276 1.315 . S
C275 O277 1.279 . S
O276 Cd268 2.223 . S
O276 C275 1.315 . S
O277 Cd267 2.240 . S
O277 C275 1.279 . S
O278 Cd268 2.297 . S
O278 C273 1.247 . S
O279 Cd268 2.439 . S
O279 C273 1.208 . S
O280 Cd281 2.223 . S
O280 C288 1.315 . S
Cd281 O280 2.223 . S
Cd281 O284 2.297 . S
Cd281 O285 2.439 . S
Cd281 O291 2.240 . S
Cd282 O283 2.240 . S
Cd282 O290 2.223 1_554 S
Cd282 O292 2.297 . S
Cd282 O293 2.439 . S
O283 Cd282 2.240 . S
O283 C288 1.279 1_565 S
O284 Cd281 2.297 . S
O284 C286 1.247 . S
O285 Cd281 2.439 . S
O285 C286 1.208 . S
C286 O284 1.247 . S
C286 O285 1.208 . S
C287 O292 1.247 . S
C287 O293 1.208 . S
C288 O280 1.315 . S
C288 O283 1.279 1_545 S
C289 O290 1.315 1_545 S
C289 O291 1.279 1_556 S
O290 Cd282 2.223 1_556 S
O290 C289 1.315 1_565 S
O291 Cd281 2.240 . S
O291 C289 1.279 1_554 S
O292 Cd282 2.297 . S
O292 C287 1.247 . S
O293 Cd282 2.439 . S
O293 C287 1.208 . S
O294 Cd295 2.223 . S
O294 C302 1.315 . S
Cd295 O294 2.223 . S
Cd295 O298 2.297 . S
Cd295 O299 2.439 . S
Cd295 O305 2.240 . S
Cd296 O297 2.240 . S
Cd296 O304 2.223 . S
Cd296 O306 2.297 . S
Cd296 O307 2.439 . S
O297 Cd296 2.240 . S
O297 C302 1.279 . S
O298 Cd295 2.297 . S
O298 C300 1.247 . S
O299 Cd295 2.439 . S
O299 C300 1.208 . S
C300 O298 1.247 . S
C300 O299 1.208 . S
C301 O306 1.247 . S
C301 O307 1.208 . S
C302 O294 1.315 . S
C302 O297 1.279 . S
C303 O304 1.315 . S
C303 O305 1.279 . S
O304 Cd296 2.223 . S
O304 C303 1.315 . S
O305 Cd295 2.240 . S
O305 C303 1.279 . S
O306 Cd296 2.297 . S
O306 C301 1.247 . S
O307 Cd296 2.439 . S
O307 C301 1.208 . S
O308 Cd309 2.223 . S
O308 C316 1.315 . S
Cd309 O308 2.223 . S
Cd309 O312 2.297 . S
Cd309 O313 2.439 . S
Cd309 O319 2.240 . S
Cd310 O311 2.240 . S
Cd310 O318 2.223 . S
Cd310 O320 2.297 . S
Cd310 O321 2.439 . S
O311 Cd310 2.240 . S
O311 C316 1.279 . S
O312 Cd309 2.297 . S
O312 C314 1.247 . S
O313 Cd309 2.439 . S
O313 C314 1.208 . S
C314 O312 1.247 . S
C314 O313 1.208 . S
C315 O320 1.247 . S
C315 O321 1.208 . S
C316 O308 1.315 . S
C316 O311 1.279 . S
C317 O318 1.315 . S
C317 O319 1.279 . S
O318 Cd310 2.223 . S
O318 C317 1.315 . S
O319 Cd309 2.240 . S
O319 C317 1.279 . S
O320 Cd310 2.297 . S
O320 C315 1.247 . S
O321 Cd310 2.439 . S
O321 C315 1.208 . S
O322 Cd323 2.223 . S
O322 C330 1.315 . S
Cd323 O322 2.223 . S
Cd323 O326 2.297 . S
Cd323 O327 2.439 . S
Cd323 O333 2.240 . S
Cd324 O325 2.240 . S
Cd324 O332 2.223 1_556 S
Cd324 O334 2.297 . S
Cd324 O335 2.439 . S
O325 Cd324 2.240 . S
O325 C330 1.279 . S
O326 Cd323 2.297 . S
O326 C328 1.247 . S
O327 Cd323 2.439 . S
O327 C328 1.208 . S
C328 O326 1.247 . S
C328 O327 1.208 . S
C329 O334 1.247 . S
C329 O335 1.208 . S
C330 O322 1.315 . S
C330 O325 1.279 . S
C331 O332 1.315 . S
C331 O333 1.279 1_554 S
O332 Cd324 2.223 1_554 S
O332 C331 1.315 . S
O333 Cd323 2.240 . S
O333 C331 1.279 1_556 S
O334 Cd324 2.297 . S
O334 C329 1.247 . S
O335 Cd324 2.439 . S
O335 C329 1.208 . S
O336 Cd337 2.223 . S
O336 C344 1.315 . S
Cd337 O336 2.223 . S
Cd337 O340 2.297 . S
Cd337 O341 2.439 . S
Cd337 O347 2.240 . S
Cd338 O339 2.240 . S
Cd338 O346 2.223 . S
Cd338 O348 2.297 . S
Cd338 O349 2.439 . S
O339 Cd338 2.240 . S
O339 C344 1.279 . S
O340 Cd337 2.297 . S
O340 C342 1.247 . S
O341 Cd337 2.439 . S
O341 C342 1.208 . S
C342 O340 1.247 . S
C342 O341 1.208 . S
C343 O348 1.247 . S
C343 O349 1.208 . S
C344 O336 1.315 . S
C344 O339 1.279 . S
C345 O346 1.315 . S
C345 O347 1.279 . S
O346 Cd338 2.223 . S
O346 C345 1.315 . S
O347 Cd337 2.240 . S
O347 C345 1.279 . S
O348 Cd338 2.297 . S
O348 C343 1.247 . S
O349 Cd338 2.439 . S
O349 C343 1.208 . S
O350 Cd351 2.223 . S
O350 C358 1.315 . S
Cd351 O350 2.223 . S
Cd351 O354 2.297 . S
Cd351 O355 2.439 . S
Cd351 O361 2.240 . S
Cd352 O353 2.240 . S
Cd352 O360 2.223 . S
Cd352 O362 2.297 . S
Cd352 O363 2.439 . S
O353 Cd352 2.240 . S
O353 C358 1.279 . S
O354 Cd351 2.297 . S
O354 C356 1.247 . S
O355 Cd351 2.439 . S
O355 C356 1.208 . S
C356 O354 1.247 . S
C356 O355 1.208 . S
C357 O362 1.247 . S
C357 O363 1.208 . S
C358 O350 1.315 . S
C358 O353 1.279 . S
C359 O360 1.315 . S
C359 O361 1.279 . S
O360 Cd352 2.223 . S
O360 C359 1.315 . S
O361 Cd351 2.240 . S
O361 C359 1.279 . S
O362 Cd352 2.297 . S
O362 C357 1.247 . S
O363 Cd352 2.439 . S
O363 C357 1.208 . S
O364 Cd365 2.223 . S
O364 C372 1.315 . S
Cd365 O364 2.223 . S
Cd365 O368 2.297 . S
Cd365 O369 2.439 . S
Cd365 O375 2.240 . S
Cd366 O367 2.240 . S
Cd366 O374 2.223 . S
Cd366 O376 2.297 . S
Cd366 O377 2.439 . S
O367 Cd366 2.240 . S
O367 C372 1.279 . S
O368 Cd365 2.297 . S
O368 C370 1.247 . S
O369 Cd365 2.439 . S
O369 C370 1.208 . S
C370 O368 1.247 . S
C370 O369 1.208 . S
C371 O376 1.247 . S
C371 O377 1.208 . S
C372 O364 1.315 . S
C372 O367 1.279 . S
C373 O374 1.315 . S
C373 O375 1.279 . S
O374 Cd366 2.223 . S
O374 C373 1.315 . S
O375 Cd365 2.240 . S
O375 C373 1.279 . S
O376 Cd366 2.297 . S
O376 C371 1.247 . S
O377 Cd366 2.439 . S
O377 C371 1.208 . S
O378 Cd379 2.223 . S
O378 C386 1.315 . S
Cd379 O378 2.223 . S
Cd379 O382 2.297 . S
Cd379 O383 2.439 . S
Cd379 O389 2.240 . S
Cd380 O381 2.240 . S
Cd380 O388 2.223 . S
Cd380 O390 2.297 . S
Cd380 O391 2.439 . S
O381 Cd380 2.240 . S
O381 C386 1.279 1_455 S
O382 Cd379 2.297 . S
O382 C384 1.247 . S
O383 Cd379 2.439 . S
O383 C384 1.208 . S
C384 O382 1.247 . S
C384 O383 1.208 . S
C385 O390 1.247 . S
C385 O391 1.208 . S
C386 O378 1.315 . S
C386 O381 1.279 1_655 S
C387 O388 1.315 1_655 S
C387 O389 1.279 . S
O388 Cd380 2.223 . S
O388 C387 1.315 1_455 S
O389 Cd379 2.240 . S
O389 C387 1.279 . S
O390 Cd380 2.297 . S
O390 C385 1.247 . S
O391 Cd380 2.439 . S
O391 C385 1.208 . S
O392 Cd393 2.223 . S
O392 C400 1.315 . S
Cd393 O392 2.223 . S
Cd393 O396 2.297 . S
Cd393 O397 2.439 . S
Cd393 O403 2.240 . S
Cd394 O395 2.240 . S
Cd394 O402 2.223 . S
Cd394 O404 2.297 . S
Cd394 O405 2.439 . S
O395 Cd394 2.240 . S
O395 C400 1.279 . S
O396 Cd393 2.297 . S
O396 C398 1.247 . S
O397 Cd393 2.439 . S
O397 C398 1.208 . S
C398 O396 1.247 . S
C398 O397 1.208 . S
C399 O404 1.247 . S
C399 O405 1.208 . S
C400 O392 1.315 . S
C400 O395 1.279 . S
C401 O402 1.315 . S
C401 O403 1.279 . S
O402 Cd394 2.223 . S
O402 C401 1.315 . S
O403 Cd393 2.240 . S
O403 C401 1.279 . S
O404 Cd394 2.297 . S
O404 C399 1.247 . S
O405 Cd394 2.439 . S
O405 C399 1.208 . S
O406 Cd407 2.223 . S
O406 C414 1.315 . S
Cd407 O406 2.223 . S
Cd407 O410 2.297 . S
Cd407 O411 2.439 . S
Cd407 O417 2.240 . S
Cd408 O409 2.240 . S
Cd408 O416 2.223 . S
Cd408 O418 2.297 . S
Cd408 O419 2.439 . S
O409 Cd408 2.240 . S
O409 C414 1.279 1_455 S
O410 Cd407 2.297 . S
O410 C412 1.247 . S
O411 Cd407 2.439 . S
O411 C412 1.208 . S
C412 O410 1.247 . S
C412 O411 1.208 . S
C413 O418 1.247 . S
C413 O419 1.208 . S
C414 O406 1.315 . S
C414 O409 1.279 1_655 S
C415 O416 1.315 1_655 S
C415 O417 1.279 . S
O416 Cd408 2.223 . S
O416 C415 1.315 1_455 S
O417 Cd407 2.240 . S
O417 C415 1.279 . S
O418 Cd408 2.297 . S
O418 C413 1.247 . S
O419 Cd408 2.439 . S
O419 C413 1.208 . S
O420 Cd421 2.223 . S
O420 C428 1.315 . S
Cd421 O420 2.223 . S
Cd421 O424 2.297 . S
Cd421 O425 2.439 . S
Cd421 O431 2.240 . S
Cd422 O423 2.240 . S
Cd422 O430 2.223 . S
Cd422 O432 2.297 . S
Cd422 O433 2.439 . S
O423 Cd422 2.240 . S
O423 C428 1.279 . S
O424 Cd421 2.297 . S
O424 C426 1.247 . S
O425 Cd421 2.439 . S
O425 C426 1.208 . S
C426 O424 1.247 . S
C426 O425 1.208 . S
C427 O432 1.247 . S
C427 O433 1.208 . S
C428 O420 1.315 . S
C428 O423 1.279 . S
C429 O430 1.315 . S
C429 O431 1.279 . S
O430 Cd422 2.223 . S
O430 C429 1.315 . S
O431 Cd421 2.240 . S
O431 C429 1.279 . S
O432 Cd422 2.297 . S
O432 C427 1.247 . S
O433 Cd422 2.439 . S
O433 C427 1.208 . S
O434 Cd435 2.223 . S
O434 C442 1.315 . S
Cd435 O434 2.223 . S
Cd435 O438 2.297 . S
Cd435 O439 2.439 . S
Cd435 O445 2.240 . S
Cd436 O437 2.240 . S
Cd436 O444 2.223 . S
Cd436 O446 2.297 . S
Cd436 O447 2.439 . S
O437 Cd436 2.240 . S
O437 C442 1.279 . S
O438 Cd435 2.297 . S
O438 C440 1.247 . S
O439 Cd435 2.439 . S
O439 C440 1.208 . S
C440 O438 1.247 . S
C440 O439 1.208 . S
C441 O446 1.247 . S
C441 O447 1.208 . S
C442 O434 1.315 . S
C442 O437 1.279 . S
C443 O444 1.315 . S
C443 O445 1.279 . S
O444 Cd436 2.223 . S
O444 C443 1.315 . S
O445 Cd435 2.240 . S
O445 C443 1.279 . S
O446 Cd436 2.297 . S
O446 C441 1.247 . S
O447 Cd436 2.439 . S
O447 C441 1.208 . S
O448 Cd449 2.223 . S
O448 C456 1.315 . S
Cd449 O448 2.223 . S
Cd449 O452 2.297 . S
Cd449 O453 2.439 . S
Cd449 O459 2.240 . S
Cd450 O451 2.240 . S
Cd450 O458 2.223 . S
Cd450 O460 2.297 . S
Cd450 O461 2.439 . S
O451 Cd450 2.240 . S
O451 C456 1.279 . S
O452 Cd449 2.297 . S
O452 C454 1.247 . S
O453 Cd449 2.439 . S
O453 C454 1.208 . S
C454 O452 1.247 . S
C454 O453 1.208 . S
C455 O460 1.247 . S
C455 O461 1.208 . S
C456 O448 1.315 . S
C456 O451 1.279 . S
C457 O458 1.315 . S
C457 O459 1.279 . S
O458 Cd450 2.223 . S
O458 C457 1.315 . S
O459 Cd449 2.240 . S
O459 C457 1.279 . S
O460 Cd450 2.297 . S
O460 C455 1.247 . S
O461 Cd450 2.439 . S
O461 C455 1.208 . S
O462 Cd463 2.223 . S
O462 C470 1.315 . S
Cd463 O462 2.223 . S
Cd463 O466 2.297 . S
Cd463 O467 2.439 . S
Cd463 O473 2.240 . S
Cd464 O465 2.240 . S
Cd464 O472 2.223 . S
Cd464 O474 2.297 . S
Cd464 O475 2.439 . S
O465 Cd464 2.240 . S
O465 C470 1.279 1_554 S
O466 Cd463 2.297 . S
O466 C468 1.247 . S
O467 Cd463 2.439 . S
O467 C468 1.208 . S
C468 O466 1.247 . S
C468 O467 1.208 . S
C469 O474 1.247 . S
C469 O475 1.208 . S
C470 O462 1.315 . S
C470 O465 1.279 1_556 S
C471 O472 1.315 1_556 S
C471 O473 1.279 . S
O472 Cd464 2.223 . S
O472 C471 1.315 1_554 S
O473 Cd463 2.240 . S
O473 C471 1.279 . S
O474 Cd464 2.297 . S
O474 C469 1.247 . S
O475 Cd464 2.439 . S
O475 C469 1.208 . S
O476 Cd477 2.223 . S
O476 C484 1.315 . S
Cd477 O476 2.223 . S
Cd477 O480 2.297 . S
Cd477 O481 2.439 . S
Cd477 O487 2.240 . S
Cd478 O479 2.240 . S
Cd478 O486 2.223 . S
Cd478 O488 2.297 . S
Cd478 O489 2.439 . S
O479 Cd478 2.240 . S
O479 C484 1.279 . S
O480 Cd477 2.297 . S
O480 C482 1.247 . S
O481 Cd477 2.439 . S
O481 C482 1.208 . S
C482 O480 1.247 . S
C482 O481 1.208 . S
C483 O488 1.247 . S
C483 O489 1.208 . S
C484 O476 1.315 . S
C484 O479 1.279 . S
C485 O486 1.315 . S
C485 O487 1.279 . S
O486 Cd478 2.223 . S
O486 C485 1.315 . S
O487 Cd477 2.240 . S
O487 C485 1.279 . S
O488 Cd478 2.297 . S
O488 C483 1.247 . S
O489 Cd478 2.439 . S
O489 C483 1.208 . S
O490 Cd491 2.223 . S
O490 C498 1.315 . S
Cd491 O490 2.223 . S
Cd491 O494 2.297 . S
Cd491 O495 2.439 . S
Cd491 O501 2.240 . S
Cd492 O493 2.240 . S
Cd492 O500 2.223 1_655 S
Cd492 O502 2.297 . S
Cd492 O503 2.439 . S
O493 Cd492 2.240 . S
O493 C498 1.279 . S
O494 Cd491 2.297 . S
O494 C496 1.247 . S
O495 Cd491 2.439 . S
O495 C496 1.208 . S
C496 O494 1.247 . S
C496 O495 1.208 . S
C497 O502 1.247 . S
C497 O503 1.208 . S
C498 O490 1.315 . S
C498 O493 1.279 . S
C499 O500 1.315 . S
C499 O501 1.279 1_455 S
O500 Cd492 2.223 1_455 S
O500 C499 1.315 . S
O501 Cd491 2.240 . S
O501 C499 1.279 1_655 S
O502 Cd492 2.297 . S
O502 C497 1.247 . S
O503 Cd492 2.439 . S
O503 C497 1.208 . S
O504 Cd505 2.223 . S
O504 C512 1.315 . S
Cd505 O504 2.223 . S
Cd505 O508 2.297 . S
Cd505 O509 2.439 . S
Cd505 O515 2.240 . S
Cd506 O507 2.240 . S
Cd506 O514 2.223 . S
Cd506 O516 2.297 . S
Cd506 O517 2.439 . S
O507 Cd506 2.240 . S
O507 C512 1.279 . S
O508 Cd505 2.297 . S
O508 C510 1.247 . S
O509 Cd505 2.439 . S
O509 C510 1.208 . S
C510 O508 1.247 . S
C510 O509 1.208 . S
C511 O516 1.247 . S
C511 O517 1.208 . S
C512 O504 1.315 . S
C512 O507 1.279 . S
C513 O514 1.315 . S
C513 O515 1.279 . S
O514 Cd506 2.223 . S
O514 C513 1.315 . S
O515 Cd505 2.240 . S
O515 C513 1.279 . S
O516 Cd506 2.297 . S
O516 C511 1.247 . S
O517 Cd506 2.439 . S
O517 C511 1.208 . S
O518 Cd519 2.223 . S
O518 C526 1.315 . S
Cd519 O518 2.223 . S
Cd519 O522 2.297 . S
Cd519 O523 2.439 . S
Cd519 O529 2.240 . S
Cd520 O521 2.240 . S
Cd520 O528 2.223 1_655 S
Cd520 O530 2.297 . S
Cd520 O531 2.439 . S
O521 Cd520 2.240 . S
O521 C526 1.279 1_556 S
O522 Cd519 2.297 . S
O522 C524 1.247 . S
O523 Cd519 2.439 . S
O523 C524 1.208 . S
C524 O522 1.247 . S
C524 O523 1.208 . S
C525 O530 1.247 . S
C525 O531 1.208 . S
C526 O518 1.315 . S
C526 O521 1.279 1_554 S
C527 O528 1.315 1_554 S
C527 O529 1.279 1_455 S
O528 Cd520 2.223 1_455 S
O528 C527 1.315 1_556 S
O529 Cd519 2.240 . S
O529 C527 1.279 1_655 S
O530 Cd520 2.297 . S
O530 C525 1.247 . S
O531 Cd520 2.439 . S
O531 C525 1.208 . S
O532 Cd533 2.223 . S
O532 C540 1.315 . S
Cd533 O532 2.223 . S
Cd533 O536 2.297 . S
Cd533 O537 2.439 . S
Cd533 O543 2.240 . S
Cd534 O535 2.240 . S
Cd534 O542 2.223 . S
Cd534 O544 2.297 . S
Cd534 O545 2.439 . S
O535 Cd534 2.240 . S
O535 C540 1.279 . S
O536 Cd533 2.297 . S
O536 C538 1.247 . S
O537 Cd533 2.439 . S
O537 C538 1.208 . S
C538 O536 1.247 . S
C538 O537 1.208 . S
C539 O544 1.247 . S
C539 O545 1.208 . S
C540 O532 1.315 . S
C540 O535 1.279 . S
C541 O542 1.315 . S
C541 O543 1.279 . S
O542 Cd534 2.223 . S
O542 C541 1.315 . S
O543 Cd533 2.240 . S
O543 C541 1.279 . S
O544 Cd534 2.297 . S
O544 C539 1.247 . S
O545 Cd534 2.439 . S
O545 C539 1.208 . S
O546 Cd547 2.223 . S
O546 C554 1.315 . S
Cd547 O546 2.223 . S
Cd547 O550 2.297 . S
Cd547 O551 2.439 . S
Cd547 O557 2.240 . S
Cd548 O549 2.240 . S
Cd548 O556 2.223 . S
Cd548 O558 2.297 . S
Cd548 O559 2.439 . S
O549 Cd548 2.240 . S
O549 C554 1.279 . S
O550 Cd547 2.297 . S
O550 C552 1.247 . S
O551 Cd547 2.439 . S
O551 C552 1.208 . S
C552 O550 1.247 . S
C552 O551 1.208 . S
C553 O558 1.247 . S
C553 O559 1.208 . S
C554 O546 1.315 . S
C554 O549 1.279 . S
C555 O556 1.315 . S
C555 O557 1.279 . S
O556 Cd548 2.223 . S
O556 C555 1.315 . S
O557 Cd547 2.240 . S
O557 C555 1.279 . S
O558 Cd548 2.297 . S
O558 C553 1.247 . S
O559 Cd548 2.439 . S
O559 C553 1.208 . S
O560 Cd561 2.223 . S
O560 C568 1.315 . S
Cd561 O560 2.223 . S
Cd561 O564 2.297 . S
Cd561 O565 2.439 . S
Cd561 O571 2.240 . S
Cd562 O563 2.240 . S
Cd562 O570 2.223 . S
Cd562 O572 2.297 . S
Cd562 O573 2.439 . S
O563 Cd562 2.240 . S
O563 C568 1.279 . S
O564 Cd561 2.297 . S
O564 C566 1.247 . S
O565 Cd561 2.439 . S
O565 C566 1.208 . S
C566 O564 1.247 . S
C566 O565 1.208 . S
C567 O572 1.247 . S
C567 O573 1.208 . S
C568 O560 1.315 . S
C568 O563 1.279 . S
C569 O570 1.315 . S
C569 O571 1.279 . S
O570 Cd562 2.223 . S
O570 C569 1.315 . S
O571 Cd561 2.240 . S
O571 C569 1.279 . S
O572 Cd562 2.297 . S
O572 C567 1.247 . S
O573 Cd562 2.439 . S
O573 C567 1.208 . S
O574 Cd575 2.223 . S
O574 C582 1.315 . S
Cd575 O574 2.223 . S
Cd575 O578 2.297 . S
Cd575 O579 2.439 . S
Cd575 O585 2.240 . S
Cd576 O577 2.240 . S
Cd576 O584 2.223 . S
Cd576 O586 2.297 . S
Cd576 O587 2.439 . S
O577 Cd576 2.240 . S
O577 C582 1.279 . S
O578 Cd575 2.297 . S
O578 C580 1.247 . S
O579 Cd575 2.439 . S
O579 C580 1.208 . S
C580 O578 1.247 . S
C580 O579 1.208 . S
C581 O586 1.247 . S
C581 O587 1.208 . S
C582 O574 1.315 . S
C582 O577 1.279 . S
C583 O584 1.315 . S
C583 O585 1.279 . S
O584 Cd576 2.223 . S
O584 C583 1.315 . S
O585 Cd575 2.240 . S
O585 C583 1.279 . S
O586 Cd576 2.297 . S
O586 C581 1.247 . S
O587 Cd576 2.439 . S
O587 C581 1.208 . S
O588 Cd589 2.223 . S
O588 C596 1.315 . S
Cd589 O588 2.223 . S
Cd589 O592 2.297 . S
Cd589 O593 2.439 . S
Cd589 O599 2.240 . S
Cd590 O591 2.240 . S
Cd590 O598 2.223 . S
Cd590 O600 2.297 . S
Cd590 O601 2.439 . S
O591 Cd590 2.240 . S
O591 C596 1.279 1_545 S
O592 Cd589 2.297 . S
O592 C594 1.247 . S
O593 Cd589 2.439 . S
O593 C594 1.208 . S
C594 O592 1.247 . S
C594 O593 1.208 . S
C595 O600 1.247 . S
C595 O601 1.208 . S
C596 O588 1.315 . S
C596 O591 1.279 1_565 S
C597 O598 1.315 1_565 S
C597 O599 1.279 . S
O598 Cd590 2.223 . S
O598 C597 1.315 1_545 S
O599 Cd589 2.240 . S
O599 C597 1.279 . S
O600 Cd590 2.297 . S
O600 C595 1.247 . S
O601 Cd590 2.439 . S
O601 C595 1.208 . S
O602 Cd603 2.223 . S
O602 C610 1.315 . S
Cd603 O602 2.223 . S
Cd603 O606 2.297 . S
Cd603 O607 2.439 . S
Cd603 O613 2.240 . S
Cd604 O605 2.240 . S
Cd604 O612 2.223 . S
Cd604 O614 2.297 . S
Cd604 O615 2.439 . S
O605 Cd604 2.240 . S
O605 C610 1.279 . S
O606 Cd603 2.297 . S
O606 C608 1.247 . S
O607 Cd603 2.439 . S
O607 C608 1.208 . S
C608 O606 1.247 . S
C608 O607 1.208 . S
C609 O614 1.247 . S
C609 O615 1.208 . S
C610 O602 1.315 . S
C610 O605 1.279 . S
C611 O612 1.315 . S
C611 O613 1.279 . S
O612 Cd604 2.223 . S
O612 C611 1.315 . S
O613 Cd603 2.240 . S
O613 C611 1.279 . S
O614 Cd604 2.297 . S
O614 C609 1.247 . S
O615 Cd604 2.439 . S
O615 C609 1.208 . S
O616 Cd617 2.223 . S
O616 C624 1.315 . S
Cd617 O616 2.223 . S
Cd617 O620 2.297 . S
Cd617 O621 2.439 . S
Cd617 O627 2.240 . S
Cd618 O619 2.240 . S
Cd618 O626 2.223 . S
Cd618 O628 2.297 . S
Cd618 O629 2.439 . S
O619 Cd618 2.240 . S
O619 C624 1.279 . S
O620 Cd617 2.297 . S
O620 C622 1.247 . S
O621 Cd617 2.439 . S
O621 C622 1.208 . S
C622 O620 1.247 . S
C622 O621 1.208 . S
C623 O628 1.247 . S
C623 O629 1.208 . S
C624 O616 1.315 . S
C624 O619 1.279 . S
C625 O626 1.315 . S
C625 O627 1.279 . S
O626 Cd618 2.223 . S
O626 C625 1.315 . S
O627 Cd617 2.240 . S
O627 C625 1.279 . S
O628 Cd618 2.297 . S
O628 C623 1.247 . S
O629 Cd618 2.439 . S
O629 C623 1.208 . S
O630 Cd631 2.223 . S
O630 C638 1.315 . S
Cd631 O630 2.223 . S
Cd631 O634 2.297 . S
Cd631 O635 2.439 . S
Cd631 O641 2.240 . S
Cd632 O633 2.240 . S
Cd632 O640 2.223 . S
Cd632 O642 2.297 . S
Cd632 O643 2.439 . S
O633 Cd632 2.240 . S
O633 C638 1.279 . S
O634 Cd631 2.297 . S
O634 C636 1.247 . S
O635 Cd631 2.439 . S
O635 C636 1.208 . S
C636 O634 1.247 . S
C636 O635 1.208 . S
C637 O642 1.247 . S
C637 O643 1.208 . S
C638 O630 1.315 . S
C638 O633 1.279 . S
C639 O640 1.315 . S
C639 O641 1.279 . S
O640 Cd632 2.223 . S
O640 C639 1.315 . S
O641 Cd631 2.240 . S
O641 C639 1.279 . S
O642 Cd632 2.297 . S
O642 C637 1.247 . S
O643 Cd632 2.439 . S
O643 C637 1.208 . S
O644 Cd645 2.223 . S
O644 C652 1.315 . S
Cd645 O644 2.223 . S
Cd645 O648 2.297 . S
Cd645 O649 2.439 . S
Cd645 O655 2.240 . S
Cd646 O647 2.240 . S
Cd646 O654 2.223 1_556 S
Cd646 O656 2.297 . S
Cd646 O657 2.439 . S
O647 Cd646 2.240 . S
O647 C652 1.279 1_565 S
O648 Cd645 2.297 . S
O648 C650 1.247 . S
O649 Cd645 2.439 . S
O649 C650 1.208 . S
C650 O648 1.247 . S
C650 O649 1.208 . S
C651 O656 1.247 . S
C651 O657 1.208 . S
C652 O644 1.315 . S
C652 O647 1.279 1_545 S
C653 O654 1.315 1_545 S
C653 O655 1.279 1_554 S
O654 Cd646 2.223 1_554 S
O654 C653 1.315 1_565 S
O655 Cd645 2.240 . S
O655 C653 1.279 1_556 S
O656 Cd646 2.297 . S
O656 C651 1.247 . S
O657 Cd646 2.439 . S
O657 C651 1.208 . S
O658 Cd659 2.223 . S
O658 C666 1.315 . S
Cd659 O658 2.223 . S
Cd659 O662 2.297 . S
Cd659 O663 2.439 . S
Cd659 O669 2.240 . S
Cd660 O661 2.240 . S
Cd660 O668 2.223 . S
Cd660 O670 2.297 . S
Cd660 O671 2.439 . S
O661 Cd660 2.240 . S
O661 C666 1.279 1_545 S
O662 Cd659 2.297 . S
O662 C664 1.247 . S
O663 Cd659 2.439 . S
O663 C664 1.208 . S
C664 O662 1.247 . S
C664 O663 1.208 . S
C665 O670 1.247 . S
C665 O671 1.208 . S
C666 O658 1.315 . S
C666 O661 1.279 1_565 S
C667 O668 1.315 1_565 S
C667 O669 1.279 . S
O668 Cd660 2.223 . S
O668 C667 1.315 1_545 S
O669 Cd659 2.240 . S
O669 C667 1.279 . S
O670 Cd660 2.297 . S
O670 C665 1.247 . S
O671 Cd660 2.439 . S
O671 C665 1.208 . S
C672 C673 1.363 . S
C672 C678 1.379 . S
C672 N680 1.356 . S
C673 C672 1.363 . S
C673 C679 1.363 . S
C674 C675 1.363 . S
C674 C679 1.379 . S
C674 N681 1.356 . S
C675 C674 1.363 . S
C675 C678 1.363 . S
N676 C678 1.356 . S
N676 H688 0.984 . S
N676 H689 0.985 . S
N677 C679 1.356 . S
N677 H682 0.984 . S
N677 H683 0.985 . S
C678 C672 1.379 . S
C678 C675 1.363 . S
C678 N676 1.356 . S
C679 C673 1.363 . S
C679 C674 1.379 . S
C679 N677 1.356 . S
N680 C672 1.356 . S
N680 H686 0.984 . S
N680 H687 0.984 . S
N681 C674 1.356 . S
N681 H684 0.984 . S
N681 H685 0.985 . S
H682 N677 0.984 . S
H683 N677 0.985 . S
H684 N681 0.984 . S
H685 N681 0.985 . S
H686 N680 0.984 . S
H687 N680 0.984 . S
H688 N676 0.984 . S
H689 N676 0.985 . S
C690 C691 1.363 1_545 S
C690 C696 1.379 . S
C690 N698 1.356 . S
C691 C690 1.363 1_565 S
C691 C697 1.363 1_455 S
C692 C693 1.363 1_655 S
C692 C697 1.379 . S
C692 N699 1.356 . S
C693 C692 1.363 1_455 S
C693 C696 1.363 1_565 S
N694 C696 1.356 . S
N694 H706 0.984 . S
N694 H707 0.985 . S
N695 C697 1.356 . S
N695 H700 0.984 . S
N695 H701 0.985 . S
C696 C690 1.379 . S
C696 C693 1.363 1_545 S
C696 N694 1.356 . S
C697 C691 1.363 1_655 S
C697 C692 1.379 . S
C697 N695 1.356 . S
N698 C690 1.356 . S
N698 H704 0.984 . S
N698 H705 0.984 . S
N699 C692 1.356 . S
N699 H702 0.984 . S
N699 H703 0.985 . S
H700 N695 0.984 . S
H701 N695 0.985 . S
H702 N699 0.984 . S
H703 N699 0.985 . S
H704 N698 0.984 . S
H705 N698 0.984 . S
H706 N694 0.984 . S
H707 N694 0.985 . S
C708 C709 1.363 . S
C708 C714 1.379 1_556 S
C708 N716 1.356 . S
C709 C708 1.363 . S
C709 C715 1.363 . S
C710 C711 1.363 . S
C710 C715 1.379 1_554 S
C710 N717 1.356 . S
C711 C710 1.363 . S
C711 C714 1.363 . S
N712 C714 1.356 . S
N712 H724 0.984 . S
N712 H725 0.985 . S
N713 C715 1.356 . S
N713 H718 0.984 . S
N713 H719 0.985 . S
C714 C708 1.379 1_554 S
C714 C711 1.363 . S
C714 N712 1.356 . S
C715 C709 1.363 . S
C715 C710 1.379 1_556 S
C715 N713 1.356 . S
N716 C708 1.356 . S
N716 H722 0.984 . S
N716 H723 0.984 . S
N717 C710 1.356 . S
N717 H720 0.984 . S
N717 H721 0.985 . S
H718 N713 0.984 . S
H719 N713 0.985 . S
H720 N717 0.984 . S
H721 N717 0.985 . S
H722 N716 0.984 . S
H723 N716 0.984 . S
H724 N712 0.984 . S
H725 N712 0.985 . S
C726 C727 1.363 1_545 S
C726 C732 1.379 . S
C726 N734 1.356 . S
C727 C726 1.363 1_565 S
C727 C733 1.363 . S
C728 C729 1.362 . S
C728 C733 1.379 . S
C728 N735 1.356 . S
C729 C728 1.362 . S
C729 C732 1.364 1_565 S
N730 C732 1.356 . S
N730 H742 0.984 . S
N730 H743 0.985 . S
N731 C733 1.356 . S
N731 H736 0.984 . S
N731 H737 0.985 . S
C732 C726 1.379 . S
C732 C729 1.364 1_545 S
C732 N730 1.356 . S
C733 C727 1.363 . S
C733 C728 1.379 . S
C733 N731 1.356 . S
N734 C726 1.356 . S
N734 H740 0.984 . S
N734 H741 0.984 . S
N735 C728 1.356 . S
N735 H738 0.984 . S
N735 H739 0.985 . S
H736 N731 0.984 . S
H737 N731 0.985 . S
H738 N735 0.984 . S
H739 N735 0.985 . S
H740 N734 0.984 . S
H741 N734 0.984 . S
H742 N730 0.984 . S
H743 N730 0.985 . S
C744 C745 1.363 . S
C744 C750 1.379 . S
C744 N752 1.356 . S
C745 C744 1.363 . S
C745 C751 1.363 . S
C746 C747 1.363 . S
C746 C751 1.379 . S
C746 N753 1.356 . S
C747 C746 1.363 . S
C747 C750 1.363 . S
N748 C750 1.356 . S
N748 H760 0.984 . S
N748 H761 0.985 . S
N749 C751 1.356 . S
N749 H754 0.984 . S
N749 H755 0.985 . S
C750 C744 1.379 . S
C750 C747 1.363 . S
C750 N748 1.356 . S
C751 C745 1.363 . S
C751 C746 1.379 . S
C751 N749 1.356 . S
N752 C744 1.356 . S
N752 H758 0.984 . S
N752 H759 0.984 . S
N753 C746 1.356 . S
N753 H756 0.984 . S
N753 H757 0.985 . S
H754 N749 0.984 . S
H755 N749 0.985 . S
H756 N753 0.984 . S
H757 N753 0.985 . S
H758 N752 0.984 . S
H759 N752 0.984 . S
H760 N748 0.984 . S
H761 N748 0.985 . S
C762 C763 1.363 1_455 S
C762 C768 1.379 . S
C762 N770 1.356 . S
C763 C762 1.363 1_655 S
C763 C769 1.363 . S
C764 C765 1.362 . S
C764 C769 1.379 . S
C764 N771 1.356 . S
C765 C764 1.362 . S
C765 C768 1.364 1_655 S
N766 C768 1.356 . S
N766 H778 0.984 . S
N766 H779 0.985 . S
N767 C769 1.356 . S
N767 H772 0.984 . S
N767 H773 0.985 . S
C768 C762 1.379 . S
C768 C765 1.364 1_455 S
C768 N766 1.356 . S
C769 C763 1.363 . S
C769 C764 1.379 . S
C769 N767 1.356 . S
N770 C762 1.356 . S
N770 H776 0.984 . S
N770 H777 0.984 . S
N771 C764 1.356 . S
N771 H774 0.984 . S
N771 H775 0.985 . S
H772 N767 0.984 . S
H773 N767 0.985 . S
H774 N771 0.984 . S
H775 N771 0.985 . S
H776 N770 0.984 . S
H777 N770 0.984 . S
H778 N766 0.984 . S
H779 N766 0.985 . S
C780 C781 1.363 . S
C780 C786 1.379 1_455 S
C780 N788 1.356 . S
C781 C780 1.363 . S
C781 C787 1.363 . S
C782 C783 1.363 . S
C782 C787 1.379 1_655 S
C782 N789 1.356 . S
C783 C782 1.363 . S
C783 C786 1.363 . S
N784 C786 1.356 . S
N784 H796 0.984 . S
N784 H797 0.985 . S
N785 C787 1.356 . S
N785 H790 0.984 . S
N785 H791 0.985 . S
C786 C780 1.379 1_655 S
C786 C783 1.363 . S
C786 N784 1.356 . S
C787 C781 1.363 . S
C787 C782 1.379 1_455 S
C787 N785 1.356 . S
N788 C780 1.356 . S
N788 H794 0.984 . S
N788 H795 0.984 . S
N789 C782 1.356 . S
N789 H792 0.984 . S
N789 H793 0.985 . S
H790 N785 0.984 . S
H791 N785 0.985 . S
H792 N789 0.984 . S
H793 N789 0.985 . S
H794 N788 0.984 . S
H795 N788 0.984 . S
H796 N784 0.984 . S
H797 N784 0.985 . S
C798 C799 1.363 . S
C798 C804 1.379 . S
C798 N806 1.356 . S
C799 C798 1.363 . S
C799 C805 1.363 1_556 S
C800 C801 1.363 1_554 S
C800 C805 1.379 . S
C800 N807 1.356 . S
C801 C800 1.363 1_556 S
C801 C804 1.363 . S
N802 C804 1.356 . S
N802 H814 0.984 . S
N802 H815 0.985 . S
N803 C805 1.356 . S
N803 H808 0.984 . S
N803 H809 0.985 . S
C804 C798 1.379 . S
C804 C801 1.363 . S
C804 N802 1.356 . S
C805 C799 1.363 1_554 S
C805 C800 1.379 . S
C805 N803 1.356 . S
N806 C798 1.356 . S
N806 H812 0.984 . S
N806 H813 0.984 . S
N807 C800 1.356 . S
N807 H810 0.984 . S
N807 H811 0.985 . S
H808 N803 0.984 . S
H809 N803 0.985 . S
H810 N807 0.984 . S
H811 N807 0.985 . S
H812 N806 0.984 . S
H813 N806 0.984 . S
H814 N802 0.984 . S
H815 N802 0.985 . S
C816 C817 1.363 . S
C816 C822 1.379 . S
C816 N824 1.356 . S
C817 C816 1.363 . S
C817 C823 1.363 . S
C818 C819 1.363 . S
C818 C823 1.379 . S
C818 N825 1.356 . S
C819 C818 1.363 . S
C819 C822 1.363 . S
N820 C822 1.356 . S
N820 H832 0.984 . S
N820 H833 0.985 . S
N821 C823 1.356 . S
N821 H826 0.984 . S
N821 H827 0.985 . S
C822 C816 1.379 . S
C822 C819 1.363 . S
C822 N820 1.356 . S
C823 C817 1.363 . S
C823 C818 1.379 . S
C823 N821 1.356 . S
N824 C816 1.356 . S
N824 H830 0.984 . S
N824 H831 0.984 . S
N825 C818 1.356 . S
N825 H828 0.984 . S
N825 H829 0.985 . S
H826 N821 0.984 . S
H827 N821 0.985 . S
H828 N825 0.984 . S
H829 N825 0.985 . S
H830 N824 0.984 . S
H831 N824 0.984 . S
H832 N820 0.984 . S
H833 N820 0.985 . S
C834 C835 1.363 . S
C834 C840 1.379 . S
C834 N842 1.356 . S
C835 C834 1.363 . S
C835 C841 1.363 . S
C836 C837 1.363 . S
C836 C841 1.379 . S
C836 N843 1.356 . S
C837 C836 1.363 . S
C837 C840 1.363 . S
N838 C840 1.356 . S
N838 H850 0.984 . S
N838 H851 0.985 . S
N839 C841 1.356 . S
N839 H844 0.984 . S
N839 H845 0.985 . S
C840 C834 1.379 . S
C840 C837 1.363 . S
C840 N838 1.356 . S
C841 C835 1.363 . S
C841 C836 1.379 . S
C841 N839 1.356 . S
N842 C834 1.356 . S
N842 H848 0.984 . S
N842 H849 0.984 . S
N843 C836 1.356 . S
N843 H846 0.984 . S
N843 H847 0.985 . S
H844 N839 0.984 . S
H845 N839 0.985 . S
H846 N843 0.984 . S
H847 N843 0.985 . S
H848 N842 0.984 . S
H849 N842 0.984 . S
H850 N838 0.984 . S
H851 N838 0.985 . S
C852 C853 1.363 . S
C852 C858 1.379 1_655 S
C852 N860 1.356 . S
C853 C852 1.363 . S
C853 C859 1.363 . S
C854 C855 1.363 . S
C854 C859 1.379 1_455 S
C854 N861 1.356 . S
C855 C854 1.363 . S
C855 C858 1.363 . S
N856 C858 1.356 . S
N856 H868 0.984 . S
N856 H869 0.985 . S
N857 C859 1.356 . S
N857 H862 0.984 . S
N857 H863 0.985 . S
C858 C852 1.379 1_455 S
C858 C855 1.363 . S
C858 N856 1.356 . S
C859 C853 1.363 . S
C859 C854 1.379 1_655 S
C859 N857 1.356 . S
N860 C852 1.356 . S
N860 H866 0.984 . S
N860 H867 0.984 . S
N861 C854 1.356 . S
N861 H864 0.984 . S
N861 H865 0.985 . S
H862 N857 0.984 . S
H863 N857 0.985 . S
H864 N861 0.984 . S
H865 N861 0.985 . S
H866 N860 0.984 . S
H867 N860 0.984 . S
H868 N856 0.984 . S
H869 N856 0.985 . S
C870 C871 1.363 . S
C870 C876 1.379 . S
C870 N878 1.356 . S
C871 C870 1.363 . S
C871 C877 1.363 1_654 S
C872 C873 1.363 1_456 S
C872 C877 1.379 . S
C872 N879 1.356 . S
C873 C872 1.363 1_654 S
C873 C876 1.363 . S
N874 C876 1.356 . S
N874 H886 0.984 . S
N874 H887 0.985 . S
N875 C877 1.356 . S
N875 H880 0.984 . S
N875 H881 0.985 . S
C876 C870 1.379 . S
C876 C873 1.363 . S
C876 N874 1.356 . S
C877 C871 1.363 1_456 S
C877 C872 1.379 . S
C877 N875 1.356 . S
N878 C870 1.356 . S
N878 H884 0.984 . S
N878 H885 0.984 . S
N879 C872 1.356 . S
N879 H882 0.984 . S
N879 H883 0.985 . S
H880 N875 0.984 . S
H881 N875 0.985 . S
H882 N879 0.984 . S
H883 N879 0.985 . S
H884 N878 0.984 . S
H885 N878 0.984 . S
H886 N874 0.984 . S
H887 N874 0.985 . S
C888 C889 1.363 . S
C888 C894 1.379 . S
C888 N896 1.356 . S
C889 C888 1.363 . S
C889 C895 1.363 . S
C890 C891 1.363 . S
C890 C895 1.379 . S
C890 N897 1.356 . S
C891 C890 1.363 . S
C891 C894 1.363 . S
N892 C894 1.356 . S
N892 H904 0.984 . S
N892 H905 0.985 . S
N893 C895 1.356 . S
N893 H898 0.984 . S
N893 H899 0.985 . S
C894 C888 1.379 . S
C894 C891 1.363 . S
C894 N892 1.356 . S
C895 C889 1.363 . S
C895 C890 1.379 . S
C895 N893 1.356 . S
N896 C888 1.356 . S
N896 H902 0.984 . S
N896 H903 0.984 . S
N897 C890 1.356 . S
N897 H900 0.984 . S
N897 H901 0.985 . S
H898 N893 0.984 . S
H899 N893 0.985 . S
H900 N897 0.984 . S
H901 N897 0.985 . S
H902 N896 0.984 . S
H903 N896 0.984 . S
H904 N892 0.984 . S
H905 N892 0.985 . S
C906 C907 1.363 . S
C906 C912 1.379 1_545 S
C906 N914 1.356 . S
C907 C906 1.363 . S
C907 C913 1.363 . S
C908 C909 1.363 . S
C908 C913 1.379 1_565 S
C908 N915 1.356 . S
C909 C908 1.363 . S
C909 C912 1.363 . S
N910 C912 1.356 . S
N910 H922 0.984 . S
N910 H923 0.985 . S
N911 C913 1.356 . S
N911 H916 0.984 . S
N911 H917 0.985 . S
C912 C906 1.379 1_565 S
C912 C909 1.363 . S
C912 N910 1.356 . S
C913 C907 1.363 . S
C913 C908 1.379 1_545 S
C913 N911 1.356 . S
N914 C906 1.356 . S
N914 H920 0.984 . S
N914 H921 0.984 . S
N915 C908 1.356 . S
N915 H918 0.984 . S
N915 H919 0.985 . S
H916 N911 0.984 . S
H917 N911 0.985 . S
H918 N915 0.984 . S
H919 N915 0.985 . S
H920 N914 0.984 . S
H921 N914 0.984 . S
H922 N910 0.984 . S
H923 N910 0.985 . S
C924 C925 1.364 1_554 S
C924 C930 1.379 . S
C924 N932 1.356 . S
C925 C924 1.364 1_556 S
C925 C931 1.362 . S
C926 C927 1.363 . S
C926 C931 1.379 . S
C926 N933 1.356 . S
C927 C926 1.363 . S
C927 C930 1.363 1_556 S
N928 C930 1.356 . S
N928 H940 0.984 . S
N928 H941 0.985 . S
N929 C931 1.356 . S
N929 H934 0.984 . S
N929 H935 0.985 . S
C930 C924 1.379 . S
C930 C927 1.363 1_554 S
C930 N928 1.356 . S
C931 C925 1.362 . S
C931 C926 1.379 . S
C931 N929 1.356 . S
N932 C924 1.356 . S
N932 H938 0.984 . S
N932 H939 0.984 . S
N933 C926 1.356 . S
N933 H936 0.984 . S
N933 H937 0.985 . S
H934 N929 0.984 . S
H935 N929 0.985 . S
H936 N933 0.984 . S
H937 N933 0.985 . S
H938 N932 0.984 . S
H939 N932 0.984 . S
H940 N928 0.984 . S
H941 N928 0.985 . S
C942 C943 1.363 . S
C942 C948 1.379 1_545 S
C942 N950 1.356 . S
C943 C942 1.363 . S
C943 C949 1.363 . S
C944 C945 1.363 . S
C944 C949 1.379 1_565 S
C944 N951 1.356 . S
C945 C944 1.363 . S
C945 C948 1.363 . S
N946 C948 1.356 . S
N946 H958 0.984 . S
N946 H959 0.985 . S
N947 C949 1.356 . S
N947 H952 0.984 . S
N947 H953 0.985 . S
C948 C942 1.379 1_565 S
C948 C945 1.363 . S
C948 N946 1.356 . S
C949 C943 1.363 . S
C949 C944 1.379 1_545 S
C949 N947 1.356 . S
N950 C942 1.356 . S
N950 H956 0.984 . S
N950 H957 0.984 . S
N951 C944 1.356 . S
N951 H954 0.984 . S
N951 H955 0.985 . S
H952 N947 0.984 . S
H953 N947 0.985 . S
H954 N951 0.984 . S
H955 N951 0.985 . S
H956 N950 0.984 . S
H957 N950 0.984 . S
H958 N946 0.984 . S
H959 N946 0.985 . S
C960 C961 1.363 . S
C960 C966 1.379 . S
C960 N968 1.356 . S
C961 C960 1.363 . S
C961 C967 1.363 1_546 S
C962 C963 1.363 1_564 S
C962 C967 1.379 . S
C962 N969 1.356 . S
C963 C962 1.363 1_546 S
C963 C966 1.363 . S
N964 C966 1.356 . S
N964 H976 0.984 . S
N964 H977 0.985 . S
N965 C967 1.356 . S
N965 H970 0.984 . S
N965 H971 0.985 . S
C966 C960 1.379 . S
C966 C963 1.363 . S
C966 N964 1.356 . S
C967 C961 1.363 1_564 S
C967 C962 1.379 . S
C967 N965 1.356 . S
N968 C960 1.356 . S
N968 H974 0.984 . S
N968 H975 0.984 . S
N969 C962 1.356 . S
N969 H972 0.984 . S
N969 H973 0.985 . S
H970 N965 0.984 . S
H971 N965 0.985 . S
H972 N969 0.984 . S
H973 N969 0.985 . S
H974 N968 0.984 . S
H975 N968 0.984 . S
H976 N964 0.984 . S
H977 N964 0.985 . S
C978 C979 1.363 . S
C978 C984 1.379 . S
C978 N986 1.356 . S
C979 C978 1.363 . S
C979 C985 1.363 . S
C980 C981 1.363 . S
C980 C985 1.379 . S
C980 N987 1.356 . S
C981 C980 1.363 . S
C981 C984 1.363 . S
N982 C984 1.356 . S
N982 H994 0.984 . S
N982 H995 0.985 . S
N983 C985 1.356 . S
N983 H988 0.984 . S
N983 H989 0.985 . S
C984 C978 1.379 . S
C984 C981 1.363 . S
C984 N982 1.356 . S
C985 C979 1.363 . S
C985 C980 1.379 . S
C985 N983 1.356 . S
N986 C978 1.356 . S
N986 H992 0.984 . S
N986 H993 0.984 . S
N987 C980 1.356 . S
N987 H990 0.984 . S
N987 H991 0.985 . S
H988 N983 0.984 . S
H989 N983 0.985 . S
H990 N987 0.984 . S
H991 N987 0.985 . S
H992 N986 0.984 . S
H993 N986 0.984 . S
H994 N982 0.984 . S
H995 N982 0.985 . S
C996 C997 1.363 . S
C996 C1002 1.379 . S
C996 N1004 1.356 . S
C997 C996 1.363 . S
C997 C1003 1.363 . S
C998 C999 1.363 . S
C998 C1003 1.379 . S
C998 N1005 1.356 . S
C999 C998 1.363 . S
C999 C1002 1.363 . S
N1000 C1002 1.356 . S
N1000 H1012 0.984 . S
N1000 H1013 0.985 . S
N1001 C1003 1.356 . S
N1001 H1006 0.984 . S
N1001 H1007 0.985 . S
C1002 C996 1.379 . S
C1002 C999 1.363 . S
C1002 N1000 1.356 . S
C1003 C997 1.363 . S
C1003 C998 1.379 . S
C1003 N1001 1.356 . S
N1004 C996 1.356 . S
N1004 H1010 0.984 . S
N1004 H1011 0.984 . S
N1005 C998 1.356 . S
N1005 H1008 0.984 . S
N1005 H1009 0.985 . S
H1006 N1001 0.984 . S
H1007 N1001 0.985 . S
H1008 N1005 0.984 . S
H1009 N1005 0.985 . S
H1010 N1004 0.984 . S
H1011 N1004 0.984 . S
H1012 N1000 0.984 . S
H1013 N1000 0.985 . S
C1014 C1015 1.363 . S
C1014 C1020 1.379 1_554 S
C1014 N1022 1.356 . S
C1015 C1014 1.363 . S
C1015 C1021 1.363 . S
C1016 C1017 1.363 . S
C1016 C1021 1.379 1_556 S
C1016 N1023 1.356 . S
C1017 C1016 1.363 . S
C1017 C1020 1.363 . S
N1018 C1020 1.356 . S
N1018 H1030 0.984 . S
N1018 H1031 0.985 . S
N1019 C1021 1.356 . S
N1019 H1024 0.984 . S
N1019 H1025 0.985 . S
C1020 C1014 1.379 1_556 S
C1020 C1017 1.363 . S
C1020 N1018 1.356 . S
C1021 C1015 1.363 . S
C1021 C1016 1.379 1_554 S
C1021 N1019 1.356 . S
N1022 C1014 1.356 . S
N1022 H1028 0.984 . S
N1022 H1029 0.984 . S
N1023 C1016 1.356 . S
N1023 H1026 0.984 . S
N1023 H1027 0.985 . S
H1024 N1019 0.984 . S
H1025 N1019 0.985 . S
H1026 N1023 0.984 . S
H1027 N1023 0.985 . S
H1028 N1022 0.984 . S
H1029 N1022 0.984 . S
H1030 N1018 0.984 . S
H1031 N1018 0.985 . S
C1032 C1033 1.363 . S
C1032 C1038 1.379 . S
C1032 N1040 1.356 . S
C1033 C1032 1.363 . S
C1033 C1039 1.363 . S
C1034 C1035 1.363 . S
C1034 C1039 1.379 . S
C1034 N1041 1.356 . S
C1035 C1034 1.363 . S
C1035 C1038 1.363 . S
N1036 C1038 1.356 . S
N1036 H1048 0.984 . S
N1036 H1049 0.985 . S
N1037 C1039 1.356 . S
N1037 H1042 0.984 . S
N1037 H1043 0.985 . S
C1038 C1032 1.379 . S
C1038 C1035 1.363 . S
C1038 N1036 1.356 . S
C1039 C1033 1.363 . S
C1039 C1034 1.379 . S
C1039 N1037 1.356 . S
N1040 C1032 1.356 . S
N1040 H1046 0.984 . S
N1040 H1047 0.984 . S
N1041 C1034 1.356 . S
N1041 H1044 0.984 . S
N1041 H1045 0.985 . S
H1042 N1037 0.984 . S
H1043 N1037 0.985 . S
H1044 N1041 0.984 . S
H1045 N1041 0.985 . S
H1046 N1040 0.984 . S
H1047 N1040 0.984 . S
H1048 N1036 0.984 . S
H1049 N1036 0.985 . S
C1050 C1051 1.363 . S
C1050 C1056 1.379 . S
C1050 N1058 1.356 . S
C1051 C1050 1.363 . S
C1051 C1057 1.363 . S
C1052 C1053 1.363 . S
C1052 C1057 1.379 . S
C1052 N1059 1.356 . S
C1053 C1052 1.363 . S
C1053 C1056 1.363 . S
N1054 C1056 1.356 . S
N1054 H1066 0.984 . S
N1054 H1067 0.985 . S
N1055 C1057 1.356 . S
N1055 H1060 0.984 . S
N1055 H1061 0.985 . S
C1056 C1050 1.379 . S
C1056 C1053 1.363 . S
C1056 N1054 1.356 . S
C1057 C1051 1.363 . S
C1057 C1052 1.379 . S
C1057 N1055 1.356 . S
N1058 C1050 1.356 . S
N1058 H1064 0.984 . S
N1058 H1065 0.984 . S
N1059 C1052 1.356 . S
N1059 H1062 0.984 . S
N1059 H1063 0.985 . S
H1060 N1055 0.984 . S
H1061 N1055 0.985 . S
H1062 N1059 0.984 . S
H1063 N1059 0.985 . S
H1064 N1058 0.984 . S
H1065 N1058 0.984 . S
H1066 N1054 0.984 . S
H1067 N1054 0.985 . S
C1068 C1069 1.363 1_455 S
C1068 C1074 1.379 . S
C1068 N1076 1.356 . S
C1069 C1068 1.363 1_655 S
C1069 C1075 1.363 . S
C1070 C1071 1.363 . S
C1070 C1075 1.379 . S
C1070 N1077 1.356 . S
C1071 C1070 1.363 . S
C1071 C1074 1.363 1_655 S
N1072 C1074 1.356 . S
N1072 H1084 0.984 . S
N1072 H1085 0.985 . S
N1073 C1075 1.356 . S
N1073 H1078 0.984 . S
N1073 H1079 0.985 . S
C1074 C1068 1.379 . S
C1074 C1071 1.363 1_455 S
C1074 N1072 1.356 . S
C1075 C1069 1.363 . S
C1075 C1070 1.379 . S
C1075 N1073 1.356 . S
N1076 C1068 1.356 . S
N1076 H1082 0.984 . S
N1076 H1083 0.984 . S
N1077 C1070 1.356 . S
N1077 H1080 0.984 . S
N1077 H1081 0.985 . S
H1078 N1073 0.984 . S
H1079 N1073 0.985 . S
H1080 N1077 0.984 . S
H1081 N1077 0.985 . S
H1082 N1076 0.984 . S
H1083 N1076 0.984 . S
H1084 N1072 0.984 . S
H1085 N1072 0.985 . S
C1086 C1087 1.363 . S
C1086 C1092 1.379 . S
C1086 N1094 1.356 . S
C1087 C1086 1.363 . S
C1087 C1093 1.363 1_565 S
C1088 C1089 1.363 1_545 S
C1088 C1093 1.379 . S
C1088 N1095 1.356 . S
C1089 C1088 1.363 1_565 S
C1089 C1092 1.363 . S
N1090 C1092 1.356 . S
N1090 H1102 0.984 . S
N1090 H1103 0.985 . S
N1091 C1093 1.356 . S
N1091 H1096 0.984 . S
N1091 H1097 0.985 . S
C1092 C1086 1.379 . S
C1092 C1089 1.363 . S
C1092 N1090 1.356 . S
C1093 C1087 1.363 1_545 S
C1093 C1088 1.379 . S
C1093 N1091 1.356 . S
N1094 C1086 1.356 . S
N1094 H1100 0.984 . S
N1094 H1101 0.984 . S
N1095 C1088 1.356 . S
N1095 H1098 0.984 . S
N1095 H1099 0.985 . S
H1096 N1091 0.984 . S
H1097 N1091 0.985 . S
H1098 N1095 0.984 . S
H1099 N1095 0.985 . S
H1100 N1094 0.984 . S
H1101 N1094 0.984 . S
H1102 N1090 0.984 . S
H1103 N1090 0.985 . S
C1104 C1105 1.363 . S
C1104 C1110 1.379 . S
C1104 N1112 1.356 . S
C1105 C1104 1.363 . S
C1105 C1111 1.363 . S
C1106 C1107 1.363 . S
C1106 C1111 1.379 . S
C1106 N1113 1.356 . S
C1107 C1106 1.363 . S
C1107 C1110 1.363 . S
N1108 C1110 1.356 . S
N1108 H1120 0.984 . S
N1108 H1121 0.985 . S
N1109 C1111 1.356 . S
N1109 H1114 0.984 . S
N1109 H1115 0.985 . S
C1110 C1104 1.379 . S
C1110 C1107 1.363 . S
C1110 N1108 1.356 . S
C1111 C1105 1.363 . S
C1111 C1106 1.379 . S
C1111 N1109 1.356 . S
N1112 C1104 1.356 . S
N1112 H1118 0.984 . S
N1112 H1119 0.984 . S
N1113 C1106 1.356 . S
N1113 H1116 0.984 . S
N1113 H1117 0.985 . S
H1114 N1109 0.984 . S
H1115 N1109 0.985 . S
H1116 N1113 0.984 . S
H1117 N1113 0.985 . S
H1118 N1112 0.984 . S
H1119 N1112 0.984 . S
H1120 N1108 0.984 . S
H1121 N1108 0.985 . S
C1122 C1123 1.363 . S
C1122 C1128 1.379 . S
C1122 N1130 1.356 . S
C1123 C1122 1.363 . S
C1123 C1129 1.363 . S
C1124 C1125 1.363 . S
C1124 C1129 1.379 . S
C1124 N1131 1.356 . S
C1125 C1124 1.363 . S
C1125 C1128 1.363 . S
N1126 C1128 1.356 . S
N1126 H1138 0.984 . S
N1126 H1139 0.985 . S
N1127 C1129 1.356 . S
N1127 H1132 0.984 . S
N1127 H1133 0.985 . S
C1128 C1122 1.379 . S
C1128 C1125 1.363 . S
C1128 N1126 1.356 . S
C1129 C1123 1.363 . S
C1129 C1124 1.379 . S
C1129 N1127 1.356 . S
N1130 C1122 1.356 . S
N1130 H1136 0.984 . S
N1130 H1137 0.984 . S
N1131 C1124 1.356 . S
N1131 H1134 0.984 . S
N1131 H1135 0.985 . S
H1132 N1127 0.984 . S
H1133 N1127 0.985 . S
H1134 N1131 0.984 . S
H1135 N1131 0.985 . S
H1136 N1130 0.984 . S
H1137 N1130 0.984 . S
H1138 N1126 0.984 . S
H1139 N1126 0.985 . S
C1140 C1141 1.363 . S
C1140 C1146 1.379 . S
C1140 N1148 1.356 . S
C1141 C1140 1.363 . S
C1141 C1147 1.363 . S
C1142 C1143 1.363 . S
C1142 C1147 1.379 . S
C1142 N1149 1.356 . S
C1143 C1142 1.363 . S
C1143 C1146 1.363 . S
N1144 C1146 1.356 . S
N1144 H1156 0.984 . S
N1144 H1157 0.985 . S
N1145 C1147 1.356 . S
N1145 H1150 0.984 . S
N1145 H1151 0.985 . S
C1146 C1140 1.379 . S
C1146 C1143 1.363 . S
C1146 N1144 1.356 . S
C1147 C1141 1.363 . S
C1147 C1142 1.379 . S
C1147 N1145 1.356 . S
N1148 C1140 1.356 . S
N1148 H1154 0.984 . S
N1148 H1155 0.984 . S
N1149 C1142 1.356 . S
N1149 H1152 0.984 . S
N1149 H1153 0.985 . S
H1150 N1145 0.984 . S
H1151 N1145 0.985 . S
H1152 N1149 0.984 . S
H1153 N1149 0.985 . S
H1154 N1148 0.984 . S
H1155 N1148 0.984 . S
H1156 N1144 0.984 . S
H1157 N1144 0.985 . S
C1158 C1159 1.363 . S
C1158 C1164 1.379 . S
C1158 N1166 1.356 1_545 S
C1159 C1158 1.363 . S
C1159 C1165 1.363 . S
C1160 C1161 1.363 . S
C1160 C1165 1.379 . S
C1160 N1167 1.356 . S
C1161 C1160 1.363 . S
C1161 C1164 1.363 . S
N1162 C1164 1.356 . S
N1162 H1174 0.984 1_545 S
N1162 H1175 0.985 . S
N1163 C1165 1.356 . S
N1163 H1168 0.991 . S
N1163 H1169 0.985 . S
C1164 C1158 1.379 . S
C1164 C1161 1.363 . S
C1164 N1162 1.356 . S
C1165 C1159 1.363 . S
C1165 C1160 1.379 . S
C1165 N1163 1.356 . S
N1166 C1158 1.356 1_565 S
N1166 H1172 0.984 . S
N1166 H1173 0.984 . S
N1167 C1160 1.356 . S
N1167 H1170 0.984 . S
N1167 H1171 0.985 . S
H1168 N1163 0.991 . S
H1169 N1163 0.985 . S
H1170 N1167 0.984 . S
H1171 N1167 0.985 . S
H1172 N1166 0.984 . S
H1173 N1166 0.984 . S
H1174 N1162 0.984 1_565 S
H1175 N1162 0.985 . S
C1176 C1177 1.363 . S
C1176 C1182 1.379 . S
C1176 N1184 1.356 . S
C1177 C1176 1.363 . S
C1177 C1183 1.363 . S
C1178 C1179 1.363 . S
C1178 C1183 1.379 . S
C1178 N1185 1.356 . S
C1179 C1178 1.363 . S
C1179 C1182 1.363 . S
N1180 C1182 1.356 . S
N1180 H1192 0.984 . S
N1180 H1193 0.985 . S
N1181 C1183 1.356 . S
N1181 H1186 0.984 . S
N1181 H1187 0.985 . S
C1182 C1176 1.379 . S
C1182 C1179 1.363 . S
C1182 N1180 1.356 . S
C1183 C1177 1.363 . S
C1183 C1178 1.379 . S
C1183 N1181 1.356 . S
N1184 C1176 1.356 . S
N1184 H1190 0.984 . S
N1184 H1191 0.984 . S
N1185 C1178 1.356 . S
N1185 H1188 0.984 . S
N1185 H1189 0.985 . S
H1186 N1181 0.984 . S
H1187 N1181 0.985 . S
H1188 N1185 0.984 . S
H1189 N1185 0.985 . S
H1190 N1184 0.984 . S
H1191 N1184 0.984 . S
H1192 N1180 0.984 . S
H1193 N1180 0.985 . S
C1194 C1195 1.363 . S
C1194 C1200 1.379 . S
C1194 N1202 1.356 . S
C1195 C1194 1.363 . S
C1195 C1201 1.363 . S
C1196 C1197 1.363 . S
C1196 C1201 1.379 . S
C1196 N1203 1.356 . S
C1197 C1196 1.363 . S
C1197 C1200 1.363 . S
N1198 C1200 1.356 . S
N1198 H1210 0.984 . S
N1198 H1211 0.985 . S
N1199 C1201 1.356 1_545 S
N1199 H1204 0.984 . S
N1199 H1205 0.985 . S
C1200 C1194 1.379 . S
C1200 C1197 1.363 . S
C1200 N1198 1.356 . S
C1201 C1195 1.363 . S
C1201 C1196 1.379 . S
C1201 N1199 1.356 1_565 S
N1202 C1194 1.356 . S
N1202 H1208 0.984 . S
N1202 H1209 0.984 . S
N1203 C1196 1.356 . S
N1203 H1206 0.984 . S
N1203 H1207 0.985 1_565 S
H1204 N1199 0.984 . S
H1205 N1199 0.985 . S
H1206 N1203 0.984 . S
H1207 N1203 0.985 1_545 S
H1208 N1202 0.984 . S
H1209 N1202 0.984 . S
H1210 N1198 0.984 . S
H1211 N1198 0.985 . S
C1212 C1213 1.363 . S
C1212 C1218 1.379 . S
C1212 N1220 1.356 . S
C1213 C1212 1.363 . S
C1213 C1219 1.363 . S
C1214 C1215 1.363 . S
C1214 C1219 1.379 . S
C1214 N1221 1.356 . S
C1215 C1214 1.363 . S
C1215 C1218 1.363 . S
N1216 C1218 1.356 . S
N1216 H1228 0.984 . S
N1216 H1229 0.985 . S
N1217 C1219 1.356 . S
N1217 H1222 0.984 . S
N1217 H1223 0.985 . S
C1218 C1212 1.379 . S
C1218 C1215 1.363 . S
C1218 N1216 1.356 . S
C1219 C1213 1.363 . S
C1219 C1214 1.379 . S
C1219 N1217 1.356 . S
N1220 C1212 1.356 . S
N1220 H1226 0.984 . S
N1220 H1227 0.984 . S
N1221 C1214 1.356 . S
N1221 H1224 0.984 . S
N1221 H1225 0.985 . S
H1222 N1217 0.984 . S
H1223 N1217 0.985 . S
H1224 N1221 0.984 . S
H1225 N1221 0.985 . S
H1226 N1220 0.984 . S
H1227 N1220 0.984 . S
H1228 N1216 0.984 . S
H1229 N1216 0.985 . S
C1230 C1231 1.363 . S
C1230 C1236 1.379 . S
C1230 N1238 1.356 1_545 S
C1231 C1230 1.363 . S
C1231 C1237 1.363 . S
C1232 C1233 1.363 . S
C1232 C1237 1.379 . S
C1232 N1239 1.356 . S
C1233 C1232 1.363 . S
C1233 C1236 1.363 . S
N1234 C1236 1.353 1_565 S
N1234 H1246 0.992 . S
N1234 H1247 0.980 1_565 S
N1235 C1237 1.356 . S
N1235 H1240 0.984 . S
N1235 H1241 0.985 . S
C1236 C1230 1.379 . S
C1236 C1233 1.363 . S
C1236 N1234 1.353 1_545 S
C1237 C1231 1.363 . S
C1237 C1232 1.379 . S
C1237 N1235 1.356 . S
N1238 C1230 1.356 1_565 S
N1238 H1244 0.984 . S
N1238 H1245 0.984 . S
N1239 C1232 1.356 . S
N1239 H1242 0.984 . S
N1239 H1243 0.985 . S
H1240 N1235 0.984 . S
H1241 N1235 0.985 . S
H1242 N1239 0.984 . S
H1243 N1239 0.985 . S
H1244 N1238 0.984 . S
H1245 N1238 0.984 . S
H1246 N1234 0.992 . S
H1247 N1234 0.980 1_545 S
C1248 C1249 1.363 . S
C1248 C1254 1.379 . S
C1248 N1256 1.356 . S
C1249 C1248 1.363 . S
C1249 C1255 1.363 . S
C1250 C1251 1.363 . S
C1250 C1255 1.379 . S
C1250 N1257 1.356 . S
C1251 C1250 1.363 . S
C1251 C1254 1.363 . S
N1252 C1254 1.356 . S
N1252 H1264 0.984 . S
N1252 H1265 0.985 . S
N1253 C1255 1.356 . S
N1253 H1258 0.984 . S
N1253 H1259 0.985 . S
C1254 C1248 1.379 . S
C1254 C1251 1.363 . S
C1254 N1252 1.356 . S
C1255 C1249 1.363 . S
C1255 C1250 1.379 . S
C1255 N1253 1.356 . S
N1256 C1248 1.356 . S
N1256 H1262 0.984 . S
N1256 H1263 0.984 . S
N1257 C1250 1.356 . S
N1257 H1260 0.984 . S
N1257 H1261 0.985 . S
H1258 N1253 0.984 . S
H1259 N1253 0.985 . S
H1260 N1257 0.984 . S
H1261 N1257 0.985 . S
H1262 N1256 0.984 . S
H1263 N1256 0.984 . S
H1264 N1252 0.984 . S
H1265 N1252 0.985 . S
C1266 C1267 1.363 . S
C1266 C1272 1.379 . S
C1266 N1274 1.356 . S
C1267 C1266 1.363 . S
C1267 C1273 1.363 . S
C1268 C1269 1.363 . S
C1268 C1273 1.379 . S
C1268 N1275 1.356 . S
C1269 C1268 1.363 . S
C1269 C1272 1.363 . S
N1270 C1272 1.356 . S
N1270 H1282 0.984 . S
N1270 H1283 0.985 . S
N1271 C1273 1.356 1_655 S
N1271 H1276 0.984 . S
N1271 H1277 0.985 . S
C1272 C1266 1.379 . S
C1272 C1269 1.363 . S
C1272 N1270 1.356 . S
C1273 C1267 1.363 . S
C1273 C1268 1.379 . S
C1273 N1271 1.356 1_455 S
N1274 C1266 1.356 . S
N1274 H1280 0.984 . S
N1274 H1281 0.984 . S
N1275 C1268 1.356 . S
N1275 H1278 0.984 . S
N1275 H1279 0.985 1_455 S
H1276 N1271 0.984 . S
H1277 N1271 0.985 . S
H1278 N1275 0.984 . S
H1279 N1275 0.985 1_655 S
H1280 N1274 0.984 . S
H1281 N1274 0.984 . S
H1282 N1270 0.984 . S
H1283 N1270 0.985 . S
C1284 C1285 1.363 . S
C1284 C1290 1.379 . S
C1284 N1292 1.356 . S
C1285 C1284 1.363 . S
C1285 C1291 1.363 . S
C1286 C1287 1.363 . S
C1286 C1291 1.379 . S
C1286 N1293 1.356 . S
C1287 C1286 1.363 . S
C1287 C1290 1.363 . S
N1288 C1290 1.356 . S
N1288 H1300 0.984 . S
N1288 H1301 0.985 . S
N1289 C1291 1.356 . S
N1289 H1294 0.984 . S
N1289 H1295 0.985 . S
C1290 C1284 1.379 . S
C1290 C1287 1.363 . S
C1290 N1288 1.356 . S
C1291 C1285 1.363 . S
C1291 C1286 1.379 . S
C1291 N1289 1.356 . S
N1292 C1284 1.356 . S
N1292 H1298 0.984 . S
N1292 H1299 0.984 . S
N1293 C1286 1.356 . S
N1293 H1296 0.984 . S
N1293 H1297 0.985 . S
H1294 N1289 0.984 . S
H1295 N1289 0.985 . S
H1296 N1293 0.984 . S
H1297 N1293 0.985 . S
H1298 N1292 0.984 . S
H1299 N1292 0.984 . S
H1300 N1288 0.984 . S
H1301 N1288 0.985 . S
C1302 C1303 1.363 . S
C1302 C1308 1.379 . S
C1302 N1310 1.356 . S
C1303 C1302 1.363 . S
C1303 C1309 1.363 . S
C1304 C1305 1.363 . S
C1304 C1309 1.379 . S
C1304 N1311 1.356 . S
C1305 C1304 1.363 . S
C1305 C1308 1.363 . S
N1306 C1308 1.356 . S
N1306 H1318 0.984 . S
N1306 H1319 0.985 . S
N1307 C1309 1.356 . S
N1307 H1312 0.984 . S
N1307 H1313 0.985 . S
C1308 C1302 1.379 . S
C1308 C1305 1.363 . S
C1308 N1306 1.356 . S
C1309 C1303 1.363 . S
C1309 C1304 1.379 . S
C1309 N1307 1.356 . S
N1310 C1302 1.356 . S
N1310 H1316 0.984 . S
N1310 H1317 0.984 . S
N1311 C1304 1.356 . S
N1311 H1314 0.984 1_565 S
N1311 H1315 0.985 1_565 S
H1312 N1307 0.984 . S
H1313 N1307 0.985 . S
H1314 N1311 0.984 1_545 S
H1315 N1311 0.985 1_545 S
H1316 N1310 0.984 . S
H1317 N1310 0.984 . S
H1318 N1306 0.984 . S
H1319 N1306 0.985 . S
C1320 C1321 1.363 . S
C1320 C1326 1.379 . S
C1320 N1328 1.356 . S
C1321 C1320 1.363 . S
C1321 C1327 1.363 . S
C1322 C1323 1.363 . S
C1322 C1327 1.379 . S
C1322 N1329 1.356 . S
C1323 C1322 1.363 . S
C1323 C1326 1.363 . S
N1324 C1326 1.356 . S
N1324 H1336 0.984 . S
N1324 H1337 0.985 . S
N1325 C1327 1.356 . S
N1325 H1330 0.984 . S
N1325 H1331 0.985 . S
C1326 C1320 1.379 . S
C1326 C1323 1.363 . S
C1326 N1324 1.356 . S
C1327 C1321 1.363 . S
C1327 C1322 1.379 . S
C1327 N1325 1.356 . S
N1328 C1320 1.356 . S
N1328 H1334 0.984 . S
N1328 H1335 0.984 . S
N1329 C1322 1.356 . S
N1329 H1332 0.984 . S
N1329 H1333 0.985 . S
H1330 N1325 0.984 . S
H1331 N1325 0.985 . S
H1332 N1329 0.984 . S
H1333 N1329 0.985 . S
H1334 N1328 0.984 . S
H1335 N1328 0.984 . S
H1336 N1324 0.984 . S
H1337 N1324 0.985 . S
C1338 C1339 1.363 . S
C1338 C1344 1.379 . S
C1338 N1346 1.356 . S
C1339 C1338 1.363 . S
C1339 C1345 1.363 . S
C1340 C1341 1.363 . S
C1340 C1345 1.379 . S
C1340 N1347 1.356 . S
C1341 C1340 1.363 . S
C1341 C1344 1.363 . S
N1342 C1344 1.356 . S
N1342 H1354 0.984 . S
N1342 H1355 0.985 . S
N1343 C1345 1.356 1_565 S
N1343 H1348 0.984 . S
N1343 H1349 0.985 . S
C1344 C1338 1.379 . S
C1344 C1341 1.363 . S
C1344 N1342 1.356 . S
C1345 C1339 1.363 . S
C1345 C1340 1.379 . S
C1345 N1343 1.356 1_545 S
N1346 C1338 1.356 . S
N1346 H1352 0.984 . S
N1346 H1353 0.984 . S
N1347 C1340 1.356 . S
N1347 H1350 0.984 . S
N1347 H1351 0.985 . S
H1348 N1343 0.984 . S
H1349 N1343 0.985 . S
H1350 N1347 0.984 . S
H1351 N1347 0.985 . S
H1352 N1346 0.984 . S
H1353 N1346 0.984 . S
H1354 N1342 0.984 . S
H1355 N1342 0.985 . S
C1356 C1357 1.363 . S
C1356 C1362 1.379 . S
C1356 N1364 1.356 . S
C1357 C1356 1.363 . S
C1357 C1363 1.363 . S
C1358 C1359 1.363 . S
C1358 C1363 1.379 . S
C1358 N1365 1.356 . S
C1359 C1358 1.363 . S
C1359 C1362 1.363 . S
N1360 C1362 1.356 . S
N1360 H1372 0.984 . S
N1360 H1373 0.985 . S
N1361 C1363 1.356 . S
N1361 H1366 0.984 . S
N1361 H1367 0.985 . S
C1362 C1356 1.379 . S
C1362 C1359 1.363 . S
C1362 N1360 1.356 . S
C1363 C1357 1.363 . S
C1363 C1358 1.379 . S
C1363 N1361 1.356 . S
N1364 C1356 1.356 . S
N1364 H1370 0.984 . S
N1364 H1371 0.984 . S
N1365 C1358 1.356 . S
N1365 H1368 0.984 . S
N1365 H1369 0.985 . S
H1366 N1361 0.984 . S
H1367 N1361 0.985 . S
H1368 N1365 0.984 . S
H1369 N1365 0.985 . S
H1370 N1364 0.984 . S
H1371 N1364 0.984 . S
H1372 N1360 0.984 . S
H1373 N1360 0.985 . S
C1374 C1375 1.363 . S
C1374 C1380 1.379 . S
C1374 N1382 1.356 . S
C1375 C1374 1.363 . S
C1375 C1381 1.363 . S
C1376 C1377 1.363 . S
C1376 C1381 1.379 . S
C1376 N1383 1.356 1_455 S
C1377 C1376 1.363 . S
C1377 C1380 1.363 . S
N1378 C1380 1.356 . S
N1378 H1390 0.984 . S
N1378 H1391 0.985 . S
N1379 C1381 1.356 . S
N1379 H1384 0.984 . S
N1379 H1385 0.980 1_455 S
C1380 C1374 1.379 . S
C1380 C1377 1.363 . S
C1380 N1378 1.356 . S
C1381 C1375 1.363 . S
C1381 C1376 1.379 . S
C1381 N1379 1.356 . S
N1382 C1374 1.356 . S
N1382 H1388 0.984 . S
N1382 H1389 0.984 . S
N1383 C1376 1.356 1_655 S
N1383 H1386 0.984 . S
N1383 H1387 0.985 . S
H1384 N1379 0.984 . S
H1385 N1379 0.980 1_655 S
H1386 N1383 0.984 . S
H1387 N1383 0.985 . S
H1388 N1382 0.984 . S
H1389 N1382 0.984 . S
H1390 N1378 0.984 . S
H1391 N1378 0.985 . S
C1392 C1393 1.363 . S
C1392 C1398 1.379 . S
C1392 N1400 1.356 . S
C1393 C1392 1.363 . S
C1393 C1399 1.363 . S
C1394 C1395 1.363 . S
C1394 C1399 1.379 . S
C1394 N1401 1.356 . S
C1395 C1394 1.363 . S
C1395 C1398 1.363 . S
N1396 C1398 1.356 . S
N1396 H1408 0.984 . S
N1396 H1409 0.985 . S
N1397 C1399 1.356 . S
N1397 H1402 0.984 . S
N1397 H1403 0.985 . S
C1398 C1392 1.379 . S
C1398 C1395 1.363 . S
C1398 N1396 1.356 . S
C1399 C1393 1.363 . S
C1399 C1394 1.379 . S
C1399 N1397 1.356 . S
N1400 C1392 1.356 . S
N1400 H1406 0.984 . S
N1400 H1407 0.984 . S
N1401 C1394 1.356 . S
N1401 H1404 0.984 . S
N1401 H1405 0.985 . S
H1402 N1397 0.984 . S
H1403 N1397 0.985 . S
H1404 N1401 0.984 . S
H1405 N1401 0.985 . S
H1406 N1400 0.984 . S
H1407 N1400 0.984 . S
H1408 N1396 0.984 . S
H1409 N1396 0.985 . S
C1410 C1411 1.363 . S
C1410 C1416 1.379 . S
C1410 N1418 1.356 . S
C1411 C1410 1.363 . S
C1411 C1417 1.363 . S
C1412 C1413 1.363 . S
C1412 C1417 1.379 . S
C1412 N1419 1.356 . S
C1413 C1412 1.363 . S
C1413 C1416 1.363 . S
N1414 C1416 1.356 . S
N1414 H1426 0.984 . S
N1414 H1427 0.985 . S
N1415 C1417 1.356 . S
N1415 H1420 0.984 . S
N1415 H1421 0.985 . S
C1416 C1410 1.379 . S
C1416 C1413 1.363 . S
C1416 N1414 1.356 . S
C1417 C1411 1.363 . S
C1417 C1412 1.379 . S
C1417 N1415 1.356 . S
N1418 C1410 1.356 . S
N1418 H1424 0.984 . S
N1418 H1425 0.984 . S
N1419 C1412 1.356 . S
N1419 H1422 0.984 . S
N1419 H1423 0.985 . S
H1420 N1415 0.984 . S
H1421 N1415 0.985 . S
H1422 N1419 0.984 . S
H1423 N1419 0.985 . S
H1424 N1418 0.984 . S
H1425 N1418 0.984 . S
H1426 N1414 0.984 . S
H1427 N1414 0.985 . S
C1428 C1429 1.363 . S
C1428 C1434 1.379 . S
C1428 N1436 1.356 . S
C1429 C1428 1.363 . S
C1429 C1435 1.363 . S
C1430 C1431 1.363 . S
C1430 C1435 1.379 . S
C1430 N1437 1.356 . S
C1431 C1430 1.363 . S
C1431 C1434 1.363 . S
N1432 C1434 1.356 . S
N1432 H1444 0.984 . S
N1432 H1445 0.985 . S
N1433 C1435 1.356 1_556 S
N1433 H1438 0.984 . S
N1433 H1439 0.985 . S
C1434 C1428 1.379 . S
C1434 C1431 1.363 . S
C1434 N1432 1.356 . S
C1435 C1429 1.363 . S
C1435 C1430 1.379 . S
C1435 N1433 1.356 1_554 S
N1436 C1428 1.356 . S
N1436 H1442 0.984 . S
N1436 H1443 0.984 . S
N1437 C1430 1.356 . S
N1437 H1440 0.984 . S
N1437 H1441 0.985 1_554 S
H1438 N1433 0.984 . S
H1439 N1433 0.985 . S
H1440 N1437 0.984 . S
H1441 N1437 0.985 1_556 S
H1442 N1436 0.984 . S
H1443 N1436 0.984 . S
H1444 N1432 0.984 . S
H1445 N1432 0.985 . S
C1446 C1447 1.363 . S
C1446 C1452 1.379 . S
C1446 N1454 1.356 . S
C1447 C1446 1.363 . S
C1447 C1453 1.363 . S
C1448 C1449 1.363 . S
C1448 C1453 1.379 . S
C1448 N1455 1.356 . S
C1449 C1448 1.363 . S
C1449 C1452 1.363 . S
N1450 C1452 1.356 . S
N1450 H1462 0.984 . S
N1450 H1463 0.985 . S
N1451 C1453 1.356 . S
N1451 H1456 0.984 . S
N1451 H1457 0.985 . S
C1452 C1446 1.379 . S
C1452 C1449 1.363 . S
C1452 N1450 1.356 . S
C1453 C1447 1.363 . S
C1453 C1448 1.379 . S
C1453 N1451 1.356 . S
N1454 C1446 1.356 . S
N1454 H1460 0.984 . S
N1454 H1461 0.984 . S
N1455 C1448 1.356 . S
N1455 H1458 0.984 . S
N1455 H1459 0.985 . S
H1456 N1451 0.984 . S
H1457 N1451 0.985 . S
H1458 N1455 0.984 . S
H1459 N1455 0.985 . S
H1460 N1454 0.984 . S
H1461 N1454 0.984 . S
H1462 N1450 0.984 . S
H1463 N1450 0.985 . S
C1464 C1465 1.363 . S
C1464 C1470 1.379 . S
C1464 N1472 1.356 . S
C1465 C1464 1.363 . S
C1465 C1471 1.363 . S
C1466 C1467 1.363 . S
C1466 C1471 1.379 . S
C1466 N1473 1.356 1_554 S
C1467 C1466 1.363 . S
C1467 C1470 1.363 . S
N1468 C1470 1.356 . S
N1468 H1480 0.984 . S
N1468 H1481 0.985 . S
N1469 C1471 1.356 . S
N1469 H1474 0.984 . S
N1469 H1475 0.986 . S
C1470 C1464 1.379 . S
C1470 C1467 1.363 . S
C1470 N1468 1.356 . S
C1471 C1465 1.363 . S
C1471 C1466 1.379 . S
C1471 N1469 1.356 . S
N1472 C1464 1.356 . S
N1472 H1478 0.984 . S
N1472 H1479 0.984 . S
N1473 C1466 1.356 1_556 S
N1473 H1476 0.984 . S
N1473 H1477 0.985 . S
H1474 N1469 0.984 . S
H1475 N1469 0.986 . S
H1476 N1473 0.984 . S
H1477 N1473 0.985 . S
H1478 N1472 0.984 . S
H1479 N1472 0.984 . S
H1480 N1468 0.984 . S
H1481 N1468 0.985 . S
C1482 C1483 1.363 . S
C1482 C1488 1.379 . S
C1482 N1490 1.356 . S
C1483 C1482 1.363 . S
C1483 C1489 1.363 . S
C1484 C1485 1.363 . S
C1484 C1489 1.379 . S
C1484 N1491 1.356 . S
C1485 C1484 1.363 . S
C1485 C1488 1.363 . S
N1486 C1488 1.356 . S
N1486 H1498 0.984 . S
N1486 H1499 0.985 . S
N1487 C1489 1.356 . S
N1487 H1492 0.984 . S
N1487 H1493 0.985 . S
C1488 C1482 1.379 . S
C1488 C1485 1.363 . S
C1488 N1486 1.356 . S
C1489 C1483 1.363 . S
C1489 C1484 1.379 . S
C1489 N1487 1.356 . S
N1490 C1482 1.356 . S
N1490 H1496 0.984 . S
N1490 H1497 0.984 . S
N1491 C1484 1.356 . S
N1491 H1494 0.984 . S
N1491 H1495 0.985 . S
H1492 N1487 0.984 . S
H1493 N1487 0.985 . S
H1494 N1491 0.984 . S
H1495 N1491 0.985 . S
H1496 N1490 0.984 . S
H1497 N1490 0.984 . S
H1498 N1486 0.984 . S
H1499 N1486 0.985 . S
C1500 C1501 1.363 . S
C1500 C1506 1.379 . S
C1500 N1508 1.356 . S
C1501 C1500 1.363 . S
C1501 C1507 1.363 . S
C1502 C1503 1.363 . S
C1502 C1507 1.379 . S
C1502 N1509 1.356 . S
C1503 C1502 1.363 . S
C1503 C1506 1.363 . S
N1504 C1506 1.356 . S
N1504 H1516 0.984 . S
N1504 H1517 0.985 . S
N1505 C1507 1.356 . S
N1505 H1510 0.984 . S
N1505 H1511 0.985 . S
C1506 C1500 1.379 . S
C1506 C1503 1.363 . S
C1506 N1504 1.356 . S
C1507 C1501 1.363 . S
C1507 C1502 1.379 . S
C1507 N1505 1.356 . S
N1508 C1500 1.356 . S
N1508 H1514 0.984 . S
N1508 H1515 0.984 . S
N1509 C1502 1.356 . S
N1509 H1512 0.984 . S
N1509 H1513 0.985 . S
H1510 N1505 0.984 . S
H1511 N1505 0.985 . S
H1512 N1509 0.984 . S
H1513 N1509 0.985 . S
H1514 N1508 0.984 . S
H1515 N1508 0.984 . S
H1516 N1504 0.984 . S
H1517 N1504 0.985 . S
C1518 C1519 1.363 . S
C1518 C1524 1.379 . S
C1518 N1526 1.356 . S
C1519 C1518 1.363 . S
C1519 C1525 1.363 . S
C1520 C1521 1.363 . S
C1520 C1525 1.379 . S
C1520 N1527 1.356 . S
C1521 C1520 1.363 . S
C1521 C1524 1.363 . S
N1522 C1524 1.356 . S
N1522 H1534 0.984 . S
N1522 H1535 0.985 . S
N1523 C1525 1.356 . S
N1523 H1528 0.984 . S
N1523 H1529 0.985 . S
C1524 C1518 1.379 . S
C1524 C1521 1.363 . S
C1524 N1522 1.356 . S
C1525 C1519 1.363 . S
C1525 C1520 1.379 . S
C1525 N1523 1.356 . S
N1526 C1518 1.356 . S
N1526 H1532 0.984 . S
N1526 H1533 0.984 . S
N1527 C1520 1.356 . S
N1527 H1530 0.984 . S
N1527 H1531 0.985 . S
H1528 N1523 0.984 . S
H1529 N1523 0.985 . S
H1530 N1527 0.984 . S
H1531 N1527 0.985 . S
H1532 N1526 0.984 . S
H1533 N1526 0.984 . S
H1534 N1522 0.984 . S
H1535 N1522 0.985 . S
C1536 C1537 1.363 . S
C1536 C1542 1.379 . S
C1536 N1544 1.356 . S
C1537 C1536 1.363 . S
C1537 C1543 1.363 . S
C1538 C1539 1.363 . S
C1538 C1543 1.379 . S
C1538 N1545 1.356 . S
C1539 C1538 1.363 . S
C1539 C1542 1.363 . S
N1540 C1542 1.356 . S
N1540 H1552 0.984 . S
N1540 H1553 0.985 . S
N1541 C1543 1.356 . S
N1541 H1546 0.984 . S
N1541 H1547 0.985 . S
C1542 C1536 1.379 . S
C1542 C1539 1.363 . S
C1542 N1540 1.356 . S
C1543 C1537 1.363 . S
C1543 C1538 1.379 . S
C1543 N1541 1.356 . S
N1544 C1536 1.356 . S
N1544 H1550 0.984 . S
N1544 H1551 0.984 . S
N1545 C1538 1.356 . S
N1545 H1548 0.984 . S
N1545 H1549 0.985 . S
H1546 N1541 0.984 . S
H1547 N1541 0.985 . S
H1548 N1545 0.984 . S
H1549 N1545 0.985 . S
H1550 N1544 0.984 . S
H1551 N1544 0.984 . S
H1552 N1540 0.984 . S
H1553 N1540 0.985 . S
C1554 C1555 1.363 . S
C1554 C1560 1.379 . S
C1554 N1562 1.356 . S
C1555 C1554 1.363 . S
C1555 C1561 1.363 . S
C1556 C1557 1.363 . S
C1556 C1561 1.379 . S
C1556 N1563 1.356 . S
C1557 C1556 1.363 . S
C1557 C1560 1.363 . S
N1558 C1560 1.356 . S
N1558 H1570 0.984 1_554 S
N1558 H1571 0.985 1_554 S
N1559 C1561 1.356 . S
N1559 H1564 0.984 . S
N1559 H1565 0.985 . S
C1560 C1554 1.379 . S
C1560 C1557 1.363 . S
C1560 N1558 1.356 . S
C1561 C1555 1.363 . S
C1561 C1556 1.379 . S
C1561 N1559 1.356 . S
N1562 C1554 1.356 . S
N1562 H1568 0.984 . S
N1562 H1569 0.984 . S
N1563 C1556 1.356 . S
N1563 H1566 0.984 . S
N1563 H1567 0.985 . S
H1564 N1559 0.984 . S
H1565 N1559 0.985 . S
H1566 N1563 0.984 . S
H1567 N1563 0.985 . S
H1568 N1562 0.984 . S
H1569 N1562 0.984 . S
H1570 N1558 0.984 1_556 S
H1571 N1558 0.985 1_556 S
C1572 C1573 1.363 . S
C1572 C1578 1.379 . S
C1572 N1580 1.356 . S
C1573 C1572 1.363 . S
C1573 C1579 1.363 . S
C1574 C1575 1.363 . S
C1574 C1579 1.379 . S
C1574 N1581 1.356 . S
C1575 C1574 1.363 . S
C1575 C1578 1.363 . S
N1576 C1578 1.356 . S
N1576 H1588 0.984 . S
N1576 H1589 0.985 . S
N1577 C1579 1.356 . S
N1577 H1582 0.984 . S
N1577 H1583 0.985 . S
C1578 C1572 1.379 . S
C1578 C1575 1.363 . S
C1578 N1576 1.356 . S
C1579 C1573 1.363 . S
C1579 C1574 1.379 . S
C1579 N1577 1.356 . S
N1580 C1572 1.356 . S
N1580 H1586 0.984 . S
N1580 H1587 0.984 . S
N1581 C1574 1.356 . S
N1581 H1584 0.984 . S
N1581 H1585 0.985 . S
H1582 N1577 0.984 . S
H1583 N1577 0.985 . S
H1584 N1581 0.984 . S
H1585 N1581 0.985 . S
H1586 N1580 0.984 . S
H1587 N1580 0.984 . S
H1588 N1576 0.984 . S
H1589 N1576 0.985 . S
C1590 C1591 1.363 . S
C1590 C1596 1.379 . S
C1590 N1598 1.356 . S
C1591 C1590 1.363 . S
C1591 C1597 1.363 . S
C1592 C1593 1.363 . S
C1592 C1597 1.379 . S
C1592 N1599 1.356 . S
C1593 C1592 1.363 . S
C1593 C1596 1.363 . S
N1594 C1596 1.356 . S
N1594 H1606 0.984 . S
N1594 H1607 0.985 . S
N1595 C1597 1.356 . S
N1595 H1600 0.984 . S
N1595 H1601 0.985 . S
C1596 C1590 1.379 . S
C1596 C1593 1.363 . S
C1596 N1594 1.356 . S
C1597 C1591 1.363 . S
C1597 C1592 1.379 . S
C1597 N1595 1.356 . S
N1598 C1590 1.356 . S
N1598 H1604 0.984 . S
N1598 H1605 0.984 . S
N1599 C1592 1.356 . S
N1599 H1602 0.984 . S
N1599 H1603 0.985 . S
H1600 N1595 0.984 . S
H1601 N1595 0.985 . S
H1602 N1599 0.984 . S
H1603 N1599 0.985 . S
H1604 N1598 0.984 . S
H1605 N1598 0.984 . S
H1606 N1594 0.984 . S
H1607 N1594 0.985 . S
C1608 C1609 1.363 . S
C1608 C1614 1.379 . S
C1608 N1616 1.356 . S
C1609 C1608 1.363 . S
C1609 C1615 1.363 . S
C1610 C1611 1.363 . S
C1610 C1615 1.379 . S
C1610 N1617 1.356 . S
C1611 C1610 1.363 . S
C1611 C1614 1.363 . S
N1612 C1614 1.356 . S
N1612 H1624 0.984 . S
N1612 H1625 0.985 . S
N1613 C1615 1.356 . S
N1613 H1618 0.984 . S
N1613 H1619 0.985 . S
C1614 C1608 1.379 . S
C1614 C1611 1.363 . S
C1614 N1612 1.356 . S
C1615 C1609 1.363 . S
C1615 C1610 1.379 . S
C1615 N1613 1.356 . S
N1616 C1608 1.356 . S
N1616 H1622 0.984 . S
N1616 H1623 0.984 . S
N1617 C1610 1.356 . S
N1617 H1620 0.984 . S
N1617 H1621 0.985 . S
H1618 N1613 0.984 . S
H1619 N1613 0.985 . S
H1620 N1617 0.984 . S
H1621 N1617 0.985 . S
H1622 N1616 0.984 . S
H1623 N1616 0.984 . S
H1624 N1612 0.984 . S
H1625 N1612 0.985 . S
C1626 C1627 1.363 . S
C1626 C1632 1.379 . S
C1626 N1634 1.356 . S
C1627 C1626 1.363 . S
C1627 C1633 1.363 . S
C1628 C1629 1.363 . S
C1628 C1633 1.379 . S
C1628 N1635 1.356 . S
C1629 C1628 1.363 . S
C1629 C1632 1.363 . S
N1630 C1632 1.356 . S
N1630 H1642 0.984 . S
N1630 H1643 0.985 . S
N1631 C1633 1.356 . S
N1631 H1636 0.984 . S
N1631 H1637 0.985 . S
C1632 C1626 1.379 . S
C1632 C1629 1.363 . S
C1632 N1630 1.356 . S
C1633 C1627 1.363 . S
C1633 C1628 1.379 . S
C1633 N1631 1.356 . S
N1634 C1626 1.356 . S
N1634 H1640 0.984 . S
N1634 H1641 0.985 . S
N1635 C1628 1.356 . S
N1635 H1638 0.984 . S
N1635 H1639 0.985 . S
H1636 N1631 0.984 . S
H1637 N1631 0.985 . S
H1638 N1635 0.984 . S
H1639 N1635 0.985 . S
H1640 N1634 0.984 . S
H1641 N1634 0.985 . S
H1642 N1630 0.984 . S
H1643 N1630 0.985 . S
C1644 C1645 1.363 . S
C1644 C1650 1.379 . S
C1644 N1652 1.356 . S
C1645 C1644 1.363 . S
C1645 C1651 1.363 . S
C1646 C1647 1.363 . S
C1646 C1651 1.379 . S
C1646 N1653 1.356 . S
C1647 C1646 1.363 . S
C1647 C1650 1.363 . S
N1648 C1650 1.356 . S
N1648 H1660 0.984 . S
N1648 H1661 0.985 . S
N1649 C1651 1.356 . S
N1649 H1654 0.984 . S
N1649 H1655 0.985 . S
C1650 C1644 1.379 . S
C1650 C1647 1.363 . S
C1650 N1648 1.356 . S
C1651 C1645 1.363 . S
C1651 C1646 1.379 . S
C1651 N1649 1.356 . S
N1652 C1644 1.356 . S
N1652 H1658 0.984 . S
N1652 H1659 0.984 . S
N1653 C1646 1.356 . S
N1653 H1656 0.984 . S
N1653 H1657 0.985 . S
H1654 N1649 0.984 . S
H1655 N1649 0.985 . S
H1656 N1653 0.984 . S
H1657 N1653 0.985 . S
H1658 N1652 0.984 . S
H1659 N1652 0.984 . S
H1660 N1648 0.984 . S
H1661 N1648 0.985 . S
C1662 C1663 1.363 . S
C1662 C1668 1.379 . S
C1662 N1670 1.356 . S
C1663 C1662 1.363 . S
C1663 C1669 1.363 . S
C1664 C1665 1.363 . S
C1664 C1669 1.379 . S
C1664 N1671 1.356 . S
C1665 C1664 1.363 . S
C1665 C1668 1.363 . S
N1666 C1668 1.356 . S
N1666 H1678 0.984 . S
N1666 H1679 0.985 . S
N1667 C1669 1.356 . S
N1667 H1672 0.984 . S
N1667 H1673 0.985 . S
C1668 C1662 1.379 . S
C1668 C1665 1.363 . S
C1668 N1666 1.356 . S
C1669 C1663 1.363 . S
C1669 C1664 1.379 . S
C1669 N1667 1.356 . S
N1670 C1662 1.356 . S
N1670 H1676 0.984 . S
N1670 H1677 0.984 . S
N1671 C1664 1.356 . S
N1671 H1674 0.984 . S
N1671 H1675 0.985 . S
H1672 N1667 0.984 . S
H1673 N1667 0.985 . S
H1674 N1671 0.984 . S
H1675 N1671 0.985 . S
H1676 N1670 0.984 . S
H1677 N1670 0.984 . S
H1678 N1666 0.984 . S
H1679 N1666 0.985 . S
C1680 C1681 1.363 . S
C1680 C1686 1.379 . S
C1680 N1688 1.356 . S
C1681 C1680 1.363 . S
C1681 C1687 1.363 . S
C1682 C1683 1.363 . S
C1682 C1687 1.379 . S
C1682 N1689 1.356 . S
C1683 C1682 1.363 . S
C1683 C1686 1.363 . S
N1684 C1686 1.356 . S
N1684 H1696 0.984 . S
N1684 H1697 0.985 . S
N1685 C1687 1.356 . S
N1685 H1690 0.984 . S
N1685 H1691 0.985 . S
C1686 C1680 1.379 . S
C1686 C1683 1.363 . S
C1686 N1684 1.356 . S
C1687 C1681 1.363 . S
C1687 C1682 1.379 . S
C1687 N1685 1.356 . S
N1688 C1680 1.356 . S
N1688 H1694 0.984 . S
N1688 H1695 0.984 . S
N1689 C1682 1.356 . S
N1689 H1692 0.984 . S
N1689 H1693 0.985 . S
H1690 N1685 0.984 . S
H1691 N1685 0.985 . S
H1692 N1689 0.984 . S
H1693 N1689 0.985 . S
H1694 N1688 0.984 . S
H1695 N1688 0.984 . S
H1696 N1684 0.984 . S
H1697 N1684 0.985 . S
C1698 C1699 1.363 . S
C1698 C1704 1.379 . S
C1698 N1706 1.356 . S
C1699 C1698 1.363 . S
C1699 C1705 1.363 . S
C1700 C1701 1.363 . S
C1700 C1705 1.379 . S
C1700 N1707 1.356 . S
C1701 C1700 1.363 . S
C1701 C1704 1.363 . S
N1702 C1704 1.356 . S
N1702 H1714 0.984 . S
N1702 H1715 0.985 . S
N1703 C1705 1.356 . S
N1703 H1708 0.984 . S
N1703 H1709 0.985 . S
C1704 C1698 1.379 . S
C1704 C1701 1.363 . S
C1704 N1702 1.356 . S
C1705 C1699 1.363 . S
C1705 C1700 1.379 . S
C1705 N1703 1.356 . S
N1706 C1698 1.356 . S
N1706 H1712 0.984 . S
N1706 H1713 0.984 . S
N1707 C1700 1.356 . S
N1707 H1710 0.984 . S
N1707 H1711 0.985 . S
H1708 N1703 0.984 . S
H1709 N1703 0.985 . S
H1710 N1707 0.984 . S
H1711 N1707 0.985 . S
H1712 N1706 0.984 . S
H1713 N1706 0.984 . S
H1714 N1702 0.984 . S
H1715 N1702 0.985 . S
C1716 C1717 1.363 . S
C1716 C1722 1.379 . S
C1716 N1724 1.356 . S
C1717 C1716 1.363 . S
C1717 C1723 1.363 . S
C1718 C1719 1.363 . S
C1718 C1723 1.379 . S
C1718 N1725 1.356 . S
C1719 C1718 1.363 . S
C1719 C1722 1.363 . S
N1720 C1722 1.356 . S
N1720 H1732 0.984 . S
N1720 H1733 0.985 . S
N1721 C1723 1.356 . S
N1721 H1726 0.984 . S
N1721 H1727 0.985 . S
C1722 C1716 1.379 . S
C1722 C1719 1.363 . S
C1722 N1720 1.356 . S
C1723 C1717 1.363 . S
C1723 C1718 1.379 . S
C1723 N1721 1.356 . S
N1724 C1716 1.356 . S
N1724 H1730 0.984 . S
N1724 H1731 0.984 . S
N1725 C1718 1.356 . S
N1725 H1728 0.984 . S
N1725 H1729 0.985 . S
H1726 N1721 0.984 . S
H1727 N1721 0.985 . S
H1728 N1725 0.984 . S
H1729 N1725 0.985 . S
H1730 N1724 0.984 . S
H1731 N1724 0.984 . S
H1732 N1720 0.984 . S
H1733 N1720 0.985 . S
C1734 C1735 1.363 . S
C1734 C1740 1.379 . S
C1734 N1742 1.356 1_655 S
C1735 C1734 1.363 . S
C1735 C1741 1.363 . S
C1736 C1737 1.363 . S
C1736 C1741 1.379 . S
C1736 N1743 1.356 . S
C1737 C1736 1.363 . S
C1737 C1740 1.363 . S
N1738 C1740 1.356 . S
N1738 H1750 0.984 . S
N1738 H1751 0.985 . S
N1739 C1741 1.356 . S
N1739 H1744 0.984 . S
N1739 H1745 0.985 . S
C1740 C1734 1.379 . S
C1740 C1737 1.363 . S
C1740 N1738 1.356 . S
C1741 C1735 1.363 . S
C1741 C1736 1.379 . S
C1741 N1739 1.356 . S
N1742 C1734 1.356 1_455 S
N1742 H1748 0.984 . S
N1742 H1749 0.984 . S
N1743 C1736 1.356 . S
N1743 H1746 0.984 . S
N1743 H1747 0.985 . S
H1744 N1739 0.984 . S
H1745 N1739 0.985 . S
H1746 N1743 0.984 . S
H1747 N1743 0.985 . S
H1748 N1742 0.984 . S
H1749 N1742 0.984 . S
H1750 N1738 0.984 . S
H1751 N1738 0.985 . S
C1752 C1753 1.363 . S
C1752 C1758 1.379 . S
C1752 N1760 1.356 . S
C1753 C1752 1.363 . S
C1753 C1759 1.363 . S
C1754 C1755 1.363 . S
C1754 C1759 1.379 . S
C1754 N1761 1.356 . S
C1755 C1754 1.363 . S
C1755 C1758 1.363 . S
N1756 C1758 1.356 . S
N1756 H1768 0.984 . S
N1756 H1769 0.985 . S
N1757 C1759 1.356 . S
N1757 H1762 0.984 . S
N1757 H1763 0.985 . S
C1758 C1752 1.379 . S
C1758 C1755 1.363 . S
C1758 N1756 1.356 . S
C1759 C1753 1.363 . S
C1759 C1754 1.379 . S
C1759 N1757 1.356 . S
N1760 C1752 1.356 . S
N1760 H1766 0.984 . S
N1760 H1767 0.984 . S
N1761 C1754 1.356 . S
N1761 H1764 0.984 . S
N1761 H1765 0.985 . S
H1762 N1757 0.984 . S
H1763 N1757 0.985 . S
H1764 N1761 0.984 . S
H1765 N1761 0.985 . S
H1766 N1760 0.984 . S
H1767 N1760 0.984 . S
H1768 N1756 0.984 . S
H1769 N1756 0.985 . S
C1770 C1771 1.363 . S
C1770 C1776 1.379 . S
C1770 N1778 1.356 . S
C1771 C1770 1.363 . S
C1771 C1777 1.363 . S
C1772 C1773 1.363 . S
C1772 C1777 1.379 . S
C1772 N1779 1.356 . S
C1773 C1772 1.363 . S
C1773 C1776 1.363 . S
N1774 C1776 1.356 . S
N1774 H1786 0.984 . S
N1774 H1787 0.985 . S
N1775 C1777 1.356 1_455 S
N1775 H1780 0.984 . S
N1775 H1781 0.985 . S
C1776 C1770 1.379 . S
C1776 C1773 1.363 . S
C1776 N1774 1.356 . S
C1777 C1771 1.363 . S
C1777 C1772 1.379 . S
C1777 N1775 1.356 1_655 S
N1778 C1770 1.356 . S
N1778 H1784 0.984 . S
N1778 H1785 0.984 . S
N1779 C1772 1.356 . S
N1779 H1782 0.984 . S
N1779 H1783 0.985 1_655 S
H1780 N1775 0.984 . S
H1781 N1775 0.985 . S
H1782 N1779 0.984 . S
H1783 N1779 0.985 1_455 S
H1784 N1778 0.984 . S
H1785 N1778 0.984 . S
H1786 N1774 0.984 . S
H1787 N1774 0.985 . S
C1788 C1789 1.363 . S
C1788 C1794 1.379 . S
C1788 N1796 1.356 . S
C1789 C1788 1.363 . S
C1789 C1795 1.363 . S
C1790 C1791 1.363 . S
C1790 C1795 1.379 . S
C1790 N1797 1.356 . S
C1791 C1790 1.363 . S
C1791 C1794 1.363 . S
N1792 C1794 1.356 . S
N1792 H1804 0.984 . S
N1792 H1805 0.985 . S
N1793 C1795 1.356 . S
N1793 H1798 0.984 . S
N1793 H1799 0.985 . S
C1794 C1788 1.379 . S
C1794 C1791 1.363 . S
C1794 N1792 1.356 . S
C1795 C1789 1.363 . S
C1795 C1790 1.379 . S
C1795 N1793 1.356 . S
N1796 C1788 1.356 . S
N1796 H1802 0.984 . S
N1796 H1803 0.984 . S
N1797 C1790 1.356 . S
N1797 H1800 0.984 . S
N1797 H1801 0.985 . S
H1798 N1793 0.984 . S
H1799 N1793 0.985 . S
H1800 N1797 0.984 . S
H1801 N1797 0.985 . S
H1802 N1796 0.984 . S
H1803 N1796 0.984 . S
H1804 N1792 0.984 . S
H1805 N1792 0.985 . S
C1806 C1807 1.363 . S
C1806 C1812 1.379 . S
C1806 N1814 1.356 . S
C1807 C1806 1.363 . S
C1807 C1813 1.363 . S
C1808 C1809 1.363 . S
C1808 C1813 1.379 . S
C1808 N1815 1.356 . S
C1809 C1808 1.363 . S
C1809 C1812 1.363 . S
N1810 C1812 1.356 . S
N1810 H1822 0.984 . S
N1810 H1823 0.985 . S
N1811 C1813 1.356 . S
N1811 H1816 0.984 . S
N1811 H1817 0.985 . S
C1812 C1806 1.379 . S
C1812 C1809 1.363 . S
C1812 N1810 1.356 . S
C1813 C1807 1.363 . S
C1813 C1808 1.379 . S
C1813 N1811 1.356 . S
N1814 C1806 1.356 . S
N1814 H1820 0.984 . S
N1814 H1821 0.984 . S
N1815 C1808 1.356 . S
N1815 H1818 0.984 . S
N1815 H1819 0.985 . S
H1816 N1811 0.984 . S
H1817 N1811 0.985 . S
H1818 N1815 0.984 . S
H1819 N1815 0.985 . S
H1820 N1814 0.984 . S
H1821 N1814 0.984 . S
H1822 N1810 0.984 . S
H1823 N1810 0.985 . S
C1824 C1825 1.363 . S
C1824 C1830 1.379 . S
C1824 N1832 1.356 . S
C1825 C1824 1.363 . S
C1825 C1831 1.363 . S
C1826 C1827 1.363 . S
C1826 C1831 1.379 . S
C1826 N1833 1.356 . S
C1827 C1826 1.363 . S
C1827 C1830 1.363 . S
N1828 C1830 1.356 . S
N1828 H1840 0.984 . S
N1828 H1841 0.985 . S
N1829 C1831 1.356 . S
N1829 H1834 0.984 . S
N1829 H1835 0.985 . S
C1830 C1824 1.379 . S
C1830 C1827 1.363 . S
C1830 N1828 1.356 . S
C1831 C1825 1.363 . S
C1831 C1826 1.379 . S
C1831 N1829 1.356 . S
N1832 C1824 1.356 . S
N1832 H1838 0.984 . S
N1832 H1839 0.984 . S
N1833 C1826 1.356 . S
N1833 H1836 0.984 . S
N1833 H1837 0.985 . S
H1834 N1829 0.984 . S
H1835 N1829 0.985 . S
H1836 N1833 0.984 . S
H1837 N1833 0.985 . S
H1838 N1832 0.984 . S
H1839 N1832 0.984 . S
H1840 N1828 0.984 . S
H1841 N1828 0.985 . S
C1842 C1843 1.363 . S
C1842 C1848 1.379 . S
C1842 N1850 1.356 . S
C1843 C1842 1.363 . S
C1843 C1849 1.363 . S
C1844 C1845 1.363 . S
C1844 C1849 1.379 . S
C1844 N1851 1.356 . S
C1845 C1844 1.363 . S
C1845 C1848 1.363 . S
N1846 C1848 1.356 . S
N1846 H1858 0.984 . S
N1846 H1859 0.985 . S
N1847 C1849 1.356 . S
N1847 H1852 0.984 . S
N1847 H1853 0.985 . S
C1848 C1842 1.379 . S
C1848 C1845 1.363 . S
C1848 N1846 1.356 . S
C1849 C1843 1.363 . S
C1849 C1844 1.379 . S
C1849 N1847 1.356 . S
N1850 C1842 1.356 . S
N1850 H1856 0.984 . S
N1850 H1857 0.984 . S
N1851 C1844 1.356 . S
N1851 H1854 0.984 . S
N1851 H1855 0.985 . S
H1852 N1847 0.984 . S
H1853 N1847 0.985 . S
H1854 N1851 0.984 . S
H1855 N1851 0.985 . S
H1856 N1850 0.984 . S
H1857 N1850 0.984 . S
H1858 N1846 0.984 . S
H1859 N1846 0.985 . S
C1860 C1861 1.363 . S
C1860 C1866 1.379 . S
C1860 N1868 1.356 . S
C1861 C1860 1.363 . S
C1861 C1867 1.363 . S
C1862 C1863 1.363 . S
C1862 C1867 1.379 . S
C1862 N1869 1.356 . S
C1863 C1862 1.363 . S
C1863 C1866 1.363 . S
N1864 C1866 1.356 . S
N1864 H1876 0.984 . S
N1864 H1877 0.985 . S
N1865 C1867 1.356 . S
N1865 H1870 0.984 . S
N1865 H1871 0.985 . S
C1866 C1860 1.379 . S
C1866 C1863 1.363 . S
C1866 N1864 1.356 . S
C1867 C1861 1.363 . S
C1867 C1862 1.379 . S
C1867 N1865 1.356 . S
N1868 C1860 1.356 . S
N1868 H1874 0.984 . S
N1868 H1875 0.984 . S
N1869 C1862 1.356 . S
N1869 H1872 0.984 . S
N1869 H1873 0.985 . S
H1870 N1865 0.984 . S
H1871 N1865 0.985 . S
H1872 N1869 0.984 . S
H1873 N1869 0.985 . S
H1874 N1868 0.984 . S
H1875 N1868 0.984 . S
H1876 N1864 0.984 . S
H1877 N1864 0.985 . S
C1878 C1879 1.363 . S
C1878 C1884 1.379 . S
C1878 N1886 1.356 . S
C1879 C1878 1.363 . S
C1879 C1885 1.363 . S
C1880 C1881 1.363 . S
C1880 C1885 1.379 . S
C1880 N1887 1.356 . S
C1881 C1880 1.363 . S
C1881 C1884 1.363 . S
N1882 C1884 1.356 . S
N1882 H1894 0.984 . S
N1882 H1895 0.985 . S
N1883 C1885 1.356 . S
N1883 H1888 0.984 . S
N1883 H1889 0.985 . S
C1884 C1878 1.379 . S
C1884 C1881 1.363 . S
C1884 N1882 1.356 . S
C1885 C1879 1.363 . S
C1885 C1880 1.379 . S
C1885 N1883 1.356 . S
N1886 C1878 1.356 . S
N1886 H1892 0.984 . S
N1886 H1893 0.984 . S
N1887 C1880 1.356 . S
N1887 H1890 0.984 . S
N1887 H1891 0.985 . S
H1888 N1883 0.984 . S
H1889 N1883 0.985 . S
H1890 N1887 0.984 . S
H1891 N1887 0.985 . S
H1892 N1886 0.984 . S
H1893 N1886 0.984 . S
H1894 N1882 0.984 . S
H1895 N1882 0.985 . S
C1896 C1897 1.363 . S
C1896 C1902 1.379 . S
C1896 N1904 1.356 . S
C1897 C1896 1.363 . S
C1897 C1903 1.363 . S
C1898 C1899 1.363 . S
C1898 C1903 1.379 . S
C1898 N1905 1.356 . S
C1899 C1898 1.363 . S
C1899 C1902 1.363 . S
N1900 C1902 1.356 . S
N1900 H1912 0.984 . S
N1900 H1913 0.985 . S
N1901 C1903 1.356 . S
N1901 H1906 0.984 . S
N1901 H1907 0.985 . S
C1902 C1896 1.379 . S
C1902 C1899 1.363 . S
C1902 N1900 1.356 . S
C1903 C1897 1.363 . S
C1903 C1898 1.379 . S
C1903 N1901 1.356 . S
N1904 C1896 1.356 . S
N1904 H1910 0.984 . S
N1904 H1911 0.984 . S
N1905 C1898 1.356 . S
N1905 H1908 0.984 . S
N1905 H1909 0.985 . S
H1906 N1901 0.984 . S
H1907 N1901 0.985 . S
H1908 N1905 0.984 . S
H1909 N1905 0.985 . S
H1910 N1904 0.984 . S
H1911 N1904 0.984 . S
H1912 N1900 0.984 . S
H1913 N1900 0.985 . S
C1914 C1915 1.363 . S
C1914 C1920 1.379 . S
C1914 N1922 1.356 . S
C1915 C1914 1.363 . S
C1915 C1921 1.363 . S
C1916 C1917 1.363 . S
C1916 C1921 1.379 . S
C1916 N1923 1.356 . S
C1917 C1916 1.363 . S
C1917 C1920 1.363 . S
N1918 C1920 1.356 . S
N1918 H1930 0.984 . S
N1918 H1931 0.985 . S
N1919 C1921 1.356 . S
N1919 H1924 0.984 . S
N1919 H1925 0.985 . S
C1920 C1914 1.379 . S
C1920 C1917 1.363 . S
C1920 N1918 1.356 . S
C1921 C1915 1.363 . S
C1921 C1916 1.379 . S
C1921 N1919 1.356 . S
N1922 C1914 1.356 . S
N1922 H1928 0.984 . S
N1922 H1929 0.984 . S
N1923 C1916 1.356 . S
N1923 H1926 0.984 . S
N1923 H1927 0.985 . S
H1924 N1919 0.984 . S
H1925 N1919 0.985 . S
H1926 N1923 0.984 . S
H1927 N1923 0.985 . S
H1928 N1922 0.984 . S
H1929 N1922 0.984 . S
H1930 N1918 0.984 . S
H1931 N1918 0.985 . S
C1932 C1933 1.363 . S
C1932 C1938 1.379 . S
C1932 N1940 1.356 . S
C1933 C1932 1.363 . S
C1933 C1939 1.363 . S
C1934 C1935 1.363 . S
C1934 C1939 1.379 . S
C1934 N1941 1.356 . S
C1935 C1934 1.363 . S
C1935 C1938 1.363 . S
N1936 C1938 1.356 1_554 S
N1936 H1948 0.984 . S
N1936 H1949 0.985 . S
N1937 C1939 1.356 . S
N1937 H1942 0.984 . S
N1937 H1943 0.985 . S
C1938 C1932 1.379 . S
C1938 C1935 1.363 . S
C1938 N1936 1.356 1_556 S
C1939 C1933 1.363 . S
C1939 C1934 1.379 . S
C1939 N1937 1.356 . S
N1940 C1932 1.356 . S
N1940 H1946 0.984 1_556 S
N1940 H1947 0.984 . S
N1941 C1934 1.356 . S
N1941 H1944 0.984 . S
N1941 H1945 0.985 . S
H1942 N1937 0.984 . S
H1943 N1937 0.985 . S
H1944 N1941 0.984 . S
H1945 N1941 0.985 . S
H1946 N1940 0.984 1_554 S
H1947 N1940 0.984 . S
H1948 N1936 0.984 . S
H1949 N1936 0.985 . S
C1950 C1951 1.363 . S
C1950 C1956 1.379 . S
C1950 N1958 1.356 . S
C1951 C1950 1.363 . S
C1951 C1957 1.363 . S
C1952 C1953 1.363 . S
C1952 C1957 1.379 . S
C1952 N1959 1.356 . S
C1953 C1952 1.363 . S
C1953 C1956 1.363 . S
N1954 C1956 1.356 . S
N1954 H1966 0.984 . S
N1954 H1967 0.985 . S
N1955 C1957 1.348 1_455 S
N1955 H1960 0.988 . S
N1955 H1961 0.990 . S
C1956 C1950 1.379 . S
C1956 C1953 1.363 . S
C1956 N1954 1.356 . S
C1957 C1951 1.363 . S
C1957 C1952 1.379 . S
C1957 N1955 1.348 1_655 S
N1958 C1950 1.356 . S
N1958 H1964 0.984 . S
N1958 H1965 0.984 . S
N1959 C1952 1.356 . S
N1959 H1962 0.984 . S
N1959 H1963 0.985 . S
H1960 N1955 0.988 . S
H1961 N1955 0.990 . S
H1962 N1959 0.984 . S
H1963 N1959 0.985 . S
H1964 N1958 0.984 . S
H1965 N1958 0.984 . S
H1966 N1954 0.984 . S
H1967 N1954 0.985 . S
C1968 C1969 1.363 . S
C1968 C1974 1.379 . S
C1968 N1976 1.356 . S
C1969 C1968 1.363 . S
C1969 C1975 1.363 . S
C1970 C1971 1.363 . S
C1970 C1975 1.379 . S
C1970 N1977 1.356 . S
C1971 C1970 1.363 . S
C1971 C1974 1.363 . S
N1972 C1974 1.356 . S
N1972 H1984 0.984 . S
N1972 H1985 0.985 . S
N1973 C1975 1.356 . S
N1973 H1978 0.984 . S
N1973 H1979 0.985 . S
C1974 C1968 1.379 . S
C1974 C1971 1.363 . S
C1974 N1972 1.356 . S
C1975 C1969 1.363 . S
C1975 C1970 1.379 . S
C1975 N1973 1.356 . S
N1976 C1968 1.356 . S
N1976 H1982 0.984 . S
N1976 H1983 0.984 . S
N1977 C1970 1.356 . S
N1977 H1980 0.984 . S
N1977 H1981 0.985 . S
H1978 N1973 0.984 . S
H1979 N1973 0.985 . S
H1980 N1977 0.984 . S
H1981 N1977 0.985 . S
H1982 N1976 0.984 . S
H1983 N1976 0.984 . S
H1984 N1972 0.984 . S
H1985 N1972 0.985 . S
C1986 C1987 1.363 . S
C1986 C1992 1.379 . S
C1986 N1994 1.356 . S
C1987 C1986 1.363 . S
C1987 C1993 1.363 . S
C1988 C1989 1.363 . S
C1988 C1993 1.379 . S
C1988 N1995 1.356 . S
C1989 C1988 1.363 . S
C1989 C1992 1.363 . S
N1990 C1992 1.356 . S
N1990 H2002 0.984 . S
N1990 H2003 0.985 . S
N1991 C1993 1.356 . S
N1991 H1996 0.984 . S
N1991 H1997 0.985 . S
C1992 C1986 1.379 . S
C1992 C1989 1.363 . S
C1992 N1990 1.356 . S
C1993 C1987 1.363 . S
C1993 C1988 1.379 . S
C1993 N1991 1.356 . S
N1994 C1986 1.356 . S
N1994 H2000 0.984 . S
N1994 H2001 0.984 . S
N1995 C1988 1.356 . S
N1995 H1998 0.984 . S
N1995 H1999 0.985 . S
H1996 N1991 0.984 . S
H1997 N1991 0.985 . S
H1998 N1995 0.984 . S
H1999 N1995 0.985 . S
H2000 N1994 0.984 . S
H2001 N1994 0.984 . S
H2002 N1990 0.984 . S
H2003 N1990 0.985 . S
C2004 C2005 1.363 . S
C2004 C2010 1.379 . S
C2004 N2012 1.356 . S
C2005 C2004 1.363 . S
C2005 C2011 1.363 . S
C2006 C2007 1.363 . S
C2006 C2011 1.379 . S
C2006 N2013 1.356 . S
C2007 C2006 1.363 . S
C2007 C2010 1.363 . S
N2008 C2010 1.356 . S
N2008 H2020 0.984 . S
N2008 H2021 0.985 . S
N2009 C2011 1.356 . S
N2009 H2014 0.984 . S
N2009 H2015 0.985 . S
C2010 C2004 1.379 . S
C2010 C2007 1.363 . S
C2010 N2008 1.356 . S
C2011 C2005 1.363 . S
C2011 C2006 1.379 . S
C2011 N2009 1.356 . S
N2012 C2004 1.356 . S
N2012 H2018 0.984 . S
N2012 H2019 0.984 . S
N2013 C2006 1.356 . S
N2013 H2016 0.984 . S
N2013 H2017 0.985 . S
H2014 N2009 0.984 . S
H2015 N2009 0.985 . S
H2016 N2013 0.984 . S
H2017 N2013 0.985 . S
H2018 N2012 0.984 . S
H2019 N2012 0.984 . S
H2020 N2008 0.984 . S
H2021 N2008 0.985 . S
C2022 C2023 1.363 . S
C2022 C2028 1.379 . S
C2022 N2030 1.356 . S
C2023 C2022 1.363 . S
C2023 C2029 1.363 . S
C2024 C2025 1.363 . S
C2024 C2029 1.379 . S
C2024 N2031 1.356 . S
C2025 C2024 1.363 . S
C2025 C2028 1.363 . S
N2026 C2028 1.356 . S
N2026 H2038 0.984 . S
N2026 H2039 0.985 . S
N2027 C2029 1.356 . S
N2027 H2032 0.984 . S
N2027 H2033 0.985 . S
C2028 C2022 1.379 . S
C2028 C2025 1.363 . S
C2028 N2026 1.356 . S
C2029 C2023 1.363 . S
C2029 C2024 1.379 . S
C2029 N2027 1.356 . S
N2030 C2022 1.356 . S
N2030 H2036 0.984 . S
N2030 H2037 0.984 . S
N2031 C2024 1.356 . S
N2031 H2034 0.984 . S
N2031 H2035 0.985 . S
H2032 N2027 0.984 . S
H2033 N2027 0.985 . S
H2034 N2031 0.984 . S
H2035 N2031 0.985 . S
H2036 N2030 0.984 . S
H2037 N2030 0.984 . S
H2038 N2026 0.984 . S
H2039 N2026 0.985 . S
C2040 C2041 1.363 . S
C2040 C2046 1.379 . S
C2040 N2048 1.356 . S
C2041 C2040 1.363 . S
C2041 C2047 1.363 . S
C2042 C2043 1.363 . S
C2042 C2047 1.379 . S
C2042 N2049 1.356 . S
C2043 C2042 1.363 . S
C2043 C2046 1.363 . S
N2044 C2046 1.355 1_556 S
N2044 H2056 0.985 . S
N2044 H2057 0.985 . S
N2045 C2047 1.356 . S
N2045 H2050 0.984 . S
N2045 H2051 0.985 . S
C2046 C2040 1.379 . S
C2046 C2043 1.363 . S
C2046 N2044 1.355 1_554 S
C2047 C2041 1.363 . S
C2047 C2042 1.379 . S
C2047 N2045 1.356 . S
N2048 C2040 1.356 . S
N2048 H2054 0.984 . S
N2048 H2055 0.984 . S
N2049 C2042 1.356 . S
N2049 H2052 0.984 . S
N2049 H2053 0.985 . S
H2050 N2045 0.984 . S
H2051 N2045 0.985 . S
H2052 N2049 0.984 . S
H2053 N2049 0.985 . S
H2054 N2048 0.984 . S
H2055 N2048 0.984 . S
H2056 N2044 0.985 . S
H2057 N2044 0.985 . S
C2058 C2059 1.363 . S
C2058 C2064 1.379 . S
C2058 N2066 1.356 . S
C2059 C2058 1.363 . S
C2059 C2065 1.363 . S
C2060 C2061 1.363 . S
C2060 C2065 1.379 . S
C2060 N2067 1.356 . S
C2061 C2060 1.363 . S
C2061 C2064 1.363 . S
N2062 C2064 1.356 . S
N2062 H2074 0.984 . S
N2062 H2075 0.985 . S
N2063 C2065 1.356 . S
N2063 H2068 0.984 . S
N2063 H2069 0.985 . S
C2064 C2058 1.379 . S
C2064 C2061 1.363 . S
C2064 N2062 1.356 . S
C2065 C2059 1.363 . S
C2065 C2060 1.379 . S
C2065 N2063 1.356 . S
N2066 C2058 1.356 . S
N2066 H2072 0.984 . S
N2066 H2073 0.984 . S
N2067 C2060 1.356 . S
N2067 H2070 0.984 . S
N2067 H2071 0.985 . S
H2068 N2063 0.984 . S
H2069 N2063 0.985 . S
H2070 N2067 0.984 . S
H2071 N2067 0.985 . S
H2072 N2066 0.984 . S
H2073 N2066 0.984 . S
H2074 N2062 0.984 . S
H2075 N2062 0.985 . S
C2076 C2077 1.363 . S
C2076 C2082 1.379 . S
C2076 N2084 1.356 . S
C2077 C2076 1.363 . S
C2077 C2083 1.363 . S
C2078 C2079 1.363 . S
C2078 C2083 1.379 . S
C2078 N2085 1.356 . S
C2079 C2078 1.363 . S
C2079 C2082 1.363 . S
N2080 C2082 1.356 . S
N2080 H2092 0.984 . S
N2080 H2093 0.985 . S
N2081 C2083 1.356 . S
N2081 H2086 0.984 . S
N2081 H2087 0.985 . S
C2082 C2076 1.379 . S
C2082 C2079 1.363 . S
C2082 N2080 1.356 . S
C2083 C2077 1.363 . S
C2083 C2078 1.379 . S
C2083 N2081 1.356 . S
N2084 C2076 1.356 . S
N2084 H2090 0.984 . S
N2084 H2091 0.984 . S
N2085 C2078 1.356 . S
N2085 H2088 0.984 . S
N2085 H2089 0.985 . S
H2086 N2081 0.984 . S
H2087 N2081 0.985 . S
H2088 N2085 0.984 . S
H2089 N2085 0.985 . S
H2090 N2084 0.984 . S
H2091 N2084 0.984 . S
H2092 N2080 0.984 . S
H2093 N2080 0.985 . S
C2094 C2095 1.363 . S
C2094 C2100 1.379 . S
C2094 N2102 1.356 . S
C2095 C2094 1.363 . S
C2095 C2101 1.363 . S
C2096 C2097 1.363 . S
C2096 C2101 1.379 . S
C2096 N2103 1.356 . S
C2097 C2096 1.363 . S
C2097 C2100 1.363 . S
N2098 C2100 1.356 . S
N2098 H2110 0.984 . S
N2098 H2111 0.985 . S
N2099 C2101 1.356 . S
N2099 H2104 0.984 . S
N2099 H2105 0.985 . S
C2100 C2094 1.379 . S
C2100 C2097 1.363 . S
C2100 N2098 1.356 . S
C2101 C2095 1.363 . S
C2101 C2096 1.379 . S
C2101 N2099 1.356 . S
N2102 C2094 1.356 . S
N2102 H2108 0.984 . S
N2102 H2109 0.984 . S
N2103 C2096 1.356 . S
N2103 H2106 0.984 . S
N2103 H2107 0.985 . S
H2104 N2099 0.984 . S
H2105 N2099 0.985 . S
H2106 N2103 0.984 . S
H2107 N2103 0.985 . S
H2108 N2102 0.984 . S
H2109 N2102 0.984 . S
H2110 N2098 0.984 . S
H2111 N2098 0.985 . S
C2112 C2113 1.363 . S
C2112 C2118 1.379 . S
C2112 N2120 1.356 . S
C2113 C2112 1.363 . S
C2113 C2119 1.363 . S
C2114 C2115 1.363 . S
C2114 C2119 1.379 . S
C2114 N2121 1.356 . S
C2115 C2114 1.363 . S
C2115 C2118 1.363 . S
N2116 C2118 1.356 . S
N2116 H2128 0.984 . S
N2116 H2129 0.985 . S
N2117 C2119 1.356 . S
N2117 H2122 0.984 . S
N2117 H2123 0.985 . S
C2118 C2112 1.379 . S
C2118 C2115 1.363 . S
C2118 N2116 1.356 . S
C2119 C2113 1.363 . S
C2119 C2114 1.379 . S
C2119 N2117 1.356 . S
N2120 C2112 1.356 . S
N2120 H2126 0.984 . S
N2120 H2127 0.984 . S
N2121 C2114 1.356 . S
N2121 H2124 0.984 . S
N2121 H2125 0.985 . S
H2122 N2117 0.984 . S
H2123 N2117 0.985 . S
H2124 N2121 0.984 . S
H2125 N2121 0.985 . S
H2126 N2120 0.984 . S
H2127 N2120 0.984 . S
H2128 N2116 0.984 . S
H2129 N2116 0.985 . S
C2130 C2131 1.363 . S
C2130 C2136 1.379 . S
C2130 N2138 1.356 . S
C2131 C2130 1.363 . S
C2131 C2137 1.363 . S
C2132 C2133 1.363 . S
C2132 C2137 1.379 . S
C2132 N2139 1.356 . S
C2133 C2132 1.363 . S
C2133 C2136 1.363 . S
N2134 C2136 1.356 . S
N2134 H2146 0.984 . S
N2134 H2147 0.985 . S
N2135 C2137 1.356 . S
N2135 H2140 0.984 . S
N2135 H2141 0.985 . S
C2136 C2130 1.379 . S
C2136 C2133 1.363 . S
C2136 N2134 1.356 . S
C2137 C2131 1.363 . S
C2137 C2132 1.379 . S
C2137 N2135 1.356 . S
N2138 C2130 1.356 . S
N2138 H2144 0.984 . S
N2138 H2145 0.984 . S
N2139 C2132 1.356 . S
N2139 H2142 0.984 . S
N2139 H2143 0.985 . S
H2140 N2135 0.984 . S
H2141 N2135 0.985 . S
H2142 N2139 0.984 . S
H2143 N2139 0.985 . S
H2144 N2138 0.984 . S
H2145 N2138 0.984 . S
H2146 N2134 0.984 . S
H2147 N2134 0.985 . S
C2148 C2149 1.363 . S
C2148 C2154 1.379 . S
C2148 N2156 1.356 . S
C2149 C2148 1.363 . S
C2149 C2155 1.363 . S
C2150 C2151 1.363 . S
C2150 C2155 1.379 . S
C2150 N2157 1.356 . S
C2151 C2150 1.363 . S
C2151 C2154 1.363 . S
N2152 C2154 1.356 . S
N2152 H2164 0.984 . S
N2152 H2165 0.985 . S
N2153 C2155 1.356 . S
N2153 H2158 0.984 . S
N2153 H2159 0.985 . S
C2154 C2148 1.379 . S
C2154 C2151 1.363 . S
C2154 N2152 1.356 . S
C2155 C2149 1.363 . S
C2155 C2150 1.379 . S
C2155 N2153 1.356 . S
N2156 C2148 1.356 . S
N2156 H2162 0.984 . S
N2156 H2163 0.984 . S
N2157 C2150 1.356 . S
N2157 H2160 0.984 . S
N2157 H2161 0.985 . S
H2158 N2153 0.984 . S
H2159 N2153 0.985 . S
H2160 N2157 0.984 . S
H2161 N2157 0.985 . S
H2162 N2156 0.984 . S
H2163 N2156 0.984 . S
H2164 N2152 0.984 . S
H2165 N2152 0.985 . S
C2166 C2167 1.363 . S
C2166 C2172 1.379 . S
C2166 N2174 1.356 . S
C2167 C2166 1.363 . S
C2167 C2173 1.363 . S
C2168 C2169 1.363 . S
C2168 C2173 1.379 . S
C2168 N2175 1.356 . S
C2169 C2168 1.363 . S
C2169 C2172 1.363 . S
N2170 C2172 1.358 1_565 S
N2170 H2182 0.983 . S
N2170 H2183 0.984 . S
N2171 C2173 1.356 . S
N2171 H2176 0.984 . S
N2171 H2177 0.985 . S
C2172 C2166 1.379 . S
C2172 C2169 1.363 . S
C2172 N2170 1.358 1_545 S
C2173 C2167 1.363 . S
C2173 C2168 1.379 . S
C2173 N2171 1.356 . S
N2174 C2166 1.356 . S
N2174 H2180 0.984 . S
N2174 H2181 0.984 . S
N2175 C2168 1.356 . S
N2175 H2178 0.984 . S
N2175 H2179 0.985 . S
H2176 N2171 0.984 . S
H2177 N2171 0.985 . S
H2178 N2175 0.984 . S
H2179 N2175 0.985 . S
H2180 N2174 0.984 . S
H2181 N2174 0.984 . S
H2182 N2170 0.983 . S
H2183 N2170 0.984 . S
C2184 C2185 1.363 . S
C2184 C2190 1.379 . S
C2184 N2192 1.356 . S
C2185 C2184 1.363 . S
C2185 C2191 1.363 . S
C2186 C2187 1.363 . S
C2186 C2191 1.379 . S
C2186 N2193 1.356 . S
C2187 C2186 1.363 . S
C2187 C2190 1.363 . S
N2188 C2190 1.356 . S
N2188 H2200 0.984 . S
N2188 H2201 0.985 . S
N2189 C2191 1.356 . S
N2189 H2194 0.984 . S
N2189 H2195 0.985 . S
C2190 C2184 1.379 . S
C2190 C2187 1.363 . S
C2190 N2188 1.356 . S
C2191 C2185 1.363 . S
C2191 C2186 1.379 . S
C2191 N2189 1.356 . S
N2192 C2184 1.356 . S
N2192 H2198 0.984 . S
N2192 H2199 0.984 . S
N2193 C2186 1.356 . S
N2193 H2196 0.984 . S
N2193 H2197 0.985 . S
H2194 N2189 0.984 . S
H2195 N2189 0.985 . S
H2196 N2193 0.984 . S
H2197 N2193 0.985 . S
H2198 N2192 0.984 . S
H2199 N2192 0.984 . S
H2200 N2188 0.984 . S
H2201 N2188 0.985 . S
C2202 C2203 1.363 . S
C2202 C2208 1.379 . S
C2202 N2210 1.356 . S
C2203 C2202 1.363 . S
C2203 C2209 1.363 . S
C2204 C2205 1.363 . S
C2204 C2209 1.379 . S
C2204 N2211 1.356 . S
C2205 C2204 1.363 . S
C2205 C2208 1.363 . S
N2206 C2208 1.356 . S
N2206 H2218 0.984 . S
N2206 H2219 0.985 . S
N2207 C2209 1.356 . S
N2207 H2212 0.984 . S
N2207 H2213 0.985 . S
C2208 C2202 1.379 . S
C2208 C2205 1.363 . S
C2208 N2206 1.356 . S
C2209 C2203 1.363 . S
C2209 C2204 1.379 . S
C2209 N2207 1.356 . S
N2210 C2202 1.356 . S
N2210 H2216 0.984 . S
N2210 H2217 0.984 . S
N2211 C2204 1.356 . S
N2211 H2214 0.984 . S
N2211 H2215 0.985 . S
H2212 N2207 0.984 . S
H2213 N2207 0.985 . S
H2214 N2211 0.984 . S
H2215 N2211 0.985 . S
H2216 N2210 0.984 . S
H2217 N2210 0.984 . S
H2218 N2206 0.984 . S
H2219 N2206 0.985 . S
C2220 C2221 1.363 . S
C2220 C2226 1.379 . S
C2220 N2228 1.356 . S
C2221 C2220 1.363 . S
C2221 C2227 1.363 . S
C2222 C2223 1.363 . S
C2222 C2227 1.379 . S
C2222 N2229 1.356 . S
C2223 C2222 1.363 . S
C2223 C2226 1.363 . S
N2224 C2226 1.356 . S
N2224 H2236 0.984 . S
N2224 H2237 0.985 . S
N2225 C2227 1.356 . S
N2225 H2230 0.984 . S
N2225 H2231 0.985 . S
C2226 C2220 1.379 . S
C2226 C2223 1.363 . S
C2226 N2224 1.356 . S
C2227 C2221 1.363 . S
C2227 C2222 1.379 . S
C2227 N2225 1.356 . S
N2228 C2220 1.356 . S
N2228 H2234 0.984 . S
N2228 H2235 0.984 . S
N2229 C2222 1.356 . S
N2229 H2232 0.984 . S
N2229 H2233 0.985 . S
H2230 N2225 0.984 . S
H2231 N2225 0.985 . S
H2232 N2229 0.984 . S
H2233 N2229 0.985 . S
H2234 N2228 0.984 . S
H2235 N2228 0.984 . S
H2236 N2224 0.984 . S
H2237 N2224 0.985 . S
C2238 C2239 1.363 . S
C2238 C2244 1.379 . S
C2238 N2246 1.356 . S
C2239 C2238 1.363 . S
C2239 C2245 1.363 . S
C2240 C2241 1.363 . S
C2240 C2245 1.379 . S
C2240 N2247 1.356 . S
C2241 C2240 1.363 . S
C2241 C2244 1.363 . S
N2242 C2244 1.356 . S
N2242 H2254 0.984 . S
N2242 H2255 0.985 . S
N2243 C2245 1.356 . S
N2243 H2248 0.984 . S
N2243 H2249 0.985 1_556 S
C2244 C2238 1.379 . S
C2244 C2241 1.363 . S
C2244 N2242 1.356 . S
C2245 C2239 1.363 . S
C2245 C2240 1.379 . S
C2245 N2243 1.356 . S
N2246 C2238 1.356 . S
N2246 H2252 0.984 . S
N2246 H2253 0.984 . S
N2247 C2240 1.356 . S
N2247 H2250 0.984 . S
N2247 H2251 0.985 . S
H2248 N2243 0.984 . S
H2249 N2243 0.985 1_554 S
H2250 N2247 0.984 . S
H2251 N2247 0.985 . S
H2252 N2246 0.984 . S
H2253 N2246 0.984 . S
H2254 N2242 0.984 . S
H2255 N2242 0.985 . S
C2256 C2257 1.363 . S
C2256 C2262 1.379 . S
C2256 N2264 1.356 . S
C2257 C2256 1.363 . S
C2257 C2263 1.363 . S
C2258 C2259 1.363 . S
C2258 C2263 1.379 . S
C2258 N2265 1.356 . S
C2259 C2258 1.363 . S
C2259 C2262 1.363 . S
N2260 C2262 1.356 . S
N2260 H2272 0.984 . S
N2260 H2273 0.985 . S
N2261 C2263 1.356 . S
N2261 H2266 0.984 . S
N2261 H2267 0.985 . S
C2262 C2256 1.379 . S
C2262 C2259 1.363 . S
C2262 N2260 1.356 . S
C2263 C2257 1.363 . S
C2263 C2258 1.379 . S
C2263 N2261 1.356 . S
N2264 C2256 1.356 . S
N2264 H2270 0.984 . S
N2264 H2271 0.984 . S
N2265 C2258 1.356 . S
N2265 H2268 0.984 . S
N2265 H2269 0.985 . S
H2266 N2261 0.984 . S
H2267 N2261 0.985 . S
H2268 N2265 0.984 . S
H2269 N2265 0.985 . S
H2270 N2264 0.984 . S
H2271 N2264 0.984 . S
H2272 N2260 0.984 . S
H2273 N2260 0.985 . S
C2274 C2275 1.363 . S
C2274 C2280 1.379 . S
C2274 N2282 1.356 . S
C2275 C2274 1.363 . S
C2275 C2281 1.363 . S
C2276 C2277 1.363 . S
C2276 C2281 1.379 . S
C2276 N2283 1.356 . S
C2277 C2276 1.363 . S
C2277 C2280 1.363 . S
N2278 C2280 1.356 . S
N2278 H2290 0.984 . S
N2278 H2291 0.985 . S
N2279 C2281 1.356 . S
N2279 H2284 0.984 . S
N2279 H2285 0.985 . S
C2280 C2274 1.379 . S
C2280 C2277 1.363 . S
C2280 N2278 1.356 . S
C2281 C2275 1.363 . S
C2281 C2276 1.379 . S
C2281 N2279 1.356 . S
N2282 C2274 1.356 . S
N2282 H2288 0.984 . S
N2282 H2289 0.984 . S
N2283 C2276 1.356 . S
N2283 H2286 0.984 . S
N2283 H2287 0.985 . S
H2284 N2279 0.984 . S
H2285 N2279 0.985 . S
H2286 N2283 0.984 . S
H2287 N2283 0.985 . S
H2288 N2282 0.984 . S
H2289 N2282 0.984 . S
H2290 N2278 0.984 . S
H2291 N2278 0.985 . S
C2292 C2293 1.363 . S
C2292 C2298 1.379 . S
C2292 N2300 1.356 . S
C2293 C2292 1.363 . S
C2293 C2299 1.363 . S
C2294 C2295 1.363 . S
C2294 C2299 1.379 . S
C2294 N2301 1.356 . S
C2295 C2294 1.363 . S
C2295 C2298 1.363 . S
N2296 C2298 1.356 . S
N2296 H2308 0.984 1_655 S
N2296 H2309 0.974 1_655 S
N2297 C2299 1.356 . S
N2297 H2302 0.984 . S
N2297 H2303 0.985 . S
C2298 C2292 1.379 . S
C2298 C2295 1.363 . S
C2298 N2296 1.356 . S
C2299 C2293 1.363 . S
C2299 C2294 1.379 . S
C2299 N2297 1.356 . S
N2300 C2292 1.356 . S
N2300 H2306 0.984 . S
N2300 H2307 0.984 . S
N2301 C2294 1.356 . S
N2301 H2304 0.984 . S
N2301 H2305 0.985 . S
H2302 N2297 0.984 . S
H2303 N2297 0.985 . S
H2304 N2301 0.984 . S
H2305 N2301 0.985 . S
H2306 N2300 0.984 . S
H2307 N2300 0.984 . S
H2308 N2296 0.984 1_455 S
H2309 N2296 0.974 1_455 S
C2310 C2311 1.363 . S
C2310 C2316 1.379 . S
C2310 N2318 1.356 . S
C2311 C2310 1.363 . S
C2311 C2317 1.363 . S
C2312 C2313 1.363 . S
C2312 C2317 1.379 . S
C2312 N2319 1.356 . S
C2313 C2312 1.363 . S
C2313 C2316 1.363 . S
N2314 C2316 1.356 . S
N2314 H2326 0.984 . S
N2314 H2327 0.985 . S
N2315 C2317 1.356 . S
N2315 H2320 0.984 . S
N2315 H2321 0.985 . S
C2316 C2310 1.379 . S
C2316 C2313 1.363 . S
C2316 N2314 1.356 . S
C2317 C2311 1.363 . S
C2317 C2312 1.379 . S
C2317 N2315 1.356 . S
N2318 C2310 1.356 . S
N2318 H2324 0.984 . S
N2318 H2325 0.984 . S
N2319 C2312 1.356 . S
N2319 H2322 0.984 . S
N2319 H2323 0.985 . S
H2320 N2315 0.984 . S
H2321 N2315 0.985 . S
H2322 N2319 0.984 . S
H2323 N2319 0.985 . S
H2324 N2318 0.984 . S
H2325 N2318 0.984 . S
H2326 N2314 0.984 . S
H2327 N2314 0.985 . S
C2328 C2329 1.363 . S
C2328 C2334 1.379 . S
C2328 N2336 1.356 . S
C2329 C2328 1.363 . S
C2329 C2335 1.363 . S
C2330 C2331 1.363 . S
C2330 C2335 1.379 . S
C2330 N2337 1.356 . S
C2331 C2330 1.363 . S
C2331 C2334 1.363 . S
N2332 C2334 1.356 . S
N2332 H2344 0.984 . S
N2332 H2345 0.985 . S
N2333 C2335 1.356 . S
N2333 H2338 0.984 . S
N2333 H2339 0.985 . S
C2334 C2328 1.379 . S
C2334 C2331 1.363 . S
C2334 N2332 1.356 . S
C2335 C2329 1.363 . S
C2335 C2330 1.379 . S
C2335 N2333 1.356 . S
N2336 C2328 1.356 . S
N2336 H2342 0.984 . S
N2336 H2343 0.984 . S
N2337 C2330 1.356 . S
N2337 H2340 0.984 . S
N2337 H2341 0.985 . S
H2338 N2333 0.984 . S
H2339 N2333 0.985 . S
H2340 N2337 0.984 . S
H2341 N2337 0.985 . S
H2342 N2336 0.984 . S
H2343 N2336 0.984 . S
H2344 N2332 0.984 . S
H2345 N2332 0.985 . S
C2346 C2347 1.363 . S
C2346 C2352 1.379 . S
C2346 N2354 1.356 . S
C2347 C2346 1.363 . S
C2347 C2353 1.363 . S
C2348 C2349 1.363 . S
C2348 C2353 1.379 . S
C2348 N2355 1.356 . S
C2349 C2348 1.363 . S
C2349 C2352 1.363 . S
N2350 C2352 1.356 . S
N2350 H2362 0.984 . S
N2350 H2363 0.985 . S
N2351 C2353 1.356 . S
N2351 H2356 0.984 . S
N2351 H2357 0.985 . S
C2352 C2346 1.379 . S
C2352 C2349 1.363 . S
C2352 N2350 1.356 . S
C2353 C2347 1.363 . S
C2353 C2348 1.379 . S
C2353 N2351 1.356 . S
N2354 C2346 1.356 . S
N2354 H2360 0.984 . S
N2354 H2361 0.984 . S
N2355 C2348 1.356 . S
N2355 H2358 0.984 . S
N2355 H2359 0.985 . S
H2356 N2351 0.984 . S
H2357 N2351 0.985 . S
H2358 N2355 0.984 . S
H2359 N2355 0.985 . S
H2360 N2354 0.984 . S
H2361 N2354 0.984 . S
H2362 N2350 0.984 . S
H2363 N2350 0.985 . S
C2364 C2365 1.363 . S
C2364 C2370 1.379 . S
C2364 N2372 1.356 . S
C2365 C2364 1.363 . S
C2365 C2371 1.363 . S
C2366 C2367 1.363 . S
C2366 C2371 1.379 . S
C2366 N2373 1.356 . S
C2367 C2366 1.363 . S
C2367 C2370 1.363 . S
N2368 C2370 1.356 . S
N2368 H2380 0.984 . S
N2368 H2381 0.985 . S
N2369 C2371 1.356 . S
N2369 H2374 0.984 . S
N2369 H2375 0.985 . S
C2370 C2364 1.379 . S
C2370 C2367 1.363 . S
C2370 N2368 1.356 . S
C2371 C2365 1.363 . S
C2371 C2366 1.379 . S
C2371 N2369 1.356 . S
N2372 C2364 1.356 . S
N2372 H2378 0.984 . S
N2372 H2379 0.984 . S
N2373 C2366 1.356 . S
N2373 H2376 0.984 . S
N2373 H2377 0.985 . S
H2374 N2369 0.984 . S
H2375 N2369 0.985 . S
H2376 N2373 0.984 . S
H2377 N2373 0.985 . S
H2378 N2372 0.984 . S
H2379 N2372 0.984 . S
H2380 N2368 0.984 . S
H2381 N2368 0.985 . S
C2382 C2383 1.363 . S
C2382 C2388 1.379 . S
C2382 N2390 1.356 . S
C2383 C2382 1.363 . S
C2383 C2389 1.363 . S
C2384 C2385 1.363 . S
C2384 C2389 1.379 . S
C2384 N2391 1.356 . S
C2385 C2384 1.363 . S
C2385 C2388 1.363 . S
N2386 C2388 1.356 . S
N2386 H2398 0.984 . S
N2386 H2399 0.985 . S
N2387 C2389 1.356 . S
N2387 H2392 0.984 . S
N2387 H2393 0.985 . S
C2388 C2382 1.379 . S
C2388 C2385 1.363 . S
C2388 N2386 1.356 . S
C2389 C2383 1.363 . S
C2389 C2384 1.379 . S
C2389 N2387 1.356 . S
N2390 C2382 1.356 . S
N2390 H2396 0.984 1_565 S
N2390 H2397 0.994 . S
N2391 C2384 1.356 . S
N2391 H2394 0.984 . S
N2391 H2395 0.985 . S
H2392 N2387 0.984 . S
H2393 N2387 0.985 . S
H2394 N2391 0.984 . S
H2395 N2391 0.985 . S
H2396 N2390 0.984 1_545 S
H2397 N2390 0.994 . S
H2398 N2386 0.984 . S
H2399 N2386 0.985 . S
C673 C92 1.274 . S
C675 C8 1.273 . S
C691 C22 1.301 . S
C693 C106 1.300 1_565 S
C709 C36 1.285 . S
C711 C64 1.285 . S
C727 C78 1.283 . S
C729 C50 1.285 1_565 S
C745 C484 1.274 . S
C747 C120 1.273 . S
C763 C498 1.283 . S
C765 C134 1.285 1_655 S
C781 C148 1.265 . S
C783 C456 1.263 . S
C799 C162 1.287 . S
C801 C470 1.288 . S
C817 C540 1.252 . S
C819 C176 1.252 . S
C835 C554 1.271 . S
C837 C190 1.274 . S
C853 C512 1.285 . S
C855 C204 1.285 . S
C871 C526 1.301 . S
C873 C218 1.300 1_655 S
C889 C232 1.273 . S
C891 C582 1.274 . S
C907 C246 1.265 . S
C909 C568 1.263 . S
C925 C260 1.285 1_556 S
C927 C330 1.283 . S
C943 C638 1.285 . S
C945 C274 1.285 . S
C961 C652 1.301 . S
C963 C288 1.300 1_556 S
C979 C610 1.252 . S
C981 C302 1.252 . S
C997 C624 1.271 . S
C999 C316 1.274 . S
C1015 C428 1.265 . S
C1017 C344 1.263 . S
C1033 C442 1.271 . S
C1035 C358 1.274 . S
C1051 C372 1.252 . S
C1053 C400 1.252 . S
C1069 C386 1.288 . S
C1071 C414 1.287 . S
C1087 C666 1.287 . S
C1089 C596 1.288 . S
C1105 C233 1.314 . S
C1107 C7 1.259 . S
C1123 C21 1.279 . S
C1125 C667 1.322 . S
C1141 C35 1.268 . S
C1143 C303 1.321 . S
C1159 C653 1.304 . S
C1161 C49 1.259 . S
C1177 C63 1.262 . S
C1179 C583 1.315 . S
C1195 C597 1.307 . S
C1197 C77 1.263 . S
C1213 C91 1.264 . S
C1215 C611 1.320 . S
C1231 C289 1.314 . S
C1233 C105 1.276 . S
C1249 C119 1.259 . S
C1251 C9 1.314 . S
C1267 C23 1.304 . S
C1269 C133 1.259 . S
C1285 C147 1.255 . S
C1287 C37 1.311 . S
C1303 C161 1.280 . S
C1305 C51 1.334 . S
C1321 C175 1.255 . S
C1323 C65 1.312 . S
C1339 C79 1.328 . S
C1341 C189 1.268 . S
C1357 C203 1.262 . S
C1359 C93 1.315 . S
C1375 C217 1.272 . S
C1377 C107 1.314 . S
C1393 C231 1.259 . S
C1395 C121 1.314 . S
C1411 C245 1.255 . S
C1413 C513 1.311 . S
C1429 C527 1.304 . S
C1431 C259 1.259 . S
C1447 C541 1.321 . S
C1449 C273 1.268 . S
C1465 C287 1.272 . S
C1467 C219 1.314 . S
C1483 C301 1.259 . S
C1485 C149 1.314 . S
C1501 C499 1.328 . S
C1503 C315 1.268 . S
C1519 C471 1.307 . S
C1521 C329 1.263 . S
C1537 C343 1.260 . S
C1539 C569 1.316 . S
C1555 C357 1.268 . S
C1557 C331 1.328 . S
C1573 C371 1.255 . S
C1575 C639 1.312 . S
C1591 C385 1.287 . S
C1593 C317 1.340 . S
C1609 C399 1.259 . S
C1611 C247 1.314 . S
C1627 C261 1.332 . S
C1629 C413 1.282 . S
C1645 C275 1.311 . S
C1647 C427 1.255 . S
C1663 C625 1.333 . S
C1665 C441 1.275 . S
C1681 C345 1.316 . S
C1683 C455 1.260 . S
C1699 C359 1.338 . S
C1701 C469 1.290 . S
C1717 C483 1.264 . S
C1719 C373 1.320 . S
C1735 C387 1.307 . S
C1737 C497 1.263 . S
C1753 C511 1.268 . S
C1755 C401 1.321 . S
C1771 C415 1.322 . S
C1773 C525 1.282 . S
C1789 C539 1.259 . S
C1791 C429 1.314 . S
C1807 C443 1.333 . S
C1809 C553 1.275 . S
C1825 C567 1.260 . S
C1827 C457 1.316 . S
C1843 C581 1.264 . S
C1845 C177 1.320 . S
C1861 C191 1.338 . S
C1863 C595 1.290 . S
C1879 C609 1.255 . S
C1881 C205 1.312 . S
C1897 C623 1.275 . S
C1899 C555 1.333 . S
C1915 C485 1.315 . S
C1917 C637 1.262 . S
C1933 C651 1.279 . S
C1935 C163 1.322 . S
C1951 C135 1.332 . S
C1953 C665 1.282 . S
C1969 C132 0.997 . S
C1971 C6 0.996 . S
C1987 C20 0.972 . S
C1989 C146 0.967 . S
C2005 C160 0.988 . S
C2007 C34 0.982 . S
C2023 C118 0.996 . S
C2025 C48 0.997 . S
C2041 C62 0.981 . S
C2043 C216 0.984 . S
C2059 C76 0.985 . S
C2061 C174 0.986 . S
C2077 C188 1.000 . S
C2079 C90 1.000 . S
C2095 C202 0.981 . S
C2097 C104 0.984 . S
C2113 C230 0.996 . S
C2115 C258 0.997 . S
C2131 C244 0.968 . S
C2133 C650 0.971 . S
C2149 C272 0.984 . S
C2151 C664 0.987 . S
C2167 C636 0.981 . S
C2169 C286 0.984 . S
C2185 C622 0.989 . S
C2187 C300 0.991 . S
C2203 C580 1.000 . S
C2205 C314 1.000 . S
C2221 C328 0.985 . S
C2223 C608 0.986 . S
C2239 C468 0.973 . S
C2241 C342 0.967 . S
C2257 C482 1.000 . S
C2259 C356 1.000 . S
C2275 C370 0.986 . S
C2277 C496 0.985 . S
C2293 C454 0.968 . S
C2295 C384 0.972 . S
C2311 C552 0.989 . S
C2313 C398 0.992 . S
C2329 C510 0.984 . S
C2331 C412 0.987 . S
C2347 C426 0.968 . S
C2349 C524 0.971 . S
C2365 C538 0.991 . S
C2367 C440 0.989 . S
C2383 C594 0.973 . S
C2385 C566 0.967 . S
