# Generated by pormake.
# Topology mmt, (4)-cn, num edge types: 1
# Building blocks:
#     Node 0, Type 0, BuildingBlock: GALJAG_clean_sbu_0, # of connection points: 4
#     Node 1, Type 0, BuildingBlock: GALJAG_clean_sbu_0, # of connection points: 4
#     Node 2, Type 0, BuildingBlock: GALJAG_clean_sbu_0, # of connection points: 4
#     Node 3, Type 0, BuildingBlock: GALJAG_clean_sbu_0, # of connection points: 4
#     Node 4, Type 0, BuildingBlock: GALJAG_clean_sbu_0, # of connection points: 4
#     Node 5, Type 0, BuildingBlock: GALJAG_clean_sbu_0, # of connection points: 4
#     Node 6, Type 0, BuildingBlock: GALJAG_clean_sbu_0, # of connection points: 4
#     Node 7, Type 0, BuildingBlock: GALJAG_clean_sbu_0, # of connection points: 4
#     Edge 8, Type (0, 0), BuildingBlock: FUNLAD_clean_linker_0, # of connection points: 2
#     Edge 9, Type (0, 0), BuildingBlock: FUNLAD_clean_linker_0, # of connection points: 2
#     Edge 10, Type (0, 0), BuildingBlock: FUNLAD_clean_linker_0, # of connection points: 2
#     Edge 11, Type (0, 0), BuildingBlock: FUNLAD_clean_linker_0, # of connection points: 2
#     Edge 12, Type (0, 0), BuildingBlock: FUNLAD_clean_linker_0, # of connection points: 2
#     Edge 13, Type (0, 0), BuildingBlock: FUNLAD_clean_linker_0, # of connection points: 2
#     Edge 14, Type (0, 0), BuildingBlock: FUNLAD_clean_linker_0, # of connection points: 2
#     Edge 15, Type (0, 0), BuildingBlock: FUNLAD_clean_linker_0, # of connection points: 2
#     Edge 16, Type (0, 0), BuildingBlock: FUNLAD_clean_linker_0, # of connection points: 2
#     Edge 17, Type (0, 0), BuildingBlock: FUNLAD_clean_linker_0, # of connection points: 2
#     Edge 18, Type (0, 0), BuildingBlock: FUNLAD_clean_linker_0, # of connection points: 2
#     Edge 19, Type (0, 0), BuildingBlock: FUNLAD_clean_linker_0, # of connection points: 2
#     Edge 20, Type (0, 0), BuildingBlock: FUNLAD_clean_linker_0, # of connection points: 2
#     Edge 21, Type (0, 0), BuildingBlock: FUNLAD_clean_linker_0, # of connection points: 2
#     Edge 22, Type (0, 0), BuildingBlock: FUNLAD_clean_linker_0, # of connection points: 2
#     Edge 23, Type (0, 0), BuildingBlock: FUNLAD_clean_linker_0, # of connection points: 2
# Relax obj value: 0.016
# Max RMSD: 0.061
# Mean RMSD: 0.061
data_MOF--net-mmt--node1-GALJAG_clean_sbu_0--edge1-FUNLAD_clean_linker_0
_symmetry_space_group_name_H-M    P1
_symmetry_Int_Tables_number       1
_symmetry_cell_setting            triclinic
loop_
_symmetry_equiv_pos_as_xyz
'x, y, z'
_cell_length_a     28.973502
_cell_length_b     42.965848
_cell_length_c     47.911979
_cell_angle_alpha  89.942027
_cell_angle_beta   90.020041
_cell_angle_gamma 89.932423
loop_
_atom_site_label
_atom_site_type_symbol
_atom_site_fract_x
_atom_site_fract_y
_atom_site_fract_z
_atom_type_partial_charge
In0 In 0.12765 0.55911 0.33889 0.0
O1 O 0.19083 0.52713 0.33924 0.0
O2 O 0.17469 0.55085 0.30157 0.0
C3 C 0.09366 0.5449 0.38982 0.0
C4 C 0.15943 0.61804 0.34268 0.0
C5 C 0.05575 0.53995 0.30745 0.0
O6 O 0.12716 0.53051 0.37901 0.0
O7 O 0.0779 0.56691 0.37519 0.0
O8 O 0.06491 0.56835 0.31117 0.0
O9 O 0.08306 0.5213 0.31935 0.0
C10 C 0.20147 0.53241 0.31414 0.0
O11 O 0.12865 0.61004 0.32552 0.0
O12 O 0.17352 0.59645 0.3584 0.0
In13 In 0.37226 0.93612 0.33734 0.0
O14 O 0.32843 0.97884 0.32614 0.0
O15 O 0.29839 0.93404 0.32163 0.0
C16 C 0.40744 0.95905 0.38546 0.0
C17 C 0.34703 0.87633 0.34525 0.0
C18 C 0.43763 0.94473 0.29771 0.0
O19 O 0.36679 0.9648 0.3776 0.0
O20 O 0.42994 0.94175 0.36922 0.0
O21 O 0.43923 0.92281 0.31516 0.0
O22 O 0.40266 0.962 0.29987 0.0
C23 C 0.29348 0.96307 0.31926 0.0
O24 O 0.36046 0.88664 0.32194 0.0
O25 O 0.34686 0.89612 0.36472 0.0
In26 In 0.62813 0.43677 0.15616 0.0
O27 O 0.63181 0.38719 0.17294 0.0
O28 O 0.67193 0.398 0.13712 0.0
C29 C 0.55506 0.45548 0.18685 0.0
C30 C 0.70319 0.46363 0.17923 0.0
C31 C 0.59323 0.45043 0.10531 0.0
O32 O 0.56333 0.42716 0.18195 0.0
O33 O 0.58386 0.47422 0.17653 0.0
O34 O 0.62221 0.46763 0.11747 0.0
O35 O 0.58274 0.42602 0.1185 0.0
C36 C 0.66033 0.3778 0.15492 0.0
O37 O 0.69428 0.46576 0.15351 0.0
O38 O 0.67407 0.44836 0.19317 0.0
In39 In 0.86885 0.05692 0.15905 0.0
O40 O 0.79977 0.03119 0.1568 0.0
O41 O 0.8245 0.04481 0.19668 0.0
C42 C 0.90481 0.03601 0.11066 0.0
C43 C 0.83973 0.11627 0.15215 0.0
C44 C 0.94082 0.04037 0.19152 0.0
O45 O 0.87123 0.02284 0.12257 0.0
O46 O 0.91961 0.06 0.12289 0.0
O47 O 0.93365 0.06828 0.18442 0.0
O48 O 0.91161 0.02114 0.18242 0.0
C49 C 0.79318 0.03158 0.18283 0.0
O50 O 0.86121 0.10734 0.17361 0.0
O51 O 0.83344 0.0954 0.13409 0.0
In52 In 0.87255 0.43615 0.65578 0.0
O53 O 0.87761 0.38424 0.66553 0.0
O54 O 0.8249 0.3991 0.63768 0.0
C55 C 0.95163 0.44535 0.68455 0.0
C56 C 0.79842 0.45845 0.68341 0.0
C57 C 0.89625 0.46241 0.60648 0.0
O58 O 0.94757 0.42453 0.66619 0.0
O59 O 0.91571 0.46131 0.6886 0.0
O60 O 0.8853 0.47837 0.62755 0.0
O61 O 0.89412 0.4334 0.61013 0.0
C62 C 0.84387 0.37671 0.65032 0.0
O63 O 0.80632 0.46514 0.65818 0.0
O64 O 0.82815 0.44097 0.69462 0.0
In65 In 0.62933 0.05838 0.65458 0.0
O66 O 0.68926 0.02396 0.65741 0.0
O67 O 0.67433 0.0513 0.69319 0.0
C68 C 0.60099 0.0453 0.60216 0.0
C69 C 0.66066 0.11736 0.64971 0.0
C70 C 0.55497 0.03968 0.68412 0.0
O71 O 0.63494 0.03185 0.61343 0.0
O72 O 0.58177 0.0656 0.61718 0.0
O73 O 0.56785 0.0677 0.6832 0.0
O74 O 0.58004 0.02105 0.67055 0.0
C75 C 0.69967 0.03079 0.68222 0.0
O76 O 0.62456 0.11057 0.66309 0.0
O77 O 0.6808 0.09445 0.63866 0.0
In78 In 0.3714 0.56005 0.83682 0.0
O79 O 0.30708 0.52948 0.8391 0.0
O80 O 0.32681 0.54705 0.7994 0.0
C81 C 0.41066 0.54482 0.88622 0.0
C82 C 0.33323 0.617 0.84328 0.0
C83 C 0.44262 0.54687 0.80248 0.0
O84 O 0.38361 0.52686 0.87339 0.0
O85 O 0.41722 0.57067 0.87442 0.0
O86 O 0.42815 0.57428 0.80618 0.0
O87 O 0.42088 0.52625 0.81583 0.0
C88 C 0.29834 0.53119 0.81334 0.0
O89 O 0.36823 0.61238 0.82815 0.0
O90 O 0.31816 0.59307 0.85549 0.0
In91 In 0.1296 0.94001 0.84002 0.0
O92 O 0.1911 0.97293 0.83763 0.0
O93 O 0.17343 0.94762 0.80107 0.0
C94 C 0.09909 0.95592 0.89133 0.0
C95 C 0.16594 0.88244 0.84601 0.0
C96 C 0.05466 0.95679 0.80997 0.0
O97 O 0.12982 0.97106 0.87858 0.0
O98 O 0.08439 0.93234 0.87846 0.0
O99 O 0.06563 0.92867 0.81382 0.0
O100 O 0.08184 0.97621 0.82082 0.0
C101 C 0.20031 0.9669 0.81247 0.0
O102 O 0.13102 0.88772 0.83095 0.0
O103 O 0.18175 0.906 0.85839 0.0
C104 C 0.25451 0.52753 0.27332 0.0
C105 C 0.2427 0.51888 0.30067 0.0
C106 C 0.29431 0.51572 0.26077 0.0
C107 C 0.32329 0.49504 0.27537 0.0
C108 C 0.31076 0.48572 0.30242 0.0
C109 C 0.271 0.49768 0.31505 0.0
C110 C 0.36619 0.48243 0.2627 0.0
C111 C 0.39108 0.49848 0.24381 0.0
C112 C 0.43399 0.48656 0.23063 0.0
C113 C 0.46525 0.50807 0.21929 0.0
C114 C 0.505 0.49795 0.20555 0.0
C115 C 0.51411 0.46603 0.20257 0.0
H116 H 0.41947 0.4372 0.23559 0.0
C117 C 0.48302 0.44441 0.21396 0.0
C118 C 0.44328 0.45454 0.22783 0.0
H119 H 0.48903 0.41964 0.2118 0.0
H120 H 0.23312 0.54361 0.26161 0.0
H121 H 0.30193 0.5226 0.23953 0.0
H122 H 0.33219 0.46953 0.31398 0.0
H123 H 0.26259 0.49046 0.33611 0.0
H124 H 0.37866 0.46014 0.2703 0.0
H125 H 0.38072 0.52206 0.23846 0.0
H126 H 0.4588 0.53285 0.22097 0.0
H127 H 0.52824 0.51518 0.19691 0.0
C128 C 0.01374 0.05223 0.21768 0.0
C129 C 0.98083 0.03055 0.2085 0.0
C130 C 0.05242 0.04243 0.23287 0.0
C131 C 0.05873 0.01067 0.23923 0.0
C132 C 0.02553 0.98918 0.23013 0.0
C133 C 0.98699 0.99897 0.21504 0.0
C134 C 0.10002 0.99847 0.2541 0.0
C135 C 0.12888 0.01576 0.26979 0.0
C136 C 0.17001 0.00223 0.28393 0.0
C137 C 0.20832 0.02129 0.28941 0.0
C138 C 0.24834 0.00883 0.30144 0.0
C139 C 0.25059 0.97707 0.3083 0.0
H140 H 0.14233 0.95553 0.2894 0.0
C141 C 0.21169 0.9583 0.30384 0.0
C142 C 0.17173 0.97074 0.29201 0.0
H143 H 0.21213 0.93384 0.30938 0.0
H144 H 0.00997 0.07672 0.21278 0.0
H145 H 0.07758 0.05973 0.23887 0.0
H146 H 0.0295 0.96459 0.23459 0.0
H147 H 0.96226 0.98167 0.20824 0.0
H148 H 0.10671 0.97374 0.25178 0.0
H149 H 0.12338 0.04063 0.27185 0.0
H150 H 0.20771 0.04572 0.28377 0.0
H151 H 0.27777 0.02389 0.30481 0.0
C152 C 0.75483 0.47135 0.22032 0.0
C153 C 0.74509 0.47697 0.19205 0.0
C154 C 0.79519 0.48281 0.23242 0.0
C155 C 0.82682 0.50011 0.21645 0.0
C156 C 0.81644 0.50651 0.18839 0.0
C157 C 0.77611 0.49485 0.17621 0.0
C158 C 0.87028 0.51224 0.22875 0.0
C159 C 0.89282 0.49723 0.24937 0.0
C160 C 0.93583 0.50886 0.26259 0.0
C161 C 0.96482 0.48746 0.27616 0.0
C162 C 0.0043 0.49751 0.29021 0.0
C163 C 0.01533 0.5293 0.2913 0.0
H164 H 0.92506 0.55802 0.25385 0.0
C165 C 0.98655 0.55079 0.27763 0.0
C166 C 0.94715 0.54071 0.2634 0.0
H167 H 0.99409 0.57547 0.27826 0.0
H168 H 0.73138 0.45788 0.23313 0.0
H169 H 0.80121 0.47832 0.25435 0.0
H170 H 0.83998 0.52011 0.17574 0.0
H171 H 0.76935 0.4997 0.1544 0.0
H172 H 0.885 0.53312 0.21963 0.0
H173 H 0.88019 0.47474 0.25636 0.0
H174 H 0.95676 0.46284 0.27603 0.0
H175 H 0.02574 0.4804 0.30063 0.0
C176 C 0.71548 0.00617 0.18014 0.0
C177 C 0.75237 0.01748 0.19623 0.0
C178 C 0.6768 0.99306 0.19308 0.0
C179 C 0.6745 0.99095 0.22237 0.0
C180 C 0.71179 0.00175 0.23832 0.0
C181 C 0.75015 0.0151 0.22543 0.0
C182 C 0.6343 0.97726 0.23708 0.0
C183 C 0.59093 0.97815 0.22699 0.0
C184 C 0.55079 0.96735 0.24359 0.0
C185 C 0.50838 0.98287 0.24084 0.0
C186 C 0.47109 0.975 0.25794 0.0
C187 C 0.47535 0.95109 0.2778 0.0
H188 H 0.58614 0.92937 0.26462 0.0
C189 C 0.51699 0.93443 0.27952 0.0
C190 C 0.55439 0.94248 0.26261 0.0
H191 H 0.52114 0.9157 0.29446 0.0
H192 H 0.71645 0.00752 0.15757 0.0
H193 H 0.64921 0.98423 0.18009 0.0
H194 H 0.71102 0.0002 0.26089 0.0
H195 H 0.77818 0.02344 0.23838 0.0
H196 H 0.64021 0.96847 0.25806 0.0
H197 H 0.584 0.98979 0.20729 0.0
H198 H 0.50459 0.00187 0.22613 0.0
H199 H 0.43926 0.98808 0.25602 0.0
C200 C 0.49805 0.50852 0.7822 0.0
C201 C 0.48273 0.53942 0.78464 0.0
C202 C 0.5371 0.50141 0.76637 0.0
C203 C 0.56193 0.52512 0.75275 0.0
C204 C 0.54571 0.55587 0.75447 0.0
C205 C 0.50663 0.56301 0.77039 0.0
C206 C 0.6044 0.51839 0.73641 0.0
C207 C 0.63278 0.49449 0.74263 0.0
C208 C 0.67582 0.48711 0.72709 0.0
C209 C 0.70931 0.46859 0.74029 0.0
C210 C 0.74944 0.45982 0.72624 0.0
C211 C 0.75688 0.46916 0.69851 0.0
H212 H 0.65795 0.51027 0.68813 0.0
C213 C 0.72361 0.48782 0.68523 0.0
C214 C 0.68338 0.49668 0.69933 0.0
H215 H 0.72829 0.49516 0.66378 0.0
H216 H 0.48003 0.48978 0.79268 0.0
H217 H 0.54745 0.47727 0.7647 0.0
H218 H 0.56384 0.57452 0.74391 0.0
H219 H 0.49544 0.58702 0.77176 0.0
H220 H 0.61366 0.53465 0.71999 0.0
H221 H 0.62535 0.48023 0.76082 0.0
H222 H 0.70433 0.46072 0.76157 0.0
H223 H 0.77438 0.44535 0.73703 0.0
C224 C 0.75094 0.02638 0.72404 0.0
C225 C 0.73949 0.0168 0.6969 0.0
C226 C 0.78994 0.01435 0.73742 0.0
C227 C 0.8185 0.99258 0.72384 0.0
C228 C 0.80609 0.98224 0.69709 0.0
C229 C 0.76713 0.99434 0.68366 0.0
C230 C 0.86118 0.98013 0.73702 0.0
C231 C 0.88616 0.99657 0.75559 0.0
C232 C 0.9299 0.98536 0.7684 0.0
C233 C 0.96027 0.00744 0.77972 0.0
C234 C 0.00112 0.99813 0.79274 0.0
C235 C 0.0124 0.96643 0.79497 0.0
H236 H 0.91828 0.93573 0.76278 0.0
C237 C 0.98218 0.94422 0.78366 0.0
C238 C 0.94125 0.95355 0.77054 0.0
H239 H 0.98982 0.9196 0.78529 0.0
H240 H 0.72999 0.0434 0.73489 0.0
H241 H 0.79737 0.02206 0.75844 0.0
H242 H 0.82714 0.96523 0.68629 0.0
H243 H 0.75899 0.98637 0.66279 0.0
H244 H 0.87376 0.95777 0.72973 0.0
H245 H 0.87552 0.02013 0.7607 0.0
H246 H 0.95233 0.03206 0.77854 0.0
H247 H 0.0236 0.01581 0.80136 0.0
C248 C 0.2504 0.51795 0.77165 0.0
C249 C 0.25683 0.51714 0.80069 0.0
C250 C 0.20989 0.50637 0.75973 0.0
C251 C 0.17492 0.49375 0.77668 0.0
C252 C 0.18155 0.49279 0.8057 0.0
C253 C 0.22225 0.50414 0.81759 0.0
C254 C 0.13002 0.48347 0.76495 0.0
C255 C 0.12516 0.47288 0.73866 0.0
C256 C 0.07975 0.46478 0.72628 0.0
C257 C 0.07801 0.44307 0.70444 0.0
C258 C 0.03618 0.43619 0.69129 0.0
C259 C 0.99536 0.45131 0.69944 0.0
H260 H 0.03889 0.49724 0.75082 0.0
C261 C 0.997 0.47301 0.72131 0.0
C262 C 0.03873 0.47969 0.73463 0.0
H263 H 0.9661 0.48517 0.72792 0.0
H264 H 0.27636 0.52803 0.75812 0.0
H265 H 0.20555 0.50836 0.73737 0.0
H266 H 0.15499 0.48345 0.81923 0.0
H267 H 0.22614 0.50336 0.84007 0.0
H268 H 0.10024 0.48408 0.7787 0.0
H269 H 0.15557 0.46927 0.72581 0.0
H270 H 0.10916 0.43149 0.69744 0.0
H271 H 0.036 0.41946 0.67438 0.0
C272 C 0.25076 0.97162 0.77035 0.0
C273 C 0.24057 0.98031 0.79791 0.0
C274 C 0.29021 0.98303 0.75706 0.0
C275 C 0.32045 0.00325 0.77118 0.0
C276 C 0.30936 0.0127 0.79841 0.0
C277 C 0.26996 0.00123 0.81171 0.0
C278 C 0.36345 0.0152 0.7581 0.0
C279 C 0.38656 -0.00044 0.73812 0.0
C280 C 0.43035 0.01061 0.72532 0.0
C281 C 0.45877 0.98885 0.71179 0.0
C282 C 0.49962 0.99821 0.6988 0.0
C283 C 0.51283 0.02964 0.69892 0.0
H284 H 0.42217 0.05985 0.73486 0.0
C285 C 0.48454 0.0515 0.71243 0.0
C286 C 0.44362 0.04214 0.72542 0.0
H287 H 0.49363 0.07594 0.71261 0.0
H288 H 0.22847 0.95578 0.75908 0.0
H289 H 0.2966 0.97609 0.7357 0.0
H290 H 0.33172 0.02854 0.80964 0.0
H291 H 0.26285 0.00849 0.83293 0.0
H292 H 0.37778 0.03652 0.76656 0.0
H293 H 0.37425 0.97682 0.73167 0.0
H294 H 0.44931 0.96447 0.7112 0.0
H295 H 0.52061 0.98084 0.68844 0.0
C296 C 0.03281 0.55026 0.42659 0.0
C297 C 0.07284 0.53549 0.41667 0.0
C298 C 0.01127 0.53989 0.45101 0.0
C299 C 0.02964 0.51461 0.46614 0.0
C300 C 0.07004 0.50022 0.45632 0.0
C301 C 0.09147 0.51055 0.43191 0.0
C302 C 0.00671 0.50139 0.49128 0.0
C303 C 0.97489 0.51652 0.5067 0.0
C304 C 0.95274 0.50228 0.53161 0.0
C305 C 0.93728 0.52157 0.55333 0.0
C306 C 0.91794 0.50874 0.5775 0.0
C307 C 0.91323 0.47634 0.58022 0.0
H308 H 0.95612 0.45433 0.51723 0.0
C309 C 0.92697 0.45711 0.55804 0.0
C310 C 0.94636 0.46991 0.53396 0.0
H311 H 0.92332 0.43206 0.55941 0.0
H312 H 0.01745 0.5694 0.41513 0.0
H313 H 0.97962 0.55121 0.45734 0.0
H314 H 0.08488 0.48063 0.46742 0.0
H315 H 0.12224 0.49864 0.42476 0.0
H316 H 0.01788 0.47837 0.49781 0.0
H317 H 0.96646 0.54058 0.50207 0.0
H318 H 0.94118 0.5466 0.5519 0.0
H319 H 0.90744 0.52415 0.59421 0.0
C320 C 0.47213 0.96271 0.41969 0.0
C321 C 0.42743 0.97147 0.41152 0.0
C322 C 0.49141 0.97427 0.44429 0.0
C323 C 0.4665 0.99519 0.46118 0.0
C324 C 0.42159 0.00369 0.45306 0.0
C325 C 0.40226 0.99202 0.42845 0.0
C326 C 0.48521 0.00766 0.48786 0.0
C327 C 0.53049 0.00789 0.49442 0.0
C328 C 0.54845 0.0188 0.52174 0.0
C329 C 0.59002 0.0062 0.53177 0.0
C330 C 0.60741 0.01506 0.55778 0.0
C331 C 0.58386 0.03704 0.57412 0.0
H332 H 0.49424 0.05249 0.53038 0.0
C333 C 0.54306 0.05043 0.56374 0.0
C334 C 0.5255 0.04144 0.5378 0.0
H335 H 0.52438 0.06765 0.57578 0.0
H336 H 0.49221 0.94665 0.40719 0.0
H337 H 0.52538 0.96611 0.45008 0.0
H338 H 0.4014 0.0195 0.46575 0.0
H339 H 0.36765 -0.00089 0.4227 0.0
H340 H 0.46031 0.01675 0.5027 0.0
H341 H 0.55567 0.99875 0.47983 0.0
H342 H 0.60864 0.98897 0.5197 0.0
H343 H 0.63909 0.00446 0.56517 0.0
C344 C 0.5809 0.48775 0.06586 0.0
C345 C 0.57126 0.45901 0.07854 0.0
C346 C 0.55793 0.49672 0.04146 0.0
C347 C 0.52501 0.47693 0.02907 0.0
C348 C 0.51582 0.44809 0.04173 0.0
C349 C 0.53871 0.43918 0.06614 0.0
C350 C 0.49811 0.48576 0.00374 0.0
C351 C 0.51028 0.50869 0.98597 0.0
C352 C 0.48288 0.51752 0.96088 0.0
C353 C 0.48932 0.54723 0.94927 0.0
C354 C 0.46527 0.55631 0.92532 0.0
C355 C 0.43442 0.53575 0.9123 0.0
H356 H 0.44689 0.47346 0.95536 0.0
C357 C 0.42787 0.50601 0.9238 0.0
C358 C 0.45193 0.4969 0.94776 0.0
H359 H 0.40467 0.48954 0.91403 0.0
H360 H 0.60551 0.50365 0.07511 0.0
H361 H 0.56538 0.5195 0.03303 0.0
H362 H 0.49055 0.43241 0.03281 0.0
H363 H 0.53041 0.41692 0.07549 0.0
H364 H 0.46687 0.47258 -0.00019 0.0
H365 H 0.54129 0.5221 0.98986 0.0
H366 H 0.51313 0.56352 0.95877 0.0
H367 H 0.47123 0.57935 0.91685 0.0
C368 C 0.04298 0.95002 0.93064 0.0
C369 C 0.08 0.96607 0.91841 0.0
C370 C 0.02292 0.96082 0.95534 0.0
C371 C 0.0398 0.98786 0.96846 0.0
C372 C 0.07717 0.00362 0.95627 0.0
C373 C 0.09714 0.99284 0.93157 0.0
C374 C 0.01842 0.00131 0.99399 0.0
C375 C 0.99077 0.98535 0.01152 0.0
C376 C 0.96901 -0.00068 0.03671 0.0
C377 C 0.92963 0.98504 0.04802 0.0
C378 C 0.90836 0.99714 0.07185 0.0
C379 C 0.92625 0.02373 0.08497 0.0
H380 H 0.01827 0.03699 0.04277 0.0
C381 C 0.96578 0.03795 0.07385 0.0
C382 C 0.98712 0.02583 0.05008 0.0
H383 H 0.9807 0.05824 0.08374 0.0
H384 H 0.02877 0.92945 0.9208 0.0
H385 H 0.99346 0.94833 0.96344 0.0
H386 H 0.0908 0.02456 0.96578 0.0
H387 H 0.12557 0.00577 0.92259 0.0
H388 H 0.026 0.02556 0.99824 0.0
H389 H 0.98281 0.96115 0.00729 0.0
H390 H 0.91513 0.96447 0.03834 0.0
H391 H 0.87806 0.98557 0.08005 0.0
C392 C 0.21522 0.65712 0.36167 0.0
C393 C 0.17933 0.64967 0.34314 0.0
C394 C 0.23613 0.68643 0.36077 0.0
C395 C 0.22132 0.70894 0.34134 0.0
C396 C 0.18512 0.70149 0.32305 0.0
C397 C 0.1642 0.67224 0.32399 0.0
C398 C 0.24414 0.73974 0.3384 0.0
C399 C 0.26894 0.75348 0.35874 0.0
C400 C 0.29094 0.78442 0.35504 0.0
C401 C 0.29655 0.80388 0.37831 0.0
C402 C 0.31552 0.8336 0.37528 0.0
C403 C 0.32987 0.84423 0.34893 0.0
H404 H 0.30454 0.77993 0.31061 0.0
C405 C 0.32594 0.82432 0.32584 0.0
C406 C 0.30674 0.7947 0.32884 0.0
H407 H 0.33709 0.83176 0.30531 0.0
H408 H 0.22786 0.64007 0.3765 0.0
H409 H 0.26469 0.69088 0.37474 0.0
H410 H 0.17317 0.71828 0.30777 0.0
H411 H 0.13672 0.66715 0.30936 0.0
H412 H 0.2386 0.75212 0.31889 0.0
H413 H 0.271 0.74282 0.37925 0.0
H414 H 0.28522 0.79635 0.39878 0.0
H415 H 0.31839 0.84839 0.39349 0.0
C416 C 0.82481 0.16968 0.17086 0.0
C417 C 0.82184 0.14826 0.14881 0.0
C418 C 0.80589 0.19947 0.16816 0.0
C419 C 0.78357 0.20842 0.14331 0.0
C420 C 0.78195 0.18732 0.12099 0.0
C421 C 0.80056 0.15745 0.12377 0.0
C422 C 0.76229 0.23966 0.13986 0.0
C423 C 0.74421 0.25575 0.16137 0.0
C424 C 0.72175 0.28669 0.15833 0.0
C425 C 0.68991 0.2962 0.1787 0.0
C426 C 0.66918 0.32553 0.17723 0.0
C427 C 0.68027 0.34614 0.15549 0.0
H428 H 0.75796 0.30121 0.12075 0.0
C429 C 0.71204 0.3367 0.13503 0.0
C430 C 0.73266 0.30728 0.13643 0.0
H431 H 0.72155 0.35221 0.11816 0.0
H432 H 0.84135 0.16332 0.19034 0.0
H433 H 0.80919 0.21546 0.18549 0.0
H434 H 0.76543 0.19375 0.10152 0.0
H435 H 0.798 0.1415 0.10634 0.0
H436 H 0.75888 0.2486 0.11876 0.0
H437 H 0.74369 0.24523 0.182 0.0
H438 H 0.6811 0.28092 0.19588 0.0
H439 H 0.645 0.33221 0.19339 0.0
C440 C 0.7217 0.15529 0.6355 0.0
C441 C 0.67841 0.14947 0.6476 0.0
C442 C 0.73908 0.18559 0.63416 0.0
C443 C 0.71339 0.21069 0.64489 0.0
C444 C 0.66965 0.2049 0.65635 0.0
C445 C 0.65245 0.17458 0.65791 0.0
C446 C 0.73074 0.24317 0.64399 0.0
C447 C 0.77596 0.25035 0.64501 0.0
C448 C 0.7931 0.28289 0.64556 0.0
C449 C 0.83486 0.28938 0.65922 0.0
C450 C 0.85152 0.31985 0.66068 0.0
C451 C 0.82706 0.34437 0.64809 0.0
H452 H 0.7375 0.3031 0.62103 0.0
C453 C 0.78593 0.3378 0.63374 0.0
C454 C 0.76906 0.30737 0.63249 0.0
H455 H 0.76652 0.35621 0.62366 0.0
H456 H 0.74233 0.13641 0.6272 0.0
H457 H 0.77232 0.18927 0.62441 0.0
H458 H 0.64898 0.22385 0.66451 0.0
H459 H 0.61884 0.17081 0.6672 0.0
H460 H 0.70523 0.26172 0.64443 0.0
H461 H 0.80129 0.23189 0.64746 0.0
H462 H 0.85426 0.2709 0.66922 0.0
H463 H 0.88347 0.3242 0.67175 0.0
C464 C 0.3305 0.67429 0.83377 0.0
C465 C 0.31038 0.64764 0.84561 0.0
C466 C 0.30786 0.70302 0.83504 0.0
C467 C 0.26452 0.70561 0.84814 0.0
C468 C 0.24444 0.67893 0.85985 0.0
C469 C 0.26728 0.65029 0.85883 0.0
C470 C 0.23846 0.73539 0.84873 0.0
C471 C 0.25918 0.76341 0.84909 0.0
C472 C 0.23326 0.79325 0.84928 0.0
C473 C 0.2538 0.81953 0.86138 0.0
C474 C 0.23134 0.84831 0.86094 0.0
C475 C 0.18814 0.85153 0.84791 0.0
H476 H 0.1734 0.77682 0.82625 0.0
C477 C 0.16748 0.82528 0.83576 0.0
C478 C 0.18976 0.79638 0.83646 0.0
H479 H 0.13435 0.82713 0.8254 0.0
H480 H 0.36353 0.67289 0.82326 0.0
H481 H 0.32383 0.7229 0.8251 0.0
H482 H 0.21095 0.68024 0.86985 0.0
H483 H 0.25077 0.63011 0.86799 0.0
H484 H 0.20109 0.73403 0.85016 0.0
H485 H 0.29656 0.76468 0.85052 0.0
H486 H 0.28742 0.81781 0.87118 0.0
H487 H 0.24827 0.86818 0.87033 0.0
loop_
_geom_bond_atom_site_label_1
_geom_bond_atom_site_label_2
_geom_bond_distance
_geom_bond_site_symmetry_2
_ccdc_geom_bond_type
In0 O1 2.294 . S
In0 O2 2.326 . S
In0 O6 2.266 . S
In0 O7 2.326 . S
In0 O8 2.266 . S
In0 O9 2.326 . S
In0 O11 2.294 . S
In0 O12 2.326 . S
O1 In0 2.294 . S
O1 C10 1.240 . S
O2 In0 2.326 . S
O2 C10 1.252 . S
C3 O6 1.252 . S
C3 O7 1.260 . S
C4 O11 1.240 . S
C4 O12 1.252 . S
C5 O8 1.252 . S
C5 O9 1.260 . S
O6 In0 2.266 . S
O6 C3 1.252 . S
O7 In0 2.326 . S
O7 C3 1.260 . S
O8 In0 2.266 . S
O8 C5 1.252 . S
O9 In0 2.326 . S
O9 C5 1.260 . S
C10 O1 1.240 . S
C10 O2 1.252 . S
O11 In0 2.294 . S
O11 C4 1.240 . S
O12 In0 2.326 . S
O12 C4 1.252 . S
In13 O14 2.294 . S
In13 O15 2.326 . S
In13 O19 2.266 . S
In13 O20 2.326 . S
In13 O21 2.266 . S
In13 O22 2.326 . S
In13 O24 2.294 . S
In13 O25 2.326 . S
O14 In13 2.294 . S
O14 C23 1.240 . S
O15 In13 2.326 . S
O15 C23 1.252 . S
C16 O19 1.252 . S
C16 O20 1.260 . S
C17 O24 1.240 . S
C17 O25 1.252 . S
C18 O21 1.252 . S
C18 O22 1.260 . S
O19 In13 2.266 . S
O19 C16 1.252 . S
O20 In13 2.326 . S
O20 C16 1.260 . S
O21 In13 2.266 . S
O21 C18 1.252 . S
O22 In13 2.326 . S
O22 C18 1.260 . S
C23 O14 1.240 . S
C23 O15 1.252 . S
O24 In13 2.294 . S
O24 C17 1.240 . S
O25 In13 2.326 . S
O25 C17 1.252 . S
In26 O27 2.294 . S
In26 O28 2.326 . S
In26 O32 2.266 . S
In26 O33 2.326 . S
In26 O34 2.266 . S
In26 O35 2.326 . S
In26 O37 2.294 . S
In26 O38 2.326 . S
O27 In26 2.294 . S
O27 C36 1.240 . S
O28 In26 2.326 . S
O28 C36 1.252 . S
C29 O32 1.252 . S
C29 O33 1.260 . S
C30 O37 1.240 . S
C30 O38 1.252 . S
C31 O34 1.252 . S
C31 O35 1.260 . S
O32 In26 2.266 . S
O32 C29 1.252 . S
O33 In26 2.326 . S
O33 C29 1.260 . S
O34 In26 2.266 . S
O34 C31 1.252 . S
O35 In26 2.326 . S
O35 C31 1.260 . S
C36 O27 1.240 . S
C36 O28 1.252 . S
O37 In26 2.294 . S
O37 C30 1.240 . S
O38 In26 2.326 . S
O38 C30 1.252 . S
In39 O40 2.294 . S
In39 O41 2.326 . S
In39 O45 2.266 . S
In39 O46 2.326 . S
In39 O47 2.266 . S
In39 O48 2.326 . S
In39 O50 2.294 . S
In39 O51 2.326 . S
O40 In39 2.294 . S
O40 C49 1.240 . S
O41 In39 2.326 . S
O41 C49 1.252 . S
C42 O45 1.252 . S
C42 O46 1.260 . S
C43 O50 1.240 . S
C43 O51 1.252 . S
C44 O47 1.252 . S
C44 O48 1.260 . S
O45 In39 2.266 . S
O45 C42 1.252 . S
O46 In39 2.326 . S
O46 C42 1.260 . S
O47 In39 2.266 . S
O47 C44 1.252 . S
O48 In39 2.326 . S
O48 C44 1.260 . S
C49 O40 1.240 . S
C49 O41 1.252 . S
O50 In39 2.294 . S
O50 C43 1.240 . S
O51 In39 2.326 . S
O51 C43 1.252 . S
In52 O53 2.294 . S
In52 O54 2.326 . S
In52 O58 2.266 . S
In52 O59 2.326 . S
In52 O60 2.266 . S
In52 O61 2.326 . S
In52 O63 2.294 . S
In52 O64 2.326 . S
O53 In52 2.294 . S
O53 C62 1.240 . S
O54 In52 2.326 . S
O54 C62 1.252 . S
C55 O58 1.252 . S
C55 O59 1.260 . S
C56 O63 1.240 . S
C56 O64 1.252 . S
C57 O60 1.252 . S
C57 O61 1.260 . S
O58 In52 2.266 . S
O58 C55 1.252 . S
O59 In52 2.326 . S
O59 C55 1.260 . S
O60 In52 2.266 . S
O60 C57 1.252 . S
O61 In52 2.326 . S
O61 C57 1.260 . S
C62 O53 1.240 . S
C62 O54 1.252 . S
O63 In52 2.294 . S
O63 C56 1.240 . S
O64 In52 2.326 . S
O64 C56 1.252 . S
In65 O66 2.294 . S
In65 O67 2.326 . S
In65 O71 2.266 . S
In65 O72 2.326 . S
In65 O73 2.266 . S
In65 O74 2.326 . S
In65 O76 2.294 . S
In65 O77 2.326 . S
O66 In65 2.294 . S
O66 C75 1.240 . S
O67 In65 2.326 . S
O67 C75 1.252 . S
C68 O71 1.252 . S
C68 O72 1.260 . S
C69 O76 1.240 . S
C69 O77 1.252 . S
C70 O73 1.252 . S
C70 O74 1.260 . S
O71 In65 2.266 . S
O71 C68 1.252 . S
O72 In65 2.326 . S
O72 C68 1.260 . S
O73 In65 2.266 . S
O73 C70 1.252 . S
O74 In65 2.326 . S
O74 C70 1.260 . S
C75 O66 1.240 . S
C75 O67 1.252 . S
O76 In65 2.294 . S
O76 C69 1.240 . S
O77 In65 2.326 . S
O77 C69 1.252 . S
In78 O79 2.294 . S
In78 O80 2.326 . S
In78 O84 2.266 . S
In78 O85 2.326 . S
In78 O86 2.266 . S
In78 O87 2.326 . S
In78 O89 2.294 . S
In78 O90 2.326 . S
O79 In78 2.294 . S
O79 C88 1.240 . S
O80 In78 2.326 . S
O80 C88 1.252 . S
C81 O84 1.252 . S
C81 O85 1.260 . S
C82 O89 1.240 . S
C82 O90 1.252 . S
C83 O86 1.252 . S
C83 O87 1.260 . S
O84 In78 2.266 . S
O84 C81 1.252 . S
O85 In78 2.326 . S
O85 C81 1.260 . S
O86 In78 2.266 . S
O86 C83 1.252 . S
O87 In78 2.326 . S
O87 C83 1.260 . S
C88 O79 1.240 . S
C88 O80 1.252 . S
O89 In78 2.294 . S
O89 C82 1.240 . S
O90 In78 2.326 . S
O90 C82 1.252 . S
In91 O92 2.294 . S
In91 O93 2.326 . S
In91 O97 2.266 . S
In91 O98 2.326 . S
In91 O99 2.266 . S
In91 O100 2.326 . S
In91 O102 2.294 . S
In91 O103 2.326 . S
O92 In91 2.294 . S
O92 C101 1.240 . S
O93 In91 2.326 . S
O93 C101 1.252 . S
C94 O97 1.252 . S
C94 O98 1.260 . S
C95 O102 1.240 . S
C95 O103 1.252 . S
C96 O99 1.252 . S
C96 O100 1.260 . S
O97 In91 2.266 . S
O97 C94 1.252 . S
O98 In91 2.326 . S
O98 C94 1.260 . S
O99 In91 2.266 . S
O99 C96 1.252 . S
O100 In91 2.326 . S
O100 C96 1.260 . S
C101 O92 1.240 . S
C101 O93 1.252 . S
O102 In91 2.294 . S
O102 C95 1.240 . S
O103 In91 2.326 . S
O103 C95 1.252 . S
C104 C105 1.386 . S
C104 C106 1.383 . S
C104 H120 0.951 . S
C105 C104 1.386 . S
C105 C109 1.383 . S
C106 C104 1.383 . S
C106 C107 1.402 . S
C106 H121 0.951 . S
C107 C106 1.402 . S
C107 C108 1.375 . S
C107 C110 1.481 . S
C108 C107 1.375 . S
C108 C109 1.367 . S
C108 H122 0.951 . S
C109 C105 1.383 . S
C109 C108 1.367 . S
C109 H123 0.950 . S
C110 C107 1.481 . S
C110 C111 1.297 . S
C110 H124 0.950 . S
C111 C110 1.297 . S
C111 C112 1.479 . S
C111 H125 0.950 . S
C112 C111 1.479 . S
C112 C113 1.375 . S
C112 C118 1.404 . S
C113 C112 1.375 . S
C113 C114 1.369 . S
C113 H126 0.950 . S
C114 C113 1.369 . S
C114 C115 1.392 . S
C114 H127 0.951 . S
C115 C114 1.392 . S
C115 C117 1.384 . S
H116 C118 0.949 . S
C117 C115 1.384 . S
C117 C118 1.385 . S
C117 H119 0.950 . S
C118 C112 1.404 . S
C118 H116 0.949 . S
C118 C117 1.385 . S
H119 C117 0.950 . S
H120 C104 0.951 . S
H121 C106 0.951 . S
H122 C108 0.951 . S
H123 C109 0.950 . S
H124 C110 0.950 . S
H125 C111 0.950 . S
H126 C113 0.950 . S
H127 C114 0.951 . S
C128 C129 1.386 1_455 S
C128 C130 1.383 . S
C128 H144 0.951 . S
C129 C128 1.386 1_655 S
C129 C133 1.383 1_545 S
C130 C128 1.383 . S
C130 C131 1.402 . S
C130 H145 0.951 . S
C131 C130 1.402 . S
C131 C132 1.375 1_545 S
C131 C134 1.481 1_545 S
C132 C131 1.375 1_565 S
C132 C133 1.367 1_455 S
C132 H146 0.951 . S
C133 C129 1.383 1_565 S
C133 C132 1.367 1_655 S
C133 H147 0.950 . S
C134 C131 1.481 1_565 S
C134 C135 1.297 1_565 S
C134 H148 0.950 . S
C135 C134 1.297 1_545 S
C135 C136 1.479 1_545 S
C135 H149 0.950 . S
C136 C135 1.479 1_565 S
C136 C137 1.375 1_565 S
C136 C142 1.404 . S
C137 C136 1.375 1_545 S
C137 C138 1.369 1_545 S
C137 H150 0.950 . S
C138 C137 1.369 1_565 S
C138 C139 1.392 . S
C138 H151 0.951 1_565 S
C139 C138 1.392 . S
C139 C141 1.384 . S
H140 C142 0.949 . S
C141 C139 1.384 . S
C141 C142 1.385 . S
C141 H143 0.950 . S
C142 C136 1.404 . S
C142 H140 0.949 . S
C142 C141 1.385 . S
H143 C141 0.950 . S
H144 C128 0.951 . S
H145 C130 0.951 . S
H146 C132 0.951 . S
H147 C133 0.950 . S
H148 C134 0.950 . S
H149 C135 0.950 . S
H150 C137 0.950 . S
H151 C138 0.951 1_545 S
C152 C153 1.386 . S
C152 C154 1.383 . S
C152 H168 0.951 . S
C153 C152 1.386 . S
C153 C157 1.383 . S
C154 C152 1.383 . S
C154 C155 1.402 . S
C154 H169 0.951 . S
C155 C154 1.402 . S
C155 C156 1.375 . S
C155 C158 1.481 . S
C156 C155 1.375 . S
C156 C157 1.367 . S
C156 H170 0.951 . S
C157 C153 1.383 . S
C157 C156 1.367 . S
C157 H171 0.950 . S
C158 C155 1.481 . S
C158 C159 1.297 . S
C158 H172 0.950 . S
C159 C158 1.297 . S
C159 C160 1.479 . S
C159 H173 0.950 . S
C160 C159 1.479 . S
C160 C161 1.375 . S
C160 C166 1.404 . S
C161 C160 1.375 . S
C161 C162 1.369 . S
C161 H174 0.950 . S
C162 C161 1.369 . S
C162 C163 1.392 1_655 S
C162 H175 0.951 . S
C163 C162 1.392 1_455 S
C163 C165 1.384 . S
H164 C166 0.949 . S
C165 C163 1.384 . S
C165 C166 1.385 1_455 S
C165 H167 0.950 . S
C166 C160 1.404 . S
C166 H164 0.949 . S
C166 C165 1.385 1_655 S
H167 C165 0.950 . S
H168 C152 0.951 . S
H169 C154 0.951 . S
H170 C156 0.951 . S
H171 C157 0.950 . S
H172 C158 0.950 . S
H173 C159 0.950 . S
H174 C161 0.950 . S
H175 C162 0.951 . S
C176 C177 1.386 . S
C176 C178 1.383 . S
C176 H192 0.951 . S
C177 C176 1.386 . S
C177 C181 1.383 . S
C178 C176 1.383 . S
C178 C179 1.402 . S
C178 H193 0.951 . S
C179 C178 1.402 . S
C179 C180 1.375 . S
C179 C182 1.481 1_545 S
C180 C179 1.375 . S
C180 C181 1.367 . S
C180 H194 0.951 . S
C181 C177 1.383 . S
C181 C180 1.367 . S
C181 H195 0.950 . S
C182 C179 1.481 1_565 S
C182 C183 1.297 . S
C182 H196 0.950 . S
C183 C182 1.297 . S
C183 C184 1.479 . S
C183 H197 0.950 . S
C184 C183 1.479 . S
C184 C185 1.375 . S
C184 C190 1.404 . S
C185 C184 1.375 . S
C185 C186 1.369 . S
C185 H198 0.950 . S
C186 C185 1.369 . S
C186 C187 1.392 . S
C186 H199 0.951 . S
C187 C186 1.392 . S
C187 C189 1.384 . S
H188 C190 0.949 . S
C189 C187 1.384 . S
C189 C190 1.385 . S
C189 H191 0.950 . S
C190 C184 1.404 . S
C190 H188 0.949 . S
C190 C189 1.385 . S
H191 C189 0.950 . S
H192 C176 0.951 . S
H193 C178 0.951 . S
H194 C180 0.951 . S
H195 C181 0.950 . S
H196 C182 0.950 . S
H197 C183 0.950 . S
H198 C185 0.950 . S
H199 C186 0.951 . S
C200 C201 1.386 . S
C200 C202 1.383 . S
C200 H216 0.951 . S
C201 C200 1.386 . S
C201 C205 1.383 . S
C202 C200 1.383 . S
C202 C203 1.402 . S
C202 H217 0.951 . S
C203 C202 1.402 . S
C203 C204 1.375 . S
C203 C206 1.481 . S
C204 C203 1.375 . S
C204 C205 1.367 . S
C204 H218 0.951 . S
C205 C201 1.383 . S
C205 C204 1.367 . S
C205 H219 0.950 . S
C206 C203 1.481 . S
C206 C207 1.297 . S
C206 H220 0.950 . S
C207 C206 1.297 . S
C207 C208 1.479 . S
C207 H221 0.950 . S
C208 C207 1.479 . S
C208 C209 1.375 . S
C208 C214 1.404 . S
C209 C208 1.375 . S
C209 C210 1.369 . S
C209 H222 0.950 . S
C210 C209 1.369 . S
C210 C211 1.392 . S
C210 H223 0.951 . S
C211 C210 1.392 . S
C211 C213 1.384 . S
H212 C214 0.949 . S
C213 C211 1.384 . S
C213 C214 1.385 . S
C213 H215 0.950 . S
C214 C208 1.404 . S
C214 H212 0.949 . S
C214 C213 1.385 . S
H215 C213 0.950 . S
H216 C200 0.951 . S
H217 C202 0.951 . S
H218 C204 0.951 . S
H219 C205 0.950 . S
H220 C206 0.950 . S
H221 C207 0.950 . S
H222 C209 0.950 . S
H223 C210 0.951 . S
C224 C225 1.386 . S
C224 C226 1.383 . S
C224 H240 0.951 . S
C225 C224 1.386 . S
C225 C229 1.383 . S
C226 C224 1.383 . S
C226 C227 1.402 . S
C226 H241 0.951 . S
C227 C226 1.402 . S
C227 C228 1.375 . S
C227 C230 1.481 1_545 S
C228 C227 1.375 . S
C228 C229 1.367 . S
C228 H242 0.951 . S
C229 C225 1.383 . S
C229 C228 1.367 . S
C229 H243 0.950 . S
C230 C227 1.481 1_565 S
C230 C231 1.297 . S
C230 H244 0.950 . S
C231 C230 1.297 . S
C231 C232 1.479 . S
C231 H245 0.950 . S
C232 C231 1.479 . S
C232 C233 1.375 . S
C232 C238 1.404 . S
C233 C232 1.375 . S
C233 C234 1.369 . S
C233 H246 0.950 . S
C234 C233 1.369 . S
C234 C235 1.392 1_655 S
C234 H247 0.951 . S
C235 C234 1.392 1_455 S
C235 C237 1.384 . S
H236 C238 0.949 . S
C237 C235 1.384 . S
C237 C238 1.385 1_455 S
C237 H239 0.950 . S
C238 C232 1.404 . S
C238 H236 0.949 . S
C238 C237 1.385 1_655 S
H239 C237 0.950 . S
H240 C224 0.951 . S
H241 C226 0.951 . S
H242 C228 0.951 . S
H243 C229 0.950 . S
H244 C230 0.950 . S
H245 C231 0.950 . S
H246 C233 0.950 . S
H247 C234 0.951 . S
C248 C249 1.386 . S
C248 C250 1.383 . S
C248 H264 0.951 . S
C249 C248 1.386 . S
C249 C253 1.383 . S
C250 C248 1.383 . S
C250 C251 1.402 . S
C250 H265 0.951 . S
C251 C250 1.402 . S
C251 C252 1.375 . S
C251 C254 1.481 . S
C252 C251 1.375 . S
C252 C253 1.367 . S
C252 H266 0.951 . S
C253 C249 1.383 . S
C253 C252 1.367 . S
C253 H267 0.950 . S
C254 C251 1.481 . S
C254 C255 1.297 . S
C254 H268 0.950 . S
C255 C254 1.297 . S
C255 C256 1.479 . S
C255 H269 0.950 . S
C256 C255 1.479 . S
C256 C257 1.375 . S
C256 C262 1.404 . S
C257 C256 1.375 . S
C257 C258 1.369 . S
C257 H270 0.950 . S
C258 C257 1.369 . S
C258 C259 1.392 1_455 S
C258 H271 0.951 . S
C259 C258 1.392 1_655 S
C259 C261 1.384 . S
H260 C262 0.949 . S
C261 C259 1.384 . S
C261 C262 1.385 1_655 S
C261 H263 0.950 . S
C262 C256 1.404 . S
C262 H260 0.949 . S
C262 C261 1.385 1_455 S
H263 C261 0.950 . S
H264 C248 0.951 . S
H265 C250 0.951 . S
H266 C252 0.951 . S
H267 C253 0.950 . S
H268 C254 0.950 . S
H269 C255 0.950 . S
H270 C257 0.950 . S
H271 C258 0.951 . S
C272 C273 1.386 . S
C272 C274 1.383 . S
C272 H288 0.951 . S
C273 C272 1.386 . S
C273 C277 1.383 . S
C274 C272 1.383 . S
C274 C275 1.402 . S
C274 H289 0.951 . S
C275 C274 1.402 . S
C275 C276 1.375 . S
C275 C278 1.481 1_565 S
C276 C275 1.375 . S
C276 C277 1.367 . S
C276 H290 0.951 . S
C277 C273 1.383 . S
C277 C276 1.367 . S
C277 H291 0.950 . S
C278 C275 1.481 1_545 S
C278 C279 1.297 . S
C278 H292 0.950 . S
C279 C278 1.297 . S
C279 C280 1.479 . S
C279 H293 0.950 . S
C280 C279 1.479 . S
C280 C281 1.375 . S
C280 C286 1.404 . S
C281 C280 1.375 . S
C281 C282 1.369 . S
C281 H294 0.950 . S
C282 C281 1.369 . S
C282 C283 1.392 . S
C282 H295 0.951 . S
C283 C282 1.392 . S
C283 C285 1.384 . S
H284 C286 0.949 . S
C285 C283 1.384 . S
C285 C286 1.385 . S
C285 H287 0.950 . S
C286 C280 1.404 . S
C286 H284 0.949 . S
C286 C285 1.385 . S
H287 C285 0.950 . S
H288 C272 0.951 . S
H289 C274 0.951 . S
H290 C276 0.951 . S
H291 C277 0.950 . S
H292 C278 0.950 . S
H293 C279 0.950 . S
H294 C281 0.950 . S
H295 C282 0.951 . S
C296 C297 1.386 . S
C296 C298 1.383 . S
C296 H312 0.951 . S
C297 C296 1.386 . S
C297 C301 1.383 . S
C298 C296 1.383 . S
C298 C299 1.402 . S
C298 H313 0.951 1_455 S
C299 C298 1.402 . S
C299 C300 1.375 . S
C299 C302 1.481 . S
C300 C299 1.375 . S
C300 C301 1.367 . S
C300 H314 0.951 . S
C301 C297 1.383 . S
C301 C300 1.367 . S
C301 H315 0.950 . S
C302 C299 1.481 . S
C302 C303 1.297 1_455 S
C302 H316 0.950 . S
C303 C302 1.297 1_655 S
C303 C304 1.479 . S
C303 H317 0.950 . S
C304 C303 1.479 . S
C304 C305 1.375 . S
C304 C310 1.404 . S
C305 C304 1.375 . S
C305 C306 1.369 . S
C305 H318 0.950 . S
C306 C305 1.369 . S
C306 C307 1.392 . S
C306 H319 0.951 . S
C307 C306 1.392 . S
C307 C309 1.384 . S
H308 C310 0.949 . S
C309 C307 1.384 . S
C309 C310 1.385 . S
C309 H311 0.950 . S
C310 C304 1.404 . S
C310 H308 0.949 . S
C310 C309 1.385 . S
H311 C309 0.950 . S
H312 C296 0.951 . S
H313 C298 0.951 1_655 S
H314 C300 0.951 . S
H315 C301 0.950 . S
H316 C302 0.950 . S
H317 C303 0.950 . S
H318 C305 0.950 . S
H319 C306 0.951 . S
C320 C321 1.386 . S
C320 C322 1.383 . S
C320 H336 0.951 . S
C321 C320 1.386 . S
C321 C325 1.383 . S
C322 C320 1.383 . S
C322 C323 1.402 . S
C322 H337 0.951 . S
C323 C322 1.402 . S
C323 C324 1.375 . S
C323 C326 1.481 1_565 S
C324 C323 1.375 . S
C324 C325 1.367 . S
C324 H338 0.951 . S
C325 C321 1.383 . S
C325 C324 1.367 . S
C325 H339 0.950 . S
C326 C323 1.481 1_545 S
C326 C327 1.297 . S
C326 H340 0.950 . S
C327 C326 1.297 . S
C327 C328 1.479 . S
C327 H341 0.950 . S
C328 C327 1.479 . S
C328 C329 1.375 . S
C328 C334 1.404 . S
C329 C328 1.375 . S
C329 C330 1.369 . S
C329 H342 0.950 . S
C330 C329 1.369 . S
C330 C331 1.392 . S
C330 H343 0.951 . S
C331 C330 1.392 . S
C331 C333 1.384 . S
H332 C334 0.949 . S
C333 C331 1.384 . S
C333 C334 1.385 . S
C333 H335 0.950 . S
C334 C328 1.404 . S
C334 H332 0.949 . S
C334 C333 1.385 . S
H335 C333 0.950 . S
H336 C320 0.951 . S
H337 C322 0.951 . S
H338 C324 0.951 . S
H339 C325 0.950 . S
H340 C326 0.950 . S
H341 C327 0.950 . S
H342 C329 0.950 . S
H343 C330 0.951 . S
C344 C345 1.386 . S
C344 C346 1.383 . S
C344 H360 0.951 . S
C345 C344 1.386 . S
C345 C349 1.383 . S
C346 C344 1.383 . S
C346 C347 1.402 . S
C346 H361 0.951 . S
C347 C346 1.402 . S
C347 C348 1.375 . S
C347 C350 1.481 . S
C348 C347 1.375 . S
C348 C349 1.367 . S
C348 H362 0.951 . S
C349 C345 1.383 . S
C349 C348 1.367 . S
C349 H363 0.950 . S
C350 C347 1.481 . S
C350 C351 1.297 1_554 S
C350 H364 0.950 . S
C351 C350 1.297 1_556 S
C351 C352 1.479 . S
C351 H365 0.950 . S
C352 C351 1.479 . S
C352 C353 1.375 . S
C352 C358 1.404 . S
C353 C352 1.375 . S
C353 C354 1.369 . S
C353 H366 0.950 . S
C354 C353 1.369 . S
C354 C355 1.392 . S
C354 H367 0.951 . S
C355 C354 1.392 . S
C355 C357 1.384 . S
H356 C358 0.949 . S
C357 C355 1.384 . S
C357 C358 1.385 . S
C357 H359 0.950 . S
C358 C352 1.404 . S
C358 H356 0.949 . S
C358 C357 1.385 . S
H359 C357 0.950 . S
H360 C344 0.951 . S
H361 C346 0.951 . S
H362 C348 0.951 . S
H363 C349 0.950 . S
H364 C350 0.950 . S
H365 C351 0.950 . S
H366 C353 0.950 . S
H367 C354 0.951 . S
C368 C369 1.386 . S
C368 C370 1.383 . S
C368 H384 0.951 . S
C369 C368 1.386 . S
C369 C373 1.383 . S
C370 C368 1.383 . S
C370 C371 1.402 . S
C370 H385 0.951 1_455 S
C371 C370 1.402 . S
C371 C372 1.375 . S
C371 C374 1.478 . S
C372 C371 1.375 . S
C372 C373 1.367 . S
C372 H386 0.951 . S
C373 C369 1.383 . S
C373 C372 1.367 . S
C373 H387 0.950 . S
C374 C371 1.478 . S
C374 C375 1.298 1_456 S
C374 H388 0.952 1_556 S
C375 C374 1.298 1_654 S
C375 C376 1.479 1_565 S
C375 H389 0.950 1_554 S
C376 C375 1.479 1_545 S
C376 C377 1.375 . S
C376 C382 1.404 1_545 S
C377 C376 1.375 . S
C377 C378 1.369 . S
C377 H390 0.950 . S
C378 C377 1.369 . S
C378 C379 1.392 . S
C378 H391 0.951 . S
C379 C378 1.392 . S
C379 C381 1.384 . S
H380 C382 0.949 1_455 S
C381 C379 1.384 . S
C381 C382 1.385 1_545 S
C381 H383 0.950 . S
C382 C376 1.404 1_565 S
C382 H380 0.949 1_655 S
C382 C381 1.385 1_565 S
H383 C381 0.950 . S
H384 C368 0.951 . S
H385 C370 0.951 1_655 S
H386 C372 0.951 . S
H387 C373 0.950 . S
H388 C374 0.952 1_554 S
H389 C375 0.950 1_556 S
H390 C377 0.950 . S
H391 C378 0.951 . S
C392 C393 1.386 . S
C392 C394 1.383 . S
C392 H408 0.951 . S
C393 C392 1.386 . S
C393 C397 1.383 . S
C394 C392 1.383 . S
C394 C395 1.402 . S
C394 H409 0.951 . S
C395 C394 1.402 . S
C395 C396 1.375 . S
C395 C398 1.481 . S
C396 C395 1.375 . S
C396 C397 1.367 . S
C396 H410 0.951 . S
C397 C393 1.383 . S
C397 C396 1.367 . S
C397 H411 0.950 . S
C398 C395 1.481 . S
C398 C399 1.297 . S
C398 H412 0.950 . S
C399 C398 1.297 . S
C399 C400 1.479 . S
C399 H413 0.950 . S
C400 C399 1.479 . S
C400 C401 1.375 . S
C400 C406 1.404 . S
C401 C400 1.375 . S
C401 C402 1.369 . S
C401 H414 0.950 . S
C402 C401 1.369 . S
C402 C403 1.392 . S
C402 H415 0.951 . S
C403 C402 1.392 . S
C403 C405 1.384 . S
H404 C406 0.949 . S
C405 C403 1.384 . S
C405 C406 1.385 . S
C405 H407 0.950 . S
C406 C400 1.404 . S
C406 H404 0.949 . S
C406 C405 1.385 . S
H407 C405 0.950 . S
H408 C392 0.951 . S
H409 C394 0.951 . S
H410 C396 0.951 . S
H411 C397 0.950 . S
H412 C398 0.950 . S
H413 C399 0.950 . S
H414 C401 0.950 . S
H415 C402 0.951 . S
C416 C417 1.386 . S
C416 C418 1.383 . S
C416 H432 0.951 . S
C417 C416 1.386 . S
C417 C421 1.383 . S
C418 C416 1.383 . S
C418 C419 1.402 . S
C418 H433 0.951 . S
C419 C418 1.402 . S
C419 C420 1.375 . S
C419 C422 1.481 . S
C420 C419 1.375 . S
C420 C421 1.367 . S
C420 H434 0.951 . S
C421 C417 1.383 . S
C421 C420 1.367 . S
C421 H435 0.950 . S
C422 C419 1.481 . S
C422 C423 1.297 . S
C422 H436 0.950 . S
C423 C422 1.297 . S
C423 C424 1.479 . S
C423 H437 0.950 . S
C424 C423 1.479 . S
C424 C425 1.375 . S
C424 C430 1.404 . S
C425 C424 1.375 . S
C425 C426 1.369 . S
C425 H438 0.950 . S
C426 C425 1.369 . S
C426 C427 1.392 . S
C426 H439 0.951 . S
C427 C426 1.392 . S
C427 C429 1.384 . S
H428 C430 0.949 . S
C429 C427 1.384 . S
C429 C430 1.385 . S
C429 H431 0.950 . S
C430 C424 1.404 . S
C430 H428 0.949 . S
C430 C429 1.385 . S
H431 C429 0.950 . S
H432 C416 0.951 . S
H433 C418 0.951 . S
H434 C420 0.951 . S
H435 C421 0.950 . S
H436 C422 0.950 . S
H437 C423 0.950 . S
H438 C425 0.950 . S
H439 C426 0.951 . S
C440 C441 1.386 . S
C440 C442 1.383 . S
C440 H456 0.951 . S
C441 C440 1.386 . S
C441 C445 1.383 . S
C442 C440 1.383 . S
C442 C443 1.402 . S
C442 H457 0.951 . S
C443 C442 1.402 . S
C443 C444 1.375 . S
C443 C446 1.481 . S
C444 C443 1.375 . S
C444 C445 1.367 . S
C444 H458 0.951 . S
C445 C441 1.383 . S
C445 C444 1.367 . S
C445 H459 0.950 . S
C446 C443 1.481 . S
C446 C447 1.297 . S
C446 H460 0.950 . S
C447 C446 1.297 . S
C447 C448 1.479 . S
C447 H461 0.950 . S
C448 C447 1.479 . S
C448 C449 1.375 . S
C448 C454 1.404 . S
C449 C448 1.375 . S
C449 C450 1.369 . S
C449 H462 0.950 . S
C450 C449 1.369 . S
C450 C451 1.392 . S
C450 H463 0.951 . S
C451 C450 1.392 . S
C451 C453 1.384 . S
H452 C454 0.949 . S
C453 C451 1.384 . S
C453 C454 1.385 . S
C453 H455 0.950 . S
C454 C448 1.404 . S
C454 H452 0.949 . S
C454 C453 1.385 . S
H455 C453 0.950 . S
H456 C440 0.951 . S
H457 C442 0.951 . S
H458 C444 0.951 . S
H459 C445 0.950 . S
H460 C446 0.950 . S
H461 C447 0.950 . S
H462 C449 0.950 . S
H463 C450 0.951 . S
C464 C465 1.386 . S
C464 C466 1.383 . S
C464 H480 0.951 . S
C465 C464 1.386 . S
C465 C469 1.383 . S
C466 C464 1.383 . S
C466 C467 1.402 . S
C466 H481 0.951 . S
C467 C466 1.402 . S
C467 C468 1.375 . S
C467 C470 1.481 . S
C468 C467 1.375 . S
C468 C469 1.367 . S
C468 H482 0.951 . S
C469 C465 1.383 . S
C469 C468 1.367 . S
C469 H483 0.950 . S
C470 C467 1.481 . S
C470 C471 1.297 . S
C470 H484 0.950 . S
C471 C470 1.297 . S
C471 C472 1.479 . S
C471 H485 0.950 . S
C472 C471 1.479 . S
C472 C473 1.375 . S
C472 C478 1.404 . S
C473 C472 1.375 . S
C473 C474 1.369 . S
C473 H486 0.950 . S
C474 C473 1.369 . S
C474 C475 1.392 . S
C474 H487 0.951 . S
C475 C474 1.392 . S
C475 C477 1.384 . S
H476 C478 0.949 . S
C477 C475 1.384 . S
C477 C478 1.385 . S
C477 H479 0.950 . S
C478 C472 1.404 . S
C478 H476 0.949 . S
C478 C477 1.385 . S
H479 C477 0.950 . S
H480 C464 0.951 . S
H481 C466 0.951 . S
H482 C468 0.951 . S
H483 C469 0.950 . S
H484 C470 0.950 . S
H485 C471 0.950 . S
H486 C473 0.950 . S
H487 C474 0.951 . S
C105 C10 1.560 . S
C115 C29 1.555 . S
C129 C44 1.562 . S
C139 C23 1.552 . S
C153 C30 1.558 . S
C163 C5 1.557 . S
C177 C49 1.564 . S
C187 C18 1.548 . S
C201 C83 1.559 . S
C211 C56 1.547 . S
C225 C75 1.561 . S
C235 C96 1.548 . S
C249 C88 1.560 . S
C259 C55 1.548 . S
C273 C101 1.562 . S
C283 C70 1.549 . S
C297 C3 1.509 . S
C307 C57 1.511 . S
C321 C16 1.511 . S
C331 C68 1.514 . S
C345 C31 1.516 . S
C355 C81 1.498 . S
C369 C94 1.518 . S
C379 C42 1.500 . S
C393 C4 1.511 . S
C403 C17 1.503 . S
C417 C43 1.524 . S
C427 C36 1.511 . S
C441 C69 1.525 . S
C451 C62 1.520 . S
C465 C82 1.511 . S
C475 C95 1.500 . S
