# Generated by pormake.
# Topology umz, (4)-cn, num edge types: 1
# Building blocks:
#     Node 0, Type 0, BuildingBlock: UXUYUI_clean_sbu_0, # of connection points: 4
#     Node 1, Type 0, BuildingBlock: UXUYUI_clean_sbu_0, # of connection points: 4
#     Node 2, Type 0, BuildingBlock: UXUYUI_clean_sbu_0, # of connection points: 4
#     Node 3, Type 0, BuildingBlock: UXUYUI_clean_sbu_0, # of connection points: 4
#     Node 4, Type 0, BuildingBlock: UXUYUI_clean_sbu_0, # of connection points: 4
#     Node 5, Type 0, BuildingBlock: UXUYUI_clean_sbu_0, # of connection points: 4
#     Node 6, Type 0, BuildingBlock: UXUYUI_clean_sbu_0, # of connection points: 4
#     Node 7, Type 0, BuildingBlock: UXUYUI_clean_sbu_0, # of connection points: 4
#     Node 8, Type 0, BuildingBlock: UXUYUI_clean_sbu_0, # of connection points: 4
#     Node 9, Type 0, BuildingBlock: UXUYUI_clean_sbu_0, # of connection points: 4
#     Node 10, Type 0, BuildingBlock: UXUYUI_clean_sbu_0, # of connection points: 4
#     Node 11, Type 0, BuildingBlock: UXUYUI_clean_sbu_0, # of connection points: 4
#     Node 12, Type 0, BuildingBlock: UXUYUI_clean_sbu_0, # of connection points: 4
#     Node 13, Type 0, BuildingBlock: UXUYUI_clean_sbu_0, # of connection points: 4
#     Node 14, Type 0, BuildingBlock: UXUYUI_clean_sbu_0, # of connection points: 4
#     Node 15, Type 0, BuildingBlock: UXUYUI_clean_sbu_0, # of connection points: 4
#     Edge 16, Type (0, 0), BuildingBlock: XUDNAN_clean_linker_2, # of connection points: 2
#     Edge 17, Type (0, 0), BuildingBlock: XUDNAN_clean_linker_2, # of connection points: 2
#     Edge 18, Type (0, 0), BuildingBlock: XUDNAN_clean_linker_2, # of connection points: 2
#     Edge 19, Type (0, 0), BuildingBlock: XUDNAN_clean_linker_2, # of connection points: 2
#     Edge 20, Type (0, 0), BuildingBlock: XUDNAN_clean_linker_2, # of connection points: 2
#     Edge 21, Type (0, 0), BuildingBlock: XUDNAN_clean_linker_2, # of connection points: 2
#     Edge 22, Type (0, 0), BuildingBlock: XUDNAN_clean_linker_2, # of connection points: 2
#     Edge 23, Type (0, 0), BuildingBlock: XUDNAN_clean_linker_2, # of connection points: 2
#     Edge 24, Type (0, 0), BuildingBlock: XUDNAN_clean_linker_2, # of connection points: 2
#     Edge 25, Type (0, 0), BuildingBlock: XUDNAN_clean_linker_2, # of connection points: 2
#     Edge 26, Type (0, 0), BuildingBlock: XUDNAN_clean_linker_2, # of connection points: 2
#     Edge 27, Type (0, 0), BuildingBlock: XUDNAN_clean_linker_2, # of connection points: 2
#     Edge 28, Type (0, 0), BuildingBlock: XUDNAN_clean_linker_2, # of connection points: 2
#     Edge 29, Type (0, 0), BuildingBlock: XUDNAN_clean_linker_2, # of connection points: 2
#     Edge 30, Type (0, 0), BuildingBlock: XUDNAN_clean_linker_2, # of connection points: 2
#     Edge 31, Type (0, 0), BuildingBlock: XUDNAN_clean_linker_2, # of connection points: 2
#     Edge 32, Type (0, 0), BuildingBlock: XUDNAN_clean_linker_2, # of connection points: 2
#     Edge 33, Type (0, 0), BuildingBlock: XUDNAN_clean_linker_2, # of connection points: 2
#     Edge 34, Type (0, 0), BuildingBlock: XUDNAN_clean_linker_2, # of connection points: 2
#     Edge 35, Type (0, 0), BuildingBlock: XUDNAN_clean_linker_2, # of connection points: 2
#     Edge 36, Type (0, 0), BuildingBlock: XUDNAN_clean_linker_2, # of connection points: 2
#     Edge 37, Type (0, 0), BuildingBlock: XUDNAN_clean_linker_2, # of connection points: 2
#     Edge 38, Type (0, 0), BuildingBlock: XUDNAN_clean_linker_2, # of connection points: 2
#     Edge 39, Type (0, 0), BuildingBlock: XUDNAN_clean_linker_2, # of connection points: 2
#     Edge 40, Type (0, 0), BuildingBlock: XUDNAN_clean_linker_2, # of connection points: 2
#     Edge 41, Type (0, 0), BuildingBlock: XUDNAN_clean_linker_2, # of connection points: 2
#     Edge 42, Type (0, 0), BuildingBlock: XUDNAN_clean_linker_2, # of connection points: 2
#     Edge 43, Type (0, 0), BuildingBlock: XUDNAN_clean_linker_2, # of connection points: 2
#     Edge 44, Type (0, 0), BuildingBlock: XUDNAN_clean_linker_2, # of connection points: 2
#     Edge 45, Type (0, 0), BuildingBlock: XUDNAN_clean_linker_2, # of connection points: 2
#     Edge 46, Type (0, 0), BuildingBlock: XUDNAN_clean_linker_2, # of connection points: 2
#     Edge 47, Type (0, 0), BuildingBlock: XUDNAN_clean_linker_2, # of connection points: 2
# Relax obj value: 0.340
# Max RMSD: 0.205
# Mean RMSD: 0.205
data_MOF--net-umz--node1-UXUYUI_clean_sbu_0--edge1-XUDNAN_clean_linker_2
_symmetry_space_group_name_H-M    P1
_symmetry_Int_Tables_number       1
_symmetry_cell_setting            triclinic
loop_
_symmetry_equiv_pos_as_xyz
'x, y, z'
_cell_length_a     87.321291
_cell_length_b     87.357809
_cell_length_c     31.743553
_cell_angle_alpha  90.020964
_cell_angle_beta   89.986285
_cell_angle_gamma 89.997873
loop_
_atom_site_label
_atom_site_type_symbol
_atom_site_fract_x
_atom_site_fract_y
_atom_site_fract_z
_atom_type_partial_charge
Li0 Li 0.01257 0.6306 0.1764 0.0
Li1 Li 0.03709 0.63768 0.21217 0.0
Li2 Li 0.02949 0.65041 0.14847 0.0
Li3 Li 0.03856 0.62503 0.14469 0.0
C4 C 0.0167 0.66475 0.21612 0.0
N5 N 0.01351 0.69498 0.23997 0.0
C6 C 0.02963 0.67347 0.22592 0.0
C7 C 0.00215 0.67135 0.21848 0.0
C8 C 0.02777 0.68875 0.23791 0.0
C9 C 0.00078 0.68667 0.2306 0.0
C10 C 0.03146 0.60781 0.23154 0.0
C11 C 0.04823 0.59593 0.28242 0.0
N12 N 0.03581 0.59024 0.303 0.0
C13 C 0.01888 0.60177 0.25312 0.0
C14 C 0.04627 0.60479 0.24616 0.0
C15 C 0.02132 0.59293 0.28918 0.0
C16 C 0.98675 0.61296 0.15729 0.0
N17 N 0.99255 0.62317 0.18534 0.0
C18 C 0.97032 0.62096 0.22876 0.0
C19 C 0.98467 0.62735 0.22044 0.0
C20 C 0.96405 0.61033 0.20039 0.0
C21 C 0.97238 0.60646 0.16405 0.0
H22 H 0.99342 0.60973 0.12996 0.0
H23 H 0.98971 0.63538 0.24239 0.0
C24 C 0.06007 0.64433 0.27293 0.0
N25 N 0.04538 0.63966 0.26731 0.0
C26 C 0.06729 0.64208 0.31164 0.0
C27 C 0.04347 0.63221 0.33939 0.0
C28 C 0.03674 0.63466 0.30015 0.0
C29 C 0.05916 0.63519 0.34479 0.0
H30 H 0.06644 0.64902 0.24678 0.0
H31 H 0.02491 0.6315 0.29502 0.0
C32 C 0.01296 0.64082 0.08436 0.0
N33 N -0.00057 0.65688 0.01915 0.0
C34 C 0.02176 0.64586 0.05024 0.0
C35 C 0.99725 0.64393 0.08516 0.0
C36 C 0.01472 0.65399 0.01767 0.0
C37 C 0.99063 0.65204 0.05189 0.0
C38 C 0.06403 0.63919 0.14618 0.0
C39 C 0.06659 0.6415 0.10312 0.0
C40 C 0.07531 0.63195 0.17032 0.0
C41 C 0.08038 0.6367 0.08513 0.0
C42 C 0.08897 0.62735 0.15118 0.0
N43 N 0.0912 0.62979 0.10933 0.0
C44 C 0.04219 0.67557 0.10503 0.0
C45 C 0.01524 0.67685 0.11324 0.0
C46 C 0.04195 0.68799 0.07752 0.0
N47 N 0.02888 0.66982 0.12059 0.0
C48 C 0.0145 0.68952 0.0865 0.0
C49 C 0.02793 0.6948 0.06721 0.0
H50 H 0.05294 0.67021 0.11278 0.0
H51 H 0.00483 0.67217 0.12642 0.0
C52 C 0.06008 0.60107 0.13027 0.0
N53 N 0.04955 0.61031 0.11164 0.0
C54 C 0.07 0.59225 0.10577 0.0
C55 C 0.05728 0.60172 0.04342 0.0
C56 C 0.04765 0.61038 0.06916 0.0
C57 C 0.06891 0.59282 0.06169 0.0
H58 H 0.06132 0.60108 0.16404 0.0
H59 H 0.03906 0.61764 0.0551 0.0
O60 O 0.01828 0.64988 0.20348 0.0
O61 O 0.02924 0.61672 0.19654 0.0
O62 O 0.01967 0.63304 0.11699 0.0
O63 O 0.0504 0.64354 0.16418 0.0
H64 H 0.04097 0.66855 0.22383 0.0
H65 H 0.99205 0.66474 0.21073 0.0
H66 H 0.03767 0.69567 0.24545 0.0
H67 H 0.9896 0.69196 0.23247 0.0
H68 H 0.05961 0.59371 0.29441 0.0
H69 H 0.00735 0.60388 0.24222 0.0
H70 H 0.05613 0.60963 0.23057 0.0
H71 H 0.01168 0.58822 0.30622 0.0
H72 H 0.96423 0.62422 0.2571 0.0
H73 H 0.96804 0.59812 0.14179 0.0
H74 H 0.07937 0.64468 0.31452 0.0
H75 H 0.0367 0.62724 0.36449 0.0
H76 H 0.03395 0.6438 0.0492 0.0
H77 H 0.99026 0.64036 0.11145 0.0
H78 H 0.02144 0.65808 0.99133 0.0
H79 H 0.9785 0.65458 0.05225 0.0
H80 H 0.05791 0.64662 0.08346 0.0
H81 H 0.07347 0.6295 0.20323 0.0
H82 H 0.08242 0.63835 0.05182 0.0
H83 H 0.09773 0.62168 0.16952 0.0
H84 H 0.05255 0.69201 0.06364 0.0
H85 H 0.0035 0.6946 0.0792 0.0
H86 H 0.07864 0.58533 0.12115 0.0
H87 H 0.05606 0.60254 0.00955 0.0
Li88 Li 0.8652 0.0071 0.6767 0.0
Li89 Li 0.85887 0.02891 0.71675 0.0
Li90 Li 0.84217 0.01915 0.66056 0.0
Li91 Li 0.86651 0.03235 0.64147 0.0
C92 C 0.84798 0.99614 0.7369 0.0
N93 N 0.8503 0.96881 0.78031 0.0
C94 C 0.85363 0.99594 0.7781 0.0
C95 C 0.84345 0.98243 0.71787 0.0
C96 C 0.85471 0.98201 0.79951 0.0
C97 C 0.84475 0.96873 0.74029 0.0
C98 C 0.89311 0.01917 0.69245 0.0
C99 C 0.91421 0.00551 0.66087 0.0
N100 N 0.922 0.0064 0.69789 0.0
C101 C 0.90132 0.01992 0.73021 0.0
C102 C 0.8996 0.0119 0.65749 0.0
C103 C 0.91592 0.01341 0.7323 0.0
C104 C 0.8747 0.97742 0.64927 0.0
N105 N 0.87544 0.98774 0.68122 0.0
C106 C 0.89132 0.97095 0.72141 0.0
C107 C 0.8834 0.98469 0.71703 0.0
C108 C 0.89079 0.95997 0.68902 0.0
C109 C 0.88218 0.96333 0.6527 0.0
H110 H 0.86833 0.98011 0.62109 0.0
H111 H 0.88374 0.99303 0.74213 0.0
C112 C 0.85112 0.03818 0.80145 0.0
N113 N 0.86083 0.03959 0.76821 0.0
C114 C 0.85431 0.04576 0.83929 0.0
C115 C 0.87698 0.05648 0.80694 0.0
C116 C 0.87334 0.04877 0.76998 0.0
C117 C 0.86755 0.05488 0.84252 0.0
H118 H 0.84112 0.03093 0.79885 0.0
H119 H 0.88072 0.04981 0.74277 0.0
C120 C 0.84988 0.00938 0.58462 0.0
N121 N 0.83146 0.00346 0.51571 0.0
C122 C 0.84886 0.02 0.55181 0.0
C123 C 0.84168 0.99566 0.58212 0.0
C124 C 0.83946 0.01681 0.51729 0.0
C125 C 0.83238 0.99291 0.54711 0.0
C126 C 0.84186 0.05223 0.69282 0.0
C127 C 0.82772 0.05014 0.71259 0.0
C128 C 0.84966 0.0661 0.69742 0.0
C129 C 0.82159 0.06202 0.73678 0.0
C130 C 0.84315 0.07769 0.72191 0.0
N131 N 0.82937 0.07542 0.74092 0.0
C132 C 0.81346 0.00439 0.64628 0.0
C133 C 0.81736 0.02818 0.61191 0.0
C134 C 0.80022 0.00177 0.6227 0.0
N135 N 0.82195 0.01719 0.63942 0.0
C136 C 0.80414 0.0261 0.58798 0.0
C137 C 0.79567 0.01254 0.59236 0.0
H138 H 0.81737 0.99586 0.66836 0.0
H139 H 0.82447 0.03815 0.6068 0.0
C140 C 0.8908 0.04591 0.59404 0.0
N141 N 0.87575 0.04676 0.60467 0.0
C142 C 0.89744 0.05727 0.56916 0.0
C143 C 0.873 0.07025 0.56682 0.0
C144 C 0.86681 0.05858 0.59151 0.0
C145 C 0.88852 0.06969 0.55543 0.0
H146 H 0.89774 0.03657 0.60525 0.0
H147 H 0.85487 0.05898 0.60051 0.0
O148 O 0.84697 0.00966 0.71533 0.0
O149 O 0.87868 0.02522 0.69003 0.0
O150 O 0.8587 0.0125 0.61923 0.0
O151 O 0.84826 0.04057 0.67014 0.0
H152 H 0.85734 0.00638 0.79322 0.0
H153 H 0.83934 0.98229 0.68576 0.0
H154 H 0.85914 0.98169 0.83133 0.0
H155 H 0.84142 0.95803 0.72577 0.0
H156 H 0.91932 -0.00023 0.63414 0.0
H157 H 0.89642 0.02533 0.75775 0.0
H158 H 0.89327 0.01092 0.6283 0.0
H159 H 0.92238 0.01388 0.76134 0.0
H160 H 0.89804 0.96918 0.74962 0.0
H161 H 0.88119 0.9552 0.62711 0.0
H162 H 0.84663 0.04437 0.86579 0.0
H163 H 0.88743 0.06314 0.80797 0.0
H164 H 0.85514 0.03065 0.55313 0.0
H165 H 0.84222 0.98737 0.60737 0.0
H166 H 0.83849 0.02497 0.49181 0.0
H167 H 0.82582 0.98244 0.54504 0.0
H168 H 0.82162 0.03941 0.7096 0.0
H169 H 0.8607 0.06781 0.68266 0.0
H170 H 0.81067 0.06056 0.75238 0.0
H171 H 0.84908 0.08846 0.72594 0.0
H172 H 0.79386 0.99126 0.62728 0.0
H173 H 0.80107 0.03462 0.56468 0.0
H174 H 0.90949 0.0565 0.56139 0.0
H175 H 0.86569 0.07953 0.55643 0.0
Li176 Li 0.48868 0.8623 0.16727 0.0
Li177 Li 0.46144 0.85983 0.18488 0.0
Li178 Li 0.47524 0.83956 0.14825 0.0
Li179 Li 0.46885 0.86345 0.11211 0.0
C180 C 0.48018 0.83425 0.22749 0.0
N181 N 0.48218 0.80634 0.26792 0.0
C182 C 0.4675 0.82836 0.24889 0.0
C183 C 0.49391 0.82603 0.22685 0.0
C184 C 0.46874 0.81421 0.26912 0.0
C185 C 0.49467 0.81191 0.2474 0.0
C186 C 0.4668 0.88981 0.18081 0.0
C187 C 0.44655 0.90782 0.19563 0.0
N188 N 0.45504 0.91377 0.22759 0.0
C189 C 0.47537 0.89617 0.21364 0.0
C190 C 0.45232 0.89575 0.17149 0.0
C191 C 0.46922 0.90827 0.23694 0.0
C192 C 0.51359 0.88253 0.16179 0.0
N193 N 0.50726 0.8713 0.18568 0.0
C194 C 0.52631 0.87478 0.23881 0.0
C195 C 0.51334 0.86726 0.22346 0.0
C196 C 0.53317 0.88646 0.21481 0.0
C197 C 0.52675 0.89008 0.17539 0.0
H198 H 0.50829 0.88576 0.13233 0.0
H199 H 0.50784 0.85852 0.24223 0.0
C200 C 0.43145 0.86537 0.21562 0.0
N201 N 0.44657 0.86547 0.22559 0.0
C202 C 0.4209 0.87282 0.24151 0.0
C203 C 0.44158 0.87928 0.28896 0.0
C204 C 0.4517 0.87164 0.26223 0.0
C205 C 0.42603 0.8804 0.27793 0.0
H206 H 0.42765 0.86014 0.18666 0.0
H207 H 0.46382 0.87153 0.26925 0.0
C208 C 0.50258 0.85509 0.0956 0.0
N209 N 0.53146 0.86202 0.06556 0.0
C210 C 0.50433 0.86534 0.06216 0.0
C211 C 0.51551 0.84826 0.11354 0.0
C212 C 0.51904 0.86871 0.04747 0.0
C213 C 0.53002 0.85194 0.09799 0.0
C214 C 0.44356 0.84621 0.10583 0.0
C215 C 0.4431 0.83297 0.08109 0.0
C216 C 0.43294 0.85791 0.09861 0.0
C217 C 0.43203 0.83167 0.04952 0.0
C218 C 0.42208 0.85618 0.06666 0.0
N219 N 0.42185 0.84321 0.04299 0.0
C220 C 0.46577 0.80848 0.1527 0.0
C221 C 0.4891 0.81309 0.11669 0.0
C222 C 0.46618 0.79305 0.14117 0.0
N223 N 0.477 0.81816 0.13962 0.0
C224 C 0.49001 0.79779 0.10461 0.0
C225 C 0.47823 0.78764 0.11588 0.0
H226 H 0.45615 0.8129 0.17041 0.0
H227 H 0.49779 0.82103 0.10642 0.0
C228 C 0.46264 0.88848 0.05974 0.0
N229 N 0.46317 0.87294 0.06059 0.0
C230 C 0.45748 0.89608 0.02384 0.0
C231 C 0.45377 0.87154 0.99002 0.0
C232 C 0.45938 0.86443 0.02625 0.0
C233 C 0.45269 0.88754 0.98887 0.0
H234 H 0.46605 0.89498 0.08713 0.0
H235 H 0.46036 0.8521 0.02733 0.0
O236 O 0.47911 0.84792 0.2068 0.0
O237 O 0.47243 0.87767 0.15838 0.0
O238 O 0.48829 0.85172 0.11061 0.0
O239 O 0.45436 0.84772 0.13682 0.0
H240 H 0.45679 0.83459 0.24954 0.0
H241 H 0.5038 0.83044 0.21028 0.0
H242 H 0.45901 0.80947 0.28566 0.0
H243 H 0.50519 0.80537 0.24697 0.0
H244 H 0.4353 0.91241 0.18906 0.0
H245 H 0.48656 0.89169 0.22142 0.0
H246 H 0.44553 0.89096 0.14624 0.0
H247 H 0.47568 0.91323 0.2626 0.0
H248 H 0.53057 0.87176 0.26973 0.0
H249 H 0.53171 0.89877 0.15528 0.0
H250 H 0.40896 0.87311 0.23235 0.0
H251 H 0.44608 0.88503 0.31652 0.0
H252 H 0.49447 0.87071 0.04782 0.0
H253 H 0.51437 0.84036 0.13963 0.0
H254 H 0.52057 0.87668 0.02172 0.0
H255 H 0.54012 0.84684 0.11179 0.0
H256 H 0.45128 0.82386 0.08586 0.0
H257 H 0.43326 0.86833 0.11694 0.0
H258 H 0.43158 0.8215 0.03008 0.0
H259 H 0.41388 0.8652 0.06055 0.0
H260 H 0.45678 0.78565 0.15015 0.0
H261 H 0.49961 0.79405 0.08563 0.0
H262 H 0.45682 0.90847 0.0238 0.0
H263 H 0.45033 0.86466 0.96325 0.0
Li264 Li 0.63009 0.4826 0.67247 0.0
Li265 Li 0.63906 0.45988 0.70499 0.0
Li266 Li 0.65149 0.46981 0.63806 0.0
Li267 Li 0.62518 0.45803 0.63993 0.0
C268 C 0.65516 0.49298 0.7124 0.0
N269 N 0.66329 0.52103 0.74617 0.0
C270 C 0.64755 0.49868 0.74787 0.0
C271 C 0.6669 0.50161 0.6941 0.0
C272 C 0.65182 0.51287 0.76445 0.0
C273 C 0.67086 0.51573 0.71166 0.0
C274 C 0.61078 0.46123 0.73128 0.0
C275 C 0.60004 0.44162 0.77604 0.0
N276 N 0.59814 0.45212 0.80722 0.0
C277 C 0.60873 0.47181 0.76389 0.0
C278 C 0.60644 0.44598 0.73752 0.0
C279 C 0.60232 0.46699 0.80198 0.0
C280 C 0.60598 0.50271 0.69167 0.0
N281 N 0.62096 0.50244 0.68006 0.0
C282 C 0.62216 0.52978 0.68261 0.0
C283 C 0.6289 0.51565 0.67374 0.0
C284 C 0.60696 0.53031 0.69686 0.0
C285 C 0.59874 0.51656 0.70047 0.0
H286 H 0.59969 0.49211 0.6947 0.0
H287 H 0.64053 0.51524 0.66231 0.0
C288 C 0.64105 0.43394 0.75797 0.0
N289 N 0.64217 0.44945 0.75742 0.0
C290 C 0.63823 0.42627 0.79576 0.0
C291 C 0.63959 0.4505 0.83227 0.0
C292 C 0.64235 0.45768 0.79376 0.0
C293 C 0.63669 0.4347 0.83321 0.0
H294 H 0.64112 0.42762 0.72878 0.0
H295 H 0.64332 0.46995 0.79266 0.0
C296 C 0.62589 0.48884 0.59179 0.0
N297 N 0.61242 0.51374 0.55316 0.0
C298 C 0.61002 0.48934 0.58645 0.0
C299 C 0.63494 0.50093 0.57729 0.0
C300 C 0.60342 0.50205 0.5669 0.0
C301 C 0.6279 0.51344 0.55786 0.0
C302 C 0.64471 0.4351 0.63039 0.0
C303 C 0.65423 0.43316 0.59538 0.0
C304 C 0.63423 0.4236 0.64087 0.0
C305 C 0.65293 0.4199 0.57103 0.0
C306 C 0.63325 0.41052 0.61568 0.0
N307 N 0.64253 0.40896 0.58155 0.0
C308 C 0.68341 0.47319 0.61876 0.0
C309 C 0.66616 0.47237 0.56119 0.0
C310 C 0.69577 0.47527 0.59135 0.0
N311 N 0.66896 0.47203 0.60325 0.0
C312 C 0.67817 0.4741 0.53267 0.0
C313 C 0.69324 0.47579 0.54753 0.0
H314 H 0.6853 0.47272 0.65241 0.0
H315 H 0.65456 0.47114 0.54977 0.0
C316 C 0.59862 0.44021 0.62084 0.0
N317 N 0.61166 0.44652 0.60523 0.0
C318 C 0.58986 0.43037 0.59597 0.0
C319 C 0.60751 0.43461 0.53848 0.0
C320 C 0.61603 0.44421 0.56465 0.0
C321 C 0.59438 0.42727 0.5543 0.0
H322 H 0.59516 0.44256 0.6528 0.0
H323 H 0.62636 0.44955 0.55297 0.0
O324 O 0.65126 0.47903 0.69582 0.0
O325 O 0.61719 0.46571 0.69377 0.0
O326 O 0.63251 0.4767 0.61187 0.0
O327 O 0.64559 0.4482 0.65404 0.0
H328 H 0.63816 0.49246 0.7618 0.0
H329 H 0.6728 0.49756 0.66637 0.0
H330 H 0.64593 0.51745 0.79166 0.0
H331 H 0.6799 0.52252 0.69773 0.0
H332 H 0.5967 0.42984 0.78124 0.0
H333 H 0.61219 0.4836 0.76016 0.0
H334 H 0.60831 0.43749 0.71334 0.0
H335 H 0.60074 0.47506 0.82745 0.0
H336 H 0.62876 0.54017 0.67846 0.0
H337 H 0.58696 0.51647 0.71121 0.0
H338 H 0.63634 0.41402 0.79527 0.0
H339 H 0.63845 0.45746 0.86032 0.0
H340 H 0.60288 0.48007 0.59772 0.0
H341 H 0.64724 0.50075 0.5815 0.0
H342 H 0.59114 0.50265 0.56276 0.0
H343 H 0.63474 0.52293 0.54669 0.0
H344 H 0.66256 0.44178 0.58704 0.0
H345 H 0.62663 0.42492 0.66748 0.0
H346 H 0.66019 0.41831 0.54376 0.0
H347 H 0.62504 0.40165 0.62312 0.0
H348 H 0.70712 0.47668 0.60449 0.0
H349 H 0.67561 0.47396 0.49932 0.0
H350 H 0.57988 0.42497 0.60971 0.0
H351 H 0.61124 0.43294 0.50629 0.0
Li352 Li 0.02314 0.8368 0.83904 0.0
Li353 Li 0.03254 0.86258 0.85327 0.0
Li354 Li 0.00811 0.85804 0.81685 0.0
Li355 Li 0.03251 0.85295 0.78189 0.0
C356 C 0.00159 0.85824 0.89713 0.0
N357 N 0.97649 0.87045 0.93812 0.0
C358 C 0.0031 0.87162 0.9209 0.0
C359 C 0.98734 0.85101 0.89439 0.0
C360 C 0.99027 0.87762 0.94137 0.0
C361 C 0.97478 0.85739 0.91526 0.0
C362 C 0.05794 0.84533 0.84986 0.0
C363 C 0.08227 0.8576 0.86257 0.0
N364 N 0.08546 0.847 0.89269 0.0
C365 C 0.06146 0.83457 0.88101 0.0
C366 C 0.06844 0.85693 0.84055 0.0
C367 C 0.07544 0.83561 0.90226 0.0
C368 C 0.03338 0.80644 0.84612 0.0
N369 N 0.02255 0.81646 0.85959 0.0
C370 C 0.01124 0.79735 0.90341 0.0
C371 C 0.01155 0.81224 0.8875 0.0
C372 C 0.02252 0.78679 0.8909 0.0
C373 C 0.03365 0.79151 0.86163 0.0
H374 H 0.042 0.81016 0.82386 0.0
H375 H 0.00304 0.82044 0.89751 0.0
C376 C 0.04581 0.89016 0.88262 0.0
N377 N 0.04354 0.87515 0.89175 0.0
C378 C 0.05547 0.89905 0.90769 0.0
C379 C 0.05995 0.87693 0.95167 0.0
C380 C 0.04988 0.86861 0.92642 0.0
C381 C 0.06309 0.89236 0.94217 0.0
H382 H 0.04031 0.89518 0.85544 0.0
H383 H 0.04762 0.85672 0.93343 0.0
C384 C 0.01105 0.8255 0.77123 0.0
N385 N 0.00624 0.7951 0.75129 0.0
C386 C 0.02163 0.81764 0.74624 0.0
C387 C 0.998 0.81794 0.78594 0.0
C388 C 0.01899 0.80227 0.73651 0.0
C389 C 0.99579 0.80255 0.77558 0.0
C390 C 0.02745 0.88251 0.77037 0.0
C391 C 0.01595 0.88594 0.74123 0.0
C392 C 0.04215 0.88852 0.76466 0.0
C393 C 0.01939 0.89521 0.70663 0.0
C394 C 0.04515 0.89769 0.72955 0.0
N395 N 0.0338 0.90081 0.70151 0.0
C396 C 0.9844 0.88001 0.82055 0.0
C397 C 0.9795 0.85859 0.77664 0.0
C398 C 0.97119 0.88729 0.806 0.0
N399 N 0.98836 0.86603 0.80527 0.0
C400 C 0.96629 0.8655 0.76094 0.0
C401 C 0.96221 0.8802 0.77489 0.0
H402 H 0.99192 0.88586 0.8423 0.0
H403 H 0.98313 0.84765 0.76427 0.0
C404 C 0.05763 0.85511 0.72505 0.0
N405 N 0.04216 0.85421 0.72857 0.0
C406 C 0.06426 0.85954 0.68698 0.0
C407 C 0.03897 0.86072 0.65611 0.0
C408 C 0.03284 0.8563 0.69479 0.0
C409 C 0.05484 0.86293 0.65237 0.0
H410 H 0.06478 0.85313 0.7522 0.0
H411 H 0.02056 0.8555 0.69868 0.0
O412 O 0.01399 0.85226 0.87656 0.0
O413 O 0.04424 0.84458 0.82894 0.0
O414 O 0.01364 0.84042 0.78207 0.0
O415 O 0.02444 0.87307 0.80379 0.0
H416 H 0.01404 0.87736 0.92338 0.0
H417 H 0.98594 0.84073 0.87575 0.0
H418 H 0.99125 0.888 0.95977 0.0
H419 H 0.96366 0.85198 0.91316 0.0
H420 H 0.09043 0.86659 0.85588 0.0
H421 H 0.05344 0.82564 0.88918 0.0
H422 H 0.06581 0.86555 0.81725 0.0
H423 H 0.07828 0.82739 0.92651 0.0
H424 H 0.00227 0.79419 0.92528 0.0
H425 H 0.04273 0.78391 0.85153 0.0
H426 H 0.05701 0.911 0.89979 0.0
H427 H 0.06556 0.8711 0.97746 0.0
H428 H 0.03184 0.8233 0.73487 0.0
H429 H 0.98978 0.82383 0.80568 0.0
H430 H 0.0271 0.79601 0.71735 0.0
H431 H 0.9858 0.79652 0.78698 0.0
H432 H 0.00454 0.88133 0.74483 0.0
H433 H 0.05121 0.88595 0.78674 0.0
H434 H 0.01062 0.89787 0.6837 0.0
H435 H 0.05651 0.90227 0.72452 0.0
H436 H 0.96858 0.89874 0.817 0.0
H437 H 0.95964 0.85968 0.737 0.0
H438 H 0.07658 0.86084 0.68509 0.0
H439 H 0.03129 0.86333 0.63032 0.0
Li440 Li 0.65762 0.02157 0.34888 0.0
Li441 Li 0.63396 0.03291 0.3728 0.0
Li442 Li 0.63352 0.00939 0.32982 0.0
Li443 Li 0.63989 0.03401 0.30004 0.0
C444 C 0.6476 -0.00114 0.40273 0.0
N445 N 0.65859 0.97152 0.43433 0.0
C446 C 0.64585 0.99539 0.44541 0.0
C447 C 0.655 0.98846 0.37611 0.0
C448 C 0.65147 0.9815 0.46079 0.0
C449 C 0.66045 0.97469 0.3927 0.0
C450 C 0.65315 0.0566 0.36922 0.0
C451 C 0.64303 0.0809 0.39251 0.0
N452 N 0.65553 0.08289 0.41743 0.0
C453 C 0.66603 0.05905 0.39445 0.0
C454 C 0.64169 0.06777 0.36765 0.0
C455 C 0.66698 0.07235 0.41879 0.0
C456 C 0.68944 0.01125 0.34615 0.0
N457 N 0.67776 0.01756 0.36864 0.0
C458 C 0.69314 0.01831 0.43072 0.0
C459 C 0.6793 0.02083 0.41025 0.0
C460 C 0.7055 0.01209 0.40834 0.0
C461 C 0.70353 0.00839 0.3656 0.0
H462 H 0.68783 0.00829 0.31343 0.0
H463 H 0.66967 0.02542 0.42757 0.0
C464 C 0.61153 0.05068 0.41454 0.0
N465 N 0.62516 0.04337 0.41902 0.0
C466 C 0.60615 0.06028 0.44634 0.0
C467 C 0.6285 0.05391 0.48775 0.0
C468 C 0.63352 0.04454 0.45494 0.0
C469 C 0.61479 0.0622 0.48334 0.0
H470 H 0.60511 0.04949 0.38569 0.0
H471 H 0.64434 0.03858 0.45746 0.0
C472 C 0.66248 0.01557 0.2631 0.0
N473 N 0.68594 0.0184 0.20518 0.0
C474 C 0.67077 0.02923 0.26027 0.0
C475 C 0.66611 0.00337 0.23641 0.0
C476 C 0.68259 0.03043 0.23079 0.0
C477 C 0.67802 0.00502 0.20737 0.0
C478 C 0.60897 0.03226 0.29881 0.0
C479 C 0.60134 0.02156 0.2737 0.0
C480 C 0.60517 0.04778 0.29537 0.0
C481 C 0.59026 0.02656 0.24508 0.0
C482 C 0.59405 0.05233 0.26632 0.0
N483 N 0.5869 0.04172 0.24194 0.0
C484 C 0.61688 0.98278 0.35244 0.0
C485 C 0.6236 0.98479 0.2802 0.0
C486 C 0.60932 0.96897 0.34495 0.0
N487 N 0.62377 0.99036 0.32018 0.0
C488 C 0.61585 0.97122 0.27112 0.0
C489 C 0.60859 0.96321 0.30377 0.0
H490 H 0.61711 0.98756 0.38387 0.0
H491 H 0.62916 0.99113 0.25523 0.0
C492 C 0.64063 0.06151 0.25399 0.0
N493 N 0.63733 0.04635 0.25124 0.0
C494 C 0.63458 0.07172 0.22468 0.0
C495 C 0.62323 0.05031 0.18782 0.0
C496 C 0.62964 0.0405 0.21769 0.0
C497 C 0.625 0.06623 0.19248 0.0
H498 H 0.64708 0.0658 0.28048 0.0
H499 H 0.62726 0.02836 0.21632 0.0
O500 O 0.6423 0.01252 0.38745 0.0
O501 O 0.65187 0.04347 0.34578 0.0
O502 O 0.65082 0.01403 0.29155 0.0
O503 O 0.61999 0.02755 0.32674 0.0
H504 H 0.64022 0.00338 0.46643 0.0
H505 H 0.65655 0.99097 0.34304 0.0
H506 H 0.65018 0.97866 0.49376 0.0
H507 H 0.66618 0.96653 0.37247 0.0
H508 H 0.63412 0.0895 0.39202 0.0
H509 H 0.67531 0.0509 0.39498 0.0
H510 H 0.63175 0.06623 0.34795 0.0
H511 H 0.67686 0.07432 0.43864 0.0
H512 H 0.69408 0.021 0.46394 0.0
H513 H 0.71281 0.00348 0.34741 0.0
H514 H 0.5956 0.06653 0.44127 0.0
H515 H 0.63539 0.05476 0.51601 0.0
H516 H 0.66818 0.03881 0.28058 0.0
H517 H 0.6598 0.99272 0.23821 0.0
H518 H 0.6891 0.04093 0.22829 0.0
H519 H 0.68097 0.99566 0.18656 0.0
H520 H 0.6039 0.00951 0.2762 0.0
H521 H 0.6109 0.05627 0.31433 0.0
H522 H 0.58434 0.01838 0.22534 0.0
H523 H 0.59118 0.06431 0.26299 0.0
H524 H 0.60369 0.9631 0.37071 0.0
H525 H 0.61545 0.96706 0.23899 0.0
H526 H 0.63662 0.08386 0.22868 0.0
H527 H 0.61592 0.04555 0.1636 0.0
Li528 Li 0.47479 0.65418 0.84723 0.0
Li529 Li 0.46447 0.62917 0.84947 0.0
Li530 Li 0.4904 0.63431 0.81955 0.0
Li531 Li 0.46754 0.6426 0.78311 0.0
C532 C 0.48877 0.643 0.91369 0.0
N533 N 0.49948 0.65793 0.98454 0.0
C534 C 0.48015 0.64296 0.95079 0.0
C535 C 0.50291 0.65049 0.91273 0.0
C536 C 0.48574 0.65062 0.98623 0.0
C537 C 0.50811 0.65799 0.94887 0.0
C538 C 0.43918 0.64463 0.82012 0.0
C539 C 0.42047 0.62774 0.78897 0.0
N540 N 0.40925 0.63797 0.79853 0.0
C541 C 0.42746 0.65496 0.82964 0.0
C542 C 0.43566 0.63088 0.79965 0.0
C543 C 0.4124 0.65139 0.81848 0.0
C544 C 0.48661 0.68225 0.88107 0.0
N545 N 0.47475 0.67217 0.88062 0.0
C546 C 0.46267 0.68499 0.93805 0.0
C547 C 0.46278 0.67348 0.90769 0.0
C548 C 0.475 0.69526 0.94043 0.0
C549 C 0.48695 0.694 0.91091 0.0
H550 H 0.49608 0.68076 0.85948 0.0
H551 H 0.45359 0.6652 0.90668 0.0
C552 C 0.44925 0.6012 0.87773 0.0
N553 N 0.45105 0.61659 0.882 0.0
C554 C 0.43851 0.59342 0.90236 0.0
C555 C 0.43128 0.61751 0.93398 0.0
C556 C 0.44233 0.62475 0.90941 0.0
C557 C 0.4293 0.60158 0.93099 0.0
H558 H 0.45597 0.5949 0.85516 0.0
H559 H 0.4438 0.63702 0.91164 0.0
C560 C 0.48527 0.66851 0.77414 0.0
N561 N 0.48279 0.69655 0.73441 0.0
C562 C 0.47203 0.67735 0.77902 0.0
C563 C 0.49724 0.67396 0.74907 0.0
C564 C 0.471 0.69148 0.75868 0.0
C565 C 0.49577 0.68816 0.72924 0.0
C566 C 0.47706 0.60604 0.79889 0.0
C567 C 0.48571 0.60055 0.83276 0.0
C568 C 0.4721 0.59588 0.76773 0.0
C569 C 0.48932 0.58499 0.83471 0.0
C570 C 0.47591 0.58039 0.77089 0.0
N571 N 0.48438 0.57531 0.804 0.0
C572 C 0.51978 0.62146 0.83949 0.0
C573 C 0.51331 0.62409 0.76727 0.0
C574 C 0.5334 0.61398 0.82887 0.0
N575 N 0.51005 0.62616 0.8087 0.0
C576 C 0.5267 0.61659 0.75526 0.0
C577 C 0.53681 0.61122 0.78628 0.0
H578 H 0.51672 0.62298 0.87222 0.0
H579 H 0.50523 0.62787 0.74361 0.0
C580 C 0.44731 0.65412 0.71956 0.0
N581 N 0.45876 0.64413 0.72879 0.0
C582 C 0.4388 0.6523 0.68263 0.0
C583 C 0.45465 0.63057 0.66461 0.0
C584 C 0.46294 0.63293 0.70151 0.0
C585 C 0.44201 0.63997 0.65545 0.0
H586 H 0.44416 0.66289 0.74198 0.0
H587 H 0.47211 0.62518 0.70977 0.0
O588 O 0.4833 0.63594 0.87829 0.0
O589 O 0.45397 0.64813 0.83075 0.0
O590 O 0.48665 0.65461 0.79361 0.0
O591 O 0.47365 0.62129 0.7956 0.0
H592 H 0.46921 0.63719 0.9521 0.0
H593 H 0.50965 0.65077 0.88411 0.0
H594 H 0.47913 0.65079 0.01506 0.0
H595 H 0.51897 0.66396 0.94847 0.0
H596 H 0.41759 0.61718 0.77306 0.0
H597 H 0.43 0.66565 0.84545 0.0
H598 H 0.44451 0.62272 0.79192 0.0
H599 H 0.40323 0.65929 0.82565 0.0
H600 H 0.45313 0.68572 0.95976 0.0
H601 H 0.49671 0.70164 0.91191 0.0
H602 H 0.43756 0.58112 0.89917 0.0
H603 H 0.42426 0.62441 0.95469 0.0
H604 H 0.46264 0.67341 0.79831 0.0
H605 H 0.50757 0.66725 0.74497 0.0
H606 H 0.46082 0.69843 0.76219 0.0
H607 H 0.50496 0.6925 0.70973 0.0
H608 H 0.48953 0.60815 0.85746 0.0
H609 H 0.46534 0.59991 0.74139 0.0
H610 H 0.49601 0.58059 0.8607 0.0
H611 H 0.47214 0.57241 0.74699 0.0
H612 H 0.54081 0.60981 0.85368 0.0
H613 H 0.52899 0.61476 0.7221 0.0
H614 H 0.42934 0.66001 0.67655 0.0
H615 H 0.45751 0.62079 0.6452 0.0
Li616 Li 0.84025 0.47711 0.34129 0.0
Li617 Li 0.86498 0.46746 0.3655 0.0
Li618 Li 0.86309 0.49129 0.32506 0.0
Li619 Li 0.8591 0.46659 0.2916 0.0
C620 C 0.85912 0.49947 0.40213 0.0
N621 N 0.86942 0.52587 0.44068 0.0
C622 C 0.87297 0.49943 0.42418 0.0
C623 C 0.85048 0.5129 0.39976 0.0
C624 C 0.87798 0.5129 0.44346 0.0
C625 C 0.85589 0.52614 0.41943 0.0
C626 C 0.84686 0.44304 0.36102 0.0
C627 C 0.85718 0.41917 0.38663 0.0
N628 N 0.84486 0.4176 0.41247 0.0
C629 C 0.83426 0.44114 0.38769 0.0
C630 C 0.85837 0.43192 0.36027 0.0
C631 C 0.83347 0.42821 0.41348 0.0
C632 C 0.80787 0.47251 0.33374 0.0
N633 N 0.81935 0.47838 0.3578 0.0
C634 C 0.80161 0.48529 0.4118 0.0
C635 C 0.81652 0.48463 0.39624 0.0
C636 C 0.78952 0.47961 0.38734 0.0
C637 C 0.79271 0.47325 0.34771 0.0
H638 H 0.81049 0.46713 0.30393 0.0
H639 H 0.82588 0.48888 0.41515 0.0
C640 C 0.88872 0.45225 0.4122 0.0
N641 N 0.87405 0.45745 0.41227 0.0
C642 C 0.89427 0.44386 0.44645 0.0
C643 C 0.8696 0.44665 0.48019 0.0
C644 C 0.86464 0.45516 0.44572 0.0
C645 C 0.88458 0.44076 0.48087 0.0
H646 H 0.89605 0.45449 0.38548 0.0
H647 H 0.85307 0.45957 0.44495 0.0
C648 C 0.83301 0.48897 0.2674 0.0
N649 N 0.80487 0.49555 0.23186 0.0
C650 C 0.82731 0.47993 0.23461 0.0
C651 C 0.82438 0.50136 0.28212 0.0
C652 C 0.81308 0.48345 0.21703 0.0
C653 C 0.81018 0.50448 0.26377 0.0
C654 C 0.8889 0.47024 0.2904 0.0
C655 C 0.89356 0.48066 0.25954 0.0
C656 C 0.8948 0.45536 0.29012 0.0
C657 C 0.90403 0.476 0.22882 0.0
C658 C 0.9052 0.45113 0.25878 0.0
N659 N 0.90956 0.46144 0.22903 0.0
C660 C 0.88667 0.51334 0.32699 0.0
C661 C 0.86354 0.5219 0.29592 0.0
C662 C 0.89405 0.52689 0.31548 0.0
N663 N 0.8718 0.51099 0.31622 0.0
C664 C 0.87039 0.53568 0.28421 0.0
C665 C 0.88599 0.53815 0.29285 0.0
H666 H 0.893 0.50437 0.34279 0.0
H667 H 0.85178 0.51972 0.2875 0.0
C668 C 0.86406 0.44038 0.23985 0.0
N669 N 0.86267 0.45587 0.24042 0.0
C670 C 0.86912 0.43295 0.20346 0.0
C671 C 0.87043 0.45749 0.16844 0.0
C672 C 0.86544 0.46444 0.20553 0.0
C673 C 0.87263 0.44158 0.16738 0.0
H674 H 0.86177 0.43385 0.268 0.0
H675 H 0.86438 0.47677 0.20712 0.0
O676 O 0.85425 0.48653 0.38199 0.0
O677 O 0.84798 0.45578 0.33611 0.0
O678 O 0.84693 0.48571 0.28502 0.0
O679 O 0.87831 0.47445 0.32003 0.0
H680 H 0.87985 0.48914 0.42601 0.0
H681 H 0.83979 0.51313 0.38253 0.0
H682 H 0.88871 0.51307 0.4605 0.0
H683 H 0.84936 0.53665 0.41769 0.0
H684 H 0.86609 0.41057 0.3867 0.0
H685 H 0.82523 0.44961 0.38874 0.0
H686 H 0.86831 0.43328 0.34031 0.0
H687 H 0.82382 0.42664 0.43441 0.0
H688 H 0.79953 0.49026 0.44255 0.0
H689 H 0.78364 0.46858 0.3283 0.0
H690 H 0.906 0.43986 0.44591 0.0
H691 H 0.86159 0.44441 0.50547 0.0
H692 H 0.83374 0.47023 0.22303 0.0
H693 H 0.82846 0.50831 0.30799 0.0
H694 H 0.80852 0.47654 0.19168 0.0
H695 H 0.80335 0.51397 0.27504 0.0
H696 H 0.88895 0.49215 0.25881 0.0
H697 H 0.89116 0.44708 0.31336 0.0
H698 H 0.90766 0.48391 0.20461 0.0
H699 H 0.90974 0.43961 0.25796 0.0
H700 H 0.90612 0.52814 0.32236 0.0
H701 H 0.86365 0.54412 0.26749 0.0
H702 H 0.8705 0.42063 0.20373 0.0
H703 H 0.87317 0.46458 0.1415 0.0
Li704 Li 0.96473 0.35961 0.8613 0.0
Li705 Li 0.97524 0.33591 0.83835 0.0
Li706 Li 0.98771 0.36021 0.81868 0.0
Li707 Li 0.9624 0.35269 0.78861 0.0
C708 C 0.99169 0.35618 0.91168 0.0
N709 N 0.00506 0.36608 0.98576 0.0
C710 C 0.99137 0.34691 0.94757 0.0
C711 C -0.00091 0.37036 0.91329 0.0
C712 C 0.99811 0.35216 0.98477 0.0
C713 C 0.00571 0.3752 0.95107 0.0
C714 C 0.9454 0.33392 0.86709 0.0
C715 C 0.9241 0.31793 0.88722 0.0
N716 N 0.92967 0.31728 0.92718 0.0
C717 C 0.95089 0.33311 0.90835 0.0
C718 C 0.93188 0.32629 0.85639 0.0
C719 C 0.94279 0.32464 0.93828 0.0
C720 C 0.9377 0.37077 0.89292 0.0
N721 N 0.95275 0.36982 0.90348 0.0
C722 C 0.94837 0.38484 0.96533 0.0
C723 C 0.95821 0.3765 0.93919 0.0
C724 C 0.93284 0.38633 0.95441 0.0
C725 C 0.92751 0.37897 0.91798 0.0
H726 H 0.93367 0.36546 0.86421 0.0
H727 H 0.9702 0.37578 0.94692 0.0
C728 C 0.99393 0.31361 0.87266 0.0
N729 N 0.97993 0.31568 0.85493 0.0
C730 C 0.99761 0.29971 0.89173 0.0
C731 C 0.97257 0.29016 0.87239 0.0
C732 C 0.96944 0.3042 0.85326 0.0
C733 C 0.98668 0.28795 0.89277 0.0
H734 H 0.00201 0.32299 0.87352 0.0
H735 H 0.95846 0.30611 0.83853 0.0
C736 C 0.96183 0.38601 0.82184 0.0
N737 N 0.94657 0.41239 0.84553 0.0
C738 C 0.94756 0.38952 0.80436 0.0
C739 C 0.9684 0.39604 0.85101 0.0
C740 C 0.94002 0.40289 0.8168 0.0
C741 C 0.96049 0.40928 0.86271 0.0
C742 C 0.98154 0.33019 0.75422 0.0
C743 C 0.99412 0.32604 0.72952 0.0
C744 C 0.96791 0.32186 0.75118 0.0
C745 C 0.99285 0.3136 0.70207 0.0
C746 C 0.9671 0.30949 0.72338 0.0
N747 N 0.97948 0.30565 0.6996 0.0
C748 C 0.01891 0.36045 0.79706 0.0
C749 C 0.00707 0.38488 0.79948 0.0
C750 C 0.03263 0.36697 0.7832 0.0
N751 N 0.00652 0.36946 0.80464 0.0
C752 C 0.02057 0.39188 0.78625 0.0
C753 C 0.03352 0.38288 0.77759 0.0
H754 H 0.01802 0.34818 0.80098 0.0
H755 H 0.99694 0.3917 0.80481 0.0
C756 C 0.93452 0.35382 0.74531 0.0
N757 N 0.94991 0.3554 0.74089 0.0
C758 C 0.92467 0.36054 0.7161 0.0
C759 C 0.94674 0.36917 0.67662 0.0
C760 C 0.95618 0.36236 0.70674 0.0
C761 C 0.93079 0.36894 0.68233 0.0
H762 H 0.92992 0.34858 0.77344 0.0
H763 H 0.96847 0.36376 0.70484 0.0
O764 O 0.98532 0.35112 0.87483 0.0
O765 O 0.95323 0.34196 0.837 0.0
O766 O 0.96919 0.37273 0.81094 0.0
O767 O 0.98269 0.34227 0.78144 0.0
H768 H 0.98604 0.33573 0.9467 0.0
H769 H -0.00029 0.37757 0.88576 0.0
H770 H 0.99787 0.34513 0.01282 0.0
H771 H 0.01138 0.38619 0.9528 0.0
H772 H 0.91364 0.31194 0.87935 0.0
H773 H 0.96126 0.33898 0.91718 0.0
H774 H 0.9275 0.32673 0.82452 0.0
H775 H 0.94694 0.32392 0.97033 0.0
H776 H 0.95296 0.39045 0.993 0.0
H777 H 0.9156 0.37963 0.90869 0.0
H778 H 0.00856 0.29847 0.9074 0.0
H779 H 0.96392 0.28127 0.87222 0.0
H780 H 0.94226 0.38199 0.7817 0.0
H781 H 0.97937 0.39353 0.86512 0.0
H782 H 0.92893 0.40567 0.80368 0.0
H783 H 0.96539 0.41704 0.88558 0.0
H784 H 0.00476 0.33236 0.73159 0.0
H785 H 0.95806 0.32487 0.77009 0.0
H786 H 0.00249 0.31025 0.68275 0.0
H787 H 0.95664 0.30294 0.72073 0.0
H788 H 0.0424 0.35969 0.77679 0.0
H789 H 0.02072 0.40416 0.78154 0.0
H790 H 0.91242 0.36007 0.72141 0.0
H791 H 0.95191 0.37569 0.6513 0.0
Li792 Li 0.12944 0.96458 0.35883 0.0
Li793 Li 0.15375 0.97528 0.34171 0.0
Li794 Li 0.13088 0.98958 0.32563 0.0
Li795 Li 0.13702 0.96705 0.28623 0.0
C796 C 0.1436 0.98184 0.42232 0.0
N797 N 0.15501 0.97851 0.50297 0.0
C798 C 0.14883 0.96758 0.43613 0.0
C799 C 0.14418 0.99441 0.44949 0.0
C800 C 0.15455 0.96613 0.47703 0.0
C801 C 0.14998 0.99249 0.49017 0.0
C802 C 0.15784 0.94552 0.31176 0.0
C803 C 0.17976 0.94323 0.26589 0.0
N804 N 0.18047 0.928 0.27458 0.0
C805 C 0.15879 0.92985 0.3202 0.0
C806 C 0.1684 0.95228 0.28436 0.0
C807 C 0.17032 0.92119 0.30112 0.0
C808 C 0.11685 0.93685 0.3795 0.0
N809 N 0.1184 0.9513 0.39468 0.0
C810 C 0.10401 0.94491 0.45616 0.0
C811 C 0.11216 0.95555 0.43214 0.0
C812 C 0.10227 0.92984 0.44126 0.0
C813 C 0.10884 0.92587 0.4024 0.0
H814 H 0.12188 0.93388 0.34943 0.0
H815 H 0.11346 0.96718 0.44324 0.0
C816 C 0.17845 0.99193 0.37315 0.0
N817 N 0.17365 0.97743 0.36504 0.0
C818 C 0.19089 0.99447 0.39989 0.0
C819 C 0.19367 0.96707 0.40758 0.0
C820 C 0.18112 0.96507 0.38105 0.0
C821 C 0.19841 0.98193 0.4183 0.0
H822 H 0.17199 0.00153 0.36097 0.0
H823 H 0.17671 0.95368 0.37587 0.0
C824 C 0.10241 0.97492 0.32581 0.0
N825 N 0.07292 0.97999 0.35432 0.0
C826 C 0.08988 0.96958 0.30266 0.0
C827 C 0.09991 0.98287 0.36345 0.0
C828 C 0.07507 0.97226 0.3176 0.0
C829 C 0.08493 0.98531 0.37733 0.0
C830 C 0.14705 0.99455 0.25211 0.0
C831 C 0.13308 0.99393 0.23067 0.0
C832 C 0.15891 0.00363 0.23634 0.0
C833 C 0.13121 0.00243 0.19377 0.0
C834 C 0.15659 0.01196 0.19932 0.0
N835 N 0.1429 0.01119 0.17898 0.0
C836 C 0.13005 0.0219 0.3361 0.0
C837 C 0.10916 0.0113 0.29828 0.0
C838 C 0.12433 0.03671 0.32988 0.0
N839 N 0.12238 0.00959 0.3204 0.0
C840 C 0.1029 0.02575 0.29218 0.0
C841 C 0.11053 0.03863 0.30796 0.0
H842 H 0.14071 0.02021 0.35284 0.0
H843 H 0.10357 0.00148 0.28451 0.0
C844 C 0.12113 0.94853 0.23373 0.0
N845 N 0.13414 0.95699 0.23402 0.0
C846 C 0.1162 0.94148 0.19693 0.0
C847 C 0.13873 0.95115 0.16155 0.0
C848 C 0.1431 0.95831 0.19918 0.0
C849 C 0.12496 0.94276 0.15992 0.0
H850 H 0.11435 0.94758 0.26209 0.0
H851 H 0.15345 0.96511 0.20038 0.0
O852 O 0.13842 0.98372 0.38198 0.0
O853 O 0.14652 0.95405 0.33012 0.0
O854 O 0.11698 0.97226 0.31157 0.0
O855 O 0.14921 0.98646 0.28855 0.0
H856 H 0.14866 0.95775 0.41539 0.0
H857 H 0.14029 0.00556 0.43912 0.0
H858 H 0.15869 0.95517 0.48807 0.0
H859 H 0.15053 0.00213 0.51152 0.0
H860 H 0.188 0.94831 0.24464 0.0
H861 H 0.1507 0.92444 0.34133 0.0
H862 H 0.16791 0.96437 0.27743 0.0
H863 H 0.17119 0.90905 0.3074 0.0
H864 H 0.09897 0.94849 0.48573 0.0
H865 H 0.10797 0.91436 0.38999 0.0
H866 H 0.19424 0.0061 0.40728 0.0
H867 H 0.19896 0.95711 0.42174 0.0
H868 H 0.09156 0.96348 0.27336 0.0
H869 H 0.1094 0.98718 0.38178 0.0
H870 H 0.06527 0.96819 0.29999 0.0
H871 H 0.08286 0.99143 0.4064 0.0
H872 H 0.12375 0.98698 0.24228 0.0
H873 H 0.16978 0.00424 0.25262 0.0
H874 H 0.12045 0.00206 0.17689 0.0
H875 H 0.16567 0.01904 0.18677 0.0
H876 H 0.13051 0.04649 0.34212 0.0
H877 H 0.09236 0.02692 0.27445 0.0
H878 H 0.10534 0.93552 0.19746 0.0
H879 H 0.14599 0.9523 0.13409 0.0
Li880 Li 0.51592 0.15598 0.84615 0.0
Li881 Li 0.52547 0.13325 0.88235 0.0
Li882 Li 0.52866 0.13638 0.80655 0.0
Li883 Li 0.5035 0.13127 0.83706 0.0
C884 C 0.55179 0.15194 0.83948 0.0
N885 N 0.58133 0.15656 0.81103 0.0
C886 C 0.56402 0.14423 0.85838 0.0
C887 C 0.5546 0.16209 0.80634 0.0
C888 C 0.57887 0.14671 0.84349 0.0
C889 C 0.56961 0.16424 0.79233 0.0
C890 C 0.50417 0.14363 0.93172 0.0
C891 C 0.49952 0.13076 0.99768 0.0
N892 N 0.50337 0.14376 0.01872 0.0
C893 C 0.50804 0.15689 0.95397 0.0
C894 C 0.49982 0.13047 0.95368 0.0
C895 C 0.50757 0.15672 0.99796 0.0
C896 C 0.49789 0.18222 0.86008 0.0
N897 N 0.51247 0.17712 0.8546 0.0
C898 C 0.52262 0.20118 0.8765 0.0
C899 C 0.52474 0.1863 0.86176 0.0
C900 C 0.50772 0.20657 0.88401 0.0
C901 C 0.49523 0.19709 0.87443 0.0
H902 H 0.48838 0.17447 0.85561 0.0
H903 H 0.53619 0.18183 0.85831 0.0
C904 C 0.53742 0.11113 0.93864 0.0
N905 N 0.53568 0.12635 0.93133 0.0
C906 C 0.54634 0.1061 0.97238 0.0
C907 C 0.55134 0.13252 0.99058 0.0
C908 C 0.54232 0.13703 0.95654 0.0
C909 C 0.5536 0.11686 0.99854 0.0
H910 H 0.5322 0.10291 0.91768 0.0
H911 H 0.541 0.14906 0.9493 0.0
C912 C 0.5015 0.15803 0.77376 0.0
N913 N 0.4862 0.18248 0.73807 0.0
C914 C 0.48555 0.15896 0.77642 0.0
C915 C 0.50966 0.16945 0.75263 0.0
C916 C 0.47803 0.17143 0.75822 0.0
C917 C 0.50172 0.18174 0.73491 0.0
C918 C 0.51644 0.10398 0.8277 0.0
C919 C 0.51884 0.09807 0.7873 0.0
C920 C 0.5079 0.09559 0.85692 0.0
C921 C 0.51253 0.08388 0.77671 0.0
C922 C 0.50176 0.08147 0.84508 0.0
N923 N 0.50418 0.07596 0.80555 0.0
C924 C 0.55458 0.12297 0.7726 0.0
C925 C 0.53929 0.1356 0.72152 0.0
C926 C 0.56499 0.11845 0.74183 0.0
N927 N 0.54216 0.1315 0.76206 0.0
C928 C 0.54925 0.13099 0.68944 0.0
C929 C 0.56228 0.12236 0.6997 0.0
H930 H 0.55626 0.11949 0.80495 0.0
H931 H 0.52916 0.14219 0.71408 0.0
C932 C 0.47334 0.12213 0.85781 0.0
N933 N 0.48444 0.12147 0.82786 0.0
C934 C 0.45936 0.11474 0.85146 0.0
C935 C 0.46849 0.10625 0.78344 0.0
C936 C 0.48217 0.11404 0.79081 0.0
C937 C 0.45684 0.10646 0.81406 0.0
H938 H 0.47535 0.12843 0.88659 0.0
H939 H 0.49109 0.11398 0.7672 0.0
O940 O 0.53713 0.14948 0.85314 0.0
O941 O 0.50488 0.14345 0.88868 0.0
O942 O 0.50909 0.14602 0.79177 0.0
O943 O 0.52236 0.11794 0.83852 0.0
H944 H 0.56206 0.13625 0.88386 0.0
H945 H 0.54527 0.16814 0.79137 0.0
H946 H 0.58843 0.14075 0.85765 0.0
H947 H 0.57194 0.17199 0.76655 0.0
H948 H 0.49625 0.12063 0.01509 0.0
H949 H 0.51153 0.16715 0.93755 0.0
H950 H 0.49684 0.1201 0.93694 0.0
H951 H 0.51061 0.16687 0.0156 0.0
H952 H 0.53253 0.2082 0.88347 0.0
H953 H 0.48359 0.20079 0.88046 0.0
H954 H 0.54765 0.09393 0.97767 0.0
H955 H 0.55691 0.1412 0.00951 0.0
H956 H 0.47905 0.15023 0.79267 0.0
H957 H 0.522 0.16884 0.7501 0.0
H958 H 0.46569 0.17235 0.76022 0.0
H959 H 0.5079 0.1907 0.71864 0.0
H960 H 0.52539 0.10441 0.76423 0.0
H961 H 0.50588 0.10003 0.88825 0.0
H962 H 0.51424 0.0792 0.74552 0.0
H963 H 0.49503 0.07491 0.86727 0.0
H964 H 0.57478 0.11154 0.75063 0.0
H965 H 0.5468 0.13407 0.65708 0.0
H966 H 0.45064 0.11554 0.87558 0.0
H967 H 0.46726 0.09987 0.75439 0.0
Li968 Li 0.34287 0.52648 0.34547 0.0
Li969 Li 0.36648 0.53966 0.36576 0.0
Li970 Li 0.35879 0.53624 0.29288 0.0
Li971 Li 0.36649 0.51315 0.33243 0.0
C972 C 0.34442 0.56078 0.31387 0.0
N973 N 0.33734 0.5857 0.26379 0.0
C974 C 0.35437 0.57329 0.31174 0.0
C975 C 0.33075 0.56107 0.29095 0.0
C976 C 0.35063 0.58575 0.28613 0.0
C977 C 0.3274 0.57374 0.26573 0.0
C978 C 0.35075 0.51609 0.42386 0.0
C979 C 0.34296 0.49784 0.47677 0.0
N980 N 0.33429 0.50882 0.4956 0.0
C981 C 0.34185 0.52721 0.44399 0.0
C982 C 0.35141 0.50131 0.44062 0.0
C983 C 0.3336 0.52332 0.48013 0.0
C984 C 0.31756 0.5093 0.3776 0.0
N985 N 0.32249 0.52346 0.3659 0.0
C986 C 0.30192 0.5353 0.40306 0.0
C987 C 0.31466 0.5363 0.37683 0.0
C988 C 0.2972 0.52096 0.41793 0.0
C989 C 0.30472 0.50777 0.40356 0.0
H990 H 0.32432 0.49932 0.36986 0.0
H991 H 0.31907 0.54743 0.36842 0.0
C992 C 0.38648 0.56387 0.38671 0.0
N993 N 0.37667 0.55338 0.40331 0.0
C994 C 0.39251 0.57551 0.41197 0.0
C995 C 0.3789 0.56481 0.47134 0.0
C996 C 0.37327 0.55334 0.44507 0.0
C997 C 0.38832 0.5763 0.45458 0.0
H998 H 0.3892 0.56353 0.35348 0.0
H999 H 0.36595 0.54464 0.45802 0.0
C1000 C 0.33611 0.50801 0.28267 0.0
N1001 N 0.30954 0.49232 0.2632 0.0
C1002 C 0.3354 0.49213 0.28763 0.0
C1003 C 0.32338 0.51586 0.26702 0.0
C1004 C 0.32185 0.48441 0.27781 0.0
C1005 C 0.31002 0.50774 0.2576 0.0
C1006 C 0.39396 0.53032 0.33192 0.0
C1007 C 0.40602 0.53551 0.30675 0.0
C1008 C 0.39713 0.52349 0.37081 0.0
C1009 C 0.42107 0.53377 0.32086 0.0
C1010 C 0.41234 0.52197 0.38379 0.0
N1011 N 0.42389 0.52709 0.35877 0.0
C1012 C 0.37403 0.55462 0.23662 0.0
C1013 C 0.35222 0.54298 0.20588 0.0
C1014 C 0.37827 0.56086 0.19806 0.0
N1015 N 0.36138 0.54568 0.23967 0.0
C1016 C 0.35592 0.5492 0.16657 0.0
C1017 C 0.36929 0.55806 0.1621 0.0
H1018 H 0.38106 0.55658 0.26412 0.0
H1019 H 0.34226 0.53573 0.20916 0.0
C1020 C 0.37177 0.48101 0.34383 0.0
N1021 N 0.37714 0.49418 0.32644 0.0
C1022 C 0.37927 0.46712 0.33645 0.0
C1023 C 0.39783 0.48068 0.29418 0.0
C1024 C 0.38976 0.49417 0.30144 0.0
C1025 C 0.39254 0.46681 0.31126 0.0
H1026 H 0.36134 0.48118 0.3621 0.0
H1027 H 0.39351 0.5046 0.28646 0.0
O1028 O 0.34811 0.54828 0.33787 0.0
O1029 O 0.35882 0.51965 0.38813 0.0
O1030 O 0.34926 0.51579 0.29239 0.0
O1031 O 0.37914 0.53206 0.31854 0.0
H1032 H 0.36494 0.57335 0.32925 0.0
H1033 H 0.32277 0.55166 0.29267 0.0
H1034 H 0.3583 0.59543 0.28396 0.0
H1035 H 0.3169 0.57406 0.24771 0.0
H1036 H 0.34335 0.48643 0.48997 0.0
H1037 H 0.34117 0.53872 0.43148 0.0
H1038 H 0.35849 0.49264 0.42623 0.0
H1039 H 0.32663 0.53181 0.49582 0.0
H1040 H 0.29635 0.54571 0.41362 0.0
H1041 H 0.30147 0.49654 0.41492 0.0
H1042 H 0.39985 0.58412 0.398 0.0
H1043 H 0.37576 0.56481 0.50436 0.0
H1044 H 0.34519 0.48581 0.29894 0.0
H1045 H 0.32377 0.52807 0.26232 0.0
H1046 H 0.32114 0.47214 0.28177 0.0
H1047 H 0.30006 0.51371 0.24579 0.0
H1048 H 0.4038 0.54077 0.2765 0.0
H1049 H 0.38801 0.5194 0.39083 0.0
H1050 H 0.43052 0.53772 0.30166 0.0
H1051 H 0.41495 0.51671 0.41378 0.0
H1052 H 0.38883 0.56732 0.19634 0.0
H1053 H 0.34853 0.54688 0.13994 0.0
H1054 H 0.37447 0.45674 0.34953 0.0
H1055 H 0.40812 0.48122 0.27522 0.0
Li1056 Li 0.96501 0.14119 0.21463 0.0
Li1057 Li 0.98807 0.13291 0.17937 0.0
Li1058 Li 0.97564 0.15611 0.16017 0.0
Li1059 Li 0.96247 0.13252 0.14282 0.0
C1060 C 0.99228 0.1491 0.25291 0.0
N1061 N 0.00679 0.14402 0.32901 0.0
C1062 C 0.99103 0.13488 0.27291 0.0
C1063 C 0.00092 0.16071 0.27164 0.0
C1064 C 0.99845 0.13255 0.31134 0.0
C1065 C 0.00817 0.15793 0.31012 0.0
C1066 C 0.96915 0.10547 0.18288 0.0
C1067 C 0.97491 0.08476 0.13515 0.0
N1068 N 0.96844 0.07472 0.16265 0.0
C1069 C 0.96254 0.09496 0.21061 0.0
C1070 C 0.97538 0.10035 0.14479 0.0
C1071 C 0.96231 0.07945 0.19984 0.0
C1072 C 0.94295 0.12858 0.26339 0.0
N1073 N 0.95374 0.13972 0.26546 0.0
C1074 C 0.94842 0.14383 0.33844 0.0
C1075 C 0.95635 0.14769 0.30159 0.0
C1076 C 0.93787 0.13169 0.33756 0.0
C1077 C 0.93485 0.12434 0.29918 0.0
H1078 H 0.941 0.12263 0.23403 0.0
H1079 H 0.96493 0.15661 0.3022 0.0
C1080 C 0.02014 0.1324 0.18828 0.0
N1081 N 0.00746 0.12336 0.18908 0.0
C1082 C 0.03436 0.12659 0.20085 0.0
C1083 C 0.0222 0.10222 0.21407 0.0
C1084 C 0.00828 0.10852 0.2017 0.0
C1085 C 0.03544 0.11135 0.21462 0.0
H1086 H 0.0191 0.14432 0.1795 0.0
H1087 H 0.99811 0.10162 0.20384 0.0
C1088 C 0.94351 0.15968 0.18987 0.0
N1089 N 0.92283 0.17609 0.23778 0.0
C1090 C 0.92815 0.15526 0.19124 0.0
C1091 C 0.94837 0.17246 0.21276 0.0
C1092 C 0.91786 0.1637 0.21568 0.0
C1093 C 0.93773 0.1806 0.23681 0.0
C1094 C 0.98772 0.14744 0.08748 0.0
C1095 C 0.97714 0.15289 0.05805 0.0
C1096 C 0.00325 0.15088 0.08264 0.0
C1097 C 0.98227 0.16189 0.02449 0.0
C1098 C 0.00792 0.15991 0.04865 0.0
N1099 N 0.99742 0.1652 0.02057 0.0
C1100 C 0.99353 0.18207 0.13983 0.0
C1101 C 0.96792 0.18233 0.11493 0.0
C1102 C 0.99698 0.19509 0.11613 0.0
N1103 N 0.9793 0.17582 0.1379 0.0
C1104 C 0.97087 0.19526 0.09065 0.0
C1105 C 0.98566 0.20162 0.09023 0.0
H1106 H 0.00238 0.17648 0.15807 0.0
H1107 H 0.95681 0.17689 0.11341 0.0
C1108 C 0.93578 0.11682 0.12635 0.0
N1109 N 0.94886 0.12168 0.10745 0.0
C1110 C 0.92489 0.10862 0.10356 0.0
C1111 C 0.9412 0.11049 0.04218 0.0
C1112 C 0.95185 0.1186 0.06631 0.0
C1113 C 0.9275 0.10542 0.06086 0.0
H1114 H 0.93386 0.11929 0.15929 0.0
H1115 H 0.96251 0.12231 0.05236 0.0
O1116 O 0.98535 0.15172 0.21489 0.0
O1117 O 0.96918 0.12074 0.19252 0.0
O1118 O 0.95387 0.1513 0.16725 0.0
O1119 O 0.98287 0.13899 0.1212 0.0
H1120 H 0.98443 0.12572 0.25908 0.0
H1121 H 0.00205 0.17176 0.25649 0.0
H1122 H 0.99758 0.12161 0.32712 0.0
H1123 H 0.0149 0.16682 0.32495 0.0
H1124 H 0.97968 0.08064 0.10581 0.0
H1125 H 0.95767 0.09872 0.24022 0.0
H1126 H 0.98052 0.10833 0.12291 0.0
H1127 H 0.95726 0.07118 0.22103 0.0
H1128 H 0.95099 0.14976 0.36757 0.0
H1129 H 0.92659 0.11512 0.29711 0.0
H1130 H 0.04423 0.13408 0.20123 0.0
H1131 H 0.0225 0.09034 0.22377 0.0
H1132 H 0.92421 0.14538 0.17378 0.0
H1133 H 0.96027 0.17593 0.21238 0.0
H1134 H 0.90594 0.16039 0.21715 0.0
H1135 H 0.94133 0.19048 0.25484 0.0
H1136 H 0.96505 0.1505 0.06162 0.0
H1137 H 0.01159 0.14672 0.10504 0.0
H1138 H 0.97418 0.16632 0.00175 0.0
H1139 H 0.01989 0.16275 0.04468 0.0
H1140 H 0.00847 0.19972 0.11719 0.0
H1141 H 0.96185 0.1997 0.07068 0.0
H1142 H 0.91445 0.105 0.11908 0.0
H1143 H 0.94376 0.10801 0.00949 0.0
Li1144 Li 0.35901 0.99116 0.65917 0.0
Li1145 Li 0.35952 0.96512 0.68078 0.0
Li1146 Li 0.36001 0.97053 0.60723 0.0
Li1147 Li 0.33632 0.97468 0.64975 0.0
C1148 C 0.38788 0.98019 0.67376 0.0
N1149 N 0.41248 0.98821 0.72395 0.0
C1150 C 0.38565 0.98374 0.71626 0.0
C1151 C 0.40264 0.98077 0.65678 0.0
C1152 C 0.39822 0.98775 0.74112 0.0
C1153 C 0.41492 0.98484 0.68266 0.0
C1154 C 0.33974 0.97841 0.74133 0.0
C1155 C 0.32138 0.96508 0.78468 0.0
N1156 N 0.32725 0.97206 0.81941 0.0
C1157 C 0.34548 0.98558 0.77742 0.0
C1158 C 0.32749 0.9682 0.74492 0.0
C1159 C 0.33906 0.98216 0.81662 0.0
C1160 C 0.35775 0.01859 0.70446 0.0
N1161 N 0.36558 0.01114 0.67368 0.0
C1162 C 0.38553 0.0298 0.67571 0.0
C1163 C 0.37899 0.01669 0.65822 0.0
C1164 C 0.37819 0.0372 0.70945 0.0
C1165 C 0.36387 0.03174 0.72289 0.0
H1166 H 0.34713 0.01386 0.7162 0.0
H1167 H 0.3851 0.01042 0.63415 0.0
C1168 C 0.38238 0.94525 0.70271 0.0
N1169 N 0.36934 0.95128 0.71924 0.0
C1170 C 0.39265 0.93736 0.72814 0.0
C1171 C 0.37533 0.94074 0.78679 0.0
C1172 C 0.3654 0.94876 0.76014 0.0
C1173 C 0.3894 0.93547 0.77102 0.0
H1174 H 0.38521 0.94729 0.67002 0.0
H1175 H 0.35495 0.95347 0.77273 0.0
C1176 C 0.34998 -0.0003 0.57888 0.0
N1177 N 0.35747 0.02195 0.52061 0.0
C1178 C 0.3387 0.00956 0.56348 0.0
C1179 C 0.36506 0.00112 0.56466 0.0
C1180 C 0.34272 0.02074 0.53401 0.0
C1181 C 0.36862 0.01245 0.53521 0.0
C1182 C 0.349 0.94015 0.6452 0.0
C1183 C 0.36038 0.93176 0.62455 0.0
C1184 C 0.33995 0.93301 0.67577 0.0
C1185 C 0.36269 0.91643 0.63529 0.0
C1186 C 0.34262 0.91766 0.68564 0.0
N1187 N 0.35384 0.90976 0.6654 0.0
C1188 C 0.38214 0.96037 0.54962 0.0
C1189 C 0.35662 0.96025 0.52407 0.0
C1190 C 0.38727 0.953 0.5133 0.0
N1191 N 0.36704 0.9636 0.55447 0.0
C1192 C 0.36124 0.95287 0.48718 0.0
C1193 C 0.37671 0.94885 0.48191 0.0
H1194 H 0.39009 0.96295 0.57471 0.0
H1195 H 0.34463 0.96276 0.52931 0.0
C1196 C 0.30824 0.98933 0.64362 0.0
N1197 N 0.31491 0.97529 0.64345 0.0
C1198 C 0.2932 0.99107 0.62957 0.0
C1199 C 0.292 0.96374 0.61775 0.0
C1200 C 0.3071 0.96253 0.63184 0.0
C1201 C 0.28505 0.97823 0.61508 0.0
H1202 H 0.31492 -0.00072 0.65217 0.0
H1203 H 0.31285 0.95157 0.63137 0.0
O1204 O 0.37572 0.97629 0.64863 0.0
O1205 O 0.34583 0.98172 0.70267 0.0
O1206 O 0.3462 0.98874 0.60782 0.0
O1207 O 0.34679 0.95528 0.63571 0.0
H1208 H 0.37435 0.98339 0.72994 0.0
H1209 H 0.40459 0.97818 0.62389 0.0
H1210 H 0.39663 0.9905 0.77406 0.0
H1211 H 0.4264 0.98533 0.66991 0.0
H1212 H 0.31195 0.95714 0.7879 0.0
H1213 H 0.35479 0.99371 0.77524 0.0
H1214 H 0.32273 0.96274 0.71738 0.0
H1215 H 0.34344 0.98757 0.84481 0.0
H1216 H 0.39668 0.03347 0.66475 0.0
H1217 H 0.35776 0.03721 0.74849 0.0
H1218 H 0.40331 0.93325 0.71477 0.0
H1219 H 0.37245 0.93946 0.81979 0.0
H1220 H 0.32697 0.00859 0.5742 0.0
H1221 H 0.37395 0.99364 0.57639 0.0
H1222 H 0.33411 0.02846 0.52181 0.0
H1223 H 0.38025 0.01371 0.52399 0.0
H1224 H 0.3675 0.93706 0.60083 0.0
H1225 H 0.33101 0.93924 0.69184 0.0
H1226 H 0.37153 0.90985 0.61976 0.0
H1227 H 0.33576 0.91203 0.70941 0.0
H1228 H 0.39933 0.95029 0.51024 0.0
H1229 H 0.35271 0.94973 0.46399 0.0
H1230 H 0.28842 0.00248 0.6275 0.0
H1231 H 0.28607 0.95352 0.60738 0.0
Li1232 Li 0.50954 0.36427 0.17207 0.0
Li1233 Li 0.53297 0.35367 0.202 0.0
Li1234 Li 0.53309 0.3656 0.13229 0.0
Li1235 Li 0.52079 0.34096 0.1439 0.0
C1236 C 0.52336 0.38811 0.20562 0.0
N1237 N 0.51115 0.41368 0.24435 0.0
C1238 C 0.52346 0.38933 0.24954 0.0
C1239 C 0.51716 0.39994 0.18142 0.0
C1240 C 0.51722 0.40235 0.26852 0.0
C1241 C 0.511 0.41275 0.20158 0.0
C1242 C 0.50402 0.33172 0.20819 0.0
C1243 C 0.50226 0.3049 0.22545 0.0
N1244 N 0.48685 0.30548 0.21942 0.0
C1245 C 0.48816 0.33208 0.20241 0.0
C1246 C 0.51114 0.31806 0.22006 0.0
C1247 C 0.47968 0.31868 0.20816 0.0
C1248 C 0.48087 0.37986 0.16091 0.0
N1249 N 0.49111 0.3739 0.18863 0.0
C1250 C 0.4757 0.38158 0.24697 0.0
C1251 C 0.48864 0.37438 0.23083 0.0
C1252 C 0.46492 0.38807 0.21938 0.0
C1253 C 0.46758 0.387 0.17569 0.0
H1254 H 0.48304 0.37908 0.12744 0.0
H1255 H 0.49693 0.36933 0.25201 0.0
C1256 C 0.55608 0.3623 0.25723 0.0
N1257 N 0.5437 0.35297 0.25362 0.0
C1258 C 0.56168 0.36621 0.29689 0.0
C1259 C 0.54217 0.35021 0.32829 0.0
C1260 C 0.53699 0.34652 0.28791 0.0
C1261 C 0.55427 0.36069 0.3331 0.0
H1262 H 0.56071 0.36781 0.22954 0.0
H1263 H 0.52686 0.33953 0.28411 0.0
C1264 C 0.51277 0.3634 0.07162 0.0
N1265 N 0.51447 0.37291 0.98876 0.0
C1266 C 0.51651 0.35295 0.03987 0.0
C1267 C 0.50979 0.37865 0.06121 0.0
C1268 C 0.51732 0.35799 0.99817 0.0
C1269 C 0.51074 0.38324 0.01915 0.0
C1270 C 0.5566 0.34142 0.16395 0.0
C1271 C 0.56946 0.35065 0.15757 0.0
C1272 C 0.55804 0.3277 0.18621 0.0
C1273 C 0.58358 0.34604 0.17394 0.0
C1274 C 0.57235 0.3235 0.20212 0.0
N1275 N 0.58471 0.33268 0.19572 0.0
C1276 C 0.54996 0.39135 0.10387 0.0
C1277 C 0.55187 0.36911 0.06135 0.0
C1278 C 0.5609 0.39882 0.07923 0.0
N1279 N 0.54576 0.37675 0.09467 0.0
C1280 C 0.56277 0.37616 0.03575 0.0
C1281 C 0.5676 0.39113 0.04498 0.0
H1282 H 0.5452 0.39702 0.13115 0.0
H1283 H 0.54869 0.35733 0.05564 0.0
C1284 C 0.50128 0.31978 0.10518 0.0
N1285 N 0.51603 0.3223 0.11684 0.0
C1286 C 0.49757 0.30723 0.08001 0.0
C1287 C 0.52434 0.30015 0.07927 0.0
C1288 C 0.5275 0.31275 0.10487 0.0
C1289 C 0.50922 0.29738 0.06594 0.0
H1290 H 0.49247 0.32784 0.11417 0.0
H1291 H 0.53919 0.31529 0.11366 0.0
O1292 O 0.52908 0.37529 0.18643 0.0
O1293 O 0.51254 0.34466 0.20222 0.0
O1294 O 0.51213 0.35875 0.11272 0.0
O1295 O 0.54264 0.3458 0.14857 0.0
H1296 H 0.52809 0.38027 0.26887 0.0
H1297 H 0.51696 0.39916 0.14743 0.0
H1298 H 0.51714 0.40341 0.30247 0.0
H1299 H 0.50607 0.42195 0.18323 0.0
H1300 H 0.50763 0.29423 0.23443 0.0
H1301 H 0.48247 0.34256 0.19316 0.0
H1302 H 0.52339 0.31762 0.22488 0.0
H1303 H 0.46741 0.31876 0.20357 0.0
H1304 H 0.47439 0.38234 0.28082 0.0
H1305 H 0.4595 0.39159 0.15315 0.0
H1306 H 0.57082 0.37456 0.29909 0.0
H1307 H 0.53619 0.34567 0.35544 0.0
H1308 H 0.51892 0.34112 0.04732 0.0
H1309 H 0.50684 0.38686 0.08538 0.0
H1310 H 0.52028 0.35006 0.97329 0.0
H1311 H 0.50853 0.39503 0.01066 0.0
H1312 H 0.56855 0.36133 0.14054 0.0
H1313 H 0.5482 0.32041 0.19128 0.0
H1314 H 0.59362 0.3531 0.16943 0.0
H1315 H 0.57362 0.31294 0.21955 0.0
H1316 H 0.56423 0.4104 0.08724 0.0
H1317 H 0.56783 0.36974 0.01008 0.0
H1318 H 0.48574 0.30547 0.07099 0.0
H1319 H 0.53376 0.29308 0.06859 0.0
Li1320 Li 0.14043 0.52577 0.70227 0.0
Li1321 Li 0.13245 0.50439 0.65842 0.0
Li1322 Li 0.15699 0.51739 0.64795 0.0
Li1323 Li 0.13423 0.53033 0.62784 0.0
C1324 C 0.15237 0.50186 0.73848 0.0
N1325 N 0.15588 0.49568 0.82331 0.0
C1326 C 0.14294 0.49109 0.75821 0.0
C1327 C 0.16366 0.50939 0.76183 0.0
C1328 C 0.14489 0.48814 0.80114 0.0
C1329 C 0.16522 0.50614 0.8047 0.0
C1330 C 0.10855 0.53276 0.67681 0.0
C1331 C 0.08207 0.53939 0.66481 0.0
N1332 N 0.08455 0.55333 0.68265 0.0
C1333 C 0.11082 0.54717 0.69497 0.0
C1334 C 0.09404 0.52885 0.66156 0.0
C1335 C 0.09856 0.55739 0.69766 0.0
C1336 C 0.14482 0.54543 0.77419 0.0
N1337 N 0.13729 0.53317 0.75787 0.0
C1338 C 0.12118 0.53159 0.8184 0.0
C1339 C 0.12581 0.52613 0.77924 0.0
C1340 C 0.12837 0.54453 0.83563 0.0
C1341 C 0.14056 0.5513 0.81347 0.0
H1342 H 0.1537 0.55099 0.75609 0.0
H1343 H 0.11993 0.5165 0.76514 0.0
C1344 C 0.1286 0.47223 0.6502 0.0
N1345 N 0.12182 0.48562 0.66147 0.0
C1346 C 0.12116 0.45832 0.65777 0.0
C1347 C 0.09982 0.47244 0.687 0.0
C1348 C 0.1077 0.48599 0.67926 0.0
C1349 C 0.10668 0.45833 0.67715 0.0
H1350 H 0.13997 0.47234 0.63667 0.0
H1351 H 0.10275 0.4968 0.68859 0.0
C1352 C 0.16458 0.54587 0.65099 0.0
N1353 N 0.19215 0.55895 0.62798 0.0
C1354 C 0.16672 0.55128 0.60996 0.0
C1355 C 0.17643 0.5472 0.68038 0.0
C1356 C 0.18075 0.55784 0.59894 0.0
C1357 C 0.19029 0.55382 0.6681 0.0
C1358 C 0.1331 0.50572 0.57102 0.0
C1359 C 0.13975 0.50191 0.53234 0.0
C1360 C 0.1173 0.50401 0.57645 0.0
C1361 C 0.13045 0.4966 0.49962 0.0
C1362 C 0.1084 0.49864 0.54301 0.0
N1363 N 0.1151 0.49509 0.50559 0.0
C1364 C 0.18922 0.51166 0.6566 0.0
C1365 C 0.17978 0.51615 0.58766 0.0
C1366 C 0.20422 0.51088 0.64136 0.0
N1367 N 0.17745 0.51448 0.62971 0.0
C1368 C 0.19451 0.51532 0.57105 0.0
C1369 C 0.20697 0.51284 0.59808 0.0
H1370 H 0.18703 0.51038 0.68989 0.0
H1371 H 0.1702 0.51863 0.56722 0.0
C1372 C 0.12589 0.56006 0.60761 0.0
N1373 N 0.12556 0.54563 0.59157 0.0
C1374 C 0.11962 0.57227 0.58519 0.0
C1375 C 0.11326 0.55471 0.5291 0.0
C1376 C 0.11959 0.54282 0.55274 0.0
C1377 C 0.1131 0.56967 0.54543 0.0
H1378 H 0.13101 0.56211 0.63809 0.0
H1379 H 0.11978 0.53146 0.53967 0.0
O1380 O 0.15044 0.50514 0.69666 0.0
O1381 O 0.12046 0.5226 0.67351 0.0
O1382 O 0.1511 0.53897 0.66198 0.0
O1383 O 0.14215 0.51059 0.60359 0.0
H1384 H 0.13415 0.48514 0.74073 0.0
H1385 H 0.17094 0.51787 0.74722 0.0
H1386 H 0.13763 0.47989 0.81684 0.0
H1387 H 0.17382 0.51199 0.82322 0.0
H1388 H 0.0708 0.5365 0.65311 0.0
H1389 H 0.12199 0.5506 0.70613 0.0
H1390 H 0.09199 0.5178 0.64728 0.0
H1391 H 0.1002 0.5686 0.71146 0.0
H1392 H 0.11185 0.52594 0.83466 0.0
H1393 H 0.14626 0.56141 0.82548 0.0
H1394 H 0.12691 0.44771 0.64998 0.0
H1395 H 0.08856 0.47304 0.70117 0.0
H1396 H 0.15775 0.55019 0.58667 0.0
H1397 H 0.17502 0.54295 0.71213 0.0
H1398 H 0.18261 0.56198 0.56723 0.0
H1399 H 0.19959 0.55482 0.69042 0.0
H1400 H 0.15197 0.50298 0.52764 0.0
H1401 H 0.11193 0.50694 0.60594 0.0
H1402 H 0.13545 0.49365 0.46951 0.0
H1403 H 0.09616 0.49733 0.54679 0.0
H1404 H 0.21356 0.50891 0.66314 0.0
H1405 H 0.19617 0.51718 0.53763 0.0
H1406 H 0.1197 0.58358 0.59918 0.0
H1407 H 0.10871 0.55223 0.49812 0.0
H1408 H 0.01792 0.72435 0.07463 0.0
H1409 H 0.03662 0.69162 0.98581 0.0
H1410 H 0.03589 0.71124 0.92958 0.0
H1411 H 0.99281 0.74448 0.00177 0.0
H1412 H 0.99669 0.76302 0.0243 0.0
H1413 H 0.9977 0.74614 0.05676 0.0
H1414 H 0.02552 0.75306 0.07794 0.0
H1415 H 0.02457 0.76998 0.04571 0.0
H1416 H 0.03963 0.7562 0.03737 0.0
H1417 H 0.03326 0.73435 0.88356 0.0
H1418 H 0.03069 0.75993 0.8516 0.0
H1419 H 0.01552 0.77812 0.97204 0.0
C1420 C 0.02171 0.72136 0.04318 0.0
C1421 C 0.02726 0.70658 0.03413 0.0
C1422 C 0.03237 0.70298 0.99301 0.0
C1423 C 0.03192 0.71399 0.96099 0.0
C1424 C 0.02647 0.72854 0.97086 0.0
C1425 C 0.02158 0.7323 0.01101 0.0
C1426 C 0.01713 0.74901 0.01381 0.0
C1427 C 7e-05 0.75076 0.02481 0.0
C1428 C 0.02733 0.75756 0.04558 0.0
C1429 C 0.02035 0.75406 0.96906 0.0
C1430 C 0.02553 0.74203 0.94468 0.0
C1431 C 0.0293 0.7439 0.90238 0.0
C1432 C 0.02791 0.75851 0.8846 0.0
C1433 C 0.023 0.77114 0.90926 0.0
C1434 C 0.01908 0.76874 0.95201 0.0
H1435 H 0.72064 0.03185 0.46015 0.0
H1436 H 0.72341 0.98632 0.40619 0.0
H1437 H 0.74695 0.98134 0.44755 0.0
H1438 H 0.76152 0.03926 0.4623 0.0
H1439 H 0.76057 0.04958 0.51142 0.0
H1440 H 0.74437 0.04957 0.47629 0.0
H1441 H 0.72714 0.03935 0.53655 0.0
H1442 H 0.7433 0.0392 0.57177 0.0
H1443 H 0.73241 0.02194 0.56337 0.0
H1444 H 0.76938 0.98102 0.49798 0.0
H1445 H 0.79009 0.98601 0.54936 0.0
H1446 H 0.7724 0.03183 0.56961 0.0
C1447 C 0.72624 0.02085 0.45694 0.0
C1448 C 0.72023 0.00943 0.43016 0.0
C1449 C 0.72794 0.99524 0.42633 0.0
C1450 C 0.74123 0.9923 0.44985 0.0
C1451 C 0.74668 0.00373 0.47665 0.0
C1452 C 0.73951 0.01778 0.4799 0.0
C1453 C 0.74758 0.02812 0.51097 0.0
C1454 C 0.75389 0.04248 0.48892 0.0
C1455 C 0.73697 0.0324 0.54785 0.0
C1456 C 0.76036 0.01765 0.52513 0.0
C1457 C 0.75962 0.00361 0.50513 0.0
C1458 C 0.77009 0.99199 0.51372 0.0
C1459 C 0.78171 0.99488 0.54317 0.0
C1460 C 0.78278 0.00928 0.56347 0.0
C1461 C 0.77191 0.02075 0.55433 0.0
H1462 H 0.48512 0.77893 0.03547 0.0
H1463 H 0.47028 0.76091 0.15617 0.0
H1464 H 0.46863 0.73499 0.12498 0.0
H1465 H 0.46093 0.75637 0.97218 0.0
H1466 H 0.47474 0.75376 0.93058 0.0
H1467 H 0.47547 0.77064 0.96302 0.0
H1468 H 0.50367 0.76463 0.98245 0.0
H1469 H 0.50305 0.74774 0.94991 0.0
H1470 H 0.50842 0.74623 0.00458 0.0
H1471 H 0.46782 0.71126 0.07961 0.0
H1472 H 0.46783 0.69154 0.02377 0.0
H1473 H 0.48322 0.72543 0.93321 0.0
C1474 C 0.48183 0.7695 0.05566 0.0
C1475 C 0.47795 0.77191 0.09837 0.0
C1476 C 0.47325 0.75932 0.12334 0.0
C1477 C 0.47235 0.74457 0.10596 0.0
C1478 C 0.4762 0.74264 0.06365 0.0
C1479 C 0.48087 0.75477 0.03889 0.0
C1480 C 0.48386 0.74983 0.99396 0.0
C1481 C 0.4731 0.75814 0.96313 0.0
C1482 C 0.50076 0.75225 0.98204 0.0
C1483 C 0.48 0.733 0.99711 0.0
C1484 C 0.47566 0.72906 0.03757 0.0
C1485 C 0.47123 0.71421 0.04786 0.0
C1486 C 0.47117 0.70314 0.01589 0.0
C1487 C 0.47548 0.70698 0.97415 0.0
C1488 C 0.48005 0.72211 0.9649 0.0
H1489 H 0.72307 0.46556 0.55465 0.0
H1490 H 0.69288 0.49133 0.47205 0.0
H1491 H 0.71389 0.49419 0.421 0.0
H1492 H 0.75623 0.48931 0.53611 0.0
H1493 H 0.76947 0.47351 0.53895 0.0
H1494 H 0.75181 0.47287 0.56819 0.0
H1495 H 0.74488 0.44715 0.53215 0.0
H1496 H 0.76248 0.44776 0.5026 0.0
H1497 H 0.74443 0.44605 0.47545 0.0
H1498 H 0.73808 0.49375 0.37787 0.0
H1499 H 0.76441 0.49192 0.34902 0.0
H1500 H 0.77914 0.46844 0.46226 0.0
C1501 C 0.72084 0.47198 0.52616 0.0
C1502 C 0.70615 0.47803 0.51739 0.0
C1503 C 0.70385 0.48619 0.47924 0.0
C1504 C 0.71576 0.488 0.45007 0.0
C1505 C 0.73001 0.48178 0.45965 0.0
C1506 C 0.73266 0.47412 0.49701 0.0
C1507 C 0.74917 0.469 0.50036 0.0
C1508 C 0.75714 0.47663 0.53814 0.0
C1509 C 0.7503 0.45145 0.50277 0.0
C1510 C 0.75538 0.47496 0.459 0.0
C1511 C 0.74411 0.48215 0.43572 0.0
C1512 C 0.74704 0.48824 0.39592 0.0
C1513 C 0.76195 0.48711 0.37973 0.0
C1514 C 0.7737 0.48014 0.40363 0.0
C1515 C 0.77034 0.47396 0.44364 0.0
H1516 H 0.96746 0.27498 0.95009 0.0
H1517 H 0.0124 0.26993 0.89352 0.0
H1518 H 0.01746 0.24754 0.93938 0.0
H1519 H 0.97884 0.26569 0.05505 0.0
H1520 H 0.96138 0.25563 0.06734 0.0
H1521 H 0.9612 0.2709 0.02925 0.0
H1522 H 0.94949 0.25262 0.97351 0.0
H1523 H 0.94952 0.23733 0.01152 0.0
H1524 H 0.95904 0.23484 0.96159 0.0
H1525 H 0.01731 0.22553 0.99109 0.0
H1526 H 0.01196 0.20552 0.04395 0.0
H1527 H 0.96761 0.22614 0.06876 0.0
C1528 C 0.97828 0.26902 0.94691 0.0
C1529 C 0.9895 0.27403 0.91806 0.0
C1530 C 0.00367 0.2662 0.91548 0.0
C1531 C 0.00663 0.25351 0.94134 0.0
C1532 C 0.99534 0.24895 0.96977 0.0
C1533 C 0.98147 0.25648 0.9727 0.0
C1534 C 0.97136 0.24952 0.00629 0.0
C1535 C 0.968 0.26113 0.04157 0.0
C1536 C 0.95648 0.2432 0.98707 0.0
C1537 C 0.98166 0.23678 0.02162 0.0
C1538 C 0.99543 0.23662 0.00021 0.0
C1539 C 0.00661 0.22563 0.00831 0.0
C1540 C 0.00352 0.21439 0.0387 0.0
C1541 C 0.98939 0.21428 0.06078 0.0
C1542 C 0.97846 0.2258 0.05229 0.0
H1543 H 0.27527 0.96372 0.54356 0.0
H1544 H 0.26136 0.99757 0.63616 0.0
H1545 H 0.23782 0.00259 0.59513 0.0
H1546 H 0.26234 0.98342 0.45357 0.0
H1547 H 0.2558 0.96652 0.42636 0.0
H1548 H 0.27125 0.96517 0.46372 0.0
H1549 H 0.25635 0.9445 0.50561 0.0
H1550 H 0.24094 0.94563 0.46805 0.0
H1551 H 0.23715 0.9485 0.52331 0.0
H1552 H 0.21628 0.00452 0.54236 0.0
H1553 H 0.19756 0.00202 0.48439 0.0
H1554 H 0.22567 0.9667 0.42723 0.0
C1555 C 0.26714 0.97194 0.55585 0.0
C1556 C 0.27015 0.98021 0.59322 0.0
C1557 C 0.25935 0.99117 0.60747 0.0
C1558 C 0.24595 0.99407 0.58444 0.0
C1559 C 0.2435 0.98589 0.54736 0.0
C1560 C 0.25373 0.97494 0.5334 0.0
C1561 C 0.24855 0.96784 0.49232 0.0
C1562 C 0.26018 0.97093 0.45691 0.0
C1563 C 0.24557 0.9506 0.49766 0.0
C1564 C 0.23382 0.97655 0.48519 0.0
C1565 C 0.23112 0.98695 0.51717 0.0
C1566 C 0.21827 0.9964 0.51718 0.0
C1567 C 0.20778 0.995 0.48394 0.0
C1568 C 0.21021 0.98422 0.45124 0.0
C1569 C 0.22347 0.97498 0.45191 0.0
H1570 H 0.52226 0.21673 0.95442 0.0
H1571 H 0.48759 0.22947 0.86313 0.0
H1572 H 0.4835 0.25396 0.90105 0.0
H1573 H 0.50313 0.23249 0.04498 0.0
H1574 H 0.52064 0.23869 0.06972 0.0
H1575 H 0.52074 0.2223 0.03528 0.0
H1576 H 0.54186 0.23496 0.98964 0.0
H1577 H 0.54187 0.25136 0.024 0.0
H1578 H 0.53871 0.25382 0.9683 0.0
H1579 H 0.48405 0.27738 0.94788 0.0
H1580 H 0.48878 0.29773 9e-05 0.0
H1581 H 0.52222 0.26873 0.06247 0.0
C1582 C 0.51392 0.22475 0.94217 0.0
C1583 C 0.50535 0.22137 0.90564 0.0
C1584 C 0.49427 0.23193 0.89108 0.0
C1585 C 0.49189 0.24583 0.91236 0.0
C1586 C 0.50058 0.24881 0.94832 0.0
C1587 C 0.51131 0.23853 0.96319 0.0
C1588 C 0.51906 0.24434 0.00264 0.0
C1589 C 0.51568 0.23383 0.04038 0.0
C1590 C 0.5364 0.24623 0.99571 0.0
C1591 C 0.5112 0.25966 0.00738 0.0
C1592 C 0.50057 0.26203 0.97582 0.0
C1593 C 0.49222 0.27557 0.97301 0.0
C1594 C 0.49491 0.28702 0.00308 0.0
C1595 C 0.50581 0.28484 0.03569 0.0
C1596 C 0.51391 0.27086 0.03785 0.0
H1597 H 0.27072 0.50402 0.42014 0.0
H1598 H 0.29808 0.536 0.49255 0.0
H1599 H 0.27913 0.53513 0.55019 0.0
H1600 H 0.23511 0.5204 0.44656 0.0
H1601 H 0.22485 0.50252 0.44916 0.0
H1602 H 0.24139 0.50424 0.41569 0.0
H1603 H 0.2539 0.48105 0.45322 0.0
H1604 H 0.23738 0.47929 0.48694 0.0
H1605 H 0.25618 0.48135 0.50966 0.0
H1606 H 0.25678 0.53198 0.59801 0.0
H1607 H 0.23136 0.52837 0.63063 0.0
H1608 H 0.21796 0.49902 0.52664 0.0
C1609 C 0.27276 0.51063 0.44845 0.0
C1610 C 0.28582 0.52003 0.45219 0.0
C1611 C 0.28808 0.52877 0.48923 0.0
C1612 C 0.27746 0.52827 0.52219 0.0
C1613 C 0.2646 0.51902 0.51748 0.0
C1614 C 0.26212 0.51044 0.48147 0.0
C1615 C 0.24672 0.50249 0.48303 0.0
C1616 C 0.23641 0.50773 0.44645 0.0
C1617 C 0.24867 0.48501 0.48323 0.0
C1618 C 0.24082 0.50824 0.52503 0.0
C1619 C 0.25144 0.51751 0.54474 0.0
C1620 C 0.2484 0.52462 0.58315 0.0
C1621 C 0.23398 0.52244 0.60154 0.0
C1622 C 0.22276 0.51338 0.58122 0.0
C1623 C 0.22635 0.50601 0.54284 0.0
H1624 H 0.06377 0.57678 0.98871 0.0
H1625 H 0.09994 0.59138 0.0734 0.0
H1626 H 0.1192 0.57966 0.02637 0.0
H1627 H 0.08093 0.54054 0.95787 0.0
H1628 H 0.07449 0.54209 0.90409 0.0
H1629 H 0.06355 0.5508 0.94583 0.0
H1630 H 0.06517 0.57701 0.90779 0.0
H1631 H 0.07612 0.56839 0.866 0.0
H1632 H 0.08367 0.58469 0.89399 0.0
H1633 H 0.13463 0.5677 0.96759 0.0
H1634 H 0.14485 0.55563 0.90279 0.0
H1635 H 0.09847 0.54935 0.85685 0.0
C1636 C 0.07573 0.57746 0.99747 0.0
C1637 C 0.08035 0.58492 0.03483 0.0
C1638 C 0.09612 0.58549 0.04529 0.0
C1639 C 0.10715 0.57895 0.01866 0.0
C1640 C 0.10221 0.57185 0.9818 0.0
C1641 C 0.08687 0.571 0.97133 0.0
C1642 C 0.08457 0.56313 0.92937 0.0
C1643 C 0.07534 0.54825 0.93463 0.0
C1644 C 0.07694 0.57395 0.89741 0.0
C1645 C 0.10102 0.55984 0.91762 0.0
C1646 C 0.11105 0.56493 0.94822 0.0
C1647 C 0.12688 0.56357 0.94355 0.0
C1648 C 0.13258 0.55678 0.90662 0.0
C1649 C 0.12245 0.55144 0.87504 0.0
C1650 C 0.10649 0.55302 0.88083 0.0
H1651 H 0.93655 0.10207 0.36271 0.0
H1652 H 0.92313 0.14791 0.39986 0.0
H1653 H 0.90963 0.1372 0.46211 0.0
H1654 H 0.90204 0.0837 0.38874 0.0
H1655 H 0.91104 0.06644 0.40751 0.0
H1656 H 0.92037 0.0779 0.36804 0.0
H1657 H 0.9445 0.08001 0.41529 0.0
H1658 H 0.93527 0.06849 0.4549 0.0
H1659 H 0.94264 0.08713 0.46836 0.0
H1660 H 0.89603 0.12093 0.51727 0.0
H1661 H 0.88478 0.1008 0.56265 0.0
H1662 H 0.90752 0.06596 0.48796 0.0
C1663 C 0.93082 0.10987 0.38405 0.0
C1664 C 0.93073 0.12578 0.37652 0.0
C1665 C 0.92333 0.13568 0.40534 0.0
C1666 C 0.91562 0.12969 0.44057 0.0
C1667 C 0.91565 0.11385 0.44653 0.0
C1668 C 0.92321 0.10413 0.41921 0.0
C1669 C 0.92133 0.08756 0.43177 0.0
C1670 C 0.91321 0.07837 0.39695 0.0
C1671 C 0.93686 0.08038 0.44327 0.0
C1672 C 0.91127 0.08938 0.47012 0.0
C1673 C 0.9081 0.10461 0.47828 0.0
C1674 C 0.89855 0.10899 0.51135 0.0
C1675 C 0.89214 0.09749 0.53674 0.0
C1676 C 0.89536 0.08184 0.5289 0.0
C1677 C 0.90507 0.07783 0.49517 0.0
H1678 H 0.42419 0.88381 0.95555 0.0
H1679 H 0.46645 0.90923 0.94046 0.0
H1680 H 0.45508 0.9235 0.88075 0.0
H1681 H 0.41378 0.8814 0.84427 0.0
H1682 H 0.39366 0.8842 0.85428 0.0
H1683 H 0.40555 0.87516 0.89343 0.0
H1684 H 0.397 0.89536 0.94843 0.0
H1685 H 0.38515 0.9045 0.90944 0.0
H1686 H 0.39951 0.91542 0.937 0.0
H1687 H 0.43907 0.9352 0.82425 0.0
H1688 H 0.419 0.9447 0.77616 0.0
H1689 H 0.38652 0.91267 0.83024 0.0
C1690 C 0.43107 0.89221 0.93908 0.0
C1691 C 0.44621 0.89538 0.95188 0.0
C1692 C 0.45485 0.90667 0.93064 0.0
C1693 C 0.4485 0.91476 0.89679 0.0
C1694 C 0.43347 0.91151 0.88511 0.0
C1695 C 0.42481 0.90058 0.90571 0.0
C1696 C 0.40863 0.89998 0.88856 0.0
C1697 C 0.40521 0.88425 0.86897 0.0
C1698 C 0.39688 0.90406 0.92291 0.0
C1699 C 0.40952 0.91234 0.85521 0.0
C1700 C 0.42401 0.91869 0.85346 0.0
C1701 C 0.4277 0.93029 0.8252 0.0
C1702 C 0.41626 0.93556 0.79797 0.0
C1703 C 0.40129 0.92934 0.7995 0.0
C1704 C 0.39788 0.91762 0.82859 0.0
H1705 H 0.58239 0.3676 0.36711 0.0
H1706 H 0.53358 0.37054 0.39156 0.0
H1707 H 0.53867 0.38625 0.45449 0.0
H1708 H 0.59482 0.36716 0.4797 0.0
H1709 H 0.61142 0.37872 0.46852 0.0
H1710 H 0.60404 0.36587 0.429 0.0
H1711 H 0.60192 0.38854 0.37668 0.0
H1712 H 0.60905 0.40149 0.41614 0.0
H1713 H 0.59088 0.40517 0.3912 0.0
H1714 H 0.54871 0.40464 0.50817 0.0
H1715 H 0.56318 0.4227 0.55251 0.0
H1716 H 0.60559 0.4071 0.49512 0.0
C1717 C 0.57281 0.37125 0.38631 0.0
C1718 C 0.5576 0.36771 0.37465 0.0
C1719 C 0.54534 0.3728 0.40036 0.0
C1720 C 0.54811 0.38184 0.43602 0.0
C1721 C 0.5632 0.38556 0.4458 0.0
C1722 C 0.57537 0.38023 0.42213 0.0
C1723 C 0.59041 0.38666 0.43792 0.0
C1724 C 0.60078 0.37384 0.4548 0.0
C1725 C 0.59854 0.39602 0.40343 0.0
C1726 C 0.58473 0.39685 0.47319 0.0
C1727 C 0.56901 0.396 0.47736 0.0
C1728 C 0.56106 0.40513 0.50592 0.0
C1729 C 0.56942 0.41534 0.5311 0.0
C1730 C 0.58558 0.41632 0.52771 0.0
C1731 C 0.59326 0.4068 0.49843 0.0
H1732 H 0.10819 0.91631 0.14999 0.0
H1733 H 0.12817 0.95386 0.07894 0.0
H1734 H 0.11609 0.94392 0.01426 0.0
H1735 H 0.10894 0.88718 0.06801 0.0
H1736 H 0.09049 0.87966 0.08284 0.0
H1737 H 0.10264 0.88835 0.122 0.0
H1738 H 0.08078 0.90708 0.14196 0.0
H1739 H 0.06859 0.8985 0.10284 0.0
H1740 H 0.07222 0.91881 0.1016 0.0
H1741 H 0.10047 0.93058 0.95791 0.0
H1742 H 0.08224 0.9156 0.91544 0.0
H1743 H 0.06985 0.88938 0.02677 0.0
C1744 C 0.11011 0.92252 0.12098 0.0
C1745 C 0.1192 0.93593 0.1199 0.0
C1746 C 0.12155 0.94341 0.08076 0.0
C1747 C 0.11462 0.93792 0.0438 0.0
C1748 C 0.10529 0.92501 0.04651 0.0
C1749 C 0.10301 0.91745 0.08419 0.0
C1750 C 0.09143 0.90468 0.07971 0.0
C1751 C 0.09882 0.88904 0.08866 0.0
C1752 C 0.07743 0.90745 0.10821 0.0
C1753 C 0.08736 0.90635 0.03369 0.0
C1754 C 0.09565 0.91794 0.01485 0.0
C1755 C 0.09385 0.92153 0.97242 0.0
C1756 C 0.08328 0.91304 0.94867 0.0
C1757 C 0.07437 0.90129 0.96755 0.0
C1758 C 0.07654 0.89803 0.01079 0.0
H1759 H 0.55464 0.10475 0.63224 0.0
H1760 H 0.59318 0.12629 0.69452 0.0
H1761 H 0.61088 0.11426 0.64327 0.0
H1762 H 0.57274 0.06941 0.61561 0.0
H1763 H 0.56399 0.06576 0.56517 0.0
H1764 H 0.55426 0.07747 0.60336 0.0
H1765 H 0.55239 0.09957 0.54912 0.0
H1766 H 0.56203 0.08787 0.5106 0.0
H1767 H 0.56954 0.10647 0.52387 0.0
H1768 H 0.62431 0.09895 0.58745 0.0
H1769 H 0.63271 0.08108 0.53194 0.0
H1770 H 0.58536 0.06812 0.50974 0.0
C1771 C 0.56677 0.10721 0.63428 0.0
C1772 C 0.57262 0.11658 0.66666 0.0
C1773 C 0.58857 0.11922 0.66951 0.0
C1774 C 0.59866 0.11247 0.64061 0.0
C1775 C 0.59256 0.10302 0.60944 0.0
C1776 C 0.577 0.10037 0.60613 0.0
C1777 C 0.5735 0.08885 0.57187 0.0
C1778 C 0.56566 0.07453 0.59011 0.0
C1779 C 0.56379 0.09613 0.53678 0.0
C1780 C 0.58953 0.08531 0.5567 0.0
C1781 C 0.60035 0.09372 0.57843 0.0
C1782 C 0.61595 0.09228 0.57025 0.0
C1783 C 0.62061 0.08196 0.53894 0.0
C1784 C 0.60972 0.07308 0.51654 0.0
C1785 C 0.59398 0.07486 0.52575 0.0
H1786 H 0.3843 0.58491 0.14383 0.0
H1787 H 0.36662 0.54357 0.08533 0.0
H1788 H 0.37809 0.55141 0.01771 0.0
H1789 H 0.38167 0.61036 0.05225 0.0
H1790 H 0.39958 0.6196 0.06446 0.0
H1791 H 0.38787 0.61199 0.10624 0.0
H1792 H 0.41079 0.59568 0.13234 0.0
H1793 H 0.42254 0.60319 0.09064 0.0
H1794 H 0.42016 0.58279 0.09622 0.0
H1795 H 0.39347 0.56275 0.9578 0.0
H1796 H 0.41154 0.57642 0.91134 0.0
H1797 H 0.42118 0.60857 0.0124 0.0
C1798 C 0.3827 0.5775 0.11685 0.0
C1799 C 0.37449 0.56361 0.12014 0.0
C1800 C 0.37257 0.55442 0.08366 0.0
C1801 C 0.37915 0.55872 0.04508 0.0
C1802 C 0.38764 0.57222 0.04349 0.0
C1803 C 0.3894 0.58146 0.07846 0.0
C1804 C 0.40019 0.59462 0.06975 0.0
C1805 C 0.39182 0.61005 0.07338 0.0
C1806 C 0.41425 0.59402 0.09896 0.0
C1807 C 0.40448 0.59117 0.02462 0.0
C1808 C 0.39696 0.57836 0.00974 0.0
C1809 C 0.3994 0.57282 0.96913 0.0
C1810 C 0.40983 0.58058 0.94311 0.0
C1811 C 0.41788 0.59361 0.95805 0.0
C1812 C 0.41505 0.59889 -0.00057 0.0
H1813 H 0.9307 0.37354 0.59645 0.0
H1814 H 0.9092 0.38843 0.71273 0.0
H1815 H 0.89481 0.40811 0.67367 0.0
H1816 H 0.93555 0.41021 0.55179 0.0
H1817 H 0.93118 0.40452 0.49855 0.0
H1818 H 0.93914 0.39084 0.53488 0.0
H1819 H 0.91623 0.37259 0.52179 0.0
H1820 H 0.9083 0.38613 0.48498 0.0
H1821 H 0.89698 0.37958 0.5289 0.0
H1822 H 0.88466 0.42758 0.62374 0.0
H1823 H 0.87722 0.44415 0.56454 0.0
H1824 H 0.90406 0.41585 0.4794 0.0
C1825 C 0.92279 0.38081 0.61348 0.0
C1826 C 0.92093 0.37936 0.65751 0.0
C1827 C 0.91055 0.38913 0.67886 0.0
C1828 C 0.90243 0.40043 0.65703 0.0
C1829 C 0.90472 0.40174 0.6138 0.0
C1830 C 0.91445 0.39207 0.59207 0.0
C1831 C 0.9149 0.39608 0.54564 0.0
C1832 C 0.93116 0.40069 0.53193 0.0
C1833 C 0.90873 0.38281 0.51874 0.0
C1834 C 0.90412 0.40968 0.54492 0.0
C1835 C 0.89845 0.41277 0.58462 0.0
C1836 C 0.88878 0.42511 0.59231 0.0
C1837 C 0.88455 0.43441 0.55834 0.0
C1838 C 0.88985 0.43125 0.51698 0.0
C1839 C 0.89986 0.41871 0.51049 0.0
H1840 H 0.93066 0.38794 0.04078 0.0
H1841 H 0.9112 0.40638 0.92563 0.0
H1842 H 0.89315 0.42188 0.96751 0.0
H1843 H 0.89548 0.38558 0.09918 0.0
H1844 H 0.904 0.39129 0.14846 0.0
H1845 H 0.91536 0.38148 0.10953 0.0
H1846 H 0.93506 0.40367 0.11014 0.0
H1847 H 0.92381 0.4135 0.14926 0.0
H1848 H 0.92862 0.42297 0.10058 0.0
H1849 H 0.87741 0.43558 0.02163 0.0
H1850 H 0.86528 0.44686 0.08478 0.0
H1851 H 0.89521 0.41983 0.16461 0.0
C1852 C 0.92267 0.39531 0.0244 0.0
C1853 C 0.92226 0.39586 0.97993 0.0
C1854 C 0.91154 0.40557 0.95967 0.0
C1855 C 0.90129 0.41448 0.98316 0.0
C1856 C 0.90191 0.41357 0.02689 0.0
C1857 C 0.91233 0.40428 0.04737 0.0
C1858 C 0.91067 0.40552 0.09473 0.0
C1859 C 0.9061 0.39004 0.1141 0.0
C1860 C 0.92542 0.41179 0.11485 0.0
C1861 C 0.89771 0.41699 0.09763 0.0
C1862 C 0.89281 0.42147 0.05814 0.0
C1863 C 0.88113 0.43216 0.05275 0.0
C1864 C 0.87435 0.43853 0.08874 0.0
C1865 C 0.87926 0.43418 0.12953 0.0
C1866 C 0.89104 0.42319 0.13385 0.0
H1867 H 0.07596 0.8859 0.64898 0.0
H1868 H 0.04785 0.85677 0.56972 0.0
H1869 H 0.0571 0.87061 0.50666 0.0
H1870 H 0.06988 0.92015 0.59288 0.0
H1871 H 0.0891 0.92725 0.59978 0.0
H1872 H 0.08091 0.91454 0.63833 0.0
H1873 H 0.10371 0.89583 0.62908 0.0
H1874 H 0.11207 0.90856 0.59082 0.0
H1875 H 0.10843 0.88885 0.57721 0.0
H1876 H 0.06869 0.88833 0.45286 0.0
H1877 H 0.08221 0.90817 0.41186 0.0
H1878 H 0.10308 0.92526 0.52676 0.0
C1879 C 0.07201 0.88219 0.61829 0.0
C1880 C 0.06129 0.87017 0.61413 0.0
C1881 C 0.05605 0.86596 0.57353 0.0
C1882 C 0.06126 0.87372 0.53761 0.0
C1883 C 0.07169 0.88565 0.54294 0.0
C1884 C 0.07706 0.8898 0.58224 0.0
C1885 C 0.08788 0.90329 0.57962 0.0
C1886 C 0.08156 0.91712 0.6041 0.0
C1887 C 0.10398 0.89886 0.59509 0.0
C1888 C 0.08771 0.90615 0.53266 0.0
C1889 C 0.07832 0.89585 0.51204 0.0
C1890 C 0.07618 0.89637 0.46861 0.0
C1891 C 0.08396 0.90764 0.4456 0.0
C1892 C 0.09376 0.91823 0.46607 0.0
C1893 C 0.09557 0.91744 0.51022 0.0
H1894 H 0.61699 0.06449 0.1085 0.0
H1895 H 0.61049 0.09187 0.22134 0.0
H1896 H 0.59241 0.10841 0.18316 0.0
H1897 H 0.61379 0.09591 0.03245 0.0
H1898 H 0.60345 0.08441 0.99485 0.0
H1899 H 0.617 0.07554 0.02999 0.0
H1900 H 0.59584 0.05702 0.05607 0.0
H1901 H 0.58219 0.06592 0.02135 0.0
H1902 H 0.57826 0.06474 0.07701 0.0
H1903 H 0.57366 0.12088 0.1347 0.0
H1904 H 0.55607 0.12893 0.078 0.0
H1905 H 0.57453 0.09341 0.99683 0.0
C1906 C 0.61189 0.07406 0.12505 0.0
C1907 C 0.61536 0.07698 0.16779 0.0
C1908 C 0.60838 0.08961 0.18831 0.0
C1909 C 0.59796 0.09901 0.16701 0.0
C1910 C 0.59462 0.09565 0.12519 0.0
C1911 C 0.60143 0.08355 0.10429 0.0
C1912 C 0.59534 0.08207 0.05982 0.0
C1913 C 0.60816 0.08464 0.02736 0.0
C1914 C 0.58744 0.06651 0.0532 0.0
C1915 C 0.58387 0.09507 0.0593 0.0
C1916 C 0.58369 0.1028 0.09725 0.0
C1917 C 0.5738 0.11502 0.10465 0.0
C1918 C 0.56389 0.11954 0.07224 0.0
C1919 C 0.56393 0.11183 0.03296 0.0
C1920 C 0.57409 0.09943 0.02662 0.0
H1921 H 0.41726 0.58814 0.46293 0.0
H1922 H 0.37057 0.59334 0.5073 0.0
H1923 H 0.37894 0.61359 0.55638 0.0
H1924 H 0.43445 0.59099 0.5602 0.0
H1925 H 0.45108 0.60149 0.54298 0.0
H1926 H 0.44112 0.58925 0.50665 0.0
H1927 H 0.43761 0.61206 0.45535 0.0
H1928 H 0.44759 0.62441 0.49167 0.0
H1929 H 0.42864 0.6294 0.4738 0.0
H1930 H 0.3926 0.63047 0.60652 0.0
H1931 H 0.41069 0.64205 0.65639 0.0
H1932 H 0.44869 0.62702 0.57826 0.0
C1933 C 0.40877 0.59386 0.4822 0.0
C1934 C 0.39329 0.58924 0.4814 0.0
C1935 C 0.38252 0.59668 0.50774 0.0
C1936 C 0.38713 0.60828 0.53538 0.0
C1937 C 0.40254 0.61238 0.53609 0.0
C1938 C 0.41321 0.60544 0.51015 0.0
C1939 C 0.42928 0.61085 0.5203 0.0
C1940 C 0.43958 0.59734 0.53332 0.0
C1941 C 0.43618 0.61971 0.48306 0.0
C1942 C 0.42601 0.62138 0.55715 0.0
C1943 C 0.41049 0.62231 0.5652 0.0
C1944 C 0.40476 0.63015 0.59998 0.0
C1945 C 0.41518 0.63682 0.62805 0.0
C1946 C 0.43119 0.6356 0.62129 0.0
C1947 C 0.43656 0.62819 0.58448 0.0
H1948 H 0.88092 0.08294 0.85506 0.0
H1949 H 0.86551 0.04235 0.92162 0.0
H1950 H 0.87709 0.05223 0.9871 0.0
H1951 H 0.91684 0.08396 0.89981 0.0
H1952 H 0.91827 0.10451 0.9027 0.0
H1953 H 0.90644 0.09577 0.86307 0.0
H1954 H 0.88298 0.11127 0.88922 0.0
H1955 H 0.8948 0.12024 0.92868 0.0
H1956 H 0.87755 0.11035 0.94396 0.0
H1957 H 0.89311 0.06492 0.04284 0.0
H1958 H 0.91176 0.07975 0.08485 0.0
H1959 H 0.91748 0.11144 0.98082 0.0
C1960 C 0.87975 0.07621 0.88352 0.0
C1961 C 0.87227 0.06187 0.88315 0.0
C1962 C 0.87094 0.05349 0.9212 0.0
C1963 C 0.87757 0.05897 0.95853 0.0
C1964 C 0.88542 0.07285 0.95729 0.0
C1965 C 0.88642 0.08142 0.92082 0.0
C1966 C 0.89663 0.09526 0.92671 0.0
C1967 C 0.91036 0.09483 0.89628 0.0
C1968 C 0.88744 0.11016 0.92187 0.0
C1969 C 0.90164 0.09286 0.97181 0.0
C1970 C 0.89488 0.08002 0.98913 0.0
C1971 C 0.89829 0.07514 0.02983 0.0
C1972 C 0.90887 0.08363 0.05344 0.0
C1973 C 0.91603 0.09675 0.03609 0.0
C1974 C 0.91225 0.10142 0.99482 0.0
H1975 H 0.39654 0.92461 0.48174 0.0
H1976 H 0.36801 0.9521 0.39924 0.0
H1977 H 0.37626 0.93642 0.33843 0.0
H1978 H 0.42792 0.9206 0.41109 0.0
H1979 H 0.43215 0.90121 0.4266 0.0
H1980 H 0.42339 0.91415 0.46358 0.0
H1981 H 0.40109 0.89495 0.47452 0.0
H1982 H 0.40976 0.88198 0.43738 0.0
H1983 H 0.39034 0.88836 0.42957 0.0
H1984 H 0.38855 0.91845 0.28643 0.0
H1985 H 0.40433 0.89998 0.2468 0.0
H1986 H 0.42453 0.88409 0.36387 0.0
C1987 C 0.3921 0.92742 0.45085 0.0
C1988 C 0.38168 0.93962 0.44516 0.0
C1989 C 0.37591 0.94273 0.40434 0.0
C1990 C 0.38055 0.93391 0.36966 0.0
C1991 C 0.39087 0.92199 0.37644 0.0
C1992 C 0.39657 0.91875 0.41603 0.0
C1993 C 0.40782 0.90558 0.4148 0.0
C1994 C 0.42376 0.91069 0.4299 0.0
C1995 C 0.40189 0.89191 0.44059 0.0
C1996 C 0.40777 0.90207 0.36815 0.0
C1997 C 0.39785 0.91158 0.3466 0.0
C1998 C 0.39623 0.91082 0.30302 0.0
C1999 C 0.40516 0.9002 0.28083 0.0
C2000 C 0.41558 0.89048 0.30224 0.0
C2001 C 0.41671 0.89137 0.34656 0.0
H2002 H 0.57139 0.39086 0.95917 0.0
H2003 H 0.59194 0.40771 0.0747 0.0
H2004 H 0.6129 0.41942 0.03349 0.0
H2005 H 0.60676 0.38165 0.90539 0.0
H2006 H 0.59984 0.38782 0.85467 0.0
H2007 H 0.58662 0.38051 0.89331 0.0
H2008 H 0.57062 0.40546 0.88827 0.0
H2009 H 0.58372 0.41276 0.84937 0.0
H2010 H 0.5799 0.42366 0.89642 0.0
H2011 H 0.63131 0.42982 0.97929 0.0
H2012 H 0.64506 0.439 0.91595 0.0
H2013 H 0.6125 0.41497 0.83664 0.0
C2014 C 0.58037 0.3969 0.97584 0.0
C2015 C 0.58003 0.39839 0.02013 0.0
C2016 C 0.59187 0.40659 0.04072 0.0
C2017 C 0.60389 0.41316 0.01764 0.0
C2018 C 0.60391 0.41141 0.97402 0.0
C2019 C 0.59242 0.40354 0.95332 0.0
C2020 C 0.59482 0.40375 0.90612 0.0
C2021 C 0.59715 0.38746 0.88887 0.0
C2022 C 0.58148 0.4119 0.88374 0.0
C2023 C 0.60942 0.41301 0.90349 0.0
C2024 C 0.61453 0.41729 0.94295 0.0
C2025 C 0.62747 0.42646 0.94823 0.0
C2026 C 0.63519 0.43163 0.91214 0.0
C2027 C 0.62995 0.42759 0.87139 0.0
C2028 C 0.61703 0.41796 0.8673 0.0
H2029 H 0.08699 0.56904 0.49743 0.0
H2030 H 0.12369 0.59918 0.53791 0.0
H2031 H 0.1124 0.62021 0.49626 0.0
H2032 H 0.08584 0.58208 0.39211 0.0
H2033 H 0.06536 0.58029 0.38721 0.0
H2034 H 0.07564 0.56813 0.42313 0.0
H2035 H 0.0582 0.57731 0.4843 0.0
H2036 H 0.04795 0.58961 0.44853 0.0
H2037 H 0.05661 0.5975 0.49529 0.0
H2038 H 0.09801 0.63746 0.44616 0.0
H2039 H 0.08207 0.64919 0.39034 0.0
H2040 H 0.05543 0.60736 0.38205 0.0
C2041 C 0.09269 0.58005 0.49759 0.0
C2042 C 0.10621 0.58245 0.5211 0.0
C2043 C 0.11318 0.59711 0.52071 0.0
C2044 C 0.10689 0.60913 0.49705 0.0
C2045 C 0.09359 0.60631 0.47406 0.0
C2046 C 0.0866 0.59212 0.47413 0.0
C2047 C 0.07289 0.59179 0.44504 0.0
C2048 C 0.07507 0.57987 0.40979 0.0
C2049 C 0.05804 0.58888 0.46978 0.0
C2050 C 0.07343 0.60793 0.42799 0.0
C2051 C 0.08535 0.6162 0.44532 0.0
C2052 C 0.08855 0.63115 0.43267 0.0
C2053 C 0.07948 0.63769 0.40091 0.0
C2054 C 0.0674 0.62926 0.3822 0.0
C2055 C 0.06427 0.61428 0.39653 0.0
H2056 H 0.90915 0.55508 0.32919 0.0
H2057 H 0.88171 0.5514 0.21552 0.0
H2058 H 0.89684 0.57196 0.18288 0.0
H2059 H 0.91616 0.597 0.3236 0.0
H2060 H 0.93559 0.59503 0.34202 0.0
H2061 H 0.92112 0.58168 0.35911 0.0
H2062 H 0.93772 0.55911 0.33218 0.0
H2063 H 0.95219 0.57236 0.31501 0.0
H2064 H 0.94403 0.55897 0.27809 0.0
H2065 H 0.9168 0.5904 0.15902 0.0
H2066 H 0.94016 0.60568 0.14623 0.0
H2067 H 0.95501 0.59714 0.27445 0.0
C2068 C 0.90617 0.55874 0.29766 0.0
C2069 C 0.89411 0.55167 0.27518 0.0
C2070 C 0.89063 0.55683 0.23391 0.0
C2071 C 0.89922 0.56848 0.21493 0.0
C2072 C 0.91123 0.57494 0.23761 0.0
C2073 C 0.91467 0.57033 0.27816 0.0
C2074 C 0.92897 0.57821 0.29429 0.0
C2075 C 0.92523 0.5886 0.33199 0.0
C2076 C 0.94146 0.56646 0.30553 0.0
C2077 C 0.93333 0.58753 0.25591 0.0
C2078 C 0.92283 0.58562 0.22374 0.0
C2079 C 0.92497 0.59218 0.18417 0.0
C2080 C 0.93829 0.60076 0.17711 0.0
C2081 C 0.9493 0.60266 0.20944 0.0
C2082 C 0.94661 0.59616 0.2495 0.0
H2083 H 0.89716 0.94339 0.76093 0.0
H2084 H 0.90504 0.94375 0.62568 0.0
H2085 H 0.92131 0.92093 0.63263 0.0
H2086 H 0.93512 0.93592 0.78703 0.0
H2087 H 0.93082 0.92411 0.83205 0.0
H2088 H 0.91754 0.93869 0.81583 0.0
H2089 H 0.89601 0.91836 0.81006 0.0
H2090 H 0.90926 0.90368 0.82627 0.0
H2091 H 0.89888 0.90169 0.7775 0.0
H2092 H 0.93874 0.89973 0.65462 0.0
H2093 H 0.95725 0.88285 0.69047 0.0
H2094 H 0.93963 0.89749 0.81176 0.0
C2095 C 0.9022 0.93869 0.73259 0.0
C2096 C 0.89963 0.94544 0.69267 0.0
C2097 C 0.90642 0.93869 0.65655 0.0
C2098 C 0.91578 0.92572 0.66016 0.0
C2099 C 0.91834 0.91965 0.7001 0.0
C2100 C 0.91181 0.92595 0.73571 0.0
C2101 C 0.91769 0.91832 0.77536 0.0
C2102 C 0.92577 0.92995 0.80424 0.0
C2103 C 0.90468 0.91002 0.79867 0.0
C2104 C 0.92893 0.90705 0.75653 0.0
C2105 C 0.92887 0.90776 0.71302 0.0
C2106 C 0.93875 0.89893 0.68863 0.0
C2107 C 0.94918 0.88933 0.70927 0.0
C2108 C 0.94977 0.8888 0.75385 0.0
C2109 C 0.93935 0.89763 0.77765 0.0
H2110 H 0.53971 0.91695 0.20249 0.0
H2111 H 0.55682 0.87617 0.26525 0.0
H2112 H 0.57805 0.89131 0.29514 0.0
H2113 H 0.57711 0.93163 0.17354 0.0
H2114 H 0.57142 0.95129 0.1809 0.0
H2115 H 0.55747 0.93722 0.16521 0.0
H2116 H 0.54059 0.94449 0.22936 0.0
H2117 H 0.55451 0.95852 0.24539 0.0
H2118 H 0.54866 0.94375 0.28159 0.0
H2119 H 0.59677 0.91144 0.32106 0.0
H2120 H 0.61241 0.93452 0.33636 0.0
H2121 H 0.5842 0.96108 0.2512 0.0
C2122 C 0.54803 0.91102 0.22177 0.0
C2123 C 0.54646 0.89529 0.23146 0.0
C2124 C 0.55752 0.88824 0.25785 0.0
C2125 C 0.56971 0.89672 0.27478 0.0
C2126 C 0.57083 0.91219 0.26456 0.0
C2127 C 0.56038 0.9192 0.23823 0.0
C2128 C 0.56418 0.93592 0.23163 0.0
C2129 C 0.56776 0.9392 0.18505 0.0
C2130 C 0.55121 0.94627 0.24798 0.0
C2131 C 0.57835 0.93728 0.25866 0.0
C2132 C 0.58195 0.92352 0.27776 0.0
C2133 C 0.59417 0.92221 0.30584 0.0
C2134 C 0.60294 0.93532 0.31442 0.0
C2135 C 0.59954 0.94938 0.29446 0.0
C2136 C 0.58714 0.95034 0.26621 0.0
H2137 H 0.5782 0.54054 0.67753 0.0
H2138 H 0.61946 0.55293 0.74554 0.0
H2139 H 0.60659 0.5762 0.77244 0.0
H2140 H 0.56649 0.57976 0.64999 0.0
H2141 H 0.54645 0.57552 0.65695 0.0
H2142 H 0.55944 0.5607 0.64012 0.0
H2143 H 0.55085 0.54377 0.70289 0.0
H2144 H 0.5379 0.55853 0.71998 0.0
H2145 H 0.55217 0.55123 0.75573 0.0
H2146 H 0.58824 0.59663 0.79767 0.0
H2147 H 0.56629 0.61337 0.81586 0.0
H2148 H 0.53737 0.5875 0.73057 0.0
C2149 C 0.58457 0.54825 0.69771 0.0
C2150 C 0.59981 0.54498 0.70946 0.0
C2151 C 0.60782 0.55535 0.73576 0.0
C2152 C 0.60059 0.56854 0.75131 0.0
C2153 C 0.58543 0.57125 0.73984 0.0
C2154 C 0.57758 0.56147 0.71324 0.0
C2155 C 0.5612 0.5666 0.70701 0.0
C2156 C 0.55823 0.5709 0.66077 0.0
C2157 C 0.54987 0.5543 0.72233 0.0
C2158 C 0.56092 0.58056 0.73513 0.0
C2159 C 0.575 0.58312 0.75372 0.0
C2160 C 0.57722 0.59488 0.78283 0.0
C2161 C 0.56471 0.60425 0.79314 0.0
C2162 C 0.55022 0.60181 0.77424 0.0
C2163 C 0.54841 0.58986 0.74475 0.0
H2164 H 0.09043 0.45233 0.74881 0.0
H2165 H 0.10509 0.4316 0.63123 0.0
H2166 H 0.09041 0.40825 0.6489 0.0
H2167 H 0.08933 0.41725 0.8128 0.0
H2168 H 0.07234 0.42333 0.84037 0.0
H2169 H 0.08581 0.43735 0.82132 0.0
H2170 H 0.06407 0.45088 0.77998 0.0
H2171 H 0.05056 0.43696 0.7989 0.0
H2172 H 0.05276 0.44 0.74306 0.0
H2173 H 0.07195 0.38825 0.6764 0.0
H2174 H 0.05063 0.37398 0.70958 0.0
H2175 H 0.04765 0.40851 0.80737 0.0
C2176 C 0.09064 0.44287 0.72676 0.0
C2177 C 0.09886 0.44382 0.68853 0.0
C2178 C 0.09901 0.43107 0.66093 0.0
C2179 C 0.09069 0.41777 0.67068 0.0
C2180 C 0.0824 0.41741 0.70823 0.0
C2181 C 0.08236 0.42964 0.73581 0.0
C2182 C 0.07151 0.42705 0.77222 0.0
C2183 C 0.08027 0.42619 0.81416 0.0
C2184 C 0.05899 0.43945 0.77358 0.0
C2185 C 0.06502 0.41164 0.76015 0.0
C2186 C 0.07163 0.40609 0.72361 0.0
C2187 C 0.06685 0.39239 0.70531 0.0
C2188 C 0.05479 0.38434 0.72441 0.0
C2189 C 0.04756 0.39017 0.76098 0.0
C2190 C 0.05299 0.40381 0.77941 0.0
H2191 H 0.03934 0.09215 0.28164 0.0
H2192 H 0.06458 0.11577 0.1835 0.0
H2193 H 0.08833 0.10276 0.20636 0.0
H2194 H 0.07071 0.08988 0.3609 0.0
H2195 H 0.06497 0.07092 0.3767 0.0
H2196 H 0.05083 0.08439 0.35834 0.0
H2197 H 0.04194 0.06496 0.30157 0.0
H2198 H 0.05595 0.05147 0.31985 0.0
H2199 H 0.05581 0.05719 0.26529 0.0
H2200 H 0.10845 0.08439 0.23354 0.0
H2201 H 0.12238 0.06148 0.25933 0.0
H2202 H 0.0834 0.04927 0.33652 0.0
C2203 C 0.04989 0.09475 0.26518 0.0
C2204 C 0.05008 0.10494 0.23066 0.0
C2205 C 0.06417 0.10814 0.21036 0.0
C2206 C 0.07772 0.1008 0.22314 0.0
C2207 C 0.07699 0.09042 0.25648 0.0
C2208 C 0.06339 0.08745 0.27722 0.0
C2209 C 0.06507 0.07451 0.30848 0.0
C2210 C 0.06276 0.08028 0.35379 0.0
C2211 C 0.05405 0.06126 0.29814 0.0
C2212 C 0.08156 0.07012 0.3007 0.0
C2213 C 0.08842 0.07967 0.27149 0.0
C2214 C 0.10329 0.07704 0.25703 0.0
C2215 C 0.11114 0.06408 0.27188 0.0
C2216 C 0.10394 0.05387 0.30018 0.0
C2217 C 0.08917 0.05715 0.31549 0.0
H2218 H 0.39543 0.06095 0.67807 0.0
H2219 H 0.37985 0.04039 0.79492 0.0
H2220 H 0.39619 0.05814 0.83509 0.0
H2221 H 0.43334 0.06417 0.70617 0.0
H2222 H 0.4368 0.08229 0.68073 0.0
H2223 H 0.42206 0.0698 0.66119 0.0
H2224 H 0.40198 0.09144 0.6693 0.0
H2225 H 0.41672 0.10409 0.68852 0.0
H2226 H 0.39973 0.10083 0.71951 0.0
H2227 H 0.41698 0.07513 0.86179 0.0
H2228 H 0.43981 0.09108 0.87337 0.0
H2229 H 0.44133 0.10151 0.73957 0.0
C2230 C 0.39522 0.06041 0.71214 0.0
C2231 C 0.38626 0.04937 0.73334 0.0
C2232 C 0.38636 0.04896 0.77798 0.0
C2233 C 0.39567 0.05895 0.80111 0.0
C2234 C 0.4047 0.06939 0.77918 0.0
C2235 C 0.40441 0.07034 0.73572 0.0
C2236 C 0.41608 0.08176 0.71971 0.0
C2237 C 0.42776 0.07404 0.69023 0.0
C2238 C 0.40815 0.09534 0.69798 0.0
C2239 C 0.4234 0.08659 0.76084 0.0
C2240 C 0.41658 0.07943 0.79478 0.0
C2241 C 0.42218 0.08112 0.83559 0.0
C2242 C 0.43515 0.09029 0.84187 0.0
C2243 C 0.4424 0.09771 0.80749 0.0
C2244 C 0.43619 0.09597 0.7666 0.0
H2245 H 0.45124 0.41394 0.18741 0.0
H2246 H 0.44804 0.38134 0.29038 0.0
H2247 H 0.42791 0.3971 0.32321 0.0
H2248 H 0.44677 0.44693 0.24517 0.0
H2249 H 0.43504 0.45686 0.20731 0.0
H2250 H 0.44828 0.44242 0.18989 0.0
H2251 H 0.42622 0.42766 0.15331 0.0
H2252 H 0.41291 0.4422 0.17013 0.0
H2253 H 0.40948 0.42242 0.18326 0.0
H2254 H 0.41052 0.41811 0.34909 0.0
H2255 H 0.39584 0.44165 0.36313 0.0
H2256 H 0.40824 0.45881 0.23918 0.0
C2257 C 0.44603 0.40981 0.21618 0.0
C2258 C 0.45142 0.39644 0.23641 0.0
C2259 C 0.44441 0.39171 0.27462 0.0
C2260 C 0.43285 0.40051 0.29338 0.0
C2261 C 0.42815 0.41384 0.27313 0.0
C2262 C 0.43431 0.4183 0.23496 0.0
C2263 C 0.42762 0.43336 0.22039 0.0
C2264 C 0.44018 0.44561 0.21542 0.0
C2265 C 0.41851 0.43128 0.17934 0.0
C2266 C 0.41716 0.43694 0.25706 0.0
C2267 C 0.41758 0.42555 0.28715 0.0
C2268 C 0.40979 0.42694 0.32528 0.0
C2269 C 0.4014 0.44036 0.33287 0.0
C2270 C 0.40076 0.4522 0.30233 0.0
C2271 C 0.40857 0.4502 0.26365 0.0
loop_
_geom_bond_atom_site_label_1
_geom_bond_atom_site_label_2
_geom_bond_distance
_geom_bond_site_symmetry_2
_ccdc_geom_bond_type
Li0 N17 1.990 1_455 S
Li0 O60 1.956 . S
Li0 O61 1.970 . S
Li0 O62 1.961 . S
Li1 N25 1.990 . S
Li1 O60 1.970 . S
Li1 O61 1.956 . S
Li1 O63 1.961 . S
Li2 N47 1.990 . S
Li2 O60 1.961 . S
Li2 O62 1.956 . S
Li2 O63 1.970 . S
Li3 N53 1.990 . S
Li3 O61 1.961 . S
Li3 O62 1.970 . S
Li3 O63 1.956 . S
C4 C6 1.348 . S
C4 C7 1.356 1_455 S
C4 O60 1.325 . S
N5 C8 1.314 1_655 S
N5 C9 1.279 . S
C6 C4 1.348 . S
C6 C8 1.353 . S
C6 H64 0.929 . S
C7 C4 1.356 1_655 S
C7 C9 1.358 . S
C7 H65 0.930 . S
C8 N5 1.314 1_455 S
C8 C6 1.353 . S
C8 H66 0.930 . S
C9 N5 1.279 . S
C9 C7 1.358 . S
C9 H67 0.930 . S
C10 C13 1.348 . S
C10 C14 1.356 . S
C10 O61 1.325 . S
C11 N12 1.279 . S
C11 C14 1.358 . S
C11 H68 0.930 . S
N12 C11 1.279 . S
N12 C15 1.314 . S
C13 C10 1.348 . S
C13 C15 1.353 . S
C13 H69 0.929 . S
C14 C10 1.356 . S
C14 C11 1.358 . S
C14 H70 0.930 . S
C15 N12 1.314 . S
C15 C13 1.353 . S
C15 H71 0.930 . S
C16 N17 1.314 . S
C16 C21 1.353 . S
C16 H22 0.930 . S
N17 Li0 1.990 1_655 S
N17 C16 1.314 . S
N17 C19 1.279 . S
C18 C19 1.358 . S
C18 C20 1.356 . S
C18 H72 0.930 . S
C19 N17 1.279 . S
C19 C18 1.358 . S
C19 H23 0.930 . S
C20 C18 1.356 . S
C20 C21 1.348 . S
C21 C16 1.353 . S
C21 C20 1.348 . S
C21 H73 0.929 . S
H22 C16 0.930 . S
H23 C19 0.930 . S
C24 N25 1.314 . S
C24 C26 1.353 . S
C24 H30 0.930 . S
N25 Li1 1.990 . S
N25 C24 1.314 . S
N25 C28 1.279 . S
C26 C24 1.353 . S
C26 C29 1.348 . S
C26 H74 0.929 . S
C27 C28 1.358 . S
C27 C29 1.356 . S
C27 H75 0.930 . S
C28 N25 1.279 . S
C28 C27 1.358 . S
C28 H31 0.930 . S
C29 C26 1.348 . S
C29 C27 1.356 . S
H30 C24 0.930 . S
H31 C28 0.930 . S
C32 C34 1.348 . S
C32 C35 1.356 1_455 S
C32 O62 1.325 . S
N33 C36 1.314 . S
N33 C37 1.279 1_556 S
C34 C32 1.348 . S
C34 C36 1.353 1_454 S
C34 H76 0.929 . S
C35 C32 1.356 1_655 S
C35 C37 1.358 . S
C35 H77 0.930 . S
C36 N33 1.314 . S
C36 C34 1.353 1_656 S
C36 H78 0.930 1_655 S
C37 N33 1.279 1_554 S
C37 C35 1.358 . S
C37 H79 0.930 . S
C38 C39 1.348 . S
C38 C40 1.356 . S
C38 O63 1.325 . S
C39 C38 1.348 . S
C39 C41 1.353 . S
C39 H80 0.929 . S
C40 C38 1.356 . S
C40 C42 1.358 . S
C40 H81 0.930 . S
C41 C39 1.353 . S
C41 N43 1.314 . S
C41 H82 0.930 . S
C42 C40 1.358 . S
C42 N43 1.279 . S
C42 H83 0.930 . S
N43 C41 1.314 . S
N43 C42 1.279 . S
C44 C46 1.353 . S
C44 N47 1.314 . S
C44 H50 0.930 . S
C45 N47 1.279 . S
C45 C48 1.358 . S
C45 H51 0.930 . S
C46 C44 1.353 . S
C46 C49 1.348 . S
C46 H84 0.929 . S
N47 Li2 1.990 . S
N47 C44 1.314 . S
N47 C45 1.279 . S
C48 C45 1.358 . S
C48 C49 1.356 . S
C48 H85 0.930 . S
C49 C46 1.348 . S
C49 C48 1.356 . S
H50 C44 0.930 . S
H51 C45 0.930 . S
C52 N53 1.314 . S
C52 C54 1.353 1_554 S
C52 H58 0.930 . S
N53 Li3 1.990 . S
N53 C52 1.314 . S
N53 C56 1.279 . S
C54 C52 1.353 1_556 S
C54 C57 1.348 . S
C54 H86 0.929 . S
C55 C56 1.358 1_556 S
C55 C57 1.356 . S
C55 H87 0.930 . S
C56 N53 1.279 . S
C56 C55 1.358 1_554 S
C56 H59 0.930 . S
C57 C54 1.348 . S
C57 C55 1.356 . S
H58 C52 0.930 . S
H59 C56 0.930 . S
O60 Li0 1.956 . S
O60 Li1 1.970 . S
O60 Li2 1.961 . S
O60 C4 1.325 . S
O61 Li0 1.970 . S
O61 Li1 1.956 . S
O61 Li3 1.961 . S
O61 C10 1.325 . S
O62 Li0 1.961 . S
O62 Li2 1.956 . S
O62 Li3 1.970 . S
O62 C32 1.325 . S
O63 Li1 1.961 . S
O63 Li2 1.970 . S
O63 Li3 1.956 . S
O63 C38 1.325 . S
H64 C6 0.929 . S
H65 C7 0.930 . S
H66 C8 0.930 . S
H67 C9 0.930 . S
H68 C11 0.930 . S
H69 C13 0.929 . S
H70 C14 0.930 . S
H71 C15 0.930 . S
H72 C18 0.930 . S
H73 C21 0.929 . S
H74 C26 0.929 . S
H75 C27 0.930 . S
H76 C34 0.929 . S
H77 C35 0.930 . S
H78 C36 0.930 1_455 S
H79 C37 0.930 . S
H80 C39 0.929 . S
H81 C40 0.930 . S
H82 C41 0.930 . S
H83 C42 0.930 . S
H84 C46 0.929 . S
H85 C48 0.930 . S
H86 C54 0.929 . S
H87 C55 0.930 . S
Li88 N105 1.990 1_545 S
Li88 O148 1.956 . S
Li88 O149 1.970 . S
Li88 O150 1.961 . S
Li89 N113 1.990 . S
Li89 O148 1.970 . S
Li89 O149 1.956 . S
Li89 O151 1.961 . S
Li90 N135 1.990 . S
Li90 O148 1.961 . S
Li90 O150 1.956 . S
Li90 O151 1.970 . S
Li91 N141 1.990 . S
Li91 O149 1.961 . S
Li91 O150 1.970 . S
Li91 O151 1.956 . S
C92 C94 1.348 . S
C92 C95 1.356 1_545 S
C92 O148 1.325 . S
N93 C96 1.314 1_565 S
N93 C97 1.279 . S
C94 C92 1.348 . S
C94 C96 1.353 . S
C94 H152 0.929 . S
C95 C92 1.356 1_565 S
C95 C97 1.358 . S
C95 H153 0.930 . S
C96 N93 1.314 1_545 S
C96 C94 1.353 . S
C96 H154 0.930 . S
C97 N93 1.279 . S
C97 C95 1.358 . S
C97 H155 0.930 . S
C98 C101 1.348 . S
C98 C102 1.356 . S
C98 O149 1.325 . S
C99 N100 1.279 . S
C99 C102 1.358 . S
C99 H156 0.930 . S
N100 C99 1.279 . S
N100 C103 1.314 . S
C101 C98 1.348 . S
C101 C103 1.353 . S
C101 H157 0.929 . S
C102 C98 1.356 . S
C102 C99 1.358 . S
C102 H158 0.930 . S
C103 N100 1.314 . S
C103 C101 1.353 . S
C103 H159 0.930 . S
C104 N105 1.314 . S
C104 C109 1.353 . S
C104 H110 0.930 . S
N105 Li88 1.990 1_565 S
N105 C104 1.314 . S
N105 C107 1.279 . S
C106 C107 1.358 . S
C106 C108 1.356 . S
C106 H160 0.930 . S
C107 N105 1.279 . S
C107 C106 1.358 . S
C107 H111 0.930 . S
C108 C106 1.356 . S
C108 C109 1.348 . S
C109 C104 1.353 . S
C109 C108 1.348 . S
C109 H161 0.929 . S
H110 C104 0.930 . S
H111 C107 0.930 . S
C112 N113 1.314 . S
C112 C114 1.353 . S
C112 H118 0.930 . S
N113 Li89 1.990 . S
N113 C112 1.314 . S
N113 C116 1.279 . S
C114 C112 1.353 . S
C114 C117 1.348 . S
C114 H162 0.929 . S
C115 C116 1.358 . S
C115 C117 1.356 . S
C115 H163 0.930 . S
C116 N113 1.279 . S
C116 C115 1.358 . S
C116 H119 0.930 . S
C117 C114 1.348 . S
C117 C115 1.356 . S
H118 C112 0.930 . S
H119 C116 0.930 . S
C120 C122 1.348 . S
C120 C123 1.356 1_545 S
C120 O150 1.325 . S
N121 C124 1.314 . S
N121 C125 1.279 . S
C122 C120 1.348 . S
C122 C124 1.353 1_545 S
C122 H164 0.929 . S
C123 C120 1.356 1_565 S
C123 C125 1.358 . S
C123 H165 0.930 . S
C124 N121 1.314 . S
C124 C122 1.353 1_565 S
C124 H166 0.930 1_565 S
C125 N121 1.279 . S
C125 C123 1.358 . S
C125 H167 0.930 . S
C126 C127 1.348 . S
C126 C128 1.356 . S
C126 O151 1.325 . S
C127 C126 1.348 . S
C127 C129 1.353 . S
C127 H168 0.929 . S
C128 C126 1.356 . S
C128 C130 1.358 . S
C128 H169 0.930 . S
C129 C127 1.353 . S
C129 N131 1.314 . S
C129 H170 0.930 . S
C130 C128 1.358 . S
C130 N131 1.279 . S
C130 H171 0.930 . S
N131 C129 1.314 . S
N131 C130 1.279 . S
C132 C134 1.353 . S
C132 N135 1.314 . S
C132 H138 0.930 . S
C133 N135 1.279 . S
C133 C136 1.358 . S
C133 H139 0.930 . S
C134 C132 1.353 . S
C134 C137 1.348 . S
C134 H172 0.929 . S
N135 Li90 1.990 . S
N135 C132 1.314 . S
N135 C133 1.279 . S
C136 C133 1.358 . S
C136 C137 1.356 . S
C136 H173 0.930 . S
C137 C134 1.348 . S
C137 C136 1.356 . S
H138 C132 0.930 . S
H139 C133 0.930 . S
C140 N141 1.314 . S
C140 C142 1.353 . S
C140 H146 0.930 . S
N141 Li91 1.990 . S
N141 C140 1.314 . S
N141 C144 1.279 . S
C142 C140 1.353 . S
C142 C145 1.348 . S
C142 H174 0.929 . S
C143 C144 1.358 . S
C143 C145 1.356 . S
C143 H175 0.930 . S
C144 N141 1.279 . S
C144 C143 1.358 . S
C144 H147 0.930 . S
C145 C142 1.348 . S
C145 C143 1.356 . S
H146 C140 0.930 . S
H147 C144 0.930 . S
O148 Li88 1.956 . S
O148 Li89 1.970 . S
O148 Li90 1.961 . S
O148 C92 1.325 . S
O149 Li88 1.970 . S
O149 Li89 1.956 . S
O149 Li91 1.961 . S
O149 C98 1.325 . S
O150 Li88 1.961 . S
O150 Li90 1.956 . S
O150 Li91 1.970 . S
O150 C120 1.325 . S
O151 Li89 1.961 . S
O151 Li90 1.970 . S
O151 Li91 1.956 . S
O151 C126 1.325 . S
H152 C94 0.929 . S
H153 C95 0.930 . S
H154 C96 0.930 . S
H155 C97 0.930 . S
H156 C99 0.930 . S
H157 C101 0.929 . S
H158 C102 0.930 . S
H159 C103 0.930 . S
H160 C106 0.930 . S
H161 C109 0.929 . S
H162 C114 0.929 . S
H163 C115 0.930 . S
H164 C122 0.929 . S
H165 C123 0.930 . S
H166 C124 0.930 1_545 S
H167 C125 0.930 . S
H168 C127 0.929 . S
H169 C128 0.930 . S
H170 C129 0.930 . S
H171 C130 0.930 . S
H172 C134 0.929 . S
H173 C136 0.930 . S
H174 C142 0.929 . S
H175 C143 0.930 . S
Li176 N193 1.990 . S
Li176 O236 1.956 . S
Li176 O237 1.970 . S
Li176 O238 1.961 . S
Li177 N201 1.990 . S
Li177 O236 1.970 . S
Li177 O237 1.956 . S
Li177 O239 1.961 . S
Li178 N223 1.990 . S
Li178 O236 1.961 . S
Li178 O238 1.956 . S
Li178 O239 1.970 . S
Li179 N229 1.990 . S
Li179 O237 1.961 . S
Li179 O238 1.970 . S
Li179 O239 1.956 . S
C180 C182 1.348 . S
C180 C183 1.356 . S
C180 O236 1.325 . S
N181 C184 1.314 . S
N181 C185 1.279 . S
C182 C180 1.348 . S
C182 C184 1.353 . S
C182 H240 0.929 . S
C183 C180 1.356 . S
C183 C185 1.358 . S
C183 H241 0.930 . S
C184 N181 1.314 . S
C184 C182 1.353 . S
C184 H242 0.930 . S
C185 N181 1.279 . S
C185 C183 1.358 . S
C185 H243 0.930 . S
C186 C189 1.348 . S
C186 C190 1.356 . S
C186 O237 1.325 . S
C187 N188 1.279 . S
C187 C190 1.358 . S
C187 H244 0.930 . S
N188 C187 1.279 . S
N188 C191 1.314 . S
C189 C186 1.348 . S
C189 C191 1.353 . S
C189 H245 0.929 . S
C190 C186 1.356 . S
C190 C187 1.358 . S
C190 H246 0.930 . S
C191 N188 1.314 . S
C191 C189 1.353 . S
C191 H247 0.930 . S
C192 N193 1.314 . S
C192 C197 1.353 . S
C192 H198 0.930 . S
N193 Li176 1.990 . S
N193 C192 1.314 . S
N193 C195 1.279 . S
C194 C195 1.358 . S
C194 C196 1.356 . S
C194 H248 0.930 . S
C195 N193 1.279 . S
C195 C194 1.358 . S
C195 H199 0.930 . S
C196 C194 1.356 . S
C196 C197 1.348 . S
C197 C192 1.353 . S
C197 C196 1.348 . S
C197 H249 0.929 . S
H198 C192 0.930 . S
H199 C195 0.930 . S
C200 N201 1.314 . S
C200 C202 1.353 . S
C200 H206 0.930 . S
N201 Li177 1.990 . S
N201 C200 1.314 . S
N201 C204 1.279 . S
C202 C200 1.353 . S
C202 C205 1.348 . S
C202 H250 0.929 . S
C203 C204 1.358 . S
C203 C205 1.356 . S
C203 H251 0.930 . S
C204 N201 1.279 . S
C204 C203 1.358 . S
C204 H207 0.930 . S
C205 C202 1.348 . S
C205 C203 1.356 . S
H206 C200 0.930 . S
H207 C204 0.930 . S
C208 C210 1.348 . S
C208 C211 1.356 . S
C208 O238 1.325 . S
N209 C212 1.314 . S
N209 C213 1.279 1_556 S
C210 C208 1.348 . S
C210 C212 1.353 1_554 S
C210 H252 0.929 . S
C211 C208 1.356 . S
C211 C213 1.358 . S
C211 H253 0.930 . S
C212 N209 1.314 . S
C212 C210 1.353 1_556 S
C212 H254 0.930 . S
C213 N209 1.279 1_554 S
C213 C211 1.358 . S
C213 H255 0.930 . S
C214 C215 1.348 . S
C214 C216 1.356 . S
C214 O239 1.325 . S
C215 C214 1.348 . S
C215 C217 1.353 . S
C215 H256 0.929 . S
C216 C214 1.356 . S
C216 C218 1.358 . S
C216 H257 0.930 . S
C217 C215 1.353 . S
C217 N219 1.314 . S
C217 H258 0.930 . S
C218 C216 1.358 . S
C218 N219 1.279 . S
C218 H259 0.930 . S
N219 C217 1.314 . S
N219 C218 1.279 . S
C220 C222 1.353 . S
C220 N223 1.314 . S
C220 H226 0.930 . S
C221 N223 1.279 . S
C221 C224 1.358 . S
C221 H227 0.930 . S
C222 C220 1.353 . S
C222 C225 1.348 . S
C222 H260 0.929 . S
N223 Li178 1.990 . S
N223 C220 1.314 . S
N223 C221 1.279 . S
C224 C221 1.358 . S
C224 C225 1.356 . S
C224 H261 0.930 . S
C225 C222 1.348 . S
C225 C224 1.356 . S
H226 C220 0.930 . S
H227 C221 0.930 . S
C228 N229 1.314 . S
C228 C230 1.353 1_554 S
C228 H234 0.930 . S
N229 Li179 1.990 . S
N229 C228 1.314 . S
N229 C232 1.279 . S
C230 C228 1.353 1_556 S
C230 C233 1.348 . S
C230 H262 0.929 . S
C231 C232 1.358 1_556 S
C231 C233 1.356 . S
C231 H263 0.930 . S
C232 N229 1.279 . S
C232 C231 1.358 1_554 S
C232 H235 0.930 . S
C233 C230 1.348 . S
C233 C231 1.356 . S
H234 C228 0.930 . S
H235 C232 0.930 . S
O236 Li176 1.956 . S
O236 Li177 1.970 . S
O236 Li178 1.961 . S
O236 C180 1.325 . S
O237 Li176 1.970 . S
O237 Li177 1.956 . S
O237 Li179 1.961 . S
O237 C186 1.325 . S
O238 Li176 1.961 . S
O238 Li178 1.956 . S
O238 Li179 1.970 . S
O238 C208 1.325 . S
O239 Li177 1.961 . S
O239 Li178 1.970 . S
O239 Li179 1.956 . S
O239 C214 1.325 . S
H240 C182 0.929 . S
H241 C183 0.930 . S
H242 C184 0.930 . S
H243 C185 0.930 . S
H244 C187 0.930 . S
H245 C189 0.929 . S
H246 C190 0.930 . S
H247 C191 0.930 . S
H248 C194 0.930 . S
H249 C197 0.929 . S
H250 C202 0.929 . S
H251 C203 0.930 . S
H252 C210 0.929 . S
H253 C211 0.930 . S
H254 C212 0.930 . S
H255 C213 0.930 . S
H256 C215 0.929 . S
H257 C216 0.930 . S
H258 C217 0.930 . S
H259 C218 0.930 . S
H260 C222 0.929 . S
H261 C224 0.930 . S
H262 C230 0.929 . S
H263 C231 0.930 . S
Li264 N281 1.990 . S
Li264 O324 1.956 . S
Li264 O325 1.970 . S
Li264 O326 1.961 . S
Li265 N289 1.990 . S
Li265 O324 1.970 . S
Li265 O325 1.956 . S
Li265 O327 1.961 . S
Li266 N311 1.990 . S
Li266 O324 1.961 . S
Li266 O326 1.956 . S
Li266 O327 1.970 . S
Li267 N317 1.990 . S
Li267 O325 1.961 . S
Li267 O326 1.970 . S
Li267 O327 1.956 . S
C268 C270 1.348 . S
C268 C271 1.356 . S
C268 O324 1.325 . S
N269 C272 1.314 . S
N269 C273 1.279 . S
C270 C268 1.348 . S
C270 C272 1.353 . S
C270 H328 0.929 . S
C271 C268 1.356 . S
C271 C273 1.358 . S
C271 H329 0.930 . S
C272 N269 1.314 . S
C272 C270 1.353 . S
C272 H330 0.930 . S
C273 N269 1.279 . S
C273 C271 1.358 . S
C273 H331 0.930 . S
C274 C277 1.348 . S
C274 C278 1.356 . S
C274 O325 1.325 . S
C275 N276 1.279 . S
C275 C278 1.358 . S
C275 H332 0.930 . S
N276 C275 1.279 . S
N276 C279 1.314 . S
C277 C274 1.348 . S
C277 C279 1.353 . S
C277 H333 0.929 . S
C278 C274 1.356 . S
C278 C275 1.358 . S
C278 H334 0.930 . S
C279 N276 1.314 . S
C279 C277 1.353 . S
C279 H335 0.930 . S
C280 N281 1.314 . S
C280 C285 1.353 . S
C280 H286 0.930 . S
N281 Li264 1.990 . S
N281 C280 1.314 . S
N281 C283 1.279 . S
C282 C283 1.358 . S
C282 C284 1.356 . S
C282 H336 0.930 . S
C283 N281 1.279 . S
C283 C282 1.358 . S
C283 H287 0.930 . S
C284 C282 1.356 . S
C284 C285 1.348 . S
C285 C280 1.353 . S
C285 C284 1.348 . S
C285 H337 0.929 . S
H286 C280 0.930 . S
H287 C283 0.930 . S
C288 N289 1.314 . S
C288 C290 1.353 . S
C288 H294 0.930 . S
N289 Li265 1.990 . S
N289 C288 1.314 . S
N289 C292 1.279 . S
C290 C288 1.353 . S
C290 C293 1.348 . S
C290 H338 0.929 . S
C291 C292 1.358 . S
C291 C293 1.356 . S
C291 H339 0.930 . S
C292 N289 1.279 . S
C292 C291 1.358 . S
C292 H295 0.930 . S
C293 C290 1.348 . S
C293 C291 1.356 . S
H294 C288 0.930 . S
H295 C292 0.930 . S
C296 C298 1.348 . S
C296 C299 1.356 . S
C296 O326 1.325 . S
N297 C300 1.314 . S
N297 C301 1.279 . S
C298 C296 1.348 . S
C298 C300 1.353 . S
C298 H340 0.929 . S
C299 C296 1.356 . S
C299 C301 1.358 . S
C299 H341 0.930 . S
C300 N297 1.314 . S
C300 C298 1.353 . S
C300 H342 0.930 . S
C301 N297 1.279 . S
C301 C299 1.358 . S
C301 H343 0.930 . S
C302 C303 1.348 . S
C302 C304 1.356 . S
C302 O327 1.325 . S
C303 C302 1.348 . S
C303 C305 1.353 . S
C303 H344 0.929 . S
C304 C302 1.356 . S
C304 C306 1.358 . S
C304 H345 0.930 . S
C305 C303 1.353 . S
C305 N307 1.314 . S
C305 H346 0.930 . S
C306 C304 1.358 . S
C306 N307 1.279 . S
C306 H347 0.930 . S
N307 C305 1.314 . S
N307 C306 1.279 . S
C308 C310 1.353 . S
C308 N311 1.314 . S
C308 H314 0.930 . S
C309 N311 1.279 . S
C309 C312 1.358 . S
C309 H315 0.930 . S
C310 C308 1.353 . S
C310 C313 1.348 . S
C310 H348 0.929 . S
N311 Li266 1.990 . S
N311 C308 1.314 . S
N311 C309 1.279 . S
C312 C309 1.358 . S
C312 C313 1.356 . S
C312 H349 0.930 . S
C313 C310 1.348 . S
C313 C312 1.356 . S
H314 C308 0.930 . S
H315 C309 0.930 . S
C316 N317 1.314 . S
C316 C318 1.353 . S
C316 H322 0.930 . S
N317 Li267 1.990 . S
N317 C316 1.314 . S
N317 C320 1.279 . S
C318 C316 1.353 . S
C318 C321 1.348 . S
C318 H350 0.929 . S
C319 C320 1.358 . S
C319 C321 1.356 . S
C319 H351 0.930 . S
C320 N317 1.279 . S
C320 C319 1.358 . S
C320 H323 0.930 . S
C321 C318 1.348 . S
C321 C319 1.356 . S
H322 C316 0.930 . S
H323 C320 0.930 . S
O324 Li264 1.956 . S
O324 Li265 1.970 . S
O324 Li266 1.961 . S
O324 C268 1.325 . S
O325 Li264 1.970 . S
O325 Li265 1.956 . S
O325 Li267 1.961 . S
O325 C274 1.325 . S
O326 Li264 1.961 . S
O326 Li266 1.956 . S
O326 Li267 1.970 . S
O326 C296 1.325 . S
O327 Li265 1.961 . S
O327 Li266 1.970 . S
O327 Li267 1.956 . S
O327 C302 1.325 . S
H328 C270 0.929 . S
H329 C271 0.930 . S
H330 C272 0.930 . S
H331 C273 0.930 . S
H332 C275 0.930 . S
H333 C277 0.929 . S
H334 C278 0.930 . S
H335 C279 0.930 . S
H336 C282 0.930 . S
H337 C285 0.929 . S
H338 C290 0.929 . S
H339 C291 0.930 . S
H340 C298 0.929 . S
H341 C299 0.930 . S
H342 C300 0.930 . S
H343 C301 0.930 . S
H344 C303 0.929 . S
H345 C304 0.930 . S
H346 C305 0.930 . S
H347 C306 0.930 . S
H348 C310 0.929 . S
H349 C312 0.930 . S
H350 C318 0.929 . S
H351 C319 0.930 . S
Li352 N369 1.990 . S
Li352 O412 1.956 . S
Li352 O413 1.970 . S
Li352 O414 1.961 . S
Li353 N377 1.990 . S
Li353 O412 1.970 . S
Li353 O413 1.956 . S
Li353 O415 1.961 . S
Li354 N399 1.990 1_455 S
Li354 O412 1.961 . S
Li354 O414 1.956 . S
Li354 O415 1.970 . S
Li355 N405 1.990 . S
Li355 O413 1.961 . S
Li355 O414 1.970 . S
Li355 O415 1.956 . S
C356 C358 1.348 . S
C356 C359 1.356 1_455 S
C356 O412 1.325 . S
N357 C360 1.314 . S
N357 C361 1.279 1_554 S
C358 C356 1.348 . S
C358 C360 1.353 1_456 S
C358 H416 0.929 . S
C359 C356 1.356 1_655 S
C359 C361 1.358 . S
C359 H417 0.930 . S
C360 N357 1.314 . S
C360 C358 1.353 1_654 S
C360 H418 0.930 1_655 S
C361 N357 1.279 1_556 S
C361 C359 1.358 . S
C361 H419 0.930 . S
C362 C365 1.348 . S
C362 C366 1.356 . S
C362 O413 1.325 . S
C363 N364 1.279 . S
C363 C366 1.358 . S
C363 H420 0.930 . S
N364 C363 1.279 . S
N364 C367 1.314 . S
C365 C362 1.348 . S
C365 C367 1.353 . S
C365 H421 0.929 . S
C366 C362 1.356 . S
C366 C363 1.358 . S
C366 H422 0.930 . S
C367 N364 1.314 . S
C367 C365 1.353 . S
C367 H423 0.930 . S
C368 N369 1.314 . S
C368 C373 1.353 . S
C368 H374 0.930 . S
N369 Li352 1.990 . S
N369 C368 1.314 . S
N369 C371 1.279 . S
C370 C371 1.358 . S
C370 C372 1.356 . S
C370 H424 0.930 . S
C371 N369 1.279 . S
C371 C370 1.358 . S
C371 H375 0.930 . S
C372 C370 1.356 . S
C372 C373 1.348 . S
C373 C368 1.353 . S
C373 C372 1.348 . S
C373 H425 0.929 . S
H374 C368 0.930 . S
H375 C371 0.930 . S
C376 N377 1.314 . S
C376 C378 1.353 1_556 S
C376 H382 0.930 . S
N377 Li353 1.990 . S
N377 C376 1.314 . S
N377 C380 1.279 . S
C378 C376 1.353 1_554 S
C378 C381 1.348 . S
C378 H426 0.929 . S
C379 C380 1.358 1_554 S
C379 C381 1.356 . S
C379 H427 0.930 . S
C380 N377 1.279 . S
C380 C379 1.358 1_556 S
C380 H383 0.930 . S
C381 C378 1.348 . S
C381 C379 1.356 . S
H382 C376 0.930 . S
H383 C380 0.930 . S
C384 C386 1.348 . S
C384 C387 1.356 1_455 S
C384 O414 1.325 . S
N385 C388 1.314 1_655 S
N385 C389 1.279 . S
C386 C384 1.348 . S
C386 C388 1.353 . S
C386 H428 0.929 . S
C387 C384 1.356 1_655 S
C387 C389 1.358 . S
C387 H429 0.930 . S
C388 N385 1.314 1_455 S
C388 C386 1.353 . S
C388 H430 0.930 . S
C389 N385 1.279 . S
C389 C387 1.358 . S
C389 H431 0.930 . S
C390 C391 1.348 . S
C390 C392 1.356 . S
C390 O415 1.325 . S
C391 C390 1.348 . S
C391 C393 1.353 . S
C391 H432 0.929 . S
C392 C390 1.356 . S
C392 C394 1.358 . S
C392 H433 0.930 . S
C393 C391 1.353 . S
C393 N395 1.314 . S
C393 H434 0.930 . S
C394 C392 1.358 . S
C394 N395 1.279 . S
C394 H435 0.930 . S
N395 C393 1.314 . S
N395 C394 1.279 . S
C396 C398 1.353 . S
C396 N399 1.314 . S
C396 H402 0.930 . S
C397 N399 1.279 . S
C397 C400 1.358 . S
C397 H403 0.930 . S
C398 C396 1.353 . S
C398 C401 1.348 . S
C398 H436 0.929 . S
N399 Li354 1.990 1_655 S
N399 C396 1.314 . S
N399 C397 1.279 . S
C400 C397 1.358 . S
C400 C401 1.356 . S
C400 H437 0.930 . S
C401 C398 1.348 . S
C401 C400 1.356 . S
H402 C396 0.930 . S
H403 C397 0.930 . S
C404 N405 1.314 . S
C404 C406 1.353 . S
C404 H410 0.930 . S
N405 Li355 1.990 . S
N405 C404 1.314 . S
N405 C408 1.279 . S
C406 C404 1.353 . S
C406 C409 1.348 . S
C406 H438 0.929 . S
C407 C408 1.358 . S
C407 C409 1.356 . S
C407 H439 0.930 . S
C408 N405 1.279 . S
C408 C407 1.358 . S
C408 H411 0.930 . S
C409 C406 1.348 . S
C409 C407 1.356 . S
H410 C404 0.930 . S
H411 C408 0.930 . S
O412 Li352 1.956 . S
O412 Li353 1.970 . S
O412 Li354 1.961 . S
O412 C356 1.325 . S
O413 Li352 1.970 . S
O413 Li353 1.956 . S
O413 Li355 1.961 . S
O413 C362 1.325 . S
O414 Li352 1.961 . S
O414 Li354 1.956 . S
O414 Li355 1.970 . S
O414 C384 1.325 . S
O415 Li353 1.961 . S
O415 Li354 1.970 . S
O415 Li355 1.956 . S
O415 C390 1.325 . S
H416 C358 0.929 . S
H417 C359 0.930 . S
H418 C360 0.930 1_455 S
H419 C361 0.930 . S
H420 C363 0.930 . S
H421 C365 0.929 . S
H422 C366 0.930 . S
H423 C367 0.930 . S
H424 C370 0.930 . S
H425 C373 0.929 . S
H426 C378 0.929 . S
H427 C379 0.930 . S
H428 C386 0.929 . S
H429 C387 0.930 . S
H430 C388 0.930 . S
H431 C389 0.930 . S
H432 C391 0.929 . S
H433 C392 0.930 . S
H434 C393 0.930 . S
H435 C394 0.930 . S
H436 C398 0.929 . S
H437 C400 0.930 . S
H438 C406 0.929 . S
H439 C407 0.930 . S
Li440 N457 1.990 . S
Li440 O500 1.956 . S
Li440 O501 1.970 . S
Li440 O502 1.961 . S
Li441 N465 1.990 . S
Li441 O500 1.970 . S
Li441 O501 1.956 . S
Li441 O503 1.961 . S
Li442 N487 1.990 1_545 S
Li442 O500 1.961 . S
Li442 O502 1.956 . S
Li442 O503 1.970 . S
Li443 N493 1.990 . S
Li443 O501 1.961 . S
Li443 O502 1.970 . S
Li443 O503 1.956 . S
C444 C446 1.348 . S
C444 C447 1.356 1_545 S
C444 O500 1.325 . S
N445 C448 1.314 . S
N445 C449 1.279 . S
C446 C444 1.348 . S
C446 C448 1.353 1_545 S
C446 H504 0.929 . S
C447 C444 1.356 1_565 S
C447 C449 1.358 . S
C447 H505 0.930 . S
C448 N445 1.314 . S
C448 C446 1.353 1_565 S
C448 H506 0.930 1_565 S
C449 N445 1.279 . S
C449 C447 1.358 . S
C449 H507 0.930 . S
C450 C453 1.348 . S
C450 C454 1.356 . S
C450 O501 1.325 . S
C451 N452 1.279 . S
C451 C454 1.358 . S
C451 H508 0.930 . S
N452 C451 1.279 . S
N452 C455 1.314 . S
C453 C450 1.348 . S
C453 C455 1.353 . S
C453 H509 0.929 . S
C454 C450 1.356 . S
C454 C451 1.358 . S
C454 H510 0.930 . S
C455 N452 1.314 . S
C455 C453 1.353 . S
C455 H511 0.930 . S
C456 N457 1.314 . S
C456 C461 1.353 . S
C456 H462 0.930 . S
N457 Li440 1.990 . S
N457 C456 1.314 . S
N457 C459 1.279 . S
C458 C459 1.358 . S
C458 C460 1.356 . S
C458 H512 0.930 . S
C459 N457 1.279 . S
C459 C458 1.358 . S
C459 H463 0.930 . S
C460 C458 1.356 . S
C460 C461 1.348 . S
C461 C456 1.353 . S
C461 C460 1.348 . S
C461 H513 0.929 . S
H462 C456 0.930 . S
H463 C459 0.930 . S
C464 N465 1.314 . S
C464 C466 1.353 . S
C464 H470 0.930 . S
N465 Li441 1.990 . S
N465 C464 1.314 . S
N465 C468 1.279 . S
C466 C464 1.353 . S
C466 C469 1.348 . S
C466 H514 0.929 . S
C467 C468 1.358 . S
C467 C469 1.356 . S
C467 H515 0.930 . S
C468 N465 1.279 . S
C468 C467 1.358 . S
C468 H471 0.930 . S
C469 C466 1.348 . S
C469 C467 1.356 . S
H470 C464 0.930 . S
H471 C468 0.930 . S
C472 C474 1.348 . S
C472 C475 1.356 1_545 S
C472 O502 1.325 . S
N473 C476 1.314 1_565 S
N473 C477 1.279 . S
C474 C472 1.348 . S
C474 C476 1.353 . S
C474 H516 0.929 . S
C475 C472 1.356 1_565 S
C475 C477 1.358 . S
C475 H517 0.930 . S
C476 N473 1.314 1_545 S
C476 C474 1.353 . S
C476 H518 0.930 . S
C477 N473 1.279 . S
C477 C475 1.358 . S
C477 H519 0.930 . S
C478 C479 1.348 . S
C478 C480 1.356 . S
C478 O503 1.325 . S
C479 C478 1.348 . S
C479 C481 1.353 . S
C479 H520 0.929 . S
C480 C478 1.356 . S
C480 C482 1.358 . S
C480 H521 0.930 . S
C481 C479 1.353 . S
C481 N483 1.314 . S
C481 H522 0.930 . S
C482 C480 1.358 . S
C482 N483 1.279 . S
C482 H523 0.930 . S
N483 C481 1.314 . S
N483 C482 1.279 . S
C484 C486 1.353 . S
C484 N487 1.314 . S
C484 H490 0.930 . S
C485 N487 1.279 . S
C485 C488 1.358 . S
C485 H491 0.930 . S
C486 C484 1.353 . S
C486 C489 1.348 . S
C486 H524 0.929 . S
N487 Li442 1.990 1_565 S
N487 C484 1.314 . S
N487 C485 1.279 . S
C488 C485 1.358 . S
C488 C489 1.356 . S
C488 H525 0.930 . S
C489 C486 1.348 . S
C489 C488 1.356 . S
H490 C484 0.930 . S
H491 C485 0.930 . S
C492 N493 1.314 . S
C492 C494 1.353 . S
C492 H498 0.930 . S
N493 Li443 1.990 . S
N493 C492 1.314 . S
N493 C496 1.279 . S
C494 C492 1.353 . S
C494 C497 1.348 . S
C494 H526 0.929 . S
C495 C496 1.358 . S
C495 C497 1.356 . S
C495 H527 0.930 . S
C496 N493 1.279 . S
C496 C495 1.358 . S
C496 H499 0.930 . S
C497 C494 1.348 . S
C497 C495 1.356 . S
H498 C492 0.930 . S
H499 C496 0.930 . S
O500 Li440 1.956 . S
O500 Li441 1.970 . S
O500 Li442 1.961 . S
O500 C444 1.325 . S
O501 Li440 1.970 . S
O501 Li441 1.956 . S
O501 Li443 1.961 . S
O501 C450 1.325 . S
O502 Li440 1.961 . S
O502 Li442 1.956 . S
O502 Li443 1.970 . S
O502 C472 1.325 . S
O503 Li441 1.961 . S
O503 Li442 1.970 . S
O503 Li443 1.956 . S
O503 C478 1.325 . S
H504 C446 0.929 . S
H505 C447 0.930 . S
H506 C448 0.930 1_545 S
H507 C449 0.930 . S
H508 C451 0.930 . S
H509 C453 0.929 . S
H510 C454 0.930 . S
H511 C455 0.930 . S
H512 C458 0.930 . S
H513 C461 0.929 . S
H514 C466 0.929 . S
H515 C467 0.930 . S
H516 C474 0.929 . S
H517 C475 0.930 . S
H518 C476 0.930 . S
H519 C477 0.930 . S
H520 C479 0.929 . S
H521 C480 0.930 . S
H522 C481 0.930 . S
H523 C482 0.930 . S
H524 C486 0.929 . S
H525 C488 0.930 . S
H526 C494 0.929 . S
H527 C495 0.930 . S
Li528 N545 1.990 . S
Li528 O588 1.956 . S
Li528 O589 1.970 . S
Li528 O590 1.961 . S
Li529 N553 1.990 . S
Li529 O588 1.970 . S
Li529 O589 1.956 . S
Li529 O591 1.961 . S
Li530 N575 1.990 . S
Li530 O588 1.961 . S
Li530 O590 1.956 . S
Li530 O591 1.970 . S
Li531 N581 1.990 . S
Li531 O589 1.961 . S
Li531 O590 1.970 . S
Li531 O591 1.956 . S
C532 C534 1.348 . S
C532 C535 1.356 . S
C532 O588 1.325 . S
N533 C536 1.314 . S
N533 C537 1.279 1_554 S
C534 C532 1.348 . S
C534 C536 1.353 1_556 S
C534 H592 0.929 . S
C535 C532 1.356 . S
C535 C537 1.358 . S
C535 H593 0.930 . S
C536 N533 1.314 . S
C536 C534 1.353 1_554 S
C536 H594 0.930 . S
C537 N533 1.279 1_556 S
C537 C535 1.358 . S
C537 H595 0.930 . S
C538 C541 1.348 . S
C538 C542 1.356 . S
C538 O589 1.325 . S
C539 N540 1.279 . S
C539 C542 1.358 . S
C539 H596 0.930 . S
N540 C539 1.279 . S
N540 C543 1.314 . S
C541 C538 1.348 . S
C541 C543 1.353 . S
C541 H597 0.929 . S
C542 C538 1.356 . S
C542 C539 1.358 . S
C542 H598 0.930 . S
C543 N540 1.314 . S
C543 C541 1.353 . S
C543 H599 0.930 . S
C544 N545 1.314 . S
C544 C549 1.353 . S
C544 H550 0.930 . S
N545 Li528 1.990 . S
N545 C544 1.314 . S
N545 C547 1.279 . S
C546 C547 1.358 . S
C546 C548 1.356 . S
C546 H600 0.930 . S
C547 N545 1.279 . S
C547 C546 1.358 . S
C547 H551 0.930 . S
C548 C546 1.356 . S
C548 C549 1.348 . S
C549 C544 1.353 . S
C549 C548 1.348 . S
C549 H601 0.929 . S
H550 C544 0.930 . S
H551 C547 0.930 . S
C552 N553 1.314 . S
C552 C554 1.353 1_556 S
C552 H558 0.930 . S
N553 Li529 1.990 . S
N553 C552 1.314 . S
N553 C556 1.279 . S
C554 C552 1.353 1_554 S
C554 C557 1.348 . S
C554 H602 0.929 . S
C555 C556 1.358 1_554 S
C555 C557 1.356 . S
C555 H603 0.930 . S
C556 N553 1.279 . S
C556 C555 1.358 1_556 S
C556 H559 0.930 . S
C557 C554 1.348 . S
C557 C555 1.356 . S
H558 C552 0.930 . S
H559 C556 0.930 . S
C560 C562 1.348 . S
C560 C563 1.356 . S
C560 O590 1.325 . S
N561 C564 1.314 . S
N561 C565 1.279 . S
C562 C560 1.348 . S
C562 C564 1.353 . S
C562 H604 0.929 . S
C563 C560 1.356 . S
C563 C565 1.358 . S
C563 H605 0.930 . S
C564 N561 1.314 . S
C564 C562 1.353 . S
C564 H606 0.930 . S
C565 N561 1.279 . S
C565 C563 1.358 . S
C565 H607 0.930 . S
C566 C567 1.348 . S
C566 C568 1.356 . S
C566 O591 1.325 . S
C567 C566 1.348 . S
C567 C569 1.353 . S
C567 H608 0.929 . S
C568 C566 1.356 . S
C568 C570 1.358 . S
C568 H609 0.930 . S
C569 C567 1.353 . S
C569 N571 1.314 . S
C569 H610 0.930 . S
C570 C568 1.358 . S
C570 N571 1.279 . S
C570 H611 0.930 . S
N571 C569 1.314 . S
N571 C570 1.279 . S
C572 C574 1.353 . S
C572 N575 1.314 . S
C572 H578 0.930 . S
C573 N575 1.279 . S
C573 C576 1.358 . S
C573 H579 0.930 . S
C574 C572 1.353 . S
C574 C577 1.348 . S
C574 H612 0.929 . S
N575 Li530 1.990 . S
N575 C572 1.314 . S
N575 C573 1.279 . S
C576 C573 1.358 . S
C576 C577 1.356 . S
C576 H613 0.930 . S
C577 C574 1.348 . S
C577 C576 1.356 . S
H578 C572 0.930 . S
H579 C573 0.930 . S
C580 N581 1.314 . S
C580 C582 1.353 . S
C580 H586 0.930 . S
N581 Li531 1.990 . S
N581 C580 1.314 . S
N581 C584 1.279 . S
C582 C580 1.353 . S
C582 C585 1.348 . S
C582 H614 0.929 . S
C583 C584 1.358 . S
C583 C585 1.356 . S
C583 H615 0.930 . S
C584 N581 1.279 . S
C584 C583 1.358 . S
C584 H587 0.930 . S
C585 C582 1.348 . S
C585 C583 1.356 . S
H586 C580 0.930 . S
H587 C584 0.930 . S
O588 Li528 1.956 . S
O588 Li529 1.970 . S
O588 Li530 1.961 . S
O588 C532 1.325 . S
O589 Li528 1.970 . S
O589 Li529 1.956 . S
O589 Li531 1.961 . S
O589 C538 1.325 . S
O590 Li528 1.961 . S
O590 Li530 1.956 . S
O590 Li531 1.970 . S
O590 C560 1.325 . S
O591 Li529 1.961 . S
O591 Li530 1.970 . S
O591 Li531 1.956 . S
O591 C566 1.325 . S
H592 C534 0.929 . S
H593 C535 0.930 . S
H594 C536 0.930 . S
H595 C537 0.930 . S
H596 C539 0.930 . S
H597 C541 0.929 . S
H598 C542 0.930 . S
H599 C543 0.930 . S
H600 C546 0.930 . S
H601 C549 0.929 . S
H602 C554 0.929 . S
H603 C555 0.930 . S
H604 C562 0.929 . S
H605 C563 0.930 . S
H606 C564 0.930 . S
H607 C565 0.930 . S
H608 C567 0.929 . S
H609 C568 0.930 . S
H610 C569 0.930 . S
H611 C570 0.930 . S
H612 C574 0.929 . S
H613 C576 0.930 . S
H614 C582 0.929 . S
H615 C583 0.930 . S
Li616 N633 1.990 . S
Li616 O676 1.956 . S
Li616 O677 1.970 . S
Li616 O678 1.961 . S
Li617 N641 1.990 . S
Li617 O676 1.970 . S
Li617 O677 1.956 . S
Li617 O679 1.961 . S
Li618 N663 1.990 . S
Li618 O676 1.961 . S
Li618 O678 1.956 . S
Li618 O679 1.970 . S
Li619 N669 1.990 . S
Li619 O677 1.961 . S
Li619 O678 1.970 . S
Li619 O679 1.956 . S
C620 C622 1.348 . S
C620 C623 1.356 . S
C620 O676 1.325 . S
N621 C624 1.314 . S
N621 C625 1.279 . S
C622 C620 1.348 . S
C622 C624 1.353 . S
C622 H680 0.929 . S
C623 C620 1.356 . S
C623 C625 1.358 . S
C623 H681 0.930 . S
C624 N621 1.314 . S
C624 C622 1.353 . S
C624 H682 0.930 . S
C625 N621 1.279 . S
C625 C623 1.358 . S
C625 H683 0.930 . S
C626 C629 1.348 . S
C626 C630 1.356 . S
C626 O677 1.325 . S
C627 N628 1.279 . S
C627 C630 1.358 . S
C627 H684 0.930 . S
N628 C627 1.279 . S
N628 C631 1.314 . S
C629 C626 1.348 . S
C629 C631 1.353 . S
C629 H685 0.929 . S
C630 C626 1.356 . S
C630 C627 1.358 . S
C630 H686 0.930 . S
C631 N628 1.314 . S
C631 C629 1.353 . S
C631 H687 0.930 . S
C632 N633 1.314 . S
C632 C637 1.353 . S
C632 H638 0.930 . S
N633 Li616 1.990 . S
N633 C632 1.314 . S
N633 C635 1.279 . S
C634 C635 1.358 . S
C634 C636 1.356 . S
C634 H688 0.930 . S
C635 N633 1.279 . S
C635 C634 1.358 . S
C635 H639 0.930 . S
C636 C634 1.356 . S
C636 C637 1.348 . S
C637 C632 1.353 . S
C637 C636 1.348 . S
C637 H689 0.929 . S
H638 C632 0.930 . S
H639 C635 0.930 . S
C640 N641 1.314 . S
C640 C642 1.353 . S
C640 H646 0.930 . S
N641 Li617 1.990 . S
N641 C640 1.314 . S
N641 C644 1.279 . S
C642 C640 1.353 . S
C642 C645 1.348 . S
C642 H690 0.929 . S
C643 C644 1.358 . S
C643 C645 1.356 . S
C643 H691 0.930 . S
C644 N641 1.279 . S
C644 C643 1.358 . S
C644 H647 0.930 . S
C645 C642 1.348 . S
C645 C643 1.356 . S
H646 C640 0.930 . S
H647 C644 0.930 . S
C648 C650 1.348 . S
C648 C651 1.356 . S
C648 O678 1.325 . S
N649 C652 1.314 . S
N649 C653 1.279 . S
C650 C648 1.348 . S
C650 C652 1.353 . S
C650 H692 0.929 . S
C651 C648 1.356 . S
C651 C653 1.358 . S
C651 H693 0.930 . S
C652 N649 1.314 . S
C652 C650 1.353 . S
C652 H694 0.930 . S
C653 N649 1.279 . S
C653 C651 1.358 . S
C653 H695 0.930 . S
C654 C655 1.348 . S
C654 C656 1.356 . S
C654 O679 1.325 . S
C655 C654 1.348 . S
C655 C657 1.353 . S
C655 H696 0.929 . S
C656 C654 1.356 . S
C656 C658 1.358 . S
C656 H697 0.930 . S
C657 C655 1.353 . S
C657 N659 1.314 . S
C657 H698 0.930 . S
C658 C656 1.358 . S
C658 N659 1.279 . S
C658 H699 0.930 . S
N659 C657 1.314 . S
N659 C658 1.279 . S
C660 C662 1.353 . S
C660 N663 1.314 . S
C660 H666 0.930 . S
C661 N663 1.279 . S
C661 C664 1.358 . S
C661 H667 0.930 . S
C662 C660 1.353 . S
C662 C665 1.348 . S
C662 H700 0.929 . S
N663 Li618 1.990 . S
N663 C660 1.314 . S
N663 C661 1.279 . S
C664 C661 1.358 . S
C664 C665 1.356 . S
C664 H701 0.930 . S
C665 C662 1.348 . S
C665 C664 1.356 . S
H666 C660 0.930 . S
H667 C661 0.930 . S
C668 N669 1.314 . S
C668 C670 1.353 . S
C668 H674 0.930 . S
N669 Li619 1.990 . S
N669 C668 1.314 . S
N669 C672 1.279 . S
C670 C668 1.353 . S
C670 C673 1.348 . S
C670 H702 0.929 . S
C671 C672 1.358 . S
C671 C673 1.356 . S
C671 H703 0.930 . S
C672 N669 1.279 . S
C672 C671 1.358 . S
C672 H675 0.930 . S
C673 C670 1.348 . S
C673 C671 1.356 . S
H674 C668 0.930 . S
H675 C672 0.930 . S
O676 Li616 1.956 . S
O676 Li617 1.970 . S
O676 Li618 1.961 . S
O676 C620 1.325 . S
O677 Li616 1.970 . S
O677 Li617 1.956 . S
O677 Li619 1.961 . S
O677 C626 1.325 . S
O678 Li616 1.961 . S
O678 Li618 1.956 . S
O678 Li619 1.970 . S
O678 C648 1.325 . S
O679 Li617 1.961 . S
O679 Li618 1.970 . S
O679 Li619 1.956 . S
O679 C654 1.325 . S
H680 C622 0.929 . S
H681 C623 0.930 . S
H682 C624 0.930 . S
H683 C625 0.930 . S
H684 C627 0.930 . S
H685 C629 0.929 . S
H686 C630 0.930 . S
H687 C631 0.930 . S
H688 C634 0.930 . S
H689 C637 0.929 . S
H690 C642 0.929 . S
H691 C643 0.930 . S
H692 C650 0.929 . S
H693 C651 0.930 . S
H694 C652 0.930 . S
H695 C653 0.930 . S
H696 C655 0.929 . S
H697 C656 0.930 . S
H698 C657 0.930 . S
H699 C658 0.930 . S
H700 C662 0.929 . S
H701 C664 0.930 . S
H702 C670 0.929 . S
H703 C671 0.930 . S
Li704 N721 1.990 . S
Li704 O764 1.956 . S
Li704 O765 1.970 . S
Li704 O766 1.961 . S
Li705 N729 1.990 . S
Li705 O764 1.970 . S
Li705 O765 1.956 . S
Li705 O767 1.961 . S
Li706 N751 1.990 1_655 S
Li706 O764 1.961 . S
Li706 O766 1.956 . S
Li706 O767 1.970 . S
Li707 N757 1.990 . S
Li707 O765 1.961 . S
Li707 O766 1.970 . S
Li707 O767 1.956 . S
C708 C710 1.348 . S
C708 C711 1.356 1_655 S
C708 O764 1.325 . S
N709 C712 1.314 . S
N709 C713 1.279 1_554 S
C710 C708 1.348 . S
C710 C712 1.353 1_656 S
C710 H768 0.929 . S
C711 C708 1.356 1_455 S
C711 C713 1.358 . S
C711 H769 0.930 . S
C712 N709 1.314 . S
C712 C710 1.353 1_454 S
C712 H770 0.929 . S
C713 N709 1.279 1_556 S
C713 C711 1.358 . S
C713 H771 0.930 1_556 S
C714 C717 1.348 . S
C714 C718 1.356 . S
C714 O765 1.325 . S
C715 N716 1.279 . S
C715 C718 1.358 . S
C715 H772 0.930 . S
N716 C715 1.279 . S
N716 C719 1.314 . S
C717 C714 1.348 . S
C717 C719 1.353 . S
C717 H773 0.929 . S
C718 C714 1.356 . S
C718 C715 1.358 . S
C718 H774 0.930 . S
C719 N716 1.314 . S
C719 C717 1.353 . S
C719 H775 0.930 . S
C720 N721 1.314 . S
C720 C725 1.353 . S
C720 H726 0.930 . S
N721 Li704 1.990 . S
N721 C720 1.314 . S
N721 C723 1.279 . S
C722 C723 1.358 1_554 S
C722 C724 1.356 . S
C722 H776 0.930 . S
C723 N721 1.279 . S
C723 C722 1.358 1_556 S
C723 H727 0.930 1_556 S
C724 C722 1.356 . S
C724 C725 1.348 1_554 S
C725 C720 1.353 . S
C725 C724 1.348 1_556 S
C725 H777 0.929 . S
H726 C720 0.930 . S
H727 C723 0.930 1_554 S
C728 N729 1.314 . S
C728 C730 1.353 . S
C728 H734 0.930 . S
N729 Li705 1.990 . S
N729 C728 1.314 . S
N729 C732 1.279 . S
C730 C728 1.353 . S
C730 C733 1.348 . S
C730 H778 0.929 1_655 S
C731 C732 1.358 . S
C731 C733 1.356 . S
C731 H779 0.930 . S
C732 N729 1.279 . S
C732 C731 1.358 . S
C732 H735 0.930 . S
C733 C730 1.348 . S
C733 C731 1.356 . S
H734 C728 0.930 . S
H735 C732 0.930 . S
C736 C738 1.348 . S
C736 C739 1.356 . S
C736 O766 1.325 . S
N737 C740 1.314 . S
N737 C741 1.279 . S
C738 C736 1.348 . S
C738 C740 1.353 . S
C738 H780 0.929 . S
C739 C736 1.356 . S
C739 C741 1.358 . S
C739 H781 0.930 . S
C740 N737 1.314 . S
C740 C738 1.353 . S
C740 H782 0.930 . S
C741 N737 1.279 . S
C741 C739 1.358 . S
C741 H783 0.930 . S
C742 C743 1.301 1_655 S
C742 C744 1.356 . S
C742 O767 1.325 . S
C743 C742 1.301 1_455 S
C743 C745 1.377 . S
C743 H784 0.956 . S
C744 C742 1.356 . S
C744 C746 1.358 . S
C744 H785 0.930 . S
C745 C743 1.377 . S
C745 N747 1.314 . S
C745 H786 0.930 . S
C746 C744 1.358 . S
C746 N747 1.279 1_655 S
C746 H787 0.930 . S
N747 C745 1.314 . S
N747 C746 1.279 1_455 S
C748 C750 1.353 . S
C748 N751 1.314 . S
C748 H754 0.930 . S
C749 N751 1.279 . S
C749 C752 1.358 . S
C749 H755 0.930 . S
C750 C748 1.353 . S
C750 C753 1.348 . S
C750 H788 0.929 . S
N751 Li706 1.990 1_455 S
N751 C748 1.314 . S
N751 C749 1.279 . S
C752 C749 1.358 . S
C752 C753 1.356 . S
C752 H789 0.930 . S
C753 C750 1.348 . S
C753 C752 1.356 . S
H754 C748 0.930 . S
H755 C749 0.930 . S
C756 N757 1.314 . S
C756 C758 1.353 . S
C756 H762 0.930 . S
N757 Li707 1.990 . S
N757 C756 1.314 . S
N757 C760 1.279 . S
C758 C756 1.353 . S
C758 C761 1.348 . S
C758 H790 0.929 . S
C759 C760 1.358 . S
C759 C761 1.356 . S
C759 H791 0.930 . S
C760 N757 1.279 . S
C760 C759 1.358 . S
C760 H763 0.930 . S
C761 C758 1.348 . S
C761 C759 1.356 . S
H762 C756 0.930 . S
H763 C760 0.930 . S
O764 Li704 1.956 . S
O764 Li705 1.970 . S
O764 Li706 1.961 . S
O764 C708 1.325 . S
O765 Li704 1.970 . S
O765 Li705 1.956 . S
O765 Li707 1.961 . S
O765 C714 1.325 . S
O766 Li704 1.961 . S
O766 Li706 1.956 . S
O766 Li707 1.970 . S
O766 C736 1.325 . S
O767 Li705 1.961 . S
O767 Li706 1.970 . S
O767 Li707 1.956 . S
O767 C742 1.325 . S
H768 C710 0.929 . S
H769 C711 0.930 . S
H770 C712 0.929 . S
H771 C713 0.930 1_554 S
H772 C715 0.930 . S
H773 C717 0.929 . S
H774 C718 0.930 . S
H775 C719 0.930 . S
H776 C722 0.930 . S
H777 C725 0.929 . S
H778 C730 0.929 1_455 S
H779 C731 0.930 . S
H780 C738 0.929 . S
H781 C739 0.930 . S
H782 C740 0.930 . S
H783 C741 0.930 . S
H784 C743 0.956 . S
H785 C744 0.930 . S
H786 C745 0.930 . S
H787 C746 0.930 . S
H788 C750 0.929 . S
H789 C752 0.930 . S
H790 C758 0.929 . S
H791 C759 0.930 . S
Li792 N809 1.990 . S
Li792 O852 1.956 . S
Li792 O853 1.970 . S
Li792 O854 1.961 . S
Li793 N817 1.990 . S
Li793 O852 1.970 . S
Li793 O853 1.956 . S
Li793 O855 1.961 . S
Li794 N839 1.990 1_565 S
Li794 O852 1.961 . S
Li794 O854 1.956 . S
Li794 O855 1.970 . S
Li795 N845 1.990 . S
Li795 O853 1.961 . S
Li795 O854 1.970 . S
Li795 O855 1.956 . S
C796 C798 1.348 . S
C796 C799 1.356 1_565 S
C796 O852 1.325 . S
N797 C800 1.314 . S
N797 C801 1.279 . S
C798 C796 1.348 . S
C798 C800 1.353 1_565 S
C798 H856 0.929 . S
C799 C796 1.356 1_545 S
C799 C801 1.358 . S
C799 H857 0.930 . S
C800 N797 1.314 . S
C800 C798 1.353 1_545 S
C800 H858 0.930 . S
C801 N797 1.279 . S
C801 C799 1.358 . S
C801 H859 0.930 . S
C802 C805 1.348 . S
C802 C806 1.356 . S
C802 O853 1.325 . S
C803 N804 1.279 . S
C803 C806 1.358 . S
C803 H860 0.930 . S
N804 C803 1.279 . S
N804 C807 1.314 . S
C805 C802 1.348 . S
C805 C807 1.353 . S
C805 H861 0.929 . S
C806 C802 1.356 . S
C806 C803 1.358 . S
C806 H862 0.930 . S
C807 N804 1.314 . S
C807 C805 1.353 . S
C807 H863 0.930 . S
C808 N809 1.314 . S
C808 C813 1.353 . S
C808 H814 0.930 . S
N809 Li792 1.990 . S
N809 C808 1.314 . S
N809 C811 1.279 . S
C810 C811 1.358 . S
C810 C812 1.356 . S
C810 H864 0.930 . S
C811 N809 1.279 . S
C811 C810 1.358 . S
C811 H815 0.930 . S
C812 C810 1.356 . S
C812 C813 1.348 . S
C813 C808 1.353 . S
C813 C812 1.348 . S
C813 H865 0.929 . S
H814 C808 0.930 . S
H815 C811 0.930 . S
C816 N817 1.314 . S
C816 C818 1.353 . S
C816 H822 0.930 . S
N817 Li793 1.990 . S
N817 C816 1.314 . S
N817 C820 1.279 . S
C818 C816 1.353 . S
C818 C821 1.348 . S
C818 H866 0.929 1_565 S
C819 C820 1.358 . S
C819 C821 1.356 . S
C819 H867 0.930 . S
C820 N817 1.279 . S
C820 C819 1.358 . S
C820 H823 0.930 . S
C821 C818 1.348 . S
C821 C819 1.356 . S
H822 C816 0.930 . S
H823 C820 0.930 . S
C824 C826 1.348 . S
C824 C827 1.356 . S
C824 O854 1.325 . S
N825 C828 1.314 . S
N825 C829 1.279 . S
C826 C824 1.348 . S
C826 C828 1.353 . S
C826 H868 0.929 . S
C827 C824 1.356 . S
C827 C829 1.358 . S
C827 H869 0.930 . S
C828 N825 1.314 . S
C828 C826 1.353 . S
C828 H870 0.930 . S
C829 N825 1.279 . S
C829 C827 1.358 . S
C829 H871 0.930 . S
C830 C831 1.300 1_565 S
C830 C832 1.356 . S
C830 O855 1.325 . S
C831 C830 1.300 1_545 S
C831 C833 1.378 . S
C831 H872 0.956 . S
C832 C830 1.356 . S
C832 C834 1.358 . S
C832 H873 0.930 . S
C833 C831 1.378 . S
C833 N835 1.314 . S
C833 H874 0.930 . S
C834 C832 1.358 . S
C834 N835 1.279 1_565 S
C834 H875 0.930 . S
N835 C833 1.314 . S
N835 C834 1.279 1_545 S
C836 C838 1.353 . S
C836 N839 1.314 . S
C836 H842 0.930 . S
C837 N839 1.279 . S
C837 C840 1.358 . S
C837 H843 0.930 . S
C838 C836 1.353 . S
C838 C841 1.348 . S
C838 H876 0.929 . S
N839 Li794 1.990 1_545 S
N839 C836 1.314 . S
N839 C837 1.279 . S
C840 C837 1.358 . S
C840 C841 1.356 . S
C840 H877 0.930 . S
C841 C838 1.348 . S
C841 C840 1.356 . S
H842 C836 0.930 . S
H843 C837 0.930 . S
C844 N845 1.314 . S
C844 C846 1.353 . S
C844 H850 0.930 . S
N845 Li795 1.990 . S
N845 C844 1.314 . S
N845 C848 1.279 . S
C846 C844 1.353 . S
C846 C849 1.348 . S
C846 H878 0.929 . S
C847 C848 1.358 . S
C847 C849 1.356 . S
C847 H879 0.930 . S
C848 N845 1.279 . S
C848 C847 1.358 . S
C848 H851 0.930 . S
C849 C846 1.348 . S
C849 C847 1.356 . S
H850 C844 0.930 . S
H851 C848 0.930 . S
O852 Li792 1.956 . S
O852 Li793 1.970 . S
O852 Li794 1.961 . S
O852 C796 1.325 . S
O853 Li792 1.970 . S
O853 Li793 1.956 . S
O853 Li795 1.961 . S
O853 C802 1.325 . S
O854 Li792 1.961 . S
O854 Li794 1.956 . S
O854 Li795 1.970 . S
O854 C824 1.325 . S
O855 Li793 1.961 . S
O855 Li794 1.970 . S
O855 Li795 1.956 . S
O855 C830 1.325 . S
H856 C798 0.929 . S
H857 C799 0.930 . S
H858 C800 0.930 . S
H859 C801 0.930 . S
H860 C803 0.930 . S
H861 C805 0.929 . S
H862 C806 0.930 . S
H863 C807 0.930 . S
H864 C810 0.930 . S
H865 C813 0.929 . S
H866 C818 0.929 1_545 S
H867 C819 0.930 . S
H868 C826 0.929 . S
H869 C827 0.930 . S
H870 C828 0.930 . S
H871 C829 0.930 . S
H872 C831 0.956 . S
H873 C832 0.930 . S
H874 C833 0.930 . S
H875 C834 0.930 . S
H876 C838 0.929 . S
H877 C840 0.930 . S
H878 C846 0.929 . S
H879 C847 0.930 . S
Li880 N897 1.990 . S
Li880 O940 1.956 . S
Li880 O941 1.970 . S
Li880 O942 1.961 . S
Li881 N905 1.990 . S
Li881 O940 1.970 . S
Li881 O941 1.956 . S
Li881 O943 1.961 . S
Li882 N927 1.990 . S
Li882 O940 1.961 . S
Li882 O942 1.956 . S
Li882 O943 1.970 . S
Li883 N933 1.990 . S
Li883 O941 1.961 . S
Li883 O942 1.970 . S
Li883 O943 1.956 . S
C884 C886 1.348 . S
C884 C887 1.356 . S
C884 O940 1.325 . S
N885 C888 1.314 . S
N885 C889 1.279 . S
C886 C884 1.348 . S
C886 C888 1.353 . S
C886 H944 0.929 . S
C887 C884 1.356 . S
C887 C889 1.358 . S
C887 H945 0.930 . S
C888 N885 1.314 . S
C888 C886 1.353 . S
C888 H946 0.930 . S
C889 N885 1.279 . S
C889 C887 1.358 . S
C889 H947 0.930 . S
C890 C893 1.348 . S
C890 C894 1.356 . S
C890 O941 1.325 . S
C891 N892 1.279 1_556 S
C891 C894 1.358 . S
C891 H948 0.930 1_556 S
N892 C891 1.279 1_554 S
N892 C895 1.315 . S
C893 C890 1.348 . S
C893 C895 1.352 1_556 S
C893 H949 0.929 . S
C894 C890 1.356 . S
C894 C891 1.358 . S
C894 H950 0.930 . S
C895 N892 1.315 . S
C895 C893 1.352 1_554 S
C895 H951 0.930 . S
C896 N897 1.314 . S
C896 C901 1.353 . S
C896 H902 0.930 . S
N897 Li880 1.990 . S
N897 C896 1.314 . S
N897 C899 1.279 . S
C898 C899 1.358 . S
C898 C900 1.356 . S
C898 H952 0.930 . S
C899 N897 1.279 . S
C899 C898 1.358 . S
C899 H903 0.930 . S
C900 C898 1.356 . S
C900 C901 1.348 . S
C901 C896 1.353 . S
C901 C900 1.348 . S
C901 H953 0.929 . S
H902 C896 0.930 . S
H903 C899 0.930 . S
C904 N905 1.314 . S
C904 C906 1.353 . S
C904 H910 0.930 . S
N905 Li881 1.990 . S
N905 C904 1.314 . S
N905 C908 1.279 . S
C906 C904 1.353 . S
C906 C909 1.348 1_556 S
C906 H954 0.929 . S
C907 C908 1.358 1_554 S
C907 C909 1.356 . S
C907 H955 0.930 . S
C908 N905 1.279 . S
C908 C907 1.358 1_556 S
C908 H911 0.930 1_556 S
C909 C906 1.348 1_554 S
C909 C907 1.356 . S
H910 C904 0.930 . S
H911 C908 0.930 1_554 S
C912 C914 1.348 . S
C912 C915 1.356 . S
C912 O942 1.325 . S
N913 C916 1.314 . S
N913 C917 1.279 . S
C914 C912 1.348 . S
C914 C916 1.353 . S
C914 H956 0.929 . S
C915 C912 1.356 . S
C915 C917 1.358 . S
C915 H957 0.930 . S
C916 N913 1.314 . S
C916 C914 1.353 . S
C916 H958 0.930 . S
C917 N913 1.279 . S
C917 C915 1.358 . S
C917 H959 0.930 . S
C918 C919 1.348 . S
C918 C920 1.356 . S
C918 O943 1.325 . S
C919 C918 1.348 . S
C919 C921 1.353 . S
C919 H960 0.929 . S
C920 C918 1.356 . S
C920 C922 1.358 . S
C920 H961 0.930 . S
C921 C919 1.353 . S
C921 N923 1.314 . S
C921 H962 0.930 . S
C922 C920 1.358 . S
C922 N923 1.279 . S
C922 H963 0.930 . S
N923 C921 1.314 . S
N923 C922 1.279 . S
C924 C926 1.353 . S
C924 N927 1.314 . S
C924 H930 0.930 . S
C925 N927 1.279 . S
C925 C928 1.358 . S
C925 H931 0.930 . S
C926 C924 1.353 . S
C926 C929 1.348 . S
C926 H964 0.929 . S
N927 Li882 1.990 . S
N927 C924 1.314 . S
N927 C925 1.279 . S
C928 C925 1.358 . S
C928 C929 1.356 . S
C928 H965 0.930 . S
C929 C926 1.348 . S
C929 C928 1.356 . S
H930 C924 0.930 . S
H931 C925 0.930 . S
C932 N933 1.314 . S
C932 C934 1.353 . S
C932 H938 0.930 . S
N933 Li883 1.990 . S
N933 C932 1.314 . S
N933 C936 1.279 . S
C934 C932 1.353 . S
C934 C937 1.348 . S
C934 H966 0.929 . S
C935 C936 1.358 . S
C935 C937 1.356 . S
C935 H967 0.930 . S
C936 N933 1.279 . S
C936 C935 1.358 . S
C936 H939 0.930 . S
C937 C934 1.348 . S
C937 C935 1.356 . S
H938 C932 0.930 . S
H939 C936 0.930 . S
O940 Li880 1.956 . S
O940 Li881 1.970 . S
O940 Li882 1.961 . S
O940 C884 1.325 . S
O941 Li880 1.970 . S
O941 Li881 1.956 . S
O941 Li883 1.961 . S
O941 C890 1.325 . S
O942 Li880 1.961 . S
O942 Li882 1.956 . S
O942 Li883 1.970 . S
O942 C912 1.325 . S
O943 Li881 1.961 . S
O943 Li882 1.970 . S
O943 Li883 1.956 . S
O943 C918 1.325 . S
H944 C886 0.929 . S
H945 C887 0.930 . S
H946 C888 0.930 . S
H947 C889 0.930 . S
H948 C891 0.930 1_554 S
H949 C893 0.929 . S
H950 C894 0.930 . S
H951 C895 0.930 . S
H952 C898 0.930 . S
H953 C901 0.929 . S
H954 C906 0.929 . S
H955 C907 0.930 . S
H956 C914 0.929 . S
H957 C915 0.930 . S
H958 C916 0.930 . S
H959 C917 0.930 . S
H960 C919 0.929 . S
H961 C920 0.930 . S
H962 C921 0.930 . S
H963 C922 0.930 . S
H964 C926 0.929 . S
H965 C928 0.930 . S
H966 C934 0.929 . S
H967 C935 0.930 . S
Li968 N985 1.990 . S
Li968 O1028 1.956 . S
Li968 O1029 1.970 . S
Li968 O1030 1.961 . S
Li969 N993 1.990 . S
Li969 O1028 1.970 . S
Li969 O1029 1.956 . S
Li969 O1031 1.961 . S
Li970 N1015 1.990 . S
Li970 O1028 1.961 . S
Li970 O1030 1.956 . S
Li970 O1031 1.970 . S
Li971 N1021 1.990 . S
Li971 O1029 1.961 . S
Li971 O1030 1.970 . S
Li971 O1031 1.956 . S
C972 C974 1.348 . S
C972 C975 1.356 . S
C972 O1028 1.325 . S
N973 C976 1.314 . S
N973 C977 1.279 . S
C974 C972 1.348 . S
C974 C976 1.353 . S
C974 H1032 0.929 . S
C975 C972 1.356 . S
C975 C977 1.358 . S
C975 H1033 0.930 . S
C976 N973 1.314 . S
C976 C974 1.353 . S
C976 H1034 0.930 . S
C977 N973 1.279 . S
C977 C975 1.358 . S
C977 H1035 0.930 . S
C978 C981 1.348 . S
C978 C982 1.356 . S
C978 O1029 1.325 . S
C979 N980 1.279 . S
C979 C982 1.358 . S
C979 H1036 0.930 . S
N980 C979 1.279 . S
N980 C983 1.314 . S
C981 C978 1.348 . S
C981 C983 1.353 . S
C981 H1037 0.929 . S
C982 C978 1.356 . S
C982 C979 1.358 . S
C982 H1038 0.930 . S
C983 N980 1.314 . S
C983 C981 1.353 . S
C983 H1039 0.930 . S
C984 N985 1.314 . S
C984 C989 1.353 . S
C984 H990 0.930 . S
N985 Li968 1.990 . S
N985 C984 1.314 . S
N985 C987 1.279 . S
C986 C987 1.358 . S
C986 C988 1.356 . S
C986 H1040 0.930 . S
C987 N985 1.279 . S
C987 C986 1.358 . S
C987 H991 0.930 . S
C988 C986 1.356 . S
C988 C989 1.348 . S
C989 C984 1.353 . S
C989 C988 1.348 . S
C989 H1041 0.929 . S
H990 C984 0.930 . S
H991 C987 0.930 . S
C992 N993 1.314 . S
C992 C994 1.353 . S
C992 H998 0.930 . S
N993 Li969 1.990 . S
N993 C992 1.314 . S
N993 C996 1.279 . S
C994 C992 1.353 . S
C994 C997 1.348 . S
C994 H1042 0.929 . S
C995 C996 1.358 . S
C995 C997 1.356 . S
C995 H1043 0.930 . S
C996 N993 1.279 . S
C996 C995 1.358 . S
C996 H999 0.930 . S
C997 C994 1.348 . S
C997 C995 1.356 . S
H998 C992 0.930 . S
H999 C996 0.930 . S
C1000 C1002 1.348 . S
C1000 C1003 1.356 . S
C1000 O1030 1.325 . S
N1001 C1004 1.314 . S
N1001 C1005 1.279 . S
C1002 C1000 1.348 . S
C1002 C1004 1.353 . S
C1002 H1044 0.929 . S
C1003 C1000 1.356 . S
C1003 C1005 1.358 . S
C1003 H1045 0.930 . S
C1004 N1001 1.314 . S
C1004 C1002 1.353 . S
C1004 H1046 0.930 . S
C1005 N1001 1.279 . S
C1005 C1003 1.358 . S
C1005 H1047 0.930 . S
C1006 C1007 1.348 . S
C1006 C1008 1.356 . S
C1006 O1031 1.325 . S
C1007 C1006 1.348 . S
C1007 C1009 1.353 . S
C1007 H1048 0.929 . S
C1008 C1006 1.356 . S
C1008 C1010 1.358 . S
C1008 H1049 0.930 . S
C1009 C1007 1.353 . S
C1009 N1011 1.314 . S
C1009 H1050 0.930 . S
C1010 C1008 1.358 . S
C1010 N1011 1.279 . S
C1010 H1051 0.930 . S
N1011 C1009 1.314 . S
N1011 C1010 1.279 . S
C1012 C1014 1.353 . S
C1012 N1015 1.314 . S
C1012 H1018 0.930 . S
C1013 N1015 1.279 . S
C1013 C1016 1.358 . S
C1013 H1019 0.930 . S
C1014 C1012 1.353 . S
C1014 C1017 1.348 . S
C1014 H1052 0.929 . S
N1015 Li970 1.990 . S
N1015 C1012 1.314 . S
N1015 C1013 1.279 . S
C1016 C1013 1.358 . S
C1016 C1017 1.356 . S
C1016 H1053 0.930 . S
C1017 C1014 1.348 . S
C1017 C1016 1.356 . S
H1018 C1012 0.930 . S
H1019 C1013 0.930 . S
C1020 N1021 1.314 . S
C1020 C1022 1.353 . S
C1020 H1026 0.930 . S
N1021 Li971 1.990 . S
N1021 C1020 1.314 . S
N1021 C1024 1.279 . S
C1022 C1020 1.353 . S
C1022 C1025 1.348 . S
C1022 H1054 0.929 . S
C1023 C1024 1.358 . S
C1023 C1025 1.356 . S
C1023 H1055 0.930 . S
C1024 N1021 1.279 . S
C1024 C1023 1.358 . S
C1024 H1027 0.930 . S
C1025 C1022 1.348 . S
C1025 C1023 1.356 . S
H1026 C1020 0.930 . S
H1027 C1024 0.930 . S
O1028 Li968 1.956 . S
O1028 Li969 1.970 . S
O1028 Li970 1.961 . S
O1028 C972 1.325 . S
O1029 Li968 1.970 . S
O1029 Li969 1.956 . S
O1029 Li971 1.961 . S
O1029 C978 1.325 . S
O1030 Li968 1.961 . S
O1030 Li970 1.956 . S
O1030 Li971 1.970 . S
O1030 C1000 1.325 . S
O1031 Li969 1.961 . S
O1031 Li970 1.970 . S
O1031 Li971 1.956 . S
O1031 C1006 1.325 . S
H1032 C974 0.929 . S
H1033 C975 0.930 . S
H1034 C976 0.930 . S
H1035 C977 0.930 . S
H1036 C979 0.930 . S
H1037 C981 0.929 . S
H1038 C982 0.930 . S
H1039 C983 0.930 . S
H1040 C986 0.930 . S
H1041 C989 0.929 . S
H1042 C994 0.929 . S
H1043 C995 0.930 . S
H1044 C1002 0.929 . S
H1045 C1003 0.930 . S
H1046 C1004 0.930 . S
H1047 C1005 0.930 . S
H1048 C1007 0.929 . S
H1049 C1008 0.930 . S
H1050 C1009 0.930 . S
H1051 C1010 0.930 . S
H1052 C1014 0.929 . S
H1053 C1016 0.930 . S
H1054 C1022 0.929 . S
H1055 C1023 0.930 . S
Li1056 N1073 1.990 . S
Li1056 O1116 1.956 . S
Li1056 O1117 1.970 . S
Li1056 O1118 1.961 . S
Li1057 N1081 1.990 1_655 S
Li1057 O1116 1.970 . S
Li1057 O1117 1.956 . S
Li1057 O1119 1.961 . S
Li1058 N1103 1.990 . S
Li1058 O1116 1.961 . S
Li1058 O1118 1.956 . S
Li1058 O1119 1.970 . S
Li1059 N1109 1.990 . S
Li1059 O1117 1.961 . S
Li1059 O1118 1.970 . S
Li1059 O1119 1.956 . S
C1060 C1062 1.300 1_655 S
C1060 C1063 1.356 . S
C1060 O1116 1.325 . S
N1061 C1064 1.314 . S
N1061 C1065 1.279 1_455 S
C1062 C1060 1.300 1_455 S
C1062 C1064 1.378 . S
C1062 H1120 0.956 . S
C1063 C1060 1.356 . S
C1063 C1065 1.358 . S
C1063 H1121 0.930 . S
C1064 N1061 1.314 . S
C1064 C1062 1.378 . S
C1064 H1122 0.930 . S
C1065 N1061 1.279 1_655 S
C1065 C1063 1.358 . S
C1065 H1123 0.930 . S
C1066 C1069 1.348 . S
C1066 C1070 1.356 . S
C1066 O1117 1.325 . S
C1067 N1068 1.279 . S
C1067 C1070 1.358 . S
C1067 H1124 0.930 . S
N1068 C1067 1.279 . S
N1068 C1071 1.314 . S
C1069 C1066 1.348 . S
C1069 C1071 1.353 . S
C1069 H1125 0.929 . S
C1070 C1066 1.356 . S
C1070 C1067 1.358 . S
C1070 H1126 0.930 . S
C1071 N1068 1.314 . S
C1071 C1069 1.353 . S
C1071 H1127 0.930 . S
C1072 N1073 1.314 . S
C1072 C1077 1.353 . S
C1072 H1078 0.930 . S
N1073 Li1056 1.990 . S
N1073 C1072 1.314 . S
N1073 C1075 1.279 . S
C1074 C1075 1.358 . S
C1074 C1076 1.356 . S
C1074 H1128 0.930 . S
C1075 N1073 1.279 . S
C1075 C1074 1.358 . S
C1075 H1079 0.930 . S
C1076 C1074 1.356 . S
C1076 C1077 1.348 . S
C1077 C1072 1.353 . S
C1077 C1076 1.348 . S
C1077 H1129 0.929 . S
H1078 C1072 0.930 . S
H1079 C1075 0.930 . S
C1080 N1081 1.314 . S
C1080 C1082 1.353 . S
C1080 H1086 0.930 . S
N1081 Li1057 1.990 1_455 S
N1081 C1080 1.314 . S
N1081 C1084 1.279 . S
C1082 C1080 1.353 . S
C1082 C1085 1.348 . S
C1082 H1130 0.929 . S
C1083 C1084 1.358 . S
C1083 C1085 1.356 . S
C1083 H1131 0.930 . S
C1084 N1081 1.279 . S
C1084 C1083 1.358 . S
C1084 H1087 0.930 . S
C1085 C1082 1.348 . S
C1085 C1083 1.356 . S
H1086 C1080 0.930 . S
H1087 C1084 0.930 . S
C1088 C1090 1.348 . S
C1088 C1091 1.356 . S
C1088 O1118 1.325 . S
N1089 C1092 1.314 . S
N1089 C1093 1.279 . S
C1090 C1088 1.348 . S
C1090 C1092 1.353 . S
C1090 H1132 0.929 . S
C1091 C1088 1.356 . S
C1091 C1093 1.358 . S
C1091 H1133 0.930 . S
C1092 N1089 1.314 . S
C1092 C1090 1.353 . S
C1092 H1134 0.930 . S
C1093 N1089 1.279 . S
C1093 C1091 1.358 . S
C1093 H1135 0.930 . S
C1094 C1095 1.348 . S
C1094 C1096 1.356 1_655 S
C1094 O1119 1.325 . S
C1095 C1094 1.348 . S
C1095 C1097 1.352 1_654 S
C1095 H1136 0.929 . S
C1096 C1094 1.356 1_455 S
C1096 C1098 1.358 . S
C1096 H1137 0.930 . S
C1097 C1095 1.352 1_456 S
C1097 N1099 1.315 . S
C1097 H1138 0.930 . S
C1098 C1096 1.358 . S
C1098 N1099 1.279 1_554 S
C1098 H1139 0.930 1_554 S
N1099 C1097 1.315 . S
N1099 C1098 1.279 1_556 S
C1100 C1102 1.353 . S
C1100 N1103 1.314 . S
C1100 H1106 0.930 . S
C1101 N1103 1.279 . S
C1101 C1104 1.358 . S
C1101 H1107 0.930 . S
C1102 C1100 1.353 . S
C1102 C1105 1.348 . S
C1102 H1140 0.929 1_655 S
N1103 Li1058 1.990 . S
N1103 C1100 1.314 . S
N1103 C1101 1.279 . S
C1104 C1101 1.358 . S
C1104 C1105 1.356 . S
C1104 H1141 0.930 . S
C1105 C1102 1.348 . S
C1105 C1104 1.356 . S
H1106 C1100 0.930 . S
H1107 C1101 0.930 . S
C1108 N1109 1.314 . S
C1108 C1110 1.353 . S
C1108 H1114 0.930 . S
N1109 Li1059 1.990 . S
N1109 C1108 1.314 . S
N1109 C1112 1.279 . S
C1110 C1108 1.353 . S
C1110 C1113 1.348 1_554 S
C1110 H1142 0.929 . S
C1111 C1112 1.358 1_556 S
C1111 C1113 1.356 . S
C1111 H1143 0.930 . S
C1112 N1109 1.279 . S
C1112 C1111 1.358 1_554 S
C1112 H1115 0.930 1_554 S
C1113 C1110 1.348 1_556 S
C1113 C1111 1.356 . S
H1114 C1108 0.930 . S
H1115 C1112 0.930 1_556 S
O1116 Li1056 1.956 . S
O1116 Li1057 1.970 . S
O1116 Li1058 1.961 . S
O1116 C1060 1.325 . S
O1117 Li1056 1.970 . S
O1117 Li1057 1.956 . S
O1117 Li1059 1.961 . S
O1117 C1066 1.325 . S
O1118 Li1056 1.961 . S
O1118 Li1058 1.956 . S
O1118 Li1059 1.970 . S
O1118 C1088 1.325 . S
O1119 Li1057 1.961 . S
O1119 Li1058 1.970 . S
O1119 Li1059 1.956 . S
O1119 C1094 1.325 . S
H1120 C1062 0.956 . S
H1121 C1063 0.930 . S
H1122 C1064 0.930 . S
H1123 C1065 0.930 . S
H1124 C1067 0.930 . S
H1125 C1069 0.929 . S
H1126 C1070 0.930 . S
H1127 C1071 0.930 . S
H1128 C1074 0.930 . S
H1129 C1077 0.929 . S
H1130 C1082 0.929 . S
H1131 C1083 0.930 . S
H1132 C1090 0.929 . S
H1133 C1091 0.930 . S
H1134 C1092 0.930 . S
H1135 C1093 0.930 . S
H1136 C1095 0.929 . S
H1137 C1096 0.930 . S
H1138 C1097 0.930 . S
H1139 C1098 0.930 1_556 S
H1140 C1102 0.929 1_455 S
H1141 C1104 0.930 . S
H1142 C1110 0.929 . S
H1143 C1111 0.930 . S
Li1144 N1161 1.990 1_565 S
Li1144 O1204 1.956 . S
Li1144 O1205 1.970 . S
Li1144 O1206 1.961 . S
Li1145 N1169 1.990 . S
Li1145 O1204 1.970 . S
Li1145 O1205 1.956 . S
Li1145 O1207 1.961 . S
Li1146 N1191 1.990 . S
Li1146 O1204 1.961 . S
Li1146 O1206 1.956 . S
Li1146 O1207 1.970 . S
Li1147 N1197 1.990 . S
Li1147 O1205 1.961 . S
Li1147 O1206 1.970 . S
Li1147 O1207 1.956 . S
C1148 C1150 1.348 . S
C1148 C1151 1.356 . S
C1148 O1204 1.325 . S
N1149 C1152 1.314 . S
N1149 C1153 1.279 . S
C1150 C1148 1.348 . S
C1150 C1152 1.353 . S
C1150 H1208 0.929 . S
C1151 C1148 1.356 . S
C1151 C1153 1.358 . S
C1151 H1209 0.930 . S
C1152 N1149 1.314 . S
C1152 C1150 1.353 . S
C1152 H1210 0.930 . S
C1153 N1149 1.279 . S
C1153 C1151 1.358 . S
C1153 H1211 0.930 . S
C1154 C1157 1.301 1_565 S
C1154 C1158 1.356 . S
C1154 O1205 1.325 . S
C1155 N1156 1.279 1_565 S
C1155 C1158 1.358 . S
C1155 H1212 0.930 . S
N1156 C1155 1.279 1_545 S
N1156 C1159 1.314 . S
C1157 C1154 1.301 1_545 S
C1157 C1159 1.377 . S
C1157 H1213 0.956 . S
C1158 C1154 1.356 . S
C1158 C1155 1.358 . S
C1158 H1214 0.930 . S
C1159 N1156 1.314 . S
C1159 C1157 1.377 . S
C1159 H1215 0.930 . S
C1160 N1161 1.314 . S
C1160 C1165 1.353 . S
C1160 H1166 0.930 . S
N1161 Li1144 1.990 1_545 S
N1161 C1160 1.314 . S
N1161 C1163 1.279 . S
C1162 C1163 1.358 . S
C1162 C1164 1.356 . S
C1162 H1216 0.930 . S
C1163 N1161 1.279 . S
C1163 C1162 1.358 . S
C1163 H1167 0.930 . S
C1164 C1162 1.356 . S
C1164 C1165 1.348 . S
C1165 C1160 1.353 . S
C1165 C1164 1.348 . S
C1165 H1217 0.929 . S
H1166 C1160 0.930 . S
H1167 C1163 0.930 . S
C1168 N1169 1.314 . S
C1168 C1170 1.353 . S
C1168 H1174 0.930 . S
N1169 Li1145 1.990 . S
N1169 C1168 1.314 . S
N1169 C1172 1.279 . S
C1170 C1168 1.353 . S
C1170 C1173 1.348 . S
C1170 H1218 0.929 . S
C1171 C1172 1.358 . S
C1171 C1173 1.356 . S
C1171 H1219 0.930 . S
C1172 N1169 1.279 . S
C1172 C1171 1.358 . S
C1172 H1175 0.930 . S
C1173 C1170 1.348 . S
C1173 C1171 1.356 . S
H1174 C1168 0.930 . S
H1175 C1172 0.930 . S
C1176 C1178 1.348 . S
C1176 C1179 1.356 1_565 S
C1176 O1206 1.325 . S
N1177 C1180 1.314 . S
N1177 C1181 1.279 . S
C1178 C1176 1.348 . S
C1178 C1180 1.353 1_565 S
C1178 H1220 0.929 . S
C1179 C1176 1.356 1_545 S
C1179 C1181 1.358 . S
C1179 H1221 0.930 . S
C1180 N1177 1.314 . S
C1180 C1178 1.353 1_545 S
C1180 H1222 0.930 . S
C1181 N1177 1.279 . S
C1181 C1179 1.358 . S
C1181 H1223 0.930 . S
C1182 C1183 1.348 . S
C1182 C1184 1.356 . S
C1182 O1207 1.325 . S
C1183 C1182 1.348 . S
C1183 C1185 1.353 . S
C1183 H1224 0.929 . S
C1184 C1182 1.356 . S
C1184 C1186 1.358 . S
C1184 H1225 0.930 . S
C1185 C1183 1.353 . S
C1185 N1187 1.314 . S
C1185 H1226 0.930 . S
C1186 C1184 1.358 . S
C1186 N1187 1.279 . S
C1186 H1227 0.930 . S
N1187 C1185 1.314 . S
N1187 C1186 1.279 . S
C1188 C1190 1.353 . S
C1188 N1191 1.314 . S
C1188 H1194 0.930 . S
C1189 N1191 1.279 . S
C1189 C1192 1.358 . S
C1189 H1195 0.930 . S
C1190 C1188 1.353 . S
C1190 C1193 1.348 . S
C1190 H1228 0.929 . S
N1191 Li1146 1.990 . S
N1191 C1188 1.314 . S
N1191 C1189 1.279 . S
C1192 C1189 1.358 . S
C1192 C1193 1.356 . S
C1192 H1229 0.930 . S
C1193 C1190 1.348 . S
C1193 C1192 1.356 . S
H1194 C1188 0.930 . S
H1195 C1189 0.930 . S
C1196 N1197 1.314 . S
C1196 C1198 1.353 . S
C1196 H1202 0.930 . S
N1197 Li1147 1.990 . S
N1197 C1196 1.314 . S
N1197 C1200 1.279 . S
C1198 C1196 1.353 . S
C1198 C1201 1.348 . S
C1198 H1230 0.929 1_565 S
C1199 C1200 1.358 . S
C1199 C1201 1.356 . S
C1199 H1231 0.930 . S
C1200 N1197 1.279 . S
C1200 C1199 1.358 . S
C1200 H1203 0.930 . S
C1201 C1198 1.348 . S
C1201 C1199 1.356 . S
H1202 C1196 0.930 . S
H1203 C1200 0.930 . S
O1204 Li1144 1.956 . S
O1204 Li1145 1.970 . S
O1204 Li1146 1.961 . S
O1204 C1148 1.325 . S
O1205 Li1144 1.970 . S
O1205 Li1145 1.956 . S
O1205 Li1147 1.961 . S
O1205 C1154 1.325 . S
O1206 Li1144 1.961 . S
O1206 Li1146 1.956 . S
O1206 Li1147 1.970 . S
O1206 C1176 1.325 . S
O1207 Li1145 1.961 . S
O1207 Li1146 1.970 . S
O1207 Li1147 1.956 . S
O1207 C1182 1.325 . S
H1208 C1150 0.929 . S
H1209 C1151 0.930 . S
H1210 C1152 0.930 . S
H1211 C1153 0.930 . S
H1212 C1155 0.930 . S
H1213 C1157 0.956 . S
H1214 C1158 0.930 . S
H1215 C1159 0.930 . S
H1216 C1162 0.930 . S
H1217 C1165 0.929 . S
H1218 C1170 0.929 . S
H1219 C1171 0.930 . S
H1220 C1178 0.929 . S
H1221 C1179 0.930 . S
H1222 C1180 0.930 . S
H1223 C1181 0.930 . S
H1224 C1183 0.929 . S
H1225 C1184 0.930 . S
H1226 C1185 0.930 . S
H1227 C1186 0.930 . S
H1228 C1190 0.929 . S
H1229 C1192 0.930 . S
H1230 C1198 0.929 1_545 S
H1231 C1199 0.930 . S
Li1232 N1249 1.990 . S
Li1232 O1292 1.956 . S
Li1232 O1293 1.970 . S
Li1232 O1294 1.961 . S
Li1233 N1257 1.990 . S
Li1233 O1292 1.970 . S
Li1233 O1293 1.956 . S
Li1233 O1295 1.961 . S
Li1234 N1279 1.990 . S
Li1234 O1292 1.961 . S
Li1234 O1294 1.956 . S
Li1234 O1295 1.970 . S
Li1235 N1285 1.990 . S
Li1235 O1293 1.961 . S
Li1235 O1294 1.970 . S
Li1235 O1295 1.956 . S
C1236 C1238 1.348 . S
C1236 C1239 1.356 . S
C1236 O1292 1.325 . S
N1237 C1240 1.314 . S
N1237 C1241 1.279 . S
C1238 C1236 1.348 . S
C1238 C1240 1.353 . S
C1238 H1296 0.929 . S
C1239 C1236 1.356 . S
C1239 C1241 1.358 . S
C1239 H1297 0.930 . S
C1240 N1237 1.314 . S
C1240 C1238 1.353 . S
C1240 H1298 0.930 . S
C1241 N1237 1.279 . S
C1241 C1239 1.358 . S
C1241 H1299 0.930 . S
C1242 C1245 1.348 . S
C1242 C1246 1.356 . S
C1242 O1293 1.325 . S
C1243 N1244 1.279 . S
C1243 C1246 1.358 . S
C1243 H1300 0.930 . S
N1244 C1243 1.279 . S
N1244 C1247 1.314 . S
C1245 C1242 1.348 . S
C1245 C1247 1.353 . S
C1245 H1301 0.929 . S
C1246 C1242 1.356 . S
C1246 C1243 1.358 . S
C1246 H1302 0.930 . S
C1247 N1244 1.314 . S
C1247 C1245 1.353 . S
C1247 H1303 0.930 . S
C1248 N1249 1.314 . S
C1248 C1253 1.353 . S
C1248 H1254 0.930 . S
N1249 Li1232 1.990 . S
N1249 C1248 1.314 . S
N1249 C1251 1.279 . S
C1250 C1251 1.358 . S
C1250 C1252 1.356 . S
C1250 H1304 0.930 . S
C1251 N1249 1.279 . S
C1251 C1250 1.358 . S
C1251 H1255 0.930 . S
C1252 C1250 1.356 . S
C1252 C1253 1.348 . S
C1253 C1248 1.353 . S
C1253 C1252 1.348 . S
C1253 H1305 0.929 . S
H1254 C1248 0.930 . S
H1255 C1251 0.930 . S
C1256 N1257 1.314 . S
C1256 C1258 1.353 . S
C1256 H1262 0.930 . S
N1257 Li1233 1.990 . S
N1257 C1256 1.314 . S
N1257 C1260 1.279 . S
C1258 C1256 1.353 . S
C1258 C1261 1.348 . S
C1258 H1306 0.929 . S
C1259 C1260 1.358 . S
C1259 C1261 1.356 . S
C1259 H1307 0.930 . S
C1260 N1257 1.279 . S
C1260 C1259 1.358 . S
C1260 H1263 0.930 . S
C1261 C1258 1.348 . S
C1261 C1259 1.356 . S
H1262 C1256 0.930 . S
H1263 C1260 0.930 . S
C1264 C1266 1.348 . S
C1264 C1267 1.356 . S
C1264 O1294 1.325 . S
N1265 C1268 1.314 . S
N1265 C1269 1.279 1_556 S
C1266 C1264 1.348 . S
C1266 C1268 1.353 1_554 S
C1266 H1308 0.929 . S
C1267 C1264 1.356 . S
C1267 C1269 1.358 . S
C1267 H1309 0.930 . S
C1268 N1265 1.314 . S
C1268 C1266 1.353 1_556 S
C1268 H1310 0.929 . S
C1269 N1265 1.279 1_554 S
C1269 C1267 1.358 . S
C1269 H1311 0.930 1_554 S
C1270 C1271 1.348 . S
C1270 C1272 1.356 . S
C1270 O1295 1.325 . S
C1271 C1270 1.348 . S
C1271 C1273 1.353 . S
C1271 H1312 0.929 . S
C1272 C1270 1.356 . S
C1272 C1274 1.358 . S
C1272 H1313 0.930 . S
C1273 C1271 1.353 . S
C1273 N1275 1.314 . S
C1273 H1314 0.930 . S
C1274 C1272 1.358 . S
C1274 N1275 1.279 . S
C1274 H1315 0.930 . S
N1275 C1273 1.314 . S
N1275 C1274 1.279 . S
C1276 C1278 1.353 . S
C1276 N1279 1.314 . S
C1276 H1282 0.930 . S
C1277 N1279 1.279 . S
C1277 C1280 1.358 1_554 S
C1277 H1283 0.930 1_554 S
C1278 C1276 1.353 . S
C1278 C1281 1.348 1_554 S
C1278 H1316 0.929 . S
N1279 Li1234 1.990 . S
N1279 C1276 1.314 . S
N1279 C1277 1.279 . S
C1280 C1277 1.358 1_556 S
C1280 C1281 1.356 . S
C1280 H1317 0.930 . S
C1281 C1278 1.348 1_556 S
C1281 C1280 1.356 . S
H1282 C1276 0.930 . S
H1283 C1277 0.930 1_556 S
C1284 N1285 1.314 . S
C1284 C1286 1.353 . S
C1284 H1290 0.930 . S
N1285 Li1235 1.990 . S
N1285 C1284 1.314 . S
N1285 C1288 1.279 . S
C1286 C1284 1.353 . S
C1286 C1289 1.348 . S
C1286 H1318 0.929 . S
C1287 C1288 1.358 . S
C1287 C1289 1.356 . S
C1287 H1319 0.930 . S
C1288 N1285 1.279 . S
C1288 C1287 1.358 . S
C1288 H1291 0.930 . S
C1289 C1286 1.348 . S
C1289 C1287 1.356 . S
H1290 C1284 0.930 . S
H1291 C1288 0.930 . S
O1292 Li1232 1.956 . S
O1292 Li1233 1.970 . S
O1292 Li1234 1.961 . S
O1292 C1236 1.325 . S
O1293 Li1232 1.970 . S
O1293 Li1233 1.956 . S
O1293 Li1235 1.961 . S
O1293 C1242 1.325 . S
O1294 Li1232 1.961 . S
O1294 Li1234 1.956 . S
O1294 Li1235 1.970 . S
O1294 C1264 1.325 . S
O1295 Li1233 1.961 . S
O1295 Li1234 1.970 . S
O1295 Li1235 1.956 . S
O1295 C1270 1.325 . S
H1296 C1238 0.929 . S
H1297 C1239 0.930 . S
H1298 C1240 0.930 . S
H1299 C1241 0.930 . S
H1300 C1243 0.930 . S
H1301 C1245 0.929 . S
H1302 C1246 0.930 . S
H1303 C1247 0.930 . S
H1304 C1250 0.930 . S
H1305 C1253 0.929 . S
H1306 C1258 0.929 . S
H1307 C1259 0.930 . S
H1308 C1266 0.929 . S
H1309 C1267 0.930 . S
H1310 C1268 0.929 . S
H1311 C1269 0.930 1_556 S
H1312 C1271 0.929 . S
H1313 C1272 0.930 . S
H1314 C1273 0.930 . S
H1315 C1274 0.930 . S
H1316 C1278 0.929 . S
H1317 C1280 0.930 . S
H1318 C1286 0.929 . S
H1319 C1287 0.930 . S
Li1320 N1337 1.990 . S
Li1320 O1380 1.956 . S
Li1320 O1381 1.970 . S
Li1320 O1382 1.961 . S
Li1321 N1345 1.990 . S
Li1321 O1380 1.970 . S
Li1321 O1381 1.956 . S
Li1321 O1383 1.961 . S
Li1322 N1367 1.990 . S
Li1322 O1380 1.961 . S
Li1322 O1382 1.956 . S
Li1322 O1383 1.970 . S
Li1323 N1373 1.990 . S
Li1323 O1381 1.961 . S
Li1323 O1382 1.970 . S
Li1323 O1383 1.956 . S
C1324 C1326 1.348 . S
C1324 C1327 1.356 . S
C1324 O1380 1.325 . S
N1325 C1328 1.314 . S
N1325 C1329 1.279 . S
C1326 C1324 1.348 . S
C1326 C1328 1.353 . S
C1326 H1384 0.929 . S
C1327 C1324 1.356 . S
C1327 C1329 1.358 . S
C1327 H1385 0.930 . S
C1328 N1325 1.314 . S
C1328 C1326 1.353 . S
C1328 H1386 0.930 . S
C1329 N1325 1.279 . S
C1329 C1327 1.358 . S
C1329 H1387 0.930 . S
C1330 C1333 1.348 . S
C1330 C1334 1.356 . S
C1330 O1381 1.325 . S
C1331 N1332 1.279 . S
C1331 C1334 1.358 . S
C1331 H1388 0.930 . S
N1332 C1331 1.279 . S
N1332 C1335 1.314 . S
C1333 C1330 1.348 . S
C1333 C1335 1.353 . S
C1333 H1389 0.929 . S
C1334 C1330 1.356 . S
C1334 C1331 1.358 . S
C1334 H1390 0.930 . S
C1335 N1332 1.314 . S
C1335 C1333 1.353 . S
C1335 H1391 0.930 . S
C1336 N1337 1.314 . S
C1336 C1341 1.353 . S
C1336 H1342 0.930 . S
N1337 Li1320 1.990 . S
N1337 C1336 1.314 . S
N1337 C1339 1.279 . S
C1338 C1339 1.358 . S
C1338 C1340 1.356 . S
C1338 H1392 0.930 . S
C1339 N1337 1.279 . S
C1339 C1338 1.358 . S
C1339 H1343 0.930 . S
C1340 C1338 1.356 . S
C1340 C1341 1.348 . S
C1341 C1336 1.353 . S
C1341 C1340 1.348 . S
C1341 H1393 0.929 . S
H1342 C1336 0.930 . S
H1343 C1339 0.930 . S
C1344 N1345 1.314 . S
C1344 C1346 1.353 . S
C1344 H1350 0.930 . S
N1345 Li1321 1.990 . S
N1345 C1344 1.314 . S
N1345 C1348 1.279 . S
C1346 C1344 1.353 . S
C1346 C1349 1.348 . S
C1346 H1394 0.929 . S
C1347 C1348 1.358 . S
C1347 C1349 1.356 . S
C1347 H1395 0.930 . S
C1348 N1345 1.279 . S
C1348 C1347 1.358 . S
C1348 H1351 0.930 . S
C1349 C1346 1.348 . S
C1349 C1347 1.356 . S
H1350 C1344 0.930 . S
H1351 C1348 0.930 . S
C1352 C1354 1.348 . S
C1352 C1355 1.356 . S
C1352 O1382 1.325 . S
N1353 C1356 1.314 . S
N1353 C1357 1.279 . S
C1354 C1352 1.348 . S
C1354 C1356 1.353 . S
C1354 H1396 0.929 . S
C1355 C1352 1.356 . S
C1355 C1357 1.358 . S
C1355 H1397 0.930 . S
C1356 N1353 1.314 . S
C1356 C1354 1.353 . S
C1356 H1398 0.930 . S
C1357 N1353 1.279 . S
C1357 C1355 1.358 . S
C1357 H1399 0.930 . S
C1358 C1359 1.348 . S
C1358 C1360 1.356 . S
C1358 O1383 1.325 . S
C1359 C1358 1.348 . S
C1359 C1361 1.353 . S
C1359 H1400 0.929 . S
C1360 C1358 1.356 . S
C1360 C1362 1.358 . S
C1360 H1401 0.930 . S
C1361 C1359 1.353 . S
C1361 N1363 1.314 . S
C1361 H1402 0.930 . S
C1362 C1360 1.358 . S
C1362 N1363 1.279 . S
C1362 H1403 0.930 . S
N1363 C1361 1.314 . S
N1363 C1362 1.279 . S
C1364 C1366 1.353 . S
C1364 N1367 1.314 . S
C1364 H1370 0.930 . S
C1365 N1367 1.279 . S
C1365 C1368 1.358 . S
C1365 H1371 0.930 . S
C1366 C1364 1.353 . S
C1366 C1369 1.348 . S
C1366 H1404 0.929 . S
N1367 Li1322 1.990 . S
N1367 C1364 1.314 . S
N1367 C1365 1.279 . S
C1368 C1365 1.358 . S
C1368 C1369 1.356 . S
C1368 H1405 0.930 . S
C1369 C1366 1.348 . S
C1369 C1368 1.356 . S
H1370 C1364 0.930 . S
H1371 C1365 0.930 . S
C1372 N1373 1.314 . S
C1372 C1374 1.353 . S
C1372 H1378 0.930 . S
N1373 Li1323 1.990 . S
N1373 C1372 1.314 . S
N1373 C1376 1.279 . S
C1374 C1372 1.353 . S
C1374 C1377 1.348 . S
C1374 H1406 0.929 . S
C1375 C1376 1.358 . S
C1375 C1377 1.356 . S
C1375 H1407 0.930 . S
C1376 N1373 1.279 . S
C1376 C1375 1.358 . S
C1376 H1379 0.930 . S
C1377 C1374 1.348 . S
C1377 C1375 1.356 . S
H1378 C1372 0.930 . S
H1379 C1376 0.930 . S
O1380 Li1320 1.956 . S
O1380 Li1321 1.970 . S
O1380 Li1322 1.961 . S
O1380 C1324 1.325 . S
O1381 Li1320 1.970 . S
O1381 Li1321 1.956 . S
O1381 Li1323 1.961 . S
O1381 C1330 1.325 . S
O1382 Li1320 1.961 . S
O1382 Li1322 1.956 . S
O1382 Li1323 1.970 . S
O1382 C1352 1.325 . S
O1383 Li1321 1.961 . S
O1383 Li1322 1.970 . S
O1383 Li1323 1.956 . S
O1383 C1358 1.325 . S
H1384 C1326 0.929 . S
H1385 C1327 0.930 . S
H1386 C1328 0.930 . S
H1387 C1329 0.930 . S
H1388 C1331 0.930 . S
H1389 C1333 0.929 . S
H1390 C1334 0.930 . S
H1391 C1335 0.930 . S
H1392 C1338 0.930 . S
H1393 C1341 0.929 . S
H1394 C1346 0.929 . S
H1395 C1347 0.930 . S
H1396 C1354 0.929 . S
H1397 C1355 0.930 . S
H1398 C1356 0.930 . S
H1399 C1357 0.930 . S
H1400 C1359 0.929 . S
H1401 C1360 0.930 . S
H1402 C1361 0.930 . S
H1403 C1362 0.930 . S
H1404 C1366 0.929 . S
H1405 C1368 0.930 . S
H1406 C1374 0.929 . S
H1407 C1375 0.930 . S
H1408 C1420 0.930 . S
H1409 C1422 0.930 . S
H1410 C1423 0.930 1_556 S
H1411 C1427 0.959 . S
H1412 C1427 0.959 . S
H1413 C1427 0.961 . S
H1414 C1428 0.960 . S
H1415 C1428 0.961 . S
H1416 C1428 0.959 . S
H1417 C1431 0.929 . S
H1418 C1432 0.931 . S
H1419 C1434 0.930 . S
C1420 H1408 0.930 . S
C1420 C1421 1.399 . S
C1420 C1425 1.399 . S
C1421 C1420 1.399 . S
C1421 C1422 1.376 . S
C1422 H1409 0.930 . S
C1422 C1421 1.376 . S
C1422 C1423 1.388 . S
C1423 H1410 0.930 1_554 S
C1423 C1422 1.388 . S
C1423 C1424 1.390 . S
C1424 C1423 1.390 . S
C1424 C1425 1.394 . S
C1424 C1430 1.465 1_554 S
C1425 C1420 1.399 . S
C1425 C1424 1.394 . S
C1425 C1426 1.516 . S
C1426 C1425 1.516 . S
C1426 C1427 1.502 1_455 S
C1426 C1428 1.561 . S
C1426 C1429 1.526 1_554 S
C1427 H1411 0.959 . S
C1427 H1412 0.959 . S
C1427 H1413 0.961 . S
C1427 C1426 1.502 1_655 S
C1428 H1414 0.960 . S
C1428 H1415 0.961 . S
C1428 H1416 0.959 . S
C1428 C1426 1.561 . S
C1429 C1426 1.526 1_556 S
C1429 C1430 1.396 . S
C1429 C1434 1.390 . S
C1430 C1424 1.465 1_556 S
C1430 C1429 1.396 . S
C1430 C1431 1.399 . S
C1431 H1417 0.929 . S
C1431 C1430 1.399 . S
C1431 C1432 1.385 . S
C1432 H1418 0.931 . S
C1432 C1431 1.385 . S
C1432 C1433 1.389 . S
C1433 C1432 1.389 . S
C1433 C1434 1.387 . S
C1434 H1419 0.930 . S
C1434 C1429 1.390 . S
C1434 C1433 1.387 . S
H1435 C1447 0.930 . S
H1436 C1449 0.935 . S
H1437 C1450 0.930 . S
H1438 C1454 0.959 . S
H1439 C1454 0.959 . S
H1440 C1454 0.961 . S
H1441 C1455 0.960 . S
H1442 C1455 0.961 . S
H1443 C1455 0.959 . S
H1444 C1458 0.929 . S
H1445 C1459 0.967 . S
H1446 C1461 0.930 . S
C1447 H1435 0.930 . S
C1447 C1448 1.399 . S
C1447 C1452 1.399 . S
C1448 C1447 1.399 . S
C1448 C1449 1.371 1_545 S
C1449 H1436 0.935 . S
C1449 C1448 1.371 1_565 S
C1449 C1450 1.390 . S
C1450 H1437 0.930 . S
C1450 C1449 1.390 . S
C1450 C1451 1.390 1_565 S
C1451 C1450 1.390 1_545 S
C1451 C1452 1.394 . S
C1451 C1457 1.465 . S
C1452 C1447 1.399 . S
C1452 C1451 1.394 . S
C1452 C1453 1.516 . S
C1453 C1452 1.516 . S
C1453 C1454 1.502 . S
C1453 C1455 1.561 . S
C1453 C1456 1.526 . S
C1454 H1438 0.959 . S
C1454 H1439 0.959 . S
C1454 H1440 0.961 . S
C1454 C1453 1.502 . S
C1455 H1441 0.960 . S
C1455 H1442 0.961 . S
C1455 H1443 0.959 . S
C1455 C1453 1.561 . S
C1456 C1453 1.526 . S
C1456 C1457 1.396 . S
C1456 C1461 1.390 . S
C1457 C1451 1.465 . S
C1457 C1456 1.396 . S
C1457 C1458 1.399 1_545 S
C1458 H1444 0.929 . S
C1458 C1457 1.399 1_565 S
C1458 C1459 1.395 . S
C1459 H1445 0.967 . S
C1459 C1458 1.395 . S
C1459 C1460 1.345 1_565 S
C1460 C1459 1.345 1_545 S
C1460 C1461 1.387 . S
C1461 H1446 0.930 . S
C1461 C1456 1.390 . S
C1461 C1460 1.387 . S
H1462 C1474 0.930 . S
H1463 C1476 0.930 . S
H1464 C1477 0.930 . S
H1465 C1481 0.959 . S
H1466 C1481 0.959 . S
H1467 C1481 0.961 . S
H1468 C1482 0.960 . S
H1469 C1482 0.961 . S
H1470 C1482 0.959 . S
H1471 C1485 0.929 1_554 S
H1472 C1486 0.931 . S
H1473 C1488 0.930 . S
C1474 H1462 0.930 . S
C1474 C1475 1.399 . S
C1474 C1479 1.399 . S
C1475 C1474 1.399 . S
C1475 C1476 1.376 . S
C1476 H1463 0.930 . S
C1476 C1475 1.376 . S
C1476 C1477 1.388 . S
C1477 H1464 0.930 . S
C1477 C1476 1.388 . S
C1477 C1478 1.390 . S
C1478 C1477 1.390 . S
C1478 C1479 1.394 . S
C1478 C1484 1.465 1_554 S
C1479 C1474 1.399 . S
C1479 C1478 1.394 . S
C1479 C1480 1.516 1_554 S
C1480 C1479 1.516 1_556 S
C1480 C1481 1.502 . S
C1480 C1482 1.561 . S
C1480 C1483 1.526 . S
C1481 H1465 0.959 . S
C1481 H1466 0.959 . S
C1481 H1467 0.961 . S
C1481 C1480 1.502 . S
C1482 H1468 0.960 . S
C1482 H1469 0.961 . S
C1482 H1470 0.959 . S
C1482 C1480 1.561 . S
C1483 C1480 1.526 . S
C1483 C1484 1.396 . S
C1483 C1488 1.390 . S
C1484 C1478 1.465 1_556 S
C1484 C1483 1.396 . S
C1484 C1485 1.399 . S
C1485 H1471 0.929 1_556 S
C1485 C1484 1.399 . S
C1485 C1486 1.385 . S
C1486 H1472 0.931 . S
C1486 C1485 1.385 . S
C1486 C1487 1.389 . S
C1487 C1486 1.389 . S
C1487 C1488 1.387 . S
C1488 H1473 0.930 . S
C1488 C1483 1.390 . S
C1488 C1487 1.387 . S
H1489 C1501 0.930 . S
H1490 C1503 0.930 . S
H1491 C1504 0.930 . S
H1492 C1508 0.959 . S
H1493 C1508 0.959 . S
H1494 C1508 0.961 . S
H1495 C1509 0.960 . S
H1496 C1509 0.961 . S
H1497 C1509 0.959 . S
H1498 C1512 0.929 . S
H1499 C1513 0.931 . S
H1500 C1515 0.930 . S
C1501 H1489 0.930 . S
C1501 C1502 1.399 . S
C1501 C1506 1.399 . S
C1502 C1501 1.399 . S
C1502 C1503 1.376 . S
C1503 H1490 0.930 . S
C1503 C1502 1.376 . S
C1503 C1504 1.388 . S
C1504 H1491 0.930 . S
C1504 C1503 1.388 . S
C1504 C1505 1.390 . S
C1505 C1504 1.390 . S
C1505 C1506 1.394 . S
C1505 C1511 1.465 . S
C1506 C1501 1.399 . S
C1506 C1505 1.394 . S
C1506 C1507 1.516 . S
C1507 C1506 1.516 . S
C1507 C1508 1.502 . S
C1507 C1509 1.561 . S
C1507 C1510 1.526 . S
C1508 H1492 0.959 . S
C1508 H1493 0.959 . S
C1508 H1494 0.961 . S
C1508 C1507 1.502 . S
C1509 H1495 0.960 . S
C1509 H1496 0.961 . S
C1509 H1497 0.959 . S
C1509 C1507 1.561 . S
C1510 C1507 1.526 . S
C1510 C1511 1.396 . S
C1510 C1515 1.390 . S
C1511 C1505 1.465 . S
C1511 C1510 1.396 . S
C1511 C1512 1.399 . S
C1512 H1498 0.929 . S
C1512 C1511 1.399 . S
C1512 C1513 1.385 . S
C1513 H1499 0.931 . S
C1513 C1512 1.385 . S
C1513 C1514 1.389 . S
C1514 C1513 1.389 . S
C1514 C1515 1.387 . S
C1515 H1500 0.930 . S
C1515 C1510 1.390 . S
C1515 C1514 1.387 . S
H1516 C1528 0.930 . S
H1517 C1530 0.911 1_455 S
H1518 C1531 0.930 1_455 S
H1519 C1535 0.959 . S
H1520 C1535 0.959 . S
H1521 C1535 0.961 . S
H1522 C1536 0.956 1_556 S
H1523 C1536 0.961 . S
H1524 C1536 0.959 1_556 S
H1525 C1539 0.929 1_456 S
H1526 C1540 0.931 1_455 S
H1527 C1542 0.930 . S
C1528 H1516 0.930 . S
C1528 C1529 1.399 . S
C1528 C1533 1.399 . S
C1529 C1528 1.399 . S
C1529 C1530 1.376 . S
C1530 H1517 0.911 1_655 S
C1530 C1529 1.376 . S
C1530 C1531 1.388 . S
C1531 H1518 0.930 1_655 S
C1531 C1530 1.388 . S
C1531 C1532 1.390 . S
C1532 C1531 1.390 . S
C1532 C1533 1.394 . S
C1532 C1538 1.465 1_556 S
C1533 C1528 1.399 . S
C1533 C1532 1.394 . S
C1533 C1534 1.516 1_556 S
C1534 C1533 1.516 1_554 S
C1534 C1535 1.502 . S
C1534 C1536 1.561 . S
C1534 C1537 1.526 . S
C1535 H1519 0.959 . S
C1535 H1520 0.959 . S
C1535 H1521 0.961 . S
C1535 C1534 1.502 . S
C1536 H1522 0.956 1_554 S
C1536 H1523 0.961 . S
C1536 H1524 0.959 1_554 S
C1536 C1534 1.561 . S
C1537 C1534 1.526 . S
C1537 C1538 1.396 . S
C1537 C1542 1.390 . S
C1538 C1532 1.465 1_554 S
C1538 C1537 1.396 . S
C1538 C1539 1.399 . S
C1539 H1525 0.929 1_654 S
C1539 C1538 1.399 . S
C1539 C1540 1.385 . S
C1540 H1526 0.931 1_655 S
C1540 C1539 1.385 . S
C1540 C1541 1.389 . S
C1541 C1540 1.389 . S
C1541 C1542 1.387 . S
C1542 H1527 0.930 . S
C1542 C1537 1.390 . S
C1542 C1541 1.387 . S
H1543 C1555 0.930 . S
H1544 C1557 0.930 . S
H1545 C1558 0.930 . S
H1546 C1562 0.959 . S
H1547 C1562 0.959 . S
H1548 C1562 0.961 . S
H1549 C1563 0.960 . S
H1550 C1563 0.961 . S
H1551 C1563 0.959 . S
H1552 C1566 0.929 . S
H1553 C1567 0.931 . S
H1554 C1569 0.930 . S
C1555 H1543 0.930 . S
C1555 C1556 1.399 . S
C1555 C1560 1.399 . S
C1556 C1555 1.399 . S
C1556 C1557 1.376 . S
C1557 H1544 0.930 . S
C1557 C1556 1.376 . S
C1557 C1558 1.388 . S
C1558 H1545 0.930 . S
C1558 C1557 1.388 . S
C1558 C1559 1.390 . S
C1559 C1558 1.390 . S
C1559 C1560 1.394 . S
C1559 C1565 1.465 . S
C1560 C1555 1.399 . S
C1560 C1559 1.394 . S
C1560 C1561 1.516 . S
C1561 C1560 1.516 . S
C1561 C1562 1.502 . S
C1561 C1563 1.561 . S
C1561 C1564 1.526 . S
C1562 H1546 0.959 . S
C1562 H1547 0.959 . S
C1562 H1548 0.961 . S
C1562 C1561 1.502 . S
C1563 H1549 0.960 . S
C1563 H1550 0.961 . S
C1563 H1551 0.959 . S
C1563 C1561 1.561 . S
C1564 C1561 1.526 . S
C1564 C1565 1.396 . S
C1564 C1569 1.390 . S
C1565 C1559 1.465 . S
C1565 C1564 1.396 . S
C1565 C1566 1.399 . S
C1566 H1552 0.929 . S
C1566 C1565 1.399 . S
C1566 C1567 1.385 . S
C1567 H1553 0.931 . S
C1567 C1566 1.385 . S
C1567 C1568 1.389 . S
C1568 C1567 1.389 . S
C1568 C1569 1.387 . S
C1569 H1554 0.930 . S
C1569 C1564 1.390 . S
C1569 C1568 1.387 . S
H1570 C1582 0.930 . S
H1571 C1584 0.930 . S
H1572 C1585 0.930 . S
H1573 C1589 0.959 . S
H1574 C1589 0.959 . S
H1575 C1589 0.961 . S
H1576 C1590 0.960 . S
H1577 C1590 0.961 . S
H1578 C1590 0.959 . S
H1579 C1593 0.929 1_556 S
H1580 C1594 0.931 . S
H1581 C1596 0.930 . S
C1582 H1570 0.930 . S
C1582 C1583 1.399 . S
C1582 C1587 1.399 . S
C1583 C1582 1.399 . S
C1583 C1584 1.376 . S
C1584 H1571 0.930 . S
C1584 C1583 1.376 . S
C1584 C1585 1.388 . S
C1585 H1572 0.930 . S
C1585 C1584 1.388 . S
C1585 C1586 1.390 . S
C1586 C1585 1.390 . S
C1586 C1587 1.394 . S
C1586 C1592 1.465 1_556 S
C1587 C1582 1.399 . S
C1587 C1586 1.394 . S
C1587 C1588 1.516 1_556 S
C1588 C1587 1.516 1_554 S
C1588 C1589 1.502 . S
C1588 C1590 1.561 . S
C1588 C1591 1.526 . S
C1589 H1573 0.959 . S
C1589 H1574 0.959 . S
C1589 H1575 0.961 . S
C1589 C1588 1.502 . S
C1590 H1576 0.960 . S
C1590 H1577 0.961 . S
C1590 H1578 0.959 . S
C1590 C1588 1.561 . S
C1591 C1588 1.526 . S
C1591 C1592 1.396 . S
C1591 C1596 1.390 . S
C1592 C1586 1.465 1_554 S
C1592 C1591 1.396 . S
C1592 C1593 1.399 . S
C1593 H1579 0.929 1_554 S
C1593 C1592 1.399 . S
C1593 C1594 1.385 . S
C1594 H1580 0.931 . S
C1594 C1593 1.385 . S
C1594 C1595 1.389 . S
C1595 C1594 1.389 . S
C1595 C1596 1.387 . S
C1596 H1581 0.930 . S
C1596 C1591 1.390 . S
C1596 C1595 1.387 . S
H1597 C1609 0.930 . S
H1598 C1611 0.930 . S
H1599 C1612 0.930 . S
H1600 C1616 0.959 . S
H1601 C1616 0.959 . S
H1602 C1616 0.961 . S
H1603 C1617 0.960 . S
H1604 C1617 0.961 . S
H1605 C1617 0.959 . S
H1606 C1620 0.929 . S
H1607 C1621 0.931 . S
H1608 C1623 0.930 . S
C1609 H1597 0.930 . S
C1609 C1610 1.399 . S
C1609 C1614 1.399 . S
C1610 C1609 1.399 . S
C1610 C1611 1.376 . S
C1611 H1598 0.930 . S
C1611 C1610 1.376 . S
C1611 C1612 1.388 . S
C1612 H1599 0.930 . S
C1612 C1611 1.388 . S
C1612 C1613 1.390 . S
C1613 C1612 1.390 . S
C1613 C1614 1.394 . S
C1613 C1619 1.465 . S
C1614 C1609 1.399 . S
C1614 C1613 1.394 . S
C1614 C1615 1.516 . S
C1615 C1614 1.516 . S
C1615 C1616 1.502 . S
C1615 C1617 1.561 . S
C1615 C1618 1.526 . S
C1616 H1600 0.959 . S
C1616 H1601 0.959 . S
C1616 H1602 0.961 . S
C1616 C1615 1.502 . S
C1617 H1603 0.960 . S
C1617 H1604 0.961 . S
C1617 H1605 0.959 . S
C1617 C1615 1.561 . S
C1618 C1615 1.526 . S
C1618 C1619 1.396 . S
C1618 C1623 1.390 . S
C1619 C1613 1.465 . S
C1619 C1618 1.396 . S
C1619 C1620 1.399 . S
C1620 H1606 0.929 . S
C1620 C1619 1.399 . S
C1620 C1621 1.385 . S
C1621 H1607 0.931 . S
C1621 C1620 1.385 . S
C1621 C1622 1.389 . S
C1622 C1621 1.389 . S
C1622 C1623 1.387 . S
C1623 H1608 0.930 . S
C1623 C1618 1.390 . S
C1623 C1622 1.387 . S
H1624 C1636 0.930 . S
H1625 C1638 0.930 1_554 S
H1626 C1639 0.930 . S
H1627 C1643 0.959 . S
H1628 C1643 0.959 . S
H1629 C1643 0.961 . S
H1630 C1644 0.960 . S
H1631 C1644 0.961 . S
H1632 C1644 0.959 . S
H1633 C1647 0.929 . S
H1634 C1648 0.931 . S
H1635 C1650 0.930 . S
C1636 H1624 0.930 . S
C1636 C1637 1.399 . S
C1636 C1641 1.399 . S
C1637 C1636 1.399 . S
C1637 C1638 1.376 . S
C1638 H1625 0.930 1_556 S
C1638 C1637 1.376 . S
C1638 C1639 1.388 . S
C1639 H1626 0.930 . S
C1639 C1638 1.388 . S
C1639 C1640 1.390 . S
C1640 C1639 1.390 . S
C1640 C1641 1.394 . S
C1640 C1646 1.465 . S
C1641 C1636 1.399 . S
C1641 C1640 1.394 . S
C1641 C1642 1.516 . S
C1642 C1641 1.516 . S
C1642 C1643 1.502 . S
C1642 C1644 1.561 . S
C1642 C1645 1.526 . S
C1643 H1627 0.959 . S
C1643 H1628 0.959 . S
C1643 H1629 0.961 . S
C1643 C1642 1.502 . S
C1644 H1630 0.960 . S
C1644 H1631 0.961 . S
C1644 H1632 0.959 . S
C1644 C1642 1.561 . S
C1645 C1642 1.526 . S
C1645 C1646 1.396 . S
C1645 C1650 1.390 . S
C1646 C1640 1.465 . S
C1646 C1645 1.396 . S
C1646 C1647 1.399 . S
C1647 H1633 0.929 . S
C1647 C1646 1.399 . S
C1647 C1648 1.385 . S
C1648 H1634 0.931 . S
C1648 C1647 1.385 . S
C1648 C1649 1.389 . S
C1649 C1648 1.389 . S
C1649 C1650 1.387 . S
C1650 H1635 0.930 . S
C1650 C1645 1.390 . S
C1650 C1649 1.387 . S
H1651 C1663 0.930 . S
H1652 C1665 0.930 . S
H1653 C1666 0.930 . S
H1654 C1670 0.959 . S
H1655 C1670 0.959 . S
H1656 C1670 0.961 . S
H1657 C1671 0.960 . S
H1658 C1671 0.961 . S
H1659 C1671 0.959 . S
H1660 C1674 0.929 . S
H1661 C1675 0.931 . S
H1662 C1677 0.930 . S
C1663 H1651 0.930 . S
C1663 C1664 1.399 . S
C1663 C1668 1.399 . S
C1664 C1663 1.399 . S
C1664 C1665 1.376 . S
C1665 H1652 0.930 . S
C1665 C1664 1.376 . S
C1665 C1666 1.388 . S
C1666 H1653 0.930 . S
C1666 C1665 1.388 . S
C1666 C1667 1.390 . S
C1667 C1666 1.390 . S
C1667 C1668 1.394 . S
C1667 C1673 1.465 . S
C1668 C1663 1.399 . S
C1668 C1667 1.394 . S
C1668 C1669 1.516 . S
C1669 C1668 1.516 . S
C1669 C1670 1.502 . S
C1669 C1671 1.561 . S
C1669 C1672 1.526 . S
C1670 H1654 0.959 . S
C1670 H1655 0.959 . S
C1670 H1656 0.961 . S
C1670 C1669 1.502 . S
C1671 H1657 0.960 . S
C1671 H1658 0.961 . S
C1671 H1659 0.959 . S
C1671 C1669 1.561 . S
C1672 C1669 1.526 . S
C1672 C1673 1.396 . S
C1672 C1677 1.390 . S
C1673 C1667 1.465 . S
C1673 C1672 1.396 . S
C1673 C1674 1.399 . S
C1674 H1660 0.929 . S
C1674 C1673 1.399 . S
C1674 C1675 1.385 . S
C1675 H1661 0.931 . S
C1675 C1674 1.385 . S
C1675 C1676 1.389 . S
C1676 C1675 1.389 . S
C1676 C1677 1.387 . S
C1677 H1662 0.930 . S
C1677 C1672 1.390 . S
C1677 C1676 1.387 . S
H1678 C1690 0.930 . S
H1679 C1692 0.930 . S
H1680 C1693 0.930 . S
H1681 C1697 0.959 . S
H1682 C1697 0.959 . S
H1683 C1697 0.961 . S
H1684 C1698 0.960 . S
H1685 C1698 0.961 . S
H1686 C1698 0.959 . S
H1687 C1701 0.929 . S
H1688 C1702 0.931 . S
H1689 C1704 0.930 . S
C1690 H1678 0.930 . S
C1690 C1691 1.399 . S
C1690 C1695 1.399 . S
C1691 C1690 1.399 . S
C1691 C1692 1.376 . S
C1692 H1679 0.930 . S
C1692 C1691 1.376 . S
C1692 C1693 1.388 . S
C1693 H1680 0.930 . S
C1693 C1692 1.388 . S
C1693 C1694 1.390 . S
C1694 C1693 1.390 . S
C1694 C1695 1.394 . S
C1694 C1700 1.465 . S
C1695 C1690 1.399 . S
C1695 C1694 1.394 . S
C1695 C1696 1.516 . S
C1696 C1695 1.516 . S
C1696 C1697 1.502 . S
C1696 C1698 1.561 . S
C1696 C1699 1.526 . S
C1697 H1681 0.959 . S
C1697 H1682 0.959 . S
C1697 H1683 0.961 . S
C1697 C1696 1.502 . S
C1698 H1684 0.960 . S
C1698 H1685 0.961 . S
C1698 H1686 0.959 . S
C1698 C1696 1.561 . S
C1699 C1696 1.526 . S
C1699 C1700 1.396 . S
C1699 C1704 1.390 . S
C1700 C1694 1.465 . S
C1700 C1699 1.396 . S
C1700 C1701 1.399 . S
C1701 H1687 0.929 . S
C1701 C1700 1.399 . S
C1701 C1702 1.385 . S
C1702 H1688 0.931 . S
C1702 C1701 1.385 . S
C1702 C1703 1.389 . S
C1703 C1702 1.389 . S
C1703 C1704 1.387 . S
C1704 H1689 0.930 . S
C1704 C1699 1.390 . S
C1704 C1703 1.387 . S
H1705 C1717 0.930 . S
H1706 C1719 0.930 . S
H1707 C1720 0.930 . S
H1708 C1724 0.959 . S
H1709 C1724 0.959 . S
H1710 C1724 0.961 . S
H1711 C1725 0.960 . S
H1712 C1725 0.961 . S
H1713 C1725 0.959 . S
H1714 C1728 0.929 . S
H1715 C1729 0.931 . S
H1716 C1731 0.930 . S
C1717 H1705 0.930 . S
C1717 C1718 1.399 . S
C1717 C1722 1.399 . S
C1718 C1717 1.399 . S
C1718 C1719 1.376 . S
C1719 H1706 0.930 . S
C1719 C1718 1.376 . S
C1719 C1720 1.388 . S
C1720 H1707 0.930 . S
C1720 C1719 1.388 . S
C1720 C1721 1.390 . S
C1721 C1720 1.390 . S
C1721 C1722 1.394 . S
C1721 C1727 1.465 . S
C1722 C1717 1.399 . S
C1722 C1721 1.394 . S
C1722 C1723 1.516 . S
C1723 C1722 1.516 . S
C1723 C1724 1.502 . S
C1723 C1725 1.561 . S
C1723 C1726 1.526 . S
C1724 H1708 0.959 . S
C1724 H1709 0.959 . S
C1724 H1710 0.961 . S
C1724 C1723 1.502 . S
C1725 H1711 0.960 . S
C1725 H1712 0.961 . S
C1725 H1713 0.959 . S
C1725 C1723 1.561 . S
C1726 C1723 1.526 . S
C1726 C1727 1.396 . S
C1726 C1731 1.390 . S
C1727 C1721 1.465 . S
C1727 C1726 1.396 . S
C1727 C1728 1.399 . S
C1728 H1714 0.929 . S
C1728 C1727 1.399 . S
C1728 C1729 1.385 . S
C1729 H1715 0.931 . S
C1729 C1728 1.385 . S
C1729 C1730 1.389 . S
C1730 C1729 1.389 . S
C1730 C1731 1.387 . S
C1731 H1716 0.930 . S
C1731 C1726 1.390 . S
C1731 C1730 1.387 . S
H1732 C1744 0.930 . S
H1733 C1746 0.930 . S
H1734 C1747 0.930 . S
H1735 C1751 0.959 . S
H1736 C1751 0.959 . S
H1737 C1751 0.961 . S
H1738 C1752 0.960 . S
H1739 C1752 0.961 . S
H1740 C1752 0.959 . S
H1741 C1755 0.929 . S
H1742 C1756 0.931 . S
H1743 C1758 0.930 . S
C1744 H1732 0.930 . S
C1744 C1745 1.399 . S
C1744 C1749 1.399 . S
C1745 C1744 1.399 . S
C1745 C1746 1.376 . S
C1746 H1733 0.930 . S
C1746 C1745 1.376 . S
C1746 C1747 1.388 . S
C1747 H1734 0.930 . S
C1747 C1746 1.388 . S
C1747 C1748 1.390 . S
C1748 C1747 1.390 . S
C1748 C1749 1.394 . S
C1748 C1754 1.465 . S
C1749 C1744 1.399 . S
C1749 C1748 1.394 . S
C1749 C1750 1.516 . S
C1750 C1749 1.516 . S
C1750 C1751 1.502 . S
C1750 C1752 1.561 . S
C1750 C1753 1.526 . S
C1751 H1735 0.959 . S
C1751 H1736 0.959 . S
C1751 H1737 0.961 . S
C1751 C1750 1.502 . S
C1752 H1738 0.960 . S
C1752 H1739 0.961 . S
C1752 H1740 0.959 . S
C1752 C1750 1.561 . S
C1753 C1750 1.526 . S
C1753 C1754 1.396 . S
C1753 C1758 1.390 . S
C1754 C1748 1.465 . S
C1754 C1753 1.396 . S
C1754 C1755 1.399 . S
C1755 H1741 0.929 . S
C1755 C1754 1.399 . S
C1755 C1756 1.385 . S
C1756 H1742 0.931 . S
C1756 C1755 1.385 . S
C1756 C1757 1.389 . S
C1757 C1756 1.389 . S
C1757 C1758 1.387 . S
C1758 H1743 0.930 . S
C1758 C1753 1.390 . S
C1758 C1757 1.387 . S
H1759 C1771 0.930 . S
H1760 C1773 0.930 . S
H1761 C1774 0.930 . S
H1762 C1778 0.959 . S
H1763 C1778 0.959 . S
H1764 C1778 0.961 . S
H1765 C1779 0.960 . S
H1766 C1779 0.961 . S
H1767 C1779 0.959 . S
H1768 C1782 0.929 . S
H1769 C1783 0.931 . S
H1770 C1785 0.930 . S
C1771 H1759 0.930 . S
C1771 C1772 1.399 . S
C1771 C1776 1.399 . S
C1772 C1771 1.399 . S
C1772 C1773 1.376 . S
C1773 H1760 0.930 . S
C1773 C1772 1.376 . S
C1773 C1774 1.388 . S
C1774 H1761 0.930 . S
C1774 C1773 1.388 . S
C1774 C1775 1.390 . S
C1775 C1774 1.390 . S
C1775 C1776 1.394 . S
C1775 C1781 1.465 . S
C1776 C1771 1.399 . S
C1776 C1775 1.394 . S
C1776 C1777 1.516 . S
C1777 C1776 1.516 . S
C1777 C1778 1.502 . S
C1777 C1779 1.561 . S
C1777 C1780 1.526 . S
C1778 H1762 0.959 . S
C1778 H1763 0.959 . S
C1778 H1764 0.961 . S
C1778 C1777 1.502 . S
C1779 H1765 0.960 . S
C1779 H1766 0.961 . S
C1779 H1767 0.959 . S
C1779 C1777 1.561 . S
C1780 C1777 1.526 . S
C1780 C1781 1.396 . S
C1780 C1785 1.390 . S
C1781 C1775 1.465 . S
C1781 C1780 1.396 . S
C1781 C1782 1.399 . S
C1782 H1768 0.929 . S
C1782 C1781 1.399 . S
C1782 C1783 1.385 . S
C1783 H1769 0.931 . S
C1783 C1782 1.385 . S
C1783 C1784 1.389 . S
C1784 C1783 1.389 . S
C1784 C1785 1.387 . S
C1785 H1770 0.930 . S
C1785 C1780 1.390 . S
C1785 C1784 1.387 . S
H1786 C1798 0.930 . S
H1787 C1800 0.930 . S
H1788 C1801 0.930 . S
H1789 C1805 0.959 . S
H1790 C1805 0.959 . S
H1791 C1805 0.961 . S
H1792 C1806 0.960 . S
H1793 C1806 0.961 . S
H1794 C1806 0.959 . S
H1795 C1809 0.929 . S
H1796 C1810 0.931 . S
H1797 C1812 0.930 . S
C1798 H1786 0.930 . S
C1798 C1799 1.399 . S
C1798 C1803 1.399 . S
C1799 C1798 1.399 . S
C1799 C1800 1.376 . S
C1800 H1787 0.930 . S
C1800 C1799 1.376 . S
C1800 C1801 1.388 . S
C1801 H1788 0.930 . S
C1801 C1800 1.388 . S
C1801 C1802 1.390 . S
C1802 C1801 1.390 . S
C1802 C1803 1.394 . S
C1802 C1808 1.465 . S
C1803 C1798 1.399 . S
C1803 C1802 1.394 . S
C1803 C1804 1.516 . S
C1804 C1803 1.516 . S
C1804 C1805 1.502 . S
C1804 C1806 1.561 . S
C1804 C1807 1.526 . S
C1805 H1789 0.959 . S
C1805 H1790 0.959 . S
C1805 H1791 0.961 . S
C1805 C1804 1.502 . S
C1806 H1792 0.960 . S
C1806 H1793 0.961 . S
C1806 H1794 0.959 . S
C1806 C1804 1.561 . S
C1807 C1804 1.526 . S
C1807 C1808 1.396 . S
C1807 C1812 1.390 . S
C1808 C1802 1.465 . S
C1808 C1807 1.396 . S
C1808 C1809 1.399 . S
C1809 H1795 0.929 . S
C1809 C1808 1.399 . S
C1809 C1810 1.385 . S
C1810 H1796 0.931 . S
C1810 C1809 1.385 . S
C1810 C1811 1.389 . S
C1811 C1810 1.389 . S
C1811 C1812 1.387 . S
C1812 H1797 0.930 . S
C1812 C1807 1.390 . S
C1812 C1811 1.387 . S
H1813 C1825 0.930 . S
H1814 C1827 0.930 . S
H1815 C1828 0.930 . S
H1816 C1832 0.959 . S
H1817 C1832 0.959 . S
H1818 C1832 0.961 . S
H1819 C1833 0.960 . S
H1820 C1833 0.961 . S
H1821 C1833 0.959 . S
H1822 C1836 0.929 . S
H1823 C1837 0.931 . S
H1824 C1839 0.930 . S
C1825 H1813 0.930 . S
C1825 C1826 1.399 . S
C1825 C1830 1.399 . S
C1826 C1825 1.399 . S
C1826 C1827 1.376 . S
C1827 H1814 0.930 . S
C1827 C1826 1.376 . S
C1827 C1828 1.388 . S
C1828 H1815 0.930 . S
C1828 C1827 1.388 . S
C1828 C1829 1.390 . S
C1829 C1828 1.390 . S
C1829 C1830 1.394 . S
C1829 C1835 1.465 . S
C1830 C1825 1.399 . S
C1830 C1829 1.394 . S
C1830 C1831 1.516 . S
C1831 C1830 1.516 . S
C1831 C1832 1.502 . S
C1831 C1833 1.561 . S
C1831 C1834 1.526 . S
C1832 H1816 0.959 . S
C1832 H1817 0.959 . S
C1832 H1818 0.961 . S
C1832 C1831 1.502 . S
C1833 H1819 0.960 . S
C1833 H1820 0.961 . S
C1833 H1821 0.959 . S
C1833 C1831 1.561 . S
C1834 C1831 1.526 . S
C1834 C1835 1.396 . S
C1834 C1839 1.390 . S
C1835 C1829 1.465 . S
C1835 C1834 1.396 . S
C1835 C1836 1.399 . S
C1836 H1822 0.929 . S
C1836 C1835 1.399 . S
C1836 C1837 1.385 . S
C1837 H1823 0.931 . S
C1837 C1836 1.385 . S
C1837 C1838 1.389 . S
C1838 C1837 1.389 . S
C1838 C1839 1.387 . S
C1839 H1824 0.930 . S
C1839 C1834 1.390 . S
C1839 C1838 1.387 . S
H1840 C1852 0.930 . S
H1841 C1854 0.930 . S
H1842 C1855 0.930 . S
H1843 C1859 0.959 . S
H1844 C1859 0.959 . S
H1845 C1859 0.961 . S
H1846 C1860 0.960 . S
H1847 C1860 0.961 . S
H1848 C1860 0.959 . S
H1849 C1863 0.929 . S
H1850 C1864 0.931 . S
H1851 C1866 0.930 . S
C1852 H1840 0.930 . S
C1852 C1853 1.399 . S
C1852 C1857 1.399 . S
C1853 C1852 1.399 . S
C1853 C1854 1.376 . S
C1854 H1841 0.930 . S
C1854 C1853 1.376 . S
C1854 C1855 1.388 . S
C1855 H1842 0.930 . S
C1855 C1854 1.388 . S
C1855 C1856 1.390 . S
C1856 C1855 1.390 . S
C1856 C1857 1.394 . S
C1856 C1862 1.465 . S
C1857 C1852 1.399 . S
C1857 C1856 1.394 . S
C1857 C1858 1.516 . S
C1858 C1857 1.516 . S
C1858 C1859 1.502 . S
C1858 C1860 1.561 . S
C1858 C1861 1.526 . S
C1859 H1843 0.959 . S
C1859 H1844 0.959 . S
C1859 H1845 0.961 . S
C1859 C1858 1.502 . S
C1860 H1846 0.960 . S
C1860 H1847 0.961 . S
C1860 H1848 0.959 . S
C1860 C1858 1.561 . S
C1861 C1858 1.526 . S
C1861 C1862 1.396 . S
C1861 C1866 1.390 . S
C1862 C1856 1.465 . S
C1862 C1861 1.396 . S
C1862 C1863 1.399 . S
C1863 H1849 0.929 . S
C1863 C1862 1.399 . S
C1863 C1864 1.385 . S
C1864 H1850 0.931 . S
C1864 C1863 1.385 . S
C1864 C1865 1.389 . S
C1865 C1864 1.389 . S
C1865 C1866 1.387 . S
C1866 H1851 0.930 . S
C1866 C1861 1.390 . S
C1866 C1865 1.387 . S
H1867 C1879 0.930 . S
H1868 C1881 0.930 . S
H1869 C1882 0.930 . S
H1870 C1886 0.959 . S
H1871 C1886 0.959 . S
H1872 C1886 0.961 . S
H1873 C1887 0.960 . S
H1874 C1887 0.961 . S
H1875 C1887 0.959 . S
H1876 C1890 0.929 . S
H1877 C1891 0.931 . S
H1878 C1893 0.930 . S
C1879 H1867 0.930 . S
C1879 C1880 1.399 . S
C1879 C1884 1.399 . S
C1880 C1879 1.399 . S
C1880 C1881 1.376 . S
C1881 H1868 0.930 . S
C1881 C1880 1.376 . S
C1881 C1882 1.388 . S
C1882 H1869 0.930 . S
C1882 C1881 1.388 . S
C1882 C1883 1.390 . S
C1883 C1882 1.390 . S
C1883 C1884 1.394 . S
C1883 C1889 1.465 . S
C1884 C1879 1.399 . S
C1884 C1883 1.394 . S
C1884 C1885 1.516 . S
C1885 C1884 1.516 . S
C1885 C1886 1.502 . S
C1885 C1887 1.561 . S
C1885 C1888 1.526 . S
C1886 H1870 0.959 . S
C1886 H1871 0.959 . S
C1886 H1872 0.961 . S
C1886 C1885 1.502 . S
C1887 H1873 0.960 . S
C1887 H1874 0.961 . S
C1887 H1875 0.959 . S
C1887 C1885 1.561 . S
C1888 C1885 1.526 . S
C1888 C1889 1.396 . S
C1888 C1893 1.390 . S
C1889 C1883 1.465 . S
C1889 C1888 1.396 . S
C1889 C1890 1.399 . S
C1890 H1876 0.929 . S
C1890 C1889 1.399 . S
C1890 C1891 1.385 . S
C1891 H1877 0.931 . S
C1891 C1890 1.385 . S
C1891 C1892 1.389 . S
C1892 C1891 1.389 . S
C1892 C1893 1.387 . S
C1893 H1878 0.930 . S
C1893 C1888 1.390 . S
C1893 C1892 1.387 . S
H1894 C1906 0.930 . S
H1895 C1908 0.930 . S
H1896 C1909 0.930 . S
H1897 C1913 0.959 . S
H1898 C1913 0.959 . S
H1899 C1913 0.961 . S
H1900 C1914 0.960 . S
H1901 C1914 0.961 . S
H1902 C1914 0.959 . S
H1903 C1917 0.929 . S
H1904 C1918 0.931 . S
H1905 C1920 0.930 . S
C1906 H1894 0.930 . S
C1906 C1907 1.399 . S
C1906 C1911 1.399 . S
C1907 C1906 1.399 . S
C1907 C1908 1.376 . S
C1908 H1895 0.930 . S
C1908 C1907 1.376 . S
C1908 C1909 1.388 . S
C1909 H1896 0.930 . S
C1909 C1908 1.388 . S
C1909 C1910 1.390 . S
C1910 C1909 1.390 . S
C1910 C1911 1.394 . S
C1910 C1916 1.465 . S
C1911 C1906 1.399 . S
C1911 C1910 1.394 . S
C1911 C1912 1.516 . S
C1912 C1911 1.516 . S
C1912 C1913 1.502 . S
C1912 C1914 1.561 . S
C1912 C1915 1.526 . S
C1913 H1897 0.959 . S
C1913 H1898 0.959 . S
C1913 H1899 0.961 . S
C1913 C1912 1.502 . S
C1914 H1900 0.960 . S
C1914 H1901 0.961 . S
C1914 H1902 0.959 . S
C1914 C1912 1.561 . S
C1915 C1912 1.526 . S
C1915 C1916 1.396 . S
C1915 C1920 1.390 . S
C1916 C1910 1.465 . S
C1916 C1915 1.396 . S
C1916 C1917 1.399 . S
C1917 H1903 0.929 . S
C1917 C1916 1.399 . S
C1917 C1918 1.385 . S
C1918 H1904 0.931 . S
C1918 C1917 1.385 . S
C1918 C1919 1.389 . S
C1919 C1918 1.389 . S
C1919 C1920 1.387 . S
C1920 H1905 0.930 . S
C1920 C1915 1.390 . S
C1920 C1919 1.387 . S
H1921 C1933 0.930 . S
H1922 C1935 0.930 . S
H1923 C1936 0.930 . S
H1924 C1940 0.959 . S
H1925 C1940 0.959 . S
H1926 C1940 0.961 . S
H1927 C1941 0.960 . S
H1928 C1941 0.961 . S
H1929 C1941 0.959 . S
H1930 C1944 0.929 . S
H1931 C1945 0.931 . S
H1932 C1947 0.930 . S
C1933 H1921 0.930 . S
C1933 C1934 1.399 . S
C1933 C1938 1.399 . S
C1934 C1933 1.399 . S
C1934 C1935 1.376 . S
C1935 H1922 0.930 . S
C1935 C1934 1.376 . S
C1935 C1936 1.388 . S
C1936 H1923 0.930 . S
C1936 C1935 1.388 . S
C1936 C1937 1.390 . S
C1937 C1936 1.390 . S
C1937 C1938 1.394 . S
C1937 C1943 1.465 . S
C1938 C1933 1.399 . S
C1938 C1937 1.394 . S
C1938 C1939 1.516 . S
C1939 C1938 1.516 . S
C1939 C1940 1.502 . S
C1939 C1941 1.561 . S
C1939 C1942 1.526 . S
C1940 H1924 0.959 . S
C1940 H1925 0.959 . S
C1940 H1926 0.961 . S
C1940 C1939 1.502 . S
C1941 H1927 0.960 . S
C1941 H1928 0.961 . S
C1941 H1929 0.959 . S
C1941 C1939 1.561 . S
C1942 C1939 1.526 . S
C1942 C1943 1.396 . S
C1942 C1947 1.390 . S
C1943 C1937 1.465 . S
C1943 C1942 1.396 . S
C1943 C1944 1.399 . S
C1944 H1930 0.929 . S
C1944 C1943 1.399 . S
C1944 C1945 1.385 . S
C1945 H1931 0.931 . S
C1945 C1944 1.385 . S
C1945 C1946 1.389 . S
C1946 C1945 1.389 . S
C1946 C1947 1.387 . S
C1947 H1932 0.930 . S
C1947 C1942 1.390 . S
C1947 C1946 1.387 . S
H1948 C1960 0.930 . S
H1949 C1962 0.930 . S
H1950 C1963 0.930 . S
H1951 C1967 0.959 . S
H1952 C1967 0.959 . S
H1953 C1967 0.961 . S
H1954 C1968 0.960 . S
H1955 C1968 0.961 . S
H1956 C1968 0.959 . S
H1957 C1971 0.929 . S
H1958 C1972 0.931 . S
H1959 C1974 0.930 . S
C1960 H1948 0.930 . S
C1960 C1961 1.399 . S
C1960 C1965 1.399 . S
C1961 C1960 1.399 . S
C1961 C1962 1.376 . S
C1962 H1949 0.930 . S
C1962 C1961 1.376 . S
C1962 C1963 1.388 . S
C1963 H1950 0.930 . S
C1963 C1962 1.388 . S
C1963 C1964 1.390 . S
C1964 C1963 1.390 . S
C1964 C1965 1.394 . S
C1964 C1970 1.465 . S
C1965 C1960 1.399 . S
C1965 C1964 1.394 . S
C1965 C1966 1.516 . S
C1966 C1965 1.516 . S
C1966 C1967 1.502 . S
C1966 C1968 1.561 . S
C1966 C1969 1.526 . S
C1967 H1951 0.959 . S
C1967 H1952 0.959 . S
C1967 H1953 0.961 . S
C1967 C1966 1.502 . S
C1968 H1954 0.960 . S
C1968 H1955 0.961 . S
C1968 H1956 0.959 . S
C1968 C1966 1.561 . S
C1969 C1966 1.526 . S
C1969 C1970 1.396 . S
C1969 C1974 1.390 . S
C1970 C1964 1.465 . S
C1970 C1969 1.396 . S
C1970 C1971 1.399 . S
C1971 H1957 0.929 . S
C1971 C1970 1.399 . S
C1971 C1972 1.385 . S
C1972 H1958 0.931 . S
C1972 C1971 1.385 . S
C1972 C1973 1.389 . S
C1973 C1972 1.389 . S
C1973 C1974 1.387 . S
C1974 H1959 0.930 . S
C1974 C1969 1.390 . S
C1974 C1973 1.387 . S
H1975 C1987 0.930 . S
H1976 C1989 0.930 . S
H1977 C1990 0.930 . S
H1978 C1994 0.959 . S
H1979 C1994 0.959 . S
H1980 C1994 0.961 . S
H1981 C1995 0.960 . S
H1982 C1995 0.961 . S
H1983 C1995 0.959 . S
H1984 C1998 0.929 . S
H1985 C1999 0.931 . S
H1986 C2001 0.930 . S
C1987 H1975 0.930 . S
C1987 C1988 1.399 . S
C1987 C1992 1.399 . S
C1988 C1987 1.399 . S
C1988 C1989 1.376 . S
C1989 H1976 0.930 . S
C1989 C1988 1.376 . S
C1989 C1990 1.388 . S
C1990 H1977 0.930 . S
C1990 C1989 1.388 . S
C1990 C1991 1.390 . S
C1991 C1990 1.390 . S
C1991 C1992 1.394 . S
C1991 C1997 1.465 . S
C1992 C1987 1.399 . S
C1992 C1991 1.394 . S
C1992 C1993 1.516 . S
C1993 C1992 1.516 . S
C1993 C1994 1.502 . S
C1993 C1995 1.561 . S
C1993 C1996 1.526 . S
C1994 H1978 0.959 . S
C1994 H1979 0.959 . S
C1994 H1980 0.961 . S
C1994 C1993 1.502 . S
C1995 H1981 0.960 . S
C1995 H1982 0.961 . S
C1995 H1983 0.959 . S
C1995 C1993 1.561 . S
C1996 C1993 1.526 . S
C1996 C1997 1.396 . S
C1996 C2001 1.390 . S
C1997 C1991 1.465 . S
C1997 C1996 1.396 . S
C1997 C1998 1.399 . S
C1998 H1984 0.929 . S
C1998 C1997 1.399 . S
C1998 C1999 1.385 . S
C1999 H1985 0.931 . S
C1999 C1998 1.385 . S
C1999 C2000 1.389 . S
C2000 C1999 1.389 . S
C2000 C2001 1.387 . S
C2001 H1986 0.930 . S
C2001 C1996 1.390 . S
C2001 C2000 1.387 . S
H2002 C2014 0.930 . S
H2003 C2016 0.930 1_554 S
H2004 C2017 0.930 . S
H2005 C2021 0.959 . S
H2006 C2021 0.959 . S
H2007 C2021 0.961 . S
H2008 C2022 0.960 . S
H2009 C2022 0.961 . S
H2010 C2022 0.959 . S
H2011 C2025 0.929 . S
H2012 C2026 0.931 . S
H2013 C2028 0.930 . S
C2014 H2002 0.930 . S
C2014 C2015 1.399 . S
C2014 C2019 1.399 . S
C2015 C2014 1.399 . S
C2015 C2016 1.376 . S
C2016 H2003 0.930 1_556 S
C2016 C2015 1.376 . S
C2016 C2017 1.388 . S
C2017 H2004 0.930 . S
C2017 C2016 1.388 . S
C2017 C2018 1.390 . S
C2018 C2017 1.390 . S
C2018 C2019 1.394 . S
C2018 C2024 1.465 . S
C2019 C2014 1.399 . S
C2019 C2018 1.394 . S
C2019 C2020 1.516 . S
C2020 C2019 1.516 . S
C2020 C2021 1.502 . S
C2020 C2022 1.561 . S
C2020 C2023 1.526 . S
C2021 H2005 0.959 . S
C2021 H2006 0.959 . S
C2021 H2007 0.961 . S
C2021 C2020 1.502 . S
C2022 H2008 0.960 . S
C2022 H2009 0.961 . S
C2022 H2010 0.959 . S
C2022 C2020 1.561 . S
C2023 C2020 1.526 . S
C2023 C2024 1.396 . S
C2023 C2028 1.390 . S
C2024 C2018 1.465 . S
C2024 C2023 1.396 . S
C2024 C2025 1.399 . S
C2025 H2011 0.929 . S
C2025 C2024 1.399 . S
C2025 C2026 1.385 . S
C2026 H2012 0.931 . S
C2026 C2025 1.385 . S
C2026 C2027 1.389 . S
C2027 C2026 1.389 . S
C2027 C2028 1.387 . S
C2028 H2013 0.930 . S
C2028 C2023 1.390 . S
C2028 C2027 1.387 . S
H2029 C2041 0.930 . S
H2030 C2043 0.930 . S
H2031 C2044 0.930 . S
H2032 C2048 0.959 . S
H2033 C2048 0.959 . S
H2034 C2048 0.961 . S
H2035 C2049 0.960 . S
H2036 C2049 0.961 . S
H2037 C2049 0.959 . S
H2038 C2052 0.929 . S
H2039 C2053 0.931 . S
H2040 C2055 0.930 . S
C2041 H2029 0.930 . S
C2041 C2042 1.399 . S
C2041 C2046 1.399 . S
C2042 C2041 1.399 . S
C2042 C2043 1.376 . S
C2043 H2030 0.930 . S
C2043 C2042 1.376 . S
C2043 C2044 1.388 . S
C2044 H2031 0.930 . S
C2044 C2043 1.388 . S
C2044 C2045 1.390 . S
C2045 C2044 1.390 . S
C2045 C2046 1.394 . S
C2045 C2051 1.465 . S
C2046 C2041 1.399 . S
C2046 C2045 1.394 . S
C2046 C2047 1.516 . S
C2047 C2046 1.516 . S
C2047 C2048 1.502 . S
C2047 C2049 1.561 . S
C2047 C2050 1.526 . S
C2048 H2032 0.959 . S
C2048 H2033 0.959 . S
C2048 H2034 0.961 . S
C2048 C2047 1.502 . S
C2049 H2035 0.960 . S
C2049 H2036 0.961 . S
C2049 H2037 0.959 . S
C2049 C2047 1.561 . S
C2050 C2047 1.526 . S
C2050 C2051 1.396 . S
C2050 C2055 1.390 . S
C2051 C2045 1.465 . S
C2051 C2050 1.396 . S
C2051 C2052 1.399 . S
C2052 H2038 0.929 . S
C2052 C2051 1.399 . S
C2052 C2053 1.385 . S
C2053 H2039 0.931 . S
C2053 C2052 1.385 . S
C2053 C2054 1.389 . S
C2054 C2053 1.389 . S
C2054 C2055 1.387 . S
C2055 H2040 0.930 . S
C2055 C2050 1.390 . S
C2055 C2054 1.387 . S
H2056 C2068 0.930 . S
H2057 C2070 0.930 . S
H2058 C2071 0.930 . S
H2059 C2075 0.959 . S
H2060 C2075 0.959 . S
H2061 C2075 0.961 . S
H2062 C2076 0.960 . S
H2063 C2076 0.961 . S
H2064 C2076 0.959 . S
H2065 C2079 0.929 . S
H2066 C2080 0.931 . S
H2067 C2082 0.930 . S
C2068 H2056 0.930 . S
C2068 C2069 1.399 . S
C2068 C2073 1.399 . S
C2069 C2068 1.399 . S
C2069 C2070 1.376 . S
C2070 H2057 0.930 . S
C2070 C2069 1.376 . S
C2070 C2071 1.388 . S
C2071 H2058 0.930 . S
C2071 C2070 1.388 . S
C2071 C2072 1.390 . S
C2072 C2071 1.390 . S
C2072 C2073 1.394 . S
C2072 C2078 1.465 . S
C2073 C2068 1.399 . S
C2073 C2072 1.394 . S
C2073 C2074 1.516 . S
C2074 C2073 1.516 . S
C2074 C2075 1.502 . S
C2074 C2076 1.561 . S
C2074 C2077 1.526 . S
C2075 H2059 0.959 . S
C2075 H2060 0.959 . S
C2075 H2061 0.961 . S
C2075 C2074 1.502 . S
C2076 H2062 0.960 . S
C2076 H2063 0.961 . S
C2076 H2064 0.959 . S
C2076 C2074 1.561 . S
C2077 C2074 1.526 . S
C2077 C2078 1.396 . S
C2077 C2082 1.390 . S
C2078 C2072 1.465 . S
C2078 C2077 1.396 . S
C2078 C2079 1.399 . S
C2079 H2065 0.929 . S
C2079 C2078 1.399 . S
C2079 C2080 1.385 . S
C2080 H2066 0.931 . S
C2080 C2079 1.385 . S
C2080 C2081 1.389 . S
C2081 C2080 1.389 . S
C2081 C2082 1.387 . S
C2082 H2067 0.930 . S
C2082 C2077 1.390 . S
C2082 C2081 1.387 . S
H2083 C2095 0.930 . S
H2084 C2097 0.930 . S
H2085 C2098 0.930 . S
H2086 C2102 0.959 . S
H2087 C2102 0.959 . S
H2088 C2102 0.961 . S
H2089 C2103 0.960 . S
H2090 C2103 0.961 . S
H2091 C2103 0.959 . S
H2092 C2106 0.929 . S
H2093 C2107 0.931 . S
H2094 C2109 0.930 . S
C2095 H2083 0.930 . S
C2095 C2096 1.399 . S
C2095 C2100 1.399 . S
C2096 C2095 1.399 . S
C2096 C2097 1.376 . S
C2097 H2084 0.930 . S
C2097 C2096 1.376 . S
C2097 C2098 1.388 . S
C2098 H2085 0.930 . S
C2098 C2097 1.388 . S
C2098 C2099 1.390 . S
C2099 C2098 1.390 . S
C2099 C2100 1.394 . S
C2099 C2105 1.465 . S
C2100 C2095 1.399 . S
C2100 C2099 1.394 . S
C2100 C2101 1.516 . S
C2101 C2100 1.516 . S
C2101 C2102 1.502 . S
C2101 C2103 1.561 . S
C2101 C2104 1.526 . S
C2102 H2086 0.959 . S
C2102 H2087 0.959 . S
C2102 H2088 0.961 . S
C2102 C2101 1.502 . S
C2103 H2089 0.960 . S
C2103 H2090 0.961 . S
C2103 H2091 0.959 . S
C2103 C2101 1.561 . S
C2104 C2101 1.526 . S
C2104 C2105 1.396 . S
C2104 C2109 1.390 . S
C2105 C2099 1.465 . S
C2105 C2104 1.396 . S
C2105 C2106 1.399 . S
C2106 H2092 0.929 . S
C2106 C2105 1.399 . S
C2106 C2107 1.385 . S
C2107 H2093 0.931 . S
C2107 C2106 1.385 . S
C2107 C2108 1.389 . S
C2108 C2107 1.389 . S
C2108 C2109 1.387 . S
C2109 H2094 0.930 . S
C2109 C2104 1.390 . S
C2109 C2108 1.387 . S
H2110 C2122 0.930 . S
H2111 C2124 0.930 . S
H2112 C2125 0.930 . S
H2113 C2129 0.959 . S
H2114 C2129 0.959 . S
H2115 C2129 0.961 . S
H2116 C2130 0.960 . S
H2117 C2130 0.961 . S
H2118 C2130 0.959 . S
H2119 C2133 0.929 . S
H2120 C2134 0.931 . S
H2121 C2136 0.930 . S
C2122 H2110 0.930 . S
C2122 C2123 1.399 . S
C2122 C2127 1.399 . S
C2123 C2122 1.399 . S
C2123 C2124 1.376 . S
C2124 H2111 0.930 . S
C2124 C2123 1.376 . S
C2124 C2125 1.388 . S
C2125 H2112 0.930 . S
C2125 C2124 1.388 . S
C2125 C2126 1.390 . S
C2126 C2125 1.390 . S
C2126 C2127 1.394 . S
C2126 C2132 1.465 . S
C2127 C2122 1.399 . S
C2127 C2126 1.394 . S
C2127 C2128 1.516 . S
C2128 C2127 1.516 . S
C2128 C2129 1.502 . S
C2128 C2130 1.561 . S
C2128 C2131 1.526 . S
C2129 H2113 0.959 . S
C2129 H2114 0.959 . S
C2129 H2115 0.961 . S
C2129 C2128 1.502 . S
C2130 H2116 0.960 . S
C2130 H2117 0.961 . S
C2130 H2118 0.959 . S
C2130 C2128 1.561 . S
C2131 C2128 1.526 . S
C2131 C2132 1.396 . S
C2131 C2136 1.390 . S
C2132 C2126 1.465 . S
C2132 C2131 1.396 . S
C2132 C2133 1.399 . S
C2133 H2119 0.929 . S
C2133 C2132 1.399 . S
C2133 C2134 1.385 . S
C2134 H2120 0.931 . S
C2134 C2133 1.385 . S
C2134 C2135 1.389 . S
C2135 C2134 1.389 . S
C2135 C2136 1.387 . S
C2136 H2121 0.930 . S
C2136 C2131 1.390 . S
C2136 C2135 1.387 . S
H2137 C2149 0.930 . S
H2138 C2151 0.930 . S
H2139 C2152 0.930 . S
H2140 C2156 0.959 . S
H2141 C2156 0.959 . S
H2142 C2156 0.961 . S
H2143 C2157 0.960 . S
H2144 C2157 0.961 . S
H2145 C2157 0.959 . S
H2146 C2160 0.929 . S
H2147 C2161 0.931 . S
H2148 C2163 0.930 . S
C2149 H2137 0.930 . S
C2149 C2150 1.399 . S
C2149 C2154 1.399 . S
C2150 C2149 1.399 . S
C2150 C2151 1.376 . S
C2151 H2138 0.930 . S
C2151 C2150 1.376 . S
C2151 C2152 1.388 . S
C2152 H2139 0.930 . S
C2152 C2151 1.388 . S
C2152 C2153 1.390 . S
C2153 C2152 1.390 . S
C2153 C2154 1.394 . S
C2153 C2159 1.465 . S
C2154 C2149 1.399 . S
C2154 C2153 1.394 . S
C2154 C2155 1.516 . S
C2155 C2154 1.516 . S
C2155 C2156 1.502 . S
C2155 C2157 1.561 . S
C2155 C2158 1.526 . S
C2156 H2140 0.959 . S
C2156 H2141 0.959 . S
C2156 H2142 0.961 . S
C2156 C2155 1.502 . S
C2157 H2143 0.960 . S
C2157 H2144 0.961 . S
C2157 H2145 0.959 . S
C2157 C2155 1.561 . S
C2158 C2155 1.526 . S
C2158 C2159 1.396 . S
C2158 C2163 1.390 . S
C2159 C2153 1.465 . S
C2159 C2158 1.396 . S
C2159 C2160 1.399 . S
C2160 H2146 0.929 . S
C2160 C2159 1.399 . S
C2160 C2161 1.385 . S
C2161 H2147 0.931 . S
C2161 C2160 1.385 . S
C2161 C2162 1.389 . S
C2162 C2161 1.389 . S
C2162 C2163 1.387 . S
C2163 H2148 0.930 . S
C2163 C2158 1.390 . S
C2163 C2162 1.387 . S
H2164 C2176 0.930 . S
H2165 C2178 0.930 . S
H2166 C2179 0.930 . S
H2167 C2183 0.959 . S
H2168 C2183 0.959 . S
H2169 C2183 0.961 . S
H2170 C2184 0.960 . S
H2171 C2184 0.961 . S
H2172 C2184 0.959 . S
H2173 C2187 0.929 . S
H2174 C2188 0.931 . S
H2175 C2190 0.930 . S
C2176 H2164 0.930 . S
C2176 C2177 1.399 . S
C2176 C2181 1.399 . S
C2177 C2176 1.399 . S
C2177 C2178 1.376 . S
C2178 H2165 0.930 . S
C2178 C2177 1.376 . S
C2178 C2179 1.388 . S
C2179 H2166 0.930 . S
C2179 C2178 1.388 . S
C2179 C2180 1.390 . S
C2180 C2179 1.390 . S
C2180 C2181 1.394 . S
C2180 C2186 1.465 . S
C2181 C2176 1.399 . S
C2181 C2180 1.394 . S
C2181 C2182 1.516 . S
C2182 C2181 1.516 . S
C2182 C2183 1.502 . S
C2182 C2184 1.561 . S
C2182 C2185 1.526 . S
C2183 H2167 0.959 . S
C2183 H2168 0.959 . S
C2183 H2169 0.961 . S
C2183 C2182 1.502 . S
C2184 H2170 0.960 . S
C2184 H2171 0.961 . S
C2184 H2172 0.959 . S
C2184 C2182 1.561 . S
C2185 C2182 1.526 . S
C2185 C2186 1.396 . S
C2185 C2190 1.390 . S
C2186 C2180 1.465 . S
C2186 C2185 1.396 . S
C2186 C2187 1.399 . S
C2187 H2173 0.929 . S
C2187 C2186 1.399 . S
C2187 C2188 1.385 . S
C2188 H2174 0.931 . S
C2188 C2187 1.385 . S
C2188 C2189 1.389 . S
C2189 C2188 1.389 . S
C2189 C2190 1.387 . S
C2190 H2175 0.930 . S
C2190 C2185 1.390 . S
C2190 C2189 1.387 . S
H2191 C2203 0.930 . S
H2192 C2205 0.930 . S
H2193 C2206 0.930 . S
H2194 C2210 0.959 . S
H2195 C2210 0.959 . S
H2196 C2210 0.961 . S
H2197 C2211 0.960 . S
H2198 C2211 0.961 . S
H2199 C2211 0.959 . S
H2200 C2214 0.929 . S
H2201 C2215 0.931 . S
H2202 C2217 0.930 . S
C2203 H2191 0.930 . S
C2203 C2204 1.399 . S
C2203 C2208 1.399 . S
C2204 C2203 1.399 . S
C2204 C2205 1.376 . S
C2205 H2192 0.930 . S
C2205 C2204 1.376 . S
C2205 C2206 1.388 . S
C2206 H2193 0.930 . S
C2206 C2205 1.388 . S
C2206 C2207 1.390 . S
C2207 C2206 1.390 . S
C2207 C2208 1.394 . S
C2207 C2213 1.465 . S
C2208 C2203 1.399 . S
C2208 C2207 1.394 . S
C2208 C2209 1.516 . S
C2209 C2208 1.516 . S
C2209 C2210 1.502 . S
C2209 C2211 1.561 . S
C2209 C2212 1.526 . S
C2210 H2194 0.959 . S
C2210 H2195 0.959 . S
C2210 H2196 0.961 . S
C2210 C2209 1.502 . S
C2211 H2197 0.960 . S
C2211 H2198 0.961 . S
C2211 H2199 0.959 . S
C2211 C2209 1.561 . S
C2212 C2209 1.526 . S
C2212 C2213 1.396 . S
C2212 C2217 1.390 . S
C2213 C2207 1.465 . S
C2213 C2212 1.396 . S
C2213 C2214 1.399 . S
C2214 H2200 0.929 . S
C2214 C2213 1.399 . S
C2214 C2215 1.385 . S
C2215 H2201 0.931 . S
C2215 C2214 1.385 . S
C2215 C2216 1.389 . S
C2216 C2215 1.389 . S
C2216 C2217 1.387 . S
C2217 H2202 0.930 . S
C2217 C2212 1.390 . S
C2217 C2216 1.387 . S
H2218 C2230 0.930 . S
H2219 C2232 0.930 . S
H2220 C2233 0.930 . S
H2221 C2237 0.959 . S
H2222 C2237 0.959 . S
H2223 C2237 0.961 . S
H2224 C2238 0.960 . S
H2225 C2238 0.961 . S
H2226 C2238 0.959 . S
H2227 C2241 0.929 . S
H2228 C2242 0.931 . S
H2229 C2244 0.930 . S
C2230 H2218 0.930 . S
C2230 C2231 1.399 . S
C2230 C2235 1.399 . S
C2231 C2230 1.399 . S
C2231 C2232 1.376 . S
C2232 H2219 0.930 . S
C2232 C2231 1.376 . S
C2232 C2233 1.388 . S
C2233 H2220 0.930 . S
C2233 C2232 1.388 . S
C2233 C2234 1.390 . S
C2234 C2233 1.390 . S
C2234 C2235 1.394 . S
C2234 C2240 1.465 . S
C2235 C2230 1.399 . S
C2235 C2234 1.394 . S
C2235 C2236 1.516 . S
C2236 C2235 1.516 . S
C2236 C2237 1.502 . S
C2236 C2238 1.561 . S
C2236 C2239 1.526 . S
C2237 H2221 0.959 . S
C2237 H2222 0.959 . S
C2237 H2223 0.961 . S
C2237 C2236 1.502 . S
C2238 H2224 0.960 . S
C2238 H2225 0.961 . S
C2238 H2226 0.959 . S
C2238 C2236 1.561 . S
C2239 C2236 1.526 . S
C2239 C2240 1.396 . S
C2239 C2244 1.390 . S
C2240 C2234 1.465 . S
C2240 C2239 1.396 . S
C2240 C2241 1.399 . S
C2241 H2227 0.929 . S
C2241 C2240 1.399 . S
C2241 C2242 1.385 . S
C2242 H2228 0.931 . S
C2242 C2241 1.385 . S
C2242 C2243 1.389 . S
C2243 C2242 1.389 . S
C2243 C2244 1.387 . S
C2244 H2229 0.930 . S
C2244 C2239 1.390 . S
C2244 C2243 1.387 . S
H2245 C2257 0.930 . S
H2246 C2259 0.930 . S
H2247 C2260 0.930 . S
H2248 C2264 0.959 . S
H2249 C2264 0.959 . S
H2250 C2264 0.961 . S
H2251 C2265 0.960 . S
H2252 C2265 0.961 . S
H2253 C2265 0.959 . S
H2254 C2268 0.929 . S
H2255 C2269 0.931 . S
H2256 C2271 0.930 . S
C2257 H2245 0.930 . S
C2257 C2258 1.399 . S
C2257 C2262 1.399 . S
C2258 C2257 1.399 . S
C2258 C2259 1.376 . S
C2259 H2246 0.930 . S
C2259 C2258 1.376 . S
C2259 C2260 1.388 . S
C2260 H2247 0.930 . S
C2260 C2259 1.388 . S
C2260 C2261 1.390 . S
C2261 C2260 1.390 . S
C2261 C2262 1.394 . S
C2261 C2267 1.465 . S
C2262 C2257 1.399 . S
C2262 C2261 1.394 . S
C2262 C2263 1.516 . S
C2263 C2262 1.516 . S
C2263 C2264 1.502 . S
C2263 C2265 1.561 . S
C2263 C2266 1.526 . S
C2264 H2248 0.959 . S
C2264 H2249 0.959 . S
C2264 H2250 0.961 . S
C2264 C2263 1.502 . S
C2265 H2251 0.960 . S
C2265 H2252 0.961 . S
C2265 H2253 0.959 . S
C2265 C2263 1.561 . S
C2266 C2263 1.526 . S
C2266 C2267 1.396 . S
C2266 C2271 1.390 . S
C2267 C2261 1.465 . S
C2267 C2266 1.396 . S
C2267 C2268 1.399 . S
C2268 H2254 0.929 . S
C2268 C2267 1.399 . S
C2268 C2269 1.385 . S
C2269 H2255 0.931 . S
C2269 C2268 1.385 . S
C2269 C2270 1.389 . S
C2270 C2269 1.389 . S
C2270 C2271 1.387 . S
C2271 H2256 0.930 . S
C2271 C2266 1.390 . S
C2271 C2270 1.387 . S
C1421 C49 1.208 . S
C1433 C372 1.299 . S
C1448 C460 1.221 . S
C1460 C137 1.284 . S
C1475 C225 1.291 . S
C1487 C548 1.216 . S
C1502 C313 1.214 . S
C1514 C636 1.292 . S
C1529 C733 1.301 . S
C1541 C1105 1.212 . S
C1556 C1201 1.300 . S
C1568 C821 1.203 . S
C1583 C900 1.270 . S
C1595 C1289 1.195 . S
C1610 C988 1.199 . S
C1622 C1369 1.259 . S
C1637 C57 1.159 . S
C1649 C1340 1.193 . S
C1664 C1076 1.177 . S
C1676 C145 1.166 . S
C1691 C233 1.211 . S
C1703 C1173 1.112 . S
C1718 C1261 1.102 . S
C1730 C321 1.238 . S
C1745 C849 1.104 . S
C1757 C381 1.219 . S
C1772 C929 1.219 . S
C1784 C469 1.160 . S
C1799 C1017 1.117 . S
C1811 C557 1.205 . S
C1826 C761 1.116 . S
C1838 C645 1.238 . S
C1853 C724 1.220 . S
C1865 C673 1.147 . S
C1880 C409 1.203 . S
C1892 C812 1.189 . S
C1907 C497 1.089 . S
C1919 C909 1.245 . S
C1934 C997 1.213 . S
C1946 C585 1.152 . S
C1961 C117 1.131 . S
C1973 C1113 1.227 . S
C1988 C1193 1.245 . S
C2000 C205 1.092 . S
C2015 C1281 1.186 . S
C2027 C293 1.205 . S
C2042 C1377 1.193 . S
C2054 C29 1.194 . S
C2069 C665 1.406 . S
C2081 C20 1.469 . S
C2096 C108 1.461 . S
C2108 C401 1.407 . S
C2123 C196 1.444 . S
C2135 C489 1.474 . S
C2150 C284 1.406 . S
C2162 C577 1.469 . S
C2177 C1349 1.469 . S
C2189 C753 1.435 . S
C2204 C1085 1.419 . S
C2216 C841 1.394 . S
C2231 C1164 1.393 . S
C2243 C937 1.426 . S
C2258 C1252 1.412 . S
C2270 C1025 1.457 . S
