# Generated by pormake.
# Topology ukt, (4)-cn, num edge types: 1
# Building blocks:
#     Node 0, Type 0, BuildingBlock: QUQFOY_clean_sbu_1, # of connection points: 4
#     Node 1, Type 0, BuildingBlock: QUQFOY_clean_sbu_1, # of connection points: 4
#     Node 2, Type 0, BuildingBlock: QUQFOY_clean_sbu_1, # of connection points: 4
#     Node 3, Type 0, BuildingBlock: QUQFOY_clean_sbu_1, # of connection points: 4
#     Node 4, Type 0, BuildingBlock: QUQFOY_clean_sbu_1, # of connection points: 4
#     Node 5, Type 0, BuildingBlock: QUQFOY_clean_sbu_1, # of connection points: 4
#     Node 6, Type 0, BuildingBlock: QUQFOY_clean_sbu_1, # of connection points: 4
#     Node 7, Type 0, BuildingBlock: QUQFOY_clean_sbu_1, # of connection points: 4
#     Node 8, Type 0, BuildingBlock: QUQFOY_clean_sbu_1, # of connection points: 4
#     Node 9, Type 0, BuildingBlock: QUQFOY_clean_sbu_1, # of connection points: 4
#     Node 10, Type 0, BuildingBlock: QUQFOY_clean_sbu_1, # of connection points: 4
#     Node 11, Type 0, BuildingBlock: QUQFOY_clean_sbu_1, # of connection points: 4
#     Node 12, Type 0, BuildingBlock: QUQFOY_clean_sbu_1, # of connection points: 4
#     Node 13, Type 0, BuildingBlock: QUQFOY_clean_sbu_1, # of connection points: 4
#     Node 14, Type 0, BuildingBlock: QUQFOY_clean_sbu_1, # of connection points: 4
#     Node 15, Type 0, BuildingBlock: QUQFOY_clean_sbu_1, # of connection points: 4
#     Edge 16, Type (0, 0), BuildingBlock: AJUNOK_clean_linker_0, # of connection points: 2
#     Edge 17, Type (0, 0), BuildingBlock: AJUNOK_clean_linker_0, # of connection points: 2
#     Edge 18, Type (0, 0), BuildingBlock: AJUNOK_clean_linker_0, # of connection points: 2
#     Edge 19, Type (0, 0), BuildingBlock: AJUNOK_clean_linker_0, # of connection points: 2
#     Edge 20, Type (0, 0), BuildingBlock: AJUNOK_clean_linker_0, # of connection points: 2
#     Edge 21, Type (0, 0), BuildingBlock: AJUNOK_clean_linker_0, # of connection points: 2
#     Edge 22, Type (0, 0), BuildingBlock: AJUNOK_clean_linker_0, # of connection points: 2
#     Edge 23, Type (0, 0), BuildingBlock: AJUNOK_clean_linker_0, # of connection points: 2
#     Edge 24, Type (0, 0), BuildingBlock: AJUNOK_clean_linker_0, # of connection points: 2
#     Edge 25, Type (0, 0), BuildingBlock: AJUNOK_clean_linker_0, # of connection points: 2
#     Edge 26, Type (0, 0), BuildingBlock: AJUNOK_clean_linker_0, # of connection points: 2
#     Edge 27, Type (0, 0), BuildingBlock: AJUNOK_clean_linker_0, # of connection points: 2
#     Edge 28, Type (0, 0), BuildingBlock: AJUNOK_clean_linker_0, # of connection points: 2
#     Edge 29, Type (0, 0), BuildingBlock: AJUNOK_clean_linker_0, # of connection points: 2
#     Edge 30, Type (0, 0), BuildingBlock: AJUNOK_clean_linker_0, # of connection points: 2
#     Edge 31, Type (0, 0), BuildingBlock: AJUNOK_clean_linker_0, # of connection points: 2
#     Edge 32, Type (0, 0), BuildingBlock: AJUNOK_clean_linker_0, # of connection points: 2
#     Edge 33, Type (0, 0), BuildingBlock: AJUNOK_clean_linker_0, # of connection points: 2
#     Edge 34, Type (0, 0), BuildingBlock: AJUNOK_clean_linker_0, # of connection points: 2
#     Edge 35, Type (0, 0), BuildingBlock: AJUNOK_clean_linker_0, # of connection points: 2
#     Edge 36, Type (0, 0), BuildingBlock: AJUNOK_clean_linker_0, # of connection points: 2
#     Edge 37, Type (0, 0), BuildingBlock: AJUNOK_clean_linker_0, # of connection points: 2
#     Edge 38, Type (0, 0), BuildingBlock: AJUNOK_clean_linker_0, # of connection points: 2
#     Edge 39, Type (0, 0), BuildingBlock: AJUNOK_clean_linker_0, # of connection points: 2
#     Edge 40, Type (0, 0), BuildingBlock: AJUNOK_clean_linker_0, # of connection points: 2
#     Edge 41, Type (0, 0), BuildingBlock: AJUNOK_clean_linker_0, # of connection points: 2
#     Edge 42, Type (0, 0), BuildingBlock: AJUNOK_clean_linker_0, # of connection points: 2
#     Edge 43, Type (0, 0), BuildingBlock: AJUNOK_clean_linker_0, # of connection points: 2
#     Edge 44, Type (0, 0), BuildingBlock: AJUNOK_clean_linker_0, # of connection points: 2
#     Edge 45, Type (0, 0), BuildingBlock: AJUNOK_clean_linker_0, # of connection points: 2
#     Edge 46, Type (0, 0), BuildingBlock: AJUNOK_clean_linker_0, # of connection points: 2
#     Edge 47, Type (0, 0), BuildingBlock: AJUNOK_clean_linker_0, # of connection points: 2
# Relax obj value: 0.109
# Max RMSD: 0.079
# Mean RMSD: 0.079
data_MOF--net-ukt--node1-QUQFOY_clean_sbu_1--edge1-AJUNOK_clean_linker_0
_symmetry_space_group_name_H-M    P1
_symmetry_Int_Tables_number       1
_symmetry_cell_setting            triclinic
loop_
_symmetry_equiv_pos_as_xyz
'x, y, z'
_cell_length_a     34.059761
_cell_length_b     34.121955
_cell_length_c     30.758582
_cell_angle_alpha  90.064514
_cell_angle_beta   89.923263
_cell_angle_gamma 89.780937
loop_
_atom_site_label
_atom_site_type_symbol
_atom_site_fract_x
_atom_site_fract_y
_atom_site_fract_z
_atom_type_partial_charge
O0 O 0.5864 0.0945 0.03853 0.0
Cd1 Cd 0.53655 0.12451 0.02381 0.0
Cd2 Cd 0.5719 0.1677 0.10397 0.0
O3 O 0.6093 0.11982 0.09941 0.0
O4 O 0.52076 0.09304 0.97255 0.0
O5 O 0.48595 0.0957 0.03298 0.0
C6 C 0.49157 0.08051 0.995 0.0
C7 C 0.57089 0.1986 0.17258 0.0
C8 C 0.61113 0.0944 0.06925 0.0
C9 C 0.55779 0.20816 0.01438 0.0
O10 O 0.5701 0.20742 0.05337 0.0
O11 O 0.54215 0.17865 0.99654 0.0
O12 O 0.60117 0.19942 0.1477 0.0
O13 O 0.54054 0.1798 0.15881 0.0
O14 O 0.39859 0.63048 0.02552 0.0
Cd15 Cd 0.37118 0.57996 0.04324 0.0
Cd16 Cd 0.34161 0.63179 0.09521 0.0
O17 O 0.39381 0.66168 0.08744 0.0
O18 O 0.40067 0.54495 1.00408 0.0
O19 O 0.40574 0.5424 0.07563 0.0
C20 C 0.41867 0.53192 0.03785 0.0
C21 C 0.31132 0.61981 0.16157 0.0
C22 C 0.40961 0.65799 0.05025 0.0
C23 C 0.294 0.60451 0.02045 0.0
O24 O 0.30324 0.63409 0.04336 0.0
O25 O 0.31466 0.57355 0.02225 0.0
O26 O 0.31281 0.65469 0.1455 0.0
O27 O 0.32926 0.59185 0.14111 0.0
O28 O 0.88106 0.37157 0.05006 0.0
Cd29 Cd 0.93193 0.34196 0.03928 0.0
Cd30 Cd 0.89814 0.30555 0.12063 0.0
O31 O 0.85912 0.35185 0.1138 0.0
O32 O 0.94851 0.37104 0.9867 0.0
O33 O 0.98169 0.37225 0.0482 0.0
C34 C 0.97675 0.38538 0.00921 0.0
C35 C 0.90553 0.27944 0.19089 0.0
C36 C 0.85639 0.37402 0.08079 0.0
C37 C 0.91042 0.25855 0.03504 0.0
O38 O 0.89782 0.26232 0.07376 0.0
O39 O 0.92729 0.28642 0.01537 0.0
O40 O 0.8731 0.27686 0.16981 0.0
O41 O 0.93407 0.29803 0.17268 0.0
O42 O 0.07224 0.83477 0.04669 0.0
Cd43 Cd 0.09866 0.88776 0.0429 0.0
Cd44 Cd 0.13833 0.85237 0.11231 0.0
O45 O 0.09252 0.81247 0.10984 0.0
O46 O 0.06364 0.91131 0.99885 0.0
O47 O 0.06707 0.93248 0.06663 0.0
C48 C 0.04975 0.93321 0.0293 0.0
C49 C 0.16591 0.86987 0.17919 0.0
C50 C 0.07039 0.80958 0.07679 0.0
C51 C 0.18097 0.8681 0.02657 0.0
O52 O 0.17935 0.85019 0.06278 0.0
O53 O 0.15251 0.88912 0.01364 0.0
O54 O 0.16894 0.83485 0.16396 0.0
O55 O 0.14563 0.89509 0.15734 0.0
O56 O 0.5964 0.34492 0.4975 0.0
Cd57 Cd 0.53854 0.33831 0.48533 0.0
Cd58 Cd 0.57161 0.29852 0.41379 0.0
O59 O 0.61828 0.33458 0.43121 0.0
O60 O 0.51687 0.37826 0.52533 0.0
O61 O 0.51212 0.38223 0.45373 0.0
C62 C 0.50723 0.39824 0.49146 0.0
C63 C 0.57177 0.27534 0.34171 0.0
C64 C 0.6238 0.34674 0.46977 0.0
C65 C 0.53011 0.2551 0.48969 0.0
O66 O 0.55334 0.25589 0.45725 0.0
O67 O 0.51564 0.28642 0.50512 0.0
O68 O 0.59809 0.26501 0.36932 0.0
O69 O 0.54515 0.29977 0.35453 0.0
O70 O 0.10955 0.61962 0.44748 0.0
Cd71 Cd 0.10713 0.56149 0.43389 0.0
Cd72 Cd 0.17298 0.59402 0.37652 0.0
O73 O 0.1482 0.6461 0.398 0.0
O74 O 0.06558 0.55007 0.47714 0.0
O75 O 0.05736 0.53972 0.40714 0.0
C76 C 0.0429 0.53988 0.44591 0.0
C77 C 0.21156 0.59904 0.31312 0.0
C78 C 0.12508 0.64944 0.43023 0.0
C79 C 0.18777 0.53488 0.45223 0.0
O80 O 0.19875 0.55893 0.4231 0.0
O81 O 0.15171 0.52887 0.45985 0.0
O82 O 0.22119 0.61606 0.34874 0.0
O83 O 0.17936 0.57927 0.31279 0.0
O84 O 0.89107 0.13347 0.51551 0.0
Cd85 Cd 0.94841 0.14196 0.50147 0.0
Cd86 Cd 0.913 0.1818 0.43281 0.0
O87 O 0.86665 0.14571 0.45082 0.0
O88 O 0.97202 0.10159 0.53918 0.0
O89 O 0.97542 0.09975 0.46736 0.0
C90 C 0.98156 0.08287 0.50434 0.0
C91 C 0.91281 0.20557 0.36108 0.0
C92 C 0.86255 0.13271 0.48926 0.0
C93 C 0.95461 0.22507 0.50848 0.0
O94 O 0.93092 0.22424 0.47656 0.0
O95 O 0.9703 0.19392 0.5227 0.0
O96 O 0.8863 0.21545 0.38878 0.0
O97 O 0.93932 0.1809 0.37347 0.0
O98 O 0.38161 0.84996 0.43761 0.0
Cd99 Cd 0.3816 0.90861 0.44915 0.0
Cd100 Cd 0.30526 0.89672 0.39158 0.0
O101 O 0.32519 0.84063 0.40384 0.0
O102 O 0.42446 0.90802 0.49306 0.0
O103 O 0.42897 0.94056 0.43165 0.0
C104 C 0.44486 0.92976 0.46777 0.0
C105 C 0.26173 0.89755 0.33173 0.0
C106 C 0.35609 0.82729 0.42156 0.0
C107 C 0.30171 0.93669 0.48106 0.0
O108 O 0.28632 0.92857 0.44448 0.0
O109 O 0.33767 0.92979 0.48869 0.0
O110 O 0.25311 0.88065 0.36769 0.0
O111 O 0.29503 0.91528 0.3295 0.0
O112 O 0.35466 0.86132 0.94578 0.0
Cd113 Cd 0.41239 0.86488 0.93023 0.0
Cd114 Cd 0.37898 0.80178 0.8715 0.0
O115 O 0.32688 0.82646 0.89384 0.0
O116 O 0.42423 0.90455 0.97532 0.0
O117 O 0.43291 0.91596 0.90558 0.0
C118 C 0.43313 0.92872 0.94506 0.0
C119 C 0.37482 0.76604 0.80607 0.0
C120 C 0.32435 0.84741 0.92789 0.0
C121 C 0.43899 0.78425 0.94556 0.0
O122 O 0.41376 0.7741 0.91726 0.0
O123 O 0.44602 0.82001 0.95331 0.0
O124 O 0.35698 0.75511 0.84076 0.0
O125 O 0.3948 0.79805 0.8078 0.0
O126 O 0.61213 0.37839 0.9841 0.0
Cd127 Cd 0.63057 0.4338 0.99404 0.0
Cd128 Cd 0.6816 0.40315 0.9192 0.0
O129 O 0.64087 0.3581 0.92377 0.0
O130 O 0.59215 0.44784 0.03996 0.0
O131 O 0.59298 0.47546 0.97501 0.0
C132 C 0.57577 0.47063 0.01208 0.0
C133 C 0.71484 0.40784 0.85212 0.0
C134 C 0.61618 0.35318 0.95427 0.0
C135 C 0.71551 0.42962 0.00921 0.0
O136 O 0.71809 0.41453 0.97145 0.0
O137 O 0.683 0.44136 0.02458 0.0
O138 O 0.72024 0.37897 0.87826 0.0
O139 O 0.68969 0.4343 0.86353 0.0
O140 O 0.12245 0.59711 0.9441 0.0
Cd141 Cd 0.06315 0.59979 0.94924 0.0
Cd142 Cd 0.08296 0.67473 0.89576 0.0
O143 O 0.13765 0.65242 0.91108 0.0
O144 O 0.05871 0.55545 0.99056 0.0
O145 O 0.03131 0.55449 0.92588 0.0
C146 C 0.039 0.5367 0.96186 0.0
C147 C 0.08596 0.71691 0.83508 0.0
C148 C 0.14778 0.62081 0.92975 0.0
C149 C 0.03743 0.67945 0.98202 0.0
O150 O 0.04968 0.69502 0.94699 0.0
O151 O 0.04091 0.64296 0.98891 0.0
O152 O 0.10185 0.72566 0.87158 0.0
O153 O 0.06683 0.68443 0.83282 0.0
O154 O 0.85096 0.08635 0.9943 0.0
Cd155 Cd 0.83526 0.02941 0.99146 0.0
Cd156 Cd 0.7894 0.06734 0.92164 0.0
O157 O 0.8307 0.11103 0.93216 0.0
O158 O 0.873 0.01059 0.0356 0.0
O159 O 0.87605 -0.00693 0.96663 0.0
C160 C 0.89187 -0.00655 1.00476 0.0
C161 C 0.75689 0.06731 0.85405 0.0
C162 C 0.85041 0.11405 0.96704 0.0
C163 C 0.75146 0.03296 0.00581 0.0
O164 O 0.75116 0.05382 0.97158 0.0
O165 O 0.78252 0.0163 0.01902 0.0
O166 O 0.75212 0.09495 0.88199 0.0
O167 O 0.78153 0.03984 0.86365 0.0
O168 O 0.34539 0.57209 0.52047 0.0
Cd169 Cd 0.39734 0.60105 0.52792 0.0
Cd170 Cd 0.34871 0.63546 0.58639 0.0
O171 O 0.31757 0.58382 0.58346 0.0
O172 O 0.42755 0.57082 0.48432 0.0
O173 O 0.4405 0.569 0.55458 0.0
C174 C 0.44652 0.55524 0.516 0.0
C175 C 0.35898 0.66875 0.6518 0.0
C176 C 0.31873 0.56474 0.54804 0.0
C177 C 0.37027 0.67838 0.50512 0.0
O178 O 0.3436 0.67174 0.53304 0.0
O179 O 0.40052 0.65664 0.50325 0.0
O180 O 0.32454 0.66607 0.63481 0.0
O181 O 0.38772 0.65092 0.63261 0.0
O182 O 0.88761 0.38598 0.54153 0.0
Cd183 Cd 0.85322 0.434 0.53146 0.0
Cd184 Cd 0.82582 0.40059 0.617 0.0
O185 O 0.87712 0.36849 0.60952 0.0
O186 O 0.87791 0.4518 0.47651 0.0
O187 O 0.88028 0.48575 0.53754 0.0
C188 C 0.8918 0.48102 0.49782 0.0
C189 C 0.80009 0.40678 0.68779 0.0
C190 C 0.89608 0.36492 0.57413 0.0
C191 C 0.77264 0.40385 0.53494 0.0
O192 O 0.78115 0.39185 0.57288 0.0
O193 O 0.79637 0.42478 0.51332 0.0
O194 O 0.80249 0.37354 0.66829 0.0
O195 O 0.81399 0.43697 0.66788 0.0
O196 O 0.14364 0.90473 0.54553 0.0
Cd197 Cd 0.09063 0.87839 0.53973 0.0
Cd198 Cd 0.12554 0.83667 0.61134 0.0
O199 O 0.16702 0.88088 0.60675 0.0
O200 O 0.06788 0.91293 0.49461 0.0
O201 O 0.04459 0.90927 0.56156 0.0
C202 C 0.04435 0.92608 0.52394 0.0
C203 C 0.11231 0.8097 0.67984 0.0
C204 C 0.16966 0.9044 0.5749 0.0
C205 C 0.10775 0.79482 0.52517 0.0
O206 O 0.12404 0.79527 0.56235 0.0
O207 O 0.08973 0.82461 0.51063 0.0
O208 O 0.14588 0.80544 0.66121 0.0
O209 O 0.086 0.83045 0.66022 0.0
O210 O 0.60002 0.09675 0.53706 0.0
Cd211 Cd 0.63277 0.04696 0.5416 0.0
Cd212 Cd 0.64857 0.08537 0.61992 0.0
O213 O 0.59678 0.11477 0.60566 0.0
O214 O 0.61111 0.01821 0.49127 0.0
O215 O 0.60287 -0.00069 0.5594 0.0
C216 C 0.59397 -0.00444 0.51878 0.0
C217 C 0.66944 0.07616 0.69175 0.0
C218 C 0.58472 0.11762 0.5667 0.0
C219 C 0.71108 0.07811 0.54893 0.0
O220 O 0.69673 0.09623 0.58139 0.0
O221 O 0.6915 0.05194 0.52938 0.0
O222 O 0.66628 0.11052 0.67492 0.0
O223 O 0.65777 0.04672 0.66881 0.0
C224 C 0.59606 0.24476 0.95943 0.0
C225 C 0.56471 0.24367 0.98913 0.0
C226 C 0.61068 0.28067 0.94441 0.0
C227 C 0.59424 0.31622 0.95893 0.0
H228 H 0.61131 0.21798 0.95056 0.0
H229 H 0.63687 0.2806 0.92438 0.0
S230 S 0.50648 0.3277 0.02977 0.0
N231 N 0.51432 0.27994 0.02775 0.0
N232 N 0.54062 0.34753 0.99872 0.0
C233 C 0.56016 0.31495 0.98497 0.0
C234 C 0.54574 0.27855 1.00049 0.0
C235 C 0.21194 0.64777 0.95313 0.0
C236 C 0.18886 0.6149 0.9433 0.0
C237 C 0.24657 0.64386 0.97709 0.0
C238 C 0.25967 0.60693 0.99142 0.0
H239 H 0.20191 0.67702 0.94497 0.0
H240 H 0.26257 0.67018 0.98553 0.0
S241 S 0.21277 0.5112 0.96847 0.0
N242 N 0.1835 0.54385 0.94558 0.0
N243 N 0.24911 0.53646 0.99012 0.0
C244 C 0.23853 0.57352 0.97884 0.0
C245 C 0.20298 0.57755 0.95485 0.0
C246 C 0.89146 0.15164 0.01896 0.0
C247 C 0.87129 0.15051 0.97893 0.0
C248 C 0.90627 0.18655 0.03554 0.0
C249 C 0.90241 0.22161 0.0124 0.0
H250 H 0.89435 0.12569 0.03898 0.0
H251 H 0.91952 0.18636 0.06757 0.0
S252 S 0.85714 0.23438 0.90379 0.0
N253 N 0.85163 0.18731 0.91469 0.0
N254 N 0.88055 0.25323 0.94588 0.0
C255 C 0.88524 0.22075 0.97089 0.0
C256 C 0.86942 0.18509 0.95411 0.0
C257 C 0.28724 0.85338 0.99664 0.0
C258 C 0.28676 0.85268 0.9509 0.0
C259 C 0.25284 0.85855 0.02058 0.0
C260 C 0.21663 0.86404 0.99977 0.0
H261 H 0.31449 0.84935 0.01428 0.0
H262 H 0.25473 0.85852 0.05575 0.0
S263 S 0.19937 0.86507 0.88068 0.0
N264 N 0.24715 0.85769 0.88552 0.0
N265 N 0.18202 0.86852 0.93074 0.0
C266 C 0.21558 0.86381 0.954 0.0
C267 C 0.25076 0.8577 0.92949 0.0
C268 C 0.54093 0.21863 0.55804 0.0
C269 C 0.52807 0.21857 0.5146 0.0
C270 C 0.55553 0.18428 0.57726 0.0
C271 C 0.55733 0.14909 0.55347 0.0
H272 H 0.54396 0.24604 0.57553 0.0
H273 H 0.569 0.18631 0.60906 0.0
S274 S 0.51638 0.13209 0.44325 0.0
N275 N 0.51062 0.17957 0.45169 0.0
N276 N 0.53652 0.11458 0.48806 0.0
C277 C 0.53906 0.14776 0.51242 0.0
C278 C 0.52483 0.18272 0.49281 0.0
C279 C 0.28833 0.5209 0.49334 0.0
C280 C 0.28522 0.54051 0.53359 0.0
C281 C 0.25495 0.51269 0.46867 0.0
C282 C 0.21751 0.52282 0.48406 0.0
H283 H 0.31676 0.51617 0.47832 0.0
H284 H 0.25878 0.50279 0.43543 0.0
S285 S 0.19293 0.56164 0.59335 0.0
N286 N 0.2414 0.5604 0.59224 0.0
N287 N 0.17846 0.54393 0.54604 0.0
C288 C 0.21367 0.53533 0.52742 0.0
C289 C 0.24774 0.54443 0.55234 0.0
C290 C 0.94637 0.33173 0.52849 0.0
C291 C 0.92408 0.3322 0.56717 0.0
C292 C 0.96156 0.29672 0.51184 0.0
C293 C 0.95601 0.26133 0.53395 0.0
H294 H 0.94873 0.35779 0.50856 0.0
H295 H 0.97429 0.29677 0.47952 0.0
S296 S 0.90895 0.24808 0.64153 0.0
N297 N 0.90382 0.29529 0.63104 0.0
N298 N 0.93347 0.2295 0.59994 0.0
C299 C 0.93917 0.26224 0.57565 0.0
C300 C 0.92298 0.29784 0.59237 0.0
C301 C 0.20536 0.95502 0.53306 0.0
C302 C 0.20615 0.92637 0.56603 0.0
C303 C 0.23901 0.96346 0.50886 0.0
C304 C 0.27457 0.94415 0.51753 0.0
H305 H 0.17769 0.96741 0.52227 0.0
H306 H 0.23604 0.98159 0.48012 0.0
S307 S 0.29494 0.87766 0.6102 0.0
N308 N 0.24736 0.88672 0.61336 0.0
N309 N 0.31104 0.90337 0.56841 0.0
C310 C 0.27736 0.92145 0.55561 0.0
C311 C 0.24287 0.91235 0.57994 0.0
C312 C 0.43928 0.76006 0.02088 0.0
C313 C 0.45074 0.75446 0.97734 0.0
C314 C 0.43067 0.7279 0.04751 0.0
C315 C 0.4338 0.68951 0.03122 0.0
H316 H 0.4318 0.78911 0.03259 0.0
H317 H 0.41726 0.73338 0.0789 0.0
S318 S 0.47608 0.66025 0.92464 0.0
N319 N 0.47391 0.70858 0.92278 0.0
N320 N 0.45979 0.64794 0.97333 0.0
C321 C 0.45214 0.68389 0.99056 0.0
C322 C 0.46007 0.71655 0.96332 0.0
C323 C 0.78667 0.43843 0.01945 0.0
C324 C 0.75035 0.42768 0.03704 0.0
C325 C 0.8216 0.42478 0.03772 0.0
C326 C 0.82131 0.39885 0.07339 0.0
H327 H 0.788 0.45495 0.9894 0.0
H328 H 0.8488 0.43176 0.02117 0.0
S329 S 0.73346 0.36833 0.13604 0.0
N330 N 0.7158 0.39536 0.09601 0.0
N331 N 0.78166 0.36849 0.12995 0.0
C332 C 0.78529 0.39172 0.09433 0.0
C333 C 0.74963 0.40634 0.07606 0.0
C334 C 0.01073 0.74201 0.00964 0.0
C335 C 0.02919 0.70612 0.01855 0.0
C336 C 0.01939 0.77528 0.03426 0.0
C337 C 0.04754 0.77376 0.06778 0.0
H338 H -0.0067 0.74547 0.98043 0.0
H339 H 0.0078 0.80321 0.02333 0.0
S340 S 0.09406 0.68407 0.11217 0.0
N341 N 0.06857 0.66868 0.06986 0.0
N342 N 0.08581 0.73171 0.11553 0.0
C343 C 0.06063 0.73681 0.08176 0.0
C344 C 0.05122 0.70269 0.05706 0.0
C345 C 0.64541 0.03981 0.03121 0.0
C346 C 0.64551 0.06794 0.06488 0.0
C347 C 0.68043 0.02396 0.01526 0.0
C348 C 0.7165 0.03466 0.03338 0.0
H349 H 0.61855 0.03282 0.01409 0.0
H350 H 0.67956 0.00612 0.98609 0.0
S351 S 0.73242 0.09917 0.12853 0.0
N352 N 0.68444 0.10017 0.12077 0.0
N353 N 0.75033 0.06926 0.09111 0.0
C354 C 0.71673 0.05814 0.07085 0.0
C355 C 0.68107 0.07499 0.08673 0.0
C356 C 0.40001 0.73346 0.46373 0.0
C357 C 0.36646 0.71243 0.47609 0.0
C358 C 0.39654 0.76943 0.44227 0.0
C359 C 0.35946 0.78519 0.43184 0.0
H360 H 0.42897 0.72337 0.47313 0.0
H361 H 0.423 0.78606 0.43605 0.0
S362 S 0.26306 0.73738 0.4499 0.0
N363 N 0.29544 0.70686 0.47125 0.0
N364 N 0.28883 0.77426 0.4303 0.0
C365 C 0.32592 0.76248 0.44027 0.0
C366 C 0.32945 0.72617 0.46275 0.0
C367 C 0.70374 0.38285 0.54451 0.0
C368 C 0.73464 0.39215 0.51615 0.0
C369 C 0.66823 0.36863 0.5288 0.0
C370 C 0.66202 0.36268 0.48404 0.0
H371 H 0.70705 0.38632 0.5793 0.0
H372 H 0.64563 0.36169 0.55242 0.0
S373 S 0.73354 0.38326 0.39592 0.0
N374 N 0.75688 0.39527 0.44102 0.0
N375 N 0.68966 0.36809 0.41127 0.0
C376 C 0.69249 0.37236 0.45505 0.0
C377 C 0.72882 0.38731 0.47121 0.0
C378 C 0.1114 0.6876 0.49709 0.0
C379 C 0.11912 0.68749 0.45208 0.0
C380 C 0.10738 0.72255 0.52017 0.0
C381 C 0.11006 0.75881 0.49906 0.0
H382 H 0.1094 0.66038 0.51507 0.0
H383 H 0.10216 0.72116 0.55491 0.0
S384 S 0.12935 0.77501 0.38176 0.0
N385 N 0.12931 0.72682 0.3872 0.0
N386 N 0.12055 0.79304 0.43072 0.0
C387 C 0.11699 0.75941 0.45397 0.0
C388 C 0.12195 0.7236 0.43046 0.0
C389 C 0.75946 0.09044 0.48933 0.0
C390 C 0.75061 0.08881 0.53395 0.0
C391 C 0.79575 0.10481 0.47485 0.0
C392 C 0.82449 0.11728 0.50462 0.0
H393 H 0.73777 0.08179 0.46548 0.0
H394 H 0.80129 0.10619 0.4402 0.0
S395 S 0.81596 0.11638 0.62521 0.0
N396 N 0.77365 0.09912 0.60776 0.0
N397 N 0.84175 0.12574 0.58102 0.0
C398 C 0.81616 0.11464 0.54943 0.0
C399 C 0.77924 0.10048 0.56398 0.0
C400 C 0.46479 -0.00748 0.92673 0.0
C401 C 0.44308 0.96964 0.95595 0.0
C402 C 0.47799 0.02983 0.93859 0.0
C403 C 0.46972 0.04569 0.97997 0.0
H404 H 0.47315 0.9809 0.89524 0.0
H405 H 0.49636 0.04555 0.91578 0.0
S406 S 0.40821 -6e-05 0.06552 0.0
N407 N 0.40967 0.96725 0.02597 0.0
N408 N 0.43446 0.03736 0.04816 0.0
C409 C 0.44547 0.02427 0.00818 0.0
C410 C 0.43225 0.98619 0.99623 0.0
C411 C 0.47469 0.51197 0.991 0.0
C412 C 0.45702 0.51213 0.03244 0.0
C413 C 0.51348 0.49974 0.98514 0.0
C414 C 0.53614 0.48664 0.02035 0.0
H415 H 0.45891 0.5225 0.96275 0.0
H416 H 0.52557 0.50021 0.95255 0.0
S417 S 0.50338 0.47941 0.13532 0.0
N418 N 0.46486 0.49704 0.1092 0.0
N419 N 0.53786 0.47329 0.09812 0.0
C420 C 0.51868 0.48569 0.0619 0.0
C421 C 0.47911 0.49853 0.06794 0.0
C422 C 0.03413 0.47954 0.01179 0.0
C423 C 0.02611 0.49618 0.97084 0.0
C424 C 0.02046 0.4423 0.02283 0.0
C425 C -0.00185 0.42019 0.9934 0.0
H426 H 0.05017 0.49579 0.03622 0.0
H427 H 0.02589 0.43169 0.05547 0.0
S428 S 0.97364 0.44803 0.87981 0.0
N429 N -0.00217 0.48605 0.89917 0.0
N430 N 0.9721 0.41584 0.9198 0.0
C431 C -0.00803 0.43539 0.95134 0.0
C432 C 0.00588 0.47347 0.94012 0.0
C433 C -0.00773 0.94967 0.98269 0.0
C434 C 0.01151 0.95308 0.02303 0.0
C435 C 0.95341 0.9621 0.97733 0.0
C436 C 0.93215 0.97847 0.01208 0.0
H437 H 0.00694 0.93634 0.95509 0.0
H438 H 0.93998 0.95868 0.94566 0.0
S439 S 0.96974 -0.00373 0.12384 0.0
N440 N 0.00692 0.97573 0.09788 0.0
N441 N 0.93387 -0.00081 0.08797 0.0
C442 C 0.95134 0.98306 0.05238 0.0
C443 C -0.00897 0.97048 0.05778 0.0
C444 C 0.47507 0.49327 0.54461 0.0
C445 C 0.46815 0.51815 0.50907 0.0
C446 C 0.48747 0.45457 0.53839 0.0
C447 C 0.49358 0.4392 0.4964 0.0
H448 H 0.46916 0.50308 0.57749 0.0
H449 H 0.49162 0.4364 0.56689 0.0
S450 S 0.48431 0.4939 0.39264 0.0
N451 N 0.47166 0.5259 0.43048 0.0
N452 N 0.49509 0.45306 0.41881 0.0
C453 C 0.48861 0.46433 0.46061 0.0
C454 C 0.47599 0.50385 0.46697 0.0
C455 C 0.98619 0.53773 0.49682 0.0
C456 C 0.0017 0.52935 0.45536 0.0
C457 C 0.94882 0.52505 0.50897 0.0
C458 C 0.92553 0.50315 0.48028 0.0
H459 H 0.00351 0.55321 0.5208 0.0
H460 H 0.93925 0.53047 0.54205 0.0
S461 S 0.94998 0.47858 0.36563 0.0
N462 N -0.01092 0.50186 0.3838 0.0
N463 N 0.91865 0.47768 0.40664 0.0
C464 C 0.93941 0.4971 0.43755 0.0
C465 C 0.97757 0.51023 0.42512 0.0
C466 C 0.01052 0.98517 0.55302 0.0
C467 C 0.02315 0.96334 0.51686 0.0
C468 C -0.00251 0.0238 0.54842 0.0
C469 C -0.00375 0.04213 0.50743 0.0
H470 H 0.01224 0.97301 0.58548 0.0
H471 H -0.01131 0.03947 0.57751 0.0
S472 S 0.02225 -0.00382 0.40177 0.0
N473 N 0.03094 0.96172 0.43817 0.0
N474 N 0.00608 0.03444 0.4295 0.0
C475 C 0.00713 0.02007 0.47068 0.0
C476 C 0.02059 0.98065 0.4754 0.0
C477 C 0.54535 0.97664 0.46217 0.0
C478 C 0.55996 0.97184 0.50469 0.0
C479 C 0.50851 0.96221 0.45025 0.0
C480 C 0.48494 0.94206 0.48023 0.0
H481 H 0.56153 -0.00656 0.4383 0.0
H482 H 0.49808 0.96782 0.41759 0.0
S483 S 0.51164 0.91731 0.59416 0.0
N484 N 0.54947 0.9424 0.57571 0.0
N485 N 0.48035 0.91487 0.55333 0.0
C486 C 0.50021 0.93485 0.52209 0.0
C487 C 0.53772 0.94976 0.53428 0.0
C488 C 0.5364 0.25035 0.27577 0.0
C489 C 0.57186 0.25823 0.29746 0.0
C490 C 0.53614 0.2306 0.23559 0.0
C491 C 0.57138 0.21883 0.21533 0.0
H492 H 0.50863 0.25848 0.29051 0.0
H493 H 0.50818 0.22474 0.22021 0.0
S494 S 0.67213 0.2343 0.25804 0.0
N495 N 0.64304 0.25368 0.29531 0.0
N496 N 0.64274 0.21746 0.21979 0.0
C497 C 0.60703 0.22742 0.23636 0.0
C498 C 0.60722 0.24688 0.27741 0.0
C499 C 0.25947 0.637 0.26891 0.0
C500 C 0.23692 0.60287 0.27427 0.0
C501 C 0.28395 0.64187 0.2327 0.0
C502 C 0.28772 0.61233 0.20108 0.0
H503 H 0.25766 0.66054 0.2925 0.0
H504 H 0.30004 0.66904 0.22945 0.0
S505 S 0.23606 0.5168 0.20058 0.0
N506 N 0.22022 0.53883 0.24517 0.0
N507 N 0.26724 0.54747 0.17763 0.0
C508 C 0.26603 0.57766 0.20646 0.0
C509 C 0.24031 0.57309 0.24287 0.0
C510 C 0.87498 0.2548 0.2591 0.0
C511 C 0.90912 0.26108 0.23433 0.0
C512 C 0.87665 0.23652 0.29974 0.0
C513 C 0.91242 0.22295 0.31698 0.0
H514 H 0.84662 0.26443 0.24719 0.0
H515 H 0.84954 0.23281 0.31771 0.0
S516 S 0.0103 0.23145 0.26487 0.0
N517 N 0.97988 0.25214 0.22987 0.0
N518 N 0.9829 0.21687 0.30613 0.0
C519 C 0.94681 0.22854 0.29242 0.0
C520 C 0.94521 0.24792 0.2512 0.0
C521 C 0.21182 0.85979 0.29034 0.0
C522 C 0.23529 0.89353 0.29381 0.0
C523 C 0.18852 0.85307 0.25365 0.0
C524 C 0.18679 0.88038 0.21958 0.0
H525 H 0.21251 0.83758 0.31548 0.0
H526 H 0.17212 0.82598 0.25166 0.0
S527 S 0.24046 0.97456 0.21382 0.0
N528 N 0.25435 0.9552 0.2606 0.0
N529 N 0.20924 0.94318 0.19212 0.0
C530 C 0.20875 0.91503 0.2233 0.0
C531 C 0.2334 0.92142 0.26027 0.0
C532 C 0.33768 0.72025 0.75846 0.0
C533 C 0.37193 0.74211 0.76605 0.0
C534 C 0.33401 0.69644 0.72159 0.0
C535 C 0.36485 0.69265 0.69144 0.0
H536 H 0.31322 0.72192 0.78096 0.0
H537 H 0.30681 0.68065 0.71682 0.0
S538 S 0.46106 0.74305 0.6967 0.0
N539 N 0.43737 0.75848 0.74044 0.0
N540 N 0.43093 0.71269 0.67162 0.0
C541 C 0.39953 0.7139 0.69888 0.0
C542 C 0.40292 0.73896 0.736 0.0
C543 C 0.77661 0.37528 0.75595 0.0
C544 C 0.78043 0.40942 0.73076 0.0
C545 C 0.75563 0.37541 0.79506 0.0
C546 C 0.73697 0.40956 0.81053 0.0
H547 H 0.78979 0.34796 0.74527 0.0
H548 H 0.75356 0.34817 0.81297 0.0
S549 S 0.73842 0.50709 0.75724 0.0
N550 N 0.76439 0.47869 0.72442 0.0
N551 N 0.72436 0.47884 0.79793 0.0
C552 C 0.74075 0.44412 0.78593 0.0
C553 C 0.7627 0.4441 0.74615 0.0
C554 C 0.06824 0.77045 0.7283 0.0
C555 C 0.10428 0.78952 0.72137 0.0
C556 C 0.0623 0.74678 0.76515 0.0
C557 C 0.0918 0.74245 0.79678 0.0
H558 H 0.0451 0.77256 0.70428 0.0
H559 H 0.03451 0.73182 0.76891 0.0
S560 S 0.19081 0.78752 0.79435 0.0
N561 N 0.16951 0.80297 0.74931 0.0
N562 N 0.15798 0.75989 0.81908 0.0
C563 C 0.12745 0.76242 0.79076 0.0
C564 C 0.13379 0.7856 0.7529 0.0
C565 C 0.69251 0.10404 0.76208 0.0
C566 C 0.68892 0.07133 0.73454 0.0
C567 C 0.71437 0.10217 0.8005 0.0
C568 C 0.73409 0.06763 0.81292 0.0
H569 H 0.67868 0.13165 0.75367 0.0
H570 H 0.71626 0.12838 0.82028 0.0
S571 S 0.73343 0.97326 0.75277 0.0
N572 N 0.70625 0.0029 0.7228 0.0
N573 N 0.74773 -0.00055 0.79504 0.0
C574 C 0.73039 0.03443 0.78603 0.0
C575 C 0.70764 0.03623 0.74695 0.0
loop_
_geom_bond_atom_site_label_1
_geom_bond_atom_site_label_2
_geom_bond_distance
_geom_bond_site_symmetry_2
_ccdc_geom_bond_type
O0 Cd1 2.223 1_556 S
O0 C8 1.315 1_556 S
Cd1 O0 2.223 1_554 S
Cd1 O4 2.297 1_554 S
Cd1 O5 2.439 . S
Cd1 O11 2.240 . S
Cd2 O3 2.240 . S
Cd2 O10 2.223 . S
Cd2 O12 2.297 . S
Cd2 O13 2.439 . S
O3 Cd2 2.240 . S
O3 C8 1.279 . S
O4 Cd1 2.297 1_556 S
O4 C6 1.247 1_556 S
O5 Cd1 2.439 . S
O5 C6 1.208 . S
C6 O4 1.247 1_554 S
C6 O5 1.208 . S
C7 O12 1.247 . S
C7 O13 1.208 . S
C8 O0 1.315 1_554 S
C8 O3 1.279 . S
C9 O10 1.315 . S
C9 O11 1.279 . S
O10 Cd2 2.223 . S
O10 C9 1.315 . S
O11 Cd1 2.240 . S
O11 C9 1.279 . S
O12 Cd2 2.297 . S
O12 C7 1.247 . S
O13 Cd2 2.439 . S
O13 C7 1.208 . S
O14 Cd15 2.223 1_556 S
O14 C22 1.315 1_556 S
Cd15 O14 2.223 1_554 S
Cd15 O18 2.297 1_554 S
Cd15 O19 2.439 . S
Cd15 O25 2.240 . S
Cd16 O17 2.240 . S
Cd16 O24 2.223 . S
Cd16 O26 2.297 . S
Cd16 O27 2.439 . S
O17 Cd16 2.240 . S
O17 C22 1.279 . S
O18 Cd15 2.297 1_556 S
O18 C20 1.247 1_556 S
O19 Cd15 2.439 . S
O19 C20 1.208 . S
C20 O18 1.247 1_554 S
C20 O19 1.208 . S
C21 O26 1.247 . S
C21 O27 1.208 . S
C22 O14 1.315 1_554 S
C22 O17 1.279 . S
C23 O24 1.315 . S
C23 O25 1.279 . S
O24 Cd16 2.223 . S
O24 C23 1.315 . S
O25 Cd15 2.240 . S
O25 C23 1.279 . S
O26 Cd16 2.297 . S
O26 C21 1.247 . S
O27 Cd16 2.439 . S
O27 C21 1.208 . S
O28 Cd29 2.223 1_556 S
O28 C36 1.315 1_556 S
Cd29 O28 2.223 1_554 S
Cd29 O32 2.297 1_554 S
Cd29 O33 2.439 . S
Cd29 O39 2.240 . S
Cd30 O31 2.240 . S
Cd30 O38 2.223 . S
Cd30 O40 2.297 . S
Cd30 O41 2.439 . S
O31 Cd30 2.240 . S
O31 C36 1.279 . S
O32 Cd29 2.297 1_556 S
O32 C34 1.247 1_556 S
O33 Cd29 2.439 . S
O33 C34 1.208 . S
C34 O32 1.247 1_554 S
C34 O33 1.208 . S
C35 O40 1.247 . S
C35 O41 1.208 . S
C36 O28 1.315 1_554 S
C36 O31 1.279 . S
C37 O38 1.315 . S
C37 O39 1.279 . S
O38 Cd30 2.223 . S
O38 C37 1.315 . S
O39 Cd29 2.240 . S
O39 C37 1.279 . S
O40 Cd30 2.297 . S
O40 C35 1.247 . S
O41 Cd30 2.439 . S
O41 C35 1.208 . S
O42 Cd43 2.223 1_556 S
O42 C50 1.315 1_556 S
Cd43 O42 2.223 1_554 S
Cd43 O46 2.297 1_554 S
Cd43 O47 2.439 . S
Cd43 O53 2.240 . S
Cd44 O45 2.240 . S
Cd44 O52 2.223 . S
Cd44 O54 2.297 . S
Cd44 O55 2.439 . S
O45 Cd44 2.240 . S
O45 C50 1.279 . S
O46 Cd43 2.297 1_556 S
O46 C48 1.247 1_556 S
O47 Cd43 2.439 . S
O47 C48 1.208 . S
C48 O46 1.247 1_554 S
C48 O47 1.208 . S
C49 O54 1.247 . S
C49 O55 1.208 . S
C50 O42 1.315 1_554 S
C50 O45 1.279 . S
C51 O52 1.315 . S
C51 O53 1.279 . S
O52 Cd44 2.223 . S
O52 C51 1.315 . S
O53 Cd43 2.240 . S
O53 C51 1.279 . S
O54 Cd44 2.297 . S
O54 C49 1.247 . S
O55 Cd44 2.439 . S
O55 C49 1.208 . S
O56 Cd57 2.223 . S
O56 C64 1.315 . S
Cd57 O56 2.223 . S
Cd57 O60 2.297 . S
Cd57 O61 2.439 . S
Cd57 O67 2.240 . S
Cd58 O59 2.240 . S
Cd58 O66 2.223 . S
Cd58 O68 2.297 . S
Cd58 O69 2.439 . S
O59 Cd58 2.240 . S
O59 C64 1.279 . S
O60 Cd57 2.297 . S
O60 C62 1.247 . S
O61 Cd57 2.439 . S
O61 C62 1.208 . S
C62 O60 1.247 . S
C62 O61 1.208 . S
C63 O68 1.247 . S
C63 O69 1.208 . S
C64 O56 1.315 . S
C64 O59 1.279 . S
C65 O66 1.315 . S
C65 O67 1.279 . S
O66 Cd58 2.223 . S
O66 C65 1.315 . S
O67 Cd57 2.240 . S
O67 C65 1.279 . S
O68 Cd58 2.297 . S
O68 C63 1.247 . S
O69 Cd58 2.439 . S
O69 C63 1.208 . S
O70 Cd71 2.223 . S
O70 C78 1.315 . S
Cd71 O70 2.223 . S
Cd71 O74 2.297 . S
Cd71 O75 2.439 . S
Cd71 O81 2.240 . S
Cd72 O73 2.240 . S
Cd72 O80 2.223 . S
Cd72 O82 2.297 . S
Cd72 O83 2.439 . S
O73 Cd72 2.240 . S
O73 C78 1.279 . S
O74 Cd71 2.297 . S
O74 C76 1.247 . S
O75 Cd71 2.439 . S
O75 C76 1.208 . S
C76 O74 1.247 . S
C76 O75 1.208 . S
C77 O82 1.247 . S
C77 O83 1.208 . S
C78 O70 1.315 . S
C78 O73 1.279 . S
C79 O80 1.315 . S
C79 O81 1.279 . S
O80 Cd72 2.223 . S
O80 C79 1.315 . S
O81 Cd71 2.240 . S
O81 C79 1.279 . S
O82 Cd72 2.297 . S
O82 C77 1.247 . S
O83 Cd72 2.439 . S
O83 C77 1.208 . S
O84 Cd85 2.223 . S
O84 C92 1.315 . S
Cd85 O84 2.223 . S
Cd85 O88 2.297 . S
Cd85 O89 2.439 . S
Cd85 O95 2.240 . S
Cd86 O87 2.240 . S
Cd86 O94 2.223 . S
Cd86 O96 2.297 . S
Cd86 O97 2.439 . S
O87 Cd86 2.240 . S
O87 C92 1.279 . S
O88 Cd85 2.297 . S
O88 C90 1.247 . S
O89 Cd85 2.439 . S
O89 C90 1.208 . S
C90 O88 1.247 . S
C90 O89 1.208 . S
C91 O96 1.247 . S
C91 O97 1.208 . S
C92 O84 1.315 . S
C92 O87 1.279 . S
C93 O94 1.315 . S
C93 O95 1.279 . S
O94 Cd86 2.223 . S
O94 C93 1.315 . S
O95 Cd85 2.240 . S
O95 C93 1.279 . S
O96 Cd86 2.297 . S
O96 C91 1.247 . S
O97 Cd86 2.439 . S
O97 C91 1.208 . S
O98 Cd99 2.223 . S
O98 C106 1.315 . S
Cd99 O98 2.223 . S
Cd99 O102 2.297 . S
Cd99 O103 2.439 . S
Cd99 O109 2.240 . S
Cd100 O101 2.240 . S
Cd100 O108 2.223 . S
Cd100 O110 2.297 . S
Cd100 O111 2.439 . S
O101 Cd100 2.240 . S
O101 C106 1.279 . S
O102 Cd99 2.297 . S
O102 C104 1.247 . S
O103 Cd99 2.439 . S
O103 C104 1.208 . S
C104 O102 1.247 . S
C104 O103 1.208 . S
C105 O110 1.247 . S
C105 O111 1.208 . S
C106 O98 1.315 . S
C106 O101 1.279 . S
C107 O108 1.315 . S
C107 O109 1.279 . S
O108 Cd100 2.223 . S
O108 C107 1.315 . S
O109 Cd99 2.240 . S
O109 C107 1.279 . S
O110 Cd100 2.297 . S
O110 C105 1.247 . S
O111 Cd100 2.439 . S
O111 C105 1.208 . S
O112 Cd113 2.223 1_554 S
O112 C120 1.315 1_554 S
Cd113 O112 2.223 1_556 S
Cd113 O116 2.297 1_556 S
Cd113 O117 2.439 . S
Cd113 O123 2.240 . S
Cd114 O115 2.240 . S
Cd114 O122 2.223 . S
Cd114 O124 2.297 . S
Cd114 O125 2.439 . S
O115 Cd114 2.240 . S
O115 C120 1.279 . S
O116 Cd113 2.297 1_554 S
O116 C118 1.247 1_554 S
O117 Cd113 2.439 . S
O117 C118 1.208 . S
C118 O116 1.247 1_556 S
C118 O117 1.208 . S
C119 O124 1.247 . S
C119 O125 1.208 . S
C120 O112 1.315 1_556 S
C120 O115 1.279 . S
C121 O122 1.315 . S
C121 O123 1.279 . S
O122 Cd114 2.223 . S
O122 C121 1.315 . S
O123 Cd113 2.240 . S
O123 C121 1.279 . S
O124 Cd114 2.297 . S
O124 C119 1.247 . S
O125 Cd114 2.439 . S
O125 C119 1.208 . S
O126 Cd127 2.223 1_554 S
O126 C134 1.315 1_554 S
Cd127 O126 2.223 1_556 S
Cd127 O130 2.297 1_556 S
Cd127 O131 2.439 . S
Cd127 O137 2.240 . S
Cd128 O129 2.240 . S
Cd128 O136 2.223 . S
Cd128 O138 2.297 . S
Cd128 O139 2.439 . S
O129 Cd128 2.240 . S
O129 C134 1.279 . S
O130 Cd127 2.297 1_554 S
O130 C132 1.247 1_554 S
O131 Cd127 2.439 . S
O131 C132 1.208 . S
C132 O130 1.247 1_556 S
C132 O131 1.208 . S
C133 O138 1.247 . S
C133 O139 1.208 . S
C134 O126 1.315 1_556 S
C134 O129 1.279 . S
C135 O136 1.315 . S
C135 O137 1.279 . S
O136 Cd128 2.223 . S
O136 C135 1.315 . S
O137 Cd127 2.240 . S
O137 C135 1.279 . S
O138 Cd128 2.297 . S
O138 C133 1.247 . S
O139 Cd128 2.439 . S
O139 C133 1.208 . S
O140 Cd141 2.223 1_554 S
O140 C148 1.315 1_554 S
Cd141 O140 2.223 1_556 S
Cd141 O144 2.297 1_556 S
Cd141 O145 2.439 . S
Cd141 O151 2.240 . S
Cd142 O143 2.240 . S
Cd142 O150 2.223 . S
Cd142 O152 2.297 . S
Cd142 O153 2.439 . S
O143 Cd142 2.240 . S
O143 C148 1.279 . S
O144 Cd141 2.297 1_554 S
O144 C146 1.247 1_554 S
O145 Cd141 2.439 . S
O145 C146 1.208 . S
C146 O144 1.247 1_556 S
C146 O145 1.208 . S
C147 O152 1.247 . S
C147 O153 1.208 . S
C148 O140 1.315 1_556 S
C148 O143 1.279 . S
C149 O150 1.315 . S
C149 O151 1.279 . S
O150 Cd142 2.223 . S
O150 C149 1.315 . S
O151 Cd141 2.240 . S
O151 C149 1.279 . S
O152 Cd142 2.297 . S
O152 C147 1.247 . S
O153 Cd142 2.439 . S
O153 C147 1.208 . S
O154 Cd155 2.223 1_554 S
O154 C162 1.315 1_554 S
Cd155 O154 2.223 1_556 S
Cd155 O158 2.297 1_556 S
Cd155 O159 2.439 . S
Cd155 O165 2.240 . S
Cd156 O157 2.240 . S
Cd156 O164 2.223 . S
Cd156 O166 2.297 . S
Cd156 O167 2.439 . S
O157 Cd156 2.240 . S
O157 C162 1.279 . S
O158 Cd155 2.297 1_554 S
O158 C160 1.247 1_554 S
O159 Cd155 2.439 . S
O159 C160 1.208 . S
C160 O158 1.247 1_556 S
C160 O159 1.208 . S
C161 O166 1.247 . S
C161 O167 1.208 . S
C162 O154 1.315 1_556 S
C162 O157 1.279 . S
C163 O164 1.315 . S
C163 O165 1.279 . S
O164 Cd156 2.223 . S
O164 C163 1.315 . S
O165 Cd155 2.240 . S
O165 C163 1.279 . S
O166 Cd156 2.297 . S
O166 C161 1.247 . S
O167 Cd156 2.439 . S
O167 C161 1.208 . S
O168 Cd169 2.223 . S
O168 C176 1.315 . S
Cd169 O168 2.223 . S
Cd169 O172 2.297 . S
Cd169 O173 2.439 . S
Cd169 O179 2.240 . S
Cd170 O171 2.240 . S
Cd170 O178 2.223 . S
Cd170 O180 2.297 . S
Cd170 O181 2.439 . S
O171 Cd170 2.240 . S
O171 C176 1.279 . S
O172 Cd169 2.297 . S
O172 C174 1.247 . S
O173 Cd169 2.439 . S
O173 C174 1.208 . S
C174 O172 1.247 . S
C174 O173 1.208 . S
C175 O180 1.247 . S
C175 O181 1.208 . S
C176 O168 1.315 . S
C176 O171 1.279 . S
C177 O178 1.315 . S
C177 O179 1.279 . S
O178 Cd170 2.223 . S
O178 C177 1.315 . S
O179 Cd169 2.240 . S
O179 C177 1.279 . S
O180 Cd170 2.297 . S
O180 C175 1.247 . S
O181 Cd170 2.439 . S
O181 C175 1.208 . S
O182 Cd183 2.223 . S
O182 C190 1.315 . S
Cd183 O182 2.223 . S
Cd183 O186 2.297 . S
Cd183 O187 2.439 . S
Cd183 O193 2.240 . S
Cd184 O185 2.240 . S
Cd184 O192 2.223 . S
Cd184 O194 2.297 . S
Cd184 O195 2.439 . S
O185 Cd184 2.240 . S
O185 C190 1.279 . S
O186 Cd183 2.297 . S
O186 C188 1.247 . S
O187 Cd183 2.439 . S
O187 C188 1.208 . S
C188 O186 1.247 . S
C188 O187 1.208 . S
C189 O194 1.247 . S
C189 O195 1.208 . S
C190 O182 1.315 . S
C190 O185 1.279 . S
C191 O192 1.315 . S
C191 O193 1.279 . S
O192 Cd184 2.223 . S
O192 C191 1.315 . S
O193 Cd183 2.240 . S
O193 C191 1.279 . S
O194 Cd184 2.297 . S
O194 C189 1.247 . S
O195 Cd184 2.439 . S
O195 C189 1.208 . S
O196 Cd197 2.223 . S
O196 C204 1.315 . S
Cd197 O196 2.223 . S
Cd197 O200 2.297 . S
Cd197 O201 2.439 . S
Cd197 O207 2.240 . S
Cd198 O199 2.240 . S
Cd198 O206 2.223 . S
Cd198 O208 2.297 . S
Cd198 O209 2.439 . S
O199 Cd198 2.240 . S
O199 C204 1.279 . S
O200 Cd197 2.297 . S
O200 C202 1.247 . S
O201 Cd197 2.439 . S
O201 C202 1.208 . S
C202 O200 1.247 . S
C202 O201 1.208 . S
C203 O208 1.247 . S
C203 O209 1.208 . S
C204 O196 1.315 . S
C204 O199 1.279 . S
C205 O206 1.315 . S
C205 O207 1.279 . S
O206 Cd198 2.223 . S
O206 C205 1.315 . S
O207 Cd197 2.240 . S
O207 C205 1.279 . S
O208 Cd198 2.297 . S
O208 C203 1.247 . S
O209 Cd198 2.439 . S
O209 C203 1.208 . S
O210 Cd211 2.223 . S
O210 C218 1.315 . S
Cd211 O210 2.223 . S
Cd211 O214 2.297 . S
Cd211 O215 2.439 . S
Cd211 O221 2.240 . S
Cd212 O213 2.240 . S
Cd212 O220 2.223 . S
Cd212 O222 2.297 . S
Cd212 O223 2.439 . S
O213 Cd212 2.240 . S
O213 C218 1.279 . S
O214 Cd211 2.297 . S
O214 C216 1.247 . S
O215 Cd211 2.439 . S
O215 C216 1.208 . S
C216 O214 1.247 . S
C216 O215 1.208 . S
C217 O222 1.247 . S
C217 O223 1.208 . S
C218 O210 1.315 . S
C218 O213 1.279 . S
C219 O220 1.315 . S
C219 O221 1.279 . S
O220 Cd212 2.223 . S
O220 C219 1.315 . S
O221 Cd211 2.240 . S
O221 C219 1.279 . S
O222 Cd212 2.297 . S
O222 C217 1.247 . S
O223 Cd212 2.439 . S
O223 C217 1.208 . S
C224 C225 1.369 1_556 S
C224 C226 1.419 . S
C224 H228 0.930 . S
C225 C224 1.369 1_554 S
C225 C234 1.429 . S
C226 C224 1.419 . S
C226 C227 1.363 . S
C226 H229 0.929 . S
C227 C226 1.363 . S
C227 C233 1.428 1_556 S
H228 C224 0.930 . S
H229 C226 0.929 . S
S230 N231 1.613 . S
S230 N232 1.610 . S
N231 S230 1.613 . S
N231 C234 1.350 . S
N232 S230 1.610 . S
N232 C233 1.351 . S
C233 C227 1.428 1_554 S
C233 N232 1.351 . S
C233 C234 1.434 . S
C234 C225 1.429 . S
C234 N231 1.350 . S
C234 C233 1.434 . S
C235 C236 1.369 . S
C235 C237 1.419 1_556 S
C235 H239 0.930 . S
C236 C235 1.369 . S
C236 C245 1.429 . S
C237 C235 1.419 1_554 S
C237 C238 1.363 . S
C237 H240 0.929 . S
C238 C237 1.363 . S
C238 C244 1.428 . S
H239 C235 0.930 . S
H240 C237 0.929 . S
S241 N242 1.613 1_554 S
S241 N243 1.610 . S
N242 S241 1.613 1_556 S
N242 C245 1.350 . S
N243 S241 1.610 . S
N243 C244 1.351 . S
C244 C238 1.428 . S
C244 N243 1.351 . S
C244 C245 1.434 1_554 S
C245 C236 1.429 . S
C245 N242 1.350 . S
C245 C244 1.434 1_556 S
C246 C247 1.369 1_554 S
C246 C248 1.419 . S
C246 H250 0.930 . S
C247 C246 1.369 1_556 S
C247 C256 1.429 . S
C248 C246 1.419 . S
C248 C249 1.363 . S
C248 H251 0.929 . S
C249 C248 1.363 . S
C249 C255 1.428 1_554 S
H250 C246 0.930 . S
H251 C248 0.929 . S
S252 N253 1.613 . S
S252 N254 1.610 . S
N253 S252 1.613 . S
N253 C256 1.350 . S
N254 S252 1.610 . S
N254 C255 1.351 . S
C255 C249 1.428 1_556 S
C255 N254 1.351 . S
C255 C256 1.434 . S
C256 C247 1.429 . S
C256 N253 1.350 . S
C256 C255 1.434 . S
C257 C258 1.369 1_554 S
C257 C259 1.419 . S
C257 H261 0.930 . S
C258 C257 1.369 1_556 S
C258 C267 1.429 . S
C259 C257 1.419 . S
C259 C260 1.363 . S
C259 H262 0.929 . S
C260 C259 1.363 . S
C260 C266 1.428 1_554 S
H261 C257 0.930 . S
H262 C259 0.929 . S
S263 N264 1.613 . S
S263 N265 1.610 . S
N264 S263 1.613 . S
N264 C267 1.350 . S
N265 S263 1.610 . S
N265 C266 1.351 . S
C266 C260 1.428 1_556 S
C266 N265 1.351 . S
C266 C267 1.434 . S
C267 C258 1.429 . S
C267 N264 1.350 . S
C267 C266 1.434 . S
C268 C269 1.369 . S
C268 C270 1.419 . S
C268 H272 0.930 . S
C269 C268 1.369 . S
C269 C278 1.429 . S
C270 C268 1.419 . S
C270 C271 1.363 . S
C270 H273 0.929 . S
C271 C270 1.363 . S
C271 C277 1.428 . S
H272 C268 0.930 . S
H273 C270 0.929 . S
S274 N275 1.613 . S
S274 N276 1.610 . S
N275 S274 1.613 . S
N275 C278 1.350 . S
N276 S274 1.610 . S
N276 C277 1.351 . S
C277 C271 1.428 . S
C277 N276 1.351 . S
C277 C278 1.434 . S
C278 C269 1.429 . S
C278 N275 1.350 . S
C278 C277 1.434 . S
C279 C280 1.369 . S
C279 C281 1.419 . S
C279 H283 0.930 . S
C280 C279 1.369 . S
C280 C289 1.429 . S
C281 C279 1.419 . S
C281 C282 1.363 . S
C281 H284 0.929 . S
C282 C281 1.363 . S
C282 C288 1.428 . S
H283 C279 0.930 . S
H284 C281 0.929 . S
S285 N286 1.613 . S
S285 N287 1.610 . S
N286 S285 1.613 . S
N286 C289 1.350 . S
N287 S285 1.610 . S
N287 C288 1.351 . S
C288 C282 1.428 . S
C288 N287 1.351 . S
C288 C289 1.434 . S
C289 C280 1.429 . S
C289 N286 1.350 . S
C289 C288 1.434 . S
C290 C291 1.369 . S
C290 C292 1.419 . S
C290 H294 0.930 . S
C291 C290 1.369 . S
C291 C300 1.429 . S
C292 C290 1.419 . S
C292 C293 1.363 . S
C292 H295 0.929 . S
C293 C292 1.363 . S
C293 C299 1.428 . S
H294 C290 0.930 . S
H295 C292 0.929 . S
S296 N297 1.613 . S
S296 N298 1.610 . S
N297 S296 1.613 . S
N297 C300 1.350 . S
N298 S296 1.610 . S
N298 C299 1.351 . S
C299 C293 1.428 . S
C299 N298 1.351 . S
C299 C300 1.434 . S
C300 C291 1.429 . S
C300 N297 1.350 . S
C300 C299 1.434 . S
C301 C302 1.369 . S
C301 C303 1.419 . S
C301 H305 0.930 . S
C302 C301 1.369 . S
C302 C311 1.429 . S
C303 C301 1.419 . S
C303 C304 1.363 . S
C303 H306 0.929 . S
C304 C303 1.363 . S
C304 C310 1.428 . S
H305 C301 0.930 . S
H306 C303 0.929 . S
S307 N308 1.613 . S
S307 N309 1.610 . S
N308 S307 1.613 . S
N308 C311 1.350 . S
N309 S307 1.610 . S
N309 C310 1.351 . S
C310 C304 1.428 . S
C310 N309 1.351 . S
C310 C311 1.434 . S
C311 C302 1.429 . S
C311 N308 1.350 . S
C311 C310 1.434 . S
C312 C313 1.369 1_554 S
C312 C314 1.419 . S
C312 H316 0.930 . S
C313 C312 1.369 1_556 S
C313 C322 1.429 . S
C314 C312 1.419 . S
C314 C315 1.363 . S
C314 H317 0.929 . S
C315 C314 1.363 . S
C315 C321 1.428 1_554 S
H316 C312 0.930 . S
H317 C314 0.929 . S
S318 N319 1.613 . S
S318 N320 1.610 . S
N319 S318 1.613 . S
N319 C322 1.350 . S
N320 S318 1.610 . S
N320 C321 1.351 . S
C321 C315 1.428 1_556 S
C321 N320 1.351 . S
C321 C322 1.434 . S
C322 C313 1.429 . S
C322 N319 1.350 . S
C322 C321 1.434 . S
C323 C324 1.369 . S
C323 C325 1.419 . S
C323 H327 0.930 . S
C324 C323 1.369 . S
C324 C333 1.429 1_556 S
C325 C323 1.419 . S
C325 C326 1.363 1_556 S
C325 H328 0.929 . S
C326 C325 1.363 1_554 S
C326 C332 1.428 . S
H327 C323 0.930 . S
H328 C325 0.929 . S
S329 N330 1.613 . S
S329 N331 1.610 . S
N330 S329 1.613 . S
N330 C333 1.350 . S
N331 S329 1.610 . S
N331 C332 1.351 . S
C332 C326 1.428 . S
C332 N331 1.351 . S
C332 C333 1.434 . S
C333 C324 1.429 1_554 S
C333 N330 1.350 . S
C333 C332 1.434 . S
C334 C335 1.369 . S
C334 C336 1.419 . S
C334 H338 0.930 . S
C335 C334 1.369 . S
C335 C344 1.429 1_556 S
C336 C334 1.419 . S
C336 C337 1.363 1_556 S
C336 H339 0.929 . S
C337 C336 1.363 1_554 S
C337 C343 1.428 . S
H338 C334 0.930 . S
H339 C336 0.929 . S
S340 N341 1.613 . S
S340 N342 1.610 . S
N341 S340 1.613 . S
N341 C344 1.350 . S
N342 S340 1.610 . S
N342 C343 1.351 . S
C343 C337 1.428 . S
C343 N342 1.351 . S
C343 C344 1.434 . S
C344 C335 1.429 1_554 S
C344 N341 1.350 . S
C344 C343 1.434 . S
C345 C346 1.369 1_556 S
C345 C347 1.419 . S
C345 H349 0.930 . S
C346 C345 1.369 1_554 S
C346 C355 1.429 . S
C347 C345 1.419 . S
C347 C348 1.363 . S
C347 H350 0.929 . S
C348 C347 1.363 . S
C348 C354 1.428 . S
H349 C345 0.930 . S
H350 C347 0.929 . S
S351 N352 1.613 . S
S351 N353 1.613 . S
N352 S351 1.613 . S
N352 C355 1.350 . S
N353 S351 1.613 . S
N353 C354 1.351 1_554 S
C354 C348 1.428 . S
C354 N353 1.351 1_556 S
C354 C355 1.434 1_556 S
C355 C346 1.429 . S
C355 N352 1.350 . S
C355 C354 1.434 1_554 S
C356 C357 1.369 . S
C356 C358 1.419 . S
C356 H360 0.930 . S
C357 C356 1.369 . S
C357 C366 1.429 . S
C358 C356 1.419 . S
C358 C359 1.363 . S
C358 H361 0.929 . S
C359 C358 1.363 . S
C359 C365 1.428 . S
H360 C356 0.930 . S
H361 C358 0.929 . S
S362 N363 1.613 . S
S362 N364 1.610 . S
N363 S362 1.613 . S
N363 C366 1.350 . S
N364 S362 1.610 . S
N364 C365 1.351 . S
C365 C359 1.428 . S
C365 N364 1.351 . S
C365 C366 1.434 . S
C366 C357 1.429 . S
C366 N363 1.350 . S
C366 C365 1.434 . S
C367 C368 1.369 . S
C367 C369 1.419 . S
C367 H371 0.930 . S
C368 C367 1.369 . S
C368 C377 1.429 . S
C369 C367 1.419 . S
C369 C370 1.363 . S
C369 H372 0.929 . S
C370 C369 1.363 . S
C370 C376 1.428 . S
H371 C367 0.930 . S
H372 C369 0.929 . S
S373 N374 1.613 . S
S373 N375 1.610 . S
N374 S373 1.613 . S
N374 C377 1.350 . S
N375 S373 1.610 . S
N375 C376 1.351 . S
C376 C370 1.428 . S
C376 N375 1.351 . S
C376 C377 1.434 . S
C377 C368 1.429 . S
C377 N374 1.350 . S
C377 C376 1.434 . S
C378 C379 1.369 . S
C378 C380 1.419 . S
C378 H382 0.930 . S
C379 C378 1.369 . S
C379 C388 1.429 . S
C380 C378 1.419 . S
C380 C381 1.363 . S
C380 H383 0.929 . S
C381 C380 1.363 . S
C381 C387 1.428 . S
H382 C378 0.930 . S
H383 C380 0.929 . S
S384 N385 1.613 . S
S384 N386 1.610 . S
N385 S384 1.613 . S
N385 C388 1.350 . S
N386 S384 1.610 . S
N386 C387 1.351 . S
C387 C381 1.428 . S
C387 N386 1.351 . S
C387 C388 1.434 . S
C388 C379 1.429 . S
C388 N385 1.350 . S
C388 C387 1.434 . S
C389 C390 1.369 . S
C389 C391 1.419 . S
C389 H393 0.930 . S
C390 C389 1.369 . S
C390 C399 1.429 . S
C391 C389 1.419 . S
C391 C392 1.363 . S
C391 H394 0.929 . S
C392 C391 1.363 . S
C392 C398 1.428 . S
H393 C389 0.930 . S
H394 C391 0.929 . S
S395 N396 1.613 . S
S395 N397 1.610 . S
N396 S395 1.613 . S
N396 C399 1.350 . S
N397 S395 1.610 . S
N397 C398 1.351 . S
C398 C392 1.428 . S
C398 N397 1.351 . S
C398 C399 1.434 . S
C399 C390 1.429 . S
C399 N396 1.350 . S
C399 C398 1.434 . S
C400 C401 1.369 . S
C400 C402 1.419 1_565 S
C400 H404 0.930 . S
C401 C400 1.369 . S
C401 C410 1.429 1_556 S
C402 C400 1.419 1_545 S
C402 C403 1.363 1_556 S
C402 H405 0.929 . S
C403 C402 1.363 1_554 S
C403 C409 1.428 . S
H404 C400 0.930 . S
H405 C402 0.929 . S
S406 N407 1.613 . S
S406 N408 1.610 1_565 S
N407 S406 1.613 . S
N407 C410 1.350 . S
N408 S406 1.610 1_545 S
N408 C409 1.351 . S
C409 C403 1.428 . S
C409 N408 1.351 . S
C409 C410 1.434 1_545 S
C410 C401 1.429 1_554 S
C410 N407 1.350 . S
C410 C409 1.434 1_565 S
C411 C412 1.369 1_556 S
C411 C413 1.419 . S
C411 H415 0.930 . S
C412 C411 1.369 1_554 S
C412 C421 1.429 . S
C413 C411 1.419 . S
C413 C414 1.363 . S
C413 H416 0.929 . S
C414 C413 1.363 . S
C414 C420 1.428 1_556 S
H415 C411 0.930 . S
H416 C413 0.929 . S
S417 N418 1.613 . S
S417 N419 1.610 . S
N418 S417 1.613 . S
N418 C421 1.350 . S
N419 S417 1.610 . S
N419 C420 1.351 . S
C420 C414 1.428 1_554 S
C420 N419 1.351 . S
C420 C421 1.434 . S
C421 C412 1.429 . S
C421 N418 1.350 . S
C421 C420 1.434 . S
C422 C423 1.369 1_454 S
C422 C424 1.419 . S
C422 H426 0.930 . S
C423 C422 1.369 1_656 S
C423 C432 1.429 . S
C424 C422 1.419 . S
C424 C425 1.363 . S
C424 H427 0.929 . S
C425 C424 1.363 . S
C425 C431 1.428 1_454 S
H426 C422 0.930 . S
H427 C424 0.929 . S
S428 N429 1.613 . S
S428 N430 1.610 . S
N429 S428 1.613 . S
N429 C432 1.350 . S
N430 S428 1.610 . S
N430 C431 1.351 . S
C431 C425 1.428 1_656 S
C431 N430 1.351 . S
C431 C432 1.434 . S
C432 C423 1.429 . S
C432 N429 1.350 . S
C432 C431 1.434 . S
C433 C434 1.369 1_566 S
C433 C435 1.419 1_455 S
C433 H437 0.930 . S
C434 C433 1.369 1_544 S
C434 C443 1.429 . S
C435 C433 1.419 1_655 S
C435 C436 1.363 . S
C435 H438 0.929 . S
C436 C435 1.363 . S
C436 C442 1.428 1_566 S
H437 C433 0.930 . S
H438 C435 0.929 . S
S439 N440 1.613 1_655 S
S439 N441 1.610 . S
N440 S439 1.613 1_455 S
N440 C443 1.350 . S
N441 S439 1.610 . S
N441 C442 1.351 . S
C442 C436 1.428 1_544 S
C442 N441 1.351 . S
C442 C443 1.434 1_655 S
C443 C434 1.429 . S
C443 N440 1.350 . S
C443 C442 1.434 1_455 S
C444 C445 1.369 . S
C444 C446 1.419 . S
C444 H448 0.930 . S
C445 C444 1.369 . S
C445 C454 1.429 . S
C446 C444 1.419 . S
C446 C447 1.363 . S
C446 H449 0.929 . S
C447 C446 1.363 . S
C447 C453 1.428 . S
H448 C444 0.930 . S
H449 C446 0.929 . S
S450 N451 1.613 . S
S450 N452 1.610 . S
N451 S450 1.613 . S
N451 C454 1.350 . S
N452 S450 1.610 . S
N452 C453 1.351 . S
C453 C447 1.428 . S
C453 N452 1.351 . S
C453 C454 1.434 . S
C454 C445 1.429 . S
C454 N451 1.350 . S
C454 C453 1.434 . S
C455 C456 1.369 . S
C455 C457 1.419 1_455 S
C455 H459 0.930 . S
C456 C455 1.369 . S
C456 C465 1.429 . S
C457 C455 1.419 1_655 S
C457 C458 1.363 . S
C457 H460 0.929 . S
C458 C457 1.363 . S
C458 C464 1.428 . S
H459 C455 0.930 . S
H460 C457 0.929 . S
S461 N462 1.613 1_655 S
S461 N463 1.610 . S
N462 S461 1.613 1_455 S
N462 C465 1.350 . S
N463 S461 1.610 . S
N463 C464 1.351 . S
C464 C458 1.428 . S
C464 N463 1.351 . S
C464 C465 1.434 1_655 S
C465 C456 1.429 . S
C465 N462 1.350 . S
C465 C464 1.434 1_455 S
C466 C467 1.369 . S
C466 C468 1.419 1_565 S
C466 H470 0.930 . S
C467 C466 1.369 . S
C467 C476 1.429 1_655 S
C468 C466 1.419 1_545 S
C468 C469 1.363 1_655 S
C468 H471 0.929 . S
C469 C468 1.363 1_455 S
C469 C475 1.428 . S
H470 C466 0.930 . S
H471 C468 0.929 . S
S472 N473 1.613 . S
S472 N474 1.610 1_565 S
N473 S472 1.613 . S
N473 C476 1.350 . S
N474 S472 1.610 1_545 S
N474 C475 1.351 . S
C475 C469 1.428 . S
C475 N474 1.351 . S
C475 C476 1.434 1_545 S
C476 C467 1.429 1_455 S
C476 N473 1.350 . S
C476 C475 1.434 1_565 S
C477 C478 1.369 . S
C477 C479 1.419 . S
C477 H481 0.930 . S
C478 C477 1.369 . S
C478 C487 1.429 1_565 S
C479 C477 1.419 . S
C479 C480 1.363 1_565 S
C479 H482 0.929 . S
C480 C479 1.363 1_545 S
C480 C486 1.428 . S
H481 C477 0.930 . S
H482 C479 0.929 . S
S483 N484 1.613 . S
S483 N485 1.610 . S
N484 S483 1.613 . S
N484 C487 1.350 . S
N485 S483 1.610 . S
N485 C486 1.351 . S
C486 C480 1.428 . S
C486 N485 1.351 . S
C486 C487 1.434 . S
C487 C478 1.429 1_545 S
C487 N484 1.350 . S
C487 C486 1.434 . S
C488 C489 1.369 . S
C488 C490 1.419 . S
C488 H492 0.930 . S
C489 C488 1.369 . S
C489 C498 1.429 . S
C490 C488 1.419 . S
C490 C491 1.363 . S
C490 H493 0.929 . S
C491 C490 1.363 . S
C491 C497 1.428 . S
H492 C488 0.930 . S
H493 C490 0.929 . S
S494 N495 1.613 . S
S494 N496 1.610 . S
N495 S494 1.613 . S
N495 C498 1.350 . S
N496 S494 1.610 . S
N496 C497 1.351 . S
C497 C491 1.428 . S
C497 N496 1.351 . S
C497 C498 1.434 . S
C498 C489 1.429 . S
C498 N495 1.350 . S
C498 C497 1.434 . S
C499 C500 1.369 . S
C499 C501 1.419 . S
C499 H503 0.930 . S
C500 C499 1.369 . S
C500 C509 1.429 . S
C501 C499 1.419 . S
C501 C502 1.363 . S
C501 H504 0.929 . S
C502 C501 1.363 . S
C502 C508 1.428 . S
H503 C499 0.930 . S
H504 C501 0.929 . S
S505 N506 1.613 . S
S505 N507 1.610 . S
N506 S505 1.613 . S
N506 C509 1.350 . S
N507 S505 1.610 . S
N507 C508 1.351 . S
C508 C502 1.428 . S
C508 N507 1.351 . S
C508 C509 1.434 . S
C509 C500 1.429 . S
C509 N506 1.350 . S
C509 C508 1.434 . S
C510 C511 1.369 . S
C510 C512 1.419 . S
C510 H514 0.930 . S
C511 C510 1.369 . S
C511 C520 1.429 . S
C512 C510 1.419 . S
C512 C513 1.363 . S
C512 H515 0.929 . S
C513 C512 1.363 . S
C513 C519 1.428 . S
H514 C510 0.930 . S
H515 C512 0.929 . S
S516 N517 1.613 . S
S516 N518 1.610 . S
N517 S516 1.613 . S
N517 C520 1.350 1_455 S
N518 S516 1.610 . S
N518 C519 1.351 1_455 S
C519 C513 1.428 . S
C519 N518 1.351 1_655 S
C519 C520 1.434 . S
C520 C511 1.429 . S
C520 N517 1.350 1_655 S
C520 C519 1.434 . S
C521 C522 1.369 . S
C521 C523 1.419 . S
C521 H525 0.930 . S
C522 C521 1.369 . S
C522 C531 1.429 . S
C523 C521 1.419 . S
C523 C524 1.363 . S
C523 H526 0.929 . S
C524 C523 1.363 . S
C524 C530 1.428 . S
H525 C521 0.930 . S
H526 C523 0.929 . S
S527 N528 1.613 . S
S527 N529 1.610 . S
N528 S527 1.613 . S
N528 C531 1.350 1_545 S
N529 S527 1.610 . S
N529 C530 1.351 1_545 S
C530 C524 1.428 . S
C530 N529 1.351 1_565 S
C530 C531 1.434 . S
C531 C522 1.429 . S
C531 N528 1.350 1_565 S
C531 C530 1.434 . S
C532 C533 1.369 . S
C532 C534 1.419 . S
C532 H536 0.930 . S
C533 C532 1.369 . S
C533 C542 1.429 . S
C534 C532 1.419 . S
C534 C535 1.363 . S
C534 H537 0.929 . S
C535 C534 1.363 . S
C535 C541 1.428 . S
H536 C532 0.930 . S
H537 C534 0.929 . S
S538 N539 1.613 . S
S538 N540 1.610 . S
N539 S538 1.613 . S
N539 C542 1.350 . S
N540 S538 1.610 . S
N540 C541 1.351 . S
C541 C535 1.428 . S
C541 N540 1.351 . S
C541 C542 1.434 . S
C542 C533 1.429 . S
C542 N539 1.350 . S
C542 C541 1.434 . S
C543 C544 1.369 . S
C543 C545 1.419 . S
C543 H547 0.930 . S
C544 C543 1.369 . S
C544 C553 1.429 . S
C545 C543 1.419 . S
C545 C546 1.363 . S
C545 H548 0.929 . S
C546 C545 1.363 . S
C546 C552 1.428 . S
H547 C543 0.930 . S
H548 C545 0.929 . S
S549 N550 1.613 . S
S549 N551 1.610 . S
N550 S549 1.613 . S
N550 C553 1.350 . S
N551 S549 1.610 . S
N551 C552 1.351 . S
C552 C546 1.428 . S
C552 N551 1.351 . S
C552 C553 1.434 . S
C553 C544 1.429 . S
C553 N550 1.350 . S
C553 C552 1.434 . S
C554 C555 1.369 . S
C554 C556 1.419 . S
C554 H558 0.930 1_455 S
C555 C554 1.369 . S
C555 C564 1.429 . S
C556 C554 1.419 . S
C556 C557 1.363 . S
C556 H559 0.929 1_455 S
C557 C556 1.363 . S
C557 C563 1.428 . S
H558 C554 0.930 1_655 S
H559 C556 0.929 1_655 S
S560 N561 1.613 . S
S560 N562 1.610 . S
N561 S560 1.613 . S
N561 C564 1.350 . S
N562 S560 1.610 . S
N562 C563 1.351 . S
C563 C557 1.428 . S
C563 N562 1.351 . S
C563 C564 1.434 . S
C564 C555 1.429 . S
C564 N561 1.350 . S
C564 C563 1.434 . S
C565 C566 1.369 . S
C565 C567 1.419 . S
C565 H569 0.930 . S
C566 C565 1.369 . S
C566 C575 1.429 . S
C567 C565 1.419 . S
C567 C568 1.363 . S
C567 H570 0.929 . S
C568 C567 1.363 . S
C568 C574 1.428 . S
H569 C565 0.930 . S
H570 C567 0.929 . S
S571 N572 1.613 . S
S571 N573 1.610 . S
N572 S571 1.613 . S
N572 C575 1.350 . S
N573 S571 1.610 . S
N573 C574 1.351 . S
C574 C568 1.428 . S
C574 N573 1.351 . S
C574 C575 1.434 . S
C575 C566 1.429 . S
C575 N572 1.350 . S
C575 C574 1.434 . S
C225 C9 1.214 . S
C227 C134 1.272 . S
C236 C148 1.270 . S
C238 C23 1.219 . S
C247 C162 1.271 . S
C249 C37 1.222 . S
C258 C120 1.271 . S
C260 C51 1.222 . S
C269 C65 1.213 . S
C271 C218 1.272 . S
C280 C176 1.274 . S
C282 C79 1.221 . S
C291 C190 1.276 . S
C293 C93 1.215 . S
C302 C204 1.276 . S
C304 C107 1.213 . S
C313 C121 1.216 . S
C315 C22 1.271 . S
C324 C135 1.220 . S
C326 C36 1.275 . S
C335 C149 1.220 . S
C337 C50 1.275 . S
C346 C8 1.276 . S
C348 C163 1.214 . S
C357 C177 1.216 . S
C359 C106 1.275 . S
C368 C191 1.223 . S
C370 C64 1.274 . S
C379 C78 1.272 . S
C381 C205 1.222 . S
C390 C219 1.212 . S
C392 C92 1.275 . S
C401 C118 1.633 . S
C403 C6 1.643 . S
C412 C20 1.643 . S
C414 C132 1.636 . S
C423 C146 1.645 1_655 S
C425 C34 1.635 1_455 S
C434 C48 1.642 1_545 S
C436 C160 1.637 1_565 S
C445 C174 1.641 . S
C447 C62 1.638 . S
C456 C76 1.640 . S
C458 C188 1.638 . S
C467 C202 1.634 1_655 S
C469 C90 1.643 1_455 S
C478 C216 1.643 1_565 S
C480 C104 1.636 1_545 S
C489 C63 1.555 . S
C491 C7 1.553 . S
C500 C77 1.555 . S
C502 C21 1.557 . S
C511 C35 1.556 . S
C513 C91 1.557 . S
C522 C105 1.556 . S
C524 C49 1.557 . S
C533 C119 1.556 . S
C535 C175 1.554 . S
C544 C189 1.558 . S
C546 C133 1.558 . S
C555 C203 1.552 . S
C557 C147 1.553 . S
C566 C217 1.556 . S
C568 C161 1.556 . S
