# Generated by pormake.
# Topology afi, (4)-cn, num edge types: 1
# Building blocks:
#     Node 0, Type 0, BuildingBlock: NAHDIM_clean_sbu_0, # of connection points: 4
#     Node 1, Type 0, BuildingBlock: NAHDIM_clean_sbu_0, # of connection points: 4
#     Node 2, Type 0, BuildingBlock: NAHDIM_clean_sbu_0, # of connection points: 4
#     Node 3, Type 0, BuildingBlock: NAHDIM_clean_sbu_0, # of connection points: 4
#     Node 4, Type 0, BuildingBlock: NAHDIM_clean_sbu_0, # of connection points: 4
#     Node 5, Type 0, BuildingBlock: NAHDIM_clean_sbu_0, # of connection points: 4
#     Node 6, Type 0, BuildingBlock: NAHDIM_clean_sbu_0, # of connection points: 4
#     Node 7, Type 0, BuildingBlock: NAHDIM_clean_sbu_0, # of connection points: 4
#     Node 8, Type 0, BuildingBlock: NAHDIM_clean_sbu_0, # of connection points: 4
#     Node 9, Type 0, BuildingBlock: NAHDIM_clean_sbu_0, # of connection points: 4
#     Node 10, Type 0, BuildingBlock: NAHDIM_clean_sbu_0, # of connection points: 4
#     Node 11, Type 0, BuildingBlock: NAHDIM_clean_sbu_0, # of connection points: 4
#     Node 12, Type 0, BuildingBlock: NAHDIM_clean_sbu_0, # of connection points: 4
#     Node 13, Type 0, BuildingBlock: NAHDIM_clean_sbu_0, # of connection points: 4
#     Node 14, Type 0, BuildingBlock: NAHDIM_clean_sbu_0, # of connection points: 4
#     Node 15, Type 0, BuildingBlock: NAHDIM_clean_sbu_0, # of connection points: 4
#     Node 16, Type 0, BuildingBlock: NAHDIM_clean_sbu_0, # of connection points: 4
#     Node 17, Type 0, BuildingBlock: NAHDIM_clean_sbu_0, # of connection points: 4
#     Node 18, Type 0, BuildingBlock: NAHDIM_clean_sbu_0, # of connection points: 4
#     Node 19, Type 0, BuildingBlock: NAHDIM_clean_sbu_0, # of connection points: 4
#     Node 20, Type 0, BuildingBlock: NAHDIM_clean_sbu_0, # of connection points: 4
#     Node 21, Type 0, BuildingBlock: NAHDIM_clean_sbu_0, # of connection points: 4
#     Node 22, Type 0, BuildingBlock: NAHDIM_clean_sbu_0, # of connection points: 4
#     Node 23, Type 0, BuildingBlock: NAHDIM_clean_sbu_0, # of connection points: 4
#     Edge 24, Type (0, 0), BuildingBlock: UVAHIK_clean_linker_0, # of connection points: 2
#     Edge 25, Type (0, 0), BuildingBlock: UVAHIK_clean_linker_0, # of connection points: 2
#     Edge 26, Type (0, 0), BuildingBlock: UVAHIK_clean_linker_0, # of connection points: 2
#     Edge 27, Type (0, 0), BuildingBlock: UVAHIK_clean_linker_0, # of connection points: 2
#     Edge 28, Type (0, 0), BuildingBlock: UVAHIK_clean_linker_0, # of connection points: 2
#     Edge 29, Type (0, 0), BuildingBlock: UVAHIK_clean_linker_0, # of connection points: 2
#     Edge 30, Type (0, 0), BuildingBlock: UVAHIK_clean_linker_0, # of connection points: 2
#     Edge 31, Type (0, 0), BuildingBlock: UVAHIK_clean_linker_0, # of connection points: 2
#     Edge 32, Type (0, 0), BuildingBlock: UVAHIK_clean_linker_0, # of connection points: 2
#     Edge 33, Type (0, 0), BuildingBlock: UVAHIK_clean_linker_0, # of connection points: 2
#     Edge 34, Type (0, 0), BuildingBlock: UVAHIK_clean_linker_0, # of connection points: 2
#     Edge 35, Type (0, 0), BuildingBlock: UVAHIK_clean_linker_0, # of connection points: 2
#     Edge 36, Type (0, 0), BuildingBlock: UVAHIK_clean_linker_0, # of connection points: 2
#     Edge 37, Type (0, 0), BuildingBlock: UVAHIK_clean_linker_0, # of connection points: 2
#     Edge 38, Type (0, 0), BuildingBlock: UVAHIK_clean_linker_0, # of connection points: 2
#     Edge 39, Type (0, 0), BuildingBlock: UVAHIK_clean_linker_0, # of connection points: 2
#     Edge 40, Type (0, 0), BuildingBlock: UVAHIK_clean_linker_0, # of connection points: 2
#     Edge 41, Type (0, 0), BuildingBlock: UVAHIK_clean_linker_0, # of connection points: 2
#     Edge 42, Type (0, 0), BuildingBlock: UVAHIK_clean_linker_0, # of connection points: 2
#     Edge 43, Type (0, 0), BuildingBlock: UVAHIK_clean_linker_0, # of connection points: 2
#     Edge 44, Type (0, 0), BuildingBlock: UVAHIK_clean_linker_0, # of connection points: 2
#     Edge 45, Type (0, 0), BuildingBlock: UVAHIK_clean_linker_0, # of connection points: 2
#     Edge 46, Type (0, 0), BuildingBlock: UVAHIK_clean_linker_0, # of connection points: 2
#     Edge 47, Type (0, 0), BuildingBlock: UVAHIK_clean_linker_0, # of connection points: 2
#     Edge 48, Type (0, 0), BuildingBlock: UVAHIK_clean_linker_0, # of connection points: 2
#     Edge 49, Type (0, 0), BuildingBlock: UVAHIK_clean_linker_0, # of connection points: 2
#     Edge 50, Type (0, 0), BuildingBlock: UVAHIK_clean_linker_0, # of connection points: 2
#     Edge 51, Type (0, 0), BuildingBlock: UVAHIK_clean_linker_0, # of connection points: 2
#     Edge 52, Type (0, 0), BuildingBlock: UVAHIK_clean_linker_0, # of connection points: 2
#     Edge 53, Type (0, 0), BuildingBlock: UVAHIK_clean_linker_0, # of connection points: 2
#     Edge 54, Type (0, 0), BuildingBlock: UVAHIK_clean_linker_0, # of connection points: 2
#     Edge 55, Type (0, 0), BuildingBlock: UVAHIK_clean_linker_0, # of connection points: 2
#     Edge 56, Type (0, 0), BuildingBlock: UVAHIK_clean_linker_0, # of connection points: 2
#     Edge 57, Type (0, 0), BuildingBlock: UVAHIK_clean_linker_0, # of connection points: 2
#     Edge 58, Type (0, 0), BuildingBlock: UVAHIK_clean_linker_0, # of connection points: 2
#     Edge 59, Type (0, 0), BuildingBlock: UVAHIK_clean_linker_0, # of connection points: 2
#     Edge 60, Type (0, 0), BuildingBlock: UVAHIK_clean_linker_0, # of connection points: 2
#     Edge 61, Type (0, 0), BuildingBlock: UVAHIK_clean_linker_0, # of connection points: 2
#     Edge 62, Type (0, 0), BuildingBlock: UVAHIK_clean_linker_0, # of connection points: 2
#     Edge 63, Type (0, 0), BuildingBlock: UVAHIK_clean_linker_0, # of connection points: 2
#     Edge 64, Type (0, 0), BuildingBlock: UVAHIK_clean_linker_0, # of connection points: 2
#     Edge 65, Type (0, 0), BuildingBlock: UVAHIK_clean_linker_0, # of connection points: 2
#     Edge 66, Type (0, 0), BuildingBlock: UVAHIK_clean_linker_0, # of connection points: 2
#     Edge 67, Type (0, 0), BuildingBlock: UVAHIK_clean_linker_0, # of connection points: 2
#     Edge 68, Type (0, 0), BuildingBlock: UVAHIK_clean_linker_0, # of connection points: 2
#     Edge 69, Type (0, 0), BuildingBlock: UVAHIK_clean_linker_0, # of connection points: 2
#     Edge 70, Type (0, 0), BuildingBlock: UVAHIK_clean_linker_0, # of connection points: 2
#     Edge 71, Type (0, 0), BuildingBlock: UVAHIK_clean_linker_0, # of connection points: 2
# Relax obj value: 0.071
# Max RMSD: 0.082
# Mean RMSD: 0.082
data_MOF--net-afi--node1-NAHDIM_clean_sbu_0--edge1-UVAHIK_clean_linker_0
_symmetry_space_group_name_H-M    P1
_symmetry_Int_Tables_number       1
_symmetry_cell_setting            triclinic
loop_
_symmetry_equiv_pos_as_xyz
'x, y, z'
_cell_length_a     87.873271
_cell_length_b     50.773077
_cell_length_c     0.39274083
_cell_angle_alpha  90.019969
_cell_angle_beta   120.02969
_cell_angle_gamma 87.860099
loop_
_atom_site_label
_atom_site_type_symbol
_atom_site_fract_x
_atom_site_fract_y
_atom_site_fract_z
_atom_type_partial_charge
C0 C 0.43001 0.21565 29.30994 0.0
O1 O 0.4357 0.22087 26.87046 0.0
O2 O 0.46642 0.16885 30.62758 0.0
Zn3 Zn 0.44053 0.16433 28.33058 0.0
O4 O 0.42831 0.16911 22.4557 0.0
C5 C 0.4313 0.10975 27.32905 0.0
O6 O 0.42818 0.11431 23.73953 0.0
O7 O 0.43088 0.19197 30.45435 0.0
C8 C 0.41165 0.17203 20.49668 0.0
O9 O 0.40274 0.17177 22.36452 0.0
C10 C 0.47467 0.157 29.14885 0.0
O11 O 0.46603 0.14182 26.11736 0.0
O12 O 0.43661 0.12825 29.79097 0.0
C13 C 0.14114 0.67481 33.33113 0.0
O14 O 0.15492 0.68916 35.31761 0.0
O15 O 0.17188 0.69485 30.66005 0.0
Zn16 Zn 0.1572 0.66315 28.5821 0.0
O17 O 0.14427 0.66462 22.69453 0.0
C18 C 0.1794 0.62136 33.93897 0.0
O19 O 0.17465 0.63249 36.30318 0.0
O20 O 0.13956 0.66204 30.3973 0.0
C21 C 0.13631 0.64455 20.80241 0.0
O22 O 0.13691 0.62319 22.76242 0.0
C23 C 0.16556 0.7181 29.46039 0.0
O24 O 0.14887 0.72162 26.78045 0.0
O25 O 0.17331 0.63088 30.48604 0.0
C26 C 0.75975 0.43832 29.65012 0.0
O27 O 0.76261 0.43462 26.70178 0.0
O28 O 0.76542 0.5245 31.25053 0.0
Zn29 Zn 0.76962 0.4907 29.14674 0.0
O30 O 0.75542 0.49204 23.25506 0.0
C31 C 0.80144 0.47762 28.83455 0.0
O32 O 0.79052 0.47063 25.21714 0.0
O33 O 0.76208 0.46084 31.19732 0.0
C34 C 0.75555 0.5121 21.34057 0.0
O35 O 0.76513 0.53198 23.26915 0.0
C36 C 0.75036 0.53008 30.82763 0.0
O37 O 0.73773 0.51352 28.9916 0.0
O38 O 0.79537 0.4862 30.97903 0.0
C39 C 0.15913 1.26297 29.98969 0.0
O40 O 0.14272 1.25813 27.42803 0.0
O41 O 0.12651 1.30581 31.11631 0.0
Zn42 Zn 0.14368 1.31423 29.36127 0.0
O43 O 0.13079 1.31609 23.44734 0.0
C44 C 0.1583 1.36585 29.94843 0.0
O45 O 0.15647 1.3607 26.4898 0.0
O46 O 0.16289 1.28608 31.30926 0.0
C47 C 0.13847 1.31129 21.48735 0.0
O48 O 0.15546 1.30542 23.36507 0.0
C49 C 0.11283 1.32087 29.89025 0.0
O50 O 0.11052 1.34081 27.52273 0.0
O51 O 0.15387 1.34898 31.64492 0.0
C52 C 0.47239 0.79843 28.59301 0.0
O53 O 0.46221 0.78242 25.81642 0.0
O54 O 0.43708 0.77241 29.97383 0.0
Zn55 Zn 0.4404 0.80878 28.48206 0.0
O56 O 0.42613 0.81352 22.59814 0.0
C57 C 0.4331 0.83116 34.28646 0.0
O58 O 0.44086 0.80903 36.2115 0.0
O59 O 0.46586 0.81256 30.25439 0.0
C60 C 0.41079 0.82446 20.92703 0.0
O61 O 0.40418 0.8331 23.08936 0.0
C62 C 0.42192 0.76593 29.2341 0.0
O63 O 0.4086 0.78314 27.46205 0.0
O64 O 0.43206 0.83571 30.99479 0.0
C65 C -0.14636 1.01451 30.50076 0.0
O66 O -0.14283 1.00005 28.1869 0.0
O67 O -0.15473 0.94396 30.36622 0.0
Zn68 Zn -0.17144 0.9756 28.49009 0.0
O69 O -0.18176 0.98103 22.66579 0.0
C70 C -0.206 0.96428 27.15281 0.0
O71 O -0.20963 0.96183 23.49519 0.0
O72 O -0.15835 1.00763 31.17922 0.0
C73 C -0.18969 1.0029 21.08139 0.0
O74 O -0.19084 1.02134 23.3011 0.0
C75 C -0.15892 0.92253 28.50424 0.0
O76 O -0.17437 0.92132 25.29894 0.0
O77 O -0.1906 0.97018 29.76956 0.0
C78 C 0.65757 0.79706 41.95404 0.0
O79 O 0.66425 0.78137 40.33018 0.0
O80 O 0.70055 0.77427 45.38299 0.0
Zn81 Zn 0.69391 0.80851 46.95622 0.0
O82 O 0.70661 0.80981 52.83343 0.0
C83 C 0.69257 0.8439 41.1187 0.0
O84 O 0.67857 0.83074 38.81336 0.0
O85 O 0.66779 0.81089 44.84756 0.0
C86 C 0.70497 0.82979 54.58929 0.0
O87 O 0.69479 0.85002 52.49873 0.0
C88 C 0.7156 0.77022 45.72324 0.0
O89 O 0.72716 0.78866 47.2007 0.0
O90 O 0.70114 0.8382 44.77395 0.0
C91 C -0.06442 1.26294 43.32891 0.0
O92 O -0.06728 1.27843 45.65039 0.0
O93 O -0.02436 1.30565 41.99035 0.0
Zn94 Zn -0.04178 1.30392 43.85625 0.0
O95 O -0.02898 1.30546 49.74662 0.0
C96 C -0.06336 1.35073 43.27805 0.0
O97 O -0.0567 1.34712 47.08213 0.0
O98 O -0.05404 1.26999 42.1631 0.0
C99 C -0.01717 1.32204 51.52513 0.0
O100 O -0.0136 1.33845 49.45617 0.0
C101 C -0.01115 1.28957 43.25964 0.0
O102 O -0.00887 1.27119 45.84756 0.0
O103 O -0.05914 1.33457 41.38789 0.0
C104 C 0.37294 0.43472 43.74435 0.0
O105 O 0.36885 0.43255 46.52111 0.0
O106 O 0.37731 0.52142 43.24805 0.0
Zn107 Zn 0.37159 0.48932 45.29387 0.0
O108 O 0.38766 0.48498 51.11898 0.0
C109 C 0.34156 0.48798 46.49795 0.0
O110 O 0.35326 0.47949 50.05618 0.0
O111 O 0.37469 0.45748 42.68106 0.0
C112 C 0.39266 0.50448 53.39718 0.0
O113 O 0.38747 0.52847 51.90315 0.0
C114 C 0.39261 0.52442 43.76166 0.0
O115 O 0.40503 0.50616 45.71128 0.0
O116 O 0.34646 0.49307 44.03203 0.0
C117 C 0.00651 0.66339 43.86177 0.0
O118 O 0.00698 0.67846 46.6295 0.0
O119 O -0.04038 0.67604 41.85477 0.0
Zn120 Zn -0.02322 0.64479 44.03756 0.0
O121 O -0.01042 0.64519 49.94428 0.0
C122 C -0.04127 0.59939 44.21694 0.0
O123 O -0.03712 0.60855 47.69207 0.0
O124 O -0.00559 0.64703 42.23668 0.0
C125 C 0.00311 0.63023 51.99012 0.0
O126 O 0.00865 0.61393 50.20249 0.0
C127 C -0.03779 0.69706 43.79723 0.0
O128 O -0.02369 0.69828 47.29071 0.0
O129 O -0.0365 0.61155 42.10349 0.0
C130 C 0.70015 0.22887 44.13084 0.0
O131 O 0.69756 0.23251 47.1175 0.0
O132 O 0.66777 0.17485 43.21343 0.0
Zn133 Zn 0.69369 0.17543 45.17584 0.0
O134 O 0.70743 0.17789 51.05789 0.0
C135 C 0.70324 0.12083 45.57519 0.0
O136 O 0.70107 0.12176 48.65052 0.0
O137 O 0.69892 0.20592 42.75241 0.0
C138 C 0.72409 0.17811 52.73683 0.0
O139 O 0.73162 0.17693 50.57005 0.0
C140 C 0.66035 0.18643 44.89918 0.0
O141 O 0.66985 0.19991 48.08254 0.0
O142 O 0.70094 0.14185 43.59483 0.0
C143 C 0.28429 1.0445 43.96089 0.0
O144 O 0.30058 1.04584 46.85777 0.0
O145 O 0.27413 0.95924 43.72432 0.0
Zn146 Zn 0.29105 0.98843 45.50713 0.0
O147 O 0.30223 0.99124 51.37197 0.0
C148 C 0.3056 0.96782 40.9064 0.0
O149 O 0.28908 0.96263 38.49237 0.0
O150 O 0.27773 1.02209 42.86951 0.0
C151 C 0.31833 0.99647 53.49735 0.0
O152 O 0.32776 1.0005 51.8158 0.0
C153 C 0.27981 0.93586 44.99261 0.0
O154 O 0.29664 0.93146 47.51104 0.0
O155 O 0.30959 0.97967 44.07532 0.0
C156 C 0.36015 1.26871 117.38257 0.0
O157 O 0.36251 1.29316 116.71805 0.0
O158 O 0.31589 1.28451 119.23633 0.0
Zn159 Zn 0.34084 1.29258 120.92898 0.0
O160 O 0.35491 1.29374 126.81444 0.0
C161 C 0.3301 1.33283 115.01431 0.0
O162 O 0.31981 1.31429 112.83048 0.0
O163 O 0.35136 1.26423 119.07183 0.0
C164 C 0.37161 1.29299 128.53905 0.0
O165 O 0.37935 1.29171 126.41676 0.0
C166 C 0.30685 1.30096 120.01068 0.0
O167 O 0.31429 1.32214 121.97405 0.0
O168 O 0.34074 1.32794 118.63959 0.0
C169 C 0.64981 0.79277 114.84408 0.0
O170 O 0.63615 0.77801 112.98765 0.0
O171 O 0.62684 0.76187 118.72677 0.0
Zn172 Zn 0.63677 0.79783 120.21623 0.0
O173 O 0.6506 0.80054 126.08796 0.0
C174 C 0.60313 0.82019 114.64 0.0
O175 O 0.60365 0.79963 112.66494 0.0
O176 O 0.65261 0.80378 118.00018 0.0
C177 C 0.64298 0.8062 128.03678 0.0
O178 O 0.62582 0.81039 126.15995 0.0
C179 C 0.63045 0.74219 121.04192 0.0
O180 O 0.6419 0.74437 124.80141 0.0
O181 O 0.61639 0.82438 117.98404 0.0
C182 C 0.04553 1.02845 119.15797 0.0
O183 O 0.05993 1.01562 121.80035 0.0
O184 O 0.03561 0.95438 117.90429 0.0
Zn185 Zn 0.02978 0.98435 120.45714 0.0
O186 O 0.04657 0.98379 126.27929 0.0
C187 C 0.00317 0.95997 121.17058 0.0
O188 O 0.01679 0.94435 123.47786 0.0
O189 O 0.03072 1.01873 118.07781 0.0
C190 C 0.04595 1.00297 128.28941 0.0
O191 O 0.03449 1.02267 126.48918 0.0
C192 C 0.05114 0.94496 119.14388 0.0
O193 O 0.06433 0.95521 122.23766 0.0
O194 O 0.00545 0.97968 119.50844 0.0
C195 C 0.62109 0.19004 116.57306 0.0
O196 O 0.61457 0.1684 117.05372 0.0
O197 O 0.67122 0.15857 118.03036 0.0
Zn198 Zn 0.65394 0.15868 119.95573 0.0
O199 O 0.66654 0.16135 125.84636 0.0
C200 C 0.64759 0.10458 120.55593 0.0
O201 O 0.66239 0.10626 123.90722 0.0
O202 O 0.63724 0.19004 117.55791 0.0
C203 C 0.65766 0.16202 127.59225 0.0
O204 O 0.64046 0.16111 125.4973 0.0
C205 C 0.68482 0.17225 119.59666 0.0
O206 O 0.68793 0.18682 122.62595 0.0
O207 O 0.64109 0.12493 118.33107 0.0
C208 C 0.31672 0.65809 121.32763 0.0
O209 O 0.32734 0.67062 124.52865 0.0
O210 O 0.34576 0.69615 118.09401 0.0
Zn211 Zn 0.34641 0.65993 120.2614 0.0
O212 O 0.36237 0.65814 126.12231 0.0
C213 C 0.37218 0.63544 118.98516 0.0
O214 O 0.38132 0.65324 121.56368 0.0
O215 O 0.32202 0.6512 118.97032 0.0
C216 C 0.36503 0.63627 127.94284 0.0
O217 O 0.35724 0.61538 125.94074 0.0
C218 C 0.35562 0.71422 120.18953 0.0
O219 O 0.36653 0.70952 123.95279 0.0
O220 O 0.35594 0.63406 117.86152 0.0
C221 C 0.96425 0.41835 119.74801 0.0
O222 O 0.98077 0.41604 122.56885 0.0
O223 O 0.95352 0.50542 118.51891 0.0
Zn224 Zn 0.97039 0.47397 120.66474 0.0
O225 O 0.98258 0.47327 126.55457 0.0
C226 C 0.98366 0.47896 115.38851 0.0
O227 O 0.96691 0.47739 112.75795 0.0
O228 O 0.95717 0.44118 118.49486 0.0
C229 C 0.99122 0.49311 128.36892 0.0
O230 O 0.99168 0.51324 126.32616 0.0
C231 C 0.94404 0.51271 119.97894 0.0
O232 O 0.94523 0.49927 122.96711 0.0
O233 O 0.98841 0.47734 119.01511 0.0
C234 C 0.13311 0.65622 107.87207 0.0
O235 O 0.12593 0.66241 110.02152 0.0
O236 O 0.09419 0.70107 103.21952 0.0
Zn237 Zn 0.09765 0.66483 101.61126 0.0
O238 O 0.08644 0.66335 95.7315 0.0
C239 C 0.08794 0.61451 103.24465 0.0
O240 O 0.09726 0.60484 101.72734 0.0
O241 O 0.12345 0.65583 104.15662 0.0
C242 C 0.09286 0.64812 94.15568 0.0
O243 O 0.10709 0.63347 96.4181 0.0
C244 C 0.07876 0.71114 101.88761 0.0
O245 O 0.06526 0.69785 99.36434 0.0
O246 O 0.0864 0.63932 103.4739 0.0
C247 C 0.84633 0.20673 104.07812 0.0
O248 O 0.82989 0.21377 101.54354 0.0
O249 O 0.81422 0.1652 104.90132 0.0
Zn250 Zn 0.83039 0.15795 102.74585 0.0
O251 O 0.81706 0.16417 96.88944 0.0
C252 C 0.8316 0.10235 101.52652 0.0
O253 O 0.81798 0.10909 98.08836 0.0
O254 O 0.85023 0.18267 105.15503 0.0
C255 C 0.82519 0.16457 94.97621 0.0
O256 O 0.8424 0.16103 96.87935 0.0
C257 C 0.79893 0.15605 103.17768 0.0
O258 O 0.79396 0.14234 99.97892 0.0
O259 O 0.83942 0.12014 104.01465 0.0
C260 C 0.4133 1.0363 104.93274 0.0
O261 O 0.41869 1.03565 102.35984 0.0
O262 O 0.39808 0.95383 105.29093 0.0
Zn263 Zn 0.40912 0.98028 103.4718 0.0
O264 O 0.39587 0.9841 97.55255 0.0
C265 C 0.43541 0.94541 103.80953 0.0
O266 O 0.42112 0.93359 101.28998 0.0
O267 O 0.4089 1.0151 105.86464 0.0
C268 C 0.40393 0.98956 95.72684 0.0
O269 O 0.42094 0.99297 97.74188 0.0
C270 C 0.38463 0.94111 103.00794 0.0
O271 O 0.37689 0.94546 99.19265 0.0
O272 O 0.43383 0.96693 105.27957 0.0
C273 C 0.78447 0.78853 104.27518 0.0
O274 O 0.78331 0.77308 101.47679 0.0
O275 O 0.82926 0.76269 106.46829 0.0
Zn276 Zn 0.81651 0.79806 104.59127 0.0
O277 O 0.8044 0.80069 98.69707 0.0
C278 C 0.84215 0.83321 105.20443 0.0
O279 O 0.8387 0.82167 101.91422 0.0
O280 O 0.79812 0.8018 106.17168 0.0
C281 C 0.79499 0.82115 96.8997 0.0
O282 O 0.79342 0.84045 98.94737 0.0
C283 C 0.83647 0.75151 104.70481 0.0
O284 O 0.83534 0.76321 101.59933 0.0
O285 O 0.83396 0.82653 106.94884 0.0
C286 C 0.06458 1.26887 102.64328 0.0
O287 O 0.05134 1.28296 99.85827 0.0
O288 O 0.11169 1.30657 103.76628 0.0
Zn289 Zn 0.08564 1.307 101.62538 0.0
O290 O 0.07301 1.30609 95.74097 0.0
C291 C 0.08557 1.34427 106.99948 0.0
O292 O 0.09648 1.32615 109.51286 0.0
O293 O 0.08019 1.27559 103.8285 0.0
C294 C 0.07654 1.3228 93.85601 0.0
O295 O 0.08844 1.34016 95.82148 0.0
C296 C 0.11972 1.28739 103.1737 0.0
O297 O 0.11069 1.26767 101.04432 0.0
O298 O 0.07865 1.34019 103.34 0.0
C299 C 0.52365 0.43891 104.8649 0.0
O300 O 0.52897 0.45747 103.42118 0.0
O301 O 0.51676 0.50679 105.97924 0.0
Zn302 Zn 0.49845 0.47954 103.43388 0.0
O303 O 0.48727 0.48269 97.55614 0.0
C304 C 0.46851 0.50431 103.1971 0.0
O305 O 0.46871 0.51758 100.34885 0.0
O306 O 0.51022 0.44367 105.21991 0.0
C307 C 0.4815 0.46306 95.32265 0.0
O308 O 0.48275 0.4396 96.8754 0.0
C309 C 0.51662 0.52707 104.06629 0.0
O310 O 0.50425 0.53031 100.36761 0.0
O311 O 0.48011 0.48597 104.99259 0.0
C312 C 0.42409 0.06242 25.84893 0.0
C313 C 0.42972 0.08295 28.55807 0.0
C314 C 0.42394 0.03667 27.07268 0.0
C315 C 0.42675 -0.00387 35.24732 0.0
H316 H -0.08381 1.44353 31.72564 0.0
C317 C -0.07385 1.39692 43.47701 0.0
C318 C -0.07375 1.37513 41.28328 0.0
C319 C -0.0814 1.42122 41.60489 0.0
C320 C -0.0904 1.4576 32.67997 0.0
H321 H 0.43887 0.09275 34.64231 0.0
H322 H 0.43886 0.04773 36.78638 0.0
H323 H -0.08982 1.48806 29.00852 0.0
H324 H -0.08275 1.36107 35.38655 0.0
H325 H -0.09625 1.40324 32.11845 0.0
H326 H -0.10618 1.46506 39.00167 0.0
C327 C 0.43438 0.05158 33.70805 0.0
C328 C -0.09383 1.4832 31.12094 0.0
C329 C 0.43452 0.07736 32.48372 0.0
C330 C -0.08239 1.37762 37.16383 0.0
C331 C -0.09005 1.40181 35.2922 0.0
C332 C -0.10265 1.46984 36.80562 0.0
C333 C 0.42944 0.03088 31.0317 0.0
C334 C 0.43137 0.00315 32.4289 0.0
C335 C -0.08911 1.42412 37.50036 0.0
C336 C -0.09453 1.45068 35.58121 0.0
H337 H 0.42014 0.0661 22.7943 0.0
H338 H 0.41981 0.02118 24.92953 0.0
H339 H 0.42069 0.01059 36.27821 0.0
H340 H -0.06732 1.39561 46.65682 0.0
H341 H -0.08033 1.43803 43.39918 0.0
C342 C 0.31023 0.49954 41.51327 0.0
C343 C 0.32303 0.49328 45.42935 0.0
C344 C 0.29301 0.50665 40.5331 0.0
C345 C 0.26874 0.53795 44.79062 0.0
H346 H 0.22806 0.51908 34.96085 0.0
C347 C 0.20117 0.59066 39.31685 0.0
C348 C 0.19296 0.59962 35.38189 0.0
C349 C 0.21526 0.57207 40.76891 0.0
C350 C 0.23929 0.52452 37.7173 0.0
H351 H 0.32765 0.4886 51.36878 0.0
H352 H 0.29748 0.5013 49.64904 0.0
H353 H 0.25647 0.49621 37.12849 0.0
H354 H 0.19249 0.59511 29.83467 0.0
H355 H 0.21712 0.56316 32.37163 0.0
H356 H 0.25186 0.5671 45.29923 0.0
C357 C 0.30086 0.50074 47.34759 0.0
C358 C 0.25553 0.51141 38.95839 0.0
C359 C 0.31809 0.4934 48.32588 0.0
C360 C 0.19857 0.58871 32.88583 0.0
C361 C 0.21262 0.57018 34.33495 0.0
C362 C 0.25253 0.55114 43.54232 0.0
C363 C 0.28822 0.50781 43.44973 0.0
C364 C 0.27052 0.51853 42.4504 0.0
C365 C 0.22138 0.56206 38.31249 0.0
C366 C 0.23774 0.54512 39.93352 0.0
H367 H 0.3136 0.49952 39.20947 0.0
H368 H 0.28363 0.51231 37.5122 0.0
H369 H 0.2801 0.54405 47.47559 0.0
H370 H 0.19707 0.59855 41.30883 0.0
H371 H 0.22159 0.56595 43.83508 0.0
C372 C 0.82705 0.47638 27.68023 0.0
C373 C 0.82052 0.47822 30.29256 0.0
C374 C 0.84477 0.4806 28.99744 0.0
C375 C 0.88841 0.48771 37.95727 0.0
H376 H -0.10632 0.54319 31.87175 0.0
C377 C -0.05939 0.56506 44.85097 0.0
C378 C -0.05283 0.57682 42.63817 0.0
C379 C -0.07193 0.54588 43.20707 0.0
C380 C -0.10731 0.52722 33.56859 0.0
H381 H 0.82765 0.484 36.37908 0.0
H382 H 0.85842 0.49138 38.66455 0.0
H383 H 0.86589 0.52119 29.17082 0.0
H384 H -0.05337 0.57638 37.05385 0.0
H385 H -0.07518 0.54266 34.19291 0.0
H386 H -0.08498 0.49455 42.42688 0.0
C387 C 0.84994 0.48665 35.60571 0.0
C388 C 0.87665 0.5146 32.01501 0.0
C389 C 0.83225 0.48267 34.28678 0.0
C390 C -0.05832 0.5679 38.82169 0.0
C391 C -0.07085 0.54864 37.17772 0.0
C392 C -0.0955 0.50026 39.50628 0.0
C393 C 0.85628 0.48643 32.95597 0.0
C394 C 0.8742 0.49544 34.2553 0.0
C395 C -0.07815 0.53793 39.3157 0.0
C396 C -0.0935 0.52089 37.39142 0.0
H397 H 0.81834 0.47286 24.58675 0.0
H398 H 0.84934 0.48012 26.89801 0.0
H399 H 0.88696 0.4727 39.72257 0.0
H400 H -0.05538 0.57138 47.80652 0.0
H401 H -0.07741 0.53833 44.92496 0.0
C402 C 0.16729 1.4118 29.72255 0.0
C403 C 0.16444 1.39165 31.76676 0.0
C404 C 0.17182 1.43678 31.34039 0.0
C405 C 0.18812 1.47321 40.63285 0.0
H406 H 0.69298 0.03244 33.73989 0.0
C407 C 0.70847 0.07188 46.31937 0.0
C408 C 0.70706 0.09537 44.27454 0.0
C409 C 0.71066 0.0476 44.91738 0.0
C410 C 0.70117 0.0164 35.69188 0.0
H411 H 0.16475 1.38161 37.17471 0.0
H412 H 0.17249 1.42511 39.96948 0.0
H413 H 0.15811 1.48816 31.03779 0.0
H414 H 0.70768 0.1119 39.25072 0.0
H415 H 0.71164 0.06947 36.82051 0.0
H416 H 0.73079 0.00138 45.30825 0.0
C417 C 0.17139 1.42161 37.13542 0.0
C418 C 0.69997 -0.00867 34.14078 0.0
C419 C 0.16681 1.39672 35.51623 0.0
C420 C 0.70857 0.09413 40.8782 0.0
C421 C 0.71077 0.06983 39.47616 0.0
C422 C 0.72213 -0.00113 42.1846 0.0
C423 C 0.17367 1.44203 35.04071 0.0
C424 C 0.17672 1.46907 36.60925 0.0
C425 C 0.71153 0.04627 41.44293 0.0
C426 C 0.71196 0.02034 39.74477 0.0
H427 H 0.16565 1.40849 26.8348 0.0
H428 H 0.17367 1.45208 29.67549 0.0
H429 H 0.19585 1.45693 42.59575 0.0
H430 H 0.7074 0.07215 48.94954 0.0
H431 H 0.71099 0.0298 46.47685 0.0
C432 C 0.31571 0.93942 37.15996 0.0
C433 C 0.31959 0.95756 40.15924 0.0
C434 C 0.32915 0.92774 36.68879 0.0
C435 C 0.37445 0.93434 38.82442 0.0
H436 H 0.37433 0.85823 37.94117 0.0
C437 C 0.41589 0.87303 33.67443 0.0
C438 C 0.4235 0.8488 35.63347 0.0
C439 C 0.40494 0.88817 34.61203 0.0
C440 C 0.37463 0.87945 38.22227 0.0
H441 H 0.34053 0.97855 44.91223 0.0
H442 H 0.36401 0.95828 44.04875 0.0
H443 H 0.35123 0.88142 38.62456 0.0
H444 H 0.42631 0.82207 40.24238 0.0
H445 H 0.40708 0.84848 41.85505 0.0
H446 H 0.39781 0.93229 38.37371 0.0
C447 C 0.35056 0.95306 42.08051 0.0
C448 C 0.36131 0.89274 38.5663 0.0
C449 C 0.33712 0.96456 42.58033 0.0
C450 C 0.4206 0.84061 38.67067 0.0
C451 C 0.40952 0.85563 39.58157 0.0
C452 C 0.38771 0.92104 38.43326 0.0
C453 C 0.34672 0.93416 39.18009 0.0
C454 C 0.36103 0.9203 38.85055 0.0
C455 C 0.40129 0.87926 37.50157 0.0
C456 C 0.38789 0.89347 38.12298 0.0
H457 H 0.30234 0.93364 35.24185 0.0
H458 H 0.32582 0.91346 34.396 0.0
H459 H 0.3745 0.95561 39.03118 0.0
H460 H 0.41793 0.87993 31.32866 0.0
H461 H 0.39869 0.90624 32.94834 0.0
C462 C -0.23643 0.95219 25.37218 0.0
C463 C -0.21937 0.95865 28.25609 0.0
C464 C -0.24867 0.945 26.44459 0.0
C465 C -0.25774 0.94485 34.72832 0.0
H466 H 0.71737 0.8817 29.83751 0.0
C467 C 0.7149 0.87604 41.86584 0.0
C468 C 0.69926 0.86325 39.43154 0.0
C469 C 0.72223 0.89218 40.23567 0.0
C470 C 0.72388 0.89965 31.18193 0.0
H471 H -0.20198 0.96358 34.51574 0.0
H472 H -0.22321 0.95061 36.38828 0.0
H473 H -0.26489 0.9019 27.44064 0.0
H474 H 0.67853 0.85854 33.3915 0.0
H475 H 0.69131 0.88685 30.55065 0.0
H476 H 0.73143 0.94197 38.56009 0.0
C477 C -0.22723 0.95142 33.29335 0.0
C478 C 0.73398 0.91125 29.80612 0.0
C479 C -0.21501 0.95867 32.22115 0.0
C480 C 0.69068 0.86792 35.34637 0.0
C481 C 0.69802 0.88406 33.71589 0.0
C482 C 0.73201 0.9332 36.11078 0.0
C483 C -0.24411 0.94407 30.42349 0.0
C484 C -0.25636 0.93368 31.61212 0.0
C485 C 0.71407 0.89589 36.13743 0.0
C486 C 0.72307 0.91018 34.39948 0.0
H487 H -0.24026 0.95222 22.28716 0.0
H488 H -0.26165 0.93982 24.1596 0.0
H489 H -0.2508 0.96237 36.13959 0.0
H490 H 0.72181 0.87292 45.0267 0.0
H491 H 0.7347 0.9008 42.17952 0.0
C492 C 0.33913 1.3796 115.70868 0.0
C493 C 0.32871 1.35942 113.32643 0.0
C494 C 0.3371 1.40512 114.17014 0.0
C495 C 0.30439 1.4489 106.22882 0.0
H496 H 0.87683 -0.00627 109.23277 0.0
C497 C 0.82779 0.05461 99.86525 0.0
C498 C 0.83689 0.07422 102.58426 0.0
C499 C 0.83184 0.02798 100.94402 0.0
C500 C 0.86563 -0.01836 108.38709 0.0
H501 H 0.30837 1.35 107.42948 0.0
H502 H 0.30494 1.39449 104.73797 0.0
H503 H 0.34923 1.44723 111.52652 0.0
H504 H 0.85777 0.08124 108.53194 0.0
H505 H 0.86472 0.03471 110.42485 0.0
H506 H 0.82077 -0.0167 103.14201 0.0
C507 C 0.3145 1.39066 107.81063 0.0
C508 C 0.33581 1.45479 109.69963 0.0
C509 C 0.31653 1.36514 109.34901 0.0
C510 C 0.8505 0.06661 106.36816 0.0
C511 C 0.85455 0.03995 107.44697 0.0
C512 C 0.30142 1.47513 104.91682 0.0
C513 C 0.32461 1.411 110.21621 0.0
C514 C 0.3216 1.43848 108.65934 0.0
C515 C 0.84507 0.02035 104.76462 0.0
C516 C 0.84839 -0.00787 106.00446 0.0
H517 H 0.34864 1.37585 118.78679 0.0
H518 H 0.34495 1.4204 116.11243 0.0
H519 H 0.29315 1.43701 105.43104 0.0
H520 H 0.8173 0.0598 96.91709 0.0
H521 H 0.82448 0.01333 98.79241 0.0
C522 C 0.57133 0.82934 109.76027 0.0
C523 C 0.58664 0.83636 113.19365 0.0
C524 C 0.55529 0.84277 108.59948 0.0
C525 C 0.53469 0.90376 109.80419 0.0
H526 H 0.49542 0.85948 107.18494 0.0
C527 C 0.46833 0.94482 107.82694 0.0
C528 C 0.45294 0.93409 104.82674 0.0
C529 C 0.48486 0.93381 108.79334 0.0
C530 C 0.50616 0.87218 107.85097 0.0
H531 H 0.59726 0.86376 118.008 0.0
H532 H 0.56916 0.88732 115.95909 0.0
H533 H 0.52389 0.83928 108.83572 0.0
H534 H 0.44281 0.90373 100.43373 0.0
H535 H 0.47155 0.88491 102.05867 0.0
H536 H 0.51689 0.93671 108.78951 0.0
C537 C 0.56963 0.87139 114.17332 0.0
C538 C 0.52248 0.86058 108.80163 0.0
C539 C 0.58569 0.85784 115.35152 0.0
C540 C 0.45441 0.91233 102.78477 0.0
C541 C 0.4709 0.90145 103.73119 0.0
C542 C 0.51829 0.91541 108.82425 0.0
C543 C 0.55421 0.86361 110.83216 0.0
C544 C 0.5369 0.87623 109.78043 0.0
C545 C 0.48633 0.91192 106.76431 0.0
C546 C 0.50383 0.89974 107.82965 0.0
H547 H 0.57161 0.81297 108.01924 0.0
H548 H 0.54365 0.83662 105.97706 0.0
H549 H 0.54557 0.91628 110.52386 0.0
H550 H 0.46762 0.96157 109.45927 0.0
H551 H 0.49647 0.94216 111.17666 0.0
C552 C 0.86579 0.85841 105.10672 0.0
C553 C 0.85611 0.85253 106.95032 0.0
C554 C 0.87974 0.87528 106.85415 0.0
C555 C 0.91197 0.89957 116.52214 0.0
H556 H -0.07638 0.94415 110.18572 0.0
C557 C -0.02932 0.9701 117.81859 0.0
C558 C -0.01473 0.95325 120.22371 0.0
C559 C -0.04638 0.96242 116.60116 0.0
C560 C -0.0795 0.93223 112.02257 0.0
H561 H 0.85309 0.8605 112.01304 0.0
H562 H 0.87742 0.89028 115.05229 0.0
H563 H 0.89532 0.92331 107.14606 0.0
H564 H -0.00653 0.91567 123.38793 0.0
H565 H -0.03618 0.90202 121.19497 0.0
H566 H -0.0628 0.90848 121.39948 0.0
C567 C 0.87434 0.88149 112.27827 0.0
C568 C 0.90428 0.91998 110.26376 0.0
C569 C 0.86036 0.86452 110.52924 0.0
C570 C -0.01749 0.9291 121.52869 0.0
C571 C -0.03453 0.92136 120.29359 0.0
C572 C -0.07183 0.91195 118.28834 0.0
C573 C 0.88432 0.8868 110.48139 0.0
C574 C 0.90014 0.90287 112.46565 0.0
C575 C -0.04919 0.93767 117.7467 0.0
C576 C -0.06723 0.9278 116.03407 0.0
H577 H 0.86287 0.8495 102.34987 0.0
H578 H 0.88732 0.87855 105.41894 0.0
H579 H 0.90923 0.88643 118.30352 0.0
H580 H -0.02761 0.98898 116.79688 0.0
H581 H -0.05737 0.97565 114.69527 0.0
C582 C 0.62479 0.07622 115.4749 0.0
C583 C 0.63944 0.07884 119.25059 0.0
C584 C 0.61821 0.05141 114.10942 0.0
C585 C 0.6197 -0.01811 117.21644 0.0
H586 H 0.08091 1.46576 106.96181 0.0
C587 C 0.09293 1.37634 112.38827 0.0
C588 C 0.08293 1.37016 108.39296 0.0
C589 C 0.09201 1.40179 113.64069 0.0
C590 C 0.08212 1.46982 109.79234 0.0
H591 H 0.65811 0.05766 124.62696 0.0
H592 H 0.64675 0.01442 122.23269 0.0
H593 H 0.61882 0.01119 109.30197 0.0
H594 H 0.06325 1.38534 102.61448 0.0
H595 H 0.06144 1.42965 104.81264 0.0
H596 H 0.08347 1.44028 117.74347 0.0
C597 C 0.64025 0.03153 120.33517 0.0
C598 C 0.61787 -0.00384 111.13645 0.0
C599 C 0.64686 0.05631 121.69603 0.0
C600 C 0.07128 1.38956 105.70861 0.0
C601 C 0.07029 1.41498 106.96447 0.0
C602 C 0.08388 1.45552 115.86507 0.0
C603 C 0.62611 0.02874 116.49731 0.0
C604 C 0.62069 0.00209 114.89765 0.0
C605 C 0.08099 1.42158 110.92741 0.0
C606 C 0.08186 1.44937 112.17302 0.0
H607 H 0.61869 0.09323 113.52803 0.0
H608 H 0.60716 0.0499 111.1549 0.0
H609 H 0.62158 -0.01404 120.10698 0.0
H610 H 0.10202 1.36183 114.53314 0.0
H611 H 0.10057 1.40624 116.70688 0.0
C612 C 0.37096 0.59929 114.50462 0.0
C613 C 0.38071 0.61766 117.39345 0.0
C614 C 0.37909 0.58302 112.95103 0.0
C615 C 0.42279 0.55723 114.93168 0.0
H616 H 0.39974 0.55008 103.61306 0.0
C617 C 0.44386 0.53359 102.66461 0.0
C618 C 0.45588 0.51213 104.49913 0.0
C619 C 0.43298 0.54256 104.10123 0.0
C620 C 0.40633 0.55187 106.77941 0.0
H621 H 0.40664 0.63315 120.94726 0.0
H622 H 0.42072 0.60506 118.2184 0.0
H623 H 0.38439 0.57358 106.51269 0.0
H624 H 0.46531 0.48246 109.16988 0.0
H625 H 0.44617 0.49802 111.65809 0.0
H626 H 0.44501 0.53659 115.19607 0.0
C627 C 0.40686 0.60293 117.18573 0.0
C628 C 0.39747 0.56509 108.44298 0.0
C629 C 0.39875 0.61919 118.72919 0.0
C630 C 0.45629 0.49917 107.70777 0.0
C631 C 0.44538 0.50815 109.14459 0.0
C632 C 0.43164 0.54402 113.27101 0.0
C633 C 0.39713 0.58474 114.26896 0.0
C634 C 0.40576 0.56838 112.53164 0.0
C635 C 0.43384 0.53025 107.40132 0.0
C636 C 0.42364 0.54164 109.17048 0.0
H637 H 0.35704 0.59759 113.42187 0.0
H638 H 0.37128 0.56905 110.72839 0.0
H639 H 0.42943 0.55912 118.09711 0.0
H640 H 0.44319 0.54399 100.18194 0.0
H641 H 0.42439 0.55982 102.71741 0.0
C642 C 0.07972 0.56942 104.20283 0.0
C643 C 0.0792 0.59685 104.66332 0.0
C644 C 0.07121 0.55294 105.5146 0.0
C645 C 0.05367 0.55099 112.3023 0.0
H646 H 1.02379 0.497 105.48048 0.0
C647 C 0.99095 0.49158 110.22324 0.0
C648 C 0.99655 0.48549 114.1775 0.0
C649 C 1.0028 0.5008 109.1547 0.0
C650 C 1.03207 0.51197 107.41862 0.0
H651 H 0.0694 0.62846 106.87182 0.0
H652 H 0.05455 0.59981 109.12975 0.0
H653 H 0.04129 0.52253 103.47416 0.0
H654 H 1.01919 0.48264 120.0752 0.0
H655 H 1.03987 0.49841 118.20014 0.0
H656 H 1.04399 0.54132 116.17164 0.0
C657 C 0.06168 0.59098 107.79908 0.0
C658 C 0.04227 0.5264 106.28778 0.0
C659 C 0.0701 0.60742 106.47834 0.0
C660 C 1.01442 0.48745 117.00802 0.0
C661 C 1.02626 0.49659 115.93812 0.0
C662 C 1.04352 0.53657 113.43352 0.0
C663 C 0.06213 0.56358 107.33284 0.0
C664 C 0.05282 0.54643 108.6843 0.0
C665 C 1.02049 0.50403 112.01768 0.0
C666 C 1.03244 0.51721 110.9753 0.0
H667 H 0.08663 0.56068 102.81645 0.0
H668 H 0.07185 0.53187 105.13778 0.0
H669 H 0.06186 0.56606 114.23505 0.0
H670 H 0.97728 0.49022 107.96973 0.0
H671 H 0.99789 0.50656 106.11442 0.0
C672 C 0.41661 0.23153 33.30331 0.0
C673 C 0.4225 0.23696 30.65421 0.0
C674 C 0.40954 0.25176 34.573 0.0
C675 C 0.38967 0.3193 31.99467 0.0
H676 H 0.4049 0.32318 43.10371 0.0
C677 C 0.38071 0.41351 39.03876 0.0
C678 C 0.37624 0.41099 41.99052 0.0
C679 C 0.38461 0.3912 37.49674 0.0
C680 C 0.40029 0.32215 39.9838 0.0
H681 H 0.42551 0.26785 27.24526 0.0
H682 H 0.41335 0.30313 29.48938 0.0
H683 H 0.4151 0.28607 40.71852 0.0
H684 H 0.37196 0.38307 45.57821 0.0
H685 H 0.37869 0.34403 42.86104 0.0
H686 H 0.37507 0.35558 31.2689 0.0
C687 C 0.414 0.28319 30.54785 0.0
C688 C 0.40615 0.30091 38.61864 0.0
C689 C 0.42109 0.263 29.28495 0.0
C690 C 0.37543 0.38566 43.31655 0.0
C691 C 0.37936 0.36332 41.77573 0.0
C692 C 0.38381 0.34053 33.35879 0.0
C693 C 0.40818 0.27781 33.21036 0.0
C694 C 0.40109 0.29946 34.61828 0.0
C695 C 0.38413 0.36587 38.87155 0.0
C696 C 0.38925 0.34236 37.37588 0.0
H697 H 0.41746 0.21165 34.40228 0.0
H698 H 0.40502 0.24697 36.59739 0.0
H699 H 0.38529 0.31847 28.8839 0.0
H700 H 0.38146 0.43274 37.95305 0.0
H701 H 0.38846 0.39384 35.29911 0.0
C702 C 0.01952 0.64936 39.71561 0.0
C703 C 0.02014 0.66503 42.72854 0.0
C704 C 0.03259 0.65062 38.69686 0.0
C705 C 0.06738 0.69286 39.43068 0.0
H706 H 0.08567 0.62805 37.31445 0.0
C707 C 0.12858 0.68879 37.56787 0.0
C708 C 0.1275 0.67361 34.46872 0.0
C709 C 0.11554 0.68783 38.60406 0.0
C710 C 0.08058 0.64633 37.86136 0.0
H711 H 0.03495 0.69438 47.03021 0.0
H712 H 0.05786 0.69634 45.28256 0.0
H713 H 0.06265 0.62634 39.03812 0.0
H714 H 0.11191 0.64544 30.031 0.0
H715 H 0.08917 0.64386 31.83297 0.0
H716 H 0.08538 0.71281 38.26642 0.0
C717 C 0.04714 0.68333 43.67108 0.0
C718 C 0.06738 0.64537 38.8426 0.0
C719 C 0.03405 0.6821 44.68607 0.0
C720 C 0.11316 0.65736 32.43911 0.0
C721 C 0.10017 0.65633 33.48356 0.0
C722 C 0.08062 0.69381 38.45748 0.0
C723 C 0.04658 0.66756 40.67293 0.0
C724 C 0.06061 0.66862 39.63092 0.0
C725 C 0.1012 0.67158 36.57201 0.0
C726 C 0.08732 0.67056 37.65497 0.0
H727 H 0.00893 0.63607 38.14033 0.0
H728 H 0.03165 0.63849 36.3356 0.0
H729 H 0.06227 0.71115 39.96674 0.0
H730 H 0.13947 0.70149 39.19195 0.0
H731 H 0.11678 0.69959 41.02521 0.0
C732 C 0.70745 0.27606 44.1289 0.0
C733 C 0.70521 0.2509 42.49713 0.0
C734 C 0.71288 0.2966 42.67581 0.0
C735 C 0.71577 0.31784 34.03696 0.0
H736 H 0.7517 0.3628 41.49777 0.0
C737 C 0.7508 0.39178 29.4117 0.0
C738 C 0.75356 0.41675 31.11447 0.0
C739 C 0.74474 0.37155 30.77566 0.0
C740 C 0.74152 0.3506 39.37566 0.0
H741 H 0.7067 0.22762 38.02668 0.0
H742 H 0.71629 0.2634 35.5163 0.0
H743 H 0.74101 0.32776 43.8896 0.0
H744 H 0.7521 0.44011 35.58132 0.0
H745 H 0.7414 0.40492 37.9311 0.0
H746 H 0.71631 0.34067 29.52279 0.0
C747 C 0.71368 0.26733 37.89192 0.0
C748 C 0.73539 0.33055 40.74555 0.0
C749 C 0.70828 0.24679 39.34661 0.0
C750 C 0.75017 0.42106 34.21384 0.0
C751 C 0.74412 0.40086 35.57634 0.0
C752 C 0.7219 0.33791 32.66616 0.0
C753 C 0.71616 0.2924 39.55756 0.0
C754 C 0.72245 0.31395 38.09173 0.0
C755 C 0.74133 0.37589 33.87164 0.0
C756 C 0.73485 0.35449 35.32154 0.0
H757 H 0.70515 0.27989 46.55073 0.0
H758 H 0.71446 0.3158 43.98524 0.0
H759 H 0.70562 0.30558 31.91799 0.0
H760 H 0.75332 0.38781 27.0243 0.0
H761 H 0.74291 0.35242 29.43444 0.0
C762 C 0.16907 1.21661 29.71074 0.0
C763 C 0.17311 1.24198 31.26072 0.0
C764 C 0.18227 1.19677 30.90882 0.0
C765 C 0.22626 1.17727 39.04421 0.0
H766 H 0.22652 1.12831 31.49007 0.0
C767 C 0.27954 1.09363 43.64036 0.0
C768 C 0.2732 1.06873 42.16485 0.0
C769 C 0.26853 1.11628 42.11929 0.0
C770 C 0.22657 1.14177 33.63538 0.0
H771 H 0.19421 1.26651 35.26201 0.0
H772 H 0.21725 1.23185 37.34098 0.0
H773 H 0.2048 1.16508 29.21718 0.0
H774 H 0.2505 1.04813 37.8504 0.0
H775 H 0.23133 1.08749 35.23213 0.0
H776 H 0.24779 1.15371 43.47085 0.0
C777 C 0.20385 1.22726 35.22589 0.0
C778 C 0.21413 1.16278 32.33536 0.0
C779 C 0.19065 1.24713 34.02254 0.0
C780 C 0.2558 1.06702 39.05906 0.0
C781 C 0.24483 1.08962 37.53678 0.0
C782 C 0.23869 1.15624 40.34491 0.0
C783 C 0.19979 1.20187 33.68554 0.0
C784 C 0.21369 1.18054 35.03231 0.0
C785 C 0.25099 1.11445 39.08441 0.0
C786 C 0.23882 1.13805 37.66049 0.0
H787 H 0.15569 1.212 27.58029 0.0
H788 H 0.1787 1.17729 29.71039 0.0
H789 H 0.22612 1.19046 41.1988 0.0
H790 H 0.2929 1.09562 46.02303 0.0
H791 H 0.2737 1.1352 43.33922 0.0
C792 C 0.50228 0.81598 32.87284 0.0
C793 C 0.49122 0.79951 29.81838 0.0
C794 C 0.52017 0.81649 34.08579 0.0
C795 C 0.5559 0.77669 34.02001 0.0
H796 H 0.57981 0.84263 36.52759 0.0
C797 C 0.62721 0.78288 37.27504 0.0
C798 C 0.63842 0.79837 40.45342 0.0
C799 C 0.60915 0.78365 35.89899 0.0
C800 C 0.57334 0.82404 35.87391 0.0
H801 H 0.4902 0.77098 25.60036 0.0
H802 H 0.52135 0.77207 27.69441 0.0
H803 H 0.54836 0.84289 34.24616 0.0
H804 H 0.63947 0.82702 44.66001 0.0
H805 H 0.60794 0.82817 42.27365 0.0
H806 H 0.58085 0.75782 35.6566 0.0
C807 C 0.51625 0.7843 29.18838 0.0
C808 C 0.55534 0.82419 34.56824 0.0
C809 C 0.49838 0.78379 27.97526 0.0
C810 C 0.63118 0.81486 42.20232 0.0
C811 C 0.6131 0.81564 40.8221 0.0
C812 C 0.57387 0.77654 35.32288 0.0
C813 C 0.52736 0.80054 32.27093 0.0
C814 C 0.54643 0.80051 33.62774 0.0
C815 C 0.60191 0.79993 37.66916 0.0
C816 C 0.58279 0.80021 36.26418 0.0
H817 H 0.49718 0.82831 34.35694 0.0
H818 H 0.52842 0.82899 36.49815 0.0
H819 H 0.54947 0.75807 33.38365 0.0
H820 H 0.63236 0.77005 35.85041 0.0
H821 H 0.60084 0.77159 33.42846 0.0
C822 C -0.14137 1.05519 34.47744 0.0
C823 C -0.13724 1.03924 32.09925 0.0
C824 C -0.13335 1.07919 35.82373 0.0
C825 C -0.11138 1.1302 33.43732 0.0
H826 H -0.09485 1.15247 44.13109 0.0
C827 C -0.06931 1.22065 39.73943 0.0
C828 C -0.07298 1.23744 42.10679 0.0
C829 C -0.07729 1.19652 38.58136 0.0
C830 C -0.0996 1.14665 41.12255 0.0
H831 H -0.12117 1.03566 29.34429 0.0
H832 H -0.1071 1.07742 31.71604 0.0
H833 H -0.10827 1.10985 42.04727 0.0
H834 H -0.08791 1.24207 45.11938 0.0
H835 H -0.10203 1.19994 43.05344 0.0
H836 H -0.1028 1.16693 32.49785 0.0
C837 C -0.11672 1.07154 32.49424 0.0
C838 C -0.10725 1.12225 39.9327 0.0
C839 C -0.1247 1.04754 31.15585 0.0
C840 C -0.08479 1.22955 43.2988 0.0
C841 C -0.09281 1.20536 42.1349 0.0
C842 C -0.10377 1.15457 34.62226 0.0
C843 C -0.12108 1.08773 34.80972 0.0
C844 C -0.11312 1.11371 36.08347 0.0
C845 C -0.08916 1.18862 39.75526 0.0
C846 C -0.09769 1.16301 38.4838 0.0
H847 H -0.15099 1.04935 35.25517 0.0
H848 H -0.13707 1.09135 37.57741 0.0
H849 H -0.11609 1.12438 30.42942 0.0
H850 H -0.0602 1.22606 38.78616 0.0
H851 H -0.074 1.18389 36.80016 0.0
C852 C 0.41436 1.08556 105.25581 0.0
C853 C 0.41137 1.06159 106.56981 0.0
C854 C 0.4115 1.10951 106.64666 0.0
C855 C 0.40589 1.13823 114.64288 0.0
H856 H 0.3788 1.19373 106.94807 0.0
C857 C 0.36757 1.22064 117.49474 0.0
C858 C 0.36799 1.24647 116.27085 0.0
C859 C 0.37501 1.19954 116.477 0.0
C860 C 0.38661 1.17859 109.14086 0.0
H861 H 0.40345 1.04393 110.44222 0.0
H862 H 0.39832 1.08556 112.83117 0.0
H863 H 0.38839 1.15402 104.91251 0.0
H864 H 0.37653 1.27043 113.01358 0.0
H865 H 0.38945 1.23334 111.20765 0.0
H866 H 0.40368 1.16246 118.84498 0.0
C867 C 0.40306 1.08592 110.76179 0.0
C868 C 0.39213 1.15587 107.97861 0.0
C869 C 0.40588 1.06203 109.36876 0.0
C870 C 0.376 1.25075 114.00115 0.0
C871 C 0.38334 1.22954 112.95593 0.0
C872 C 0.40034 1.16087 115.79962 0.0
C873 C 0.40567 1.10993 109.39045 0.0
C874 C 0.40151 1.13521 110.70227 0.0
C875 C 0.38295 1.20374 114.19505 0.0
C876 C 0.39034 1.18103 113.04431 0.0
H877 H 0.41864 1.08588 103.10537 0.0
H878 H 0.41378 1.1277 105.56395 0.0
H879 H 0.4134 1.12288 116.82519 0.0
H880 H 0.36152 1.21667 119.24797 0.0
H881 H 0.37427 1.17983 117.4236 0.0
C882 C 0.67744 0.81002 115.48148 0.0
C883 C 0.66242 0.79509 113.4203 0.0
C884 C 0.6899 0.81084 114.27192 0.0
C885 C 0.70643 0.77238 108.79513 0.0
H886 H 0.72928 0.83662 108.94688 0.0
C887 C 0.75467 0.77658 102.94704 0.0
C888 C 0.77005 0.79044 105.17902 0.0
C889 C 0.74106 0.77815 103.80554 0.0
C890 C 0.72313 0.81848 108.92611 0.0
H891 H 0.64843 0.76999 108.40192 0.0
H892 H 0.67013 0.77159 106.28122 0.0
H893 H 0.70608 0.83797 110.65255 0.0
H894 H 0.78316 0.81696 110.04939 0.0
H895 H 0.75947 0.8194 111.58323 0.0
H896 H 0.72355 0.75281 107.11617 0.0
C897 C 0.67238 0.78235 108.86385 0.0
C898 C 0.70984 0.81926 109.89671 0.0
C899 C 0.65991 0.78156 110.06801 0.0
C900 C 0.77147 0.80606 108.27178 0.0
C901 C 0.75785 0.8076 109.13472 0.0
C902 C 0.71972 0.77159 107.83236 0.0
C903 C 0.68761 0.79673 110.98107 0.0
C904 C 0.70138 0.7962 109.84766 0.0
C905 C 0.74253 0.79357 106.9202 0.0
C906 C 0.72824 0.79461 107.89376 0.0
H907 H 0.67976 0.82069 118.07621 0.0
H908 H 0.70158 0.82191 115.9841 0.0
H909 H 0.70038 0.75419 108.79862 0.0
H910 H 0.75311 0.7645 100.52822 0.0
H911 H 0.72932 0.76741 102.00768 0.0
C912 C 0.04438 1.23686 103.0261 0.0
C913 C 0.0615 1.24526 104.38104 0.0
C914 C 0.04165 1.21431 104.6609 0.0
C915 C 0.06311 1.17051 113.47619 0.0
H916 H 0.03072 1.11919 106.60248 0.0
C917 C 0.06293 1.06497 118.75665 0.0
C918 C 0.04656 1.05395 117.48757 0.0
C919 C 0.06394 1.08907 117.18834 0.0
C920 C 0.03963 1.13349 108.56458 0.0
H921 H 0.08919 1.23662 108.52098 0.0
H922 H 0.08443 1.19731 111.33455 0.0
H923 H 0.03378 1.16023 103.80841 0.0
H924 H 0.01838 1.05961 113.58144 0.0
H925 H 0.02017 1.1018 110.85807 0.0
H926 H 0.06912 1.14369 118.22612 0.0
C927 C 0.07309 1.20829 109.04775 0.0
C928 C 0.04138 1.15699 106.96502 0.0
C929 C 0.07581 1.23074 107.41352 0.0
C930 C 0.03121 1.06755 114.61559 0.0
C931 C 0.03222 1.09165 113.04096 0.0
C932 C 0.06138 1.14704 115.07322 0.0
C933 C 0.056 1.1998 107.68989 0.0
C934 C 0.05329 1.1756 109.40034 0.0
C935 C 0.0486 1.10267 114.31416 0.0
C936 C 0.04977 1.12814 112.63088 0.0
H937 H 0.03308 1.24765 100.69751 0.0
H938 H 0.02832 1.20835 103.57768 0.0
H939 H 0.07217 1.18468 115.43644 0.0
H940 H 0.075 1.05497 120.95815 0.0
H941 H 0.07677 1.09688 118.18842 0.0
C942 C 0.54899 0.40878 106.0212 0.0
C943 C 0.53309 0.41289 106.02217 0.0
C944 C 0.55802 0.38429 107.12362 0.0
C945 C 0.55223 0.31395 107.99481 0.0
H946 H 0.60269 0.31169 115.0952 0.0
C947 C 0.59327 0.21655 114.69783 0.0
C948 C 0.61009 0.21465 115.09746 0.0
C949 C 0.58336 0.24038 113.51426 0.0
C950 C 0.58864 0.31196 113.06909 0.0
H951 H 0.51409 0.39447 107.14342 0.0
H952 H 0.52991 0.35156 109.06477 0.0
H953 H 0.58639 0.354 113.19308 0.0
H954 H 0.62945 0.23597 114.43918 0.0
H955 H 0.61205 0.27723 112.29766 0.0
H956 H 0.55452 0.2719 107.8324 0.0
C957 C 0.53532 0.36733 108.19786 0.0
C958 C 0.57931 0.33621 111.99013 0.0
C959 C 0.52634 0.39192 107.12098 0.0
C960 C 0.6166 0.23684 114.19608 0.0
C961 C 0.60667 0.26056 112.99209 0.0
C962 C 0.56159 0.28965 109.05691 0.0
C963 C 0.55129 0.36333 108.22682 0.0
C964 C 0.56104 0.33747 109.42857 0.0
C965 C 0.59004 0.26273 112.68833 0.0
C966 C 0.57993 0.2884 111.59019 0.0
H967 H 0.55453 0.42451 105.18198 0.0
H968 H 0.5702 0.38167 107.0748 0.0
H969 H 0.53816 0.31438 105.98499 0.0
H970 H 0.58791 0.19981 115.38118 0.0
H971 H 0.57066 0.24145 113.34342 0.0
C972 C 0.15973 0.64299 107.42581 0.0
C973 C 0.15231 0.65116 109.71796 0.0
C974 C 0.17794 0.63981 109.10342 0.0
C975 C 0.21855 0.66422 117.15213 0.0
H976 H 0.24081 0.60765 114.33629 0.0
C977 C 0.29324 0.65895 123.15659 0.0
C978 C 0.29862 0.65305 120.41297 0.0
C979 C 0.2759 0.6555 122.22392 0.0
C980 C 0.23477 0.62366 115.13159 0.0
H981 H 0.15814 0.66158 115.59614 0.0
H982 H 0.19001 0.65608 118.52421 0.0
H983 H 0.20936 0.60715 112.03961 0.0
H984 H 0.29015 0.6383 114.57337 0.0
H985 H 0.25981 0.6328 112.91418 0.0
H986 H 0.24374 0.68122 120.13578 0.0
C987 C 0.1817 0.65233 115.42248 0.0
C988 C 0.21678 0.62332 113.82458 0.0
C989 C 0.16346 0.65538 113.74833 0.0
C990 C 0.28642 0.64302 116.753 0.0
C991 C 0.26905 0.63969 115.81263 0.0
C992 C 0.2365 0.66463 118.44351 0.0
C993 C 0.18913 0.64484 113.10431 0.0
C994 C 0.20845 0.6438 114.77722 0.0
C995 C 0.26353 0.64619 118.52012 0.0
C996 C 0.24477 0.64454 117.40289 0.0
H997 H 0.15149 0.63949 104.3134 0.0
H998 H 0.18328 0.63429 107.23328 0.0
H999 H 0.21244 0.68048 117.88616 0.0
H1000 H 0.30238 0.66649 126.01756 0.0
H1001 H 0.27214 0.66028 124.39891 0.0
C1002 C 0.96104 0.36938 119.55807 0.0
C1003 C 0.95383 0.39477 118.05617 0.0
C1004 C 0.95094 0.34725 117.9825 0.0
C1005 C 0.91117 0.32499 109.16255 0.0
H1006 H 0.91073 0.27228 116.25368 0.0
C1007 C 0.8556 0.25284 104.24661 0.0
C1008 C 0.85998 0.22657 105.6237 0.0
C1009 C 0.86836 0.27175 105.70137 0.0
C1010 C 0.91091 0.28661 114.23309 0.0
H1011 H 0.93044 0.41682 113.70259 0.0
H1012 H 0.91288 0.37837 110.98931 0.0
H1013 H 0.9309 0.30829 118.91244 0.0
H1014 H 0.88125 0.19949 109.59735 0.0
H1015 H 0.90361 0.23266 112.14132 0.0
H1016 H 0.89098 0.30364 104.49074 0.0
C1017 C 0.92637 0.37548 113.34953 0.0
C1018 C 0.92246 0.30722 115.75503 0.0
C1019 C 0.93641 0.39755 114.92708 0.0
C1020 C 0.87745 0.21959 108.48235 0.0
C1021 C 0.89024 0.23858 109.95071 0.0
C1022 C 0.89964 0.30443 107.644 0.0
C1023 C 0.93349 0.3501 114.86318 0.0
C1024 C 0.92247 0.3269 113.23916 0.0
C1025 C 0.88581 0.26485 108.57198 0.0
C1026 C 0.89915 0.2853 110.16709 0.0
H1027 H 0.97443 0.36659 121.9643 0.0
H1028 H 0.95682 0.32791 119.1893 0.0
H1029 H 0.91112 0.33957 107.14384 0.0
H1030 H 0.84226 0.25888 102.04964 0.0
H1031 H 0.86448 0.29191 104.62448 0.0
C1032 C 0.41195 0.17527 14.17032 0.0
C1033 C 0.40241 0.17505 16.1661 0.0
C1034 C 0.40321 0.17763 10.07279 0.0
C1035 C 0.36044 0.16696 1.26817 0.0
H1036 H 0.71243 0.18958 145.43249 0.0
C1037 C 0.6567 0.16373 133.84812 0.0
C1038 C 0.66658 0.16289 131.92977 0.0
C1039 C 0.6651 0.16381 137.94932 0.0
C1040 C 0.70743 0.17695 146.83975 0.0
H1041 H 0.37622 0.17746 15.42972 0.0
H1042 H 0.36098 0.18171 8.27735 0.0
H1043 H 0.39307 0.20912 3.24713 0.0
H1044 H 0.69303 0.16173 132.8097 0.0
H1045 H 0.70768 0.16157 139.97011 0.0
H1046 H 0.67491 0.13459 144.8713 0.0
C1047 C 0.37521 0.17976 9.88152 0.0
C1048 C 0.38167 0.19739 1.58827 0.0
C1049 C 0.38396 0.17746 13.98036 0.0
C1050 C 0.68503 0.16244 134.1985 0.0
C1051 C 0.69343 0.1625 138.30181 0.0
C1052 C 0.68622 0.14649 146.52277 0.0
C1053 C 0.38474 0.17976 7.88274 0.0
C1054 C 0.37545 0.18151 3.52439 0.0
C1055 C 0.68356 0.16303 140.22315 0.0
C1056 C 0.69248 0.16225 144.58339 0.0
H1057 H 0.42619 0.17342 15.76808 0.0
H1058 H 0.41091 0.17725 8.61496 0.0
H1059 H 0.35549 0.15422 2.67379 0.0
H1060 H 0.64246 0.16422 132.18592 0.0
H1061 H 0.65712 0.16461 139.33983 0.0
C1062 C 0.37867 0.61073 134.31619 0.0
C1063 C 0.37648 0.63451 132.26255 0.0
C1064 C 0.38927 0.60922 138.4071 0.0
C1065 C 0.40825 0.65086 147.16829 0.0
H1066 H 0.10465 0.61091 2.90991 0.0
C1067 C 0.12486 0.66873 14.37235 0.0
C1068 C 0.12617 0.64546 16.45538 0.0
C1069 C 0.11496 0.66981 10.2704 0.0
C1070 C 0.09601 0.62812 1.52848 0.0
H1071 H 0.38387 0.6753 132.88332 0.0
H1072 H 0.40251 0.67256 140.00995 0.0
H1073 H 0.42107 0.5916 145.10591 0.0
H1074 H 0.11826 0.60496 15.86362 0.0
H1075 H 0.1009 0.60692 8.69804 0.0
H1076 H 0.08319 0.68739 3.58671 0.0
C1077 C 0.39583 0.65518 138.46739 0.0
C1078 C 0.42008 0.60782 146.78616 0.0
C1079 C 0.38522 0.6567 134.37998 0.0
C1080 C 0.11753 0.62319 14.34634 0.0
C1081 C 0.10765 0.62425 10.24069 0.0
C1082 C 0.0842 0.67118 1.90608 0.0
C1083 C 0.39791 0.63146 140.52962 0.0
C1084 C 0.40891 0.63003 144.88241 0.0
C1085 C 0.10619 0.64762 8.1612 0.0
C1086 C 0.09536 0.64899 3.80907 0.0
H1087 H 0.37209 0.59329 132.77143 0.0
H1088 H 0.39044 0.59074 139.913 0.0
H1089 H 0.39955 0.66804 145.79682 0.0
H1090 H 0.13141 0.68622 15.90788 0.0
H1091 H 0.11426 0.68799 8.74711 0.0
C1092 C 1.01062 0.51515 134.72148 0.0
C1093 C 1.00087 0.49334 132.71584 0.0
C1094 C 1.02002 0.51518 138.82937 0.0
C1095 C 1.03975 0.47029 147.4892 0.0
H1096 H 0.70561 0.55485 3.75258 0.0
C1097 C 0.73512 0.49137 14.94872 0.0
C1098 C 0.7452 0.51283 16.99482 0.0
C1099 C 0.72543 0.4919 10.84465 0.0
C1100 C 0.70584 0.53721 2.22346 0.0
H1101 H 0.99318 0.45457 133.44894 0.0
H1102 H 1.00947 0.45473 140.6152 0.0
H1103 H 1.02304 0.53367 145.93484 0.0
H1104 H 0.75297 0.5517 16.33571 0.0
H1105 H 0.73615 0.55251 9.16249 0.0
H1106 H 0.72255 0.47383 3.7708 0.0
C1107 C 1.01003 0.47167 139.01117 0.0
C1108 C 1.03049 0.51584 147.47226 0.0
C1109 C 1.00062 0.47165 134.90446 0.0
C1110 C 0.74532 0.53487 14.84764 0.0
C1111 C 0.7356 0.53541 10.73867 0.0
C1112 C 0.71509 0.49167 2.23679 0.0
C1113 C 1.01989 0.49339 141.01928 0.0
C1114 C 1.03015 0.49318 145.38237 0.0
C1115 C 0.72559 0.5139 8.69271 0.0
C1116 C 0.71539 0.51429 4.32888 0.0
H1117 H 1.01112 0.53216 133.12234 0.0
H1118 H 1.02765 0.53208 140.28962 0.0
H1119 H 1.04 0.45266 145.96326 0.0
H1120 H 0.73469 0.47411 16.51429 0.0
H1121 H 0.71765 0.47517 9.357 0.0
C1122 C 0.10996 1.31665 15.14185 0.0
C1123 C 0.12831 1.31208 17.14074 0.0
C1124 C 0.1003 1.317 11.03764 0.0
C1125 C 0.1044 1.32621 2.25047 0.0
H1126 H 0.39493 1.26832 146.36315 0.0
C1127 C 0.40061 1.29016 134.80586 0.0
C1128 C 0.38218 1.29312 132.88044 0.0
C1129 C 0.41058 1.28989 138.91021 0.0
C1130 C 0.40702 1.27882 147.78079 0.0
H1131 H 0.15093 1.30445 16.39767 0.0
H1132 H 0.13401 1.30503 9.22232 0.0
H1133 H 0.07774 1.28948 4.1691 0.0
H1134 H 0.35974 1.29841 133.75073 0.0
H1135 H 0.37714 1.29835 140.90331 0.0
H1136 H 0.43364 1.31572 145.86452 0.0
C1137 C 0.12714 1.30851 10.83725 0.0
C1138 C 0.08251 1.30014 2.52697 0.0
C1139 C 0.13681 1.30805 14.94614 0.0
C1140 C 0.37392 1.29597 135.1441 0.0
C1141 C 0.38389 1.29577 139.24593 0.0
C1142 C 0.42888 1.30497 147.50113 0.0
C1143 C 0.10878 1.31289 8.84187 0.0
C1144 C 0.09846 1.31306 4.48359 0.0
C1145 C 0.40233 1.29264 141.17764 0.0
C1146 C 0.41289 1.29213 145.54101 0.0
H1147 H 0.10301 1.31988 16.74452 0.0
H1148 H 0.08619 1.32074 9.58076 0.0
H1149 H 0.11653 1.33662 3.67881 0.0
H1150 H 0.40737 1.28782 133.1471 0.0
H1151 H 0.42474 1.2871 140.30683 0.0
C1152 C 0.4077 0.81905 14.27531 0.0
C1153 C 0.40032 0.82685 16.59134 0.0
C1154 C 0.39768 0.82079 10.17654 0.0
C1155 C 0.35203 0.82257 2.04076 0.0
H1156 H 0.70641 0.82689 145.27501 0.0
C1157 C 0.64521 0.81544 134.53244 0.0
C1158 C 0.65333 0.80761 132.37052 0.0
C1159 C 0.655 0.8165 138.63222 0.0
C1160 C 0.70068 0.81935 146.94079 0.0
H1161 H 0.37669 0.8428 16.42246 0.0
H1162 H 0.35922 0.84582 9.26264 0.0
H1163 H 0.38951 0.84788 3.08412 0.0
H1164 H 0.6781 0.79472 132.81438 0.0
H1165 H 0.69508 0.79615 139.95729 0.0
H1166 H 0.66331 0.79364 145.90812 0.0
C1167 C 0.37271 0.8382 10.62259 0.0
C1168 C 0.37632 0.84065 1.68644 0.0
C1169 C 0.38276 0.83659 14.72269 0.0
C1170 C 0.67145 0.80095 134.3912 0.0
C1171 C 0.68122 0.80193 138.48723 0.0
C1172 C 0.67641 0.80116 147.29472 0.0
C1173 C 0.38006 0.83024 8.30794 0.0
C1174 C 0.3693 0.83133 3.95624 0.0
C1175 C 0.67311 0.80968 140.65709 0.0
C1176 C 0.68348 0.81023 145.01839 0.0
H1177 H 0.4212 0.81144 15.62439 0.0
H1178 H 0.40364 0.81424 8.46765 0.0
H1179 H 0.34635 0.81495 3.71348 0.0
H1180 H 0.63128 0.82081 133.06164 0.0
H1181 H 0.6484 0.82288 140.21292 0.0
C1182 C 0.05704 1.02409 134.82752 0.0
C1183 C 0.05757 1.00274 132.6075 0.0
C1184 C 0.06755 1.02346 138.92162 0.0
C1185 C 0.10671 0.98959 147.1818 0.0
H1186 H -0.24911 1.03481 3.90221 0.0
C1187 C -0.19725 0.98721 14.39137 0.0
C1188 C -0.19821 1.00708 16.77762 0.0
C1189 C -0.20588 0.99079 10.31013 0.0
C1190 C -0.24283 1.02849 2.25037 0.0
H1191 H 0.06976 0.96414 132.93703 0.0
H1192 H 0.08791 0.9629 140.08053 0.0
H1193 H 0.06843 1.01683 146.10878 0.0
H1194 H -0.20866 1.04652 16.75857 0.0
H1195 H -0.22364 1.05279 9.63538 0.0
H1196 H -0.20463 1.00088 3.33595 0.0
C1197 C 0.07954 0.98028 138.65611 0.0
C1198 C 0.08188 1.00896 147.5084 0.0
C1199 C 0.06905 0.98093 134.56195 0.0
C1200 C -0.20773 1.03077 15.0022 0.0
C1201 C -0.21639 1.03433 10.92022 0.0
C1202 C -0.21801 1.00907 1.92738 0.0
C1203 C 0.07881 1.00145 140.88508 0.0
C1204 C 0.08934 1.00019 145.24694 0.0
C1205 C -0.21567 1.01429 8.52805 0.0
C1206 C -0.22555 1.01753 4.18212 0.0
H1207 H 0.04841 1.04126 133.40943 0.0
H1208 H 0.06687 1.04024 140.55018 0.0
H1209 H 0.11292 0.98302 145.52562 0.0
H1210 H -0.19003 0.96871 15.66795 0.0
H1211 H -0.20524 0.97487 8.54322 0.0
C1212 C 0.78741 0.80218 90.38682 0.0
C1213 C 0.78578 0.82299 92.55802 0.0
C1214 C 0.77852 0.80366 86.28485 0.0
C1215 C 0.7573 0.85054 77.86503 0.0
H1216 H 0.73474 0.78838 72.04775 0.0
C1217 C 0.71223 0.85161 60.92588 0.0
C1218 C 0.71425 0.82995 58.93612 0.0
C1219 C 0.72081 0.85143 65.03578 0.0
C1220 C 0.74112 0.80583 73.62899 0.0
H1221 H 0.77363 0.86178 92.12624 0.0
H1222 H 0.75799 0.86425 84.95126 0.0
H1223 H 0.75001 0.78686 79.20815 0.0
H1224 H 0.72705 0.79126 59.70204 0.0
H1225 H 0.7421 0.79107 66.85152 0.0
H1226 H 0.74843 0.86947 72.27227 0.0
C1227 C 0.76629 0.84691 86.42987 0.0
C1228 C 0.74987 0.80496 77.73102 0.0
C1229 C 0.77518 0.84542 90.53857 0.0
C1230 C 0.72513 0.80822 61.14034 0.0
C1231 C 0.73369 0.80803 65.24043 0.0
C1232 C 0.74854 0.85142 73.75478 0.0
C1233 C 0.7678 0.82598 84.25938 0.0
C1234 C 0.75816 0.82724 79.89638 0.0
C1235 C 0.73156 0.82956 67.2351 0.0
C1236 C 0.74046 0.829 71.5943 0.0
H1237 H 0.79555 0.78467 91.85217 0.0
H1238 H 0.78017 0.78738 84.69843 0.0
H1239 H 0.76373 0.86795 79.45325 0.0
H1240 H 0.70392 0.86865 59.31258 0.0
H1241 H 0.71879 0.86821 66.48811 0.0
C1242 C 0.07122 1.34113 87.41271 0.0
C1243 C 0.06725 1.32282 89.50909 0.0
C1244 C 0.06235 1.34124 83.30383 0.0
C1245 C 0.03622 1.29932 74.80855 0.0
H1246 H 0.02062 1.36581 68.97359 0.0
C1247 C -0.01117 1.30481 58.06999 0.0
C1248 C -0.00749 1.32266 55.86981 0.0
C1249 C -0.00186 1.30508 62.17402 0.0
C1250 C 0.02506 1.3471 70.56233 0.0
H1251 H 0.05086 1.29027 88.93638 0.0
H1252 H 0.0353 1.29065 81.77459 0.0
H1253 H 0.03663 1.36572 76.14969 0.0
H1254 H 0.00879 1.35491 56.2536 0.0
H1255 H 0.02511 1.35525 63.42715 0.0
H1256 H 0.0246 1.28068 69.2254 0.0
C1257 C 0.04541 1.3047 83.30553 0.0
C1258 C 0.03424 1.34705 74.67162 0.0
C1259 C 0.05427 1.30459 87.41108 0.0
C1260 C 0.00562 1.34092 57.86276 0.0
C1261 C 0.01491 1.34121 61.9717 0.0
C1262 C 0.02704 1.29937 70.70296 0.0
C1263 C 0.04935 1.32303 81.20496 0.0
C1264 C 0.03986 1.32315 76.83999 0.0
C1265 C 0.01132 1.32322 64.17109 0.0
C1266 C 0.0213 1.32325 68.53412 0.0
H1267 H 0.08119 1.3554 88.94147 0.0
H1268 H 0.06583 1.3554 81.77206 0.0
H1269 H 0.04063 1.28059 76.3929 0.0
H1270 H -0.02123 1.29055 56.62571 0.0
H1271 H -0.00512 1.29122 63.78443 0.0
C1272 C 0.46792 0.44501 88.52947 0.0
C1273 C 0.47338 0.46675 91.0188 0.0
C1274 C 0.46011 0.44863 84.45975 0.0
C1275 C 0.45488 0.49673 76.81836 0.0
H1276 H 0.41436 0.45635 70.01551 0.0
C1277 C 0.40918 0.52132 60.26249 0.0
C1278 C 0.40338 0.49998 57.69833 0.0
C1279 C 0.41865 0.51692 64.334 0.0
C1280 C 0.42579 0.46755 71.8743 0.0
H1281 H 0.47498 0.50933 91.19215 0.0
H1282 H 0.46112 0.51564 84.0998 0.0
H1283 H 0.4291 0.44919 77.11354 0.0
H1284 H 0.40327 0.45728 57.39369 0.0
H1285 H 0.41981 0.44969 64.48789 0.0
H1286 H 0.45136 0.51535 71.56417 0.0
C1287 C 0.46312 0.49576 85.29028 0.0
C1288 C 0.43425 0.46343 75.94142 0.0
C1289 C 0.47096 0.49215 89.35663 0.0
C1290 C 0.40749 0.47417 59.28708 0.0
C1291 C 0.41688 0.46979 63.35216 0.0
C1292 C 0.44637 0.50092 72.74804 0.0
C1293 C 0.45756 0.47406 82.79284 0.0
C1294 C 0.44886 0.47802 78.46252 0.0
C1295 C 0.42243 0.49111 65.91924 0.0
C1296 C 0.43171 0.48641 70.23541 0.0
H1297 H 0.46968 0.42518 89.72005 0.0
H1298 H 0.45619 0.43146 82.62101 0.0
H1299 H 0.46626 0.50801 78.67554 0.0
H1300 H 0.40623 0.54143 59.13076 0.0
H1301 H 0.42263 0.53375 66.24227 0.0
C1302 C 0.069 0.66221 87.39913 0.0
C1303 C 0.08424 0.64658 89.82683 0.0
C1304 C 0.06072 0.66048 83.31175 0.0
C1305 C 0.05632 0.61629 75.46002 0.0
H1306 H 0.03839 0.67981 68.93272 0.0
C1307 C 0.02794 0.61575 58.62375 0.0
C1308 C 0.01265 0.63163 56.32721 0.0
C1309 C 0.03706 0.61746 62.72115 0.0
C1310 C 0.04316 0.66187 70.71401 0.0
H1311 H 0.10279 0.61698 89.86559 0.0
H1312 H 0.08839 0.61412 82.72715 0.0
H1313 H 0.05368 0.68316 76.07134 0.0
H1314 H -0.00513 0.66161 56.53019 0.0
H1315 H 0.01065 0.66435 63.66677 0.0
H1316 H 0.04571 0.59499 70.0987 0.0
C1317 C 0.08275 0.6275 83.98953 0.0
C1318 C 0.05193 0.6638 74.80221 0.0
C1319 C 0.09105 0.62926 88.07877 0.0
C1320 C 0.00663 0.64915 58.21215 0.0
C1321 C 0.01574 0.65086 62.30279 0.0
C1322 C 0.04753 0.61436 71.36851 0.0
C1323 C 0.06748 0.64306 81.56221 0.0
C1324 C 0.05853 0.64103 77.22018 0.0
C1325 C 0.03108 0.6351 64.60345 0.0
C1326 C 0.04078 0.63712 68.95063 0.0
H1327 H 0.06338 0.67571 88.65241 0.0
H1328 H 0.04885 0.67249 81.52219 0.0
H1329 H 0.06105 0.59836 77.2437 0.0
H1330 H 0.03294 0.6021 57.25989 0.0
H1331 H 0.04893 0.60525 64.41102 0.0
C1332 C 0.75333 0.17818 58.93364 0.0
C1333 C 0.73487 0.17898 57.07033 0.0
C1334 C 0.76353 0.1783 63.03278 0.0
C1335 C 0.76165 0.19482 71.97635 0.0
H1336 H 0.80217 0.14604 77.14248 0.0
C1337 C 0.79686 0.17113 88.61635 0.0
C1338 C 0.81531 0.1682 90.65101 0.0
C1339 C 0.78747 0.17392 84.52305 0.0
C1340 C 0.79104 0.16004 75.74506 0.0
H1341 H 0.71264 0.18084 58.04634 0.0
H1342 H 0.73045 0.18085 65.19789 0.0
H1343 H 0.78498 0.14833 69.98124 0.0
H1344 H 0.8384 0.16627 89.98748 0.0
H1345 H 0.82199 0.17136 82.8385 0.0
H1346 H 0.76764 0.20638 77.74232 0.0
C1347 C 0.73703 0.18039 63.48889 0.0
C1348 C 0.78119 0.16134 71.64163 0.0
C1349 C 0.72683 0.18023 59.39077 0.0
C1350 C 0.82418 0.16839 88.5068 0.0
C1351 C 0.81478 0.17117 84.40934 0.0
C1352 C 0.77151 0.19353 76.08016 0.0
C1353 C 0.7555 0.17928 65.35575 0.0
C1354 C 0.76632 0.17861 69.71238 0.0
C1355 C 0.79631 0.17384 82.37098 0.0
C1356 C 0.78624 0.17599 78.01089 0.0
H1357 H 0.75993 0.1773 57.23039 0.0
H1358 H 0.77773 0.17775 64.38369 0.0
H1359 H 0.75042 0.20862 70.57453 0.0
H1360 H 0.78962 0.17101 90.17924 0.0
H1361 H 0.77324 0.17559 83.03809 0.0
C1362 C 0.31643 0.99273 59.63149 0.0
C1363 C 0.32642 0.99745 57.82047 0.0
C1364 C 0.32419 0.99305 63.72216 0.0
C1365 C 0.36259 1.01689 72.6669 0.0
H1366 H 0.35203 0.96188 77.92728 0.0
C1367 C 0.40346 0.99762 89.39601 0.0
C1368 C 0.39441 0.99169 91.38591 0.0
C1369 C 0.3946 0.9993 85.29532 0.0
C1370 C 0.35494 0.97758 76.49966 0.0
H1371 H 0.35238 1.00641 58.8825 0.0
H1372 H 0.36595 1.00673 66.01944 0.0
H1373 H 0.33758 0.96315 70.76666 0.0
H1374 H 0.36892 0.98301 90.63303 0.0
H1375 H 0.35341 0.98615 83.46225 0.0
H1376 H 0.38005 1.0312 78.40099 0.0
C1377 C 0.35206 1.00309 64.2743 0.0
C1378 C 0.34666 0.9783 72.39819 0.0
C1379 C 0.3443 1.00274 60.18434 0.0
C1380 C 0.37628 0.98757 89.18647 0.0
C1381 C 0.36741 0.98923 85.07945 0.0
C1382 C 0.37086 1.01617 76.76698 0.0
C1383 C 0.34211 0.99813 66.08891 0.0
C1384 C 0.35048 0.99787 70.43841 0.0
C1385 C 0.37649 0.99507 83.0904 0.0
C1386 C 0.36721 0.9964 78.72967 0.0
H1387 H 0.3026 0.98867 57.89306 0.0
H1388 H 0.31613 0.98949 65.03088 0.0
H1389 H 0.36559 1.03246 71.23963 0.0
H1390 H 0.41744 1.00082 91.00099 0.0
H1391 H 0.40202 1.00346 83.8491 0.0
C1392 C 0.50308 0.17615 34.10631 0.0
C1393 C 0.49375 0.16027 30.82057 0.0
C1394 C 0.5211 0.17921 35.68727 0.0
C1395 C 0.56049 0.14788 36.03993 0.0
H1396 H 0.57995 0.21668 39.38301 0.0
C1397 C 0.63132 0.16892 39.99008 0.0
C1398 C 0.64124 0.18415 43.31976 0.0
C1399 C 0.61335 0.16626 38.52598 0.0
C1400 C 0.57474 0.19729 38.50386 0.0
H1401 H 0.49605 0.13526 26.60612 0.0
H1402 H 0.52744 0.14082 29.33805 0.0
H1403 H 0.5485 0.21151 36.69912 0.0
H1404 H 0.64001 0.20868 47.70743 0.0
H1405 H 0.6086 0.20391 45.15362 0.0
H1406 H 0.5867 0.13367 37.82628 0.0
C1407 C 0.52087 0.15062 30.72745 0.0
C1408 C 0.55673 0.19432 36.96693 0.0
C1409 C 0.50285 0.14755 29.14734 0.0
C1410 C 0.63275 0.19683 45.13473 0.0
C1411 C 0.61474 0.19421 43.66137 0.0
C1412 C 0.57848 0.15086 37.57054 0.0
C1413 C 0.53021 0.16645 34.01846 0.0
C1414 C 0.54939 0.1696 35.7027 0.0
C1415 C 0.60487 0.17878 40.35147 0.0
C1416 C 0.5858 0.17561 38.80351 0.0
H1417 H 0.49647 0.18618 35.47267 0.0
H1418 H 0.52795 0.19128 38.25213 0.0
H1419 H 0.55531 0.12848 35.15998 0.0
H1420 H 0.63742 0.15894 38.51061 0.0
H1421 H 0.60607 0.15456 35.93635 0.0
C1422 C 0.27409 0.88783 44.84633 0.0
C1423 C 0.26776 0.9138 43.52527 0.0
C1424 C 0.26282 0.86689 43.3673 0.0
C1425 C 0.21588 0.85112 38.25735 0.0
H1426 H 0.23265 0.78695 35.61142 0.0
C1427 C 0.17021 0.76667 29.77077 0.0
C1428 C 0.17695 0.74082 31.08341 0.0
C1429 C 0.1811 0.78804 31.29748 0.0
C1430 C 0.22783 0.80463 36.3745 0.0
H1431 H 0.24459 0.93819 39.63949 0.0
H1432 H 0.22498 0.90162 37.03866 0.0
H1433 H 0.25203 0.8237 38.30845 0.0
H1434 H 0.20036 0.71717 35.0568 0.0
H1435 H 0.21925 0.75439 37.73252 0.0
H1436 H 0.19165 0.832 36.31404 0.0
C1437 C 0.23861 0.89747 39.24907 0.0
C1438 C 0.23894 0.82567 37.92286 0.0
C1439 C 0.24988 0.91841 40.72615 0.0
C1440 C 0.19476 0.73681 33.96597 0.0
C1441 C 0.20563 0.75814 35.48633 0.0
C1442 C 0.20475 0.83005 36.70633 0.0
C1443 C 0.24497 0.87146 40.53608 0.0
C1444 C 0.23311 0.84913 38.89147 0.0
C1445 C 0.19895 0.78398 34.16204 0.0
C1446 C 0.21063 0.80655 35.75887 0.0
H1447 H 0.28778 0.88361 47.01003 0.0
H1448 H 0.26807 0.84711 44.45925 0.0
H1449 H 0.21107 0.86882 39.01884 0.0
H1450 H 0.15655 0.77042 27.54977 0.0
H1451 H 0.17561 0.8077 30.18937 0.0
C1452 C 0.73648 0.74039 44.76483 0.0
C1453 C 0.71984 0.74522 44.38031 0.0
C1454 C 0.74031 0.71694 43.42517 0.0
C1455 C 0.72557 0.64892 40.73322 0.0
H1456 H 0.75101 0.65128 35.03833 0.0
C1457 C 0.73073 0.56042 32.10958 0.0
C1458 C 0.74716 0.55473 32.42274 0.0
C1459 C 0.72777 0.58358 33.65186 0.0
C1460 C 0.74407 0.65026 36.66131 0.0
H1461 H 0.69415 0.7292 42.29082 0.0
H1462 H 0.70076 0.68852 39.92175 0.0
H1463 H 0.74532 0.6918 37.62978 0.0
H1464 H 0.77337 0.56896 34.59241 0.0
H1465 H 0.76821 0.6093 37.29799 0.0
H1466 H 0.72421 0.60742 39.73944 0.0
C1467 C 0.71095 0.70265 41.30806 0.0
C1468 C 0.74082 0.67346 38.14998 0.0
C1469 C 0.70714 0.72606 42.64744 0.0
C1470 C 0.76055 0.57276 34.29656 0.0
C1471 C 0.75757 0.59595 35.82955 0.0
C1472 C 0.72879 0.62574 39.23977 0.0
C1473 C 0.72757 0.69783 41.67345 0.0
C1474 C 0.73146 0.67307 40.18706 0.0
C1475 C 0.74116 0.60159 35.53182 0.0
C1476 C 0.738 0.62617 37.17227 0.0
H1477 H 0.74657 0.75472 46.09576 0.0
H1478 H 0.7533 0.71367 43.79227 0.0
H1479 H 0.71858 0.64788 42.34649 0.0
H1480 H 0.72013 0.54698 30.67596 0.0
H1481 H 0.71492 0.58753 33.33077 0.0
C1482 C 0.08489 1.33337 29.82989 0.0
C1483 C 0.09993 1.31653 31.18626 0.0
C1484 C 0.07291 1.32979 31.12449 0.0
C1485 C 0.05812 1.28076 35.66741 0.0
H1486 H 0.0391 1.34256 38.29675 0.0
C1487 C 0.01634 1.27435 43.26341 0.0
C1488 C 0.00159 1.29186 41.86694 0.0
C1489 C 0.02845 1.27684 41.9699 0.0
C1490 C 0.04415 1.32512 37.53568 0.0
H1491 H 0.11412 1.28253 34.93855 0.0
H1492 H 0.09327 1.27643 37.22601 0.0
H1493 H 0.05995 1.34776 35.99894 0.0
H1494 H -0.01212 1.32558 37.98837 0.0
H1495 H 0.00887 1.32975 35.71669 0.0
H1496 H 0.04229 1.25813 37.21141 0.0
C1497 C 0.09065 1.29225 35.12896 0.0
C1498 C 0.05609 1.3281 36.2167 0.0
C1499 C 0.10264 1.29583 33.83336 0.0
C1500 C -0.00086 1.31181 39.13629 0.0
C1501 C 0.01123 1.31431 37.84947 0.0
C1502 C 0.04617 1.27777 36.99031 0.0
C1503 C 0.0757 1.3093 33.80705 0.0
C1504 C 0.06316 1.30597 35.25054 0.0
C1505 C 0.02605 1.29693 39.26102 0.0
C1506 C 0.03899 1.29994 37.92196 0.0
H1507 H 0.08236 1.34943 27.77496 0.0
H1508 H 0.06138 1.34301 30.00222 0.0
H1509 H 0.06317 1.26334 34.90244 0.0
H1510 H 0.01862 1.2588 45.37298 0.0
H1511 H 0.03983 1.26331 43.1412 0.0
C1512 C 0.40267 0.73296 29.74824 0.0
C1513 C 0.41939 0.73977 30.4854 0.0
C1514 C 0.40031 0.70859 31.02531 0.0
C1515 C 0.42447 0.65512 38.30932 0.0
H1516 H 0.38264 0.61651 31.76283 0.0
C1517 C 0.41322 0.55216 42.78809 0.0
C1518 C 0.39625 0.54819 42.15443 0.0
C1519 C 0.41656 0.57467 41.25771 0.0
C1520 C 0.39432 0.62716 33.63659 0.0
H1521 H 0.44672 0.72617 33.09667 0.0
H1522 H 0.44256 0.68349 35.29844 0.0
H1523 H 0.38753 0.65726 29.23956 0.0
H1524 H 0.3695 0.56475 39.41814 0.0
H1525 H 0.37537 0.60398 36.782 0.0
H1526 H 0.43117 0.6251 42.71904 0.0
C1527 C 0.43132 0.69716 33.77271 0.0
C1528 C 0.39713 0.65051 32.19195 0.0
C1529 C 0.43367 0.72155 32.49203 0.0
C1530 C 0.38271 0.56715 39.95443 0.0
C1531 C 0.38605 0.58958 38.41871 0.0
C1532 C 0.42167 0.63174 39.75362 0.0
C1533 C 0.41462 0.69045 33.06833 0.0
C1534 C 0.41213 0.66491 34.52695 0.0
C1535 C 0.403 0.5936 39.05098 0.0
C1536 C 0.40647 0.61767 37.44855 0.0
H1537 H 0.39139 0.74656 28.21849 0.0
H1538 H 0.38733 0.70418 30.48229 0.0
H1539 H 0.43605 0.66592 40.20063 0.0
H1540 H 0.42393 0.5379 44.46492 0.0
H1541 H 0.42973 0.57711 41.76561 0.0
C1542 C -0.1508 0.87572 27.8399 0.0
C1543 C -0.14658 0.89921 29.95775 0.0
C1544 C -0.13913 0.85369 29.23327 0.0
C1545 C -0.09239 0.83426 36.01605 0.0
H1546 H -0.1103 0.76466 35.36841 0.0
C1547 C -0.04706 0.74363 44.19922 0.0
C1548 C -0.05043 0.71995 42.13791 0.0
C1549 C -0.05889 0.76534 42.62882 0.0
C1550 C -0.10512 0.78394 35.5309 0.0
H1551 H -0.12684 0.91795 35.21063 0.0
H1552 H -0.10665 0.87948 37.6618 0.0
H1553 H -0.13078 0.8029 32.76978 0.0
H1554 H -0.06893 0.70046 36.81307 0.0
H1555 H -0.08956 0.73846 34.06912 0.0
H1556 H -0.06672 0.81531 38.80798 0.0
C1557 C -0.11883 0.87818 34.89187 0.0
C1558 C -0.11685 0.80585 34.03882 0.0
C1559 C -0.13046 0.9002 33.49664 0.0
C1560 C -0.06594 0.71842 38.47812 0.0
C1561 C -0.07781 0.74013 36.9141 0.0
C1562 C -0.08067 0.81238 37.51649 0.0
C1563 C -0.12301 0.85467 32.77674 0.0
C1564 C -0.11061 0.83128 34.27998 0.0
C1565 C -0.07438 0.76385 38.96824 0.0
C1566 C -0.08689 0.787 37.30584 0.0
H1567 H -0.16309 0.87434 25.09667 0.0
H1568 H -0.14266 0.83599 27.50892 0.0
H1569 H -0.08717 0.8535 36.18516 0.0
H1570 H -0.03525 0.74545 47.02966 0.0
H1571 H -0.05599 0.78324 44.30563 0.0
C1572 C 0.27793 1.31565 119.32583 0.0
C1573 C 0.288 1.29701 118.55727 0.0
C1574 C 0.25996 1.31258 117.81606 0.0
C1575 C 0.222 1.28029 109.86122 0.0
H1576 H 0.20003 1.2985 116.0448 0.0
C1577 C 0.14813 1.26624 104.27386 0.0
C1578 C 0.13907 1.28708 104.95721 0.0
C1579 C 0.16645 1.26589 106.01473 0.0
C1580 C 0.20596 1.29353 114.27173 0.0
H1581 H 0.28715 1.26024 115.6595 0.0
H1582 H 0.25579 1.2548 113.05252 0.0
H1583 H 0.23185 1.30031 119.00719 0.0
H1584 H 0.14215 1.32395 107.99228 0.0
H1585 H 0.17402 1.3234 110.99574 0.0
H1586 H 0.19606 1.27372 105.11545 0.0
C1587 C 0.26177 1.27196 114.78237 0.0
C1588 C 0.22418 1.29457 115.96818 0.0
C1589 C 0.27976 1.27501 116.29575 0.0
C1590 C 0.14871 1.30757 107.40927 0.0
C1591 C 0.167 1.30717 109.15556 0.0
C1592 C 0.20376 1.27922 108.16514 0.0
C1593 C 0.25165 1.29081 115.50352 0.0
C1594 C 0.2324 1.28825 113.76987 0.0
C1595 C 0.17608 1.28631 108.48587 0.0
C1596 C 0.19553 1.28612 110.33903 0.0
H1597 H 0.28386 1.33284 121.05094 0.0
H1598 H 0.2525 1.32764 118.38446 0.0
H1599 H 0.22789 1.27563 108.07208 0.0
H1600 H 0.14109 1.25013 102.40486 0.0
H1601 H 0.1731 1.24944 105.46835 0.0
C1602 C 0.60923 0.71538 115.45195 0.0
C1603 C 0.62123 0.71745 119.49394 0.0
C1604 C 0.59991 0.69257 113.975 0.0
C1605 C 0.58405 0.63592 116.91708 0.0
H1606 H 0.5744 0.60958 106.785 0.0
C1607 C 0.54297 0.54423 109.98949 0.0
C1608 C 0.53017 0.54687 105.98134 0.0
C1609 C 0.55561 0.5632 111.79697 0.0
C1610 C 0.57691 0.61679 109.60845 0.0
H1611 H 0.63309 0.69693 125.14778 0.0
H1612 H 0.6168 0.65689 122.55129 0.0
H1613 H 0.59415 0.64576 109.6946 0.0
H1614 H 0.52069 0.57137 100.72364 0.0
H1615 H 0.54263 0.60446 103.87987 0.0
H1616 H 0.56658 0.60717 116.7976 0.0
C1617 C 0.61452 0.67311 120.53796 0.0
C1618 C 0.58822 0.6375 111.27553 0.0
C1619 C 0.6239 0.69598 122.02037 0.0
C1620 C 0.53037 0.56873 103.81438 0.0
C1621 C 0.54303 0.58761 105.61661 0.0
C1622 C 0.57275 0.61516 115.25015 0.0
C1623 C 0.60234 0.67123 116.50007 0.0
C1624 C 0.59167 0.64762 114.91499 0.0
C1625 C 0.55575 0.58511 109.62898 0.0
C1626 C 0.56882 0.60569 111.54584 0.0
H1627 H 0.60683 0.73155 113.42057 0.0
H1628 H 0.59044 0.69194 110.85994 0.0
H1629 H 0.58629 0.64345 119.70407 0.0
H1630 H 0.5432 0.52758 111.73997 0.0
H1631 H 0.56534 0.56063 114.88547 0.0
C1632 C 0.03988 0.91061 113.96869 0.0
C1633 C 0.05416 0.92221 117.1673 0.0
C1634 C 0.04259 0.8887 112.15925 0.0
C1635 C 0.07636 0.85216 110.85995 0.0
H1636 H 0.04498 0.79441 108.3024 0.0
C1637 C 0.09036 0.74995 106.27305 0.0
C1638 C 0.076 0.73676 103.33687 0.0
C1639 C 0.08768 0.77343 107.79323 0.0
C1640 C 0.05371 0.8105 108.94435 0.0
H1641 H 0.08254 0.92007 120.94007 0.0
H1642 H 0.08726 0.88166 117.78708 0.0
H1643 H 0.04042 0.83371 111.28819 0.0
H1644 H 0.04759 0.73828 99.61966 0.0
H1645 H 0.04294 0.77941 102.23627 0.0
H1646 H 0.08968 0.82887 108.5225 0.0
C1647 C 0.07397 0.88969 116.66293 0.0
C1648 C 0.05111 0.83302 110.66146 0.0
C1649 C 0.07125 0.9116 118.48275 0.0
C1650 C 0.05893 0.74786 101.89528 0.0
C1651 C 0.05626 0.77136 103.41185 0.0
C1652 C 0.07895 0.82963 109.1334 0.0
C1653 C 0.05965 0.87789 113.49914 0.0
C1654 C 0.06241 0.85409 111.64344 0.0
C1655 C 0.07058 0.78427 106.40818 0.0
C1656 C 0.06766 0.80852 108.16119 0.0
H1657 H 0.02654 0.91834 112.86931 0.0
H1658 H 0.03131 0.88029 109.69336 0.0
H1659 H 0.08515 0.86822 111.53693 0.0
H1660 H 0.10368 0.74191 107.45407 0.0
H1661 H 0.09898 0.78271 110.12864 0.0
C1662 C 0.79232 0.17478 108.22789 0.0
C1663 C 0.7871 0.16007 104.8125 0.0
C1664 C 0.78129 0.17792 109.82389 0.0
C1665 C 0.73495 0.17308 107.35817 0.0
H1666 H 0.75517 0.16589 118.65762 0.0
C1667 C 0.69263 0.15799 114.54286 0.0
C1668 C 0.69678 0.17205 117.96357 0.0
C1669 C 0.70373 0.15798 112.95766 0.0
C1670 C 0.74936 0.16828 115.50221 0.0
H1671 H 0.76615 0.13729 100.37938 0.0
H1672 H 0.74704 0.14248 103.1864 0.0
H1673 H 0.77435 0.16347 115.82579 0.0
H1674 H 0.71591 0.19704 122.41346 0.0
H1675 H 0.73533 0.197 119.6351 0.0
H1676 H 0.70994 0.17751 107.03232 0.0
C1677 C 0.75955 0.15192 104.60384 0.0
C1678 C 0.76034 0.16691 113.87858 0.0
C1679 C 0.77055 0.1488 103.00701 0.0
C1680 C 0.71234 0.186 119.77642 0.0
C1681 C 0.7235 0.18589 118.19702 0.0
C1682 C 0.72398 0.17436 108.97992 0.0
C1683 C 0.76481 0.16642 108.03945 0.0
C1684 C 0.75324 0.16907 109.78393 0.0
C1685 C 0.71928 0.17195 114.7619 0.0
C1686 C 0.73104 0.17174 113.0656 0.0
H1687 H 0.80496 0.18381 109.68284 0.0
H1688 H 0.78564 0.18949 112.44441 0.0
H1689 H 0.72909 0.1753 104.19979 0.0
H1690 H 0.68076 0.14699 113.07511 0.0
H1691 H 0.70025 0.14675 110.34032 0.0
C1692 C 0.34406 0.74462 114.31376 0.0
C1693 C 0.35549 0.73975 118.3565 0.0
C1694 C 0.34466 0.76809 112.53644 0.0
C1695 C 0.36097 0.83581 114.66105 0.0
H1696 H 0.36083 0.82965 104.80233 0.0
C1697 C 0.38708 0.91556 108.72196 0.0
C1698 C 0.37844 0.92054 104.64182 0.0
C1699 C 0.38201 0.89512 110.26559 0.0
C1700 C 0.36058 0.83183 107.51837 0.0
H1701 H 0.37621 0.75601 123.72167 0.0
H1702 H 0.37739 0.79678 120.61243 0.0
H1703 H 0.35606 0.79095 107.75139 0.0
H1704 H 0.35733 0.90844 98.99174 0.0
H1705 H 0.34841 0.87279 101.69705 0.0
H1706 H 0.36586 0.87662 114.46098 0.0
C1707 C 0.36782 0.7826 118.82268 0.0
C1708 C 0.35786 0.80963 109.21156 0.0
C1709 C 0.36722 0.75914 120.60109 0.0
C1710 C 0.36432 0.90504 102.14687 0.0
C1711 C 0.35925 0.88454 103.69385 0.0
C1712 C 0.3637 0.85802 112.96668 0.0
C1713 C 0.3567 0.7872 114.76085 0.0
C1714 C 0.35827 0.81128 112.82936 0.0
C1715 C 0.36819 0.87916 107.76741 0.0
C1716 C 0.36379 0.85619 109.40404 0.0
H1717 H 0.33478 0.73016 112.503 0.0
H1718 H 0.33574 0.7712 109.41191 0.0
H1719 H 0.36108 0.83782 117.4182 0.0
H1720 H 0.39801 0.92713 110.72988 0.0
H1721 H 0.38931 0.8913 113.41139 0.0
C1722 C 0.92223 0.54548 120.0894 0.0
C1723 C 0.93198 0.53626 118.35036 0.0
C1724 C 0.91106 0.56798 118.57564 0.0
C1725 C 0.88702 0.61008 109.62481 0.0
H1726 H 0.88762 0.66291 116.81878 0.0
C1727 C 0.85519 0.71436 104.37126 0.0
C1728 C 0.84635 0.72594 106.1828 0.0
C1729 C 0.86487 0.69052 105.81645 0.0
C1730 C 0.8871 0.64819 114.77085 0.0
H1731 H 0.93757 0.54337 113.64191 0.0
H1732 H 0.91816 0.58261 111.02115 0.0
H1733 H 0.90584 0.62245 119.41743 0.0
H1734 H 0.84054 0.72136 110.90325 0.0
H1735 H 0.85726 0.67959 113.39427 0.0
H1736 H 0.86834 0.63583 104.97704 0.0
C1737 C 0.91902 0.57232 113.5304 0.0
C1738 C 0.89755 0.62502 116.26137 0.0
C1739 C 0.93022 0.54991 115.04986 0.0
C1740 C 0.84726 0.71302 109.44933 0.0
C1741 C 0.85693 0.68915 110.89132 0.0
C1742 C 0.87654 0.63322 108.13434 0.0
C1743 C 0.90934 0.58165 115.28185 0.0
C1744 C 0.89773 0.6058 113.70383 0.0
C1745 C 0.86591 0.67768 109.10182 0.0
C1746 C 0.87656 0.65264 110.68878 0.0
H1747 H 0.92326 0.53539 122.63121 0.0
H1748 H 0.90364 0.57454 119.96479 0.0
H1749 H 0.88666 0.59546 107.58053 0.0
H1750 H 0.85481 0.72382 101.85689 0.0
H1751 H 0.87183 0.68241 104.40189 0.0
loop_
_geom_bond_atom_site_label_1
_geom_bond_atom_site_label_2
_geom_bond_distance
_geom_bond_site_symmetry_2
_ccdc_geom_bond_type
C0 O1 1.160 . S
C0 O7 1.185 . S
O1 C0 1.160 . S
O2 Zn3 1.899 . S
O2 C10 1.284 . S
Zn3 O2 1.899 . S
Zn3 O4 2.032 . S
Zn3 O7 2.086 . S
Zn3 O12 1.977 . S
O4 Zn3 2.032 . S
O4 C8 1.278 . S
C5 O6 1.203 . S
C5 O12 1.267 . S
O6 C5 1.203 . S
O7 C0 1.185 . S
O7 Zn3 2.086 . S
C8 O4 1.278 . S
C8 O9 1.211 . S
O9 C8 1.211 . S
C10 O2 1.284 . S
C10 O11 1.273 . S
O11 C10 1.273 . S
O12 Zn3 1.977 . S
O12 C5 1.267 . S
C13 O14 1.160 . S
C13 O20 1.185 . S
O14 C13 1.160 . S
O15 Zn16 1.899 . S
O15 C23 1.284 . S
Zn16 O15 1.899 . S
Zn16 O17 2.032 . S
Zn16 O20 2.086 . S
Zn16 O25 1.977 . S
O17 Zn16 2.032 . S
O17 C21 1.278 . S
C18 O19 1.203 . S
C18 O25 1.267 . S
O19 C18 1.203 . S
O20 C13 1.185 . S
O20 Zn16 2.086 . S
C21 O17 1.278 . S
C21 O22 1.211 . S
O22 C21 1.211 . S
C23 O15 1.284 . S
C23 O24 1.273 . S
O24 C23 1.273 . S
O25 Zn16 1.977 . S
O25 C18 1.267 . S
C26 O27 1.160 . S
C26 O33 1.185 . S
O27 C26 1.160 . S
O28 Zn29 1.899 . S
O28 C36 1.284 . S
Zn29 O28 1.899 . S
Zn29 O30 2.032 . S
Zn29 O33 2.086 . S
Zn29 O38 1.977 . S
O30 Zn29 2.032 . S
O30 C34 1.278 . S
C31 O32 1.203 . S
C31 O38 1.267 . S
O32 C31 1.203 . S
O33 C26 1.185 . S
O33 Zn29 2.086 . S
C34 O30 1.278 . S
C34 O35 1.211 . S
O35 C34 1.211 . S
C36 O28 1.284 . S
C36 O37 1.273 . S
O37 C36 1.273 . S
O38 Zn29 1.977 . S
O38 C31 1.267 . S
C39 O40 1.160 . S
C39 O46 1.185 . S
O40 C39 1.160 . S
O41 Zn42 1.899 . S
O41 C49 1.284 . S
Zn42 O41 1.899 . S
Zn42 O43 2.032 . S
Zn42 O46 2.086 . S
Zn42 O51 1.977 . S
O43 Zn42 2.032 . S
O43 C47 1.278 . S
C44 O45 1.203 . S
C44 O51 1.267 . S
O45 C44 1.203 . S
O46 C39 1.185 . S
O46 Zn42 2.086 . S
C47 O43 1.278 . S
C47 O48 1.211 . S
O48 C47 1.211 . S
C49 O41 1.284 . S
C49 O50 1.273 . S
O50 C49 1.273 . S
O51 Zn42 1.977 . S
O51 C44 1.267 . S
C52 O53 1.160 . S
C52 O59 1.185 . S
O53 C52 1.160 . S
O54 Zn55 1.899 . S
O54 C62 1.284 . S
Zn55 O54 1.899 . S
Zn55 O56 2.032 . S
Zn55 O59 2.086 . S
Zn55 O64 1.977 . S
O56 Zn55 2.032 . S
O56 C60 1.278 . S
C57 O58 1.203 . S
C57 O64 1.267 . S
O58 C57 1.203 . S
O59 C52 1.185 . S
O59 Zn55 2.086 . S
C60 O56 1.278 . S
C60 O61 1.211 . S
O61 C60 1.211 . S
C62 O54 1.284 . S
C62 O63 1.273 . S
O63 C62 1.273 . S
O64 Zn55 1.977 . S
O64 C57 1.267 . S
C65 O66 1.160 . S
C65 O72 1.185 . S
O66 C65 1.160 . S
O67 Zn68 1.899 . S
O67 C75 1.284 . S
Zn68 O67 1.899 . S
Zn68 O69 2.032 . S
Zn68 O72 2.086 . S
Zn68 O77 1.977 . S
O69 Zn68 2.032 . S
O69 C73 1.278 . S
C70 O71 1.203 . S
C70 O77 1.267 . S
O71 C70 1.203 . S
O72 C65 1.185 . S
O72 Zn68 2.086 . S
C73 O69 1.278 . S
C73 O74 1.211 . S
O74 C73 1.211 . S
C75 O67 1.284 . S
C75 O76 1.273 . S
O76 C75 1.273 . S
O77 Zn68 1.977 . S
O77 C70 1.267 . S
C78 O79 1.160 . S
C78 O85 1.185 . S
O79 C78 1.160 . S
O80 Zn81 1.899 . S
O80 C88 1.284 . S
Zn81 O80 1.899 . S
Zn81 O82 2.032 . S
Zn81 O85 2.086 . S
Zn81 O90 1.977 . S
O82 Zn81 2.032 . S
O82 C86 1.278 . S
C83 O84 1.203 . S
C83 O90 1.267 . S
O84 C83 1.203 . S
O85 C78 1.185 . S
O85 Zn81 2.086 . S
C86 O82 1.278 . S
C86 O87 1.211 . S
O87 C86 1.211 . S
C88 O80 1.284 . S
C88 O89 1.273 . S
O89 C88 1.273 . S
O90 Zn81 1.977 . S
O90 C83 1.267 . S
C91 O92 1.160 . S
C91 O98 1.185 . S
O92 C91 1.160 . S
O93 Zn94 1.899 . S
O93 C101 1.284 . S
Zn94 O93 1.899 . S
Zn94 O95 2.032 . S
Zn94 O98 2.086 . S
Zn94 O103 1.977 . S
O95 Zn94 2.032 . S
O95 C99 1.278 . S
C96 O97 1.203 . S
C96 O103 1.267 . S
O97 C96 1.203 . S
O98 C91 1.185 . S
O98 Zn94 2.086 . S
C99 O95 1.278 . S
C99 O100 1.211 . S
O100 C99 1.211 . S
C101 O93 1.284 . S
C101 O102 1.273 . S
O102 C101 1.273 . S
O103 Zn94 1.977 . S
O103 C96 1.267 . S
C104 O105 1.160 . S
C104 O111 1.185 . S
O105 C104 1.160 . S
O106 Zn107 1.899 . S
O106 C114 1.284 . S
Zn107 O106 1.899 . S
Zn107 O108 2.032 . S
Zn107 O111 2.086 . S
Zn107 O116 1.977 . S
O108 Zn107 2.032 . S
O108 C112 1.278 . S
C109 O110 1.203 . S
C109 O116 1.267 . S
O110 C109 1.203 . S
O111 C104 1.185 . S
O111 Zn107 2.086 . S
C112 O108 1.278 . S
C112 O113 1.211 . S
O113 C112 1.211 . S
C114 O106 1.284 . S
C114 O115 1.273 . S
O115 C114 1.273 . S
O116 Zn107 1.977 . S
O116 C109 1.267 . S
C117 O118 1.160 . S
C117 O124 1.185 . S
O118 C117 1.160 . S
O119 Zn120 1.899 . S
O119 C127 1.284 . S
Zn120 O119 1.899 . S
Zn120 O121 2.032 . S
Zn120 O124 2.086 . S
Zn120 O129 1.977 . S
O121 Zn120 2.032 . S
O121 C125 1.278 . S
C122 O123 1.203 . S
C122 O129 1.267 . S
O123 C122 1.203 . S
O124 C117 1.185 . S
O124 Zn120 2.086 . S
C125 O121 1.278 . S
C125 O126 1.211 . S
O126 C125 1.211 . S
C127 O119 1.284 . S
C127 O128 1.273 . S
O128 C127 1.273 . S
O129 Zn120 1.977 . S
O129 C122 1.267 . S
C130 O131 1.160 . S
C130 O137 1.185 . S
O131 C130 1.160 . S
O132 Zn133 1.899 . S
O132 C140 1.284 . S
Zn133 O132 1.899 . S
Zn133 O134 2.032 . S
Zn133 O137 2.086 . S
Zn133 O142 1.977 . S
O134 Zn133 2.032 . S
O134 C138 1.278 . S
C135 O136 1.203 . S
C135 O142 1.267 . S
O136 C135 1.203 . S
O137 C130 1.185 . S
O137 Zn133 2.086 . S
C138 O134 1.278 . S
C138 O139 1.211 . S
O139 C138 1.211 . S
C140 O132 1.284 . S
C140 O141 1.273 . S
O141 C140 1.273 . S
O142 Zn133 1.977 . S
O142 C135 1.267 . S
C143 O144 1.160 . S
C143 O150 1.185 . S
O144 C143 1.160 . S
O145 Zn146 1.899 . S
O145 C153 1.284 . S
Zn146 O145 1.899 . S
Zn146 O147 2.032 . S
Zn146 O150 2.086 . S
Zn146 O155 1.977 . S
O147 Zn146 2.032 . S
O147 C151 1.278 . S
C148 O149 1.203 . S
C148 O155 1.267 . S
O149 C148 1.203 . S
O150 C143 1.185 . S
O150 Zn146 2.086 . S
C151 O147 1.278 . S
C151 O152 1.211 . S
O152 C151 1.211 . S
C153 O145 1.284 . S
C153 O154 1.273 . S
O154 C153 1.273 . S
O155 Zn146 1.977 . S
O155 C148 1.267 . S
C156 O157 1.160 . S
C156 O163 1.185 . S
O157 C156 1.160 . S
O158 Zn159 1.899 . S
O158 C166 1.284 . S
Zn159 O158 1.899 . S
Zn159 O160 2.032 . S
Zn159 O163 2.086 . S
Zn159 O168 1.977 . S
O160 Zn159 2.032 . S
O160 C164 1.278 . S
C161 O162 1.203 . S
C161 O168 1.267 . S
O162 C161 1.203 . S
O163 C156 1.185 . S
O163 Zn159 2.086 . S
C164 O160 1.278 . S
C164 O165 1.211 . S
O165 C164 1.211 . S
C166 O158 1.284 . S
C166 O167 1.273 . S
O167 C166 1.273 . S
O168 Zn159 1.977 . S
O168 C161 1.267 . S
C169 O170 1.160 . S
C169 O176 1.185 . S
O170 C169 1.160 . S
O171 Zn172 1.899 . S
O171 C179 1.284 . S
Zn172 O171 1.899 . S
Zn172 O173 2.032 . S
Zn172 O176 2.086 . S
Zn172 O181 1.977 . S
O173 Zn172 2.032 . S
O173 C177 1.278 . S
C174 O175 1.203 . S
C174 O181 1.267 . S
O175 C174 1.203 . S
O176 C169 1.185 . S
O176 Zn172 2.086 . S
C177 O173 1.278 . S
C177 O178 1.211 . S
O178 C177 1.211 . S
C179 O171 1.284 . S
C179 O180 1.273 . S
O180 C179 1.273 . S
O181 Zn172 1.977 . S
O181 C174 1.267 . S
C182 O183 1.160 . S
C182 O189 1.185 . S
O183 C182 1.160 . S
O184 Zn185 1.899 . S
O184 C192 1.284 . S
Zn185 O184 1.899 . S
Zn185 O186 2.032 . S
Zn185 O189 2.086 . S
Zn185 O194 1.977 . S
O186 Zn185 2.032 . S
O186 C190 1.278 . S
C187 O188 1.203 . S
C187 O194 1.267 . S
O188 C187 1.203 . S
O189 C182 1.185 . S
O189 Zn185 2.086 . S
C190 O186 1.278 . S
C190 O191 1.211 . S
O191 C190 1.211 . S
C192 O184 1.284 . S
C192 O193 1.273 . S
O193 C192 1.273 . S
O194 Zn185 1.977 . S
O194 C187 1.267 . S
C195 O196 1.160 . S
C195 O202 1.185 . S
O196 C195 1.160 . S
O197 Zn198 1.899 . S
O197 C205 1.284 . S
Zn198 O197 1.899 . S
Zn198 O199 2.032 . S
Zn198 O202 2.086 . S
Zn198 O207 1.977 . S
O199 Zn198 2.032 . S
O199 C203 1.278 . S
C200 O201 1.203 . S
C200 O207 1.267 . S
O201 C200 1.203 . S
O202 C195 1.185 . S
O202 Zn198 2.086 . S
C203 O199 1.278 . S
C203 O204 1.211 . S
O204 C203 1.211 . S
C205 O197 1.284 . S
C205 O206 1.273 . S
O206 C205 1.273 . S
O207 Zn198 1.977 . S
O207 C200 1.267 . S
C208 O209 1.160 . S
C208 O215 1.185 . S
O209 C208 1.160 . S
O210 Zn211 1.899 . S
O210 C218 1.284 . S
Zn211 O210 1.899 . S
Zn211 O212 2.032 . S
Zn211 O215 2.086 . S
Zn211 O220 1.977 . S
O212 Zn211 2.032 . S
O212 C216 1.278 . S
C213 O214 1.203 . S
C213 O220 1.267 . S
O214 C213 1.203 . S
O215 C208 1.185 . S
O215 Zn211 2.086 . S
C216 O212 1.278 . S
C216 O217 1.211 . S
O217 C216 1.211 . S
C218 O210 1.284 . S
C218 O219 1.273 . S
O219 C218 1.273 . S
O220 Zn211 1.977 . S
O220 C213 1.267 . S
C221 O222 1.160 . S
C221 O228 1.185 . S
O222 C221 1.160 . S
O223 Zn224 1.899 . S
O223 C231 1.284 . S
Zn224 O223 1.899 . S
Zn224 O225 2.032 . S
Zn224 O228 2.086 . S
Zn224 O233 1.977 . S
O225 Zn224 2.032 . S
O225 C229 1.278 . S
C226 O227 1.203 . S
C226 O233 1.267 . S
O227 C226 1.203 . S
O228 C221 1.185 . S
O228 Zn224 2.086 . S
C229 O225 1.278 . S
C229 O230 1.211 . S
O230 C229 1.211 . S
C231 O223 1.284 . S
C231 O232 1.273 . S
O232 C231 1.273 . S
O233 Zn224 1.977 . S
O233 C226 1.267 . S
C234 O235 1.160 . S
C234 O241 1.185 . S
O235 C234 1.160 . S
O236 Zn237 1.899 . S
O236 C244 1.284 . S
Zn237 O236 1.899 . S
Zn237 O238 2.032 . S
Zn237 O241 2.086 . S
Zn237 O246 1.977 . S
O238 Zn237 2.032 . S
O238 C242 1.278 . S
C239 O240 1.203 . S
C239 O246 1.267 . S
O240 C239 1.203 . S
O241 C234 1.185 . S
O241 Zn237 2.086 . S
C242 O238 1.278 . S
C242 O243 1.211 . S
O243 C242 1.211 . S
C244 O236 1.284 . S
C244 O245 1.273 . S
O245 C244 1.273 . S
O246 Zn237 1.977 . S
O246 C239 1.267 . S
C247 O248 1.160 . S
C247 O254 1.185 . S
O248 C247 1.160 . S
O249 Zn250 1.899 . S
O249 C257 1.284 . S
Zn250 O249 1.899 . S
Zn250 O251 2.032 . S
Zn250 O254 2.086 . S
Zn250 O259 1.977 . S
O251 Zn250 2.032 . S
O251 C255 1.278 . S
C252 O253 1.203 . S
C252 O259 1.267 . S
O253 C252 1.203 . S
O254 C247 1.185 . S
O254 Zn250 2.086 . S
C255 O251 1.278 . S
C255 O256 1.211 . S
O256 C255 1.211 . S
C257 O249 1.284 . S
C257 O258 1.273 . S
O258 C257 1.273 . S
O259 Zn250 1.977 . S
O259 C252 1.267 . S
C260 O261 1.160 . S
C260 O267 1.185 . S
O261 C260 1.160 . S
O262 Zn263 1.899 . S
O262 C270 1.284 . S
Zn263 O262 1.899 . S
Zn263 O264 2.032 . S
Zn263 O267 2.086 . S
Zn263 O272 1.977 . S
O264 Zn263 2.032 . S
O264 C268 1.278 . S
C265 O266 1.203 . S
C265 O272 1.267 . S
O266 C265 1.203 . S
O267 C260 1.185 . S
O267 Zn263 2.086 . S
C268 O264 1.278 . S
C268 O269 1.211 . S
O269 C268 1.211 . S
C270 O262 1.284 . S
C270 O271 1.273 . S
O271 C270 1.273 . S
O272 Zn263 1.977 . S
O272 C265 1.267 . S
C273 O274 1.160 . S
C273 O280 1.185 . S
O274 C273 1.160 . S
O275 Zn276 1.899 . S
O275 C283 1.284 . S
Zn276 O275 1.899 . S
Zn276 O277 2.032 . S
Zn276 O280 2.086 . S
Zn276 O285 1.977 . S
O277 Zn276 2.032 . S
O277 C281 1.278 . S
C278 O279 1.203 . S
C278 O285 1.267 . S
O279 C278 1.203 . S
O280 C273 1.185 . S
O280 Zn276 2.086 . S
C281 O277 1.278 . S
C281 O282 1.211 . S
O282 C281 1.211 . S
C283 O275 1.284 . S
C283 O284 1.273 . S
O284 C283 1.273 . S
O285 Zn276 1.977 . S
O285 C278 1.267 . S
C286 O287 1.160 . S
C286 O293 1.185 . S
O287 C286 1.160 . S
O288 Zn289 1.899 . S
O288 C296 1.284 . S
Zn289 O288 1.899 . S
Zn289 O290 2.032 . S
Zn289 O293 2.086 . S
Zn289 O298 1.977 . S
O290 Zn289 2.032 . S
O290 C294 1.278 . S
C291 O292 1.203 . S
C291 O298 1.267 . S
O292 C291 1.203 . S
O293 C286 1.185 . S
O293 Zn289 2.086 . S
C294 O290 1.278 . S
C294 O295 1.211 . S
O295 C294 1.211 . S
C296 O288 1.284 . S
C296 O297 1.273 . S
O297 C296 1.273 . S
O298 Zn289 1.977 . S
O298 C291 1.267 . S
C299 O300 1.160 . S
C299 O306 1.185 . S
O300 C299 1.160 . S
O301 Zn302 1.899 . S
O301 C309 1.284 . S
Zn302 O301 1.899 . S
Zn302 O303 2.032 . S
Zn302 O306 2.086 . S
Zn302 O311 1.977 . S
O303 Zn302 2.032 . S
O303 C307 1.278 . S
C304 O305 1.203 . S
C304 O311 1.267 . S
O305 C304 1.203 . S
O306 C299 1.185 . S
O306 Zn302 2.086 . S
C307 O303 1.278 . S
C307 O308 1.211 . S
O308 C307 1.211 . S
C309 O301 1.284 . S
C309 O310 1.273 . S
O310 C309 1.273 . S
O311 Zn302 1.977 . S
O311 C304 1.267 . S
C312 C313 1.349 . S
C312 C314 1.327 . S
C312 H337 0.950 . S
C313 C312 1.349 . S
C313 C329 1.349 . S
C314 C312 1.327 . S
C314 C333 1.429 . S
C314 H338 0.950 . S
C315 C332 1.574 1_545 S
C315 C334 1.368 . S
C315 H339 0.949 . S
H316 C320 0.949 . S
C317 C318 1.349 . S
C317 C319 1.327 . S
C317 H340 0.950 . S
C318 C317 1.349 . S
C318 C330 1.349 . S
C319 C317 1.327 . S
C319 C335 1.429 . S
C319 H341 0.950 . S
C320 H316 0.949 . S
C320 C328 1.574 1_565 S
C320 C336 1.368 . S
H321 C329 0.950 . S
H322 C327 0.950 . S
H323 C328 0.949 . S
H324 C330 0.950 . S
H325 C331 0.950 . S
H326 C332 0.949 . S
C327 H322 0.950 . S
C327 C329 1.327 . S
C327 C333 1.429 . S
C328 C320 1.574 1_545 S
C328 H323 0.949 . S
C328 C334 1.368 . S
C329 C313 1.349 . S
C329 H321 0.950 . S
C329 C327 1.327 . S
C330 C318 1.349 . S
C330 H324 0.950 . S
C330 C331 1.327 . S
C331 H325 0.950 . S
C331 C330 1.327 . S
C331 C335 1.429 . S
C332 C315 1.574 1_565 S
C332 H326 0.949 . S
C332 C336 1.368 . S
C333 C314 1.429 . S
C333 C327 1.429 . S
C333 C334 1.523 . S
C334 C315 1.368 . S
C334 C328 1.368 . S
C334 C333 1.523 . S
C335 C319 1.429 . S
C335 C331 1.429 . S
C335 C336 1.523 . S
C336 C320 1.368 . S
C336 C332 1.368 . S
C336 C335 1.523 . S
H337 C312 0.950 . S
H338 C314 0.950 . S
H339 C315 0.949 . S
H340 C317 0.950 . S
H341 C319 0.950 . S
C342 C343 1.349 . S
C342 C344 1.327 . S
C342 H367 0.950 . S
C343 C342 1.349 . S
C343 C359 1.349 . S
C344 C342 1.327 . S
C344 C363 1.429 . S
C344 H368 0.950 . S
C345 C362 1.574 . S
C345 C364 1.368 . S
C345 H369 0.949 . S
H346 C350 0.949 . S
C347 C348 1.349 . S
C347 C349 1.327 . S
C347 H370 0.950 . S
C348 C347 1.349 . S
C348 C360 1.349 . S
C349 C347 1.327 . S
C349 C365 1.429 . S
C349 H371 0.950 . S
C350 H346 0.949 . S
C350 C358 1.574 . S
C350 C366 1.368 . S
H351 C359 0.950 . S
H352 C357 0.950 . S
H353 C358 0.949 . S
H354 C360 0.950 . S
H355 C361 0.950 . S
H356 C362 0.949 . S
C357 H352 0.950 . S
C357 C359 1.327 . S
C357 C363 1.429 . S
C358 C350 1.574 . S
C358 H353 0.949 . S
C358 C364 1.368 . S
C359 C343 1.349 . S
C359 H351 0.950 . S
C359 C357 1.327 . S
C360 C348 1.349 . S
C360 H354 0.950 . S
C360 C361 1.327 . S
C361 H355 0.950 . S
C361 C360 1.327 . S
C361 C365 1.429 . S
C362 C345 1.574 . S
C362 H356 0.949 . S
C362 C366 1.368 . S
C363 C344 1.429 . S
C363 C357 1.429 . S
C363 C364 1.523 . S
C364 C345 1.368 . S
C364 C358 1.368 . S
C364 C363 1.523 . S
C365 C349 1.429 . S
C365 C361 1.429 . S
C365 C366 1.523 . S
C366 C350 1.368 . S
C366 C362 1.368 . S
C366 C365 1.523 . S
H367 C342 0.950 . S
H368 C344 0.950 . S
H369 C345 0.949 . S
H370 C347 0.950 . S
H371 C349 0.950 . S
C372 C373 1.349 . S
C372 C374 1.327 . S
C372 H397 0.950 . S
C373 C372 1.349 . S
C373 C389 1.349 . S
C374 C372 1.327 . S
C374 C393 1.429 . S
C374 H398 0.950 . S
C375 C392 1.574 1_655 S
C375 C394 1.368 . S
C375 H399 0.949 . S
H376 C380 0.949 . S
C377 C378 1.349 . S
C377 C379 1.327 . S
C377 H400 0.950 . S
C378 C377 1.349 . S
C378 C390 1.349 . S
C379 C377 1.327 . S
C379 C395 1.429 . S
C379 H401 0.950 . S
C380 H376 0.949 . S
C380 C388 1.574 1_455 S
C380 C396 1.368 . S
H381 C389 0.950 . S
H382 C387 0.950 . S
H383 C388 0.949 . S
H384 C390 0.950 . S
H385 C391 0.950 . S
H386 C392 0.949 . S
C387 H382 0.950 . S
C387 C389 1.327 . S
C387 C393 1.429 . S
C388 C380 1.574 1_655 S
C388 H383 0.949 . S
C388 C394 1.368 . S
C389 C373 1.349 . S
C389 H381 0.950 . S
C389 C387 1.327 . S
C390 C378 1.349 . S
C390 H384 0.950 . S
C390 C391 1.327 . S
C391 H385 0.950 . S
C391 C390 1.327 . S
C391 C395 1.429 . S
C392 C375 1.574 1_455 S
C392 H386 0.949 . S
C392 C396 1.368 . S
C393 C374 1.429 . S
C393 C387 1.429 . S
C393 C394 1.523 . S
C394 C375 1.368 . S
C394 C388 1.368 . S
C394 C393 1.523 . S
C395 C379 1.429 . S
C395 C391 1.429 . S
C395 C396 1.523 . S
C396 C380 1.368 . S
C396 C392 1.368 . S
C396 C395 1.523 . S
H397 C372 0.950 . S
H398 C374 0.950 . S
H399 C375 0.949 . S
H400 C377 0.950 . S
H401 C379 0.950 . S
C402 C403 1.349 . S
C402 C404 1.327 . S
C402 H427 0.950 . S
C403 C402 1.349 . S
C403 C419 1.349 . S
C404 C402 1.327 . S
C404 C423 1.429 . S
C404 H428 0.950 . S
C405 C422 1.574 1_565 S
C405 C424 1.368 . S
C405 H429 0.949 . S
H406 C410 0.949 . S
C407 C408 1.349 . S
C407 C409 1.327 . S
C407 H430 0.950 . S
C408 C407 1.349 . S
C408 C420 1.349 . S
C409 C407 1.327 . S
C409 C425 1.429 . S
C409 H431 0.950 . S
C410 H406 0.949 . S
C410 C418 1.574 1_545 S
C410 C426 1.368 . S
H411 C419 0.950 . S
H412 C417 0.950 . S
H413 C418 0.949 . S
H414 C420 0.950 . S
H415 C421 0.950 . S
H416 C422 0.949 . S
C417 H412 0.950 . S
C417 C419 1.327 . S
C417 C423 1.429 . S
C418 C410 1.574 1_565 S
C418 H413 0.949 . S
C418 C424 1.368 . S
C419 C403 1.349 . S
C419 H411 0.950 . S
C419 C417 1.327 . S
C420 C408 1.349 . S
C420 H414 0.950 . S
C420 C421 1.327 . S
C421 H415 0.950 . S
C421 C420 1.327 . S
C421 C425 1.429 . S
C422 C405 1.574 1_545 S
C422 H416 0.949 . S
C422 C426 1.368 . S
C423 C404 1.429 . S
C423 C417 1.429 . S
C423 C424 1.523 . S
C424 C405 1.368 . S
C424 C418 1.368 . S
C424 C423 1.523 . S
C425 C409 1.429 . S
C425 C421 1.429 . S
C425 C426 1.523 . S
C426 C410 1.368 . S
C426 C422 1.368 . S
C426 C425 1.523 . S
H427 C402 0.950 . S
H428 C404 0.950 . S
H429 C405 0.949 . S
H430 C407 0.950 . S
H431 C409 0.950 . S
C432 C433 1.349 . S
C432 C434 1.327 . S
C432 H457 0.950 . S
C433 C432 1.349 . S
C433 C449 1.349 . S
C434 C432 1.327 . S
C434 C453 1.429 . S
C434 H458 0.950 . S
C435 C452 1.574 . S
C435 C454 1.368 . S
C435 H459 0.949 . S
H436 C440 0.949 . S
C437 C438 1.349 . S
C437 C439 1.327 . S
C437 H460 0.950 . S
C438 C437 1.349 . S
C438 C450 1.349 . S
C439 C437 1.327 . S
C439 C455 1.429 . S
C439 H461 0.950 . S
C440 H436 0.949 . S
C440 C448 1.574 . S
C440 C456 1.368 . S
H441 C449 0.950 . S
H442 C447 0.950 . S
H443 C448 0.949 . S
H444 C450 0.950 . S
H445 C451 0.950 . S
H446 C452 0.949 . S
C447 H442 0.950 . S
C447 C449 1.327 . S
C447 C453 1.429 . S
C448 C440 1.574 . S
C448 H443 0.949 . S
C448 C454 1.368 . S
C449 C433 1.349 . S
C449 H441 0.950 . S
C449 C447 1.327 . S
C450 C438 1.349 . S
C450 H444 0.950 . S
C450 C451 1.327 . S
C451 H445 0.950 . S
C451 C450 1.327 . S
C451 C455 1.429 . S
C452 C435 1.574 . S
C452 H446 0.949 . S
C452 C456 1.368 . S
C453 C434 1.429 . S
C453 C447 1.429 . S
C453 C454 1.523 . S
C454 C435 1.368 . S
C454 C448 1.368 . S
C454 C453 1.523 . S
C455 C439 1.429 . S
C455 C451 1.429 . S
C455 C456 1.523 . S
C456 C440 1.368 . S
C456 C452 1.368 . S
C456 C455 1.523 . S
H457 C432 0.950 . S
H458 C434 0.950 . S
H459 C435 0.949 . S
H460 C437 0.950 . S
H461 C439 0.950 . S
C462 C463 1.349 . S
C462 C464 1.327 . S
C462 H487 0.950 . S
C463 C462 1.349 . S
C463 C479 1.349 . S
C464 C462 1.327 . S
C464 C483 1.429 . S
C464 H488 0.950 . S
C465 C482 1.574 1_455 S
C465 C484 1.368 . S
C465 H489 0.949 . S
H466 C470 0.949 . S
C467 C468 1.349 . S
C467 C469 1.327 . S
C467 H490 0.950 . S
C468 C467 1.349 . S
C468 C480 1.349 . S
C469 C467 1.327 . S
C469 C485 1.429 . S
C469 H491 0.950 . S
C470 H466 0.949 . S
C470 C478 1.574 1_655 S
C470 C486 1.368 . S
H471 C479 0.950 . S
H472 C477 0.950 . S
H473 C478 0.949 . S
H474 C480 0.950 . S
H475 C481 0.950 . S
H476 C482 0.949 . S
C477 H472 0.950 . S
C477 C479 1.327 . S
C477 C483 1.429 . S
C478 C470 1.574 1_455 S
C478 H473 0.949 . S
C478 C484 1.368 . S
C479 C463 1.349 . S
C479 H471 0.950 . S
C479 C477 1.327 . S
C480 C468 1.349 . S
C480 H474 0.950 . S
C480 C481 1.327 . S
C481 H475 0.950 . S
C481 C480 1.327 . S
C481 C485 1.429 . S
C482 C465 1.574 1_655 S
C482 H476 0.949 . S
C482 C486 1.368 . S
C483 C464 1.429 . S
C483 C477 1.429 . S
C483 C484 1.523 . S
C484 C465 1.368 . S
C484 C478 1.368 . S
C484 C483 1.523 . S
C485 C469 1.429 . S
C485 C481 1.429 . S
C485 C486 1.523 . S
C486 C470 1.368 . S
C486 C482 1.368 . S
C486 C485 1.523 . S
H487 C462 0.950 . S
H488 C464 0.950 . S
H489 C465 0.949 . S
H490 C467 0.950 . S
H491 C469 0.950 . S
C492 C493 1.349 . S
C492 C494 1.327 . S
C492 H517 0.950 . S
C493 C492 1.349 . S
C493 C509 1.349 . S
C494 C492 1.327 . S
C494 C513 1.429 . S
C494 H518 0.950 . S
C495 C512 1.574 1_565 S
C495 C514 1.368 . S
C495 H519 0.949 . S
H496 C500 0.949 . S
C497 C498 1.349 . S
C497 C499 1.327 . S
C497 H520 0.950 . S
C498 C497 1.349 . S
C498 C510 1.349 . S
C499 C497 1.327 . S
C499 C515 1.429 . S
C499 H521 0.950 . S
C500 H496 0.949 . S
C500 C508 1.574 1_545 S
C500 C516 1.368 . S
H501 C509 0.950 . S
H502 C507 0.950 . S
H503 C508 0.949 . S
H504 C510 0.950 . S
H505 C511 0.950 . S
H506 C512 0.949 . S
C507 H502 0.950 . S
C507 C509 1.327 . S
C507 C513 1.429 . S
C508 C500 1.574 1_565 S
C508 H503 0.949 . S
C508 C514 1.368 . S
C509 C493 1.349 . S
C509 H501 0.950 . S
C509 C507 1.327 . S
C510 C498 1.349 . S
C510 H504 0.950 . S
C510 C511 1.327 . S
C511 H505 0.950 . S
C511 C510 1.327 . S
C511 C515 1.429 . S
C512 C495 1.574 1_545 S
C512 H506 0.949 . S
C512 C516 1.368 . S
C513 C494 1.429 . S
C513 C507 1.429 . S
C513 C514 1.523 . S
C514 C495 1.368 . S
C514 C508 1.368 . S
C514 C513 1.523 . S
C515 C499 1.429 . S
C515 C511 1.429 . S
C515 C516 1.523 . S
C516 C500 1.368 . S
C516 C512 1.368 . S
C516 C515 1.523 . S
H517 C492 0.950 . S
H518 C494 0.950 . S
H519 C495 0.949 . S
H520 C497 0.950 . S
H521 C499 0.950 . S
C522 C523 1.349 . S
C522 C524 1.327 . S
C522 H547 0.950 . S
C523 C522 1.349 . S
C523 C539 1.349 . S
C524 C522 1.327 . S
C524 C543 1.429 . S
C524 H548 0.950 . S
C525 C542 1.574 . S
C525 C544 1.368 . S
C525 H549 0.949 . S
H526 C530 0.949 . S
C527 C528 1.349 . S
C527 C529 1.327 . S
C527 H550 0.950 . S
C528 C527 1.349 . S
C528 C540 1.349 . S
C529 C527 1.327 . S
C529 C545 1.429 . S
C529 H551 0.950 . S
C530 H526 0.949 . S
C530 C538 1.574 . S
C530 C546 1.368 . S
H531 C539 0.950 . S
H532 C537 0.950 . S
H533 C538 0.949 . S
H534 C540 0.950 . S
H535 C541 0.950 . S
H536 C542 0.949 . S
C537 H532 0.950 . S
C537 C539 1.327 . S
C537 C543 1.429 . S
C538 C530 1.574 . S
C538 H533 0.949 . S
C538 C544 1.368 . S
C539 C523 1.349 . S
C539 H531 0.950 . S
C539 C537 1.327 . S
C540 C528 1.349 . S
C540 H534 0.950 . S
C540 C541 1.327 . S
C541 H535 0.950 . S
C541 C540 1.327 . S
C541 C545 1.429 . S
C542 C525 1.574 . S
C542 H536 0.949 . S
C542 C546 1.368 . S
C543 C524 1.429 . S
C543 C537 1.429 . S
C543 C544 1.523 . S
C544 C525 1.368 . S
C544 C538 1.368 . S
C544 C543 1.523 . S
C545 C529 1.429 . S
C545 C541 1.429 . S
C545 C546 1.523 . S
C546 C530 1.368 . S
C546 C542 1.368 . S
C546 C545 1.523 . S
H547 C522 0.950 . S
H548 C524 0.950 . S
H549 C525 0.949 . S
H550 C527 0.950 . S
H551 C529 0.950 . S
C552 C553 1.349 . S
C552 C554 1.327 . S
C552 H577 0.950 . S
C553 C552 1.349 . S
C553 C569 1.349 . S
C554 C552 1.327 . S
C554 C573 1.429 . S
C554 H578 0.950 . S
C555 C572 1.574 1_655 S
C555 C574 1.368 . S
C555 H579 0.949 . S
H556 C560 0.949 . S
C557 C558 1.349 . S
C557 C559 1.327 . S
C557 H580 0.950 . S
C558 C557 1.349 . S
C558 C570 1.349 . S
C559 C557 1.327 . S
C559 C575 1.429 . S
C559 H581 0.950 . S
C560 H556 0.949 . S
C560 C568 1.574 1_455 S
C560 C576 1.368 . S
H561 C569 0.950 . S
H562 C567 0.950 . S
H563 C568 0.949 . S
H564 C570 0.950 . S
H565 C571 0.950 . S
H566 C572 0.949 . S
C567 H562 0.950 . S
C567 C569 1.327 . S
C567 C573 1.429 . S
C568 C560 1.574 1_655 S
C568 H563 0.949 . S
C568 C574 1.368 . S
C569 C553 1.349 . S
C569 H561 0.950 . S
C569 C567 1.327 . S
C570 C558 1.349 . S
C570 H564 0.950 . S
C570 C571 1.327 . S
C571 H565 0.950 . S
C571 C570 1.327 . S
C571 C575 1.429 . S
C572 C555 1.574 1_455 S
C572 H566 0.949 . S
C572 C576 1.368 . S
C573 C554 1.429 . S
C573 C567 1.429 . S
C573 C574 1.523 . S
C574 C555 1.368 . S
C574 C568 1.368 . S
C574 C573 1.523 . S
C575 C559 1.429 . S
C575 C571 1.429 . S
C575 C576 1.523 . S
C576 C560 1.368 . S
C576 C572 1.368 . S
C576 C575 1.523 . S
H577 C552 0.950 . S
H578 C554 0.950 . S
H579 C555 0.949 . S
H580 C557 0.950 . S
H581 C559 0.950 . S
C582 C583 1.349 . S
C582 C584 1.327 . S
C582 H607 0.950 . S
C583 C582 1.349 . S
C583 C599 1.349 . S
C584 C582 1.327 . S
C584 C603 1.429 . S
C584 H608 0.950 . S
C585 C602 1.574 1_545 S
C585 C604 1.368 . S
C585 H609 0.949 . S
H586 C590 0.949 . S
C587 C588 1.349 . S
C587 C589 1.327 . S
C587 H610 0.950 . S
C588 C587 1.349 . S
C588 C600 1.349 . S
C589 C587 1.327 . S
C589 C605 1.429 . S
C589 H611 0.950 . S
C590 H586 0.949 . S
C590 C598 1.574 1_565 S
C590 C606 1.368 . S
H591 C599 0.950 . S
H592 C597 0.950 . S
H593 C598 0.949 . S
H594 C600 0.950 . S
H595 C601 0.950 . S
H596 C602 0.949 . S
C597 H592 0.950 . S
C597 C599 1.327 . S
C597 C603 1.429 . S
C598 C590 1.574 1_545 S
C598 H593 0.949 . S
C598 C604 1.368 . S
C599 C583 1.349 . S
C599 H591 0.950 . S
C599 C597 1.327 . S
C600 C588 1.349 . S
C600 H594 0.950 . S
C600 C601 1.327 . S
C601 H595 0.950 . S
C601 C600 1.327 . S
C601 C605 1.429 . S
C602 C585 1.574 1_565 S
C602 H596 0.949 . S
C602 C606 1.368 . S
C603 C584 1.429 . S
C603 C597 1.429 . S
C603 C604 1.523 . S
C604 C585 1.368 . S
C604 C598 1.368 . S
C604 C603 1.523 . S
C605 C589 1.429 . S
C605 C601 1.429 . S
C605 C606 1.523 . S
C606 C590 1.368 . S
C606 C602 1.368 . S
C606 C605 1.523 . S
H607 C582 0.950 . S
H608 C584 0.950 . S
H609 C585 0.949 . S
H610 C587 0.950 . S
H611 C589 0.950 . S
C612 C613 1.349 . S
C612 C614 1.327 . S
C612 H637 0.950 . S
C613 C612 1.349 . S
C613 C629 1.349 . S
C614 C612 1.327 . S
C614 C633 1.429 . S
C614 H638 0.950 . S
C615 C632 1.574 . S
C615 C634 1.368 . S
C615 H639 0.949 . S
H616 C620 0.949 . S
C617 C618 1.349 . S
C617 C619 1.327 . S
C617 H640 0.950 . S
C618 C617 1.349 . S
C618 C630 1.349 . S
C619 C617 1.327 . S
C619 C635 1.429 . S
C619 H641 0.950 . S
C620 H616 0.949 . S
C620 C628 1.574 . S
C620 C636 1.368 . S
H621 C629 0.950 . S
H622 C627 0.950 . S
H623 C628 0.949 . S
H624 C630 0.950 . S
H625 C631 0.950 . S
H626 C632 0.949 . S
C627 H622 0.950 . S
C627 C629 1.327 . S
C627 C633 1.429 . S
C628 C620 1.574 . S
C628 H623 0.949 . S
C628 C634 1.368 . S
C629 C613 1.349 . S
C629 H621 0.950 . S
C629 C627 1.327 . S
C630 C618 1.349 . S
C630 H624 0.950 . S
C630 C631 1.327 . S
C631 H625 0.950 . S
C631 C630 1.327 . S
C631 C635 1.429 . S
C632 C615 1.574 . S
C632 H626 0.949 . S
C632 C636 1.368 . S
C633 C614 1.429 . S
C633 C627 1.429 . S
C633 C634 1.523 . S
C634 C615 1.368 . S
C634 C628 1.368 . S
C634 C633 1.523 . S
C635 C619 1.429 . S
C635 C631 1.429 . S
C635 C636 1.523 . S
C636 C620 1.368 . S
C636 C632 1.368 . S
C636 C635 1.523 . S
H637 C612 0.950 . S
H638 C614 0.950 . S
H639 C615 0.949 . S
H640 C617 0.950 . S
H641 C619 0.950 . S
C642 C643 1.349 . S
C642 C644 1.327 . S
C642 H667 0.950 . S
C643 C642 1.349 . S
C643 C659 1.349 . S
C644 C642 1.327 . S
C644 C663 1.429 . S
C644 H668 0.950 . S
C645 C662 1.574 1_455 S
C645 C664 1.368 . S
C645 H669 0.949 . S
H646 C650 0.949 . S
C647 C648 1.349 . S
C647 C649 1.327 . S
C647 H670 0.950 . S
C648 C647 1.349 . S
C648 C660 1.349 . S
C649 C647 1.327 . S
C649 C665 1.429 . S
C649 H671 0.950 . S
C650 H646 0.949 . S
C650 C658 1.574 1_655 S
C650 C666 1.368 . S
H651 C659 0.950 . S
H652 C657 0.950 . S
H653 C658 0.949 . S
H654 C660 0.950 . S
H655 C661 0.950 . S
H656 C662 0.949 . S
C657 H652 0.950 . S
C657 C659 1.327 . S
C657 C663 1.429 . S
C658 C650 1.574 1_455 S
C658 H653 0.949 . S
C658 C664 1.368 . S
C659 C643 1.349 . S
C659 H651 0.950 . S
C659 C657 1.327 . S
C660 C648 1.349 . S
C660 H654 0.950 . S
C660 C661 1.327 . S
C661 H655 0.950 . S
C661 C660 1.327 . S
C661 C665 1.429 . S
C662 C645 1.574 1_655 S
C662 H656 0.949 . S
C662 C666 1.368 . S
C663 C644 1.429 . S
C663 C657 1.429 . S
C663 C664 1.523 . S
C664 C645 1.368 . S
C664 C658 1.368 . S
C664 C663 1.523 . S
C665 C649 1.429 . S
C665 C661 1.429 . S
C665 C666 1.523 . S
C666 C650 1.368 . S
C666 C662 1.368 . S
C666 C665 1.523 . S
H667 C642 0.950 . S
H668 C644 0.950 . S
H669 C645 0.949 . S
H670 C647 0.950 . S
H671 C649 0.950 . S
C672 C673 1.349 . S
C672 C674 1.327 . S
C672 H697 0.950 . S
C673 C672 1.349 . S
C673 C689 1.349 . S
C674 C672 1.327 . S
C674 C693 1.429 . S
C674 H698 0.950 . S
C675 C692 1.574 . S
C675 C694 1.368 . S
C675 H699 0.949 . S
H676 C680 0.949 . S
C677 C678 1.349 . S
C677 C679 1.327 . S
C677 H700 0.950 . S
C678 C677 1.349 . S
C678 C690 1.349 . S
C679 C677 1.327 . S
C679 C695 1.429 . S
C679 H701 0.950 . S
C680 H676 0.949 . S
C680 C688 1.574 . S
C680 C696 1.368 . S
H681 C689 0.950 . S
H682 C687 0.950 . S
H683 C688 0.949 . S
H684 C690 0.950 . S
H685 C691 0.950 . S
H686 C692 0.949 . S
C687 H682 0.950 . S
C687 C689 1.327 . S
C687 C693 1.429 . S
C688 C680 1.574 . S
C688 H683 0.949 . S
C688 C694 1.368 . S
C689 C673 1.349 . S
C689 H681 0.950 . S
C689 C687 1.327 . S
C690 C678 1.349 . S
C690 H684 0.950 . S
C690 C691 1.327 . S
C691 H685 0.950 . S
C691 C690 1.327 . S
C691 C695 1.429 . S
C692 C675 1.574 . S
C692 H686 0.949 . S
C692 C696 1.368 . S
C693 C674 1.429 . S
C693 C687 1.429 . S
C693 C694 1.523 . S
C694 C675 1.368 . S
C694 C688 1.368 . S
C694 C693 1.523 . S
C695 C679 1.429 . S
C695 C691 1.429 . S
C695 C696 1.523 . S
C696 C680 1.368 . S
C696 C692 1.368 . S
C696 C695 1.523 . S
H697 C672 0.950 . S
H698 C674 0.950 . S
H699 C675 0.949 . S
H700 C677 0.950 . S
H701 C679 0.950 . S
C702 C703 1.349 . S
C702 C704 1.327 . S
C702 H727 0.950 . S
C703 C702 1.349 . S
C703 C719 1.349 . S
C704 C702 1.327 . S
C704 C723 1.429 . S
C704 H728 0.950 . S
C705 C722 1.574 . S
C705 C724 1.368 . S
C705 H729 0.949 . S
H706 C710 0.949 . S
C707 C708 1.349 . S
C707 C709 1.327 . S
C707 H730 0.950 . S
C708 C707 1.349 . S
C708 C720 1.349 . S
C709 C707 1.327 . S
C709 C725 1.429 . S
C709 H731 0.950 . S
C710 H706 0.949 . S
C710 C718 1.574 . S
C710 C726 1.368 . S
H711 C719 0.950 . S
H712 C717 0.950 . S
H713 C718 0.949 . S
H714 C720 0.950 . S
H715 C721 0.950 . S
H716 C722 0.949 . S
C717 H712 0.950 . S
C717 C719 1.327 . S
C717 C723 1.429 . S
C718 C710 1.574 . S
C718 H713 0.949 . S
C718 C724 1.368 . S
C719 C703 1.349 . S
C719 H711 0.950 . S
C719 C717 1.327 . S
C720 C708 1.349 . S
C720 H714 0.950 . S
C720 C721 1.327 . S
C721 H715 0.950 . S
C721 C720 1.327 . S
C721 C725 1.429 . S
C722 C705 1.574 . S
C722 H716 0.949 . S
C722 C726 1.368 . S
C723 C704 1.429 . S
C723 C717 1.429 . S
C723 C724 1.523 . S
C724 C705 1.368 . S
C724 C718 1.368 . S
C724 C723 1.523 . S
C725 C709 1.429 . S
C725 C721 1.429 . S
C725 C726 1.523 . S
C726 C710 1.368 . S
C726 C722 1.368 . S
C726 C725 1.523 . S
H727 C702 0.950 . S
H728 C704 0.950 . S
H729 C705 0.949 . S
H730 C707 0.950 . S
H731 C709 0.950 . S
C732 C733 1.349 . S
C732 C734 1.327 . S
C732 H757 0.950 . S
C733 C732 1.349 . S
C733 C749 1.349 . S
C734 C732 1.327 . S
C734 C753 1.429 . S
C734 H758 0.950 . S
C735 C752 1.574 . S
C735 C754 1.368 . S
C735 H759 0.949 . S
H736 C740 0.949 . S
C737 C738 1.349 . S
C737 C739 1.327 . S
C737 H760 0.950 . S
C738 C737 1.349 . S
C738 C750 1.349 . S
C739 C737 1.327 . S
C739 C755 1.429 . S
C739 H761 0.950 . S
C740 H736 0.949 . S
C740 C748 1.574 . S
C740 C756 1.368 . S
H741 C749 0.950 . S
H742 C747 0.950 . S
H743 C748 0.949 . S
H744 C750 0.950 . S
H745 C751 0.950 . S
H746 C752 0.949 . S
C747 H742 0.950 . S
C747 C749 1.327 . S
C747 C753 1.429 . S
C748 C740 1.574 . S
C748 H743 0.949 . S
C748 C754 1.368 . S
C749 C733 1.349 . S
C749 H741 0.950 . S
C749 C747 1.327 . S
C750 C738 1.349 . S
C750 H744 0.950 . S
C750 C751 1.327 . S
C751 H745 0.950 . S
C751 C750 1.327 . S
C751 C755 1.429 . S
C752 C735 1.574 . S
C752 H746 0.949 . S
C752 C756 1.368 . S
C753 C734 1.429 . S
C753 C747 1.429 . S
C753 C754 1.523 . S
C754 C735 1.368 . S
C754 C748 1.368 . S
C754 C753 1.523 . S
C755 C739 1.429 . S
C755 C751 1.429 . S
C755 C756 1.523 . S
C756 C740 1.368 . S
C756 C752 1.368 . S
C756 C755 1.523 . S
H757 C732 0.950 . S
H758 C734 0.950 . S
H759 C735 0.949 . S
H760 C737 0.950 . S
H761 C739 0.950 . S
C762 C763 1.349 . S
C762 C764 1.327 . S
C762 H787 0.950 . S
C763 C762 1.349 . S
C763 C779 1.349 . S
C764 C762 1.327 . S
C764 C783 1.429 . S
C764 H788 0.950 . S
C765 C782 1.574 . S
C765 C784 1.368 . S
C765 H789 0.949 . S
H766 C770 0.949 . S
C767 C768 1.349 . S
C767 C769 1.327 . S
C767 H790 0.950 . S
C768 C767 1.349 . S
C768 C780 1.349 . S
C769 C767 1.327 . S
C769 C785 1.429 . S
C769 H791 0.950 . S
C770 H766 0.949 . S
C770 C778 1.574 . S
C770 C786 1.368 . S
H771 C779 0.950 . S
H772 C777 0.950 . S
H773 C778 0.949 . S
H774 C780 0.950 . S
H775 C781 0.950 . S
H776 C782 0.949 . S
C777 H772 0.950 . S
C777 C779 1.327 . S
C777 C783 1.429 . S
C778 C770 1.574 . S
C778 H773 0.949 . S
C778 C784 1.368 . S
C779 C763 1.349 . S
C779 H771 0.950 . S
C779 C777 1.327 . S
C780 C768 1.349 . S
C780 H774 0.950 . S
C780 C781 1.327 . S
C781 H775 0.950 . S
C781 C780 1.327 . S
C781 C785 1.429 . S
C782 C765 1.574 . S
C782 H776 0.949 . S
C782 C786 1.368 . S
C783 C764 1.429 . S
C783 C777 1.429 . S
C783 C784 1.523 . S
C784 C765 1.368 . S
C784 C778 1.368 . S
C784 C783 1.523 . S
C785 C769 1.429 . S
C785 C781 1.429 . S
C785 C786 1.523 . S
C786 C770 1.368 . S
C786 C782 1.368 . S
C786 C785 1.523 . S
H787 C762 0.950 . S
H788 C764 0.950 . S
H789 C765 0.949 . S
H790 C767 0.950 . S
H791 C769 0.950 . S
C792 C793 1.349 . S
C792 C794 1.327 . S
C792 H817 0.950 . S
C793 C792 1.349 . S
C793 C809 1.349 . S
C794 C792 1.327 . S
C794 C813 1.429 . S
C794 H818 0.950 . S
C795 C812 1.574 . S
C795 C814 1.368 . S
C795 H819 0.949 . S
H796 C800 0.949 . S
C797 C798 1.349 . S
C797 C799 1.327 . S
C797 H820 0.950 . S
C798 C797 1.349 . S
C798 C810 1.349 . S
C799 C797 1.327 . S
C799 C815 1.429 . S
C799 H821 0.950 . S
C800 H796 0.949 . S
C800 C808 1.574 . S
C800 C816 1.368 . S
H801 C809 0.950 . S
H802 C807 0.950 . S
H803 C808 0.949 . S
H804 C810 0.950 . S
H805 C811 0.950 . S
H806 C812 0.949 . S
C807 H802 0.950 . S
C807 C809 1.327 . S
C807 C813 1.429 . S
C808 C800 1.574 . S
C808 H803 0.949 . S
C808 C814 1.368 . S
C809 C793 1.349 . S
C809 H801 0.950 . S
C809 C807 1.327 . S
C810 C798 1.349 . S
C810 H804 0.950 . S
C810 C811 1.327 . S
C811 H805 0.950 . S
C811 C810 1.327 . S
C811 C815 1.429 . S
C812 C795 1.574 . S
C812 H806 0.949 . S
C812 C816 1.368 . S
C813 C794 1.429 . S
C813 C807 1.429 . S
C813 C814 1.523 . S
C814 C795 1.368 . S
C814 C808 1.368 . S
C814 C813 1.523 . S
C815 C799 1.429 . S
C815 C811 1.429 . S
C815 C816 1.523 . S
C816 C800 1.368 . S
C816 C812 1.368 . S
C816 C815 1.523 . S
H817 C792 0.950 . S
H818 C794 0.950 . S
H819 C795 0.949 . S
H820 C797 0.950 . S
H821 C799 0.950 . S
C822 C823 1.349 . S
C822 C824 1.327 . S
C822 H847 0.950 . S
C823 C822 1.349 . S
C823 C839 1.349 . S
C824 C822 1.327 . S
C824 C843 1.429 . S
C824 H848 0.950 . S
C825 C842 1.574 . S
C825 C844 1.368 . S
C825 H849 0.949 . S
H826 C830 0.949 . S
C827 C828 1.349 . S
C827 C829 1.327 . S
C827 H850 0.950 . S
C828 C827 1.349 . S
C828 C840 1.349 . S
C829 C827 1.327 . S
C829 C845 1.429 . S
C829 H851 0.950 . S
C830 H826 0.949 . S
C830 C838 1.574 . S
C830 C846 1.368 . S
H831 C839 0.950 . S
H832 C837 0.950 . S
H833 C838 0.949 . S
H834 C840 0.950 . S
H835 C841 0.950 . S
H836 C842 0.949 . S
C837 H832 0.950 . S
C837 C839 1.327 . S
C837 C843 1.429 . S
C838 C830 1.574 . S
C838 H833 0.949 . S
C838 C844 1.368 . S
C839 C823 1.349 . S
C839 H831 0.950 . S
C839 C837 1.327 . S
C840 C828 1.349 . S
C840 H834 0.950 . S
C840 C841 1.327 . S
C841 H835 0.950 . S
C841 C840 1.327 . S
C841 C845 1.429 . S
C842 C825 1.574 . S
C842 H836 0.949 . S
C842 C846 1.368 . S
C843 C824 1.429 . S
C843 C837 1.429 . S
C843 C844 1.523 . S
C844 C825 1.368 . S
C844 C838 1.368 . S
C844 C843 1.523 . S
C845 C829 1.429 . S
C845 C841 1.429 . S
C845 C846 1.523 . S
C846 C830 1.368 . S
C846 C842 1.368 . S
C846 C845 1.523 . S
H847 C822 0.950 . S
H848 C824 0.950 . S
H849 C825 0.949 . S
H850 C827 0.950 . S
H851 C829 0.950 . S
C852 C853 1.349 . S
C852 C854 1.327 . S
C852 H877 0.950 . S
C853 C852 1.349 . S
C853 C869 1.349 . S
C854 C852 1.327 . S
C854 C873 1.429 . S
C854 H878 0.950 . S
C855 C872 1.574 . S
C855 C874 1.368 . S
C855 H879 0.949 . S
H856 C860 0.949 . S
C857 C858 1.349 . S
C857 C859 1.327 . S
C857 H880 0.950 . S
C858 C857 1.349 . S
C858 C870 1.349 . S
C859 C857 1.327 . S
C859 C875 1.429 . S
C859 H881 0.950 . S
C860 H856 0.949 . S
C860 C868 1.574 . S
C860 C876 1.368 . S
H861 C869 0.950 . S
H862 C867 0.950 . S
H863 C868 0.949 . S
H864 C870 0.950 . S
H865 C871 0.950 . S
H866 C872 0.949 . S
C867 H862 0.950 . S
C867 C869 1.327 . S
C867 C873 1.429 . S
C868 C860 1.574 . S
C868 H863 0.949 . S
C868 C874 1.368 . S
C869 C853 1.349 . S
C869 H861 0.950 . S
C869 C867 1.327 . S
C870 C858 1.349 . S
C870 H864 0.950 . S
C870 C871 1.327 . S
C871 H865 0.950 . S
C871 C870 1.327 . S
C871 C875 1.429 . S
C872 C855 1.574 . S
C872 H866 0.949 . S
C872 C876 1.368 . S
C873 C854 1.429 . S
C873 C867 1.429 . S
C873 C874 1.523 . S
C874 C855 1.368 . S
C874 C868 1.368 . S
C874 C873 1.523 . S
C875 C859 1.429 . S
C875 C871 1.429 . S
C875 C876 1.523 . S
C876 C860 1.368 . S
C876 C872 1.368 . S
C876 C875 1.523 . S
H877 C852 0.950 . S
H878 C854 0.950 . S
H879 C855 0.949 . S
H880 C857 0.950 . S
H881 C859 0.950 . S
C882 C883 1.349 . S
C882 C884 1.327 . S
C882 H907 0.950 . S
C883 C882 1.349 . S
C883 C899 1.349 . S
C884 C882 1.327 . S
C884 C903 1.429 . S
C884 H908 0.950 . S
C885 C902 1.574 . S
C885 C904 1.368 . S
C885 H909 0.949 . S
H886 C890 0.949 . S
C887 C888 1.349 . S
C887 C889 1.327 . S
C887 H910 0.950 . S
C888 C887 1.349 . S
C888 C900 1.349 . S
C889 C887 1.327 . S
C889 C905 1.429 . S
C889 H911 0.950 . S
C890 H886 0.949 . S
C890 C898 1.574 . S
C890 C906 1.368 . S
H891 C899 0.950 . S
H892 C897 0.950 . S
H893 C898 0.949 . S
H894 C900 0.950 . S
H895 C901 0.950 . S
H896 C902 0.949 . S
C897 H892 0.950 . S
C897 C899 1.327 . S
C897 C903 1.429 . S
C898 C890 1.574 . S
C898 H893 0.949 . S
C898 C904 1.368 . S
C899 C883 1.349 . S
C899 H891 0.950 . S
C899 C897 1.327 . S
C900 C888 1.349 . S
C900 H894 0.950 . S
C900 C901 1.327 . S
C901 H895 0.950 . S
C901 C900 1.327 . S
C901 C905 1.429 . S
C902 C885 1.574 . S
C902 H896 0.949 . S
C902 C906 1.368 . S
C903 C884 1.429 . S
C903 C897 1.429 . S
C903 C904 1.523 . S
C904 C885 1.368 . S
C904 C898 1.368 . S
C904 C903 1.523 . S
C905 C889 1.429 . S
C905 C901 1.429 . S
C905 C906 1.523 . S
C906 C890 1.368 . S
C906 C902 1.368 . S
C906 C905 1.523 . S
H907 C882 0.950 . S
H908 C884 0.950 . S
H909 C885 0.949 . S
H910 C887 0.950 . S
H911 C889 0.950 . S
C912 C913 1.349 . S
C912 C914 1.327 . S
C912 H937 0.950 . S
C913 C912 1.349 . S
C913 C929 1.349 . S
C914 C912 1.327 . S
C914 C933 1.429 . S
C914 H938 0.950 . S
C915 C932 1.574 . S
C915 C934 1.368 . S
C915 H939 0.949 . S
H916 C920 0.949 . S
C917 C918 1.349 . S
C917 C919 1.327 . S
C917 H940 0.950 . S
C918 C917 1.349 . S
C918 C930 1.349 . S
C919 C917 1.327 . S
C919 C935 1.429 . S
C919 H941 0.950 . S
C920 H916 0.949 . S
C920 C928 1.574 . S
C920 C936 1.368 . S
H921 C929 0.950 . S
H922 C927 0.950 . S
H923 C928 0.949 . S
H924 C930 0.950 . S
H925 C931 0.950 . S
H926 C932 0.949 . S
C927 H922 0.950 . S
C927 C929 1.327 . S
C927 C933 1.429 . S
C928 C920 1.574 . S
C928 H923 0.949 . S
C928 C934 1.368 . S
C929 C913 1.349 . S
C929 H921 0.950 . S
C929 C927 1.327 . S
C930 C918 1.349 . S
C930 H924 0.950 . S
C930 C931 1.327 . S
C931 H925 0.950 . S
C931 C930 1.327 . S
C931 C935 1.429 . S
C932 C915 1.574 . S
C932 H926 0.949 . S
C932 C936 1.368 . S
C933 C914 1.429 . S
C933 C927 1.429 . S
C933 C934 1.523 . S
C934 C915 1.368 . S
C934 C928 1.368 . S
C934 C933 1.523 . S
C935 C919 1.429 . S
C935 C931 1.429 . S
C935 C936 1.523 . S
C936 C920 1.368 . S
C936 C932 1.368 . S
C936 C935 1.523 . S
H937 C912 0.950 . S
H938 C914 0.950 . S
H939 C915 0.949 . S
H940 C917 0.950 . S
H941 C919 0.950 . S
C942 C943 1.349 . S
C942 C944 1.327 . S
C942 H967 0.950 . S
C943 C942 1.349 . S
C943 C959 1.349 . S
C944 C942 1.327 . S
C944 C963 1.429 . S
C944 H968 0.950 . S
C945 C962 1.574 . S
C945 C964 1.368 . S
C945 H969 0.949 . S
H946 C950 0.949 . S
C947 C948 1.349 . S
C947 C949 1.327 . S
C947 H970 0.950 . S
C948 C947 1.349 . S
C948 C960 1.349 . S
C949 C947 1.327 . S
C949 C965 1.429 . S
C949 H971 0.950 . S
C950 H946 0.949 . S
C950 C958 1.574 . S
C950 C966 1.368 . S
H951 C959 0.950 . S
H952 C957 0.950 . S
H953 C958 0.949 . S
H954 C960 0.950 . S
H955 C961 0.950 . S
H956 C962 0.949 . S
C957 H952 0.950 . S
C957 C959 1.327 . S
C957 C963 1.429 . S
C958 C950 1.574 . S
C958 H953 0.949 . S
C958 C964 1.368 . S
C959 C943 1.349 . S
C959 H951 0.950 . S
C959 C957 1.327 . S
C960 C948 1.349 . S
C960 H954 0.950 . S
C960 C961 1.327 . S
C961 H955 0.950 . S
C961 C960 1.327 . S
C961 C965 1.429 . S
C962 C945 1.574 . S
C962 H956 0.949 . S
C962 C966 1.368 . S
C963 C944 1.429 . S
C963 C957 1.429 . S
C963 C964 1.523 . S
C964 C945 1.368 . S
C964 C958 1.368 . S
C964 C963 1.523 . S
C965 C949 1.429 . S
C965 C961 1.429 . S
C965 C966 1.523 . S
C966 C950 1.368 . S
C966 C962 1.368 . S
C966 C965 1.523 . S
H967 C942 0.950 . S
H968 C944 0.950 . S
H969 C945 0.949 . S
H970 C947 0.950 . S
H971 C949 0.950 . S
C972 C973 1.349 . S
C972 C974 1.327 . S
C972 H997 0.950 . S
C973 C972 1.349 . S
C973 C989 1.349 . S
C974 C972 1.327 . S
C974 C993 1.429 . S
C974 H998 0.950 . S
C975 C992 1.574 . S
C975 C994 1.368 . S
C975 H999 0.949 . S
H976 C980 0.949 . S
C977 C978 1.349 . S
C977 C979 1.327 . S
C977 H1000 0.950 . S
C978 C977 1.349 . S
C978 C990 1.349 . S
C979 C977 1.327 . S
C979 C995 1.429 . S
C979 H1001 0.950 . S
C980 H976 0.949 . S
C980 C988 1.574 . S
C980 C996 1.368 . S
H981 C989 0.950 . S
H982 C987 0.950 . S
H983 C988 0.949 . S
H984 C990 0.950 . S
H985 C991 0.950 . S
H986 C992 0.949 . S
C987 H982 0.950 . S
C987 C989 1.327 . S
C987 C993 1.429 . S
C988 C980 1.574 . S
C988 H983 0.949 . S
C988 C994 1.368 . S
C989 C973 1.349 . S
C989 H981 0.950 . S
C989 C987 1.327 . S
C990 C978 1.349 . S
C990 H984 0.950 . S
C990 C991 1.327 . S
C991 H985 0.950 . S
C991 C990 1.327 . S
C991 C995 1.429 . S
C992 C975 1.574 . S
C992 H986 0.949 . S
C992 C996 1.368 . S
C993 C974 1.429 . S
C993 C987 1.429 . S
C993 C994 1.523 . S
C994 C975 1.368 . S
C994 C988 1.368 . S
C994 C993 1.523 . S
C995 C979 1.429 . S
C995 C991 1.429 . S
C995 C996 1.523 . S
C996 C980 1.368 . S
C996 C992 1.368 . S
C996 C995 1.523 . S
H997 C972 0.950 . S
H998 C974 0.950 . S
H999 C975 0.949 . S
H1000 C977 0.950 . S
H1001 C979 0.950 . S
C1002 C1003 1.349 . S
C1002 C1004 1.327 . S
C1002 H1027 0.950 . S
C1003 C1002 1.349 . S
C1003 C1019 1.349 . S
C1004 C1002 1.327 . S
C1004 C1023 1.429 . S
C1004 H1028 0.950 . S
C1005 C1022 1.574 . S
C1005 C1024 1.368 . S
C1005 H1029 0.949 . S
H1006 C1010 0.949 . S
C1007 C1008 1.349 . S
C1007 C1009 1.327 . S
C1007 H1030 0.950 . S
C1008 C1007 1.349 . S
C1008 C1020 1.349 . S
C1009 C1007 1.327 . S
C1009 C1025 1.429 . S
C1009 H1031 0.950 . S
C1010 H1006 0.949 . S
C1010 C1018 1.574 . S
C1010 C1026 1.368 . S
H1011 C1019 0.950 . S
H1012 C1017 0.950 . S
H1013 C1018 0.949 . S
H1014 C1020 0.950 . S
H1015 C1021 0.950 . S
H1016 C1022 0.949 . S
C1017 H1012 0.950 . S
C1017 C1019 1.327 . S
C1017 C1023 1.429 . S
C1018 C1010 1.574 . S
C1018 H1013 0.949 . S
C1018 C1024 1.368 . S
C1019 C1003 1.349 . S
C1019 H1011 0.950 . S
C1019 C1017 1.327 . S
C1020 C1008 1.349 . S
C1020 H1014 0.950 . S
C1020 C1021 1.327 . S
C1021 H1015 0.950 . S
C1021 C1020 1.327 . S
C1021 C1025 1.429 . S
C1022 C1005 1.574 . S
C1022 H1016 0.949 . S
C1022 C1026 1.368 . S
C1023 C1004 1.429 . S
C1023 C1017 1.429 . S
C1023 C1024 1.523 . S
C1024 C1005 1.368 . S
C1024 C1018 1.368 . S
C1024 C1023 1.523 . S
C1025 C1009 1.429 . S
C1025 C1021 1.429 . S
C1025 C1026 1.523 . S
C1026 C1010 1.368 . S
C1026 C1022 1.368 . S
C1026 C1025 1.523 . S
H1027 C1002 0.950 . S
H1028 C1004 0.950 . S
H1029 C1005 0.949 . S
H1030 C1007 0.950 . S
H1031 C1009 0.950 . S
C1032 C1033 1.349 . S
C1032 C1034 1.327 . S
C1032 H1057 0.950 . S
C1033 C1032 1.349 . S
C1033 C1049 1.349 . S
C1034 C1032 1.327 . S
C1034 C1053 1.429 . S
C1034 H1058 0.950 . S
C1035 C1052 1.574 1_554 S
C1035 C1054 1.368 . S
C1035 H1059 0.949 . S
H1036 C1040 0.949 . S
C1037 C1038 1.349 . S
C1037 C1039 1.327 . S
C1037 H1060 0.950 . S
C1038 C1037 1.349 . S
C1038 C1050 1.349 . S
C1039 C1037 1.327 . S
C1039 C1055 1.429 . S
C1039 H1061 0.950 . S
C1040 H1036 0.949 . S
C1040 C1048 1.574 1_556 S
C1040 C1056 1.368 . S
H1041 C1049 0.950 . S
H1042 C1047 0.950 . S
H1043 C1048 0.949 . S
H1044 C1050 0.950 . S
H1045 C1051 0.950 . S
H1046 C1052 0.949 . S
C1047 H1042 0.950 . S
C1047 C1049 1.327 . S
C1047 C1053 1.429 . S
C1048 C1040 1.574 1_554 S
C1048 H1043 0.949 . S
C1048 C1054 1.368 . S
C1049 C1033 1.349 . S
C1049 H1041 0.950 . S
C1049 C1047 1.327 . S
C1050 C1038 1.349 . S
C1050 H1044 0.950 . S
C1050 C1051 1.327 . S
C1051 H1045 0.950 . S
C1051 C1050 1.327 . S
C1051 C1055 1.429 . S
C1052 C1035 1.574 1_556 S
C1052 H1046 0.949 . S
C1052 C1056 1.368 . S
C1053 C1034 1.429 . S
C1053 C1047 1.429 . S
C1053 C1054 1.523 . S
C1054 C1035 1.368 . S
C1054 C1048 1.368 . S
C1054 C1053 1.523 . S
C1055 C1039 1.429 . S
C1055 C1051 1.429 . S
C1055 C1056 1.523 . S
C1056 C1040 1.368 . S
C1056 C1052 1.368 . S
C1056 C1055 1.523 . S
H1057 C1032 0.950 . S
H1058 C1034 0.950 . S
H1059 C1035 0.949 . S
H1060 C1037 0.950 . S
H1061 C1039 0.950 . S
C1062 C1063 1.349 . S
C1062 C1064 1.327 . S
C1062 H1087 0.950 . S
C1063 C1062 1.349 . S
C1063 C1079 1.349 . S
C1064 C1062 1.327 . S
C1064 C1083 1.429 . S
C1064 H1088 0.950 . S
C1065 C1082 1.574 1_556 S
C1065 C1084 1.368 . S
C1065 H1089 0.949 . S
H1066 C1070 0.949 . S
C1067 C1068 1.349 . S
C1067 C1069 1.327 . S
C1067 H1090 0.950 . S
C1068 C1067 1.349 . S
C1068 C1080 1.349 . S
C1069 C1067 1.327 . S
C1069 C1085 1.429 . S
C1069 H1091 0.950 . S
C1070 H1066 0.949 . S
C1070 C1078 1.574 1_554 S
C1070 C1086 1.368 . S
H1071 C1079 0.950 . S
H1072 C1077 0.950 . S
H1073 C1078 0.949 . S
H1074 C1080 0.950 . S
H1075 C1081 0.950 . S
H1076 C1082 0.949 . S
C1077 H1072 0.950 . S
C1077 C1079 1.327 . S
C1077 C1083 1.429 . S
C1078 C1070 1.574 1_556 S
C1078 H1073 0.949 . S
C1078 C1084 1.368 . S
C1079 C1063 1.349 . S
C1079 H1071 0.950 . S
C1079 C1077 1.327 . S
C1080 C1068 1.349 . S
C1080 H1074 0.950 . S
C1080 C1081 1.327 . S
C1081 H1075 0.950 . S
C1081 C1080 1.327 . S
C1081 C1085 1.429 . S
C1082 C1065 1.574 1_554 S
C1082 H1076 0.949 . S
C1082 C1086 1.368 . S
C1083 C1064 1.429 . S
C1083 C1077 1.429 . S
C1083 C1084 1.523 . S
C1084 C1065 1.368 . S
C1084 C1078 1.368 . S
C1084 C1083 1.523 . S
C1085 C1069 1.429 . S
C1085 C1081 1.429 . S
C1085 C1086 1.523 . S
C1086 C1070 1.368 . S
C1086 C1082 1.368 . S
C1086 C1085 1.523 . S
H1087 C1062 0.950 . S
H1088 C1064 0.950 . S
H1089 C1065 0.949 . S
H1090 C1067 0.950 . S
H1091 C1069 0.950 . S
C1092 C1093 1.349 . S
C1092 C1094 1.327 . S
C1092 H1117 0.950 . S
C1093 C1092 1.349 . S
C1093 C1109 1.349 . S
C1094 C1092 1.327 . S
C1094 C1113 1.429 . S
C1094 H1118 0.950 . S
C1095 C1112 1.574 1_556 S
C1095 C1114 1.368 . S
C1095 H1119 0.949 . S
H1096 C1100 0.949 . S
C1097 C1098 1.349 . S
C1097 C1099 1.327 . S
C1097 H1120 0.950 . S
C1098 C1097 1.349 . S
C1098 C1110 1.349 . S
C1099 C1097 1.327 . S
C1099 C1115 1.429 . S
C1099 H1121 0.950 . S
C1100 H1096 0.949 . S
C1100 C1108 1.574 1_554 S
C1100 C1116 1.368 . S
H1101 C1109 0.950 . S
H1102 C1107 0.950 . S
H1103 C1108 0.949 . S
H1104 C1110 0.950 . S
H1105 C1111 0.950 . S
H1106 C1112 0.949 . S
C1107 H1102 0.950 . S
C1107 C1109 1.327 . S
C1107 C1113 1.429 . S
C1108 C1100 1.574 1_556 S
C1108 H1103 0.949 . S
C1108 C1114 1.368 . S
C1109 C1093 1.349 . S
C1109 H1101 0.950 . S
C1109 C1107 1.327 . S
C1110 C1098 1.349 . S
C1110 H1104 0.950 . S
C1110 C1111 1.327 . S
C1111 H1105 0.950 . S
C1111 C1110 1.327 . S
C1111 C1115 1.429 . S
C1112 C1095 1.574 1_554 S
C1112 H1106 0.949 . S
C1112 C1116 1.368 . S
C1113 C1094 1.429 . S
C1113 C1107 1.429 . S
C1113 C1114 1.523 . S
C1114 C1095 1.368 . S
C1114 C1108 1.368 . S
C1114 C1113 1.523 . S
C1115 C1099 1.429 . S
C1115 C1111 1.429 . S
C1115 C1116 1.523 . S
C1116 C1100 1.368 . S
C1116 C1112 1.368 . S
C1116 C1115 1.523 . S
H1117 C1092 0.950 . S
H1118 C1094 0.950 . S
H1119 C1095 0.949 . S
H1120 C1097 0.950 . S
H1121 C1099 0.950 . S
C1122 C1123 1.349 . S
C1122 C1124 1.327 . S
C1122 H1147 0.950 . S
C1123 C1122 1.349 . S
C1123 C1139 1.349 . S
C1124 C1122 1.327 . S
C1124 C1143 1.429 . S
C1124 H1148 0.950 . S
C1125 C1142 1.574 1_554 S
C1125 C1144 1.368 . S
C1125 H1149 0.949 . S
H1126 C1130 0.949 . S
C1127 C1128 1.349 . S
C1127 C1129 1.327 . S
C1127 H1150 0.950 . S
C1128 C1127 1.349 . S
C1128 C1140 1.349 . S
C1129 C1127 1.327 . S
C1129 C1145 1.429 . S
C1129 H1151 0.950 . S
C1130 H1126 0.949 . S
C1130 C1138 1.574 1_556 S
C1130 C1146 1.368 . S
H1131 C1139 0.950 . S
H1132 C1137 0.950 . S
H1133 C1138 0.949 . S
H1134 C1140 0.950 . S
H1135 C1141 0.950 . S
H1136 C1142 0.949 . S
C1137 H1132 0.950 . S
C1137 C1139 1.327 . S
C1137 C1143 1.429 . S
C1138 C1130 1.574 1_554 S
C1138 H1133 0.949 . S
C1138 C1144 1.368 . S
C1139 C1123 1.349 . S
C1139 H1131 0.950 . S
C1139 C1137 1.327 . S
C1140 C1128 1.349 . S
C1140 H1134 0.950 . S
C1140 C1141 1.327 . S
C1141 H1135 0.950 . S
C1141 C1140 1.327 . S
C1141 C1145 1.429 . S
C1142 C1125 1.574 1_556 S
C1142 H1136 0.949 . S
C1142 C1146 1.368 . S
C1143 C1124 1.429 . S
C1143 C1137 1.429 . S
C1143 C1144 1.523 . S
C1144 C1125 1.368 . S
C1144 C1138 1.368 . S
C1144 C1143 1.523 . S
C1145 C1129 1.429 . S
C1145 C1141 1.429 . S
C1145 C1146 1.523 . S
C1146 C1130 1.368 . S
C1146 C1142 1.368 . S
C1146 C1145 1.523 . S
H1147 C1122 0.950 . S
H1148 C1124 0.950 . S
H1149 C1125 0.949 . S
H1150 C1127 0.950 . S
H1151 C1129 0.950 . S
C1152 C1153 1.349 . S
C1152 C1154 1.327 . S
C1152 H1177 0.950 . S
C1153 C1152 1.349 . S
C1153 C1169 1.349 . S
C1154 C1152 1.327 . S
C1154 C1173 1.429 . S
C1154 H1178 0.950 . S
C1155 C1172 1.574 1_554 S
C1155 C1174 1.368 . S
C1155 H1179 0.949 . S
H1156 C1160 0.949 . S
C1157 C1158 1.349 . S
C1157 C1159 1.327 . S
C1157 H1180 0.950 . S
C1158 C1157 1.349 . S
C1158 C1170 1.349 . S
C1159 C1157 1.327 . S
C1159 C1175 1.429 . S
C1159 H1181 0.950 . S
C1160 H1156 0.949 . S
C1160 C1168 1.574 1_556 S
C1160 C1176 1.368 . S
H1161 C1169 0.950 . S
H1162 C1167 0.950 . S
H1163 C1168 0.949 . S
H1164 C1170 0.950 . S
H1165 C1171 0.950 . S
H1166 C1172 0.949 . S
C1167 H1162 0.950 . S
C1167 C1169 1.327 . S
C1167 C1173 1.429 . S
C1168 C1160 1.574 1_554 S
C1168 H1163 0.949 . S
C1168 C1174 1.368 . S
C1169 C1153 1.349 . S
C1169 H1161 0.950 . S
C1169 C1167 1.327 . S
C1170 C1158 1.349 . S
C1170 H1164 0.950 . S
C1170 C1171 1.327 . S
C1171 H1165 0.950 . S
C1171 C1170 1.327 . S
C1171 C1175 1.429 . S
C1172 C1155 1.574 1_556 S
C1172 H1166 0.949 . S
C1172 C1176 1.368 . S
C1173 C1154 1.429 . S
C1173 C1167 1.429 . S
C1173 C1174 1.523 . S
C1174 C1155 1.368 . S
C1174 C1168 1.368 . S
C1174 C1173 1.523 . S
C1175 C1159 1.429 . S
C1175 C1171 1.429 . S
C1175 C1176 1.523 . S
C1176 C1160 1.368 . S
C1176 C1172 1.368 . S
C1176 C1175 1.523 . S
H1177 C1152 0.950 . S
H1178 C1154 0.950 . S
H1179 C1155 0.949 . S
H1180 C1157 0.950 . S
H1181 C1159 0.950 . S
C1182 C1183 1.349 . S
C1182 C1184 1.327 . S
C1182 H1207 0.950 . S
C1183 C1182 1.349 . S
C1183 C1199 1.349 . S
C1184 C1182 1.327 . S
C1184 C1203 1.429 . S
C1184 H1208 0.950 . S
C1185 C1202 1.574 1_556 S
C1185 C1204 1.368 . S
C1185 H1209 0.949 . S
H1186 C1190 0.949 . S
C1187 C1188 1.349 . S
C1187 C1189 1.327 . S
C1187 H1210 0.950 . S
C1188 C1187 1.349 . S
C1188 C1200 1.349 . S
C1189 C1187 1.327 . S
C1189 C1205 1.429 . S
C1189 H1211 0.950 . S
C1190 H1186 0.949 . S
C1190 C1198 1.574 1_554 S
C1190 C1206 1.368 . S
H1191 C1199 0.950 . S
H1192 C1197 0.950 . S
H1193 C1198 0.949 . S
H1194 C1200 0.950 . S
H1195 C1201 0.950 . S
H1196 C1202 0.949 . S
C1197 H1192 0.950 . S
C1197 C1199 1.327 . S
C1197 C1203 1.429 . S
C1198 C1190 1.574 1_556 S
C1198 H1193 0.949 . S
C1198 C1204 1.368 . S
C1199 C1183 1.349 . S
C1199 H1191 0.950 . S
C1199 C1197 1.327 . S
C1200 C1188 1.349 . S
C1200 H1194 0.950 . S
C1200 C1201 1.327 . S
C1201 H1195 0.950 . S
C1201 C1200 1.327 . S
C1201 C1205 1.429 . S
C1202 C1185 1.574 1_554 S
C1202 H1196 0.949 . S
C1202 C1206 1.368 . S
C1203 C1184 1.429 . S
C1203 C1197 1.429 . S
C1203 C1204 1.523 . S
C1204 C1185 1.368 . S
C1204 C1198 1.368 . S
C1204 C1203 1.523 . S
C1205 C1189 1.429 . S
C1205 C1201 1.429 . S
C1205 C1206 1.523 . S
C1206 C1190 1.368 . S
C1206 C1202 1.368 . S
C1206 C1205 1.523 . S
H1207 C1182 0.950 . S
H1208 C1184 0.950 . S
H1209 C1185 0.949 . S
H1210 C1187 0.950 . S
H1211 C1189 0.950 . S
C1212 C1213 1.349 . S
C1212 C1214 1.327 . S
C1212 H1237 0.950 . S
C1213 C1212 1.349 . S
C1213 C1229 1.349 . S
C1214 C1212 1.327 . S
C1214 C1233 1.429 . S
C1214 H1238 0.950 . S
C1215 C1232 1.574 . S
C1215 C1234 1.368 . S
C1215 H1239 0.949 . S
H1216 C1220 0.949 . S
C1217 C1218 1.349 . S
C1217 C1219 1.327 . S
C1217 H1240 0.950 . S
C1218 C1217 1.349 . S
C1218 C1230 1.349 . S
C1219 C1217 1.327 . S
C1219 C1235 1.429 . S
C1219 H1241 0.950 . S
C1220 H1216 0.949 . S
C1220 C1228 1.574 . S
C1220 C1236 1.368 . S
H1221 C1229 0.950 . S
H1222 C1227 0.950 . S
H1223 C1228 0.949 . S
H1224 C1230 0.950 . S
H1225 C1231 0.950 . S
H1226 C1232 0.949 . S
C1227 H1222 0.950 . S
C1227 C1229 1.327 . S
C1227 C1233 1.429 . S
C1228 C1220 1.574 . S
C1228 H1223 0.949 . S
C1228 C1234 1.368 . S
C1229 C1213 1.349 . S
C1229 H1221 0.950 . S
C1229 C1227 1.327 . S
C1230 C1218 1.349 . S
C1230 H1224 0.950 . S
C1230 C1231 1.327 . S
C1231 H1225 0.950 . S
C1231 C1230 1.327 . S
C1231 C1235 1.429 . S
C1232 C1215 1.574 . S
C1232 H1226 0.949 . S
C1232 C1236 1.368 . S
C1233 C1214 1.429 . S
C1233 C1227 1.429 . S
C1233 C1234 1.523 . S
C1234 C1215 1.368 . S
C1234 C1228 1.368 . S
C1234 C1233 1.523 . S
C1235 C1219 1.429 . S
C1235 C1231 1.429 . S
C1235 C1236 1.523 . S
C1236 C1220 1.368 . S
C1236 C1232 1.368 . S
C1236 C1235 1.523 . S
H1237 C1212 0.950 . S
H1238 C1214 0.950 . S
H1239 C1215 0.949 . S
H1240 C1217 0.950 . S
H1241 C1219 0.950 . S
C1242 C1243 1.349 . S
C1242 C1244 1.327 . S
C1242 H1267 0.950 . S
C1243 C1242 1.349 . S
C1243 C1259 1.349 . S
C1244 C1242 1.327 . S
C1244 C1263 1.429 . S
C1244 H1268 0.950 . S
C1245 C1262 1.574 . S
C1245 C1264 1.368 . S
C1245 H1269 0.949 . S
H1246 C1250 0.949 . S
C1247 C1248 1.349 . S
C1247 C1249 1.327 . S
C1247 H1270 0.950 . S
C1248 C1247 1.349 . S
C1248 C1260 1.349 . S
C1249 C1247 1.327 . S
C1249 C1265 1.429 . S
C1249 H1271 0.950 . S
C1250 H1246 0.949 . S
C1250 C1258 1.574 . S
C1250 C1266 1.368 . S
H1251 C1259 0.950 . S
H1252 C1257 0.950 . S
H1253 C1258 0.949 . S
H1254 C1260 0.950 . S
H1255 C1261 0.950 . S
H1256 C1262 0.949 . S
C1257 H1252 0.950 . S
C1257 C1259 1.327 . S
C1257 C1263 1.429 . S
C1258 C1250 1.574 . S
C1258 H1253 0.949 . S
C1258 C1264 1.368 . S
C1259 C1243 1.349 . S
C1259 H1251 0.950 . S
C1259 C1257 1.327 . S
C1260 C1248 1.349 . S
C1260 H1254 0.950 . S
C1260 C1261 1.327 . S
C1261 H1255 0.950 . S
C1261 C1260 1.327 . S
C1261 C1265 1.429 . S
C1262 C1245 1.574 . S
C1262 H1256 0.949 . S
C1262 C1266 1.368 . S
C1263 C1244 1.429 . S
C1263 C1257 1.429 . S
C1263 C1264 1.523 . S
C1264 C1245 1.368 . S
C1264 C1258 1.368 . S
C1264 C1263 1.523 . S
C1265 C1249 1.429 . S
C1265 C1261 1.429 . S
C1265 C1266 1.523 . S
C1266 C1250 1.368 . S
C1266 C1262 1.368 . S
C1266 C1265 1.523 . S
H1267 C1242 0.950 . S
H1268 C1244 0.950 . S
H1269 C1245 0.949 . S
H1270 C1247 0.950 . S
H1271 C1249 0.950 . S
C1272 C1273 1.349 . S
C1272 C1274 1.327 . S
C1272 H1297 0.950 . S
C1273 C1272 1.349 . S
C1273 C1289 1.349 . S
C1274 C1272 1.327 . S
C1274 C1293 1.429 . S
C1274 H1298 0.950 . S
C1275 C1292 1.574 . S
C1275 C1294 1.368 . S
C1275 H1299 0.949 . S
H1276 C1280 0.949 . S
C1277 C1278 1.349 . S
C1277 C1279 1.327 . S
C1277 H1300 0.950 . S
C1278 C1277 1.349 . S
C1278 C1290 1.349 . S
C1279 C1277 1.327 . S
C1279 C1295 1.429 . S
C1279 H1301 0.950 . S
C1280 H1276 0.949 . S
C1280 C1288 1.574 . S
C1280 C1296 1.368 . S
H1281 C1289 0.950 . S
H1282 C1287 0.950 . S
H1283 C1288 0.949 . S
H1284 C1290 0.950 . S
H1285 C1291 0.950 . S
H1286 C1292 0.949 . S
C1287 H1282 0.950 . S
C1287 C1289 1.327 . S
C1287 C1293 1.429 . S
C1288 C1280 1.574 . S
C1288 H1283 0.949 . S
C1288 C1294 1.368 . S
C1289 C1273 1.349 . S
C1289 H1281 0.950 . S
C1289 C1287 1.327 . S
C1290 C1278 1.349 . S
C1290 H1284 0.950 . S
C1290 C1291 1.327 . S
C1291 H1285 0.950 . S
C1291 C1290 1.327 . S
C1291 C1295 1.429 . S
C1292 C1275 1.574 . S
C1292 H1286 0.949 . S
C1292 C1296 1.368 . S
C1293 C1274 1.429 . S
C1293 C1287 1.429 . S
C1293 C1294 1.523 . S
C1294 C1275 1.368 . S
C1294 C1288 1.368 . S
C1294 C1293 1.523 . S
C1295 C1279 1.429 . S
C1295 C1291 1.429 . S
C1295 C1296 1.523 . S
C1296 C1280 1.368 . S
C1296 C1292 1.368 . S
C1296 C1295 1.523 . S
H1297 C1272 0.950 . S
H1298 C1274 0.950 . S
H1299 C1275 0.949 . S
H1300 C1277 0.950 . S
H1301 C1279 0.950 . S
C1302 C1303 1.349 . S
C1302 C1304 1.327 . S
C1302 H1327 0.950 . S
C1303 C1302 1.349 . S
C1303 C1319 1.349 . S
C1304 C1302 1.327 . S
C1304 C1323 1.429 . S
C1304 H1328 0.950 . S
C1305 C1322 1.574 . S
C1305 C1324 1.368 . S
C1305 H1329 0.949 . S
H1306 C1310 0.949 . S
C1307 C1308 1.349 . S
C1307 C1309 1.327 . S
C1307 H1330 0.950 . S
C1308 C1307 1.349 . S
C1308 C1320 1.349 . S
C1309 C1307 1.327 . S
C1309 C1325 1.429 . S
C1309 H1331 0.950 . S
C1310 H1306 0.949 . S
C1310 C1318 1.574 . S
C1310 C1326 1.368 . S
H1311 C1319 0.950 . S
H1312 C1317 0.950 . S
H1313 C1318 0.949 . S
H1314 C1320 0.950 . S
H1315 C1321 0.950 . S
H1316 C1322 0.949 . S
C1317 H1312 0.950 . S
C1317 C1319 1.327 . S
C1317 C1323 1.429 . S
C1318 C1310 1.574 . S
C1318 H1313 0.949 . S
C1318 C1324 1.368 . S
C1319 C1303 1.349 . S
C1319 H1311 0.950 . S
C1319 C1317 1.327 . S
C1320 C1308 1.349 . S
C1320 H1314 0.950 . S
C1320 C1321 1.327 . S
C1321 H1315 0.950 . S
C1321 C1320 1.327 . S
C1321 C1325 1.429 . S
C1322 C1305 1.574 . S
C1322 H1316 0.949 . S
C1322 C1326 1.368 . S
C1323 C1304 1.429 . S
C1323 C1317 1.429 . S
C1323 C1324 1.523 . S
C1324 C1305 1.368 . S
C1324 C1318 1.368 . S
C1324 C1323 1.523 . S
C1325 C1309 1.429 . S
C1325 C1321 1.429 . S
C1325 C1326 1.523 . S
C1326 C1310 1.368 . S
C1326 C1322 1.368 . S
C1326 C1325 1.523 . S
H1327 C1302 0.950 . S
H1328 C1304 0.950 . S
H1329 C1305 0.949 . S
H1330 C1307 0.950 . S
H1331 C1309 0.950 . S
C1332 C1333 1.349 . S
C1332 C1334 1.327 . S
C1332 H1357 0.950 . S
C1333 C1332 1.349 . S
C1333 C1349 1.349 . S
C1334 C1332 1.327 . S
C1334 C1353 1.429 . S
C1334 H1358 0.950 . S
C1335 C1352 1.574 . S
C1335 C1354 1.368 . S
C1335 H1359 0.949 . S
H1336 C1340 0.949 . S
C1337 C1338 1.349 . S
C1337 C1339 1.327 . S
C1337 H1360 0.950 . S
C1338 C1337 1.349 . S
C1338 C1350 1.349 . S
C1339 C1337 1.327 . S
C1339 C1355 1.429 . S
C1339 H1361 0.950 . S
C1340 H1336 0.949 . S
C1340 C1348 1.574 . S
C1340 C1356 1.368 . S
H1341 C1349 0.950 . S
H1342 C1347 0.950 . S
H1343 C1348 0.949 . S
H1344 C1350 0.950 . S
H1345 C1351 0.950 . S
H1346 C1352 0.949 . S
C1347 H1342 0.950 . S
C1347 C1349 1.327 . S
C1347 C1353 1.429 . S
C1348 C1340 1.574 . S
C1348 H1343 0.949 . S
C1348 C1354 1.368 . S
C1349 C1333 1.349 . S
C1349 H1341 0.950 . S
C1349 C1347 1.327 . S
C1350 C1338 1.349 . S
C1350 H1344 0.950 . S
C1350 C1351 1.327 . S
C1351 H1345 0.950 . S
C1351 C1350 1.327 . S
C1351 C1355 1.429 . S
C1352 C1335 1.574 . S
C1352 H1346 0.949 . S
C1352 C1356 1.368 . S
C1353 C1334 1.429 . S
C1353 C1347 1.429 . S
C1353 C1354 1.523 . S
C1354 C1335 1.368 . S
C1354 C1348 1.368 . S
C1354 C1353 1.523 . S
C1355 C1339 1.429 . S
C1355 C1351 1.429 . S
C1355 C1356 1.523 . S
C1356 C1340 1.368 . S
C1356 C1352 1.368 . S
C1356 C1355 1.523 . S
H1357 C1332 0.950 . S
H1358 C1334 0.950 . S
H1359 C1335 0.949 . S
H1360 C1337 0.950 . S
H1361 C1339 0.950 . S
C1362 C1363 1.349 . S
C1362 C1364 1.327 . S
C1362 H1387 0.950 . S
C1363 C1362 1.349 . S
C1363 C1379 1.349 . S
C1364 C1362 1.327 . S
C1364 C1383 1.429 . S
C1364 H1388 0.950 . S
C1365 C1382 1.574 . S
C1365 C1384 1.368 . S
C1365 H1389 0.949 . S
H1366 C1370 0.949 . S
C1367 C1368 1.349 . S
C1367 C1369 1.327 . S
C1367 H1390 0.950 . S
C1368 C1367 1.349 . S
C1368 C1380 1.349 . S
C1369 C1367 1.327 . S
C1369 C1385 1.429 . S
C1369 H1391 0.950 . S
C1370 H1366 0.949 . S
C1370 C1378 1.574 . S
C1370 C1386 1.368 . S
H1371 C1379 0.950 . S
H1372 C1377 0.950 . S
H1373 C1378 0.949 . S
H1374 C1380 0.950 . S
H1375 C1381 0.950 . S
H1376 C1382 0.949 . S
C1377 H1372 0.950 . S
C1377 C1379 1.327 . S
C1377 C1383 1.429 . S
C1378 C1370 1.574 . S
C1378 H1373 0.949 . S
C1378 C1384 1.368 . S
C1379 C1363 1.349 . S
C1379 H1371 0.950 . S
C1379 C1377 1.327 . S
C1380 C1368 1.349 . S
C1380 H1374 0.950 . S
C1380 C1381 1.327 . S
C1381 H1375 0.950 . S
C1381 C1380 1.327 . S
C1381 C1385 1.429 . S
C1382 C1365 1.574 . S
C1382 H1376 0.949 . S
C1382 C1386 1.368 . S
C1383 C1364 1.429 . S
C1383 C1377 1.429 . S
C1383 C1384 1.523 . S
C1384 C1365 1.368 . S
C1384 C1378 1.368 . S
C1384 C1383 1.523 . S
C1385 C1369 1.429 . S
C1385 C1381 1.429 . S
C1385 C1386 1.523 . S
C1386 C1370 1.368 . S
C1386 C1382 1.368 . S
C1386 C1385 1.523 . S
H1387 C1362 0.950 . S
H1388 C1364 0.950 . S
H1389 C1365 0.949 . S
H1390 C1367 0.950 . S
H1391 C1369 0.950 . S
C1392 C1393 1.349 . S
C1392 C1394 1.327 . S
C1392 H1417 0.950 . S
C1393 C1392 1.349 . S
C1393 C1409 1.349 . S
C1394 C1392 1.327 . S
C1394 C1413 1.429 . S
C1394 H1418 0.950 . S
C1395 C1412 1.574 . S
C1395 C1414 1.368 . S
C1395 H1419 0.949 . S
H1396 C1400 0.949 . S
C1397 C1398 1.349 . S
C1397 C1399 1.327 . S
C1397 H1420 0.950 . S
C1398 C1397 1.349 . S
C1398 C1410 1.349 . S
C1399 C1397 1.327 . S
C1399 C1415 1.429 . S
C1399 H1421 0.950 . S
C1400 H1396 0.949 . S
C1400 C1408 1.574 . S
C1400 C1416 1.368 . S
H1401 C1409 0.950 . S
H1402 C1407 0.950 . S
H1403 C1408 0.949 . S
H1404 C1410 0.950 . S
H1405 C1411 0.950 . S
H1406 C1412 0.949 . S
C1407 H1402 0.950 . S
C1407 C1409 1.327 . S
C1407 C1413 1.429 . S
C1408 C1400 1.574 . S
C1408 H1403 0.949 . S
C1408 C1414 1.368 . S
C1409 C1393 1.349 . S
C1409 H1401 0.950 . S
C1409 C1407 1.327 . S
C1410 C1398 1.349 . S
C1410 H1404 0.950 . S
C1410 C1411 1.327 . S
C1411 H1405 0.950 . S
C1411 C1410 1.327 . S
C1411 C1415 1.429 . S
C1412 C1395 1.574 . S
C1412 H1406 0.949 . S
C1412 C1416 1.368 . S
C1413 C1394 1.429 . S
C1413 C1407 1.429 . S
C1413 C1414 1.523 . S
C1414 C1395 1.368 . S
C1414 C1408 1.368 . S
C1414 C1413 1.523 . S
C1415 C1399 1.429 . S
C1415 C1411 1.429 . S
C1415 C1416 1.523 . S
C1416 C1400 1.368 . S
C1416 C1412 1.368 . S
C1416 C1415 1.523 . S
H1417 C1392 0.950 . S
H1418 C1394 0.950 . S
H1419 C1395 0.949 . S
H1420 C1397 0.950 . S
H1421 C1399 0.950 . S
C1422 C1423 1.349 . S
C1422 C1424 1.327 . S
C1422 H1447 0.950 . S
C1423 C1422 1.349 . S
C1423 C1439 1.349 . S
C1424 C1422 1.327 . S
C1424 C1443 1.429 . S
C1424 H1448 0.950 . S
C1425 C1442 1.574 . S
C1425 C1444 1.368 . S
C1425 H1449 0.949 . S
H1426 C1430 0.949 . S
C1427 C1428 1.349 . S
C1427 C1429 1.327 . S
C1427 H1450 0.950 . S
C1428 C1427 1.349 . S
C1428 C1440 1.349 . S
C1429 C1427 1.327 . S
C1429 C1445 1.429 . S
C1429 H1451 0.950 . S
C1430 H1426 0.949 . S
C1430 C1438 1.574 . S
C1430 C1446 1.368 . S
H1431 C1439 0.950 . S
H1432 C1437 0.950 . S
H1433 C1438 0.949 . S
H1434 C1440 0.950 . S
H1435 C1441 0.950 . S
H1436 C1442 0.949 . S
C1437 H1432 0.950 . S
C1437 C1439 1.327 . S
C1437 C1443 1.429 . S
C1438 C1430 1.574 . S
C1438 H1433 0.949 . S
C1438 C1444 1.368 . S
C1439 C1423 1.349 . S
C1439 H1431 0.950 . S
C1439 C1437 1.327 . S
C1440 C1428 1.349 . S
C1440 H1434 0.950 . S
C1440 C1441 1.327 . S
C1441 H1435 0.950 . S
C1441 C1440 1.327 . S
C1441 C1445 1.429 . S
C1442 C1425 1.574 . S
C1442 H1436 0.949 . S
C1442 C1446 1.368 . S
C1443 C1424 1.429 . S
C1443 C1437 1.429 . S
C1443 C1444 1.523 . S
C1444 C1425 1.368 . S
C1444 C1438 1.368 . S
C1444 C1443 1.523 . S
C1445 C1429 1.429 . S
C1445 C1441 1.429 . S
C1445 C1446 1.523 . S
C1446 C1430 1.368 . S
C1446 C1442 1.368 . S
C1446 C1445 1.523 . S
H1447 C1422 0.950 . S
H1448 C1424 0.950 . S
H1449 C1425 0.949 . S
H1450 C1427 0.950 . S
H1451 C1429 0.950 . S
C1452 C1453 1.349 . S
C1452 C1454 1.327 . S
C1452 H1477 0.950 . S
C1453 C1452 1.349 . S
C1453 C1469 1.349 . S
C1454 C1452 1.327 . S
C1454 C1473 1.429 . S
C1454 H1478 0.950 . S
C1455 C1472 1.574 . S
C1455 C1474 1.368 . S
C1455 H1479 0.949 . S
H1456 C1460 0.949 . S
C1457 C1458 1.349 . S
C1457 C1459 1.327 . S
C1457 H1480 0.950 . S
C1458 C1457 1.349 . S
C1458 C1470 1.349 . S
C1459 C1457 1.327 . S
C1459 C1475 1.429 . S
C1459 H1481 0.950 . S
C1460 H1456 0.949 . S
C1460 C1468 1.574 . S
C1460 C1476 1.368 . S
H1461 C1469 0.950 . S
H1462 C1467 0.950 . S
H1463 C1468 0.949 . S
H1464 C1470 0.950 . S
H1465 C1471 0.950 . S
H1466 C1472 0.949 . S
C1467 H1462 0.950 . S
C1467 C1469 1.327 . S
C1467 C1473 1.429 . S
C1468 C1460 1.574 . S
C1468 H1463 0.949 . S
C1468 C1474 1.368 . S
C1469 C1453 1.349 . S
C1469 H1461 0.950 . S
C1469 C1467 1.327 . S
C1470 C1458 1.349 . S
C1470 H1464 0.950 . S
C1470 C1471 1.327 . S
C1471 H1465 0.950 . S
C1471 C1470 1.327 . S
C1471 C1475 1.429 . S
C1472 C1455 1.574 . S
C1472 H1466 0.949 . S
C1472 C1476 1.368 . S
C1473 C1454 1.429 . S
C1473 C1467 1.429 . S
C1473 C1474 1.523 . S
C1474 C1455 1.368 . S
C1474 C1468 1.368 . S
C1474 C1473 1.523 . S
C1475 C1459 1.429 . S
C1475 C1471 1.429 . S
C1475 C1476 1.523 . S
C1476 C1460 1.368 . S
C1476 C1472 1.368 . S
C1476 C1475 1.523 . S
H1477 C1452 0.950 . S
H1478 C1454 0.950 . S
H1479 C1455 0.949 . S
H1480 C1457 0.950 . S
H1481 C1459 0.950 . S
C1482 C1483 1.349 . S
C1482 C1484 1.327 . S
C1482 H1507 0.950 . S
C1483 C1482 1.349 . S
C1483 C1499 1.349 . S
C1484 C1482 1.327 . S
C1484 C1503 1.429 . S
C1484 H1508 0.950 . S
C1485 C1502 1.574 . S
C1485 C1504 1.368 . S
C1485 H1509 0.949 . S
H1486 C1490 0.949 . S
C1487 C1488 1.349 . S
C1487 C1489 1.327 . S
C1487 H1510 0.950 . S
C1488 C1487 1.349 . S
C1488 C1500 1.349 . S
C1489 C1487 1.327 . S
C1489 C1505 1.429 . S
C1489 H1511 0.950 . S
C1490 H1486 0.949 . S
C1490 C1498 1.574 . S
C1490 C1506 1.368 . S
H1491 C1499 0.950 . S
H1492 C1497 0.950 . S
H1493 C1498 0.949 . S
H1494 C1500 0.950 . S
H1495 C1501 0.950 . S
H1496 C1502 0.949 . S
C1497 H1492 0.950 . S
C1497 C1499 1.327 . S
C1497 C1503 1.429 . S
C1498 C1490 1.574 . S
C1498 H1493 0.949 . S
C1498 C1504 1.368 . S
C1499 C1483 1.349 . S
C1499 H1491 0.950 . S
C1499 C1497 1.327 . S
C1500 C1488 1.349 . S
C1500 H1494 0.950 . S
C1500 C1501 1.327 . S
C1501 H1495 0.950 . S
C1501 C1500 1.327 . S
C1501 C1505 1.429 . S
C1502 C1485 1.574 . S
C1502 H1496 0.949 . S
C1502 C1506 1.368 . S
C1503 C1484 1.429 . S
C1503 C1497 1.429 . S
C1503 C1504 1.523 . S
C1504 C1485 1.368 . S
C1504 C1498 1.368 . S
C1504 C1503 1.523 . S
C1505 C1489 1.429 . S
C1505 C1501 1.429 . S
C1505 C1506 1.523 . S
C1506 C1490 1.368 . S
C1506 C1502 1.368 . S
C1506 C1505 1.523 . S
H1507 C1482 0.950 . S
H1508 C1484 0.950 . S
H1509 C1485 0.949 . S
H1510 C1487 0.950 . S
H1511 C1489 0.950 . S
C1512 C1513 1.349 . S
C1512 C1514 1.327 . S
C1512 H1537 0.950 . S
C1513 C1512 1.349 . S
C1513 C1529 1.349 . S
C1514 C1512 1.327 . S
C1514 C1533 1.429 . S
C1514 H1538 0.950 . S
C1515 C1532 1.574 . S
C1515 C1534 1.368 . S
C1515 H1539 0.949 . S
H1516 C1520 0.949 . S
C1517 C1518 1.349 . S
C1517 C1519 1.327 . S
C1517 H1540 0.950 . S
C1518 C1517 1.349 . S
C1518 C1530 1.349 . S
C1519 C1517 1.327 . S
C1519 C1535 1.429 . S
C1519 H1541 0.950 . S
C1520 H1516 0.949 . S
C1520 C1528 1.574 . S
C1520 C1536 1.368 . S
H1521 C1529 0.950 . S
H1522 C1527 0.950 . S
H1523 C1528 0.949 . S
H1524 C1530 0.950 . S
H1525 C1531 0.950 . S
H1526 C1532 0.949 . S
C1527 H1522 0.950 . S
C1527 C1529 1.327 . S
C1527 C1533 1.429 . S
C1528 C1520 1.574 . S
C1528 H1523 0.949 . S
C1528 C1534 1.368 . S
C1529 C1513 1.349 . S
C1529 H1521 0.950 . S
C1529 C1527 1.327 . S
C1530 C1518 1.349 . S
C1530 H1524 0.950 . S
C1530 C1531 1.327 . S
C1531 H1525 0.950 . S
C1531 C1530 1.327 . S
C1531 C1535 1.429 . S
C1532 C1515 1.574 . S
C1532 H1526 0.949 . S
C1532 C1536 1.368 . S
C1533 C1514 1.429 . S
C1533 C1527 1.429 . S
C1533 C1534 1.523 . S
C1534 C1515 1.368 . S
C1534 C1528 1.368 . S
C1534 C1533 1.523 . S
C1535 C1519 1.429 . S
C1535 C1531 1.429 . S
C1535 C1536 1.523 . S
C1536 C1520 1.368 . S
C1536 C1532 1.368 . S
C1536 C1535 1.523 . S
H1537 C1512 0.950 . S
H1538 C1514 0.950 . S
H1539 C1515 0.949 . S
H1540 C1517 0.950 . S
H1541 C1519 0.950 . S
C1542 C1543 1.349 . S
C1542 C1544 1.327 . S
C1542 H1567 0.950 . S
C1543 C1542 1.349 . S
C1543 C1559 1.349 . S
C1544 C1542 1.327 . S
C1544 C1563 1.429 . S
C1544 H1568 0.950 . S
C1545 C1562 1.574 . S
C1545 C1564 1.368 . S
C1545 H1569 0.949 . S
H1546 C1550 0.949 . S
C1547 C1548 1.349 . S
C1547 C1549 1.327 . S
C1547 H1570 0.950 . S
C1548 C1547 1.349 . S
C1548 C1560 1.349 . S
C1549 C1547 1.327 . S
C1549 C1565 1.429 . S
C1549 H1571 0.950 . S
C1550 H1546 0.949 . S
C1550 C1558 1.574 . S
C1550 C1566 1.368 . S
H1551 C1559 0.950 . S
H1552 C1557 0.950 . S
H1553 C1558 0.949 . S
H1554 C1560 0.950 . S
H1555 C1561 0.950 . S
H1556 C1562 0.949 . S
C1557 H1552 0.950 . S
C1557 C1559 1.327 . S
C1557 C1563 1.429 . S
C1558 C1550 1.574 . S
C1558 H1553 0.949 . S
C1558 C1564 1.368 . S
C1559 C1543 1.349 . S
C1559 H1551 0.950 . S
C1559 C1557 1.327 . S
C1560 C1548 1.349 . S
C1560 H1554 0.950 . S
C1560 C1561 1.327 . S
C1561 H1555 0.950 . S
C1561 C1560 1.327 . S
C1561 C1565 1.429 . S
C1562 C1545 1.574 . S
C1562 H1556 0.949 . S
C1562 C1566 1.368 . S
C1563 C1544 1.429 . S
C1563 C1557 1.429 . S
C1563 C1564 1.523 . S
C1564 C1545 1.368 . S
C1564 C1558 1.368 . S
C1564 C1563 1.523 . S
C1565 C1549 1.429 . S
C1565 C1561 1.429 . S
C1565 C1566 1.523 . S
C1566 C1550 1.368 . S
C1566 C1562 1.368 . S
C1566 C1565 1.523 . S
H1567 C1542 0.950 . S
H1568 C1544 0.950 . S
H1569 C1545 0.949 . S
H1570 C1547 0.950 . S
H1571 C1549 0.950 . S
C1572 C1573 1.349 . S
C1572 C1574 1.327 . S
C1572 H1597 0.950 . S
C1573 C1572 1.349 . S
C1573 C1589 1.349 . S
C1574 C1572 1.327 . S
C1574 C1593 1.429 . S
C1574 H1598 0.950 . S
C1575 C1592 1.574 . S
C1575 C1594 1.368 . S
C1575 H1599 0.949 . S
H1576 C1580 0.949 . S
C1577 C1578 1.349 . S
C1577 C1579 1.327 . S
C1577 H1600 0.950 . S
C1578 C1577 1.349 . S
C1578 C1590 1.349 . S
C1579 C1577 1.327 . S
C1579 C1595 1.429 . S
C1579 H1601 0.950 . S
C1580 H1576 0.949 . S
C1580 C1588 1.574 . S
C1580 C1596 1.368 . S
H1581 C1589 0.950 . S
H1582 C1587 0.950 . S
H1583 C1588 0.949 . S
H1584 C1590 0.950 . S
H1585 C1591 0.950 . S
H1586 C1592 0.949 . S
C1587 H1582 0.950 . S
C1587 C1589 1.327 . S
C1587 C1593 1.429 . S
C1588 C1580 1.574 . S
C1588 H1583 0.949 . S
C1588 C1594 1.368 . S
C1589 C1573 1.349 . S
C1589 H1581 0.950 . S
C1589 C1587 1.327 . S
C1590 C1578 1.349 . S
C1590 H1584 0.950 . S
C1590 C1591 1.327 . S
C1591 H1585 0.950 . S
C1591 C1590 1.327 . S
C1591 C1595 1.429 . S
C1592 C1575 1.574 . S
C1592 H1586 0.949 . S
C1592 C1596 1.368 . S
C1593 C1574 1.429 . S
C1593 C1587 1.429 . S
C1593 C1594 1.523 . S
C1594 C1575 1.368 . S
C1594 C1588 1.368 . S
C1594 C1593 1.523 . S
C1595 C1579 1.429 . S
C1595 C1591 1.429 . S
C1595 C1596 1.523 . S
C1596 C1580 1.368 . S
C1596 C1592 1.368 . S
C1596 C1595 1.523 . S
H1597 C1572 0.950 . S
H1598 C1574 0.950 . S
H1599 C1575 0.949 . S
H1600 C1577 0.950 . S
H1601 C1579 0.950 . S
C1602 C1603 1.349 . S
C1602 C1604 1.327 . S
C1602 H1627 0.950 . S
C1603 C1602 1.349 . S
C1603 C1619 1.349 . S
C1604 C1602 1.327 . S
C1604 C1623 1.429 . S
C1604 H1628 0.950 . S
C1605 C1622 1.574 . S
C1605 C1624 1.368 . S
C1605 H1629 0.949 . S
H1606 C1610 0.949 . S
C1607 C1608 1.349 . S
C1607 C1609 1.327 . S
C1607 H1630 0.950 . S
C1608 C1607 1.349 . S
C1608 C1620 1.349 . S
C1609 C1607 1.327 . S
C1609 C1625 1.429 . S
C1609 H1631 0.950 . S
C1610 H1606 0.949 . S
C1610 C1618 1.574 . S
C1610 C1626 1.368 . S
H1611 C1619 0.950 . S
H1612 C1617 0.950 . S
H1613 C1618 0.949 . S
H1614 C1620 0.950 . S
H1615 C1621 0.950 . S
H1616 C1622 0.949 . S
C1617 H1612 0.950 . S
C1617 C1619 1.327 . S
C1617 C1623 1.429 . S
C1618 C1610 1.574 . S
C1618 H1613 0.949 . S
C1618 C1624 1.368 . S
C1619 C1603 1.349 . S
C1619 H1611 0.950 . S
C1619 C1617 1.327 . S
C1620 C1608 1.349 . S
C1620 H1614 0.950 . S
C1620 C1621 1.327 . S
C1621 H1615 0.950 . S
C1621 C1620 1.327 . S
C1621 C1625 1.429 . S
C1622 C1605 1.574 . S
C1622 H1616 0.949 . S
C1622 C1626 1.368 . S
C1623 C1604 1.429 . S
C1623 C1617 1.429 . S
C1623 C1624 1.523 . S
C1624 C1605 1.368 . S
C1624 C1618 1.368 . S
C1624 C1623 1.523 . S
C1625 C1609 1.429 . S
C1625 C1621 1.429 . S
C1625 C1626 1.523 . S
C1626 C1610 1.368 . S
C1626 C1622 1.368 . S
C1626 C1625 1.523 . S
H1627 C1602 0.950 . S
H1628 C1604 0.950 . S
H1629 C1605 0.949 . S
H1630 C1607 0.950 . S
H1631 C1609 0.950 . S
C1632 C1633 1.349 . S
C1632 C1634 1.327 . S
C1632 H1657 0.950 . S
C1633 C1632 1.349 . S
C1633 C1649 1.349 . S
C1634 C1632 1.327 . S
C1634 C1653 1.429 . S
C1634 H1658 0.950 . S
C1635 C1652 1.574 . S
C1635 C1654 1.368 . S
C1635 H1659 0.949 . S
H1636 C1640 0.949 . S
C1637 C1638 1.349 . S
C1637 C1639 1.327 . S
C1637 H1660 0.950 . S
C1638 C1637 1.349 . S
C1638 C1650 1.349 . S
C1639 C1637 1.327 . S
C1639 C1655 1.429 . S
C1639 H1661 0.950 . S
C1640 H1636 0.949 . S
C1640 C1648 1.574 . S
C1640 C1656 1.368 . S
H1641 C1649 0.950 . S
H1642 C1647 0.950 . S
H1643 C1648 0.949 . S
H1644 C1650 0.950 . S
H1645 C1651 0.950 . S
H1646 C1652 0.949 . S
C1647 H1642 0.950 . S
C1647 C1649 1.327 . S
C1647 C1653 1.429 . S
C1648 C1640 1.574 . S
C1648 H1643 0.949 . S
C1648 C1654 1.368 . S
C1649 C1633 1.349 . S
C1649 H1641 0.950 . S
C1649 C1647 1.327 . S
C1650 C1638 1.349 . S
C1650 H1644 0.950 . S
C1650 C1651 1.327 . S
C1651 H1645 0.950 . S
C1651 C1650 1.327 . S
C1651 C1655 1.429 . S
C1652 C1635 1.574 . S
C1652 H1646 0.949 . S
C1652 C1656 1.368 . S
C1653 C1634 1.429 . S
C1653 C1647 1.429 . S
C1653 C1654 1.523 . S
C1654 C1635 1.368 . S
C1654 C1648 1.368 . S
C1654 C1653 1.523 . S
C1655 C1639 1.429 . S
C1655 C1651 1.429 . S
C1655 C1656 1.523 . S
C1656 C1640 1.368 . S
C1656 C1652 1.368 . S
C1656 C1655 1.523 . S
H1657 C1632 0.950 . S
H1658 C1634 0.950 . S
H1659 C1635 0.949 . S
H1660 C1637 0.950 . S
H1661 C1639 0.950 . S
C1662 C1663 1.349 . S
C1662 C1664 1.327 . S
C1662 H1687 0.950 . S
C1663 C1662 1.349 . S
C1663 C1679 1.349 . S
C1664 C1662 1.327 . S
C1664 C1683 1.429 . S
C1664 H1688 0.950 . S
C1665 C1682 1.574 . S
C1665 C1684 1.368 . S
C1665 H1689 0.949 . S
H1666 C1670 0.949 . S
C1667 C1668 1.349 . S
C1667 C1669 1.327 . S
C1667 H1690 0.950 . S
C1668 C1667 1.349 . S
C1668 C1680 1.349 . S
C1669 C1667 1.327 . S
C1669 C1685 1.429 . S
C1669 H1691 0.950 . S
C1670 H1666 0.949 . S
C1670 C1678 1.574 . S
C1670 C1686 1.368 . S
H1671 C1679 0.950 . S
H1672 C1677 0.950 . S
H1673 C1678 0.949 . S
H1674 C1680 0.950 . S
H1675 C1681 0.950 . S
H1676 C1682 0.949 . S
C1677 H1672 0.950 . S
C1677 C1679 1.327 . S
C1677 C1683 1.429 . S
C1678 C1670 1.574 . S
C1678 H1673 0.949 . S
C1678 C1684 1.368 . S
C1679 C1663 1.349 . S
C1679 H1671 0.950 . S
C1679 C1677 1.327 . S
C1680 C1668 1.349 . S
C1680 H1674 0.950 . S
C1680 C1681 1.327 . S
C1681 H1675 0.950 . S
C1681 C1680 1.327 . S
C1681 C1685 1.429 . S
C1682 C1665 1.574 . S
C1682 H1676 0.949 . S
C1682 C1686 1.368 . S
C1683 C1664 1.429 . S
C1683 C1677 1.429 . S
C1683 C1684 1.523 . S
C1684 C1665 1.368 . S
C1684 C1678 1.368 . S
C1684 C1683 1.523 . S
C1685 C1669 1.429 . S
C1685 C1681 1.429 . S
C1685 C1686 1.523 . S
C1686 C1670 1.368 . S
C1686 C1682 1.368 . S
C1686 C1685 1.523 . S
H1687 C1662 0.950 . S
H1688 C1664 0.950 . S
H1689 C1665 0.949 . S
H1690 C1667 0.950 . S
H1691 C1669 0.950 . S
C1692 C1693 1.349 . S
C1692 C1694 1.327 . S
C1692 H1717 0.950 . S
C1693 C1692 1.349 . S
C1693 C1709 1.349 . S
C1694 C1692 1.327 . S
C1694 C1713 1.429 . S
C1694 H1718 0.950 . S
C1695 C1712 1.574 . S
C1695 C1714 1.368 . S
C1695 H1719 0.949 . S
H1696 C1700 0.949 . S
C1697 C1698 1.349 . S
C1697 C1699 1.327 . S
C1697 H1720 0.950 . S
C1698 C1697 1.349 . S
C1698 C1710 1.349 . S
C1699 C1697 1.327 . S
C1699 C1715 1.429 . S
C1699 H1721 0.950 . S
C1700 H1696 0.949 . S
C1700 C1708 1.574 . S
C1700 C1716 1.368 . S
H1701 C1709 0.950 . S
H1702 C1707 0.950 . S
H1703 C1708 0.949 . S
H1704 C1710 0.950 . S
H1705 C1711 0.950 . S
H1706 C1712 0.949 . S
C1707 H1702 0.950 . S
C1707 C1709 1.327 . S
C1707 C1713 1.429 . S
C1708 C1700 1.574 . S
C1708 H1703 0.949 . S
C1708 C1714 1.368 . S
C1709 C1693 1.349 . S
C1709 H1701 0.950 . S
C1709 C1707 1.327 . S
C1710 C1698 1.349 . S
C1710 H1704 0.950 . S
C1710 C1711 1.327 . S
C1711 H1705 0.950 . S
C1711 C1710 1.327 . S
C1711 C1715 1.429 . S
C1712 C1695 1.574 . S
C1712 H1706 0.949 . S
C1712 C1716 1.368 . S
C1713 C1694 1.429 . S
C1713 C1707 1.429 . S
C1713 C1714 1.523 . S
C1714 C1695 1.368 . S
C1714 C1708 1.368 . S
C1714 C1713 1.523 . S
C1715 C1699 1.429 . S
C1715 C1711 1.429 . S
C1715 C1716 1.523 . S
C1716 C1700 1.368 . S
C1716 C1712 1.368 . S
C1716 C1715 1.523 . S
H1717 C1692 0.950 . S
H1718 C1694 0.950 . S
H1719 C1695 0.949 . S
H1720 C1697 0.950 . S
H1721 C1699 0.950 . S
C1722 C1723 1.349 . S
C1722 C1724 1.327 . S
C1722 H1747 0.950 . S
C1723 C1722 1.349 . S
C1723 C1739 1.349 . S
C1724 C1722 1.327 . S
C1724 C1743 1.429 . S
C1724 H1748 0.950 . S
C1725 C1742 1.574 . S
C1725 C1744 1.368 . S
C1725 H1749 0.949 . S
H1726 C1730 0.949 . S
C1727 C1728 1.349 . S
C1727 C1729 1.327 . S
C1727 H1750 0.950 . S
C1728 C1727 1.349 . S
C1728 C1740 1.349 . S
C1729 C1727 1.327 . S
C1729 C1745 1.429 . S
C1729 H1751 0.950 . S
C1730 H1726 0.949 . S
C1730 C1738 1.574 . S
C1730 C1746 1.368 . S
H1731 C1739 0.950 . S
H1732 C1737 0.950 . S
H1733 C1738 0.949 . S
H1734 C1740 0.950 . S
H1735 C1741 0.950 . S
H1736 C1742 0.949 . S
C1737 H1732 0.950 . S
C1737 C1739 1.327 . S
C1737 C1743 1.429 . S
C1738 C1730 1.574 . S
C1738 H1733 0.949 . S
C1738 C1744 1.368 . S
C1739 C1723 1.349 . S
C1739 H1731 0.950 . S
C1739 C1737 1.327 . S
C1740 C1728 1.349 . S
C1740 H1734 0.950 . S
C1740 C1741 1.327 . S
C1741 H1735 0.950 . S
C1741 C1740 1.327 . S
C1741 C1745 1.429 . S
C1742 C1725 1.574 . S
C1742 H1736 0.949 . S
C1742 C1746 1.368 . S
C1743 C1724 1.429 . S
C1743 C1737 1.429 . S
C1743 C1744 1.523 . S
C1744 C1725 1.368 . S
C1744 C1738 1.368 . S
C1744 C1743 1.523 . S
C1745 C1729 1.429 . S
C1745 C1741 1.429 . S
C1745 C1746 1.523 . S
C1746 C1730 1.368 . S
C1746 C1742 1.368 . S
C1746 C1745 1.523 . S
H1747 C1722 0.950 . S
H1748 C1724 0.950 . S
H1749 C1725 0.949 . S
H1750 C1727 0.950 . S
H1751 C1729 0.950 . S
C313 C5 1.175 . S
C318 C96 1.175 . S
C343 C109 1.175 . S
C348 C18 1.175 . S
C373 C31 1.175 . S
C378 C122 1.175 . S
C403 C44 1.174 . S
C408 C135 1.174 . S
C433 C148 1.175 . S
C438 C57 1.175 . S
C463 C70 1.175 . S
C468 C83 1.175 . S
C493 C161 1.175 . S
C498 C252 1.175 . S
C523 C174 1.175 . S
C528 C265 1.175 . S
C553 C278 1.175 . S
C558 C187 1.175 . S
C583 C200 1.174 . S
C588 C291 1.174 . S
C613 C213 1.175 . S
C618 C304 1.175 . S
C643 C239 1.175 . S
C648 C226 1.175 . S
C673 C0 1.167 . S
C678 C104 1.167 . S
C703 C117 1.167 . S
C708 C13 1.167 . S
C733 C130 1.167 . S
C738 C26 1.167 . S
C763 C39 1.167 . S
C768 C143 1.167 . S
C793 C52 1.167 . S
C798 C78 1.167 . S
C823 C65 1.167 . S
C828 C91 1.167 . S
C853 C260 1.167 . S
C858 C156 1.167 . S
C883 C169 1.167 . S
C888 C273 1.167 . S
C913 C286 1.167 . S
C918 C182 1.167 . S
C943 C299 1.167 . S
C948 C195 1.167 . S
C973 C234 1.167 . S
C978 C208 1.167 . S
C1003 C221 1.167 . S
C1008 C247 1.167 . S
C1033 C8 1.492 . S
C1038 C203 1.492 . S
C1063 C216 1.492 . S
C1068 C21 1.492 . S
C1093 C229 1.492 . S
C1098 C34 1.492 . S
C1123 C47 1.492 . S
C1128 C164 1.492 . S
C1153 C60 1.492 . S
C1158 C177 1.492 . S
C1183 C190 1.492 . S
C1188 C73 1.492 . S
C1213 C281 1.492 . S
C1218 C86 1.492 . S
C1243 C294 1.492 . S
C1248 C99 1.492 . S
C1273 C307 1.492 . S
C1278 C112 1.492 . S
C1303 C242 1.492 . S
C1308 C125 1.492 . S
C1333 C138 1.492 . S
C1338 C255 1.492 . S
C1363 C151 1.492 . S
C1368 C268 1.492 . S
C1393 C10 1.523 . S
C1398 C140 1.523 . S
C1423 C153 1.523 . S
C1428 C23 1.523 . S
C1453 C88 1.523 . S
C1458 C36 1.523 . S
C1483 C49 1.523 . S
C1488 C101 1.523 . S
C1513 C62 1.523 . S
C1518 C114 1.523 . S
C1543 C75 1.523 . S
C1548 C127 1.523 . S
C1573 C166 1.523 . S
C1578 C296 1.523 . S
C1603 C179 1.523 . S
C1608 C309 1.523 . S
C1633 C192 1.523 . S
C1638 C244 1.523 . S
C1663 C257 1.523 . S
C1668 C205 1.523 . S
C1693 C218 1.523 . S
C1698 C270 1.523 . S
C1723 C231 1.523 . S
C1728 C283 1.523 . S
