# Generated by pormake.
# Topology lvt, (4)-cn, num edge types: 1
# Building blocks:
#     Node 0, Type 0, BuildingBlock: MUDLON_clean_sbu_0, # of connection points: 4
#     Node 1, Type 0, BuildingBlock: MUDLON_clean_sbu_0, # of connection points: 4
#     Node 2, Type 0, BuildingBlock: MUDLON_clean_sbu_0, # of connection points: 4
#     Node 3, Type 0, BuildingBlock: MUDLON_clean_sbu_0, # of connection points: 4
#     Node 4, Type 0, BuildingBlock: MUDLON_clean_sbu_0, # of connection points: 4
#     Node 5, Type 0, BuildingBlock: MUDLON_clean_sbu_0, # of connection points: 4
#     Node 6, Type 0, BuildingBlock: MUDLON_clean_sbu_0, # of connection points: 4
#     Node 7, Type 0, BuildingBlock: MUDLON_clean_sbu_0, # of connection points: 4
#     Edge 8, Type (0, 0), BuildingBlock: TEMPAE_clean_linker_10, # of connection points: 2
#     Edge 9, Type (0, 0), BuildingBlock: TEMPAE_clean_linker_10, # of connection points: 2
#     Edge 10, Type (0, 0), BuildingBlock: TEMPAE_clean_linker_10, # of connection points: 2
#     Edge 11, Type (0, 0), BuildingBlock: TEMPAE_clean_linker_10, # of connection points: 2
#     Edge 12, Type (0, 0), BuildingBlock: TEMPAE_clean_linker_10, # of connection points: 2
#     Edge 13, Type (0, 0), BuildingBlock: TEMPAE_clean_linker_10, # of connection points: 2
#     Edge 14, Type (0, 0), BuildingBlock: TEMPAE_clean_linker_10, # of connection points: 2
#     Edge 15, Type (0, 0), BuildingBlock: TEMPAE_clean_linker_10, # of connection points: 2
#     Edge 16, Type (0, 0), BuildingBlock: TEMPAE_clean_linker_10, # of connection points: 2
#     Edge 17, Type (0, 0), BuildingBlock: TEMPAE_clean_linker_10, # of connection points: 2
#     Edge 18, Type (0, 0), BuildingBlock: TEMPAE_clean_linker_10, # of connection points: 2
#     Edge 19, Type (0, 0), BuildingBlock: TEMPAE_clean_linker_10, # of connection points: 2
#     Edge 20, Type (0, 0), BuildingBlock: TEMPAE_clean_linker_10, # of connection points: 2
#     Edge 21, Type (0, 0), BuildingBlock: TEMPAE_clean_linker_10, # of connection points: 2
#     Edge 22, Type (0, 0), BuildingBlock: TEMPAE_clean_linker_10, # of connection points: 2
#     Edge 23, Type (0, 0), BuildingBlock: TEMPAE_clean_linker_10, # of connection points: 2
# Relax obj value: 0.001
# Max RMSD: 0.037
# Mean RMSD: 0.026
data_MOF--net-lvt--node1-MUDLON_clean_sbu_0--edge1-TEMPAE_clean_linker_10
_symmetry_space_group_name_H-M    P1
_symmetry_Int_Tables_number       1
_symmetry_cell_setting            triclinic
loop_
_symmetry_equiv_pos_as_xyz
'x, y, z'
_cell_length_a     42.660293
_cell_length_b     42.586499
_cell_length_c     9.4302314
_cell_angle_alpha  89.85793
_cell_angle_beta   90.10809
_cell_angle_gamma 90.029242
loop_
_atom_site_label
_atom_site_type_symbol
_atom_site_fract_x
_atom_site_fract_y
_atom_site_fract_z
_atom_type_partial_charge
Mg0 Mg 0.02224 1.01695 0.67324 0.0
C1 C 0.08185 0.05358 0.64121 0.0
O2 O 0.0847 0.04229 0.77034 0.0
C3 C 0.97021 0.98504 0.50362 0.0
O4 O 0.95611 1.0118 0.53014 0.0
C5 C 0.98717 0.07451 0.80743 0.0
O6 O 1.01497 0.08384 0.8502 0.0
O7 O 0.98441 0.04802 0.74617 0.0
O8 O 0.05746 0.04666 0.56937 0.0
O9 O 0.04824 0.98667 0.82189 0.0
C10 C 0.06733 0.96946 0.75294 0.0
O11 O 0.0683 0.97281 0.61439 0.0
O12 O 0.99894 0.98205 0.53818 0.0
Mg13 Mg 0.27861 0.77172 0.96922 0.0
C14 C 0.25559 0.71743 0.78547 0.0
O15 O 0.27487 0.70209 0.86941 0.0
C16 C 0.31568 0.83205 0.91903 0.0
O17 O 0.28823 0.84454 0.94677 0.0
C18 C 0.21383 0.79743 0.0399 0.0
O19 O 0.20554 0.77029 0.98547 0.0
O20 O 0.24287 0.80284 0.06015 0.0
O21 O 0.25429 0.74725 0.79523 0.0
O22 O 0.30032 0.73579 0.10547 0.0
C23 C 0.32567 0.74167 0.17213 0.0
O24 O 0.33601 0.77073 0.175 0.0
O25 O 0.31792 0.80228 0.90984 0.0
Mg26 Mg 0.54275 0.03319 0.91721 0.0
C27 C 0.50469 0.97613 0.90513 0.0
O28 O 0.52137 0.97658 0.78816 0.0
C29 C 0.5818 0.08696 0.99178 0.0
O30 O 0.57651 0.08907 0.85477 0.0
C31 C 0.60129 0.9971 0.90248 0.0
O32 O 0.6006 1.00794 0.0327 0.0
O33 O 0.57959 1.00525 0.81678 0.0
O34 O 0.50948 0.99772 0.99637 0.0
O35 O 0.51372 0.06634 0.79509 0.0
C36 C 0.4863 0.05965 0.75051 0.0
O37 O 0.47728 0.03018 0.75094 0.0
O38 O 0.56901 0.06445 0.06007 0.0
Mg39 Mg 0.28041 0.25658 0.15503 0.0
C40 C 0.24615 0.19932 0.23691 0.0
O41 O 0.24983 0.19671 0.09918 0.0
C42 C 0.3288 0.30227 0.1149 0.0
O43 O 0.31661 0.29556 0.99049 0.0
C44 C 0.23632 0.30264 0.23703 0.0
O45 O 0.25207 0.29291 0.34872 0.0
O46 O 0.24265 0.29021 0.11745 0.0
O47 O 0.25847 0.22278 0.2998 0.0
O48 O 0.30373 0.22833 0.99209 0.0
C49 C 0.32366 0.21076 0.05451 0.0
O50 O 0.32564 0.21243 0.19344 0.0
O51 O 0.31821 0.28781 0.22331 0.0
Mg52 Mg 0.7937 0.28516 0.43307 0.0
C53 C 0.8256 0.33293 0.23217 0.0
O54 O 0.79685 0.3431 0.2126 0.0
C55 C 0.73697 0.24518 0.3831 0.0
O56 O 0.7291 0.26166 0.49496 0.0
C57 C 0.816 0.23353 0.6438 0.0
O58 O 0.78768 0.22203 0.62642 0.0
O59 O 0.82271 0.26011 0.58933 0.0
O60 O 0.83004 0.30809 0.30513 0.0
O61 O 0.76367 0.32499 0.49166 0.0
C62 C 0.74554 0.33047 0.59585 0.0
O63 O 0.74385 0.3102 0.70081 0.0
O64 O 0.76376 0.25004 0.32727 0.0
Mg65 Mg 0.78314 0.75805 0.70206 0.0
C66 C 0.83343 0.79933 0.64112 0.0
O67 O 0.8307 0.79523 0.77877 0.0
C68 C 0.72594 0.72265 0.73425 0.0
O69 O 0.73081 0.73854 0.85154 0.0
C70 C 0.81232 0.69984 0.84 0.0
O71 O 0.78515 0.68764 0.80471 0.0
O72 O 0.81628 0.72933 0.82533 0.0
O73 O 0.81509 0.78374 0.56055 0.0
O74 O 0.7582 0.79727 0.80167 0.0
C75 C 0.75055 0.81846 0.7123 0.0
O76 O 0.75871 0.81487 0.57911 0.0
O77 O 0.74534 0.72639 0.63272 0.0
Mg78 Mg 0.53468 0.52675 0.18294 0.0
C79 C 0.47358 0.49028 0.12426 0.0
O80 O 0.46073 0.51813 0.13711 0.0
C81 C 0.55804 0.56639 0.93329 0.0
O82 O 0.52937 0.57755 0.94031 0.0
C83 C 0.57627 0.47867 0.29362 0.0
O84 O 0.56536 0.46854 0.17161 0.0
O85 O 0.56708 0.50546 0.33739 0.0
O86 O 0.50331 0.4879 0.12746 0.0
O87 O 0.50597 0.56765 0.24054 0.0
C88 C 0.48474 0.56967 0.33494 0.0
O89 O 0.48038 0.54606 0.42266 0.0
O90 O 0.56557 0.5435 0.01354 0.0
Mg91 Mg 0.03628 0.52831 0.41249 0.0
C92 C 1.00427 0.4854 0.19453 0.0
O93 O 0.03172 0.47147 0.19319 0.0
C94 C 0.07737 0.57979 0.49523 0.0
O95 O 0.0665 0.56717 0.61255 0.0
C96 C 0.09155 0.48779 0.37661 0.0
O97 O 0.09784 0.51261 0.29873 0.0
O98 O 0.06648 0.48764 0.44996 0.0
O99 O 1.00157 0.51171 0.25756 0.0
O100 O 1.00461 0.54535 0.57799 0.0
C101 C 0.98722 0.56639 0.5224 0.0
O102 O 0.99161 0.57334 0.38798 0.0
O103 O 0.06795 0.56856 0.37724 0.0
C104 C 0.1369 0.07369 0.64263 0.0
C105 C 0.10667 0.07443 0.58364 0.0
C106 C 0.16072 0.09364 0.59285 0.0
C107 C 0.15404 0.11541 0.48326 0.0
C108 C 0.12346 0.11649 0.42409 0.0
C109 C 0.10023 0.09573 0.47383 0.0
C110 C 0.19314 0.09113 0.65644 0.0
C111 C 0.11522 0.13972 0.30873 0.0
C112 C 0.20835 0.18582 0.43195 0.0
C113 C 0.22517 0.1769 0.31099 0.0
C114 C 0.18524 0.16598 0.49002 0.0
C115 C 0.1793 0.13632 0.42722 0.0
C116 C 0.1972 0.12675 0.30873 0.0
C117 C 0.21965 0.14725 0.25141 0.0
C118 C 0.16638 0.17722 0.61528 0.0
C119 C 0.19223 0.09508 0.24048 0.0
H120 H 0.1421 0.05717 0.72709 0.0
H121 H 0.07686 0.09661 0.42873 0.0
H122 H 0.21036 0.08537 0.57238 0.0
H123 H 0.20024 0.11399 0.70264 0.0
H124 H 0.19454 0.07287 0.74056 0.0
H125 H 0.09007 0.13856 0.27838 0.0
H126 H 0.12065 0.16394 0.34447 0.0
H127 H 0.12961 0.13514 0.21317 0.0
H128 H 0.2123 0.20884 0.4775 0.0
H129 H 0.23268 0.14016 0.15823 0.0
H130 H 0.16807 0.1601 0.70378 0.0
H131 H 0.14128 0.17891 0.58516 0.0
H132 H 0.17433 0.20053 0.65391 0.0
H133 H 0.19423 0.07618 0.32121 0.0
H134 H 0.20937 0.09043 0.15453 0.0
H135 H 0.16826 0.09376 0.19505 0.0
C136 C 0.08728 0.93972 0.96837 0.0
C137 C 0.08823 0.94589 0.82206 0.0
C138 C 0.10682 0.91658 0.02993 0.0
C139 C 0.1277 0.89926 0.94307 0.0
C140 C 0.12895 0.9058 0.79592 0.0
C141 C 0.10933 0.92888 0.73776 0.0
C142 C 0.10481 0.91036 0.18723 0.0
C143 C 0.1508 0.88808 0.69869 0.0
C144 C 0.2002 0.85468 0.06456 0.0
C145 C 0.19047 0.8234 0.04741 0.0
C146 C 0.17928 0.87981 0.04223 0.0
C147 C 0.14784 0.87357 0.00221 0.0
C148 C 0.1373 0.84204 0.99664 0.0
C149 C 0.1587 0.8174 0.01905 0.0
C150 C 0.19155 0.913 0.05033 0.0
C151 C 0.10399 0.83419 0.95563 0.0
H152 H 0.07111 0.95272 0.03445 0.0
H153 H 0.11047 0.9334 0.62473 0.0
H154 H 0.09635 0.88606 0.20593 0.0
H155 H 0.12839 0.9122 0.23635 0.0
H156 H 0.08874 0.92694 0.24149 0.0
H157 H 0.14938 0.89642 0.58714 0.0
H158 H 0.17537 0.89062 0.73576 0.0
H159 H 0.14503 0.86267 0.70089 0.0
H160 H 0.22461 0.85968 0.08722 0.0
H161 H 0.15078 0.79336 0.00703 0.0
H162 H 0.17476 0.92836 0.10703 0.0
H163 H 0.19429 0.92253 0.94142 0.0
H164 H 0.21465 0.91419 0.10466 0.0
H165 H 0.0872 0.84922 0.01407 0.0
H166 H 0.09822 0.80917 0.97674 0.0
H167 H 0.10062 0.83884 0.84075 0.0
C168 C 0.46777 0.93795 0.79405 0.0
C169 C 0.47808 0.95366 0.91646 0.0
C170 C 0.44179 0.91777 0.79692 0.0
C171 C 0.42584 0.91251 0.92618 0.0
C172 C 0.43646 0.92771 0.05123 0.0
C173 C 0.46227 0.94841 0.04461 0.0
C174 C 0.43102 0.90262 0.66044 0.0
C175 C 0.42041 0.92227 0.19166 0.0
C176 C 0.34107 0.88493 0.89905 0.0
C177 C 0.34406 0.85231 0.91552 0.0
C178 C 0.36741 0.90477 0.90384 0.0
C179 C 0.39753 0.8918 0.9281 0.0
C180 C 0.40069 0.85889 0.94581 0.0
C181 C 0.37398 0.83952 0.93807 0.0
C182 C 0.36302 0.93961 0.88134 0.0
C183 C 0.4323 0.84413 0.97329 0.0
H184 H 0.47959 0.94197 0.69399 0.0
H185 H 0.4701 0.96038 0.13959 0.0
H186 H 0.43104 0.8767 0.67185 0.0
H187 H 0.40659 0.90986 0.63633 0.0
H188 H 0.44607 0.90905 0.56883 0.0
H189 H 0.43247 0.93449 0.28032 0.0
H190 H 0.39585 0.93072 0.186 0.0
H191 H 0.41956 0.89676 0.21572 0.0
H192 H 0.31806 0.89503 0.88174 0.0
H193 H 0.37648 0.8144 0.95279 0.0
H194 H 0.37656 0.9474 0.78722 0.0
H195 H 0.3722 0.95274 0.97399 0.0
H196 H 0.33803 0.94606 0.86531 0.0
H197 H 0.44797 0.84831 0.88144 0.0
H198 H 0.43062 0.81842 0.99193 0.0
H199 H 0.44347 0.85518 0.0671 0.0
C200 C 0.36143 0.16634 0.05537 0.0
C201 C 0.34498 0.18914 0.97757 0.0
C202 C 0.38351 0.14674 0.99092 0.0
C203 C 0.38963 0.14989 0.84405 0.0
C204 C 0.37263 0.17235 0.76341 0.0
C205 C 0.35038 0.19173 0.83121 0.0
C206 C 0.40069 0.12292 0.08134 0.0
C207 C 0.3785 0.17645 0.60674 0.0
C208 C 0.46989 0.1162 0.76689 0.0
C209 C 0.46234 0.08488 0.73559 0.0
C210 C 0.44626 0.13872 0.78846 0.0
C211 C 0.41434 0.12971 0.77888 0.0
C212 C 0.40673 0.09901 0.73286 0.0
C213 C 0.4308 0.077 0.7115 0.0
C214 C 0.4555 0.17132 0.83491 0.0
C215 C 0.37308 0.0884 0.71982 0.0
H216 H 0.35727 0.1639 0.16824 0.0
H217 H 0.33785 0.20936 0.77049 0.0
H218 H 0.39728 0.099 0.03765 0.0
H219 H 0.42622 0.12793 0.08004 0.0
H220 H 0.39263 0.12297 0.19331 0.0
H221 H 0.36125 0.19256 0.55643 0.0
H222 H 0.40236 0.18616 0.59028 0.0
H223 H 0.37755 0.15345 0.55191 0.0
H224 H 0.49416 0.12272 0.78404 0.0
H225 H 0.42463 0.053 0.68529 0.0
H226 H 0.45151 0.17367 0.95066 0.0
H227 H 0.44092 0.18928 0.78072 0.0
H228 H 0.4806 0.17632 0.81307 0.0
H229 H 0.36334 0.08429 0.82734 0.0
H230 H 0.37099 0.06625 0.65848 0.0
H231 H 0.35853 0.10671 0.66794 0.0
C232 C 0.91836 0.95905 0.46128 0.0
C233 C 0.95119 0.95693 0.46578 0.0
C234 C 0.89951 0.93198 0.45883 0.0
C235 C 0.91379 0.90196 0.459 0.0
C236 C 0.94685 0.89975 0.44821 0.0
C237 C 0.96519 0.92723 0.45273 0.0
C238 C 0.86441 0.9356 0.47061 0.0
C239 C 0.96305 0.86828 0.4443 0.0
C240 C 0.87248 0.8415 0.68739 0.0
C241 C 0.8555 0.82376 0.58807 0.0
C242 C 0.8918 0.86641 0.64574 0.0
C243 C 0.89488 0.87381 0.50004 0.0
C244 C 0.87877 0.85537 0.39796 0.0
C245 C 0.859 0.83066 0.44327 0.0
C246 C 0.90822 0.88542 0.75903 0.0
C247 C 0.88188 0.86215 0.24151 0.0
H248 H 0.9072 0.98183 0.46951 0.0
H249 H 0.99052 0.92527 0.45398 0.0
H250 H 0.85219 0.91942 0.397 0.0
H251 H 0.85696 0.92945 0.57993 0.0
H252 H 0.8567 0.96 0.44758 0.0
H253 H 0.98763 0.87036 0.40674 0.0
H254 H 0.96338 0.858 0.55253 0.0
H255 H 0.95024 0.85172 0.37434 0.0
H256 H 0.87016 0.83645 0.79959 0.0
H257 H 0.84607 0.81707 0.36572 0.0
H258 H 0.90041 0.91025 0.7535 0.0
H259 H 0.93391 0.88516 0.74127 0.0
H260 H 0.90353 0.87643 0.86765 0.0
H261 H 0.86977 0.88449 0.21568 0.0
H262 H 0.87153 0.84321 0.17545 0.0
H263 H 0.9069 0.86509 0.21232 0.0
C264 C 0.93634 0.09396 0.70683 0.0
C265 C 0.96019 0.0967 0.80883 0.0
C266 C 0.91263 0.11673 0.69436 0.0
C267 C 0.91207 0.14256 0.78885 0.0
C268 C 0.9352 0.14465 0.89664 0.0
C269 C 0.95927 0.122 0.90385 0.0
C270 C 0.88897 0.11383 0.57573 0.0
C271 C 0.93493 0.17118 0.0024 0.0
C272 C 0.87221 0.21653 0.64888 0.0
C273 C 0.84145 0.21292 0.69903 0.0
C274 C 0.89558 0.19429 0.6806 0.0
C275 C 0.88839 0.16818 0.7683 0.0
C276 C 0.85787 0.16548 0.82645 0.0
C277 C 0.83465 0.18757 0.78922 0.0
C278 C 0.9275 0.19781 0.61334 0.0
C279 C 0.84943 0.13867 0.92407 0.0
H280 H 0.93698 0.07469 0.63203 0.0
H281 H 0.97751 0.12423 0.98336 0.0
H282 H 0.86483 0.11393 0.61914 0.0
H283 H 0.89103 0.13431 0.50335 0.0
H284 H 0.89222 0.09204 0.5129 0.0
H285 H 0.95236 0.16764 0.08865 0.0
H286 H 0.94029 0.19364 0.94779 0.0
H287 H 0.9113 0.17355 0.05021 0.0
H288 H 0.87764 0.23584 0.57795 0.0
H289 H 0.81098 0.18467 0.82883 0.0
H290 H 0.93171 0.17794 0.53985 0.0
H291 H 0.9461 0.19701 0.69553 0.0
H292 H 0.92982 0.22012 0.55295 0.0
H293 H 0.8488 0.11642 0.86323 0.0
H294 H 0.82621 0.14211 0.97482 0.0
H295 H 0.86745 0.13596 0.00825 0.0
C296 C 0.68354 0.22103 0.37393 0.0
C297 C 0.71482 0.22112 0.32753 0.0
C298 C 0.66197 0.19852 0.32553 0.0
C299 C 0.67187 0.17507 0.22939 0.0
C300 C 0.70353 0.17471 0.18347 0.0
C301 C 0.72457 0.19787 0.23217 0.0
C302 C 0.62838 0.20024 0.37536 0.0
C303 C 0.71515 0.14991 0.08232 0.0
C304 C 0.61931 0.10281 0.18634 0.0
C305 C 0.60361 0.10975 0.05927 0.0
C306 C 0.64191 0.12361 0.24234 0.0
C307 C 0.64856 0.15221 0.1708 0.0
C308 C 0.63226 0.15951 0.04408 0.0
C309 C 0.61025 0.13817 0.98965 0.0
C310 C 0.65901 0.11479 0.37688 0.0
C311 C 0.63802 0.18994 0.96564 0.0
H312 H 0.67568 0.2389 0.44736 0.0
H313 H 0.74872 0.19758 0.19669 0.0
H314 H 0.6126 0.20399 0.2832 0.0
H315 H 0.62145 0.17774 0.4258 0.0
H316 H 0.62457 0.21952 0.45257 0.0
H317 H 0.74077 0.15174 0.06298 0.0
H318 H 0.7099 0.12618 0.12504 0.0
H319 H 0.70274 0.1521 0.9793 0.0
H320 H 0.61455 0.08078 0.23997 0.0
H321 H 0.59815 0.14383 0.89168 0.0
H322 H 0.65477 0.13273 0.45971 0.0
H323 H 0.68464 0.11425 0.35708 0.0
H324 H 0.6516 0.09152 0.41848 0.0
H325 H 0.63324 0.21015 0.03646 0.0
H326 H 0.62314 0.19226 0.86938 0.0
H327 H 0.66296 0.1915 0.93331 0.0
C328 C 0.61898 0.95044 0.76156 0.0
C329 C 0.62509 0.9732 0.86509 0.0
C330 C 0.63991 0.92538 0.73945 0.0
C331 C 0.66785 0.92344 0.82086 0.0
C332 C 0.67457 0.94701 0.92197 0.0
C333 C 0.65299 0.97138 0.94374 0.0
C334 C 0.63173 0.90052 0.63169 0.0
C335 C 0.70441 0.9463 0.00841 0.0
C336 C 0.70888 0.84425 0.8593 0.0
C337 C 0.73133 0.84603 0.75139 0.0
C338 C 0.688 0.86929 0.88331 0.0
C339 C 0.6902 0.89693 0.79952 0.0
C340 C 0.71371 0.89921 0.69438 0.0
C341 C 0.73371 0.87363 0.67061 0.0
C342 C 0.66299 0.8658 0.99524 0.0
C343 C 0.71748 0.92852 0.60543 0.0
H344 H 0.59729 0.95153 0.70173 0.0
H345 H 0.65788 0.98898 0.0237 0.0
H346 H 0.65035 0.89908 0.55003 0.0
H347 H 0.63041 0.87723 0.68436 0.0
H348 H 0.60901 0.90526 0.578 0.0
H349 H 0.70677 0.96715 0.07821 0.0
H350 H 0.70496 0.92488 0.07552 0.0
H351 H 0.72505 0.94531 0.93714 0.0
H352 H 0.70678 0.82282 0.92087 0.0
H353 H 0.75119 0.87517 0.58755 0.0
H354 H 0.63947 0.86782 0.94555 0.0
H355 H 0.66503 0.88495 0.07422 0.0
H356 H 0.66447 0.84291 0.05165 0.0
H357 H 0.69618 0.93228 0.53999 0.0
H358 H 0.73808 0.9272 0.53377 0.0
H359 H 0.72018 0.94935 0.67487 0.0
C360 C 0.61449 0.57666 0.87292 0.0
C361 C 0.58268 0.58424 0.85552 0.0
C362 C 0.6382 0.59707 0.82521 0.0
C363 C 0.62997 0.62571 0.75792 0.0
C364 C 0.59802 0.63197 0.72807 0.0
C365 C 0.57478 0.61124 0.77747 0.0
C366 C 0.67193 0.58923 0.85847 0.0
C367 C 0.58814 0.66192 0.6547 0.0
C368 C 0.68112 0.69556 0.85131 0.0
C369 C 0.70032 0.69888 0.73135 0.0
C370 C 0.65818 0.67211 0.85969 0.0
C371 C 0.65378 0.65133 0.74444 0.0
C372 C 0.6724 0.65495 0.62086 0.0
C373 C 0.69562 0.67862 0.61597 0.0
C374 C 0.63903 0.66924 0.99392 0.0
C375 C 0.66819 0.63349 0.49522 0.0
H376 H 0.62095 0.55571 0.93153 0.0
H377 H 0.55032 0.61714 0.76139 0.0
H378 H 0.6872 0.59438 0.76625 0.0
H379 H 0.68009 0.60401 0.94802 0.0
H380 H 0.6749 0.56417 0.88872 0.0
H381 H 0.56354 0.66067 0.61609 0.0
H382 H 0.59002 0.68178 0.73021 0.0
H383 H 0.60373 0.66717 0.56366 0.0
H384 H 0.68434 0.71106 0.94117 0.0
H385 H 0.7103 0.68096 0.52291 0.0
H386 H 0.6428 0.64582 0.04283 0.0
H387 H 0.6137 0.6713 0.96886 0.0
H388 H 0.64516 0.68747 0.07336 0.0
H389 H 0.6754 0.60931 0.52462 0.0
H390 H 0.68227 0.64119 0.40241 0.0
H391 H 0.64314 0.63246 0.4637 0.0
C392 C 0.6972 0.3594 0.67647 0.0
C393 C 0.72325 0.35734 0.58611 0.0
C394 C 0.67351 0.3819 0.65296 0.0
C395 C 0.67592 0.40289 0.53651 0.0
C396 C 0.70324 0.40233 0.45137 0.0
C397 C 0.72646 0.37962 0.477 0.0
C398 C 0.64494 0.38176 0.74701 0.0
C399 C 0.70703 0.42433 0.32671 0.0
C400 C 0.6032 0.42751 0.33259 0.0
C401 C 0.59967 0.45914 0.37096 0.0
C402 C 0.62705 0.4088 0.39046 0.0
C403 C 0.64826 0.42191 0.48961 0.0
C404 C 0.64411 0.45348 0.53384 0.0
C405 C 0.61977 0.47175 0.47417 0.0
C406 C 0.63026 0.37525 0.34062 0.0
C407 C 0.66614 0.46833 0.63952 0.0
H408 H 0.6945 0.34246 0.76155 0.0
H409 H 0.74665 0.37858 0.4075 0.0
H410 H 0.63818 0.40605 0.77612 0.0
H411 H 0.62492 0.37125 0.68862 0.0
H412 H 0.64881 0.36796 0.84562 0.0
H413 H 0.73112 0.42367 0.28232 0.0
H414 H 0.6903 0.41763 0.24172 0.0
H415 H 0.70156 0.4488 0.35812 0.0
H416 H 0.58758 0.41736 0.25427 0.0
H417 H 0.61723 0.49616 0.50443 0.0
H418 H 0.6311 0.35903 0.43277 0.0
H419 H 0.65256 0.37248 0.28154 0.0
H420 H 0.61065 0.36801 0.27025 0.0
H421 H 0.66935 0.45278 0.73296 0.0
H422 H 0.65758 0.49157 0.67619 0.0
H423 H 0.68949 0.47157 0.59003 0.0
C424 C 0.88059 0.35155 0.2725 0.0
C425 C 0.85261 0.35344 0.19447 0.0
C426 C 0.90466 0.37375 0.25411 0.0
C427 C 0.90117 0.39804 0.1522 0.0
C428 C 0.87373 0.399 0.06732 0.0
C429 C 0.84958 0.37701 0.091 0.0
C430 C 0.93319 0.37207 0.34893 0.0
C431 C 0.86947 0.42381 0.95436 0.0
C432 C 0.94769 0.47223 0.23308 0.0
C433 C 0.97579 0.46672 0.16006 0.0
C434 C 0.9227 0.45071 0.22673 0.0
C435 C 0.92544 0.42338 0.14209 0.0
C436 C 0.95277 0.41901 0.05924 0.0
C437 C 0.97779 0.44045 0.0709 0.0
C438 C 0.89429 0.45614 0.31878 0.0
C439 C 0.95627 0.39085 0.96376 0.0
H440 H 0.88309 0.33363 0.35353 0.0
H441 H 0.82809 0.37856 0.02984 0.0
H442 H 0.95482 0.37097 0.28407 0.0
H443 H 0.93466 0.39362 0.41458 0.0
H444 H 0.93269 0.35135 0.42071 0.0
H445 H 0.84875 0.41908 0.88611 0.0
H446 H 0.86638 0.4471 0.00481 0.0
H447 H 0.89064 0.42523 0.88641 0.0
H448 H 0.94596 0.49229 0.30319 0.0
H449 H 0.99936 0.43608 0.01366 0.0
H450 H 0.89321 0.43774 0.40224 0.0
H451 H 0.87251 0.4543 0.25503 0.0
H452 H 0.89478 0.47949 0.37101 0.0
H453 H 0.95992 0.36947 0.02917 0.0
H454 H 0.97647 0.39336 0.89038 0.0
H455 H 0.93464 0.3872 0.90034 0.0
C456 C 0.87045 0.69073 0.85419 0.0
C457 C 0.83982 0.67871 0.85838 0.0
C458 C 0.89629 0.67079 0.83273 0.0
C459 C 0.89137 0.63813 0.81467 0.0
C460 C 0.86097 0.62558 0.83514 0.0
C461 C 0.83559 0.646 0.85698 0.0
C462 C 0.92838 0.68515 0.81465 0.0
C463 C 0.8546 0.59091 0.81866 0.0
C464 C 0.94001 0.60049 0.5255 0.0
C465 C 0.96236 0.58319 0.60203 0.0
C466 C 0.91688 0.61805 0.59409 0.0
C467 C 0.9159 0.61865 0.74413 0.0
C468 C 0.93808 0.60089 0.82296 0.0
C469 C 0.96107 0.58323 0.75078 0.0
C470 C 0.89354 0.63619 0.50499 0.0
C471 C 0.93792 0.60106 0.98296 0.0
H472 H 0.87412 0.71591 0.85714 0.0
H473 H 0.8121 0.63634 0.86268 0.0
H474 H 0.94653 0.67053 0.86717 0.0
H475 H 0.93414 0.68633 0.70003 0.0
H476 H 0.9295 0.70931 0.85856 0.0
H477 H 0.83157 0.58415 0.86428 0.0
H478 H 0.85447 0.58489 0.7042 0.0
H479 H 0.87322 0.57673 0.8703 0.0
H480 H 0.94056 0.60042 0.41057 0.0
H481 H 0.97833 0.57002 0.81061 0.0
H482 H 0.89541 0.66164 0.52845 0.0
H483 H 0.86932 0.62873 0.53134 0.0
H484 H 0.89724 0.63279 0.38944 0.0
H485 H 0.94451 0.62475 0.02158 0.0
H486 H 0.95456 0.58367 0.02844 0.0
H487 H 0.91407 0.59596 0.02368 0.0
C488 C 0.42082 0.46433 0.12032 0.0
C489 C 0.4536 0.46166 0.12244 0.0
C490 C 0.40151 0.43762 0.12651 0.0
C491 C 0.41525 0.4074 0.1354 0.0
C492 C 0.44832 0.4045 0.13784 0.0
C493 C 0.46709 0.43163 0.13098 0.0
C494 C 0.36636 0.44174 0.12237 0.0
C495 C 0.46388 0.37273 0.14693 0.0
C496 C 0.36221 0.34009 0.25512 0.0
C497 C 0.35285 0.32743 0.12456 0.0
C498 C 0.38313 0.36571 0.26094 0.0
C499 C 0.39493 0.37885 0.13328 0.0
C500 C 0.38626 0.36549 0.00178 0.0
C501 C 0.36541 0.34005 -0.00087 0.0
C502 C 0.39196 0.37923 0.4033 0.0
C503 C 0.39828 0.37862 0.86311 0.0
H504 H 0.41013 0.48738 0.11428 0.0
H505 H 0.49238 0.42928 0.13376 0.0
H506 H 0.35662 0.43001 0.02705 0.0
H507 H 0.35556 0.43044 0.21648 0.0
H508 H 0.35934 0.46686 0.11993 0.0
H509 H 0.48982 0.37451 0.15337 0.0
H510 H 0.45528 0.3598 0.24145 0.0
H511 H 0.45763 0.35855 0.05245 0.0
H512 H 0.35263 0.33051 0.35241 0.0
H513 H 0.35855 0.33035 0.89755 0.0
H514 H 0.38332 0.40374 0.41107 0.0
H515 H 0.41784 0.38001 0.4147 0.0
H516 H 0.38206 0.36543 0.49273 0.0
H517 H 0.38969 0.40301 0.84872 0.0
H518 H 0.39063 0.36447 0.77048 0.0
H519 H 0.42427 0.37957 0.8641 0.0
C520 C 0.34064 0.68455 0.18327 0.0
C521 C 0.34614 0.71573 0.22446 0.0
C522 C 0.36247 0.66065 0.21387 0.0
C523 C 0.39037 0.66796 0.28885 0.0
C524 C 0.3952 0.69904 0.33739 0.0
C525 C 0.37316 0.72252 0.30408 0.0
C526 C 0.35638 0.62789 0.15961 0.0
C527 C 0.42434 0.70784 0.41922 0.0
C528 C 0.43909 0.59983 0.43564 0.0
C529 C 0.4621 0.59634 0.33051 0.0
C530 C 0.41598 0.62339 0.42536 0.0
C531 C 0.41557 0.64375 0.30623 0.0
C532 C 0.43908 0.64069 0.2012 0.0
C533 C 0.46208 0.61724 0.21504 0.0
C534 C 0.39167 0.62614 0.54077 0.0
C535 C 0.43952 0.66172 0.07198 0.0
H536 H 0.31993 0.679 0.12145 0.0
H537 H 0.3776 0.74647 0.3372 0.0
H538 H 0.37394 0.62194 0.07726 0.0
H539 H 0.35899 0.61051 0.24665 0.0
H540 H 0.33259 0.62543 0.11283 0.0
H541 H 0.42313 0.7321 0.46187 0.0
H542 H 0.4281 0.69129 0.50867 0.0
H543 H 0.44509 0.70614 0.34887 0.0
H544 H 0.43887 0.58388 0.52538 0.0
H545 H 0.4796 0.61477 0.13273 0.0
H546 H 0.36808 0.62115 0.49656 0.0
H547 H 0.3912 0.65046 0.58264 0.0
H548 H 0.39616 0.60969 0.63014 0.0
H549 H 0.4175 0.65866 0.01071 0.0
H550 H 0.45965 0.65667 0.00103 0.0
H551 H 0.44075 0.68669 0.10468 0.0
C552 C 0.207 0.71509 0.63261 0.0
C553 C 0.2321 0.6997 0.69986 0.0
C554 C 0.18199 0.69801 0.57244 0.0
C555 C 0.18194 0.66475 0.58035 0.0
C556 C 0.20827 0.64914 0.63916 0.0
C557 C 0.23296 0.66674 0.6977 0.0
C558 C 0.15469 0.71564 0.50892 0.0
C559 C 0.20939 0.61377 0.64971 0.0
C560 C 0.106 0.62001 0.63648 0.0
C561 C 0.10168 0.60478 0.50604 0.0
C562 C 0.13114 0.64064 0.65908 0.0
C563 C 0.1528 0.64641 0.54846 0.0
C564 C 0.14772 0.63246 0.41373 0.0
C565 C 0.12218 0.61176 0.394 0.0
C566 C 0.13531 0.65506 0.80424 0.0
C567 C 0.17003 0.63819 0.2925 0.0
H568 H 0.20612 0.74053 0.63267 0.0
H569 H 0.25232 0.65452 0.74788 0.0
H570 H 0.14698 0.70455 0.40838 0.0
H571 H 0.13459 0.71485 0.58338 0.0
H572 H 0.16056 0.74064 0.48785 0.0
H573 H 0.23284 0.60511 0.68306 0.0
H574 H 0.19184 0.60562 0.72841 0.0
H575 H 0.20327 0.60297 0.54638 0.0
H576 H 0.0901 0.61514 0.72333 0.0
H577 H 0.11905 0.60011 0.2929 0.0
H578 H 0.13791 0.6809 0.7952 0.0
H579 H 0.15702 0.64583 0.85416 0.0
H580 H 0.11529 0.64991 0.8758 0.0
H581 H 0.17588 0.66351 0.28375 0.0
H582 H 0.16021 0.63008 0.18969 0.0
H583 H 0.19223 0.62536 0.31266 0.0
C584 C 0.19385 0.33836 0.14205 0.0
C585 C 0.21291 0.32819 0.2544 0.0
C586 C 0.17232 0.36312 0.16083 0.0
C587 C 0.1701 0.37818 0.29456 0.0
C588 C 0.18904 0.36771 0.40837 0.0
C589 C 0.21001 0.34286 0.38709 0.0
C590 C 0.15227 0.37345 0.03725 0.0
C591 C 0.18781 0.38331 0.5521 0.0
C592 C 0.14233 0.46284 0.311 0.0
C593 C 0.11178 0.45963 0.36402 0.0
C594 C 0.16136 0.43654 0.28692 0.0
C595 C 0.14946 0.4061 0.31449 0.0
C596 C 0.11861 0.40264 0.36813 0.0
C597 C 0.1002 0.42949 0.39343 0.0
C598 C 0.19432 0.44138 0.23283 0.0
C599 C 0.105 0.37058 0.39773 0.0
H600 H 0.19583 0.32709 0.03952 0.0
H601 H 0.22459 0.33529 0.47495 0.0
H602 H 0.12717 0.37321 0.06788 0.0
H603 H 0.15825 0.39794 0.00735 0.0
H604 H 0.15544 0.35823 0.94287 0.0
H605 H 0.20344 0.37173 0.63078 0.0
H606 H 0.19489 0.40829 0.54217 0.0
H607 H 0.16352 0.38293 0.5938 0.0
H608 H 0.15145 0.48607 0.28816 0.0
H609 H 0.07648 0.42683 0.43262 0.0
H610 H 0.19756 0.42871 0.13131 0.0
H611 H 0.21142 0.43152 0.30977 0.0
H612 H 0.19993 0.46658 0.2156 0.0
H613 H 0.10609 0.35594 0.30065 0.0
H614 H 0.08027 0.37179 0.43392 0.0
H615 H 0.11907 0.35849 0.48045 0.0
loop_
_geom_bond_atom_site_label_1
_geom_bond_atom_site_label_2
_geom_bond_distance
_geom_bond_site_symmetry_2
_ccdc_geom_bond_type
Mg0 O7 2.141 1_455 S
Mg0 O8 2.048 . S
Mg0 O9 2.048 1_545 S
Mg0 O12 2.141 1_445 S
C1 O2 1.313 . S
C1 O8 1.195 . S
O2 C1 1.313 . S
C3 O4 1.245 . S
C3 O12 1.289 . S
O4 C3 1.245 . S
C5 O6 1.245 . S
C5 O7 1.289 . S
O6 C5 1.245 . S
O7 Mg0 2.141 1_655 S
O7 C5 1.289 . S
O8 Mg0 2.048 . S
O8 C1 1.195 . S
O9 Mg0 2.048 1_565 S
O9 C10 1.195 . S
C10 O9 1.195 . S
C10 O11 1.313 . S
O11 C10 1.313 . S
O12 Mg0 2.141 1_665 S
O12 C3 1.289 . S
Mg13 O20 2.141 . S
Mg13 O21 2.048 . S
Mg13 O22 2.048 . S
Mg13 O25 2.141 . S
C14 O15 1.313 . S
C14 O21 1.195 . S
O15 C14 1.313 . S
C16 O17 1.245 1_556 S
C16 O25 1.289 . S
O17 C16 1.245 1_554 S
C18 O19 1.245 . S
C18 O20 1.289 . S
O19 C18 1.245 . S
O20 Mg13 2.141 . S
O20 C18 1.289 . S
O21 Mg13 2.048 . S
O21 C14 1.195 . S
O22 Mg13 2.048 . S
O22 C23 1.195 . S
C23 O22 1.195 . S
C23 O24 1.313 . S
O24 C23 1.313 . S
O25 Mg13 2.141 . S
O25 C16 1.289 . S
Mg26 O33 2.141 . S
Mg26 O34 2.048 . S
Mg26 O35 2.048 1_565 S
Mg26 O38 2.141 1_565 S
C27 O28 1.313 1_554 S
C27 O34 1.195 . S
O28 C27 1.313 1_556 S
C29 O30 1.245 . S
C29 O38 1.289 . S
O30 C29 1.245 . S
C31 O32 1.245 1_554 S
C31 O33 1.289 . S
O32 C31 1.245 1_556 S
O33 Mg26 2.141 . S
O33 C31 1.289 . S
O34 Mg26 2.048 . S
O34 C27 1.195 . S
O35 Mg26 2.048 1_545 S
O35 C36 1.195 . S
C36 O35 1.195 . S
C36 O37 1.313 . S
O37 C36 1.313 . S
O38 Mg26 2.141 1_545 S
O38 C29 1.289 . S
Mg39 O46 2.141 . S
Mg39 O47 2.048 . S
Mg39 O48 2.048 . S
Mg39 O51 2.141 . S
C40 O41 1.313 . S
C40 O47 1.195 . S
O41 C40 1.313 . S
C42 O43 1.245 . S
C42 O51 1.289 . S
O43 C42 1.245 . S
C44 O45 1.245 . S
C44 O46 1.289 . S
O45 C44 1.245 . S
O46 Mg39 2.141 . S
O46 C44 1.289 . S
O47 Mg39 2.048 . S
O47 C40 1.195 . S
O48 Mg39 2.048 . S
O48 C49 1.195 . S
C49 O48 1.195 . S
C49 O50 1.313 . S
O50 C49 1.313 . S
O51 Mg39 2.141 . S
O51 C42 1.289 . S
Mg52 O59 2.141 . S
Mg52 O60 2.048 . S
Mg52 O61 2.048 . S
Mg52 O64 2.141 . S
C53 O54 1.313 . S
C53 O60 1.195 . S
O54 C53 1.313 . S
C55 O56 1.245 . S
C55 O64 1.289 . S
O56 C55 1.245 . S
C57 O58 1.245 . S
C57 O59 1.289 . S
O58 C57 1.245 . S
O59 Mg52 2.141 . S
O59 C57 1.289 . S
O60 Mg52 2.048 . S
O60 C53 1.195 . S
O61 Mg52 2.048 . S
O61 C62 1.195 . S
C62 O61 1.195 . S
C62 O63 1.313 . S
O63 C62 1.313 . S
O64 Mg52 2.141 . S
O64 C55 1.289 . S
Mg65 O72 2.141 . S
Mg65 O73 2.048 . S
Mg65 O74 2.048 . S
Mg65 O77 2.141 . S
C66 O67 1.313 . S
C66 O73 1.195 . S
O67 C66 1.313 . S
C68 O69 1.245 . S
C68 O77 1.289 . S
O69 C68 1.245 . S
C70 O71 1.245 . S
C70 O72 1.289 . S
O71 C70 1.245 . S
O72 Mg65 2.141 . S
O72 C70 1.289 . S
O73 Mg65 2.048 . S
O73 C66 1.195 . S
O74 Mg65 2.048 . S
O74 C75 1.195 . S
C75 O74 1.195 . S
C75 O76 1.313 . S
O76 C75 1.313 . S
O77 Mg65 2.141 . S
O77 C68 1.289 . S
Mg78 O85 2.141 . S
Mg78 O86 2.048 . S
Mg78 O87 2.048 . S
Mg78 O90 2.141 . S
C79 O80 1.313 1_554 S
C79 O86 1.195 . S
O80 C79 1.313 1_556 S
C81 O82 1.245 . S
C81 O90 1.289 1_556 S
O82 C81 1.245 . S
C83 O84 1.245 1_554 S
C83 O85 1.289 . S
O84 C83 1.245 1_556 S
O85 Mg78 2.141 . S
O85 C83 1.289 . S
O86 Mg78 2.048 . S
O86 C79 1.195 . S
O87 Mg78 2.048 . S
O87 C88 1.195 1_554 S
C88 O87 1.195 1_556 S
C88 O89 1.313 . S
O89 C88 1.313 . S
O90 Mg78 2.141 . S
O90 C81 1.289 1_554 S
Mg91 O98 2.141 . S
Mg91 O99 2.048 1_455 S
Mg91 O100 2.048 1_455 S
Mg91 O103 2.141 . S
C92 O93 1.313 . S
C92 O99 1.195 . S
O93 C92 1.313 . S
C94 O95 1.245 . S
C94 O103 1.289 . S
O95 C94 1.245 . S
C96 O97 1.245 . S
C96 O98 1.289 . S
O97 C96 1.245 . S
O98 Mg91 2.141 . S
O98 C96 1.289 . S
O99 Mg91 2.048 1_655 S
O99 C92 1.195 . S
O100 Mg91 2.048 1_655 S
O100 C101 1.195 . S
C101 O100 1.195 . S
C101 O102 1.313 . S
O102 C101 1.313 . S
O103 Mg91 2.141 . S
O103 C94 1.289 . S
C104 C105 1.391 . S
C104 C106 1.394 . S
C104 H120 0.931 . S
C105 C104 1.391 . S
C105 C109 1.376 . S
C106 C104 1.394 . S
C106 C107 1.369 . S
C106 C110 1.531 . S
C107 C106 1.369 . S
C107 C108 1.410 . S
C107 C115 1.503 . S
C108 C107 1.410 . S
C108 C109 1.392 . S
C108 C111 1.511 . S
C109 C105 1.376 . S
C109 C108 1.392 . S
C109 H121 0.929 . S
C110 C106 1.531 . S
C110 H122 0.960 . S
C110 H123 0.962 . S
C110 H124 0.960 . S
C111 C108 1.511 . S
C111 H125 0.961 . S
C111 H126 0.961 . S
C111 H127 0.961 . S
C112 C113 1.370 . S
C112 C114 1.363 . S
C112 H128 0.931 . S
C113 C112 1.370 . S
C113 C117 1.408 . S
C114 C112 1.363 . S
C114 C115 1.370 . S
C114 C118 1.524 . S
C115 C107 1.503 . S
C115 C114 1.370 . S
C115 C116 1.403 . S
C116 C115 1.403 . S
C116 C117 1.404 . S
C116 C119 1.539 . S
C117 C113 1.408 . S
C117 C116 1.404 . S
C117 H129 0.930 . S
C118 C114 1.524 . S
C118 H130 0.956 . S
C118 H131 0.961 . S
C118 H132 0.961 . S
C119 C116 1.539 . S
C119 H133 0.958 . S
C119 H134 0.961 . S
C119 H135 0.960 . S
H120 C104 0.931 . S
H121 C109 0.929 . S
H122 C110 0.960 . S
H123 C110 0.962 . S
H124 C110 0.960 . S
H125 C111 0.961 . S
H126 C111 0.961 . S
H127 C111 0.961 . S
H128 C112 0.931 . S
H129 C117 0.930 . S
H130 C118 0.956 . S
H131 C118 0.961 . S
H132 C118 0.961 . S
H133 C119 0.958 . S
H134 C119 0.961 . S
H135 C119 0.960 . S
C136 C137 1.391 . S
C136 C138 1.394 . S
C136 H152 0.931 . S
C137 C136 1.391 . S
C137 C141 1.376 . S
C138 C136 1.394 . S
C138 C139 1.369 . S
C138 C142 1.531 . S
C139 C138 1.369 . S
C139 C140 1.410 . S
C139 C147 1.503 . S
C140 C139 1.410 . S
C140 C141 1.392 . S
C140 C143 1.511 . S
C141 C137 1.376 . S
C141 C140 1.392 . S
C141 H153 0.929 . S
C142 C138 1.531 . S
C142 H154 0.960 . S
C142 H155 0.962 1_556 S
C142 H156 0.960 1_556 S
C143 C140 1.511 . S
C143 H157 0.961 . S
C143 H158 0.961 . S
C143 H159 0.961 . S
C144 C145 1.370 . S
C144 C146 1.363 . S
C144 H160 0.931 . S
C145 C144 1.370 . S
C145 C149 1.408 . S
C146 C144 1.363 . S
C146 C147 1.370 . S
C146 C150 1.524 . S
C147 C139 1.503 . S
C147 C146 1.370 . S
C147 C148 1.403 . S
C148 C147 1.403 . S
C148 C149 1.404 . S
C148 C151 1.539 . S
C149 C145 1.408 . S
C149 C148 1.404 . S
C149 H161 0.930 . S
C150 C146 1.524 . S
C150 H162 0.956 . S
C150 H163 0.961 . S
C150 H164 0.961 . S
C151 C148 1.539 . S
C151 H165 0.958 . S
C151 H166 0.961 . S
C151 H167 0.960 . S
H152 C136 0.931 . S
H153 C141 0.929 . S
H154 C142 0.960 . S
H155 C142 0.962 1_554 S
H156 C142 0.960 1_554 S
H157 C143 0.961 . S
H158 C143 0.961 . S
H159 C143 0.961 . S
H160 C144 0.931 . S
H161 C149 0.930 . S
H162 C150 0.956 . S
H163 C150 0.961 . S
H164 C150 0.961 . S
H165 C151 0.958 . S
H166 C151 0.961 . S
H167 C151 0.960 . S
C168 C169 1.391 1_556 S
C168 C170 1.394 . S
C168 H184 0.931 . S
C169 C168 1.391 1_554 S
C169 C173 1.376 . S
C170 C168 1.394 . S
C170 C171 1.369 . S
C170 C174 1.531 . S
C171 C170 1.369 . S
C171 C172 1.410 1_556 S
C171 C179 1.503 . S
C172 C171 1.410 1_554 S
C172 C173 1.392 . S
C172 C175 1.511 . S
C173 C169 1.376 . S
C173 C172 1.392 . S
C173 H185 0.929 . S
C174 C170 1.531 . S
C174 H186 0.960 . S
C174 H187 0.962 . S
C174 H188 0.960 . S
C175 C172 1.511 . S
C175 H189 0.961 . S
C175 H190 0.961 . S
C175 H191 0.961 1_554 S
C176 C177 1.370 1_554 S
C176 C178 1.363 . S
C176 H192 0.931 . S
C177 C176 1.370 1_556 S
C177 C181 1.408 . S
C178 C176 1.363 . S
C178 C179 1.370 1_554 S
C178 C182 1.524 . S
C179 C171 1.503 . S
C179 C178 1.370 1_556 S
C179 C180 1.403 . S
C180 C179 1.403 . S
C180 C181 1.404 . S
C180 C183 1.539 . S
C181 C177 1.408 . S
C181 C180 1.404 . S
C181 H193 0.930 . S
C182 C178 1.524 . S
C182 H194 0.956 . S
C182 H195 0.961 . S
C182 H196 0.961 . S
C183 C180 1.539 . S
C183 H197 0.958 . S
C183 H198 0.961 . S
C183 H199 0.960 . S
H184 C168 0.931 . S
H185 C173 0.929 . S
H186 C174 0.960 . S
H187 C174 0.962 . S
H188 C174 0.960 . S
H189 C175 0.961 . S
H190 C175 0.961 . S
H191 C175 0.961 1_556 S
H192 C176 0.931 . S
H193 C181 0.930 . S
H194 C182 0.956 . S
H195 C182 0.961 . S
H196 C182 0.961 . S
H197 C183 0.958 . S
H198 C183 0.961 . S
H199 C183 0.960 . S
C200 C201 1.391 . S
C200 C202 1.394 . S
C200 H216 0.931 . S
C201 C200 1.391 . S
C201 C205 1.376 . S
C202 C200 1.394 . S
C202 C203 1.369 . S
C202 C206 1.531 . S
C203 C202 1.369 . S
C203 C204 1.410 . S
C203 C211 1.503 . S
C204 C203 1.410 . S
C204 C205 1.392 . S
C204 C207 1.511 . S
C205 C201 1.376 . S
C205 C204 1.392 . S
C205 H217 0.929 . S
C206 C202 1.531 . S
C206 H218 0.960 . S
C206 H219 0.962 . S
C206 H220 0.960 . S
C207 C204 1.511 . S
C207 H221 0.961 . S
C207 H222 0.961 . S
C207 H223 0.961 . S
C208 C209 1.370 . S
C208 C210 1.363 . S
C208 H224 0.931 . S
C209 C208 1.370 . S
C209 C213 1.408 . S
C210 C208 1.363 . S
C210 C211 1.370 . S
C210 C214 1.524 . S
C211 C203 1.503 . S
C211 C210 1.370 . S
C211 C212 1.403 . S
C212 C211 1.403 . S
C212 C213 1.404 . S
C212 C215 1.539 1_554 S
C213 C209 1.408 . S
C213 C212 1.404 . S
C213 H225 0.930 1_554 S
C214 C210 1.524 . S
C214 H226 0.956 . S
C214 H227 0.961 . S
C214 H228 0.961 . S
C215 C212 1.539 1_556 S
C215 H229 0.958 . S
C215 H230 0.961 . S
C215 H231 0.960 . S
H216 C200 0.931 . S
H217 C205 0.929 . S
H218 C206 0.960 . S
H219 C206 0.962 . S
H220 C206 0.960 . S
H221 C207 0.961 . S
H222 C207 0.961 . S
H223 C207 0.961 . S
H224 C208 0.931 . S
H225 C213 0.930 1_556 S
H226 C214 0.956 . S
H227 C214 0.961 . S
H228 C214 0.961 . S
H229 C215 0.958 . S
H230 C215 0.961 . S
H231 C215 0.960 . S
C232 C233 1.391 . S
C232 C234 1.394 . S
C232 H248 0.931 . S
C233 C232 1.391 . S
C233 C237 1.376 . S
C234 C232 1.394 . S
C234 C235 1.369 . S
C234 C238 1.531 . S
C235 C234 1.369 . S
C235 C236 1.410 . S
C235 C243 1.503 . S
C236 C235 1.410 . S
C236 C237 1.392 . S
C236 C239 1.511 . S
C237 C233 1.376 . S
C237 C236 1.392 . S
C237 H249 0.929 . S
C238 C234 1.531 . S
C238 H250 0.960 . S
C238 H251 0.962 . S
C238 H252 0.960 . S
C239 C236 1.511 . S
C239 H253 0.961 . S
C239 H254 0.961 . S
C239 H255 0.961 . S
C240 C241 1.370 . S
C240 C242 1.363 . S
C240 H256 0.931 . S
C241 C240 1.370 . S
C241 C245 1.408 . S
C242 C240 1.363 . S
C242 C243 1.370 . S
C242 C246 1.524 . S
C243 C235 1.503 . S
C243 C242 1.370 . S
C243 C244 1.403 . S
C244 C243 1.403 . S
C244 C245 1.404 . S
C244 C247 1.539 . S
C245 C241 1.408 . S
C245 C244 1.404 . S
C245 H257 0.930 . S
C246 C242 1.524 . S
C246 H258 0.956 . S
C246 H259 0.961 . S
C246 H260 0.961 1_556 S
C247 C244 1.539 . S
C247 H261 0.958 . S
C247 H262 0.961 . S
C247 H263 0.960 . S
H248 C232 0.931 . S
H249 C237 0.929 . S
H250 C238 0.960 . S
H251 C238 0.962 . S
H252 C238 0.960 . S
H253 C239 0.961 . S
H254 C239 0.961 . S
H255 C239 0.961 . S
H256 C240 0.931 . S
H257 C245 0.930 . S
H258 C246 0.956 . S
H259 C246 0.961 . S
H260 C246 0.961 1_554 S
H261 C247 0.958 . S
H262 C247 0.961 . S
H263 C247 0.960 . S
C264 C265 1.391 . S
C264 C266 1.394 . S
C264 H280 0.931 . S
C265 C264 1.391 . S
C265 C269 1.376 . S
C266 C264 1.394 . S
C266 C267 1.369 . S
C266 C270 1.531 . S
C267 C266 1.369 . S
C267 C268 1.410 . S
C267 C275 1.503 . S
C268 C267 1.410 . S
C268 C269 1.392 . S
C268 C271 1.511 . S
C269 C265 1.376 . S
C269 C268 1.392 . S
C269 H281 0.929 . S
C270 C266 1.531 . S
C270 H282 0.960 . S
C270 H283 0.962 . S
C270 H284 0.960 . S
C271 C268 1.511 . S
C271 H285 0.961 . S
C271 H286 0.961 . S
C271 H287 0.961 . S
C272 C273 1.370 . S
C272 C274 1.363 . S
C272 H288 0.931 . S
C273 C272 1.370 . S
C273 C277 1.408 . S
C274 C272 1.363 . S
C274 C275 1.370 . S
C274 C278 1.524 . S
C275 C267 1.503 . S
C275 C274 1.370 . S
C275 C276 1.403 . S
C276 C275 1.403 . S
C276 C277 1.404 . S
C276 C279 1.539 . S
C277 C273 1.408 . S
C277 C276 1.404 . S
C277 H289 0.930 . S
C278 C274 1.524 . S
C278 H290 0.956 . S
C278 H291 0.961 . S
C278 H292 0.961 . S
C279 C276 1.539 . S
C279 H293 0.958 . S
C279 H294 0.961 . S
C279 H295 0.960 . S
H280 C264 0.931 . S
H281 C269 0.929 . S
H282 C270 0.960 . S
H283 C270 0.962 . S
H284 C270 0.960 . S
H285 C271 0.961 . S
H286 C271 0.961 . S
H287 C271 0.961 . S
H288 C272 0.931 . S
H289 C277 0.930 . S
H290 C278 0.956 . S
H291 C278 0.961 . S
H292 C278 0.961 . S
H293 C279 0.958 . S
H294 C279 0.961 . S
H295 C279 0.960 . S
C296 C297 1.391 . S
C296 C298 1.394 . S
C296 H312 0.931 . S
C297 C296 1.391 . S
C297 C301 1.376 . S
C298 C296 1.394 . S
C298 C299 1.369 . S
C298 C302 1.531 . S
C299 C298 1.369 . S
C299 C300 1.410 . S
C299 C307 1.503 . S
C300 C299 1.410 . S
C300 C301 1.392 . S
C300 C303 1.511 . S
C301 C297 1.376 . S
C301 C300 1.392 . S
C301 H313 0.929 . S
C302 C298 1.531 . S
C302 H314 0.960 . S
C302 H315 0.962 . S
C302 H316 0.960 . S
C303 C300 1.511 . S
C303 H317 0.961 . S
C303 H318 0.961 . S
C303 H319 0.961 . S
C304 C305 1.370 . S
C304 C306 1.363 . S
C304 H320 0.931 . S
C305 C304 1.370 . S
C305 C309 1.408 . S
C306 C304 1.363 . S
C306 C307 1.370 . S
C306 C310 1.524 . S
C307 C299 1.503 . S
C307 C306 1.370 . S
C307 C308 1.403 . S
C308 C307 1.403 . S
C308 C309 1.404 . S
C308 C311 1.539 1_554 S
C309 C305 1.408 . S
C309 C308 1.404 . S
C309 H321 0.930 . S
C310 C306 1.524 . S
C310 H322 0.956 . S
C310 H323 0.961 . S
C310 H324 0.961 . S
C311 C308 1.539 1_556 S
C311 H325 0.958 . S
C311 H326 0.961 . S
C311 H327 0.960 1_556 S
H312 C296 0.931 . S
H313 C301 0.929 . S
H314 C302 0.960 . S
H315 C302 0.962 . S
H316 C302 0.960 . S
H317 C303 0.961 . S
H318 C303 0.961 . S
H319 C303 0.961 . S
H320 C304 0.931 . S
H321 C309 0.930 . S
H322 C310 0.956 . S
H323 C310 0.961 . S
H324 C310 0.961 . S
H325 C311 0.958 . S
H326 C311 0.961 . S
H327 C311 0.960 1_554 S
C328 C329 1.391 . S
C328 C330 1.394 . S
C328 H344 0.931 . S
C329 C328 1.391 . S
C329 C333 1.376 . S
C330 C328 1.394 . S
C330 C331 1.369 . S
C330 C334 1.531 . S
C331 C330 1.369 . S
C331 C332 1.410 1_554 S
C331 C339 1.503 1_554 S
C332 C331 1.410 1_556 S
C332 C333 1.392 1_556 S
C332 C335 1.511 . S
C333 C329 1.376 . S
C333 C332 1.392 1_554 S
C333 H345 0.929 . S
C334 C330 1.531 . S
C334 H346 0.960 . S
C334 H347 0.962 . S
C334 H348 0.960 . S
C335 C332 1.511 . S
C335 H349 0.961 . S
C335 H350 0.961 . S
C335 H351 0.961 1_556 S
C336 C337 1.370 . S
C336 C338 1.363 . S
C336 H352 0.931 . S
C337 C336 1.370 . S
C337 C341 1.408 1_556 S
C338 C336 1.363 . S
C338 C339 1.370 . S
C338 C342 1.524 . S
C339 C331 1.503 1_556 S
C339 C338 1.370 . S
C339 C340 1.403 1_556 S
C340 C339 1.403 1_554 S
C340 C341 1.404 . S
C340 C343 1.539 . S
C341 C337 1.408 1_554 S
C341 C340 1.404 . S
C341 H353 0.930 . S
C342 C338 1.524 . S
C342 H354 0.956 . S
C342 H355 0.961 . S
C342 H356 0.961 . S
C343 C340 1.539 . S
C343 H357 0.958 . S
C343 H358 0.961 . S
C343 H359 0.960 . S
H344 C328 0.931 . S
H345 C333 0.929 . S
H346 C334 0.960 . S
H347 C334 0.962 . S
H348 C334 0.960 . S
H349 C335 0.961 . S
H350 C335 0.961 . S
H351 C335 0.961 1_554 S
H352 C336 0.931 . S
H353 C341 0.930 . S
H354 C342 0.956 . S
H355 C342 0.961 . S
H356 C342 0.961 . S
H357 C343 0.958 . S
H358 C343 0.961 . S
H359 C343 0.960 . S
C360 C361 1.391 1_554 S
C360 C362 1.394 . S
C360 H376 0.931 . S
C361 C360 1.391 1_556 S
C361 C365 1.376 . S
C362 C360 1.394 . S
C362 C363 1.369 1_554 S
C362 C366 1.531 . S
C363 C362 1.369 1_556 S
C363 C364 1.410 . S
C363 C371 1.503 . S
C364 C363 1.410 . S
C364 C365 1.392 . S
C364 C367 1.511 . S
C365 C361 1.376 . S
C365 C364 1.392 . S
C365 H377 0.929 . S
C366 C362 1.531 . S
C366 H378 0.960 . S
C366 H379 0.962 . S
C366 H380 0.960 . S
C367 C364 1.511 . S
C367 H381 0.961 . S
C367 H382 0.961 . S
C367 H383 0.961 . S
C368 C369 1.370 . S
C368 C370 1.363 . S
C368 H384 0.931 . S
C369 C368 1.370 . S
C369 C373 1.408 . S
C370 C368 1.363 . S
C370 C371 1.370 . S
C370 C374 1.524 . S
C371 C363 1.503 . S
C371 C370 1.370 . S
C371 C372 1.403 . S
C372 C371 1.403 . S
C372 C373 1.404 . S
C372 C375 1.539 . S
C373 C369 1.408 . S
C373 C372 1.404 . S
C373 H385 0.930 . S
C374 C370 1.524 . S
C374 H386 0.956 1_556 S
C374 H387 0.961 . S
C374 H388 0.961 . S
C375 C372 1.539 . S
C375 H389 0.958 . S
C375 H390 0.961 . S
C375 H391 0.960 . S
H376 C360 0.931 . S
H377 C365 0.929 . S
H378 C366 0.960 . S
H379 C366 0.962 . S
H380 C366 0.960 . S
H381 C367 0.961 . S
H382 C367 0.961 . S
H383 C367 0.961 . S
H384 C368 0.931 . S
H385 C373 0.930 . S
H386 C374 0.956 1_554 S
H387 C374 0.961 . S
H388 C374 0.961 . S
H389 C375 0.958 . S
H390 C375 0.961 . S
H391 C375 0.960 . S
C392 C393 1.391 . S
C392 C394 1.394 . S
C392 H408 0.931 . S
C393 C392 1.391 . S
C393 C397 1.376 . S
C394 C392 1.394 . S
C394 C395 1.369 . S
C394 C398 1.531 . S
C395 C394 1.369 . S
C395 C396 1.410 . S
C395 C403 1.503 . S
C396 C395 1.410 . S
C396 C397 1.392 . S
C396 C399 1.511 . S
C397 C393 1.376 . S
C397 C396 1.392 . S
C397 H409 0.929 . S
C398 C394 1.531 . S
C398 H410 0.960 . S
C398 H411 0.962 . S
C398 H412 0.960 . S
C399 C396 1.511 . S
C399 H413 0.961 1_554 S
C399 H414 0.961 1_554 S
C399 H415 0.961 . S
C400 C401 1.370 . S
C400 C402 1.363 . S
C400 H416 0.931 . S
C401 C400 1.370 . S
C401 C405 1.408 . S
C402 C400 1.363 . S
C402 C403 1.370 . S
C402 C406 1.524 . S
C403 C395 1.503 . S
C403 C402 1.370 . S
C403 C404 1.403 . S
C404 C403 1.403 . S
C404 C405 1.404 . S
C404 C407 1.539 . S
C405 C401 1.408 . S
C405 C404 1.404 . S
C405 H417 0.930 . S
C406 C402 1.524 . S
C406 H418 0.956 . S
C406 H419 0.961 . S
C406 H420 0.961 . S
C407 C404 1.539 . S
C407 H421 0.958 . S
C407 H422 0.961 . S
C407 H423 0.960 . S
H408 C392 0.931 . S
H409 C397 0.929 . S
H410 C398 0.960 . S
H411 C398 0.962 . S
H412 C398 0.960 . S
H413 C399 0.961 1_556 S
H414 C399 0.961 1_556 S
H415 C399 0.961 . S
H416 C400 0.931 . S
H417 C405 0.930 . S
H418 C406 0.956 . S
H419 C406 0.961 . S
H420 C406 0.961 . S
H421 C407 0.958 . S
H422 C407 0.961 . S
H423 C407 0.960 . S
C424 C425 1.391 . S
C424 C426 1.394 . S
C424 H440 0.931 . S
C425 C424 1.391 . S
C425 C429 1.376 . S
C426 C424 1.394 . S
C426 C427 1.369 . S
C426 C430 1.531 . S
C427 C426 1.369 . S
C427 C428 1.410 . S
C427 C435 1.503 . S
C428 C427 1.410 . S
C428 C429 1.392 . S
C428 C431 1.511 . S
C429 C425 1.376 . S
C429 C428 1.392 . S
C429 H441 0.929 . S
C430 C426 1.531 . S
C430 H442 0.960 . S
C430 H443 0.962 . S
C430 H444 0.960 . S
C431 C428 1.511 . S
C431 H445 0.961 . S
C431 H446 0.961 . S
C431 H447 0.961 . S
C432 C433 1.370 . S
C432 C434 1.363 . S
C432 H448 0.931 . S
C433 C432 1.370 . S
C433 C437 1.408 . S
C434 C432 1.363 . S
C434 C435 1.370 . S
C434 C438 1.524 . S
C435 C427 1.503 . S
C435 C434 1.370 . S
C435 C436 1.403 . S
C436 C435 1.403 . S
C436 C437 1.404 . S
C436 C439 1.539 . S
C437 C433 1.408 . S
C437 C436 1.404 . S
C437 H449 0.930 . S
C438 C434 1.524 . S
C438 H450 0.956 . S
C438 H451 0.961 . S
C438 H452 0.961 . S
C439 C436 1.539 . S
C439 H453 0.958 . S
C439 H454 0.961 . S
C439 H455 0.960 . S
H440 C424 0.931 . S
H441 C429 0.929 . S
H442 C430 0.960 . S
H443 C430 0.962 . S
H444 C430 0.960 . S
H445 C431 0.961 . S
H446 C431 0.961 . S
H447 C431 0.961 . S
H448 C432 0.931 . S
H449 C437 0.930 . S
H450 C438 0.956 . S
H451 C438 0.961 . S
H452 C438 0.961 . S
H453 C439 0.958 . S
H454 C439 0.961 . S
H455 C439 0.960 . S
C456 C457 1.391 . S
C456 C458 1.394 . S
C456 H472 0.931 . S
C457 C456 1.391 . S
C457 C461 1.376 . S
C458 C456 1.394 . S
C458 C459 1.369 . S
C458 C462 1.531 . S
C459 C458 1.369 . S
C459 C460 1.410 . S
C459 C467 1.503 . S
C460 C459 1.410 . S
C460 C461 1.392 . S
C460 C463 1.511 . S
C461 C457 1.376 . S
C461 C460 1.392 . S
C461 H473 0.929 . S
C462 C458 1.531 . S
C462 H474 0.960 . S
C462 H475 0.962 . S
C462 H476 0.960 . S
C463 C460 1.511 . S
C463 H477 0.961 . S
C463 H478 0.961 . S
C463 H479 0.961 . S
C464 C465 1.370 . S
C464 C466 1.363 . S
C464 H480 0.931 . S
C465 C464 1.370 . S
C465 C469 1.408 . S
C466 C464 1.363 . S
C466 C467 1.370 . S
C466 C470 1.524 . S
C467 C459 1.503 . S
C467 C466 1.370 . S
C467 C468 1.403 . S
C468 C467 1.403 . S
C468 C469 1.404 . S
C468 C471 1.539 . S
C469 C465 1.408 . S
C469 C468 1.404 . S
C469 H481 0.930 . S
C470 C466 1.524 . S
C470 H482 0.956 . S
C470 H483 0.961 . S
C470 H484 0.961 . S
C471 C468 1.539 . S
C471 H485 0.958 . S
C471 H486 0.961 . S
C471 H487 0.960 . S
H472 C456 0.931 . S
H473 C461 0.929 . S
H474 C462 0.960 . S
H475 C462 0.962 . S
H476 C462 0.960 . S
H477 C463 0.961 . S
H478 C463 0.961 . S
H479 C463 0.961 . S
H480 C464 0.931 . S
H481 C469 0.930 . S
H482 C470 0.956 . S
H483 C470 0.961 . S
H484 C470 0.961 . S
H485 C471 0.958 . S
H486 C471 0.961 . S
H487 C471 0.960 . S
C488 C489 1.391 1_556 S
C488 C490 1.394 . S
C488 H504 0.931 . S
C489 C488 1.391 1_554 S
C489 C493 1.376 . S
C490 C488 1.394 . S
C490 C491 1.369 1_556 S
C490 C494 1.531 . S
C491 C490 1.369 1_554 S
C491 C492 1.410 . S
C491 C499 1.503 . S
C492 C491 1.410 . S
C492 C493 1.392 . S
C492 C495 1.511 . S
C493 C489 1.376 . S
C493 C492 1.392 . S
C493 H505 0.929 . S
C494 C490 1.531 . S
C494 H506 0.960 . S
C494 H507 0.962 . S
C494 H508 0.960 . S
C495 C492 1.511 . S
C495 H509 0.961 . S
C495 H510 0.961 . S
C495 H511 0.961 . S
C496 C497 1.370 . S
C496 C498 1.363 . S
C496 H512 0.931 . S
C497 C496 1.370 . S
C497 C501 1.408 . S
C498 C496 1.363 . S
C498 C499 1.370 . S
C498 C502 1.524 . S
C499 C491 1.503 . S
C499 C498 1.370 . S
C499 C500 1.403 . S
C500 C499 1.403 . S
C500 C501 1.404 . S
C500 C503 1.539 . S
C501 C497 1.408 . S
C501 C500 1.404 . S
C501 H513 0.930 . S
C502 C498 1.524 . S
C502 H514 0.956 1_554 S
C502 H515 0.961 . S
C502 H516 0.961 1_554 S
C503 C500 1.539 . S
C503 H517 0.958 . S
C503 H518 0.961 . S
C503 H519 0.960 . S
H504 C488 0.931 . S
H505 C493 0.929 . S
H506 C494 0.960 . S
H507 C494 0.962 . S
H508 C494 0.960 . S
H509 C495 0.961 . S
H510 C495 0.961 . S
H511 C495 0.961 . S
H512 C496 0.931 . S
H513 C501 0.930 . S
H514 C502 0.956 1_556 S
H515 C502 0.961 . S
H516 C502 0.961 1_556 S
H517 C503 0.958 . S
H518 C503 0.961 . S
H519 C503 0.960 . S
C520 C521 1.391 . S
C520 C522 1.394 . S
C520 H536 0.931 . S
C521 C520 1.391 . S
C521 C525 1.376 . S
C522 C520 1.394 . S
C522 C523 1.369 . S
C522 C526 1.531 . S
C523 C522 1.369 . S
C523 C524 1.410 . S
C523 C531 1.503 . S
C524 C523 1.410 . S
C524 C525 1.392 . S
C524 C527 1.511 1_556 S
C525 C521 1.376 . S
C525 C524 1.392 . S
C525 H537 0.929 1_556 S
C526 C522 1.531 . S
C526 H538 0.960 . S
C526 H539 0.962 . S
C526 H540 0.960 . S
C527 C524 1.511 1_554 S
C527 H541 0.961 . S
C527 H542 0.961 . S
C527 H543 0.961 . S
C528 C529 1.370 . S
C528 C530 1.363 . S
C528 H544 0.931 . S
C529 C528 1.370 . S
C529 C533 1.408 . S
C530 C528 1.363 . S
C530 C531 1.370 . S
C530 C534 1.524 . S
C531 C523 1.503 . S
C531 C530 1.370 . S
C531 C532 1.403 . S
C532 C531 1.403 . S
C532 C533 1.404 . S
C532 C535 1.539 . S
C533 C529 1.408 . S
C533 C532 1.404 . S
C533 H545 0.930 . S
C534 C530 1.524 . S
C534 H546 0.956 . S
C534 H547 0.961 1_556 S
C534 H548 0.961 . S
C535 C532 1.539 . S
C535 H549 0.958 . S
C535 H550 0.961 . S
C535 H551 0.960 . S
H536 C520 0.931 . S
H537 C525 0.929 1_554 S
H538 C526 0.960 . S
H539 C526 0.962 . S
H540 C526 0.960 . S
H541 C527 0.961 . S
H542 C527 0.961 . S
H543 C527 0.961 . S
H544 C528 0.931 . S
H545 C533 0.930 . S
H546 C534 0.956 . S
H547 C534 0.961 1_554 S
H548 C534 0.961 . S
H549 C535 0.958 . S
H550 C535 0.961 . S
H551 C535 0.960 . S
C552 C553 1.391 . S
C552 C554 1.394 . S
C552 H568 0.931 . S
C553 C552 1.391 . S
C553 C557 1.376 . S
C554 C552 1.394 . S
C554 C555 1.369 . S
C554 C558 1.531 . S
C555 C554 1.369 . S
C555 C556 1.410 . S
C555 C563 1.503 . S
C556 C555 1.410 . S
C556 C557 1.392 . S
C556 C559 1.511 . S
C557 C553 1.376 . S
C557 C556 1.392 . S
C557 H569 0.929 . S
C558 C554 1.531 . S
C558 H570 0.960 . S
C558 H571 0.962 . S
C558 H572 0.960 . S
C559 C556 1.511 . S
C559 H573 0.961 . S
C559 H574 0.961 . S
C559 H575 0.961 . S
C560 C561 1.370 . S
C560 C562 1.363 . S
C560 H576 0.931 . S
C561 C560 1.370 . S
C561 C565 1.408 . S
C562 C560 1.363 . S
C562 C563 1.370 . S
C562 C566 1.524 . S
C563 C555 1.503 . S
C563 C562 1.370 . S
C563 C564 1.403 . S
C564 C563 1.403 . S
C564 C565 1.404 . S
C564 C567 1.539 . S
C565 C561 1.408 . S
C565 C564 1.404 . S
C565 H577 0.930 . S
C566 C562 1.524 . S
C566 H578 0.956 . S
C566 H579 0.961 . S
C566 H580 0.961 . S
C567 C564 1.539 . S
C567 H581 0.958 . S
C567 H582 0.961 . S
C567 H583 0.960 . S
H568 C552 0.931 . S
H569 C557 0.929 . S
H570 C558 0.960 . S
H571 C558 0.962 . S
H572 C558 0.960 . S
H573 C559 0.961 . S
H574 C559 0.961 . S
H575 C559 0.961 . S
H576 C560 0.931 . S
H577 C565 0.930 . S
H578 C566 0.956 . S
H579 C566 0.961 . S
H580 C566 0.961 . S
H581 C567 0.958 . S
H582 C567 0.961 . S
H583 C567 0.960 . S
C584 C585 1.391 . S
C584 C586 1.394 . S
C584 H600 0.931 . S
C585 C584 1.391 . S
C585 C589 1.376 . S
C586 C584 1.394 . S
C586 C587 1.369 . S
C586 C590 1.531 . S
C587 C586 1.369 . S
C587 C588 1.410 . S
C587 C595 1.503 . S
C588 C587 1.410 . S
C588 C589 1.392 . S
C588 C591 1.511 . S
C589 C585 1.376 . S
C589 C588 1.392 . S
C589 H601 0.929 . S
C590 C586 1.531 . S
C590 H602 0.960 . S
C590 H603 0.962 . S
C590 H604 0.960 . S
C591 C588 1.511 . S
C591 H605 0.961 . S
C591 H606 0.961 . S
C591 H607 0.961 . S
C592 C593 1.370 . S
C592 C594 1.363 . S
C592 H608 0.931 . S
C593 C592 1.370 . S
C593 C597 1.408 . S
C594 C592 1.363 . S
C594 C595 1.370 . S
C594 C598 1.524 . S
C595 C587 1.503 . S
C595 C594 1.370 . S
C595 C596 1.403 . S
C596 C595 1.403 . S
C596 C597 1.404 . S
C596 C599 1.539 . S
C597 C593 1.408 . S
C597 C596 1.404 . S
C597 H609 0.930 . S
C598 C594 1.524 . S
C598 H610 0.956 . S
C598 H611 0.961 . S
C598 H612 0.961 . S
C599 C596 1.539 . S
C599 H613 0.958 . S
C599 H614 0.961 . S
C599 H615 0.960 . S
H600 C584 0.931 . S
H601 C589 0.929 . S
H602 C590 0.960 . S
H603 C590 0.962 . S
H604 C590 0.960 . S
H605 C591 0.961 . S
H606 C591 0.961 . S
H607 C591 0.961 . S
H608 C592 0.931 . S
H609 C597 0.930 . S
H610 C598 0.956 . S
H611 C598 0.961 . S
H612 C598 0.961 . S
H613 C599 0.958 . S
H614 C599 0.961 . S
H615 C599 0.960 . S
C105 C1 1.559 . S
C113 C40 1.567 . S
C137 C10 1.478 . S
C145 C18 1.481 . S
C169 C27 1.455 . S
C177 C16 1.470 . S
C201 C49 1.558 . S
C209 C36 1.535 . S
C233 C3 1.471 . S
C241 C66 1.509 . S
C265 C5 1.457 . S
C273 C57 1.450 . S
C297 C55 1.482 . S
C305 C29 1.466 . S
C329 C31 1.530 . S
C337 C75 1.524 . S
C361 C81 1.414 . S
C369 C68 1.428 . S
C393 C62 1.515 . S
C401 C83 1.519 . S
C425 C53 1.556 . S
C433 C92 1.555 . S
C457 C70 1.444 . S
C465 C101 1.471 . S
C489 C79 1.510 . S
C497 C42 1.492 . S
C521 C23 1.569 . S
C529 C88 1.572 . S
C553 C14 1.520 . S
C561 C94 1.531 . S
C585 C44 1.437 . S
C593 C96 1.470 . S
