# Generated by pormake.
# Topology smk, (6)-cn, num edge types: 1
# Building blocks:
#     Node 0, Type 0, BuildingBlock: OJICUG_clean_sbu_0, # of connection points: 6
#     Node 1, Type 0, BuildingBlock: OJICUG_clean_sbu_0, # of connection points: 6
#     Node 2, Type 0, BuildingBlock: OJICUG_clean_sbu_0, # of connection points: 6
#     Node 3, Type 0, BuildingBlock: OJICUG_clean_sbu_0, # of connection points: 6
#     Node 4, Type 0, BuildingBlock: OJICUG_clean_sbu_0, # of connection points: 6
#     Node 5, Type 0, BuildingBlock: OJICUG_clean_sbu_0, # of connection points: 6
#     Edge 6, Type (0, 0), BuildingBlock: KIFKEQ_clean_linker_1, # of connection points: 2
#     Edge 7, Type (0, 0), BuildingBlock: KIFKEQ_clean_linker_1, # of connection points: 2
#     Edge 8, Type (0, 0), BuildingBlock: KIFKEQ_clean_linker_1, # of connection points: 2
#     Edge 9, Type (0, 0), BuildingBlock: KIFKEQ_clean_linker_1, # of connection points: 2
#     Edge 10, Type (0, 0), BuildingBlock: KIFKEQ_clean_linker_1, # of connection points: 2
#     Edge 11, Type (0, 0), BuildingBlock: KIFKEQ_clean_linker_1, # of connection points: 2
#     Edge 12, Type (0, 0), BuildingBlock: KIFKEQ_clean_linker_1, # of connection points: 2
#     Edge 13, Type (0, 0), BuildingBlock: KIFKEQ_clean_linker_1, # of connection points: 2
#     Edge 14, Type (0, 0), BuildingBlock: KIFKEQ_clean_linker_1, # of connection points: 2
#     Edge 15, Type (0, 0), BuildingBlock: KIFKEQ_clean_linker_1, # of connection points: 2
#     Edge 16, Type (0, 0), BuildingBlock: KIFKEQ_clean_linker_1, # of connection points: 2
#     Edge 17, Type (0, 0), BuildingBlock: KIFKEQ_clean_linker_1, # of connection points: 2
#     Edge 18, Type (0, 0), BuildingBlock: KIFKEQ_clean_linker_1, # of connection points: 2
#     Edge 19, Type (0, 0), BuildingBlock: KIFKEQ_clean_linker_1, # of connection points: 2
#     Edge 20, Type (0, 0), BuildingBlock: KIFKEQ_clean_linker_1, # of connection points: 2
#     Edge 21, Type (0, 0), BuildingBlock: KIFKEQ_clean_linker_1, # of connection points: 2
#     Edge 22, Type (0, 0), BuildingBlock: KIFKEQ_clean_linker_1, # of connection points: 2
#     Edge 23, Type (0, 0), BuildingBlock: KIFKEQ_clean_linker_1, # of connection points: 2
# Relax obj value: 0.194
# Max RMSD: 0.221
# Mean RMSD: 0.221
data_MOF--net-smk--node1-OJICUG_clean_sbu_0--edge1-KIFKEQ_clean_linker_1
_symmetry_space_group_name_H-M    P1
_symmetry_Int_Tables_number       1
_symmetry_cell_setting            triclinic
loop_
_symmetry_equiv_pos_as_xyz
'x, y, z'
_cell_length_a     44.699685
_cell_length_b     44.73348
_cell_length_c     16.035115
_cell_angle_alpha  90.021418
_cell_angle_beta   90.001216
_cell_angle_gamma 120.03147
loop_
_atom_site_label
_atom_site_type_symbol
_atom_site_fract_x
_atom_site_fract_y
_atom_site_fract_z
_atom_type_partial_charge
Sc0 Sc 0.4446 0.19833 0.50745 0.0
Sc1 Sc 0.36633 0.18483 0.59092 0.0
Sc2 Sc 0.44487 0.24412 0.68306 0.0
O3 O 0.41859 0.20905 0.59358 0.0
C4 C 0.49014 0.20699 0.66318 0.0
C5 C 0.37895 0.12356 0.54773 0.0
C6 C 0.38314 0.18863 0.78679 0.0
C7 C 0.38582 0.19635 0.39647 0.0
C8 C 0.49184 0.28091 0.52922 0.0
C9 C 0.38362 0.25929 0.6391 0.0
O10 O 0.4743 0.18965 0.59907 0.0
O11 O 0.36235 0.13507 0.58823 0.0
O12 O 0.41554 0.20764 0.77748 0.0
O13 O 0.41751 0.20626 0.40835 0.0
O14 O 0.47642 0.28262 0.59405 0.0
O15 O 0.36715 0.23313 0.59217 0.0
O16 O 0.48475 0.25232 0.49495 0.0
O17 O 0.36348 0.18475 0.45486 0.0
O18 O 0.40963 0.26432 0.68244 0.0
O19 O 0.40741 0.14323 0.51046 0.0
O20 O 0.48397 0.22929 0.69584 0.0
O21 O 0.36165 0.18141 0.72718 0.0
Sc22 Sc 0.24348 0.45158 0.66686 0.0
Sc23 Sc 0.18167 0.3729 0.75349 0.0
Sc24 Sc 0.19776 0.45083 0.84285 0.0
O25 O 0.20761 0.42512 0.75426 0.0
C26 C 0.27999 0.49761 0.82216 0.0
C27 C 0.25624 0.38863 0.70959 0.0
C28 C 0.19371 0.39055 0.94882 0.0
C29 C 0.18798 0.39136 0.55851 0.0
C30 C 0.20656 0.49715 0.68884 0.0
C31 C 0.1224 0.38759 0.79873 0.0
O32 O 0.28193 0.4821 0.75782 0.0
O33 O 0.22915 0.37189 0.75367 0.0
O34 O 0.20608 0.42273 0.93849 0.0
O35 O 0.20779 0.42351 0.56971 0.0
O36 O 0.18952 0.48147 0.75351 0.0
O37 O 0.13296 0.37143 0.75325 0.0
O38 O 0.22854 0.49074 0.65487 0.0
O39 O 0.17937 0.36933 0.61722 0.0
O40 O 0.14271 0.4142 0.84132 0.0
O41 O 0.2627 0.41556 0.66825 0.0
O42 O 0.25133 0.4908 0.855 0.0
O43 O 0.18011 0.36872 0.88969 0.0
Sc44 Sc 0.78954 0.24629 0.82184 0.0
Sc45 Sc 0.80753 0.18549 0.90954 0.0
Sc46 Sc 0.74177 0.19768 0.9907 0.0
O47 O 0.77963 0.20969 0.90744 0.0
C48 C 0.77713 0.28017 0.97644 0.0
C49 C 0.8654 0.26022 0.86577 0.0
C50 C 0.79824 0.19624 0.10367 0.0
C51 C 0.79534 0.19142 0.71416 0.0
C52 C 0.70678 0.2081 0.83562 0.0
C53 C 0.73376 0.1238 0.94973 0.0
O54 O 0.79676 0.28331 0.91576 0.0
O55 O 0.85519 0.23364 0.91129 0.0
O56 O 0.77631 0.20591 0.09122 0.0
O57 O 0.78258 0.21094 0.72454 0.0
O58 O 0.70462 0.18865 0.89563 0.0
O59 O 0.76188 0.13556 0.90925 0.0
O60 O 0.73565 0.23219 0.80852 0.0
O61 O 0.8091 0.18324 0.77314 0.0
O62 O 0.72486 0.14315 0.98762 0.0
O63 O 0.84482 0.2659 0.82278 0.0
O64 O 0.75386 0.2509 0.00381 0.0
O65 O 0.80934 0.18476 0.04572 0.0
Sc66 Sc 0.53953 0.79378 0.00951 0.0
Sc67 Sc 0.61843 0.80771 0.08788 0.0
Sc68 Sc 0.54047 0.74361 0.17419 0.0
O69 O 0.56624 0.7818 0.0909 0.0
C70 C 0.49536 0.78162 0.1691 0.0
C71 C 0.6044 0.86821 0.0527 0.0
C72 C 0.60186 0.79724 0.28403 0.0
C73 C 0.59787 0.79812 0.89408 0.0
C74 C 0.49306 0.71124 0.01924 0.0
C75 C 0.60374 0.73258 0.12259 0.0
O76 O 0.51129 0.80091 0.10751 0.0
O77 O 0.6209 0.85663 0.09297 0.0
O78 O 0.56975 0.77614 0.27571 0.0
O79 O 0.56599 0.7871 0.90667 0.0
O80 O 0.50971 0.70789 0.07906 0.0
O81 O 0.6202 0.76083 0.08281 0.0
O82 O 0.49878 0.74057 0.99354 0.0
O83 O 0.62047 0.80985 0.95196 0.0
O84 O 0.57621 0.72432 0.16336 0.0
O85 O 0.57641 0.84866 0.01393 0.0
O86 O 0.50107 0.75795 0.19506 0.0
O87 O 0.62298 0.80868 0.22315 0.0
Sc88 Sc 0.74127 0.53925 0.1662 0.0
Sc89 Sc 0.80688 0.61706 0.25046 0.0
Sc90 Sc 0.78748 0.53783 0.33942 0.0
O91 O 0.77846 0.56476 0.25204 0.0
C92 C 0.70465 0.4933 0.32184 0.0
C93 C 0.73288 0.60492 0.20907 0.0
C94 C 0.7944 0.59946 0.44609 0.0
C95 C 0.79856 0.59819 0.0558 0.0
C96 C 0.776 0.49166 0.1827 0.0
C97 C 0.86405 0.5989 0.2952 0.0
O98 O 0.70315 0.50892 0.25735 0.0
O99 O 0.76137 0.62158 0.24811 0.0
O100 O 0.78178 0.5672 0.43628 0.0
O101 O 0.77603 0.56672 0.06702 0.0
O102 O 0.79348 0.50642 0.24764 0.0
O103 O 0.85436 0.61616 0.25133 0.0
O104 O 0.7544 0.49906 0.15076 0.0
O105 O 0.80995 0.62034 0.11458 0.0
O106 O 0.84307 0.57229 0.33676 0.0
O107 O 0.7236 0.57636 0.17212 0.0
O108 O 0.73317 0.49953 0.35463 0.0
O109 O 0.80783 0.62117 0.38666 0.0
Sc110 Sc 0.19742 0.74549 0.32257 0.0
Sc111 Sc 0.1774 0.80437 0.41335 0.0
Sc112 Sc 0.24264 0.79185 0.49795 0.0
O113 O 0.20589 0.78066 0.41149 0.0
C114 C 0.20728 0.70926 0.47792 0.0
C115 C 0.12066 0.72963 0.36545 0.0
C116 C 0.18534 0.79345 0.60804 0.0
C117 C 0.19088 0.80045 0.21772 0.0
C118 C 0.27989 0.7827 0.34375 0.0
C119 C 0.25122 0.86623 0.45609 0.0
O120 O 0.19034 0.70734 0.41255 0.0
O121 O 0.13011 0.75577 0.41224 0.0
O122 O 0.20753 0.78409 0.59669 0.0
O123 O 0.20461 0.78178 0.22758 0.0
O124 O 0.28124 0.80033 0.40709 0.0
O125 O 0.22294 0.85439 0.41603 0.0
O126 O 0.25146 0.76036 0.31084 0.0
O127 O 0.17635 0.8075 0.277 0.0
O128 O 0.26035 0.84687 0.49345 0.0
O129 O 0.14189 0.72494 0.32221 0.0
O130 O 0.22879 0.73795 0.51183 0.0
O131 O 0.17433 0.80462 0.54932 0.0
H132 H 0.32441 0.14998 0.32148 0.0
H133 H 0.42357 0.24044 0.27343 0.0
H134 H 0.31395 0.14145 0.17009 0.0
H135 H 0.41307 0.23184 0.12408 0.0
H136 H 0.3275 0.18681 0.86455 0.0
H137 H 0.31908 0.18624 0.01659 0.0
H138 H 0.40413 0.16799 0.05459 0.0
H139 H 0.41264 0.16867 0.90441 0.0
C140 C 0.34336 0.16863 0.27888 0.0
C141 C 0.375 0.19564 0.30903 0.0
C142 C 0.33739 0.16366 0.19259 0.0
C143 C 0.36296 0.18577 0.13619 0.0
C144 C 0.39316 0.21431 0.16666 0.0
C145 C 0.39912 0.21921 0.25206 0.0
C146 C 0.34339 0.18127 0.9055 0.0
C147 C 0.37092 0.17808 0.87307 0.0
C148 C 0.33865 0.18108 0.99217 0.0
C149 C 0.36127 0.17748 0.04656 0.0
C150 C 0.38655 0.17103 0.0136 0.0
C151 C 0.39136 0.17137 0.92779 0.0
H152 H 0.17927 0.33232 0.4827 0.0
H153 H 0.17549 0.42554 0.4371 0.0
H154 H 0.1778 0.32244 0.33111 0.0
H155 H 0.174 0.41559 0.28749 0.0
H156 H 0.24185 0.42313 0.06829 0.0
H157 H 0.23393 0.41373 0.21819 0.0
H158 H 0.13425 0.32335 0.17737 0.0
H159 H 0.14217 0.33266 0.02557 0.0
C160 C 0.17685 0.34993 0.44062 0.0
C161 C 0.17789 0.37991 0.47143 0.0
C162 C 0.17612 0.34431 0.35422 0.0
C163 C 0.17618 0.36852 0.2984 0.0
C164 C 0.17417 0.39674 0.32962 0.0
C165 C 0.17503 0.40239 0.41514 0.0
C166 C 0.21869 0.40062 0.09096 0.0
C167 C 0.19248 0.37882 0.03548 0.0
C168 C 0.21419 0.39528 0.17661 0.0
C169 C 0.18337 0.36808 0.20871 0.0
C170 C 0.15827 0.3444 0.15359 0.0
C171 C 0.16287 0.34968 0.06707 0.0
H172 H 0.81339 0.15033 0.18033 0.0
H173 H 0.80476 0.24097 0.225 0.0
H174 H 0.8157 0.14276 0.33204 0.0
H175 H 0.80708 0.23336 0.3746 0.0
H176 H 0.74585 0.17317 0.59732 0.0
H177 H 0.75293 0.17178 0.44707 0.0
H178 H 0.85506 0.18648 0.48301 0.0
H179 H 0.84795 0.18772 0.63521 0.0
C180 C 0.81316 0.1692 0.22227 0.0
C181 C 0.80841 0.19597 0.19117 0.0
C182 C 0.81438 0.16479 0.30871 0.0
C183 C 0.81102 0.18721 0.36423 0.0
C184 C 0.80932 0.21555 0.33271 0.0
C185 C 0.80801 0.21988 0.24719 0.0
C186 C 0.76941 0.17501 0.57347 0.0
C187 C 0.79649 0.1809 0.6276 0.0
C188 C 0.77345 0.17426 0.48764 0.0
C189 C 0.80468 0.17951 0.45408 0.0
C190 C 0.83074 0.1823 0.50792 0.0
C191 C 0.82661 0.18289 0.59464 0.0
H192 H 0.61652 0.75603 0.37494 0.0
H193 H 0.615 0.85157 0.38517 0.0
H194 H 0.62521 0.75823 0.52595 0.0
H195 H 0.62391 0.85402 0.53695 0.0
H196 H 0.65312 0.85025 0.81286 0.0
H197 H 0.6643 0.85426 0.66178 0.0
H198 H 0.57748 0.75128 0.63009 0.0
H199 H 0.56591 0.7477 0.77939 0.0
C200 C 0.61926 0.7781 0.40953 0.0
C201 C 0.61531 0.80373 0.36937 0.0
C202 C 0.62411 0.7793 0.49562 0.0
C203 C 0.62508 0.8062 0.54285 0.0
C204 C 0.62364 0.83323 0.50167 0.0
C205 C 0.61851 0.83186 0.41524 0.0
C206 C 0.63705 0.82828 0.77348 0.0
C207 C 0.6087 0.79864 0.80721 0.0
C208 C 0.64328 0.83066 0.68739 0.0
C209 C 0.62181 0.80305 0.63466 0.0
C210 C 0.59467 0.77279 0.66947 0.0
C211 C 0.58797 0.77075 0.75473 0.0
H212 H 0.8472 0.65613 0.52363 0.0
H213 H 0.74543 0.56843 0.56422 0.0
H214 H 0.85498 0.66492 0.67562 0.0
H215 H 0.75318 0.57732 0.71428 0.0
H216 H 0.81297 0.6591 0.97973 0.0
H217 H 0.81512 0.66901 0.82803 0.0
H218 H 0.80869 0.57078 0.78512 0.0
H219 H 0.80649 0.56082 0.93476 0.0
C220 C 0.82606 0.63968 0.56473 0.0
C221 C 0.79584 0.61139 0.53255 0.0
C222 C 0.83058 0.64465 0.65136 0.0
C223 C 0.80481 0.62147 0.70592 0.0
C224 C 0.77347 0.59531 0.67316 0.0
C225 C 0.76905 0.59028 0.58743 0.0
C226 C 0.81327 0.64028 0.93772 0.0
C227 C 0.80913 0.60899 0.96869 0.0
C228 C 0.81438 0.64592 0.85128 0.0
C229 C 0.81156 0.62038 0.79565 0.0
C230 C 0.81056 0.59065 0.82708 0.0
C231 C 0.80932 0.58499 0.9126 0.0
H232 H 0.23984 0.8193 0.09896 0.0
H233 H 0.13725 0.80292 0.14064 0.0
H234 H 0.23167 0.82004 0.94896 0.0
H235 H 0.12909 0.80356 0.98877 0.0
H236 H 0.17775 0.74854 0.72986 0.0
H237 H 0.17584 0.75675 0.87941 0.0
H238 H 0.1691 0.84829 0.8353 0.0
H239 H 0.17099 0.84011 0.6837 0.0
C240 C 0.21594 0.81695 0.07603 0.0
C241 C 0.18907 0.81073 0.13124 0.0
C242 C 0.21128 0.81734 0.99032 0.0
C243 C 0.17965 0.81144 0.95791 0.0
C244 C 0.15373 0.80828 0.01276 0.0
C245 C 0.15847 0.80805 0.09934 0.0
C246 C 0.17491 0.76992 0.75171 0.0
C247 C 0.17493 0.79391 0.69526 0.0
C248 C 0.17384 0.77459 0.8372 0.0
C249 C 0.17279 0.80336 0.86826 0.0
C250 C 0.16985 0.8259 0.81234 0.0
C251 C 0.17081 0.82113 0.72594 0.0
H252 H 0.40772 0.08681 0.48204 0.0
H253 H 0.31395 0.0741 0.59369 0.0
H254 H 0.37908 0.02435 0.45829 0.0
H255 H 0.28575 0.01226 0.5695 0.0
H256 H 0.23487 0.9151 0.41055 0.0
H257 H 0.26808 0.977 0.43434 0.0
H258 H 0.3504 0.96621 0.54358 0.0
H259 H 0.31702 0.9037 0.52025 0.0
C260 C 0.38119 0.07078 0.50207 0.0
C261 C 0.36311 0.08558 0.53928 0.0
C262 C 0.36489 0.03507 0.48867 0.0
C263 C 0.33014 0.01365 0.51123 0.0
C264 C 0.31243 0.02829 0.55043 0.0
C265 C 0.32873 0.06375 0.56468 0.0
C266 C 0.26015 0.92575 0.43901 0.0
C267 C 0.27312 0.90427 0.46403 0.0
C268 C 0.27907 0.96125 0.45302 0.0
C269 C 0.31159 0.97627 0.4916 0.0
C270 C 0.32536 0.9552 0.51369 0.0
C271 C 0.30619 0.91945 0.50054 0.0
H272 H 0.39229 0.30194 0.77023 0.0
H273 H 0.34515 0.27142 0.52661 0.0
H274 H 0.36576 0.33788 0.78895 0.0
H275 H 0.31912 0.30769 0.54517 0.0
H276 H 0.30183 0.39956 0.58377 0.0
H277 H 0.33744 0.37262 0.5662 0.0
H278 H 0.30054 0.32022 0.80182 0.0
H279 H 0.26459 0.34669 0.81922 0.0
C280 C 0.37676 0.30335 0.72019 0.0
C281 C 0.37063 0.28372 0.64712 0.0
C282 C 0.3615 0.32377 0.73113 0.0
C283 C 0.34043 0.32545 0.66852 0.0
C284 C 0.33548 0.307 0.5941 0.0
C285 C 0.3502 0.28611 0.58376 0.0
C286 C 0.30165 0.38265 0.63233 0.0
C287 C 0.28025 0.37506 0.70266 0.0
C288 C 0.32191 0.36717 0.62203 0.0
C289 C 0.32164 0.34439 0.68263 0.0
C290 C 0.30137 0.33791 0.75452 0.0
C291 C 0.28066 0.35288 0.76415 0.0
H292 H 0.91543 0.27076 0.97847 0.0
H293 H 0.90015 0.30353 0.73643 0.0
H294 H 0.97792 0.30629 0.96095 0.0
H295 H 0.9628 0.33873 0.71876 0.0
H296 H 0.07213 0.34602 0.6883 0.0
H297 H 0.00965 0.31988 0.7051 0.0
H298 H 0.02517 0.37132 0.94222 0.0
H299 H 0.08771 0.3979 0.92532 0.0
C300 C 0.92542 0.2858 0.92192 0.0
C301 C 0.90294 0.28427 0.85867 0.0
C302 C 0.96112 0.30625 0.91217 0.0
C303 C 0.97501 0.32508 0.83845 0.0
C304 C 0.95261 0.32427 0.776 0.0
C305 C 0.91684 0.3043 0.78637 0.0
C306 C 0.06223 0.35203 0.74362 0.0
C307 C 0.0848 0.37387 0.80567 0.0
C308 C 0.02653 0.33727 0.75289 0.0
C309 C 0.01276 0.34363 0.82496 0.0
C310 C 0.03526 0.36599 0.88623 0.0
C311 C 0.07098 0.38125 0.87633 0.0
H312 H 0.66858 0.91768 0.10377 0.0
H313 H 0.57636 0.90459 0.982 0.0
H314 H 0.69744 0.9793 0.07596 0.0
H315 H 0.60564 0.96673 0.95464 0.0
H316 H 0.66746 0.0874 0.00944 0.0
H317 H 0.63367 0.02531 0.03643 0.0
H318 H 0.71658 0.0128 0.93769 0.0
H319 H 0.75034 0.07451 0.91037 0.0
C320 C 0.65426 0.92792 0.07193 0.0
C321 C 0.6202 0.90608 0.04447 0.0
C322 C 0.67094 0.96321 0.05557 0.0
C323 C 0.65386 0.97753 0.01219 0.0
C324 C 0.61932 0.95617 0.9881 0.0
C325 C 0.60265 0.92066 0.00369 0.0
C326 C 0.67834 0.07136 0.99277 0.0
C327 C 0.71171 0.08596 0.95832 0.0
C328 C 0.65895 0.03587 0.008 0.0
C329 C 0.67278 0.01452 0.99004 0.0
C330 C 0.70559 0.02889 0.95319 0.0
C331 C 0.72479 0.06419 0.93707 0.0
H332 H 0.66593 0.57492 0.15289 0.0
H333 H 0.75002 0.67103 0.24722 0.0
H334 H 0.63188 0.60327 0.12905 0.0
H335 H 0.7161 0.69896 0.22287 0.0
H336 H 0.66648 0.74601 0.06323 0.0
H337 H 0.69509 0.71267 0.08575 0.0
H338 H 0.60525 0.63473 0.21577 0.0
H339 H 0.57622 0.66823 0.19388 0.0
C340 C 0.67705 0.60194 0.1691 0.0
C341 C 0.7108 0.62076 0.20147 0.0
C342 C 0.65752 0.61805 0.15566 0.0
C343 C 0.67161 0.65331 0.17323 0.0
C344 C 0.70487 0.67183 0.20773 0.0
C345 C 0.72418 0.65571 0.22213 0.0
C346 C 0.65251 0.72162 0.09586 0.0
C347 C 0.61911 0.71 0.12746 0.0
C348 C 0.66904 0.70264 0.1091 0.0
C349 C 0.6525 0.67145 0.15342 0.0
C350 C 0.61851 0.65878 0.18147 0.0
C351 C 0.60199 0.678 0.16903 0.0
H352 H 0.91439 0.63883 0.18362 0.0
H353 H 0.89841 0.58843 0.42265 0.0
H354 H 0.9768 0.66523 0.20134 0.0
H355 H 0.96103 0.61532 0.44059 0.0
H356 H 0.06972 0.71762 0.47695 0.0
H357 H 0.00748 0.68034 0.45876 0.0
H358 H 0.02466 0.6486 0.21774 0.0
H359 H 0.08708 0.68559 0.23606 0.0
C360 C 0.9242 0.6331 0.2395 0.0
C361 C 0.90152 0.61172 0.30196 0.0
C362 C 0.95989 0.64803 0.24934 0.0
C363 C 0.97362 0.64234 0.3224 0.0
C364 C 0.951 0.62018 0.38384 0.0
C365 C 0.91524 0.60471 0.37334 0.0
C366 C 0.06027 0.70239 0.42049 0.0
C367 C 0.08328 0.70469 0.35772 0.0
C368 C 0.02468 0.68089 0.41041 0.0
C369 C 0.01138 0.6617 0.33682 0.0
C370 C 0.03434 0.66326 0.27492 0.0
C371 C 0.07001 0.68432 0.28561 0.0
H372 H 0.52695 0.34289 0.60937 0.0
H373 H 0.52294 0.29269 0.37574 0.0
H374 H 0.57738 0.3956 0.56041 0.0
H375 H 0.5734 0.34585 0.32672 0.0
H376 H 0.64204 0.45933 0.24379 0.0
H377 H 0.58935 0.40888 0.29302 0.0
H378 H 0.64014 0.4116 0.52413 0.0
H379 H 0.69323 0.46202 0.47483 0.0
C380 C 0.53656 0.34317 0.54719 0.0
C381 C 0.52089 0.31351 0.4964 0.0
C382 C 0.56559 0.37332 0.51955 0.0
C383 C 0.57929 0.3747 0.44006 0.0
C384 C 0.56318 0.34546 0.38822 0.0
C385 C 0.53441 0.31504 0.41637 0.0
C386 C 0.64197 0.44947 0.30552 0.0
C387 C 0.67191 0.46472 0.35542 0.0
C388 C 0.61184 0.42041 0.33328 0.0
C389 C 0.6108 0.40631 0.41204 0.0
C390 C 0.64028 0.42211 0.46318 0.0
C391 C 0.67065 0.45089 0.43489 0.0
H392 H 0.22525 0.52759 0.53504 0.0
H393 H 0.1794 0.53208 0.76876 0.0
H394 H 0.22271 0.57797 0.48563 0.0
H395 H 0.17722 0.58253 0.71928 0.0
H396 H 0.22728 0.69831 0.63142 0.0
H397 H 0.22413 0.64521 0.68217 0.0
H398 H 0.17607 0.59396 0.45141 0.0
H399 H 0.17886 0.64659 0.40068 0.0
C400 C 0.21443 0.53914 0.57558 0.0
C401 C 0.20254 0.52582 0.65578 0.0
C402 C 0.21288 0.56787 0.54721 0.0
C403 C 0.19992 0.58414 0.59893 0.0
C404 C 0.18759 0.5706 0.67855 0.0
C405 C 0.18862 0.54156 0.70646 0.0
C406 C 0.2158 0.67564 0.59182 0.0
C407 C 0.20339 0.67674 0.512 0.0
C408 C 0.21388 0.64526 0.62098 0.0
C409 C 0.20001 0.61563 0.57039 0.0
C410 C 0.18715 0.61655 0.49127 0.0
C411 C 0.18858 0.64668 0.46261 0.0
H412 H 0.64123 0.15285 0.84885 0.0
H413 H 0.69903 0.25634 0.7491 0.0
H414 H 0.58724 0.15045 0.80909 0.0
H415 H 0.64505 0.25385 0.71025 0.0
H416 H 0.54327 0.25243 0.76202 0.0
H417 H 0.59522 0.25069 0.79991 0.0
H418 H 0.55562 0.15271 0.67435 0.0
H419 H 0.50357 0.1544 0.63549 0.0
C420 C 0.64243 0.17492 0.8177 0.0
C421 C 0.67441 0.20484 0.80237 0.0
C422 C 0.61155 0.17348 0.79493 0.0
C423 C 0.61208 0.20212 0.75766 0.0
C424 C 0.644 0.2316 0.74 0.0
C425 C 0.67487 0.23287 0.76155 0.0
C426 C 0.54534 0.23026 0.74341 0.0
C427 C 0.51932 0.20361 0.69545 0.0
C428 C 0.57523 0.22946 0.76445 0.0
C429 C 0.57951 0.20178 0.73909 0.0
C430 C 0.5529 0.17435 0.6945 0.0
C431 C 0.52318 0.17537 0.6723 0.0
H432 H 0.4381 0.70546 0.93136 0.0
H433 H 0.48223 0.64549 0.0262 0.0
H434 H 0.38721 0.65244 0.88463 0.0
H435 H 0.4313 0.59253 0.97865 0.0
H436 H 0.34655 0.51254 0.79446 0.0
H437 H 0.39969 0.56414 0.83882 0.0
H438 H 0.33933 0.60071 0.96746 0.0
H439 H 0.28628 0.54925 0.92413 0.0
C440 C 0.43718 0.68105 0.94119 0.0
C441 C 0.4641 0.67964 0.98283 0.0
C442 C 0.40795 0.65074 0.91504 0.0
C443 C 0.40532 0.61852 0.92888 0.0
C444 C 0.43279 0.61712 0.96728 0.0
C445 C 0.46183 0.6474 0.99461 0.0
C446 C 0.34463 0.53143 0.83289 0.0
C447 C 0.3122 0.52684 0.85563 0.0
C448 C 0.37501 0.56087 0.85825 0.0
C449 C 0.37345 0.58645 0.9056 0.0
C450 C 0.34113 0.58152 0.92996 0.0
C451 C 0.31081 0.55191 0.90575 0.0
H452 H 0.73008 0.4403 0.08072 0.0
H453 H 0.8284 0.47756 0.20458 0.0
H454 H 0.73214 0.38958 0.03293 0.0
H455 H 0.83041 0.42678 0.15581 0.0
H456 H 0.83116 0.34646 0.96514 0.0
H457 H 0.8327 0.39912 0.01331 0.0
H458 H 0.72988 0.33803 0.11394 0.0
H459 H 0.72825 0.2854 0.06679 0.0
C460 C 0.75234 0.43793 0.09682 0.0
C461 C 0.77902 0.46288 0.14671 0.0
C462 C 0.75334 0.40877 0.07002 0.0
C463 C 0.78127 0.40426 0.09148 0.0
C464 C 0.80862 0.42977 0.13852 0.0
C465 C 0.80739 0.45871 0.16648 0.0
C466 C 0.80901 0.34425 0.9982 0.0
C467 C 0.77954 0.31178 0.01199 0.0
C468 C 0.80996 0.37435 0.02582 0.0
C469 C 0.78128 0.3725 0.06643 0.0
C470 C 0.75215 0.34007 0.08182 0.0
C471 C 0.75138 0.30998 0.05543 0.0
H472 H 0.43971 0.73265 0.25588 0.0
H473 H 0.48537 0.83704 0.16233 0.0
H474 H 0.38818 0.73474 0.29727 0.0
H475 H 0.43387 0.83904 0.2043 0.0
H476 H 0.34603 0.83488 0.37318 0.0
H477 H 0.39976 0.83618 0.33651 0.0
H478 H 0.34136 0.73817 0.21094 0.0
H479 H 0.28766 0.7368 0.24684 0.0
C480 C 0.43904 0.75624 0.24555 0.0
C481 C 0.46657 0.78463 0.20554 0.0
C482 C 0.40941 0.75729 0.26847 0.0
C483 C 0.40696 0.78691 0.253 0.0
C484 C 0.43513 0.8159 0.21689 0.0
C485 C 0.46455 0.81469 0.19283 0.0
C486 C 0.34465 0.81379 0.33693 0.0
C487 C 0.31253 0.78572 0.31301 0.0
C488 C 0.37541 0.81457 0.31602 0.0
C489 C 0.37461 0.78706 0.27193 0.0
C490 C 0.34262 0.75945 0.24614 0.0
C491 C 0.31192 0.75889 0.26593 0.0
loop_
_geom_bond_atom_site_label_1
_geom_bond_atom_site_label_2
_geom_bond_distance
_geom_bond_site_symmetry_2
_ccdc_geom_bond_type
Sc0 O3 2.025 . S
Sc0 O10 2.105 . S
Sc0 O13 2.105 . S
Sc0 O16 2.105 . S
Sc0 O19 2.105 . S
Sc1 O3 2.025 . S
Sc1 O11 2.105 . S
Sc1 O15 2.105 . S
Sc1 O17 2.105 . S
Sc1 O21 2.105 . S
Sc2 O3 2.025 . S
Sc2 O12 2.105 . S
Sc2 O14 2.105 . S
Sc2 O18 2.105 . S
Sc2 O20 2.105 . S
O3 Sc0 2.025 . S
O3 Sc1 2.025 . S
O3 Sc2 2.025 . S
C4 O10 1.268 . S
C4 O20 1.268 . S
C5 O11 1.268 . S
C5 O19 1.268 . S
C6 O12 1.268 . S
C6 O21 1.268 . S
C7 O13 1.268 . S
C7 O17 1.268 . S
C8 O14 1.268 . S
C8 O16 1.268 . S
C9 O15 1.268 . S
C9 O18 1.268 . S
O10 Sc0 2.105 . S
O10 C4 1.268 . S
O11 Sc1 2.105 . S
O11 C5 1.268 . S
O12 Sc2 2.105 . S
O12 C6 1.268 . S
O13 Sc0 2.105 . S
O13 C7 1.268 . S
O14 Sc2 2.105 . S
O14 C8 1.268 . S
O15 Sc1 2.105 . S
O15 C9 1.268 . S
O16 Sc0 2.105 . S
O16 C8 1.268 . S
O17 Sc1 2.105 . S
O17 C7 1.268 . S
O18 Sc2 2.105 . S
O18 C9 1.268 . S
O19 Sc0 2.105 . S
O19 C5 1.268 . S
O20 Sc2 2.105 . S
O20 C4 1.268 . S
O21 Sc1 2.105 . S
O21 C6 1.268 . S
Sc22 O25 2.025 . S
Sc22 O32 2.105 . S
Sc22 O35 2.105 . S
Sc22 O38 2.105 . S
Sc22 O41 2.105 . S
Sc23 O25 2.025 . S
Sc23 O33 2.105 . S
Sc23 O37 2.105 . S
Sc23 O39 2.105 . S
Sc23 O43 2.105 . S
Sc24 O25 2.025 . S
Sc24 O34 2.105 . S
Sc24 O36 2.105 . S
Sc24 O40 2.105 . S
Sc24 O42 2.105 . S
O25 Sc22 2.025 . S
O25 Sc23 2.025 . S
O25 Sc24 2.025 . S
C26 O32 1.268 . S
C26 O42 1.268 . S
C27 O33 1.268 . S
C27 O41 1.268 . S
C28 O34 1.268 . S
C28 O43 1.268 . S
C29 O35 1.268 . S
C29 O39 1.268 . S
C30 O36 1.268 . S
C30 O38 1.268 . S
C31 O37 1.268 . S
C31 O40 1.268 . S
O32 Sc22 2.105 . S
O32 C26 1.268 . S
O33 Sc23 2.105 . S
O33 C27 1.268 . S
O34 Sc24 2.105 . S
O34 C28 1.268 . S
O35 Sc22 2.105 . S
O35 C29 1.268 . S
O36 Sc24 2.105 . S
O36 C30 1.268 . S
O37 Sc23 2.105 . S
O37 C31 1.268 . S
O38 Sc22 2.105 . S
O38 C30 1.268 . S
O39 Sc23 2.105 . S
O39 C29 1.268 . S
O40 Sc24 2.105 . S
O40 C31 1.268 . S
O41 Sc22 2.105 . S
O41 C27 1.268 . S
O42 Sc24 2.105 . S
O42 C26 1.268 . S
O43 Sc23 2.105 . S
O43 C28 1.268 . S
Sc44 O47 2.025 . S
Sc44 O54 2.105 . S
Sc44 O57 2.105 . S
Sc44 O60 2.105 . S
Sc44 O63 2.105 . S
Sc45 O47 2.025 . S
Sc45 O55 2.105 . S
Sc45 O59 2.105 . S
Sc45 O61 2.105 . S
Sc45 O65 2.105 1_556 S
Sc46 O47 2.025 1_554 S
Sc46 O56 2.105 . S
Sc46 O58 2.105 1_554 S
Sc46 O62 2.105 1_554 S
Sc46 O64 2.105 . S
O47 Sc44 2.025 . S
O47 Sc45 2.025 . S
O47 Sc46 2.025 1_556 S
C48 O54 1.268 . S
C48 O64 1.268 1_556 S
C49 O55 1.268 . S
C49 O63 1.268 . S
C50 O56 1.268 . S
C50 O65 1.268 . S
C51 O57 1.268 . S
C51 O61 1.268 . S
C52 O58 1.268 . S
C52 O60 1.268 . S
C53 O59 1.268 . S
C53 O62 1.268 . S
O54 Sc44 2.105 . S
O54 C48 1.268 . S
O55 Sc45 2.105 . S
O55 C49 1.268 . S
O56 Sc46 2.105 . S
O56 C50 1.268 . S
O57 Sc44 2.105 . S
O57 C51 1.268 . S
O58 Sc46 2.105 1_556 S
O58 C52 1.268 . S
O59 Sc45 2.105 . S
O59 C53 1.268 . S
O60 Sc44 2.105 . S
O60 C52 1.268 . S
O61 Sc45 2.105 . S
O61 C51 1.268 . S
O62 Sc46 2.105 1_556 S
O62 C53 1.268 . S
O63 Sc44 2.105 . S
O63 C49 1.268 . S
O64 Sc46 2.105 . S
O64 C48 1.268 1_554 S
O65 Sc45 2.105 1_554 S
O65 C50 1.268 . S
Sc66 O69 2.025 1_556 S
Sc66 O76 2.105 1_556 S
Sc66 O79 2.105 . S
Sc66 O82 2.105 . S
Sc66 O85 2.105 1_556 S
Sc67 O69 2.025 . S
Sc67 O77 2.105 . S
Sc67 O81 2.105 . S
Sc67 O83 2.105 1_554 S
Sc67 O87 2.105 . S
Sc68 O69 2.025 . S
Sc68 O78 2.105 . S
Sc68 O80 2.105 . S
Sc68 O84 2.105 . S
Sc68 O86 2.105 . S
O69 Sc66 2.025 1_554 S
O69 Sc67 2.025 . S
O69 Sc68 2.025 . S
C70 O76 1.268 . S
C70 O86 1.268 . S
C71 O77 1.268 . S
C71 O85 1.268 . S
C72 O78 1.268 . S
C72 O87 1.268 . S
C73 O79 1.268 . S
C73 O83 1.268 . S
C74 O80 1.268 . S
C74 O82 1.268 1_554 S
C75 O81 1.268 . S
C75 O84 1.268 . S
O76 Sc66 2.105 1_554 S
O76 C70 1.268 . S
O77 Sc67 2.105 . S
O77 C71 1.268 . S
O78 Sc68 2.105 . S
O78 C72 1.268 . S
O79 Sc66 2.105 . S
O79 C73 1.268 . S
O80 Sc68 2.105 . S
O80 C74 1.268 . S
O81 Sc67 2.105 . S
O81 C75 1.268 . S
O82 Sc66 2.105 . S
O82 C74 1.268 1_556 S
O83 Sc67 2.105 1_556 S
O83 C73 1.268 . S
O84 Sc68 2.105 . S
O84 C75 1.268 . S
O85 Sc66 2.105 1_554 S
O85 C71 1.268 . S
O86 Sc68 2.105 . S
O86 C70 1.268 . S
O87 Sc67 2.105 . S
O87 C72 1.268 . S
Sc88 O91 2.025 . S
Sc88 O98 2.105 . S
Sc88 O101 2.105 . S
Sc88 O104 2.105 . S
Sc88 O107 2.105 . S
Sc89 O91 2.025 . S
Sc89 O99 2.105 . S
Sc89 O103 2.105 . S
Sc89 O105 2.105 . S
Sc89 O109 2.105 . S
Sc90 O91 2.025 . S
Sc90 O100 2.105 . S
Sc90 O102 2.105 . S
Sc90 O106 2.105 . S
Sc90 O108 2.105 . S
O91 Sc88 2.025 . S
O91 Sc89 2.025 . S
O91 Sc90 2.025 . S
C92 O98 1.268 . S
C92 O108 1.268 . S
C93 O99 1.268 . S
C93 O107 1.268 . S
C94 O100 1.268 . S
C94 O109 1.268 . S
C95 O101 1.268 . S
C95 O105 1.268 . S
C96 O102 1.268 . S
C96 O104 1.268 . S
C97 O103 1.268 . S
C97 O106 1.268 . S
O98 Sc88 2.105 . S
O98 C92 1.268 . S
O99 Sc89 2.105 . S
O99 C93 1.268 . S
O100 Sc90 2.105 . S
O100 C94 1.268 . S
O101 Sc88 2.105 . S
O101 C95 1.268 . S
O102 Sc90 2.105 . S
O102 C96 1.268 . S
O103 Sc89 2.105 . S
O103 C97 1.268 . S
O104 Sc88 2.105 . S
O104 C96 1.268 . S
O105 Sc89 2.105 . S
O105 C95 1.268 . S
O106 Sc90 2.105 . S
O106 C97 1.268 . S
O107 Sc88 2.105 . S
O107 C93 1.268 . S
O108 Sc90 2.105 . S
O108 C92 1.268 . S
O109 Sc89 2.105 . S
O109 C94 1.268 . S
Sc110 O113 2.025 . S
Sc110 O120 2.105 . S
Sc110 O123 2.105 . S
Sc110 O126 2.105 . S
Sc110 O129 2.105 . S
Sc111 O113 2.025 . S
Sc111 O121 2.105 . S
Sc111 O125 2.105 . S
Sc111 O127 2.105 . S
Sc111 O131 2.105 . S
Sc112 O113 2.025 . S
Sc112 O122 2.105 . S
Sc112 O124 2.105 . S
Sc112 O128 2.105 . S
Sc112 O130 2.105 . S
O113 Sc110 2.025 . S
O113 Sc111 2.025 . S
O113 Sc112 2.025 . S
C114 O120 1.268 . S
C114 O130 1.268 . S
C115 O121 1.268 . S
C115 O129 1.268 . S
C116 O122 1.268 . S
C116 O131 1.268 . S
C117 O123 1.268 . S
C117 O127 1.268 . S
C118 O124 1.268 . S
C118 O126 1.268 . S
C119 O125 1.268 . S
C119 O128 1.268 . S
O120 Sc110 2.105 . S
O120 C114 1.268 . S
O121 Sc111 2.105 . S
O121 C115 1.268 . S
O122 Sc112 2.105 . S
O122 C116 1.268 . S
O123 Sc110 2.105 . S
O123 C117 1.268 . S
O124 Sc112 2.105 . S
O124 C118 1.268 . S
O125 Sc111 2.105 . S
O125 C119 1.268 . S
O126 Sc110 2.105 . S
O126 C118 1.268 . S
O127 Sc111 2.105 . S
O127 C117 1.268 . S
O128 Sc112 2.105 . S
O128 C119 1.268 . S
O129 Sc110 2.105 . S
O129 C115 1.268 . S
O130 Sc112 2.105 . S
O130 C114 1.268 . S
O131 Sc111 2.105 . S
O131 C116 1.268 . S
H132 C140 0.950 . S
H133 C145 0.950 . S
H134 C142 0.950 . S
H135 C144 0.950 . S
H136 C146 0.950 . S
H137 C148 0.950 1_554 S
H138 C150 0.950 1_554 S
H139 C151 0.950 . S
C140 H132 0.950 . S
C140 C141 1.386 . S
C140 C142 1.391 . S
C141 C140 1.386 . S
C141 C145 1.393 . S
C142 H134 0.950 . S
C142 C140 1.391 . S
C142 C143 1.400 . S
C143 C142 1.400 . S
C143 C144 1.398 . S
C143 C149 1.491 . S
C144 H135 0.950 . S
C144 C143 1.398 . S
C144 C145 1.391 . S
C145 H133 0.950 . S
C145 C141 1.393 . S
C145 C144 1.391 . S
C146 H136 0.950 . S
C146 C147 1.386 . S
C146 C148 1.391 . S
C147 C146 1.386 . S
C147 C151 1.393 . S
C148 H137 0.950 1_556 S
C148 C146 1.391 . S
C148 C149 1.400 1_556 S
C149 C143 1.491 . S
C149 C148 1.400 1_554 S
C149 C150 1.398 1_554 S
C150 H138 0.950 1_556 S
C150 C149 1.398 1_556 S
C150 C151 1.391 . S
C151 H139 0.950 . S
C151 C147 1.393 . S
C151 C150 1.391 . S
H152 C160 0.950 . S
H153 C165 0.950 . S
H154 C162 0.950 . S
H155 C164 0.950 . S
H156 C166 0.950 . S
H157 C168 0.950 . S
H158 C170 0.950 . S
H159 C171 0.950 . S
C160 H152 0.950 . S
C160 C161 1.386 . S
C160 C162 1.391 . S
C161 C160 1.386 . S
C161 C165 1.393 . S
C162 H154 0.950 . S
C162 C160 1.391 . S
C162 C163 1.400 . S
C163 C162 1.400 . S
C163 C164 1.398 . S
C163 C169 1.491 . S
C164 H155 0.950 . S
C164 C163 1.398 . S
C164 C165 1.391 . S
C165 H153 0.950 . S
C165 C161 1.393 . S
C165 C164 1.391 . S
C166 H156 0.950 . S
C166 C167 1.386 . S
C166 C168 1.391 . S
C167 C166 1.386 . S
C167 C171 1.393 . S
C168 H157 0.950 . S
C168 C166 1.391 . S
C168 C169 1.400 . S
C169 C163 1.491 . S
C169 C168 1.400 . S
C169 C170 1.398 . S
C170 H158 0.950 . S
C170 C169 1.398 . S
C170 C171 1.391 . S
C171 H159 0.950 . S
C171 C167 1.393 . S
C171 C170 1.391 . S
H172 C180 0.950 . S
H173 C185 0.950 . S
H174 C182 0.950 . S
H175 C184 0.950 . S
H176 C186 0.950 . S
H177 C188 0.950 . S
H178 C190 0.950 . S
H179 C191 0.950 . S
C180 H172 0.950 . S
C180 C181 1.386 . S
C180 C182 1.391 . S
C181 C180 1.386 . S
C181 C185 1.393 . S
C182 H174 0.950 . S
C182 C180 1.391 . S
C182 C183 1.400 . S
C183 C182 1.400 . S
C183 C184 1.398 . S
C183 C189 1.491 . S
C184 H175 0.950 . S
C184 C183 1.398 . S
C184 C185 1.391 . S
C185 H173 0.950 . S
C185 C181 1.393 . S
C185 C184 1.391 . S
C186 H176 0.950 . S
C186 C187 1.386 . S
C186 C188 1.391 . S
C187 C186 1.386 . S
C187 C191 1.393 . S
C188 H177 0.950 . S
C188 C186 1.391 . S
C188 C189 1.400 . S
C189 C183 1.491 . S
C189 C188 1.400 . S
C189 C190 1.398 . S
C190 H178 0.950 . S
C190 C189 1.398 . S
C190 C191 1.391 . S
C191 H179 0.950 . S
C191 C187 1.393 . S
C191 C190 1.391 . S
H192 C200 0.950 . S
H193 C205 0.950 . S
H194 C202 0.950 . S
H195 C204 0.950 . S
H196 C206 0.950 . S
H197 C208 0.950 . S
H198 C210 0.950 . S
H199 C211 0.950 . S
C200 H192 0.950 . S
C200 C201 1.386 . S
C200 C202 1.391 . S
C201 C200 1.386 . S
C201 C205 1.393 . S
C202 H194 0.950 . S
C202 C200 1.391 . S
C202 C203 1.400 . S
C203 C202 1.400 . S
C203 C204 1.398 . S
C203 C209 1.491 . S
C204 H195 0.950 . S
C204 C203 1.398 . S
C204 C205 1.391 . S
C205 H193 0.950 . S
C205 C201 1.393 . S
C205 C204 1.391 . S
C206 H196 0.950 . S
C206 C207 1.386 . S
C206 C208 1.391 . S
C207 C206 1.386 . S
C207 C211 1.393 . S
C208 H197 0.950 . S
C208 C206 1.391 . S
C208 C209 1.400 . S
C209 C203 1.491 . S
C209 C208 1.400 . S
C209 C210 1.398 . S
C210 H198 0.950 . S
C210 C209 1.398 . S
C210 C211 1.391 . S
C211 H199 0.950 . S
C211 C207 1.393 . S
C211 C210 1.391 . S
H212 C220 0.950 . S
H213 C225 0.950 . S
H214 C222 0.950 . S
H215 C224 0.950 . S
H216 C226 0.950 . S
H217 C228 0.950 . S
H218 C230 0.950 . S
H219 C231 0.950 . S
C220 H212 0.950 . S
C220 C221 1.386 . S
C220 C222 1.391 . S
C221 C220 1.386 . S
C221 C225 1.393 . S
C222 H214 0.950 . S
C222 C220 1.391 . S
C222 C223 1.400 . S
C223 C222 1.400 . S
C223 C224 1.398 . S
C223 C229 1.491 . S
C224 H215 0.950 . S
C224 C223 1.398 . S
C224 C225 1.391 . S
C225 H213 0.950 . S
C225 C221 1.393 . S
C225 C224 1.391 . S
C226 H216 0.950 . S
C226 C227 1.386 . S
C226 C228 1.391 . S
C227 C226 1.386 . S
C227 C231 1.393 . S
C228 H217 0.950 . S
C228 C226 1.391 . S
C228 C229 1.400 . S
C229 C223 1.491 . S
C229 C228 1.400 . S
C229 C230 1.398 . S
C230 H218 0.950 . S
C230 C229 1.398 . S
C230 C231 1.391 . S
C231 H219 0.950 . S
C231 C227 1.393 . S
C231 C230 1.391 . S
H232 C240 0.950 . S
H233 C245 0.950 . S
H234 C242 0.950 1_556 S
H235 C244 0.950 1_556 S
H236 C246 0.950 . S
H237 C248 0.950 . S
H238 C250 0.950 . S
H239 C251 0.950 . S
C240 H232 0.950 . S
C240 C241 1.386 . S
C240 C242 1.391 . S
C241 C240 1.386 . S
C241 C245 1.393 . S
C242 H234 0.950 1_554 S
C242 C240 1.391 . S
C242 C243 1.400 1_554 S
C243 C242 1.400 1_556 S
C243 C244 1.398 1_556 S
C243 C249 1.491 . S
C244 H235 0.950 1_554 S
C244 C243 1.398 1_554 S
C244 C245 1.391 . S
C245 H233 0.950 . S
C245 C241 1.393 . S
C245 C244 1.391 . S
C246 H236 0.950 . S
C246 C247 1.386 . S
C246 C248 1.391 . S
C247 C246 1.386 . S
C247 C251 1.393 . S
C248 H237 0.950 . S
C248 C246 1.391 . S
C248 C249 1.400 . S
C249 C243 1.491 . S
C249 C248 1.400 . S
C249 C250 1.398 . S
C250 H238 0.950 . S
C250 C249 1.398 . S
C250 C251 1.391 . S
C251 H239 0.950 . S
C251 C247 1.393 . S
C251 C250 1.391 . S
H252 C260 0.950 . S
H253 C265 0.950 . S
H254 C262 0.950 . S
H255 C264 0.950 . S
H256 C266 0.950 . S
H257 C268 0.950 . S
H258 C270 0.950 . S
H259 C271 0.950 . S
C260 H252 0.950 . S
C260 C261 1.386 . S
C260 C262 1.391 . S
C261 C260 1.386 . S
C261 C265 1.393 . S
C262 H254 0.950 . S
C262 C260 1.391 . S
C262 C263 1.400 . S
C263 C262 1.400 . S
C263 C264 1.398 . S
C263 C269 1.491 1_545 S
C264 H255 0.950 . S
C264 C263 1.398 . S
C264 C265 1.391 . S
C265 H253 0.950 . S
C265 C261 1.393 . S
C265 C264 1.391 . S
C266 H256 0.950 . S
C266 C267 1.386 . S
C266 C268 1.391 . S
C267 C266 1.386 . S
C267 C271 1.393 . S
C268 H257 0.950 . S
C268 C266 1.391 . S
C268 C269 1.400 . S
C269 C263 1.491 1_565 S
C269 C268 1.400 . S
C269 C270 1.398 . S
C270 H258 0.950 . S
C270 C269 1.398 . S
C270 C271 1.391 . S
C271 H259 0.950 . S
C271 C267 1.393 . S
C271 C270 1.391 . S
H272 C280 0.950 . S
H273 C285 0.950 . S
H274 C282 0.950 . S
H275 C284 0.950 . S
H276 C286 0.950 . S
H277 C288 0.950 . S
H278 C290 0.950 . S
H279 C291 0.950 . S
C280 H272 0.950 . S
C280 C281 1.386 . S
C280 C282 1.391 . S
C281 C280 1.386 . S
C281 C285 1.393 . S
C282 H274 0.950 . S
C282 C280 1.391 . S
C282 C283 1.400 . S
C283 C282 1.400 . S
C283 C284 1.398 . S
C283 C289 1.491 . S
C284 H275 0.950 . S
C284 C283 1.398 . S
C284 C285 1.391 . S
C285 H273 0.950 . S
C285 C281 1.393 . S
C285 C284 1.391 . S
C286 H276 0.950 . S
C286 C287 1.386 . S
C286 C288 1.391 . S
C287 C286 1.386 . S
C287 C291 1.393 . S
C288 H277 0.950 . S
C288 C286 1.391 . S
C288 C289 1.400 . S
C289 C283 1.491 . S
C289 C288 1.400 . S
C289 C290 1.398 . S
C290 H278 0.950 . S
C290 C289 1.398 . S
C290 C291 1.391 . S
C291 H279 0.950 . S
C291 C287 1.393 . S
C291 C290 1.391 . S
H292 C300 0.950 . S
H293 C305 0.950 . S
H294 C302 0.950 . S
H295 C304 0.950 . S
H296 C306 0.950 . S
H297 C308 0.950 . S
H298 C310 0.950 . S
H299 C311 0.950 . S
C300 H292 0.950 . S
C300 C301 1.386 . S
C300 C302 1.391 . S
C301 C300 1.386 . S
C301 C305 1.393 . S
C302 H294 0.950 . S
C302 C300 1.391 . S
C302 C303 1.400 . S
C303 C302 1.400 . S
C303 C304 1.398 . S
C303 C309 1.491 1_655 S
C304 H295 0.950 . S
C304 C303 1.398 . S
C304 C305 1.391 . S
C305 H293 0.950 . S
C305 C301 1.393 . S
C305 C304 1.391 . S
C306 H296 0.950 . S
C306 C307 1.386 . S
C306 C308 1.391 . S
C307 C306 1.386 . S
C307 C311 1.393 . S
C308 H297 0.950 . S
C308 C306 1.391 . S
C308 C309 1.400 . S
C309 C303 1.491 1_455 S
C309 C308 1.400 . S
C309 C310 1.398 . S
C310 H298 0.950 . S
C310 C309 1.398 . S
C310 C311 1.391 . S
C311 H299 0.950 . S
C311 C307 1.393 . S
C311 C310 1.391 . S
H312 C320 0.950 . S
H313 C325 0.948 1_556 S
H314 C322 0.950 . S
H315 C324 0.950 . S
H316 C326 0.950 . S
H317 C328 0.950 . S
H318 C330 0.950 . S
H319 C331 0.948 1_554 S
C320 H312 0.950 . S
C320 C321 1.386 . S
C320 C322 1.391 . S
C321 C320 1.386 . S
C321 C325 1.396 . S
C322 H314 0.950 . S
C322 C320 1.391 . S
C322 C323 1.400 . S
C323 C322 1.400 . S
C323 C324 1.398 1_554 S
C323 C329 1.491 1_564 S
C324 H315 0.950 . S
C324 C323 1.398 1_556 S
C324 C325 1.389 1_556 S
C325 H313 0.948 1_554 S
C325 C321 1.396 . S
C325 C324 1.389 1_554 S
C326 H316 0.950 . S
C326 C327 1.386 . S
C326 C328 1.391 . S
C327 C326 1.386 . S
C327 C331 1.396 . S
C328 H317 0.950 . S
C328 C326 1.391 . S
C328 C329 1.400 . S
C329 C323 1.491 1_546 S
C329 C328 1.400 . S
C329 C330 1.398 1_556 S
C330 H318 0.950 . S
C330 C329 1.398 1_554 S
C330 C331 1.389 1_554 S
C331 H319 0.948 1_556 S
C331 C327 1.396 . S
C331 C330 1.389 1_556 S
H332 C340 0.950 . S
H333 C345 0.950 . S
H334 C342 0.950 . S
H335 C344 0.950 . S
H336 C346 0.950 . S
H337 C348 0.950 . S
H338 C350 0.950 . S
H339 C351 0.950 . S
C340 H332 0.950 . S
C340 C341 1.386 . S
C340 C342 1.391 . S
C341 C340 1.386 . S
C341 C345 1.393 . S
C342 H334 0.950 . S
C342 C340 1.391 . S
C342 C343 1.400 . S
C343 C342 1.400 . S
C343 C344 1.398 . S
C343 C349 1.491 . S
C344 H335 0.950 . S
C344 C343 1.398 . S
C344 C345 1.391 . S
C345 H333 0.950 . S
C345 C341 1.393 . S
C345 C344 1.391 . S
C346 H336 0.950 . S
C346 C347 1.386 . S
C346 C348 1.391 . S
C347 C346 1.386 . S
C347 C351 1.393 . S
C348 H337 0.950 . S
C348 C346 1.391 . S
C348 C349 1.400 . S
C349 C343 1.491 . S
C349 C348 1.400 . S
C349 C350 1.398 . S
C350 H338 0.950 . S
C350 C349 1.398 . S
C350 C351 1.391 . S
C351 H339 0.950 . S
C351 C347 1.393 . S
C351 C350 1.391 . S
H352 C360 0.950 . S
H353 C365 0.950 . S
H354 C362 0.950 . S
H355 C364 0.950 . S
H356 C366 0.950 . S
H357 C368 0.950 . S
H358 C370 0.950 . S
H359 C371 0.950 . S
C360 H352 0.950 . S
C360 C361 1.386 . S
C360 C362 1.391 . S
C361 C360 1.386 . S
C361 C365 1.393 . S
C362 H354 0.950 . S
C362 C360 1.391 . S
C362 C363 1.400 . S
C363 C362 1.400 . S
C363 C364 1.398 . S
C363 C369 1.491 1_655 S
C364 H355 0.950 . S
C364 C363 1.398 . S
C364 C365 1.391 . S
C365 H353 0.950 . S
C365 C361 1.393 . S
C365 C364 1.391 . S
C366 H356 0.950 . S
C366 C367 1.386 . S
C366 C368 1.391 . S
C367 C366 1.386 . S
C367 C371 1.393 . S
C368 H357 0.950 . S
C368 C366 1.391 . S
C368 C369 1.400 . S
C369 C363 1.491 1_455 S
C369 C368 1.400 . S
C369 C370 1.398 . S
C370 H358 0.950 . S
C370 C369 1.398 . S
C370 C371 1.391 . S
C371 H359 0.950 . S
C371 C367 1.393 . S
C371 C370 1.391 . S
H372 C380 0.950 . S
H373 C385 0.950 . S
H374 C382 0.950 . S
H375 C384 0.950 . S
H376 C386 0.950 . S
H377 C388 0.950 . S
H378 C390 0.950 . S
H379 C391 0.950 . S
C380 H372 0.950 . S
C380 C381 1.386 . S
C380 C382 1.391 . S
C381 C380 1.386 . S
C381 C385 1.393 . S
C382 H374 0.950 . S
C382 C380 1.391 . S
C382 C383 1.400 . S
C383 C382 1.400 . S
C383 C384 1.398 . S
C383 C389 1.491 . S
C384 H375 0.950 . S
C384 C383 1.398 . S
C384 C385 1.391 . S
C385 H373 0.950 . S
C385 C381 1.393 . S
C385 C384 1.391 . S
C386 H376 0.950 . S
C386 C387 1.386 . S
C386 C388 1.391 . S
C387 C386 1.386 . S
C387 C391 1.393 . S
C388 H377 0.950 . S
C388 C386 1.391 . S
C388 C389 1.400 . S
C389 C383 1.491 . S
C389 C388 1.400 . S
C389 C390 1.398 . S
C390 H378 0.950 . S
C390 C389 1.398 . S
C390 C391 1.391 . S
C391 H379 0.950 . S
C391 C387 1.393 . S
C391 C390 1.391 . S
H392 C400 0.950 . S
H393 C405 0.950 . S
H394 C402 0.950 . S
H395 C404 0.950 . S
H396 C406 0.950 . S
H397 C408 0.950 . S
H398 C410 0.950 . S
H399 C411 0.950 . S
C400 H392 0.950 . S
C400 C401 1.386 . S
C400 C402 1.391 . S
C401 C400 1.386 . S
C401 C405 1.393 . S
C402 H394 0.950 . S
C402 C400 1.391 . S
C402 C403 1.400 . S
C403 C402 1.400 . S
C403 C404 1.398 . S
C403 C409 1.491 . S
C404 H395 0.950 . S
C404 C403 1.398 . S
C404 C405 1.391 . S
C405 H393 0.950 . S
C405 C401 1.393 . S
C405 C404 1.391 . S
C406 H396 0.950 . S
C406 C407 1.386 . S
C406 C408 1.391 . S
C407 C406 1.386 . S
C407 C411 1.393 . S
C408 H397 0.950 . S
C408 C406 1.391 . S
C408 C409 1.400 . S
C409 C403 1.491 . S
C409 C408 1.400 . S
C409 C410 1.398 . S
C410 H398 0.950 . S
C410 C409 1.398 . S
C410 C411 1.391 . S
C411 H399 0.950 . S
C411 C407 1.393 . S
C411 C410 1.391 . S
H412 C420 0.950 . S
H413 C425 0.950 . S
H414 C422 0.950 . S
H415 C424 0.950 . S
H416 C426 0.950 . S
H417 C428 0.950 . S
H418 C430 0.950 . S
H419 C431 0.950 . S
C420 H412 0.950 . S
C420 C421 1.386 . S
C420 C422 1.391 . S
C421 C420 1.386 . S
C421 C425 1.393 . S
C422 H414 0.950 . S
C422 C420 1.391 . S
C422 C423 1.400 . S
C423 C422 1.400 . S
C423 C424 1.398 . S
C423 C429 1.491 . S
C424 H415 0.950 . S
C424 C423 1.398 . S
C424 C425 1.391 . S
C425 H413 0.950 . S
C425 C421 1.393 . S
C425 C424 1.391 . S
C426 H416 0.950 . S
C426 C427 1.386 . S
C426 C428 1.391 . S
C427 C426 1.386 . S
C427 C431 1.393 . S
C428 H417 0.950 . S
C428 C426 1.391 . S
C428 C429 1.400 . S
C429 C423 1.491 . S
C429 C428 1.400 . S
C429 C430 1.398 . S
C430 H418 0.950 . S
C430 C429 1.398 . S
C430 C431 1.391 . S
C431 H419 0.950 . S
C431 C427 1.393 . S
C431 C430 1.391 . S
H432 C440 0.950 . S
H433 C445 0.950 . S
H434 C442 0.950 . S
H435 C444 0.950 1_554 S
H436 C446 0.950 . S
H437 C448 0.950 . S
H438 C450 0.950 . S
H439 C451 0.950 . S
C440 H432 0.950 . S
C440 C441 1.386 . S
C440 C442 1.391 . S
C441 C440 1.386 . S
C441 C445 1.393 1_556 S
C442 H434 0.950 . S
C442 C440 1.391 . S
C442 C443 1.400 . S
C443 C442 1.400 . S
C443 C444 1.398 . S
C443 C449 1.491 . S
C444 H435 0.950 1_556 S
C444 C443 1.398 . S
C444 C445 1.391 1_556 S
C445 H433 0.950 . S
C445 C441 1.393 1_554 S
C445 C444 1.391 1_554 S
C446 H436 0.950 . S
C446 C447 1.386 . S
C446 C448 1.391 . S
C447 C446 1.386 . S
C447 C451 1.393 . S
C448 H437 0.950 . S
C448 C446 1.391 . S
C448 C449 1.400 . S
C449 C443 1.491 . S
C449 C448 1.400 . S
C449 C450 1.398 . S
C450 H438 0.950 . S
C450 C449 1.398 . S
C450 C451 1.391 . S
C451 H439 0.950 . S
C451 C447 1.393 . S
C451 C450 1.391 . S
H452 C460 0.950 . S
H453 C465 0.950 . S
H454 C462 0.950 . S
H455 C464 0.950 . S
H456 C466 0.950 . S
H457 C468 0.950 . S
H458 C470 0.950 . S
H459 C471 0.950 . S
C460 H452 0.950 . S
C460 C461 1.386 . S
C460 C462 1.391 . S
C461 C460 1.386 . S
C461 C465 1.393 . S
C462 H454 0.950 . S
C462 C460 1.391 . S
C462 C463 1.400 . S
C463 C462 1.400 . S
C463 C464 1.398 . S
C463 C469 1.491 . S
C464 H455 0.950 . S
C464 C463 1.398 . S
C464 C465 1.391 . S
C465 H453 0.950 . S
C465 C461 1.393 . S
C465 C464 1.391 . S
C466 H456 0.950 . S
C466 C467 1.386 . S
C466 C468 1.391 . S
C467 C466 1.386 . S
C467 C471 1.393 . S
C468 H457 0.950 . S
C468 C466 1.391 . S
C468 C469 1.400 . S
C469 C463 1.491 . S
C469 C468 1.400 . S
C469 C470 1.398 . S
C470 H458 0.950 . S
C470 C469 1.398 . S
C470 C471 1.391 . S
C471 H459 0.950 . S
C471 C467 1.393 . S
C471 C470 1.391 . S
H472 C480 0.950 . S
H473 C485 0.950 . S
H474 C482 0.950 . S
H475 C484 0.950 . S
H476 C486 0.950 . S
H477 C488 0.950 . S
H478 C490 0.950 . S
H479 C491 0.950 . S
C480 H472 0.950 . S
C480 C481 1.386 . S
C480 C482 1.391 . S
C481 C480 1.386 . S
C481 C485 1.393 . S
C482 H474 0.950 . S
C482 C480 1.391 . S
C482 C483 1.400 . S
C483 C482 1.400 . S
C483 C484 1.398 . S
C483 C489 1.491 . S
C484 H475 0.950 . S
C484 C483 1.398 . S
C484 C485 1.391 . S
C485 H473 0.950 . S
C485 C481 1.393 . S
C485 C484 1.391 . S
C486 H476 0.950 . S
C486 C487 1.386 . S
C486 C488 1.391 . S
C487 C486 1.386 . S
C487 C491 1.393 . S
C488 H477 0.950 . S
C488 C486 1.391 . S
C488 C489 1.400 . S
C489 C483 1.491 . S
C489 C488 1.400 . S
C489 C490 1.398 . S
C490 H478 0.950 . S
C490 C489 1.398 . S
C490 C491 1.391 . S
C491 H479 0.950 . S
C491 C487 1.393 . S
C491 C490 1.391 . S
C141 C7 1.480 . S
C147 C6 1.469 . S
C161 C29 1.483 . S
C167 C28 1.491 1_554 S
C181 C50 1.491 . S
C187 C51 1.490 . S
C201 C72 1.477 . S
C207 C73 1.467 . S
C221 C94 1.482 . S
C227 C95 1.470 1_556 S
C241 C117 1.478 . S
C247 C116 1.489 . S
C261 C5 1.664 . S
C267 C119 1.665 . S
C281 C9 1.662 . S
C287 C27 1.651 . S
C301 C49 1.652 . S
C307 C31 1.663 . S
C321 C71 1.644 . S
C327 C53 1.649 . S
C341 C93 1.657 . S
C347 C75 1.666 . S
C361 C97 1.653 . S
C367 C115 1.664 . S
C381 C8 1.245 . S
C387 C92 1.264 . S
C401 C30 1.265 . S
C407 C114 1.247 . S
C421 C52 1.247 . S
C427 C4 1.238 . S
C441 C74 1.265 1_556 S
C447 C26 1.250 . S
C461 C96 1.264 . S
C467 C48 1.258 1_554 S
C481 C70 1.258 . S
C487 C118 1.264 . S
