# Generated by pormake.
# Topology yfx, (5)-cn, num edge types: 1
# Building blocks:
#     Node 0, Type 0, BuildingBlock: XOMCOT_clean_sbu_1, # of connection points: 5
#     Node 1, Type 0, BuildingBlock: XOMCOT_clean_sbu_1, # of connection points: 5
#     Node 2, Type 0, BuildingBlock: XOMCOT_clean_sbu_1, # of connection points: 5
#     Node 3, Type 0, BuildingBlock: XOMCOT_clean_sbu_1, # of connection points: 5
#     Node 4, Type 0, BuildingBlock: XOMCOT_clean_sbu_1, # of connection points: 5
#     Node 5, Type 0, BuildingBlock: XOMCOT_clean_sbu_1, # of connection points: 5
#     Node 6, Type 0, BuildingBlock: XOMCOT_clean_sbu_1, # of connection points: 5
#     Node 7, Type 0, BuildingBlock: XOMCOT_clean_sbu_1, # of connection points: 5
#     Edge 8, Type (0, 0), BuildingBlock: ZUJKAS_clean_linker_0, # of connection points: 2
#     Edge 9, Type (0, 0), BuildingBlock: ZUJKAS_clean_linker_0, # of connection points: 2
#     Edge 10, Type (0, 0), BuildingBlock: ZUJKAS_clean_linker_0, # of connection points: 2
#     Edge 11, Type (0, 0), BuildingBlock: ZUJKAS_clean_linker_0, # of connection points: 2
#     Edge 12, Type (0, 0), BuildingBlock: ZUJKAS_clean_linker_0, # of connection points: 2
#     Edge 13, Type (0, 0), BuildingBlock: ZUJKAS_clean_linker_0, # of connection points: 2
#     Edge 14, Type (0, 0), BuildingBlock: ZUJKAS_clean_linker_0, # of connection points: 2
#     Edge 15, Type (0, 0), BuildingBlock: ZUJKAS_clean_linker_0, # of connection points: 2
#     Edge 16, Type (0, 0), BuildingBlock: ZUJKAS_clean_linker_0, # of connection points: 2
#     Edge 17, Type (0, 0), BuildingBlock: ZUJKAS_clean_linker_0, # of connection points: 2
#     Edge 18, Type (0, 0), BuildingBlock: ZUJKAS_clean_linker_0, # of connection points: 2
#     Edge 19, Type (0, 0), BuildingBlock: ZUJKAS_clean_linker_0, # of connection points: 2
#     Edge 20, Type (0, 0), BuildingBlock: ZUJKAS_clean_linker_0, # of connection points: 2
#     Edge 21, Type (0, 0), BuildingBlock: ZUJKAS_clean_linker_0, # of connection points: 2
#     Edge 22, Type (0, 0), BuildingBlock: ZUJKAS_clean_linker_0, # of connection points: 2
#     Edge 23, Type (0, 0), BuildingBlock: ZUJKAS_clean_linker_0, # of connection points: 2
#     Edge 24, Type (0, 0), BuildingBlock: ZUJKAS_clean_linker_0, # of connection points: 2
#     Edge 25, Type (0, 0), BuildingBlock: ZUJKAS_clean_linker_0, # of connection points: 2
#     Edge 26, Type (0, 0), BuildingBlock: ZUJKAS_clean_linker_0, # of connection points: 2
#     Edge 27, Type (0, 0), BuildingBlock: ZUJKAS_clean_linker_0, # of connection points: 2
# Relax obj value: 0.122
# Max RMSD: 0.118
# Mean RMSD: 0.118
data_MOF--net-yfx--node1-XOMCOT_clean_sbu_1--edge1-ZUJKAS_clean_linker_0
_symmetry_space_group_name_H-M    P1
_symmetry_Int_Tables_number       1
_symmetry_cell_setting            triclinic
loop_
_symmetry_equiv_pos_as_xyz
'x, y, z'
_cell_length_a     45.254872
_cell_length_b     45.20201
_cell_length_c     35.64187
_cell_angle_alpha  89.912076
_cell_angle_beta   89.98452
_cell_angle_gamma 89.819997
loop_
_atom_site_label
_atom_site_type_symbol
_atom_site_fract_x
_atom_site_fract_y
_atom_site_fract_z
_atom_type_partial_charge
C0 C 0.26879 0.38924 0.9676 0.0
C1 C 0.29824 0.38178 0.96857 0.0
N2 N 0.30371 0.36729 1.00096 0.0
N3 N 0.25567 0.37968 0.99926 0.0
C4 C 0.27749 0.36648 0.01909 0.0
H5 H 0.25747 0.40032 0.94484 0.0
Co6 Co 0.21541 0.38298 1.00878 0.0
C7 C 0.21134 0.36724 0.08826 0.0
O8 O 0.19561 0.39144 0.09303 0.0
N9 N 0.17453 0.38657 0.01748 0.0
C10 C 0.12748 0.37642 0.0298 0.0
C11 C 0.15562 0.3649 0.02727 0.0
C12 C 0.15732 0.41096 1.014 0.0
N13 N 0.1285 0.40555 0.02147 0.0
O14 O 0.22289 0.41912 0.03503 0.0
H15 H 0.16187 0.34209 0.03202 0.0
H16 H 0.16582 0.43237 1.00629 0.0
O17 O 0.2201 0.36027 0.05533 0.0
C18 C 0.22457 0.4413 1.01306 0.0
O19 O 0.21876 0.43734 0.97729 0.0
N20 N 0.20924 0.34914 0.97987 0.0
C21 C 0.21314 0.3078 0.92178 0.0
C22 C 0.22282 0.30069 0.95828 0.0
C23 C 0.22083 0.3218 0.987 0.0
C24 C 0.19811 0.35581 0.94541 0.0
C25 C 0.19975 0.33551 0.91603 0.0
H26 H 0.23046 0.31684 1.01404 0.0
H27 H 0.18993 0.37792 0.93995 0.0
H28 H 0.27406 0.35545 0.04562 0.0
H29 H 0.31424 0.38646 0.94681 0.0
H30 H 0.10781 0.36401 0.03667 0.0
H31 H 0.23301 0.27951 0.96426 0.0
H32 H 0.19243 0.34242 0.88846 0.0
C33 C 0.62103 0.26675 0.97237 0.0
C34 C 0.62709 0.29654 0.97346 0.0
N35 N 0.64395 0.30195 1.00387 0.0
N36 N 0.63387 0.25339 1.00197 0.0
C37 C 0.6476 0.2754 0.0207 0.0
H38 H 0.60853 0.25543 0.95092 0.0
Co39 Co 0.63307 0.21281 1.01082 0.0
C40 C 0.67747 0.20736 0.07405 0.0
O41 O 0.6927 0.18612 0.05806 0.0
N42 N 0.63159 0.17099 0.01913 0.0
C43 C 0.64225 0.12272 0.01877 0.0
C44 C 0.65323 0.15071 1.0136 0.0
C45 C 0.60759 0.1543 0.02753 0.0
N46 N 0.61338 0.12492 0.0273 0.0
O47 O 0.59724 0.21851 0.03824 0.0
H48 H 0.6755 0.15555 1.00465 0.0
H49 H 0.58579 0.16324 0.03205 0.0
O50 O 0.65501 0.21844 0.05746 0.0
C51 C 0.57441 0.21842 0.01735 0.0
O52 O 0.57745 0.21065 0.98202 0.0
N53 N 0.66679 0.20897 0.98063 0.0
C54 C 0.70599 0.21445 0.92053 0.0
C55 C 0.71302 0.22625 0.95585 0.0
C56 C 0.69289 0.22357 0.98556 0.0
C57 C 0.66025 0.19634 0.94698 0.0
C58 C 0.67967 0.19844 0.91677 0.0
H59 H 0.69734 0.23521 1.01135 0.0
H60 H 0.63895 0.18601 0.94297 0.0
H61 H 0.66112 0.27191 0.04529 0.0
H62 H 0.61982 0.31282 0.95316 0.0
H63 H 0.65458 0.10234 1.01555 0.0
H64 H 0.73282 0.23928 0.95976 0.0
H65 H 0.67341 0.18884 0.89012 0.0
C66 C 0.7442 0.62443 0.96516 0.0
C67 C 0.71461 0.63125 0.96677 0.0
N68 N 0.70945 0.64675 0.99845 0.0
N69 N 0.75776 0.63536 0.99572 0.0
C70 C 0.73605 0.64876 1.01552 0.0
H71 H 0.75527 0.61266 0.94279 0.0
Co72 Co 0.79817 0.63259 1.00457 0.0
C73 C 0.80309 0.64874 0.08368 0.0
O74 O 0.81903 0.62468 0.08843 0.0
N75 N 0.8392 0.62946 1.01271 0.0
C76 C 0.8863 0.64019 0.02426 0.0
C77 C 0.85803 0.65145 0.02166 0.0
C78 C 0.85657 0.60513 1.00991 0.0
N79 N 0.8853 0.61098 0.01697 0.0
O80 O 0.79124 0.59654 0.0314 0.0
H81 H 0.85159 0.67425 0.02604 0.0
H82 H 0.84856 0.58353 1.00219 0.0
O83 O 0.79378 0.65544 0.05088 0.0
C84 C 0.79005 0.57389 1.01028 0.0
O85 O 0.79608 0.5771 0.97443 0.0
N86 N 0.80371 0.66647 0.97524 0.0
C87 C 0.79966 0.70794 0.91719 0.0
C88 C 0.78887 0.71451 0.95328 0.0
C89 C 0.79108 0.6934 0.98204 0.0
C90 C 0.81572 0.66031 0.94111 0.0
C91 C 0.81412 0.68075 0.91179 0.0
H92 H 0.78081 0.69795 1.0088 0.0
H93 H 0.82476 0.63852 0.93585 0.0
H94 H 0.73983 0.66062 0.04132 0.0
H95 H 0.6983 0.62529 0.94596 0.0
H96 H 0.90597 0.65251 0.03145 0.0
H97 H 0.77771 0.73528 0.95885 0.0
H98 H 0.82234 0.67437 0.88443 0.0
C99 C 0.38309 0.74831 0.96602 0.0
C100 C 0.3766 0.71868 0.9688 0.0
N101 N 0.36715 0.71306 1.00402 0.0
N102 N 0.37767 0.7614 0.99922 0.0
C103 C 0.36837 0.73936 0.02192 0.0
H104 H 0.39022 0.75987 0.94103 0.0
Co105 Co 0.38021 0.80186 1.00798 0.0
C106 C 0.33482 0.80804 0.06991 0.0
O107 O 0.31886 0.82766 0.05179 0.0
N108 N 0.38349 0.84347 0.0165 0.0
C109 C 0.37465 0.89207 0.01909 0.0
C110 C 0.36248 0.86468 1.01301 0.0
C111 C 0.40835 0.85895 0.02447 0.0
N112 N 0.4036 0.88846 0.02615 0.0
O113 O 0.41585 0.79464 0.03519 0.0
H114 H 0.33987 0.86098 1.00466 0.0
H115 H 0.42981 0.84904 0.02857 0.0
O116 O 0.35805 0.79725 0.05477 0.0
C117 C 0.43823 0.79286 1.01363 0.0
O118 O 0.43478 0.79909 0.97785 0.0
N119 N 0.34646 0.80722 0.97785 0.0
C120 C 0.3074 0.80275 0.91727 0.0
C121 C 0.3011 0.7889 0.95169 0.0
C122 C 0.32105 0.79121 0.9816 0.0
C123 C 0.35231 0.82174 0.94516 0.0
C124 C 0.33286 0.82032 0.91489 0.0
H125 H 0.31729 0.77805 1.00646 0.0
H126 H 0.37316 0.83307 0.94173 0.0
H127 H 0.36199 0.74262 0.05081 0.0
H128 H 0.37747 0.70288 0.94606 0.0
H129 H 0.36329 0.91309 0.01667 0.0
H130 H 0.28211 0.77458 0.95469 0.0
H131 H 0.33856 0.83172 0.88916 0.0
C132 C 0.77005 0.89539 0.4713 0.0
C133 C 0.79954 0.8882 0.47331 0.0
N134 N 0.80353 0.86948 0.50239 0.0
N135 N 0.75544 0.88145 0.49905 0.0
C136 C 0.77642 0.86585 0.51756 0.0
H137 H 0.7598 0.90941 0.4504 0.0
Co138 Co 0.71471 0.88322 0.50566 0.0
C139 C 0.70514 0.84038 0.56998 0.0
O140 O 0.68217 0.82772 0.55442 0.0
N141 N 0.67262 0.88573 0.51153 0.0
C142 C 0.62423 0.87689 0.50653 0.0
C143 C 0.65211 0.86525 0.50231 0.0
C144 C 0.65617 0.90971 0.52132 0.0
N145 N 0.62675 0.90503 0.51826 0.0
O146 O 0.72002 0.91915 0.53303 0.0
H147 H 0.6568 0.84331 0.49187 0.0
H148 H 0.66536 0.93058 0.53001 0.0
O149 O 0.71857 0.86122 0.55283 0.0
C150 C 0.72022 0.94186 0.51181 0.0
O151 O 0.713 0.93853 0.47634 0.0
N152 N 0.71144 0.84948 0.47539 0.0
C153 C 0.71754 0.80906 0.41639 0.0
C154 C 0.72629 0.80153 0.4531 0.0
C155 C 0.72336 0.82221 0.4822 0.0
C156 C 0.70214 0.85687 0.44025 0.0
C157 C 0.70473 0.83701 0.41051 0.0
H158 H 0.73243 0.81687 0.50939 0.0
H159 H 0.69409 0.87904 0.4349 0.0
H160 H 0.77179 0.85112 0.54071 0.0
H161 H 0.81661 0.89602 0.45454 0.0
H162 H 0.60375 0.86584 0.49969 0.0
H163 H 0.73632 0.78027 0.45909 0.0
H164 H 0.69836 0.84432 0.38272 0.0
C165 C 0.12331 0.7683 0.46969 0.0
C166 C 0.12945 0.79801 0.47188 0.0
N167 N 0.14559 0.80287 0.50309 0.0
N168 N 0.13529 0.75436 0.49943 0.0
C169 C 0.14864 0.77598 0.51933 0.0
H170 H 0.11128 0.75744 0.44745 0.0
Co171 Co 0.13361 0.71365 0.50721 0.0
C172 C 0.17647 0.70684 0.57207 0.0
O173 O 0.19234 0.6863 0.55563 0.0
N174 N 0.13115 0.67176 0.51436 0.0
C175 C 0.14115 0.62327 0.51552 0.0
C176 C 0.15277 0.65111 0.51095 0.0
C177 C 0.10645 0.65543 0.52025 0.0
N178 N 0.11195 0.62608 0.5211 0.0
O179 O 0.09708 0.71949 0.53319 0.0
H180 H 0.17546 0.65557 0.50358 0.0
H181 H 0.08452 0.66452 0.52324 0.0
O182 O 0.15429 0.7182 0.55514 0.0
C183 C 0.07473 0.72039 0.5115 0.0
O184 O 0.07845 0.71364 0.47594 0.0
N185 N 0.16818 0.70964 0.47853 0.0
C186 C 0.20964 0.71492 0.42078 0.0
C187 C 0.21512 0.72715 0.45632 0.0
C188 C 0.19398 0.72444 0.48483 0.0
C189 C 0.16294 0.69685 0.44459 0.0
C190 C 0.1835 0.69885 0.41555 0.0
H191 H 0.19752 0.73608 0.51085 0.0
H192 H 0.1418 0.68656 0.43931 0.0
H193 H 0.16136 0.77193 0.54446 0.0
H194 H 0.12263 0.81459 0.45174 0.0
H195 H 0.15296 0.60251 0.51294 0.0
H196 H 0.23493 0.73987 0.46154 0.0
H197 H 0.17794 0.68966 0.38842 0.0
C198 C 0.24409 0.13161 0.46734 0.0
C199 C 0.21453 0.13844 0.47007 0.0
N200 N 0.20886 0.14737 0.50547 0.0
N201 N 0.25708 0.13628 0.50077 0.0
C202 C 0.23505 0.14553 0.52353 0.0
H203 H 0.25567 0.12472 0.44226 0.0
Co204 Co 0.29739 0.1331 0.50972 0.0
C205 C 0.30181 0.14955 0.58884 0.0
O206 O 0.31758 0.12543 0.59401 0.0
N207 N 0.33829 0.12966 0.51811 0.0
C208 C 0.3852 0.13993 0.53123 0.0
C209 C 0.35704 0.15136 0.52831 0.0
C210 C 0.35561 0.10535 0.51471 0.0
N211 N 0.38427 0.11089 0.52274 0.0
O212 O 0.29015 0.09721 0.53664 0.0
H213 H 0.35059 0.17405 0.53348 0.0
H214 H 0.3475 0.08401 0.50595 0.0
O215 O 0.29293 0.15621 0.55584 0.0
C216 C 0.28821 0.0748 0.51523 0.0
O217 O 0.29324 0.07834 0.47917 0.0
N218 N 0.30334 0.16686 0.48025 0.0
C219 C 0.29902 0.20786 0.42162 0.0
C220 C 0.28821 0.21464 0.45767 0.0
C221 C 0.29046 0.19373 0.48667 0.0
C222 C 0.31553 0.16057 0.44625 0.0
C223 C 0.31373 0.18075 0.41663 0.0
H224 H 0.27994 0.19832 0.51326 0.0
H225 H 0.32471 0.1388 0.44125 0.0
H226 H 0.23821 0.15125 0.55266 0.0
H227 H 0.19881 0.13813 0.44721 0.0
H228 H 0.40471 0.15203 0.53956 0.0
H229 H 0.27694 0.23537 0.46304 0.0
H230 H 0.32199 0.17415 0.38938 0.0
C231 C 0.87988 0.24831 0.4646 0.0
C232 C 0.87346 0.21863 0.46688 0.0
N233 N 0.86589 0.21223 0.50261 0.0
N234 N 0.87618 0.26067 0.49863 0.0
C235 C 0.8682 0.23809 0.52133 0.0
H236 H 0.88559 0.26043 0.43945 0.0
Co237 Co 0.87907 0.30098 0.50902 0.0
C238 C 0.83094 0.30044 0.56914 0.0
O239 O 0.81095 0.31391 0.54854 0.0
N240 N 0.88319 0.34182 0.51946 0.0
C241 C 0.877 0.38829 0.53888 0.0
C242 C 0.86375 0.36119 0.5346 0.0
C243 C 0.9079 0.35813 0.51389 0.0
N244 N 0.90477 0.3863 0.52583 0.0
O245 O 0.91479 0.29293 0.53584 0.0
H246 H 0.84126 0.35648 0.54196 0.0
H247 H 0.9281 0.34949 0.50199 0.0
O248 O 0.85675 0.29533 0.55594 0.0
C249 C 0.93668 0.28996 0.51369 0.0
O250 O 0.9324 0.29451 0.47765 0.0
N251 N 0.84506 0.308 0.47912 0.0
C252 C 0.80601 0.30777 0.41809 0.0
C253 C 0.80166 0.28881 0.44877 0.0
C254 C 0.82155 0.28904 0.47873 0.0
C255 C 0.8488 0.32758 0.45032 0.0
C256 C 0.82939 0.32806 0.4198 0.0
H257 H 0.8192 0.27236 0.50025 0.0
H258 H 0.86821 0.34144 0.4494 0.0
H259 H 0.86342 0.24072 0.55084 0.0
H260 H 0.87296 0.20338 0.44353 0.0
H261 H 0.8669 0.40804 0.55038 0.0
H262 H 0.78439 0.27228 0.44846 0.0
H263 H 0.8336 0.3432 0.39685 0.0
H264 H 0.52092 0.20927 0.98522 0.0
H265 H 0.4746 0.23451 0.99945 0.0
H266 H 0.51582 0.27832 0.09313 0.0
H267 H 0.56269 0.25309 0.07883 0.0
H268 H 0.43786 0.23976 0.0652 0.0
H269 H 0.48971 0.34592 0.02063 0.0
H270 H 0.50668 0.31056 1.01107 0.0
H271 H 0.50732 0.32538 0.05772 0.0
C272 C 0.52007 0.22387 1.00928 0.0
C273 C 0.54551 0.22948 0.03066 0.0
C274 C 0.49353 0.23819 0.01745 0.0
C275 C 0.49192 0.25857 0.04699 0.0
C276 C 0.51675 0.26288 0.06995 0.0
H277 H 0.32072 0.35214 0.07183 0.0
H278 H 0.36646 0.3269 0.09018 0.0
C279 C 0.54341 0.24834 0.06189 0.0
C280 C 0.46501 0.27707 0.05075 0.0
H281 H 0.43849 0.3459 0.02961 0.0
C282 C 0.43797 0.26314 0.05829 0.0
C283 C 0.46533 0.30747 0.04127 0.0
C284 C 0.49371 0.32335 0.03197 0.0
C285 C 0.41107 0.27852 0.05495 0.0
C286 C 0.41137 0.30858 0.04395 0.0
C287 C 0.43846 0.32286 0.03816 0.0
C288 C 0.38389 0.32452 0.03377 0.0
C289 C 0.38246 0.26214 0.06094 0.0
C290 C 0.37879 0.33187 0.99611 0.0
C291 C 0.35269 0.34607 0.98547 0.0
C292 C 0.33112 0.35345 1.01233 0.0
C293 C 0.33656 0.34644 0.05027 0.0
C294 C 0.36273 0.33209 0.06088 0.0
H295 H 0.38601 0.23804 0.06528 0.0
H296 H 0.37104 0.27117 0.086 0.0
H297 H 0.36761 0.26534 0.03645 0.0
H298 H 0.39485 0.32611 0.97476 0.0
H299 H 0.34926 0.35063 0.956 0.0
H300 H 0.65544 0.34885 0.95857 0.0
H301 H 0.6798 0.39484 0.9757 0.0
H302 H 0.68808 0.36445 0.08992 0.0
H303 H 0.66318 0.31829 0.07321 0.0
H304 H 0.66378 0.4375 0.03222 0.0
H305 H 0.77391 0.38551 0.05697 0.0
H306 H 0.74495 0.36678 0.03163 0.0
H307 H 0.74268 0.37044 0.08165 0.0
C308 C 0.66198 0.35196 0.98747 0.0
C309 C 0.65735 0.32968 1.01443 0.0
C310 C 0.67606 0.37827 0.99718 0.0
C311 C 0.68597 0.38291 0.03396 0.0
C312 C 0.68096 0.36109 0.06123 0.0
H313 H 0.75815 0.56207 0.0742 0.0
H314 H 0.73369 0.51518 0.09015 0.0
C315 C 0.66679 0.33469 0.05156 0.0
C316 C 0.70207 0.41049 0.04296 0.0
H317 H 0.77142 0.43735 0.0585 0.0
C318 C 0.6872 0.43756 0.03873 0.0
C319 C 0.73261 0.41033 0.05132 0.0
C320 C 0.74968 0.38179 0.05551 0.0
C321 C 0.70236 0.46455 0.04076 0.0
C322 C 0.73317 0.46438 0.04756 0.0
C323 C 0.74776 0.43735 0.05363 0.0
C324 C 0.75113 0.49141 0.0423 0.0
C325 C 0.68572 0.49293 0.03317 0.0
C326 C 0.76994 0.49312 1.01114 0.0
C327 C 0.7838 0.51966 1.00203 0.0
C328 C 0.7793 0.54502 0.02406 0.0
C329 C 0.76199 0.54286 0.05672 0.0
C330 C 0.7479 0.51619 0.06573 0.0
H331 H 0.66265 0.48886 0.0239 0.0
H332 H 0.68499 0.50642 0.05913 0.0
H333 H 0.69716 0.50608 1.01123 0.0
H334 H 0.77277 0.47425 0.99275 0.0
H335 H 0.79722 0.52055 0.97688 0.0
H336 H 0.69477 0.66655 0.06844 0.0
H337 H 0.64878 0.69097 0.08709 0.0
H338 H 0.61512 0.68133 0.97472 0.0
H339 H 0.66098 0.65776 0.95541 0.0
H340 H 0.6239 0.744 0.05391 0.0
H341 H 0.54853 0.64807 0.04315 0.0
H342 H 0.58814 0.64406 0.0474 0.0
H343 H 0.57176 0.65263 1.0027 0.0
C344 C 0.67772 0.66965 0.04754 0.0
C345 C 0.68184 0.66 1.01028 0.0
C346 C 0.65134 0.68347 0.05841 0.0
C347 C 0.62844 0.68752 0.03242 0.0
C348 C 0.63232 0.67783 0.99541 0.0
H349 H 0.49156 0.80221 0.98126 0.0
H350 H 0.53837 0.77835 0.99661 0.0
C351 C 0.65867 0.66425 0.98444 0.0
C352 C 0.60091 0.70327 0.04292 0.0
H353 H 0.52591 0.69627 0.04021 0.0
C354 C 0.60246 0.73347 0.05173 0.0
C355 C 0.57302 0.68939 0.0407 0.0
C356 C 0.57017 0.65667 0.03334 0.0
C357 C 0.57671 0.75063 0.05553 0.0
C358 C 0.54885 0.73723 0.05006 0.0
C359 C 0.5473 0.70659 0.04415 0.0
C360 C 0.52152 0.75497 0.0451 0.0
C361 C 0.57958 0.78316 0.06405 0.0
C362 C 0.49644 0.74992 0.06743 0.0
C363 C 0.4695 0.76371 0.05874 0.0
C364 C 0.46722 0.78222 0.02713 0.0
C365 C 0.49264 0.78803 1.00576 0.0
C366 C 0.5195 0.77458 1.01468 0.0
H367 H 0.60035 0.78785 0.07952 0.0
H368 H 0.58019 0.79575 0.03731 0.0
H369 H 0.56055 0.79128 0.08087 0.0
H370 H 0.4975 0.73461 0.09081 0.0
H371 H 0.45019 0.75866 0.0755 0.0
H372 H 0.25065 0.45573 0.08036 0.0
H373 H 0.27292 0.50348 0.09718 0.0
H374 H 0.24503 0.53979 0.99089 0.0
H375 H 0.22255 0.49289 0.97435 0.0
H376 H 0.31801 0.53053 0.06017 0.0
H377 H 0.22181 0.60548 0.06117 0.0
H378 H 0.21797 0.56575 0.06335 0.0
H379 H 0.22216 0.58422 0.01879 0.0
C380 C 0.24873 0.47416 0.06103 0.0
C381 C 0.23488 0.47056 0.02602 0.0
C382 C 0.26152 0.50135 0.07062 0.0
C383 C 0.26024 0.52536 0.04554 0.0
C384 C 0.24567 0.52189 1.01112 0.0
H385 H 0.37674 0.65783 0.97661 0.0
H386 H 0.35216 0.61244 0.99565 0.0
C387 C 0.23303 0.49489 1.00155 0.0
C388 C 0.27644 0.55323 0.05295 0.0
H389 H 0.26893 0.62802 0.04439 0.0
C390 C 0.30721 0.5519 0.05766 0.0
C391 C 0.26238 0.58116 0.05051 0.0
C392 C 0.22921 0.58422 0.04861 0.0
C393 C 0.3245 0.57765 0.05684 0.0
C394 C 0.31067 0.60531 0.05022 0.0
C395 C 0.27969 0.60681 0.04872 0.0
C396 C 0.32777 0.63245 0.04138 0.0
C397 C 0.35744 0.57481 0.06225 0.0
C398 C 0.32195 0.65907 0.06023 0.0
C399 C 0.33549 0.68535 0.04876 0.0
C400 C 0.35514 0.68559 0.01807 0.0
C401 C 0.36154 0.65867 1.00001 0.0
C402 C 0.34783 0.63249 1.01132 0.0
H403 H 0.36288 0.55567 0.08061 0.0
H404 H 0.36809 0.57087 0.03465 0.0
H405 H 0.36699 0.59513 0.07476 0.0
H406 H 0.30634 0.65966 0.08327 0.0
H407 H 0.32963 0.70556 0.06317 0.0
H408 H 0.02217 0.71428 0.47583 0.0
H409 H 0.97548 0.73837 0.49105 0.0
H410 H 0.01407 0.77482 0.5914 0.0
H411 H 0.06138 0.75082 0.57606 0.0
H412 H 0.93716 0.73789 0.55465 0.0
H413 H 0.98876 0.84785 0.52842 0.0
H414 H 1.00664 0.81374 0.51503 0.0
H415 H 1.00546 0.82449 0.56345 0.0
C416 C 0.0207 0.72706 0.50145 0.0
C417 C 0.04555 0.73096 0.52452 0.0
C418 C 0.99392 0.74072 0.51019 0.0
C419 C 0.99144 0.7587 0.54204 0.0
C420 C 0.01568 0.7613 0.56642 0.0
H421 H 0.81746 0.84645 0.57083 0.0
H422 H 0.86294 0.82013 0.58795 0.0
C423 C 0.0426 0.74746 0.55775 0.0
C424 C 0.96421 0.77652 0.54716 0.0
H425 H 0.93735 0.84657 0.53514 0.0
C426 C 0.93715 0.76174 0.55123 0.0
C427 C 0.96437 0.80759 0.54229 0.0
C428 C 0.99276 0.8245 0.53682 0.0
C429 C 0.91015 0.77705 0.54877 0.0
C430 C 0.91033 0.80792 0.54235 0.0
C431 C 0.93739 0.82289 0.54017 0.0
C432 C 0.88297 0.82445 0.53312 0.0
C433 C 0.88164 0.75988 0.5507 0.0
C434 C 0.8794 0.83597 0.49686 0.0
C435 C 0.85352 0.85087 0.48694 0.0
C436 C 0.8306 0.85474 0.51316 0.0
C437 C 0.83442 0.84351 0.54975 0.0
C438 C 0.86042 0.82851 0.55964 0.0
H439 H 0.88545 0.73559 0.55086 0.0
H440 H 0.86959 0.7659 0.57672 0.0
H441 H 0.86725 0.76558 0.52649 0.0
H442 H 0.89652 0.83296 0.47593 0.0
H443 H 0.85129 0.85875 0.45842 0.0
H444 H 0.25579 0.06265 0.57849 0.0
H445 H 0.23265 0.01516 0.59481 0.0
H446 H 0.27419 0.97453 0.49883 0.0
H447 H 0.29711 0.02149 0.48248 0.0
H448 H 0.1933 0.98655 0.54594 0.0
H449 H 0.2866 0.91242 0.58126 0.0
H450 H 0.28962 0.95228 0.58251 0.0
H451 H 0.29319 0.9327 0.53877 0.0
C452 C 0.26055 0.04335 0.56152 0.0
C453 C 0.27814 0.04574 0.52915 0.0
C454 C 0.24729 0.01631 0.5708 0.0
C455 C 0.25199 0.99124 0.54828 0.0
C456 C 0.27071 0.99339 0.51704 0.0
H457 H 0.15459 0.8522 0.46082 0.0
H458 H 0.1778 0.89806 0.48023 0.0
C459 C 0.28362 0.02034 0.50756 0.0
C460 C 0.23473 0.96379 0.55398 0.0
H461 H 0.2425 0.88867 0.55702 0.0
C462 C 0.20396 0.96518 0.54934 0.0
C463 C 0.24857 0.93594 0.55877 0.0
C464 C 0.2813 0.93322 0.566 0.0
C465 C 0.18701 0.93934 0.54637 0.0
C466 C 0.20127 0.91149 0.54778 0.0
C467 C 0.23166 0.91008 0.55545 0.0
C468 C 0.18569 0.88394 0.53736 0.0
C469 C 0.15413 0.94205 0.54033 0.0
C470 C 0.18272 0.86056 0.56296 0.0
C471 C 0.1691 0.83415 0.55203 0.0
C472 C 0.15859 0.83049 0.51507 0.0
C473 C 0.16175 0.85414 0.48963 0.0
C474 C 0.17512 0.8805 0.50067 0.0
H475 H 0.14552 0.96351 0.55095 0.0
H476 H 0.14936 0.94092 0.50983 0.0
H477 H 0.14212 0.92377 0.55445 0.0
H478 H 0.19091 0.86275 0.59137 0.0
H479 H 0.16685 0.81672 0.57263 0.0
H480 H 0.20138 0.18474 0.56471 0.0
H481 H 0.15544 0.20817 0.58491 0.0
H482 H 0.1083 0.1626 0.49727 0.0
H483 H 0.15373 0.13797 0.47811 0.0
H484 H 0.12345 0.24577 0.54575 0.0
H485 H 0.05191 0.15172 0.58259 0.0
H486 H 0.09135 0.14766 0.57679 0.0
H487 H 0.06711 0.14644 0.53667 0.0
C488 C 0.18116 0.17898 0.55033 0.0
C489 C 0.18141 0.15941 0.5196 0.0
C490 C 0.15487 0.19259 0.56185 0.0
C491 C 0.12827 0.18686 0.54302 0.0
C492 C 0.12834 0.16685 0.51293 0.0
H493 H 0.98807 0.29132 0.47481 0.0
H494 H 0.03507 0.26894 0.49171 0.0
C495 C 0.15453 0.15311 0.50155 0.0
C496 C 0.10108 0.20398 0.5519 0.0
H497 H 0.02645 0.19659 0.56192 0.0
C498 C 0.10235 0.235 0.55017 0.0
C499 C 0.07356 0.19013 0.55863 0.0
C500 C 0.07098 0.15716 0.56421 0.0
C501 C 0.0766 0.2523 0.5518 0.0
C502 C 0.0488 0.2382 0.55435 0.0
C503 C 0.04771 0.20741 0.55933 0.0
C504 C 0.02085 0.25435 0.54669 0.0
C505 C 0.07938 0.28551 0.54953 0.0
C506 C 0.99694 0.25339 0.57184 0.0
C507 C 0.96969 0.26616 0.56207 0.0
C508 C 0.96595 0.27964 0.52679 0.0
C509 C 0.99018 0.28113 0.50221 0.0
C510 C 0.01723 0.26855 0.51198 0.0
H511 H 0.10061 0.29302 0.56189 0.0
H512 H 0.07917 0.29241 0.51964 0.0
H513 H 0.0609 0.2968 0.56425 0.0
H514 H 0.99918 0.24226 0.59863 0.0
H515 H 0.95134 0.2645 0.58147 0.0
H516 H 0.83076 0.20385 0.5639 0.0
H517 H 0.80736 0.15787 0.58356 0.0
H518 H 0.84881 0.11214 0.4913 0.0
H519 H 0.87352 0.15757 0.47259 0.0
H520 H 0.76784 0.12788 0.54559 0.0
H521 H 0.86171 0.0531 0.5733 0.0
H522 H 0.8663 0.09261 0.56877 0.0
H523 H 0.86544 0.06938 0.52769 0.0
C524 C 0.83567 0.18391 0.54834 0.0
C525 C 0.8541 0.1846 0.51646 0.0
C526 C 0.82206 0.1576 0.55956 0.0
C527 C 0.82659 0.13139 0.53927 0.0
C528 C 0.8455 0.13185 0.50803 0.0
H529 H 0.71602 0.99434 0.47519 0.0
H530 H 0.73951 0.04084 0.4914 0.0
C531 C 0.85928 0.15805 0.49695 0.0
C532 C 0.80932 0.10434 0.54807 0.0
H533 H 0.81565 0.02927 0.555 0.0
C534 C 0.77835 0.10639 0.54849 0.0
C535 C 0.82287 0.07631 0.55282 0.0
C536 C 0.85592 0.07278 0.55606 0.0
C537 C 0.76064 0.08102 0.55051 0.0
C538 C 0.77425 0.0528 0.55118 0.0
C539 C 0.80516 0.05086 0.55385 0.0
C540 C 0.75726 0.0253 0.54431 0.0
C541 C 0.7275 0.0847 0.55087 0.0
C542 C 0.75952 1.00083 0.56852 0.0
C543 C 0.74618 0.97388 0.5591 0.0
C544 C 0.7307 0.97098 0.5251 0.0
C545 C 0.72773 0.99581 0.50162 0.0
C546 C 0.74096 0.02258 0.51103 0.0
H547 H 0.72102 0.10582 0.56457 0.0
H548 H 0.71926 0.08544 0.52156 0.0
H549 H 0.71651 0.06614 0.56573 0.0
H550 H 0.77223 1.00237 0.5942 0.0
H551 H 0.74902 0.95507 0.57763 0.0
H552 H 0.24834 0.23941 0.40679 0.0
H553 H 0.23587 0.26706 0.34987 0.0
H554 H 0.32144 0.24687 0.30346 0.0
H555 H 0.33463 0.21986 0.36075 0.0
H556 H 0.28035 0.31681 0.30826 0.0
H557 H 0.24516 0.21543 0.23164 0.0
H558 H 0.24129 0.21823 0.28198 0.0
H559 H 0.27728 0.21444 0.26164 0.0
C560 C 0.26487 0.24137 0.38496 0.0
C561 C 0.29256 0.2273 0.38857 0.0
C562 C 0.25755 0.25699 0.35227 0.0
C563 C 0.27765 0.25878 0.32242 0.0
C564 C 0.30556 0.24555 0.32614 0.0
H565 H 0.25102 0.32096 0.09184 0.0
H566 H 0.26833 0.29491 0.14813 0.0
C567 C 0.31298 0.23003 0.35889 0.0
C568 C 0.26911 0.27383 0.287 0.0
H569 H 0.24042 0.26088 0.1999 0.0
C570 C 0.27167 0.30465 0.2845 0.0
C571 C 0.25812 0.25781 0.25601 0.0
C572 C 0.25515 0.22462 0.25758 0.0
C573 C 0.26337 0.31997 0.25174 0.0
C574 C 0.25141 0.30408 0.22101 0.0
C575 C 0.2494 0.27311 0.2234 0.0
C576 C 0.24035 0.31927 0.18656 0.0
C577 C 0.26799 0.353 0.25022 0.0
C578 C 0.21826 0.34106 0.18914 0.0
C579 C 0.20854 0.35613 0.15713 0.0
C580 C 0.22033 0.34949 0.12157 0.0
C581 C 0.24159 0.32681 0.11876 0.0
C582 C 0.25151 0.31187 0.15095 0.0
H583 H 0.28538 0.36016 0.27022 0.0
H584 H 0.27433 0.36033 0.22158 0.0
H585 H 0.24714 0.36437 0.25813 0.0
H586 H 0.20858 0.34655 0.21604 0.0
H587 H 0.19188 0.37319 0.16037 0.0
H588 H 0.72415 0.18907 0.117 0.0
H589 H 0.74108 0.20964 0.1765 0.0
H590 H 0.67063 0.27402 0.17348 0.0
H591 H 0.65353 0.25368 0.11367 0.0
H592 H 0.72604 0.29821 0.19152 0.0
H593 H 0.70165 0.20004 0.27946 0.0
H594 H 0.72373 0.19168 0.23895 0.0
H595 H 0.6865 0.2049 0.23298 0.0
C596 C 0.71212 0.20752 0.12898 0.0
C597 C 0.68739 0.21963 0.11054 0.0
C598 C 0.72176 0.21916 0.16315 0.0
C599 C 0.70685 0.24307 0.17973 0.0
C600 C 0.68235 0.25544 0.16129 0.0
H601 H 0.74667 0.29587 0.41078 0.0
H602 H 0.7199 0.28334 0.35324 0.0
C603 C 0.6726 0.24375 0.12711 0.0
C604 C 0.71739 0.25548 0.21587 0.0
H605 H 0.73289 0.23671 0.30661 0.0
C606 C 0.72727 0.28488 0.21681 0.0
C607 C 0.71857 0.23822 0.24899 0.0
C608 C 0.70678 0.20705 0.25028 0.0
C609 C 0.73941 0.2971 0.24961 0.0
C610 C 0.74206 0.2793 0.28215 0.0
C611 C 0.73108 0.25029 0.2816 0.0
C612 C 0.75743 0.28972 0.31652 0.0
C613 C 0.74934 0.32892 0.24907 0.0
C614 C 0.78736 0.29762 0.31501 0.0
C615 C 0.80273 0.30468 0.3478 0.0
C616 C 0.78855 0.30383 0.38296 0.0
C617 C 0.75834 0.29657 0.38427 0.0
C618 C 0.74298 0.28949 0.35139 0.0
H619 H 0.73781 0.34177 0.22683 0.0
H620 H 0.74531 0.33976 0.27654 0.0
H621 H 0.77339 0.32972 0.24311 0.0
H622 H 0.7992 0.29722 0.2886 0.0
H623 H 0.8261 0.30946 0.3457 0.0
H624 H 0.76263 0.69425 0.08778 0.0
H625 H 0.74705 0.72146 0.14401 0.0
H626 H 0.80924 0.67171 0.21063 0.0
H627 H 0.82464 0.64413 0.15499 0.0
H628 H 0.72661 0.68988 0.21868 0.0
H629 H 0.82331 0.76514 0.23012 0.0
H630 H 0.81169 0.74949 0.18589 0.0
H631 H 0.83039 0.72677 0.2197 0.0
C632 C 0.77309 0.68916 0.11434 0.0
C633 C 0.79482 0.66688 0.11683 0.0
C634 C 0.76412 0.70471 0.14643 0.0
C635 C 0.77706 0.6986 0.1814 0.0
C636 C 0.79908 0.67682 0.18386 0.0
H637 H 0.76638 0.77392 0.40475 0.0
H638 H 0.77904 0.74547 0.34879 0.0
C639 C 0.80782 0.66107 0.15197 0.0
C640 C 0.76719 0.71438 0.2157 0.0
H641 H 0.78892 0.76594 0.27981 0.0
C642 C 0.74007 0.70666 0.23201 0.0
C643 C 0.78502 0.73593 0.23315 0.0
C644 C 0.8142 0.74509 0.21639 0.0
C645 C 0.73052 0.71959 0.26582 0.0
C646 C 0.74823 0.74144 0.28323 0.0
C647 C 0.77533 0.7492 0.26663 0.0
C648 C 0.73914 0.75675 0.31846 0.0
C649 C 0.702 0.70898 0.28309 0.0
C650 C 0.7123 0.77236 0.32042 0.0
C651 C 0.7047 0.78821 0.35275 0.0
C652 C 0.724 0.78931 0.38374 0.0
C653 C 0.75067 0.77324 0.38187 0.0
C654 C 0.75813 0.75719 0.34963 0.0
H655 H 0.69618 0.68644 0.2732 0.0
H656 H 0.70335 0.70865 0.31419 0.0
H657 H 0.68381 0.72414 0.27475 0.0
H658 H 0.6975 0.77295 0.29657 0.0
H659 H 0.68387 0.80004 0.35316 0.0
H660 H 0.28616 0.82564 0.10955 0.0
H661 H 0.26942 0.80778 0.17062 0.0
H662 H 0.34378 0.74804 0.17593 0.0
H663 H 0.36108 0.76621 0.11506 0.0
H664 H 0.25345 0.7513 0.1906 0.0
H665 H 0.34764 0.78968 0.27751 0.0
H666 H 0.34145 0.80266 0.23023 0.0
H667 H 0.3578 0.76693 0.23826 0.0
C668 C 0.29911 0.80883 0.12373 0.0
C669 C 0.32501 0.7974 0.10732 0.0
C670 C 0.28946 0.79861 0.15866 0.0
C671 C 0.30551 0.77683 0.17809 0.0
C672 C 0.33134 0.76527 0.16181 0.0
H673 H 0.22741 0.67748 0.36448 0.0
H674 H 0.25305 0.69065 0.3063 0.0
C675 C 0.34108 0.77555 0.12684 0.0
C676 C 0.29451 0.76571 0.21479 0.0
H677 H 0.31156 0.76034 0.30801 0.0
C678 C 0.26619 0.75319 0.21626 0.0
C679 C 0.31105 0.76847 0.2483 0.0
C680 C 0.34107 0.78289 0.24876 0.0
C681 C 0.25388 0.74346 0.25026 0.0
C682 C 0.27058 0.74578 0.28371 0.0
C683 C 0.29894 0.75827 0.28228 0.0
C684 C 0.25822 0.73684 0.32065 0.0
C685 C 0.22271 0.73167 0.25021 0.0
C686 C 0.25389 0.75809 0.34881 0.0
C687 C 0.23941 0.75059 0.38217 0.0
C688 C 0.229 0.72164 0.38807 0.0
C689 C 0.23476 0.70005 0.36059 0.0
C690 C 0.24934 0.70756 0.32729 0.0
H691 H 0.21061 0.73785 0.22422 0.0
H692 H 0.22339 0.70717 0.25194 0.0
H693 H 0.2101 0.74007 0.27474 0.0
H694 H 0.26062 0.7808 0.34433 0.0
H695 H 0.23507 0.76786 0.40249 0.0
H696 H 0.75221 0.86104 0.61094 0.0
H697 H 0.77126 0.84172 0.67055 0.0
H698 H 0.70291 0.77553 0.67163 0.0
H699 H 0.68382 0.79448 0.61212 0.0
H700 H 0.7419 0.83524 0.74123 0.0
H701 H 0.77997 0.7274 0.68461 0.0
H702 H 0.7713 0.75861 0.65486 0.0
H703 H 0.74216 0.73618 0.67387 0.0
C704 C 0.74122 0.84235 0.62381 0.0
C705 C 0.71653 0.82924 0.60654 0.0
C706 C 0.75213 0.83137 0.65794 0.0
C707 C 0.73876 0.80694 0.67532 0.0
C708 C 0.7139 0.79408 0.65843 0.0
H709 H 0.74853 0.73827 0.90152 0.0
H710 H 0.73587 0.76499 0.84408 0.0
C711 C 0.70293 0.80506 0.62442 0.0
C712 C 0.75059 0.79486 0.71119 0.0
H713 H 0.77892 0.7321 0.75103 0.0
C714 C 0.75018 0.81276 0.74337 0.0
C715 C 0.76177 0.76566 0.71386 0.0
C716 C 0.76414 0.74588 0.67992 0.0
C717 C 0.75981 0.80192 0.77837 0.0
C718 C 0.76983 0.7723 0.78133 0.0
C719 C 0.77105 0.75473 0.74888 0.0
C720 C 0.77855 0.75873 0.81783 0.0
C721 C 0.75935 0.82233 0.81179 0.0
C722 C 0.80679 0.74627 0.82239 0.0
C723 C 0.81415 0.731 0.85533 0.0
C724 C 0.79334 0.72762 0.8844 0.0
C725 C 0.76534 0.74088 0.88015 0.0
C726 C 0.75801 0.75617 0.8472 0.0
H727 H 0.75928 0.84594 0.80308 0.0
H728 H 0.73898 0.81825 0.82833 0.0
H729 H 0.77869 0.81832 0.83029 0.0
H730 H 0.82301 0.74792 0.80014 0.0
H731 H 0.836 0.72133 0.85772 0.0
H732 H 0.15229 0.75274 0.61243 0.0
H733 H 0.16875 0.77189 0.67322 0.0
H734 H 0.23756 0.70578 0.67696 0.0
H735 H 0.22129 0.68642 0.61652 0.0
H736 H 0.20543 0.71207 0.74514 0.0
H737 H 0.24537 0.82 0.68984 0.0
H738 H 0.20785 0.81037 0.67876 0.0
H739 H 0.2377 0.78892 0.65966 0.0
C740 C 0.17091 0.74225 0.62618 0.0
C741 C 0.18558 0.71813 0.60941 0.0
C742 C 0.18035 0.7533 0.66087 0.0
C743 C 0.20459 0.74046 0.67941 0.0
C744 C 0.21885 0.71607 0.6631 0.0
H745 H 0.32748 0.79422 0.84568 0.0
H746 H 0.29922 0.78143 0.78997 0.0
C747 C 0.20954 0.70508 0.62845 0.0
C748 C 0.2155 0.75237 0.71565 0.0
H749 H 0.25081 0.81153 0.75467 0.0
C750 C 0.21507 0.73394 0.74739 0.0
C751 C 0.22826 0.78083 0.71837 0.0
C752 C 0.23012 0.8012 0.68487 0.0
C753 C 0.22757 0.74295 0.7816 0.0
C754 C 0.24063 0.77127 0.7842 0.0
C755 C 0.24055 0.78994 0.75267 0.0
C756 C 0.25696 0.78077 0.81824 0.0
C757 C 0.22787 0.72166 0.81425 0.0
C758 C 0.24252 0.78513 0.85269 0.0
C759 C 0.25866 0.79282 0.88481 0.0
C760 C 0.28954 0.79638 0.883 0.0
C761 C 0.30372 0.79239 0.84817 0.0
C762 C 0.2876 0.78484 0.81621 0.0
H763 H 0.2213 0.69897 0.80578 0.0
H764 H 0.25019 0.72064 0.82711 0.0
H765 H 0.21215 0.72949 0.836 0.0
H766 H 0.2188 0.78246 0.85476 0.0
H767 H 0.24697 0.79597 0.91102 0.0
H768 H 0.25972 0.19352 0.59248 0.0
H769 H 0.24326 0.22061 0.64845 0.0
H770 H 0.30744 0.17376 0.71542 0.0
H771 H 0.32375 0.14636 0.66003 0.0
H772 H 0.22378 0.18947 0.72296 0.0
H773 H 0.31848 0.26714 0.73458 0.0
H774 H 0.30768 0.25066 0.69051 0.0
H775 H 0.32684 0.22892 0.72494 0.0
C776 C 0.27048 0.18913 0.61905 0.0
C777 C 0.29304 0.16771 0.62175 0.0
C778 C 0.26098 0.20456 0.65101 0.0
C779 C 0.27421 0.19922 0.686 0.0
C780 C 0.29706 0.1783 0.68863 0.0
H781 H 0.26241 0.27346 0.90944 0.0
H782 H 0.27522 0.24551 0.8532 0.0
C783 C 0.30632 0.16265 0.6569 0.0
C784 C 0.26383 0.21484 0.72019 0.0
H785 H 0.28434 0.26668 0.7846 0.0
C786 C 0.23685 0.20651 0.73639 0.0
C787 C 0.28112 0.23677 0.73776 0.0
C788 C 0.3101 0.24667 0.72111 0.0
C789 C 0.22697 0.21912 0.77026 0.0
C790 C 0.2442 0.24126 0.78786 0.0
C791 C 0.27111 0.2497 0.77131 0.0
C792 C 0.2349 0.25607 0.82337 0.0
C793 C 0.19867 0.20783 0.78741 0.0
C794 C 0.20773 0.27106 0.82578 0.0
C795 C 0.20002 0.28661 0.85832 0.0
C796 C 0.21952 0.28803 0.88908 0.0
C797 C 0.2465 0.27251 0.88679 0.0
C798 C 0.25406 0.25675 0.85436 0.0
H799 H 0.19329 0.18525 0.77727 0.0
H800 H 0.20004 0.2073 0.81851 0.0
H801 H 0.18019 0.22269 0.77925 0.0
H802 H 0.19276 0.27146 0.80209 0.0
H803 H 0.17895 0.29801 0.85904 0.0
H804 H 0.76663 0.21411 0.91291 0.0
H805 H 0.79545 0.22794 0.85694 0.0
H806 H 0.7147 0.24523 0.79663 0.0
H807 H 0.68593 0.23179 0.85193 0.0
H808 H 0.78438 0.2022 0.7736 0.0
H809 H 0.77109 0.32336 0.79498 0.0
H810 H 0.76994 0.29712 0.8333 0.0
H811 H 0.73882 0.30092 0.80247 0.0
C812 C 0.75509 0.22082 0.88767 0.0
C813 C 0.72399 0.2216 0.88678 0.0
C814 C 0.77154 0.22858 0.85577 0.0
C815 C 0.75711 0.23761 0.82281 0.0
C816 C 0.72618 0.23828 0.82184 0.0
H817 H 0.77776 0.30652 0.60431 0.0
H818 H 0.76415 0.29047 0.66723 0.0
C819 C 0.7098 0.23037 0.85342 0.0
C820 C 0.77389 0.24695 0.78919 0.0
H821 H 0.78778 0.30768 0.73512 0.0
C822 C 0.78571 0.22527 0.76536 0.0
C823 C 0.77533 0.27703 0.77864 0.0
C824 C 0.76332 0.30109 0.8037 0.0
C825 C 0.79763 0.23283 0.73016 0.0
C826 C 0.79811 0.26292 0.71899 0.0
C827 C 0.78738 0.28464 0.74367 0.0
C828 C 0.80712 0.27222 0.68068 0.0
C829 C 0.80809 0.20849 0.70441 0.0
C830 C 0.83594 0.26744 0.66726 0.0
C831 C 0.84383 0.27654 0.631 0.0
C832 C 0.82308 0.29078 0.60767 0.0
C833 C 0.79435 0.29567 0.62142 0.0
C834 C 0.7865 0.28653 0.65747 0.0
H835 H 0.80082 0.18631 0.71417 0.0
H836 H 0.79975 0.21208 0.67545 0.0
H837 H 0.83259 0.20853 0.70339 0.0
H838 H 0.85237 0.25691 0.68491 0.0
H839 H 0.86617 0.2725 0.62132 0.0
H840 H 0.94261 0.62239 1.00003 0.0
H841 H 0.98383 0.58718 0.99964 0.0
H842 H 0.92484 0.51757 0.03441 0.0
H843 H 0.88353 0.55255 0.03418 0.0
H844 H 0.008 0.55485 0.05458 0.0
H845 H 0.96425 0.4788 0.94644 0.0
H846 H 0.94795 0.51456 0.9554 0.0
H847 H 0.93934 0.48351 0.98512 0.0
C848 C 0.93842 0.59958 1.00758 0.0
C849 C 0.9097 0.59026 0.01684 0.0
C850 C 0.96201 0.57944 1.00725 0.0
C851 C 0.95744 0.54952 0.01625 0.0
C852 C 0.92886 0.54028 0.0262 0.0
H853 H 0.07351 0.3986 0.05184 0.0
H854 H 0.03248 0.43369 0.05014 0.0
C855 C 0.90522 0.56035 0.02618 0.0
C856 C 0.98269 0.52823 0.01624 0.0
H857 H 1.00623 0.46188 0.98084 0.0
C858 C 0.00765 0.53465 0.03823 0.0
C859 C 0.98238 0.50182 0.99484 0.0
C860 C 0.95718 0.49437 0.96883 0.0
C861 C 0.03193 0.51519 0.03993 0.0
C862 C 0.03134 0.48864 0.01904 0.0
C863 C 1.00652 0.48219 0.997 0.0
C864 C 0.05639 0.46732 0.01966 0.0
C865 C 0.0579 0.52284 0.06456 0.0
C866 C 0.0834 0.47444 1.00266 0.0
C867 C 0.10693 0.45424 1.00308 0.0
C868 C 0.10405 0.42643 0.0207 0.0
C869 C 0.07675 0.41947 0.03761 0.0
C870 C 0.05318 0.43961 0.03687 0.0
H871 H 0.05287 0.54153 0.08376 0.0
H872 H 0.06472 0.50336 0.08153 0.0
H873 H 0.07691 0.52922 0.04664 0.0
H874 H 0.0862 0.49558 0.98877 0.0
H875 H 0.12719 0.46048 0.98916 0.0
H876 H 0.6188 0.06864 1.00095 0.0
H877 H 0.58278 0.02886 1.0058 0.0
H878 H 0.52388 0.0864 0.06681 0.0
H879 H 0.56006 0.12636 0.06281 0.0
H880 H 0.5562 1.00297 0.07175 0.0
H881 H 0.47388 0.05596 0.97701 0.0
H882 H 0.51195 0.06768 0.97903 0.0
H883 H 0.48665 0.07821 1.01548 0.0
C884 C 0.59843 0.07291 0.01588 0.0
C885 C 0.59245 0.10097 0.03136 0.0
C886 C 0.57775 0.05008 0.01843 0.0
C887 C 0.55052 0.05478 0.03623 0.0
C888 C 0.54458 0.08247 0.05236 0.0
H889 H 0.39447 0.94303 0.05542 0.0
H890 H 0.43042 0.98312 0.06069 0.0
C891 C 0.56531 0.10533 0.04996 0.0
C892 C 0.52834 0.03067 0.03752 0.0
H893 H 0.46039 0.01062 1.00479 0.0
C894 C 0.53521 1.00461 0.05718 0.0
C895 C 0.50098 0.03293 0.01855 0.0
C896 C 0.49286 0.06007 0.99605 0.0
C897 C 0.51534 0.98079 0.05861 0.0
C898 C 0.48816 0.98283 0.03908 0.0
C899 C 0.4812 0.00906 0.01976 0.0
C900 C 0.46683 0.95789 0.03763 0.0
C901 C 0.52348 0.95388 0.08152 0.0
C902 C 0.47525 0.93034 0.02281 0.0
C903 C 0.45473 0.90736 0.01983 0.0
C904 C 0.42523 0.91155 0.03117 0.0
C905 C 0.41691 0.93914 0.04612 0.0
C906 C 0.43747 0.96205 0.04927 0.0
H907 H 0.54016 0.95922 0.10333 0.0
H908 H 0.50376 0.94426 0.09544 0.0
H909 H 0.53319 0.93686 0.06277 0.0
H910 H 0.49754 0.92681 1.01269 0.0
H911 H 0.46179 0.88664 1.00753 0.0
H912 H 0.4425 0.1231 0.51249 0.0
H913 H 0.48375 0.08804 0.51308 0.0
H914 H 0.42314 0.01648 0.53388 0.0
H915 H 0.38178 0.05137 0.53339 0.0
H916 H 0.50306 0.05051 0.56929 0.0
H917 H 0.46956 0.98592 0.44419 0.0
H918 H 0.45327 0.02127 0.45559 0.0
H919 H 0.44147 0.98835 0.47962 0.0
C920 C 0.43789 0.09994 0.51732 0.0
C921 C 0.40869 0.09013 0.52268 0.0
C922 C 0.46153 0.07988 0.51752 0.0
C923 C 0.45656 0.04953 0.52293 0.0
C924 C 0.4275 0.03967 0.52872 0.0
H925 H 0.56928 0.89363 0.53459 0.0
H926 H 0.5285 0.92916 0.53735 0.0
C927 C 0.40383 0.0597 0.52842 0.0
C928 C 0.48183 0.02832 0.52323 0.0
H929 H 0.50929 0.96655 0.48016 0.0
C930 C 0.50449 0.03222 0.54969 0.0
C931 C 0.48372 1.00444 0.49766 0.0
C932 C 0.46088 0.99982 0.46741 0.0
C933 C 0.52866 0.01262 0.55174 0.0
C934 C 0.53048 0.9887 0.52626 0.0
C935 C 0.50784 0.98482 0.49978 0.0
C936 C 0.5557 0.96746 0.52636 0.0
C937 C 0.5517 0.01733 0.58171 0.0
C938 C 0.58465 0.9771 0.51927 0.0
C939 C 0.60806 0.95679 0.51753 0.0
C940 C 0.60301 0.92631 0.52259 0.0
C941 C 0.574 0.91682 0.53013 0.0
C942 C 0.55063 0.93714 0.53186 0.0
H943 H 0.54329 0.03156 0.60477 0.0
H944 H 0.55913 0.9959 0.59379 0.0
H945 H 0.57118 0.02842 0.56914 0.0
H946 H 0.58904 1.00029 0.51412 0.0
H947 H 0.62992 0.96494 0.511 0.0
H948 H 0.05834 0.6239 0.48798 0.0
H949 H 0.0235 0.58262 0.48912 0.0
H950 H 0.08255 0.53379 0.5616 0.0
H951 H 0.11808 0.57458 0.55869 0.0
H952 H 0.06256 0.49845 0.51172 0.0
H953 H 0.96626 0.55978 0.56723 0.0
H954 H 0.97903 0.57583 0.52425 0.0
H955 H 1.00257 0.57593 0.56508 0.0
C956 C 0.06365 0.60446 0.50446 0.0
C957 C 0.09075 0.60246 0.52352 0.0
C958 C 0.04367 0.5809 0.5053 0.0
C959 C 0.04994 0.55522 0.5262 0.0
C960 C 0.07705 0.55333 0.54536 0.0
H961 H 0.91436 0.42599 0.58077 0.0
H962 H 0.95097 0.46567 0.58128 0.0
C963 C 0.09733 0.57661 0.54379 0.0
C964 C 0.02881 0.52994 0.52705 0.0
H965 H 0.9564 0.5121 0.54146 0.0
C966 C 0.03938 0.50144 0.51856 0.0
C967 C 0.99861 0.53356 0.53653 0.0
C968 C 0.98604 0.56288 0.54919 0.0
C969 C 0.02069 0.47665 0.51893 0.0
C970 C 0.99017 0.48055 0.52642 0.0
C971 C 0.97967 0.50901 0.53523 0.0
C972 C 0.96877 0.45548 0.52634 0.0
C973 C 0.03416 0.44651 0.51237 0.0
C974 C 0.9664 0.43636 0.49536 0.0
C975 C 0.94589 0.4132 0.4955 0.0
C976 C 0.9267 0.40932 0.52607 0.0
C977 C 0.92877 0.42865 0.55676 0.0
C978 C 0.9497 0.45132 0.55702 0.0
H979 H 0.05805 0.44622 0.51956 0.0
H980 H 0.02289 0.42922 0.52922 0.0
H981 H 0.03214 0.44076 0.48223 0.0
H982 H 0.98008 0.43957 0.47078 0.0
H983 H 0.9444 0.39883 0.4713 0.0
loop_
_geom_bond_atom_site_label_1
_geom_bond_atom_site_label_2
_geom_bond_distance
_geom_bond_site_symmetry_2
_ccdc_geom_bond_type
C0 C1 1.351 . S
C0 N3 1.368 1_556 S
C0 H5 0.931 . S
C1 C0 1.351 . S
C1 N2 1.373 1_556 S
C1 H29 0.930 . S
N2 C1 1.373 1_554 S
N2 C4 1.340 . S
N3 C0 1.368 1_554 S
N3 C4 1.321 . S
N3 Co6 2.135 . S
C4 N2 1.340 . S
C4 N3 1.321 . S
C4 H28 0.930 . S
H5 C0 0.931 . S
Co6 N3 2.135 . S
Co6 N9 2.121 . S
Co6 O14 2.055 . S
Co6 O17 2.039 . S
Co6 N20 2.140 1_554 S
C7 O8 1.227 . S
C7 O17 1.265 . S
O8 C7 1.227 . S
N9 Co6 2.121 . S
N9 C11 1.375 . S
N9 C12 1.313 . S
C10 C11 1.338 . S
C10 N13 1.377 . S
C10 H30 0.930 . S
C11 N9 1.375 . S
C11 C10 1.338 . S
C11 H15 0.931 . S
C12 N9 1.313 . S
C12 N13 1.344 . S
C12 H16 0.930 . S
N13 C10 1.377 . S
N13 C12 1.344 . S
O14 Co6 2.055 . S
O14 C18 1.247 1_554 S
H15 C11 0.931 . S
H16 C12 0.930 . S
O17 Co6 2.039 . S
O17 C7 1.265 . S
C18 O14 1.247 1_556 S
C18 O19 1.232 . S
O19 C18 1.232 . S
N20 Co6 2.140 1_556 S
N20 C23 1.346 . S
N20 C24 1.345 . S
C21 C22 1.387 . S
C21 C25 1.391 . S
C22 C21 1.387 . S
C22 C23 1.369 . S
C22 H31 0.929 . S
C23 N20 1.346 . S
C23 C22 1.369 . S
C23 H26 0.928 . S
C24 N20 1.345 . S
C24 C25 1.371 . S
C24 H27 0.931 . S
C25 C21 1.391 . S
C25 C24 1.371 . S
C25 H32 0.930 . S
H26 C23 0.928 . S
H27 C24 0.931 . S
H28 C4 0.930 . S
H29 C1 0.930 . S
H30 C10 0.930 . S
H31 C22 0.929 . S
H32 C25 0.930 . S
C33 C34 1.351 . S
C33 N36 1.368 1_556 S
C33 H38 0.931 . S
C34 C33 1.351 . S
C34 N35 1.373 1_556 S
C34 H62 0.930 . S
N35 C34 1.373 1_554 S
N35 C37 1.340 . S
N36 C33 1.368 1_554 S
N36 C37 1.321 . S
N36 Co39 2.135 . S
C37 N35 1.340 . S
C37 N36 1.321 . S
C37 H61 0.930 . S
H38 C33 0.931 . S
Co39 N36 2.135 . S
Co39 N42 2.121 . S
Co39 O47 2.055 . S
Co39 O50 2.039 . S
Co39 N53 2.140 1_554 S
C40 O41 1.227 . S
C40 O50 1.265 . S
O41 C40 1.227 . S
N42 Co39 2.121 . S
N42 C44 1.375 . S
N42 C45 1.313 . S
C43 C44 1.338 . S
C43 N46 1.377 . S
C43 H63 0.930 . S
C44 N42 1.375 . S
C44 C43 1.338 . S
C44 H48 0.931 . S
C45 N42 1.313 . S
C45 N46 1.344 . S
C45 H49 0.930 . S
N46 C43 1.377 . S
N46 C45 1.344 . S
O47 Co39 2.055 . S
O47 C51 1.247 1_554 S
H48 C44 0.931 . S
H49 C45 0.930 . S
O50 Co39 2.039 . S
O50 C40 1.265 . S
C51 O47 1.247 1_556 S
C51 O52 1.232 . S
O52 C51 1.232 . S
N53 Co39 2.140 1_556 S
N53 C56 1.346 . S
N53 C57 1.345 . S
C54 C55 1.387 . S
C54 C58 1.391 . S
C55 C54 1.387 . S
C55 C56 1.369 . S
C55 H64 0.929 . S
C56 N53 1.346 . S
C56 C55 1.369 . S
C56 H59 0.928 . S
C57 N53 1.345 . S
C57 C58 1.371 . S
C57 H60 0.931 . S
C58 C54 1.391 . S
C58 C57 1.371 . S
C58 H65 0.930 . S
H59 C56 0.928 . S
H60 C57 0.931 . S
H61 C37 0.930 . S
H62 C34 0.930 . S
H63 C43 0.930 . S
H64 C55 0.929 . S
H65 C58 0.930 . S
C66 C67 1.351 . S
C66 N69 1.368 1_556 S
C66 H71 0.931 . S
C67 C66 1.351 . S
C67 N68 1.373 1_556 S
C67 H95 0.930 . S
N68 C67 1.373 1_554 S
N68 C70 1.340 . S
N69 C66 1.368 1_554 S
N69 C70 1.321 . S
N69 Co72 2.135 . S
C70 N68 1.340 . S
C70 N69 1.321 . S
C70 H94 0.930 . S
H71 C66 0.931 . S
Co72 N69 2.135 . S
Co72 N75 2.121 . S
Co72 O80 2.055 . S
Co72 O83 2.039 . S
Co72 N86 2.140 1_554 S
C73 O74 1.227 . S
C73 O83 1.265 . S
O74 C73 1.227 . S
N75 Co72 2.121 . S
N75 C77 1.375 . S
N75 C78 1.313 . S
C76 C77 1.338 . S
C76 N79 1.377 . S
C76 H96 0.930 . S
C77 N75 1.375 . S
C77 C76 1.338 . S
C77 H81 0.931 . S
C78 N75 1.313 . S
C78 N79 1.344 . S
C78 H82 0.930 . S
N79 C76 1.377 . S
N79 C78 1.344 . S
O80 Co72 2.055 . S
O80 C84 1.247 1_554 S
H81 C77 0.931 . S
H82 C78 0.930 . S
O83 Co72 2.039 . S
O83 C73 1.265 . S
C84 O80 1.247 1_556 S
C84 O85 1.232 . S
O85 C84 1.232 . S
N86 Co72 2.140 1_556 S
N86 C89 1.346 . S
N86 C90 1.345 . S
C87 C88 1.387 . S
C87 C91 1.391 . S
C88 C87 1.387 . S
C88 C89 1.369 . S
C88 H97 0.929 . S
C89 N86 1.346 . S
C89 C88 1.369 . S
C89 H92 0.928 . S
C90 N86 1.345 . S
C90 C91 1.371 . S
C90 H93 0.931 . S
C91 C87 1.391 . S
C91 C90 1.371 . S
C91 H98 0.930 . S
H92 C89 0.928 . S
H93 C90 0.931 . S
H94 C70 0.930 . S
H95 C67 0.930 . S
H96 C76 0.930 . S
H97 C88 0.929 . S
H98 C91 0.930 . S
C99 C100 1.351 . S
C99 N102 1.368 1_556 S
C99 H104 0.931 . S
C100 C99 1.351 . S
C100 N101 1.373 1_556 S
C100 H128 0.930 . S
N101 C100 1.373 1_554 S
N101 C103 1.340 . S
N102 C99 1.368 1_554 S
N102 C103 1.321 . S
N102 Co105 2.135 . S
C103 N101 1.340 . S
C103 N102 1.321 . S
C103 H127 0.930 . S
H104 C99 0.931 . S
Co105 N102 2.135 . S
Co105 N108 2.121 . S
Co105 O113 2.055 . S
Co105 O116 2.039 . S
Co105 N119 2.140 1_554 S
C106 O107 1.227 . S
C106 O116 1.265 . S
O107 C106 1.227 . S
N108 Co105 2.121 . S
N108 C110 1.375 . S
N108 C111 1.313 . S
C109 C110 1.338 . S
C109 N112 1.377 . S
C109 H129 0.930 . S
C110 N108 1.375 . S
C110 C109 1.338 . S
C110 H114 0.931 . S
C111 N108 1.313 . S
C111 N112 1.344 . S
C111 H115 0.930 . S
N112 C109 1.377 . S
N112 C111 1.344 . S
O113 Co105 2.055 . S
O113 C117 1.247 1_554 S
H114 C110 0.931 . S
H115 C111 0.930 . S
O116 Co105 2.039 . S
O116 C106 1.265 . S
C117 O113 1.247 1_556 S
C117 O118 1.232 . S
O118 C117 1.232 . S
N119 Co105 2.140 1_556 S
N119 C122 1.346 . S
N119 C123 1.345 . S
C120 C121 1.387 . S
C120 C124 1.391 . S
C121 C120 1.387 . S
C121 C122 1.369 . S
C121 H130 0.929 . S
C122 N119 1.346 . S
C122 C121 1.369 . S
C122 H125 0.928 . S
C123 N119 1.345 . S
C123 C124 1.371 . S
C123 H126 0.931 . S
C124 C120 1.391 . S
C124 C123 1.371 . S
C124 H131 0.930 . S
H125 C122 0.928 . S
H126 C123 0.931 . S
H127 C103 0.930 . S
H128 C100 0.930 . S
H129 C109 0.930 . S
H130 C121 0.929 . S
H131 C124 0.930 . S
C132 C133 1.351 . S
C132 N135 1.368 . S
C132 H137 0.931 . S
C133 C132 1.351 . S
C133 N134 1.373 . S
C133 H161 0.930 . S
N134 C133 1.373 . S
N134 C136 1.340 . S
N135 C132 1.368 . S
N135 C136 1.321 . S
N135 Co138 2.135 . S
C136 N134 1.340 . S
C136 N135 1.321 . S
C136 H160 0.930 . S
H137 C132 0.931 . S
Co138 N135 2.135 . S
Co138 N141 2.121 . S
Co138 O146 2.055 . S
Co138 O149 2.039 . S
Co138 N152 2.140 . S
C139 O140 1.227 . S
C139 O149 1.265 . S
O140 C139 1.227 . S
N141 Co138 2.121 . S
N141 C143 1.375 . S
N141 C144 1.313 . S
C142 C143 1.338 . S
C142 N145 1.377 . S
C142 H162 0.930 . S
C143 N141 1.375 . S
C143 C142 1.338 . S
C143 H147 0.931 . S
C144 N141 1.313 . S
C144 N145 1.344 . S
C144 H148 0.930 . S
N145 C142 1.377 . S
N145 C144 1.344 . S
O146 Co138 2.055 . S
O146 C150 1.253 . S
H147 C143 0.931 . S
H148 C144 0.930 . S
O149 Co138 2.039 . S
O149 C139 1.265 . S
C150 O146 1.253 . S
C150 O151 1.227 . S
O151 C150 1.227 . S
N152 Co138 2.140 . S
N152 C155 1.346 . S
N152 C156 1.345 . S
C153 C154 1.387 . S
C153 C157 1.391 . S
C154 C153 1.387 . S
C154 C155 1.369 . S
C154 H163 0.929 . S
C155 N152 1.346 . S
C155 C154 1.369 . S
C155 H158 0.928 . S
C156 N152 1.345 . S
C156 C157 1.371 . S
C156 H159 0.931 . S
C157 C153 1.391 . S
C157 C156 1.371 . S
C157 H164 0.930 . S
H158 C155 0.928 . S
H159 C156 0.931 . S
H160 C136 0.930 . S
H161 C133 0.930 . S
H162 C142 0.930 . S
H163 C154 0.929 . S
H164 C157 0.930 . S
C165 C166 1.351 . S
C165 N168 1.368 . S
C165 H170 0.931 . S
C166 C165 1.351 . S
C166 N167 1.373 . S
C166 H194 0.930 . S
N167 C166 1.373 . S
N167 C169 1.340 . S
N168 C165 1.368 . S
N168 C169 1.321 . S
N168 Co171 2.135 . S
C169 N167 1.340 . S
C169 N168 1.321 . S
C169 H193 0.930 . S
H170 C165 0.931 . S
Co171 N168 2.135 . S
Co171 N174 2.121 . S
Co171 O179 2.055 . S
Co171 O182 2.039 . S
Co171 N185 2.140 . S
C172 O173 1.227 . S
C172 O182 1.265 . S
O173 C172 1.227 . S
N174 Co171 2.121 . S
N174 C176 1.375 . S
N174 C177 1.313 . S
C175 C176 1.338 . S
C175 N178 1.377 . S
C175 H195 0.930 . S
C176 N174 1.375 . S
C176 C175 1.338 . S
C176 H180 0.931 . S
C177 N174 1.313 . S
C177 N178 1.344 . S
C177 H181 0.930 . S
N178 C175 1.377 . S
N178 C177 1.344 . S
O179 Co171 2.055 . S
O179 C183 1.253 . S
H180 C176 0.931 . S
H181 C177 0.930 . S
O182 Co171 2.039 . S
O182 C172 1.265 . S
C183 O179 1.253 . S
C183 O184 1.227 . S
O184 C183 1.227 . S
N185 Co171 2.140 . S
N185 C188 1.346 . S
N185 C189 1.345 . S
C186 C187 1.387 . S
C186 C190 1.391 . S
C187 C186 1.387 . S
C187 C188 1.369 . S
C187 H196 0.929 . S
C188 N185 1.346 . S
C188 C187 1.369 . S
C188 H191 0.928 . S
C189 N185 1.345 . S
C189 C190 1.371 . S
C189 H192 0.931 . S
C190 C186 1.391 . S
C190 C189 1.371 . S
C190 H197 0.930 . S
H191 C188 0.928 . S
H192 C189 0.931 . S
H193 C169 0.930 . S
H194 C166 0.930 . S
H195 C175 0.930 . S
H196 C187 0.929 . S
H197 C190 0.930 . S
C198 C199 1.351 . S
C198 N201 1.368 . S
C198 H203 0.931 . S
C199 C198 1.351 . S
C199 N200 1.373 . S
C199 H227 0.930 . S
N200 C199 1.373 . S
N200 C202 1.340 . S
N201 C198 1.368 . S
N201 C202 1.321 . S
N201 Co204 2.135 . S
C202 N200 1.340 . S
C202 N201 1.321 . S
C202 H226 0.930 . S
H203 C198 0.931 . S
Co204 N201 2.135 . S
Co204 N207 2.121 . S
Co204 O212 2.055 . S
Co204 O215 2.039 . S
Co204 N218 2.140 . S
C205 O206 1.227 . S
C205 O215 1.265 . S
O206 C205 1.227 . S
N207 Co204 2.121 . S
N207 C209 1.375 . S
N207 C210 1.313 . S
C208 C209 1.338 . S
C208 N211 1.377 . S
C208 H228 0.930 . S
C209 N207 1.375 . S
C209 C208 1.338 . S
C209 H213 0.931 . S
C210 N207 1.313 . S
C210 N211 1.344 . S
C210 H214 0.930 . S
N211 C208 1.377 . S
N211 C210 1.344 . S
O212 Co204 2.055 . S
O212 C216 1.253 . S
H213 C209 0.931 . S
H214 C210 0.930 . S
O215 Co204 2.039 . S
O215 C205 1.265 . S
C216 O212 1.253 . S
C216 O217 1.227 . S
O217 C216 1.227 . S
N218 Co204 2.140 . S
N218 C221 1.346 . S
N218 C222 1.345 . S
C219 C220 1.387 . S
C219 C223 1.391 . S
C220 C219 1.387 . S
C220 C221 1.369 . S
C220 H229 0.929 . S
C221 N218 1.346 . S
C221 C220 1.369 . S
C221 H224 0.928 . S
C222 N218 1.345 . S
C222 C223 1.371 . S
C222 H225 0.931 . S
C223 C219 1.391 . S
C223 C222 1.371 . S
C223 H230 0.930 . S
H224 C221 0.928 . S
H225 C222 0.931 . S
H226 C202 0.930 . S
H227 C199 0.930 . S
H228 C208 0.930 . S
H229 C220 0.929 . S
H230 C223 0.930 . S
C231 C232 1.351 . S
C231 N234 1.368 . S
C231 H236 0.931 . S
C232 C231 1.351 . S
C232 N233 1.373 . S
C232 H260 0.930 . S
N233 C232 1.373 . S
N233 C235 1.340 . S
N234 C231 1.368 . S
N234 C235 1.321 . S
N234 Co237 2.135 . S
C235 N233 1.340 . S
C235 N234 1.321 . S
C235 H259 0.930 . S
H236 C231 0.931 . S
Co237 N234 2.135 . S
Co237 N240 2.121 . S
Co237 O245 2.055 . S
Co237 O248 2.039 . S
Co237 N251 2.140 . S
C238 O239 1.227 . S
C238 O248 1.265 . S
O239 C238 1.227 . S
N240 Co237 2.121 . S
N240 C242 1.375 . S
N240 C243 1.313 . S
C241 C242 1.338 . S
C241 N244 1.377 . S
C241 H261 0.930 . S
C242 N240 1.375 . S
C242 C241 1.338 . S
C242 H246 0.931 . S
C243 N240 1.313 . S
C243 N244 1.344 . S
C243 H247 0.930 . S
N244 C241 1.377 . S
N244 C243 1.344 . S
O245 Co237 2.055 . S
O245 C249 1.253 . S
H246 C242 0.931 . S
H247 C243 0.930 . S
O248 Co237 2.039 . S
O248 C238 1.265 . S
C249 O245 1.253 . S
C249 O250 1.227 . S
O250 C249 1.227 . S
N251 Co237 2.140 . S
N251 C254 1.346 . S
N251 C255 1.345 . S
C252 C253 1.387 . S
C252 C256 1.391 . S
C253 C252 1.387 . S
C253 C254 1.369 . S
C253 H262 0.929 . S
C254 N251 1.346 . S
C254 C253 1.369 . S
C254 H257 0.928 . S
C255 N251 1.345 . S
C255 C256 1.371 . S
C255 H258 0.931 . S
C256 C252 1.391 . S
C256 C255 1.371 . S
C256 H263 0.930 . S
H257 C254 0.928 . S
H258 C255 0.931 . S
H259 C235 0.930 . S
H260 C232 0.930 . S
H261 C241 0.930 . S
H262 C253 0.929 . S
H263 C256 0.930 . S
H264 C272 0.929 . S
H265 C274 0.930 . S
H266 C276 0.930 . S
H267 C279 0.929 . S
H268 C282 0.930 . S
H269 C284 0.960 . S
H270 C284 0.960 . S
H271 C284 0.960 . S
C272 H264 0.929 . S
C272 C273 1.377 . S
C272 C274 1.384 . S
C273 C272 1.377 . S
C273 C279 1.390 1_556 S
C274 H265 0.930 . S
C274 C272 1.384 . S
C274 C275 1.372 1_556 S
C275 C274 1.372 1_554 S
C275 C276 1.400 . S
C275 C280 1.490 . S
C276 H266 0.930 . S
C276 C275 1.400 . S
C276 C279 1.386 . S
H277 C293 0.930 . S
H278 C294 0.931 . S
C279 H267 0.929 . S
C279 C273 1.390 1_554 S
C279 C276 1.386 . S
C280 C275 1.490 . S
C280 C282 1.395 . S
C280 C283 1.403 1_554 S
H281 C287 0.930 . S
C282 H268 0.930 . S
C282 C280 1.395 . S
C282 C285 1.403 . S
C283 C280 1.403 1_556 S
C283 C284 1.524 . S
C283 C287 1.400 . S
C284 H269 0.960 . S
C284 H270 0.960 . S
C284 H271 0.960 . S
C284 C283 1.524 . S
C285 C282 1.403 . S
C285 C286 1.392 . S
C285 C289 1.495 . S
C286 C285 1.392 . S
C286 C287 1.385 1_554 S
C286 C288 1.478 . S
C287 H281 0.930 . S
C287 C283 1.400 . S
C287 C286 1.385 1_556 S
C288 C286 1.478 . S
C288 C290 1.381 1_554 S
C288 C294 1.383 . S
C289 C285 1.495 . S
C289 H295 0.959 . S
C289 H296 0.961 . S
C289 H297 0.960 . S
C290 C288 1.381 1_556 S
C290 C291 1.394 . S
C290 H298 0.930 . S
C291 C290 1.394 . S
C291 C292 1.383 1_556 S
C291 H299 0.929 . S
C292 C291 1.383 1_554 S
C292 C293 1.377 . S
C293 H277 0.930 . S
C293 C292 1.377 . S
C293 C294 1.379 . S
C294 H278 0.931 . S
C294 C288 1.383 . S
C294 C293 1.379 . S
H295 C289 0.959 . S
H296 C289 0.961 . S
H297 C289 0.960 . S
H298 C290 0.930 . S
H299 C291 0.929 . S
H300 C308 0.929 . S
H301 C310 0.930 . S
H302 C312 0.930 . S
H303 C315 0.929 . S
H304 C318 0.930 . S
H305 C320 0.960 . S
H306 C320 0.960 . S
H307 C320 0.960 . S
C308 H300 0.929 . S
C308 C309 1.377 1_556 S
C308 C310 1.384 . S
C309 C308 1.377 1_554 S
C309 C315 1.390 . S
C310 H301 0.930 . S
C310 C308 1.384 . S
C310 C311 1.372 1_556 S
C311 C310 1.372 1_554 S
C311 C312 1.400 . S
C311 C316 1.490 . S
C312 H302 0.930 . S
C312 C311 1.400 . S
C312 C315 1.386 . S
H313 C329 0.930 . S
H314 C330 0.931 . S
C315 H303 0.929 . S
C315 C309 1.390 . S
C315 C312 1.386 . S
C316 C311 1.490 . S
C316 C318 1.395 1_554 S
C316 C319 1.403 . S
H317 C323 0.930 . S
C318 H304 0.930 . S
C318 C316 1.395 1_556 S
C318 C321 1.403 . S
C319 C316 1.403 . S
C319 C320 1.524 . S
C319 C323 1.400 . S
C320 H305 0.960 . S
C320 H306 0.960 . S
C320 H307 0.960 . S
C320 C319 1.524 . S
C321 C318 1.403 . S
C321 C322 1.417 . S
C321 C325 1.495 . S
C322 C321 1.417 . S
C322 C323 1.358 1_556 S
C322 C324 1.480 . S
C323 H317 0.930 . S
C323 C319 1.400 . S
C323 C322 1.358 1_554 S
C324 C322 1.480 . S
C324 C326 1.381 . S
C324 C330 1.383 1_556 S
C325 C321 1.495 . S
C325 H331 0.959 . S
C325 H332 0.961 . S
C325 H333 0.960 . S
C326 C324 1.381 . S
C326 C327 1.394 . S
C326 H334 0.930 . S
C327 C326 1.394 . S
C327 C328 1.383 . S
C327 H335 0.929 . S
C328 C327 1.383 . S
C328 C329 1.377 1_556 S
C329 H313 0.930 . S
C329 C328 1.377 1_554 S
C329 C330 1.379 . S
C330 H314 0.931 . S
C330 C324 1.383 1_554 S
C330 C329 1.379 . S
H331 C325 0.959 . S
H332 C325 0.961 . S
H333 C325 0.960 . S
H334 C326 0.930 . S
H335 C327 0.929 . S
H336 C344 0.929 . S
H337 C346 0.930 . S
H338 C348 0.930 . S
H339 C351 0.929 . S
H340 C354 0.930 . S
H341 C356 0.960 . S
H342 C356 0.960 1_554 S
H343 C356 0.960 . S
C344 H336 0.929 . S
C344 C345 1.377 . S
C344 C346 1.384 . S
C345 C344 1.377 . S
C345 C351 1.390 1_554 S
C346 H337 0.930 . S
C346 C344 1.384 . S
C346 C347 1.372 . S
C347 C346 1.372 . S
C347 C348 1.400 1_554 S
C347 C352 1.490 . S
C348 H338 0.930 . S
C348 C347 1.400 1_556 S
C348 C351 1.386 . S
H349 C365 0.930 . S
H350 C366 0.931 . S
C351 H339 0.929 . S
C351 C345 1.390 1_556 S
C351 C348 1.386 . S
C352 C347 1.490 . S
C352 C354 1.395 . S
C352 C355 1.403 1_554 S
H353 C359 0.930 . S
C354 H340 0.930 . S
C354 C352 1.395 . S
C354 C357 1.403 . S
C355 C352 1.403 1_556 S
C355 C356 1.524 . S
C355 C359 1.400 . S
C356 H341 0.960 . S
C356 H342 0.960 1_556 S
C356 H343 0.960 . S
C356 C355 1.524 . S
C357 C354 1.403 . S
C357 C358 1.392 . S
C357 C361 1.495 . S
C358 C357 1.392 . S
C358 C359 1.385 1_554 S
C358 C360 1.478 . S
C359 H353 0.930 . S
C359 C355 1.400 . S
C359 C358 1.385 1_556 S
C360 C358 1.478 . S
C360 C362 1.381 . S
C360 C366 1.383 1_554 S
C361 C357 1.495 . S
C361 H367 0.959 . S
C361 H368 0.961 . S
C361 H369 0.960 . S
C362 C360 1.381 . S
C362 C363 1.394 . S
C362 H370 0.930 . S
C363 C362 1.394 . S
C363 C364 1.390 . S
C363 H371 0.929 . S
C364 C363 1.390 . S
C364 C365 1.371 1_554 S
C365 H349 0.930 . S
C365 C364 1.371 1_556 S
C365 C366 1.379 . S
C366 H350 0.931 . S
C366 C360 1.383 1_556 S
C366 C365 1.379 . S
H367 C361 0.959 . S
H368 C361 0.961 . S
H369 C361 0.960 . S
H370 C362 0.930 . S
H371 C363 0.929 . S
H372 C380 0.929 . S
H373 C382 0.930 . S
H374 C384 0.930 . S
H375 C387 0.929 . S
H376 C390 0.930 . S
H377 C392 0.960 . S
H378 C392 0.960 . S
H379 C392 0.960 . S
C380 H372 0.929 . S
C380 C381 1.362 1_554 S
C380 C382 1.384 . S
C381 C380 1.362 1_556 S
C381 C387 1.404 . S
C382 H373 0.930 . S
C382 C380 1.384 . S
C382 C383 1.372 . S
C383 C382 1.372 . S
C383 C384 1.400 1_554 S
C383 C388 1.490 . S
C384 H374 0.930 . S
C384 C383 1.400 1_556 S
C384 C387 1.386 . S
H385 C401 0.927 1_556 S
H386 C402 0.927 1_556 S
C387 H375 0.929 . S
C387 C381 1.404 . S
C387 C384 1.386 . S
C388 C383 1.490 . S
C388 C390 1.395 . S
C388 C391 1.403 1_554 S
H389 C395 0.930 . S
C390 H376 0.930 . S
C390 C388 1.395 . S
C390 C393 1.403 . S
C391 C388 1.403 1_556 S
C391 C392 1.524 . S
C391 C395 1.400 . S
C392 H377 0.960 . S
C392 H378 0.960 . S
C392 H379 0.960 . S
C392 C391 1.524 . S
C393 C390 1.403 . S
C393 C394 1.392 . S
C393 C397 1.495 . S
C394 C393 1.392 . S
C394 C395 1.385 1_554 S
C394 C396 1.478 . S
C395 H389 0.930 . S
C395 C391 1.400 . S
C395 C394 1.385 1_556 S
C396 C394 1.478 . S
C396 C398 1.381 . S
C396 C402 1.387 . S
C397 C393 1.495 . S
C397 H403 0.959 . S
C397 H404 0.961 . S
C397 H405 0.960 . S
C398 C396 1.381 . S
C398 C399 1.394 . S
C398 H406 0.930 . S
C399 C398 1.394 . S
C399 C400 1.383 . S
C399 H407 0.929 . S
C400 C399 1.383 . S
C400 C401 1.379 . S
C401 H385 0.927 1_554 S
C401 C400 1.379 . S
C401 C402 1.379 . S
C402 H386 0.927 1_554 S
C402 C396 1.387 . S
C402 C401 1.379 . S
H403 C397 0.959 . S
H404 C397 0.961 . S
H405 C397 0.960 . S
H406 C398 0.930 . S
H407 C399 0.929 . S
H408 C416 0.929 . S
H409 C418 0.930 . S
H410 C420 0.930 . S
H411 C423 0.929 . S
H412 C426 0.930 . S
H413 C428 0.960 . S
H414 C428 0.948 1_455 S
H415 C428 0.960 1_455 S
C416 H408 0.929 . S
C416 C417 1.377 . S
C416 C418 1.384 . S
C417 C416 1.377 . S
C417 C423 1.390 . S
C418 H409 0.930 . S
C418 C416 1.384 . S
C418 C419 1.372 . S
C419 C418 1.372 . S
C419 C420 1.400 . S
C419 C424 1.490 1_455 S
C420 H410 0.930 . S
C420 C419 1.400 . S
C420 C423 1.386 . S
H421 C437 0.930 . S
H422 C438 0.931 . S
C423 H411 0.929 . S
C423 C417 1.390 . S
C423 C420 1.386 . S
C424 C419 1.490 1_655 S
C424 C426 1.395 . S
C424 C427 1.403 . S
H425 C431 0.930 . S
C426 H412 0.930 . S
C426 C424 1.395 . S
C426 C429 1.403 . S
C427 C424 1.403 . S
C427 C428 1.524 . S
C427 C431 1.400 . S
C428 H413 0.960 . S
C428 H414 0.948 1_655 S
C428 H415 0.960 1_655 S
C428 C427 1.524 . S
C429 C426 1.403 . S
C429 C430 1.392 . S
C429 C433 1.495 . S
C430 C429 1.392 . S
C430 C431 1.385 . S
C430 C432 1.478 . S
C431 H425 0.930 . S
C431 C427 1.400 . S
C431 C430 1.385 . S
C432 C430 1.478 . S
C432 C434 1.381 . S
C432 C438 1.383 . S
C433 C429 1.495 . S
C433 H439 0.959 . S
C433 H440 0.961 . S
C433 H441 0.960 . S
C434 C432 1.381 . S
C434 C435 1.394 . S
C434 H442 0.930 . S
C435 C434 1.394 . S
C435 C436 1.383 . S
C435 H443 0.929 . S
C436 C435 1.383 . S
C436 C437 1.377 . S
C437 H421 0.930 . S
C437 C436 1.377 . S
C437 C438 1.379 . S
C438 H422 0.931 . S
C438 C432 1.383 . S
C438 C437 1.379 . S
H439 C433 0.959 . S
H440 C433 0.961 . S
H441 C433 0.960 . S
H442 C434 0.930 . S
H443 C435 0.929 . S
H444 C452 0.929 . S
H445 C454 0.930 . S
H446 C456 0.930 1_565 S
H447 C459 0.929 . S
H448 C462 0.930 . S
H449 C464 0.960 . S
H450 C464 0.960 . S
H451 C464 0.960 . S
C452 H444 0.929 . S
C452 C453 1.377 . S
C452 C454 1.384 . S
C453 C452 1.377 . S
C453 C459 1.390 . S
C454 H445 0.930 . S
C454 C452 1.384 . S
C454 C455 1.372 . S
C455 C454 1.372 . S
C455 C456 1.400 . S
C455 C460 1.490 1_545 S
C456 H446 0.930 1_545 S
C456 C455 1.400 . S
C456 C459 1.386 . S
H457 C473 0.930 . S
H458 C474 0.931 . S
C459 H447 0.929 . S
C459 C453 1.390 . S
C459 C456 1.386 . S
C460 C455 1.490 1_565 S
C460 C462 1.395 . S
C460 C463 1.403 . S
H461 C467 0.930 . S
C462 H448 0.930 . S
C462 C460 1.395 . S
C462 C465 1.403 . S
C463 C460 1.403 . S
C463 C464 1.524 . S
C463 C467 1.400 . S
C464 H449 0.960 . S
C464 H450 0.960 . S
C464 H451 0.960 . S
C464 C463 1.524 . S
C465 C462 1.403 . S
C465 C466 1.392 . S
C465 C469 1.495 . S
C466 C465 1.392 . S
C466 C467 1.385 . S
C466 C468 1.478 . S
C467 H461 0.930 . S
C467 C463 1.400 . S
C467 C466 1.385 . S
C468 C466 1.478 . S
C468 C470 1.381 . S
C468 C474 1.383 . S
C469 C465 1.495 . S
C469 H475 0.959 . S
C469 H476 0.961 . S
C469 H477 0.960 . S
C470 C468 1.381 . S
C470 C471 1.394 . S
C470 H478 0.930 . S
C471 C470 1.394 . S
C471 C472 1.383 . S
C471 H479 0.929 . S
C472 C471 1.383 . S
C472 C473 1.377 . S
C473 H457 0.930 . S
C473 C472 1.377 . S
C473 C474 1.379 . S
C474 H458 0.931 . S
C474 C468 1.383 . S
C474 C473 1.379 . S
H475 C469 0.959 . S
H476 C469 0.961 . S
H477 C469 0.960 . S
H478 C470 0.930 . S
H479 C471 0.929 . S
H480 C488 0.929 . S
H481 C490 0.930 . S
H482 C492 0.930 . S
H483 C495 0.929 . S
H484 C498 0.930 . S
H485 C500 0.960 . S
H486 C500 0.960 . S
H487 C500 0.960 . S
C488 H480 0.929 . S
C488 C489 1.377 . S
C488 C490 1.384 . S
C489 C488 1.377 . S
C489 C495 1.390 . S
C490 H481 0.930 . S
C490 C488 1.384 . S
C490 C491 1.372 . S
C491 C490 1.372 . S
C491 C492 1.400 . S
C491 C496 1.490 . S
C492 H482 0.930 . S
C492 C491 1.400 . S
C492 C495 1.386 . S
H493 C509 0.930 . S
H494 C510 0.931 . S
C495 H483 0.929 . S
C495 C489 1.390 . S
C495 C492 1.386 . S
C496 C491 1.490 . S
C496 C498 1.395 . S
C496 C499 1.403 . S
H497 C503 0.930 . S
C498 H484 0.930 . S
C498 C496 1.395 . S
C498 C501 1.403 . S
C499 C496 1.403 . S
C499 C500 1.524 . S
C499 C503 1.400 . S
C500 H485 0.960 . S
C500 H486 0.960 . S
C500 H487 0.960 . S
C500 C499 1.524 . S
C501 C498 1.403 . S
C501 C502 1.392 . S
C501 C505 1.495 . S
C502 C501 1.392 . S
C502 C503 1.385 . S
C502 C504 1.478 1_455 S
C503 H497 0.930 . S
C503 C499 1.400 . S
C503 C502 1.385 . S
C504 C502 1.478 1_655 S
C504 C506 1.381 . S
C504 C510 1.383 . S
C505 C501 1.495 . S
C505 H511 0.959 . S
C505 H512 0.961 . S
C505 H513 0.960 . S
C506 C504 1.381 . S
C506 C507 1.394 . S
C506 H514 0.930 . S
C507 C506 1.394 . S
C507 C508 1.383 . S
C507 H515 0.929 . S
C508 C507 1.383 . S
C508 C509 1.377 . S
C509 H493 0.930 . S
C509 C508 1.377 . S
C509 C510 1.379 . S
C510 H494 0.931 . S
C510 C504 1.383 . S
C510 C509 1.379 . S
H511 C505 0.959 . S
H512 C505 0.961 . S
H513 C505 0.960 . S
H514 C506 0.930 . S
H515 C507 0.929 . S
H516 C524 0.929 . S
H517 C526 0.930 . S
H518 C528 0.930 . S
H519 C531 0.929 . S
H520 C534 0.930 . S
H521 C536 0.960 . S
H522 C536 0.960 . S
H523 C536 0.960 . S
C524 H516 0.929 . S
C524 C525 1.377 . S
C524 C526 1.384 . S
C525 C524 1.377 . S
C525 C531 1.390 . S
C526 H517 0.930 . S
C526 C524 1.384 . S
C526 C527 1.372 . S
C527 C526 1.372 . S
C527 C528 1.400 . S
C527 C532 1.490 . S
C528 H518 0.930 . S
C528 C527 1.400 . S
C528 C531 1.386 . S
H529 C545 0.930 . S
H530 C546 0.931 . S
C531 H519 0.929 . S
C531 C525 1.390 . S
C531 C528 1.386 . S
C532 C527 1.490 . S
C532 C534 1.395 . S
C532 C535 1.403 . S
H533 C539 0.930 . S
C534 H520 0.930 . S
C534 C532 1.395 . S
C534 C537 1.403 . S
C535 C532 1.403 . S
C535 C536 1.524 . S
C535 C539 1.400 . S
C536 H521 0.960 . S
C536 H522 0.960 . S
C536 H523 0.960 . S
C536 C535 1.524 . S
C537 C534 1.403 . S
C537 C538 1.392 . S
C537 C541 1.495 . S
C538 C537 1.392 . S
C538 C539 1.385 . S
C538 C540 1.478 1_545 S
C539 H533 0.930 . S
C539 C535 1.400 . S
C539 C538 1.385 . S
C540 C538 1.478 1_565 S
C540 C542 1.381 . S
C540 C546 1.383 . S
C541 C537 1.495 . S
C541 H547 0.959 . S
C541 H548 0.961 . S
C541 H549 0.960 . S
C542 C540 1.381 . S
C542 C543 1.394 . S
C542 H550 0.930 1_565 S
C543 C542 1.394 . S
C543 C544 1.383 . S
C543 H551 0.929 . S
C544 C543 1.383 . S
C544 C545 1.377 . S
C545 H529 0.930 . S
C545 C544 1.377 . S
C545 C546 1.379 . S
C546 H530 0.931 . S
C546 C540 1.383 . S
C546 C545 1.379 . S
H547 C541 0.959 . S
H548 C541 0.961 . S
H549 C541 0.960 . S
H550 C542 0.930 1_545 S
H551 C543 0.929 . S
H552 C560 0.929 . S
H553 C562 0.930 . S
H554 C564 0.930 . S
H555 C567 0.929 . S
H556 C570 0.930 . S
H557 C572 0.960 . S
H558 C572 0.960 . S
H559 C572 0.960 . S
C560 H552 0.929 . S
C560 C561 1.377 . S
C560 C562 1.384 . S
C561 C560 1.377 . S
C561 C567 1.390 . S
C562 H553 0.930 . S
C562 C560 1.384 . S
C562 C563 1.372 . S
C563 C562 1.372 . S
C563 C564 1.400 . S
C563 C568 1.490 . S
C564 H554 0.930 . S
C564 C563 1.400 . S
C564 C567 1.386 . S
H565 C581 0.930 . S
H566 C582 0.931 . S
C567 H555 0.929 . S
C567 C561 1.390 . S
C567 C564 1.386 . S
C568 C563 1.490 . S
C568 C570 1.395 . S
C568 C571 1.403 . S
H569 C575 0.930 . S
C570 H556 0.930 . S
C570 C568 1.395 . S
C570 C573 1.403 . S
C571 C568 1.403 . S
C571 C572 1.524 . S
C571 C575 1.400 . S
C572 H557 0.960 . S
C572 H558 0.960 . S
C572 H559 0.960 . S
C572 C571 1.524 . S
C573 C570 1.403 . S
C573 C574 1.392 . S
C573 C577 1.495 . S
C574 C573 1.392 . S
C574 C575 1.385 . S
C574 C576 1.478 . S
C575 H569 0.930 . S
C575 C571 1.400 . S
C575 C574 1.385 . S
C576 C574 1.478 . S
C576 C578 1.381 . S
C576 C582 1.383 . S
C577 C573 1.495 . S
C577 H583 0.959 . S
C577 H584 0.961 . S
C577 H585 0.960 . S
C578 C576 1.381 . S
C578 C579 1.394 . S
C578 H586 0.930 . S
C579 C578 1.394 . S
C579 C580 1.383 . S
C579 H587 0.929 . S
C580 C579 1.383 . S
C580 C581 1.377 . S
C581 H565 0.930 . S
C581 C580 1.377 . S
C581 C582 1.379 . S
C582 H566 0.931 . S
C582 C576 1.383 . S
C582 C581 1.379 . S
H583 C577 0.959 . S
H584 C577 0.961 . S
H585 C577 0.960 . S
H586 C578 0.930 . S
H587 C579 0.929 . S
H588 C596 0.929 . S
H589 C598 0.930 . S
H590 C600 0.930 . S
H591 C603 0.929 . S
H592 C606 0.930 . S
H593 C608 0.960 . S
H594 C608 0.960 . S
H595 C608 0.960 . S
C596 H588 0.929 . S
C596 C597 1.377 . S
C596 C598 1.384 . S
C597 C596 1.377 . S
C597 C603 1.390 . S
C598 H589 0.930 . S
C598 C596 1.384 . S
C598 C599 1.372 . S
C599 C598 1.372 . S
C599 C600 1.400 . S
C599 C604 1.490 . S
C600 H590 0.930 . S
C600 C599 1.400 . S
C600 C603 1.386 . S
H601 C617 0.930 . S
H602 C618 0.931 . S
C603 H591 0.929 . S
C603 C597 1.390 . S
C603 C600 1.386 . S
C604 C599 1.490 . S
C604 C606 1.395 . S
C604 C607 1.403 . S
H605 C611 0.930 . S
C606 H592 0.930 . S
C606 C604 1.395 . S
C606 C609 1.403 . S
C607 C604 1.403 . S
C607 C608 1.524 . S
C607 C611 1.400 . S
C608 H593 0.960 . S
C608 H594 0.960 . S
C608 H595 0.960 . S
C608 C607 1.524 . S
C609 C606 1.403 . S
C609 C610 1.392 . S
C609 C613 1.495 . S
C610 C609 1.392 . S
C610 C611 1.385 . S
C610 C612 1.478 . S
C611 H605 0.930 . S
C611 C607 1.400 . S
C611 C610 1.385 . S
C612 C610 1.478 . S
C612 C614 1.381 . S
C612 C618 1.383 . S
C613 C609 1.495 . S
C613 H619 0.959 . S
C613 H620 0.961 . S
C613 H621 0.960 . S
C614 C612 1.381 . S
C614 C615 1.394 . S
C614 H622 0.930 . S
C615 C614 1.394 . S
C615 C616 1.383 . S
C615 H623 0.929 . S
C616 C615 1.383 . S
C616 C617 1.377 . S
C617 H601 0.930 . S
C617 C616 1.377 . S
C617 C618 1.379 . S
C618 H602 0.931 . S
C618 C612 1.383 . S
C618 C617 1.379 . S
H619 C613 0.959 . S
H620 C613 0.961 . S
H621 C613 0.960 . S
H622 C614 0.930 . S
H623 C615 0.929 . S
H624 C632 0.929 . S
H625 C634 0.930 . S
H626 C636 0.930 . S
H627 C639 0.929 . S
H628 C642 0.930 . S
H629 C644 0.960 . S
H630 C644 0.960 . S
H631 C644 0.960 . S
C632 H624 0.929 . S
C632 C633 1.377 . S
C632 C634 1.384 . S
C633 C632 1.377 . S
C633 C639 1.390 . S
C634 H625 0.930 . S
C634 C632 1.384 . S
C634 C635 1.372 . S
C635 C634 1.372 . S
C635 C636 1.400 . S
C635 C640 1.490 . S
C636 H626 0.930 . S
C636 C635 1.400 . S
C636 C639 1.386 . S
H637 C653 0.930 . S
H638 C654 0.931 . S
C639 H627 0.929 . S
C639 C633 1.390 . S
C639 C636 1.386 . S
C640 C635 1.490 . S
C640 C642 1.395 . S
C640 C643 1.403 . S
H641 C647 0.930 . S
C642 H628 0.930 . S
C642 C640 1.395 . S
C642 C645 1.403 . S
C643 C640 1.403 . S
C643 C644 1.524 . S
C643 C647 1.400 . S
C644 H629 0.960 . S
C644 H630 0.960 . S
C644 H631 0.960 . S
C644 C643 1.524 . S
C645 C642 1.403 . S
C645 C646 1.392 . S
C645 C649 1.495 . S
C646 C645 1.392 . S
C646 C647 1.385 . S
C646 C648 1.478 . S
C647 H641 0.930 . S
C647 C643 1.400 . S
C647 C646 1.385 . S
C648 C646 1.478 . S
C648 C650 1.381 . S
C648 C654 1.383 . S
C649 C645 1.495 . S
C649 H655 0.959 . S
C649 H656 0.961 . S
C649 H657 0.960 . S
C650 C648 1.381 . S
C650 C651 1.394 . S
C650 H658 0.930 . S
C651 C650 1.394 . S
C651 C652 1.383 . S
C651 H659 0.929 . S
C652 C651 1.383 . S
C652 C653 1.377 . S
C653 H637 0.930 . S
C653 C652 1.377 . S
C653 C654 1.379 . S
C654 H638 0.931 . S
C654 C648 1.383 . S
C654 C653 1.379 . S
H655 C649 0.959 . S
H656 C649 0.961 . S
H657 C649 0.960 . S
H658 C650 0.930 . S
H659 C651 0.929 . S
H660 C668 0.929 . S
H661 C670 0.930 . S
H662 C672 0.930 . S
H663 C675 0.929 . S
H664 C678 0.930 . S
H665 C680 0.960 . S
H666 C680 0.960 . S
H667 C680 0.960 . S
C668 H660 0.929 . S
C668 C669 1.377 . S
C668 C670 1.384 . S
C669 C668 1.377 . S
C669 C675 1.390 . S
C670 H661 0.930 . S
C670 C668 1.384 . S
C670 C671 1.372 . S
C671 C670 1.372 . S
C671 C672 1.400 . S
C671 C676 1.490 . S
C672 H662 0.930 . S
C672 C671 1.400 . S
C672 C675 1.386 . S
H673 C689 0.930 . S
H674 C690 0.931 . S
C675 H663 0.929 . S
C675 C669 1.390 . S
C675 C672 1.386 . S
C676 C671 1.490 . S
C676 C678 1.395 . S
C676 C679 1.403 . S
H677 C683 0.930 . S
C678 H664 0.930 . S
C678 C676 1.395 . S
C678 C681 1.403 . S
C679 C676 1.403 . S
C679 C680 1.524 . S
C679 C683 1.400 . S
C680 H665 0.960 . S
C680 H666 0.960 . S
C680 H667 0.960 . S
C680 C679 1.524 . S
C681 C678 1.403 . S
C681 C682 1.392 . S
C681 C685 1.495 . S
C682 C681 1.392 . S
C682 C683 1.385 . S
C682 C684 1.478 . S
C683 H677 0.930 . S
C683 C679 1.400 . S
C683 C682 1.385 . S
C684 C682 1.478 . S
C684 C686 1.381 . S
C684 C690 1.383 . S
C685 C681 1.495 . S
C685 H691 0.959 . S
C685 H692 0.961 . S
C685 H693 0.960 . S
C686 C684 1.381 . S
C686 C687 1.394 . S
C686 H694 0.930 . S
C687 C686 1.394 . S
C687 C688 1.383 . S
C687 H695 0.929 . S
C688 C687 1.383 . S
C688 C689 1.377 . S
C689 H673 0.930 . S
C689 C688 1.377 . S
C689 C690 1.379 . S
C690 H674 0.931 . S
C690 C684 1.383 . S
C690 C689 1.379 . S
H691 C685 0.959 . S
H692 C685 0.961 . S
H693 C685 0.960 . S
H694 C686 0.930 . S
H695 C687 0.929 . S
H696 C704 0.929 . S
H697 C706 0.930 . S
H698 C708 0.930 . S
H699 C711 0.929 . S
H700 C714 0.930 . S
H701 C716 0.960 . S
H702 C716 0.960 . S
H703 C716 0.960 . S
C704 H696 0.929 . S
C704 C705 1.377 . S
C704 C706 1.384 . S
C705 C704 1.377 . S
C705 C711 1.390 . S
C706 H697 0.930 . S
C706 C704 1.384 . S
C706 C707 1.372 . S
C707 C706 1.372 . S
C707 C708 1.400 . S
C707 C712 1.490 . S
C708 H698 0.930 . S
C708 C707 1.400 . S
C708 C711 1.386 . S
H709 C725 0.930 . S
H710 C726 0.931 . S
C711 H699 0.929 . S
C711 C705 1.390 . S
C711 C708 1.386 . S
C712 C707 1.490 . S
C712 C714 1.395 . S
C712 C715 1.403 . S
H713 C719 0.930 . S
C714 H700 0.930 . S
C714 C712 1.395 . S
C714 C717 1.403 . S
C715 C712 1.403 . S
C715 C716 1.524 . S
C715 C719 1.400 . S
C716 H701 0.960 . S
C716 H702 0.960 . S
C716 H703 0.960 . S
C716 C715 1.524 . S
C717 C714 1.403 . S
C717 C718 1.392 . S
C717 C721 1.495 . S
C718 C717 1.392 . S
C718 C719 1.385 . S
C718 C720 1.478 . S
C719 H713 0.930 . S
C719 C715 1.400 . S
C719 C718 1.385 . S
C720 C718 1.478 . S
C720 C722 1.381 . S
C720 C726 1.383 . S
C721 C717 1.495 . S
C721 H727 0.959 . S
C721 H728 0.961 . S
C721 H729 0.960 . S
C722 C720 1.381 . S
C722 C723 1.394 . S
C722 H730 0.930 . S
C723 C722 1.394 . S
C723 C724 1.383 . S
C723 H731 0.929 . S
C724 C723 1.383 . S
C724 C725 1.377 . S
C725 H709 0.930 . S
C725 C724 1.377 . S
C725 C726 1.379 . S
C726 H710 0.931 . S
C726 C720 1.383 . S
C726 C725 1.379 . S
H727 C721 0.959 . S
H728 C721 0.961 . S
H729 C721 0.960 . S
H730 C722 0.930 . S
H731 C723 0.929 . S
H732 C740 0.929 . S
H733 C742 0.930 . S
H734 C744 0.930 . S
H735 C747 0.929 . S
H736 C750 0.930 . S
H737 C752 0.960 . S
H738 C752 0.960 . S
H739 C752 0.960 . S
C740 H732 0.929 . S
C740 C741 1.377 . S
C740 C742 1.384 . S
C741 C740 1.377 . S
C741 C747 1.390 . S
C742 H733 0.930 . S
C742 C740 1.384 . S
C742 C743 1.372 . S
C743 C742 1.372 . S
C743 C744 1.400 . S
C743 C748 1.490 . S
C744 H734 0.930 . S
C744 C743 1.400 . S
C744 C747 1.386 . S
H745 C761 0.930 . S
H746 C762 0.931 . S
C747 H735 0.929 . S
C747 C741 1.390 . S
C747 C744 1.386 . S
C748 C743 1.490 . S
C748 C750 1.395 . S
C748 C751 1.403 . S
H749 C755 0.930 . S
C750 H736 0.930 . S
C750 C748 1.395 . S
C750 C753 1.403 . S
C751 C748 1.403 . S
C751 C752 1.524 . S
C751 C755 1.400 . S
C752 H737 0.960 . S
C752 H738 0.960 . S
C752 H739 0.960 . S
C752 C751 1.524 . S
C753 C750 1.403 . S
C753 C754 1.392 . S
C753 C757 1.495 . S
C754 C753 1.392 . S
C754 C755 1.385 . S
C754 C756 1.478 . S
C755 H749 0.930 . S
C755 C751 1.400 . S
C755 C754 1.385 . S
C756 C754 1.478 . S
C756 C758 1.381 . S
C756 C762 1.383 . S
C757 C753 1.495 . S
C757 H763 0.959 . S
C757 H764 0.961 . S
C757 H765 0.960 . S
C758 C756 1.381 . S
C758 C759 1.394 . S
C758 H766 0.930 . S
C759 C758 1.394 . S
C759 C760 1.383 . S
C759 H767 0.929 . S
C760 C759 1.383 . S
C760 C761 1.377 . S
C761 H745 0.930 . S
C761 C760 1.377 . S
C761 C762 1.379 . S
C762 H746 0.931 . S
C762 C756 1.383 . S
C762 C761 1.379 . S
H763 C757 0.959 . S
H764 C757 0.961 . S
H765 C757 0.960 . S
H766 C758 0.930 . S
H767 C759 0.929 . S
H768 C776 0.929 . S
H769 C778 0.930 . S
H770 C780 0.930 . S
H771 C783 0.929 . S
H772 C786 0.930 . S
H773 C788 0.960 . S
H774 C788 0.960 . S
H775 C788 0.960 . S
C776 H768 0.929 . S
C776 C777 1.377 . S
C776 C778 1.384 . S
C777 C776 1.377 . S
C777 C783 1.390 . S
C778 H769 0.930 . S
C778 C776 1.384 . S
C778 C779 1.372 . S
C779 C778 1.372 . S
C779 C780 1.400 . S
C779 C784 1.490 . S
C780 H770 0.930 . S
C780 C779 1.400 . S
C780 C783 1.386 . S
H781 C797 0.930 . S
H782 C798 0.931 . S
C783 H771 0.929 . S
C783 C777 1.390 . S
C783 C780 1.386 . S
C784 C779 1.490 . S
C784 C786 1.395 . S
C784 C787 1.403 . S
H785 C791 0.930 . S
C786 H772 0.930 . S
C786 C784 1.395 . S
C786 C789 1.403 . S
C787 C784 1.403 . S
C787 C788 1.524 . S
C787 C791 1.400 . S
C788 H773 0.960 . S
C788 H774 0.960 . S
C788 H775 0.960 . S
C788 C787 1.524 . S
C789 C786 1.403 . S
C789 C790 1.392 . S
C789 C793 1.495 . S
C790 C789 1.392 . S
C790 C791 1.385 . S
C790 C792 1.478 . S
C791 H785 0.930 . S
C791 C787 1.400 . S
C791 C790 1.385 . S
C792 C790 1.478 . S
C792 C794 1.381 . S
C792 C798 1.383 . S
C793 C789 1.495 . S
C793 H799 0.959 . S
C793 H800 0.961 . S
C793 H801 0.960 . S
C794 C792 1.381 . S
C794 C795 1.394 . S
C794 H802 0.930 . S
C795 C794 1.394 . S
C795 C796 1.383 . S
C795 H803 0.929 . S
C796 C795 1.383 . S
C796 C797 1.377 . S
C797 H781 0.930 . S
C797 C796 1.377 . S
C797 C798 1.379 . S
C798 H782 0.931 . S
C798 C792 1.383 . S
C798 C797 1.379 . S
H799 C793 0.959 . S
H800 C793 0.961 . S
H801 C793 0.960 . S
H802 C794 0.930 . S
H803 C795 0.929 . S
H804 C812 0.929 . S
H805 C814 0.930 . S
H806 C816 0.930 . S
H807 C819 0.929 . S
H808 C822 0.930 . S
H809 C824 0.960 . S
H810 C824 0.960 . S
H811 C824 0.960 . S
C812 H804 0.929 . S
C812 C813 1.377 . S
C812 C814 1.384 . S
C813 C812 1.377 . S
C813 C819 1.390 . S
C814 H805 0.930 . S
C814 C812 1.384 . S
C814 C815 1.372 . S
C815 C814 1.372 . S
C815 C816 1.400 . S
C815 C820 1.490 . S
C816 H806 0.930 . S
C816 C815 1.400 . S
C816 C819 1.386 . S
H817 C833 0.930 . S
H818 C834 0.931 . S
C819 H807 0.929 . S
C819 C813 1.390 . S
C819 C816 1.386 . S
C820 C815 1.490 . S
C820 C822 1.395 . S
C820 C823 1.403 . S
H821 C827 0.930 . S
C822 H808 0.930 . S
C822 C820 1.395 . S
C822 C825 1.403 . S
C823 C820 1.403 . S
C823 C824 1.524 . S
C823 C827 1.400 . S
C824 H809 0.960 . S
C824 H810 0.960 . S
C824 H811 0.960 . S
C824 C823 1.524 . S
C825 C822 1.403 . S
C825 C826 1.392 . S
C825 C829 1.495 . S
C826 C825 1.392 . S
C826 C827 1.385 . S
C826 C828 1.478 . S
C827 H821 0.930 . S
C827 C823 1.400 . S
C827 C826 1.385 . S
C828 C826 1.478 . S
C828 C830 1.381 . S
C828 C834 1.383 . S
C829 C825 1.495 . S
C829 H835 0.959 . S
C829 H836 0.961 . S
C829 H837 0.960 . S
C830 C828 1.381 . S
C830 C831 1.394 . S
C830 H838 0.930 . S
C831 C830 1.394 . S
C831 C832 1.383 . S
C831 H839 0.929 . S
C832 C831 1.383 . S
C832 C833 1.377 . S
C833 H817 0.930 . S
C833 C832 1.377 . S
C833 C834 1.379 . S
C834 H818 0.931 . S
C834 C828 1.383 . S
C834 C833 1.379 . S
H835 C829 0.959 . S
H836 C829 0.961 . S
H837 C829 0.960 . S
H838 C830 0.930 . S
H839 C831 0.929 . S
H840 C848 0.929 . S
H841 C850 0.930 . S
H842 C852 0.930 . S
H843 C855 0.929 . S
H844 C858 0.930 . S
H845 C860 0.960 . S
H846 C860 0.960 1_556 S
H847 C860 0.960 . S
C848 H840 0.929 . S
C848 C849 1.377 1_556 S
C848 C850 1.384 . S
C849 C848 1.377 1_554 S
C849 C855 1.390 . S
C850 H841 0.930 . S
C850 C848 1.384 . S
C850 C851 1.372 1_556 S
C851 C850 1.372 1_554 S
C851 C852 1.400 . S
C851 C856 1.490 . S
C852 H842 0.930 . S
C852 C851 1.400 . S
C852 C855 1.386 . S
H853 C869 0.930 . S
H854 C870 0.931 . S
C855 H843 0.929 . S
C855 C849 1.390 . S
C855 C852 1.386 . S
C856 C851 1.490 . S
C856 C858 1.395 1_655 S
C856 C859 1.403 . S
H857 C863 0.930 . S
C858 H844 0.930 . S
C858 C856 1.395 1_455 S
C858 C861 1.403 . S
C859 C856 1.403 . S
C859 C860 1.524 . S
C859 C863 1.400 1_655 S
C860 H845 0.960 . S
C860 H846 0.960 1_554 S
C860 H847 0.960 . S
C860 C859 1.524 . S
C861 C858 1.403 . S
C861 C862 1.392 . S
C861 C865 1.495 . S
C862 C861 1.392 . S
C862 C863 1.385 . S
C862 C864 1.478 . S
C863 H857 0.930 . S
C863 C859 1.400 1_455 S
C863 C862 1.385 . S
C864 C862 1.478 . S
C864 C866 1.381 1_554 S
C864 C870 1.383 . S
C865 C861 1.495 . S
C865 H871 0.959 . S
C865 H872 0.961 . S
C865 H873 0.960 1_554 S
C866 C864 1.381 1_556 S
C866 C867 1.394 . S
C866 H874 0.930 . S
C867 C866 1.394 . S
C867 C868 1.383 1_556 S
C867 H875 0.929 . S
C868 C867 1.383 1_554 S
C868 C869 1.377 . S
C869 H853 0.930 . S
C869 C868 1.377 . S
C869 C870 1.379 . S
C870 H854 0.931 . S
C870 C864 1.383 . S
C870 C869 1.379 . S
H871 C865 0.959 . S
H872 C865 0.961 . S
H873 C865 0.960 1_556 S
H874 C866 0.930 . S
H875 C867 0.929 . S
H876 C884 0.925 1_556 S
H877 C886 0.925 1_556 S
H878 C888 0.930 . S
H879 C891 0.929 . S
H880 C894 0.930 . S
H881 C896 0.960 . S
H882 C896 0.960 . S
H883 C896 0.960 . S
C884 H876 0.925 1_554 S
C884 C885 1.382 . S
C884 C886 1.384 . S
C885 C884 1.382 . S
C885 C891 1.390 . S
C886 H877 0.925 1_554 S
C886 C884 1.384 . S
C886 C887 1.377 . S
C887 C886 1.377 . S
C887 C888 1.400 . S
C887 C892 1.490 . S
C888 H878 0.930 . S
C888 C887 1.400 . S
C888 C891 1.386 . S
H889 C905 0.930 . S
H890 C906 0.931 . S
C891 H879 0.929 . S
C891 C885 1.390 . S
C891 C888 1.386 . S
C892 C887 1.490 . S
C892 C894 1.395 . S
C892 C895 1.403 1_554 S
H893 C899 0.930 . S
C894 H880 0.930 . S
C894 C892 1.395 . S
C894 C897 1.403 1_545 S
C895 C892 1.403 1_556 S
C895 C896 1.524 . S
C895 C899 1.400 1_545 S
C896 H881 0.960 . S
C896 H882 0.960 . S
C896 H883 0.960 . S
C896 C895 1.524 . S
C897 C894 1.403 1_565 S
C897 C898 1.392 . S
C897 C901 1.495 . S
C898 C897 1.392 . S
C898 C899 1.385 1_554 S
C898 C900 1.478 . S
C899 H893 0.930 . S
C899 C895 1.400 1_565 S
C899 C898 1.385 1_556 S
C900 C898 1.478 . S
C900 C902 1.381 . S
C900 C906 1.383 . S
C901 C897 1.495 . S
C901 H907 0.959 . S
C901 H908 0.961 . S
C901 H909 0.960 . S
C902 C900 1.381 . S
C902 C903 1.395 . S
C902 H910 0.930 1_554 S
C903 C902 1.395 . S
C903 C904 1.391 . S
C903 H911 0.921 1_554 S
C904 C903 1.391 . S
C904 C905 1.377 . S
C905 H889 0.930 . S
C905 C904 1.377 . S
C905 C906 1.379 . S
C906 H890 0.931 . S
C906 C900 1.383 . S
C906 C905 1.379 . S
H907 C901 0.959 . S
H908 C901 0.961 . S
H909 C901 0.960 . S
H910 C902 0.930 1_556 S
H911 C903 0.921 1_556 S
H912 C920 0.929 . S
H913 C922 0.930 . S
H914 C924 0.930 . S
H915 C927 0.929 . S
H916 C930 0.930 . S
H917 C932 0.960 . S
H918 C932 0.960 . S
H919 C932 0.960 . S
C920 H912 0.929 . S
C920 C921 1.377 . S
C920 C922 1.384 . S
C921 C920 1.377 . S
C921 C927 1.390 . S
C922 H913 0.930 . S
C922 C920 1.384 . S
C922 C923 1.372 . S
C923 C922 1.372 . S
C923 C924 1.400 . S
C923 C928 1.490 . S
C924 H914 0.930 . S
C924 C923 1.400 . S
C924 C927 1.386 . S
H925 C941 0.930 . S
H926 C942 0.931 . S
C927 H915 0.929 . S
C927 C921 1.390 . S
C927 C924 1.386 . S
C928 C923 1.490 . S
C928 C930 1.395 . S
C928 C931 1.403 1_545 S
H929 C935 0.930 . S
C930 H916 0.930 . S
C930 C928 1.395 . S
C930 C933 1.403 . S
C931 C928 1.403 1_565 S
C931 C932 1.524 . S
C931 C935 1.400 . S
C932 H917 0.960 . S
C932 H918 0.960 . S
C932 H919 0.960 . S
C932 C931 1.524 . S
C933 C930 1.403 . S
C933 C934 1.392 1_545 S
C933 C937 1.495 . S
C934 C933 1.392 1_565 S
C934 C935 1.385 . S
C934 C936 1.478 . S
C935 H929 0.930 . S
C935 C931 1.400 . S
C935 C934 1.385 . S
C936 C934 1.478 . S
C936 C938 1.381 . S
C936 C942 1.383 . S
C937 C933 1.495 . S
C937 H943 0.959 . S
C937 H944 0.961 . S
C937 H945 0.960 . S
C938 C936 1.381 . S
C938 C939 1.394 . S
C938 H946 0.930 . S
C939 C938 1.394 . S
C939 C940 1.383 . S
C939 H947 0.929 . S
C940 C939 1.383 . S
C940 C941 1.377 . S
C941 H925 0.930 . S
C941 C940 1.377 . S
C941 C942 1.379 . S
C942 H926 0.931 . S
C942 C936 1.383 . S
C942 C941 1.379 . S
H943 C937 0.959 . S
H944 C937 0.961 . S
H945 C937 0.960 . S
H946 C938 0.930 . S
H947 C939 0.929 . S
H948 C956 0.929 . S
H949 C958 0.930 . S
H950 C960 0.930 . S
H951 C963 0.929 . S
H952 C966 0.930 . S
H953 C968 0.960 . S
H954 C968 0.960 . S
H955 C968 0.960 . S
C956 H948 0.929 . S
C956 C957 1.377 . S
C956 C958 1.384 . S
C957 C956 1.377 . S
C957 C963 1.390 . S
C958 H949 0.930 . S
C958 C956 1.384 . S
C958 C959 1.372 . S
C959 C958 1.372 . S
C959 C960 1.400 . S
C959 C964 1.490 . S
C960 H950 0.930 . S
C960 C959 1.400 . S
C960 C963 1.386 . S
H961 C977 0.930 . S
H962 C978 0.931 . S
C963 H951 0.929 . S
C963 C957 1.390 . S
C963 C960 1.386 . S
C964 C959 1.490 . S
C964 C966 1.395 . S
C964 C967 1.403 1_455 S
H965 C971 0.930 . S
C966 H952 0.930 . S
C966 C964 1.395 . S
C966 C969 1.403 . S
C967 C964 1.403 1_655 S
C967 C968 1.524 . S
C967 C971 1.400 . S
C968 H953 0.960 . S
C968 H954 0.960 . S
C968 H955 0.960 . S
C968 C967 1.524 . S
C969 C966 1.403 . S
C969 C970 1.392 1_455 S
C969 C973 1.495 . S
C970 C969 1.392 1_655 S
C970 C971 1.385 . S
C970 C972 1.478 . S
C971 H965 0.930 . S
C971 C967 1.400 . S
C971 C970 1.385 . S
C972 C970 1.478 . S
C972 C974 1.381 . S
C972 C978 1.383 . S
C973 C969 1.495 . S
C973 H979 0.959 . S
C973 H980 0.961 . S
C973 H981 0.960 . S
C974 C972 1.381 . S
C974 C975 1.394 . S
C974 H982 0.930 . S
C975 C974 1.394 . S
C975 C976 1.383 . S
C975 H983 0.929 . S
C976 C975 1.383 . S
C976 C977 1.377 . S
C977 H961 0.930 . S
C977 C976 1.377 . S
C977 C978 1.379 . S
C978 H962 0.931 . S
C978 C972 1.383 . S
C978 C977 1.379 . S
H979 C973 0.959 . S
H980 C973 0.961 . S
H981 C973 0.960 . S
H982 C974 0.930 . S
H983 C975 0.929 . S
C273 C51 0.513 . S
C292 N2 0.614 . S
C309 N35 0.562 . S
C328 C84 0.519 . S
C345 N68 0.544 . S
C364 C117 0.523 1_554 S
C381 C18 0.513 . S
C400 N101 0.560 . S
C417 C183 0.510 . S
C436 N134 0.603 . S
C453 C216 0.509 . S
C472 N167 0.490 . S
C489 N200 0.551 . S
C508 C249 0.529 . S
C525 N233 0.556 . S
C544 C150 0.530 . S
C561 C219 1.467 . S
C580 C7 1.453 . S
C597 C40 1.465 . S
C616 C252 1.469 . S
C633 C73 1.459 . S
C652 C153 1.481 . S
C669 C106 1.464 . S
C688 C186 1.459 . S
C705 C139 1.458 . S
C724 C87 1.484 . S
C741 C172 1.456 . S
C760 C120 1.463 . S
C777 C205 1.459 . S
C796 C21 1.487 . S
C813 C54 1.468 . S
C832 C238 1.440 . S
C849 N79 2.409 . S
C868 N13 2.409 . S
C885 N46 2.409 . S
C904 N112 2.403 . S
C921 N211 2.409 . S
C940 N145 2.409 . S
C957 N178 2.410 . S
C976 N244 2.411 . S
