# Generated by pormake.
# Topology gme, (4)-cn, num edge types: 1
# Building blocks:
#     Node 0, Type 0, BuildingBlock: KUFVIS_clean_sbu_0, # of connection points: 4
#     Node 1, Type 0, BuildingBlock: KUFVIS_clean_sbu_0, # of connection points: 4
#     Node 2, Type 0, BuildingBlock: KUFVIS_clean_sbu_0, # of connection points: 4
#     Node 3, Type 0, BuildingBlock: KUFVIS_clean_sbu_0, # of connection points: 4
#     Node 4, Type 0, BuildingBlock: KUFVIS_clean_sbu_0, # of connection points: 4
#     Node 5, Type 0, BuildingBlock: KUFVIS_clean_sbu_0, # of connection points: 4
#     Node 6, Type 0, BuildingBlock: KUFVIS_clean_sbu_0, # of connection points: 4
#     Node 7, Type 0, BuildingBlock: KUFVIS_clean_sbu_0, # of connection points: 4
#     Node 8, Type 0, BuildingBlock: KUFVIS_clean_sbu_0, # of connection points: 4
#     Node 9, Type 0, BuildingBlock: KUFVIS_clean_sbu_0, # of connection points: 4
#     Node 10, Type 0, BuildingBlock: KUFVIS_clean_sbu_0, # of connection points: 4
#     Node 11, Type 0, BuildingBlock: KUFVIS_clean_sbu_0, # of connection points: 4
#     Node 12, Type 0, BuildingBlock: KUFVIS_clean_sbu_0, # of connection points: 4
#     Node 13, Type 0, BuildingBlock: KUFVIS_clean_sbu_0, # of connection points: 4
#     Node 14, Type 0, BuildingBlock: KUFVIS_clean_sbu_0, # of connection points: 4
#     Node 15, Type 0, BuildingBlock: KUFVIS_clean_sbu_0, # of connection points: 4
#     Node 16, Type 0, BuildingBlock: KUFVIS_clean_sbu_0, # of connection points: 4
#     Node 17, Type 0, BuildingBlock: KUFVIS_clean_sbu_0, # of connection points: 4
#     Node 18, Type 0, BuildingBlock: KUFVIS_clean_sbu_0, # of connection points: 4
#     Node 19, Type 0, BuildingBlock: KUFVIS_clean_sbu_0, # of connection points: 4
#     Node 20, Type 0, BuildingBlock: KUFVIS_clean_sbu_0, # of connection points: 4
#     Node 21, Type 0, BuildingBlock: KUFVIS_clean_sbu_0, # of connection points: 4
#     Node 22, Type 0, BuildingBlock: KUFVIS_clean_sbu_0, # of connection points: 4
#     Node 23, Type 0, BuildingBlock: KUFVIS_clean_sbu_0, # of connection points: 4
#     Edge 24, Type (0, 0), BuildingBlock: TEMPAE_clean_linker_10, # of connection points: 2
#     Edge 25, Type (0, 0), BuildingBlock: TEMPAE_clean_linker_10, # of connection points: 2
#     Edge 26, Type (0, 0), BuildingBlock: TEMPAE_clean_linker_10, # of connection points: 2
#     Edge 27, Type (0, 0), BuildingBlock: TEMPAE_clean_linker_10, # of connection points: 2
#     Edge 28, Type (0, 0), BuildingBlock: TEMPAE_clean_linker_10, # of connection points: 2
#     Edge 29, Type (0, 0), BuildingBlock: TEMPAE_clean_linker_10, # of connection points: 2
#     Edge 30, Type (0, 0), BuildingBlock: TEMPAE_clean_linker_10, # of connection points: 2
#     Edge 31, Type (0, 0), BuildingBlock: TEMPAE_clean_linker_10, # of connection points: 2
#     Edge 32, Type (0, 0), BuildingBlock: TEMPAE_clean_linker_10, # of connection points: 2
#     Edge 33, Type (0, 0), BuildingBlock: TEMPAE_clean_linker_10, # of connection points: 2
#     Edge 34, Type (0, 0), BuildingBlock: TEMPAE_clean_linker_10, # of connection points: 2
#     Edge 35, Type (0, 0), BuildingBlock: TEMPAE_clean_linker_10, # of connection points: 2
#     Edge 36, Type (0, 0), BuildingBlock: TEMPAE_clean_linker_10, # of connection points: 2
#     Edge 37, Type (0, 0), BuildingBlock: TEMPAE_clean_linker_10, # of connection points: 2
#     Edge 38, Type (0, 0), BuildingBlock: TEMPAE_clean_linker_10, # of connection points: 2
#     Edge 39, Type (0, 0), BuildingBlock: TEMPAE_clean_linker_10, # of connection points: 2
#     Edge 40, Type (0, 0), BuildingBlock: TEMPAE_clean_linker_10, # of connection points: 2
#     Edge 41, Type (0, 0), BuildingBlock: TEMPAE_clean_linker_10, # of connection points: 2
#     Edge 42, Type (0, 0), BuildingBlock: TEMPAE_clean_linker_10, # of connection points: 2
#     Edge 43, Type (0, 0), BuildingBlock: TEMPAE_clean_linker_10, # of connection points: 2
#     Edge 44, Type (0, 0), BuildingBlock: TEMPAE_clean_linker_10, # of connection points: 2
#     Edge 45, Type (0, 0), BuildingBlock: TEMPAE_clean_linker_10, # of connection points: 2
#     Edge 46, Type (0, 0), BuildingBlock: TEMPAE_clean_linker_10, # of connection points: 2
#     Edge 47, Type (0, 0), BuildingBlock: TEMPAE_clean_linker_10, # of connection points: 2
#     Edge 48, Type (0, 0), BuildingBlock: TEMPAE_clean_linker_10, # of connection points: 2
#     Edge 49, Type (0, 0), BuildingBlock: TEMPAE_clean_linker_10, # of connection points: 2
#     Edge 50, Type (0, 0), BuildingBlock: TEMPAE_clean_linker_10, # of connection points: 2
#     Edge 51, Type (0, 0), BuildingBlock: TEMPAE_clean_linker_10, # of connection points: 2
#     Edge 52, Type (0, 0), BuildingBlock: TEMPAE_clean_linker_10, # of connection points: 2
#     Edge 53, Type (0, 0), BuildingBlock: TEMPAE_clean_linker_10, # of connection points: 2
#     Edge 54, Type (0, 0), BuildingBlock: TEMPAE_clean_linker_10, # of connection points: 2
#     Edge 55, Type (0, 0), BuildingBlock: TEMPAE_clean_linker_10, # of connection points: 2
#     Edge 56, Type (0, 0), BuildingBlock: TEMPAE_clean_linker_10, # of connection points: 2
#     Edge 57, Type (0, 0), BuildingBlock: TEMPAE_clean_linker_10, # of connection points: 2
#     Edge 58, Type (0, 0), BuildingBlock: TEMPAE_clean_linker_10, # of connection points: 2
#     Edge 59, Type (0, 0), BuildingBlock: TEMPAE_clean_linker_10, # of connection points: 2
#     Edge 60, Type (0, 0), BuildingBlock: TEMPAE_clean_linker_10, # of connection points: 2
#     Edge 61, Type (0, 0), BuildingBlock: TEMPAE_clean_linker_10, # of connection points: 2
#     Edge 62, Type (0, 0), BuildingBlock: TEMPAE_clean_linker_10, # of connection points: 2
#     Edge 63, Type (0, 0), BuildingBlock: TEMPAE_clean_linker_10, # of connection points: 2
#     Edge 64, Type (0, 0), BuildingBlock: TEMPAE_clean_linker_10, # of connection points: 2
#     Edge 65, Type (0, 0), BuildingBlock: TEMPAE_clean_linker_10, # of connection points: 2
#     Edge 66, Type (0, 0), BuildingBlock: TEMPAE_clean_linker_10, # of connection points: 2
#     Edge 67, Type (0, 0), BuildingBlock: TEMPAE_clean_linker_10, # of connection points: 2
#     Edge 68, Type (0, 0), BuildingBlock: TEMPAE_clean_linker_10, # of connection points: 2
#     Edge 69, Type (0, 0), BuildingBlock: TEMPAE_clean_linker_10, # of connection points: 2
#     Edge 70, Type (0, 0), BuildingBlock: TEMPAE_clean_linker_10, # of connection points: 2
#     Edge 71, Type (0, 0), BuildingBlock: TEMPAE_clean_linker_10, # of connection points: 2
# Relax obj value: 0.088
# Max RMSD: 0.121
# Mean RMSD: 0.121
data_MOF--net-gme--node1-KUFVIS_clean_sbu_0--edge1-TEMPAE_clean_linker_10
_symmetry_space_group_name_H-M    P1
_symmetry_Int_Tables_number       1
_symmetry_cell_setting            triclinic
loop_
_symmetry_equiv_pos_as_xyz
'x, y, z'
_cell_length_a     56.007371
_cell_length_b     55.986111
_cell_length_c     57.22477
_cell_angle_alpha  89.994709
_cell_angle_beta   89.994322
_cell_angle_gamma 120.0052
loop_
_atom_site_label
_atom_site_type_symbol
_atom_site_fract_x
_atom_site_fract_y
_atom_site_fract_z
_atom_type_partial_charge
Mn0 Mn 0.40974 0.07334 0.10973 0.0
Mn1 Mn 0.46074 0.13192 0.13313 0.0
C2 C 0.45173 0.07646 0.11881 0.0
C3 C 0.38833 0.05022 0.07508 0.0
C4 C 0.41293 0.08803 0.16175 0.0
O5 O 0.39563 0.1003 0.10498 0.0
O6 O 0.43236 0.13837 0.11883 0.0
C7 C 0.48153 0.16039 0.08783 0.0
N8 N 0.48623 0.15157 0.10861 0.0
C9 C 0.53457 0.17207 0.10018 0.0
C10 C 0.53036 0.18169 0.07883 0.0
C11 C 0.50365 0.17558 0.07253 0.0
C12 C 0.51158 0.15631 0.11439 0.0
H13 H 0.46106 0.15582 0.08295 0.0
C14 C 0.40866 0.12606 0.10918 0.0
O15 O 0.3752 0.04293 0.09491 0.0
O16 O 0.41329 0.07074 0.07562 0.0
N17 N 0.49061 0.13037 0.14776 0.0
C18 C 0.49157 0.12177 0.16984 0.0
C19 C 0.51689 0.12699 0.17917 0.0
C20 C 0.54112 0.14181 0.16604 0.0
C21 C 0.53989 0.15167 0.14382 0.0
C22 C 0.51401 0.14552 0.13531 0.0
H23 H 0.47313 0.11092 0.18024 0.0
O24 O 0.42999 0.05274 0.11503 0.0
O25 O 0.44859 0.09776 0.11596 0.0
O26 O 0.40051 0.07101 0.14497 0.0
O27 O 0.43506 0.11138 0.15897 0.0
C28 C 0.56344 0.16834 0.13018 0.0
C29 C 0.56073 0.17801 0.10817 0.0
H30 H 0.54747 0.19382 0.06717 0.0
H31 H 0.50018 0.18278 0.05602 0.0
H32 H 0.51778 0.11986 0.19656 0.0
H33 H 0.56057 0.14599 0.17344 0.0
H34 H 0.5838 0.17395 0.13645 0.0
H35 H 0.57898 0.19049 0.09775 0.0
Mn36 Mn 0.33669 0.41019 0.61513 0.0
Mn37 Mn 0.3321 0.45599 0.65072 0.0
C38 C 0.37652 0.45141 0.6243 0.0
C39 C 0.33451 0.39263 0.57762 0.0
C40 C 0.33095 0.40423 0.66807 0.0
O41 O 0.29538 0.39653 0.61526 0.0
O42 O 0.29583 0.43042 0.63663 0.0
C43 C 0.31856 0.48656 0.61593 0.0
N44 N 0.33434 0.48649 0.63398 0.0
C45 C 0.35542 0.53558 0.63875 0.0
C46 C 0.33925 0.53624 0.62031 0.0
C47 C 0.32097 0.51165 0.60868 0.0
C48 C 0.35253 0.51008 0.64484 0.0
H49 H 0.30414 0.4676 0.6073 0.0
C50 C 0.28337 0.40855 0.62425 0.0
O51 O 0.33065 0.37767 0.59612 0.0
O52 O 0.33881 0.41738 0.58095 0.0
N53 N 0.36519 0.4826 0.6659 0.0
C54 C 0.38096 0.47861 0.68178 0.0
C55 C 0.40164 0.50137 0.69394 0.0
C56 C 0.40529 0.5278 0.69014 0.0
C57 C 0.38864 0.53133 0.6738 0.0
C58 C 0.36888 0.50801 0.66181 0.0
H59 H 0.37758 0.45821 0.68528 0.0
O60 O 0.37757 0.43013 0.61672 0.0
O61 O 0.35187 0.44838 0.62589 0.0
O62 O 0.3343 0.39534 0.64854 0.0
O63 O 0.32954 0.4261 0.67037 0.0
C64 C 0.39077 0.557 0.66894 0.0
C65 C 0.37437 0.5592 0.65127 0.0
H66 H 0.34084 0.55551 0.61484 0.0
H67 H 0.30849 0.51199 0.59438 0.0
H68 H 0.4144 0.49848 0.70653 0.0
H69 H 0.421 0.54524 0.69979 0.0
H70 H 0.4051 0.57525 0.67851 0.0
H71 H 0.37673 0.57918 0.64729 0.0
Mn72 Mn 0.93161 0.33088 0.11839 0.0
Mn73 Mn 0.8748 0.32139 0.14697 0.0
C74 C 0.92762 0.36923 0.12821 0.0
C75 C 0.95345 0.33294 0.08306 0.0
C76 C 0.92243 0.31935 0.17067 0.0
O77 O 0.90509 0.28946 0.11443 0.0
O78 O 0.86765 0.28738 0.13071 0.0
C79 C 0.83859 0.31256 0.10632 0.0
N80 N 0.84984 0.32532 0.12694 0.0
C81 C 0.81853 0.34274 0.12983 0.0
C82 C 0.80624 0.32947 0.10876 0.0
C83 C 0.81663 0.31469 0.09675 0.0
C84 C 0.84096 0.3407 0.138 0.0
H85 H 0.84625 0.30074 0.09741 0.0
C86 C 0.87956 0.27647 0.11963 0.0
O87 O 0.96164 0.32754 0.10258 0.0
O88 O 0.93233 0.33653 0.08411 0.0
N89 N 0.87714 0.35188 0.16384 0.0
C90 C 0.89291 0.36526 0.18277 0.0
C91 C 0.88646 0.38236 0.19608 0.0
C92 C 0.86323 0.38459 0.19033 0.0
C93 C 0.84723 0.37048 0.17079 0.0
C94 C 0.85533 0.35465 0.15771 0.0
H95 H 0.90989 0.36243 0.18791 0.0
O96 O 0.95124 0.37148 0.12322 0.0
O97 O 0.90635 0.3444 0.12654 0.0
O98 O 0.93816 0.32519 0.15289 0.0
O99 O 0.89854 0.31688 0.16969 0.0
C100 C 0.82323 0.3709 0.16399 0.0
C101 C 0.80923 0.35755 0.14327 0.0
H102 H 0.78891 0.33058 0.10161 0.0
H103 H 0.80739 0.30453 0.08041 0.0
H104 H 0.89883 0.39312 0.21117 0.0
H105 H 0.85787 0.3971 0.20111 0.0
H106 H 0.81523 0.38136 0.17449 0.0
H107 H 0.79133 0.35876 0.13787 0.0
Mn108 Mn 0.58416 0.92809 0.61263 0.0
Mn109 Mn 0.53348 0.87106 0.63827 0.0
C110 C 0.54269 0.92594 0.62197 0.0
C111 C 0.60518 0.95 0.57757 0.0
C112 C 0.58192 0.91613 0.66524 0.0
O113 O 0.59759 0.90055 0.60833 0.0
O114 O 0.56185 0.86393 0.62493 0.0
C115 C 0.51257 0.83988 0.59411 0.0
N116 N 0.50795 0.85006 0.61416 0.0
C117 C 0.45972 0.8296 0.60533 0.0
C118 C 0.46388 0.81868 0.58469 0.0
C119 C 0.49049 0.82404 0.57896 0.0
C120 C 0.48267 0.84592 0.61939 0.0
H121 H 0.53296 0.84381 0.58966 0.0
C122 C 0.58495 0.87527 0.61426 0.0
O123 O 0.61863 0.95763 0.59723 0.0
O124 O 0.58006 0.92976 0.57849 0.0
N125 N 0.50359 0.87327 0.65211 0.0
C126 C 0.50252 0.8826 0.67386 0.0
C127 C 0.4772 0.87797 0.68274 0.0
C128 C 0.45307 0.86297 0.66952 0.0
C129 C 0.45438 0.85223 0.64775 0.0
C130 C 0.48025 0.85778 0.63969 0.0
H131 H 0.52088 0.89359 0.68434 0.0
O132 O 0.56457 0.94934 0.61756 0.0
O133 O 0.54535 0.90428 0.61963 0.0
O134 O 0.5943 0.93171 0.64767 0.0
O135 O 0.55927 0.89304 0.66358 0.0
C136 C 0.43089 0.83519 0.63419 0.0
C137 C 0.4336 0.82438 0.61278 0.0
H138 H 0.44678 0.80605 0.57318 0.0
H139 H 0.49392 0.81578 0.56303 0.0
H140 H 0.47624 0.8857 0.69984 0.0
H141 H 0.43362 0.85927 0.67657 0.0
H142 H 0.41055 0.83007 0.6401 0.0
H143 H 0.41538 0.81153 0.60246 0.0
Mn144 Mn 0.65288 0.58787 0.11783 0.0
Mn145 Mn 0.6611 0.53716 0.14086 0.0
C146 C 0.61452 0.54537 0.12589 0.0
C147 C 0.65121 0.61091 0.08434 0.0
C148 C 0.66063 0.58141 0.17052 0.0
O149 O 0.6939 0.60274 0.11274 0.0
O150 O 0.69675 0.56933 0.13176 0.0
C151 C 0.67866 0.5249 0.09575 0.0
N152 N 0.66123 0.51631 0.11443 0.0
C153 C 0.6363 0.47007 0.09933 0.0
C154 C 0.65396 0.47842 0.07994 0.0
C155 C 0.67517 0.506 0.0781 0.0
C156 C 0.64031 0.49002 0.11605 0.0
H157 H 0.69512 0.54601 0.09427 0.0
C158 C 0.70773 0.59245 0.12117 0.0
O159 O 0.65687 0.623 0.10465 0.0
O160 O 0.64675 0.58592 0.08374 0.0
N161 N 0.62934 0.50388 0.15085 0.0
C162 C 0.61766 0.49821 0.1725 0.0
C163 C 0.59784 0.47105 0.1783 0.0
C164 C 0.59093 0.44985 0.16205 0.0
C165 C 0.60408 0.45585 0.14029 0.0
C166 C 0.6238 0.4833 0.13557 0.0
H167 H 0.62351 0.51428 0.18528 0.0
O168 O 0.6122 0.56707 0.12304 0.0
O169 O 0.63911 0.54885 0.12283 0.0
O170 O 0.65967 0.59579 0.1534 0.0
O171 O 0.66001 0.55832 0.168 0.0
C172 C 0.59954 0.4354 0.1237 0.0
C173 C 0.61535 0.44259 0.10304 0.0
H174 H 0.6516 0.46379 0.06648 0.0
H175 H 0.68894 0.51262 0.06322 0.0
H176 H 0.58824 0.4664 0.19538 0.0
H177 H 0.57633 0.42887 0.16677 0.0
H178 H 0.58431 0.414 0.12686 0.0
H179 H 0.61181 0.42668 0.09048 0.0
Mn180 Mn 0.07392 0.6642 0.62434 0.0
Mn181 Mn 0.13078 0.67415 0.65222 0.0
C182 C 0.07716 0.6259 0.63561 0.0
C183 C 0.05418 0.6623 0.58783 0.0
C184 C 0.08534 0.68066 0.67526 0.0
O185 O 0.10129 0.70538 0.62011 0.0
O186 O 0.13993 0.70636 0.63215 0.0
C187 C 0.16266 0.67282 0.61149 0.0
N188 N 0.15115 0.66294 0.63282 0.0
C189 C 0.16908 0.6319 0.63373 0.0
C190 C 0.18124 0.64178 0.61181 0.0
C191 C 0.17784 0.6622 0.60057 0.0
C192 C 0.15357 0.64273 0.64346 0.0
H193 H 0.16029 0.68871 0.60292 0.0
C194 C 0.12743 0.71761 0.62247 0.0
O195 O 0.04493 0.66795 0.60666 0.0
O196 O 0.07472 0.65807 0.59037 0.0
N197 N 0.12556 0.64481 0.67253 0.0
C198 C 0.11393 0.63867 0.69424 0.0
C199 C 0.1162 0.61924 0.70813 0.0
C200 C 0.13109 0.60692 0.69989 0.0
C201 C 0.14357 0.61417 0.67782 0.0
C202 C 0.14049 0.63352 0.66468 0.0
H203 H 0.10314 0.64861 0.70104 0.0
O204 O 0.05364 0.62326 0.62963 0.0
O205 O 0.09803 0.65072 0.63384 0.0
O206 O 0.06775 0.67085 0.65861 0.0
O207 O 0.11007 0.68516 0.67351 0.0
C208 C 0.1596 0.60349 0.66865 0.0
C209 C 0.17211 0.61208 0.64651 0.0
H210 H 0.19329 0.63392 0.6035 0.0
H211 H 0.18712 0.66992 0.58363 0.0
H212 H 0.10677 0.61398 0.72526 0.0
H213 H 0.13297 0.59207 0.71071 0.0
H214 H 0.16256 0.58884 0.67864 0.0
H215 H 0.18424 0.60351 0.6396 0.0
Mn216 Mn 0.9453 0.60322 0.392 0.0
Mn217 Mn 0.88721 0.55943 0.36394 0.0
C218 C 0.94028 0.56152 0.37839 0.0
C219 C 0.96577 0.61918 0.42861 0.0
C220 C 0.93316 0.61253 0.34271 0.0
O221 O 0.91899 0.61803 0.39814 0.0
O222 O 0.87935 0.58067 0.3872 0.0
C223 C 0.85585 0.5225 0.40315 0.0
N224 N 0.86664 0.52606 0.38125 0.0
C225 C 0.84657 0.47715 0.37596 0.0
C226 C 0.83509 0.47289 0.39841 0.0
C227 C 0.83996 0.49569 0.41214 0.0
C228 C 0.8629 0.50435 0.36823 0.0
H229 H 0.85932 0.53998 0.41364 0.0
C230 C 0.89274 0.60402 0.39739 0.0
O231 O 0.97507 0.63473 0.41014 0.0
O232 O 0.94489 0.59465 0.42565 0.0
N233 N 0.89118 0.53701 0.34078 0.0
C234 C 0.90242 0.54447 0.319 0.0
C235 C 0.89909 0.52409 0.30293 0.0
C236 C 0.88341 0.49616 0.30909 0.0
C237 C 0.87117 0.48889 0.33125 0.0
C238 C 0.87548 0.51011 0.34664 0.0
H239 H 0.91348 0.56573 0.31372 0.0
O240 O 0.9642 0.58155 0.38475 0.0
O241 O 0.92012 0.5664 0.38112 0.0
O242 O 0.95136 0.6178 0.3584 0.0
O243 O 0.90796 0.59325 0.34451 0.0
C244 C 0.85428 0.46139 0.33843 0.0
C245 C 0.8421 0.45548 0.36082 0.0
H246 H 0.82248 0.45222 0.40524 0.0
H247 H 0.83124 0.4926 0.42951 0.0
H248 H 0.9082 0.5299 0.28571 0.0
H249 H 0.88065 0.48045 0.29658 0.0
H250 H 0.85042 0.44471 0.32671 0.0
H251 H 0.82922 0.43421 0.36617 0.0
Mn252 Mn 0.33597 0.93021 0.8851 0.0
Mn253 Mn 0.32786 0.87373 0.85725 0.0
C254 C 0.37497 0.92838 0.87289 0.0
C255 C 0.33809 0.95079 0.92123 0.0
C256 C 0.32068 0.91857 0.8335 0.0
O257 O 0.29516 0.90206 0.89068 0.0
O258 O 0.29486 0.86485 0.8759 0.0
C259 C 0.32794 0.84408 0.90004 0.0
N260 N 0.33778 0.85364 0.87821 0.0
C261 C 0.36644 0.83304 0.87909 0.0
C262 C 0.35617 0.82237 0.90135 0.0
C263 C 0.3371 0.82826 0.91201 0.0
C264 C 0.35729 0.8495 0.8684 0.0
H265 H 0.31337 0.84865 0.90828 0.0
C266 C 0.28344 0.87619 0.88705 0.0
O267 O 0.33141 0.95892 0.9023 0.0
O268 O 0.34346 0.93094 0.91902 0.0
N269 N 0.35761 0.87761 0.8382 0.0
C270 C 0.36403 0.88775 0.81601 0.0
C271 C 0.38245 0.88323 0.80269 0.0
C272 C 0.39325 0.86738 0.81193 0.0
C273 C 0.38539 0.8561 0.83437 0.0
C274 C 0.36737 0.8617 0.84699 0.0
H275 H 0.35514 0.89918 0.80846 0.0
O276 O 0.37676 0.9516 0.87869 0.0
O277 O 0.35067 0.90689 0.87546 0.0
O278 O 0.32768 0.93507 0.85095 0.0
O279 O 0.31846 0.89465 0.83462 0.0
C280 C 0.3937 0.83842 0.84427 0.0
C281 C 0.38486 0.82745 0.86683 0.0
H282 H 0.36279 0.80969 0.9104 0.0
H283 H 0.32929 0.8204 0.9293 0.0
H284 H 0.38799 0.8916 0.7852 0.0
H285 H 0.40716 0.86361 0.80149 0.0
H286 H 0.40659 0.83283 0.83454 0.0
H287 H 0.39188 0.81427 0.87434 0.0
Mn288 Mn 0.39752 0.34584 0.38318 0.0
Mn289 Mn 0.44054 0.33582 0.34873 0.0
C290 C 0.4415 0.38242 0.37561 0.0
C291 C 0.37916 0.34606 0.41985 0.0
C292 C 0.39653 0.34599 0.3293 0.0
O293 O 0.37949 0.30407 0.38363 0.0
O294 O 0.40746 0.3005 0.35761 0.0
C295 C 0.45637 0.30746 0.38395 0.0
N296 N 0.46364 0.32772 0.36768 0.0
C297 C 0.51092 0.33858 0.36857 0.0
C298 C 0.504 0.31787 0.38536 0.0
C299 C 0.47664 0.30242 0.39325 0.0
C300 C 0.49 0.34317 0.36046 0.0
H301 H 0.43523 0.29502 0.38956 0.0
C302 C 0.38632 0.28984 0.37093 0.0
O303 O 0.36571 0.34394 0.40074 0.0
O304 O 0.40279 0.34731 0.4176 0.0
N305 N 0.47394 0.36698 0.3381 0.0
C306 C 0.47735 0.38699 0.32269 0.0
C307 C 0.50366 0.40471 0.31346 0.0
C308 C 0.52596 0.4011 0.31959 0.0
C309 C 0.5219 0.38024 0.3354 0.0
C310 C 0.4954 0.36374 0.34451 0.0
H311 H 0.46008 0.38923 0.3174 0.0
O312 O 0.42144 0.38638 0.38169 0.0
O313 O 0.43554 0.35668 0.37421 0.0
O314 O 0.38496 0.34511 0.34882 0.0
O315 O 0.41819 0.34406 0.32767 0.0
C316 C 0.54296 0.37488 0.34231 0.0
C317 C 0.5376 0.35443 0.35919 0.0
H318 H 0.51949 0.31358 0.39223 0.0
H319 H 0.47109 0.28632 0.40612 0.0
H320 H 0.50665 0.42075 0.30127 0.0
H321 H 0.54605 0.41443 0.31201 0.0
H322 H 0.56335 0.38625 0.3348 0.0
H323 H 0.5541 0.35092 0.36468 0.0
Mn324 Mn 0.05883 0.38578 0.88797 0.0
Mn325 Mn 0.10474 0.42702 0.8474 0.0
C326 C 0.06064 0.42684 0.87742 0.0
C327 C 0.04664 0.37152 0.92663 0.0
C328 C 0.05292 0.37329 0.83584 0.0
O329 O 0.08692 0.37249 0.88728 0.0
O330 O 0.11777 0.4036 0.86203 0.0
C331 C 0.15397 0.46255 0.87599 0.0
N332 N 0.13447 0.45983 0.86032 0.0
C333 C 0.15833 0.50865 0.85289 0.0
C334 C 0.17867 0.51205 0.86902 0.0
C335 C 0.17636 0.48891 0.88074 0.0
C336 C 0.13632 0.48198 0.84916 0.0
H337 H 0.15257 0.44471 0.88459 0.0
C338 C 0.10976 0.38325 0.87614 0.0
O339 O 0.03403 0.35519 0.9092 0.0
O340 O 0.06694 0.39589 0.9216 0.0
N341 N 0.09455 0.45081 0.83194 0.0
C342 C 0.07218 0.4441 0.81823 0.0
C343 C 0.07044 0.46503 0.8062 0.0
C344 C 0.09193 0.4925 0.80807 0.0
C345 C 0.1147 0.49885 0.82236 0.0
C346 C 0.11506 0.4772 0.83422 0.0
H347 H 0.0559 0.42294 0.81641 0.0
O348 O 0.03847 0.40658 0.88646 0.0
O349 O 0.08117 0.42239 0.87453 0.0
O350 O 0.04252 0.36738 0.85625 0.0
O351 O 0.07594 0.39457 0.83126 0.0
C352 C 0.1371 0.52577 0.82522 0.0
C353 C 0.15893 0.53068 0.84048 0.0
H354 H 0.19605 0.53232 0.8726 0.0
H355 H 0.19198 0.49135 0.89317 0.0
H356 H 0.05277 0.45996 0.79525 0.0
H357 H 0.09068 0.50856 0.79854 0.0
H358 H 0.13765 0.54282 0.81582 0.0
H359 H 0.17596 0.55149 0.84273 0.0
Mn360 Mn 0.66041 0.07047 0.38791 0.0
Mn361 Mn 0.67165 0.12844 0.36073 0.0
C362 C 0.62268 0.07492 0.37653 0.0
C363 C 0.65771 0.04926 0.42377 0.0
C364 C 0.6751 0.08179 0.33627 0.0
O365 O 0.70181 0.09656 0.39267 0.0
O366 O 0.70448 0.1352 0.37867 0.0
C367 C 0.67477 0.15902 0.40385 0.0
N368 N 0.66386 0.14967 0.38225 0.0
C369 C 0.63704 0.17221 0.38446 0.0
C370 C 0.64829 0.1825 0.40656 0.0
C371 C 0.667 0.17559 0.41643 0.0
C372 C 0.6448 0.15497 0.37315 0.0
H373 H 0.68918 0.15377 0.41144 0.0
C374 C 0.71493 0.12246 0.38908 0.0
O375 O 0.6632 0.04045 0.40461 0.0
O376 O 0.65394 0.07018 0.42194 0.0
N377 N 0.64239 0.12668 0.34229 0.0
C378 C 0.63552 0.11733 0.31991 0.0
C379 C 0.61773 0.12328 0.30716 0.0
C380 C 0.60809 0.13977 0.31714 0.0
C381 C 0.61648 0.15028 0.33974 0.0
C382 C 0.63389 0.14331 0.35175 0.0
H383 H 0.64361 0.10547 0.31178 0.0
O384 O 0.61954 0.05111 0.3822 0.0
O385 O 0.64761 0.09555 0.37885 0.0
O386 O 0.66735 0.06506 0.35358 0.0
O387 O 0.67885 0.10633 0.33763 0.0
C388 C 0.60937 0.16854 0.35036 0.0
C389 C 0.61901 0.17895 0.37293 0.0
H390 H 0.64276 0.19576 0.41608 0.0
H391 H 0.67564 0.18325 0.43355 0.0
H392 H 0.61181 0.11554 0.28953 0.0
H393 H 0.59469 0.14465 0.30711 0.0
H394 H 0.59679 0.175 0.34121 0.0
H395 H 0.61301 0.19267 0.38097 0.0
Mn396 Mn 0.6159 0.67243 0.88754 0.0
Mn397 Mn 0.57661 0.67981 0.8465 0.0
C398 C 0.57402 0.63456 0.87689 0.0
C399 C 0.62907 0.67415 0.92655 0.0
C400 C 0.62572 0.67366 0.83474 0.0
O401 O 0.63241 0.71403 0.88657 0.0
O402 O 0.6055 0.7161 0.85849 0.0
C403 C 0.55039 0.70325 0.87657 0.0
N404 N 0.54815 0.68399 0.86083 0.0
C405 C 0.49972 0.66725 0.85564 0.0
C406 C 0.50145 0.68686 0.87184 0.0
C407 C 0.52687 0.70481 0.88247 0.0
C408 C 0.52375 0.66636 0.85079 0.0
H409 H 0.57002 0.71749 0.88436 0.0
C410 C 0.62525 0.7275 0.87319 0.0
O411 O 0.64535 0.67624 0.90951 0.0
O412 O 0.60556 0.67172 0.92086 0.0
N413 N 0.54745 0.64709 0.83279 0.0
C414 C 0.54907 0.62845 0.81855 0.0
C415 C 0.52526 0.60848 0.80702 0.0
C416 C 0.50027 0.60839 0.80975 0.0
C417 C 0.49916 0.62786 0.82444 0.0
C418 C 0.52342 0.64693 0.83577 0.0
H419 H 0.56844 0.62905 0.81582 0.0
O420 O 0.59343 0.63165 0.88641 0.0
O421 O 0.57939 0.65994 0.87395 0.0
O422 O 0.6335 0.67287 0.85557 0.0
O423 O 0.60464 0.67563 0.82974 0.0
C424 C 0.47499 0.62919 0.82823 0.0
C425 C 0.47518 0.64866 0.84402 0.0
H426 H 0.48341 0.68831 0.87624 0.0
H427 H 0.5284 0.72007 0.89493 0.0
H428 H 0.52627 0.59352 0.79571 0.0
H429 H 0.48205 0.59325 0.80053 0.0
H430 H 0.45605 0.61517 0.81931 0.0
H431 H 0.45632 0.64908 0.84714 0.0
Mn432 Mn 0.59989 0.93752 0.88249 0.0
Mn433 Mn 0.5567 0.88598 0.84687 0.0
C434 C 0.55822 0.93441 0.8719 0.0
C435 C 0.61611 0.95311 0.9203 0.0
C436 C 0.60957 0.93632 0.83061 0.0
O437 O 0.61437 0.9104 0.88337 0.0
O438 O 0.57964 0.87453 0.86453 0.0
C439 C 0.52094 0.84177 0.87994 0.0
N440 N 0.52386 0.85841 0.86153 0.0
C441 C 0.47557 0.83183 0.85241 0.0
C442 C 0.47197 0.81426 0.87121 0.0
C443 C 0.49471 0.81947 0.88522 0.0
C444 C 0.50202 0.85407 0.84838 0.0
H445 H 0.53854 0.84539 0.89033 0.0
C446 C 0.60178 0.88528 0.87667 0.0
O447 O 0.63144 0.96457 0.90206 0.0
O448 O 0.59166 0.93232 0.91655 0.0
N449 N 0.53301 0.89402 0.82869 0.0
C450 C 0.53962 0.9145 0.81279 0.0
C451 C 0.51885 0.91379 0.79855 0.0
C452 C 0.4917 0.89165 0.8004 0.0
C453 C 0.48548 0.8708 0.81689 0.0
C454 C 0.50684 0.87308 0.83106 0.0
H455 H 0.56057 0.93107 0.81086 0.0
O456 O 0.57866 0.95726 0.87976 0.0
O457 O 0.5625 0.91358 0.87088 0.0
O458 O 0.61571 0.95034 0.84941 0.0
O459 O 0.58909 0.91203 0.82874 0.0
C460 C 0.45901 0.84768 0.81968 0.0
C461 C 0.45402 0.82821 0.83748 0.0
H462 H 0.45184 0.79683 0.87514 0.0
H463 H 0.49209 0.80605 0.8998 0.0
H464 H 0.52387 0.92997 0.78587 0.0
H465 H 0.4758 0.89091 0.78914 0.0
H466 H 0.44235 0.84485 0.8083 0.0
H467 H 0.43349 0.81069 0.83972 0.0
Mn468 Mn 0.66768 0.59663 0.38971 0.0
Mn469 Mn 0.67514 0.54939 0.3593 0.0
C470 C 0.62852 0.55574 0.37853 0.0
C471 C 0.66732 0.6145 0.42655 0.0
C472 C 0.68145 0.60194 0.33794 0.0
O473 O 0.70882 0.60961 0.39288 0.0
O474 O 0.70909 0.573 0.37707 0.0
C475 C 0.67758 0.51718 0.39927 0.0
N476 N 0.66569 0.51831 0.37886 0.0
C477 C 0.63408 0.46944 0.37969 0.0
C478 C 0.64602 0.46767 0.40068 0.0
C479 C 0.66776 0.49169 0.41059 0.0
C480 C 0.64428 0.4955 0.36953 0.0
H481 H 0.69445 0.53559 0.40681 0.0
C482 C 0.721 0.59628 0.38752 0.0
O483 O 0.67278 0.62952 0.40782 0.0
O484 O 0.66241 0.5895 0.42376 0.0
N485 N 0.64419 0.52483 0.34073 0.0
C486 C 0.6367 0.52973 0.31936 0.0
C487 C 0.61607 0.5077 0.30654 0.0
C488 C 0.60379 0.48081 0.31555 0.0
C489 C 0.61253 0.47618 0.33718 0.0
C490 C 0.63324 0.49888 0.34912 0.0
H491 H 0.6465 0.55024 0.31206 0.0
O492 O 0.62663 0.57684 0.38527 0.0
O493 O 0.65315 0.55899 0.37952 0.0
O494 O 0.67356 0.61021 0.35562 0.0
O495 O 0.68432 0.58066 0.33812 0.0
C496 C 0.6021 0.44979 0.34697 0.0
C497 C 0.61273 0.44636 0.36826 0.0
H498 H 0.63872 0.44799 0.4093 0.0
H499 H 0.67707 0.49052 0.42681 0.0
H500 H 0.60974 0.51141 0.2897 0.0
H501 H 0.58792 0.46385 0.30559 0.0
H502 H 0.58599 0.43208 0.33815 0.0
H503 H 0.60442 0.42588 0.37559 0.0
Mn504 Mn 0.06689 0.65018 0.89677 0.0
Mn505 Mn 0.12524 0.66003 0.87116 0.0
C506 C 0.07198 0.61241 0.88819 0.0
C507 C 0.04433 0.64871 0.93177 0.0
C508 C 0.0779 0.65656 0.84343 0.0
O509 O 0.09202 0.6916 0.90058 0.0
O510 O 0.12761 0.69533 0.87993 0.0
C511 C 0.15704 0.67983 0.9152 0.0
N512 N 0.14786 0.66182 0.89691 0.0
C513 C 0.17041 0.63807 0.91196 0.0
C514 C 0.18008 0.65633 0.93094 0.0
C515 C 0.17328 0.67725 0.9326 0.0
C516 C 0.15366 0.64119 0.89549 0.0
H517 H 0.15201 0.69603 0.91656 0.0
C518 C 0.11538 0.70592 0.89095 0.0
O519 O 0.03593 0.65315 0.91188 0.0
O520 O 0.06544 0.64523 0.93107 0.0
N521 N 0.12789 0.62893 0.86117 0.0
C522 C 0.12243 0.61756 0.8394 0.0
C523 C 0.13043 0.59826 0.83354 0.0
C524 C 0.14496 0.59169 0.84982 0.0
C525 C 0.15195 0.6049 0.87156 0.0
C526 C 0.14359 0.62414 0.8763 0.0
H527 H 0.11233 0.62346 0.82653 0.0
O528 O 0.04791 0.60933 0.89247 0.0
O529 O 0.09273 0.63743 0.89033 0.0
O530 O 0.06327 0.65567 0.86115 0.0
O531 O 0.10099 0.65696 0.84498 0.0
C532 C 0.16847 0.60109 0.888 0.0
C533 C 0.17735 0.61739 0.90839 0.0
H534 H 0.19298 0.65467 0.9442 0.0
H535 H 0.1807 0.69148 0.94717 0.0
H536 H 0.12588 0.58886 0.81639 0.0
H537 H 0.15183 0.5775 0.84507 0.0
H538 H 0.17503 0.58614 0.88487 0.0
H539 H 0.1903 0.6145 0.92079 0.0
Mn540 Mn 0.40127 0.07364 0.38164 0.0
Mn541 Mn 0.44654 0.1239 0.3458 0.0
C542 C 0.44249 0.07507 0.37198 0.0
C543 C 0.38417 0.05798 0.41936 0.0
C544 C 0.39345 0.07422 0.32911 0.0
O545 O 0.38827 0.10201 0.382 0.0
O546 O 0.42316 0.13611 0.36175 0.0
C547 C 0.48103 0.16807 0.37939 0.0
N548 N 0.47878 0.15136 0.36124 0.0
C549 C 0.52754 0.17733 0.35387 0.0
C550 C 0.53042 0.19506 0.37234 0.0
C551 C 0.50711 0.19018 0.38535 0.0
C552 C 0.50117 0.15534 0.3491 0.0
H553 H 0.46303 0.16462 0.38907 0.0
C554 C 0.40125 0.12666 0.37412 0.0
O555 O 0.36898 0.04718 0.40094 0.0
O556 O 0.4089 0.07842 0.41588 0.0
N557 N 0.47084 0.11531 0.32916 0.0
C558 C 0.46477 0.09468 0.31355 0.0
C559 C 0.4861 0.095 0.30039 0.0
C560 C 0.51326 0.11692 0.30297 0.0
C561 C 0.51892 0.13796 0.3191 0.0
C562 C 0.49698 0.1361 0.33217 0.0
H563 H 0.44382 0.0783 0.31104 0.0
O564 O 0.42128 0.05261 0.37951 0.0
O565 O 0.4392 0.09651 0.3705 0.0
O566 O 0.38575 0.06111 0.34838 0.0
O567 O 0.41494 0.09777 0.32696 0.0
C568 C 0.54541 0.16085 0.32261 0.0
C569 C 0.54974 0.18051 0.34003 0.0
H570 H 0.55046 0.21231 0.37681 0.0
H571 H 0.50918 0.20366 0.39971 0.0
H572 H 0.48153 0.07868 0.28798 0.0
H573 H 0.52961 0.11734 0.29254 0.0
H574 H 0.5626 0.16335 0.31214 0.0
H575 H 0.57026 0.19783 0.34286 0.0
Mn576 Mn 0.34926 0.41902 0.8867 0.0
Mn577 Mn 0.34134 0.47006 0.86375 0.0
C578 C 0.38803 0.4611 0.87753 0.0
C579 C 0.35101 0.3967 0.92066 0.0
C580 C 0.33607 0.42167 0.83522 0.0
O581 O 0.30832 0.40526 0.89203 0.0
O582 O 0.30701 0.44247 0.87934 0.0
C583 C 0.33589 0.49309 0.90867 0.0
N584 N 0.34864 0.49666 0.88764 0.0
C585 C 0.37666 0.54546 0.89402 0.0
C586 C 0.36376 0.54238 0.91571 0.0
C587 C 0.34346 0.51602 0.92315 0.0
C588 C 0.36893 0.52171 0.88072 0.0
H589 H 0.32002 0.47291 0.9143 0.0
C590 C 0.2957 0.4186 0.88875 0.0
O591 O 0.3448 0.38407 0.9006 0.0
O592 O 0.35593 0.42188 0.92079 0.0
N593 N 0.37234 0.49902 0.84788 0.0
C594 C 0.3811 0.49878 0.8257 0.0
C595 C 0.40089 0.52358 0.81532 0.0
C596 C 0.41064 0.54852 0.82746 0.0
C597 C 0.40042 0.54848 0.84982 0.0
C598 C 0.38115 0.52306 0.85948 0.0
H599 H 0.37313 0.4798 0.81599 0.0
O600 O 0.39001 0.43928 0.88095 0.0
O601 O 0.36363 0.45794 0.88068 0.0
O602 O 0.34179 0.4098 0.85165 0.0
O603 O 0.3345 0.44353 0.83826 0.0
C604 C 0.40772 0.57276 0.86251 0.0
C605 C 0.39634 0.57122 0.88482 0.0
H606 H 0.36916 0.56012 0.92671 0.0
H607 H 0.33342 0.51345 0.93987 0.0
H608 H 0.40832 0.5235 0.79788 0.0
H609 H 0.42559 0.56758 0.81922 0.0
H610 H 0.42207 0.59276 0.85529 0.0
H611 H 0.40244 0.59002 0.89451 0.0
Mn612 Mn 0.93811 0.33992 0.38854 0.0
Mn613 Mn 0.88834 0.3343 0.35194 0.0
C614 C 0.93538 0.3789 0.37927 0.0
C615 C 0.95374 0.33843 0.42607 0.0
C616 C 0.9412 0.33878 0.33492 0.0
O617 O 0.91152 0.29863 0.38897 0.0
O618 O 0.88199 0.29766 0.36211 0.0
C619 C 0.84297 0.31072 0.38661 0.0
N620 N 0.8577 0.32991 0.36995 0.0
C621 C 0.82591 0.34694 0.37043 0.0
C622 C 0.81034 0.32734 0.38755 0.0
C623 C 0.81905 0.30929 0.39581 0.0
C624 C 0.84985 0.34773 0.36227 0.0
H625 H 0.8493 0.29648 0.3927 0.0
C626 C 0.89038 0.28559 0.37608 0.0
O627 O 0.96519 0.33492 0.40763 0.0
O628 O 0.933 0.34222 0.42264 0.0
N629 N 0.89007 0.36704 0.34006 0.0
C630 C 0.90814 0.3856 0.3244 0.0
C631 C 0.90273 0.40545 0.3147 0.0
C632 C 0.87842 0.40549 0.32069 0.0
C633 C 0.86007 0.38613 0.33679 0.0
C634 C 0.86677 0.36713 0.34613 0.0
H635 H 0.92639 0.38508 0.31925 0.0
O636 O 0.95813 0.38071 0.38662 0.0
O637 O 0.91412 0.35397 0.37776 0.0
O638 O 0.95057 0.33736 0.35493 0.0
O639 O 0.91878 0.33906 0.33195 0.0
C640 C 0.83538 0.38487 0.34396 0.0
C641 C 0.81852 0.36557 0.361 0.0
H642 H 0.7917 0.32597 0.39448 0.0
H643 H 0.80715 0.29409 0.40901 0.0
H644 H 0.917 0.42037 0.30232 0.0
H645 H 0.87407 0.42048 0.31281 0.0
H646 H 0.82919 0.39873 0.33665 0.0
H647 H 0.79989 0.36521 0.36668 0.0
Mn648 Mn 0.05806 0.39663 0.62265 0.0
Mn649 Mn 0.11109 0.43882 0.65753 0.0
C650 C 0.06546 0.44037 0.63109 0.0
C651 C 0.04011 0.37928 0.58565 0.0
C652 C 0.0567 0.39448 0.67648 0.0
O653 O 0.08165 0.37852 0.62177 0.0
O654 O 0.11334 0.40596 0.64791 0.0
C655 C 0.15494 0.4555 0.62184 0.0
N656 N 0.1422 0.46237 0.63864 0.0
C657 C 0.17787 0.50998 0.63731 0.0
C658 C 0.19144 0.50346 0.62003 0.0
C659 C 0.17979 0.47613 0.61211 0.0
C660 C 0.15289 0.48866 0.64599 0.0
H661 H 0.14637 0.43444 0.61605 0.0
C662 C 0.10276 0.38509 0.6343 0.0
O663 O 0.02838 0.36531 0.60447 0.0
O664 O 0.06241 0.40286 0.5884 0.0
N665 N 0.11335 0.47199 0.66885 0.0
C666 C 0.09673 0.47509 0.68444 0.0
C667 C 0.10513 0.50128 0.69384 0.0
C668 C 0.13075 0.52385 0.68749 0.0
C669 C 0.14743 0.5202 0.67126 0.0
C670 C 0.13783 0.4937 0.6623 0.0
H671 H 0.07726 0.45771 0.68962 0.0
O672 O 0.04148 0.42056 0.6246 0.0
O673 O 0.08518 0.43433 0.63227 0.0
O674 O 0.04597 0.38335 0.65682 0.0
O675 O 0.08043 0.41595 0.6784 0.0
C676 C 0.17318 0.54176 0.66357 0.0
C677 C 0.18821 0.53674 0.6464 0.0
H678 H 0.21079 0.51926 0.6127 0.0
H679 H 0.19012 0.47091 0.59878 0.0
H680 H 0.09206 0.50399 0.70622 0.0
H681 H 0.1373 0.54386 0.69512 0.0
H682 H 0.18163 0.56234 0.67056 0.0
H683 H 0.2077 0.55361 0.64032 0.0
Mn684 Mn 0.66108 0.05537 0.11806 0.0
Mn685 Mn 0.66924 0.10692 0.15389 0.0
C686 C 0.62358 0.061 0.12642 0.0
C687 C 0.66134 0.03853 0.08067 0.0
C688 C 0.66247 0.05334 0.17167 0.0
O689 O 0.7027 0.0803 0.11783 0.0
O690 O 0.70521 0.11175 0.14353 0.0
C691 C 0.69418 0.15262 0.1196 0.0
N692 N 0.67464 0.13803 0.13603 0.0
C693 C 0.65974 0.17153 0.13659 0.0
C694 C 0.67966 0.18694 0.11964 0.0
C695 C 0.69682 0.17732 0.11097 0.0
C696 C 0.65772 0.14683 0.14416 0.0
H697 H 0.70784 0.14564 0.11333 0.0
C698 C 0.71644 0.10188 0.13014 0.0
O699 O 0.66405 0.02678 0.09927 0.0
O700 O 0.65933 0.06037 0.08385 0.0
N701 N 0.637 0.10615 0.16577 0.0
C702 C 0.6178 0.08799 0.18099 0.0
C703 C 0.59836 0.09398 0.19068 0.0
C704 C 0.59938 0.11894 0.18515 0.0
C705 C 0.61947 0.13741 0.16957 0.0
C706 C 0.6379 0.13004 0.16009 0.0
H707 H 0.61752 0.06921 0.18581 0.0
O708 O 0.62035 0.03745 0.1197 0.0
O709 O 0.64904 0.08121 0.12813 0.0
O710 O 0.66254 0.04276 0.15189 0.0
O711 O 0.66379 0.07655 0.17411 0.0
C712 C 0.62202 0.16287 0.16308 0.0
C713 C 0.64191 0.17977 0.1464 0.0
H714 H 0.68198 0.20616 0.11316 0.0
H715 H 0.71231 0.18913 0.09795 0.0
H716 H 0.58291 0.07963 0.20269 0.0
H717 H 0.58457 0.12364 0.19292 0.0
H718 H 0.60867 0.16958 0.17064 0.0
H719 H 0.64325 0.19901 0.1412 0.0
Mn720 Mn 0.60306 0.66502 0.61914 0.0
Mn721 Mn 0.55783 0.67759 0.64759 0.0
C722 C 0.5597 0.62869 0.62873 0.0
C723 C 0.62177 0.66192 0.58349 0.0
C724 C 0.6031 0.67314 0.67248 0.0
O725 O 0.62038 0.70662 0.6151 0.0
O726 O 0.58962 0.71209 0.63603 0.0
C727 C 0.54077 0.69618 0.60559 0.0
N728 N 0.5341 0.67877 0.62419 0.0
C729 C 0.48591 0.65656 0.61461 0.0
C730 C 0.49224 0.67419 0.59534 0.0
C731 C 0.51982 0.69402 0.59076 0.0
C732 C 0.50774 0.65918 0.62841 0.0
H733 H 0.56188 0.71167 0.60211 0.0
C734 C 0.61177 0.72166 0.62412 0.0
O735 O 0.63542 0.66615 0.6029 0.0
O736 O 0.59775 0.65983 0.58496 0.0
N737 N 0.5254 0.6469 0.66013 0.0
C738 C 0.52249 0.63465 0.68134 0.0
C739 C 0.49607 0.61539 0.68937 0.0
C740 C 0.47285 0.60963 0.67591 0.0
C741 C 0.47619 0.6238 0.65487 0.0
C742 C 0.50307 0.64259 0.64766 0.0
H743 H 0.54023 0.63951 0.69203 0.0
O744 O 0.57979 0.62436 0.62377 0.0
O745 O 0.56525 0.65416 0.62702 0.0
O746 O 0.61441 0.67002 0.65409 0.0
O747 O 0.58158 0.67564 0.67196 0.0
C748 C 0.4539 0.62108 0.6414 0.0
C749 C 0.45876 0.63705 0.62105 0.0
H750 H 0.47607 0.67289 0.58409 0.0
H751 H 0.52489 0.7078 0.57599 0.0
H752 H 0.49358 0.60519 0.706 0.0
H753 H 0.45257 0.59489 0.6823 0.0
H754 H 0.4329 0.60708 0.64667 0.0
H755 H 0.44141 0.63472 0.61087 0.0
Mn756 Mn 0.92885 0.59028 0.12429 0.0
Mn757 Mn 0.8722 0.54095 0.15069 0.0
C758 C 0.92779 0.54981 0.13657 0.0
C759 C 0.94953 0.60816 0.08793 0.0
C760 C 0.91401 0.59453 0.17452 0.0
O761 O 0.89976 0.60144 0.11806 0.0
O762 O 0.86208 0.56239 0.12955 0.0
C763 C 0.84329 0.50648 0.10956 0.0
N764 N 0.85408 0.50899 0.13135 0.0
C765 C 0.83737 0.46031 0.13356 0.0
C766 C 0.82592 0.45708 0.11119 0.0
C767 C 0.82911 0.48033 0.09906 0.0
C768 C 0.85194 0.48695 0.14284 0.0
H769 H 0.84546 0.52428 0.10033 0.0
C770 C 0.87367 0.58598 0.11955 0.0
O771 O 0.95731 0.62357 0.10656 0.0
O772 O 0.93003 0.58293 0.09062 0.0
N773 N 0.87843 0.5182 0.17182 0.0
C774 C 0.89024 0.52466 0.19344 0.0
C775 C 0.88834 0.50367 0.20807 0.0
C776 C 0.87405 0.47619 0.20044 0.0
C777 C 0.86199 0.47003 0.17819 0.0
C778 C 0.86442 0.49176 0.16443 0.0
H779 H 0.90115 0.54564 0.19951 0.0
O780 O 0.95094 0.57168 0.13138 0.0
O781 O 0.90621 0.55234 0.13369 0.0
O782 O 0.93244 0.60369 0.15845 0.0
O783 O 0.89031 0.5729 0.17203 0.0
C784 C 0.84716 0.44307 0.16936 0.0
C785 C 0.83475 0.43813 0.1471 0.0
H786 H 0.81466 0.43688 0.10318 0.0
H787 H 0.82041 0.47805 0.08176 0.0
H788 H 0.89777 0.50865 0.22521 0.0
H789 H 0.87256 0.45999 0.21177 0.0
H790 H 0.84523 0.42616 0.17976 0.0
H791 H 0.82331 0.41725 0.14049 0.0
Mn792 Mn 0.33427 0.94864 0.61528 0.0
Mn793 Mn 0.32498 0.89639 0.65093 0.0
C794 C 0.37161 0.94315 0.62494 0.0
C795 C 0.33576 0.96679 0.57798 0.0
C796 C 0.32974 0.94905 0.66885 0.0
O797 O 0.2927 0.92303 0.61337 0.0
O798 O 0.28949 0.89107 0.63894 0.0
C799 C 0.30264 0.85108 0.61623 0.0
N800 N 0.32121 0.86579 0.63327 0.0
C801 C 0.33629 0.83249 0.63565 0.0
C802 C 0.31741 0.81699 0.61805 0.0
C803 C 0.30067 0.82646 0.60816 0.0
C804 C 0.33775 0.85714 0.64258 0.0
H805 H 0.28919 0.85788 0.60909 0.0
C806 C 0.27873 0.90096 0.62508 0.0
O807 O 0.33182 0.97762 0.59661 0.0
O808 O 0.33799 0.94504 0.58101 0.0
N809 N 0.35685 0.89771 0.66428 0.0
C810 C 0.37506 0.91596 0.68003 0.0
C811 C 0.3941 0.9102 0.69089 0.0
C812 C 0.39361 0.88536 0.68599 0.0
C813 C 0.3745 0.8668 0.66984 0.0
C814 C 0.35653 0.87399 0.65914 0.0
H815 H 0.37484 0.93461 0.6844 0.0
O816 O 0.37494 0.96683 0.61847 0.0
O817 O 0.34617 0.92278 0.62579 0.0
O818 O 0.33088 0.96025 0.6491 0.0
O819 O 0.32851 0.92591 0.6712 0.0
C820 C 0.37241 0.84137 0.66402 0.0
C821 C 0.35356 0.82437 0.64674 0.0
H822 H 0.31556 0.7978 0.61202 0.0
H823 H 0.28595 0.81456 0.59466 0.0
H824 H 0.40877 0.92462 0.70334 0.0
H825 H 0.40804 0.8808 0.6947 0.0
H826 H 0.38531 0.83474 0.6726 0.0
H827 H 0.35259 0.80515 0.64208 0.0
Mn828 Mn 0.38606 0.33483 0.1178 0.0
Mn829 Mn 0.42509 0.32824 0.15939 0.0
C830 C 0.42727 0.37324 0.1292 0.0
C831 C 0.37388 0.33327 0.07851 0.0
C832 C 0.37202 0.32834 0.16965 0.0
O833 O 0.37131 0.29322 0.11868 0.0
O834 O 0.40144 0.29215 0.14421 0.0
C835 C 0.46064 0.31373 0.13164 0.0
N836 N 0.45791 0.3305 0.14733 0.0
C837 C 0.50639 0.35401 0.15615 0.0
C838 C 0.50979 0.33706 0.14003 0.0
C839 C 0.48684 0.31698 0.1276 0.0
C840 C 0.47989 0.35011 0.15915 0.0
H841 H 0.4429 0.29785 0.1225 0.0
C842 C 0.38127 0.28042 0.12985 0.0
O843 O 0.35689 0.33024 0.09522 0.0
O844 O 0.39756 0.33639 0.08466 0.0
N845 N 0.44904 0.36177 0.17538 0.0
C846 C 0.44253 0.37791 0.18864 0.0
C847 C 0.46337 0.4 0.20127 0.0
C848 C 0.49053 0.4049 0.20044 0.0
C849 C 0.49672 0.38814 0.18645 0.0
C850 C 0.4752 0.36676 0.17396 0.0
H851 H 0.42157 0.37384 0.18964 0.0
O852 O 0.40787 0.37594 0.11935 0.0
O853 O 0.42199 0.34799 0.1322 0.0
O854 O 0.36698 0.33344 0.1491 0.0
O855 O 0.39255 0.32546 0.17464 0.0
C856 C 0.52338 0.39176 0.18442 0.0
C857 C 0.52824 0.37473 0.16924 0.0
H858 H 0.52993 0.33937 0.13699 0.0
H859 H 0.48929 0.3038 0.11516 0.0
H860 H 0.45846 0.41296 0.21188 0.0
H861 H 0.50649 0.42172 0.21046 0.0
H862 H 0.54029 0.40772 0.19435 0.0
H863 H 0.5489 0.37794 0.16756 0.0
C864 C 0.36688 0.07378 0.29458 0.0
C865 C 0.37935 0.06143 0.30707 0.0
C866 C 0.36475 0.07177 0.27011 0.0
C867 C 0.37625 0.05787 0.25793 0.0
C868 C 0.38577 0.04258 0.27074 0.0
C869 C 0.38694 0.04434 0.29526 0.0
C870 C 0.35361 0.08767 0.25728 0.0
C871 C 0.39846 0.02767 0.25864 0.0
C872 C 0.37699 0.05645 0.19103 0.0
C873 C 0.40237 0.0802 0.18612 0.0
C874 C 0.36782 0.04891 0.21427 0.0
C875 C 0.38469 0.06515 0.233 0.0
C876 C 0.41028 0.08906 0.22809 0.0
C877 C 0.41853 0.09643 0.20486 0.0
C878 C 0.34022 0.02358 0.2188 0.0
C879 C 0.42924 0.1069 0.24743 0.0
H880 H 0.36129 0.08726 0.3037 0.0
H881 H 0.39696 0.03511 0.30491 0.0
H882 H 0.37104 0.10781 0.25153 0.0
H883 H 0.34197 0.07636 0.24148 0.0
H884 H 0.33993 0.09172 0.26864 0.0
H885 H 0.39911 0.01212 0.27027 0.0
H886 H 0.38696 0.01725 0.24253 0.0
H887 H 0.41993 0.04286 0.2535 0.0
H888 H 0.36425 0.04378 0.17675 0.0
H889 H 0.43807 0.11491 0.2015 0.0
H890 H 0.32745 0.02886 0.23015 0.0
H891 H 0.34317 0.00795 0.22824 0.0
H892 H 0.32873 0.01421 0.20238 0.0
H893 H 0.41886 0.11567 0.25801 0.0
H894 H 0.44889 0.12421 0.24065 0.0
H895 H 0.4342 0.0943 0.2593 0.0
C896 C 0.35538 0.40008 0.70211 0.0
C897 C 0.33055 0.39046 0.69 0.0
C898 C 0.35562 0.39825 0.72658 0.0
C899 C 0.33034 0.38621 0.73899 0.0
C900 C 0.30517 0.37294 0.72644 0.0
C901 C 0.30557 0.37561 0.70202 0.0
C902 C 0.38296 0.41276 0.73912 0.0
C903 C 0.27776 0.35912 0.7389 0.0
C904 C 0.33296 0.38653 0.80575 0.0
C905 C 0.33267 0.41093 0.8109 0.0
C906 C 0.33146 0.3776 0.78247 0.0
C907 C 0.33024 0.39376 0.76397 0.0
C908 C 0.32956 0.41816 0.76912 0.0
C909 C 0.33042 0.42618 0.79241 0.0
C910 C 0.33174 0.35125 0.77769 0.0
C911 C 0.32852 0.43628 0.74999 0.0
H912 H 0.3747 0.41188 0.69278 0.0
H913 H 0.28636 0.36847 0.69262 0.0
H914 H 0.38689 0.43327 0.74514 0.0
H915 H 0.38283 0.40097 0.75473 0.0
H916 H 0.40022 0.41596 0.72751 0.0
H917 H 0.26088 0.34458 0.72721 0.0
H918 H 0.27841 0.34776 0.75454 0.0
H919 H 0.27286 0.37506 0.74485 0.0
H920 H 0.33459 0.3745 0.81985 0.0
H921 H 0.32999 0.44496 0.796 0.0
H922 H 0.35187 0.35621 0.76997 0.0
H923 H 0.31552 0.33834 0.76485 0.0
H924 H 0.32856 0.33902 0.79386 0.0
H925 H 0.34653 0.44323 0.73819 0.0
H926 H 0.32856 0.45481 0.75698 0.0
H927 H 0.30965 0.42442 0.73929 0.0
C928 C 0.96055 0.32771 0.19897 0.0
C929 C 0.93247 0.31753 0.1943 0.0
C930 C 0.97015 0.33036 0.22215 0.0
C931 C 0.95128 0.32316 0.24095 0.0
C932 C 0.92273 0.31103 0.23616 0.0
C933 C 0.91374 0.3081 0.21301 0.0
C934 C 0.0006 0.34236 0.22636 0.0
C935 C 0.90167 0.30299 0.25552 0.0
C936 C 0.95598 0.31575 0.30584 0.0
C937 C 0.95584 0.33947 0.31336 0.0
C938 C 0.95878 0.3117 0.28193 0.0
C939 C 0.96076 0.33155 0.26547 0.0
C940 C 0.96456 0.35714 0.27353 0.0
C941 C 0.96215 0.3608 0.29744 0.0
C942 C 0.95622 0.28481 0.27412 0.0
C943 C 0.96712 0.37913 0.25676 0.0
H944 H 0.97521 0.33481 0.18468 0.0
H945 H 0.89192 0.29963 0.20968 0.0
H946 H 0.01055 0.36512 0.22775 0.0
H947 H 0.00465 0.33446 0.24279 0.0
H948 H 0.01046 0.33764 0.21159 0.0
H949 H 0.8802 0.29296 0.24879 0.0
H950 H 0.90327 0.28858 0.26785 0.0
H951 H 0.90567 0.3216 0.26556 0.0
H952 H 0.95111 0.29923 0.31817 0.0
H953 H 0.96242 0.3793 0.3034 0.0
H954 H 0.96921 0.28786 0.2585 0.0
H955 H 0.93449 0.27017 0.26933 0.0
H956 H 0.96226 0.27529 0.28827 0.0
H957 H 0.98216 0.38251 0.24275 0.0
H958 H 0.9737 0.39907 0.26572 0.0
H959 H 0.94685 0.3723 0.24835 0.0
C960 C 0.57775 0.91119 0.70872 0.0
C961 C 0.59351 0.92545 0.68911 0.0
C962 C 0.58744 0.91979 0.73147 0.0
C963 C 0.61398 0.94301 0.73496 0.0
C964 C 0.63024 0.95748 0.71536 0.0
C965 C 0.61974 0.94866 0.69263 0.0
C966 C 0.56909 0.90389 0.75183 0.0
C967 C 0.65872 0.9821 0.7184 0.0
C968 C 0.61691 0.96675 0.797 0.0
C969 C 0.62363 0.94883 0.8085 0.0
C970 C 0.61688 0.96786 0.77245 0.0
C971 C 0.62432 0.95106 0.75936 0.0
C972 C 0.63537 0.93648 0.7711 0.0
C973 C 0.63454 0.93525 0.7956 0.0
C974 C 0.60495 0.98373 0.76079 0.0
C975 C 0.64425 0.91888 0.75794 0.0
H976 H 0.55752 0.89323 0.7064 0.0
H977 H 0.63216 0.95984 0.67766 0.0
H978 H 0.57912 0.89479 0.76245 0.0
H979 H 0.56587 0.91797 0.76334 0.0
H980 H 0.54859 0.88698 0.7461 0.0
H981 H 0.66854 0.99152 0.70142 0.0
H982 H 0.65774 0.99798 0.72928 0.0
H983 H 0.67207 0.97582 0.72775 0.0
H984 H 0.60814 0.97699 0.80697 0.0
H985 H 0.63958 0.92123 0.80452 0.0
H986 H 0.58275 0.96949 0.75718 0.0
H987 H 0.61529 0.99263 0.7439 0.0
H988 H 0.60669 0.00061 0.77217 0.0
H989 H 0.62574 0.89907 0.7531 0.0
H990 H 0.65789 0.9142 0.76874 0.0
H991 H 0.65521 0.92917 0.74159 0.0
C992 C 0.70511 0.61771 0.29981 0.0
C993 C 0.68413 0.6148 0.3149 0.0
C994 C 0.70301 0.62019 0.27564 0.0
C995 C 0.67903 0.6191 0.26637 0.0
C996 C 0.65951 0.61967 0.28179 0.0
C997 C 0.66235 0.6176 0.30602 0.0
C998 C 0.7247 0.62028 0.25994 0.0
C999 C 0.63388 0.61892 0.27269 0.0
C1000 C 0.67481 0.61993 0.1998 0.0
C1001 C 0.66278 0.59167 0.19479 0.0
C1002 C 0.67929 0.62943 0.22309 0.0
C1003 C 0.67134 0.61017 0.24166 0.0
C1004 C 0.65784 0.5816 0.23661 0.0
C1005 C 0.65394 0.57281 0.21335 0.0
C1006 C 0.69371 0.66003 0.22772 0.0
C1007 C 0.64849 0.56016 0.25578 0.0
H1008 H 0.72206 0.61572 0.30674 0.0
H1009 H 0.64603 0.61522 0.31767 0.0
H1010 H 0.71696 0.59925 0.25277 0.0
H1011 H 0.72923 0.63452 0.24498 0.0
H1012 H 0.74418 0.62642 0.26954 0.0
H1013 H 0.62445 0.62599 0.28611 0.0
H1014 H 0.63846 0.63194 0.25685 0.0
H1015 H 0.61852 0.59743 0.26778 0.0
H1016 H 0.68173 0.63467 0.18556 0.0
H1017 H 0.64432 0.55098 0.20978 0.0
H1018 H 0.71566 0.6675 0.23193 0.0
H1019 H 0.68446 0.66475 0.24291 0.0
H1020 H 0.69294 0.67165 0.21227 0.0
H1021 H 0.66667 0.56239 0.26546 0.0
H1022 H 0.63675 0.53877 0.2489 0.0
H1023 H 0.63525 0.56317 0.26846 0.0
C1024 C 0.09624 0.70086 0.71524 0.0
C1025 C 0.07637 0.68341 0.69901 0.0
C1026 C 0.09073 0.69792 0.73928 0.0
C1027 C 0.06467 0.67701 0.74736 0.0
C1028 C 0.0435 0.66157 0.73096 0.0
C1029 C 0.04961 0.66493 0.70689 0.0
C1030 C 0.11388 0.71516 0.75604 0.0
C1031 C 0.01524 0.63957 0.7388 0.0
C1032 C 0.07339 0.64362 0.80155 0.0
C1033 C 0.06853 0.65769 0.81947 0.0
C1034 C 0.07033 0.64841 0.77803 0.0
C1035 C 0.06198 0.66772 0.77216 0.0
C1036 C 0.05476 0.6803 0.79022 0.0
C1037 C 0.05817 0.67515 0.81378 0.0
C1038 C 0.0781 0.63427 0.75949 0.0
C1039 C 0.04525 0.70057 0.78476 0.0
H1040 H 0.11686 0.71549 0.70924 0.0
H1041 H 0.03408 0.6514 0.69449 0.0
H1042 H 0.10645 0.72297 0.77048 0.0
H1043 H 0.12162 0.70219 0.7639 0.0
H1044 H 0.13138 0.733 0.74721 0.0
H1045 H 0.99967 0.63421 0.72476 0.0
H1046 H 0.01587 0.62067 0.7435 0.0
H1047 H 0.00856 0.6463 0.75452 0.0
H1048 H 0.08068 0.62956 0.8059 0.0
H1049 H 0.05433 0.68605 0.82761 0.0
H1050 H 0.09706 0.64978 0.75035 0.0
H1051 H 0.06153 0.62449 0.74621 0.0
H1052 H 0.08201 0.61821 0.76691 0.0
H1053 H 0.06342 0.72095 0.78066 0.0
H1054 H 0.03425 0.70321 0.79981 0.0
H1055 H 0.03147 0.69389 0.76928 0.0
C1056 C 0.94547 0.63125 0.2035 0.0
C1057 C 0.92066 0.60699 0.19839 0.0
C1058 C 0.95257 0.6406 0.22677 0.0
C1059 C 0.93517 0.62452 0.24537 0.0
C1060 C 0.90988 0.60041 0.24017 0.0
C1061 C 0.90257 0.59266 0.21689 0.0
C1062 C 0.97908 0.66718 0.23121 0.0
C1063 C 0.89102 0.58175 0.25923 0.0
C1064 C 0.95826 0.61806 0.30581 0.0
C1065 C 0.94197 0.62516 0.31941 0.0
C1066 C 0.95857 0.62025 0.28134 0.0
C1067 C 0.94333 0.63114 0.27043 0.0
C1068 C 0.93042 0.64227 0.28449 0.0
C1069 C 0.92901 0.63824 0.30883 0.0
C1070 C 0.97219 0.60762 0.26719 0.0
C1071 C 0.91584 0.65604 0.27369 0.0
H1072 H 0.95949 0.64278 0.18943 0.0
H1073 H 0.88306 0.57419 0.21338 0.0
H1074 H 0.97848 0.67704 0.24785 0.0
H1075 H 0.99638 0.66291 0.23202 0.0
H1076 H 0.98352 0.682 0.21668 0.0
H1077 H 0.87326 0.56261 0.25217 0.0
H1078 H 0.90266 0.57576 0.27127 0.0
H1079 H 0.88282 0.59275 0.26965 0.0
H1080 H 0.96805 0.6077 0.31404 0.0
H1081 H 0.91651 0.64388 0.31939 0.0
H1082 H 0.98535 0.62207 0.25335 0.0
H1083 H 0.95611 0.58863 0.25847 0.0
H1084 H 0.98507 0.6021 0.27817 0.0
H1085 H 0.92737 0.66849 0.25824 0.0
H1086 H 0.91336 0.6696 0.28645 0.0
H1087 H 0.89503 0.64013 0.26773 0.0
C1088 C 0.32222 0.95524 0.80665 0.0
C1089 C 0.31757 0.92835 0.81003 0.0
C1090 C 0.32303 0.96559 0.78401 0.0
C1091 C 0.31966 0.94888 0.7643 0.0
C1092 C 0.31377 0.92138 0.76768 0.0
C1093 C 0.31246 0.91142 0.79039 0.0
C1094 C 0.32866 0.99475 0.78123 0.0
C1095 C 0.31017 0.90274 0.74723 0.0
C1096 C 0.3043 0.95531 0.70119 0.0
C1097 C 0.32972 0.96236 0.69097 0.0
C1098 C 0.30132 0.95439 0.72565 0.0
C1099 C 0.3242 0.9601 0.74 0.0
C1100 C 0.3506 0.97077 0.72968 0.0
C1101 C 0.35303 0.97189 0.70524 0.0
C1102 C 0.273 0.94387 0.7359 0.0
C1103 C 0.37564 0.97721 0.74416 0.0
H1104 H 0.32605 0.96853 0.82162 0.0
H1105 H 0.30853 0.89054 0.79262 0.0
H1106 H 0.3505 0.00833 0.77611 0.0
H1107 H 0.3156 0.996 0.76725 0.0
H1108 H 0.32494 0.00282 0.79774 0.0
H1109 H 0.30521 0.88176 0.75286 0.0
H1110 H 0.2934 0.90077 0.73566 0.0
H1111 H 0.32939 0.91184 0.7367 0.0
H1112 H 0.28615 0.9475 0.69019 0.0
H1113 H 0.37262 0.977 0.69732 0.0
H1114 H 0.27414 0.9545 0.75258 0.0
H1115 H 0.26356 0.92151 0.73967 0.0
H1116 H 0.25927 0.94672 0.72361 0.0
H1117 H 0.37636 0.98853 0.76028 0.0
H1118 H 0.39508 0.98965 0.73424 0.0
H1119 H 0.37452 0.95761 0.74951 0.0
C1120 C 0.40152 0.3569 0.28695 0.0
C1121 C 0.38457 0.34837 0.30682 0.0
C1122 C 0.39067 0.35448 0.26455 0.0
C1123 C 0.36195 0.34377 0.2617 0.0
C1124 C 0.34501 0.33767 0.28179 0.0
C1125 C 0.3565 0.3398 0.30421 0.0
C1126 C 0.40992 0.36162 0.24388 0.0
C1127 C 0.31458 0.32751 0.27984 0.0
C1128 C 0.35642 0.35185 0.19742 0.0
C1129 C 0.35535 0.32754 0.18985 0.0
C1130 C 0.35346 0.35587 0.22132 0.0
C1131 C 0.35024 0.33544 0.23769 0.0
C1132 C 0.34433 0.30919 0.22944 0.0
C1133 C 0.34692 0.30556 0.20553 0.0
C1134 C 0.35758 0.38332 0.2293 0.0
C1135 C 0.33987 0.2864 0.24607 0.0
H1136 H 0.42337 0.36427 0.28874 0.0
H1137 H 0.34325 0.33351 0.31946 0.0
H1138 H 0.40338 0.34316 0.23272 0.0
H1139 H 0.40923 0.37768 0.23308 0.0
H1140 H 0.43166 0.36944 0.24923 0.0
H1141 H 0.3077 0.33575 0.29441 0.0
H1142 H 0.30919 0.33348 0.263 0.0
H1143 H 0.30297 0.3047 0.28126 0.0
H1144 H 0.3628 0.36887 0.18531 0.0
H1145 H 0.34586 0.28666 0.19957 0.0
H1146 H 0.37972 0.39743 0.23317 0.0
H1147 H 0.34563 0.38102 0.24546 0.0
H1148 H 0.3513 0.39302 0.21549 0.0
H1149 H 0.35974 0.29163 0.25454 0.0
H1150 H 0.33188 0.26629 0.23697 0.0
H1151 H 0.32514 0.2841 0.26002 0.0
C1152 C 0.04915 0.39958 0.71839 0.0
C1153 C 0.0421 0.38234 0.69878 0.0
C1154 C 0.04107 0.3889 0.74087 0.0
C1155 C 0.02496 0.35997 0.74402 0.0
C1156 C 0.01519 0.34253 0.72412 0.0
C1157 C 0.02406 0.35394 0.70162 0.0
C1158 C 0.05196 0.40869 0.76132 0.0
C1159 C 0.99681 0.31176 0.72642 0.0
C1160 C 0.05248 0.34954 0.79962 0.0
C1161 C 0.03783 0.35637 0.81551 0.0
C1162 C 0.0454 0.34572 0.77591 0.0
C1163 C 0.02318 0.34891 0.76806 0.0
C1164 C 0.00531 0.35053 0.78473 0.0
C1165 C 0.01309 0.35468 0.80844 0.0
C1166 C 0.0645 0.34292 0.75895 0.0
C1167 C 0.98014 0.35169 0.77719 0.0
H1168 H 0.0625 0.42161 0.71637 0.0
H1169 H 0.01817 0.34045 0.68653 0.0
H1170 H 0.03469 0.40625 0.77245 0.0
H1171 H 0.06559 0.40419 0.77229 0.0
H1172 H 0.06392 0.43059 0.75571 0.0
H1173 H 0.9815 0.30368 0.71198 0.0
H1174 H 0.00949 0.30168 0.72496 0.0
H1175 H 0.98568 0.30583 0.74336 0.0
H1176 H 0.07143 0.35049 0.80525 0.0
H1177 H 0.00156 0.35972 0.82077 0.0
H1178 H 0.07744 0.36292 0.74995 0.0
H1179 H 0.05253 0.32725 0.74545 0.0
H1180 H 0.07836 0.33695 0.76788 0.0
H1181 H 0.98605 0.37332 0.77307 0.0
H1182 H 0.96446 0.34432 0.79133 0.0
H1183 H 0.97085 0.33905 0.76127 0.0
C1184 C 0.67045 0.04416 0.30906 0.0
C1185 C 0.67743 0.07174 0.31274 0.0
C1186 C 0.66885 0.03379 0.28632 0.0
C1187 C 0.67386 0.05127 0.26684 0.0
C1188 C 0.6823 0.07943 0.27053 0.0
C1189 C 0.68425 0.08932 0.29334 0.0
C1190 C 0.66048 0.00385 0.28323 0.0
C1191 C 0.68783 0.09893 0.25031 0.0
C1192 C 0.68642 0.04371 0.20329 0.0
C1193 C 0.6616 0.03946 0.19368 0.0
C1194 C 0.68976 0.04388 0.22768 0.0
C1195 C 0.66791 0.04025 0.2425 0.0
C1196 C 0.64173 0.03219 0.23269 0.0
C1197 C 0.63889 0.03178 0.20833 0.0
C1198 C 0.71768 0.05146 0.23742 0.0
C1199 C 0.61776 0.02793 0.24772 0.0
H1200 H 0.66533 0.03036 0.32386 0.0
H1201 H 0.69001 0.11073 0.29584 0.0
H1202 H 0.63817 0.9918 0.27907 0.0
H1203 H 0.67187 0.00113 0.26856 0.0
H1204 H 0.66414 0.99512 0.29937 0.0
H1205 H 0.69505 0.12039 0.25618 0.0
H1206 H 0.70367 0.09914 0.23854 0.0
H1207 H 0.66872 0.09181 0.23991 0.0
H1208 H 0.70411 0.04999 0.19197 0.0
H1209 H 0.61975 0.02865 0.20083 0.0
H1210 H 0.71564 0.04017 0.25392 0.0
H1211 H 0.72925 0.07386 0.24137 0.0
H1212 H 0.72992 0.04695 0.22473 0.0
H1213 H 0.61592 0.01549 0.26339 0.0
H1214 H 0.59796 0.01753 0.23797 0.0
H1215 H 0.62127 0.04827 0.25381 0.0
C1216 C 0.63817 0.67061 0.69878 0.0
C1217 C 0.61462 0.67318 0.69596 0.0
C1218 C 0.64832 0.67009 0.72124 0.0
C1219 C 0.63439 0.67187 0.74126 0.0
C1220 C 0.61067 0.67449 0.73845 0.0
C1221 C 0.60126 0.67525 0.71598 0.0
C1222 C 0.67355 0.66713 0.7235 0.0
C1223 C 0.59492 0.67633 0.75922 0.0
C1224 C 0.62912 0.64668 0.80256 0.0
C1225 C 0.64072 0.6719 0.81442 0.0
C1226 C 0.63055 0.64592 0.7781 0.0
C1227 C 0.64385 0.67104 0.76546 0.0
C1228 C 0.65961 0.69614 0.77774 0.0
C1229 C 0.65772 0.69628 0.80221 0.0
C1230 C 0.61397 0.61861 0.76582 0.0
C1231 C 0.67474 0.72334 0.76504 0.0
H1232 H 0.64863 0.66889 0.68349 0.0
H1233 H 0.58308 0.67725 0.71422 0.0
H1234 H 0.68787 0.68149 0.73687 0.0
H1235 H 0.66724 0.64587 0.72927 0.0
H1236 H 0.68477 0.67103 0.70666 0.0
H1237 H 0.57691 0.67834 0.75396 0.0
H1238 H 0.58735 0.65762 0.77025 0.0
H1239 H 0.60868 0.69439 0.77019 0.0
H1240 H 0.61576 0.62781 0.81202 0.0
H1241 H 0.66649 0.71583 0.81138 0.0
H1242 H 0.62424 0.61796 0.74947 0.0
H1243 H 0.59345 0.61572 0.76115 0.0
H1244 H 0.61073 0.60117 0.77722 0.0
H1245 H 0.68443 0.7214 0.74879 0.0
H1246 H 0.6909 0.73959 0.77624 0.0
H1247 H 0.65985 0.73008 0.76008 0.0
C1248 C 0.41339 0.17122 0.099 0.0
C1249 C 0.39604 0.14318 0.10395 0.0
C1250 C 0.40355 0.18975 0.09945 0.0
C1251 C 0.37555 0.18002 0.10508 0.0
C1252 C 0.35724 0.15129 0.10763 0.0
C1253 C 0.36774 0.13308 0.10707 0.0
C1254 C 0.42387 0.22014 0.09625 0.0
C1255 C 0.3271 0.13999 0.11293 0.0
C1256 C 0.37461 0.23493 0.14188 0.0
C1257 C 0.37124 0.25099 0.12484 0.0
C1258 C 0.37287 0.20984 0.13611 0.0
C1259 C 0.36758 0.20051 0.11267 0.0
C1260 C 0.36075 0.2149 0.09604 0.0
C1261 C 0.36275 0.24016 0.10231 0.0
C1262 C 0.3799 0.19505 0.15458 0.0
C1263 C 0.354 0.20512 0.0711 0.0
H1264 H 0.4352 0.17904 0.09613 0.0
H1265 H 0.3542 0.11137 0.11075 0.0
H1266 H 0.41564 0.22946 0.08385 0.0
H1267 H 0.42728 0.23094 0.11324 0.0
H1268 H 0.44412 0.22393 0.08962 0.0
H1269 H 0.31461 0.11801 0.10765 0.0
H1270 H 0.32442 0.14125 0.13201 0.0
H1271 H 0.31902 0.15206 0.10396 0.0
H1272 H 0.38057 0.24296 0.15947 0.0
H1273 H 0.35986 0.25237 0.0891 0.0
H1274 H 0.40065 0.1979 0.15097 0.0
H1275 H 0.36494 0.1726 0.15424 0.0
H1276 H 0.38006 0.20296 0.17242 0.0
H1277 H 0.37343 0.21233 0.06116 0.0
H1278 H 0.34196 0.21348 0.06245 0.0
H1279 H 0.34216 0.18226 0.07017 0.0
C1280 C 0.13321 0.36845 0.64953 0.0
C1281 C 0.11913 0.37145 0.63057 0.0
C1282 C 0.15655 0.36585 0.64598 0.0
C1283 C 0.16626 0.36693 0.62294 0.0
C1284 C 0.14983 0.36596 0.60375 0.0
C1285 C 0.12623 0.36813 0.60781 0.0
C1286 C 0.17291 0.36597 0.66698 0.0
C1287 C 0.15909 0.36645 0.57892 0.0
C1288 C 0.24308 0.41542 0.62087 0.0
C1289 C 0.25349 0.39729 0.6205 0.0
C1290 C 0.21475 0.40566 0.6202 0.0
C1291 C 0.19611 0.37686 0.61948 0.0
C1292 C 0.20643 0.35839 0.61784 0.0
C1293 C 0.23514 0.36888 0.61826 0.0
C1294 C 0.20482 0.42628 0.62148 0.0
C1295 C 0.18732 0.32761 0.61698 0.0
H1296 H 0.12747 0.37068 0.66716 0.0
H1297 H 0.11531 0.37041 0.5931 0.0
H1298 H 0.18131 0.35196 0.66424 0.0
H1299 H 0.19058 0.38711 0.66965 0.0
H1300 H 0.16019 0.35964 0.68313 0.0
H1301 H 0.14152 0.35881 0.56651 0.0
H1302 H 0.1744 0.38798 0.57405 0.0
H1303 H 0.16914 0.35379 0.57704 0.0
H1304 H 0.25715 0.43743 0.62227 0.0
H1305 H 0.24312 0.35478 0.61798 0.0
H1306 H 0.1939 0.42385 0.63826 0.0
H1307 H 0.19002 0.42257 0.60715 0.0
H1308 H 0.222 0.44794 0.62022 0.0
H1309 H 0.18064 0.31977 0.635 0.0
H1310 H 0.19773 0.31688 0.60948 0.0
H1311 H 0.16857 0.32216 0.60657 0.0
C1312 C 0.8346 0.23817 0.10667 0.0
C1313 C 0.86192 0.24721 0.11316 0.0
C1314 C 0.81489 0.21015 0.10616 0.0
C1315 C 0.82266 0.19051 0.11238 0.0
C1316 C 0.85084 0.1993 0.11653 0.0
C1317 C 0.87029 0.22775 0.11691 0.0
C1318 C 0.78519 0.20192 0.10131 0.0
C1319 C 0.86016 0.17901 0.12249 0.0
C1320 C 0.76237 0.13627 0.14556 0.0
C1321 C 0.74669 0.11858 0.12739 0.0
C1322 C 0.78911 0.15807 0.14156 0.0
C1323 C 0.80041 0.16229 0.11878 0.0
C1324 C 0.78617 0.14227 0.10124 0.0
C1325 C 0.75927 0.12056 0.10572 0.0
C1326 C 0.8037 0.17854 0.161 0.0
C1327 C 0.79802 0.14537 0.07704 0.0
H1328 H 0.82815 0.25316 0.10341 0.0
H1329 H 0.89145 0.23469 0.12186 0.0
H1330 H 0.77606 0.18505 0.08827 0.0
H1331 H 0.77293 0.1942 0.11763 0.0
H1332 H 0.78309 0.21944 0.09469 0.0
H1333 H 0.88209 0.1872 0.11757 0.0
H1334 H 0.85835 0.17532 0.14162 0.0
H1335 H 0.84729 0.15891 0.11363 0.0
H1336 H 0.75294 0.13435 0.16253 0.0
H1337 H 0.74737 0.1067 0.09167 0.0
H1338 H 0.80293 0.19765 0.1575 0.0
H1339 H 0.82568 0.18422 0.16188 0.0
H1340 H 0.79404 0.17033 0.17829 0.0
H1341 H 0.79354 0.15942 0.06667 0.0
H1342 H 0.78876 0.12522 0.06784 0.0
H1343 H 0.82074 0.15445 0.07769 0.0
C1344 C 0.62829 0.7608 0.59621 0.0
C1345 C 0.62575 0.75142 0.61926 0.0
C1346 C 0.6303 0.78641 0.59147 0.0
C1347 C 0.62951 0.8025 0.61025 0.0
C1348 C 0.63131 0.79488 0.6335 0.0
C1349 C 0.62922 0.76928 0.63772 0.0
C1350 C 0.62957 0.7944 0.56644 0.0
C1351 C 0.63122 0.81168 0.6541 0.0
C1352 C 0.62548 0.86835 0.60665 0.0
C1353 C 0.59696 0.85751 0.60912 0.0
C1354 C 0.63665 0.85073 0.60524 0.0
C1355 C 0.61882 0.82178 0.60642 0.0
C1356 C 0.58991 0.81087 0.60713 0.0
C1357 C 0.57944 0.82884 0.60845 0.0
C1358 C 0.66751 0.86323 0.60389 0.0
C1359 C 0.56992 0.78013 0.6081 0.0
H1360 H 0.62561 0.74696 0.58191 0.0
H1361 H 0.62747 0.76201 0.65556 0.0
H1362 H 0.60795 0.78754 0.56142 0.0
H1363 H 0.64179 0.81711 0.56417 0.0
H1364 H 0.63761 0.7845 0.5544 0.0
H1365 H 0.6374 0.80563 0.67052 0.0
H1366 H 0.64537 0.83399 0.65102 0.0
H1367 H 0.61014 0.80846 0.6565 0.0
H1368 H 0.63916 0.89051 0.60695 0.0
H1369 H 0.55732 0.82026 0.60981 0.0
H1370 H 0.67333 0.84984 0.59403 0.0
H1371 H 0.67596 0.86583 0.62184 0.0
H1372 H 0.67733 0.8839 0.59552 0.0
H1373 H 0.57372 0.76957 0.59339 0.0
H1374 H 0.54807 0.7751 0.60728 0.0
H1375 H 0.57292 0.77151 0.62458 0.0
C1376 C 0.74993 0.61496 0.09605 0.0
C1377 C 0.73784 0.60648 0.11816 0.0
C1378 C 0.7769 0.62008 0.092 0.0
C1379 C 0.79162 0.61639 0.11047 0.0
C1380 C 0.7806 0.61131 0.13339 0.0
C1381 C 0.75379 0.60631 0.1369 0.0
C1382 C 0.78837 0.62662 0.06753 0.0
C1383 C 0.79566 0.60771 0.15378 0.0
C1384 C 0.82824 0.57608 0.10425 0.0
C1385 C 0.85515 0.59569 0.11081 0.0
C1386 C 0.80787 0.58332 0.10157 0.0
C1387 C 0.81457 0.61097 0.10552 0.0
C1388 C 0.84241 0.63147 0.10943 0.0
C1389 C 0.8625 0.62356 0.11211 0.0
C1390 C 0.77856 0.56071 0.09701 0.0
C1391 C 0.85063 0.66132 0.11283 0.0
H1392 H 0.7376 0.61522 0.08155 0.0
H1393 H 0.74446 0.60014 0.15408 0.0
H1394 H 0.81111 0.6402 0.0677 0.0
H1395 H 0.78358 0.60719 0.05849 0.0
H1396 H 0.77902 0.63672 0.05729 0.0
H1397 H 0.78586 0.60729 0.17078 0.0
H1398 H 0.79568 0.58799 0.15181 0.0
H1399 H 0.81742 0.62462 0.15423 0.0
H1400 H 0.82264 0.5546 0.10266 0.0
H1401 H 0.88337 0.63887 0.11693 0.0
H1402 H 0.76916 0.56683 0.08289 0.0
H1403 H 0.76599 0.55707 0.11302 0.0
H1404 H 0.77735 0.54097 0.09198 0.0
H1405 H 0.8376 0.66697 0.10223 0.0
H1406 H 0.87261 0.67517 0.10814 0.0
H1407 H 0.848 0.6649 0.13149 0.0
C1408 C 0.23897 0.87551 0.59809 0.0
C1409 C 0.24895 0.8833 0.6209 0.0
C1410 C 0.21386 0.85107 0.59404 0.0
C1411 C 0.19883 0.83433 0.61327 0.0
C1412 C 0.20696 0.84441 0.63629 0.0
C1413 C 0.23203 0.86879 0.63981 0.0
C1414 C 0.20525 0.84159 0.56924 0.0
C1415 C 0.19131 0.82763 0.65736 0.0
C1416 C 0.13346 0.76419 0.61261 0.0
C1417 C 0.14464 0.7468 0.61515 0.0
C1418 C 0.15074 0.79287 0.60993 0.0
C1419 C 0.17973 0.80423 0.61003 0.0
C1420 C 0.19089 0.78644 0.61059 0.0
C1421 C 0.17323 0.75803 0.61302 0.0
C1422 C 0.13794 0.81098 0.60861 0.0
C1423 C 0.22169 0.7975 0.6105 0.0
H1424 H 0.25203 0.88678 0.58342 0.0
H1425 H 0.23967 0.87507 0.65747 0.0
H1426 H 0.21276 0.82737 0.56415 0.0
H1427 H 0.18246 0.83027 0.56751 0.0
H1428 H 0.21414 0.85927 0.55688 0.0
H1429 H 0.19782 0.84008 0.67365 0.0
H1430 H 0.16883 0.81897 0.65501 0.0
H1431 H 0.1951 0.81009 0.6595 0.0
H1432 H 0.11136 0.75567 0.61398 0.0
H1433 H 0.18204 0.74469 0.61438 0.0
H1434 H 0.15052 0.82958 0.59778 0.0
H1435 H 0.13656 0.81792 0.62646 0.0
H1436 H 0.11674 0.79954 0.60131 0.0
H1437 H 0.23147 0.81163 0.5955 0.0
H1438 H 0.2269 0.78081 0.60946 0.0
H1439 H 0.23095 0.80948 0.62672 0.0
C1440 C 0.85276 0.59731 0.42057 0.0
C1441 C 0.87604 0.61505 0.40741 0.0
C1442 C 0.83069 0.60219 0.42286 0.0
C1443 C 0.83192 0.62517 0.41135 0.0
C1444 C 0.85714 0.64539 0.40128 0.0
C1445 C 0.87907 0.64001 0.3993 0.0
C1446 C 0.80457 0.5805 0.43445 0.0
C1447 C 0.8597 0.6708 0.38983 0.0
C1448 C 0.7661 0.60098 0.37763 0.0
C1449 C 0.7507 0.60799 0.39251 0.0
C1450 C 0.79322 0.60823 0.38291 0.0
C1451 C 0.80551 0.62303 0.40371 0.0
C1452 C 0.79085 0.63204 0.418 0.0
C1453 C 0.76344 0.62437 0.41221 0.0
C1454 C 0.80801 0.59839 0.36684 0.0
C1455 C 0.80331 0.64838 0.44001 0.0
H1456 H 0.85069 0.5782 0.42717 0.0
H1457 H 0.89721 0.65386 0.38924 0.0
H1458 H 0.79506 0.59018 0.44497 0.0
H1459 H 0.78952 0.56757 0.42082 0.0
H1460 H 0.80844 0.5668 0.44597 0.0
H1461 H 0.8816 0.68746 0.38863 0.0
H1462 H 0.85122 0.66562 0.37184 0.0
H1463 H 0.84783 0.67857 0.39959 0.0
H1464 H 0.75659 0.58896 0.36202 0.0
H1465 H 0.75167 0.63007 0.42365 0.0
H1466 H 0.81191 0.58328 0.37613 0.0
H1467 H 0.82824 0.61594 0.36149 0.0
H1468 H 0.79596 0.58837 0.35079 0.0
H1469 H 0.79865 0.63394 0.45484 0.0
H1470 H 0.79439 0.66169 0.44415 0.0
H1471 H 0.82604 0.66147 0.43859 0.0
C1472 C 0.1338 0.7495 0.91427 0.0
C1473 C 0.13029 0.73624 0.89274 0.0
C1474 C 0.15447 0.77729 0.91705 0.0
C1475 C 0.1718 0.79168 0.89789 0.0
C1476 C 0.16564 0.77927 0.87548 0.0
C1477 C 0.14505 0.75164 0.87324 0.0
C1478 C 0.15959 0.79019 0.94097 0.0
C1479 C 0.18306 0.7939 0.85438 0.0
C1480 C 0.23413 0.86376 0.89406 0.0
C1481 C 0.25529 0.85737 0.8958 0.0
C1482 C 0.20635 0.84303 0.89711 0.0
C1483 C 0.19995 0.81557 0.90186 0.0
C1484 C 0.22158 0.80995 0.90605 0.0
C1485 C 0.24885 0.83088 0.90294 0.0
C1486 C 0.18401 0.85015 0.89334 0.0
C1487 C 0.216 0.78114 0.91144 0.0
H1488 H 0.12217 0.73763 0.92933 0.0
H1489 H 0.14186 0.74145 0.85647 0.0
H1490 H 0.17571 0.78761 0.94996 0.0
H1491 H 0.16701 0.81262 0.93977 0.0
H1492 H 0.14063 0.78019 0.95185 0.0
H1493 H 0.17327 0.78298 0.83785 0.0
H1494 H 0.18677 0.81525 0.85326 0.0
H1495 H 0.20341 0.79514 0.856 0.0
H1496 H 0.23903 0.88429 0.8887 0.0
H1497 H 0.26516 0.82596 0.90472 0.0
H1498 H 0.16531 0.83662 0.90375 0.0
H1499 H 0.17814 0.84742 0.87461 0.0
H1500 H 0.19136 0.87201 0.89801 0.0
H1501 H 0.20106 0.77199 0.92601 0.0
H1502 H 0.23506 0.78083 0.91626 0.0
H1503 H 0.20682 0.76776 0.89589 0.0
C1504 C 0.36312 0.13739 0.38114 0.0
C1505 C 0.39129 0.14612 0.37927 0.0
C1506 C 0.35409 0.15679 0.38255 0.0
C1507 C 0.37377 0.18537 0.38228 0.0
C1508 C 0.40225 0.19406 0.38204 0.0
C1509 C 0.41056 0.17439 0.38039 0.0
C1510 C 0.32358 0.14666 0.38293 0.0
C1511 C 0.42412 0.22428 0.38215 0.0
C1512 C 0.36934 0.24332 0.35418 0.0
C1513 C 0.37228 0.25963 0.37371 0.0
C1514 C 0.36566 0.21681 0.3568 0.0
C1515 C 0.36551 0.20671 0.37951 0.0
C1516 C 0.36475 0.22162 0.39924 0.0
C1517 C 0.36808 0.24804 0.39609 0.0
C1518 C 0.36576 0.20133 0.33523 0.0
C1519 C 0.36404 0.21135 0.42373 0.0
H1520 H 0.34813 0.11555 0.38028 0.0
H1521 H 0.43237 0.18131 0.37927 0.0
H1522 H 0.31881 0.15988 0.39417 0.0
H1523 H 0.31658 0.14742 0.36495 0.0
H1524 H 0.31162 0.12501 0.38922 0.0
H1525 H 0.44528 0.22745 0.38372 0.0
H1526 H 0.42297 0.23418 0.36571 0.0
H1527 H 0.42066 0.2351 0.39686 0.0
H1528 H 0.37229 0.25222 0.33684 0.0
H1529 H 0.37035 0.26064 0.41124 0.0
H1530 H 0.35081 0.17898 0.33702 0.0
H1531 H 0.38657 0.20383 0.33293 0.0
H1532 H 0.36066 0.20916 0.31926 0.0
H1533 H 0.35048 0.18864 0.42478 0.0
H1534 H 0.35677 0.22129 0.43647 0.0
H1535 H 0.38514 0.21632 0.42886 0.0
C1536 C 0.24834 0.37728 0.89421 0.0
C1537 C 0.26606 0.40596 0.89466 0.0
C1538 C 0.21952 0.36595 0.89505 0.0
C1539 C 0.2084 0.38377 0.89624 0.0
C1540 C 0.22636 0.41252 0.89888 0.0
C1541 C 0.25487 0.42319 0.8981 0.0
C1542 C 0.20114 0.33515 0.89286 0.0
C1543 C 0.21556 0.43241 0.90047 0.0
C1544 C 0.14728 0.37548 0.8626 0.0
C1545 C 0.12977 0.37395 0.88073 0.0
C1546 C 0.17173 0.37535 0.86727 0.0
C1547 C 0.1789 0.37377 0.89072 0.0
C1548 C 0.15964 0.36874 0.90879 0.0
C1549 C 0.13515 0.36893 0.90358 0.0
C1550 C 0.19135 0.38027 0.84733 0.0
C1551 C 0.16608 0.36601 0.9339 0.0
H1552 H 0.25685 0.36381 0.89174 0.0
H1553 H 0.26846 0.44534 0.899 0.0
H1554 H 0.18186 0.32776 0.90307 0.0
H1555 H 0.19536 0.32977 0.87426 0.0
H1556 H 0.21182 0.32403 0.89883 0.0
H1557 H 0.2321 0.45376 0.90454 0.0
H1558 H 0.20599 0.43276 0.88358 0.0
H1559 H 0.19943 0.42568 0.91414 0.0
H1560 H 0.14287 0.3789 0.84484 0.0
H1561 H 0.12157 0.36761 0.91765 0.0
H1562 H 0.19991 0.36624 0.84862 0.0
H1563 H 0.20888 0.40176 0.84821 0.0
H1564 H 0.18121 0.37722 0.83003 0.0
H1565 H 0.17753 0.35463 0.93522 0.0
H1566 H 0.147 0.35524 0.94458 0.0
H1567 H 0.17927 0.38685 0.94142 0.0
C1568 C 0.75313 0.1662 0.40425 0.0
C1569 C 0.7441 0.13947 0.39602 0.0
C1570 C 0.7811 0.18617 0.40429 0.0
C1571 C 0.80062 0.17921 0.39587 0.0
C1572 C 0.79195 0.15138 0.39021 0.0
C1573 C 0.76358 0.1317 0.39027 0.0
C1574 C 0.78926 0.21546 0.41082 0.0
C1575 C 0.81219 0.14288 0.382 0.0
C1576 C 0.85277 0.24041 0.36173 0.0
C1577 C 0.87232 0.25542 0.37903 0.0
C1578 C 0.83071 0.21394 0.36623 0.0
C1579 C 0.82818 0.20206 0.3886 0.0
C1580 C 0.84966 0.21566 0.40513 0.0
C1581 C 0.87153 0.24235 0.40019 0.0
C1582 C 0.80855 0.20011 0.34787 0.0
C1583 C 0.84832 0.20325 0.42881 0.0
H1584 H 0.73808 0.17213 0.40901 0.0
H1585 H 0.75664 0.11099 0.38395 0.0
H1586 H 0.80713 0.22426 0.42288 0.0
H1587 H 0.7955 0.22848 0.39486 0.0
H1588 H 0.77211 0.21679 0.4193 0.0
H1589 H 0.80424 0.12058 0.3852 0.0
H1590 H 0.81552 0.1466 0.36292 0.0
H1591 H 0.83243 0.15503 0.39082 0.0
H1592 H 0.85364 0.25011 0.3451 0.0
H1593 H 0.88676 0.25366 0.41358 0.0
H1594 H 0.7898 0.20059 0.35344 0.0
H1595 H 0.8028 0.17819 0.34578 0.0
H1596 H 0.81514 0.21047 0.33061 0.0
H1597 H 0.83569 0.20809 0.44073 0.0
H1598 H 0.86918 0.21182 0.43661 0.0
H1599 H 0.83856 0.18047 0.42773 0.0
C1600 C 0.64169 0.76879 0.89886 0.0
C1601 C 0.63748 0.7575 0.87636 0.0
C1602 C 0.64396 0.7947 0.90241 0.0
C1603 C 0.64201 0.80933 0.88299 0.0
C1604 C 0.64186 0.79968 0.86009 0.0
C1605 C 0.63938 0.77373 0.85706 0.0
C1606 C 0.64498 0.80469 0.92706 0.0
C1607 C 0.64052 0.81493 0.83882 0.0
C1608 C 0.59446 0.83861 0.88471 0.0
C1609 C 0.61285 0.86699 0.88269 0.0
C1610 C 0.60393 0.81987 0.88661 0.0
C1611 C 0.63266 0.82971 0.88631 0.0
C1612 C 0.65145 0.8585 0.88603 0.0
C1613 C 0.64128 0.87692 0.88426 0.0
C1614 C 0.583 0.78936 0.88726 0.0
C1615 C 0.68219 0.86986 0.88601 0.0
H1616 H 0.6404 0.75632 0.91383 0.0
H1617 H 0.63662 0.76516 0.83962 0.0
H1618 H 0.65776 0.82749 0.92808 0.0
H1619 H 0.6238 0.79878 0.93279 0.0
H1620 H 0.65334 0.79535 0.93937 0.0
H1621 H 0.64536 0.80742 0.82252 0.0
H1622 H 0.61941 0.81187 0.8372 0.0
H1623 H 0.65508 0.83738 0.84051 0.0
H1624 H 0.57246 0.83084 0.88393 0.0
H1625 H 0.65558 0.89889 0.88279 0.0
H1626 H 0.5875 0.77923 0.9019 0.0
H1627 H 0.58413 0.77947 0.8708 0.0
H1628 H 0.56157 0.78532 0.88931 0.0
H1629 H 0.68792 0.85701 0.89678 0.0
H1630 H 0.6934 0.8914 0.89261 0.0
H1631 H 0.68917 0.86992 0.86786 0.0
C1632 C 0.35056 0.95588 0.9635 0.0
C1633 C 0.34029 0.96367 0.94438 0.0
C1634 C 0.35472 0.96886 0.98527 0.0
C1635 C 0.3482 0.99007 0.98816 0.0
C1636 C 0.33659 0.99717 0.96926 0.0
C1637 C 0.33292 0.984 0.94751 0.0
C1638 C 0.36744 0.96082 0.00482 0.0
C1639 C 0.32903 0.01941 0.97175 0.0
C1640 C 0.34962 0.01314 0.05119 0.0
C1641 C 0.37649 0.0357 0.05268 0.0
C1642 C 0.33951 0.99869 0.02998 0.0
C1643 C 0.35681 0.00687 0.01 0.0
C1644 C 0.38363 0.03011 0.01133 0.0
C1645 C 0.39303 0.04424 0.03254 0.0
C1646 C 0.31065 0.97423 0.02912 0.0
C1647 C 0.40292 0.03945 0.99058 0.0
H1648 H 0.3562 0.94009 0.96132 0.0
H1649 H 0.32472 0.98994 0.93289 0.0
H1650 H 0.38831 0.9783 0.00878 0.0
H1651 H 0.35493 0.95623 0.02096 0.0
H1652 H 0.36932 0.94253 1.00033 0.0
H1653 H 0.31696 0.01999 0.95657 0.0
H1654 H 0.31686 0.01621 0.98792 0.0
H1655 H 0.34808 0.0398 0.97325 0.0
H1656 H 0.33667 0.00651 0.06662 0.0
H1657 H 0.41381 0.06172 0.03342 0.0
H1658 H 0.31158 0.95503 0.02693 0.0
H1659 H 0.29934 0.97589 0.01386 0.0
H1660 H 0.29881 0.97236 0.04526 0.0
H1661 H 0.40762 0.02306 0.98567 0.0
H1662 H 0.42266 0.05869 0.9942 0.0
H1663 H 0.39299 0.04306 0.97528 0.0
C1664 C 0.34252 0.3449 0.44595 0.0
C1665 C 0.36909 0.34875 0.44311 0.0
C1666 C 0.33372 0.34938 0.46772 0.0
C1667 C 0.35211 0.35833 0.48696 0.0
C1668 C 0.37872 0.3616 0.48428 0.0
C1669 C 0.38679 0.35658 0.46247 0.0
C1670 C 0.30504 0.34522 0.46999 0.0
C1671 C 0.3991 0.37141 0.50424 0.0
C1672 C 0.34605 0.40154 0.5352 0.0
C1673 C 0.33607 0.38284 0.5539 0.0
C1674 C 0.35049 0.39355 0.51312 0.0
C1675 C 0.34444 0.36606 0.50951 0.0
C1676 C 0.33313 0.34673 0.52801 0.0
C1677 C 0.32928 0.35541 0.55006 0.0
C1678 C 0.36285 0.4149 0.49397 0.0
C1679 C 0.32598 0.31713 0.52474 0.0
H1680 H 0.32869 0.33871 0.43109 0.0
H1681 H 0.40738 0.35965 0.46044 0.0
H1682 H 0.29431 0.33178 0.48518 0.0
H1683 H 0.30627 0.36535 0.47319 0.0
H1684 H 0.29245 0.33585 0.45406 0.0
H1685 H 0.41861 0.37197 0.49953 0.0
H1686 H 0.40403 0.39244 0.5096 0.0
H1687 H 0.38998 0.35773 0.51962 0.0
H1688 H 0.35137 0.42279 0.53801 0.0
H1689 H 0.32141 0.34081 0.5644 0.0
H1690 H 0.34993 0.40752 0.47801 0.0
H1691 H 0.38356 0.41829 0.48931 0.0
H1692 H 0.36499 0.43499 0.4992 0.0
H1693 H 0.31316 0.30832 0.50886 0.0
H1694 H 0.3147 0.30405 0.53999 0.0
H1695 H 0.34514 0.31621 0.52219 0.0
C1696 C 0.01542 0.33676 0.95598 0.0
C1697 C 0.03667 0.36358 0.95092 0.0
C1698 C 0.00332 0.3299 0.97827 0.0
C1699 C 0.01253 0.35042 0.99584 0.0
C1700 C 0.0349 0.37716 0.99116 0.0
C1701 C 0.04678 0.38338 0.96878 0.0
C1702 C 0.97976 0.30106 0.98263 0.0
C1703 C 0.04526 0.39966 0.00938 0.0
C1704 C 0.96027 0.34515 0.04073 0.0
C1705 C 0.96803 0.33611 0.06067 0.0
C1706 C 0.9745 0.34967 0.01957 0.0
C1707 C 0.99696 0.34483 0.01817 0.0
C1708 C 0.00463 0.33521 0.0381 0.0
C1709 C 0.99013 0.33107 0.05918 0.0
C1710 C 0.96572 0.36007 0.99877 0.0
C1711 C 0.02829 0.32956 0.0372 0.0
H1712 H 0.00763 0.32129 0.94231 0.0
H1713 H 0.06323 0.40415 0.96503 0.0
H1714 H 0.98301 0.29278 0.9992 0.0
H1715 H 0.96028 0.30154 0.98446 0.0
H1716 H 0.97724 0.28672 0.96819 0.0
H1717 H 0.0644 0.41851 0.00376 0.0
H1718 H 0.0292 0.40527 0.01289 0.0
H1719 H 0.04939 0.39231 0.02607 0.0
H1720 H 0.94326 0.34916 0.04173 0.0
H1721 H 0.99621 0.32404 0.07452 0.0
H1722 H 0.96029 0.34552 0.98392 0.0
H1723 H 0.98306 0.38024 0.99297 0.0
H1724 H 0.94772 0.36265 0.00271 0.0
H1725 H 0.02486 0.31465 0.02302 0.0
H1726 H 0.031 0.32116 0.05394 0.0
H1727 H 0.04772 0.34887 0.03311 0.0
C1728 C 0.64586 0.04456 0.46613 0.0
C1729 C 0.65495 0.03591 0.44676 0.0
C1730 C 0.64114 0.03123 0.48777 0.0
C1731 C 0.64588 0.00879 0.49027 0.0
C1732 C 0.65626 0.00071 0.4711 0.0
C1733 C 0.66051 0.01427 0.44948 0.0
C1734 C 0.62976 0.04034 0.50764 0.0
C1735 C 0.66191 0.97712 0.47319 0.0
C1736 C 0.64436 0.98538 0.5531 0.0
C1737 C 0.61695 0.96396 0.55501 0.0
C1738 C 0.65463 0.99943 0.53177 0.0
C1739 C 0.63692 0.99206 0.51211 0.0
C1740 C 0.60949 0.96995 0.51385 0.0
C1741 C 0.59994 0.95613 0.53518 0.0
C1742 C 0.68412 0.02266 0.53046 0.0
C1743 C 0.58978 0.96157 0.49344 0.0
H1744 H 0.6416 0.06134 0.46425 0.0
H1745 H 0.66777 0.00763 0.43464 0.0
H1746 H 0.60855 0.02367 0.51187 0.0
H1747 H 0.64247 0.04425 0.52357 0.0
H1748 H 0.62904 0.05932 0.50336 0.0
H1749 H 0.6731 0.97562 0.45774 0.0
H1750 H 0.67423 0.97954 0.48912 0.0
H1751 H 0.64214 0.95743 0.47494 0.0
H1752 H 0.65767 0.99142 0.5683 0.0
H1753 H 0.57873 0.93955 0.53642 0.0
H1754 H 0.68454 0.04257 0.52839 0.0
H1755 H 0.69452 0.02007 0.51497 0.0
H1756 H 0.69603 0.02383 0.54636 0.0
H1757 H 0.58623 0.97879 0.48879 0.0
H1758 H 0.56954 0.94305 0.49733 0.0
H1759 H 0.59877 0.95718 0.47789 0.0
C1760 C 0.63866 0.60822 0.04239 0.0
C1761 C 0.64965 0.62434 0.06254 0.0
C1762 C 0.63709 0.61991 0.02124 0.0
C1763 C 0.64698 0.6486 0.02001 0.0
C1764 C 0.65818 0.66512 0.04025 0.0
C1765 C 0.65924 0.65274 0.06139 0.0
C1766 C 0.62469 0.60142 1.00019 0.0
C1767 C 0.66912 0.69581 0.03952 0.0
C1768 C 0.66084 0.67386 0.9573 0.0
C1769 C 0.63582 0.67228 0.95129 0.0
C1770 C 0.6657 0.66828 0.98022 0.0
C1771 C 0.64495 0.66072 0.99743 0.0
C1772 C 0.6204 0.66083 0.99178 0.0
C1773 C 0.61617 0.66669 0.96881 0.0
C1774 C 0.6923 0.66872 0.98559 0.0
C1775 C 0.59768 0.65277 0.00954 0.0
H1776 H 0.63106 0.58623 0.04311 0.0
H1777 H 0.66785 0.66531 0.07688 0.0
H1778 H 0.60674 0.60278 0.99371 0.0
H1779 H 0.64003 0.60832 0.98582 0.0
H1780 H 0.61778 0.57948 0.00414 0.0
H1781 H 0.67738 0.70581 0.05669 0.0
H1782 H 0.68575 0.70551 0.02627 0.0
H1783 H 0.65252 0.69998 0.03415 0.0
H1784 H 0.67623 0.67842 0.94391 0.0
H1785 H 0.59685 0.66562 0.96438 0.0
H1786 H 0.68816 0.64726 0.98752 0.0
H1787 H 0.70112 0.67953 0.00235 0.0
H1788 H 0.70788 0.67896 0.97156 0.0
H1789 H 0.58775 0.63031 0.01308 0.0
H1790 H 0.5816 0.65738 0.00337 0.0
H1791 H 0.60616 0.66366 0.02632 0.0
C1792 C 0.0199 0.66483 0.5609 0.0
C1793 C 0.0418 0.65982 0.5644 0.0
C1794 C 0.00752 0.66104 0.53875 0.0
C1795 C 0.01713 0.6518 0.5198 0.0
C1796 C 0.03966 0.6474 0.52317 0.0
C1797 C 0.05174 0.65156 0.54534 0.0
C1798 C 0.98371 0.6662 0.53576 0.0
C1799 C 0.05043 0.63731 0.50355 0.0
C1800 C 0.96888 0.60959 0.47073 0.0
C1801 C 0.9782 0.62843 0.4521 0.0
C1802 C 0.98078 0.61725 0.49299 0.0
C1803 C 0.00246 0.64453 0.49689 0.0
C1804 C 0.01146 0.66394 0.47837 0.0
C1805 C 0.9993 0.65561 0.45612 0.0
C1806 C 0.97075 0.5958 0.51214 0.0
C1807 C 0.03436 0.69327 0.48191 0.0
H1808 H 0.01221 0.67135 0.5755 0.0
H1809 H 0.0687 0.64769 0.5478 0.0
H1810 H 0.98739 0.67994 0.52057 0.0
H1811 H 0.96456 0.64643 0.53214 0.0
H1812 H 0.98032 0.67568 0.55154 0.0
H1813 H 0.06897 0.63622 0.50874 0.0
H1814 H 0.03417 0.61646 0.49797 0.0
H1815 H 0.05573 0.65113 0.48818 0.0
H1816 H 0.95254 0.58854 0.46783 0.0
H1817 H 0.00648 0.67033 0.44186 0.0
H1818 H 0.96487 0.60336 0.5278 0.0
H1819 H 0.98761 0.59197 0.51741 0.0
H1820 H 0.95274 0.57591 0.50662 0.0
H1821 H 0.02997 0.70242 0.49737 0.0
H1822 H 0.03727 0.70644 0.46643 0.0
H1823 H 0.05398 0.69356 0.48538 0.0
C1824 C 0.60644 0.95465 0.96274 0.0
C1825 C 0.62538 0.96406 0.94421 0.0
C1826 C 0.61413 0.96629 0.98513 0.0
C1827 C 0.64155 0.98764 0.98923 0.0
C1828 C 0.66106 0.99648 0.97082 0.0
C1829 C 0.65269 0.98472 0.94848 0.0
C1830 C 0.59259 0.95645 0.00418 0.0
C1831 C 0.69057 0.0189 0.97456 0.0
C1832 C 0.6508 0.03735 0.03817 0.0
C1833 C 0.6587 0.02675 0.05697 0.0
C1834 C 0.64578 0.02518 0.01595 0.0
C1835 C 0.64908 0.00199 0.01228 0.0
C1836 C 0.65805 0.99177 0.03096 0.0
C1837 C 0.66256 0.00416 0.05315 0.0
C1838 C 0.63599 0.03658 0.99662 0.0
C1839 C 0.6622 0.96736 0.02764 0.0
H1840 H 0.58529 0.93872 0.95961 0.0
H1841 H 0.66748 0.99198 0.93427 0.0
H1842 H 0.5998 0.95014 0.0198 0.0
H1843 H 0.58921 0.97357 0.00957 0.0
H1844 H 0.57255 0.93878 0.99849 0.0
H1845 H 0.70376 0.02163 0.95915 0.0
H1846 H 0.69133 0.03875 0.9781 0.0
H1847 H 0.69936 0.01411 0.99004 0.0
H1848 H 0.64771 0.05477 0.04094 0.0
H1849 H 0.66877 0.99592 0.06756 0.0
H1850 H 0.615 0.0207 0.99099 0.0
H1851 H 0.64971 0.04184 0.98119 0.0
H1852 H 0.63538 0.0553 1.0021 0.0
H1853 H 0.64211 0.94864 0.02392 0.0
H1854 H 0.6714 0.96336 0.0433 0.0
H1855 H 0.6758 0.97079 0.01239 0.0
C1856 C 0.67223 0.65205 0.4537 0.0
C1857 C 0.66553 0.62461 0.45007 0.0
C1858 C 0.66871 0.66096 0.47577 0.0
C1859 C 0.6579 0.64187 0.4945 0.0
C1860 C 0.65199 0.61441 0.49108 0.0
C1861 C 0.65601 0.60619 0.46898 0.0
C1862 C 0.6756 0.6905 0.47884 0.0
C1863 C 0.64012 0.59329 0.51045 0.0
C1864 C 0.65902 0.66309 0.558 0.0
C1865 C 0.6322 0.65865 0.56059 0.0
C1866 C 0.66819 0.65882 0.53631 0.0
C1867 C 0.64996 0.64955 0.51694 0.0
C1868 C 0.62308 0.64559 0.51942 0.0
C1869 C 0.61463 0.65033 0.54112 0.0
C1870 C 0.69712 0.6636 0.53423 0.0
C1871 C 0.60284 0.63541 0.49934 0.0
H1872 H 0.6798 0.66645 0.43921 0.0
H1873 H 0.65085 0.58496 0.46639 0.0
H1874 H 0.65633 0.69124 0.4813 0.0
H1875 H 0.6884 0.69954 0.4947 0.0
H1876 H 0.68679 0.70348 0.46351 0.0
H1877 H 0.63841 0.57333 0.50542 0.0
H1878 H 0.65312 0.6011 0.52634 0.0
H1879 H 0.61928 0.58951 0.51512 0.0
H1880 H 0.67275 0.66968 0.57294 0.0
H1881 H 0.59386 0.64685 0.54291 0.0
H1882 H 0.70776 0.67712 0.51905 0.0
H1883 H 0.69637 0.64369 0.53111 0.0
H1884 H 0.70951 0.67318 0.55022 0.0
H1885 H 0.61185 0.64912 0.48397 0.0
H1886 H 0.58307 0.6344 0.5039 0.0
H1887 H 0.59836 0.6145 0.49405 0.0
C1888 C 0.98321 0.64524 0.06068 0.0
C1889 C 0.96235 0.61792 0.06457 0.0
C1890 C 0.99611 0.65359 0.03866 0.0
C1891 C 0.98813 0.63407 0.02026 0.0
C1892 C 0.96649 0.60674 0.02397 0.0
C1893 C 0.95385 0.59908 0.04595 0.0
C1894 C 0.01887 0.68302 0.03529 0.0
C1895 C 0.95749 0.58512 0.00502 0.0
C1896 C 0.00869 0.65222 0.95629 0.0
C1897 C 0.03068 0.64705 0.95446 0.0
C1898 C 0.9954 0.64945 0.97789 0.0
C1899 C 0.00413 0.64102 0.99798 0.0
C1900 C 0.02677 0.63652 0.99626 0.0
C1901 C 0.03978 0.6397 0.97464 0.0
C1902 C 0.97155 0.65477 0.97909 0.0
C1903 C 0.0366 0.62717 0.01708 0.0
H1904 H 0.98976 0.65997 0.0749 0.0
H1905 H 0.93766 0.57792 0.04867 0.0
H1906 H 0.03889 0.68364 0.03345 0.0
H1907 H 0.01547 0.69166 0.01901 0.0
H1908 H 0.02037 0.6964 0.05022 0.0
H1909 H 0.93917 0.56528 0.01021 0.0
H1910 H 0.95251 0.59252 0.98877 0.0
H1911 H 0.97459 0.58121 1.00089 0.0
H1912 H 0.00168 0.65811 0.94084 0.0
H1913 H 0.05681 0.63575 0.9735 0.0
H1914 H 0.97432 0.66868 0.99393 0.0
H1915 H 0.95214 0.63508 0.98223 0.0
H1916 H 0.96926 0.66411 0.96273 0.0
H1917 H 0.04104 0.64143 0.032 0.0
H1918 H 0.05546 0.62608 0.01316 0.0
H1919 H 0.02015 0.60644 0.02274 0.0
C1920 C 0.34817 0.96983 0.53564 0.0
C1921 C 0.33933 0.97949 0.55449 0.0
C1922 C 0.3538 0.98281 0.51371 0.0
C1923 C 0.35023 0.0059 0.51036 0.0
C1924 C 0.34047 0.01524 0.52911 0.0
C1925 C 0.3353 0.00204 0.55099 0.0
C1926 C 0.36438 0.97229 0.4943 0.0
C1927 C 0.33604 0.03954 0.52618 0.0
C1928 C 0.39324 0.05528 0.46185 0.0
C1929 C 0.37459 0.04633 0.44311 0.0
C1930 C 0.38536 0.04277 0.48395 0.0
C1931 C 0.35804 0.02094 0.48756 0.0
C1932 C 0.33881 0.01252 0.46895 0.0
C1933 C 0.34735 0.02519 0.44691 0.0
C1934 C 0.4066 0.05227 0.50321 0.0
C1935 C 0.30941 0.98959 0.47213 0.0
H1936 H 0.35142 0.95247 0.53816 0.0
H1937 H 0.32839 0.00959 0.56543 0.0
H1938 H 0.351 0.96728 0.47866 0.0
H1939 H 0.3854 0.98859 0.48912 0.0
H1940 H 0.36524 0.95361 0.49949 0.0
H1941 H 0.32657 0.04307 0.5419 0.0
H1942 H 0.35607 0.05847 0.52274 0.0
H1943 H 0.32257 0.0363 0.51089 0.0
H1944 H 0.41434 0.07155 0.45909 0.0
H1945 H 0.33278 0.01821 0.43256 0.0
H1946 H 0.41022 0.03519 0.50822 0.0
H1947 H 0.39896 0.0579 0.51897 0.0
H1948 H 0.4266 0.07031 0.49793 0.0
H1949 H 0.30903 0.96986 0.47534 0.0
H1950 H 0.29644 0.98702 0.4566 0.0
H1951 H 0.3001 0.9937 0.48763 0.0
C1952 C 0.3422 0.33285 0.04736 0.0
C1953 C 0.36765 0.33562 0.05371 0.0
C1954 C 0.33753 0.33882 0.02452 0.0
C1955 C 0.3589 0.34797 0.0077 0.0
C1956 C 0.38402 0.3492 0.01366 0.0
C1957 C 0.38806 0.34293 0.03657 0.0
C1958 C 0.31034 0.33695 0.01882 0.0
C1959 C 0.40738 0.35894 0.99631 0.0
C1960 C 0.34462 0.35551 0.94366 0.0
C1961 C 0.35277 0.3836 0.94262 0.0
C1962 C 0.34625 0.3434 0.96475 0.0
C1963 C 0.35646 0.35988 0.98513 0.0
C1964 C 0.36479 0.38824 0.98406 0.0
C1965 C 0.36275 0.39968 0.96291 0.0
C1966 C 0.33704 0.31306 0.96528 0.0
C1967 C 0.37601 0.40665 0.00529 0.0
H1968 H 0.32624 0.327 0.06046 0.0
H1969 H 0.40775 0.34499 0.04127 0.0
H1970 H 0.3134 0.35804 0.01698 0.0
H1971 H 0.30222 0.32617 1.00193 0.0
H1972 H 0.29464 0.32595 0.03262 0.0
H1973 H 0.42416 0.35551 0.00268 0.0
H1974 H 0.39979 0.3482 0.97934 0.0
H1975 H 0.41614 0.38133 0.99306 0.0
H1976 H 0.33684 0.34296 0.92805 0.0
H1977 H 0.36919 0.42143 0.96229 0.0
H1978 H 0.32044 0.30244 0.97844 0.0
H1979 H 0.35443 0.31013 0.97065 0.0
H1980 H 0.3293 0.30302 0.94804 0.0
H1981 H 0.36044 0.39878 0.01949 0.0
H1982 H 0.38171 0.42833 1.00148 0.0
H1983 H 0.39454 0.40648 0.01193 0.0
C1984 C 0.0385 0.388 0.54311 0.0
C1985 C 0.02802 0.36979 0.56212 0.0
C1986 C 0.02619 0.38047 0.52099 0.0
C1987 C 0.00301 0.3539 0.51764 0.0
C1988 C 0.99294 0.335 0.53653 0.0
C1989 C 0.00544 0.34326 0.55863 0.0
C1990 C 0.03739 0.40138 0.50142 0.0
C1991 C 0.96856 0.30634 0.53352 0.0
C1992 C 0.95534 0.34917 0.46854 0.0
C1993 C 0.96467 0.33973 0.44989 0.0
C1994 C 0.96704 0.35298 0.49086 0.0
C1995 C 0.98836 0.34684 0.49476 0.0
C1996 C 0.99703 0.33613 0.47627 0.0
C1997 C 0.98523 0.33291 0.45397 0.0
C1998 C 0.95741 0.36476 0.51001 0.0
C1999 C 0.01938 0.3289 0.47985 0.0
H2000 H 0.05592 0.40856 0.54565 0.0
H2001 H 0.99734 0.32904 0.57322 0.0
H2002 H 0.04246 0.39268 0.48605 0.0
H2003 H 0.02146 0.40643 0.49582 0.0
H2004 H 0.05617 0.42079 0.50667 0.0
H2005 H 0.96486 0.29332 0.54925 0.0
H2006 H 0.94974 0.3076 0.53 0.0
H2007 H 0.9718 0.29605 0.51826 0.0
H2008 H 0.93946 0.35449 0.46555 0.0
H2009 H 0.9924 0.32542 0.43967 0.0
H2010 H 0.97457 0.38532 0.51524 0.0
H2011 H 0.95131 0.35134 0.52569 0.0
H2012 H 0.93966 0.36708 0.50448 0.0
H2013 H 0.03935 0.34799 0.48304 0.0
H2014 H 0.02173 0.31812 0.46449 0.0
H2015 H 0.01482 0.31557 0.49548 0.0
C2016 C 0.48702 0.07192 0.1418 0.0
C2017 C 0.47871 0.07811 0.12073 0.0
C2018 C 0.51167 0.07113 0.14324 0.0
C2019 C 0.52666 0.07338 0.12254 0.0
C2020 C 0.51697 0.07762 0.10084 0.0
C2021 C 0.49379 0.08106 0.10042 0.0
C2022 C 0.52123 0.06738 0.1669 0.0
C2023 C 0.52984 0.07748 0.07767 0.0
C2024 C 0.60147 0.08989 0.12044 0.0
C2025 C 0.5992 0.06475 0.12673 0.0
C2026 C 0.57826 0.09325 0.12 0.0
C2027 C 0.55161 0.07016 0.12359 0.0
C2028 C 0.54903 0.044 0.12793 0.0
C2029 C 0.57286 0.04187 0.13024 0.0
C2030 C 0.58249 0.12177 0.11676 0.0
C2031 C 0.52146 0.01776 0.12956 0.0
H2032 H 0.47438 0.06799 0.15724 0.0
H2033 H 0.48648 0.08444 0.08387 0.0
H2034 H 0.51575 0.04558 0.16916 0.0
H2035 H 0.54392 0.08045 0.16853 0.0
H2036 H 0.51132 0.07254 0.18132 0.0
H2037 H 0.51351 0.06368 0.06523 0.0
H2038 H 0.53983 0.0985 0.06999 0.0
H2039 H 0.54523 0.0706 0.07891 0.0
H2040 H 0.62143 0.10697 0.11572 0.0
H2041 H 0.57074 0.02193 0.13408 0.0
H2042 H 0.57533 0.1272 0.13286 0.0
H2043 H 0.57016 0.12255 0.10201 0.0
H2044 H 0.60441 0.13743 0.11362 0.0
H2045 H 0.51803 0.01005 0.14782 0.0
H2046 H 0.52167 0.00152 0.11854 0.0
H2047 H 0.50387 0.02023 0.12398 0.0
C2048 C 0.52086 0.58881 0.64919 0.0
C2049 C 0.53145 0.60496 0.62911 0.0
C2050 C 0.49475 0.56484 0.64899 0.0
C2051 C 0.48041 0.55498 0.62751 0.0
C2052 C 0.49241 0.57025 0.60673 0.0
C2053 C 0.51713 0.5956 0.60803 0.0
C2054 C 0.48285 0.54993 0.67174 0.0
C2055 C 0.48038 0.55988 0.58274 0.0
C2056 C 0.42732 0.47821 0.63059 0.0
C2057 C 0.40258 0.47809 0.62646 0.0
C2058 C 0.45286 0.50278 0.62991 0.0
C2059 C 0.45363 0.52831 0.62677 0.0
C2060 C 0.4286 0.52817 0.62254 0.0
C2061 C 0.40369 0.50298 0.62123 0.0
C2062 C 0.47857 0.50054 0.63182 0.0
C2063 C 0.4279 0.55459 0.62021 0.0
H2064 H 0.53291 0.59506 0.66513 0.0
H2065 H 0.52615 0.60734 0.59218 0.0
H2066 H 0.46058 0.54316 0.67291 0.0
H2067 H 0.48506 0.53139 0.67275 0.0
H2068 H 0.49361 0.56302 0.6871 0.0
H2069 H 0.49671 0.56124 0.57088 0.0
H2070 H 0.46307 0.5383 0.58264 0.0
H2071 H 0.47319 0.57349 0.57527 0.0
H2072 H 0.42689 0.45886 0.63354 0.0
H2073 H 0.38511 0.50275 0.61581 0.0
H2074 H 0.47984 0.49342 0.64964 0.0
H2075 H 0.49785 0.52008 0.62803 0.0
H2076 H 0.47718 0.48457 0.61949 0.0
H2077 H 0.43512 0.56598 0.6369 0.0
H2078 H 0.40695 0.55094 0.61627 0.0
H2079 H 0.44192 0.5679 0.60628 0.0
C2080 C 0.94957 0.41888 0.13882 0.0
C2081 C 0.92606 0.39469 0.1314 0.0
C2082 C 0.95051 0.4444 0.13877 0.0
C2083 C 0.92651 0.44562 0.13284 0.0
C2084 C 0.90273 0.42114 0.12507 0.0
C2085 C 0.9033 0.39636 0.12363 0.0
C2086 C 0.978 0.46978 0.14384 0.0
C2087 C 0.87679 0.42058 0.11714 0.0
C2088 C 0.92902 0.51058 0.15665 0.0
C2089 C 0.92627 0.52274 0.13627 0.0
C2090 C 0.92773 0.48482 0.15591 0.0
C2091 C 0.92668 0.47244 0.13397 0.0
C2092 C 0.92636 0.48614 0.11318 0.0
C2093 C 0.92504 0.51048 0.11468 0.0
C2094 C 0.92719 0.4708 0.17861 0.0
C2095 C 0.92754 0.47558 0.08917 0.0
H2096 H 0.9679 0.41815 0.14375 0.0
H2097 H 0.88619 0.37853 0.11566 0.0
H2098 H 0.97814 0.48947 0.14125 0.0
H2099 H 0.98426 0.46882 0.16206 0.0
H2100 H 0.99402 0.46993 0.1323 0.0
H2101 H 0.85865 0.40316 0.12554 0.0
H2102 H 0.87653 0.43979 0.12099 0.0
H2103 H 0.87428 0.41676 0.09802 0.0
H2104 H 0.93183 0.52101 0.17319 0.0
H2105 H 0.92406 0.52054 0.09879 0.0
H2106 H 0.94605 0.46929 0.18045 0.0
H2107 H 0.90925 0.44949 0.17882 0.0
H2108 H 0.92611 0.48218 0.19406 0.0
H2109 H 0.9394 0.49302 0.07695 0.0
H2110 H 0.90632 0.46348 0.0821 0.0
H2111 H 0.93711 0.46237 0.08933 0.0
C2112 C 0.42227 0.96231 0.62977 0.0
C2113 C 0.39602 0.93947 0.62586 0.0
C2114 C 0.44613 0.96011 0.62816 0.0
C2115 C 0.44361 0.93391 0.62418 0.0
C2116 C 0.41705 0.91085 0.6202 0.0
C2117 C 0.3939 0.9143 0.61986 0.0
C2118 C 0.47368 0.98633 0.63009 0.0
C2119 C 0.41282 0.88228 0.61731 0.0
C2120 C 0.50146 0.92212 0.60266 0.0
C2121 C 0.51591 0.92483 0.62331 0.0
C2122 C 0.4786 0.92608 0.60243 0.0
C2123 C 0.46851 0.93057 0.62381 0.0
C2124 C 0.4829 0.9327 0.64484 0.0
C2125 C 0.50734 0.93146 0.64404 0.0
C2126 C 0.46646 0.92644 0.57893 0.0
C2127 C 0.47285 0.93672 0.66818 0.0
H2128 H 0.42434 0.98228 0.63335 0.0
H2129 H 0.37409 0.89728 0.61476 0.0
H2130 H 0.47647 0.99434 0.64822 0.0
H2131 H 0.49143 0.98372 0.62535 0.0
H2132 H 0.47392 0.0024 0.61854 0.0
H2133 H 0.39098 0.86665 0.61388 0.0
H2134 H 0.42546 0.88138 0.60287 0.0
H2135 H 0.41958 0.87687 0.63365 0.0
H2136 H 0.50902 0.9185 0.58635 0.0
H2137 H 0.51963 0.93539 0.65971 0.0
H2138 H 0.45135 0.93371 0.57968 0.0
H2139 H 0.45635 0.90541 0.57129 0.0
H2140 H 0.48323 0.94003 0.56673 0.0
H2141 H 0.47778 0.95841 0.66995 0.0
H2142 H 0.48282 0.93222 0.68298 0.0
H2143 H 0.45018 0.92328 0.66964 0.0
C2144 C 0.57504 0.50876 0.14834 0.0
C2145 C 0.5893 0.5182 0.12724 0.0
C2146 C 0.54977 0.48386 0.14936 0.0
C2147 C 0.53684 0.46986 0.12837 0.0
C2148 C 0.55051 0.48063 0.10673 0.0
C2149 C 0.57702 0.50403 0.10659 0.0
C2150 C 0.53717 0.47241 0.17291 0.0
C2151 C 0.53738 0.46859 0.0834 0.0
C2152 C 0.47835 0.39518 0.12507 0.0
C2153 C 0.45535 0.39751 0.13086 0.0
C2154 C 0.50499 0.41832 0.12499 0.0
C2155 C 0.50862 0.44491 0.12912 0.0
C2156 C 0.48505 0.44755 0.13341 0.0
C2157 C 0.45887 0.42377 0.13482 0.0
C2158 C 0.52917 0.41412 0.12072 0.0
C2159 C 0.48673 0.47521 0.13594 0.0
H2160 H 0.58398 0.52058 0.16414 0.0
H2161 H 0.58751 0.51216 0.09008 0.0
H2162 H 0.51796 0.47322 0.17522 0.0
H2163 H 0.53177 0.4505 0.17402 0.0
H2164 H 0.55135 0.48397 0.18752 0.0
H2165 H 0.53965 0.48534 0.07157 0.0
H2166 H 0.54852 0.45909 0.07505 0.0
H2167 H 0.51518 0.45296 0.08458 0.0
H2168 H 0.47547 0.37527 0.12011 0.0
H2169 H 0.44096 0.42585 0.13834 0.0
H2170 H 0.54262 0.42123 0.1363 0.0
H2171 H 0.54155 0.42649 0.10565 0.0
H2172 H 0.52281 0.39221 0.11734 0.0
H2173 H 0.48417 0.47878 0.15461 0.0
H2174 H 0.46953 0.47522 0.12627 0.0
H2175 H 0.50641 0.49265 0.12945 0.0
C2176 C 0.09465 0.49177 0.62663 0.0
C2177 C 0.06964 0.46861 0.6329 0.0
C2178 C 0.09819 0.51844 0.62792 0.0
C2179 C 0.07535 0.52181 0.63344 0.0
C2180 C 0.04926 0.49807 0.63744 0.0
C2181 C 0.04704 0.47199 0.63806 0.0
C2182 C 0.12641 0.54292 0.62364 0.0
C2183 C 0.02331 0.4997 0.64067 0.0
C2184 C 0.0765 0.58625 0.65632 0.0
C2185 C 0.08009 0.60121 0.63582 0.0
C2186 C 0.07711 0.56145 0.65596 0.0
C2187 C 0.07832 0.54986 0.63422 0.0
C2188 C 0.08022 0.56431 0.61326 0.0
C2189 C 0.08215 0.59025 0.61446 0.0
C2190 C 0.07715 0.54814 0.67889 0.0
C2191 C 0.07905 0.5525 0.58926 0.0
H2192 H 0.11143 0.48902 0.62062 0.0
H2193 H 0.0272 0.45404 0.6419 0.0
H2194 H 0.12602 0.55533 0.60874 0.0
H2195 H 0.13284 0.55629 0.63931 0.0
H2196 H 0.14203 0.53678 0.61987 0.0
H2197 H 0.00511 0.48098 0.63356 0.0
H2198 H 0.01951 0.50063 0.65957 0.0
H2199 H 0.02462 0.51804 0.63198 0.0
H2200 H 0.0732 0.59392 0.67263 0.0
H2201 H 0.08369 0.60131 0.59845 0.0
H2202 H 0.09721 0.54892 0.6808 0.0
H2203 H 0.06092 0.52616 0.67942 0.0
H2204 H 0.07422 0.55874 0.69409 0.0
H2205 H 0.09942 0.56469 0.58063 0.0
H2206 H 0.06388 0.55462 0.57824 0.0
H2207 H 0.07331 0.53047 0.58943 0.0
C2208 C 0.93646 0.5212 0.35606 0.0
C2209 C 0.93611 0.53337 0.37728 0.0
C2210 C 0.93417 0.495 0.35547 0.0
C2211 C 0.93407 0.48188 0.37672 0.0
C2212 C 0.93563 0.49515 0.39823 0.0
C2213 C 0.93572 0.52027 0.39822 0.0
C2214 C 0.93119 0.48121 0.33214 0.0
C2215 C 0.9385 0.48353 0.42121 0.0
C2216 C 0.9102 0.40533 0.38297 0.0
C2217 C 0.93403 0.40458 0.37699 0.0
C2218 C 0.90947 0.43006 0.38177 0.0
C2219 C 0.9339 0.4551 0.37655 0.0
C2220 C 0.9586 0.45471 0.37218 0.0
C2221 C 0.95814 0.4294 0.37174 0.0
C2222 C 0.88238 0.42917 0.38534 0.0
C2223 C 0.98574 0.48106 0.3687 0.0
H2224 H 0.93855 0.53214 0.33994 0.0
H2225 H 0.93673 0.53038 0.41467 0.0
H2226 H 0.94456 0.47192 0.3308 0.0
H2227 H 0.90962 0.46419 0.33033 0.0
H2228 H 0.93595 0.49571 0.31732 0.0
H2229 H 0.94265 0.49796 0.43599 0.0
H2230 H 0.91941 0.4639 0.42517 0.0
H2231 H 0.9556 0.47893 0.42015 0.0
H2232 H 0.89217 0.38662 0.38877 0.0
H2233 H 0.97699 0.42915 0.36798 0.0
H2234 H 0.87635 0.43441 0.36854 0.0
H2235 H 0.88419 0.4447 0.39827 0.0
H2236 H 0.86575 0.40852 0.39104 0.0
H2237 H 0.98558 0.49085 0.35191 0.0
H2238 H 0.0035 0.47741 0.36852 0.0
H2239 H 0.98899 0.49596 0.38284 0.0
C2240 C 0.52902 0.95562 0.86425 0.0
C2241 C 0.53079 0.93206 0.86935 0.0
C2242 C 0.50367 0.95506 0.86498 0.0
C2243 C 0.47905 0.92979 0.86943 0.0
C2244 C 0.48079 0.90587 0.87431 0.0
C2245 C 0.50672 0.90771 0.87529 0.0
C2246 C 0.50403 0.982 0.86152 0.0
C2247 C 0.45537 0.87799 0.8775 0.0
C2248 C 0.41307 0.9256 0.89205 0.0
C2249 C 0.40037 0.92668 0.87134 0.0
C2250 C 0.43912 0.92767 0.89174 0.0
C2251 C 0.45177 0.92856 0.87002 0.0
C2252 C 0.4388 0.92943 0.84901 0.0
C2253 C 0.414 0.93005 0.85006 0.0
C2254 C 0.45343 0.92989 0.91469 0.0
C2255 C 0.45116 0.92982 0.82548 0.0
H2256 H 0.5477 0.97491 0.86052 0.0
H2257 H 0.50818 0.89022 0.88128 0.0
H2258 H 0.50811 0.98806 0.84285 0.0
H2259 H 0.48459 0.98116 0.86683 0.0
H2260 H 0.52121 0.99862 0.87169 0.0
H2261 H 0.46017 0.86279 0.88548 0.0
H2262 H 0.43939 0.8789 0.88819 0.0
H2263 H 0.44632 0.87038 0.86003 0.0
H2264 H 0.40314 0.92441 0.90863 0.0
H2265 H 0.40531 0.93318 0.83427 0.0
H2266 H 0.47543 0.94632 0.91376 0.0
H2267 H 0.45281 0.9102 0.91861 0.0
H2268 H 0.44353 0.93455 0.92945 0.0
H2269 H 0.47113 0.94913 0.82334 0.0
H2270 H 0.43754 0.92843 0.81082 0.0
H2271 H 0.45521 0.91236 0.82425 0.0
C2272 C 0.49275 0.40443 0.38152 0.0
C2273 C 0.46985 0.40656 0.3749 0.0
C2274 C 0.51937 0.42774 0.38197 0.0
C2275 C 0.52297 0.45435 0.37748 0.0
C2276 C 0.49928 0.45673 0.37313 0.0
C2277 C 0.47338 0.43285 0.37098 0.0
C2278 C 0.54304 0.42348 0.3885 0.0
C2279 C 0.50021 0.48417 0.37194 0.0
C2280 C 0.59264 0.5135 0.39798 0.0
C2281 C 0.60327 0.5285 0.37733 0.0
C2282 C 0.56633 0.48985 0.39858 0.0
C2283 C 0.55111 0.47958 0.3775 0.0
C2284 C 0.56239 0.49443 0.3564 0.0
C2285 C 0.58754 0.51953 0.35692 0.0
C2286 C 0.55505 0.47698 0.42213 0.0
C2287 C 0.54786 0.48406 0.33326 0.0
H2288 H 0.48983 0.38459 0.38681 0.0
H2289 H 0.45556 0.43496 0.36711 0.0
H2290 H 0.54 0.40376 0.38137 0.0
H2291 H 0.5631 0.44048 0.3824 0.0
H2292 H 0.54371 0.42195 0.40778 0.0
H2293 H 0.48501 0.48412 0.38444 0.0
H2294 H 0.52067 0.50212 0.37608 0.0
H2295 H 0.49373 0.48692 0.35428 0.0
H2296 H 0.60431 0.52117 0.41405 0.0
H2297 H 0.59494 0.53208 0.34131 0.0
H2298 H 0.56561 0.46574 0.428 0.0
H2299 H 0.53246 0.46263 0.42208 0.0
H2300 H 0.55972 0.49331 0.43532 0.0
H2301 H 0.54064 0.46174 0.33129 0.0
H2302 H 0.56134 0.49539 0.31825 0.0
H2303 H 0.52966 0.48681 0.33234 0.0
C2304 C 0.08877 0.47782 0.8834 0.0
C2305 C 0.06383 0.45477 0.87682 0.0
C2306 C 0.09169 0.50421 0.8845 0.0
C2307 C 0.06847 0.50749 0.88059 0.0
C2308 C 0.04263 0.48378 0.87547 0.0
C2309 C 0.04085 0.45793 0.87307 0.0
C2310 C 0.11973 0.52854 0.8897 0.0
C2311 C 0.01632 0.48486 0.87316 0.0
C2312 C 0.07635 0.57435 0.9058 0.0
C2313 C 0.07461 0.58761 0.88571 0.0
C2314 C 0.07359 0.548 0.90461 0.0
C2315 C 0.07112 0.53543 0.88247 0.0
C2316 C 0.07002 0.54927 0.86206 0.0
C2317 C 0.07009 0.57435 0.86412 0.0
C2318 C 0.07223 0.53376 0.9274 0.0
C2319 C 0.06884 0.53769 0.83801 0.0
H2320 H 0.10596 0.47514 0.88822 0.0
H2321 H 0.02113 0.43995 0.86896 0.0
H2322 H 0.11916 0.53951 0.90557 0.0
H2323 H 0.13563 0.5225 0.89231 0.0
H2324 H 0.126 0.54319 0.87494 0.0
H2325 H 0.99947 0.46753 0.88302 0.0
H2326 H 0.01816 0.5044 0.87957 0.0
H2327 H 0.0099 0.48196 0.85455 0.0
H2328 H 0.07829 0.58393 0.92271 0.0
H2329 H 0.06704 0.58385 0.84876 0.0
H2330 H 0.09256 0.54494 0.93626 0.0
H2331 H 0.06635 0.5118 0.92536 0.0
H2332 H 0.05707 0.53482 0.93924 0.0
H2333 H 0.08481 0.53159 0.83643 0.0
H2334 H 0.07214 0.55278 0.824 0.0
H2335 H 0.04848 0.51907 0.83513 0.0
C2336 C 0.5853 0.0792 0.39546 0.0
C2337 C 0.59811 0.07806 0.37483 0.0
C2338 C 0.55963 0.07798 0.39494 0.0
C2339 C 0.54747 0.07772 0.37313 0.0
C2340 C 0.56065 0.077 0.35221 0.0
C2341 C 0.58497 0.07552 0.35343 0.0
C2342 C 0.54511 0.07595 0.41774 0.0
C2343 C 0.54939 0.0784 0.32859 0.0
C2344 C 0.4707 0.0523 0.36657 0.0
C2345 C 0.4696 0.07645 0.37055 0.0
C2346 C 0.49569 0.05217 0.3682 0.0
C2347 C 0.52057 0.07725 0.37228 0.0
C2348 C 0.5195 0.10166 0.37632 0.0
C2349 C 0.49389 0.10058 0.3765 0.0
C2350 C 0.49516 0.02499 0.36632 0.0
C2351 C 0.54534 0.12916 0.37961 0.0
H2352 H 0.59479 0.0797 0.41211 0.0
H2353 H 0.59368 0.07236 0.33767 0.0
H2354 H 0.54486 0.09532 0.42106 0.0
H2355 H 0.52335 0.05896 0.41688 0.0
H2356 H 0.55531 0.07218 0.4328 0.0
H2357 H 0.56181 0.07719 0.31399 0.0
H2358 H 0.52783 0.06153 0.32647 0.0
H2359 H 0.54919 0.09807 0.3272 0.0
H2360 H 0.45179 0.03318 0.36299 0.0
H2361 H 0.49286 0.11852 0.38184 0.0
H2362 H 0.50899 0.02368 0.37952 0.0
H2363 H 0.50244 0.02303 0.34881 0.0
H2364 H 0.47404 0.00717 0.36882 0.0
H2365 H 0.56023 0.12786 0.39149 0.0
H2366 H 0.54091 0.14514 0.38635 0.0
H2367 H 0.55551 0.13589 0.3624 0.0
C2368 C 0.54343 0.58377 0.87234 0.0
C2369 C 0.54619 0.60998 0.87477 0.0
C2370 C 0.51745 0.55972 0.87339 0.0
C2371 C 0.49343 0.56197 0.87539 0.0
C2372 C 0.4962 0.58841 0.87781 0.0
C2373 C 0.52257 0.61191 0.87858 0.0
C2374 C 0.51585 0.53198 0.87322 0.0
C2375 C 0.47138 0.59206 0.87852 0.0
C2376 C 0.42798 0.49767 0.85539 0.0
C2377 C 0.41335 0.48819 0.87633 0.0
C2378 C 0.45323 0.5226 0.85459 0.0
C2379 C 0.46557 0.53666 0.87568 0.0
C2380 C 0.45158 0.52596 0.89715 0.0
C2381 C 0.42517 0.50243 0.89708 0.0
C2382 C 0.46625 0.53423 0.83117 0.0
C2383 C 0.4649 0.5386 0.92029 0.0
H2384 H 0.56175 0.58201 0.87041 0.0
H2385 H 0.52471 0.63177 0.88246 0.0
H2386 H 0.50239 0.51889 0.88763 0.0
H2387 H 0.50668 0.52108 0.8566 0.0
H2388 H 0.53648 0.53389 0.87516 0.0
H2389 H 0.47682 0.6136 0.88251 0.0
H2390 H 0.46148 0.58633 0.86111 0.0
H2391 H 0.456 0.57817 0.89145 0.0
H2392 H 0.4195 0.48573 0.83958 0.0
H2393 H 0.41432 0.49427 0.91344 0.0
H2394 H 0.48759 0.53794 0.83036 0.0
H2395 H 0.46747 0.55445 0.82876 0.0
H2396 H 0.45427 0.5205 0.81646 0.0
H2397 H 0.48632 0.54236 0.92083 0.0
H2398 H 0.45327 0.52522 0.93529 0.0
H2399 H 0.46599 0.55878 0.92258 0.0
loop_
_geom_bond_atom_site_label_1
_geom_bond_atom_site_label_2
_geom_bond_distance
_geom_bond_site_symmetry_2
_ccdc_geom_bond_type
Mn0 O5 2.095 . S
Mn0 O15 2.162 . S
Mn0 O16 2.297 . S
Mn0 O24 2.385 . S
Mn0 O25 2.209 . S
Mn0 O26 2.094 . S
Mn1 O6 2.121 . S
Mn1 N8 2.257 . S
Mn1 N17 2.282 . S
Mn1 O25 2.215 . S
Mn1 O27 2.117 . S
C2 O24 1.234 . S
C2 O25 1.283 . S
C3 O15 1.281 . S
C3 O16 1.236 . S
C4 O26 1.240 . S
C4 O27 1.264 . S
O5 Mn0 2.095 . S
O5 C14 1.250 . S
O6 Mn1 2.121 . S
O6 C14 1.258 . S
C7 N8 1.326 . S
C7 C11 1.460 . S
C7 H13 0.929 . S
N8 Mn1 2.257 . S
N8 C7 1.326 . S
N8 C12 1.362 . S
C9 C10 1.258 . S
C9 C12 1.431 . S
C9 C29 1.449 . S
C10 C9 1.258 . S
C10 C11 1.477 . S
C10 H30 0.931 . S
C11 C7 1.460 . S
C11 C10 1.477 . S
C11 H31 0.930 . S
C12 N8 1.362 . S
C12 C9 1.431 . S
C12 C22 1.476 . S
H13 C7 0.929 . S
C14 O5 1.250 . S
C14 O6 1.258 . S
O15 Mn0 2.162 . S
O15 C3 1.281 . S
O16 Mn0 2.297 . S
O16 C3 1.236 . S
N17 Mn1 2.282 . S
N17 C18 1.328 . S
N17 C22 1.318 . S
C18 N17 1.328 . S
C18 C19 1.457 . S
C18 H23 0.929 . S
C19 C18 1.457 . S
C19 C20 1.291 . S
C19 H32 0.931 . S
C20 C19 1.291 . S
C20 C21 1.373 . S
C20 H33 0.929 . S
C21 C20 1.373 . S
C21 C22 1.396 . S
C21 C28 1.403 . S
C22 C12 1.476 . S
C22 N17 1.318 . S
C22 C21 1.396 . S
H23 C18 0.929 . S
O24 Mn0 2.385 . S
O24 C2 1.234 . S
O25 Mn0 2.209 . S
O25 Mn1 2.215 . S
O25 C2 1.283 . S
O26 Mn0 2.094 . S
O26 C4 1.240 . S
O27 Mn1 2.117 . S
O27 C4 1.264 . S
C28 C21 1.403 . S
C28 C29 1.399 . S
C28 H34 0.929 . S
C29 C9 1.449 . S
C29 C28 1.399 . S
C29 H35 0.930 . S
H30 C10 0.931 . S
H31 C11 0.930 . S
H32 C19 0.931 . S
H33 C20 0.929 . S
H34 C28 0.929 . S
H35 C29 0.930 . S
Mn36 O41 2.095 . S
Mn36 O51 2.162 . S
Mn36 O52 2.297 . S
Mn36 O60 2.385 . S
Mn36 O61 2.209 . S
Mn36 O62 2.094 . S
Mn37 O42 2.121 . S
Mn37 N44 2.257 . S
Mn37 N53 2.282 . S
Mn37 O61 2.215 . S
Mn37 O63 2.117 . S
C38 O60 1.234 . S
C38 O61 1.283 . S
C39 O51 1.281 . S
C39 O52 1.236 . S
C40 O62 1.240 . S
C40 O63 1.264 . S
O41 Mn36 2.095 . S
O41 C50 1.250 . S
O42 Mn37 2.121 . S
O42 C50 1.258 . S
C43 N44 1.326 . S
C43 C47 1.460 . S
C43 H49 0.929 . S
N44 Mn37 2.257 . S
N44 C43 1.326 . S
N44 C48 1.362 . S
C45 C46 1.258 . S
C45 C48 1.431 . S
C45 C65 1.449 . S
C46 C45 1.258 . S
C46 C47 1.477 . S
C46 H66 0.931 . S
C47 C43 1.460 . S
C47 C46 1.477 . S
C47 H67 0.930 . S
C48 N44 1.362 . S
C48 C45 1.431 . S
C48 C58 1.476 . S
H49 C43 0.929 . S
C50 O41 1.250 . S
C50 O42 1.258 . S
O51 Mn36 2.162 . S
O51 C39 1.281 . S
O52 Mn36 2.297 . S
O52 C39 1.236 . S
N53 Mn37 2.282 . S
N53 C54 1.328 . S
N53 C58 1.318 . S
C54 N53 1.328 . S
C54 C55 1.457 . S
C54 H59 0.929 . S
C55 C54 1.457 . S
C55 C56 1.291 . S
C55 H68 0.931 . S
C56 C55 1.291 . S
C56 C57 1.373 . S
C56 H69 0.929 . S
C57 C56 1.373 . S
C57 C58 1.396 . S
C57 C64 1.403 . S
C58 C48 1.476 . S
C58 N53 1.318 . S
C58 C57 1.396 . S
H59 C54 0.929 . S
O60 Mn36 2.385 . S
O60 C38 1.234 . S
O61 Mn36 2.209 . S
O61 Mn37 2.215 . S
O61 C38 1.283 . S
O62 Mn36 2.094 . S
O62 C40 1.240 . S
O63 Mn37 2.117 . S
O63 C40 1.264 . S
C64 C57 1.403 . S
C64 C65 1.399 . S
C64 H70 0.929 . S
C65 C45 1.449 . S
C65 C64 1.399 . S
C65 H71 0.930 . S
H66 C46 0.931 . S
H67 C47 0.930 . S
H68 C55 0.931 . S
H69 C56 0.929 . S
H70 C64 0.929 . S
H71 C65 0.930 . S
Mn72 O77 2.095 . S
Mn72 O87 2.162 . S
Mn72 O88 2.297 . S
Mn72 O96 2.385 . S
Mn72 O97 2.209 . S
Mn72 O98 2.094 . S
Mn73 O78 2.121 . S
Mn73 N80 2.257 . S
Mn73 N89 2.282 . S
Mn73 O97 2.215 . S
Mn73 O99 2.117 . S
C74 O96 1.234 . S
C74 O97 1.283 . S
C75 O87 1.281 . S
C75 O88 1.236 . S
C76 O98 1.240 . S
C76 O99 1.264 . S
O77 Mn72 2.095 . S
O77 C86 1.250 . S
O78 Mn73 2.121 . S
O78 C86 1.258 . S
C79 N80 1.326 . S
C79 C83 1.460 . S
C79 H85 0.929 . S
N80 Mn73 2.257 . S
N80 C79 1.326 . S
N80 C84 1.362 . S
C81 C82 1.258 . S
C81 C84 1.431 . S
C81 C101 1.449 . S
C82 C81 1.258 . S
C82 C83 1.477 . S
C82 H102 0.931 . S
C83 C79 1.460 . S
C83 C82 1.477 . S
C83 H103 0.930 . S
C84 N80 1.362 . S
C84 C81 1.431 . S
C84 C94 1.476 . S
H85 C79 0.929 . S
C86 O77 1.250 . S
C86 O78 1.258 . S
O87 Mn72 2.162 . S
O87 C75 1.281 . S
O88 Mn72 2.297 . S
O88 C75 1.236 . S
N89 Mn73 2.282 . S
N89 C90 1.328 . S
N89 C94 1.318 . S
C90 N89 1.328 . S
C90 C91 1.457 . S
C90 H95 0.929 . S
C91 C90 1.457 . S
C91 C92 1.291 . S
C91 H104 0.931 . S
C92 C91 1.291 . S
C92 C93 1.373 . S
C92 H105 0.929 . S
C93 C92 1.373 . S
C93 C94 1.396 . S
C93 C100 1.403 . S
C94 C84 1.476 . S
C94 N89 1.318 . S
C94 C93 1.396 . S
H95 C90 0.929 . S
O96 Mn72 2.385 . S
O96 C74 1.234 . S
O97 Mn72 2.209 . S
O97 Mn73 2.215 . S
O97 C74 1.283 . S
O98 Mn72 2.094 . S
O98 C76 1.240 . S
O99 Mn73 2.117 . S
O99 C76 1.264 . S
C100 C93 1.403 . S
C100 C101 1.399 . S
C100 H106 0.929 . S
C101 C81 1.449 . S
C101 C100 1.399 . S
C101 H107 0.930 . S
H102 C82 0.931 . S
H103 C83 0.930 . S
H104 C91 0.931 . S
H105 C92 0.929 . S
H106 C100 0.929 . S
H107 C101 0.930 . S
Mn108 O113 2.095 . S
Mn108 O123 2.162 . S
Mn108 O124 2.297 . S
Mn108 O132 2.385 . S
Mn108 O133 2.209 . S
Mn108 O134 2.094 . S
Mn109 O114 2.121 . S
Mn109 N116 2.257 . S
Mn109 N125 2.282 . S
Mn109 O133 2.215 . S
Mn109 O135 2.117 . S
C110 O132 1.234 . S
C110 O133 1.283 . S
C111 O123 1.281 . S
C111 O124 1.236 . S
C112 O134 1.240 . S
C112 O135 1.264 . S
O113 Mn108 2.095 . S
O113 C122 1.250 . S
O114 Mn109 2.121 . S
O114 C122 1.258 . S
C115 N116 1.326 . S
C115 C119 1.460 . S
C115 H121 0.929 . S
N116 Mn109 2.257 . S
N116 C115 1.326 . S
N116 C120 1.362 . S
C117 C118 1.258 . S
C117 C120 1.431 . S
C117 C137 1.449 . S
C118 C117 1.258 . S
C118 C119 1.477 . S
C118 H138 0.931 . S
C119 C115 1.460 . S
C119 C118 1.477 . S
C119 H139 0.930 . S
C120 N116 1.362 . S
C120 C117 1.431 . S
C120 C130 1.476 . S
H121 C115 0.929 . S
C122 O113 1.250 . S
C122 O114 1.258 . S
O123 Mn108 2.162 . S
O123 C111 1.281 . S
O124 Mn108 2.297 . S
O124 C111 1.236 . S
N125 Mn109 2.282 . S
N125 C126 1.328 . S
N125 C130 1.318 . S
C126 N125 1.328 . S
C126 C127 1.457 . S
C126 H131 0.929 . S
C127 C126 1.457 . S
C127 C128 1.291 . S
C127 H140 0.931 . S
C128 C127 1.291 . S
C128 C129 1.373 . S
C128 H141 0.929 . S
C129 C128 1.373 . S
C129 C130 1.396 . S
C129 C136 1.403 . S
C130 C120 1.476 . S
C130 N125 1.318 . S
C130 C129 1.396 . S
H131 C126 0.929 . S
O132 Mn108 2.385 . S
O132 C110 1.234 . S
O133 Mn108 2.209 . S
O133 Mn109 2.215 . S
O133 C110 1.283 . S
O134 Mn108 2.094 . S
O134 C112 1.240 . S
O135 Mn109 2.117 . S
O135 C112 1.264 . S
C136 C129 1.403 . S
C136 C137 1.399 . S
C136 H142 0.929 . S
C137 C117 1.449 . S
C137 C136 1.399 . S
C137 H143 0.930 . S
H138 C118 0.931 . S
H139 C119 0.930 . S
H140 C127 0.931 . S
H141 C128 0.929 . S
H142 C136 0.929 . S
H143 C137 0.930 . S
Mn144 O149 2.095 . S
Mn144 O159 2.162 . S
Mn144 O160 2.297 . S
Mn144 O168 2.385 . S
Mn144 O169 2.209 . S
Mn144 O170 2.094 . S
Mn145 O150 2.121 . S
Mn145 N152 2.257 . S
Mn145 N161 2.282 . S
Mn145 O169 2.215 . S
Mn145 O171 2.117 . S
C146 O168 1.234 . S
C146 O169 1.283 . S
C147 O159 1.281 . S
C147 O160 1.236 . S
C148 O170 1.240 . S
C148 O171 1.264 . S
O149 Mn144 2.095 . S
O149 C158 1.250 . S
O150 Mn145 2.121 . S
O150 C158 1.258 . S
C151 N152 1.326 . S
C151 C155 1.460 . S
C151 H157 0.929 . S
N152 Mn145 2.257 . S
N152 C151 1.326 . S
N152 C156 1.362 . S
C153 C154 1.258 . S
C153 C156 1.431 . S
C153 C173 1.449 . S
C154 C153 1.258 . S
C154 C155 1.477 . S
C154 H174 0.931 . S
C155 C151 1.460 . S
C155 C154 1.477 . S
C155 H175 0.930 . S
C156 N152 1.362 . S
C156 C153 1.431 . S
C156 C166 1.476 . S
H157 C151 0.929 . S
C158 O149 1.250 . S
C158 O150 1.258 . S
O159 Mn144 2.162 . S
O159 C147 1.281 . S
O160 Mn144 2.297 . S
O160 C147 1.236 . S
N161 Mn145 2.282 . S
N161 C162 1.328 . S
N161 C166 1.318 . S
C162 N161 1.328 . S
C162 C163 1.457 . S
C162 H167 0.929 . S
C163 C162 1.457 . S
C163 C164 1.291 . S
C163 H176 0.931 . S
C164 C163 1.291 . S
C164 C165 1.373 . S
C164 H177 0.929 . S
C165 C164 1.373 . S
C165 C166 1.396 . S
C165 C172 1.403 . S
C166 C156 1.476 . S
C166 N161 1.318 . S
C166 C165 1.396 . S
H167 C162 0.929 . S
O168 Mn144 2.385 . S
O168 C146 1.234 . S
O169 Mn144 2.209 . S
O169 Mn145 2.215 . S
O169 C146 1.283 . S
O170 Mn144 2.094 . S
O170 C148 1.240 . S
O171 Mn145 2.117 . S
O171 C148 1.264 . S
C172 C165 1.403 . S
C172 C173 1.399 . S
C172 H178 0.929 . S
C173 C153 1.449 . S
C173 C172 1.399 . S
C173 H179 0.930 . S
H174 C154 0.931 . S
H175 C155 0.930 . S
H176 C163 0.931 . S
H177 C164 0.929 . S
H178 C172 0.929 . S
H179 C173 0.930 . S
Mn180 O185 2.095 . S
Mn180 O195 2.162 . S
Mn180 O196 2.297 . S
Mn180 O204 2.385 . S
Mn180 O205 2.209 . S
Mn180 O206 2.094 . S
Mn181 O186 2.121 . S
Mn181 N188 2.257 . S
Mn181 N197 2.282 . S
Mn181 O205 2.215 . S
Mn181 O207 2.117 . S
C182 O204 1.234 . S
C182 O205 1.283 . S
C183 O195 1.281 . S
C183 O196 1.236 . S
C184 O206 1.240 . S
C184 O207 1.264 . S
O185 Mn180 2.095 . S
O185 C194 1.250 . S
O186 Mn181 2.121 . S
O186 C194 1.258 . S
C187 N188 1.326 . S
C187 C191 1.460 . S
C187 H193 0.929 . S
N188 Mn181 2.257 . S
N188 C187 1.326 . S
N188 C192 1.362 . S
C189 C190 1.258 . S
C189 C192 1.431 . S
C189 C209 1.449 . S
C190 C189 1.258 . S
C190 C191 1.477 . S
C190 H210 0.931 . S
C191 C187 1.460 . S
C191 C190 1.477 . S
C191 H211 0.930 . S
C192 N188 1.362 . S
C192 C189 1.431 . S
C192 C202 1.476 . S
H193 C187 0.929 . S
C194 O185 1.250 . S
C194 O186 1.258 . S
O195 Mn180 2.162 . S
O195 C183 1.281 . S
O196 Mn180 2.297 . S
O196 C183 1.236 . S
N197 Mn181 2.282 . S
N197 C198 1.328 . S
N197 C202 1.318 . S
C198 N197 1.328 . S
C198 C199 1.457 . S
C198 H203 0.929 . S
C199 C198 1.457 . S
C199 C200 1.291 . S
C199 H212 0.931 . S
C200 C199 1.291 . S
C200 C201 1.373 . S
C200 H213 0.929 . S
C201 C200 1.373 . S
C201 C202 1.396 . S
C201 C208 1.403 . S
C202 C192 1.476 . S
C202 N197 1.318 . S
C202 C201 1.396 . S
H203 C198 0.929 . S
O204 Mn180 2.385 . S
O204 C182 1.234 . S
O205 Mn180 2.209 . S
O205 Mn181 2.215 . S
O205 C182 1.283 . S
O206 Mn180 2.094 . S
O206 C184 1.240 . S
O207 Mn181 2.117 . S
O207 C184 1.264 . S
C208 C201 1.403 . S
C208 C209 1.399 . S
C208 H214 0.929 . S
C209 C189 1.449 . S
C209 C208 1.399 . S
C209 H215 0.930 . S
H210 C190 0.931 . S
H211 C191 0.930 . S
H212 C199 0.931 . S
H213 C200 0.929 . S
H214 C208 0.929 . S
H215 C209 0.930 . S
Mn216 O221 2.095 . S
Mn216 O231 2.162 . S
Mn216 O232 2.297 . S
Mn216 O240 2.385 . S
Mn216 O241 2.209 . S
Mn216 O242 2.094 . S
Mn217 O222 2.121 . S
Mn217 N224 2.257 . S
Mn217 N233 2.282 . S
Mn217 O241 2.215 . S
Mn217 O243 2.117 . S
C218 O240 1.234 . S
C218 O241 1.283 . S
C219 O231 1.281 . S
C219 O232 1.236 . S
C220 O242 1.240 . S
C220 O243 1.264 . S
O221 Mn216 2.095 . S
O221 C230 1.250 . S
O222 Mn217 2.121 . S
O222 C230 1.258 . S
C223 N224 1.326 . S
C223 C227 1.460 . S
C223 H229 0.929 . S
N224 Mn217 2.257 . S
N224 C223 1.326 . S
N224 C228 1.362 . S
C225 C226 1.258 . S
C225 C228 1.431 . S
C225 C245 1.449 . S
C226 C225 1.258 . S
C226 C227 1.477 . S
C226 H246 0.931 . S
C227 C223 1.460 . S
C227 C226 1.477 . S
C227 H247 0.930 . S
C228 N224 1.362 . S
C228 C225 1.431 . S
C228 C238 1.476 . S
H229 C223 0.929 . S
C230 O221 1.250 . S
C230 O222 1.258 . S
O231 Mn216 2.162 . S
O231 C219 1.281 . S
O232 Mn216 2.297 . S
O232 C219 1.236 . S
N233 Mn217 2.282 . S
N233 C234 1.328 . S
N233 C238 1.318 . S
C234 N233 1.328 . S
C234 C235 1.457 . S
C234 H239 0.929 . S
C235 C234 1.457 . S
C235 C236 1.291 . S
C235 H248 0.931 . S
C236 C235 1.291 . S
C236 C237 1.373 . S
C236 H249 0.929 . S
C237 C236 1.373 . S
C237 C238 1.396 . S
C237 C244 1.403 . S
C238 C228 1.476 . S
C238 N233 1.318 . S
C238 C237 1.396 . S
H239 C234 0.929 . S
O240 Mn216 2.385 . S
O240 C218 1.234 . S
O241 Mn216 2.209 . S
O241 Mn217 2.215 . S
O241 C218 1.283 . S
O242 Mn216 2.094 . S
O242 C220 1.240 . S
O243 Mn217 2.117 . S
O243 C220 1.264 . S
C244 C237 1.403 . S
C244 C245 1.399 . S
C244 H250 0.929 . S
C245 C225 1.449 . S
C245 C244 1.399 . S
C245 H251 0.930 . S
H246 C226 0.931 . S
H247 C227 0.930 . S
H248 C235 0.931 . S
H249 C236 0.929 . S
H250 C244 0.929 . S
H251 C245 0.930 . S
Mn252 O257 2.095 . S
Mn252 O267 2.162 . S
Mn252 O268 2.297 . S
Mn252 O276 2.385 . S
Mn252 O277 2.209 . S
Mn252 O278 2.094 . S
Mn253 O258 2.121 . S
Mn253 N260 2.257 . S
Mn253 N269 2.282 . S
Mn253 O277 2.215 . S
Mn253 O279 2.117 . S
C254 O276 1.234 . S
C254 O277 1.283 . S
C255 O267 1.281 . S
C255 O268 1.236 . S
C256 O278 1.240 . S
C256 O279 1.264 . S
O257 Mn252 2.095 . S
O257 C266 1.250 . S
O258 Mn253 2.121 . S
O258 C266 1.258 . S
C259 N260 1.326 . S
C259 C263 1.460 . S
C259 H265 0.929 . S
N260 Mn253 2.257 . S
N260 C259 1.326 . S
N260 C264 1.362 . S
C261 C262 1.258 . S
C261 C264 1.431 . S
C261 C281 1.449 . S
C262 C261 1.258 . S
C262 C263 1.477 . S
C262 H282 0.931 . S
C263 C259 1.460 . S
C263 C262 1.477 . S
C263 H283 0.930 . S
C264 N260 1.362 . S
C264 C261 1.431 . S
C264 C274 1.476 . S
H265 C259 0.929 . S
C266 O257 1.250 . S
C266 O258 1.258 . S
O267 Mn252 2.162 . S
O267 C255 1.281 . S
O268 Mn252 2.297 . S
O268 C255 1.236 . S
N269 Mn253 2.282 . S
N269 C270 1.328 . S
N269 C274 1.318 . S
C270 N269 1.328 . S
C270 C271 1.457 . S
C270 H275 0.929 . S
C271 C270 1.457 . S
C271 C272 1.291 . S
C271 H284 0.931 . S
C272 C271 1.291 . S
C272 C273 1.373 . S
C272 H285 0.929 . S
C273 C272 1.373 . S
C273 C274 1.396 . S
C273 C280 1.403 . S
C274 C264 1.476 . S
C274 N269 1.318 . S
C274 C273 1.396 . S
H275 C270 0.929 . S
O276 Mn252 2.385 . S
O276 C254 1.234 . S
O277 Mn252 2.209 . S
O277 Mn253 2.215 . S
O277 C254 1.283 . S
O278 Mn252 2.094 . S
O278 C256 1.240 . S
O279 Mn253 2.117 . S
O279 C256 1.264 . S
C280 C273 1.403 . S
C280 C281 1.399 . S
C280 H286 0.929 . S
C281 C261 1.449 . S
C281 C280 1.399 . S
C281 H287 0.930 . S
H282 C262 0.931 . S
H283 C263 0.930 . S
H284 C271 0.931 . S
H285 C272 0.929 . S
H286 C280 0.929 . S
H287 C281 0.930 . S
Mn288 O293 2.095 . S
Mn288 O303 2.162 . S
Mn288 O304 2.297 . S
Mn288 O312 2.385 . S
Mn288 O313 2.209 . S
Mn288 O314 2.094 . S
Mn289 O294 2.121 . S
Mn289 N296 2.257 . S
Mn289 N305 2.282 . S
Mn289 O313 2.215 . S
Mn289 O315 2.117 . S
C290 O312 1.234 . S
C290 O313 1.283 . S
C291 O303 1.281 . S
C291 O304 1.236 . S
C292 O314 1.240 . S
C292 O315 1.264 . S
O293 Mn288 2.095 . S
O293 C302 1.250 . S
O294 Mn289 2.121 . S
O294 C302 1.258 . S
C295 N296 1.326 . S
C295 C299 1.460 . S
C295 H301 0.929 . S
N296 Mn289 2.257 . S
N296 C295 1.326 . S
N296 C300 1.362 . S
C297 C298 1.258 . S
C297 C300 1.431 . S
C297 C317 1.449 . S
C298 C297 1.258 . S
C298 C299 1.477 . S
C298 H318 0.931 . S
C299 C295 1.460 . S
C299 C298 1.477 . S
C299 H319 0.930 . S
C300 N296 1.362 . S
C300 C297 1.431 . S
C300 C310 1.476 . S
H301 C295 0.929 . S
C302 O293 1.250 . S
C302 O294 1.258 . S
O303 Mn288 2.162 . S
O303 C291 1.281 . S
O304 Mn288 2.297 . S
O304 C291 1.236 . S
N305 Mn289 2.282 . S
N305 C306 1.328 . S
N305 C310 1.318 . S
C306 N305 1.328 . S
C306 C307 1.457 . S
C306 H311 0.929 . S
C307 C306 1.457 . S
C307 C308 1.291 . S
C307 H320 0.931 . S
C308 C307 1.291 . S
C308 C309 1.373 . S
C308 H321 0.929 . S
C309 C308 1.373 . S
C309 C310 1.396 . S
C309 C316 1.403 . S
C310 C300 1.476 . S
C310 N305 1.318 . S
C310 C309 1.396 . S
H311 C306 0.929 . S
O312 Mn288 2.385 . S
O312 C290 1.234 . S
O313 Mn288 2.209 . S
O313 Mn289 2.215 . S
O313 C290 1.283 . S
O314 Mn288 2.094 . S
O314 C292 1.240 . S
O315 Mn289 2.117 . S
O315 C292 1.264 . S
C316 C309 1.403 . S
C316 C317 1.399 . S
C316 H322 0.929 . S
C317 C297 1.449 . S
C317 C316 1.399 . S
C317 H323 0.930 . S
H318 C298 0.931 . S
H319 C299 0.930 . S
H320 C307 0.931 . S
H321 C308 0.929 . S
H322 C316 0.929 . S
H323 C317 0.930 . S
Mn324 O329 2.095 . S
Mn324 O339 2.162 . S
Mn324 O340 2.297 . S
Mn324 O348 2.385 . S
Mn324 O349 2.209 . S
Mn324 O350 2.094 . S
Mn325 O330 2.121 . S
Mn325 N332 2.257 . S
Mn325 N341 2.282 . S
Mn325 O349 2.215 . S
Mn325 O351 2.117 . S
C326 O348 1.234 . S
C326 O349 1.283 . S
C327 O339 1.281 . S
C327 O340 1.236 . S
C328 O350 1.240 . S
C328 O351 1.264 . S
O329 Mn324 2.095 . S
O329 C338 1.250 . S
O330 Mn325 2.121 . S
O330 C338 1.258 . S
C331 N332 1.326 . S
C331 C335 1.460 . S
C331 H337 0.929 . S
N332 Mn325 2.257 . S
N332 C331 1.326 . S
N332 C336 1.362 . S
C333 C334 1.258 . S
C333 C336 1.431 . S
C333 C353 1.449 . S
C334 C333 1.258 . S
C334 C335 1.477 . S
C334 H354 0.931 . S
C335 C331 1.460 . S
C335 C334 1.477 . S
C335 H355 0.930 . S
C336 N332 1.362 . S
C336 C333 1.431 . S
C336 C346 1.476 . S
H337 C331 0.929 . S
C338 O329 1.250 . S
C338 O330 1.258 . S
O339 Mn324 2.162 . S
O339 C327 1.281 . S
O340 Mn324 2.297 . S
O340 C327 1.236 . S
N341 Mn325 2.282 . S
N341 C342 1.328 . S
N341 C346 1.318 . S
C342 N341 1.328 . S
C342 C343 1.457 . S
C342 H347 0.929 . S
C343 C342 1.457 . S
C343 C344 1.291 . S
C343 H356 0.931 . S
C344 C343 1.291 . S
C344 C345 1.373 . S
C344 H357 0.929 . S
C345 C344 1.373 . S
C345 C346 1.396 . S
C345 C352 1.403 . S
C346 C336 1.476 . S
C346 N341 1.318 . S
C346 C345 1.396 . S
H347 C342 0.929 . S
O348 Mn324 2.385 . S
O348 C326 1.234 . S
O349 Mn324 2.209 . S
O349 Mn325 2.215 . S
O349 C326 1.283 . S
O350 Mn324 2.094 . S
O350 C328 1.240 . S
O351 Mn325 2.117 . S
O351 C328 1.264 . S
C352 C345 1.403 . S
C352 C353 1.399 . S
C352 H358 0.929 . S
C353 C333 1.449 . S
C353 C352 1.399 . S
C353 H359 0.930 . S
H354 C334 0.931 . S
H355 C335 0.930 . S
H356 C343 0.931 . S
H357 C344 0.929 . S
H358 C352 0.929 . S
H359 C353 0.930 . S
Mn360 O365 2.095 . S
Mn360 O375 2.162 . S
Mn360 O376 2.297 . S
Mn360 O384 2.385 . S
Mn360 O385 2.209 . S
Mn360 O386 2.094 . S
Mn361 O366 2.121 . S
Mn361 N368 2.257 . S
Mn361 N377 2.282 . S
Mn361 O385 2.215 . S
Mn361 O387 2.117 . S
C362 O384 1.234 . S
C362 O385 1.283 . S
C363 O375 1.281 . S
C363 O376 1.236 . S
C364 O386 1.240 . S
C364 O387 1.264 . S
O365 Mn360 2.095 . S
O365 C374 1.250 . S
O366 Mn361 2.121 . S
O366 C374 1.258 . S
C367 N368 1.326 . S
C367 C371 1.460 . S
C367 H373 0.929 . S
N368 Mn361 2.257 . S
N368 C367 1.326 . S
N368 C372 1.362 . S
C369 C370 1.258 . S
C369 C372 1.431 . S
C369 C389 1.449 . S
C370 C369 1.258 . S
C370 C371 1.477 . S
C370 H390 0.931 . S
C371 C367 1.460 . S
C371 C370 1.477 . S
C371 H391 0.930 . S
C372 N368 1.362 . S
C372 C369 1.431 . S
C372 C382 1.476 . S
H373 C367 0.929 . S
C374 O365 1.250 . S
C374 O366 1.258 . S
O375 Mn360 2.162 . S
O375 C363 1.281 . S
O376 Mn360 2.297 . S
O376 C363 1.236 . S
N377 Mn361 2.282 . S
N377 C378 1.328 . S
N377 C382 1.318 . S
C378 N377 1.328 . S
C378 C379 1.457 . S
C378 H383 0.929 . S
C379 C378 1.457 . S
C379 C380 1.291 . S
C379 H392 0.931 . S
C380 C379 1.291 . S
C380 C381 1.373 . S
C380 H393 0.929 . S
C381 C380 1.373 . S
C381 C382 1.396 . S
C381 C388 1.403 . S
C382 C372 1.476 . S
C382 N377 1.318 . S
C382 C381 1.396 . S
H383 C378 0.929 . S
O384 Mn360 2.385 . S
O384 C362 1.234 . S
O385 Mn360 2.209 . S
O385 Mn361 2.215 . S
O385 C362 1.283 . S
O386 Mn360 2.094 . S
O386 C364 1.240 . S
O387 Mn361 2.117 . S
O387 C364 1.264 . S
C388 C381 1.403 . S
C388 C389 1.399 . S
C388 H394 0.929 . S
C389 C369 1.449 . S
C389 C388 1.399 . S
C389 H395 0.930 . S
H390 C370 0.931 . S
H391 C371 0.930 . S
H392 C379 0.931 . S
H393 C380 0.929 . S
H394 C388 0.929 . S
H395 C389 0.930 . S
Mn396 O401 2.095 . S
Mn396 O411 2.162 . S
Mn396 O412 2.297 . S
Mn396 O420 2.385 . S
Mn396 O421 2.209 . S
Mn396 O422 2.094 . S
Mn397 O402 2.121 . S
Mn397 N404 2.257 . S
Mn397 N413 2.282 . S
Mn397 O421 2.215 . S
Mn397 O423 2.117 . S
C398 O420 1.234 . S
C398 O421 1.283 . S
C399 O411 1.281 . S
C399 O412 1.236 . S
C400 O422 1.240 . S
C400 O423 1.264 . S
O401 Mn396 2.095 . S
O401 C410 1.250 . S
O402 Mn397 2.121 . S
O402 C410 1.258 . S
C403 N404 1.326 . S
C403 C407 1.460 . S
C403 H409 0.929 . S
N404 Mn397 2.257 . S
N404 C403 1.326 . S
N404 C408 1.362 . S
C405 C406 1.258 . S
C405 C408 1.431 . S
C405 C425 1.449 . S
C406 C405 1.258 . S
C406 C407 1.477 . S
C406 H426 0.931 . S
C407 C403 1.460 . S
C407 C406 1.477 . S
C407 H427 0.930 . S
C408 N404 1.362 . S
C408 C405 1.431 . S
C408 C418 1.476 . S
H409 C403 0.929 . S
C410 O401 1.250 . S
C410 O402 1.258 . S
O411 Mn396 2.162 . S
O411 C399 1.281 . S
O412 Mn396 2.297 . S
O412 C399 1.236 . S
N413 Mn397 2.282 . S
N413 C414 1.328 . S
N413 C418 1.318 . S
C414 N413 1.328 . S
C414 C415 1.457 . S
C414 H419 0.929 . S
C415 C414 1.457 . S
C415 C416 1.291 . S
C415 H428 0.931 . S
C416 C415 1.291 . S
C416 C417 1.373 . S
C416 H429 0.929 . S
C417 C416 1.373 . S
C417 C418 1.396 . S
C417 C424 1.403 . S
C418 C408 1.476 . S
C418 N413 1.318 . S
C418 C417 1.396 . S
H419 C414 0.929 . S
O420 Mn396 2.385 . S
O420 C398 1.234 . S
O421 Mn396 2.209 . S
O421 Mn397 2.215 . S
O421 C398 1.283 . S
O422 Mn396 2.094 . S
O422 C400 1.240 . S
O423 Mn397 2.117 . S
O423 C400 1.264 . S
C424 C417 1.403 . S
C424 C425 1.399 . S
C424 H430 0.929 . S
C425 C405 1.449 . S
C425 C424 1.399 . S
C425 H431 0.930 . S
H426 C406 0.931 . S
H427 C407 0.930 . S
H428 C415 0.931 . S
H429 C416 0.929 . S
H430 C424 0.929 . S
H431 C425 0.930 . S
Mn432 O437 2.095 . S
Mn432 O447 2.162 . S
Mn432 O448 2.297 . S
Mn432 O456 2.385 . S
Mn432 O457 2.209 . S
Mn432 O458 2.094 . S
Mn433 O438 2.121 . S
Mn433 N440 2.257 . S
Mn433 N449 2.282 . S
Mn433 O457 2.215 . S
Mn433 O459 2.117 . S
C434 O456 1.234 . S
C434 O457 1.283 . S
C435 O447 1.281 . S
C435 O448 1.236 . S
C436 O458 1.240 . S
C436 O459 1.264 . S
O437 Mn432 2.095 . S
O437 C446 1.250 . S
O438 Mn433 2.121 . S
O438 C446 1.258 . S
C439 N440 1.326 . S
C439 C443 1.460 . S
C439 H445 0.929 . S
N440 Mn433 2.257 . S
N440 C439 1.326 . S
N440 C444 1.362 . S
C441 C442 1.258 . S
C441 C444 1.431 . S
C441 C461 1.449 . S
C442 C441 1.258 . S
C442 C443 1.477 . S
C442 H462 0.931 . S
C443 C439 1.460 . S
C443 C442 1.477 . S
C443 H463 0.930 . S
C444 N440 1.362 . S
C444 C441 1.431 . S
C444 C454 1.476 . S
H445 C439 0.929 . S
C446 O437 1.250 . S
C446 O438 1.258 . S
O447 Mn432 2.162 . S
O447 C435 1.281 . S
O448 Mn432 2.297 . S
O448 C435 1.236 . S
N449 Mn433 2.282 . S
N449 C450 1.328 . S
N449 C454 1.318 . S
C450 N449 1.328 . S
C450 C451 1.457 . S
C450 H455 0.929 . S
C451 C450 1.457 . S
C451 C452 1.291 . S
C451 H464 0.931 . S
C452 C451 1.291 . S
C452 C453 1.373 . S
C452 H465 0.929 . S
C453 C452 1.373 . S
C453 C454 1.396 . S
C453 C460 1.403 . S
C454 C444 1.476 . S
C454 N449 1.318 . S
C454 C453 1.396 . S
H455 C450 0.929 . S
O456 Mn432 2.385 . S
O456 C434 1.234 . S
O457 Mn432 2.209 . S
O457 Mn433 2.215 . S
O457 C434 1.283 . S
O458 Mn432 2.094 . S
O458 C436 1.240 . S
O459 Mn433 2.117 . S
O459 C436 1.264 . S
C460 C453 1.403 . S
C460 C461 1.399 . S
C460 H466 0.929 . S
C461 C441 1.449 . S
C461 C460 1.399 . S
C461 H467 0.930 . S
H462 C442 0.931 . S
H463 C443 0.930 . S
H464 C451 0.931 . S
H465 C452 0.929 . S
H466 C460 0.929 . S
H467 C461 0.930 . S
Mn468 O473 2.095 . S
Mn468 O483 2.162 . S
Mn468 O484 2.297 . S
Mn468 O492 2.385 . S
Mn468 O493 2.209 . S
Mn468 O494 2.094 . S
Mn469 O474 2.121 . S
Mn469 N476 2.257 . S
Mn469 N485 2.282 . S
Mn469 O493 2.215 . S
Mn469 O495 2.117 . S
C470 O492 1.234 . S
C470 O493 1.283 . S
C471 O483 1.281 . S
C471 O484 1.236 . S
C472 O494 1.240 . S
C472 O495 1.264 . S
O473 Mn468 2.095 . S
O473 C482 1.250 . S
O474 Mn469 2.121 . S
O474 C482 1.258 . S
C475 N476 1.326 . S
C475 C479 1.460 . S
C475 H481 0.929 . S
N476 Mn469 2.257 . S
N476 C475 1.326 . S
N476 C480 1.362 . S
C477 C478 1.258 . S
C477 C480 1.431 . S
C477 C497 1.449 . S
C478 C477 1.258 . S
C478 C479 1.477 . S
C478 H498 0.931 . S
C479 C475 1.460 . S
C479 C478 1.477 . S
C479 H499 0.930 . S
C480 N476 1.362 . S
C480 C477 1.431 . S
C480 C490 1.476 . S
H481 C475 0.929 . S
C482 O473 1.250 . S
C482 O474 1.258 . S
O483 Mn468 2.162 . S
O483 C471 1.281 . S
O484 Mn468 2.297 . S
O484 C471 1.236 . S
N485 Mn469 2.282 . S
N485 C486 1.328 . S
N485 C490 1.318 . S
C486 N485 1.328 . S
C486 C487 1.457 . S
C486 H491 0.929 . S
C487 C486 1.457 . S
C487 C488 1.291 . S
C487 H500 0.931 . S
C488 C487 1.291 . S
C488 C489 1.373 . S
C488 H501 0.929 . S
C489 C488 1.373 . S
C489 C490 1.396 . S
C489 C496 1.403 . S
C490 C480 1.476 . S
C490 N485 1.318 . S
C490 C489 1.396 . S
H491 C486 0.929 . S
O492 Mn468 2.385 . S
O492 C470 1.234 . S
O493 Mn468 2.209 . S
O493 Mn469 2.215 . S
O493 C470 1.283 . S
O494 Mn468 2.094 . S
O494 C472 1.240 . S
O495 Mn469 2.117 . S
O495 C472 1.264 . S
C496 C489 1.403 . S
C496 C497 1.399 . S
C496 H502 0.929 . S
C497 C477 1.449 . S
C497 C496 1.399 . S
C497 H503 0.930 . S
H498 C478 0.931 . S
H499 C479 0.930 . S
H500 C487 0.931 . S
H501 C488 0.929 . S
H502 C496 0.929 . S
H503 C497 0.930 . S
Mn504 O509 2.095 . S
Mn504 O519 2.162 . S
Mn504 O520 2.297 . S
Mn504 O528 2.385 . S
Mn504 O529 2.209 . S
Mn504 O530 2.094 . S
Mn505 O510 2.121 . S
Mn505 N512 2.257 . S
Mn505 N521 2.282 . S
Mn505 O529 2.215 . S
Mn505 O531 2.117 . S
C506 O528 1.234 . S
C506 O529 1.283 . S
C507 O519 1.281 . S
C507 O520 1.236 . S
C508 O530 1.240 . S
C508 O531 1.264 . S
O509 Mn504 2.095 . S
O509 C518 1.250 . S
O510 Mn505 2.121 . S
O510 C518 1.258 . S
C511 N512 1.326 . S
C511 C515 1.460 . S
C511 H517 0.929 . S
N512 Mn505 2.257 . S
N512 C511 1.326 . S
N512 C516 1.362 . S
C513 C514 1.258 . S
C513 C516 1.431 . S
C513 C533 1.449 . S
C514 C513 1.258 . S
C514 C515 1.477 . S
C514 H534 0.931 . S
C515 C511 1.460 . S
C515 C514 1.477 . S
C515 H535 0.930 . S
C516 N512 1.362 . S
C516 C513 1.431 . S
C516 C526 1.476 . S
H517 C511 0.929 . S
C518 O509 1.250 . S
C518 O510 1.258 . S
O519 Mn504 2.162 . S
O519 C507 1.281 . S
O520 Mn504 2.297 . S
O520 C507 1.236 . S
N521 Mn505 2.282 . S
N521 C522 1.328 . S
N521 C526 1.318 . S
C522 N521 1.328 . S
C522 C523 1.457 . S
C522 H527 0.929 . S
C523 C522 1.457 . S
C523 C524 1.291 . S
C523 H536 0.931 . S
C524 C523 1.291 . S
C524 C525 1.373 . S
C524 H537 0.929 . S
C525 C524 1.373 . S
C525 C526 1.396 . S
C525 C532 1.403 . S
C526 C516 1.476 . S
C526 N521 1.318 . S
C526 C525 1.396 . S
H527 C522 0.929 . S
O528 Mn504 2.385 . S
O528 C506 1.234 . S
O529 Mn504 2.209 . S
O529 Mn505 2.215 . S
O529 C506 1.283 . S
O530 Mn504 2.094 . S
O530 C508 1.240 . S
O531 Mn505 2.117 . S
O531 C508 1.264 . S
C532 C525 1.403 . S
C532 C533 1.399 . S
C532 H538 0.929 . S
C533 C513 1.449 . S
C533 C532 1.399 . S
C533 H539 0.930 . S
H534 C514 0.931 . S
H535 C515 0.930 . S
H536 C523 0.931 . S
H537 C524 0.929 . S
H538 C532 0.929 . S
H539 C533 0.930 . S
Mn540 O545 2.095 . S
Mn540 O555 2.162 . S
Mn540 O556 2.297 . S
Mn540 O564 2.385 . S
Mn540 O565 2.209 . S
Mn540 O566 2.094 . S
Mn541 O546 2.121 . S
Mn541 N548 2.257 . S
Mn541 N557 2.282 . S
Mn541 O565 2.215 . S
Mn541 O567 2.117 . S
C542 O564 1.234 . S
C542 O565 1.283 . S
C543 O555 1.281 . S
C543 O556 1.236 . S
C544 O566 1.240 . S
C544 O567 1.264 . S
O545 Mn540 2.095 . S
O545 C554 1.250 . S
O546 Mn541 2.121 . S
O546 C554 1.258 . S
C547 N548 1.326 . S
C547 C551 1.460 . S
C547 H553 0.929 . S
N548 Mn541 2.257 . S
N548 C547 1.326 . S
N548 C552 1.362 . S
C549 C550 1.258 . S
C549 C552 1.431 . S
C549 C569 1.449 . S
C550 C549 1.258 . S
C550 C551 1.477 . S
C550 H570 0.931 . S
C551 C547 1.460 . S
C551 C550 1.477 . S
C551 H571 0.930 . S
C552 N548 1.362 . S
C552 C549 1.431 . S
C552 C562 1.476 . S
H553 C547 0.929 . S
C554 O545 1.250 . S
C554 O546 1.258 . S
O555 Mn540 2.162 . S
O555 C543 1.281 . S
O556 Mn540 2.297 . S
O556 C543 1.236 . S
N557 Mn541 2.282 . S
N557 C558 1.328 . S
N557 C562 1.318 . S
C558 N557 1.328 . S
C558 C559 1.457 . S
C558 H563 0.929 . S
C559 C558 1.457 . S
C559 C560 1.291 . S
C559 H572 0.931 . S
C560 C559 1.291 . S
C560 C561 1.373 . S
C560 H573 0.929 . S
C561 C560 1.373 . S
C561 C562 1.396 . S
C561 C568 1.403 . S
C562 C552 1.476 . S
C562 N557 1.318 . S
C562 C561 1.396 . S
H563 C558 0.929 . S
O564 Mn540 2.385 . S
O564 C542 1.234 . S
O565 Mn540 2.209 . S
O565 Mn541 2.215 . S
O565 C542 1.283 . S
O566 Mn540 2.094 . S
O566 C544 1.240 . S
O567 Mn541 2.117 . S
O567 C544 1.264 . S
C568 C561 1.403 . S
C568 C569 1.399 . S
C568 H574 0.929 . S
C569 C549 1.449 . S
C569 C568 1.399 . S
C569 H575 0.930 . S
H570 C550 0.931 . S
H571 C551 0.930 . S
H572 C559 0.931 . S
H573 C560 0.929 . S
H574 C568 0.929 . S
H575 C569 0.930 . S
Mn576 O581 2.095 . S
Mn576 O591 2.162 . S
Mn576 O592 2.297 . S
Mn576 O600 2.385 . S
Mn576 O601 2.209 . S
Mn576 O602 2.094 . S
Mn577 O582 2.121 . S
Mn577 N584 2.257 . S
Mn577 N593 2.282 . S
Mn577 O601 2.215 . S
Mn577 O603 2.117 . S
C578 O600 1.234 . S
C578 O601 1.283 . S
C579 O591 1.281 . S
C579 O592 1.236 . S
C580 O602 1.240 . S
C580 O603 1.264 . S
O581 Mn576 2.095 . S
O581 C590 1.250 . S
O582 Mn577 2.121 . S
O582 C590 1.258 . S
C583 N584 1.326 . S
C583 C587 1.460 . S
C583 H589 0.929 . S
N584 Mn577 2.257 . S
N584 C583 1.326 . S
N584 C588 1.362 . S
C585 C586 1.258 . S
C585 C588 1.431 . S
C585 C605 1.449 . S
C586 C585 1.258 . S
C586 C587 1.477 . S
C586 H606 0.931 . S
C587 C583 1.460 . S
C587 C586 1.477 . S
C587 H607 0.930 . S
C588 N584 1.362 . S
C588 C585 1.431 . S
C588 C598 1.476 . S
H589 C583 0.929 . S
C590 O581 1.250 . S
C590 O582 1.258 . S
O591 Mn576 2.162 . S
O591 C579 1.281 . S
O592 Mn576 2.297 . S
O592 C579 1.236 . S
N593 Mn577 2.282 . S
N593 C594 1.328 . S
N593 C598 1.318 . S
C594 N593 1.328 . S
C594 C595 1.457 . S
C594 H599 0.929 . S
C595 C594 1.457 . S
C595 C596 1.291 . S
C595 H608 0.931 . S
C596 C595 1.291 . S
C596 C597 1.373 . S
C596 H609 0.929 . S
C597 C596 1.373 . S
C597 C598 1.396 . S
C597 C604 1.403 . S
C598 C588 1.476 . S
C598 N593 1.318 . S
C598 C597 1.396 . S
H599 C594 0.929 . S
O600 Mn576 2.385 . S
O600 C578 1.234 . S
O601 Mn576 2.209 . S
O601 Mn577 2.215 . S
O601 C578 1.283 . S
O602 Mn576 2.094 . S
O602 C580 1.240 . S
O603 Mn577 2.117 . S
O603 C580 1.264 . S
C604 C597 1.403 . S
C604 C605 1.399 . S
C604 H610 0.929 . S
C605 C585 1.449 . S
C605 C604 1.399 . S
C605 H611 0.930 . S
H606 C586 0.931 . S
H607 C587 0.930 . S
H608 C595 0.931 . S
H609 C596 0.929 . S
H610 C604 0.929 . S
H611 C605 0.930 . S
Mn612 O617 2.095 . S
Mn612 O627 2.162 . S
Mn612 O628 2.297 . S
Mn612 O636 2.385 . S
Mn612 O637 2.209 . S
Mn612 O638 2.094 . S
Mn613 O618 2.121 . S
Mn613 N620 2.257 . S
Mn613 N629 2.282 . S
Mn613 O637 2.215 . S
Mn613 O639 2.117 . S
C614 O636 1.234 . S
C614 O637 1.283 . S
C615 O627 1.281 . S
C615 O628 1.236 . S
C616 O638 1.240 . S
C616 O639 1.264 . S
O617 Mn612 2.095 . S
O617 C626 1.250 . S
O618 Mn613 2.121 . S
O618 C626 1.258 . S
C619 N620 1.326 . S
C619 C623 1.460 . S
C619 H625 0.929 . S
N620 Mn613 2.257 . S
N620 C619 1.326 . S
N620 C624 1.362 . S
C621 C622 1.258 . S
C621 C624 1.431 . S
C621 C641 1.449 . S
C622 C621 1.258 . S
C622 C623 1.477 . S
C622 H642 0.931 . S
C623 C619 1.460 . S
C623 C622 1.477 . S
C623 H643 0.930 . S
C624 N620 1.362 . S
C624 C621 1.431 . S
C624 C634 1.476 . S
H625 C619 0.929 . S
C626 O617 1.250 . S
C626 O618 1.258 . S
O627 Mn612 2.162 . S
O627 C615 1.281 . S
O628 Mn612 2.297 . S
O628 C615 1.236 . S
N629 Mn613 2.282 . S
N629 C630 1.328 . S
N629 C634 1.318 . S
C630 N629 1.328 . S
C630 C631 1.457 . S
C630 H635 0.929 . S
C631 C630 1.457 . S
C631 C632 1.291 . S
C631 H644 0.931 . S
C632 C631 1.291 . S
C632 C633 1.373 . S
C632 H645 0.929 . S
C633 C632 1.373 . S
C633 C634 1.396 . S
C633 C640 1.403 . S
C634 C624 1.476 . S
C634 N629 1.318 . S
C634 C633 1.396 . S
H635 C630 0.929 . S
O636 Mn612 2.385 . S
O636 C614 1.234 . S
O637 Mn612 2.209 . S
O637 Mn613 2.215 . S
O637 C614 1.283 . S
O638 Mn612 2.094 . S
O638 C616 1.240 . S
O639 Mn613 2.117 . S
O639 C616 1.264 . S
C640 C633 1.403 . S
C640 C641 1.399 . S
C640 H646 0.929 . S
C641 C621 1.449 . S
C641 C640 1.399 . S
C641 H647 0.930 . S
H642 C622 0.931 . S
H643 C623 0.930 . S
H644 C631 0.931 . S
H645 C632 0.929 . S
H646 C640 0.929 . S
H647 C641 0.930 . S
Mn648 O653 2.095 . S
Mn648 O663 2.162 . S
Mn648 O664 2.297 . S
Mn648 O672 2.385 . S
Mn648 O673 2.209 . S
Mn648 O674 2.094 . S
Mn649 O654 2.121 . S
Mn649 N656 2.257 . S
Mn649 N665 2.282 . S
Mn649 O673 2.215 . S
Mn649 O675 2.117 . S
C650 O672 1.234 . S
C650 O673 1.283 . S
C651 O663 1.281 . S
C651 O664 1.236 . S
C652 O674 1.240 . S
C652 O675 1.264 . S
O653 Mn648 2.095 . S
O653 C662 1.250 . S
O654 Mn649 2.121 . S
O654 C662 1.258 . S
C655 N656 1.326 . S
C655 C659 1.460 . S
C655 H661 0.929 . S
N656 Mn649 2.257 . S
N656 C655 1.326 . S
N656 C660 1.362 . S
C657 C658 1.258 . S
C657 C660 1.431 . S
C657 C677 1.449 . S
C658 C657 1.258 . S
C658 C659 1.477 . S
C658 H678 0.931 . S
C659 C655 1.460 . S
C659 C658 1.477 . S
C659 H679 0.930 . S
C660 N656 1.362 . S
C660 C657 1.431 . S
C660 C670 1.476 . S
H661 C655 0.929 . S
C662 O653 1.250 . S
C662 O654 1.258 . S
O663 Mn648 2.162 . S
O663 C651 1.281 . S
O664 Mn648 2.297 . S
O664 C651 1.236 . S
N665 Mn649 2.282 . S
N665 C666 1.328 . S
N665 C670 1.318 . S
C666 N665 1.328 . S
C666 C667 1.457 . S
C666 H671 0.929 . S
C667 C666 1.457 . S
C667 C668 1.291 . S
C667 H680 0.931 . S
C668 C667 1.291 . S
C668 C669 1.373 . S
C668 H681 0.929 . S
C669 C668 1.373 . S
C669 C670 1.396 . S
C669 C676 1.403 . S
C670 C660 1.476 . S
C670 N665 1.318 . S
C670 C669 1.396 . S
H671 C666 0.929 . S
O672 Mn648 2.385 . S
O672 C650 1.234 . S
O673 Mn648 2.209 . S
O673 Mn649 2.215 . S
O673 C650 1.283 . S
O674 Mn648 2.094 . S
O674 C652 1.240 . S
O675 Mn649 2.117 . S
O675 C652 1.264 . S
C676 C669 1.403 . S
C676 C677 1.399 . S
C676 H682 0.929 . S
C677 C657 1.449 . S
C677 C676 1.399 . S
C677 H683 0.930 . S
H678 C658 0.931 . S
H679 C659 0.930 . S
H680 C667 0.931 . S
H681 C668 0.929 . S
H682 C676 0.929 . S
H683 C677 0.930 . S
Mn684 O689 2.095 . S
Mn684 O699 2.162 . S
Mn684 O700 2.297 . S
Mn684 O708 2.385 . S
Mn684 O709 2.209 . S
Mn684 O710 2.094 . S
Mn685 O690 2.121 . S
Mn685 N692 2.257 . S
Mn685 N701 2.282 . S
Mn685 O709 2.215 . S
Mn685 O711 2.117 . S
C686 O708 1.234 . S
C686 O709 1.283 . S
C687 O699 1.281 . S
C687 O700 1.236 . S
C688 O710 1.240 . S
C688 O711 1.264 . S
O689 Mn684 2.095 . S
O689 C698 1.250 . S
O690 Mn685 2.121 . S
O690 C698 1.258 . S
C691 N692 1.326 . S
C691 C695 1.460 . S
C691 H697 0.929 . S
N692 Mn685 2.257 . S
N692 C691 1.326 . S
N692 C696 1.362 . S
C693 C694 1.258 . S
C693 C696 1.431 . S
C693 C713 1.449 . S
C694 C693 1.258 . S
C694 C695 1.477 . S
C694 H714 0.931 . S
C695 C691 1.460 . S
C695 C694 1.477 . S
C695 H715 0.930 . S
C696 N692 1.362 . S
C696 C693 1.431 . S
C696 C706 1.476 . S
H697 C691 0.929 . S
C698 O689 1.250 . S
C698 O690 1.258 . S
O699 Mn684 2.162 . S
O699 C687 1.281 . S
O700 Mn684 2.297 . S
O700 C687 1.236 . S
N701 Mn685 2.282 . S
N701 C702 1.328 . S
N701 C706 1.318 . S
C702 N701 1.328 . S
C702 C703 1.457 . S
C702 H707 0.929 . S
C703 C702 1.457 . S
C703 C704 1.291 . S
C703 H716 0.931 . S
C704 C703 1.291 . S
C704 C705 1.373 . S
C704 H717 0.929 . S
C705 C704 1.373 . S
C705 C706 1.396 . S
C705 C712 1.403 . S
C706 C696 1.476 . S
C706 N701 1.318 . S
C706 C705 1.396 . S
H707 C702 0.929 . S
O708 Mn684 2.385 . S
O708 C686 1.234 . S
O709 Mn684 2.209 . S
O709 Mn685 2.215 . S
O709 C686 1.283 . S
O710 Mn684 2.094 . S
O710 C688 1.240 . S
O711 Mn685 2.117 . S
O711 C688 1.264 . S
C712 C705 1.403 . S
C712 C713 1.399 . S
C712 H718 0.929 . S
C713 C693 1.449 . S
C713 C712 1.399 . S
C713 H719 0.930 . S
H714 C694 0.931 . S
H715 C695 0.930 . S
H716 C703 0.931 . S
H717 C704 0.929 . S
H718 C712 0.929 . S
H719 C713 0.930 . S
Mn720 O725 2.095 . S
Mn720 O735 2.162 . S
Mn720 O736 2.297 . S
Mn720 O744 2.385 . S
Mn720 O745 2.209 . S
Mn720 O746 2.094 . S
Mn721 O726 2.121 . S
Mn721 N728 2.257 . S
Mn721 N737 2.282 . S
Mn721 O745 2.215 . S
Mn721 O747 2.117 . S
C722 O744 1.234 . S
C722 O745 1.283 . S
C723 O735 1.281 . S
C723 O736 1.236 . S
C724 O746 1.240 . S
C724 O747 1.264 . S
O725 Mn720 2.095 . S
O725 C734 1.250 . S
O726 Mn721 2.121 . S
O726 C734 1.258 . S
C727 N728 1.326 . S
C727 C731 1.460 . S
C727 H733 0.929 . S
N728 Mn721 2.257 . S
N728 C727 1.326 . S
N728 C732 1.362 . S
C729 C730 1.258 . S
C729 C732 1.431 . S
C729 C749 1.449 . S
C730 C729 1.258 . S
C730 C731 1.477 . S
C730 H750 0.931 . S
C731 C727 1.460 . S
C731 C730 1.477 . S
C731 H751 0.930 . S
C732 N728 1.362 . S
C732 C729 1.431 . S
C732 C742 1.476 . S
H733 C727 0.929 . S
C734 O725 1.250 . S
C734 O726 1.258 . S
O735 Mn720 2.162 . S
O735 C723 1.281 . S
O736 Mn720 2.297 . S
O736 C723 1.236 . S
N737 Mn721 2.282 . S
N737 C738 1.328 . S
N737 C742 1.318 . S
C738 N737 1.328 . S
C738 C739 1.457 . S
C738 H743 0.929 . S
C739 C738 1.457 . S
C739 C740 1.291 . S
C739 H752 0.931 . S
C740 C739 1.291 . S
C740 C741 1.373 . S
C740 H753 0.929 . S
C741 C740 1.373 . S
C741 C742 1.396 . S
C741 C748 1.403 . S
C742 C732 1.476 . S
C742 N737 1.318 . S
C742 C741 1.396 . S
H743 C738 0.929 . S
O744 Mn720 2.385 . S
O744 C722 1.234 . S
O745 Mn720 2.209 . S
O745 Mn721 2.215 . S
O745 C722 1.283 . S
O746 Mn720 2.094 . S
O746 C724 1.240 . S
O747 Mn721 2.117 . S
O747 C724 1.264 . S
C748 C741 1.403 . S
C748 C749 1.399 . S
C748 H754 0.929 . S
C749 C729 1.449 . S
C749 C748 1.399 . S
C749 H755 0.930 . S
H750 C730 0.931 . S
H751 C731 0.930 . S
H752 C739 0.931 . S
H753 C740 0.929 . S
H754 C748 0.929 . S
H755 C749 0.930 . S
Mn756 O761 2.095 . S
Mn756 O771 2.162 . S
Mn756 O772 2.297 . S
Mn756 O780 2.385 . S
Mn756 O781 2.209 . S
Mn756 O782 2.094 . S
Mn757 O762 2.121 . S
Mn757 N764 2.257 . S
Mn757 N773 2.282 . S
Mn757 O781 2.215 . S
Mn757 O783 2.117 . S
C758 O780 1.234 . S
C758 O781 1.283 . S
C759 O771 1.281 . S
C759 O772 1.236 . S
C760 O782 1.240 . S
C760 O783 1.264 . S
O761 Mn756 2.095 . S
O761 C770 1.250 . S
O762 Mn757 2.121 . S
O762 C770 1.258 . S
C763 N764 1.326 . S
C763 C767 1.460 . S
C763 H769 0.929 . S
N764 Mn757 2.257 . S
N764 C763 1.326 . S
N764 C768 1.362 . S
C765 C766 1.258 . S
C765 C768 1.431 . S
C765 C785 1.449 . S
C766 C765 1.258 . S
C766 C767 1.477 . S
C766 H786 0.931 . S
C767 C763 1.460 . S
C767 C766 1.477 . S
C767 H787 0.930 . S
C768 N764 1.362 . S
C768 C765 1.431 . S
C768 C778 1.476 . S
H769 C763 0.929 . S
C770 O761 1.250 . S
C770 O762 1.258 . S
O771 Mn756 2.162 . S
O771 C759 1.281 . S
O772 Mn756 2.297 . S
O772 C759 1.236 . S
N773 Mn757 2.282 . S
N773 C774 1.328 . S
N773 C778 1.318 . S
C774 N773 1.328 . S
C774 C775 1.457 . S
C774 H779 0.929 . S
C775 C774 1.457 . S
C775 C776 1.291 . S
C775 H788 0.931 . S
C776 C775 1.291 . S
C776 C777 1.373 . S
C776 H789 0.929 . S
C777 C776 1.373 . S
C777 C778 1.396 . S
C777 C784 1.403 . S
C778 C768 1.476 . S
C778 N773 1.318 . S
C778 C777 1.396 . S
H779 C774 0.929 . S
O780 Mn756 2.385 . S
O780 C758 1.234 . S
O781 Mn756 2.209 . S
O781 Mn757 2.215 . S
O781 C758 1.283 . S
O782 Mn756 2.094 . S
O782 C760 1.240 . S
O783 Mn757 2.117 . S
O783 C760 1.264 . S
C784 C777 1.403 . S
C784 C785 1.399 . S
C784 H790 0.929 . S
C785 C765 1.449 . S
C785 C784 1.399 . S
C785 H791 0.930 . S
H786 C766 0.931 . S
H787 C767 0.930 . S
H788 C775 0.931 . S
H789 C776 0.929 . S
H790 C784 0.929 . S
H791 C785 0.930 . S
Mn792 O797 2.095 . S
Mn792 O807 2.162 . S
Mn792 O808 2.297 . S
Mn792 O816 2.385 . S
Mn792 O817 2.209 . S
Mn792 O818 2.094 . S
Mn793 O798 2.121 . S
Mn793 N800 2.257 . S
Mn793 N809 2.282 . S
Mn793 O817 2.215 . S
Mn793 O819 2.117 . S
C794 O816 1.234 . S
C794 O817 1.283 . S
C795 O807 1.281 . S
C795 O808 1.236 . S
C796 O818 1.240 . S
C796 O819 1.264 . S
O797 Mn792 2.095 . S
O797 C806 1.250 . S
O798 Mn793 2.121 . S
O798 C806 1.258 . S
C799 N800 1.326 . S
C799 C803 1.460 . S
C799 H805 0.929 . S
N800 Mn793 2.257 . S
N800 C799 1.326 . S
N800 C804 1.362 . S
C801 C802 1.258 . S
C801 C804 1.431 . S
C801 C821 1.449 . S
C802 C801 1.258 . S
C802 C803 1.477 . S
C802 H822 0.931 . S
C803 C799 1.460 . S
C803 C802 1.477 . S
C803 H823 0.930 . S
C804 N800 1.362 . S
C804 C801 1.431 . S
C804 C814 1.476 . S
H805 C799 0.929 . S
C806 O797 1.250 . S
C806 O798 1.258 . S
O807 Mn792 2.162 . S
O807 C795 1.281 . S
O808 Mn792 2.297 . S
O808 C795 1.236 . S
N809 Mn793 2.282 . S
N809 C810 1.328 . S
N809 C814 1.318 . S
C810 N809 1.328 . S
C810 C811 1.457 . S
C810 H815 0.929 . S
C811 C810 1.457 . S
C811 C812 1.291 . S
C811 H824 0.931 . S
C812 C811 1.291 . S
C812 C813 1.373 . S
C812 H825 0.929 . S
C813 C812 1.373 . S
C813 C814 1.396 . S
C813 C820 1.403 . S
C814 C804 1.476 . S
C814 N809 1.318 . S
C814 C813 1.396 . S
H815 C810 0.929 . S
O816 Mn792 2.385 . S
O816 C794 1.234 . S
O817 Mn792 2.209 . S
O817 Mn793 2.215 . S
O817 C794 1.283 . S
O818 Mn792 2.094 . S
O818 C796 1.240 . S
O819 Mn793 2.117 . S
O819 C796 1.264 . S
C820 C813 1.403 . S
C820 C821 1.399 . S
C820 H826 0.929 . S
C821 C801 1.449 . S
C821 C820 1.399 . S
C821 H827 0.930 . S
H822 C802 0.931 . S
H823 C803 0.930 . S
H824 C811 0.931 . S
H825 C812 0.929 . S
H826 C820 0.929 . S
H827 C821 0.930 . S
Mn828 O833 2.095 . S
Mn828 O843 2.162 . S
Mn828 O844 2.297 . S
Mn828 O852 2.385 . S
Mn828 O853 2.209 . S
Mn828 O854 2.094 . S
Mn829 O834 2.121 . S
Mn829 N836 2.257 . S
Mn829 N845 2.282 . S
Mn829 O853 2.215 . S
Mn829 O855 2.117 . S
C830 O852 1.234 . S
C830 O853 1.283 . S
C831 O843 1.281 . S
C831 O844 1.236 . S
C832 O854 1.240 . S
C832 O855 1.264 . S
O833 Mn828 2.095 . S
O833 C842 1.250 . S
O834 Mn829 2.121 . S
O834 C842 1.258 . S
C835 N836 1.326 . S
C835 C839 1.460 . S
C835 H841 0.929 . S
N836 Mn829 2.257 . S
N836 C835 1.326 . S
N836 C840 1.362 . S
C837 C838 1.258 . S
C837 C840 1.431 . S
C837 C857 1.449 . S
C838 C837 1.258 . S
C838 C839 1.477 . S
C838 H858 0.931 . S
C839 C835 1.460 . S
C839 C838 1.477 . S
C839 H859 0.930 . S
C840 N836 1.362 . S
C840 C837 1.431 . S
C840 C850 1.476 . S
H841 C835 0.929 . S
C842 O833 1.250 . S
C842 O834 1.258 . S
O843 Mn828 2.162 . S
O843 C831 1.281 . S
O844 Mn828 2.297 . S
O844 C831 1.236 . S
N845 Mn829 2.282 . S
N845 C846 1.328 . S
N845 C850 1.318 . S
C846 N845 1.328 . S
C846 C847 1.457 . S
C846 H851 0.929 . S
C847 C846 1.457 . S
C847 C848 1.291 . S
C847 H860 0.931 . S
C848 C847 1.291 . S
C848 C849 1.373 . S
C848 H861 0.929 . S
C849 C848 1.373 . S
C849 C850 1.396 . S
C849 C856 1.403 . S
C850 C840 1.476 . S
C850 N845 1.318 . S
C850 C849 1.396 . S
H851 C846 0.929 . S
O852 Mn828 2.385 . S
O852 C830 1.234 . S
O853 Mn828 2.209 . S
O853 Mn829 2.215 . S
O853 C830 1.283 . S
O854 Mn828 2.094 . S
O854 C832 1.240 . S
O855 Mn829 2.117 . S
O855 C832 1.264 . S
C856 C849 1.403 . S
C856 C857 1.399 . S
C856 H862 0.929 . S
C857 C837 1.449 . S
C857 C856 1.399 . S
C857 H863 0.930 . S
H858 C838 0.931 . S
H859 C839 0.930 . S
H860 C847 0.931 . S
H861 C848 0.929 . S
H862 C856 0.929 . S
H863 C857 0.930 . S
C864 C865 1.391 . S
C864 C866 1.394 . S
C864 H880 0.931 . S
C865 C864 1.391 . S
C865 C869 1.376 . S
C866 C864 1.394 . S
C866 C867 1.369 . S
C866 C870 1.531 . S
C867 C866 1.369 . S
C867 C868 1.410 . S
C867 C875 1.503 . S
C868 C867 1.410 . S
C868 C869 1.392 . S
C868 C871 1.511 . S
C869 C865 1.376 . S
C869 C868 1.392 . S
C869 H881 0.929 . S
C870 C866 1.531 . S
C870 H882 0.960 . S
C870 H883 0.962 . S
C870 H884 0.960 . S
C871 C868 1.511 . S
C871 H885 0.961 . S
C871 H886 0.961 . S
C871 H887 0.961 . S
C872 C873 1.370 . S
C872 C874 1.363 . S
C872 H888 0.931 . S
C873 C872 1.370 . S
C873 C877 1.408 . S
C874 C872 1.363 . S
C874 C875 1.370 . S
C874 C878 1.524 . S
C875 C867 1.503 . S
C875 C874 1.370 . S
C875 C876 1.403 . S
C876 C875 1.403 . S
C876 C877 1.404 . S
C876 C879 1.539 . S
C877 C873 1.408 . S
C877 C876 1.404 . S
C877 H889 0.930 . S
C878 C874 1.524 . S
C878 H890 0.956 . S
C878 H891 0.972 . S
C878 H892 0.961 1_545 S
C879 C876 1.539 . S
C879 H893 0.958 . S
C879 H894 0.961 . S
C879 H895 0.960 . S
H880 C864 0.931 . S
H881 C869 0.929 . S
H882 C870 0.960 . S
H883 C870 0.962 . S
H884 C870 0.960 . S
H885 C871 0.961 . S
H886 C871 0.961 . S
H887 C871 0.961 . S
H888 C872 0.931 . S
H889 C877 0.930 . S
H890 C878 0.956 . S
H891 C878 0.972 . S
H892 C878 0.961 1_565 S
H893 C879 0.958 . S
H894 C879 0.961 . S
H895 C879 0.960 . S
C896 C897 1.391 . S
C896 C898 1.394 . S
C896 H912 0.931 . S
C897 C896 1.391 . S
C897 C901 1.376 . S
C898 C896 1.394 . S
C898 C899 1.369 . S
C898 C902 1.531 . S
C899 C898 1.369 . S
C899 C900 1.410 . S
C899 C907 1.503 . S
C900 C899 1.410 . S
C900 C901 1.392 . S
C900 C903 1.511 . S
C901 C897 1.376 . S
C901 C900 1.392 . S
C901 H913 0.929 . S
C902 C898 1.531 . S
C902 H914 0.960 . S
C902 H915 0.962 . S
C902 H916 0.960 . S
C903 C900 1.511 . S
C903 H917 0.961 . S
C903 H918 0.961 . S
C903 H919 0.961 . S
C904 C905 1.370 . S
C904 C906 1.363 . S
C904 H920 0.931 . S
C905 C904 1.370 . S
C905 C909 1.408 . S
C906 C904 1.363 . S
C906 C907 1.370 . S
C906 C910 1.524 . S
C907 C899 1.503 . S
C907 C906 1.370 . S
C907 C908 1.403 . S
C908 C907 1.403 . S
C908 C909 1.404 . S
C908 C911 1.539 . S
C909 C905 1.408 . S
C909 C908 1.404 . S
C909 H921 0.930 . S
C910 C906 1.524 . S
C910 H922 0.956 . S
C910 H923 0.961 . S
C910 H924 0.961 . S
C911 C908 1.539 . S
C911 H925 0.958 . S
C911 H926 0.961 . S
C911 H927 0.960 . S
H912 C896 0.931 . S
H913 C901 0.929 . S
H914 C902 0.960 . S
H915 C902 0.962 . S
H916 C902 0.960 . S
H917 C903 0.961 . S
H918 C903 0.961 . S
H919 C903 0.961 . S
H920 C904 0.931 . S
H921 C909 0.930 . S
H922 C910 0.956 . S
H923 C910 0.961 . S
H924 C910 0.961 . S
H925 C911 0.958 . S
H926 C911 0.961 . S
H927 C911 0.960 . S
C928 C929 1.391 . S
C928 C930 1.394 . S
C928 H944 0.931 . S
C929 C928 1.391 . S
C929 C933 1.376 . S
C930 C928 1.394 . S
C930 C931 1.369 . S
C930 C934 1.531 1_655 S
C931 C930 1.369 . S
C931 C932 1.410 . S
C931 C939 1.503 . S
C932 C931 1.410 . S
C932 C933 1.392 . S
C932 C935 1.511 . S
C933 C929 1.376 . S
C933 C932 1.392 . S
C933 H945 0.929 . S
C934 C930 1.531 1_455 S
C934 H946 0.960 . S
C934 H947 0.962 . S
C934 H948 0.960 . S
C935 C932 1.511 . S
C935 H949 0.961 . S
C935 H950 0.961 . S
C935 H951 0.961 . S
C936 C937 1.370 . S
C936 C938 1.363 . S
C936 H952 0.931 . S
C937 C936 1.370 . S
C937 C941 1.408 . S
C938 C936 1.363 . S
C938 C939 1.370 . S
C938 C942 1.524 . S
C939 C931 1.503 . S
C939 C938 1.370 . S
C939 C940 1.403 . S
C940 C939 1.403 . S
C940 C941 1.404 . S
C940 C943 1.539 . S
C941 C937 1.408 . S
C941 C940 1.404 . S
C941 H953 0.930 . S
C942 C938 1.524 . S
C942 H954 0.956 . S
C942 H955 0.961 . S
C942 H956 0.961 . S
C943 C940 1.539 . S
C943 H957 0.958 . S
C943 H958 0.961 . S
C943 H959 0.960 . S
H944 C928 0.931 . S
H945 C933 0.929 . S
H946 C934 0.960 . S
H947 C934 0.962 . S
H948 C934 0.960 . S
H949 C935 0.961 . S
H950 C935 0.961 . S
H951 C935 0.961 . S
H952 C936 0.931 . S
H953 C941 0.930 . S
H954 C942 0.956 . S
H955 C942 0.961 . S
H956 C942 0.961 . S
H957 C943 0.958 . S
H958 C943 0.961 . S
H959 C943 0.960 . S
C960 C961 1.391 . S
C960 C962 1.394 . S
C960 H976 0.931 . S
C961 C960 1.391 . S
C961 C965 1.376 . S
C962 C960 1.394 . S
C962 C963 1.369 . S
C962 C966 1.531 . S
C963 C962 1.369 . S
C963 C964 1.410 . S
C963 C971 1.503 . S
C964 C963 1.410 . S
C964 C965 1.392 . S
C964 C967 1.511 . S
C965 C961 1.376 . S
C965 C964 1.392 . S
C965 H977 0.929 . S
C966 C962 1.531 . S
C966 H978 0.960 . S
C966 H979 0.962 . S
C966 H980 0.960 . S
C967 C964 1.511 . S
C967 H981 0.961 . S
C967 H982 0.961 . S
C967 H983 0.961 . S
C968 C969 1.370 . S
C968 C970 1.363 . S
C968 H984 0.931 . S
C969 C968 1.370 . S
C969 C973 1.408 . S
C970 C968 1.363 . S
C970 C971 1.370 . S
C970 C974 1.524 . S
C971 C963 1.503 . S
C971 C970 1.370 . S
C971 C972 1.403 . S
C972 C971 1.403 . S
C972 C973 1.404 . S
C972 C975 1.539 . S
C973 C969 1.408 . S
C973 C972 1.404 . S
C973 H985 0.930 . S
C974 C970 1.524 . S
C974 H986 0.956 . S
C974 H987 0.961 1_565 S
C974 H988 0.961 1_565 S
C975 C972 1.539 . S
C975 H989 0.958 . S
C975 H990 0.961 . S
C975 H991 0.960 . S
H976 C960 0.931 . S
H977 C965 0.929 . S
H978 C966 0.960 . S
H979 C966 0.962 . S
H980 C966 0.960 . S
H981 C967 0.961 . S
H982 C967 0.961 . S
H983 C967 0.961 . S
H984 C968 0.931 . S
H985 C973 0.930 . S
H986 C974 0.956 . S
H987 C974 0.961 1_545 S
H988 C974 0.961 1_545 S
H989 C975 0.958 . S
H990 C975 0.961 . S
H991 C975 0.960 . S
C992 C993 1.391 . S
C992 C994 1.394 . S
C992 H1008 0.931 . S
C993 C992 1.391 . S
C993 C997 1.376 . S
C994 C992 1.394 . S
C994 C995 1.369 . S
C994 C998 1.531 . S
C995 C994 1.369 . S
C995 C996 1.410 . S
C995 C1003 1.503 . S
C996 C995 1.410 . S
C996 C997 1.392 . S
C996 C999 1.511 . S
C997 C993 1.376 . S
C997 C996 1.392 . S
C997 H1009 0.929 . S
C998 C994 1.531 . S
C998 H1010 0.960 . S
C998 H1011 0.962 . S
C998 H1012 0.960 . S
C999 C996 1.511 . S
C999 H1013 0.961 . S
C999 H1014 0.961 . S
C999 H1015 0.961 . S
C1000 C1001 1.370 . S
C1000 C1002 1.363 . S
C1000 H1016 0.931 . S
C1001 C1000 1.370 . S
C1001 C1005 1.408 . S
C1002 C1000 1.363 . S
C1002 C1003 1.370 . S
C1002 C1006 1.524 . S
C1003 C995 1.503 . S
C1003 C1002 1.370 . S
C1003 C1004 1.403 . S
C1004 C1003 1.403 . S
C1004 C1005 1.404 . S
C1004 C1007 1.539 . S
C1005 C1001 1.408 . S
C1005 C1004 1.404 . S
C1005 H1017 0.930 . S
C1006 C1002 1.524 . S
C1006 H1018 0.956 . S
C1006 H1019 0.961 . S
C1006 H1020 0.961 . S
C1007 C1004 1.539 . S
C1007 H1021 0.958 . S
C1007 H1022 0.961 . S
C1007 H1023 0.960 . S
H1008 C992 0.931 . S
H1009 C997 0.929 . S
H1010 C998 0.960 . S
H1011 C998 0.962 . S
H1012 C998 0.960 . S
H1013 C999 0.961 . S
H1014 C999 0.961 . S
H1015 C999 0.961 . S
H1016 C1000 0.931 . S
H1017 C1005 0.930 . S
H1018 C1006 0.956 . S
H1019 C1006 0.961 . S
H1020 C1006 0.961 . S
H1021 C1007 0.958 . S
H1022 C1007 0.961 . S
H1023 C1007 0.960 . S
C1024 C1025 1.391 . S
C1024 C1026 1.394 . S
C1024 H1040 0.931 . S
C1025 C1024 1.391 . S
C1025 C1029 1.376 . S
C1026 C1024 1.394 . S
C1026 C1027 1.369 . S
C1026 C1030 1.531 . S
C1027 C1026 1.369 . S
C1027 C1028 1.410 . S
C1027 C1035 1.503 . S
C1028 C1027 1.410 . S
C1028 C1029 1.392 . S
C1028 C1031 1.511 1_455 S
C1029 C1025 1.376 . S
C1029 C1028 1.392 . S
C1029 H1041 0.929 . S
C1030 C1026 1.531 . S
C1030 H1042 0.960 . S
C1030 H1043 0.962 . S
C1030 H1044 0.960 . S
C1031 C1028 1.511 1_655 S
C1031 H1045 0.961 . S
C1031 H1046 0.961 . S
C1031 H1047 0.961 . S
C1032 C1033 1.370 . S
C1032 C1034 1.363 . S
C1032 H1048 0.931 . S
C1033 C1032 1.370 . S
C1033 C1037 1.408 . S
C1034 C1032 1.363 . S
C1034 C1035 1.370 . S
C1034 C1038 1.524 . S
C1035 C1027 1.503 . S
C1035 C1034 1.370 . S
C1035 C1036 1.403 . S
C1036 C1035 1.403 . S
C1036 C1037 1.404 . S
C1036 C1039 1.539 . S
C1037 C1033 1.408 . S
C1037 C1036 1.404 . S
C1037 H1049 0.930 . S
C1038 C1034 1.524 . S
C1038 H1050 0.956 . S
C1038 H1051 0.961 . S
C1038 H1052 0.961 . S
C1039 C1036 1.539 . S
C1039 H1053 0.958 . S
C1039 H1054 0.961 . S
C1039 H1055 0.960 . S
H1040 C1024 0.931 . S
H1041 C1029 0.929 . S
H1042 C1030 0.960 . S
H1043 C1030 0.962 . S
H1044 C1030 0.960 . S
H1045 C1031 0.961 . S
H1046 C1031 0.961 . S
H1047 C1031 0.961 . S
H1048 C1032 0.931 . S
H1049 C1037 0.930 . S
H1050 C1038 0.956 . S
H1051 C1038 0.961 . S
H1052 C1038 0.961 . S
H1053 C1039 0.958 . S
H1054 C1039 0.961 . S
H1055 C1039 0.960 . S
C1056 C1057 1.391 . S
C1056 C1058 1.394 . S
C1056 H1072 0.931 . S
C1057 C1056 1.391 . S
C1057 C1061 1.376 . S
C1058 C1056 1.394 . S
C1058 C1059 1.369 . S
C1058 C1062 1.531 1_655 S
C1059 C1058 1.369 . S
C1059 C1060 1.410 . S
C1059 C1067 1.503 . S
C1060 C1059 1.410 . S
C1060 C1061 1.392 . S
C1060 C1063 1.511 . S
C1061 C1057 1.376 . S
C1061 C1060 1.392 . S
C1061 H1073 0.929 . S
C1062 C1058 1.531 1_455 S
C1062 H1074 0.960 . S
C1062 H1075 0.962 . S
C1062 H1076 0.960 . S
C1063 C1060 1.511 . S
C1063 H1077 0.961 . S
C1063 H1078 0.961 . S
C1063 H1079 0.961 . S
C1064 C1065 1.370 . S
C1064 C1066 1.363 . S
C1064 H1080 0.931 . S
C1065 C1064 1.370 . S
C1065 C1069 1.408 . S
C1066 C1064 1.363 . S
C1066 C1067 1.370 . S
C1066 C1070 1.524 . S
C1067 C1059 1.503 . S
C1067 C1066 1.370 . S
C1067 C1068 1.403 . S
C1068 C1067 1.403 . S
C1068 C1069 1.404 . S
C1068 C1071 1.539 . S
C1069 C1065 1.408 . S
C1069 C1068 1.404 . S
C1069 H1081 0.930 . S
C1070 C1066 1.524 . S
C1070 H1082 0.956 . S
C1070 H1083 0.961 . S
C1070 H1084 0.961 . S
C1071 C1068 1.539 . S
C1071 H1085 0.958 . S
C1071 H1086 0.961 . S
C1071 H1087 0.960 . S
H1072 C1056 0.931 . S
H1073 C1061 0.929 . S
H1074 C1062 0.960 . S
H1075 C1062 0.962 . S
H1076 C1062 0.960 . S
H1077 C1063 0.961 . S
H1078 C1063 0.961 . S
H1079 C1063 0.961 . S
H1080 C1064 0.931 . S
H1081 C1069 0.930 . S
H1082 C1070 0.956 . S
H1083 C1070 0.961 . S
H1084 C1070 0.961 . S
H1085 C1071 0.958 . S
H1086 C1071 0.961 . S
H1087 C1071 0.960 . S
C1088 C1089 1.391 . S
C1088 C1090 1.394 . S
C1088 H1104 0.931 . S
C1089 C1088 1.391 . S
C1089 C1093 1.376 . S
C1090 C1088 1.394 . S
C1090 C1091 1.369 . S
C1090 C1094 1.531 . S
C1091 C1090 1.369 . S
C1091 C1092 1.410 . S
C1091 C1099 1.503 . S
C1092 C1091 1.410 . S
C1092 C1093 1.392 . S
C1092 C1095 1.511 . S
C1093 C1089 1.376 . S
C1093 C1092 1.392 . S
C1093 H1105 0.929 . S
C1094 C1090 1.531 . S
C1094 H1106 0.960 . S
C1094 H1107 0.962 . S
C1094 H1108 0.960 . S
C1095 C1092 1.511 . S
C1095 H1109 0.961 . S
C1095 H1110 0.961 . S
C1095 H1111 0.961 . S
C1096 C1097 1.370 . S
C1096 C1098 1.363 . S
C1096 H1112 0.931 . S
C1097 C1096 1.370 . S
C1097 C1101 1.408 . S
C1098 C1096 1.363 . S
C1098 C1099 1.370 . S
C1098 C1102 1.524 . S
C1099 C1091 1.503 . S
C1099 C1098 1.370 . S
C1099 C1100 1.403 . S
C1100 C1099 1.403 . S
C1100 C1101 1.404 . S
C1100 C1103 1.539 1_565 S
C1101 C1097 1.408 . S
C1101 C1100 1.404 . S
C1101 H1113 0.930 . S
C1102 C1098 1.524 . S
C1102 H1114 0.956 . S
C1102 H1115 0.961 . S
C1102 H1116 0.961 . S
C1103 C1100 1.539 1_545 S
C1103 H1117 0.958 . S
C1103 H1118 0.961 . S
C1103 H1119 0.960 . S
H1104 C1088 0.931 . S
H1105 C1093 0.929 . S
H1106 C1094 0.960 . S
H1107 C1094 0.962 . S
H1108 C1094 0.960 . S
H1109 C1095 0.961 . S
H1110 C1095 0.961 . S
H1111 C1095 0.961 . S
H1112 C1096 0.931 . S
H1113 C1101 0.930 . S
H1114 C1102 0.956 . S
H1115 C1102 0.961 . S
H1116 C1102 0.961 . S
H1117 C1103 0.958 . S
H1118 C1103 0.961 . S
H1119 C1103 0.960 . S
C1120 C1121 1.391 . S
C1120 C1122 1.394 . S
C1120 H1136 0.931 . S
C1121 C1120 1.391 . S
C1121 C1125 1.376 . S
C1122 C1120 1.394 . S
C1122 C1123 1.369 . S
C1122 C1126 1.531 . S
C1123 C1122 1.369 . S
C1123 C1124 1.410 . S
C1123 C1131 1.503 . S
C1124 C1123 1.410 . S
C1124 C1125 1.392 . S
C1124 C1127 1.511 . S
C1125 C1121 1.376 . S
C1125 C1124 1.392 . S
C1125 H1137 0.929 . S
C1126 C1122 1.531 . S
C1126 H1138 0.960 . S
C1126 H1139 0.962 . S
C1126 H1140 0.960 . S
C1127 C1124 1.511 . S
C1127 H1141 0.961 . S
C1127 H1142 0.961 . S
C1127 H1143 0.961 . S
C1128 C1129 1.370 . S
C1128 C1130 1.363 . S
C1128 H1144 0.931 . S
C1129 C1128 1.370 . S
C1129 C1133 1.408 . S
C1130 C1128 1.363 . S
C1130 C1131 1.370 . S
C1130 C1134 1.524 . S
C1131 C1123 1.503 . S
C1131 C1130 1.370 . S
C1131 C1132 1.403 . S
C1132 C1131 1.403 . S
C1132 C1133 1.404 . S
C1132 C1135 1.539 . S
C1133 C1129 1.408 . S
C1133 C1132 1.404 . S
C1133 H1145 0.930 . S
C1134 C1130 1.524 . S
C1134 H1146 0.956 . S
C1134 H1147 0.961 . S
C1134 H1148 0.961 . S
C1135 C1132 1.539 . S
C1135 H1149 0.958 . S
C1135 H1150 0.961 . S
C1135 H1151 0.960 . S
H1136 C1120 0.931 . S
H1137 C1125 0.929 . S
H1138 C1126 0.960 . S
H1139 C1126 0.962 . S
H1140 C1126 0.960 . S
H1141 C1127 0.961 . S
H1142 C1127 0.961 . S
H1143 C1127 0.961 . S
H1144 C1128 0.931 . S
H1145 C1133 0.930 . S
H1146 C1134 0.956 . S
H1147 C1134 0.961 . S
H1148 C1134 0.961 . S
H1149 C1135 0.958 . S
H1150 C1135 0.961 . S
H1151 C1135 0.960 . S
C1152 C1153 1.391 . S
C1152 C1154 1.394 . S
C1152 H1168 0.931 . S
C1153 C1152 1.391 . S
C1153 C1157 1.376 . S
C1154 C1152 1.394 . S
C1154 C1155 1.369 . S
C1154 C1158 1.531 . S
C1155 C1154 1.369 . S
C1155 C1156 1.410 . S
C1155 C1163 1.503 . S
C1156 C1155 1.410 . S
C1156 C1157 1.392 . S
C1156 C1159 1.511 1_455 S
C1157 C1153 1.376 . S
C1157 C1156 1.392 . S
C1157 H1169 0.929 . S
C1158 C1154 1.531 . S
C1158 H1170 0.960 . S
C1158 H1171 0.962 . S
C1158 H1172 0.960 . S
C1159 C1156 1.511 1_655 S
C1159 H1173 0.961 . S
C1159 H1174 0.961 1_655 S
C1159 H1175 0.961 . S
C1160 C1161 1.370 . S
C1160 C1162 1.363 . S
C1160 H1176 0.931 . S
C1161 C1160 1.370 . S
C1161 C1165 1.408 . S
C1162 C1160 1.363 . S
C1162 C1163 1.370 . S
C1162 C1166 1.524 . S
C1163 C1155 1.503 . S
C1163 C1162 1.370 . S
C1163 C1164 1.403 . S
C1164 C1163 1.403 . S
C1164 C1165 1.404 . S
C1164 C1167 1.539 . S
C1165 C1161 1.408 . S
C1165 C1164 1.404 . S
C1165 H1177 0.930 . S
C1166 C1162 1.524 . S
C1166 H1178 0.956 . S
C1166 H1179 0.961 . S
C1166 H1180 0.961 . S
C1167 C1164 1.539 . S
C1167 H1181 0.958 . S
C1167 H1182 0.961 . S
C1167 H1183 0.960 . S
H1168 C1152 0.931 . S
H1169 C1157 0.929 . S
H1170 C1158 0.960 . S
H1171 C1158 0.962 . S
H1172 C1158 0.960 . S
H1173 C1159 0.961 . S
H1174 C1159 0.961 1_455 S
H1175 C1159 0.961 . S
H1176 C1160 0.931 . S
H1177 C1165 0.930 . S
H1178 C1166 0.956 . S
H1179 C1166 0.961 . S
H1180 C1166 0.961 . S
H1181 C1167 0.958 . S
H1182 C1167 0.961 . S
H1183 C1167 0.960 . S
C1184 C1185 1.391 . S
C1184 C1186 1.394 . S
C1184 H1200 0.931 . S
C1185 C1184 1.391 . S
C1185 C1189 1.376 . S
C1186 C1184 1.394 . S
C1186 C1187 1.369 . S
C1186 C1190 1.531 . S
C1187 C1186 1.369 . S
C1187 C1188 1.410 . S
C1187 C1195 1.503 . S
C1188 C1187 1.410 . S
C1188 C1189 1.392 . S
C1188 C1191 1.511 . S
C1189 C1185 1.376 . S
C1189 C1188 1.392 . S
C1189 H1201 0.929 . S
C1190 C1186 1.531 . S
C1190 H1202 0.960 . S
C1190 H1203 0.962 . S
C1190 H1204 0.921 1_545 S
C1191 C1188 1.511 . S
C1191 H1205 0.961 . S
C1191 H1206 0.961 . S
C1191 H1207 0.961 . S
C1192 C1193 1.370 . S
C1192 C1194 1.363 . S
C1192 H1208 0.931 . S
C1193 C1192 1.370 . S
C1193 C1197 1.408 . S
C1194 C1192 1.363 . S
C1194 C1195 1.370 . S
C1194 C1198 1.524 . S
C1195 C1187 1.503 . S
C1195 C1194 1.370 . S
C1195 C1196 1.403 . S
C1196 C1195 1.403 . S
C1196 C1197 1.404 . S
C1196 C1199 1.536 1_545 S
C1197 C1193 1.408 . S
C1197 C1196 1.404 . S
C1197 H1209 0.930 . S
C1198 C1194 1.524 . S
C1198 H1210 0.956 . S
C1198 H1211 0.961 . S
C1198 H1212 0.961 . S
C1199 C1196 1.536 1_565 S
C1199 H1213 0.966 . S
C1199 H1214 0.960 . S
C1199 H1215 0.956 1_565 S
H1200 C1184 0.931 . S
H1201 C1189 0.929 . S
H1202 C1190 0.960 . S
H1203 C1190 0.962 . S
H1204 C1190 0.921 1_565 S
H1205 C1191 0.961 . S
H1206 C1191 0.961 . S
H1207 C1191 0.961 . S
H1208 C1192 0.931 . S
H1209 C1197 0.930 . S
H1210 C1198 0.956 . S
H1211 C1198 0.961 . S
H1212 C1198 0.961 . S
H1213 C1199 0.966 . S
H1214 C1199 0.960 . S
H1215 C1199 0.956 1_545 S
C1216 C1217 1.391 . S
C1216 C1218 1.394 . S
C1216 H1232 0.931 . S
C1217 C1216 1.391 . S
C1217 C1221 1.376 . S
C1218 C1216 1.394 . S
C1218 C1219 1.369 . S
C1218 C1222 1.531 . S
C1219 C1218 1.369 . S
C1219 C1220 1.410 . S
C1219 C1227 1.503 . S
C1220 C1219 1.410 . S
C1220 C1221 1.392 . S
C1220 C1223 1.511 . S
C1221 C1217 1.376 . S
C1221 C1220 1.392 . S
C1221 H1233 0.929 . S
C1222 C1218 1.531 . S
C1222 H1234 0.960 . S
C1222 H1235 0.962 . S
C1222 H1236 0.960 . S
C1223 C1220 1.511 . S
C1223 H1237 0.961 . S
C1223 H1238 0.961 . S
C1223 H1239 0.961 . S
C1224 C1225 1.370 . S
C1224 C1226 1.363 . S
C1224 H1240 0.931 . S
C1225 C1224 1.370 . S
C1225 C1229 1.408 . S
C1226 C1224 1.363 . S
C1226 C1227 1.370 . S
C1226 C1230 1.524 . S
C1227 C1219 1.503 . S
C1227 C1226 1.370 . S
C1227 C1228 1.403 . S
C1228 C1227 1.403 . S
C1228 C1229 1.404 . S
C1228 C1231 1.539 . S
C1229 C1225 1.408 . S
C1229 C1228 1.404 . S
C1229 H1241 0.930 . S
C1230 C1226 1.524 . S
C1230 H1242 0.956 . S
C1230 H1243 0.961 . S
C1230 H1244 0.961 . S
C1231 C1228 1.539 . S
C1231 H1245 0.958 . S
C1231 H1246 0.961 . S
C1231 H1247 0.960 . S
H1232 C1216 0.931 . S
H1233 C1221 0.929 . S
H1234 C1222 0.960 . S
H1235 C1222 0.962 . S
H1236 C1222 0.960 . S
H1237 C1223 0.961 . S
H1238 C1223 0.961 . S
H1239 C1223 0.961 . S
H1240 C1224 0.931 . S
H1241 C1229 0.930 . S
H1242 C1230 0.956 . S
H1243 C1230 0.961 . S
H1244 C1230 0.961 . S
H1245 C1231 0.958 . S
H1246 C1231 0.961 . S
H1247 C1231 0.960 . S
C1248 C1249 1.391 . S
C1248 C1250 1.394 . S
C1248 H1264 0.931 . S
C1249 C1248 1.391 . S
C1249 C1253 1.376 . S
C1250 C1248 1.394 . S
C1250 C1251 1.369 . S
C1250 C1254 1.531 . S
C1251 C1250 1.369 . S
C1251 C1252 1.410 . S
C1251 C1259 1.503 . S
C1252 C1251 1.410 . S
C1252 C1253 1.392 . S
C1252 C1255 1.511 . S
C1253 C1249 1.376 . S
C1253 C1252 1.392 . S
C1253 H1265 0.929 . S
C1254 C1250 1.531 . S
C1254 H1266 0.960 . S
C1254 H1267 0.962 . S
C1254 H1268 0.960 . S
C1255 C1252 1.511 . S
C1255 H1269 0.961 . S
C1255 H1270 0.961 . S
C1255 H1271 0.961 . S
C1256 C1257 1.370 . S
C1256 C1258 1.363 . S
C1256 H1272 0.931 . S
C1257 C1256 1.370 . S
C1257 C1261 1.408 . S
C1258 C1256 1.363 . S
C1258 C1259 1.370 . S
C1258 C1262 1.524 . S
C1259 C1251 1.503 . S
C1259 C1258 1.370 . S
C1259 C1260 1.403 . S
C1260 C1259 1.403 . S
C1260 C1261 1.404 . S
C1260 C1263 1.539 . S
C1261 C1257 1.408 . S
C1261 C1260 1.404 . S
C1261 H1273 0.930 . S
C1262 C1258 1.524 . S
C1262 H1274 0.956 . S
C1262 H1275 0.961 . S
C1262 H1276 0.961 . S
C1263 C1260 1.539 . S
C1263 H1277 0.958 . S
C1263 H1278 0.961 . S
C1263 H1279 0.960 . S
H1264 C1248 0.931 . S
H1265 C1253 0.929 . S
H1266 C1254 0.960 . S
H1267 C1254 0.962 . S
H1268 C1254 0.960 . S
H1269 C1255 0.961 . S
H1270 C1255 0.961 . S
H1271 C1255 0.961 . S
H1272 C1256 0.931 . S
H1273 C1261 0.930 . S
H1274 C1262 0.956 . S
H1275 C1262 0.961 . S
H1276 C1262 0.961 . S
H1277 C1263 0.958 . S
H1278 C1263 0.961 . S
H1279 C1263 0.960 . S
C1280 C1281 1.391 . S
C1280 C1282 1.394 . S
C1280 H1296 0.931 . S
C1281 C1280 1.391 . S
C1281 C1285 1.376 . S
C1282 C1280 1.394 . S
C1282 C1283 1.369 . S
C1282 C1286 1.531 . S
C1283 C1282 1.369 . S
C1283 C1284 1.410 . S
C1283 C1291 1.503 . S
C1284 C1283 1.410 . S
C1284 C1285 1.392 . S
C1284 C1287 1.511 . S
C1285 C1281 1.376 . S
C1285 C1284 1.392 . S
C1285 H1297 0.929 . S
C1286 C1282 1.531 . S
C1286 H1298 0.960 . S
C1286 H1299 0.962 . S
C1286 H1300 0.960 . S
C1287 C1284 1.511 . S
C1287 H1301 0.961 . S
C1287 H1302 0.961 . S
C1287 H1303 0.961 . S
C1288 C1289 1.370 . S
C1288 C1290 1.363 . S
C1288 H1304 0.931 . S
C1289 C1288 1.370 . S
C1289 C1293 1.408 . S
C1290 C1288 1.363 . S
C1290 C1291 1.370 . S
C1290 C1294 1.524 . S
C1291 C1283 1.503 . S
C1291 C1290 1.370 . S
C1291 C1292 1.403 . S
C1292 C1291 1.403 . S
C1292 C1293 1.404 . S
C1292 C1295 1.539 . S
C1293 C1289 1.408 . S
C1293 C1292 1.404 . S
C1293 H1305 0.930 . S
C1294 C1290 1.524 . S
C1294 H1306 0.956 . S
C1294 H1307 0.961 . S
C1294 H1308 0.961 . S
C1295 C1292 1.539 . S
C1295 H1309 0.958 . S
C1295 H1310 0.961 . S
C1295 H1311 0.960 . S
H1296 C1280 0.931 . S
H1297 C1285 0.929 . S
H1298 C1286 0.960 . S
H1299 C1286 0.962 . S
H1300 C1286 0.960 . S
H1301 C1287 0.961 . S
H1302 C1287 0.961 . S
H1303 C1287 0.961 . S
H1304 C1288 0.931 . S
H1305 C1293 0.930 . S
H1306 C1294 0.956 . S
H1307 C1294 0.961 . S
H1308 C1294 0.961 . S
H1309 C1295 0.958 . S
H1310 C1295 0.961 . S
H1311 C1295 0.960 . S
C1312 C1313 1.391 . S
C1312 C1314 1.394 . S
C1312 H1328 0.931 . S
C1313 C1312 1.391 . S
C1313 C1317 1.376 . S
C1314 C1312 1.394 . S
C1314 C1315 1.369 . S
C1314 C1318 1.531 . S
C1315 C1314 1.369 . S
C1315 C1316 1.410 . S
C1315 C1323 1.503 . S
C1316 C1315 1.410 . S
C1316 C1317 1.392 . S
C1316 C1319 1.511 . S
C1317 C1313 1.376 . S
C1317 C1316 1.392 . S
C1317 H1329 0.929 . S
C1318 C1314 1.531 . S
C1318 H1330 0.960 . S
C1318 H1331 0.962 . S
C1318 H1332 0.960 . S
C1319 C1316 1.511 . S
C1319 H1333 0.961 . S
C1319 H1334 0.961 . S
C1319 H1335 0.961 . S
C1320 C1321 1.370 . S
C1320 C1322 1.363 . S
C1320 H1336 0.931 . S
C1321 C1320 1.370 . S
C1321 C1325 1.408 . S
C1322 C1320 1.363 . S
C1322 C1323 1.370 . S
C1322 C1326 1.524 . S
C1323 C1315 1.503 . S
C1323 C1322 1.370 . S
C1323 C1324 1.403 . S
C1324 C1323 1.403 . S
C1324 C1325 1.404 . S
C1324 C1327 1.539 . S
C1325 C1321 1.408 . S
C1325 C1324 1.404 . S
C1325 H1337 0.930 . S
C1326 C1322 1.524 . S
C1326 H1338 0.956 . S
C1326 H1339 0.961 . S
C1326 H1340 0.961 . S
C1327 C1324 1.539 . S
C1327 H1341 0.958 . S
C1327 H1342 0.961 . S
C1327 H1343 0.960 . S
H1328 C1312 0.931 . S
H1329 C1317 0.929 . S
H1330 C1318 0.960 . S
H1331 C1318 0.962 . S
H1332 C1318 0.960 . S
H1333 C1319 0.961 . S
H1334 C1319 0.961 . S
H1335 C1319 0.961 . S
H1336 C1320 0.931 . S
H1337 C1325 0.930 . S
H1338 C1326 0.956 . S
H1339 C1326 0.961 . S
H1340 C1326 0.961 . S
H1341 C1327 0.958 . S
H1342 C1327 0.961 . S
H1343 C1327 0.960 . S
C1344 C1345 1.391 . S
C1344 C1346 1.394 . S
C1344 H1360 0.931 . S
C1345 C1344 1.391 . S
C1345 C1349 1.376 . S
C1346 C1344 1.394 . S
C1346 C1347 1.369 . S
C1346 C1350 1.531 . S
C1347 C1346 1.369 . S
C1347 C1348 1.410 . S
C1347 C1355 1.503 . S
C1348 C1347 1.410 . S
C1348 C1349 1.392 . S
C1348 C1351 1.511 . S
C1349 C1345 1.376 . S
C1349 C1348 1.392 . S
C1349 H1361 0.929 . S
C1350 C1346 1.531 . S
C1350 H1362 0.960 . S
C1350 H1363 0.962 . S
C1350 H1364 0.960 . S
C1351 C1348 1.511 . S
C1351 H1365 0.961 . S
C1351 H1366 0.961 . S
C1351 H1367 0.961 . S
C1352 C1353 1.370 . S
C1352 C1354 1.363 . S
C1352 H1368 0.931 . S
C1353 C1352 1.370 . S
C1353 C1357 1.408 . S
C1354 C1352 1.363 . S
C1354 C1355 1.370 . S
C1354 C1358 1.524 . S
C1355 C1347 1.503 . S
C1355 C1354 1.370 . S
C1355 C1356 1.403 . S
C1356 C1355 1.403 . S
C1356 C1357 1.404 . S
C1356 C1359 1.539 . S
C1357 C1353 1.408 . S
C1357 C1356 1.404 . S
C1357 H1369 0.930 . S
C1358 C1354 1.524 . S
C1358 H1370 0.956 . S
C1358 H1371 0.961 . S
C1358 H1372 0.961 . S
C1359 C1356 1.539 . S
C1359 H1373 0.958 . S
C1359 H1374 0.961 . S
C1359 H1375 0.960 . S
H1360 C1344 0.931 . S
H1361 C1349 0.929 . S
H1362 C1350 0.960 . S
H1363 C1350 0.962 . S
H1364 C1350 0.960 . S
H1365 C1351 0.961 . S
H1366 C1351 0.961 . S
H1367 C1351 0.961 . S
H1368 C1352 0.931 . S
H1369 C1357 0.930 . S
H1370 C1358 0.956 . S
H1371 C1358 0.961 . S
H1372 C1358 0.961 . S
H1373 C1359 0.958 . S
H1374 C1359 0.961 . S
H1375 C1359 0.960 . S
C1376 C1377 1.391 . S
C1376 C1378 1.394 . S
C1376 H1392 0.931 . S
C1377 C1376 1.391 . S
C1377 C1381 1.376 . S
C1378 C1376 1.394 . S
C1378 C1379 1.369 . S
C1378 C1382 1.531 . S
C1379 C1378 1.369 . S
C1379 C1380 1.410 . S
C1379 C1387 1.503 . S
C1380 C1379 1.410 . S
C1380 C1381 1.392 . S
C1380 C1383 1.511 . S
C1381 C1377 1.376 . S
C1381 C1380 1.392 . S
C1381 H1393 0.929 . S
C1382 C1378 1.531 . S
C1382 H1394 0.960 . S
C1382 H1395 0.962 . S
C1382 H1396 0.960 . S
C1383 C1380 1.511 . S
C1383 H1397 0.961 . S
C1383 H1398 0.961 . S
C1383 H1399 0.961 . S
C1384 C1385 1.370 . S
C1384 C1386 1.363 . S
C1384 H1400 0.931 . S
C1385 C1384 1.370 . S
C1385 C1389 1.408 . S
C1386 C1384 1.363 . S
C1386 C1387 1.370 . S
C1386 C1390 1.524 . S
C1387 C1379 1.503 . S
C1387 C1386 1.370 . S
C1387 C1388 1.403 . S
C1388 C1387 1.403 . S
C1388 C1389 1.404 . S
C1388 C1391 1.539 . S
C1389 C1385 1.408 . S
C1389 C1388 1.404 . S
C1389 H1401 0.930 . S
C1390 C1386 1.524 . S
C1390 H1402 0.956 . S
C1390 H1403 0.961 . S
C1390 H1404 0.961 . S
C1391 C1388 1.539 . S
C1391 H1405 0.958 . S
C1391 H1406 0.961 . S
C1391 H1407 0.960 . S
H1392 C1376 0.931 . S
H1393 C1381 0.929 . S
H1394 C1382 0.960 . S
H1395 C1382 0.962 . S
H1396 C1382 0.960 . S
H1397 C1383 0.961 . S
H1398 C1383 0.961 . S
H1399 C1383 0.961 . S
H1400 C1384 0.931 . S
H1401 C1389 0.930 . S
H1402 C1390 0.956 . S
H1403 C1390 0.961 . S
H1404 C1390 0.961 . S
H1405 C1391 0.958 . S
H1406 C1391 0.961 . S
H1407 C1391 0.960 . S
C1408 C1409 1.391 . S
C1408 C1410 1.394 . S
C1408 H1424 0.931 . S
C1409 C1408 1.391 . S
C1409 C1413 1.376 . S
C1410 C1408 1.394 . S
C1410 C1411 1.369 . S
C1410 C1414 1.531 . S
C1411 C1410 1.369 . S
C1411 C1412 1.410 . S
C1411 C1419 1.503 . S
C1412 C1411 1.410 . S
C1412 C1413 1.392 . S
C1412 C1415 1.511 . S
C1413 C1409 1.376 . S
C1413 C1412 1.392 . S
C1413 H1425 0.929 . S
C1414 C1410 1.531 . S
C1414 H1426 0.960 . S
C1414 H1427 0.962 . S
C1414 H1428 0.960 . S
C1415 C1412 1.511 . S
C1415 H1429 0.961 . S
C1415 H1430 0.961 . S
C1415 H1431 0.961 . S
C1416 C1417 1.370 . S
C1416 C1418 1.363 . S
C1416 H1432 0.931 . S
C1417 C1416 1.370 . S
C1417 C1421 1.408 . S
C1418 C1416 1.363 . S
C1418 C1419 1.370 . S
C1418 C1422 1.524 . S
C1419 C1411 1.503 . S
C1419 C1418 1.370 . S
C1419 C1420 1.403 . S
C1420 C1419 1.403 . S
C1420 C1421 1.404 . S
C1420 C1423 1.539 . S
C1421 C1417 1.408 . S
C1421 C1420 1.404 . S
C1421 H1433 0.930 . S
C1422 C1418 1.524 . S
C1422 H1434 0.956 . S
C1422 H1435 0.961 . S
C1422 H1436 0.961 . S
C1423 C1420 1.539 . S
C1423 H1437 0.958 . S
C1423 H1438 0.961 . S
C1423 H1439 0.960 . S
H1424 C1408 0.931 . S
H1425 C1413 0.929 . S
H1426 C1414 0.960 . S
H1427 C1414 0.962 . S
H1428 C1414 0.960 . S
H1429 C1415 0.961 . S
H1430 C1415 0.961 . S
H1431 C1415 0.961 . S
H1432 C1416 0.931 . S
H1433 C1421 0.930 . S
H1434 C1422 0.956 . S
H1435 C1422 0.961 . S
H1436 C1422 0.961 . S
H1437 C1423 0.958 . S
H1438 C1423 0.961 . S
H1439 C1423 0.960 . S
C1440 C1441 1.391 . S
C1440 C1442 1.394 . S
C1440 H1456 0.931 . S
C1441 C1440 1.391 . S
C1441 C1445 1.376 . S
C1442 C1440 1.394 . S
C1442 C1443 1.369 . S
C1442 C1446 1.531 . S
C1443 C1442 1.369 . S
C1443 C1444 1.410 . S
C1443 C1451 1.503 . S
C1444 C1443 1.410 . S
C1444 C1445 1.392 . S
C1444 C1447 1.511 . S
C1445 C1441 1.376 . S
C1445 C1444 1.392 . S
C1445 H1457 0.929 . S
C1446 C1442 1.531 . S
C1446 H1458 0.960 . S
C1446 H1459 0.962 . S
C1446 H1460 0.960 . S
C1447 C1444 1.511 . S
C1447 H1461 0.961 . S
C1447 H1462 0.961 . S
C1447 H1463 0.961 . S
C1448 C1449 1.370 . S
C1448 C1450 1.363 . S
C1448 H1464 0.931 . S
C1449 C1448 1.370 . S
C1449 C1453 1.408 . S
C1450 C1448 1.363 . S
C1450 C1451 1.370 . S
C1450 C1454 1.524 . S
C1451 C1443 1.503 . S
C1451 C1450 1.370 . S
C1451 C1452 1.403 . S
C1452 C1451 1.403 . S
C1452 C1453 1.404 . S
C1452 C1455 1.539 . S
C1453 C1449 1.408 . S
C1453 C1452 1.404 . S
C1453 H1465 0.930 . S
C1454 C1450 1.524 . S
C1454 H1466 0.956 . S
C1454 H1467 0.961 . S
C1454 H1468 0.961 . S
C1455 C1452 1.539 . S
C1455 H1469 0.958 . S
C1455 H1470 0.961 . S
C1455 H1471 0.960 . S
H1456 C1440 0.931 . S
H1457 C1445 0.929 . S
H1458 C1446 0.960 . S
H1459 C1446 0.962 . S
H1460 C1446 0.960 . S
H1461 C1447 0.961 . S
H1462 C1447 0.961 . S
H1463 C1447 0.961 . S
H1464 C1448 0.931 . S
H1465 C1453 0.930 . S
H1466 C1454 0.956 . S
H1467 C1454 0.961 . S
H1468 C1454 0.961 . S
H1469 C1455 0.958 . S
H1470 C1455 0.961 . S
H1471 C1455 0.960 . S
C1472 C1473 1.391 . S
C1472 C1474 1.394 . S
C1472 H1488 0.931 . S
C1473 C1472 1.391 . S
C1473 C1477 1.376 . S
C1474 C1472 1.394 . S
C1474 C1475 1.369 . S
C1474 C1478 1.531 . S
C1475 C1474 1.369 . S
C1475 C1476 1.410 . S
C1475 C1483 1.503 . S
C1476 C1475 1.410 . S
C1476 C1477 1.392 . S
C1476 C1479 1.511 . S
C1477 C1473 1.376 . S
C1477 C1476 1.392 . S
C1477 H1489 0.929 . S
C1478 C1474 1.531 . S
C1478 H1490 0.960 . S
C1478 H1491 0.962 . S
C1478 H1492 0.960 . S
C1479 C1476 1.511 . S
C1479 H1493 0.961 . S
C1479 H1494 0.961 . S
C1479 H1495 0.961 . S
C1480 C1481 1.370 . S
C1480 C1482 1.363 . S
C1480 H1496 0.931 . S
C1481 C1480 1.370 . S
C1481 C1485 1.408 . S
C1482 C1480 1.363 . S
C1482 C1483 1.370 . S
C1482 C1486 1.524 . S
C1483 C1475 1.503 . S
C1483 C1482 1.370 . S
C1483 C1484 1.403 . S
C1484 C1483 1.403 . S
C1484 C1485 1.404 . S
C1484 C1487 1.539 . S
C1485 C1481 1.408 . S
C1485 C1484 1.404 . S
C1485 H1497 0.930 . S
C1486 C1482 1.524 . S
C1486 H1498 0.956 . S
C1486 H1499 0.961 . S
C1486 H1500 0.961 . S
C1487 C1484 1.539 . S
C1487 H1501 0.958 . S
C1487 H1502 0.961 . S
C1487 H1503 0.960 . S
H1488 C1472 0.931 . S
H1489 C1477 0.929 . S
H1490 C1478 0.960 . S
H1491 C1478 0.962 . S
H1492 C1478 0.960 . S
H1493 C1479 0.961 . S
H1494 C1479 0.961 . S
H1495 C1479 0.961 . S
H1496 C1480 0.931 . S
H1497 C1485 0.930 . S
H1498 C1486 0.956 . S
H1499 C1486 0.961 . S
H1500 C1486 0.961 . S
H1501 C1487 0.958 . S
H1502 C1487 0.961 . S
H1503 C1487 0.960 . S
C1504 C1505 1.391 . S
C1504 C1506 1.394 . S
C1504 H1520 0.931 . S
C1505 C1504 1.391 . S
C1505 C1509 1.376 . S
C1506 C1504 1.394 . S
C1506 C1507 1.369 . S
C1506 C1510 1.531 . S
C1507 C1506 1.369 . S
C1507 C1508 1.410 . S
C1507 C1515 1.503 . S
C1508 C1507 1.410 . S
C1508 C1509 1.392 . S
C1508 C1511 1.511 . S
C1509 C1505 1.376 . S
C1509 C1508 1.392 . S
C1509 H1521 0.929 . S
C1510 C1506 1.531 . S
C1510 H1522 0.960 . S
C1510 H1523 0.962 . S
C1510 H1524 0.960 . S
C1511 C1508 1.511 . S
C1511 H1525 0.961 . S
C1511 H1526 0.961 . S
C1511 H1527 0.961 . S
C1512 C1513 1.370 . S
C1512 C1514 1.363 . S
C1512 H1528 0.931 . S
C1513 C1512 1.370 . S
C1513 C1517 1.408 . S
C1514 C1512 1.363 . S
C1514 C1515 1.370 . S
C1514 C1518 1.524 . S
C1515 C1507 1.503 . S
C1515 C1514 1.370 . S
C1515 C1516 1.403 . S
C1516 C1515 1.403 . S
C1516 C1517 1.404 . S
C1516 C1519 1.539 . S
C1517 C1513 1.408 . S
C1517 C1516 1.404 . S
C1517 H1529 0.930 . S
C1518 C1514 1.524 . S
C1518 H1530 0.956 . S
C1518 H1531 0.961 . S
C1518 H1532 0.961 . S
C1519 C1516 1.539 . S
C1519 H1533 0.958 . S
C1519 H1534 0.961 . S
C1519 H1535 0.960 . S
H1520 C1504 0.931 . S
H1521 C1509 0.929 . S
H1522 C1510 0.960 . S
H1523 C1510 0.962 . S
H1524 C1510 0.960 . S
H1525 C1511 0.961 . S
H1526 C1511 0.961 . S
H1527 C1511 0.961 . S
H1528 C1512 0.931 . S
H1529 C1517 0.930 . S
H1530 C1518 0.956 . S
H1531 C1518 0.961 . S
H1532 C1518 0.961 . S
H1533 C1519 0.958 . S
H1534 C1519 0.961 . S
H1535 C1519 0.960 . S
C1536 C1537 1.391 . S
C1536 C1538 1.394 . S
C1536 H1552 0.931 . S
C1537 C1536 1.391 . S
C1537 C1541 1.376 . S
C1538 C1536 1.394 . S
C1538 C1539 1.369 . S
C1538 C1542 1.531 . S
C1539 C1538 1.369 . S
C1539 C1540 1.410 . S
C1539 C1547 1.503 . S
C1540 C1539 1.410 . S
C1540 C1541 1.392 . S
C1540 C1543 1.511 . S
C1541 C1537 1.376 . S
C1541 C1540 1.392 . S
C1541 H1553 0.929 . S
C1542 C1538 1.531 . S
C1542 H1554 0.960 . S
C1542 H1555 0.962 . S
C1542 H1556 0.960 . S
C1543 C1540 1.511 . S
C1543 H1557 0.961 . S
C1543 H1558 0.961 . S
C1543 H1559 0.961 . S
C1544 C1545 1.370 . S
C1544 C1546 1.363 . S
C1544 H1560 0.931 . S
C1545 C1544 1.370 . S
C1545 C1549 1.408 . S
C1546 C1544 1.363 . S
C1546 C1547 1.370 . S
C1546 C1550 1.524 . S
C1547 C1539 1.503 . S
C1547 C1546 1.370 . S
C1547 C1548 1.403 . S
C1548 C1547 1.403 . S
C1548 C1549 1.404 . S
C1548 C1551 1.539 . S
C1549 C1545 1.408 . S
C1549 C1548 1.404 . S
C1549 H1561 0.930 . S
C1550 C1546 1.524 . S
C1550 H1562 0.956 . S
C1550 H1563 0.961 . S
C1550 H1564 0.961 . S
C1551 C1548 1.539 . S
C1551 H1565 0.958 . S
C1551 H1566 0.961 . S
C1551 H1567 0.960 . S
H1552 C1536 0.931 . S
H1553 C1541 0.929 . S
H1554 C1542 0.960 . S
H1555 C1542 0.962 . S
H1556 C1542 0.960 . S
H1557 C1543 0.961 . S
H1558 C1543 0.961 . S
H1559 C1543 0.961 . S
H1560 C1544 0.931 . S
H1561 C1549 0.930 . S
H1562 C1550 0.956 . S
H1563 C1550 0.961 . S
H1564 C1550 0.961 . S
H1565 C1551 0.958 . S
H1566 C1551 0.961 . S
H1567 C1551 0.960 . S
C1568 C1569 1.391 . S
C1568 C1570 1.394 . S
C1568 H1584 0.931 . S
C1569 C1568 1.391 . S
C1569 C1573 1.376 . S
C1570 C1568 1.394 . S
C1570 C1571 1.369 . S
C1570 C1574 1.531 . S
C1571 C1570 1.369 . S
C1571 C1572 1.410 . S
C1571 C1579 1.503 . S
C1572 C1571 1.410 . S
C1572 C1573 1.392 . S
C1572 C1575 1.511 . S
C1573 C1569 1.376 . S
C1573 C1572 1.392 . S
C1573 H1585 0.929 . S
C1574 C1570 1.531 . S
C1574 H1586 0.960 . S
C1574 H1587 0.962 . S
C1574 H1588 0.960 . S
C1575 C1572 1.511 . S
C1575 H1589 0.961 . S
C1575 H1590 0.961 . S
C1575 H1591 0.961 . S
C1576 C1577 1.370 . S
C1576 C1578 1.363 . S
C1576 H1592 0.931 . S
C1577 C1576 1.370 . S
C1577 C1581 1.408 . S
C1578 C1576 1.363 . S
C1578 C1579 1.370 . S
C1578 C1582 1.524 . S
C1579 C1571 1.503 . S
C1579 C1578 1.370 . S
C1579 C1580 1.403 . S
C1580 C1579 1.403 . S
C1580 C1581 1.404 . S
C1580 C1583 1.539 . S
C1581 C1577 1.408 . S
C1581 C1580 1.404 . S
C1581 H1593 0.930 . S
C1582 C1578 1.524 . S
C1582 H1594 0.956 . S
C1582 H1595 0.961 . S
C1582 H1596 0.961 . S
C1583 C1580 1.539 . S
C1583 H1597 0.958 . S
C1583 H1598 0.961 . S
C1583 H1599 0.960 . S
H1584 C1568 0.931 . S
H1585 C1573 0.929 . S
H1586 C1574 0.960 . S
H1587 C1574 0.962 . S
H1588 C1574 0.960 . S
H1589 C1575 0.961 . S
H1590 C1575 0.961 . S
H1591 C1575 0.961 . S
H1592 C1576 0.931 . S
H1593 C1581 0.930 . S
H1594 C1582 0.956 . S
H1595 C1582 0.961 . S
H1596 C1582 0.961 . S
H1597 C1583 0.958 . S
H1598 C1583 0.961 . S
H1599 C1583 0.960 . S
C1600 C1601 1.391 . S
C1600 C1602 1.394 . S
C1600 H1616 0.931 . S
C1601 C1600 1.391 . S
C1601 C1605 1.376 . S
C1602 C1600 1.394 . S
C1602 C1603 1.369 . S
C1602 C1606 1.531 . S
C1603 C1602 1.369 . S
C1603 C1604 1.410 . S
C1603 C1611 1.503 . S
C1604 C1603 1.410 . S
C1604 C1605 1.392 . S
C1604 C1607 1.511 . S
C1605 C1601 1.376 . S
C1605 C1604 1.392 . S
C1605 H1617 0.929 . S
C1606 C1602 1.531 . S
C1606 H1618 0.960 . S
C1606 H1619 0.962 . S
C1606 H1620 0.960 . S
C1607 C1604 1.511 . S
C1607 H1621 0.961 . S
C1607 H1622 0.961 . S
C1607 H1623 0.961 . S
C1608 C1609 1.370 . S
C1608 C1610 1.363 . S
C1608 H1624 0.931 . S
C1609 C1608 1.370 . S
C1609 C1613 1.408 . S
C1610 C1608 1.363 . S
C1610 C1611 1.370 . S
C1610 C1614 1.524 . S
C1611 C1603 1.503 . S
C1611 C1610 1.370 . S
C1611 C1612 1.403 . S
C1612 C1611 1.403 . S
C1612 C1613 1.404 . S
C1612 C1615 1.539 . S
C1613 C1609 1.408 . S
C1613 C1612 1.404 . S
C1613 H1625 0.930 . S
C1614 C1610 1.524 . S
C1614 H1626 0.956 . S
C1614 H1627 0.961 . S
C1614 H1628 0.961 . S
C1615 C1612 1.539 . S
C1615 H1629 0.958 . S
C1615 H1630 0.961 . S
C1615 H1631 0.960 . S
H1616 C1600 0.931 . S
H1617 C1605 0.929 . S
H1618 C1606 0.960 . S
H1619 C1606 0.962 . S
H1620 C1606 0.960 . S
H1621 C1607 0.961 . S
H1622 C1607 0.961 . S
H1623 C1607 0.961 . S
H1624 C1608 0.931 . S
H1625 C1613 0.930 . S
H1626 C1614 0.956 . S
H1627 C1614 0.961 . S
H1628 C1614 0.961 . S
H1629 C1615 0.958 . S
H1630 C1615 0.961 . S
H1631 C1615 0.960 . S
C1632 C1633 1.391 . S
C1632 C1634 1.394 1_565 S
C1632 H1648 0.931 . S
C1633 C1632 1.391 . S
C1633 C1637 1.376 . S
C1634 C1632 1.394 1_545 S
C1634 C1635 1.369 . S
C1634 C1638 1.531 . S
C1635 C1634 1.369 . S
C1635 C1636 1.410 1_545 S
C1635 C1643 1.503 1_556 S
C1636 C1635 1.410 1_565 S
C1636 C1637 1.392 . S
C1636 C1639 1.511 . S
C1637 C1633 1.376 . S
C1637 C1636 1.392 . S
C1637 H1649 0.929 . S
C1638 C1634 1.531 . S
C1638 H1650 0.960 . S
C1638 H1651 0.962 . S
C1638 H1652 0.960 . S
C1639 C1636 1.511 . S
C1639 H1653 0.961 . S
C1639 H1654 0.961 1_556 S
C1639 H1655 0.917 1_565 S
C1640 C1641 1.370 1_565 S
C1640 C1642 1.363 . S
C1640 H1656 0.931 . S
C1641 C1640 1.370 1_545 S
C1641 C1645 1.408 . S
C1642 C1640 1.363 . S
C1642 C1643 1.370 1_565 S
C1642 C1646 1.524 . S
C1643 C1635 1.503 1_554 S
C1643 C1642 1.370 1_545 S
C1643 C1644 1.403 . S
C1644 C1643 1.403 . S
C1644 C1645 1.404 . S
C1644 C1647 1.570 . S
C1645 C1641 1.408 . S
C1645 C1644 1.404 . S
C1645 H1657 0.930 . S
C1646 C1642 1.524 . S
C1646 H1658 0.956 . S
C1646 H1659 0.961 . S
C1646 H1660 0.961 . S
C1647 C1644 1.570 . S
C1647 H1661 0.944 1_554 S
C1647 H1662 0.983 . S
C1647 H1663 0.923 1_554 S
H1648 C1632 0.931 . S
H1649 C1637 0.929 . S
H1650 C1638 0.960 . S
H1651 C1638 0.962 . S
H1652 C1638 0.960 . S
H1653 C1639 0.961 . S
H1654 C1639 0.961 1_554 S
H1655 C1639 0.917 1_545 S
H1656 C1640 0.931 . S
H1657 C1645 0.930 . S
H1658 C1646 0.956 . S
H1659 C1646 0.961 . S
H1660 C1646 0.961 . S
H1661 C1647 0.944 1_556 S
H1662 C1647 0.983 . S
H1663 C1647 0.923 1_556 S
C1664 C1665 1.391 . S
C1664 C1666 1.394 . S
C1664 H1680 0.931 . S
C1665 C1664 1.391 . S
C1665 C1669 1.376 . S
C1666 C1664 1.394 . S
C1666 C1667 1.369 . S
C1666 C1670 1.531 . S
C1667 C1666 1.369 . S
C1667 C1668 1.410 . S
C1667 C1675 1.503 . S
C1668 C1667 1.410 . S
C1668 C1669 1.392 . S
C1668 C1671 1.511 . S
C1669 C1665 1.376 . S
C1669 C1668 1.392 . S
C1669 H1681 0.929 . S
C1670 C1666 1.531 . S
C1670 H1682 0.960 . S
C1670 H1683 0.962 . S
C1670 H1684 0.960 . S
C1671 C1668 1.511 . S
C1671 H1685 0.961 . S
C1671 H1686 0.961 . S
C1671 H1687 0.961 . S
C1672 C1673 1.370 . S
C1672 C1674 1.363 . S
C1672 H1688 0.931 . S
C1673 C1672 1.370 . S
C1673 C1677 1.408 . S
C1674 C1672 1.363 . S
C1674 C1675 1.370 . S
C1674 C1678 1.524 . S
C1675 C1667 1.503 . S
C1675 C1674 1.370 . S
C1675 C1676 1.403 . S
C1676 C1675 1.403 . S
C1676 C1677 1.404 . S
C1676 C1679 1.539 . S
C1677 C1673 1.408 . S
C1677 C1676 1.404 . S
C1677 H1689 0.930 . S
C1678 C1674 1.524 . S
C1678 H1690 0.956 . S
C1678 H1691 0.961 . S
C1678 H1692 0.961 . S
C1679 C1676 1.539 . S
C1679 H1693 0.958 . S
C1679 H1694 0.961 . S
C1679 H1695 0.960 . S
H1680 C1664 0.931 . S
H1681 C1669 0.929 . S
H1682 C1670 0.960 . S
H1683 C1670 0.962 . S
H1684 C1670 0.960 . S
H1685 C1671 0.961 . S
H1686 C1671 0.961 . S
H1687 C1671 0.961 . S
H1688 C1672 0.931 . S
H1689 C1677 0.930 . S
H1690 C1678 0.956 . S
H1691 C1678 0.961 . S
H1692 C1678 0.961 . S
H1693 C1679 0.958 . S
H1694 C1679 0.961 . S
H1695 C1679 0.960 . S
C1696 C1697 1.391 1_655 S
C1696 C1698 1.394 . S
C1696 H1712 0.931 . S
C1697 C1696 1.391 1_455 S
C1697 C1701 1.376 . S
C1698 C1696 1.394 . S
C1698 C1699 1.369 1_655 S
C1698 C1702 1.531 . S
C1699 C1698 1.369 1_455 S
C1699 C1700 1.410 . S
C1699 C1707 1.503 1_456 S
C1700 C1699 1.410 . S
C1700 C1701 1.392 . S
C1700 C1703 1.504 1_556 S
C1701 C1697 1.376 . S
C1701 C1700 1.392 . S
C1701 H1713 0.929 . S
C1702 C1698 1.531 . S
C1702 H1714 0.960 . S
C1702 H1715 0.962 . S
C1702 H1716 0.960 . S
C1703 C1700 1.504 1_554 S
C1703 H1717 0.958 1_554 S
C1703 H1718 0.970 . S
C1703 H1719 0.962 . S
C1704 C1705 1.370 . S
C1704 C1706 1.363 . S
C1704 H1720 0.931 . S
C1705 C1704 1.370 . S
C1705 C1709 1.408 . S
C1706 C1704 1.363 . S
C1706 C1707 1.370 . S
C1706 C1710 1.524 1_655 S
C1707 C1699 1.503 1_654 S
C1707 C1706 1.370 . S
C1707 C1708 1.403 . S
C1708 C1707 1.403 . S
C1708 C1709 1.404 . S
C1708 C1711 1.539 . S
C1709 C1705 1.408 . S
C1709 C1708 1.404 . S
C1709 H1721 0.930 . S
C1710 C1706 1.524 1_455 S
C1710 H1722 0.965 1_455 S
C1710 H1723 0.961 . S
C1710 H1724 0.961 . S
C1711 C1708 1.539 . S
C1711 H1725 0.958 . S
C1711 H1726 0.961 . S
C1711 H1727 0.960 1_554 S
H1712 C1696 0.931 . S
H1713 C1701 0.929 . S
H1714 C1702 0.960 . S
H1715 C1702 0.962 . S
H1716 C1702 0.960 . S
H1717 C1703 0.958 1_556 S
H1718 C1703 0.970 . S
H1719 C1703 0.962 . S
H1720 C1704 0.931 . S
H1721 C1709 0.930 . S
H1722 C1710 0.965 1_655 S
H1723 C1710 0.961 . S
H1724 C1710 0.961 . S
H1725 C1711 0.958 . S
H1726 C1711 0.961 . S
H1727 C1711 0.960 1_556 S
C1728 C1729 1.391 . S
C1728 C1730 1.394 . S
C1728 H1744 0.931 . S
C1729 C1728 1.391 . S
C1729 C1733 1.376 . S
C1730 C1728 1.394 . S
C1730 C1731 1.369 . S
C1730 C1734 1.531 . S
C1731 C1730 1.369 . S
C1731 C1732 1.410 1_545 S
C1731 C1739 1.503 1_545 S
C1732 C1731 1.410 1_565 S
C1732 C1733 1.392 1_565 S
C1732 C1735 1.511 . S
C1733 C1729 1.376 . S
C1733 C1732 1.392 1_545 S
C1733 H1745 0.929 1_545 S
C1734 C1730 1.531 . S
C1734 H1746 0.960 . S
C1734 H1747 0.962 . S
C1734 H1748 0.960 . S
C1735 C1732 1.511 . S
C1735 H1749 0.961 . S
C1735 H1750 0.961 . S
C1735 H1751 0.961 . S
C1736 C1737 1.370 . S
C1736 C1738 1.363 . S
C1736 H1752 0.931 . S
C1737 C1736 1.370 . S
C1737 C1741 1.415 . S
C1738 C1736 1.363 . S
C1738 C1739 1.370 . S
C1738 C1742 1.524 . S
C1739 C1731 1.503 1_565 S
C1739 C1738 1.370 . S
C1739 C1740 1.403 1_565 S
C1740 C1739 1.403 1_545 S
C1740 C1741 1.402 1_545 S
C1740 C1743 1.539 . S
C1741 C1737 1.415 . S
C1741 C1740 1.402 1_565 S
C1741 H1753 0.925 1_565 S
C1742 C1738 1.524 . S
C1742 H1754 0.956 . S
C1742 H1755 0.961 . S
C1742 H1756 0.961 . S
C1743 C1740 1.539 . S
C1743 H1757 0.958 . S
C1743 H1758 0.961 . S
C1743 H1759 0.960 . S
H1744 C1728 0.931 . S
H1745 C1733 0.929 1_565 S
H1746 C1734 0.960 . S
H1747 C1734 0.962 . S
H1748 C1734 0.960 . S
H1749 C1735 0.961 . S
H1750 C1735 0.961 . S
H1751 C1735 0.961 . S
H1752 C1736 0.931 . S
H1753 C1741 0.925 1_545 S
H1754 C1742 0.956 . S
H1755 C1742 0.961 . S
H1756 C1742 0.961 . S
H1757 C1743 0.958 . S
H1758 C1743 0.961 . S
H1759 C1743 0.960 . S
C1760 C1761 1.391 . S
C1760 C1762 1.394 . S
C1760 H1776 0.931 . S
C1761 C1760 1.391 . S
C1761 C1765 1.376 . S
C1762 C1760 1.394 . S
C1762 C1763 1.369 . S
C1762 C1766 1.531 . S
C1763 C1762 1.369 . S
C1763 C1764 1.410 . S
C1763 C1771 1.503 1_554 S
C1764 C1763 1.410 . S
C1764 C1765 1.392 . S
C1764 C1767 1.511 . S
C1765 C1761 1.376 . S
C1765 C1764 1.392 . S
C1765 H1777 0.929 . S
C1766 C1762 1.531 . S
C1766 H1778 0.960 . S
C1766 H1779 0.962 . S
C1766 H1780 0.960 . S
C1767 C1764 1.511 . S
C1767 H1781 0.961 . S
C1767 H1782 0.961 1_554 S
C1767 H1783 0.961 . S
C1768 C1769 1.370 . S
C1768 C1770 1.363 . S
C1768 H1784 0.931 . S
C1769 C1768 1.370 . S
C1769 C1773 1.408 . S
C1770 C1768 1.363 . S
C1770 C1771 1.370 . S
C1770 C1774 1.524 . S
C1771 C1763 1.503 1_556 S
C1771 C1770 1.370 . S
C1771 C1772 1.403 . S
C1772 C1771 1.403 . S
C1772 C1773 1.404 . S
C1772 C1775 1.539 . S
C1773 C1769 1.408 . S
C1773 C1772 1.404 . S
C1773 H1785 0.930 . S
C1774 C1770 1.524 . S
C1774 H1786 0.956 . S
C1774 H1787 0.961 . S
C1774 H1788 0.961 . S
C1775 C1772 1.539 . S
C1775 H1789 0.958 1_556 S
C1775 H1790 0.961 . S
C1775 H1791 0.960 1_556 S
H1776 C1760 0.931 . S
H1777 C1765 0.929 . S
H1778 C1766 0.960 . S
H1779 C1766 0.962 . S
H1780 C1766 0.960 . S
H1781 C1767 0.961 . S
H1782 C1767 0.961 1_556 S
H1783 C1767 0.961 . S
H1784 C1768 0.931 . S
H1785 C1773 0.930 . S
H1786 C1774 0.956 . S
H1787 C1774 0.961 . S
H1788 C1774 0.961 . S
H1789 C1775 0.958 1_554 S
H1790 C1775 0.961 . S
H1791 C1775 0.960 1_554 S
C1792 C1793 1.391 . S
C1792 C1794 1.394 . S
C1792 H1808 0.931 . S
C1793 C1792 1.391 . S
C1793 C1797 1.376 . S
C1794 C1792 1.394 . S
C1794 C1795 1.369 . S
C1794 C1798 1.531 1_455 S
C1795 C1794 1.369 . S
C1795 C1796 1.410 . S
C1795 C1803 1.493 1_455 S
C1796 C1795 1.410 . S
C1796 C1797 1.392 . S
C1796 C1799 1.511 . S
C1797 C1793 1.376 . S
C1797 C1796 1.392 . S
C1797 H1809 0.929 . S
C1798 C1794 1.531 1_655 S
C1798 H1810 0.960 . S
C1798 H1811 0.962 . S
C1798 H1812 0.960 . S
C1799 C1796 1.511 . S
C1799 H1813 0.961 . S
C1799 H1814 0.961 . S
C1799 H1815 0.961 . S
C1800 C1801 1.370 . S
C1800 C1802 1.363 . S
C1800 H1816 0.931 . S
C1801 C1800 1.370 . S
C1801 C1805 1.408 1_655 S
C1802 C1800 1.363 . S
C1802 C1803 1.392 . S
C1802 C1806 1.524 . S
C1803 C1795 1.493 1_655 S
C1803 C1802 1.392 . S
C1803 C1804 1.393 1_655 S
C1804 C1803 1.393 1_455 S
C1804 C1805 1.404 . S
C1804 C1807 1.539 . S
C1805 C1801 1.408 1_455 S
C1805 C1804 1.404 . S
C1805 H1817 0.930 . S
C1806 C1802 1.524 . S
C1806 H1818 0.956 . S
C1806 H1819 0.961 . S
C1806 H1820 0.961 . S
C1807 C1804 1.539 . S
C1807 H1821 0.958 . S
C1807 H1822 0.961 . S
C1807 H1823 0.960 . S
H1808 C1792 0.931 . S
H1809 C1797 0.929 . S
H1810 C1798 0.960 . S
H1811 C1798 0.962 . S
H1812 C1798 0.960 . S
H1813 C1799 0.961 . S
H1814 C1799 0.961 . S
H1815 C1799 0.961 . S
H1816 C1800 0.931 . S
H1817 C1805 0.930 . S
H1818 C1806 0.956 . S
H1819 C1806 0.961 . S
H1820 C1806 0.961 . S
H1821 C1807 0.958 . S
H1822 C1807 0.961 . S
H1823 C1807 0.960 . S
C1824 C1825 1.391 . S
C1824 C1826 1.394 . S
C1824 H1840 0.931 . S
C1825 C1824 1.391 . S
C1825 C1829 1.376 . S
C1826 C1824 1.394 . S
C1826 C1827 1.369 . S
C1826 C1830 1.531 . S
C1827 C1826 1.369 . S
C1827 C1828 1.410 1_565 S
C1827 C1835 1.503 1_566 S
C1828 C1827 1.410 1_545 S
C1828 C1829 1.392 1_545 S
C1828 C1831 1.511 . S
C1829 C1825 1.376 . S
C1829 C1828 1.392 1_565 S
C1829 H1841 0.929 1_565 S
C1830 C1826 1.531 . S
C1830 H1842 0.960 1_556 S
C1830 H1843 0.962 . S
C1830 H1844 0.960 . S
C1831 C1828 1.511 . S
C1831 H1845 0.961 . S
C1831 H1846 0.961 . S
C1831 H1847 0.961 . S
C1832 C1833 1.370 . S
C1832 C1834 1.363 . S
C1832 H1848 0.931 . S
C1833 C1832 1.370 . S
C1833 C1837 1.408 1_545 S
C1834 C1832 1.363 . S
C1834 C1835 1.370 . S
C1834 C1838 1.534 . S
C1835 C1827 1.503 1_544 S
C1835 C1834 1.370 . S
C1835 C1836 1.403 1_545 S
C1836 C1835 1.403 1_565 S
C1836 C1837 1.404 . S
C1836 C1839 1.539 . S
C1837 C1833 1.408 1_565 S
C1837 C1836 1.404 . S
C1837 H1849 0.930 . S
C1838 C1834 1.534 . S
C1838 H1850 0.951 1_554 S
C1838 H1851 0.950 1_554 S
C1838 H1852 0.966 . S
C1839 C1836 1.539 . S
C1839 H1853 0.958 . S
C1839 H1854 0.961 . S
C1839 H1855 0.960 . S
H1840 C1824 0.931 . S
H1841 C1829 0.929 1_545 S
H1842 C1830 0.960 1_554 S
H1843 C1830 0.962 . S
H1844 C1830 0.960 . S
H1845 C1831 0.961 . S
H1846 C1831 0.961 . S
H1847 C1831 0.961 . S
H1848 C1832 0.931 . S
H1849 C1837 0.930 . S
H1850 C1838 0.951 1_556 S
H1851 C1838 0.950 1_556 S
H1852 C1838 0.966 . S
H1853 C1839 0.958 . S
H1854 C1839 0.961 . S
H1855 C1839 0.960 . S
C1856 C1857 1.391 . S
C1856 C1858 1.394 . S
C1856 H1872 0.931 . S
C1857 C1856 1.391 . S
C1857 C1861 1.376 . S
C1858 C1856 1.394 . S
C1858 C1859 1.369 . S
C1858 C1862 1.531 . S
C1859 C1858 1.369 . S
C1859 C1860 1.410 . S
C1859 C1867 1.503 . S
C1860 C1859 1.410 . S
C1860 C1861 1.392 . S
C1860 C1863 1.511 . S
C1861 C1857 1.376 . S
C1861 C1860 1.392 . S
C1861 H1873 0.929 . S
C1862 C1858 1.531 . S
C1862 H1874 0.960 . S
C1862 H1875 0.962 . S
C1862 H1876 0.960 . S
C1863 C1860 1.511 . S
C1863 H1877 0.961 . S
C1863 H1878 0.961 . S
C1863 H1879 0.961 . S
C1864 C1865 1.370 . S
C1864 C1866 1.363 . S
C1864 H1880 0.931 . S
C1865 C1864 1.370 . S
C1865 C1869 1.408 . S
C1866 C1864 1.363 . S
C1866 C1867 1.370 . S
C1866 C1870 1.524 . S
C1867 C1859 1.503 . S
C1867 C1866 1.370 . S
C1867 C1868 1.403 . S
C1868 C1867 1.403 . S
C1868 C1869 1.404 . S
C1868 C1871 1.539 . S
C1869 C1865 1.408 . S
C1869 C1868 1.404 . S
C1869 H1881 0.930 . S
C1870 C1866 1.524 . S
C1870 H1882 0.956 . S
C1870 H1883 0.961 . S
C1870 H1884 0.961 . S
C1871 C1868 1.539 . S
C1871 H1885 0.958 . S
C1871 H1886 0.961 . S
C1871 H1887 0.960 . S
H1872 C1856 0.931 . S
H1873 C1861 0.929 . S
H1874 C1862 0.960 . S
H1875 C1862 0.962 . S
H1876 C1862 0.960 . S
H1877 C1863 0.961 . S
H1878 C1863 0.961 . S
H1879 C1863 0.961 . S
H1880 C1864 0.931 . S
H1881 C1869 0.930 . S
H1882 C1870 0.956 . S
H1883 C1870 0.961 . S
H1884 C1870 0.961 . S
H1885 C1871 0.958 . S
H1886 C1871 0.961 . S
H1887 C1871 0.960 . S
C1888 C1889 1.391 . S
C1888 C1890 1.394 . S
C1888 H1904 0.931 . S
C1889 C1888 1.391 . S
C1889 C1893 1.376 . S
C1890 C1888 1.394 . S
C1890 C1891 1.340 1_655 S
C1890 C1894 1.531 . S
C1891 C1890 1.340 1_455 S
C1891 C1892 1.430 . S
C1891 C1899 1.512 1_554 S
C1892 C1891 1.430 . S
C1892 C1893 1.392 1_455 S
C1892 C1895 1.511 . S
C1893 C1889 1.376 . S
C1893 C1892 1.392 1_655 S
C1893 H1905 0.913 1_655 S
C1894 C1890 1.531 . S
C1894 H1906 0.960 1_554 S
C1894 H1907 0.962 1_554 S
C1894 H1908 0.960 . S
C1895 C1892 1.511 . S
C1895 H1909 0.961 . S
C1895 H1910 0.961 . S
C1895 H1911 0.961 . S
C1896 C1897 1.370 1_655 S
C1896 C1898 1.363 . S
C1896 H1912 0.931 . S
C1897 C1896 1.370 1_455 S
C1897 C1901 1.408 . S
C1898 C1896 1.363 . S
C1898 C1899 1.370 1_655 S
C1898 C1902 1.524 . S
C1899 C1891 1.512 1_556 S
C1899 C1898 1.370 1_455 S
C1899 C1900 1.403 . S
C1900 C1899 1.403 . S
C1900 C1901 1.404 . S
C1900 C1903 1.539 . S
C1901 C1897 1.408 . S
C1901 C1900 1.404 . S
C1901 H1913 0.930 . S
C1902 C1898 1.524 . S
C1902 H1914 0.956 . S
C1902 H1915 0.961 . S
C1902 H1916 0.961 . S
C1903 C1900 1.539 . S
C1903 H1917 0.958 1_556 S
C1903 H1918 0.961 . S
C1903 H1919 0.960 1_556 S
H1904 C1888 0.931 . S
H1905 C1893 0.913 1_455 S
H1906 C1894 0.960 1_556 S
H1907 C1894 0.962 1_556 S
H1908 C1894 0.960 . S
H1909 C1895 0.961 . S
H1910 C1895 0.961 . S
H1911 C1895 0.961 . S
H1912 C1896 0.931 . S
H1913 C1901 0.930 . S
H1914 C1902 0.956 . S
H1915 C1902 0.961 . S
H1916 C1902 0.961 . S
H1917 C1903 0.958 1_554 S
H1918 C1903 0.961 . S
H1919 C1903 0.960 1_554 S
C1920 C1921 1.391 . S
C1920 C1922 1.394 . S
C1920 H1936 0.931 . S
C1921 C1920 1.391 . S
C1921 C1925 1.376 . S
C1922 C1920 1.394 . S
C1922 C1923 1.369 . S
C1922 C1926 1.531 . S
C1923 C1922 1.369 . S
C1923 C1924 1.410 . S
C1923 C1931 1.498 1_565 S
C1924 C1923 1.410 . S
C1924 C1925 1.392 . S
C1924 C1927 1.511 1_565 S
C1925 C1921 1.376 . S
C1925 C1924 1.392 . S
C1925 H1937 0.929 . S
C1926 C1922 1.531 . S
C1926 H1938 0.960 . S
C1926 H1939 0.962 . S
C1926 H1940 0.960 . S
C1927 C1924 1.511 1_545 S
C1927 H1941 0.961 . S
C1927 H1942 0.961 . S
C1927 H1943 0.961 1_545 S
C1928 C1929 1.370 . S
C1928 C1930 1.363 . S
C1928 H1944 0.931 . S
C1929 C1928 1.370 . S
C1929 C1933 1.408 1_545 S
C1930 C1928 1.363 . S
C1930 C1931 1.382 . S
C1930 C1934 1.524 . S
C1931 C1923 1.498 1_545 S
C1931 C1930 1.382 . S
C1931 C1932 1.396 1_545 S
C1932 C1931 1.396 1_565 S
C1932 C1933 1.404 . S
C1932 C1935 1.539 . S
C1933 C1929 1.408 1_565 S
C1933 C1932 1.404 . S
C1933 H1945 0.930 . S
C1934 C1930 1.524 . S
C1934 H1946 0.956 . S
C1934 H1947 0.961 . S
C1934 H1948 0.961 . S
C1935 C1932 1.539 . S
C1935 H1949 0.958 . S
C1935 H1950 0.961 . S
C1935 H1951 0.960 . S
H1936 C1920 0.931 . S
H1937 C1925 0.929 . S
H1938 C1926 0.960 . S
H1939 C1926 0.962 . S
H1940 C1926 0.960 . S
H1941 C1927 0.961 . S
H1942 C1927 0.961 . S
H1943 C1927 0.961 1_565 S
H1944 C1928 0.931 . S
H1945 C1933 0.930 . S
H1946 C1934 0.956 . S
H1947 C1934 0.961 . S
H1948 C1934 0.961 . S
H1949 C1935 0.958 . S
H1950 C1935 0.961 . S
H1951 C1935 0.960 . S
C1952 C1953 1.391 . S
C1952 C1954 1.394 . S
C1952 H1968 0.931 . S
C1953 C1952 1.391 . S
C1953 C1957 1.376 . S
C1954 C1952 1.394 . S
C1954 C1955 1.369 . S
C1954 C1958 1.531 . S
C1955 C1954 1.369 . S
C1955 C1956 1.410 . S
C1955 C1963 1.503 1_554 S
C1956 C1955 1.410 . S
C1956 C1957 1.392 . S
C1956 C1959 1.511 1_554 S
C1957 C1953 1.376 . S
C1957 C1956 1.392 . S
C1957 H1969 0.929 . S
C1958 C1954 1.531 . S
C1958 H1970 0.960 . S
C1958 H1971 0.962 . S
C1958 H1972 0.960 . S
C1959 C1956 1.511 1_556 S
C1959 H1973 0.961 1_556 S
C1959 H1974 0.961 . S
C1959 H1975 0.961 . S
C1960 C1961 1.370 . S
C1960 C1962 1.363 . S
C1960 H1976 0.931 . S
C1961 C1960 1.370 . S
C1961 C1965 1.408 . S
C1962 C1960 1.363 . S
C1962 C1963 1.370 . S
C1962 C1966 1.524 . S
C1963 C1955 1.503 1_556 S
C1963 C1962 1.370 . S
C1963 C1964 1.403 . S
C1964 C1963 1.403 . S
C1964 C1965 1.404 . S
C1964 C1967 1.539 . S
C1965 C1961 1.408 . S
C1965 C1964 1.404 . S
C1965 H1977 0.930 . S
C1966 C1962 1.524 . S
C1966 H1978 0.956 1_556 S
C1966 H1979 0.961 . S
C1966 H1980 0.961 . S
C1967 C1964 1.539 . S
C1967 H1981 0.958 . S
C1967 H1982 0.961 . S
C1967 H1983 0.960 . S
H1968 C1952 0.931 . S
H1969 C1957 0.929 . S
H1970 C1958 0.960 . S
H1971 C1958 0.962 . S
H1972 C1958 0.960 . S
H1973 C1959 0.961 1_554 S
H1974 C1959 0.961 . S
H1975 C1959 0.961 . S
H1976 C1960 0.931 . S
H1977 C1965 0.930 . S
H1978 C1966 0.956 1_554 S
H1979 C1966 0.961 . S
H1980 C1966 0.961 . S
H1981 C1967 0.958 . S
H1982 C1967 0.961 . S
H1983 C1967 0.960 . S
C1984 C1985 1.391 . S
C1984 C1986 1.394 . S
C1984 H2000 0.931 . S
C1985 C1984 1.391 . S
C1985 C1989 1.376 . S
C1986 C1984 1.394 . S
C1986 C1987 1.369 . S
C1986 C1990 1.531 . S
C1987 C1986 1.369 . S
C1987 C1988 1.410 . S
C1987 C1995 1.503 1_455 S
C1988 C1987 1.410 . S
C1988 C1989 1.392 . S
C1988 C1991 1.511 . S
C1989 C1985 1.376 . S
C1989 C1988 1.392 . S
C1989 H2001 0.929 . S
C1990 C1986 1.531 . S
C1990 H2002 0.960 . S
C1990 H2003 0.962 1_455 S
C1990 H2004 0.960 . S
C1991 C1988 1.511 . S
C1991 H2005 0.961 . S
C1991 H2006 0.961 1_455 S
C1991 H2007 0.961 . S
C1992 C1993 1.370 . S
C1992 C1994 1.363 . S
C1992 H2008 0.931 . S
C1993 C1992 1.370 . S
C1993 C1997 1.408 1_655 S
C1994 C1992 1.363 . S
C1994 C1995 1.372 . S
C1994 C1998 1.524 . S
C1995 C1987 1.503 1_655 S
C1995 C1994 1.372 . S
C1995 C1996 1.402 1_655 S
C1996 C1995 1.402 1_455 S
C1996 C1997 1.404 . S
C1996 C1999 1.539 . S
C1997 C1993 1.408 1_455 S
C1997 C1996 1.404 . S
C1997 H2009 0.930 . S
C1998 C1994 1.524 . S
C1998 H2010 0.956 . S
C1998 H2011 0.961 . S
C1998 H2012 0.961 . S
C1999 C1996 1.539 . S
C1999 H2013 0.958 . S
C1999 H2014 0.961 . S
C1999 H2015 0.960 . S
H2000 C1984 0.931 . S
H2001 C1989 0.929 . S
H2002 C1990 0.960 . S
H2003 C1990 0.962 1_655 S
H2004 C1990 0.960 . S
H2005 C1991 0.961 . S
H2006 C1991 0.961 1_655 S
H2007 C1991 0.961 . S
H2008 C1992 0.931 . S
H2009 C1997 0.930 . S
H2010 C1998 0.956 . S
H2011 C1998 0.961 . S
H2012 C1998 0.961 . S
H2013 C1999 0.958 . S
H2014 C1999 0.961 . S
H2015 C1999 0.960 . S
C2016 C2017 1.391 . S
C2016 C2018 1.394 . S
C2016 H2032 0.931 . S
C2017 C2016 1.391 . S
C2017 C2021 1.376 . S
C2018 C2016 1.394 . S
C2018 C2019 1.369 . S
C2018 C2022 1.531 . S
C2019 C2018 1.369 . S
C2019 C2020 1.410 . S
C2019 C2027 1.503 . S
C2020 C2019 1.410 . S
C2020 C2021 1.392 . S
C2020 C2023 1.511 . S
C2021 C2017 1.376 . S
C2021 C2020 1.392 . S
C2021 H2033 0.929 . S
C2022 C2018 1.531 . S
C2022 H2034 0.960 . S
C2022 H2035 0.962 . S
C2022 H2036 0.960 . S
C2023 C2020 1.511 . S
C2023 H2037 0.961 . S
C2023 H2038 0.961 . S
C2023 H2039 0.961 . S
C2024 C2025 1.370 . S
C2024 C2026 1.363 . S
C2024 H2040 0.931 . S
C2025 C2024 1.370 . S
C2025 C2029 1.408 . S
C2026 C2024 1.363 . S
C2026 C2027 1.370 . S
C2026 C2030 1.524 . S
C2027 C2019 1.503 . S
C2027 C2026 1.370 . S
C2027 C2028 1.403 . S
C2028 C2027 1.403 . S
C2028 C2029 1.404 . S
C2028 C2031 1.539 . S
C2029 C2025 1.408 . S
C2029 C2028 1.404 . S
C2029 H2041 0.930 . S
C2030 C2026 1.524 . S
C2030 H2042 0.956 . S
C2030 H2043 0.961 . S
C2030 H2044 0.961 . S
C2031 C2028 1.539 . S
C2031 H2045 0.958 1_545 S
C2031 H2046 0.963 1_545 S
C2031 H2047 0.960 . S
H2032 C2016 0.931 . S
H2033 C2021 0.929 . S
H2034 C2022 0.960 . S
H2035 C2022 0.962 . S
H2036 C2022 0.960 . S
H2037 C2023 0.961 . S
H2038 C2023 0.961 . S
H2039 C2023 0.961 . S
H2040 C2024 0.931 . S
H2041 C2029 0.930 . S
H2042 C2030 0.956 . S
H2043 C2030 0.961 . S
H2044 C2030 0.961 . S
H2045 C2031 0.958 1_565 S
H2046 C2031 0.963 1_565 S
H2047 C2031 0.960 . S
C2048 C2049 1.391 . S
C2048 C2050 1.394 . S
C2048 H2064 0.931 . S
C2049 C2048 1.391 . S
C2049 C2053 1.376 . S
C2050 C2048 1.394 . S
C2050 C2051 1.369 . S
C2050 C2054 1.531 . S
C2051 C2050 1.369 . S
C2051 C2052 1.410 . S
C2051 C2059 1.503 . S
C2052 C2051 1.410 . S
C2052 C2053 1.392 . S
C2052 C2055 1.511 . S
C2053 C2049 1.376 . S
C2053 C2052 1.392 . S
C2053 H2065 0.929 . S
C2054 C2050 1.531 . S
C2054 H2066 0.960 . S
C2054 H2067 0.962 . S
C2054 H2068 0.960 . S
C2055 C2052 1.511 . S
C2055 H2069 0.961 . S
C2055 H2070 0.961 . S
C2055 H2071 0.961 . S
C2056 C2057 1.370 . S
C2056 C2058 1.363 . S
C2056 H2072 0.931 . S
C2057 C2056 1.370 . S
C2057 C2061 1.408 . S
C2058 C2056 1.363 . S
C2058 C2059 1.370 . S
C2058 C2062 1.524 . S
C2059 C2051 1.503 . S
C2059 C2058 1.370 . S
C2059 C2060 1.403 . S
C2060 C2059 1.403 . S
C2060 C2061 1.404 . S
C2060 C2063 1.539 . S
C2061 C2057 1.408 . S
C2061 C2060 1.404 . S
C2061 H2073 0.930 . S
C2062 C2058 1.524 . S
C2062 H2074 0.956 . S
C2062 H2075 0.961 . S
C2062 H2076 0.961 . S
C2063 C2060 1.539 . S
C2063 H2077 0.958 . S
C2063 H2078 0.961 . S
C2063 H2079 0.960 . S
H2064 C2048 0.931 . S
H2065 C2053 0.929 . S
H2066 C2054 0.960 . S
H2067 C2054 0.962 . S
H2068 C2054 0.960 . S
H2069 C2055 0.961 . S
H2070 C2055 0.961 . S
H2071 C2055 0.961 . S
H2072 C2056 0.931 . S
H2073 C2061 0.930 . S
H2074 C2062 0.956 . S
H2075 C2062 0.961 . S
H2076 C2062 0.961 . S
H2077 C2063 0.958 . S
H2078 C2063 0.961 . S
H2079 C2063 0.960 . S
C2080 C2081 1.391 . S
C2080 C2082 1.394 . S
C2080 H2096 0.931 . S
C2081 C2080 1.391 . S
C2081 C2085 1.376 . S
C2082 C2080 1.394 . S
C2082 C2083 1.369 . S
C2082 C2086 1.531 . S
C2083 C2082 1.369 . S
C2083 C2084 1.410 . S
C2083 C2091 1.503 . S
C2084 C2083 1.410 . S
C2084 C2085 1.392 . S
C2084 C2087 1.511 . S
C2085 C2081 1.376 . S
C2085 C2084 1.392 . S
C2085 H2097 0.929 . S
C2086 C2082 1.531 . S
C2086 H2098 0.960 . S
C2086 H2099 0.962 . S
C2086 H2100 0.960 1_655 S
C2087 C2084 1.511 . S
C2087 H2101 0.961 . S
C2087 H2102 0.961 . S
C2087 H2103 0.961 . S
C2088 C2089 1.370 . S
C2088 C2090 1.363 . S
C2088 H2104 0.931 . S
C2089 C2088 1.370 . S
C2089 C2093 1.408 . S
C2090 C2088 1.363 . S
C2090 C2091 1.370 . S
C2090 C2094 1.524 . S
C2091 C2083 1.503 . S
C2091 C2090 1.370 . S
C2091 C2092 1.403 . S
C2092 C2091 1.403 . S
C2092 C2093 1.404 . S
C2092 C2095 1.539 . S
C2093 C2089 1.408 . S
C2093 C2092 1.404 . S
C2093 H2105 0.930 . S
C2094 C2090 1.524 . S
C2094 H2106 0.956 . S
C2094 H2107 0.961 . S
C2094 H2108 0.961 . S
C2095 C2092 1.539 . S
C2095 H2109 0.958 . S
C2095 H2110 0.961 . S
C2095 H2111 0.960 . S
H2096 C2080 0.931 . S
H2097 C2085 0.929 . S
H2098 C2086 0.960 . S
H2099 C2086 0.962 . S
H2100 C2086 0.960 1_455 S
H2101 C2087 0.961 . S
H2102 C2087 0.961 . S
H2103 C2087 0.961 . S
H2104 C2088 0.931 . S
H2105 C2093 0.930 . S
H2106 C2094 0.956 . S
H2107 C2094 0.961 . S
H2108 C2094 0.961 . S
H2109 C2095 0.958 . S
H2110 C2095 0.961 . S
H2111 C2095 0.960 . S
C2112 C2113 1.391 . S
C2112 C2114 1.394 . S
C2112 H2128 0.931 . S
C2113 C2112 1.391 . S
C2113 C2117 1.376 . S
C2114 C2112 1.394 . S
C2114 C2115 1.369 . S
C2114 C2118 1.531 . S
C2115 C2114 1.369 . S
C2115 C2116 1.410 . S
C2115 C2123 1.503 . S
C2116 C2115 1.410 . S
C2116 C2117 1.392 . S
C2116 C2119 1.511 . S
C2117 C2113 1.376 . S
C2117 C2116 1.392 . S
C2117 H2129 0.929 . S
C2118 C2114 1.531 . S
C2118 H2130 0.960 . S
C2118 H2131 0.962 . S
C2118 H2132 0.960 . S
C2119 C2116 1.511 . S
C2119 H2133 0.961 . S
C2119 H2134 0.961 . S
C2119 H2135 0.961 . S
C2120 C2121 1.370 . S
C2120 C2122 1.363 . S
C2120 H2136 0.931 . S
C2121 C2120 1.370 . S
C2121 C2125 1.408 . S
C2122 C2120 1.363 . S
C2122 C2123 1.370 . S
C2122 C2126 1.524 . S
C2123 C2115 1.503 . S
C2123 C2122 1.370 . S
C2123 C2124 1.403 . S
C2124 C2123 1.403 . S
C2124 C2125 1.404 . S
C2124 C2127 1.539 . S
C2125 C2121 1.408 . S
C2125 C2124 1.404 . S
C2125 H2137 0.930 . S
C2126 C2122 1.524 . S
C2126 H2138 0.956 . S
C2126 H2139 0.961 . S
C2126 H2140 0.961 . S
C2127 C2124 1.539 . S
C2127 H2141 0.958 . S
C2127 H2142 0.961 . S
C2127 H2143 0.960 . S
H2128 C2112 0.931 . S
H2129 C2117 0.929 . S
H2130 C2118 0.960 . S
H2131 C2118 0.962 . S
H2132 C2118 0.960 . S
H2133 C2119 0.961 . S
H2134 C2119 0.961 . S
H2135 C2119 0.961 . S
H2136 C2120 0.931 . S
H2137 C2125 0.930 . S
H2138 C2126 0.956 . S
H2139 C2126 0.961 . S
H2140 C2126 0.961 . S
H2141 C2127 0.958 . S
H2142 C2127 0.961 . S
H2143 C2127 0.960 . S
C2144 C2145 1.391 . S
C2144 C2146 1.394 . S
C2144 H2160 0.931 . S
C2145 C2144 1.391 . S
C2145 C2149 1.376 . S
C2146 C2144 1.394 . S
C2146 C2147 1.369 . S
C2146 C2150 1.531 . S
C2147 C2146 1.369 . S
C2147 C2148 1.410 . S
C2147 C2155 1.503 . S
C2148 C2147 1.410 . S
C2148 C2149 1.392 . S
C2148 C2151 1.511 . S
C2149 C2145 1.376 . S
C2149 C2148 1.392 . S
C2149 H2161 0.929 . S
C2150 C2146 1.531 . S
C2150 H2162 0.960 . S
C2150 H2163 0.962 . S
C2150 H2164 0.960 . S
C2151 C2148 1.511 . S
C2151 H2165 0.961 . S
C2151 H2166 0.961 . S
C2151 H2167 0.961 . S
C2152 C2153 1.370 . S
C2152 C2154 1.363 . S
C2152 H2168 0.931 . S
C2153 C2152 1.370 . S
C2153 C2157 1.408 . S
C2154 C2152 1.363 . S
C2154 C2155 1.370 . S
C2154 C2158 1.524 . S
C2155 C2147 1.503 . S
C2155 C2154 1.370 . S
C2155 C2156 1.403 . S
C2156 C2155 1.403 . S
C2156 C2157 1.404 . S
C2156 C2159 1.539 . S
C2157 C2153 1.408 . S
C2157 C2156 1.404 . S
C2157 H2169 0.930 . S
C2158 C2154 1.524 . S
C2158 H2170 0.956 . S
C2158 H2171 0.961 . S
C2158 H2172 0.961 . S
C2159 C2156 1.539 . S
C2159 H2173 0.958 . S
C2159 H2174 0.961 . S
C2159 H2175 0.960 . S
H2160 C2144 0.931 . S
H2161 C2149 0.929 . S
H2162 C2150 0.960 . S
H2163 C2150 0.962 . S
H2164 C2150 0.960 . S
H2165 C2151 0.961 . S
H2166 C2151 0.961 . S
H2167 C2151 0.961 . S
H2168 C2152 0.931 . S
H2169 C2157 0.930 . S
H2170 C2158 0.956 . S
H2171 C2158 0.961 . S
H2172 C2158 0.961 . S
H2173 C2159 0.958 . S
H2174 C2159 0.961 . S
H2175 C2159 0.960 . S
C2176 C2177 1.391 . S
C2176 C2178 1.394 . S
C2176 H2192 0.931 . S
C2177 C2176 1.391 . S
C2177 C2181 1.376 . S
C2178 C2176 1.394 . S
C2178 C2179 1.369 . S
C2178 C2182 1.531 . S
C2179 C2178 1.369 . S
C2179 C2180 1.410 . S
C2179 C2187 1.503 . S
C2180 C2179 1.410 . S
C2180 C2181 1.392 . S
C2180 C2183 1.511 . S
C2181 C2177 1.376 . S
C2181 C2180 1.392 . S
C2181 H2193 0.929 . S
C2182 C2178 1.531 . S
C2182 H2194 0.960 . S
C2182 H2195 0.962 . S
C2182 H2196 0.960 . S
C2183 C2180 1.511 . S
C2183 H2197 0.961 . S
C2183 H2198 0.961 . S
C2183 H2199 0.961 . S
C2184 C2185 1.370 . S
C2184 C2186 1.363 . S
C2184 H2200 0.931 . S
C2185 C2184 1.370 . S
C2185 C2189 1.408 . S
C2186 C2184 1.363 . S
C2186 C2187 1.370 . S
C2186 C2190 1.524 . S
C2187 C2179 1.503 . S
C2187 C2186 1.370 . S
C2187 C2188 1.403 . S
C2188 C2187 1.403 . S
C2188 C2189 1.404 . S
C2188 C2191 1.539 . S
C2189 C2185 1.408 . S
C2189 C2188 1.404 . S
C2189 H2201 0.930 . S
C2190 C2186 1.524 . S
C2190 H2202 0.956 . S
C2190 H2203 0.961 . S
C2190 H2204 0.961 . S
C2191 C2188 1.539 . S
C2191 H2205 0.958 . S
C2191 H2206 0.961 . S
C2191 H2207 0.960 . S
H2192 C2176 0.931 . S
H2193 C2181 0.929 . S
H2194 C2182 0.960 . S
H2195 C2182 0.962 . S
H2196 C2182 0.960 . S
H2197 C2183 0.961 . S
H2198 C2183 0.961 . S
H2199 C2183 0.961 . S
H2200 C2184 0.931 . S
H2201 C2189 0.930 . S
H2202 C2190 0.956 . S
H2203 C2190 0.961 . S
H2204 C2190 0.961 . S
H2205 C2191 0.958 . S
H2206 C2191 0.961 . S
H2207 C2191 0.960 . S
C2208 C2209 1.391 . S
C2208 C2210 1.394 . S
C2208 H2224 0.931 . S
C2209 C2208 1.391 . S
C2209 C2213 1.376 . S
C2210 C2208 1.394 . S
C2210 C2211 1.369 . S
C2210 C2214 1.531 . S
C2211 C2210 1.369 . S
C2211 C2212 1.410 . S
C2211 C2219 1.503 . S
C2212 C2211 1.410 . S
C2212 C2213 1.392 . S
C2212 C2215 1.511 . S
C2213 C2209 1.376 . S
C2213 C2212 1.392 . S
C2213 H2225 0.929 . S
C2214 C2210 1.531 . S
C2214 H2226 0.960 . S
C2214 H2227 0.962 . S
C2214 H2228 0.960 . S
C2215 C2212 1.511 . S
C2215 H2229 0.961 . S
C2215 H2230 0.961 . S
C2215 H2231 0.961 . S
C2216 C2217 1.370 . S
C2216 C2218 1.363 . S
C2216 H2232 0.931 . S
C2217 C2216 1.370 . S
C2217 C2221 1.408 . S
C2218 C2216 1.363 . S
C2218 C2219 1.370 . S
C2218 C2222 1.524 . S
C2219 C2211 1.503 . S
C2219 C2218 1.370 . S
C2219 C2220 1.403 . S
C2220 C2219 1.403 . S
C2220 C2221 1.404 . S
C2220 C2223 1.539 . S
C2221 C2217 1.408 . S
C2221 C2220 1.404 . S
C2221 H2233 0.930 . S
C2222 C2218 1.524 . S
C2222 H2234 0.956 . S
C2222 H2235 0.961 . S
C2222 H2236 0.961 . S
C2223 C2220 1.539 . S
C2223 H2237 0.958 . S
C2223 H2238 0.915 1_655 S
C2223 H2239 0.960 . S
H2224 C2208 0.931 . S
H2225 C2213 0.929 . S
H2226 C2214 0.960 . S
H2227 C2214 0.962 . S
H2228 C2214 0.960 . S
H2229 C2215 0.961 . S
H2230 C2215 0.961 . S
H2231 C2215 0.961 . S
H2232 C2216 0.931 . S
H2233 C2221 0.930 . S
H2234 C2222 0.956 . S
H2235 C2222 0.961 . S
H2236 C2222 0.961 . S
H2237 C2223 0.958 . S
H2238 C2223 0.915 1_455 S
H2239 C2223 0.960 . S
C2240 C2241 1.391 . S
C2240 C2242 1.394 . S
C2240 H2256 0.931 . S
C2241 C2240 1.391 . S
C2241 C2245 1.376 . S
C2242 C2240 1.394 . S
C2242 C2243 1.369 . S
C2242 C2246 1.531 . S
C2243 C2242 1.369 . S
C2243 C2244 1.410 . S
C2243 C2251 1.503 . S
C2244 C2243 1.410 . S
C2244 C2245 1.392 . S
C2244 C2247 1.511 . S
C2245 C2241 1.376 . S
C2245 C2244 1.392 . S
C2245 H2257 0.929 . S
C2246 C2242 1.531 . S
C2246 H2258 0.960 . S
C2246 H2259 0.962 . S
C2246 H2260 0.960 1_565 S
C2247 C2244 1.511 . S
C2247 H2261 0.961 . S
C2247 H2262 0.961 . S
C2247 H2263 0.961 . S
C2248 C2249 1.370 . S
C2248 C2250 1.363 . S
C2248 H2264 0.931 . S
C2249 C2248 1.370 . S
C2249 C2253 1.408 . S
C2250 C2248 1.363 . S
C2250 C2251 1.370 . S
C2250 C2254 1.524 . S
C2251 C2243 1.503 . S
C2251 C2250 1.370 . S
C2251 C2252 1.403 . S
C2252 C2251 1.403 . S
C2252 C2253 1.404 . S
C2252 C2255 1.539 . S
C2253 C2249 1.408 . S
C2253 C2252 1.404 . S
C2253 H2265 0.930 . S
C2254 C2250 1.524 . S
C2254 H2266 0.956 . S
C2254 H2267 0.961 . S
C2254 H2268 0.961 . S
C2255 C2252 1.539 . S
C2255 H2269 0.958 . S
C2255 H2270 0.961 . S
C2255 H2271 0.960 . S
H2256 C2240 0.931 . S
H2257 C2245 0.929 . S
H2258 C2246 0.960 . S
H2259 C2246 0.962 . S
H2260 C2246 0.960 1_545 S
H2261 C2247 0.961 . S
H2262 C2247 0.961 . S
H2263 C2247 0.961 . S
H2264 C2248 0.931 . S
H2265 C2253 0.930 . S
H2266 C2254 0.956 . S
H2267 C2254 0.961 . S
H2268 C2254 0.961 . S
H2269 C2255 0.958 . S
H2270 C2255 0.961 . S
H2271 C2255 0.960 . S
C2272 C2273 1.391 . S
C2272 C2274 1.394 . S
C2272 H2288 0.931 . S
C2273 C2272 1.391 . S
C2273 C2277 1.376 . S
C2274 C2272 1.394 . S
C2274 C2275 1.369 . S
C2274 C2278 1.531 . S
C2275 C2274 1.369 . S
C2275 C2276 1.410 . S
C2275 C2283 1.503 . S
C2276 C2275 1.410 . S
C2276 C2277 1.392 . S
C2276 C2279 1.511 . S
C2277 C2273 1.376 . S
C2277 C2276 1.392 . S
C2277 H2289 0.929 . S
C2278 C2274 1.531 . S
C2278 H2290 0.960 . S
C2278 H2291 0.962 . S
C2278 H2292 0.960 . S
C2279 C2276 1.511 . S
C2279 H2293 0.961 . S
C2279 H2294 0.961 . S
C2279 H2295 0.961 . S
C2280 C2281 1.370 . S
C2280 C2282 1.363 . S
C2280 H2296 0.931 . S
C2281 C2280 1.370 . S
C2281 C2285 1.408 . S
C2282 C2280 1.363 . S
C2282 C2283 1.370 . S
C2282 C2286 1.524 . S
C2283 C2275 1.503 . S
C2283 C2282 1.370 . S
C2283 C2284 1.403 . S
C2284 C2283 1.403 . S
C2284 C2285 1.404 . S
C2284 C2287 1.539 . S
C2285 C2281 1.408 . S
C2285 C2284 1.404 . S
C2285 H2297 0.930 . S
C2286 C2282 1.524 . S
C2286 H2298 0.956 . S
C2286 H2299 0.961 . S
C2286 H2300 0.961 . S
C2287 C2284 1.539 . S
C2287 H2301 0.958 . S
C2287 H2302 0.961 . S
C2287 H2303 0.960 . S
H2288 C2272 0.931 . S
H2289 C2277 0.929 . S
H2290 C2278 0.960 . S
H2291 C2278 0.962 . S
H2292 C2278 0.960 . S
H2293 C2279 0.961 . S
H2294 C2279 0.961 . S
H2295 C2279 0.961 . S
H2296 C2280 0.931 . S
H2297 C2285 0.930 . S
H2298 C2286 0.956 . S
H2299 C2286 0.961 . S
H2300 C2286 0.961 . S
H2301 C2287 0.958 . S
H2302 C2287 0.961 . S
H2303 C2287 0.960 . S
C2304 C2305 1.391 . S
C2304 C2306 1.394 . S
C2304 H2320 0.931 . S
C2305 C2304 1.391 . S
C2305 C2309 1.376 . S
C2306 C2304 1.394 . S
C2306 C2307 1.369 . S
C2306 C2310 1.531 . S
C2307 C2306 1.369 . S
C2307 C2308 1.410 . S
C2307 C2315 1.503 . S
C2308 C2307 1.410 . S
C2308 C2309 1.392 . S
C2308 C2311 1.511 . S
C2309 C2305 1.376 . S
C2309 C2308 1.392 . S
C2309 H2321 0.929 . S
C2310 C2306 1.531 . S
C2310 H2322 0.960 . S
C2310 H2323 0.962 . S
C2310 H2324 0.960 . S
C2311 C2308 1.511 . S
C2311 H2325 0.961 . S
C2311 H2326 0.961 . S
C2311 H2327 0.961 . S
C2312 C2313 1.370 . S
C2312 C2314 1.363 . S
C2312 H2328 0.931 . S
C2313 C2312 1.370 . S
C2313 C2317 1.408 . S
C2314 C2312 1.363 . S
C2314 C2315 1.370 . S
C2314 C2318 1.524 . S
C2315 C2307 1.503 . S
C2315 C2314 1.370 . S
C2315 C2316 1.403 . S
C2316 C2315 1.403 . S
C2316 C2317 1.404 . S
C2316 C2319 1.539 . S
C2317 C2313 1.408 . S
C2317 C2316 1.404 . S
C2317 H2329 0.930 . S
C2318 C2314 1.524 . S
C2318 H2330 0.956 . S
C2318 H2331 0.961 . S
C2318 H2332 0.961 . S
C2319 C2316 1.539 . S
C2319 H2333 0.958 . S
C2319 H2334 0.961 . S
C2319 H2335 0.960 . S
H2320 C2304 0.931 . S
H2321 C2309 0.929 . S
H2322 C2310 0.960 . S
H2323 C2310 0.962 . S
H2324 C2310 0.960 . S
H2325 C2311 0.961 . S
H2326 C2311 0.961 . S
H2327 C2311 0.961 . S
H2328 C2312 0.931 . S
H2329 C2317 0.930 . S
H2330 C2318 0.956 . S
H2331 C2318 0.961 . S
H2332 C2318 0.961 . S
H2333 C2319 0.958 . S
H2334 C2319 0.961 . S
H2335 C2319 0.960 . S
C2336 C2337 1.391 . S
C2336 C2338 1.394 . S
C2336 H2352 0.931 . S
C2337 C2336 1.391 . S
C2337 C2341 1.376 . S
C2338 C2336 1.394 . S
C2338 C2339 1.369 . S
C2338 C2342 1.531 . S
C2339 C2338 1.369 . S
C2339 C2340 1.410 . S
C2339 C2347 1.503 . S
C2340 C2339 1.410 . S
C2340 C2341 1.392 . S
C2340 C2343 1.511 . S
C2341 C2337 1.376 . S
C2341 C2340 1.392 . S
C2341 H2353 0.929 . S
C2342 C2338 1.531 . S
C2342 H2354 0.960 . S
C2342 H2355 0.962 . S
C2342 H2356 0.960 . S
C2343 C2340 1.511 . S
C2343 H2357 0.961 . S
C2343 H2358 0.961 . S
C2343 H2359 0.961 . S
C2344 C2345 1.370 . S
C2344 C2346 1.363 . S
C2344 H2360 0.931 . S
C2345 C2344 1.370 . S
C2345 C2349 1.408 . S
C2346 C2344 1.363 . S
C2346 C2347 1.370 . S
C2346 C2350 1.524 . S
C2347 C2339 1.503 . S
C2347 C2346 1.370 . S
C2347 C2348 1.403 . S
C2348 C2347 1.403 . S
C2348 C2349 1.404 . S
C2348 C2351 1.539 . S
C2349 C2345 1.408 . S
C2349 C2348 1.404 . S
C2349 H2361 0.930 . S
C2350 C2346 1.524 . S
C2350 H2362 0.956 . S
C2350 H2363 0.961 . S
C2350 H2364 0.961 . S
C2351 C2348 1.539 . S
C2351 H2365 0.958 . S
C2351 H2366 0.961 . S
C2351 H2367 0.960 . S
H2352 C2336 0.931 . S
H2353 C2341 0.929 . S
H2354 C2342 0.960 . S
H2355 C2342 0.962 . S
H2356 C2342 0.960 . S
H2357 C2343 0.961 . S
H2358 C2343 0.961 . S
H2359 C2343 0.961 . S
H2360 C2344 0.931 . S
H2361 C2349 0.930 . S
H2362 C2350 0.956 . S
H2363 C2350 0.961 . S
H2364 C2350 0.961 . S
H2365 C2351 0.958 . S
H2366 C2351 0.961 . S
H2367 C2351 0.960 . S
C2368 C2369 1.391 . S
C2368 C2370 1.394 . S
C2368 H2384 0.931 . S
C2369 C2368 1.391 . S
C2369 C2373 1.376 . S
C2370 C2368 1.394 . S
C2370 C2371 1.369 . S
C2370 C2374 1.531 . S
C2371 C2370 1.369 . S
C2371 C2372 1.410 . S
C2371 C2379 1.503 . S
C2372 C2371 1.410 . S
C2372 C2373 1.392 . S
C2372 C2375 1.511 . S
C2373 C2369 1.376 . S
C2373 C2372 1.392 . S
C2373 H2385 0.929 . S
C2374 C2370 1.531 . S
C2374 H2386 0.960 . S
C2374 H2387 0.962 . S
C2374 H2388 0.960 . S
C2375 C2372 1.511 . S
C2375 H2389 0.961 . S
C2375 H2390 0.961 . S
C2375 H2391 0.961 . S
C2376 C2377 1.370 . S
C2376 C2378 1.363 . S
C2376 H2392 0.931 . S
C2377 C2376 1.370 . S
C2377 C2381 1.408 . S
C2378 C2376 1.363 . S
C2378 C2379 1.370 . S
C2378 C2382 1.524 . S
C2379 C2371 1.503 . S
C2379 C2378 1.370 . S
C2379 C2380 1.403 . S
C2380 C2379 1.403 . S
C2380 C2381 1.404 . S
C2380 C2383 1.539 . S
C2381 C2377 1.408 . S
C2381 C2380 1.404 . S
C2381 H2393 0.930 . S
C2382 C2378 1.524 . S
C2382 H2394 0.956 . S
C2382 H2395 0.961 . S
C2382 H2396 0.961 . S
C2383 C2380 1.539 . S
C2383 H2397 0.958 . S
C2383 H2398 0.961 . S
C2383 H2399 0.960 . S
H2384 C2368 0.931 . S
H2385 C2373 0.929 . S
H2386 C2374 0.960 . S
H2387 C2374 0.962 . S
H2388 C2374 0.960 . S
H2389 C2375 0.961 . S
H2390 C2375 0.961 . S
H2391 C2375 0.961 . S
H2392 C2376 0.931 . S
H2393 C2381 0.930 . S
H2394 C2382 0.956 . S
H2395 C2382 0.961 . S
H2396 C2382 0.961 . S
H2397 C2383 0.958 . S
H2398 C2383 0.961 . S
H2399 C2383 0.960 . S
C865 C544 1.235 . S
C873 C4 1.257 . S
C897 C40 1.235 . S
C905 C580 1.258 . S
C929 C76 1.249 . S
C937 C616 1.261 . S
C961 C112 1.253 . S
C969 C436 1.267 . S
C993 C472 1.239 . S
C1001 C148 1.260 . S
C1025 C184 1.293 . S
C1033 C508 1.283 . S
C1057 C760 1.288 . S
C1065 C220 1.277 . S
C1089 C256 1.285 . S
C1097 C796 1.276 . S
C1121 C292 1.251 . S
C1129 C832 1.266 . S
C1153 C652 1.260 . S
C1161 C328 1.270 . S
C1185 C364 1.277 . S
C1193 C688 1.272 . S
C1217 C724 1.259 . S
C1225 C400 1.265 . S
C1249 C14 1.446 . S
C1257 C842 1.431 . S
C1281 C662 1.445 . S
C1289 C50 1.434 . S
C1313 C86 1.453 . S
C1321 C698 1.435 . S
C1345 C734 1.421 . S
C1353 C122 1.420 . S
C1377 C158 1.438 . S
C1385 C770 1.427 . S
C1409 C806 1.380 . S
C1417 C194 1.406 . S
C1441 C230 1.455 . S
C1449 C482 1.436 . S
C1473 C518 1.428 . S
C1481 C266 1.423 . S
C1505 C554 1.440 . S
C1513 C302 1.428 . S
C1537 C590 1.412 . S
C1545 C338 1.416 . S
C1569 C374 1.452 . S
C1577 C626 1.436 . S
C1601 C410 1.429 . S
C1609 C446 1.423 . S
C1633 C255 1.232 . S
C1641 C3 1.210 . S
C1665 C291 1.201 . S
C1673 C39 1.223 . S
C1697 C327 1.226 . S
C1705 C75 1.218 . S
C1729 C363 1.192 . S
C1737 C111 1.215 . S
C1761 C147 1.232 . S
C1769 C399 1.211 . S
C1793 C183 1.201 . S
C1801 C219 1.223 . S
C1825 C435 1.206 . S
C1833 C687 1.223 . S
C1857 C471 1.193 . S
C1865 C723 1.217 . S
C1889 C759 1.232 . S
C1897 C507 1.209 . S
C1921 C795 1.199 . S
C1929 C543 1.223 . S
C1953 C831 1.200 . S
C1961 C579 1.213 . S
C1985 C651 1.194 . S
C1993 C615 1.223 . S
C2017 C2 1.521 . S
C2025 C686 1.532 . S
C2049 C722 1.535 . S
C2057 C38 1.538 . S
C2081 C74 1.536 . S
C2089 C758 1.539 . S
C2113 C794 1.519 . S
C2121 C110 1.531 . S
C2145 C146 1.520 . S
C2153 C830 1.532 . S
C2177 C650 1.529 . S
C2185 C182 1.534 . S
C2209 C218 1.518 . S
C2217 C614 1.530 . S
C2241 C434 1.522 . S
C2249 C254 1.533 . S
C2273 C290 1.521 . S
C2281 C470 1.531 . S
C2305 C326 1.520 . S
C2313 C506 1.530 . S
C2337 C362 1.546 . S
C2345 C542 1.541 . S
C2369 C398 1.528 . S
C2377 C578 1.535 . S
