# Generated by pormake.
# Topology mmt, (4)-cn, num edge types: 1
# Building blocks:
#     Node 0, Type 0, BuildingBlock: AZAVOO_clean_sbu_0, # of connection points: 4
#     Node 1, Type 0, BuildingBlock: AZAVOO_clean_sbu_0, # of connection points: 4
#     Node 2, Type 0, BuildingBlock: AZAVOO_clean_sbu_0, # of connection points: 4
#     Node 3, Type 0, BuildingBlock: AZAVOO_clean_sbu_0, # of connection points: 4
#     Node 4, Type 0, BuildingBlock: AZAVOO_clean_sbu_0, # of connection points: 4
#     Node 5, Type 0, BuildingBlock: AZAVOO_clean_sbu_0, # of connection points: 4
#     Node 6, Type 0, BuildingBlock: AZAVOO_clean_sbu_0, # of connection points: 4
#     Node 7, Type 0, BuildingBlock: AZAVOO_clean_sbu_0, # of connection points: 4
#     Edge 8, Type (0, 0), BuildingBlock: FUNLAD_clean_linker_1, # of connection points: 2
#     Edge 9, Type (0, 0), BuildingBlock: FUNLAD_clean_linker_1, # of connection points: 2
#     Edge 10, Type (0, 0), BuildingBlock: FUNLAD_clean_linker_1, # of connection points: 2
#     Edge 11, Type (0, 0), BuildingBlock: FUNLAD_clean_linker_1, # of connection points: 2
#     Edge 12, Type (0, 0), BuildingBlock: FUNLAD_clean_linker_1, # of connection points: 2
#     Edge 13, Type (0, 0), BuildingBlock: FUNLAD_clean_linker_1, # of connection points: 2
#     Edge 14, Type (0, 0), BuildingBlock: FUNLAD_clean_linker_1, # of connection points: 2
#     Edge 15, Type (0, 0), BuildingBlock: FUNLAD_clean_linker_1, # of connection points: 2
#     Edge 16, Type (0, 0), BuildingBlock: FUNLAD_clean_linker_1, # of connection points: 2
#     Edge 17, Type (0, 0), BuildingBlock: FUNLAD_clean_linker_1, # of connection points: 2
#     Edge 18, Type (0, 0), BuildingBlock: FUNLAD_clean_linker_1, # of connection points: 2
#     Edge 19, Type (0, 0), BuildingBlock: FUNLAD_clean_linker_1, # of connection points: 2
#     Edge 20, Type (0, 0), BuildingBlock: FUNLAD_clean_linker_1, # of connection points: 2
#     Edge 21, Type (0, 0), BuildingBlock: FUNLAD_clean_linker_1, # of connection points: 2
#     Edge 22, Type (0, 0), BuildingBlock: FUNLAD_clean_linker_1, # of connection points: 2
#     Edge 23, Type (0, 0), BuildingBlock: FUNLAD_clean_linker_1, # of connection points: 2
# Relax obj value: 0.098
# Max RMSD: 0.149
# Mean RMSD: 0.149
data_MOF--net-mmt--node1-AZAVOO_clean_sbu_0--edge1-FUNLAD_clean_linker_1
_symmetry_space_group_name_H-M    P1
_symmetry_Int_Tables_number       1
_symmetry_cell_setting            triclinic
loop_
_symmetry_equiv_pos_as_xyz
'x, y, z'
_cell_length_a     21.237113
_cell_length_b     41.960163
_cell_length_c     45.055789
_cell_angle_alpha  90.021859
_cell_angle_beta   90.053991
_cell_angle_gamma 90.03492
loop_
_atom_site_label
_atom_site_type_symbol
_atom_site_fract_x
_atom_site_fract_y
_atom_site_fract_z
_atom_type_partial_charge
Mg0 Mg 0.2367 0.56805 0.3662 0.0
O1 O 0.16465 0.56548 0.32832 0.0
O2 O 0.20493 0.58898 0.2881 0.0
Mg3 Mg 0.30423 0.60652 0.30043 0.0
C4 C 0.16044 0.57419 0.30128 0.0
C5 C 0.16824 0.53408 0.41969 0.0
O6 O 0.2237 0.52055 0.42255 0.0
O7 O 0.21716 0.62124 0.37351 0.0
O8 O 0.26447 0.64256 0.33383 0.0
O9 O 0.28118 0.52246 0.34961 0.0
O10 O 0.31046 0.5708 0.33602 0.0
C11 C 0.23482 0.64539 0.35837 0.0
C12 C 0.31673 0.54056 0.33344 0.0
O13 O 0.15915 0.55403 0.39892 0.0
Mg14 Mg 0.25709 0.96136 0.36979 0.0
O15 O 0.32459 0.96256 0.32949 0.0
O16 O 0.26636 0.95277 0.289 0.0
Mg17 Mg 0.16561 0.9415 0.30312 0.0
C18 C 0.31882 0.95938 0.30137 0.0
C19 C 0.32407 0.97595 0.42768 0.0
O20 O 0.26484 0.98311 0.43261 0.0
O21 O 0.25761 0.90655 0.36938 0.0
O22 O 0.20027 0.89757 0.32845 0.0
O23 O 0.23118 0.01247 0.36101 0.0
O24 O 0.18045 0.97111 0.3424 0.0
C25 C 0.23123 0.88762 0.35089 0.0
C26 C 0.18761 0.00149 0.34373 0.0
O27 O 0.33951 0.96472 0.40248 0.0
Mg28 Mg 0.73741 0.4615 0.12661 0.0
O29 O 0.66241 0.46543 0.16302 0.0
O30 O 0.7062 0.4517 0.20637 0.0
Mg31 Mg 0.80917 0.43798 0.19743 0.0
C32 C 0.65909 0.46099 0.19099 0.0
C33 C 0.67735 0.48116 0.0669 0.0
O34 O 0.73581 0.49067 0.06358 0.0
O35 O 0.7255 0.40735 0.12755 0.0
O36 O 0.77593 0.39498 0.1697 0.0
O37 O 0.7722 0.51121 0.1358 0.0
O38 O 0.80932 0.46818 0.15774 0.0
C39 C 0.74665 0.38691 0.14604 0.0
C40 C 0.80986 0.49869 0.15513 0.0
O41 O 0.66142 0.46739 0.0909 0.0
Mg42 Mg 0.76719 0.0626 0.14198 0.0
O43 O 0.826 0.06602 0.18457 0.0
O44 O 0.76268 0.08061 0.22191 0.0
Mg45 Mg 0.66483 0.09029 0.20232 0.0
C46 C 0.81658 0.07254 0.2119 0.0
C47 C 0.85379 0.041 0.09035 0.0
O48 O 0.79944 0.0288 0.08221 0.0
O49 O 0.77091 0.11689 0.13799 0.0
O50 O 0.70469 0.13135 0.1742 0.0
O51 O 0.73935 0.01279 0.15464 0.0
O52 O 0.68565 0.05576 0.16718 0.0
C53 C 0.74126 0.1382 0.1526 0.0
C54 C 0.69355 0.02546 0.16941 0.0
O55 O 0.85698 0.05684 0.11436 0.0
Mg56 Mg 0.76885 0.43102 0.63339 0.0
O57 O 0.82915 0.4283 0.67581 0.0
O58 O 0.76901 0.40791 0.71191 0.0
Mg59 Mg 0.6707 0.39843 0.69305 0.0
C60 C 0.82126 0.41908 0.70259 0.0
C61 C 0.85434 0.45811 0.58348 0.0
O62 O 0.80116 0.47295 0.57787 0.0
O63 O 0.77537 0.37704 0.62719 0.0
O64 O 0.71097 0.35932 0.66282 0.0
O65 O 0.73627 0.47977 0.64656 0.0
O66 O 0.68774 0.43522 0.65921 0.0
C67 C 0.74745 0.35438 0.64075 0.0
C68 C 0.69192 0.46576 0.6613 0.0
O69 O 0.85713 0.43897 0.60528 0.0
Mg70 Mg 0.75112 0.03792 0.63147 0.0
O71 O 0.67041 0.03363 0.66543 0.0
O72 O 0.70933 0.04457 0.71046 0.0
Mg73 Mg 0.81348 0.05742 0.7054 0.0
C74 C 0.66373 0.03678 0.69344 0.0
C75 C 0.70163 0.02222 0.56888 0.0
O76 O 0.76164 0.01509 0.56684 0.0
O77 O 0.74327 0.0924 0.63361 0.0
O78 O 0.785 0.10164 0.67854 0.0
O79 O 0.78254 0.98751 0.64009 0.0
O80 O 0.81817 0.0294 0.66443 0.0
C81 C 0.761 0.11142 0.65419 0.0
C82 C 0.81832 0.99903 0.66072 0.0
O83 O 0.68065 0.03357 0.59313 0.0
Mg84 Mg 0.24759 0.54691 0.8647 0.0
O85 O 0.32576 0.53816 0.83017 0.0
O86 O 0.29422 0.5586 0.78679 0.0
Mg87 Mg 0.19656 0.5803 0.7932 0.0
C88 C 0.33487 0.54409 0.80271 0.0
C89 C 0.29643 0.51861 0.92461 0.0
O90 O 0.23668 0.5108 0.92625 0.0
O91 O 0.27279 0.59994 0.86819 0.0
O92 O 0.23883 0.61801 0.82418 0.0
O93 O 0.19999 0.50124 0.8508 0.0
O94 O 0.18059 0.5484 0.83106 0.0
C95 C 0.26364 0.62252 0.84964 0.0
C96 C 0.17078 0.51823 0.83113 0.0
O97 O 0.31622 0.5337 0.90198 0.0
Mg98 Mg 0.24274 0.93762 0.87226 0.0
O99 O 0.1708 0.93673 0.83431 0.0
O100 O 0.21309 0.91247 0.79493 0.0
Mg101 Mg 0.31311 0.89715 0.80807 0.0
C102 C 0.16742 0.92683 0.80759 0.0
C103 C 0.17384 0.96844 0.92744 0.0
O104 O 0.23141 0.97781 0.93366 0.0
O105 O 0.22666 0.88448 0.88196 0.0
O106 O 0.27436 0.86243 0.84274 0.0
O107 O 0.28399 0.98302 0.85328 0.0
O108 O 0.31674 0.93453 0.84216 0.0
C109 C 0.24507 0.86005 0.86741 0.0
C110 C 0.32066 0.96466 0.83795 0.0
O111 O 0.16378 0.95213 0.90414 0.0
H112 H 0.39844 0.54509 0.30439 0.0
C113 C 0.36364 0.52814 0.31242 0.0
H114 H 0.33161 0.4806 0.31064 0.0
H115 H 0.5469 0.52184 0.20584 0.0
H116 H 0.46857 0.55895 0.18793 0.0
H117 H 0.36363 0.56188 0.21124 0.0
H118 H 0.33792 0.52858 0.25362 0.0
C119 C 0.3656 0.49792 0.30263 0.0
C120 C 0.41748 0.48763 0.2823 0.0
C121 C 0.42941 0.5047 0.25568 0.0
C122 C 0.48758 0.50074 0.24049 0.0
C123 C 0.50162 0.52167 0.2167 0.0
C124 C 0.45726 0.54349 0.20641 0.0
C125 C 0.39837 0.5453 0.21964 0.0
C126 C 0.38442 0.52627 0.24406 0.0
H127 H 0.55559 0.46532 0.19187 0.0
C128 C 0.5977 0.46601 0.20559 0.0
H129 H 0.63487 0.47285 0.24843 0.0
H130 H 0.4059 0.44793 0.33028 0.0
H131 H 0.47768 0.40582 0.34457 0.0
H132 H 0.57311 0.39478 0.31517 0.0
H133 H 0.59793 0.42618 0.27162 0.0
C134 C 0.5927 0.47236 0.23475 0.0
C135 C 0.53064 0.47681 0.24986 0.0
C136 C 0.51541 0.45738 0.27467 0.0
C137 C 0.45936 0.46312 0.29117 0.0
C138 C 0.44717 0.44436 0.31666 0.0
C139 C 0.48801 0.42005 0.32513 0.0
C140 C 0.54178 0.41387 0.30861 0.0
C141 C 0.55558 0.43221 0.28369 0.0
H142 H 0.85612 0.06277 0.25615 0.0
C143 C 0.8684 0.06812 0.23327 0.0
H144 H 0.9412 0.07462 0.2022 0.0
H145 H 0.05771 0.05969 0.34191 0.0
H146 H 0.99886 0.10737 0.35401 0.0
H147 H 0.93435 0.13446 0.31609 0.0
H148 H 0.92686 0.11332 0.26602 0.0
C149 C 0.92925 0.06897 0.22504 0.0
C150 C 0.98032 0.05822 0.24551 0.0
C151 C 0.98784 0.07219 0.27401 0.0
C152 C 0.02821 0.0577 0.29534 0.0
C153 C 0.03015 0.07044 0.32443 0.0
C154 C 0.99631 0.09778 0.33173 0.0
C155 C 0.95978 0.11296 0.31042 0.0
C156 C 0.95543 0.10042 0.28187 0.0
H157 H 0.16675 0.04711 0.32085 0.0
C158 C 0.15106 0.0227 0.32408 0.0
H159 H 0.08448 0.98734 0.31318 0.0
H160 H 0.98302 0.02725 0.19162 0.0
H161 H 0.05102 0.98351 0.1779 0.0
H162 H 0.12777 0.96154 0.21354 0.0
H163 H 0.13604 0.98304 0.26335 0.0
C164 C 0.09936 0.0119 0.31006 0.0
C165 C 0.06436 0.03061 0.28736 0.0
C166 C 0.06201 0.01888 0.25786 0.0
C167 C 0.01927 0.0323 0.23703 0.0
C168 C 0.01553 0.01869 0.20826 0.0
C169 C 0.0543 0.99343 0.20004 0.0
C170 C 0.09737 0.981 0.22011 0.0
C171 C 0.10133 0.99344 0.2487 0.0
H172 H 0.85178 0.54439 0.16987 0.0
C173 C 0.85234 0.51875 0.17328 0.0
H174 H 0.89665 0.48014 0.19472 0.0
H175 H 0.1597 0.53983 0.219 0.0
H176 H 0.18367 0.50291 0.1793 0.0
H177 H 0.09869 0.47614 0.15147 0.0
H178 H 0.98917 0.48597 0.16338 0.0
C179 C 0.89406 0.50586 0.1923 0.0
C180 C 0.94414 0.52501 0.20722 0.0
C181 C 0.00805 0.51959 0.19957 0.0
C182 C 0.05705 0.53553 0.21522 0.0
C183 C 0.12044 0.52886 0.20759 0.0
C184 C 0.13497 0.50762 0.18485 0.0
C185 C 0.08714 0.49251 0.16922 0.0
C186 C 0.02441 0.49831 0.17638 0.0
H187 H 0.06936 0.54955 0.29581 0.0
C188 C 0.10347 0.56464 0.28457 0.0
H189 H 0.12895 0.58629 0.24405 0.0
H190 H 0.827 0.54005 0.2285 0.0
H191 H 0.80276 0.57907 0.26649 0.0
H192 H 0.88739 0.60949 0.29115 0.0
H193 H 0.99694 0.60062 0.27832 0.0
C194 C 0.09431 0.57206 0.25584 0.0
C195 C 0.04219 0.55718 0.23837 0.0
C196 C 0.97819 0.56365 0.24517 0.0
C197 C 0.92915 0.54709 0.23001 0.0
C198 C 0.86596 0.55271 0.23851 0.0
C199 C 0.85138 0.57495 0.26041 0.0
C200 C 0.89904 0.592 0.27436 0.0
C201 C 0.96176 0.58653 0.26692 0.0
H202 H 0.67186 0.98253 0.19618 0.0
C203 C 0.65612 0.00644 0.19064 0.0
H204 H 0.58901 0.0425 0.19809 0.0
H205 H 0.43709 0.9181 0.25433 0.0
H206 H 0.44771 0.89262 0.20619 0.0
H207 H 0.51061 0.91765 0.16652 0.0
H208 H 0.56479 0.9676 0.17499 0.0
C209 C 0.60396 0.0184 0.20338 0.0
C210 C 0.5682 0.00158 0.22717 0.0
C211 C 0.53443 0.97309 0.22119 0.0
C212 C 0.49467 0.95972 0.24337 0.0
C213 C 0.46495 0.93013 0.23765 0.0
C214 C 0.47111 0.91513 0.21024 0.0
C215 C 0.50677 0.92915 0.18796 0.0
C216 C 0.53803 0.95781 0.19321 0.0
H217 H 0.36294 0.96977 0.25838 0.0
C218 C 0.37304 0.96544 0.2817 0.0
H219 H 0.44373 0.9622 0.31443 0.0
H220 H 0.63427 0.05308 0.24768 0.0
H221 H 0.6229 0.07858 0.29567 0.0
H222 H 0.54763 0.05785 0.3326 0.0
H223 H 0.48398 0.01138 0.32194 0.0
C224 C 0.43309 0.96633 0.29116 0.0
C225 C 0.48492 0.97608 0.2706 0.0
C226 C 0.52149 0.00348 0.2772 0.0
C227 C 0.56366 0.01597 0.2556 0.0
C228 C 0.6003 0.0431 0.26294 0.0
C229 C 0.59449 0.05788 0.29048 0.0
C230 C 0.55221 0.04617 0.31128 0.0
C231 C 0.51593 0.01938 0.30484 0.0
H232 H 0.42129 0.51479 0.80086 0.0
C233 C 0.3927 0.53174 0.78855 0.0
H234 H 0.37957 0.55589 0.74797 0.0
H235 H 0.67132 0.49544 0.73835 0.0
H236 H 0.6981 0.52936 0.78006 0.0
H237 H 0.61672 0.56158 0.80505 0.0
H238 H 0.50782 0.55951 0.78887 0.0
C239 C 0.40865 0.53941 0.76056 0.0
C240 C 0.45956 0.5223 0.74432 0.0
C241 C 0.52349 0.52492 0.75324 0.0
C242 C 0.57098 0.50753 0.73789 0.0
C243 C 0.63379 0.50909 0.74839 0.0
C244 C 0.64977 0.52833 0.77244 0.0
C245 C 0.60391 0.54638 0.78658 0.0
C246 C 0.54147 0.54481 0.77718 0.0
H247 H 0.65297 0.51008 0.68044 0.0
C248 C 0.64878 0.48427 0.68035 0.0
H249 H 0.59755 0.44446 0.69562 0.0
H250 H 0.34149 0.5114 0.72163 0.0
H251 H 0.31552 0.4793 0.67868 0.0
H252 H 0.39853 0.45166 0.65041 0.0
H253 H 0.50794 0.45571 0.66512 0.0
C254 C 0.6035 0.47014 0.69651 0.0
C255 C 0.55481 0.48874 0.7128 0.0
C256 C 0.49109 0.48667 0.70354 0.0
C257 C 0.44342 0.50323 0.71942 0.0
C258 C 0.37994 0.49993 0.7101 0.0
C259 C 0.36424 0.48146 0.68549 0.0
C260 C 0.41094 0.46585 0.66962 0.0
C261 C 0.47363 0.46833 0.6784 0.0
H262 H 0.8593 0.95272 0.67434 0.0
C263 C 0.85936 0.97818 0.67877 0.0
H264 H 0.9023 0.01606 0.70197 0.0
H265 H 0.00589 0.89581 0.78368 0.0
H266 H 0.89653 0.8853 0.79596 0.0
H267 H 0.81081 0.91457 0.77099 0.0
H268 H 0.83378 0.9541 0.73327 0.0
C269 C 0.90013 0.99045 0.6986 0.0
C270 C 0.95057 0.97111 0.71287 0.0
C271 C 0.93621 0.94857 0.73532 0.0
C272 C 0.98577 0.93255 0.75055 0.0
C273 C 0.97016 0.9094 0.77217 0.0
C274 C 0.9076 0.90302 0.7793 0.0
C275 C 0.85932 0.91943 0.76518 0.0
C276 C 0.87317 0.942 0.74346 0.0
H277 H 0.07465 0.9494 0.80124 0.0
C278 C 0.10997 0.93459 0.79053 0.0
H279 H 0.1377 0.91224 0.75065 0.0
H280 H 0.99428 0.01081 0.66925 0.0
H281 H 0.10349 0.02182 0.65751 0.0
H282 H 0.18933 0.99574 0.68526 0.0
H283 H 0.16652 0.95835 0.72473 0.0
C284 C 0.10191 0.92616 0.76197 0.0
C285 C 0.04952 0.9399 0.74399 0.0
C286 C 0.06376 0.96168 0.72089 0.0
C287 C 0.01428 0.97718 0.70527 0.0
C288 C 0.02994 0.99876 0.68222 0.0
C289 C 0.09248 0.00523 0.67516 0.0
C290 C 0.14078 0.99051 0.69074 0.0
C291 C 0.12693 0.96902 0.71336 0.0
H292 H 0.10665 0.52077 0.79305 0.0
C293 C 0.12786 0.50443 0.80891 0.0
H294 H 0.13172 0.45659 0.82366 0.0
H295 H 0.8585 0.47805 0.75187 0.0
H296 H 0.82926 0.50888 0.79507 0.0
H297 H 0.9048 0.51758 0.83591 0.0
H298 H 0.01062 0.49608 0.8333 0.0
C299 C 0.11067 0.47365 0.80848 0.0
C300 C 0.06179 0.46264 0.78702 0.0
C301 C 0.99887 0.47363 0.78974 0.0
C302 C 0.95422 0.46697 0.76703 0.0
C303 C 0.89341 0.48072 0.76915 0.0
C304 C 0.8761 0.4988 0.79375 0.0
C305 C 0.91869 0.50382 0.81667 0.0
C306 C 0.97942 0.49151 0.81479 0.0
H307 H 0.86484 0.41398 0.74677 0.0
C308 C 0.87245 0.42312 0.72447 0.0
H309 H 0.93374 0.44915 0.69657 0.0
H310 H 0.17734 0.43666 0.77589 0.0
H311 H 0.2057 0.40354 0.73377 0.0
H312 H 0.12702 0.3897 0.69554 0.0
H313 H 0.01962 0.40911 0.69902 0.0
C314 C 0.92474 0.4401 0.71876 0.0
C315 C 0.97143 0.44747 0.74255 0.0
C316 C 0.03372 0.43551 0.74043 0.0
C317 C 0.07897 0.44316 0.76267 0.0
C318 C 0.14111 0.43141 0.7597 0.0
C319 C 0.15799 0.41236 0.73566 0.0
C320 C 0.11368 0.40459 0.71413 0.0
C321 C 0.05221 0.41593 0.71637 0.0
H322 H 0.40187 0.95979 0.80867 0.0
C323 C 0.3659 0.97654 0.81586 0.0
H324 H 0.32974 0.02307 0.81108 0.0
H325 H 0.59392 0.07742 0.76783 0.0
H326 H 0.56771 0.11219 0.80897 0.0
H327 H 0.47213 0.10293 0.83881 0.0
H328 H 0.40167 0.05918 0.8274 0.0
C329 C 0.36493 0.0059 0.80402 0.0
C330 C 0.41536 0.01555 0.78263 0.0
C331 C 0.45615 0.04117 0.78969 0.0
C332 C 0.51219 0.04598 0.77293 0.0
C333 C 0.5516 0.07211 0.78023 0.0
C334 C 0.53698 0.09237 0.80372 0.0
C335 C 0.48313 0.08718 0.8205 0.0
C336 C 0.44308 0.06191 0.81371 0.0
H337 H 0.55994 0.0327 0.69152 0.0
C338 C 0.60036 0.03222 0.70633 0.0
H339 H 0.63234 0.02731 0.75032 0.0
H340 H 0.33712 0.97174 0.75703 0.0
H341 H 0.3631 0.93596 0.71643 0.0
H342 H 0.4672 0.93853 0.69227 0.0
H343 H 0.54454 0.97751 0.70758 0.0
C344 C 0.5918 0.02734 0.73557 0.0
C345 C 0.52829 0.02465 0.74963 0.0
C346 C 0.48551 6e-05 0.74152 0.0
C347 C 0.42759 0.9967 0.75709 0.0
C348 C 0.38326 0.9739 0.74704 0.0
C349 C 0.39737 0.95342 0.72366 0.0
C350 C 0.45582 0.955 0.70996 0.0
C351 C 0.49965 0.97786 0.71878 0.0
H352 H 0.0723 0.53959 0.43776 0.0
C353 C 0.11674 0.52713 0.44072 0.0
H354 H 0.16649 0.49309 0.46615 0.0
H355 H 0.93903 0.53883 0.55831 0.0
H356 H 0.99544 0.58906 0.56056 0.0
H357 H 0.08748 0.59887 0.52847 0.0
H358 H 0.12343 0.55861 0.49381 0.0
C359 C 0.12314 0.5065 0.46334 0.0
C360 C 0.07007 0.50004 0.48413 0.0
C361 C 0.05013 0.52372 0.50455 0.0
C362 C 0.99759 0.51789 0.52337 0.0
C363 C 0.97853 0.54201 0.54344 0.0
C364 C 0.0106 0.57093 0.54504 0.0
C365 C 0.06237 0.57646 0.52695 0.0
C366 C 0.08226 0.5532 0.50699 0.0
H367 H 0.9529 0.4499 0.56958 0.0
C368 C 0.91015 0.46304 0.56447 0.0
H369 H 0.86742 0.49696 0.53627 0.0
H370 H 0.09807 0.44908 0.44864 0.0
H371 H 0.04244 0.39861 0.44676 0.0
H372 H 0.95046 0.38874 0.47887 0.0
H373 H 0.91376 0.42916 0.51315 0.0
C374 C 0.90919 0.48293 0.54108 0.0
C375 C 0.96575 0.48821 0.52216 0.0
C376 C 0.98645 0.46429 0.50215 0.0
C377 C 0.03901 0.47013 0.48332 0.0
C378 C 0.05849 0.44591 0.46345 0.0
C379 C 0.02691 0.41684 0.4621 0.0
C380 C 0.97516 0.41128 0.4802 0.0
C381 C 0.95479 0.43466 0.49992 0.0
H382 H 0.35318 0.99131 0.47227 0.0
C383 C 0.37076 0.98217 0.45127 0.0
H384 H 0.45197 0.97028 0.42661 0.0
H385 H 0.62365 0.06182 0.50515 0.0
H386 H 0.6248 0.08888 0.45763 0.0
H387 H 0.55905 0.0698 0.4161 0.0
H388 H 0.49147 0.02363 0.4219 0.0
C389 C 0.43307 0.97812 0.44779 0.0
C390 C 0.47767 0.98737 0.47196 0.0
C391 C 0.51816 0.01392 0.46801 0.0
C392 C 0.55688 0.02464 0.49185 0.0
C393 C 0.59467 0.05209 0.4876 0.0
C394 C 0.59544 0.06801 0.46048 0.0
C395 C 0.55835 0.05729 0.43711 0.0
C396 C 0.51984 0.0307 0.44074 0.0
H397 H 0.6811 0.00569 0.52346 0.0
C398 C 0.65975 0.01531 0.54348 0.0
H399 H 0.57452 0.02727 0.5648 0.0
H400 H 0.41199 0.9332 0.48584 0.0
H401 H 0.4116 0.90575 0.53318 0.0
H402 H 0.477 0.92492 0.57479 0.0
H403 H 0.54349 0.97152 0.56926 0.0
C404 C 0.59696 0.01903 0.54454 0.0
C405 C 0.55602 0.00837 0.51947 0.0
C406 C 0.51637 0.98146 0.52324 0.0
C407 C 0.47776 0.97073 0.49939 0.0
C408 C 0.44066 0.94301 0.50347 0.0
C409 C 0.44039 0.92685 0.53046 0.0
C410 C 0.47728 0.93761 0.55388 0.0
C411 C 0.51512 0.96448 0.5504 0.0
H412 H 0.64865 0.499 0.02296 0.0
C413 C 0.63153 0.48725 0.04289 0.0
H414 H 0.55173 0.46883 0.06498 0.0
H415 H 0.36406 0.55537 0.99028 0.0
H416 H 0.35669 0.57969 0.03894 0.0
H417 H 0.42594 0.56232 0.07982 0.0
H418 H 0.50328 0.52063 0.07221 0.0
C419 C 0.57025 0.47951 0.04483 0.0
C420 C 0.52532 0.48805 0.02062 0.0
C421 C 0.47922 0.51189 0.02561 0.0
C422 C 0.43857 0.52158 0.00213 0.0
C423 C 0.39492 0.54644 0.00746 0.0
C424 C 0.39047 0.56078 0.03527 0.0
C425 C 0.42951 0.55103 0.05827 0.0
C426 C 0.47364 0.52701 0.0536 0.0
H427 H 0.31939 0.49725 0.96804 0.0
C428 C 0.33924 0.50986 0.94916 0.0
H429 H 0.42208 0.52852 0.9299 0.0
H430 H 0.60343 0.43913 0.0044 0.0
H431 H 0.61045 0.41456 0.95581 0.0
H432 H 0.54136 0.432 0.91488 0.0
H433 H 0.46452 0.47397 0.92238 0.0
C434 C 0.40101 0.51689 0.94901 0.0
C435 C 0.44323 0.50693 0.97381 0.0
C436 C 0.48879 0.4828 0.96893 0.0
C437 C 0.5294 0.47311 0.99241 0.0
C438 C 0.57273 0.44809 0.98716 0.0
C439 C 0.57693 0.4336 0.95941 0.0
C440 C 0.53798 0.44339 0.93639 0.0
C441 C 0.49417 0.46758 0.94098 0.0
H442 H 0.07435 0.96703 0.94157 0.0
C443 C 0.12082 0.97589 0.94749 0.0
H444 H 0.17385 0.00249 0.97857 0.0
H445 H 0.93328 0.0763 0.02658 0.0
H446 H 0.98662 0.11834 0.99965 0.0
H447 H 0.08053 0.10674 0.96935 0.0
H448 H 0.1214 0.05292 0.96563 0.0
C449 C 0.12817 0.99263 0.97273 0.0
C450 C 0.07366 -0.00029 0.99253 0.0
C451 C 0.05126 0.03142 0.99511 0.0
C452 C 0.99761 0.0382 0.01299 0.0
C453 C 0.97472 0.06988 0.01402 0.0
C454 C 0.00469 0.09425 0.9985 0.0
C455 C 0.05752 0.08772 0.98142 0.0
C456 C 0.08057 0.05671 0.97954 0.0
H457 H 0.95511 0.04616 0.07986 0.0
C458 C 0.91082 0.03616 0.0721 0.0
H459 H 0.86566 0.00872 0.03904 0.0
H460 H 0.1088 0.93695 0.99537 0.0
H461 H 0.05626 0.89495 0.02274 0.0
H462 H 0.96246 0.90651 0.05313 0.0
H463 H 0.92088 0.96019 0.05647 0.0
C464 C 0.90928 0.01967 0.04649 0.0
C465 C 0.96716 0.01329 0.02874 0.0
C466 C 0.99036 0.98168 0.02661 0.0
C467 C 0.04395 0.97492 0.00873 0.0
C468 C 0.06727 0.94331 0.00791 0.0
C469 C 0.03782 0.91898 0.0237 0.0
C470 C 0.98505 0.92549 0.04083 0.0
C471 C 0.96154 0.95642 0.04245 0.0
H472 H 0.20101 0.68032 0.3918 0.0
C473 C 0.22468 0.67775 0.37055 0.0
H474 H 0.27367 0.70097 0.33604 0.0
H475 H 0.13137 0.82844 0.38678 0.0
H476 H 0.03185 0.80147 0.37761 0.0
H477 H 0.02948 0.7446 0.3637 0.0
H478 H 0.12604 0.71424 0.35947 0.0
C479 C 0.24753 0.70367 0.35661 0.0
C480 C 0.24605 0.73631 0.36953 0.0
C481 C 0.18889 0.75364 0.37141 0.0
C482 C 0.19034 0.78675 0.37816 0.0
C483 C 0.13277 0.8035 0.38068 0.0
C484 C 0.07545 0.78828 0.37566 0.0
C485 C 0.07411 0.75623 0.36791 0.0
C486 C 0.13001 0.73902 0.36568 0.0
H487 H 0.21752 0.83832 0.3364 0.0
C488 C 0.23408 0.85282 0.35487 0.0
H489 H 0.26891 0.85177 0.39891 0.0
H490 H 0.36267 0.70892 0.37296 0.0
H491 H 0.46149 0.736 0.38316 0.0
H492 H 0.46394 0.79388 0.39287 0.0
H493 H 0.36749 0.825 0.39264 0.0
C494 C 0.2516 0.8382 0.38005 0.0
C495 C 0.24885 0.80271 0.38159 0.0
C496 C 0.3053 0.78488 0.38238 0.0
C497 C 0.30389 0.7516 0.3764 0.0
C498 C 0.36119 0.73436 0.37689 0.0
C499 C 0.41816 0.74958 0.38283 0.0
C500 C 0.41953 0.78216 0.38833 0.0
C501 C 0.36391 0.79975 0.38807 0.0
H502 H 0.79585 0.17884 0.13473 0.0
C503 C 0.75212 0.17211 0.14556 0.0
H504 H 0.66681 0.18762 0.16445 0.0
H505 H 0.74463 0.3222 0.20847 0.0
H506 H 0.72292 0.29444 0.25438 0.0
H507 H 0.70405 0.23645 0.25474 0.0
H508 H 0.70586 0.20603 0.20917 0.0
C509 C 0.71048 0.19464 0.1537 0.0
C510 C 0.72557 0.22932 0.15294 0.0
C511 C 0.72604 0.24666 0.17999 0.0
C512 C 0.73905 0.27989 0.17992 0.0
C513 C 0.73687 0.29676 0.2072 0.0
C514 C 0.72416 0.28115 0.23379 0.0
C515 C 0.71338 0.24854 0.23398 0.0
C516 C 0.71429 0.23138 0.20753 0.0
H517 H 0.69657 0.3459 0.12593 0.0
C518 C 0.73506 0.35271 0.14053 0.0
H519 H 0.80858 0.33716 0.1684 0.0
H520 H 0.71977 0.20449 0.09668 0.0
H521 H 0.74756 0.23158 0.05102 0.0
H522 H 0.78185 0.28776 0.05158 0.0
H523 H 0.78681 0.31741 0.0977 0.0
C524 C 0.77015 0.33015 0.15383 0.0
C525 C 0.75356 0.29566 0.15293 0.0
C526 C 0.75421 0.27824 0.1259 0.0
C527 C 0.7382 0.24526 0.12579 0.0
C528 C 0.73469 0.22907 0.09827 0.0
C529 C 0.75006 0.24441 0.07184 0.0
C530 C 0.76909 0.27608 0.07214 0.0
C531 C 0.77128 0.29291 0.09878 0.0
H532 H 0.7669 0.16081 0.66974 0.0
C533 C 0.75589 0.14619 0.65046 0.0
H534 H 0.73007 0.14694 0.60505 0.0
H535 H 0.61844 0.28738 0.62478 0.0
H536 H 0.52448 0.25772 0.6113 0.0
H537 H 0.52893 0.19961 0.60316 0.0
H538 H 0.62755 0.17083 0.60823 0.0
C539 C 0.74214 0.16068 0.62468 0.0
C540 C 0.74172 0.19619 0.62336 0.0
C541 C 0.68406 0.21264 0.6199 0.0
C542 C 0.6814 0.24607 0.62502 0.0
C543 C 0.62296 0.26192 0.62164 0.0
C544 C 0.56872 0.2452 0.6138 0.0
C545 C 0.57124 0.21249 0.60919 0.0
C546 C 0.62809 0.19625 0.61222 0.0
H547 H 0.78592 0.31728 0.61077 0.0
C548 C 0.75687 0.32133 0.63026 0.0
H549 H 0.69945 0.30044 0.66316 0.0
H550 H 0.86192 0.17311 0.62398 0.0
H551 H 0.95652 0.2024 0.63738 0.0
H552 H 0.95101 0.25939 0.65061 0.0
H553 H 0.85167 0.28755 0.64985 0.0
C554 C 0.73021 0.29642 0.64426 0.0
C555 C 0.73636 0.26291 0.63376 0.0
C556 C 0.795 0.24676 0.63523 0.0
C557 C 0.7978 0.21352 0.62915 0.0
C558 C 0.85704 0.19807 0.62959 0.0
C559 C 0.91165 0.21462 0.63706 0.0
C560 C 0.90857 0.24673 0.64439 0.0
C561 C 0.85108 0.2627 0.64365 0.0
H562 H 0.28729 0.67212 0.83948 0.0
C563 C 0.27811 0.65568 0.85765 0.0
H564 H 0.25382 0.65206 0.90304 0.0
H565 H 0.37429 0.79761 0.87613 0.0
H566 H 0.47567 0.77107 0.87999 0.0
H567 H 0.48191 0.71302 0.88837 0.0
H568 H 0.38656 0.68116 0.89302 0.0
C569 C 0.26871 0.66749 0.88499 0.0
C570 C 0.26591 0.7027 0.88878 0.0
C571 C 0.32163 0.721 0.88676 0.0
C572 C 0.31788 0.75437 0.88184 0.0
C573 C 0.37447 0.77206 0.87947 0.0
C574 C 0.4329 0.75716 0.88179 0.0
C575 C 0.43642 0.72447 0.88651 0.0
C576 C 0.38153 0.70647 0.88899 0.0
H577 H 0.21753 0.8257 0.90265 0.0
C578 C 0.23658 0.82791 0.88037 0.0
H579 H 0.27683 0.80421 0.84372 0.0
H580 H 0.15096 0.67523 0.8979 0.0
H581 H 0.0493 0.70168 0.89559 0.0
H582 H 0.04213 0.75926 0.88506 0.0
H583 H 0.13623 0.79078 0.87708 0.0
C584 C 0.25581 0.80178 0.86559 0.0
C585 C 0.25832 0.76931 0.87877 0.0
C586 C 0.20254 0.75147 0.8837 0.0
C587 C 0.20655 0.71812 0.88918 0.0
C588 C 0.15036 0.70057 0.89344 0.0
C589 C 0.09181 0.71545 0.8922 0.0
C590 C 0.08779 0.74788 0.88631 0.0
C591 C 0.1423 0.76576 0.8819 0.0
loop_
_geom_bond_atom_site_label_1
_geom_bond_atom_site_label_2
_geom_bond_distance
_geom_bond_site_symmetry_2
_ccdc_geom_bond_type
Mg0 O1 2.028 . S
Mg0 O7 1.986 . S
Mg0 O9 2.114 . S
Mg0 O10 2.251 . S
Mg0 O13 2.010 . S
O1 Mg0 2.028 . S
O1 C4 1.250 . S
O2 Mg3 2.028 . S
O2 C4 1.248 . S
Mg3 O2 2.028 . S
Mg3 O8 2.032 . S
Mg3 O10 2.079 . S
C4 O1 1.250 . S
C4 O2 1.248 . S
C5 O6 1.264 . S
C5 O13 1.249 . S
O6 C5 1.264 . S
O7 Mg0 1.986 . S
O7 C11 1.246 . S
O8 Mg3 2.032 . S
O8 C11 1.259 . S
O9 Mg0 2.114 . S
O9 C12 1.252 . S
O10 Mg0 2.251 . S
O10 Mg3 2.079 . S
O10 C12 1.273 . S
C11 O7 1.246 . S
C11 O8 1.259 . S
C12 O9 1.252 . S
C12 O10 1.273 . S
O13 Mg0 2.010 . S
O13 C5 1.249 . S
Mg14 O15 2.028 . S
Mg14 O21 1.986 . S
Mg14 O23 2.114 . S
Mg14 O24 2.251 . S
Mg14 O27 2.010 . S
O15 Mg14 2.028 . S
O15 C18 1.250 . S
O16 Mg17 2.028 . S
O16 C18 1.248 . S
Mg17 O16 2.028 . S
Mg17 O22 2.032 . S
Mg17 O24 2.079 . S
C18 O15 1.250 . S
C18 O16 1.248 . S
C19 O20 1.264 . S
C19 O27 1.249 . S
O20 C19 1.264 . S
O21 Mg14 1.986 . S
O21 C25 1.246 . S
O22 Mg17 2.032 . S
O22 C25 1.259 . S
O23 Mg14 2.114 . S
O23 C26 1.252 . S
O24 Mg14 2.251 . S
O24 Mg17 2.079 . S
O24 C26 1.273 . S
C25 O21 1.246 . S
C25 O22 1.259 . S
C26 O23 1.252 . S
C26 O24 1.273 . S
O27 Mg14 2.010 . S
O27 C19 1.249 . S
Mg28 O29 2.028 . S
Mg28 O35 1.986 . S
Mg28 O37 2.114 . S
Mg28 O38 2.251 . S
Mg28 O41 2.010 . S
O29 Mg28 2.028 . S
O29 C32 1.250 . S
O30 Mg31 2.028 . S
O30 C32 1.248 . S
Mg31 O30 2.028 . S
Mg31 O36 2.032 . S
Mg31 O38 2.079 . S
C32 O29 1.250 . S
C32 O30 1.248 . S
C33 O34 1.264 . S
C33 O41 1.249 . S
O34 C33 1.264 . S
O35 Mg28 1.986 . S
O35 C39 1.246 . S
O36 Mg31 2.032 . S
O36 C39 1.259 . S
O37 Mg28 2.114 . S
O37 C40 1.252 . S
O38 Mg28 2.251 . S
O38 Mg31 2.079 . S
O38 C40 1.273 . S
C39 O35 1.246 . S
C39 O36 1.259 . S
C40 O37 1.252 . S
C40 O38 1.273 . S
O41 Mg28 2.010 . S
O41 C33 1.249 . S
Mg42 O43 2.028 . S
Mg42 O49 1.986 . S
Mg42 O51 2.114 . S
Mg42 O52 2.251 . S
Mg42 O55 2.010 . S
O43 Mg42 2.028 . S
O43 C46 1.250 . S
O44 Mg45 2.028 . S
O44 C46 1.248 . S
Mg45 O44 2.028 . S
Mg45 O50 2.032 . S
Mg45 O52 2.079 . S
C46 O43 1.250 . S
C46 O44 1.248 . S
C47 O48 1.264 . S
C47 O55 1.249 . S
O48 C47 1.264 . S
O49 Mg42 1.986 . S
O49 C53 1.246 . S
O50 Mg45 2.032 . S
O50 C53 1.259 . S
O51 Mg42 2.114 . S
O51 C54 1.252 . S
O52 Mg42 2.251 . S
O52 Mg45 2.079 . S
O52 C54 1.273 . S
C53 O49 1.246 . S
C53 O50 1.259 . S
C54 O51 1.252 . S
C54 O52 1.273 . S
O55 Mg42 2.010 . S
O55 C47 1.249 . S
Mg56 O57 2.028 . S
Mg56 O63 1.986 . S
Mg56 O65 2.114 . S
Mg56 O66 2.251 . S
Mg56 O69 2.010 . S
O57 Mg56 2.028 . S
O57 C60 1.250 . S
O58 Mg59 2.028 . S
O58 C60 1.248 . S
Mg59 O58 2.028 . S
Mg59 O64 2.032 . S
Mg59 O66 2.079 . S
C60 O57 1.250 . S
C60 O58 1.248 . S
C61 O62 1.264 . S
C61 O69 1.249 . S
O62 C61 1.264 . S
O63 Mg56 1.986 . S
O63 C67 1.246 . S
O64 Mg59 2.032 . S
O64 C67 1.259 . S
O65 Mg56 2.114 . S
O65 C68 1.252 . S
O66 Mg56 2.251 . S
O66 Mg59 2.079 . S
O66 C68 1.273 . S
C67 O63 1.246 . S
C67 O64 1.259 . S
C68 O65 1.252 . S
C68 O66 1.273 . S
O69 Mg56 2.010 . S
O69 C61 1.249 . S
Mg70 O71 2.028 . S
Mg70 O77 1.986 . S
Mg70 O79 2.114 . S
Mg70 O80 2.251 . S
Mg70 O83 2.010 . S
O71 Mg70 2.028 . S
O71 C74 1.250 . S
O72 Mg73 2.028 . S
O72 C74 1.248 . S
Mg73 O72 2.028 . S
Mg73 O78 2.032 . S
Mg73 O80 2.079 . S
C74 O71 1.250 . S
C74 O72 1.248 . S
C75 O76 1.264 . S
C75 O83 1.249 . S
O76 C75 1.264 . S
O77 Mg70 1.986 . S
O77 C81 1.246 . S
O78 Mg73 2.032 . S
O78 C81 1.259 . S
O79 Mg70 2.114 . S
O79 C82 1.252 . S
O80 Mg70 2.251 . S
O80 Mg73 2.079 . S
O80 C82 1.273 . S
C81 O77 1.246 . S
C81 O78 1.259 . S
C82 O79 1.252 . S
C82 O80 1.273 . S
O83 Mg70 2.010 . S
O83 C75 1.249 . S
Mg84 O85 2.028 . S
Mg84 O91 1.986 . S
Mg84 O93 2.114 . S
Mg84 O94 2.251 . S
Mg84 O97 2.010 . S
O85 Mg84 2.028 . S
O85 C88 1.250 . S
O86 Mg87 2.028 . S
O86 C88 1.248 . S
Mg87 O86 2.028 . S
Mg87 O92 2.032 . S
Mg87 O94 2.079 . S
C88 O85 1.250 . S
C88 O86 1.248 . S
C89 O90 1.264 . S
C89 O97 1.249 . S
O90 C89 1.264 . S
O91 Mg84 1.986 . S
O91 C95 1.246 . S
O92 Mg87 2.032 . S
O92 C95 1.259 . S
O93 Mg84 2.114 . S
O93 C96 1.252 . S
O94 Mg84 2.251 . S
O94 Mg87 2.079 . S
O94 C96 1.273 . S
C95 O91 1.246 . S
C95 O92 1.259 . S
C96 O93 1.252 . S
C96 O94 1.273 . S
O97 Mg84 2.010 . S
O97 C89 1.249 . S
Mg98 O99 2.028 . S
Mg98 O105 1.986 . S
Mg98 O107 2.114 . S
Mg98 O108 2.251 . S
Mg98 O111 2.010 . S
O99 Mg98 2.028 . S
O99 C102 1.250 . S
O100 Mg101 2.028 . S
O100 C102 1.248 . S
Mg101 O100 2.028 . S
Mg101 O106 2.032 . S
Mg101 O108 2.079 . S
C102 O99 1.250 . S
C102 O100 1.248 . S
C103 O104 1.264 . S
C103 O111 1.249 . S
O104 C103 1.264 . S
O105 Mg98 1.986 . S
O105 C109 1.246 . S
O106 Mg101 2.032 . S
O106 C109 1.259 . S
O107 Mg98 2.114 . S
O107 C110 1.252 . S
O108 Mg98 2.251 . S
O108 Mg101 2.079 . S
O108 C110 1.273 . S
C109 O105 1.246 . S
C109 O106 1.259 . S
C110 O107 1.252 . S
C110 O108 1.273 . S
O111 Mg98 2.010 . S
O111 C103 1.249 . S
H112 C113 0.951 . S
C113 H112 0.951 . S
C113 C119 1.265 . S
H114 C119 0.950 . S
H115 C123 0.949 . S
H116 C124 0.950 . S
H117 C125 0.951 . S
H118 C126 0.951 . S
C119 C113 1.265 . S
C119 H114 0.950 . S
C119 C120 1.478 . S
C120 C119 1.478 . S
C120 C121 1.397 . S
C120 C137 1.394 . S
C121 C120 1.397 . S
C121 C122 1.438 . S
C121 C126 1.429 . S
C122 C121 1.438 . S
C122 C123 1.428 . S
C122 C135 1.394 . S
C123 H115 0.949 . S
C123 C122 1.428 . S
C123 C124 1.345 . S
C124 H116 0.950 . S
C124 C123 1.345 . S
C124 C125 1.424 . S
C125 H117 0.951 . S
C125 C124 1.424 . S
C125 C126 1.347 . S
C126 H118 0.951 . S
C126 C121 1.429 . S
C126 C125 1.347 . S
H127 C128 0.951 . S
C128 H127 0.951 . S
C128 C134 1.265 . S
H129 C134 0.950 . S
H130 C138 0.949 . S
H131 C139 0.950 . S
H132 C140 0.951 . S
H133 C141 0.951 . S
C134 C128 1.265 . S
C134 H129 0.950 . S
C134 C135 1.478 . S
C135 C122 1.394 . S
C135 C134 1.478 . S
C135 C136 1.397 . S
C136 C135 1.397 . S
C136 C137 1.438 . S
C136 C141 1.429 . S
C137 C120 1.394 . S
C137 C136 1.438 . S
C137 C138 1.428 . S
C138 H130 0.949 . S
C138 C137 1.428 . S
C138 C139 1.345 . S
C139 H131 0.950 . S
C139 C138 1.345 . S
C139 C140 1.424 . S
C140 H132 0.951 . S
C140 C139 1.424 . S
C140 C141 1.347 . S
C141 H133 0.951 . S
C141 C136 1.429 . S
C141 C140 1.347 . S
H142 C143 0.951 . S
C143 H142 0.951 . S
C143 C149 1.265 1_655 S
H144 C149 0.950 . S
H145 C153 0.949 . S
H146 C154 0.950 . S
H147 C155 0.951 . S
H148 C156 0.951 . S
C149 C143 1.265 1_455 S
C149 H144 0.950 . S
C149 C150 1.478 . S
C150 C149 1.478 . S
C150 C151 1.397 . S
C150 C167 1.394 1_545 S
C151 C150 1.397 . S
C151 C152 1.438 . S
C151 C156 1.429 . S
C152 C151 1.438 . S
C152 C153 1.428 . S
C152 C165 1.394 1_545 S
C153 H145 0.949 . S
C153 C152 1.428 . S
C153 C154 1.345 . S
C154 H146 0.950 . S
C154 C153 1.345 . S
C154 C155 1.424 . S
C155 H147 0.951 . S
C155 C154 1.424 . S
C155 C156 1.347 . S
C156 H148 0.951 . S
C156 C151 1.429 . S
C156 C155 1.347 . S
H157 C158 0.951 . S
C158 H157 0.951 . S
C158 C164 1.265 . S
H159 C164 0.950 . S
H160 C168 0.949 . S
H161 C169 0.942 1_655 S
H162 C170 0.951 . S
H163 C171 0.951 . S
C164 C158 1.265 . S
C164 H159 0.950 . S
C164 C165 1.478 . S
C165 C152 1.394 1_565 S
C165 C164 1.478 . S
C165 C166 1.397 . S
C166 C165 1.397 . S
C166 C167 1.438 . S
C166 C171 1.429 . S
C167 C150 1.394 1_565 S
C167 C166 1.438 . S
C167 C168 1.428 . S
C168 H160 0.949 . S
C168 C167 1.428 . S
C168 C169 1.345 . S
C169 H161 0.942 1_455 S
C169 C168 1.345 . S
C169 C170 1.424 . S
C170 H162 0.951 . S
C170 C169 1.424 . S
C170 C171 1.347 . S
C171 H163 0.951 . S
C171 C166 1.429 . S
C171 C170 1.347 . S
H172 C173 0.951 . S
C173 H172 0.951 . S
C173 C179 1.265 . S
H174 C179 0.950 . S
H175 C183 0.949 . S
H176 C184 0.950 . S
H177 C185 0.951 . S
H178 C186 0.951 . S
C179 C173 1.265 . S
C179 H174 0.950 . S
C179 C180 1.478 . S
C180 C179 1.478 . S
C180 C181 1.397 . S
C180 C197 1.394 . S
C181 C180 1.397 . S
C181 C182 1.438 . S
C181 C186 1.429 . S
C182 C181 1.438 . S
C182 C183 1.428 1_655 S
C182 C195 1.394 . S
C183 H175 0.949 . S
C183 C182 1.428 1_455 S
C183 C184 1.345 . S
C184 H176 0.950 . S
C184 C183 1.345 . S
C184 C185 1.424 1_455 S
C185 H177 0.951 . S
C185 C184 1.424 1_655 S
C185 C186 1.347 . S
C186 H178 0.951 . S
C186 C181 1.429 . S
C186 C185 1.347 . S
H187 C188 0.951 . S
C188 H187 0.951 . S
C188 C194 1.265 . S
H189 C194 0.950 . S
H190 C198 0.949 . S
H191 C199 0.950 . S
H192 C200 0.951 . S
H193 C201 0.951 . S
C194 C188 1.265 . S
C194 H189 0.950 . S
C194 C195 1.478 1_455 S
C195 C182 1.394 . S
C195 C194 1.478 1_655 S
C195 C196 1.397 . S
C196 C195 1.397 . S
C196 C197 1.438 . S
C196 C201 1.429 . S
C197 C180 1.394 . S
C197 C196 1.438 . S
C197 C198 1.428 . S
C198 H190 0.949 . S
C198 C197 1.428 . S
C198 C199 1.345 . S
C199 H191 0.950 . S
C199 C198 1.345 . S
C199 C200 1.424 . S
C200 H192 0.951 . S
C200 C199 1.424 . S
C200 C201 1.347 . S
C201 H193 0.951 . S
C201 C196 1.429 . S
C201 C200 1.347 . S
H202 C203 0.951 . S
C203 H202 0.951 . S
C203 C209 1.265 . S
H204 C209 0.950 . S
H205 C213 0.949 . S
H206 C214 0.950 . S
H207 C215 0.951 . S
H208 C216 0.951 . S
C209 C203 1.265 . S
C209 H204 0.950 . S
C209 C210 1.478 . S
C210 C209 1.478 . S
C210 C211 1.397 1_545 S
C210 C227 1.394 . S
C211 C210 1.397 1_565 S
C211 C212 1.438 . S
C211 C216 1.429 . S
C212 C211 1.438 . S
C212 C213 1.428 . S
C212 C225 1.394 . S
C213 H205 0.949 . S
C213 C212 1.428 . S
C213 C214 1.345 . S
C214 H206 0.950 . S
C214 C213 1.345 . S
C214 C215 1.424 . S
C215 H207 0.951 . S
C215 C214 1.424 . S
C215 C216 1.347 . S
C216 H208 0.951 . S
C216 C211 1.429 . S
C216 C215 1.347 . S
H217 C218 0.951 . S
C218 H217 0.951 . S
C218 C224 1.265 . S
H219 C224 0.950 . S
H220 C228 0.949 . S
H221 C229 0.950 . S
H222 C230 0.951 . S
H223 C231 0.942 1_565 S
C224 C218 1.265 . S
C224 H219 0.950 . S
C224 C225 1.478 . S
C225 C212 1.394 . S
C225 C224 1.478 . S
C225 C226 1.397 . S
C226 C225 1.397 . S
C226 C227 1.438 1_565 S
C226 C231 1.429 1_565 S
C227 C210 1.394 . S
C227 C226 1.438 1_545 S
C227 C228 1.428 . S
C228 H220 0.949 . S
C228 C227 1.428 . S
C228 C229 1.345 . S
C229 H221 0.950 . S
C229 C228 1.345 . S
C229 C230 1.424 . S
C230 H222 0.951 . S
C230 C229 1.424 . S
C230 C231 1.347 . S
C231 H223 0.942 1_545 S
C231 C226 1.429 1_545 S
C231 C230 1.347 . S
H232 C233 0.951 . S
C233 H232 0.951 . S
C233 C239 1.265 . S
H234 C239 0.950 . S
H235 C243 0.949 . S
H236 C244 0.950 . S
H237 C245 0.951 . S
H238 C246 0.951 . S
C239 C233 1.265 . S
C239 H234 0.950 . S
C239 C240 1.478 . S
C240 C239 1.478 . S
C240 C241 1.397 . S
C240 C257 1.394 . S
C241 C240 1.397 . S
C241 C242 1.438 . S
C241 C246 1.429 . S
C242 C241 1.438 . S
C242 C243 1.428 . S
C242 C255 1.394 . S
C243 H235 0.949 . S
C243 C242 1.428 . S
C243 C244 1.345 . S
C244 H236 0.950 . S
C244 C243 1.345 . S
C244 C245 1.424 . S
C245 H237 0.951 . S
C245 C244 1.424 . S
C245 C246 1.347 . S
C246 H238 0.951 . S
C246 C241 1.429 . S
C246 C245 1.347 . S
H247 C248 0.951 . S
C248 H247 0.951 . S
C248 C254 1.265 . S
H249 C254 0.950 . S
H250 C258 0.949 . S
H251 C259 0.950 . S
H252 C260 0.951 . S
H253 C261 0.951 . S
C254 C248 1.265 . S
C254 H249 0.950 . S
C254 C255 1.478 . S
C255 C242 1.394 . S
C255 C254 1.478 . S
C255 C256 1.397 . S
C256 C255 1.397 . S
C256 C257 1.438 . S
C256 C261 1.429 . S
C257 C240 1.394 . S
C257 C256 1.438 . S
C257 C258 1.428 . S
C258 H250 0.949 . S
C258 C257 1.428 . S
C258 C259 1.345 . S
C259 H251 0.950 . S
C259 C258 1.345 . S
C259 C260 1.424 . S
C260 H252 0.951 . S
C260 C259 1.424 . S
C260 C261 1.347 . S
C261 H253 0.951 . S
C261 C256 1.429 . S
C261 C260 1.347 . S
H262 C263 0.951 . S
C263 H262 0.951 . S
C263 C269 1.265 . S
H264 C269 0.950 . S
H265 C273 0.949 . S
H266 C274 0.950 . S
H267 C275 0.951 . S
H268 C276 0.951 . S
C269 C263 1.265 . S
C269 H264 0.950 . S
C269 C270 1.478 1_545 S
C270 C269 1.478 1_565 S
C270 C271 1.397 . S
C270 C287 1.394 1_565 S
C271 C270 1.397 . S
C271 C272 1.438 . S
C271 C276 1.429 . S
C272 C271 1.438 . S
C272 C273 1.428 . S
C272 C285 1.394 . S
C273 H265 0.949 . S
C273 C272 1.428 . S
C273 C274 1.345 . S
C274 H266 0.950 . S
C274 C273 1.345 . S
C274 C275 1.424 . S
C275 H267 0.951 . S
C275 C274 1.424 . S
C275 C276 1.347 . S
C276 H268 0.951 . S
C276 C271 1.429 . S
C276 C275 1.347 . S
H277 C278 0.951 1_655 S
C278 H277 0.951 1_455 S
C278 C284 1.265 . S
H279 C284 0.950 . S
H280 C288 0.949 . S
H281 C289 0.950 . S
H282 C290 0.951 1_455 S
H283 C291 0.951 1_455 S
C284 C278 1.265 . S
C284 H279 0.950 . S
C284 C285 1.478 1_455 S
C285 C272 1.394 . S
C285 C284 1.478 1_655 S
C285 C286 1.397 1_565 S
C286 C285 1.397 1_545 S
C286 C287 1.438 . S
C286 C291 1.429 . S
C287 C270 1.394 1_545 S
C287 C286 1.438 . S
C287 C288 1.428 . S
C288 H280 0.949 . S
C288 C287 1.428 . S
C288 C289 1.345 . S
C289 H281 0.950 . S
C289 C288 1.345 . S
C289 C290 1.424 . S
C290 H282 0.951 1_655 S
C290 C289 1.424 . S
C290 C291 1.347 . S
C291 H283 0.951 1_655 S
C291 C286 1.429 . S
C291 C290 1.347 . S
H292 C293 0.951 . S
C293 H292 0.951 . S
C293 C299 1.265 . S
H294 C299 0.950 . S
H295 C303 0.949 . S
H296 C304 0.950 . S
H297 C305 0.951 . S
H298 C306 0.951 . S
C299 C293 1.265 . S
C299 H294 0.950 . S
C299 C300 1.478 . S
C300 C299 1.478 . S
C300 C301 1.397 . S
C300 C317 1.394 . S
C301 C300 1.397 . S
C301 C302 1.438 . S
C301 C306 1.429 . S
C302 C301 1.438 . S
C302 C303 1.428 1_455 S
C302 C315 1.394 . S
C303 H295 0.949 . S
C303 C302 1.428 1_655 S
C303 C304 1.345 . S
C304 H296 0.950 . S
C304 C303 1.345 . S
C304 C305 1.424 1_655 S
C305 H297 0.951 . S
C305 C304 1.424 1_455 S
C305 C306 1.347 . S
C306 H298 0.951 . S
C306 C301 1.429 . S
C306 C305 1.347 . S
H307 C308 0.951 . S
C308 H307 0.951 . S
C308 C314 1.265 . S
H309 C314 0.950 . S
H310 C318 0.949 . S
H311 C319 0.950 . S
H312 C320 0.951 . S
H313 C321 0.951 . S
C314 C308 1.265 . S
C314 H309 0.950 . S
C314 C315 1.478 1_655 S
C315 C302 1.394 . S
C315 C314 1.478 1_455 S
C315 C316 1.397 . S
C316 C315 1.397 . S
C316 C317 1.438 . S
C316 C321 1.429 . S
C317 C300 1.394 . S
C317 C316 1.438 . S
C317 C318 1.428 . S
C318 H310 0.949 . S
C318 C317 1.428 . S
C318 C319 1.345 . S
C319 H311 0.950 . S
C319 C318 1.345 . S
C319 C320 1.424 . S
C320 H312 0.951 . S
C320 C319 1.424 . S
C320 C321 1.347 . S
C321 H313 0.951 . S
C321 C316 1.429 . S
C321 C320 1.347 . S
H322 C323 0.951 . S
C323 H322 0.951 . S
C323 C329 1.265 . S
H324 C329 0.950 1_545 S
H325 C333 0.949 . S
H326 C334 0.950 . S
H327 C335 0.951 . S
H328 C336 0.951 . S
C329 C323 1.265 . S
C329 H324 0.950 1_565 S
C329 C330 1.478 1_565 S
C330 C329 1.478 1_545 S
C330 C331 1.397 . S
C330 C347 1.394 1_545 S
C331 C330 1.397 . S
C331 C332 1.438 . S
C331 C336 1.429 . S
C332 C331 1.438 . S
C332 C333 1.428 . S
C332 C345 1.394 . S
C333 H325 0.949 . S
C333 C332 1.428 . S
C333 C334 1.345 . S
C334 H326 0.950 . S
C334 C333 1.345 . S
C334 C335 1.424 . S
C335 H327 0.951 . S
C335 C334 1.424 . S
C335 C336 1.347 . S
C336 H328 0.951 . S
C336 C331 1.429 . S
C336 C335 1.347 . S
H337 C338 0.951 . S
C338 H337 0.951 . S
C338 C344 1.265 . S
H339 C344 0.950 . S
H340 C348 0.949 . S
H341 C349 0.950 . S
H342 C350 0.951 . S
H343 C351 0.951 . S
C344 C338 1.265 . S
C344 H339 0.950 . S
C344 C345 1.478 . S
C345 C332 1.394 . S
C345 C344 1.478 . S
C345 C346 1.397 1_545 S
C346 C345 1.397 1_565 S
C346 C347 1.438 . S
C346 C351 1.429 . S
C347 C330 1.394 1_565 S
C347 C346 1.438 . S
C347 C348 1.428 . S
C348 H340 0.949 . S
C348 C347 1.428 . S
C348 C349 1.345 . S
C349 H341 0.950 . S
C349 C348 1.345 . S
C349 C350 1.424 . S
C350 H342 0.951 . S
C350 C349 1.424 . S
C350 C351 1.347 . S
C351 H343 0.951 . S
C351 C346 1.429 . S
C351 C350 1.347 . S
H352 C353 0.951 . S
C353 H352 0.951 . S
C353 C359 1.265 . S
H354 C359 0.950 . S
H355 C363 0.949 . S
H356 C364 0.950 . S
H357 C365 0.951 . S
H358 C366 0.951 . S
C359 C353 1.265 . S
C359 H354 0.950 . S
C359 C360 1.478 . S
C360 C359 1.478 . S
C360 C361 1.397 . S
C360 C377 1.394 . S
C361 C360 1.397 . S
C361 C362 1.438 1_455 S
C361 C366 1.429 . S
C362 C361 1.438 1_655 S
C362 C363 1.428 . S
C362 C375 1.394 . S
C363 H355 0.949 . S
C363 C362 1.428 . S
C363 C364 1.345 1_655 S
C364 H356 0.950 . S
C364 C363 1.345 1_455 S
C364 C365 1.424 . S
C365 H357 0.951 . S
C365 C364 1.424 . S
C365 C366 1.347 . S
C366 H358 0.951 . S
C366 C361 1.429 . S
C366 C365 1.347 . S
H367 C368 0.951 . S
C368 H367 0.951 . S
C368 C374 1.265 . S
H369 C374 0.950 . S
H370 C378 0.949 . S
H371 C379 0.950 . S
H372 C380 0.951 . S
H373 C381 0.951 . S
C374 C368 1.265 . S
C374 H369 0.950 . S
C374 C375 1.478 . S
C375 C362 1.394 . S
C375 C374 1.478 . S
C375 C376 1.397 . S
C376 C375 1.397 . S
C376 C377 1.438 1_655 S
C376 C381 1.429 . S
C377 C360 1.394 . S
C377 C376 1.438 1_455 S
C377 C378 1.428 . S
C378 H370 0.949 . S
C378 C377 1.428 . S
C378 C379 1.345 1_455 S
C379 H371 0.950 . S
C379 C378 1.345 1_655 S
C379 C380 1.424 . S
C380 H372 0.951 . S
C380 C379 1.424 . S
C380 C381 1.347 . S
C381 H373 0.951 . S
C381 C376 1.429 . S
C381 C380 1.347 . S
H382 C383 0.951 . S
C383 H382 0.951 . S
C383 C389 1.265 . S
H384 C389 0.950 . S
H385 C393 0.949 . S
H386 C394 0.950 . S
H387 C395 0.951 . S
H388 C396 0.951 . S
C389 C383 1.265 . S
C389 H384 0.950 . S
C389 C390 1.478 . S
C390 C389 1.478 . S
C390 C391 1.397 1_565 S
C390 C407 1.394 . S
C391 C390 1.397 1_545 S
C391 C392 1.438 . S
C391 C396 1.429 . S
C392 C391 1.438 . S
C392 C393 1.428 . S
C392 C405 1.394 . S
C393 H385 0.949 . S
C393 C392 1.428 . S
C393 C394 1.345 . S
C394 H386 0.950 . S
C394 C393 1.345 . S
C394 C395 1.424 . S
C395 H387 0.951 . S
C395 C394 1.424 . S
C395 C396 1.347 . S
C396 H388 0.951 . S
C396 C391 1.429 . S
C396 C395 1.347 . S
H397 C398 0.951 . S
C398 H397 0.951 . S
C398 C404 1.265 . S
H399 C404 0.950 . S
H400 C408 0.949 . S
H401 C409 0.950 . S
H402 C410 0.951 . S
H403 C411 0.951 . S
C404 C398 1.265 . S
C404 H399 0.950 . S
C404 C405 1.478 . S
C405 C392 1.394 . S
C405 C404 1.478 . S
C405 C406 1.397 1_545 S
C406 C405 1.397 1_565 S
C406 C407 1.438 . S
C406 C411 1.429 . S
C407 C390 1.394 . S
C407 C406 1.438 . S
C407 C408 1.428 . S
C408 H400 0.949 . S
C408 C407 1.428 . S
C408 C409 1.345 . S
C409 H401 0.950 . S
C409 C408 1.345 . S
C409 C410 1.424 . S
C410 H402 0.951 . S
C410 C409 1.424 . S
C410 C411 1.347 . S
C411 H403 0.951 . S
C411 C406 1.429 . S
C411 C410 1.347 . S
H412 C413 0.951 . S
C413 H412 0.951 . S
C413 C419 1.265 . S
H414 C419 0.950 . S
H415 C423 0.949 . S
H416 C424 0.950 . S
H417 C425 0.951 . S
H418 C426 0.951 . S
C419 C413 1.265 . S
C419 H414 0.950 . S
C419 C420 1.478 . S
C420 C419 1.478 . S
C420 C421 1.397 . S
C420 C437 1.394 . S
C421 C420 1.397 . S
C421 C422 1.438 1_554 S
C421 C426 1.429 . S
C422 C421 1.438 1_556 S
C422 C423 1.428 . S
C422 C435 1.394 . S
C423 H415 0.949 . S
C423 C422 1.428 . S
C423 C424 1.345 1_556 S
C424 H416 0.950 . S
C424 C423 1.345 1_554 S
C424 C425 1.424 . S
C425 H417 0.951 . S
C425 C424 1.424 . S
C425 C426 1.347 . S
C426 H418 0.951 . S
C426 C421 1.429 . S
C426 C425 1.347 . S
H427 C428 0.951 . S
C428 H427 0.951 . S
C428 C434 1.265 . S
H429 C434 0.950 . S
H430 C438 0.949 . S
H431 C439 0.950 . S
H432 C440 0.951 . S
H433 C441 0.951 . S
C434 C428 1.265 . S
C434 H429 0.950 . S
C434 C435 1.478 . S
C435 C422 1.394 . S
C435 C434 1.478 . S
C435 C436 1.397 . S
C436 C435 1.397 . S
C436 C437 1.438 1_556 S
C436 C441 1.429 . S
C437 C420 1.394 . S
C437 C436 1.438 1_554 S
C437 C438 1.428 . S
C438 H430 0.949 . S
C438 C437 1.428 . S
C438 C439 1.345 1_554 S
C439 H431 0.950 . S
C439 C438 1.345 1_556 S
C439 C440 1.424 . S
C440 H432 0.951 . S
C440 C439 1.424 . S
C440 C441 1.347 . S
C441 H433 0.951 . S
C441 C436 1.429 . S
C441 C440 1.347 . S
H442 C443 0.951 . S
C443 H442 0.951 . S
C443 C449 1.265 . S
H444 C449 0.950 . S
H445 C453 0.949 . S
H446 C454 0.950 . S
H447 C455 0.951 . S
H448 C456 0.951 . S
C449 C443 1.265 . S
C449 H444 0.950 . S
C449 C450 1.478 . S
C450 C449 1.478 . S
C450 C451 1.397 1_565 S
C450 C467 1.394 . S
C451 C450 1.397 1_545 S
C451 C452 1.438 1_456 S
C451 C456 1.429 . S
C452 C451 1.438 1_654 S
C452 C453 1.428 . S
C452 C465 1.394 . S
C453 H445 0.949 . S
C453 C452 1.428 . S
C453 C454 1.345 1_655 S
C454 H446 0.950 . S
C454 C453 1.345 1_455 S
C454 C455 1.424 1_554 S
C455 H447 0.951 . S
C455 C454 1.424 1_556 S
C455 C456 1.347 . S
C456 H448 0.951 . S
C456 C451 1.429 . S
C456 C455 1.347 . S
H457 C458 0.951 . S
C458 H457 0.951 . S
C458 C464 1.265 . S
H459 C464 0.950 . S
H460 C468 0.949 . S
H461 C469 0.950 . S
H462 C470 0.951 . S
H463 C471 0.951 . S
C464 C458 1.265 . S
C464 H459 0.950 . S
C464 C465 1.478 . S
C465 C452 1.394 . S
C465 C464 1.478 . S
C465 C466 1.397 1_545 S
C466 C465 1.397 1_565 S
C466 C467 1.438 1_654 S
C466 C471 1.429 . S
C467 C450 1.394 . S
C467 C466 1.438 1_456 S
C467 C468 1.428 . S
C468 H460 0.949 . S
C468 C467 1.428 . S
C468 C469 1.345 1_455 S
C469 H461 0.950 . S
C469 C468 1.345 1_655 S
C469 C470 1.424 1_556 S
C470 H462 0.951 . S
C470 C469 1.424 1_554 S
C470 C471 1.347 . S
C471 H463 0.951 . S
C471 C466 1.429 . S
C471 C470 1.347 . S
H472 C473 0.951 . S
C473 H472 0.951 . S
C473 C479 1.265 . S
H474 C479 0.950 . S
H475 C483 0.949 . S
H476 C484 0.950 . S
H477 C485 0.951 . S
H478 C486 0.951 . S
C479 C473 1.265 . S
C479 H474 0.950 . S
C479 C480 1.478 . S
C480 C479 1.478 . S
C480 C481 1.397 . S
C480 C497 1.394 . S
C481 C480 1.397 . S
C481 C482 1.438 . S
C481 C486 1.429 . S
C482 C481 1.438 . S
C482 C483 1.428 . S
C482 C495 1.394 . S
C483 H475 0.949 . S
C483 C482 1.428 . S
C483 C484 1.345 . S
C484 H476 0.950 . S
C484 C483 1.345 . S
C484 C485 1.424 . S
C485 H477 0.951 . S
C485 C484 1.424 . S
C485 C486 1.347 . S
C486 H478 0.951 . S
C486 C481 1.429 . S
C486 C485 1.347 . S
H487 C488 0.951 . S
C488 H487 0.951 . S
C488 C494 1.265 . S
H489 C494 0.950 . S
H490 C498 0.949 . S
H491 C499 0.950 . S
H492 C500 0.951 . S
H493 C501 0.951 . S
C494 C488 1.265 . S
C494 H489 0.950 . S
C494 C495 1.478 . S
C495 C482 1.394 . S
C495 C494 1.478 . S
C495 C496 1.397 . S
C496 C495 1.397 . S
C496 C497 1.438 . S
C496 C501 1.429 . S
C497 C480 1.394 . S
C497 C496 1.438 . S
C497 C498 1.428 . S
C498 H490 0.949 . S
C498 C497 1.428 . S
C498 C499 1.345 . S
C499 H491 0.950 . S
C499 C498 1.345 . S
C499 C500 1.424 . S
C500 H492 0.951 . S
C500 C499 1.424 . S
C500 C501 1.347 . S
C501 H493 0.951 . S
C501 C496 1.429 . S
C501 C500 1.347 . S
H502 C503 0.951 . S
C503 H502 0.951 . S
C503 C509 1.265 . S
H504 C509 0.950 . S
H505 C513 0.949 . S
H506 C514 0.950 . S
H507 C515 0.951 . S
H508 C516 0.951 . S
C509 C503 1.265 . S
C509 H504 0.950 . S
C509 C510 1.478 . S
C510 C509 1.478 . S
C510 C511 1.397 . S
C510 C527 1.394 . S
C511 C510 1.397 . S
C511 C512 1.438 . S
C511 C516 1.429 . S
C512 C511 1.438 . S
C512 C513 1.428 . S
C512 C525 1.394 . S
C513 H505 0.949 . S
C513 C512 1.428 . S
C513 C514 1.345 . S
C514 H506 0.950 . S
C514 C513 1.345 . S
C514 C515 1.424 . S
C515 H507 0.951 . S
C515 C514 1.424 . S
C515 C516 1.347 . S
C516 H508 0.951 . S
C516 C511 1.429 . S
C516 C515 1.347 . S
H517 C518 0.951 . S
C518 H517 0.951 . S
C518 C524 1.265 . S
H519 C524 0.950 . S
H520 C528 0.949 . S
H521 C529 0.950 . S
H522 C530 0.951 . S
H523 C531 0.951 . S
C524 C518 1.265 . S
C524 H519 0.950 . S
C524 C525 1.478 . S
C525 C512 1.394 . S
C525 C524 1.478 . S
C525 C526 1.397 . S
C526 C525 1.397 . S
C526 C527 1.438 . S
C526 C531 1.429 . S
C527 C510 1.394 . S
C527 C526 1.438 . S
C527 C528 1.428 . S
C528 H520 0.949 . S
C528 C527 1.428 . S
C528 C529 1.345 . S
C529 H521 0.950 . S
C529 C528 1.345 . S
C529 C530 1.424 . S
C530 H522 0.951 . S
C530 C529 1.424 . S
C530 C531 1.347 . S
C531 H523 0.951 . S
C531 C526 1.429 . S
C531 C530 1.347 . S
H532 C533 0.951 . S
C533 H532 0.951 . S
C533 C539 1.265 . S
H534 C539 0.950 . S
H535 C543 0.949 . S
H536 C544 0.950 . S
H537 C545 0.951 . S
H538 C546 0.951 . S
C539 C533 1.265 . S
C539 H534 0.950 . S
C539 C540 1.478 . S
C540 C539 1.478 . S
C540 C541 1.397 . S
C540 C557 1.394 . S
C541 C540 1.397 . S
C541 C542 1.438 . S
C541 C546 1.429 . S
C542 C541 1.438 . S
C542 C543 1.428 . S
C542 C555 1.394 . S
C543 H535 0.949 . S
C543 C542 1.428 . S
C543 C544 1.345 . S
C544 H536 0.950 . S
C544 C543 1.345 . S
C544 C545 1.424 . S
C545 H537 0.951 . S
C545 C544 1.424 . S
C545 C546 1.347 . S
C546 H538 0.951 . S
C546 C541 1.429 . S
C546 C545 1.347 . S
H547 C548 0.951 . S
C548 H547 0.951 . S
C548 C554 1.265 . S
H549 C554 0.950 . S
H550 C558 0.949 . S
H551 C559 0.950 . S
H552 C560 0.951 . S
H553 C561 0.951 . S
C554 C548 1.265 . S
C554 H549 0.950 . S
C554 C555 1.478 . S
C555 C542 1.394 . S
C555 C554 1.478 . S
C555 C556 1.397 . S
C556 C555 1.397 . S
C556 C557 1.438 . S
C556 C561 1.429 . S
C557 C540 1.394 . S
C557 C556 1.438 . S
C557 C558 1.428 . S
C558 H550 0.949 . S
C558 C557 1.428 . S
C558 C559 1.345 . S
C559 H551 0.950 . S
C559 C558 1.345 . S
C559 C560 1.424 . S
C560 H552 0.951 . S
C560 C559 1.424 . S
C560 C561 1.347 . S
C561 H553 0.951 . S
C561 C556 1.429 . S
C561 C560 1.347 . S
H562 C563 0.951 . S
C563 H562 0.951 . S
C563 C569 1.265 . S
H564 C569 0.950 . S
H565 C573 0.949 . S
H566 C574 0.950 . S
H567 C575 0.951 . S
H568 C576 0.951 . S
C569 C563 1.265 . S
C569 H564 0.950 . S
C569 C570 1.478 . S
C570 C569 1.478 . S
C570 C571 1.397 . S
C570 C587 1.394 . S
C571 C570 1.397 . S
C571 C572 1.438 . S
C571 C576 1.429 . S
C572 C571 1.438 . S
C572 C573 1.428 . S
C572 C585 1.394 . S
C573 H565 0.949 . S
C573 C572 1.428 . S
C573 C574 1.345 . S
C574 H566 0.950 . S
C574 C573 1.345 . S
C574 C575 1.424 . S
C575 H567 0.951 . S
C575 C574 1.424 . S
C575 C576 1.347 . S
C576 H568 0.951 . S
C576 C571 1.429 . S
C576 C575 1.347 . S
H577 C578 0.951 . S
C578 H577 0.951 . S
C578 C584 1.265 . S
H579 C584 0.950 . S
H580 C588 0.949 . S
H581 C589 0.950 . S
H582 C590 0.951 . S
H583 C591 0.951 . S
C584 C578 1.265 . S
C584 H579 0.950 . S
C584 C585 1.478 . S
C585 C572 1.394 . S
C585 C584 1.478 . S
C585 C586 1.397 . S
C586 C585 1.397 . S
C586 C587 1.438 . S
C586 C591 1.429 . S
C587 C570 1.394 . S
C587 C586 1.438 . S
C587 C588 1.428 . S
C588 H580 0.949 . S
C588 C587 1.428 . S
C588 C589 1.345 . S
C589 H581 0.950 . S
C589 C588 1.345 . S
C589 C590 1.424 . S
C590 H582 0.951 . S
C590 C589 1.424 . S
C590 C591 1.347 . S
C591 H583 0.951 . S
C591 C586 1.429 . S
C591 C590 1.347 . S
C113 C12 1.141 . S
C128 C32 1.147 . S
C143 C46 1.057 . S
C158 C26 1.113 . S
C173 C40 1.150 . S
C188 C4 1.145 . S
C203 C54 1.113 . S
C218 C18 1.057 . S
C233 C88 1.075 . S
C248 C68 1.123 . S
C263 C82 1.146 . S
C278 C102 1.155 . S
C293 C96 1.118 . S
C308 C60 1.098 . S
C323 C110 1.133 . S
C338 C74 1.132 . S
C353 C5 1.438 . S
C368 C61 1.438 . S
C383 C19 1.307 . S
C398 C75 1.307 . S
C413 C33 1.301 . S
C428 C89 1.301 . S
C443 C103 1.432 . S
C458 C47 1.432 . S
C473 C11 1.491 . S
C488 C25 1.444 . S
C503 C53 1.505 . S
C518 C39 1.504 . S
C533 C81 1.460 . S
C548 C67 1.456 . S
C563 C95 1.459 . S
C578 C109 1.458 . S
