# Generated by pormake.
# Topology neb, (4)-cn, num edge types: 1
# Building blocks:
#     Node 0, Type 0, BuildingBlock: GALJAG_clean_sbu_0, # of connection points: 4
#     Node 1, Type 0, BuildingBlock: GALJAG_clean_sbu_0, # of connection points: 4
#     Node 2, Type 0, BuildingBlock: GALJAG_clean_sbu_0, # of connection points: 4
#     Node 3, Type 0, BuildingBlock: GALJAG_clean_sbu_0, # of connection points: 4
#     Node 4, Type 0, BuildingBlock: GALJAG_clean_sbu_0, # of connection points: 4
#     Node 5, Type 0, BuildingBlock: GALJAG_clean_sbu_0, # of connection points: 4
#     Node 6, Type 0, BuildingBlock: GALJAG_clean_sbu_0, # of connection points: 4
#     Node 7, Type 0, BuildingBlock: GALJAG_clean_sbu_0, # of connection points: 4
#     Node 8, Type 0, BuildingBlock: GALJAG_clean_sbu_0, # of connection points: 4
#     Node 9, Type 0, BuildingBlock: GALJAG_clean_sbu_0, # of connection points: 4
#     Node 10, Type 0, BuildingBlock: GALJAG_clean_sbu_0, # of connection points: 4
#     Node 11, Type 0, BuildingBlock: GALJAG_clean_sbu_0, # of connection points: 4
#     Node 12, Type 0, BuildingBlock: GALJAG_clean_sbu_0, # of connection points: 4
#     Node 13, Type 0, BuildingBlock: GALJAG_clean_sbu_0, # of connection points: 4
#     Node 14, Type 0, BuildingBlock: GALJAG_clean_sbu_0, # of connection points: 4
#     Node 15, Type 0, BuildingBlock: GALJAG_clean_sbu_0, # of connection points: 4
#     Edge 16, Type (0, 0), BuildingBlock: XUDNAN_clean_linker_2, # of connection points: 2
#     Edge 17, Type (0, 0), BuildingBlock: XUDNAN_clean_linker_2, # of connection points: 2
#     Edge 18, Type (0, 0), BuildingBlock: XUDNAN_clean_linker_2, # of connection points: 2
#     Edge 19, Type (0, 0), BuildingBlock: XUDNAN_clean_linker_2, # of connection points: 2
#     Edge 20, Type (0, 0), BuildingBlock: XUDNAN_clean_linker_2, # of connection points: 2
#     Edge 21, Type (0, 0), BuildingBlock: XUDNAN_clean_linker_2, # of connection points: 2
#     Edge 22, Type (0, 0), BuildingBlock: XUDNAN_clean_linker_2, # of connection points: 2
#     Edge 23, Type (0, 0), BuildingBlock: XUDNAN_clean_linker_2, # of connection points: 2
#     Edge 24, Type (0, 0), BuildingBlock: XUDNAN_clean_linker_2, # of connection points: 2
#     Edge 25, Type (0, 0), BuildingBlock: XUDNAN_clean_linker_2, # of connection points: 2
#     Edge 26, Type (0, 0), BuildingBlock: XUDNAN_clean_linker_2, # of connection points: 2
#     Edge 27, Type (0, 0), BuildingBlock: XUDNAN_clean_linker_2, # of connection points: 2
#     Edge 28, Type (0, 0), BuildingBlock: XUDNAN_clean_linker_2, # of connection points: 2
#     Edge 29, Type (0, 0), BuildingBlock: XUDNAN_clean_linker_2, # of connection points: 2
#     Edge 30, Type (0, 0), BuildingBlock: XUDNAN_clean_linker_2, # of connection points: 2
#     Edge 31, Type (0, 0), BuildingBlock: XUDNAN_clean_linker_2, # of connection points: 2
#     Edge 32, Type (0, 0), BuildingBlock: XUDNAN_clean_linker_2, # of connection points: 2
#     Edge 33, Type (0, 0), BuildingBlock: XUDNAN_clean_linker_2, # of connection points: 2
#     Edge 34, Type (0, 0), BuildingBlock: XUDNAN_clean_linker_2, # of connection points: 2
#     Edge 35, Type (0, 0), BuildingBlock: XUDNAN_clean_linker_2, # of connection points: 2
#     Edge 36, Type (0, 0), BuildingBlock: XUDNAN_clean_linker_2, # of connection points: 2
#     Edge 37, Type (0, 0), BuildingBlock: XUDNAN_clean_linker_2, # of connection points: 2
#     Edge 38, Type (0, 0), BuildingBlock: XUDNAN_clean_linker_2, # of connection points: 2
#     Edge 39, Type (0, 0), BuildingBlock: XUDNAN_clean_linker_2, # of connection points: 2
#     Edge 40, Type (0, 0), BuildingBlock: XUDNAN_clean_linker_2, # of connection points: 2
#     Edge 41, Type (0, 0), BuildingBlock: XUDNAN_clean_linker_2, # of connection points: 2
#     Edge 42, Type (0, 0), BuildingBlock: XUDNAN_clean_linker_2, # of connection points: 2
#     Edge 43, Type (0, 0), BuildingBlock: XUDNAN_clean_linker_2, # of connection points: 2
#     Edge 44, Type (0, 0), BuildingBlock: XUDNAN_clean_linker_2, # of connection points: 2
#     Edge 45, Type (0, 0), BuildingBlock: XUDNAN_clean_linker_2, # of connection points: 2
#     Edge 46, Type (0, 0), BuildingBlock: XUDNAN_clean_linker_2, # of connection points: 2
#     Edge 47, Type (0, 0), BuildingBlock: XUDNAN_clean_linker_2, # of connection points: 2
# Relax obj value: 0.003
# Max RMSD: 0.033
# Mean RMSD: 0.033
data_MOF--net-neb--node1-GALJAG_clean_sbu_0--edge1-XUDNAN_clean_linker_2
_symmetry_space_group_name_H-M    P1
_symmetry_Int_Tables_number       1
_symmetry_cell_setting            triclinic
loop_
_symmetry_equiv_pos_as_xyz
'x, y, z'
_cell_length_a     42.145171
_cell_length_b     24.680827
_cell_length_c     70.175142
_cell_angle_alpha  90.060729
_cell_angle_beta   90.380269
_cell_angle_gamma 90.039061
loop_
_atom_site_label
_atom_site_type_symbol
_atom_site_fract_x
_atom_site_fract_y
_atom_site_fract_z
_atom_type_partial_charge
In0 In 0.13733 0.11435 0.44123 0.0
O1 O 0.14894 0.02477 0.43585 0.0
O2 O 0.16092 0.0804 0.41424 0.0
C3 C 0.1718 0.15953 0.46982 0.0
C4 C 0.08558 0.06997 0.45737 0.0
C5 C 0.12371 0.2013 0.41918 0.0
O6 O 0.18421 0.1287 0.45757 0.0
O7 O 0.14241 0.16663 0.4677 0.0
O8 O 0.10275 0.1682 0.42458 0.0
O9 O 0.15147 0.19029 0.42476 0.0
C10 C 0.15995 0.03165 0.41943 0.0
O11 O 0.08443 0.09477 0.44162 0.0
O12 O 0.11276 0.06804 0.46501 0.0
In13 In 0.11912 0.15522 0.81979 0.0
O14 O 0.08893 0.10901 0.8412 0.0
O15 O 0.13711 0.08515 0.8383 0.0
C16 C 0.06558 0.18565 0.80108 0.0
C17 C 0.1559 0.10646 0.79325 0.0
C18 C 0.13838 0.24864 0.83689 0.0
O19 O 0.06683 0.14434 0.81162 0.0
O20 O 0.09124 0.21168 0.80002 0.0
O21 O 0.12552 0.21061 0.84599 0.0
O22 O 0.14249 0.23878 0.81948 0.0
C23 C 0.11071 0.07684 0.84622 0.0
O24 O 0.16757 0.13179 0.80728 0.0
O25 O 0.12602 0.10577 0.79273 0.0
In26 In 0.88466 0.87574 0.56664 0.0
O27 O 0.85908 0.95177 0.57768 0.0
O28 O 0.90939 0.94644 0.58072 0.0
C29 C 0.84168 0.81824 0.5466 0.0
C30 C 0.92304 0.90328 0.53777 0.0
C31 C 0.88833 0.80901 0.59697 0.0
O32 O 0.83533 0.86484 0.55316 0.0
O33 O 0.86937 0.8015 0.55019 0.0
O34 O 0.90918 0.80835 0.58406 0.0
O35 O 0.86692 0.84414 0.59473 0.0
C36 C 0.88459 0.97408 0.58325 0.0
O37 O 0.93349 0.87861 0.55236 0.0
O38 O 0.89359 0.91258 0.53779 0.0
In39 In 0.88018 0.88755 0.19311 0.0
O40 O 0.83152 0.90992 0.20542 0.0
O41 O 0.87275 0.94698 0.21729 0.0
C42 C 0.86614 0.8027 0.17005 0.0
C43 C 0.89468 0.97108 0.16977 0.0
C44 C 0.917 0.83504 0.2187 0.0
O45 O 0.84567 0.82497 0.18053 0.0
O46 O 0.89331 0.8241 0.17086 0.0
O47 O 0.92862 0.86595 0.20619 0.0
O48 O 0.8872 0.83066 0.21811 0.0
C49 C 0.84295 0.94239 0.21763 0.0
O50 O 0.91495 0.94934 0.18067 0.0
O51 O 0.86751 0.94968 0.17027 0.0
In52 In 0.12554 0.65082 0.9416 0.0
O53 O 0.15369 0.57843 0.93014 0.0
O54 O 0.11959 0.61492 0.91177 0.0
C55 C 0.16499 0.69469 0.968 0.0
C56 C 0.08462 0.58907 0.96173 0.0
C57 C 0.11202 0.74236 0.92222 0.0
O58 O 0.17521 0.66918 0.95368 0.0
O59 O 0.13519 0.69713 0.96904 0.0
O60 O 0.09095 0.7157 0.93095 0.0
O61 O 0.13955 0.72228 0.92308 0.0
C62 C 0.13995 0.57809 0.91411 0.0
O63 O 0.07584 0.63243 0.9537 0.0
O64 O 0.1135 0.57773 0.95959 0.0
In65 In 0.12796 0.62073 0.31946 0.0
O66 O 0.09638 0.55527 0.33213 0.0
O67 O 0.14476 0.5561 0.34074 0.0
C68 C 0.077 0.6658 0.30201 0.0
C69 C 0.16336 0.57138 0.2925 0.0
C70 C 0.14944 0.70764 0.33957 0.0
O71 O 0.07495 0.63811 0.31705 0.0
O72 O 0.10484 0.67128 0.29581 0.0
O73 O 0.1581 0.69749 0.32279 0.0
O74 O 0.13041 0.67346 0.34638 0.0
C75 C 0.11797 0.53345 0.34199 0.0
O76 O 0.1756 0.5974 0.3062 0.0
O77 O 0.13346 0.57049 0.29242 0.0
In78 In 0.88009 0.38672 0.06841 0.0
O79 O 0.8475 0.43663 0.08769 0.0
O80 O 0.89533 0.46193 0.08539 0.0
C81 C 0.83331 0.35755 0.04384 0.0
C82 C 0.92573 0.41459 0.04327 0.0
C83 C 0.89223 0.30341 0.0927 0.0
O84 O 0.83215 0.39994 0.05388 0.0
O85 O 0.85838 0.33023 0.04591 0.0
O86 O 0.91288 0.33807 0.08828 0.0
O87 O 0.86541 0.3113 0.08519 0.0
C88 C 0.86841 0.47065 0.09247 0.0
O89 O 0.92657 0.37147 0.05289 0.0
O90 O 0.90162 0.44367 0.04613 0.0
In91 In 0.86538 0.37877 0.68802 0.0
O92 O 0.81215 0.37284 0.69346 0.0
O93 O 0.84032 0.41958 0.71274 0.0
C94 C 0.87101 0.3069 0.65901 0.0
C95 C 0.87214 0.47698 0.67157 0.0
C96 C 0.90169 0.33239 0.71543 0.0
O97 O 0.84653 0.30916 0.66923 0.0
O98 O 0.89192 0.34157 0.66312 0.0
O99 O 0.90934 0.37651 0.70758 0.0
O100 O 0.87593 0.31236 0.70953 0.0
C101 C 0.813 0.40282 0.7081 0.0
O102 O 0.89548 0.4522 0.67882 0.0
O103 O 0.84613 0.45195 0.67226 0.0
In104 In 0.63779 0.11755 0.93846 0.0
O105 O 0.67161 0.06066 0.92229 0.0
O106 O 0.62194 0.05274 0.91762 0.0
C107 C 0.6754 0.17525 0.96225 0.0
C108 C 0.60274 0.06224 0.96392 0.0
C109 C 0.62026 0.19966 0.91527 0.0
O110 O 0.68624 0.13687 0.95225 0.0
O111 O 0.64599 0.18323 0.96041 0.0
O112 O 0.60106 0.17639 0.92633 0.0
O113 O 0.64799 0.1804 0.9155 0.0
C114 C 0.64935 0.03553 0.91392 0.0
O115 O 0.59068 0.09574 0.95236 0.0
O116 O 0.6325 0.05749 0.96286 0.0
In117 In 0.63072 0.14735 0.31833 0.0
O118 O 0.68403 0.13483 0.31525 0.0
O119 O 0.65435 0.10715 0.29267 0.0
C120 C 0.63978 0.24396 0.3357 0.0
C121 C 0.62254 0.06829 0.34466 0.0
C122 C 0.57979 0.16969 0.29594 0.0
O123 O 0.65897 0.22531 0.32361 0.0
O124 O 0.61616 0.214 0.33893 0.0
O125 O 0.57924 0.13452 0.30894 0.0
O126 O 0.6062 0.19289 0.29395 0.0
C127 C 0.68219 0.11197 0.29919 0.0
O128 O 0.62325 0.05857 0.32703 0.0
O129 O 0.62602 0.11748 0.34895 0.0
In130 In 0.38919 0.87916 0.06575 0.0
O131 O 0.44212 0.86827 0.05941 0.0
O132 O 0.41318 0.90539 0.03829 0.0
C133 C 0.40024 0.79831 0.091 0.0
C134 C 0.38248 0.97936 0.08104 0.0
C135 C 0.33517 0.85148 0.0471 0.0
O136 O 0.38508 0.79145 0.07564 0.0
O137 O 0.41037 0.84591 0.09357 0.0
O138 O 0.33531 0.8812 0.06175 0.0
O139 O 0.36225 0.83628 0.04175 0.0
C140 C 0.44066 0.89083 0.04329 0.0
O141 O 0.37279 0.93736 0.08946 0.0
O142 O 0.39468 0.97065 0.06502 0.0
In143 In 0.36725 0.89954 0.69208 0.0
O144 O 0.31436 0.91792 0.69421 0.0
O145 O 0.344 0.94516 0.71682 0.0
C146 C 0.35643 0.81482 0.66842 0.0
C147 C 0.38831 0.98827 0.67311 0.0
C148 C 0.40382 0.84631 0.71778 0.0
O149 O 0.33487 0.83691 0.67809 0.0
O150 O 0.38353 0.83601 0.67041 0.0
O151 O 0.41552 0.87627 0.70506 0.0
O152 O 0.37394 0.84394 0.71762 0.0
C153 C 0.31628 0.94211 0.71001 0.0
O154 O 0.39535 0.97887 0.69026 0.0
O155 O 0.37121 0.95245 0.66538 0.0
In156 In 0.62267 0.64681 0.44246 0.0
O157 O 0.60923 0.571 0.42575 0.0
O158 O 0.65385 0.60715 0.41976 0.0
C159 C 0.67191 0.66466 0.46674 0.0
C160 C 0.5716 0.61017 0.4617 0.0
C161 C 0.61261 0.74221 0.42429 0.0
O162 O 0.66935 0.62189 0.45702 0.0
O163 O 0.64955 0.69779 0.46442 0.0
O164 O 0.6237 0.70124 0.41592 0.0
O165 O 0.60599 0.73462 0.44156 0.0
C166 C 0.63448 0.56931 0.41622 0.0
O167 O 0.56938 0.63891 0.44689 0.0
O168 O 0.59968 0.60014 0.46696 0.0
In169 In 0.61451 0.61829 0.81541 0.0
O170 O 0.66127 0.60132 0.80023 0.0
O171 O 0.61979 0.56279 0.78952 0.0
C172 C 0.63364 0.70535 0.83627 0.0
C173 C 0.60739 0.53462 0.84011 0.0
C174 C 0.56452 0.65948 0.79588 0.0
O175 O 0.65018 0.68545 0.82311 0.0
O176 O 0.60782 0.68104 0.83907 0.0
O177 O 0.56202 0.62285 0.80827 0.0
O178 O 0.59258 0.6754 0.79302 0.0
C179 C 0.64937 0.56931 0.78811 0.0
O180 O 0.58435 0.56005 0.83295 0.0
O181 O 0.63423 0.5521 0.83523 0.0
In182 In 0.37522 0.39349 0.57049 0.0
O183 O 0.34009 0.44936 0.58561 0.0
O184 O 0.3891 0.46958 0.58697 0.0
C185 C 0.32475 0.34787 0.55284 0.0
C186 C 0.41177 0.43748 0.54297 0.0
C187 C 0.39638 0.31277 0.59377 0.0
O188 O 0.32216 0.37541 0.56795 0.0
O189 O 0.35269 0.34378 0.54663 0.0
O190 O 0.38795 0.3048 0.57678 0.0
O191 O 0.39526 0.36157 0.59889 0.0
C192 C 0.36111 0.48195 0.59153 0.0
O193 O 0.42315 0.40641 0.55556 0.0
O194 O 0.38234 0.44532 0.5442 0.0
In195 In 0.37586 0.38012 0.18917 0.0
O196 O 0.32205 0.38506 0.1929 0.0
O197 O 0.35124 0.42412 0.21352 0.0
C198 C 0.37653 0.30491 0.16116 0.0
C199 C 0.38987 0.47477 0.17193 0.0
C200 C 0.41383 0.3283 0.21445 0.0
O201 O 0.35589 0.30479 0.17411 0.0
O202 O 0.39647 0.34288 0.16231 0.0
O203 O 0.42381 0.36645 0.20413 0.0
O204 O 0.3849 0.31706 0.21214 0.0
C205 C 0.32348 0.41302 0.20795 0.0
O206 O 0.40477 0.45832 0.1865 0.0
O207 O 0.36808 0.44356 0.16617 0.0
H208 H 0.32556 0.2817 0.52146 0.0
H209 H 0.26214 0.35554 0.56245 0.0
H210 H 0.21632 0.31264 0.54624 0.0
H211 H 0.27501 0.29665 0.48071 0.0
H212 H 0.28587 0.23257 0.47028 0.0
H213 H 0.31367 0.26815 0.48535 0.0
H214 H 0.31865 0.18353 0.50699 0.0
H215 H 0.29079 0.1477 0.49201 0.0
H216 H 0.28343 0.15426 0.51718 0.0
H217 H 0.17744 0.26434 0.52504 0.0
H218 H 0.14791 0.21345 0.50037 0.0
H219 H 0.23663 0.16913 0.47347 0.0
C220 C 0.30203 0.28875 0.52705 0.0
C221 C 0.29735 0.322 0.54321 0.0
C222 C 0.26623 0.33021 0.5501 0.0
C223 C 0.24009 0.30598 0.541 0.0
C224 C 0.24552 0.27346 0.5251 0.0
C225 C 0.27571 0.26469 0.51819 0.0
C226 C 0.27499 0.22845 0.50073 0.0
C227 C 0.28816 0.25825 0.48324 0.0
C228 C 0.29303 0.17533 0.50446 0.0
C229 C 0.23964 0.21857 0.49879 0.0
C230 C 0.22311 0.24491 0.51301 0.0
C231 C 0.19014 0.24326 0.51391 0.0
C232 C 0.17358 0.21427 0.49983 0.0
C233 C 0.18999 0.18713 0.48508 0.0
C234 C 0.22348 0.18899 0.48469 0.0
H235 H 0.98809 0.91354 0.53775 0.0
H236 H 0.9039 0.9403 0.50309 0.0
H237 H 0.93669 0.98242 0.4782 0.0
H238 H 0.02486 0.03836 0.52726 0.0
H239 H 0.0647 0.01194 0.52661 0.0
H240 H 0.03521 0.97933 0.54108 0.0
H241 H 0.04552 0.88823 0.52381 0.0
H242 H 0.07525 0.92049 0.50938 0.0
H243 H 0.04265 0.88511 0.49819 0.0
H244 H 0.97776 0.02651 0.45793 0.0
H245 H 0.02496 0.06842 0.44333 0.0
H246 H 0.08261 0.01444 0.49115 0.0
C247 C 0.97671 0.92731 0.52475 0.0
C248 C 0.94349 0.92336 0.52228 0.0
C249 C 0.92933 0.94278 0.50525 0.0
C250 C 0.94775 0.96674 0.49102 0.0
C251 C 0.98032 0.97108 0.49402 0.0
C252 C 0.99476 0.95174 0.51041 0.0
C253 C 0.03002 0.96394 0.51044 0.0
C254 C 0.03922 1.00058 0.52735 0.0
C255 C 0.04951 0.9113 0.51045 0.0
C256 C 0.03299 0.9937 0.49165 0.0
C257 C 0.00406 0.99709 0.48237 0.0
C258 C 1.00062 0.0238 0.46499 0.0
C259 C 0.02752 0.04758 0.45683 0.0
C260 C 0.05741 0.04463 0.46609 0.0
C261 C 0.06008 0.01722 0.48371 0.0
H262 H 0.3146 1.00036 0.74341 0.0
H263 H 0.25441 0.93357 0.69877 0.0
H264 H 0.2071 0.96882 0.71519 0.0
H265 H 0.26254 0.97204 0.78245 0.0
H266 H 0.2714 0.03404 0.79501 0.0
H267 H 0.30069 1.00406 0.77969 0.0
H268 H 0.30472 0.0938 0.76073 0.0
H269 H 0.27547 0.12409 0.776 0.0
H270 H 0.26932 0.1232 0.75056 0.0
H271 H 0.16637 0.00965 0.73654 0.0
H272 H 0.13464 0.0551 0.76125 0.0
H273 H 0.22097 0.09678 0.79203 0.0
C274 C 0.29145 0.99326 0.73709 0.0
C275 C 0.28815 0.9642 0.71981 0.0
C276 C 0.25749 0.95578 0.71198 0.0
C277 C 0.23048 0.9756 0.7212 0.0
C278 C 0.23452 1.00395 0.73822 0.0
C279 C 0.2642 0.01298 0.74608 0.0
C280 C 0.26186 0.04479 0.76453 0.0
C281 C 0.27489 0.01174 0.78142 0.0
C282 C 0.27885 0.09973 0.76285 0.0
C283 C 0.22622 0.05193 0.76584 0.0
C284 C 0.21095 0.028 0.7505 0.0
C285 C 0.17805 0.02868 0.74859 0.0
C286 C 0.16024 0.05457 0.76271 0.0
C287 C 0.17532 0.07954 0.77854 0.0
C288 C 0.20878 0.07817 0.78007 0.0
H289 H 0.05808 0.27183 0.77683 0.0
H290 H 0.00792 0.13498 0.80116 0.0
H291 H 0.96002 0.15966 0.78264 0.0
H292 H 0.99124 0.36477 0.77603 0.0
H293 H 1.00239 0.39487 0.75366 0.0
H294 H 0.03241 0.36749 0.76929 0.0
H295 H 0.05249 0.30588 0.742 0.0
H296 H 0.02253 0.33301 0.72629 0.0
H297 H 0.02504 0.26092 0.7301 0.0
H298 H 0.91842 0.19691 0.76065 0.0
H299 H 0.88549 0.24478 0.73685 0.0
H300 H 0.96233 0.35833 0.72699 0.0
C301 C 0.03694 0.24728 0.77836 0.0
C302 C 0.03666 0.2015 0.79045 0.0
C303 C 0.00862 0.17024 0.792 0.0
C304 C 0.98131 0.18396 0.78155 0.0
C305 C 0.98243 0.22913 0.76967 0.0
C306 C 0.00946 0.26043 0.76805 0.0
C307 C 0.00456 0.30624 0.75395 0.0
C308 C 0.00784 0.36162 0.76383 0.0
C309 C 0.02752 0.30118 0.73709 0.0
C310 C 0.97061 0.29556 0.7478 0.0
C311 C 0.95831 0.2509 0.75706 0.0
C312 C 0.92771 0.23212 0.75339 0.0
C313 C 0.90922 0.25955 0.73983 0.0
C314 C 0.92132 0.30536 0.73013 0.0
C315 C 0.95237 0.3237 0.73429 0.0
H316 H 0.78127 0.84578 0.53497 0.0
H317 H 0.85106 0.71671 0.53253 0.0
H318 H 0.81439 0.66193 0.51293 0.0
H319 H 0.71166 0.75828 0.53752 0.0
H320 H 0.68766 0.80184 0.52271 0.0
H321 H 0.7189 0.83028 0.53725 0.0
H322 H 0.74374 0.87432 0.50733 0.0
H323 H 0.71259 0.84605 0.49272 0.0
H324 H 0.75351 0.83238 0.48716 0.0
H325 H 0.77105 0.62214 0.49276 0.0
H326 H 0.72387 0.60065 0.47304 0.0
H327 H 0.68221 0.75528 0.48846 0.0
C328 C 0.7887 0.80585 0.53042 0.0
C329 C 0.81898 0.78547 0.5353 0.0
C330 C 0.82795 0.73315 0.52898 0.0
C331 C 0.80728 0.70164 0.51786 0.0
C332 C 0.77767 0.72295 0.5132 0.0
C333 C 0.76833 0.77379 0.51927 0.0
C334 C 0.7355 0.78758 0.51182 0.0
C335 C 0.71205 0.79491 0.52831 0.0
C336 C 0.73641 0.83807 0.49899 0.0
C337 C 0.7281 0.73689 0.50042 0.0
C338 C 0.75265 0.69998 0.5015 0.0
C339 C 0.75157 0.65058 0.49187 0.0
C340 C 0.7247 0.63872 0.48072 0.0
C341 C 0.6994 0.6762 0.47926 0.0
C342 C 0.70114 0.72571 0.48936 0.0
H343 H 0.68388 0.04764 0.26724 0.0
H344 H 0.74423 0.13102 0.30818 0.0
H345 H 0.79169 0.09745 0.29145 0.0
H346 H 0.73281 0.92893 0.26296 0.0
H347 H 0.72523 0.92025 0.23783 0.0
H348 H 0.69589 0.95195 0.25268 0.0
H349 H 0.69572 0.03614 0.23065 0.0
H350 H 0.72505 1.00468 0.21572 0.0
H351 H 0.73252 0.07066 0.22585 0.0
H352 H 0.83239 0.05553 0.27041 0.0
H353 H 0.86416 1.00563 0.24684 0.0
H354 H 0.77773 0.94702 0.21982 0.0
C355 C 0.7071 0.059 0.27262 0.0
C356 C 0.71043 0.09211 0.28896 0.0
C357 C 0.74117 0.10573 0.29568 0.0
C358 C 0.76824 0.08692 0.28627 0.0
C359 C 0.76417 0.05427 0.27023 0.0
C360 C 0.73442 0.04018 0.26348 0.0
C361 C 0.73674 1.00354 0.24617 0.0
C362 C 0.72178 0.94787 0.25016 0.0
C363 C 0.72161 0.03038 0.22856 0.0
C364 C 0.77246 0.99939 0.24424 0.0
C365 C 0.78776 0.02918 0.25824 0.0
C366 C 0.8207 0.032 0.2594 0.0
C367 C 0.83853 1.00353 0.24593 0.0
C368 C 0.82342 0.9724 0.23152 0.0
C369 C 0.78992 0.97038 0.2307 0.0
H370 H 0.98215 0.82917 0.22132 0.0
H371 H 0.89549 0.77663 0.24886 0.0
H372 H 0.92707 0.72927 0.2734 0.0
H373 H 0.02568 0.70562 0.22923 0.0
H374 H 0.06303 0.73928 0.23349 0.0
H375 H 0.03367 0.77014 0.21823 0.0
H376 H 0.03504 0.85686 0.23907 0.0
H377 H 0.06437 0.82622 0.25442 0.0
H378 H 0.02793 0.85164 0.26431 0.0
H379 H 0.96764 0.68791 0.29498 0.0
H380 H 0.01493 0.65252 0.31173 0.0
H381 H 0.07555 0.7301 0.27007 0.0
C382 C 0.96987 0.80778 0.23255 0.0
C383 C 0.93637 0.80665 0.23322 0.0
C384 C 0.92113 0.778 0.24806 0.0
C385 C 0.93885 0.75105 0.26209 0.0
C386 C 0.9718 0.75293 0.26105 0.0
C387 C 0.98722 0.78031 0.24664 0.0
C388 C 0.02293 0.77503 0.2487 0.0
C389 C 0.03716 0.74577 0.23138 0.0
C390 C 0.03848 0.83076 0.25181 0.0
C391 C 0.02509 0.74043 0.2665 0.0
C392 C 0.9953 0.72838 0.27342 0.0
C393 C 0.99111 0.69703 0.2897 0.0
C394 C 0.01811 0.67717 0.29913 0.0
C395 C 0.04888 0.68855 0.29221 0.0
C396 C 0.05232 0.72075 0.2757 0.0
H397 H 0.3294 0.78814 0.01514 0.0
H398 H 0.27425 0.87548 0.05719 0.0
H399 H 0.22478 0.84424 0.04159 0.0
H400 H 0.27779 0.81553 0.97496 0.0
H401 H 0.28336 0.74963 0.9644 0.0
H402 H 0.31438 0.77924 0.9788 0.0
H403 H 0.31464 0.69417 1.00042 0.0
H404 H 0.28352 0.6644 0.98614 0.0
H405 H 0.27827 0.67251 0.01145 0.0
H406 H 0.18146 0.80236 0.02183 0.0
H407 H 0.14701 0.75497 0.99865 0.0
H408 H 0.23025 0.69527 0.9692 0.0
C409 C 0.30691 0.80086 0.02102 0.0
C410 C 0.30562 0.83425 0.03738 0.0
C411 C 0.27576 0.84997 0.04466 0.0
C412 C 0.24755 0.83238 0.03592 0.0
C413 C 0.24965 0.79919 0.0199 0.0
C414 C 0.27853 0.78375 0.01245 0.0
C415 C 0.27417 0.74789 0.99508 0.0
C416 C 0.28826 0.77469 0.97726 0.0
C417 C 0.2885 0.6914 0.99849 0.0
C418 C 0.23829 0.74546 0.99394 0.0
C419 C 0.22464 0.77525 0.00842 0.0
C420 C 0.19187 0.77899 0.01042 0.0
C421 C 0.17251 0.75184 0.99719 0.0
C422 C 0.18595 0.72143 0.98213 0.0
C423 C 0.2193 0.71817 0.98057 0.0
H424 H 0.02393 0.6107 0.97432 0.0
H425 H 0.09758 0.48779 0.97465 0.0
H426 H 0.06388 0.42875 0.99426 0.0
H427 H 1.00034 0.59176 0.0226 0.0
H428 H 0.95865 0.6023 0.01809 0.0
H429 H 0.98768 0.63415 1.00308 0.0
H430 H 0.9616 0.59008 0.97333 0.0
H431 H 0.93247 0.5581 0.98827 0.0
H432 H 0.95637 0.51761 0.97252 0.0
H433 H 0.0236 0.38408 0.0146 0.0
H434 H 0.97903 0.35688 0.03509 0.0
H435 H 0.93109 0.50829 0.02225 0.0
C436 C 0.03276 0.57114 0.97837 0.0
C437 C 0.06334 0.55377 0.97291 0.0
C438 C 0.07424 0.50198 0.97867 0.0
C439 C 0.05525 0.46804 0.98978 0.0
C440 C 0.02538 0.48642 0.99507 0.0
C441 C 0.01411 0.53669 0.98962 0.0
C442 C 0.98153 0.54714 0.99794 0.0
C443 C 0.9821 0.59678 0.01122 0.0
C444 C 0.95651 0.5536 0.98206 0.0
C445 C 0.9765 0.49512 0.00903 0.0
C446 C 1.00205 0.4606 0.00705 0.0
C447 C 0.00335 0.41061 0.01621 0.0
C448 C 0.97793 0.39553 0.02782 0.0
C449 C 0.95158 0.43037 0.03023 0.0
C450 C 0.95084 0.48068 0.02059 0.0
H451 H 0.3214 0.4741 0.24051 0.0
H452 H 0.26131 0.39429 0.19857 0.0
H453 H 0.21371 0.4262 0.21567 0.0
H454 H 0.27309 0.44483 0.28132 0.0
H455 H 0.28062 0.50924 0.29262 0.0
H456 H 0.30986 0.48005 0.27707 0.0
H457 H 0.30954 0.56739 0.2566 0.0
H458 H 0.28029 0.59683 0.27207 0.0
H459 H 0.27256 0.59183 0.24683 0.0
H460 H 0.17278 0.46706 0.2373 0.0
H461 H 0.14133 0.51364 0.26195 0.0
H462 H 0.22824 0.56681 0.28975 0.0
C463 C 0.29823 0.46328 0.23493 0.0
C464 C 0.295 0.4317 0.21822 0.0
C465 C 0.26429 0.41843 0.21135 0.0
C466 C 0.23715 0.43637 0.22096 0.0
C467 C 0.24117 0.4675 0.23739 0.0
C468 C 0.27092 0.48083 0.24433 0.0
C469 C 0.26874 0.51485 0.26225 0.0
C470 C 0.28398 0.48547 0.27932 0.0
C471 C 0.28366 0.57106 0.25925 0.0
C472 C 0.23307 0.51862 0.26432 0.0
C473 C 0.21761 0.49104 0.24983 0.0
C474 C 0.18463 0.48877 0.24871 0.0
C475 C 0.16698 0.51536 0.26277 0.0
C476 C 0.18235 0.54383 0.27775 0.0
C477 C 0.21584 0.54539 0.27847 0.0
H478 H 0.73814 0.16102 0.97269 0.0
H479 H 0.65734 0.26782 0.98011 0.0
H480 H 0.68957 0.32726 1.00076 0.0
H481 H 0.76717 0.17197 0.02089 0.0
H482 H 0.80845 0.1707 0.01435 0.0
H483 H 0.77938 0.13707 0.99958 0.0
H484 H 0.79805 0.19276 0.97045 0.0
H485 H 0.82712 0.22669 0.98515 0.0
H486 H 0.79848 0.26571 0.97181 0.0
H487 H 0.72998 0.37523 0.02054 0.0
H488 H 0.77577 0.40664 0.03966 0.0
H489 H 0.83052 0.2684 0.02032 0.0
C490 C 0.72733 0.197 0.97863 0.0
C491 C 0.69525 0.20985 0.97476 0.0
C492 C 0.68185 0.2571 0.9829 0.0
C493 C 0.69998 0.29126 0.9946 0.0
C494 C 0.73149 0.27757 0.99814 0.0
C495 C 0.74508 0.23148 0.99052 0.0
C496 C 0.77927 0.22558 0.99711 0.0
C497 C 0.78382 0.17323 0.00867 0.0
C498 C 0.80207 0.22783 0.98011 0.0
C499 C 0.78262 0.27543 0.00963 0.0
C500 C 0.75481 0.30499 0.00989 0.0
C501 C 0.75192 0.35249 0.02047 0.0
C502 C 0.77807 0.37004 0.03126 0.0
C503 C 0.80668 0.34002 0.03147 0.0
C504 C 0.80897 0.29227 0.0204 0.0
H505 H 0.71391 0.57247 0.78399 0.0
H506 H 0.62856 0.49937 0.76044 0.0
H507 H 0.66112 0.44765 0.73758 0.0
H508 H 0.75583 0.5858 0.73958 0.0
H509 H 0.7939 0.56992 0.75 0.0
H510 H 0.76373 0.6015 0.76426 0.0
H511 H 0.7681 0.52343 0.78881 0.0
H512 H 0.79816 0.49144 0.77457 0.0
H513 H 0.76292 0.4544 0.78095 0.0
H514 H 0.70325 0.40343 0.71739 0.0
H515 H 0.75165 0.37154 0.70107 0.0
H516 H 0.80919 0.47308 0.73817 0.0
C517 C 0.70205 0.5458 0.77396 0.0
C518 C 0.6687 0.53998 0.77395 0.0
C519 C 0.65408 0.50449 0.76066 0.0
C520 C 0.67237 0.4749 0.74765 0.0
C521 C 0.70523 0.48124 0.74814 0.0
C522 C 0.71992 0.51591 0.76092 0.0
C523 C 0.75561 0.51525 0.75858 0.0
C524 C 0.76798 0.57146 0.75275 0.0
C525 C 0.77216 0.49491 0.77681 0.0
C526 C 0.75872 0.47478 0.74248 0.0
C527 C 0.72941 0.45559 0.73664 0.0
C528 C 0.72633 0.41814 0.72186 0.0
C529 C 0.75392 0.4002 0.7127 0.0
C530 C 0.78415 0.41968 0.71839 0.0
C531 C 0.78644 0.45722 0.73355 0.0
H532 H 0.53799 0.06013 0.96692 0.0
H533 H 0.624 0.99076 0.99088 0.0
H534 H 0.59179 0.93534 0.01281 0.0
H535 H 0.49512 0.06913 0.01055 0.0
H536 H 0.45747 0.05176 0.99985 0.0
H537 H 0.48741 0.08486 0.98586 0.0
H538 H 0.48457 1.00695 0.96111 0.0
H539 H 0.45476 0.9734 0.9751 0.0
H540 H 0.49062 0.93806 0.96883 0.0
H541 H 0.55004 0.88972 0.03288 0.0
H542 H 0.502 0.85863 0.04978 0.0
H543 H 0.44357 0.95629 0.01202 0.0
C544 C 0.55005 0.03327 0.97678 0.0
C545 C 0.58348 0.02978 0.97724 0.0
C546 C 0.59839 0.99409 0.99031 0.0
C547 C 0.58031 0.96236 1.00278 0.0
C548 C 0.54736 0.96661 1.00192 0.0
C549 C 0.53238 1.00117 0.98925 0.0
C550 C 0.49669 0.99888 0.99138 0.0
C551 C 0.4834 0.05445 0.99727 0.0
C552 C 0.48073 0.97807 0.97301 0.0
C553 C 0.49393 0.95803 0.00735 0.0
C554 C 0.52339 0.93976 0.01323 0.0
C555 C 0.52683 0.9034 0.0283 0.0
C556 C 0.49944 0.88591 0.03779 0.0
C557 C 0.46909 0.90469 0.03211 0.0
C558 C 0.46641 0.94061 0.01652 0.0
H559 H 0.47752 0.34275 0.22153 0.0
H560 H 0.39628 0.2453 0.23771 0.0
H561 H 0.43015 0.19303 0.25981 0.0
H562 H 0.53498 0.23475 0.22267 0.0
H563 H 0.56633 0.2764 0.23235 0.0
H564 H 0.53574 0.30643 0.21776 0.0
H565 H 0.52287 0.37447 0.24478 0.0
H566 H 0.5535 0.3448 0.25942 0.0
H567 H 0.51348 0.34929 0.26818 0.0
H568 H 0.47258 0.15142 0.28017 0.0
H569 H 0.52078 0.12442 0.29797 0.0
H570 H 0.5746 0.24851 0.26857 0.0
C571 C 0.46688 0.31047 0.22975 0.0
C572 C 0.43428 0.29806 0.22791 0.0
C573 C 0.42121 0.25551 0.2389 0.0
C574 C 0.44025 0.22553 0.25147 0.0
C575 C 0.47232 0.23858 0.25289 0.0
C576 C 0.48557 0.28007 0.24238 0.0
C577 C 0.52069 0.28592 0.2467 0.0
C578 C 0.54061 0.27523 0.2288 0.0
C579 C 0.52806 0.34194 0.25528 0.0
C580 C 0.52504 0.24134 0.26131 0.0
C581 C 0.49686 0.21447 0.26464 0.0
C582 C 0.49482 0.17208 0.27767 0.0
C583 C 0.52232 0.157 0.28768 0.0
C584 C 0.5514 0.18426 0.28461 0.0
C585 C 0.55272 0.22676 0.27116 0.0
H586 H 0.46893 0.84502 0.72149 0.0
H587 H 0.38267 0.77652 0.74491 0.0
H588 H 0.41457 0.72172 0.76726 0.0
H589 H 0.51569 0.72366 0.72399 0.0
H590 H 0.55185 0.75796 0.73072 0.0
H591 H 0.52236 0.79268 0.71662 0.0
H592 H 0.52019 0.86966 0.74171 0.0
H593 H 0.54975 0.83526 0.75586 0.0
H594 H 0.5122 0.85327 0.76624 0.0
H595 H 0.45527 0.67304 0.78652 0.0
H596 H 0.50259 0.63501 0.80236 0.0
H597 H 0.56306 0.73534 0.76705 0.0
C598 C 0.4568 0.81863 0.73138 0.0
C599 C 0.42331 0.81501 0.73147 0.0
C600 C 0.40828 0.77999 0.7446 0.0
C601 C 0.42619 0.74865 0.75734 0.0
C602 C 0.45911 0.75288 0.75683 0.0
C603 C 0.47435 0.78709 0.74428 0.0
C604 C 0.51009 0.78379 0.74676 0.0
C605 C 0.52592 0.76329 0.72843 0.0
C606 C 0.52386 0.83877 0.75302 0.0
C607 C 0.5125 0.74225 0.76261 0.0
C608 C 0.48276 0.72495 0.76814 0.0
C609 C 0.47869 0.68635 0.78236 0.0
C610 C 0.50574 0.66494 0.79125 0.0
C611 C 0.5365 0.68224 0.78595 0.0
C612 C 0.53985 0.72142 0.77142 0.0
H613 H 0.47689 0.43932 0.53983 0.0
H614 H 0.39022 0.49775 0.51316 0.0
H615 H 0.42175 0.54732 0.4894 0.0
H616 H 0.52125 0.5617 0.53428 0.0
H617 H 0.55829 0.52825 0.52931 0.0
H618 H 0.52904 0.49524 0.54386 0.0
H619 H 0.52922 0.41228 0.5212 0.0
H620 H 0.5586 0.44493 0.50662 0.0
H621 H 0.52182 0.42208 0.4961 0.0
H622 H 0.46221 0.59222 0.46904 0.0
H623 H 0.50945 0.62897 0.45297 0.0
H624 H 0.57026 0.5427 0.49283 0.0
C625 C 0.4646 0.46215 0.52887 0.0
C626 C 0.43111 0.46458 0.52829 0.0
C627 C 0.41586 0.49527 0.51386 0.0
C628 C 0.43355 0.52359 0.5003 0.0
C629 C 0.46649 0.52089 0.50136 0.0
C630 C 0.48194 0.49093 0.51522 0.0
C631 C 0.51765 0.49589 0.51334 0.0
C632 C 0.53242 0.52182 0.53126 0.0
C633 C 0.5327 0.4405 0.50906 0.0
C634 C 0.51977 0.53348 0.49633 0.0
C635 C 0.48996 0.54727 0.48963 0.0
C636 C 0.4857 0.58166 0.47411 0.0
C637 C 0.51267 0.60238 0.46509 0.0
C638 C 0.54349 0.58875 0.47166 0.0
C639 C 0.54699 0.55391 0.48751 0.0
H640 H 0.13406 0.73733 0.37602 0.0
H641 H 0.18619 0.79064 0.32633 0.0
H642 H 0.19878 0.87697 0.34258 0.0
H643 H 0.0989 0.86209 0.38651 0.0
H644 H 0.10164 0.85508 0.41203 0.0
H645 H 0.09929 0.7957 0.3972 0.0
H646 H 0.1514 0.75942 0.41226 0.0
H647 H 0.1539 0.81879 0.42717 0.0
H648 H 0.18658 0.80102 0.41195 0.0
H649 H 0.20088 0.96109 0.36292 0.0
H650 H 0.19356 0.03532 0.38622 0.0
H651 H 0.14187 0.9259 0.42308 0.0
C652 C 0.14859 0.76679 0.36869 0.0
C653 C 0.15923 0.75724 0.34993 0.0
C654 C 0.17791 0.79701 0.34074 0.0
C655 C 0.18521 0.84615 0.34985 0.0
C656 C 0.17393 0.85468 0.36824 0.0
C657 C 0.15624 0.8159 0.37762 0.0
C658 C 0.14566 0.83611 0.39696 0.0
C659 C 0.10922 0.83733 0.39824 0.0
C660 C 0.16027 0.80179 0.41304 0.0
C661 C 0.15948 0.89278 0.3968 0.0
C662 C 0.1758 0.90268 0.38014 0.0
C663 C 0.18865 0.9535 0.37617 0.0
C664 C 0.18437 0.9954 0.38946 0.0
C665 C 0.16756 0.98611 0.40654 0.0
C666 C 0.15546 0.93386 0.41033 0.0
H667 H 0.165 0.27936 0.40679 0.0
H668 H 0.06583 0.23201 0.40503 0.0
H669 H 0.05347 0.31271 0.38552 0.0
H670 H 0.15174 0.42324 0.41043 0.0
H671 H 0.18484 0.44079 0.39552 0.0
H672 H 0.18587 0.37938 0.40936 0.0
H673 H 0.19616 0.32357 0.37872 0.0
H674 H 0.19522 0.3848 0.36479 0.0
H675 H 0.16909 0.32939 0.35882 0.0
H676 H 0.05203 0.398 0.36597 0.0
H677 H 0.06157 0.48165 0.3476 0.0
H678 H 0.16167 0.47391 0.36229 0.0
C679 C 0.14068 0.28596 0.4023 0.0
C680 C 0.11634 0.24941 0.40741 0.0
C681 C 0.08483 0.25948 0.40127 0.0
C682 C 0.07758 0.30521 0.3902 0.0
C683 C 0.10212 0.34049 0.38543 0.0
C684 C 0.13303 0.33142 0.39127 0.0
C685 C 0.15502 0.37548 0.38414 0.0
C686 C 0.17026 0.40656 0.40086 0.0
C687 C 0.18036 0.35189 0.37083 0.0
C688 C 0.13165 0.41069 0.37331 0.0
C689 C 0.10127 0.38978 0.37425 0.0
C690 C 0.07571 0.41481 0.36518 0.0
C691 C 0.08137 0.46231 0.35478 0.0
C692 C 0.11233 0.48435 0.35356 0.0
C693 C 0.13772 0.45818 0.36304 0.0
H694 H 0.14313 0.27561 0.87485 0.0
H695 H 0.14742 0.34342 0.81791 0.0
H696 H 0.1521 0.43527 0.83158 0.0
H697 H 0.09704 0.37701 0.89564 0.0
H698 H 0.11767 0.37786 0.91822 0.0
H699 H 0.11702 0.317 0.90408 0.0
H700 H 0.17848 0.31426 0.90448 0.0
H701 H 0.17932 0.37507 0.91873 0.0
H702 H 0.20053 0.37253 0.89652 0.0
H703 H 0.14861 0.51996 0.85119 0.0
H704 H 0.14345 0.59156 0.87574 0.0
H705 H 0.1468 0.46954 0.92005 0.0
C706 C 0.14563 0.30976 0.8653 0.0
C707 C 0.14491 0.30247 0.84533 0.0
C708 C 0.14813 0.34807 0.83326 0.0
C709 C 0.15072 0.40042 0.84088 0.0
C710 C 0.15076 0.40642 0.86062 0.0
C711 C 0.14894 0.3623 0.8727 0.0
C712 C 0.14891 0.38014 0.89338 0.0
C713 C 0.11834 0.36192 0.90341 0.0
C714 C 0.17858 0.35926 0.9039 0.0
C715 C 0.14996 0.44116 0.89102 0.0
C716 C 0.15082 0.45546 0.87198 0.0
C717 C 0.14879 0.50936 0.86615 0.0
C718 C 0.14578 0.54967 0.88013 0.0
C719 C 0.14549 0.5359 0.89967 0.0
C720 C 0.14799 0.48106 0.90518 0.0
H721 H 0.15353 0.80366 0.90153 0.0
H722 H 0.05551 0.79702 0.91993 0.0
H723 H 0.04485 0.88359 0.90332 0.0
H724 H 0.16364 0.94801 0.90623 0.0
H725 H 0.18805 0.95387 0.88534 0.0
H726 H 0.18798 0.89184 0.89884 0.0
H727 H 0.17264 0.83794 0.86843 0.0
H728 H 0.17281 0.89974 0.85482 0.0
H729 H 0.13791 0.85748 0.85496 0.0
H730 H 0.045 0.97083 0.8845 0.0
H731 H 0.05537 0.05032 0.86407 0.0
H732 H 0.15331 0.99941 0.85791 0.0
C733 C 0.12981 0.8204 0.90208 0.0
C734 C 0.10532 0.79364 0.91204 0.0
C735 C 0.07461 0.81682 0.91238 0.0
C736 C 0.06836 0.86601 0.90302 0.0
C737 C 0.09309 0.89143 0.8934 0.0
C738 C 0.12317 0.86931 0.89281 0.0
C739 C 0.14547 0.9042 0.88122 0.0
C740 C 0.1729 0.92576 0.89365 0.0
C741 C 0.15793 0.87297 0.86383 0.0
C742 C 0.12322 0.94938 0.8753 0.0
C743 C 0.09315 0.94141 0.88253 0.0
C744 C 0.06847 0.9775 0.87879 0.0
C745 C 0.07461 0.02258 0.8672 0.0
C746 C 0.10515 0.03114 0.85944 0.0
C747 C 0.12976 0.99414 0.86371 0.0
H748 H 0.83092 0.2236 0.64841 0.0
H749 H 0.92334 0.29387 0.63702 0.0
H750 H 0.93506 0.21901 0.61494 0.0
H751 H 0.85537 0.08748 0.64883 0.0
H752 H 0.82053 0.06081 0.6371 0.0
H753 H 0.81792 0.1222 0.65087 0.0
H754 H 0.79492 0.17288 0.62158 0.0
H755 H 0.79728 0.11148 0.60772 0.0
H756 H 0.81643 0.17233 0.59945 0.0
H757 H 0.93934 0.13305 0.59697 0.0
H758 H 0.93455 0.04279 0.58216 0.0
H759 H 0.83855 0.02829 0.60354 0.0
C760 C 0.85337 0.22367 0.64099 0.0
C761 C 0.87621 0.26464 0.6444 0.0
C762 C 0.90545 0.26306 0.63459 0.0
C763 C 0.91234 0.22069 0.62201 0.0
C764 C 0.88964 0.18041 0.61923 0.0
C765 C 0.86059 0.1817 0.62823 0.0
C766 C 0.84096 0.13203 0.62316 0.0
C767 C 0.83326 0.09867 0.64106 0.0
C768 C 0.8106 0.14816 0.61233 0.0
C769 C 0.86387 0.10215 0.61028 0.0
C770 C 0.89179 0.13097 0.60827 0.0
C771 C 0.91742 0.11047 0.59816 0.0
C772 C 0.91453 0.05909 0.58989 0.0
C773 C 0.88611 0.02893 0.59159 0.0
C774 C 0.86032 0.051 0.60175 0.0
H775 H 0.91567 0.52116 0.64689 0.0
H776 H 0.83158 0.55766 0.67973 0.0
H777 H 0.83131 0.65084 0.66701 0.0
H778 H 0.95277 0.65776 0.64885 0.0
H779 H 0.96562 0.65496 0.62442 0.0
H780 H 0.96235 0.59346 0.63812 0.0
H781 H 0.92482 0.55286 0.61243 0.0
H782 H 0.92805 0.61407 0.59866 0.0
H783 H 0.88954 0.58948 0.6056 0.0
H784 H 0.83767 0.7368 0.64974 0.0
H785 H 0.84682 0.80901 0.62633 0.0
H786 H 0.92494 0.71718 0.60245 0.0
C787 C 0.89773 0.5494 0.65165 0.0
C788 C 0.87389 0.53295 0.66447 0.0
C789 C 0.8501 0.56997 0.67 0.0
C790 C 0.84988 0.62294 0.66295 0.0
C791 C 0.87338 0.638 0.65015 0.0
C792 C 0.89669 0.60234 0.64433 0.0
C793 C 0.91685 0.62736 0.62876 0.0
C794 C 0.95145 0.63376 0.63544 0.0
C795 C 0.91467 0.59396 0.61027 0.0
C796 C 0.9008 0.68211 0.62655 0.0
C797 C 0.87623 0.68755 0.63936 0.0
C798 C 0.85697 0.73326 0.63972 0.0
C799 C 0.86238 0.77408 0.62633 0.0
C800 C 0.88662 0.76881 0.61257 0.0
C801 C 0.90649 0.72262 0.61294 0.0
H802 H 0.90966 0.55055 0.10382 0.0
H803 H 0.81186 0.4977 0.10888 0.0
H804 H 0.80019 0.57789 0.12879 0.0
H805 H 0.91813 0.60163 0.15167 0.0
H806 H 0.94255 0.65817 0.14475 0.0
H807 H 0.94302 0.59663 0.13094 0.0
H808 H 0.9284 0.65114 0.10059 0.0
H809 H 0.92773 0.71282 0.11432 0.0
H810 H 0.89339 0.69309 0.10051 0.0
H811 H 0.79928 0.66428 0.1482 0.0
H812 H 0.80957 0.74889 0.16616 0.0
H813 H 0.90786 0.74513 0.14817 0.0
C814 C 0.88581 0.55576 0.10916 0.0
C815 C 0.86166 0.51786 0.10483 0.0
C816 C 0.83074 0.52619 0.11205 0.0
C817 C 0.82387 0.57165 0.12334 0.0
C818 C 0.84818 0.60842 0.12726 0.0
C819 C 0.87854 0.60089 0.12043 0.0
C820 C 0.90044 0.64626 0.12675 0.0
C821 C 0.92764 0.62435 0.13927 0.0
C822 C 0.91323 0.67768 0.10952 0.0
C823 C 0.87768 0.68048 0.13824 0.0
C824 C 0.84763 0.65806 0.13835 0.0
C825 C 0.82271 0.68223 0.14819 0.0
C826 C 0.82876 0.73031 0.15832 0.0
C827 C 0.85946 0.75368 0.15852 0.0
C828 C 0.88409 0.72843 0.14822 0.0
H829 H 0.85329 0.02776 0.14715 0.0
H830 H 0.95119 0.02528 0.16666 0.0
H831 H 0.96148 0.11004 0.14894 0.0
H832 H 0.86859 0.08012 0.09979 0.0
H833 H 0.83327 0.12126 0.0994 0.0
H834 H 0.83416 0.05956 0.11308 0.0
H835 H 0.81836 0.11329 0.14331 0.0
H836 H 0.81764 0.17519 0.12976 0.0
H837 H 0.8422 0.17023 0.15081 0.0
H838 H 0.9605 0.19681 0.12972 0.0
H839 H 0.94869 0.27723 0.1099 0.0
H840 H 0.85135 0.22265 0.10323 0.0
C841 C 0.87699 0.04473 0.14755 0.0
C842 C 0.90149 0.01985 0.15823 0.0
C843 C 0.9321 0.04357 0.15851 0.0
C844 C 0.93815 0.09173 0.14852 0.0
C845 C 0.91333 0.1156 0.13832 0.0
C846 C 0.8834 0.09274 0.1377 0.0
C847 C 0.86069 0.1268 0.12596 0.0
C848 C 0.84847 0.09504 0.10852 0.0
C849 C 0.8331 0.14761 0.1382 0.0
C850 C 0.88246 0.17259 0.12011 0.0
C851 C 0.91274 0.16542 0.12737 0.0
C852 C 0.93689 0.20273 0.12394 0.0
C853 C 0.92995 0.24833 0.1127 0.0
C854 C 0.89912 0.25622 0.10505 0.0
C855 C 0.87514 0.2178 0.1089 0.0
H856 H 0.59592 0.76905 0.8584 0.0
H857 H 0.69252 0.75244 0.83832 0.0
H858 H 0.7078 0.83516 0.85622 0.0
H859 H 0.59271 0.91364 0.85456 0.0
H860 H 0.56861 0.922 0.87548 0.0
H861 H 0.56589 0.86058 0.86169 0.0
H862 H 0.57871 0.80397 0.89187 0.0
H863 H 0.58141 0.86521 0.90576 0.0
H864 H 0.61424 0.81847 0.9054 0.0
H865 H 0.71234 0.91966 0.87714 0.0
H866 H 0.705 1.0004 0.89775 0.0
H867 H 0.6048 0.96273 0.90227 0.0
C868 C 0.62035 0.78259 0.85787 0.0
C869 C 0.64313 0.75419 0.84712 0.0
C870 C 0.67474 0.77361 0.84654 0.0
C871 C 0.68362 0.82047 0.85666 0.0
C872 C 0.6605 0.84768 0.8671 0.0
C873 C 0.62946 0.82956 0.86763 0.0
C874 C 0.60883 0.86682 0.87935 0.0
C875 C 0.58246 0.89226 0.86703 0.0
C876 C 0.595 0.83682 0.89662 0.0
C877 C 0.63309 0.90866 0.88545 0.0
C878 C 0.66284 0.89689 0.8784 0.0
C879 C 0.6891 0.9294 0.88262 0.0
C880 C 0.68475 0.97508 0.89433 0.0
C881 C 0.65433 0.988 0.90145 0.0
C882 C 0.6283 0.95426 0.89687 0.0
H883 H 0.65995 0.26587 0.89513 0.0
H884 H 0.56113 0.24317 0.9102 0.0
H885 H 0.54709 0.32687 0.89274 0.0
H886 H 0.66087 0.40975 0.90058 0.0
H887 H 0.68706 0.42141 0.8808 0.0
H888 H 0.68919 0.35864 0.89381 0.0
H889 H 0.68043 0.30471 0.8625 0.0
H890 H 0.67851 0.3673 0.84938 0.0
H891 H 0.64631 0.31938 0.84777 0.0
H892 H 0.54399 0.41345 0.8739 0.0
H893 H 0.5519 0.4963 0.85477 0.0
H894 H 0.653 0.46371 0.85275 0.0
C895 C 0.63531 0.27821 0.8946 0.0
C896 C 0.61156 0.24791 0.90392 0.0
C897 C 0.57966 0.26571 0.90309 0.0
C898 C 0.57148 0.31321 0.89324 0.0
C899 C 0.59552 0.3425 0.88439 0.0
C900 C 0.62678 0.32568 0.88496 0.0
C901 C 0.64817 0.36506 0.87459 0.0
C902 C 0.67277 0.3902 0.88827 0.0
C903 C 0.66429 0.33746 0.85754 0.0
C904 C 0.62405 0.40668 0.86807 0.0
C905 C 0.59382 0.39285 0.87384 0.0
C906 C 0.56756 0.42473 0.86933 0.0
C907 C 0.57229 0.47172 0.85849 0.0
C908 C 0.60306 0.48653 0.85236 0.0
C909 C 0.62924 0.45365 0.85736 0.0
H910 H 0.60182 0.28993 0.36265 0.0
H911 H 0.68863 0.31607 0.33104 0.0
H912 H 0.69672 0.40315 0.34794 0.0
H913 H 0.57561 0.42854 0.36302 0.0
H914 H 0.55999 0.42473 0.38683 0.0
H915 H 0.56113 0.36494 0.37212 0.0
H916 H 0.59329 0.31472 0.39828 0.0
H917 H 0.59226 0.37435 0.41307 0.0
H918 H 0.62977 0.344 0.40706 0.0
H919 H 0.69552 0.487 0.36887 0.0
H920 H 0.68485 0.56089 0.39185 0.0
H921 H 0.5986 0.47917 0.40927 0.0
C922 C 0.6225 0.31402 0.35923 0.0
C923 C 0.6446 0.29634 0.34553 0.0
C924 C 0.6714 0.32893 0.34149 0.0
C925 C 0.67618 0.3784 0.35101 0.0
C926 C 0.65393 0.39458 0.36449 0.0
C927 C 0.62761 0.36333 0.36857 0.0
C928 C 0.60735 0.38946 0.38374 0.0
C929 C 0.57405 0.40271 0.37595 0.0
C930 C 0.60558 0.35349 0.40159 0.0
C931 C 0.62632 0.44042 0.38756 0.0
C932 C 0.65315 0.44267 0.37637 0.0
C933 C 0.67453 0.4857 0.37766 0.0
C934 C 0.66829 0.52743 0.39074 0.0
C935 C 0.64087 0.52581 0.40227 0.0
C936 C 0.61968 0.48171 0.40057 0.0
H937 H 0.61994 0.76719 0.38642 0.0
H938 H 0.599 0.83833 0.44151 0.0
H939 H 0.5977 0.92916 0.42688 0.0
H940 H 0.67103 0.8705 0.37001 0.0
H941 H 0.65713 0.86861 0.34567 0.0
H942 H 0.65491 0.8087 0.36022 0.0
H943 H 0.5945 0.80186 0.35352 0.0
H944 H 0.59656 0.86163 0.33885 0.0
H945 H 0.56937 0.85912 0.35855 0.0
H946 H 0.60241 0.01247 0.40688 0.0
H947 H 0.60959 0.08285 0.38231 0.0
H948 H 0.62547 0.95797 0.33984 0.0
C949 C 0.61475 0.80186 0.39534 0.0
C950 C 0.60956 0.79579 0.4151 0.0
C951 C 0.60291 0.84206 0.42633 0.0
C952 C 0.60218 0.89382 0.41816 0.0
C953 C 0.60779 0.89855 0.3987 0.0
C954 C 0.6136 0.85384 0.38737 0.0
C955 C 0.61921 0.87033 0.36686 0.0
C956 C 0.65255 0.85354 0.36032 0.0
C957 C 0.59336 0.84684 0.35367 0.0
C958 C 0.61631 0.93134 0.36854 0.0
C959 C 0.60973 0.94671 0.38704 0.0
C960 C 0.60721 1.00095 0.3923 0.0
C961 C 0.61142 0.04061 0.37826 0.0
C962 C 0.6179 0.02581 0.35918 0.0
C963 C 0.62023 0.97042 0.35429 0.0
H964 H 0.34983 0.20337 0.1611 0.0
H965 H 0.40699 0.31289 0.12726 0.0
H966 H 0.41155 0.24302 0.10224 0.0
H967 H 0.39468 0.08548 0.15074 0.0
H968 H 0.36107 0.0403 0.14993 0.0
H969 H 0.35973 0.10039 0.16446 0.0
H970 H 0.30837 0.13095 0.14707 0.0
H971 H 0.30954 0.07086 0.13247 0.0
H972 H 0.30815 0.13677 0.12146 0.0
H973 H 0.41139 0.16142 0.08145 0.0
H974 H 0.40923 0.07081 0.06676 0.0
H975 H 0.35425 0.01159 0.11453 0.0
C976 C 0.36288 0.21279 0.14828 0.0
C977 C 0.37784 0.26361 0.14598 0.0
C978 C 0.39529 0.27422 0.12923 0.0
C979 C 0.39792 0.2349 0.11493 0.0
C980 C 0.38317 0.18503 0.11768 0.0
C981 C 0.36615 0.17361 0.13395 0.0
C982 C 0.35441 0.11549 0.13383 0.0
C983 C 0.36831 0.08354 0.15074 0.0
C984 C 0.31795 0.11341 0.1337 0.0
C985 C 0.36782 0.09592 0.11505 0.0
C986 C 0.38395 0.13702 0.10588 0.0
C987 C 0.39876 0.12894 0.08845 0.0
C988 C 0.39737 0.0773 0.08022 0.0
C989 C 0.38157 0.03418 0.08951 0.0
C990 C 0.36642 0.04382 0.10709 0.0
H991 H 0.3656 0.51115 0.13812 0.0
H992 H 0.43041 0.55506 0.18389 0.0
H993 H 0.44134 0.64237 0.16784 0.0
H994 H 0.41138 0.56974 0.09989 0.0
H995 H 0.37678 0.59196 0.08684 0.0
H996 H 0.37457 0.53298 0.10187 0.0
H997 H 0.32768 0.57598 0.12021 0.0
H998 H 0.32974 0.63506 0.10524 0.0
H999 H 0.33246 0.64213 0.13077 0.0
H1000 H 0.44337 0.72666 0.14717 0.0
H1001 H 0.4375 0.79957 0.12318 0.0
H1002 H 0.37254 0.69827 0.09074 0.0
C1003 C 0.38216 0.53905 0.14476 0.0
C1004 C 0.39712 0.52648 0.16227 0.0
C1005 C 0.41872 0.56395 0.17046 0.0
C1006 C 0.42505 0.61359 0.16146 0.0
C1007 C 0.40977 0.62482 0.14422 0.0
C1008 C 0.3889 0.58842 0.13592 0.0
C1009 C 0.37547 0.61007 0.11739 0.0
C1010 C 0.38514 0.57404 0.1005 0.0
C1011 C 0.33919 0.61618 0.11848 0.0
C1012 C 0.39175 0.66465 0.11662 0.0
C1013 C 0.41142 0.67254 0.13222 0.0
C1014 C 0.42821 0.72073 0.13483 0.0
C1015 C 0.42472 0.76189 0.12116 0.0
C1016 C 0.40472 0.75442 0.10507 0.0
C1017 C 0.38823 0.70499 0.1028 0.0
H1018 H 0.40015 0.75289 0.64946 0.0
H1019 H 0.29928 0.76749 0.66038 0.0
H1020 H 0.28928 0.68478 0.64141 0.0
H1021 H 0.39316 0.70295 0.60091 0.0
H1022 H 0.42619 0.65705 0.60334 0.0
H1023 H 0.42519 0.71854 0.61717 0.0
H1024 H 0.43158 0.6626 0.6482 0.0
H1025 H 0.43247 0.60095 0.63447 0.0
H1026 H 0.40379 0.60899 0.6532 0.0
H1027 H 0.29041 0.59904 0.62191 0.0
H1028 H 0.30269 0.51686 0.60315 0.0
H1029 H 0.40281 0.55789 0.60526 0.0
C1030 C 0.37593 0.73895 0.64771 0.0
C1031 C 0.35046 0.7667 0.65633 0.0
C1032 C 0.31914 0.7469 0.65387 0.0
C1033 C 0.31322 0.69997 0.64312 0.0
C1034 C 0.33888 0.67325 0.63495 0.0
C1035 C 0.36961 0.69205 0.63709 0.0
C1036 C 0.39303 0.65508 0.62723 0.0
C1037 C 0.41041 0.68521 0.61121 0.0
C1038 C 0.4166 0.63045 0.64164 0.0
C1039 C 0.37069 0.61247 0.61928 0.0
C1040 C 0.33955 0.62373 0.62385 0.0
C1041 C 0.31471 0.58987 0.6182 0.0
C1042 C 0.3219 0.54328 0.60758 0.0
C1043 C 0.35367 0.531 0.60277 0.0
C1044 C 0.37828 0.5662 0.60872 0.0
H1045 H 0.38257 0.20534 0.58932 0.0
H1046 H 0.42537 0.32011 0.62866 0.0
H1047 H 0.43261 0.24683 0.65232 0.0
H1048 H 0.33787 0.13731 0.62343 0.0
H1049 H 0.34196 0.07107 0.61289 0.0
H1050 H 0.34415 0.13051 0.59815 0.0
H1051 H 0.39925 0.10027 0.58591 0.0
H1052 H 0.39718 0.04048 0.60058 0.0
H1053 H 0.43054 0.08585 0.6028 0.0
H1054 H 0.43141 0.16263 0.67253 0.0
H1055 H 0.42023 0.07501 0.68814 0.0
H1056 H 0.37639 0.0162 0.63596 0.0
C1057 C 0.39421 0.21473 0.60273 0.0
C1058 C 0.40382 0.26818 0.6071 0.0
C1059 C 0.41811 0.27928 0.62499 0.0
C1060 C 0.42236 0.23792 0.63849 0.0
C1061 C 0.41204 0.1858 0.63389 0.0
C1062 C 0.39823 0.17411 0.61644 0.0
C1063 C 0.38664 0.11602 0.61563 0.0
C1064 C 0.35052 0.11363 0.61234 0.0
C1065 C 0.40447 0.08375 0.60032 0.0
C1066 C 0.39555 0.0971 0.63547 0.0
C1067 C 0.41056 0.13771 0.6457 0.0
C1068 C 0.41994 0.13039 0.66461 0.0
C1069 C 0.41348 0.0805 0.67335 0.0
C1070 C 0.39753 0.03879 0.66325 0.0
C1071 C 0.38882 0.04719 0.644 0.0
loop_
_geom_bond_atom_site_label_1
_geom_bond_atom_site_label_2
_geom_bond_distance
_geom_bond_site_symmetry_2
_ccdc_geom_bond_type
In0 O1 2.294 . S
In0 O2 2.326 . S
In0 O6 2.266 . S
In0 O7 2.326 . S
In0 O8 2.266 . S
In0 O9 2.326 . S
In0 O11 2.294 . S
In0 O12 2.326 . S
O1 In0 2.294 . S
O1 C10 1.240 . S
O2 In0 2.326 . S
O2 C10 1.252 . S
C3 O6 1.252 . S
C3 O7 1.260 . S
C4 O11 1.240 . S
C4 O12 1.252 . S
C5 O8 1.252 . S
C5 O9 1.260 . S
O6 In0 2.266 . S
O6 C3 1.252 . S
O7 In0 2.326 . S
O7 C3 1.260 . S
O8 In0 2.266 . S
O8 C5 1.252 . S
O9 In0 2.326 . S
O9 C5 1.260 . S
C10 O1 1.240 . S
C10 O2 1.252 . S
O11 In0 2.294 . S
O11 C4 1.240 . S
O12 In0 2.326 . S
O12 C4 1.252 . S
In13 O14 2.294 . S
In13 O15 2.326 . S
In13 O19 2.266 . S
In13 O20 2.326 . S
In13 O21 2.266 . S
In13 O22 2.326 . S
In13 O24 2.294 . S
In13 O25 2.326 . S
O14 In13 2.294 . S
O14 C23 1.240 . S
O15 In13 2.326 . S
O15 C23 1.252 . S
C16 O19 1.252 . S
C16 O20 1.260 . S
C17 O24 1.240 . S
C17 O25 1.252 . S
C18 O21 1.252 . S
C18 O22 1.260 . S
O19 In13 2.266 . S
O19 C16 1.252 . S
O20 In13 2.326 . S
O20 C16 1.260 . S
O21 In13 2.266 . S
O21 C18 1.252 . S
O22 In13 2.326 . S
O22 C18 1.260 . S
C23 O14 1.240 . S
C23 O15 1.252 . S
O24 In13 2.294 . S
O24 C17 1.240 . S
O25 In13 2.326 . S
O25 C17 1.252 . S
In26 O27 2.294 . S
In26 O28 2.326 . S
In26 O32 2.266 . S
In26 O33 2.326 . S
In26 O34 2.266 . S
In26 O35 2.326 . S
In26 O37 2.294 . S
In26 O38 2.326 . S
O27 In26 2.294 . S
O27 C36 1.240 . S
O28 In26 2.326 . S
O28 C36 1.252 . S
C29 O32 1.252 . S
C29 O33 1.260 . S
C30 O37 1.240 . S
C30 O38 1.252 . S
C31 O34 1.252 . S
C31 O35 1.260 . S
O32 In26 2.266 . S
O32 C29 1.252 . S
O33 In26 2.326 . S
O33 C29 1.260 . S
O34 In26 2.266 . S
O34 C31 1.252 . S
O35 In26 2.326 . S
O35 C31 1.260 . S
C36 O27 1.240 . S
C36 O28 1.252 . S
O37 In26 2.294 . S
O37 C30 1.240 . S
O38 In26 2.326 . S
O38 C30 1.252 . S
In39 O40 2.294 . S
In39 O41 2.326 . S
In39 O45 2.266 . S
In39 O46 2.326 . S
In39 O47 2.266 . S
In39 O48 2.326 . S
In39 O50 2.294 . S
In39 O51 2.326 . S
O40 In39 2.294 . S
O40 C49 1.240 . S
O41 In39 2.326 . S
O41 C49 1.252 . S
C42 O45 1.252 . S
C42 O46 1.260 . S
C43 O50 1.240 . S
C43 O51 1.252 . S
C44 O47 1.252 . S
C44 O48 1.260 . S
O45 In39 2.266 . S
O45 C42 1.252 . S
O46 In39 2.326 . S
O46 C42 1.260 . S
O47 In39 2.266 . S
O47 C44 1.252 . S
O48 In39 2.326 . S
O48 C44 1.260 . S
C49 O40 1.240 . S
C49 O41 1.252 . S
O50 In39 2.294 . S
O50 C43 1.240 . S
O51 In39 2.326 . S
O51 C43 1.252 . S
In52 O53 2.294 . S
In52 O54 2.326 . S
In52 O58 2.266 . S
In52 O59 2.326 . S
In52 O60 2.266 . S
In52 O61 2.326 . S
In52 O63 2.294 . S
In52 O64 2.326 . S
O53 In52 2.294 . S
O53 C62 1.240 . S
O54 In52 2.326 . S
O54 C62 1.252 . S
C55 O58 1.252 . S
C55 O59 1.260 . S
C56 O63 1.240 . S
C56 O64 1.252 . S
C57 O60 1.252 . S
C57 O61 1.260 . S
O58 In52 2.266 . S
O58 C55 1.252 . S
O59 In52 2.326 . S
O59 C55 1.260 . S
O60 In52 2.266 . S
O60 C57 1.252 . S
O61 In52 2.326 . S
O61 C57 1.260 . S
C62 O53 1.240 . S
C62 O54 1.252 . S
O63 In52 2.294 . S
O63 C56 1.240 . S
O64 In52 2.326 . S
O64 C56 1.252 . S
In65 O66 2.294 . S
In65 O67 2.326 . S
In65 O71 2.266 . S
In65 O72 2.326 . S
In65 O73 2.266 . S
In65 O74 2.326 . S
In65 O76 2.294 . S
In65 O77 2.326 . S
O66 In65 2.294 . S
O66 C75 1.240 . S
O67 In65 2.326 . S
O67 C75 1.252 . S
C68 O71 1.252 . S
C68 O72 1.260 . S
C69 O76 1.240 . S
C69 O77 1.252 . S
C70 O73 1.252 . S
C70 O74 1.260 . S
O71 In65 2.266 . S
O71 C68 1.252 . S
O72 In65 2.326 . S
O72 C68 1.260 . S
O73 In65 2.266 . S
O73 C70 1.252 . S
O74 In65 2.326 . S
O74 C70 1.260 . S
C75 O66 1.240 . S
C75 O67 1.252 . S
O76 In65 2.294 . S
O76 C69 1.240 . S
O77 In65 2.326 . S
O77 C69 1.252 . S
In78 O79 2.294 . S
In78 O80 2.326 . S
In78 O84 2.266 . S
In78 O85 2.326 . S
In78 O86 2.266 . S
In78 O87 2.326 . S
In78 O89 2.294 . S
In78 O90 2.326 . S
O79 In78 2.294 . S
O79 C88 1.240 . S
O80 In78 2.326 . S
O80 C88 1.252 . S
C81 O84 1.252 . S
C81 O85 1.260 . S
C82 O89 1.240 . S
C82 O90 1.252 . S
C83 O86 1.252 . S
C83 O87 1.260 . S
O84 In78 2.266 . S
O84 C81 1.252 . S
O85 In78 2.326 . S
O85 C81 1.260 . S
O86 In78 2.266 . S
O86 C83 1.252 . S
O87 In78 2.326 . S
O87 C83 1.260 . S
C88 O79 1.240 . S
C88 O80 1.252 . S
O89 In78 2.294 . S
O89 C82 1.240 . S
O90 In78 2.326 . S
O90 C82 1.252 . S
In91 O92 2.294 . S
In91 O93 2.326 . S
In91 O97 2.266 . S
In91 O98 2.326 . S
In91 O99 2.266 . S
In91 O100 2.326 . S
In91 O102 2.294 . S
In91 O103 2.326 . S
O92 In91 2.294 . S
O92 C101 1.240 . S
O93 In91 2.326 . S
O93 C101 1.252 . S
C94 O97 1.252 . S
C94 O98 1.260 . S
C95 O102 1.240 . S
C95 O103 1.252 . S
C96 O99 1.252 . S
C96 O100 1.260 . S
O97 In91 2.266 . S
O97 C94 1.252 . S
O98 In91 2.326 . S
O98 C94 1.260 . S
O99 In91 2.266 . S
O99 C96 1.252 . S
O100 In91 2.326 . S
O100 C96 1.260 . S
C101 O92 1.240 . S
C101 O93 1.252 . S
O102 In91 2.294 . S
O102 C95 1.240 . S
O103 In91 2.326 . S
O103 C95 1.252 . S
In104 O105 2.294 . S
In104 O106 2.326 . S
In104 O110 2.266 . S
In104 O111 2.326 . S
In104 O112 2.266 . S
In104 O113 2.326 . S
In104 O115 2.294 . S
In104 O116 2.326 . S
O105 In104 2.294 . S
O105 C114 1.240 . S
O106 In104 2.326 . S
O106 C114 1.252 . S
C107 O110 1.252 . S
C107 O111 1.260 . S
C108 O115 1.240 . S
C108 O116 1.252 . S
C109 O112 1.252 . S
C109 O113 1.260 . S
O110 In104 2.266 . S
O110 C107 1.252 . S
O111 In104 2.326 . S
O111 C107 1.260 . S
O112 In104 2.266 . S
O112 C109 1.252 . S
O113 In104 2.326 . S
O113 C109 1.260 . S
C114 O105 1.240 . S
C114 O106 1.252 . S
O115 In104 2.294 . S
O115 C108 1.240 . S
O116 In104 2.326 . S
O116 C108 1.252 . S
In117 O118 2.294 . S
In117 O119 2.326 . S
In117 O123 2.266 . S
In117 O124 2.326 . S
In117 O125 2.266 . S
In117 O126 2.326 . S
In117 O128 2.294 . S
In117 O129 2.326 . S
O118 In117 2.294 . S
O118 C127 1.240 . S
O119 In117 2.326 . S
O119 C127 1.252 . S
C120 O123 1.252 . S
C120 O124 1.260 . S
C121 O128 1.240 . S
C121 O129 1.252 . S
C122 O125 1.252 . S
C122 O126 1.260 . S
O123 In117 2.266 . S
O123 C120 1.252 . S
O124 In117 2.326 . S
O124 C120 1.260 . S
O125 In117 2.266 . S
O125 C122 1.252 . S
O126 In117 2.326 . S
O126 C122 1.260 . S
C127 O118 1.240 . S
C127 O119 1.252 . S
O128 In117 2.294 . S
O128 C121 1.240 . S
O129 In117 2.326 . S
O129 C121 1.252 . S
In130 O131 2.294 . S
In130 O132 2.326 . S
In130 O136 2.266 . S
In130 O137 2.326 . S
In130 O138 2.266 . S
In130 O139 2.326 . S
In130 O141 2.294 . S
In130 O142 2.326 . S
O131 In130 2.294 . S
O131 C140 1.240 . S
O132 In130 2.326 . S
O132 C140 1.252 . S
C133 O136 1.252 . S
C133 O137 1.260 . S
C134 O141 1.240 . S
C134 O142 1.252 . S
C135 O138 1.252 . S
C135 O139 1.260 . S
O136 In130 2.266 . S
O136 C133 1.252 . S
O137 In130 2.326 . S
O137 C133 1.260 . S
O138 In130 2.266 . S
O138 C135 1.252 . S
O139 In130 2.326 . S
O139 C135 1.260 . S
C140 O131 1.240 . S
C140 O132 1.252 . S
O141 In130 2.294 . S
O141 C134 1.240 . S
O142 In130 2.326 . S
O142 C134 1.252 . S
In143 O144 2.294 . S
In143 O145 2.326 . S
In143 O149 2.266 . S
In143 O150 2.326 . S
In143 O151 2.266 . S
In143 O152 2.326 . S
In143 O154 2.294 . S
In143 O155 2.326 . S
O144 In143 2.294 . S
O144 C153 1.240 . S
O145 In143 2.326 . S
O145 C153 1.252 . S
C146 O149 1.252 . S
C146 O150 1.260 . S
C147 O154 1.240 . S
C147 O155 1.252 . S
C148 O151 1.252 . S
C148 O152 1.260 . S
O149 In143 2.266 . S
O149 C146 1.252 . S
O150 In143 2.326 . S
O150 C146 1.260 . S
O151 In143 2.266 . S
O151 C148 1.252 . S
O152 In143 2.326 . S
O152 C148 1.260 . S
C153 O144 1.240 . S
C153 O145 1.252 . S
O154 In143 2.294 . S
O154 C147 1.240 . S
O155 In143 2.326 . S
O155 C147 1.252 . S
In156 O157 2.294 . S
In156 O158 2.326 . S
In156 O162 2.266 . S
In156 O163 2.326 . S
In156 O164 2.266 . S
In156 O165 2.326 . S
In156 O167 2.294 . S
In156 O168 2.326 . S
O157 In156 2.294 . S
O157 C166 1.240 . S
O158 In156 2.326 . S
O158 C166 1.252 . S
C159 O162 1.252 . S
C159 O163 1.260 . S
C160 O167 1.240 . S
C160 O168 1.252 . S
C161 O164 1.252 . S
C161 O165 1.260 . S
O162 In156 2.266 . S
O162 C159 1.252 . S
O163 In156 2.326 . S
O163 C159 1.260 . S
O164 In156 2.266 . S
O164 C161 1.252 . S
O165 In156 2.326 . S
O165 C161 1.260 . S
C166 O157 1.240 . S
C166 O158 1.252 . S
O167 In156 2.294 . S
O167 C160 1.240 . S
O168 In156 2.326 . S
O168 C160 1.252 . S
In169 O170 2.294 . S
In169 O171 2.326 . S
In169 O175 2.266 . S
In169 O176 2.326 . S
In169 O177 2.266 . S
In169 O178 2.326 . S
In169 O180 2.294 . S
In169 O181 2.326 . S
O170 In169 2.294 . S
O170 C179 1.240 . S
O171 In169 2.326 . S
O171 C179 1.252 . S
C172 O175 1.252 . S
C172 O176 1.260 . S
C173 O180 1.240 . S
C173 O181 1.252 . S
C174 O177 1.252 . S
C174 O178 1.260 . S
O175 In169 2.266 . S
O175 C172 1.252 . S
O176 In169 2.326 . S
O176 C172 1.260 . S
O177 In169 2.266 . S
O177 C174 1.252 . S
O178 In169 2.326 . S
O178 C174 1.260 . S
C179 O170 1.240 . S
C179 O171 1.252 . S
O180 In169 2.294 . S
O180 C173 1.240 . S
O181 In169 2.326 . S
O181 C173 1.252 . S
In182 O183 2.294 . S
In182 O184 2.326 . S
In182 O188 2.266 . S
In182 O189 2.326 . S
In182 O190 2.266 . S
In182 O191 2.326 . S
In182 O193 2.294 . S
In182 O194 2.326 . S
O183 In182 2.294 . S
O183 C192 1.240 . S
O184 In182 2.326 . S
O184 C192 1.252 . S
C185 O188 1.252 . S
C185 O189 1.260 . S
C186 O193 1.240 . S
C186 O194 1.252 . S
C187 O190 1.252 . S
C187 O191 1.260 . S
O188 In182 2.266 . S
O188 C185 1.252 . S
O189 In182 2.326 . S
O189 C185 1.260 . S
O190 In182 2.266 . S
O190 C187 1.252 . S
O191 In182 2.326 . S
O191 C187 1.260 . S
C192 O183 1.240 . S
C192 O184 1.252 . S
O193 In182 2.294 . S
O193 C186 1.240 . S
O194 In182 2.326 . S
O194 C186 1.252 . S
In195 O196 2.294 . S
In195 O197 2.326 . S
In195 O201 2.266 . S
In195 O202 2.326 . S
In195 O203 2.266 . S
In195 O204 2.326 . S
In195 O206 2.294 . S
In195 O207 2.326 . S
O196 In195 2.294 . S
O196 C205 1.240 . S
O197 In195 2.326 . S
O197 C205 1.252 . S
C198 O201 1.252 . S
C198 O202 1.260 . S
C199 O206 1.240 . S
C199 O207 1.252 . S
C200 O203 1.252 . S
C200 O204 1.260 . S
O201 In195 2.266 . S
O201 C198 1.252 . S
O202 In195 2.326 . S
O202 C198 1.260 . S
O203 In195 2.266 . S
O203 C200 1.252 . S
O204 In195 2.326 . S
O204 C200 1.260 . S
C205 O196 1.240 . S
C205 O197 1.252 . S
O206 In195 2.294 . S
O206 C199 1.240 . S
O207 In195 2.326 . S
O207 C199 1.252 . S
H208 C220 0.930 . S
H209 C222 0.930 . S
H210 C223 0.930 . S
H211 C227 0.959 . S
H212 C227 0.959 . S
H213 C227 0.961 . S
H214 C228 0.960 . S
H215 C228 0.961 . S
H216 C228 0.959 . S
H217 C231 0.929 . S
H218 C232 0.931 . S
H219 C234 0.930 . S
C220 H208 0.930 . S
C220 C221 1.399 . S
C220 C225 1.399 . S
C221 C220 1.399 . S
C221 C222 1.376 . S
C222 H209 0.930 . S
C222 C221 1.376 . S
C222 C223 1.388 . S
C223 H210 0.930 . S
C223 C222 1.388 . S
C223 C224 1.390 . S
C224 C223 1.390 . S
C224 C225 1.394 . S
C224 C230 1.465 . S
C225 C220 1.399 . S
C225 C224 1.394 . S
C225 C226 1.516 . S
C226 C225 1.516 . S
C226 C227 1.502 . S
C226 C228 1.561 . S
C226 C229 1.526 . S
C227 H211 0.959 . S
C227 H212 0.959 . S
C227 H213 0.961 . S
C227 C226 1.502 . S
C228 H214 0.960 . S
C228 H215 0.961 . S
C228 H216 0.959 . S
C228 C226 1.561 . S
C229 C226 1.526 . S
C229 C230 1.396 . S
C229 C234 1.390 . S
C230 C224 1.465 . S
C230 C229 1.396 . S
C230 C231 1.399 . S
C231 H217 0.929 . S
C231 C230 1.399 . S
C231 C232 1.385 . S
C232 H218 0.931 . S
C232 C231 1.385 . S
C232 C233 1.389 . S
C233 C232 1.389 . S
C233 C234 1.387 . S
C234 H219 0.930 . S
C234 C229 1.390 . S
C234 C233 1.387 . S
H235 C247 0.930 . S
H236 C249 0.930 . S
H237 C250 0.930 1_545 S
H238 C254 0.959 1_545 S
H239 C254 0.959 . S
H240 C254 0.961 . S
H241 C255 0.960 . S
H242 C255 0.961 . S
H243 C255 0.959 . S
H244 C258 0.929 . S
H245 C259 0.931 . S
H246 C261 0.930 . S
C247 H235 0.930 . S
C247 C248 1.399 . S
C247 C252 1.399 . S
C248 C247 1.399 . S
C248 C249 1.376 . S
C249 H236 0.930 . S
C249 C248 1.376 . S
C249 C250 1.388 . S
C250 H237 0.930 1_565 S
C250 C249 1.388 . S
C250 C251 1.390 . S
C251 C250 1.390 . S
C251 C252 1.394 . S
C251 C257 1.445 1_665 S
C252 C247 1.399 . S
C252 C251 1.394 . S
C252 C253 1.516 1_655 S
C253 C252 1.516 1_455 S
C253 C254 1.502 . S
C253 C255 1.561 . S
C253 C256 1.526 1_565 S
C254 H238 0.959 1_565 S
C254 H239 0.959 . S
C254 H240 0.961 . S
C254 C253 1.502 . S
C255 H241 0.960 . S
C255 H242 0.961 . S
C255 H243 0.959 . S
C255 C253 1.561 . S
C256 C253 1.526 1_545 S
C256 C257 1.421 . S
C256 C261 1.390 . S
C257 C251 1.445 1_445 S
C257 C256 1.421 . S
C257 C258 1.397 1_455 S
C258 H244 0.929 . S
C258 C257 1.397 1_655 S
C258 C259 1.385 1_655 S
C259 H245 0.931 . S
C259 C258 1.385 1_455 S
C259 C260 1.389 . S
C260 C259 1.389 . S
C260 C261 1.387 . S
C261 H246 0.930 . S
C261 C256 1.390 . S
C261 C260 1.387 . S
H262 C274 0.930 1_545 S
H263 C276 0.930 . S
H264 C277 0.930 . S
H265 C281 0.959 . S
H266 C281 0.959 . S
H267 C281 0.961 . S
H268 C282 0.960 . S
H269 C282 0.961 . S
H270 C282 0.959 . S
H271 C285 0.929 . S
H272 C286 0.931 . S
H273 C288 0.930 . S
C274 H262 0.930 1_565 S
C274 C275 1.399 . S
C274 C279 1.399 1_565 S
C275 C274 1.399 . S
C275 C276 1.376 . S
C276 H263 0.930 . S
C276 C275 1.376 . S
C276 C277 1.388 . S
C277 H264 0.930 . S
C277 C276 1.388 . S
C277 C278 1.390 . S
C278 C277 1.390 . S
C278 C279 1.394 1_565 S
C278 C284 1.465 . S
C279 C274 1.399 1_545 S
C279 C278 1.394 1_545 S
C279 C280 1.516 . S
C280 C279 1.516 . S
C280 C281 1.502 . S
C280 C282 1.561 . S
C280 C283 1.526 . S
C281 H265 0.959 . S
C281 H266 0.959 . S
C281 H267 0.961 . S
C281 C280 1.502 . S
C282 H268 0.960 . S
C282 H269 0.961 . S
C282 H270 0.959 . S
C282 C280 1.561 . S
C283 C280 1.526 . S
C283 C284 1.396 1_545 S
C283 C288 1.390 . S
C284 C278 1.465 . S
C284 C283 1.396 1_565 S
C284 C285 1.399 . S
C285 H271 0.929 . S
C285 C284 1.399 . S
C285 C286 1.385 . S
C286 H272 0.931 . S
C286 C285 1.385 . S
C286 C287 1.389 1_565 S
C287 C286 1.389 1_545 S
C287 C288 1.387 . S
C288 H273 0.930 . S
C288 C283 1.390 . S
C288 C287 1.387 . S
H289 C301 0.930 . S
H290 C303 0.930 . S
H291 C304 0.930 . S
H292 C308 0.959 . S
H293 C308 0.959 . S
H294 C308 0.961 . S
H295 C309 0.960 . S
H296 C309 0.961 . S
H297 C309 0.959 . S
H298 C312 0.929 . S
H299 C313 0.931 . S
H300 C315 0.930 . S
C301 H289 0.930 . S
C301 C302 1.399 . S
C301 C306 1.399 . S
C302 C301 1.399 . S
C302 C303 1.376 . S
C303 H290 0.930 . S
C303 C302 1.376 . S
C303 C304 1.388 . S
C304 H291 0.930 . S
C304 C303 1.388 . S
C304 C305 1.390 . S
C305 C304 1.390 . S
C305 C306 1.394 . S
C305 C311 1.465 1_455 S
C306 C301 1.399 . S
C306 C305 1.394 . S
C306 C307 1.516 1_455 S
C307 C306 1.516 1_655 S
C307 C308 1.502 . S
C307 C309 1.561 1_655 S
C307 C310 1.526 . S
C308 H292 0.959 . S
C308 H293 0.959 . S
C308 H294 0.961 . S
C308 C307 1.502 . S
C309 H295 0.960 . S
C309 H296 0.961 . S
C309 H297 0.959 . S
C309 C307 1.561 1_455 S
C310 C307 1.526 . S
C310 C311 1.396 . S
C310 C315 1.390 . S
C311 C305 1.465 1_655 S
C311 C310 1.396 . S
C311 C312 1.399 . S
C312 H298 0.929 . S
C312 C311 1.399 . S
C312 C313 1.385 . S
C313 H299 0.931 . S
C313 C312 1.385 . S
C313 C314 1.389 . S
C314 C313 1.389 . S
C314 C315 1.387 . S
C315 H300 0.930 . S
C315 C310 1.390 . S
C315 C314 1.387 . S
H316 C328 0.930 . S
H317 C330 0.930 . S
H318 C331 0.930 . S
H319 C335 0.959 . S
H320 C335 0.959 . S
H321 C335 0.961 . S
H322 C336 0.960 . S
H323 C336 0.961 . S
H324 C336 0.959 . S
H325 C339 0.929 . S
H326 C340 0.931 . S
H327 C342 0.930 . S
C328 H316 0.930 . S
C328 C329 1.399 . S
C328 C333 1.399 . S
C329 C328 1.399 . S
C329 C330 1.376 . S
C330 H317 0.930 . S
C330 C329 1.376 . S
C330 C331 1.388 . S
C331 H318 0.930 . S
C331 C330 1.388 . S
C331 C332 1.390 . S
C332 C331 1.390 . S
C332 C333 1.394 . S
C332 C338 1.465 . S
C333 C328 1.399 . S
C333 C332 1.394 . S
C333 C334 1.516 . S
C334 C333 1.516 . S
C334 C335 1.502 . S
C334 C336 1.561 . S
C334 C337 1.526 . S
C335 H319 0.959 . S
C335 H320 0.959 . S
C335 H321 0.961 . S
C335 C334 1.502 . S
C336 H322 0.960 . S
C336 H323 0.961 . S
C336 H324 0.959 . S
C336 C334 1.561 . S
C337 C334 1.526 . S
C337 C338 1.396 . S
C337 C342 1.390 . S
C338 C332 1.465 . S
C338 C337 1.396 . S
C338 C339 1.399 . S
C339 H325 0.929 . S
C339 C338 1.399 . S
C339 C340 1.385 . S
C340 H326 0.931 . S
C340 C339 1.385 . S
C340 C341 1.389 . S
C341 C340 1.389 . S
C341 C342 1.387 . S
C342 H327 0.930 . S
C342 C337 1.390 . S
C342 C341 1.387 . S
H343 C355 0.930 . S
H344 C357 0.930 . S
H345 C358 0.930 . S
H346 C362 0.959 . S
H347 C362 0.959 . S
H348 C362 0.961 1_545 S
H349 C363 0.960 . S
H350 C363 0.961 . S
H351 C363 0.959 . S
H352 C366 0.929 . S
H353 C367 0.931 . S
H354 C369 0.930 . S
C355 H343 0.930 . S
C355 C356 1.399 . S
C355 C360 1.399 . S
C356 C355 1.399 . S
C356 C357 1.376 . S
C357 H344 0.930 . S
C357 C356 1.376 . S
C357 C358 1.388 . S
C358 H345 0.930 . S
C358 C357 1.388 . S
C358 C359 1.390 . S
C359 C358 1.390 . S
C359 C360 1.394 . S
C359 C365 1.465 1_545 S
C360 C355 1.399 . S
C360 C359 1.394 . S
C360 C361 1.516 . S
C361 C360 1.516 . S
C361 C362 1.502 1_545 S
C361 C363 1.561 . S
C361 C364 1.526 1_545 S
C362 H346 0.959 . S
C362 H347 0.959 . S
C362 H348 0.961 1_565 S
C362 C361 1.502 1_565 S
C363 H349 0.960 . S
C363 H350 0.961 . S
C363 H351 0.959 . S
C363 C361 1.561 . S
C364 C361 1.526 1_565 S
C364 C365 1.396 . S
C364 C369 1.390 . S
C365 C359 1.465 1_565 S
C365 C364 1.396 . S
C365 C366 1.399 . S
C366 H352 0.929 . S
C366 C365 1.399 . S
C366 C367 1.385 . S
C367 H353 0.931 . S
C367 C366 1.385 . S
C367 C368 1.389 . S
C368 C367 1.389 . S
C368 C369 1.387 . S
C369 H354 0.930 . S
C369 C364 1.390 . S
C369 C368 1.387 . S
H370 C382 0.930 . S
H371 C384 0.930 . S
H372 C385 0.930 . S
H373 C389 0.959 . S
H374 C389 0.959 . S
H375 C389 0.961 . S
H376 C390 0.960 . S
H377 C390 0.961 . S
H378 C390 0.959 . S
H379 C393 0.929 1_655 S
H380 C394 0.931 . S
H381 C396 0.930 . S
C382 H370 0.930 . S
C382 C383 1.399 . S
C382 C387 1.399 . S
C383 C382 1.399 . S
C383 C384 1.376 . S
C384 H371 0.930 . S
C384 C383 1.376 . S
C384 C385 1.388 . S
C385 H372 0.930 . S
C385 C384 1.388 . S
C385 C386 1.390 . S
C386 C385 1.390 . S
C386 C387 1.394 . S
C386 C392 1.465 1_655 S
C387 C382 1.399 . S
C387 C386 1.394 . S
C387 C388 1.516 1_655 S
C388 C387 1.516 1_455 S
C388 C389 1.502 . S
C388 C390 1.561 . S
C388 C391 1.526 . S
C389 H373 0.959 . S
C389 H374 0.959 . S
C389 H375 0.961 . S
C389 C388 1.502 . S
C390 H376 0.960 . S
C390 H377 0.961 . S
C390 H378 0.959 . S
C390 C388 1.561 . S
C391 C388 1.526 . S
C391 C392 1.396 . S
C391 C396 1.390 . S
C392 C386 1.465 1_455 S
C392 C391 1.396 . S
C392 C393 1.399 . S
C393 H379 0.929 1_455 S
C393 C392 1.399 . S
C393 C394 1.385 . S
C394 H380 0.931 . S
C394 C393 1.385 . S
C394 C395 1.389 . S
C395 C394 1.389 . S
C395 C396 1.387 . S
C396 H381 0.930 . S
C396 C391 1.390 . S
C396 C395 1.387 . S
H397 C409 0.930 . S
H398 C411 0.930 . S
H399 C412 0.930 . S
H400 C416 0.959 . S
H401 C416 0.959 . S
H402 C416 0.961 . S
H403 C417 0.960 . S
H404 C417 0.979 . S
H405 C417 0.959 . S
H406 C420 0.932 1_554 S
H407 C421 0.931 . S
H408 C423 0.930 . S
C409 H397 0.930 . S
C409 C410 1.399 . S
C409 C414 1.399 . S
C410 C409 1.399 . S
C410 C411 1.376 . S
C411 H398 0.930 . S
C411 C410 1.376 . S
C411 C412 1.388 . S
C412 H399 0.930 . S
C412 C411 1.388 . S
C412 C413 1.390 . S
C413 C412 1.390 . S
C413 C414 1.394 . S
C413 C419 1.465 1_554 S
C414 C409 1.399 . S
C414 C413 1.394 . S
C414 C415 1.516 1_554 S
C415 C414 1.516 1_556 S
C415 C416 1.502 . S
C415 C417 1.561 1_556 S
C415 C418 1.526 . S
C416 H400 0.959 . S
C416 H401 0.959 . S
C416 H402 0.961 . S
C416 C415 1.502 . S
C417 H403 0.960 . S
C417 H404 0.979 . S
C417 H405 0.959 . S
C417 C415 1.561 1_554 S
C418 C415 1.526 . S
C418 C419 1.396 . S
C418 C423 1.390 . S
C419 C413 1.465 1_556 S
C419 C418 1.396 . S
C419 C420 1.399 . S
C420 H406 0.932 1_556 S
C420 C419 1.399 . S
C420 C421 1.385 . S
C421 H407 0.931 . S
C421 C420 1.385 . S
C421 C422 1.389 . S
C422 C421 1.389 . S
C422 C423 1.387 . S
C423 H408 0.930 . S
C423 C418 1.390 . S
C423 C422 1.387 . S
H424 C436 0.930 . S
H425 C438 0.930 . S
H426 C439 0.930 1_554 S
H427 C443 0.959 1_554 S
H428 C443 0.959 . S
H429 C443 0.961 . S
H430 C444 0.960 . S
H431 C444 0.961 . S
H432 C444 0.959 . S
H433 C447 0.950 . S
H434 C448 0.931 . S
H435 C450 0.930 . S
C436 H424 0.930 . S
C436 C437 1.399 . S
C436 C441 1.399 . S
C437 C436 1.399 . S
C437 C438 1.376 . S
C438 H425 0.930 . S
C438 C437 1.376 . S
C438 C439 1.388 . S
C439 H426 0.930 1_556 S
C439 C438 1.388 . S
C439 C440 1.390 . S
C440 C439 1.390 . S
C440 C441 1.394 . S
C440 C446 1.465 1_456 S
C441 C436 1.399 . S
C441 C440 1.394 . S
C441 C442 1.516 1_455 S
C442 C441 1.516 1_655 S
C442 C443 1.502 . S
C442 C444 1.561 . S
C442 C445 1.526 1_556 S
C443 H427 0.959 1_556 S
C443 H428 0.959 . S
C443 H429 0.961 . S
C443 C442 1.502 . S
C444 H430 0.960 . S
C444 H431 0.961 . S
C444 H432 0.959 . S
C444 C442 1.561 . S
C445 C442 1.526 1_554 S
C445 C446 1.396 . S
C445 C450 1.390 . S
C446 C440 1.465 1_654 S
C446 C445 1.396 . S
C446 C447 1.398 1_655 S
C447 H433 0.950 . S
C447 C446 1.398 1_455 S
C447 C448 1.366 1_455 S
C448 H434 0.931 . S
C448 C447 1.366 1_655 S
C448 C449 1.389 . S
C449 C448 1.389 . S
C449 C450 1.387 . S
C450 H435 0.930 . S
C450 C445 1.390 . S
C450 C449 1.387 . S
H451 C463 0.930 . S
H452 C465 0.930 . S
H453 C466 0.930 . S
H454 C470 0.959 . S
H455 C470 0.959 . S
H456 C470 0.961 . S
H457 C471 0.960 . S
H458 C471 0.961 . S
H459 C471 0.959 . S
H460 C474 0.929 . S
H461 C475 0.931 . S
H462 C477 0.930 . S
C463 H451 0.930 . S
C463 C464 1.399 . S
C463 C468 1.399 . S
C464 C463 1.399 . S
C464 C465 1.376 . S
C465 H452 0.930 . S
C465 C464 1.376 . S
C465 C466 1.388 . S
C466 H453 0.930 . S
C466 C465 1.388 . S
C466 C467 1.390 . S
C467 C466 1.390 . S
C467 C468 1.394 . S
C467 C473 1.465 . S
C468 C463 1.399 . S
C468 C467 1.394 . S
C468 C469 1.516 . S
C469 C468 1.516 . S
C469 C470 1.502 . S
C469 C471 1.561 . S
C469 C472 1.526 . S
C470 H454 0.959 . S
C470 H455 0.959 . S
C470 H456 0.961 . S
C470 C469 1.502 . S
C471 H457 0.960 . S
C471 H458 0.961 . S
C471 H459 0.959 . S
C471 C469 1.561 . S
C472 C469 1.526 . S
C472 C473 1.396 . S
C472 C477 1.390 . S
C473 C467 1.465 . S
C473 C472 1.396 . S
C473 C474 1.399 . S
C474 H460 0.929 . S
C474 C473 1.399 . S
C474 C475 1.385 . S
C475 H461 0.931 . S
C475 C474 1.385 . S
C475 C476 1.389 . S
C476 C475 1.389 . S
C476 C477 1.387 . S
C477 H462 0.930 . S
C477 C472 1.390 . S
C477 C476 1.387 . S
H478 C490 0.930 . S
H479 C492 0.930 . S
H480 C493 0.930 . S
H481 C497 0.959 . S
H482 C497 0.959 . S
H483 C497 0.961 . S
H484 C498 0.960 . S
H485 C498 0.961 . S
H486 C498 0.959 1_556 S
H487 C501 0.929 . S
H488 C502 0.931 . S
H489 C504 0.930 . S
C490 H478 0.930 . S
C490 C491 1.399 . S
C490 C495 1.399 . S
C491 C490 1.399 . S
C491 C492 1.376 . S
C492 H479 0.930 . S
C492 C491 1.376 . S
C492 C493 1.388 . S
C493 H480 0.930 . S
C493 C492 1.388 . S
C493 C494 1.390 . S
C494 C493 1.390 . S
C494 C495 1.394 . S
C494 C500 1.489 . S
C495 C490 1.399 . S
C495 C494 1.394 . S
C495 C496 1.516 1_556 S
C496 C495 1.516 1_554 S
C496 C497 1.502 . S
C496 C498 1.561 . S
C496 C499 1.526 . S
C497 H481 0.959 . S
C497 H482 0.959 . S
C497 H483 0.961 . S
C497 C496 1.502 . S
C498 H484 0.960 . S
C498 H485 0.961 . S
C498 H486 0.959 1_554 S
C498 C496 1.561 . S
C499 C496 1.526 . S
C499 C500 1.366 1_554 S
C499 C504 1.390 . S
C500 C494 1.489 . S
C500 C499 1.366 1_556 S
C500 C501 1.402 . S
C501 H487 0.929 . S
C501 C500 1.402 . S
C501 C502 1.385 1_556 S
C502 H488 0.931 . S
C502 C501 1.385 1_554 S
C502 C503 1.389 . S
C503 C502 1.389 . S
C503 C504 1.387 . S
C504 H489 0.930 . S
C504 C499 1.390 . S
C504 C503 1.387 . S
H505 C517 0.930 . S
H506 C519 0.930 . S
H507 C520 0.930 . S
H508 C524 0.959 . S
H509 C524 0.959 . S
H510 C524 0.961 . S
H511 C525 0.960 . S
H512 C525 0.961 . S
H513 C525 0.959 . S
H514 C528 0.929 . S
H515 C529 0.931 . S
H516 C531 0.930 . S
C517 H505 0.930 . S
C517 C518 1.399 . S
C517 C522 1.399 . S
C518 C517 1.399 . S
C518 C519 1.376 . S
C519 H506 0.930 . S
C519 C518 1.376 . S
C519 C520 1.388 . S
C520 H507 0.930 . S
C520 C519 1.388 . S
C520 C521 1.390 . S
C521 C520 1.390 . S
C521 C522 1.394 . S
C521 C527 1.465 . S
C522 C517 1.399 . S
C522 C521 1.394 . S
C522 C523 1.516 . S
C523 C522 1.516 . S
C523 C524 1.502 . S
C523 C525 1.561 . S
C523 C526 1.526 . S
C524 H508 0.959 . S
C524 H509 0.959 . S
C524 H510 0.961 . S
C524 C523 1.502 . S
C525 H511 0.960 . S
C525 H512 0.961 . S
C525 H513 0.959 . S
C525 C523 1.561 . S
C526 C523 1.526 . S
C526 C527 1.396 . S
C526 C531 1.390 . S
C527 C521 1.465 . S
C527 C526 1.396 . S
C527 C528 1.399 . S
C528 H514 0.929 . S
C528 C527 1.399 . S
C528 C529 1.385 . S
C529 H515 0.931 . S
C529 C528 1.385 . S
C529 C530 1.389 . S
C530 C529 1.389 . S
C530 C531 1.387 . S
C531 H516 0.930 . S
C531 C526 1.390 . S
C531 C530 1.387 . S
H532 C544 0.930 . S
H533 C546 0.930 . S
H534 C547 0.930 . S
H535 C551 0.959 . S
H536 C551 0.959 . S
H537 C551 0.961 . S
H538 C552 0.960 . S
H539 C552 0.971 . S
H540 C552 0.959 . S
H541 C555 0.925 1_556 S
H542 C556 0.931 . S
H543 C558 0.930 1_545 S
C544 H532 0.930 . S
C544 C545 1.399 . S
C544 C549 1.399 . S
C545 C544 1.399 . S
C545 C546 1.376 1_545 S
C546 H533 0.930 . S
C546 C545 1.376 1_565 S
C546 C547 1.388 . S
C547 H534 0.930 . S
C547 C546 1.388 . S
C547 C548 1.390 . S
C548 C547 1.390 . S
C548 C549 1.394 1_565 S
C548 C554 1.465 1_556 S
C549 C544 1.399 . S
C549 C548 1.394 1_545 S
C549 C550 1.516 1_556 S
C550 C549 1.516 1_554 S
C550 C551 1.502 . S
C550 C552 1.561 1_554 S
C550 C553 1.526 . S
C551 H535 0.959 . S
C551 H536 0.959 . S
C551 H537 0.961 . S
C551 C550 1.502 . S
C552 H538 0.960 . S
C552 H539 0.971 . S
C552 H540 0.959 . S
C552 C550 1.561 1_556 S
C553 C550 1.526 . S
C553 C554 1.396 1_545 S
C553 C558 1.390 1_545 S
C554 C548 1.465 1_554 S
C554 C553 1.396 1_565 S
C554 C555 1.399 . S
C555 H541 0.925 1_554 S
C555 C554 1.399 . S
C555 C556 1.385 . S
C556 H542 0.931 . S
C556 C555 1.385 . S
C556 C557 1.389 . S
C557 C556 1.389 . S
C557 C558 1.387 . S
C558 H543 0.930 1_565 S
C558 C553 1.390 1_565 S
C558 C557 1.387 . S
H559 C571 0.930 . S
H560 C573 0.930 . S
H561 C574 0.930 . S
H562 C578 0.959 . S
H563 C578 0.959 . S
H564 C578 0.961 . S
H565 C579 0.960 . S
H566 C579 0.961 . S
H567 C579 0.959 . S
H568 C582 0.929 . S
H569 C583 0.931 . S
H570 C585 0.930 . S
C571 H559 0.930 . S
C571 C572 1.399 . S
C571 C576 1.399 . S
C572 C571 1.399 . S
C572 C573 1.376 . S
C573 H560 0.930 . S
C573 C572 1.376 . S
C573 C574 1.388 . S
C574 H561 0.930 . S
C574 C573 1.388 . S
C574 C575 1.390 . S
C575 C574 1.390 . S
C575 C576 1.394 . S
C575 C581 1.465 . S
C576 C571 1.399 . S
C576 C575 1.394 . S
C576 C577 1.516 . S
C577 C576 1.516 . S
C577 C578 1.502 . S
C577 C579 1.561 . S
C577 C580 1.526 . S
C578 H562 0.959 . S
C578 H563 0.959 . S
C578 H564 0.961 . S
C578 C577 1.502 . S
C579 H565 0.960 . S
C579 H566 0.961 . S
C579 H567 0.959 . S
C579 C577 1.561 . S
C580 C577 1.526 . S
C580 C581 1.396 . S
C580 C585 1.390 . S
C581 C575 1.465 . S
C581 C580 1.396 . S
C581 C582 1.399 . S
C582 H568 0.929 . S
C582 C581 1.399 . S
C582 C583 1.385 . S
C583 H569 0.931 . S
C583 C582 1.385 . S
C583 C584 1.389 . S
C584 C583 1.389 . S
C584 C585 1.387 . S
C585 H570 0.930 . S
C585 C580 1.390 . S
C585 C584 1.387 . S
H586 C598 0.930 . S
H587 C600 0.930 . S
H588 C601 0.930 . S
H589 C605 0.959 . S
H590 C605 0.959 . S
H591 C605 0.961 . S
H592 C606 0.960 . S
H593 C606 0.961 . S
H594 C606 0.959 . S
H595 C609 0.929 . S
H596 C610 0.931 . S
H597 C612 0.930 . S
C598 H586 0.930 . S
C598 C599 1.399 . S
C598 C603 1.399 . S
C599 C598 1.399 . S
C599 C600 1.376 . S
C600 H587 0.930 . S
C600 C599 1.376 . S
C600 C601 1.388 . S
C601 H588 0.930 . S
C601 C600 1.388 . S
C601 C602 1.390 . S
C602 C601 1.390 . S
C602 C603 1.394 . S
C602 C608 1.465 . S
C603 C598 1.399 . S
C603 C602 1.394 . S
C603 C604 1.516 . S
C604 C603 1.516 . S
C604 C605 1.502 . S
C604 C606 1.561 . S
C604 C607 1.526 . S
C605 H589 0.959 . S
C605 H590 0.959 . S
C605 H591 0.961 . S
C605 C604 1.502 . S
C606 H592 0.960 . S
C606 H593 0.961 . S
C606 H594 0.959 . S
C606 C604 1.561 . S
C607 C604 1.526 . S
C607 C608 1.396 . S
C607 C612 1.390 . S
C608 C602 1.465 . S
C608 C607 1.396 . S
C608 C609 1.399 . S
C609 H595 0.929 . S
C609 C608 1.399 . S
C609 C610 1.385 . S
C610 H596 0.931 . S
C610 C609 1.385 . S
C610 C611 1.389 . S
C611 C610 1.389 . S
C611 C612 1.387 . S
C612 H597 0.930 . S
C612 C607 1.390 . S
C612 C611 1.387 . S
H613 C625 0.930 . S
H614 C627 0.930 . S
H615 C628 0.930 . S
H616 C632 0.959 . S
H617 C632 0.959 . S
H618 C632 0.961 . S
H619 C633 0.960 . S
H620 C633 0.961 . S
H621 C633 0.959 . S
H622 C636 0.929 . S
H623 C637 0.931 . S
H624 C639 0.930 . S
C625 H613 0.930 . S
C625 C626 1.399 . S
C625 C630 1.399 . S
C626 C625 1.399 . S
C626 C627 1.376 . S
C627 H614 0.930 . S
C627 C626 1.376 . S
C627 C628 1.388 . S
C628 H615 0.930 . S
C628 C627 1.388 . S
C628 C629 1.390 . S
C629 C628 1.390 . S
C629 C630 1.394 . S
C629 C635 1.465 . S
C630 C625 1.399 . S
C630 C629 1.394 . S
C630 C631 1.516 . S
C631 C630 1.516 . S
C631 C632 1.502 . S
C631 C633 1.561 . S
C631 C634 1.526 . S
C632 H616 0.959 . S
C632 H617 0.959 . S
C632 H618 0.961 . S
C632 C631 1.502 . S
C633 H619 0.960 . S
C633 H620 0.961 . S
C633 H621 0.959 . S
C633 C631 1.561 . S
C634 C631 1.526 . S
C634 C635 1.396 . S
C634 C639 1.390 . S
C635 C629 1.465 . S
C635 C634 1.396 . S
C635 C636 1.399 . S
C636 H622 0.929 . S
C636 C635 1.399 . S
C636 C637 1.385 . S
C637 H623 0.931 . S
C637 C636 1.385 . S
C637 C638 1.389 . S
C638 C637 1.389 . S
C638 C639 1.387 . S
C639 H624 0.930 . S
C639 C634 1.390 . S
C639 C638 1.387 . S
H640 C652 0.930 . S
H641 C654 0.930 . S
H642 C655 0.930 . S
H643 C659 0.959 . S
H644 C659 0.959 . S
H645 C659 0.961 . S
H646 C660 0.960 . S
H647 C660 0.961 . S
H648 C660 0.959 . S
H649 C663 0.929 . S
H650 C664 0.931 . S
H651 C666 0.930 . S
C652 H640 0.930 . S
C652 C653 1.399 . S
C652 C657 1.399 . S
C653 C652 1.399 . S
C653 C654 1.376 . S
C654 H641 0.930 . S
C654 C653 1.376 . S
C654 C655 1.388 . S
C655 H642 0.930 . S
C655 C654 1.388 . S
C655 C656 1.390 . S
C656 C655 1.390 . S
C656 C657 1.394 . S
C656 C662 1.465 . S
C657 C652 1.399 . S
C657 C656 1.394 . S
C657 C658 1.516 . S
C658 C657 1.516 . S
C658 C659 1.502 . S
C658 C660 1.561 . S
C658 C661 1.526 . S
C659 H643 0.959 . S
C659 H644 0.959 . S
C659 H645 0.961 . S
C659 C658 1.502 . S
C660 H646 0.960 . S
C660 H647 0.961 . S
C660 H648 0.959 . S
C660 C658 1.561 . S
C661 C658 1.526 . S
C661 C662 1.396 . S
C661 C666 1.390 . S
C662 C656 1.465 . S
C662 C661 1.396 . S
C662 C663 1.399 . S
C663 H649 0.929 . S
C663 C662 1.399 . S
C663 C664 1.385 1_565 S
C664 H650 0.931 . S
C664 C663 1.385 1_545 S
C664 C665 1.389 1_545 S
C665 C664 1.389 1_565 S
C665 C666 1.387 . S
C666 H651 0.930 . S
C666 C661 1.390 . S
C666 C665 1.387 . S
H667 C679 0.930 . S
H668 C681 0.930 . S
H669 C682 0.930 . S
H670 C686 0.959 . S
H671 C686 0.959 . S
H672 C686 0.961 . S
H673 C687 0.960 . S
H674 C687 0.961 . S
H675 C687 0.959 . S
H676 C690 0.929 . S
H677 C691 0.931 . S
H678 C693 0.930 . S
C679 H667 0.930 . S
C679 C680 1.399 . S
C679 C684 1.399 . S
C680 C679 1.399 . S
C680 C681 1.376 . S
C681 H668 0.930 . S
C681 C680 1.376 . S
C681 C682 1.388 . S
C682 H669 0.930 . S
C682 C681 1.388 . S
C682 C683 1.390 . S
C683 C682 1.390 . S
C683 C684 1.394 . S
C683 C689 1.465 . S
C684 C679 1.399 . S
C684 C683 1.394 . S
C684 C685 1.516 . S
C685 C684 1.516 . S
C685 C686 1.502 . S
C685 C687 1.561 . S
C685 C688 1.526 . S
C686 H670 0.959 . S
C686 H671 0.959 . S
C686 H672 0.961 . S
C686 C685 1.502 . S
C687 H673 0.960 . S
C687 H674 0.961 . S
C687 H675 0.959 . S
C687 C685 1.561 . S
C688 C685 1.526 . S
C688 C689 1.396 . S
C688 C693 1.390 . S
C689 C683 1.465 . S
C689 C688 1.396 . S
C689 C690 1.399 . S
C690 H676 0.929 . S
C690 C689 1.399 . S
C690 C691 1.385 . S
C691 H677 0.931 . S
C691 C690 1.385 . S
C691 C692 1.389 . S
C692 C691 1.389 . S
C692 C693 1.387 . S
C693 H678 0.930 . S
C693 C688 1.390 . S
C693 C692 1.387 . S
H694 C706 0.930 . S
H695 C708 0.930 . S
H696 C709 0.930 . S
H697 C713 0.959 . S
H698 C713 0.959 . S
H699 C713 0.961 . S
H700 C714 0.960 . S
H701 C714 0.961 . S
H702 C714 0.959 . S
H703 C717 0.929 . S
H704 C718 0.931 . S
H705 C720 0.930 . S
C706 H694 0.930 . S
C706 C707 1.399 . S
C706 C711 1.399 . S
C707 C706 1.399 . S
C707 C708 1.376 . S
C708 H695 0.930 . S
C708 C707 1.376 . S
C708 C709 1.388 . S
C709 H696 0.930 . S
C709 C708 1.388 . S
C709 C710 1.390 . S
C710 C709 1.390 . S
C710 C711 1.394 . S
C710 C716 1.465 . S
C711 C706 1.399 . S
C711 C710 1.394 . S
C711 C712 1.516 . S
C712 C711 1.516 . S
C712 C713 1.502 . S
C712 C714 1.561 . S
C712 C715 1.526 . S
C713 H697 0.959 . S
C713 H698 0.959 . S
C713 H699 0.961 . S
C713 C712 1.502 . S
C714 H700 0.960 . S
C714 H701 0.961 . S
C714 H702 0.959 . S
C714 C712 1.561 . S
C715 C712 1.526 . S
C715 C716 1.396 . S
C715 C720 1.390 . S
C716 C710 1.465 . S
C716 C715 1.396 . S
C716 C717 1.399 . S
C717 H703 0.929 . S
C717 C716 1.399 . S
C717 C718 1.385 . S
C718 H704 0.931 . S
C718 C717 1.385 . S
C718 C719 1.389 . S
C719 C718 1.389 . S
C719 C720 1.387 . S
C720 H705 0.930 . S
C720 C715 1.390 . S
C720 C719 1.387 . S
H721 C733 0.930 . S
H722 C735 0.930 . S
H723 C736 0.930 . S
H724 C740 0.959 . S
H725 C740 0.959 . S
H726 C740 0.961 . S
H727 C741 0.960 . S
H728 C741 0.961 . S
H729 C741 0.959 . S
H730 C744 0.929 . S
H731 C745 0.948 . S
H732 C747 0.930 . S
C733 H721 0.930 . S
C733 C734 1.399 . S
C733 C738 1.399 . S
C734 C733 1.399 . S
C734 C735 1.376 . S
C735 H722 0.930 . S
C735 C734 1.376 . S
C735 C736 1.388 . S
C736 H723 0.930 . S
C736 C735 1.388 . S
C736 C737 1.390 . S
C737 C736 1.390 . S
C737 C738 1.394 . S
C737 C743 1.465 . S
C738 C733 1.399 . S
C738 C737 1.394 . S
C738 C739 1.516 . S
C739 C738 1.516 . S
C739 C740 1.502 . S
C739 C741 1.561 . S
C739 C742 1.526 . S
C740 H724 0.959 . S
C740 H725 0.959 . S
C740 H726 0.961 . S
C740 C739 1.502 . S
C741 H727 0.960 . S
C741 H728 0.961 . S
C741 H729 0.959 . S
C741 C739 1.561 . S
C742 C739 1.526 . S
C742 C743 1.396 . S
C742 C747 1.390 . S
C743 C737 1.465 . S
C743 C742 1.396 . S
C743 C744 1.399 . S
C744 H730 0.929 . S
C744 C743 1.399 . S
C744 C745 1.372 1_565 S
C745 H731 0.948 . S
C745 C744 1.372 1_545 S
C745 C746 1.386 1_545 S
C746 C745 1.386 1_565 S
C746 C747 1.387 . S
C747 H732 0.930 . S
C747 C742 1.390 . S
C747 C746 1.387 . S
H748 C760 0.930 . S
H749 C762 0.930 . S
H750 C763 0.930 . S
H751 C767 0.959 . S
H752 C767 0.959 . S
H753 C767 0.961 . S
H754 C768 0.960 . S
H755 C768 0.961 . S
H756 C768 0.959 . S
H757 C771 0.929 . S
H758 C772 0.931 . S
H759 C774 0.930 . S
C760 H748 0.930 . S
C760 C761 1.399 . S
C760 C765 1.399 . S
C761 C760 1.399 . S
C761 C762 1.376 . S
C762 H749 0.930 . S
C762 C761 1.376 . S
C762 C763 1.388 . S
C763 H750 0.930 . S
C763 C762 1.388 . S
C763 C764 1.390 . S
C764 C763 1.390 . S
C764 C765 1.394 . S
C764 C770 1.465 . S
C765 C760 1.399 . S
C765 C764 1.394 . S
C765 C766 1.516 . S
C766 C765 1.516 . S
C766 C767 1.502 . S
C766 C768 1.561 . S
C766 C769 1.526 . S
C767 H751 0.959 . S
C767 H752 0.959 . S
C767 H753 0.961 . S
C767 C766 1.502 . S
C768 H754 0.960 . S
C768 H755 0.961 . S
C768 H756 0.959 . S
C768 C766 1.561 . S
C769 C766 1.526 . S
C769 C770 1.396 . S
C769 C774 1.390 . S
C770 C764 1.465 . S
C770 C769 1.396 . S
C770 C771 1.399 . S
C771 H757 0.929 . S
C771 C770 1.399 . S
C771 C772 1.385 . S
C772 H758 0.931 . S
C772 C771 1.385 . S
C772 C773 1.389 . S
C773 C772 1.389 . S
C773 C774 1.387 . S
C774 H759 0.930 . S
C774 C769 1.390 . S
C774 C773 1.387 . S
H775 C787 0.930 . S
H776 C789 0.930 . S
H777 C790 0.930 . S
H778 C794 0.959 . S
H779 C794 0.959 . S
H780 C794 0.961 . S
H781 C795 0.960 . S
H782 C795 0.961 . S
H783 C795 0.959 . S
H784 C798 0.929 . S
H785 C799 0.931 . S
H786 C801 0.930 . S
C787 H775 0.930 . S
C787 C788 1.399 . S
C787 C792 1.399 . S
C788 C787 1.399 . S
C788 C789 1.376 . S
C789 H776 0.930 . S
C789 C788 1.376 . S
C789 C790 1.388 . S
C790 H777 0.930 . S
C790 C789 1.388 . S
C790 C791 1.390 . S
C791 C790 1.390 . S
C791 C792 1.394 . S
C791 C797 1.465 . S
C792 C787 1.399 . S
C792 C791 1.394 . S
C792 C793 1.516 . S
C793 C792 1.516 . S
C793 C794 1.502 . S
C793 C795 1.561 . S
C793 C796 1.526 . S
C794 H778 0.959 . S
C794 H779 0.959 . S
C794 H780 0.961 . S
C794 C793 1.502 . S
C795 H781 0.960 . S
C795 H782 0.961 . S
C795 H783 0.959 . S
C795 C793 1.561 . S
C796 C793 1.526 . S
C796 C797 1.396 . S
C796 C801 1.390 . S
C797 C791 1.465 . S
C797 C796 1.396 . S
C797 C798 1.399 . S
C798 H784 0.929 . S
C798 C797 1.399 . S
C798 C799 1.385 . S
C799 H785 0.931 . S
C799 C798 1.385 . S
C799 C800 1.389 . S
C800 C799 1.389 . S
C800 C801 1.387 . S
C801 H786 0.930 . S
C801 C796 1.390 . S
C801 C800 1.387 . S
H802 C814 0.930 . S
H803 C816 0.930 . S
H804 C817 0.930 . S
H805 C821 0.959 . S
H806 C821 0.959 . S
H807 C821 0.961 . S
H808 C822 0.960 . S
H809 C822 0.961 . S
H810 C822 0.959 . S
H811 C825 0.929 . S
H812 C826 0.931 . S
H813 C828 0.930 . S
C814 H802 0.930 . S
C814 C815 1.399 . S
C814 C819 1.399 . S
C815 C814 1.399 . S
C815 C816 1.376 . S
C816 H803 0.930 . S
C816 C815 1.376 . S
C816 C817 1.388 . S
C817 H804 0.930 . S
C817 C816 1.388 . S
C817 C818 1.390 . S
C818 C817 1.390 . S
C818 C819 1.394 . S
C818 C824 1.465 . S
C819 C814 1.399 . S
C819 C818 1.394 . S
C819 C820 1.516 . S
C820 C819 1.516 . S
C820 C821 1.502 . S
C820 C822 1.561 . S
C820 C823 1.526 . S
C821 H805 0.959 . S
C821 H806 0.959 . S
C821 H807 0.961 . S
C821 C820 1.502 . S
C822 H808 0.960 . S
C822 H809 0.961 . S
C822 H810 0.959 . S
C822 C820 1.561 . S
C823 C820 1.526 . S
C823 C824 1.396 . S
C823 C828 1.390 . S
C824 C818 1.465 . S
C824 C823 1.396 . S
C824 C825 1.399 . S
C825 H811 0.929 . S
C825 C824 1.399 . S
C825 C826 1.385 . S
C826 H812 0.931 . S
C826 C825 1.385 . S
C826 C827 1.389 . S
C827 C826 1.389 . S
C827 C828 1.387 . S
C828 H813 0.930 . S
C828 C823 1.390 . S
C828 C827 1.387 . S
H829 C841 0.930 . S
H830 C843 0.930 1_565 S
H831 C844 0.930 . S
H832 C848 0.959 . S
H833 C848 0.959 . S
H834 C848 0.961 . S
H835 C849 0.960 . S
H836 C849 0.961 . S
H837 C849 0.959 . S
H838 C852 0.929 . S
H839 C853 0.931 . S
H840 C855 0.930 . S
C841 H829 0.930 . S
C841 C842 1.399 . S
C841 C846 1.399 . S
C842 C841 1.399 . S
C842 C843 1.376 . S
C843 H830 0.930 1_545 S
C843 C842 1.376 . S
C843 C844 1.388 . S
C844 H831 0.930 . S
C844 C843 1.388 . S
C844 C845 1.390 . S
C845 C844 1.390 . S
C845 C846 1.394 . S
C845 C851 1.465 . S
C846 C841 1.399 . S
C846 C845 1.394 . S
C846 C847 1.516 . S
C847 C846 1.516 . S
C847 C848 1.502 . S
C847 C849 1.561 . S
C847 C850 1.526 . S
C848 H832 0.959 . S
C848 H833 0.959 . S
C848 H834 0.961 . S
C848 C847 1.502 . S
C849 H835 0.960 . S
C849 H836 0.961 . S
C849 H837 0.959 . S
C849 C847 1.561 . S
C850 C847 1.526 . S
C850 C851 1.396 . S
C850 C855 1.390 . S
C851 C845 1.465 . S
C851 C850 1.396 . S
C851 C852 1.399 . S
C852 H838 0.929 . S
C852 C851 1.399 . S
C852 C853 1.385 . S
C853 H839 0.931 . S
C853 C852 1.385 . S
C853 C854 1.389 . S
C854 C853 1.389 . S
C854 C855 1.387 . S
C855 H840 0.930 . S
C855 C850 1.390 . S
C855 C854 1.387 . S
H856 C868 0.930 . S
H857 C870 0.930 . S
H858 C871 0.930 . S
H859 C875 0.959 . S
H860 C875 0.959 . S
H861 C875 0.961 . S
H862 C876 0.960 . S
H863 C876 0.961 . S
H864 C876 0.959 . S
H865 C879 0.929 . S
H866 C880 0.931 . S
H867 C882 0.930 . S
C868 H856 0.930 . S
C868 C869 1.399 . S
C868 C873 1.399 . S
C869 C868 1.399 . S
C869 C870 1.376 . S
C870 H857 0.930 . S
C870 C869 1.376 . S
C870 C871 1.388 . S
C871 H858 0.930 . S
C871 C870 1.388 . S
C871 C872 1.390 . S
C872 C871 1.390 . S
C872 C873 1.394 . S
C872 C878 1.465 . S
C873 C868 1.399 . S
C873 C872 1.394 . S
C873 C874 1.516 . S
C874 C873 1.516 . S
C874 C875 1.502 . S
C874 C876 1.561 . S
C874 C877 1.526 . S
C875 H859 0.959 . S
C875 H860 0.959 . S
C875 H861 0.961 . S
C875 C874 1.502 . S
C876 H862 0.960 . S
C876 H863 0.961 . S
C876 H864 0.959 . S
C876 C874 1.561 . S
C877 C874 1.526 . S
C877 C878 1.396 . S
C877 C882 1.390 . S
C878 C872 1.465 . S
C878 C877 1.396 . S
C878 C879 1.399 . S
C879 H865 0.929 . S
C879 C878 1.399 . S
C879 C880 1.385 1_565 S
C880 H866 0.931 . S
C880 C879 1.385 1_545 S
C880 C881 1.389 1_545 S
C881 C880 1.389 1_565 S
C881 C882 1.387 . S
C882 H867 0.930 . S
C882 C877 1.390 . S
C882 C881 1.387 . S
H883 C895 0.930 . S
H884 C897 0.930 . S
H885 C898 0.930 . S
H886 C902 0.959 . S
H887 C902 0.959 . S
H888 C902 0.961 . S
H889 C903 0.960 . S
H890 C903 0.961 . S
H891 C903 0.959 . S
H892 C906 0.929 . S
H893 C907 0.931 . S
H894 C909 0.930 . S
C895 H883 0.930 . S
C895 C896 1.399 . S
C895 C900 1.399 . S
C896 C895 1.399 . S
C896 C897 1.376 . S
C897 H884 0.930 . S
C897 C896 1.376 . S
C897 C898 1.388 . S
C898 H885 0.930 . S
C898 C897 1.388 . S
C898 C899 1.390 . S
C899 C898 1.390 . S
C899 C900 1.394 . S
C899 C905 1.465 . S
C900 C895 1.399 . S
C900 C899 1.394 . S
C900 C901 1.516 . S
C901 C900 1.516 . S
C901 C902 1.502 . S
C901 C903 1.561 . S
C901 C904 1.526 . S
C902 H886 0.959 . S
C902 H887 0.959 . S
C902 H888 0.961 . S
C902 C901 1.502 . S
C903 H889 0.960 . S
C903 H890 0.961 . S
C903 H891 0.959 . S
C903 C901 1.561 . S
C904 C901 1.526 . S
C904 C905 1.396 . S
C904 C909 1.390 . S
C905 C899 1.465 . S
C905 C904 1.396 . S
C905 C906 1.399 . S
C906 H892 0.929 . S
C906 C905 1.399 . S
C906 C907 1.385 . S
C907 H893 0.931 . S
C907 C906 1.385 . S
C907 C908 1.389 . S
C908 C907 1.389 . S
C908 C909 1.387 . S
C909 H894 0.930 . S
C909 C904 1.390 . S
C909 C908 1.387 . S
H910 C922 0.930 . S
H911 C924 0.930 . S
H912 C925 0.930 . S
H913 C929 0.959 . S
H914 C929 0.959 . S
H915 C929 0.961 . S
H916 C930 0.960 . S
H917 C930 0.961 . S
H918 C930 0.959 . S
H919 C933 0.929 . S
H920 C934 0.931 . S
H921 C936 0.930 . S
C922 H910 0.930 . S
C922 C923 1.399 . S
C922 C927 1.399 . S
C923 C922 1.399 . S
C923 C924 1.376 . S
C924 H911 0.930 . S
C924 C923 1.376 . S
C924 C925 1.388 . S
C925 H912 0.930 . S
C925 C924 1.388 . S
C925 C926 1.390 . S
C926 C925 1.390 . S
C926 C927 1.394 . S
C926 C932 1.465 . S
C927 C922 1.399 . S
C927 C926 1.394 . S
C927 C928 1.516 . S
C928 C927 1.516 . S
C928 C929 1.502 . S
C928 C930 1.561 . S
C928 C931 1.526 . S
C929 H913 0.959 . S
C929 H914 0.959 . S
C929 H915 0.961 . S
C929 C928 1.502 . S
C930 H916 0.960 . S
C930 H917 0.961 . S
C930 H918 0.959 . S
C930 C928 1.561 . S
C931 C928 1.526 . S
C931 C932 1.396 . S
C931 C936 1.390 . S
C932 C926 1.465 . S
C932 C931 1.396 . S
C932 C933 1.399 . S
C933 H919 0.929 . S
C933 C932 1.399 . S
C933 C934 1.385 . S
C934 H920 0.931 . S
C934 C933 1.385 . S
C934 C935 1.389 . S
C935 C934 1.389 . S
C935 C936 1.387 . S
C936 H921 0.930 . S
C936 C931 1.390 . S
C936 C935 1.387 . S
H937 C949 0.930 . S
H938 C951 0.930 . S
H939 C952 0.930 . S
H940 C956 0.959 . S
H941 C956 0.959 . S
H942 C956 0.961 . S
H943 C957 0.960 . S
H944 C957 0.961 . S
H945 C957 0.959 . S
H946 C960 0.929 . S
H947 C961 0.931 1_545 S
H948 C963 0.930 . S
C949 H937 0.930 . S
C949 C950 1.399 . S
C949 C954 1.399 . S
C950 C949 1.399 . S
C950 C951 1.376 . S
C951 H938 0.930 . S
C951 C950 1.376 . S
C951 C952 1.388 . S
C952 H939 0.930 . S
C952 C951 1.388 . S
C952 C953 1.390 . S
C953 C952 1.390 . S
C953 C954 1.394 . S
C953 C959 1.465 . S
C954 C949 1.399 . S
C954 C953 1.394 . S
C954 C955 1.516 . S
C955 C954 1.516 . S
C955 C956 1.502 . S
C955 C957 1.561 . S
C955 C958 1.526 . S
C956 H940 0.959 . S
C956 H941 0.959 . S
C956 H942 0.961 . S
C956 C955 1.502 . S
C957 H943 0.960 . S
C957 H944 0.961 . S
C957 H945 0.959 . S
C957 C955 1.561 . S
C958 C955 1.526 . S
C958 C959 1.396 . S
C958 C963 1.390 . S
C959 C953 1.465 . S
C959 C958 1.396 . S
C959 C960 1.399 . S
C960 H946 0.929 . S
C960 C959 1.399 . S
C960 C961 1.385 . S
C961 H947 0.931 1_565 S
C961 C960 1.385 . S
C961 C962 1.389 . S
C962 C961 1.389 . S
C962 C963 1.387 . S
C963 H948 0.930 . S
C963 C958 1.390 . S
C963 C962 1.387 . S
H964 C976 0.930 . S
H965 C978 0.930 . S
H966 C979 0.930 . S
H967 C983 0.959 . S
H968 C983 0.959 . S
H969 C983 0.961 . S
H970 C984 0.960 . S
H971 C984 0.961 . S
H972 C984 0.959 . S
H973 C987 0.929 . S
H974 C988 0.931 . S
H975 C990 0.930 . S
C976 H964 0.930 . S
C976 C977 1.399 . S
C976 C981 1.399 . S
C977 C976 1.399 . S
C977 C978 1.376 . S
C978 H965 0.930 . S
C978 C977 1.376 . S
C978 C979 1.388 . S
C979 H966 0.930 . S
C979 C978 1.388 . S
C979 C980 1.390 . S
C980 C979 1.390 . S
C980 C981 1.394 . S
C980 C986 1.465 . S
C981 C976 1.399 . S
C981 C980 1.394 . S
C981 C982 1.516 . S
C982 C981 1.516 . S
C982 C983 1.502 . S
C982 C984 1.561 . S
C982 C985 1.526 . S
C983 H967 0.959 . S
C983 H968 0.959 . S
C983 H969 0.961 . S
C983 C982 1.502 . S
C984 H970 0.960 . S
C984 H971 0.961 . S
C984 H972 0.959 . S
C984 C982 1.561 . S
C985 C982 1.526 . S
C985 C986 1.396 . S
C985 C990 1.390 . S
C986 C980 1.465 . S
C986 C985 1.396 . S
C986 C987 1.399 . S
C987 H973 0.929 . S
C987 C986 1.399 . S
C987 C988 1.385 1_545 S
C988 H974 0.931 . S
C988 C987 1.385 1_565 S
C988 C989 1.389 1_565 S
C989 C988 1.389 1_545 S
C989 C990 1.387 . S
C990 H975 0.930 . S
C990 C985 1.390 . S
C990 C989 1.387 . S
H991 C1003 0.930 . S
H992 C1005 0.930 . S
H993 C1006 0.930 . S
H994 C1010 0.959 . S
H995 C1010 0.959 . S
H996 C1010 0.961 . S
H997 C1011 0.960 . S
H998 C1011 0.961 . S
H999 C1011 0.959 . S
H1000 C1014 0.929 . S
H1001 C1015 0.931 . S
H1002 C1017 0.930 . S
C1003 H991 0.930 . S
C1003 C1004 1.399 . S
C1003 C1008 1.399 . S
C1004 C1003 1.399 . S
C1004 C1005 1.376 . S
C1005 H992 0.930 . S
C1005 C1004 1.376 . S
C1005 C1006 1.388 . S
C1006 H993 0.930 . S
C1006 C1005 1.388 . S
C1006 C1007 1.390 . S
C1007 C1006 1.390 . S
C1007 C1008 1.394 . S
C1007 C1013 1.465 . S
C1008 C1003 1.399 . S
C1008 C1007 1.394 . S
C1008 C1009 1.516 . S
C1009 C1008 1.516 . S
C1009 C1010 1.502 . S
C1009 C1011 1.561 . S
C1009 C1012 1.526 . S
C1010 H994 0.959 . S
C1010 H995 0.959 . S
C1010 H996 0.961 . S
C1010 C1009 1.502 . S
C1011 H997 0.960 . S
C1011 H998 0.961 . S
C1011 H999 0.959 . S
C1011 C1009 1.561 . S
C1012 C1009 1.526 . S
C1012 C1013 1.396 . S
C1012 C1017 1.390 . S
C1013 C1007 1.465 . S
C1013 C1012 1.396 . S
C1013 C1014 1.399 . S
C1014 H1000 0.929 . S
C1014 C1013 1.399 . S
C1014 C1015 1.385 . S
C1015 H1001 0.931 . S
C1015 C1014 1.385 . S
C1015 C1016 1.389 . S
C1016 C1015 1.389 . S
C1016 C1017 1.387 . S
C1017 H1002 0.930 . S
C1017 C1012 1.390 . S
C1017 C1016 1.387 . S
H1018 C1030 0.930 . S
H1019 C1032 0.930 . S
H1020 C1033 0.930 . S
H1021 C1037 0.959 . S
H1022 C1037 0.959 . S
H1023 C1037 0.961 . S
H1024 C1038 0.960 . S
H1025 C1038 0.961 . S
H1026 C1038 0.959 . S
H1027 C1041 0.929 . S
H1028 C1042 0.931 . S
H1029 C1044 0.930 . S
C1030 H1018 0.930 . S
C1030 C1031 1.399 . S
C1030 C1035 1.399 . S
C1031 C1030 1.399 . S
C1031 C1032 1.376 . S
C1032 H1019 0.930 . S
C1032 C1031 1.376 . S
C1032 C1033 1.388 . S
C1033 H1020 0.930 . S
C1033 C1032 1.388 . S
C1033 C1034 1.390 . S
C1034 C1033 1.390 . S
C1034 C1035 1.394 . S
C1034 C1040 1.465 . S
C1035 C1030 1.399 . S
C1035 C1034 1.394 . S
C1035 C1036 1.516 . S
C1036 C1035 1.516 . S
C1036 C1037 1.502 . S
C1036 C1038 1.561 . S
C1036 C1039 1.526 . S
C1037 H1021 0.959 . S
C1037 H1022 0.959 . S
C1037 H1023 0.961 . S
C1037 C1036 1.502 . S
C1038 H1024 0.960 . S
C1038 H1025 0.961 . S
C1038 H1026 0.959 . S
C1038 C1036 1.561 . S
C1039 C1036 1.526 . S
C1039 C1040 1.396 . S
C1039 C1044 1.390 . S
C1040 C1034 1.465 . S
C1040 C1039 1.396 . S
C1040 C1041 1.399 . S
C1041 H1027 0.929 . S
C1041 C1040 1.399 . S
C1041 C1042 1.385 . S
C1042 H1028 0.931 . S
C1042 C1041 1.385 . S
C1042 C1043 1.389 . S
C1043 C1042 1.389 . S
C1043 C1044 1.387 . S
C1044 H1029 0.930 . S
C1044 C1039 1.390 . S
C1044 C1043 1.387 . S
H1045 C1057 0.930 . S
H1046 C1059 0.930 . S
H1047 C1060 0.930 . S
H1048 C1064 0.959 . S
H1049 C1064 0.959 . S
H1050 C1064 0.961 . S
H1051 C1065 0.960 . S
H1052 C1065 0.961 . S
H1053 C1065 0.959 . S
H1054 C1068 0.929 . S
H1055 C1069 0.931 . S
H1056 C1071 0.930 1_565 S
C1057 H1045 0.930 . S
C1057 C1058 1.399 . S
C1057 C1062 1.399 . S
C1058 C1057 1.399 . S
C1058 C1059 1.376 . S
C1059 H1046 0.930 . S
C1059 C1058 1.376 . S
C1059 C1060 1.388 . S
C1060 H1047 0.930 . S
C1060 C1059 1.388 . S
C1060 C1061 1.390 . S
C1061 C1060 1.390 . S
C1061 C1062 1.394 . S
C1061 C1067 1.465 . S
C1062 C1057 1.399 . S
C1062 C1061 1.394 . S
C1062 C1063 1.516 . S
C1063 C1062 1.516 . S
C1063 C1064 1.502 . S
C1063 C1065 1.561 . S
C1063 C1066 1.526 . S
C1064 H1048 0.959 . S
C1064 H1049 0.959 . S
C1064 H1050 0.961 . S
C1064 C1063 1.502 . S
C1065 H1051 0.960 . S
C1065 H1052 0.961 . S
C1065 H1053 0.959 . S
C1065 C1063 1.561 . S
C1066 C1063 1.526 . S
C1066 C1067 1.396 . S
C1066 C1071 1.390 . S
C1067 C1061 1.465 . S
C1067 C1066 1.396 . S
C1067 C1068 1.399 . S
C1068 H1054 0.929 . S
C1068 C1067 1.399 . S
C1068 C1069 1.385 . S
C1069 H1055 0.931 . S
C1069 C1068 1.385 . S
C1069 C1070 1.389 . S
C1070 C1069 1.389 . S
C1070 C1071 1.387 . S
C1071 H1056 0.930 1_545 S
C1071 C1066 1.390 . S
C1071 C1070 1.387 . S
C221 C185 1.500 . S
C233 C3 1.502 . S
C248 C30 1.504 . S
C260 C4 1.497 . S
C275 C153 1.498 . S
C287 C17 1.502 . S
C302 C16 1.500 . S
C314 C96 1.501 . S
C329 C29 1.502 . S
C341 C159 1.500 . S
C356 C127 1.497 . S
C368 C49 1.504 . S
C383 C44 1.500 . S
C395 C68 1.501 . S
C410 C135 1.500 . S
C422 C55 1.502 . S
C437 C56 1.502 . S
C449 C82 1.498 . S
C464 C205 1.500 . S
C476 C69 1.500 . S
C491 C107 1.501 . S
C503 C81 1.500 . S
C518 C179 1.498 . S
C530 C101 1.502 . S
C545 C108 1.499 . S
C557 C140 1.501 . S
C572 C200 1.502 . S
C584 C122 1.500 . S
C599 C148 1.502 . S
C611 C174 1.500 . S
C626 C186 1.502 . S
C638 C160 1.500 . S
C653 C70 1.568 . S
C665 C10 1.572 1_565 S
C680 C5 1.570 . S
C692 C75 1.563 . S
C707 C18 1.566 . S
C719 C62 1.571 . S
C734 C57 1.568 . S
C746 C23 1.572 1_565 S
C761 C94 1.569 . S
C773 C36 1.565 1_545 S
C788 C95 1.565 . S
C800 C31 1.569 . S
C815 C88 1.569 . S
C827 C42 1.568 . S
C842 C43 1.569 1_545 S
C854 C83 1.568 . S
C869 C172 1.567 . S
C881 C114 1.572 1_565 S
C896 C109 1.568 . S
C908 C173 1.570 . S
C923 C120 1.567 . S
C935 C166 1.572 . S
C950 C161 1.566 . S
C962 C121 1.571 1_565 S
C977 C198 1.566 . S
C989 C134 1.572 1_545 S
C1004 C199 1.564 . S
C1016 C133 1.570 . S
C1031 C146 1.570 . S
C1043 C192 1.564 . S
C1058 C187 1.570 . S
C1070 C147 1.563 1_545 S
