# Generated by pormake.
# Topology msp, (4)-cn, num edge types: 1
# Building blocks:
#     Node 0, Type 0, BuildingBlock: ESEHIV_clean_sbu_0, # of connection points: 4
#     Node 1, Type 0, BuildingBlock: ESEHIV_clean_sbu_0, # of connection points: 4
#     Node 2, Type 0, BuildingBlock: ESEHIV_clean_sbu_0, # of connection points: 4
#     Node 3, Type 0, BuildingBlock: ESEHIV_clean_sbu_0, # of connection points: 4
#     Node 4, Type 0, BuildingBlock: ESEHIV_clean_sbu_0, # of connection points: 4
#     Node 5, Type 0, BuildingBlock: ESEHIV_clean_sbu_0, # of connection points: 4
#     Node 6, Type 0, BuildingBlock: ESEHIV_clean_sbu_0, # of connection points: 4
#     Node 7, Type 0, BuildingBlock: ESEHIV_clean_sbu_0, # of connection points: 4
#     Edge 8, Type (0, 0), BuildingBlock: FUNLAD_clean_linker_0, # of connection points: 2
#     Edge 9, Type (0, 0), BuildingBlock: FUNLAD_clean_linker_0, # of connection points: 2
#     Edge 10, Type (0, 0), BuildingBlock: FUNLAD_clean_linker_0, # of connection points: 2
#     Edge 11, Type (0, 0), BuildingBlock: FUNLAD_clean_linker_0, # of connection points: 2
#     Edge 12, Type (0, 0), BuildingBlock: FUNLAD_clean_linker_0, # of connection points: 2
#     Edge 13, Type (0, 0), BuildingBlock: FUNLAD_clean_linker_0, # of connection points: 2
#     Edge 14, Type (0, 0), BuildingBlock: FUNLAD_clean_linker_0, # of connection points: 2
#     Edge 15, Type (0, 0), BuildingBlock: FUNLAD_clean_linker_0, # of connection points: 2
#     Edge 16, Type (0, 0), BuildingBlock: FUNLAD_clean_linker_0, # of connection points: 2
#     Edge 17, Type (0, 0), BuildingBlock: FUNLAD_clean_linker_0, # of connection points: 2
#     Edge 18, Type (0, 0), BuildingBlock: FUNLAD_clean_linker_0, # of connection points: 2
#     Edge 19, Type (0, 0), BuildingBlock: FUNLAD_clean_linker_0, # of connection points: 2
#     Edge 20, Type (0, 0), BuildingBlock: FUNLAD_clean_linker_0, # of connection points: 2
#     Edge 21, Type (0, 0), BuildingBlock: FUNLAD_clean_linker_0, # of connection points: 2
#     Edge 22, Type (0, 0), BuildingBlock: FUNLAD_clean_linker_0, # of connection points: 2
#     Edge 23, Type (0, 0), BuildingBlock: FUNLAD_clean_linker_0, # of connection points: 2
# Relax obj value: 0.063
# Max RMSD: 0.173
# Mean RMSD: 0.157
data_MOF--net-msp--node1-ESEHIV_clean_sbu_0--edge1-FUNLAD_clean_linker_0
_symmetry_space_group_name_H-M    P1
_symmetry_Int_Tables_number       1
_symmetry_cell_setting            triclinic
loop_
_symmetry_equiv_pos_as_xyz
'x, y, z'
_cell_length_a     26.078349
_cell_length_b     25.467436
_cell_length_c     56.959625
_cell_angle_alpha  90.231936
_cell_angle_beta   98.937194
_cell_angle_gamma 89.964213
loop_
_atom_site_label
_atom_site_type_symbol
_atom_site_fract_x
_atom_site_fract_y
_atom_site_fract_z
_atom_type_partial_charge
Cu0 Cu 0.0349 0.32529 0.36552 0.0
N1 N 0.07034 0.27728 0.38675 0.0
N2 N 0.12093 0.245 0.41872 0.0
C3 C 0.09642 0.28789 0.40854 0.0
C4 C 0.10951 0.20595 0.40263 0.0
C5 C 0.07845 0.22605 0.38292 0.0
O6 O 0.02614 0.3895 0.38318 0.0
C7 C 0.12423 0.33862 0.34387 0.0
O8 O 0.1476 0.34272 0.36596 0.0
H9 H 0.09772 0.32652 0.41657 0.0
H10 H 0.06374 0.20516 0.3667 0.0
N11 N 0.97023 0.29726 0.3529 0.0
N12 N 0.89576 0.28089 0.32876 0.0
C13 C 0.93891 0.31112 0.33277 0.0
C14 C 0.94613 0.25717 0.36193 0.0
C15 C 0.90027 0.24701 0.34714 0.0
C16 C 0.99592 0.38719 0.39869 0.0
O17 O 0.97116 0.34308 0.40103 0.0
H18 H 0.94819 0.34191 0.32108 0.0
H19 H 0.96101 0.23666 0.37816 0.0
O20 O 0.075 0.3345 0.33981 0.0
H21 H 0.1239 0.1661 0.40457 0.0
H22 H 0.87225 0.21719 0.34985 0.0
Cu23 Cu 0.49699 0.2738 0.66427 0.0
N24 N 0.45364 0.22764 0.64504 0.0
N25 N 0.39836 0.19773 0.61397 0.0
C26 C 0.42907 0.23791 0.62299 0.0
C27 C 0.4039 0.16071 0.6311 0.0
C28 C 0.43813 0.17931 0.65026 0.0
O29 O 0.50896 0.3329 0.6441 0.0
C30 C 0.41471 0.30422 0.68851 0.0
O31 O 0.38798 0.30611 0.66699 0.0
H32 H 0.43248 0.27489 0.61407 0.0
H33 H 0.4504 0.15937 0.66692 0.0
N34 N 0.55905 0.23954 0.676 0.0
N35 N 0.63247 0.21648 0.69953 0.0
C36 C 0.59212 0.25053 0.69603 0.0
C37 C 0.57882 0.19709 0.66653 0.0
C38 C 0.62409 0.18292 0.68089 0.0
C39 C 0.53954 0.32669 0.62889 0.0
O40 O 0.56565 0.28259 0.6289 0.0
H41 H 0.58593 0.28221 0.70799 0.0
H42 H 0.5614 0.17777 0.65029 0.0
O43 O 0.46297 0.2937 0.69103 0.0
H44 H 0.38471 0.12292 0.6299 0.0
H45 H 0.64898 0.15056 0.67764 0.0
Cu46 Cu 0.93587 0.69648 0.63822 0.0
N47 N 0.89715 0.75213 0.6478 0.0
N48 N 0.84407 0.79437 0.66878 0.0
C49 C 0.86156 0.74731 0.66242 0.0
C50 C 0.86971 0.83029 0.65765 0.0
C51 C 0.90245 0.80411 0.64473 0.0
O52 O 1.00144 0.69311 0.65957 0.0
C53 C 0.866 0.60652 0.62837 0.0
O54 O 0.84891 0.56133 0.63506 0.0
H55 H 0.85077 0.70997 0.66924 0.0
H56 H 0.92965 0.82186 0.63462 0.0
N57 N 0.94732 0.7021 0.60665 0.0
N58 N 0.95959 0.67593 0.57031 0.0
C59 C 0.96214 0.66257 0.59344 0.0
C60 C 0.93611 0.74244 0.59156 0.0
C61 C 0.94358 0.72647 0.56918 0.0
C62 C 0.03388 0.73074 0.66259 0.0
O63 O 0.02434 0.77367 0.64996 0.0
H64 H 0.97215 0.62402 0.60062 0.0
H65 H 0.92049 0.77975 0.59611 0.0
O66 O 0.89907 0.63185 0.64295 0.0
H67 H 0.86593 0.87245 0.65912 0.0
H68 H 0.9347 0.74944 0.55313 0.0
Cu69 Cu 0.57801 0.67094 0.39438 0.0
N70 N 0.61471 0.65444 0.36954 0.0
N71 N 0.66688 0.66222 0.34206 0.0
C72 C 0.65299 0.68248 0.36211 0.0
C73 C 0.63615 0.61989 0.33668 0.0
C74 C 0.60406 0.61521 0.35365 0.0
O75 O 0.51428 0.70614 0.38055 0.0
C76 C 0.66686 0.69499 0.42604 0.0
O77 O 0.68499 0.65649 0.41428 0.0
H78 H 0.66894 0.71813 0.37074 0.0
H79 H 0.57409 0.58605 0.35403 0.0
N80 N 0.55969 0.61014 0.40938 0.0
N81 N 0.5497 0.55512 0.43888 0.0
C82 C 0.57326 0.59895 0.43262 0.0
C83 C 0.52628 0.57213 0.40057 0.0
C84 C 0.52007 0.53806 0.41873 0.0
C85 C 0.51404 0.74191 0.36499 0.0
O86 O 0.55852 0.75976 0.36022 0.0
H87 H 0.59817 0.62378 0.44495 0.0
H88 H 0.50668 0.5702 0.38241 0.0
O89 O 0.62077 0.71118 0.41912 0.0
H90 H 0.63667 0.59428 0.3215 0.0
H91 H 0.49533 0.50372 0.41724 0.0
Cu92 Cu 0.53982 0.79623 0.86627 0.0
N93 N 0.58264 0.74892 0.88517 0.0
N94 N 0.63599 0.71689 0.91641 0.0
C95 C 0.60101 0.75445 0.90847 0.0
C96 C 0.63894 0.68599 0.89732 0.0
C97 C 0.60603 0.70588 0.8781 0.0
O98 O 0.52015 0.85145 0.88681 0.0
C99 C 0.62461 0.8268 0.84329 0.0
O100 O 0.65291 0.81747 0.86401 0.0
H101 H 0.58958 0.78605 0.91925 0.0
H102 H 0.60107 0.69133 0.86002 0.0
N103 N 0.47985 0.76195 0.852 0.0
N104 N 0.4092 0.742 0.82593 0.0
C105 C 0.45001 0.77493 0.83139 0.0
C106 C 0.45736 0.71947 0.85995 0.0
C107 C 0.4138 0.70701 0.84391 0.0
C108 C 0.55328 0.88173 0.89877 0.0
O109 O 0.60192 0.87942 0.89541 0.0
H110 H 0.4586 0.80753 0.82051 0.0
H111 H 0.47162 0.69913 0.87631 0.0
O112 O 0.57548 0.82213 0.84103 0.0
H113 H 0.66477 0.65283 0.89693 0.0
H114 H 0.3872 0.67514 0.84559 0.0
Cu115 Cu 1.00981 0.81886 0.16528 0.0
N116 N 0.97713 0.77206 0.14249 0.0
N117 N 0.92706 0.74336 0.10946 0.0
C118 C 0.9492 0.7855 0.12151 0.0
C119 C 0.94206 0.70174 0.12352 0.0
C120 C 0.97281 0.71961 0.14391 0.0
O121 O 1.01209 0.88595 0.14893 0.0
C122 C 0.97073 0.78532 0.20593 0.0
O123 O 1.00499 0.74777 0.20515 0.0
H124 H 0.94505 0.82564 0.11536 0.0
H125 H 0.98989 0.69621 0.15891 0.0
N126 N 0.07667 0.79454 0.17701 0.0
N127 N 0.15365 0.78228 0.19979 0.0
C128 C 0.10772 0.80798 0.19735 0.0
C129 C 0.10368 0.75909 0.16634 0.0
C130 C 0.15112 0.75155 0.18027 0.0
C131 C 0.05063 0.89882 0.13887 0.0
O132 O 0.09227 0.86909 0.14184 0.0
H133 H 0.09703 0.83637 0.20992 0.0
H134 H 0.08981 0.74018 0.14951 0.0
O135 O 0.96743 0.82195 0.19058 0.0
H136 H 0.93046 0.66141 0.11976 0.0
H137 H 0.18116 0.72493 0.17646 0.0
Cu138 Cu 0.44967 0.16028 0.13907 0.0
N139 N 0.40083 0.146 0.15907 0.0
N140 N 0.34652 0.156 0.18562 0.0
C141 C 0.38593 0.17723 0.17596 0.0
C142 C 0.33703 0.10918 0.17456 0.0
C143 C 0.37042 0.10323 0.15823 0.0
O144 O 0.51397 0.1854 0.15742 0.0
C145 C 0.38468 0.24015 0.11458 0.0
O146 O 0.37105 0.25148 0.13524 0.0
H147 H 0.40217 0.21573 0.18031 0.0
H148 H 0.37166 0.07049 0.14619 0.0
N149 N 0.46567 0.0986 0.12408 0.0
N150 N 0.48461 0.04506 0.09544 0.0
C151 C 0.46884 0.09355 0.10082 0.0
C152 C 0.47982 0.05179 0.13385 0.0
C153 C 0.49153 0.01862 0.11621 0.0
C154 C 0.5214 0.2289 0.16848 0.0
O155 O 0.48356 0.26336 0.16705 0.0
H156 H 0.46151 0.1255 0.08828 0.0
H157 H 0.48225 0.04279 0.15254 0.0
O158 O 0.41995 0.20619 0.1134 0.0
H159 H 0.3077 0.08124 0.17779 0.0
H160 H 0.50437 0.97829 0.11855 0.0
Cu161 Cu 0.07877 0.2363 0.89971 0.0
N162 N 0.14152 0.22622 0.88831 0.0
N163 N 0.20423 0.23098 0.86565 0.0
C164 C 0.1575 0.24939 0.86946 0.0
C165 C 0.21782 0.1948 0.88277 0.0
C166 C 0.17907 0.19182 0.8966 0.0
O167 O 0.02316 0.2274 0.87309 0.0
C168 C 0.08736 0.33463 0.92928 0.0
O169 O 0.07062 0.38306 0.9306 0.0
H170 H 0.13515 0.27896 0.85877 0.0
H171 H 0.178 0.16598 0.91154 0.0
N172 N 0.07018 0.18437 0.92202 0.0
N173 N 0.06047 0.13884 0.95458 0.0
C174 C 0.06847 0.18673 0.9456 0.0
C175 C 0.06293 0.13347 0.91606 0.0
C176 C 0.05692 0.10536 0.93599 0.0
C177 C 0.97691 0.23833 0.87594 0.0
O178 O 0.9682 0.25356 0.89704 0.0
H179 H 0.07183 0.22256 0.9559 0.0
H180 H 0.06217 0.11793 0.8983 0.0
O181 O 0.07136 0.30834 0.91049 0.0
H182 H 0.25261 0.171 0.8848 0.0
H183 H 0.05131 0.06334 0.93683 0.0
C184 C 0.95383 0.42887 0.43057 0.0
C185 C 0.99149 0.43113 0.41543 0.0
C186 C 0.95177 0.46728 0.44794 0.0
C187 C 0.98783 0.50877 0.45087 0.0
C188 C 0.02397 0.51247 0.43502 0.0
C189 C 0.02594 0.47394 0.4175 0.0
C190 C 0.98836 0.54843 0.47025 0.0
C191 C 0.97256 0.53689 0.49112 0.0
C192 C 0.97221 0.57431 0.51129 0.0
C193 C 0.96641 0.55377 0.53356 0.0
C194 C 0.96343 0.58681 0.55292 0.0
C195 C 0.96574 0.64169 0.55057 0.0
H196 H 0.97857 0.6469 0.49196 0.0
C197 C 0.97203 0.66238 0.52829 0.0
C198 C 0.9751 0.62918 0.50886 0.0
H199 H 0.97437 0.70431 0.52573 0.0
H200 H 0.92606 0.39696 0.42922 0.0
H201 H 0.92179 0.46417 0.45904 0.0
H202 H 0.0517 0.54444 0.43661 0.0
H203 H 0.05529 0.47695 0.40604 0.0
H204 H 1.00476 0.5867 0.46763 0.0
H205 H 0.96071 0.4969 0.49411 0.0
H206 H 0.96365 0.51174 0.53601 0.0
H207 H 0.95787 0.56895 0.56951 0.0
C208 C 0.51216 0.50503 0.46936 0.0
C209 C 0.55375 0.53304 0.46242 0.0
C210 C 0.51608 0.48401 0.49226 0.0
C211 C 0.56187 0.49037 0.50873 0.0
C212 C 0.60351 0.51795 0.5017 0.0
C213 C 0.5994 0.53942 0.47891 0.0
C214 C 0.56882 0.4658 0.53271 0.0
C215 C 0.52925 0.4551 0.54465 0.0
C216 C 0.5359 0.42632 0.56769 0.0
C217 C 0.49825 0.43182 0.58272 0.0
C218 C 0.50072 0.40154 0.60337 0.0
C219 C 0.54054 0.36444 0.6092 0.0
H220 H 0.60579 0.38382 0.5627 0.0
C221 C 0.57893 0.35992 0.5945 0.0
C222 C 0.5767 0.3904 0.57401 0.0
H223 H 0.61003 0.33156 0.59841 0.0
H224 H 0.47637 0.49966 0.45716 0.0
H225 H 0.48363 0.46178 0.49675 0.0
H226 H 0.63948 0.5229 0.51388 0.0
H227 H 0.63237 0.5602 0.47407 0.0
H228 H 0.60835 0.45737 0.54095 0.0
H229 H 0.49035 0.46819 0.53746 0.0
H230 H 0.46619 0.45888 0.57823 0.0
H231 H 0.47027 0.40565 0.61419 0.0
C232 C 0.46862 0.04884 0.05145 0.0
C233 C 0.49476 0.02674 0.07258 0.0
C234 C 0.47958 0.03224 0.02931 0.0
C235 C 0.51699 0.99301 0.02779 0.0
C236 C 0.54317 0.97113 0.0489 0.0
C237 C 0.53201 0.98751 0.07102 0.0
C238 C 0.53119 0.97513 1.00472 0.0
C239 C 0.49938 0.97867 0.98371 0.0
C240 C 0.5137 0.9578 0.96117 0.0
C241 C 0.47458 0.93837 0.94355 0.0
C242 C 0.48712 0.91525 0.92284 0.0
C243 C 0.5391 0.91189 0.91915 0.0
H244 H 0.59649 0.97284 0.96978 0.0
C245 C 0.57799 0.93393 0.93621 0.0
C246 C 0.56548 0.95659 0.95699 0.0
H247 H 0.6184 0.93232 0.93388 0.0
H248 H 0.43955 0.07896 0.052 0.0
H249 H 0.45941 0.05106 1.01353 0.0
H250 H 0.5725 0.94119 0.04831 0.0
H251 H 0.55344 0.97022 0.0869 0.0
H252 H 0.56837 0.95548 1.00537 0.0
H253 H 0.46019 0.99353 0.98317 0.0
H254 H 0.43431 0.93947 0.94616 0.0
H255 H 0.45618 0.89894 0.91 0.0
C256 C 0.08991 0.95819 0.1115 0.0
C257 C 0.04601 0.94159 0.12102 0.0
C258 C 0.08494 0.99259 0.09218 0.0
C259 C 0.03577 0.01122 0.08185 0.0
C260 C 0.99218 0.99622 0.09198 0.0
C261 C 0.99722 0.96213 0.11145 0.0
C262 C 0.02783 0.04093 0.05905 0.0
C263 C 0.06539 0.06853 0.05076 0.0
C264 C 0.05934 0.09015 0.02618 0.0
C265 C 0.09008 0.13289 0.02125 0.0
C266 C 0.0889 0.15052 0.99787 0.0
C267 C 0.05777 0.12493 0.97888 0.0
H268 H 1.00376 0.03185 1.01005 0.0
C269 C 0.02632 0.0829 0.98387 0.0
C270 C 0.027 0.06573 1.00718 0.0
H271 H 1.00173 0.06263 0.96962 0.0
H272 H 0.12808 0.94305 0.11841 0.0
H273 H 0.11942 0.00208 0.08468 0.0
H274 H 0.95378 0.00961 0.08433 0.0
H275 H 0.96254 0.94992 0.11822 0.0
H276 H 0.98946 0.03889 0.04846 0.0
H277 H 0.10227 0.0751 0.06214 0.0
H278 H 0.11578 0.1521 0.03548 0.0
H279 H 0.11392 0.18267 0.99454 0.0
C280 C 0.57767 0.28092 0.20028 0.0
C281 C 0.5712 0.23795 0.1845 0.0
C282 C 0.62304 0.28616 0.21693 0.0
C283 C 0.66307 0.24861 0.218 0.0
C284 C 0.65703 0.20669 0.20173 0.0
C285 C 0.61184 0.20144 0.18518 0.0
C286 C 0.70974 0.24884 0.2368 0.0
C287 C 0.72624 0.29038 0.25071 0.0
C288 C 0.77091 0.287 0.27045 0.0
C289 C 0.79992 0.33228 0.27773 0.0
C290 C 0.84131 0.3303 0.29662 0.0
C291 C 0.85404 0.28308 0.30889 0.0
H292 H 0.76127 0.20442 0.27832 0.0
C293 C 0.82468 0.23793 0.30169 0.0
C294 C 0.7836 0.23984 0.2828 0.0
H295 H 0.83352 0.20084 0.3106 0.0
H296 H 0.54702 0.30962 0.2003 0.0
H297 H 0.62547 0.31854 0.22938 0.0
H298 H 0.68701 0.17709 0.20211 0.0
H299 H 0.60838 0.16793 0.17327 0.0
H300 H 0.73188 0.21258 0.23907 0.0
H301 H 0.70766 0.32831 0.24734 0.0
H302 H 0.79061 0.36929 0.26875 0.0
H303 H 0.86265 0.36595 0.3019 0.0
C304 C 0.68835 0.26038 0.73321 0.0
C305 C 0.67507 0.21543 0.71913 0.0
C306 C 0.72968 0.25927 0.75211 0.0
C307 C 0.75874 0.21304 0.75742 0.0
C308 C 0.74594 0.16841 0.74321 0.0
C309 C 0.70448 0.16941 0.72443 0.0
C310 C 0.80348 0.21031 0.77712 0.0
C311 C 0.80748 0.24067 0.79676 0.0
C312 C 0.85144 0.2375 0.81681 0.0
C313 C 0.84347 0.25477 0.8394 0.0
C314 C 0.88393 0.25408 0.85861 0.0
C315 C 0.93371 0.23669 0.85565 0.0
H316 H 0.90941 0.2075 0.79658 0.0
C317 C 0.94189 0.21941 0.83305 0.0
C318 C 0.90123 0.21982 0.81381 0.0
H319 H 0.97986 0.20611 0.83012 0.0
H320 H 0.66747 0.29685 0.72944 0.0
H321 H 0.73934 0.29503 0.76214 0.0
H322 H 0.76776 0.13234 0.7468 0.0
H323 H 0.69532 0.13377 0.71427 0.0
H324 H 0.83243 0.18018 0.77589 0.0
H325 H 0.77597 0.26726 0.79894 0.0
H326 H 0.80569 0.2689 0.84222 0.0
H327 H 0.87623 0.26787 0.87573 0.0
C328 C 0.11349 0.7706 0.68653 0.0
C329 C 0.08021 0.72731 0.68128 0.0
C330 C 0.15552 0.76829 0.70508 0.0
C331 C 0.16548 0.72232 0.71875 0.0
C332 C 0.13242 0.67897 0.71325 0.0
C333 C 0.09042 0.68133 0.69477 0.0
C334 C 0.20817 0.71815 0.73943 0.0
C335 C 0.24826 0.75208 0.74412 0.0
C336 C 0.28963 0.74796 0.7653 0.0
C337 C 0.31802 0.79316 0.77329 0.0
C338 C 0.35708 0.79128 0.7931 0.0
C339 C 0.36908 0.74393 0.80536 0.0
H340 H 0.28274 0.66409 0.77133 0.0
C341 C 0.34122 0.69846 0.79715 0.0
C342 C 0.30215 0.70033 0.77733 0.0
H343 H 0.35015 0.66108 0.80579 0.0
H344 H 0.10654 0.80677 0.67661 0.0
H345 H 0.17892 0.80318 0.70885 0.0
H346 H 0.13883 0.64308 0.72344 0.0
H347 H 0.06559 0.64722 0.69126 0.0
H348 H 0.20573 0.68554 0.7514 0.0
H349 H 0.25081 0.78521 0.73249 0.0
H350 H 0.30954 0.83034 0.76433 0.0
H351 H 0.37729 0.8272 0.79898 0.0
C352 C 0.46522 0.7924 0.33091 0.0
C353 C 0.46474 0.75728 0.34986 0.0
C354 C 0.42011 0.8018 0.3147 0.0
C355 C 0.37339 0.77605 0.317 0.0
C356 C 0.37221 0.74338 0.33672 0.0
C357 C 0.4174 0.73386 0.35291 0.0
C358 C 0.32579 0.78124 0.29889 0.0
C359 C 0.32773 0.7904 0.27572 0.0
C360 C 0.28161 0.78988 0.25663 0.0
C361 C 0.2895 0.77973 0.23321 0.0
C362 C 0.24768 0.77765 0.21467 0.0
C363 C 0.19674 0.78632 0.21897 0.0
H364 H 0.22307 0.80888 0.27865 0.0
C365 C 0.18874 0.79793 0.2423 0.0
C366 C 0.23071 0.79959 0.26097 0.0
H367 H 0.14996 0.80475 0.24619 0.0
H368 H 0.50082 0.81165 0.32816 0.0
H369 H 0.42222 0.82886 0.30028 0.0
H370 H 0.33666 0.72358 0.33913 0.0
H371 H 0.41549 0.70683 0.36739 0.0
H372 H 0.28879 0.77242 0.30447 0.0
H373 H 0.36536 0.7943 0.26999 0.0
H374 H 0.32824 0.77266 0.22924 0.0
H375 H 0.25534 0.76954 0.19687 0.0
C376 C 0.33972 0.22092 0.21769 0.0
C377 C 0.31795 0.17994 0.20272 0.0
C378 C 0.31152 0.24469 0.23389 0.0
C379 C 0.26081 0.22773 0.23565 0.0
C380 C 0.23912 0.18704 0.22058 0.0
C381 C 0.26718 0.16346 0.20438 0.0
C382 C 0.22866 0.25106 0.25258 0.0
C383 C 0.24688 0.28318 0.27091 0.0
C384 C 0.21442 0.30203 0.28862 0.0
C385 C 0.23894 0.31552 0.31157 0.0
C386 C 0.20975 0.32949 0.32926 0.0
C387 C 0.15522 0.3307 0.32437 0.0
H388 H 0.13956 0.29816 0.26568 0.0
C389 C 0.13074 0.32006 0.30107 0.0
C390 C 0.15995 0.30607 0.28336 0.0
H391 H 0.08884 0.32123 0.29659 0.0
H392 H 0.37873 0.23459 0.21704 0.0
H393 H 0.32974 0.27649 0.2447 0.0
H394 H 0.20009 0.17327 0.2213 0.0
H395 H 0.24852 0.13283 0.19293 0.0
H396 H 0.18843 0.23852 0.25049 0.0
H397 H 0.2878 0.29301 0.27435 0.0
H398 H 0.28082 0.31357 0.31607 0.0
H399 H 0.22997 0.33779 0.34697 0.0
C400 C 0.41489 0.30019 0.73263 0.0
C401 C 0.38777 0.30829 0.70959 0.0
C402 C 0.38854 0.29913 0.75225 0.0
C403 C 0.33428 0.30592 0.74927 0.0
C404 C 0.30766 0.31631 0.72639 0.0
C405 C 0.33396 0.31724 0.70677 0.0
C406 C 0.30397 0.30217 0.76939 0.0
C407 C 0.32001 0.27462 0.78939 0.0
C408 C 0.28895 0.26706 0.80906 0.0
C409 C 0.31444 0.24825 0.83095 0.0
C410 C 0.2869 0.23747 0.84956 0.0
C411 C 0.23287 0.24489 0.84678 0.0
H412 H 0.21315 0.28831 0.78966 0.0
C413 C 0.20728 0.26441 0.82499 0.0
C414 C 0.23486 0.27521 0.80632 0.0
H415 H 0.16563 0.26984 0.82206 0.0
H416 H 0.45645 0.29368 0.7355 0.0
H417 H 0.41099 0.29303 0.76965 0.0
H418 H 0.26602 0.32235 0.72354 0.0
H419 H 0.31183 0.32392 0.68932 0.0
H420 H 0.26623 0.32102 0.76695 0.0
H421 H 0.35762 0.25547 0.79153 0.0
H422 H 0.35596 0.24147 0.83366 0.0
H423 H 0.3081 0.22323 0.86615 0.0
C424 C 0.62176 0.83505 0.79917 0.0
C425 C 0.65017 0.83707 0.82226 0.0
C426 C 0.64697 0.83951 0.77928 0.0
C427 C 0.70117 0.84621 0.7821 0.0
C428 C 0.72906 0.85078 0.80516 0.0
C429 C 0.70397 0.84588 0.82502 0.0
C430 C 0.7301 0.84779 0.76155 0.0
C431 C 0.71428 0.82212 0.74093 0.0
C432 C 0.74639 0.81778 0.72156 0.0
C433 C 0.74006 0.77362 0.70656 0.0
C434 C 0.77141 0.76645 0.68901 0.0
C435 C 0.80943 0.8037 0.6858 0.0
H436 H 0.78822 0.8914 0.72857 0.0
C437 C 0.81436 0.84905 0.70015 0.0
C438 C 0.78323 0.85604 0.71785 0.0
H439 H 0.84326 0.87848 0.69817 0.0
H440 H 0.58019 0.82868 0.79641 0.0
H441 H 0.62389 0.83749 0.76178 0.0
H442 H 0.77073 0.85655 0.80787 0.0
H443 H 0.72699 0.84806 0.84255 0.0
H444 H 0.76802 0.86642 0.76443 0.0
H445 H 0.67873 0.79924 0.73897 0.0
H446 H 0.71157 0.74383 0.7088 0.0
H447 H 0.76603 0.73157 0.67798 0.0
C448 C 0.94287 0.74658 0.24224 0.0
C449 C 0.93341 0.78157 0.22302 0.0
C450 C 0.9057 0.73867 0.25712 0.0
C451 C 0.85795 0.76544 0.25305 0.0
C452 C 0.84888 0.80114 0.23411 0.0
C453 C 0.8864 0.80957 0.21938 0.0
C454 C 0.81547 0.75355 0.26693 0.0
C455 C 0.82398 0.73637 0.28957 0.0
C456 C 0.78156 0.71982 0.30264 0.0
C457 C 0.78857 0.72459 0.32751 0.0
C458 C 0.75054 0.70668 0.34041 0.0
C459 C 0.7052 0.68245 0.32874 0.0
H460 H 0.72965 0.69053 0.27185 0.0
C461 C 0.69824 0.67748 0.30386 0.0
C462 C 0.73585 0.69612 0.29093 0.0
H463 H 0.66358 0.65924 0.29437 0.0
H464 H 0.97864 0.72427 0.2455 0.0
H465 H 0.91372 0.7099 0.27114 0.0
H466 H 0.81229 0.82198 0.23045 0.0
H467 H 0.87775 0.83653 0.20464 0.0
H468 H 0.77585 0.75967 0.25819 0.0
H469 H 0.86338 0.73519 0.29915 0.0
H470 H 0.82367 0.74211 0.33701 0.0
H471 H 0.75718 0.71055 0.35958 0.0
C472 C 0.37732 0.22598 0.5721 0.0
C473 C 0.36521 0.19612 0.59121 0.0
C474 C 0.34441 0.22606 0.55026 0.0
C475 C 0.29817 0.19659 0.54706 0.0
C476 C 0.28678 0.16568 0.56596 0.0
C477 C 0.31981 0.1655 0.5878 0.0
C478 C 0.26153 0.19625 0.52422 0.0
C479 C 0.25847 0.23563 0.50829 0.0
C480 C 0.22169 0.23653 0.48548 0.0
C481 C 0.21221 0.28462 0.47363 0.0
C482 C 0.17901 0.2875 0.45193 0.0
C483 C 0.15447 0.24217 0.4414 0.0
H484 H 0.20447 0.15285 0.48301 0.0
C485 C 0.16405 0.19392 0.4532 0.0
C486 C 0.19738 0.19101 0.47492 0.0
H487 H 0.1457 0.15824 0.44572 0.0
H488 H 0.41263 0.24896 0.57393 0.0
H489 H 0.35589 0.24874 0.53593 0.0
H490 H 0.25174 0.14217 0.56395 0.0
H491 H 0.30915 0.14227 0.60216 0.0
H492 H 0.23457 0.16362 0.52121 0.0
H493 H 0.28246 0.27025 0.51245 0.0
H494 H 0.23073 0.32027 0.48116 0.0
H495 H 0.17347 0.32521 0.44324 0.0
C496 C 0.83066 0.67506 0.59867 0.0
C497 C 0.84952 0.62408 0.60376 0.0
C498 C 0.81438 0.69049 0.57508 0.0
C499 C 0.81648 0.65487 0.55626 0.0
C500 C 0.8352 0.60389 0.56158 0.0
C501 C 0.85094 0.58847 0.58505 0.0
C502 C 0.79983 0.66854 0.53086 0.0
C503 C 0.76593 0.70713 0.52317 0.0
C504 C 0.74413 0.71322 0.49757 0.0
C505 C 0.69291 0.73119 0.49124 0.0
C506 C 0.66851 0.72922 0.46754 0.0
C507 C 0.69511 0.70933 0.44976 0.0
H508 H 0.8124 0.68625 0.48346 0.0
C509 C 0.74772 0.69579 0.45583 0.0
C510 C 0.77212 0.69807 0.47943 0.0
H511 H 0.76952 0.68118 0.44245 0.0
H512 H 0.82841 0.70285 0.61288 0.0
H513 H 0.80106 0.73038 0.57175 0.0
H514 H 0.83735 0.57561 0.54749 0.0
H515 H 0.86506 0.54881 0.58858 0.0
H516 H 0.81267 0.64218 0.5179 0.0
H517 H 0.7491 0.73074 0.53594 0.0
H518 H 0.67069 0.74385 0.50481 0.0
H519 H 0.62794 0.74001 0.46343 0.0
C520 C 0.88522 0.69748 0.0729 0.0
C521 C 0.89283 0.74332 0.0869 0.0
C522 C 0.85209 0.69764 0.05104 0.0
C523 C 0.82564 0.74376 0.04269 0.0
C524 C 0.83354 0.78951 0.05659 0.0
C525 C 0.86638 0.7893 0.07843 0.0
C526 C 0.79104 0.74675 0.01933 0.0
C527 C 0.76709 0.70501 1.00776 0.0
C528 C 0.73216 0.70902 0.98446 0.0
C529 C 0.72312 0.66406 0.97004 0.0
C530 C 0.69126 0.66638 0.94789 0.0
C531 C 0.6673 0.71377 0.93966 0.0
H532 H 0.71116 0.79133 0.98728 0.0
C533 C 0.67539 0.75847 0.95438 0.0
C534 C 0.70706 0.75611 0.97651 0.0
H535 H 0.65798 0.79579 0.94875 0.0
H536 H 0.90556 0.66159 0.07858 0.0
H537 H 0.84842 0.6619 0.0406 0.0
H538 H 0.81386 0.82566 0.05061 0.0
H539 H 0.87043 0.82522 0.08873 0.0
H540 H 0.78485 0.78559 1.01167 0.0
H541 H 0.77355 0.66608 1.01532 0.0
H542 H 0.74126 0.62704 0.97581 0.0
H543 H 0.68532 0.63095 0.93728 0.0
C544 C 0.36056 0.23891 0.0702 0.0
C545 C 0.35336 0.25967 0.09239 0.0
C546 C 0.32667 0.25207 0.04955 0.0
C547 C 0.28478 0.28637 0.05067 0.0
C548 C 0.27924 0.30907 0.07265 0.0
C549 C 0.31291 0.29568 0.09331 0.0
C550 C 0.24613 0.29976 0.0295 0.0
C551 C 0.23559 0.26921 1.00991 0.0
C552 C 0.1953 0.28315 0.98944 0.0
C553 C 0.20111 0.2665 0.96645 0.0
C554 C 0.16528 0.28182 0.94674 0.0
C555 C 0.12255 0.31312 0.94975 0.0
H556 H 0.14415 0.32465 1.00993 0.0
C557 C 0.11565 0.32805 0.97281 0.0
C558 C 0.15129 0.31288 0.99246 0.0
H559 H 0.08273 0.35191 0.97564 0.0
H560 H 0.39156 0.21128 0.06881 0.0
H561 H 0.33352 0.23517 0.03287 0.0
H562 H 0.24776 0.33617 0.074 0.0
H563 H 0.30637 0.31259 0.11007 0.0
H564 H 0.22442 0.33587 0.03054 0.0
H565 H 0.25742 0.23338 1.00845 0.0
H566 H 0.23443 0.24323 0.96363 0.0
H567 H 0.1723 0.27132 0.92918 0.0
loop_
_geom_bond_atom_site_label_1
_geom_bond_atom_site_label_2
_geom_bond_distance
_geom_bond_site_symmetry_2
_ccdc_geom_bond_type
Cu0 N1 1.999 . S
Cu0 O6 1.974 1_455 S
Cu0 N11 1.985 1_455 S
Cu0 O20 1.959 . S
N1 Cu0 1.999 . S
N1 C3 1.263 . S
N1 C5 1.389 . S
N2 C3 1.358 . S
N2 C4 1.400 . S
C3 N1 1.263 . S
C3 N2 1.358 . S
C3 H9 0.930 . S
C4 N2 1.400 . S
C4 C5 1.351 . S
C4 H21 0.930 . S
C5 N1 1.389 . S
C5 C4 1.351 . S
C5 H10 0.930 . S
O6 Cu0 1.974 1_655 S
O6 C16 1.282 . S
C7 O8 1.261 . S
C7 O20 1.251 . S
O8 C7 1.261 . S
H9 C3 0.930 . S
H10 C5 0.930 . S
N11 Cu0 1.985 1_655 S
N11 C13 1.335 . S
N11 C14 1.390 . S
N12 C13 1.345 . S
N12 C15 1.336 . S
C13 N11 1.335 . S
C13 N12 1.345 . S
C13 H18 0.930 . S
C14 N11 1.390 . S
C14 C15 1.346 . S
C14 H19 0.930 . S
C15 N12 1.336 . S
C15 C14 1.346 . S
C15 H22 0.929 . S
C16 O6 1.282 . S
C16 O17 1.216 1_655 S
O17 C16 1.216 1_455 S
H18 C13 0.930 . S
H19 C14 0.930 . S
O20 Cu0 1.959 . S
O20 C7 1.251 . S
H21 C4 0.930 . S
H22 C15 0.929 . S
Cu23 N24 1.999 . S
Cu23 O29 1.974 . S
Cu23 N34 1.985 . S
Cu23 O43 1.959 . S
N24 Cu23 1.999 . S
N24 C26 1.263 . S
N24 C28 1.389 . S
N25 C26 1.358 . S
N25 C27 1.400 . S
C26 N24 1.263 . S
C26 N25 1.358 . S
C26 H32 0.930 . S
C27 N25 1.400 . S
C27 C28 1.351 . S
C27 H44 0.930 . S
C28 N24 1.389 . S
C28 C27 1.351 . S
C28 H33 0.930 . S
O29 Cu23 1.974 . S
O29 C39 1.282 . S
C30 O31 1.261 . S
C30 O43 1.251 . S
O31 C30 1.261 . S
H32 C26 0.930 . S
H33 C28 0.930 . S
N34 Cu23 1.985 . S
N34 C36 1.335 . S
N34 C37 1.390 . S
N35 C36 1.345 . S
N35 C38 1.336 . S
C36 N34 1.335 . S
C36 N35 1.345 . S
C36 H41 0.930 . S
C37 N34 1.390 . S
C37 C38 1.346 . S
C37 H42 0.930 . S
C38 N35 1.336 . S
C38 C37 1.346 . S
C38 H45 0.929 . S
C39 O29 1.282 . S
C39 O40 1.216 . S
O40 C39 1.216 . S
H41 C36 0.930 . S
H42 C37 0.930 . S
O43 Cu23 1.959 . S
O43 C30 1.251 . S
H44 C27 0.930 . S
H45 C38 0.929 . S
Cu46 N47 1.999 . S
Cu46 O52 1.974 . S
Cu46 N57 1.985 . S
Cu46 O66 1.959 . S
N47 Cu46 1.999 . S
N47 C49 1.263 . S
N47 C51 1.389 . S
N48 C49 1.358 . S
N48 C50 1.400 . S
C49 N47 1.263 . S
C49 N48 1.358 . S
C49 H55 0.930 . S
C50 N48 1.400 . S
C50 C51 1.351 . S
C50 H67 0.930 . S
C51 N47 1.389 . S
C51 C50 1.351 . S
C51 H56 0.930 . S
O52 Cu46 1.974 . S
O52 C62 1.282 1_655 S
C53 O54 1.261 . S
C53 O66 1.251 . S
O54 C53 1.261 . S
H55 C49 0.930 . S
H56 C51 0.930 . S
N57 Cu46 1.985 . S
N57 C59 1.335 . S
N57 C60 1.390 1_655 S
N58 C59 1.345 . S
N58 C61 1.336 1_655 S
C59 N57 1.335 . S
C59 N58 1.345 . S
C59 H64 0.930 . S
C60 N57 1.390 1_455 S
C60 C61 1.346 . S
C60 H65 0.930 . S
C61 N58 1.336 1_455 S
C61 C60 1.346 . S
C61 H68 0.929 . S
C62 O52 1.282 1_455 S
C62 O63 1.216 . S
O63 C62 1.216 . S
H64 C59 0.930 . S
H65 C60 0.930 . S
O66 Cu46 1.959 . S
O66 C53 1.251 . S
H67 C50 0.930 . S
H68 C61 0.929 . S
Cu69 N70 1.999 . S
Cu69 O75 1.974 . S
Cu69 N80 1.985 . S
Cu69 O89 1.959 . S
N70 Cu69 1.999 . S
N70 C72 1.263 . S
N70 C74 1.389 . S
N71 C72 1.358 . S
N71 C73 1.400 . S
C72 N70 1.263 . S
C72 N71 1.358 . S
C72 H78 0.930 . S
C73 N71 1.400 . S
C73 C74 1.351 . S
C73 H90 0.930 . S
C74 N70 1.389 . S
C74 C73 1.351 . S
C74 H79 0.930 . S
O75 Cu69 1.974 . S
O75 C85 1.282 . S
C76 O77 1.261 . S
C76 O89 1.251 . S
O77 C76 1.261 . S
H78 C72 0.930 . S
H79 C74 0.930 . S
N80 Cu69 1.985 . S
N80 C82 1.335 . S
N80 C83 1.390 . S
N81 C82 1.345 . S
N81 C84 1.336 . S
C82 N80 1.335 . S
C82 N81 1.345 . S
C82 H87 0.930 . S
C83 N80 1.390 . S
C83 C84 1.346 . S
C83 H88 0.930 . S
C84 N81 1.336 . S
C84 C83 1.346 . S
C84 H91 0.929 . S
C85 O75 1.282 . S
C85 O86 1.216 . S
O86 C85 1.216 . S
H87 C82 0.930 . S
H88 C83 0.930 . S
O89 Cu69 1.959 . S
O89 C76 1.251 . S
H90 C73 0.930 . S
H91 C84 0.929 . S
Cu92 N93 1.999 . S
Cu92 O98 1.974 . S
Cu92 N103 1.985 . S
Cu92 O112 1.959 . S
N93 Cu92 1.999 . S
N93 C95 1.263 . S
N93 C97 1.389 . S
N94 C95 1.358 . S
N94 C96 1.400 . S
C95 N93 1.263 . S
C95 N94 1.358 . S
C95 H101 0.930 . S
C96 N94 1.400 . S
C96 C97 1.351 . S
C96 H113 0.930 . S
C97 N93 1.389 . S
C97 C96 1.351 . S
C97 H102 0.930 . S
O98 Cu92 1.974 . S
O98 C108 1.282 . S
C99 O100 1.261 . S
C99 O112 1.251 . S
O100 C99 1.261 . S
H101 C95 0.930 . S
H102 C97 0.930 . S
N103 Cu92 1.985 . S
N103 C105 1.335 . S
N103 C106 1.390 . S
N104 C105 1.345 . S
N104 C107 1.336 . S
C105 N103 1.335 . S
C105 N104 1.345 . S
C105 H110 0.930 . S
C106 N103 1.390 . S
C106 C107 1.346 . S
C106 H111 0.930 . S
C107 N104 1.336 . S
C107 C106 1.346 . S
C107 H114 0.929 . S
C108 O98 1.282 . S
C108 O109 1.216 . S
O109 C108 1.216 . S
H110 C105 0.930 . S
H111 C106 0.930 . S
O112 Cu92 1.959 . S
O112 C99 1.251 . S
H113 C96 0.930 . S
H114 C107 0.929 . S
Cu115 N116 1.999 . S
Cu115 O121 1.974 1_655 S
Cu115 N126 1.985 1_655 S
Cu115 O135 1.959 . S
N116 Cu115 1.999 . S
N116 C118 1.263 . S
N116 C120 1.389 . S
N117 C118 1.358 . S
N117 C119 1.400 . S
C118 N116 1.263 . S
C118 N117 1.358 . S
C118 H124 0.930 . S
C119 N117 1.400 . S
C119 C120 1.351 . S
C119 H136 0.930 . S
C120 N116 1.389 . S
C120 C119 1.351 . S
C120 H125 0.930 . S
O121 Cu115 1.974 1_455 S
O121 C131 1.282 . S
C122 O123 1.261 . S
C122 O135 1.251 . S
O123 C122 1.261 . S
H124 C118 0.930 . S
H125 C120 0.930 . S
N126 Cu115 1.985 1_455 S
N126 C128 1.335 . S
N126 C129 1.390 . S
N127 C128 1.345 . S
N127 C130 1.336 . S
C128 N126 1.335 . S
C128 N127 1.345 . S
C128 H133 0.930 . S
C129 N126 1.390 . S
C129 C130 1.346 . S
C129 H134 0.930 . S
C130 N127 1.336 . S
C130 C129 1.346 . S
C130 H137 0.929 . S
C131 O121 1.282 . S
C131 O132 1.216 1_455 S
O132 C131 1.216 1_655 S
H133 C128 0.930 . S
H134 C129 0.930 . S
O135 Cu115 1.959 . S
O135 C122 1.251 . S
H136 C119 0.930 . S
H137 C130 0.929 . S
Cu138 N139 1.999 . S
Cu138 O144 1.974 . S
Cu138 N149 1.985 . S
Cu138 O158 1.959 . S
N139 Cu138 1.999 . S
N139 C141 1.263 . S
N139 C143 1.389 . S
N140 C141 1.358 . S
N140 C142 1.400 . S
C141 N139 1.263 . S
C141 N140 1.358 . S
C141 H147 0.930 . S
C142 N140 1.400 . S
C142 C143 1.351 . S
C142 H159 0.930 . S
C143 N139 1.389 . S
C143 C142 1.351 . S
C143 H148 0.930 . S
O144 Cu138 1.974 . S
O144 C154 1.282 . S
C145 O146 1.261 . S
C145 O158 1.251 . S
O146 C145 1.261 . S
H147 C141 0.930 . S
H148 C143 0.930 . S
N149 Cu138 1.985 . S
N149 C151 1.335 . S
N149 C152 1.390 . S
N150 C151 1.345 . S
N150 C153 1.336 . S
C151 N149 1.335 . S
C151 N150 1.345 . S
C151 H156 0.930 . S
C152 N149 1.390 . S
C152 C153 1.346 . S
C152 H157 0.930 . S
C153 N150 1.336 . S
C153 C152 1.346 . S
C153 H160 0.929 . S
C154 O144 1.282 . S
C154 O155 1.216 . S
O155 C154 1.216 . S
H156 C151 0.930 . S
H157 C152 0.930 . S
O158 Cu138 1.959 . S
O158 C145 1.251 . S
H159 C142 0.930 . S
H160 C153 0.929 . S
Cu161 N162 1.999 . S
Cu161 O167 1.974 . S
Cu161 N172 1.985 . S
Cu161 O181 1.959 . S
N162 Cu161 1.999 . S
N162 C164 1.263 . S
N162 C166 1.389 . S
N163 C164 1.358 . S
N163 C165 1.400 . S
C164 N162 1.263 . S
C164 N163 1.358 . S
C164 H170 0.930 . S
C165 N163 1.400 . S
C165 C166 1.351 . S
C165 H182 0.930 . S
C166 N162 1.389 . S
C166 C165 1.351 . S
C166 H171 0.930 . S
O167 Cu161 1.974 . S
O167 C177 1.282 1_455 S
C168 O169 1.261 . S
C168 O181 1.251 . S
O169 C168 1.261 . S
H170 C164 0.930 . S
H171 C166 0.930 . S
N172 Cu161 1.985 . S
N172 C174 1.335 . S
N172 C175 1.390 1_455 S
N173 C174 1.345 . S
N173 C176 1.336 1_455 S
C174 N172 1.335 . S
C174 N173 1.345 . S
C174 H179 0.930 . S
C175 N172 1.390 1_655 S
C175 C176 1.346 . S
C175 H180 0.930 . S
C176 N173 1.336 1_655 S
C176 C175 1.346 . S
C176 H183 0.929 . S
C177 O167 1.282 1_655 S
C177 O178 1.216 . S
O178 C177 1.216 . S
H179 C174 0.930 . S
H180 C175 0.930 . S
O181 Cu161 1.959 . S
O181 C168 1.251 . S
H182 C165 0.930 . S
H183 C176 0.929 . S
C184 C185 1.386 . S
C184 C186 1.383 . S
C184 H200 0.951 . S
C185 C184 1.386 . S
C185 C189 1.383 1_655 S
C186 C184 1.383 . S
C186 C187 1.402 . S
C186 H201 0.951 . S
C187 C186 1.402 . S
C187 C188 1.375 1_655 S
C187 C190 1.481 . S
C188 C187 1.375 1_455 S
C188 C189 1.367 . S
C188 H202 0.951 . S
C189 C185 1.383 1_455 S
C189 C188 1.367 . S
C189 H203 0.950 . S
C190 C187 1.481 . S
C190 C191 1.297 . S
C190 H204 0.950 1_655 S
C191 C190 1.297 . S
C191 C192 1.479 . S
C191 H205 0.950 . S
C192 C191 1.479 . S
C192 C193 1.375 . S
C192 C198 1.404 1_655 S
C193 C192 1.375 . S
C193 C194 1.369 . S
C193 H206 0.950 . S
C194 C193 1.369 . S
C194 C195 1.392 . S
C194 H207 0.951 . S
C195 C194 1.392 . S
C195 C197 1.384 1_655 S
H196 C198 0.949 . S
C197 C195 1.384 1_455 S
C197 C198 1.385 . S
C197 H199 0.950 . S
C198 C192 1.404 1_455 S
C198 H196 0.949 . S
C198 C197 1.385 . S
H199 C197 0.950 . S
H200 C184 0.951 . S
H201 C186 0.951 . S
H202 C188 0.951 . S
H203 C189 0.950 . S
H204 C190 0.950 1_455 S
H205 C191 0.950 . S
H206 C193 0.950 . S
H207 C194 0.951 . S
C208 C209 1.386 . S
C208 C210 1.383 . S
C208 H224 0.951 . S
C209 C208 1.386 . S
C209 C213 1.383 . S
C210 C208 1.383 . S
C210 C211 1.402 . S
C210 H225 0.951 . S
C211 C210 1.402 . S
C211 C212 1.375 . S
C211 C214 1.481 . S
C212 C211 1.375 . S
C212 C213 1.367 . S
C212 H226 0.951 . S
C213 C209 1.383 . S
C213 C212 1.367 . S
C213 H227 0.950 . S
C214 C211 1.481 . S
C214 C215 1.297 . S
C214 H228 0.950 . S
C215 C214 1.297 . S
C215 C216 1.479 . S
C215 H229 0.950 . S
C216 C215 1.479 . S
C216 C217 1.375 . S
C216 C222 1.404 . S
C217 C216 1.375 . S
C217 C218 1.369 . S
C217 H230 0.950 . S
C218 C217 1.369 . S
C218 C219 1.392 . S
C218 H231 0.951 . S
C219 C218 1.392 . S
C219 C221 1.384 . S
H220 C222 0.949 . S
C221 C219 1.384 . S
C221 C222 1.385 . S
C221 H223 0.950 . S
C222 C216 1.404 . S
C222 H220 0.949 . S
C222 C221 1.385 . S
H223 C221 0.950 . S
H224 C208 0.951 . S
H225 C210 0.951 . S
H226 C212 0.951 . S
H227 C213 0.950 . S
H228 C214 0.950 . S
H229 C215 0.950 . S
H230 C217 0.950 . S
H231 C218 0.951 . S
C232 C233 1.386 . S
C232 C234 1.383 . S
C232 H248 0.951 . S
C233 C232 1.386 . S
C233 C237 1.383 . S
C234 C232 1.383 . S
C234 C235 1.402 1_554 S
C234 H249 0.951 . S
C235 C234 1.402 1_556 S
C235 C236 1.375 1_556 S
C235 C238 1.481 . S
C236 C235 1.375 1_554 S
C236 C237 1.367 . S
C236 H250 0.951 1_554 S
C237 C233 1.383 . S
C237 C236 1.367 . S
C237 H251 0.950 . S
C238 C235 1.481 . S
C238 C239 1.297 1_545 S
C238 H252 0.950 . S
C239 C238 1.297 1_565 S
C239 C240 1.479 . S
C239 H253 0.950 . S
C240 C239 1.479 . S
C240 C241 1.375 . S
C240 C246 1.404 . S
C241 C240 1.375 . S
C241 C242 1.369 . S
C241 H254 0.950 . S
C242 C241 1.369 . S
C242 C243 1.392 . S
C242 H255 0.951 . S
C243 C242 1.392 . S
C243 C245 1.384 . S
H244 C246 0.949 . S
C245 C243 1.384 . S
C245 C246 1.385 . S
C245 H247 0.950 . S
C246 C240 1.404 . S
C246 H244 0.949 . S
C246 C245 1.385 . S
H247 C245 0.950 . S
H248 C232 0.951 . S
H249 C234 0.951 . S
H250 C236 0.951 1_556 S
H251 C237 0.950 . S
H252 C238 0.950 . S
H253 C239 0.950 . S
H254 C241 0.950 . S
H255 C242 0.951 . S
C256 C257 1.386 . S
C256 C258 1.383 . S
C256 H272 0.951 . S
C257 C256 1.386 . S
C257 C261 1.383 1_455 S
C258 C256 1.383 . S
C258 C259 1.402 . S
C258 H273 0.951 . S
C259 C258 1.402 . S
C259 C260 1.375 1_455 S
C259 C262 1.481 . S
C260 C259 1.375 1_655 S
C260 C261 1.367 . S
C260 H274 0.951 . S
C261 C257 1.383 1_655 S
C261 C260 1.367 . S
C261 H275 0.950 . S
C262 C259 1.481 . S
C262 C263 1.297 . S
C262 H276 0.950 1_455 S
C263 C262 1.297 . S
C263 C264 1.479 1_564 S
C263 H277 0.950 1_565 S
C264 C263 1.479 1_546 S
C264 C265 1.375 . S
C264 C270 1.404 1_455 S
C265 C264 1.375 . S
C265 C266 1.369 . S
C265 H278 0.950 1_556 S
C266 C265 1.369 . S
C266 C267 1.392 . S
C266 H279 0.951 . S
C267 C266 1.392 . S
C267 C269 1.384 1_455 S
H268 C270 0.949 1_565 S
C269 C267 1.384 1_655 S
C269 C270 1.385 . S
C269 H271 0.950 . S
C270 C264 1.404 1_655 S
C270 H268 0.949 1_545 S
C270 C269 1.385 . S
H271 C269 0.950 . S
H272 C256 0.951 . S
H273 C258 0.951 . S
H274 C260 0.951 . S
H275 C261 0.950 . S
H276 C262 0.950 1_655 S
H277 C263 0.950 1_545 S
H278 C265 0.950 1_554 S
H279 C266 0.951 . S
C280 C281 1.386 . S
C280 C282 1.383 . S
C280 H296 0.951 . S
C281 C280 1.386 . S
C281 C285 1.383 . S
C282 C280 1.383 . S
C282 C283 1.402 . S
C282 H297 0.951 . S
C283 C282 1.402 . S
C283 C284 1.375 . S
C283 C286 1.481 . S
C284 C283 1.375 . S
C284 C285 1.367 . S
C284 H298 0.951 . S
C285 C281 1.383 . S
C285 C284 1.367 . S
C285 H299 0.950 . S
C286 C283 1.481 . S
C286 C287 1.297 . S
C286 H300 0.950 . S
C287 C286 1.297 . S
C287 C288 1.479 . S
C287 H301 0.950 . S
C288 C287 1.479 . S
C288 C289 1.375 . S
C288 C294 1.404 . S
C289 C288 1.375 . S
C289 C290 1.369 . S
C289 H302 0.950 . S
C290 C289 1.369 . S
C290 C291 1.392 . S
C290 H303 0.951 . S
C291 C290 1.392 . S
C291 C293 1.384 . S
H292 C294 0.949 . S
C293 C291 1.384 . S
C293 C294 1.385 . S
C293 H295 0.950 . S
C294 C288 1.404 . S
C294 H292 0.949 . S
C294 C293 1.385 . S
H295 C293 0.950 . S
H296 C280 0.951 . S
H297 C282 0.951 . S
H298 C284 0.951 . S
H299 C285 0.950 . S
H300 C286 0.950 . S
H301 C287 0.950 . S
H302 C289 0.950 . S
H303 C290 0.951 . S
C304 C305 1.386 . S
C304 C306 1.383 . S
C304 H320 0.951 . S
C305 C304 1.386 . S
C305 C309 1.383 . S
C306 C304 1.383 . S
C306 C307 1.402 . S
C306 H321 0.951 . S
C307 C306 1.402 . S
C307 C308 1.375 . S
C307 C310 1.481 . S
C308 C307 1.375 . S
C308 C309 1.367 . S
C308 H322 0.951 . S
C309 C305 1.383 . S
C309 C308 1.367 . S
C309 H323 0.950 . S
C310 C307 1.481 . S
C310 C311 1.297 . S
C310 H324 0.950 . S
C311 C310 1.297 . S
C311 C312 1.479 . S
C311 H325 0.950 . S
C312 C311 1.479 . S
C312 C313 1.375 . S
C312 C318 1.404 . S
C313 C312 1.375 . S
C313 C314 1.369 . S
C313 H326 0.950 . S
C314 C313 1.369 . S
C314 C315 1.392 . S
C314 H327 0.951 . S
C315 C314 1.392 . S
C315 C317 1.384 . S
H316 C318 0.949 . S
C317 C315 1.384 . S
C317 C318 1.385 . S
C317 H319 0.950 . S
C318 C312 1.404 . S
C318 H316 0.949 . S
C318 C317 1.385 . S
H319 C317 0.950 . S
H320 C304 0.951 . S
H321 C306 0.951 . S
H322 C308 0.951 . S
H323 C309 0.950 . S
H324 C310 0.950 . S
H325 C311 0.950 . S
H326 C313 0.950 . S
H327 C314 0.951 . S
C328 C329 1.386 . S
C328 C330 1.383 . S
C328 H344 0.951 . S
C329 C328 1.386 . S
C329 C333 1.383 . S
C330 C328 1.383 . S
C330 C331 1.402 . S
C330 H345 0.951 . S
C331 C330 1.402 . S
C331 C332 1.375 . S
C331 C334 1.481 . S
C332 C331 1.375 . S
C332 C333 1.367 . S
C332 H346 0.951 . S
C333 C329 1.383 . S
C333 C332 1.367 . S
C333 H347 0.950 . S
C334 C331 1.481 . S
C334 C335 1.297 . S
C334 H348 0.950 . S
C335 C334 1.297 . S
C335 C336 1.479 . S
C335 H349 0.950 . S
C336 C335 1.479 . S
C336 C337 1.375 . S
C336 C342 1.404 . S
C337 C336 1.375 . S
C337 C338 1.369 . S
C337 H350 0.950 . S
C338 C337 1.369 . S
C338 C339 1.392 . S
C338 H351 0.951 . S
C339 C338 1.392 . S
C339 C341 1.384 . S
H340 C342 0.949 . S
C341 C339 1.384 . S
C341 C342 1.385 . S
C341 H343 0.950 . S
C342 C336 1.404 . S
C342 H340 0.949 . S
C342 C341 1.385 . S
H343 C341 0.950 . S
H344 C328 0.951 . S
H345 C330 0.951 . S
H346 C332 0.951 . S
H347 C333 0.950 . S
H348 C334 0.950 . S
H349 C335 0.950 . S
H350 C337 0.950 . S
H351 C338 0.951 . S
C352 C353 1.386 . S
C352 C354 1.383 . S
C352 H368 0.951 . S
C353 C352 1.386 . S
C353 C357 1.383 . S
C354 C352 1.383 . S
C354 C355 1.402 . S
C354 H369 0.951 . S
C355 C354 1.402 . S
C355 C356 1.375 . S
C355 C358 1.481 . S
C356 C355 1.375 . S
C356 C357 1.367 . S
C356 H370 0.951 . S
C357 C353 1.383 . S
C357 C356 1.367 . S
C357 H371 0.950 . S
C358 C355 1.481 . S
C358 C359 1.297 . S
C358 H372 0.950 . S
C359 C358 1.297 . S
C359 C360 1.479 . S
C359 H373 0.950 . S
C360 C359 1.479 . S
C360 C361 1.375 . S
C360 C366 1.404 . S
C361 C360 1.375 . S
C361 C362 1.369 . S
C361 H374 0.950 . S
C362 C361 1.369 . S
C362 C363 1.392 . S
C362 H375 0.951 . S
C363 C362 1.392 . S
C363 C365 1.384 . S
H364 C366 0.949 . S
C365 C363 1.384 . S
C365 C366 1.385 . S
C365 H367 0.950 . S
C366 C360 1.404 . S
C366 H364 0.949 . S
C366 C365 1.385 . S
H367 C365 0.950 . S
H368 C352 0.951 . S
H369 C354 0.951 . S
H370 C356 0.951 . S
H371 C357 0.950 . S
H372 C358 0.950 . S
H373 C359 0.950 . S
H374 C361 0.950 . S
H375 C362 0.951 . S
C376 C377 1.386 . S
C376 C378 1.383 . S
C376 H392 0.951 . S
C377 C376 1.386 . S
C377 C381 1.383 . S
C378 C376 1.383 . S
C378 C379 1.402 . S
C378 H393 0.951 . S
C379 C378 1.402 . S
C379 C380 1.375 . S
C379 C382 1.481 . S
C380 C379 1.375 . S
C380 C381 1.367 . S
C380 H394 0.951 . S
C381 C377 1.383 . S
C381 C380 1.367 . S
C381 H395 0.950 . S
C382 C379 1.481 . S
C382 C383 1.297 . S
C382 H396 0.950 . S
C383 C382 1.297 . S
C383 C384 1.479 . S
C383 H397 0.950 . S
C384 C383 1.479 . S
C384 C385 1.375 . S
C384 C390 1.404 . S
C385 C384 1.375 . S
C385 C386 1.369 . S
C385 H398 0.950 . S
C386 C385 1.369 . S
C386 C387 1.392 . S
C386 H399 0.951 . S
C387 C386 1.392 . S
C387 C389 1.384 . S
H388 C390 0.949 . S
C389 C387 1.384 . S
C389 C390 1.385 . S
C389 H391 0.950 . S
C390 C384 1.404 . S
C390 H388 0.949 . S
C390 C389 1.385 . S
H391 C389 0.950 . S
H392 C376 0.951 . S
H393 C378 0.951 . S
H394 C380 0.951 . S
H395 C381 0.950 . S
H396 C382 0.950 . S
H397 C383 0.950 . S
H398 C385 0.950 . S
H399 C386 0.951 . S
C400 C401 1.386 . S
C400 C402 1.383 . S
C400 H416 0.951 . S
C401 C400 1.386 . S
C401 C405 1.383 . S
C402 C400 1.383 . S
C402 C403 1.402 . S
C402 H417 0.951 . S
C403 C402 1.402 . S
C403 C404 1.375 . S
C403 C406 1.481 . S
C404 C403 1.375 . S
C404 C405 1.367 . S
C404 H418 0.951 . S
C405 C401 1.383 . S
C405 C404 1.367 . S
C405 H419 0.950 . S
C406 C403 1.481 . S
C406 C407 1.297 . S
C406 H420 0.950 . S
C407 C406 1.297 . S
C407 C408 1.479 . S
C407 H421 0.950 . S
C408 C407 1.479 . S
C408 C409 1.375 . S
C408 C414 1.404 . S
C409 C408 1.375 . S
C409 C410 1.369 . S
C409 H422 0.950 . S
C410 C409 1.369 . S
C410 C411 1.392 . S
C410 H423 0.951 . S
C411 C410 1.392 . S
C411 C413 1.384 . S
H412 C414 0.949 . S
C413 C411 1.384 . S
C413 C414 1.385 . S
C413 H415 0.950 . S
C414 C408 1.404 . S
C414 H412 0.949 . S
C414 C413 1.385 . S
H415 C413 0.950 . S
H416 C400 0.951 . S
H417 C402 0.951 . S
H418 C404 0.951 . S
H419 C405 0.950 . S
H420 C406 0.950 . S
H421 C407 0.950 . S
H422 C409 0.950 . S
H423 C410 0.951 . S
C424 C425 1.386 . S
C424 C426 1.383 . S
C424 H440 0.951 . S
C425 C424 1.386 . S
C425 C429 1.383 . S
C426 C424 1.383 . S
C426 C427 1.402 . S
C426 H441 0.951 . S
C427 C426 1.402 . S
C427 C428 1.375 . S
C427 C430 1.481 . S
C428 C427 1.375 . S
C428 C429 1.367 . S
C428 H442 0.951 . S
C429 C425 1.383 . S
C429 C428 1.367 . S
C429 H443 0.950 . S
C430 C427 1.481 . S
C430 C431 1.297 . S
C430 H444 0.950 . S
C431 C430 1.297 . S
C431 C432 1.479 . S
C431 H445 0.950 . S
C432 C431 1.479 . S
C432 C433 1.375 . S
C432 C438 1.404 . S
C433 C432 1.375 . S
C433 C434 1.369 . S
C433 H446 0.950 . S
C434 C433 1.369 . S
C434 C435 1.392 . S
C434 H447 0.951 . S
C435 C434 1.392 . S
C435 C437 1.384 . S
H436 C438 0.949 . S
C437 C435 1.384 . S
C437 C438 1.385 . S
C437 H439 0.950 . S
C438 C432 1.404 . S
C438 H436 0.949 . S
C438 C437 1.385 . S
H439 C437 0.950 . S
H440 C424 0.951 . S
H441 C426 0.951 . S
H442 C428 0.951 . S
H443 C429 0.950 . S
H444 C430 0.950 . S
H445 C431 0.950 . S
H446 C433 0.950 . S
H447 C434 0.951 . S
C448 C449 1.386 . S
C448 C450 1.383 . S
C448 H464 0.951 . S
C449 C448 1.386 . S
C449 C453 1.383 . S
C450 C448 1.383 . S
C450 C451 1.402 . S
C450 H465 0.951 . S
C451 C450 1.402 . S
C451 C452 1.375 . S
C451 C454 1.481 . S
C452 C451 1.375 . S
C452 C453 1.367 . S
C452 H466 0.951 . S
C453 C449 1.383 . S
C453 C452 1.367 . S
C453 H467 0.950 . S
C454 C451 1.481 . S
C454 C455 1.297 . S
C454 H468 0.950 . S
C455 C454 1.297 . S
C455 C456 1.479 . S
C455 H469 0.950 . S
C456 C455 1.479 . S
C456 C457 1.375 . S
C456 C462 1.404 . S
C457 C456 1.375 . S
C457 C458 1.369 . S
C457 H470 0.950 . S
C458 C457 1.369 . S
C458 C459 1.392 . S
C458 H471 0.951 . S
C459 C458 1.392 . S
C459 C461 1.384 . S
H460 C462 0.949 . S
C461 C459 1.384 . S
C461 C462 1.385 . S
C461 H463 0.950 . S
C462 C456 1.404 . S
C462 H460 0.949 . S
C462 C461 1.385 . S
H463 C461 0.950 . S
H464 C448 0.951 . S
H465 C450 0.951 . S
H466 C452 0.951 . S
H467 C453 0.950 . S
H468 C454 0.950 . S
H469 C455 0.950 . S
H470 C457 0.950 . S
H471 C458 0.951 . S
C472 C473 1.386 . S
C472 C474 1.383 . S
C472 H488 0.951 . S
C473 C472 1.386 . S
C473 C477 1.383 . S
C474 C472 1.383 . S
C474 C475 1.402 . S
C474 H489 0.951 . S
C475 C474 1.402 . S
C475 C476 1.375 . S
C475 C478 1.481 . S
C476 C475 1.375 . S
C476 C477 1.367 . S
C476 H490 0.951 . S
C477 C473 1.383 . S
C477 C476 1.367 . S
C477 H491 0.950 . S
C478 C475 1.481 . S
C478 C479 1.297 . S
C478 H492 0.950 . S
C479 C478 1.297 . S
C479 C480 1.479 . S
C479 H493 0.950 . S
C480 C479 1.479 . S
C480 C481 1.375 . S
C480 C486 1.404 . S
C481 C480 1.375 . S
C481 C482 1.369 . S
C481 H494 0.950 . S
C482 C481 1.369 . S
C482 C483 1.392 . S
C482 H495 0.951 . S
C483 C482 1.392 . S
C483 C485 1.384 . S
H484 C486 0.949 . S
C485 C483 1.384 . S
C485 C486 1.385 . S
C485 H487 0.950 . S
C486 C480 1.404 . S
C486 H484 0.949 . S
C486 C485 1.385 . S
H487 C485 0.950 . S
H488 C472 0.951 . S
H489 C474 0.951 . S
H490 C476 0.951 . S
H491 C477 0.950 . S
H492 C478 0.950 . S
H493 C479 0.950 . S
H494 C481 0.950 . S
H495 C482 0.951 . S
C496 C497 1.386 . S
C496 C498 1.383 . S
C496 H512 0.951 . S
C497 C496 1.386 . S
C497 C501 1.383 . S
C498 C496 1.383 . S
C498 C499 1.402 . S
C498 H513 0.951 . S
C499 C498 1.402 . S
C499 C500 1.375 . S
C499 C502 1.481 . S
C500 C499 1.375 . S
C500 C501 1.367 . S
C500 H514 0.951 . S
C501 C497 1.383 . S
C501 C500 1.367 . S
C501 H515 0.950 . S
C502 C499 1.481 . S
C502 C503 1.297 . S
C502 H516 0.950 . S
C503 C502 1.297 . S
C503 C504 1.479 . S
C503 H517 0.950 . S
C504 C503 1.479 . S
C504 C505 1.375 . S
C504 C510 1.404 . S
C505 C504 1.375 . S
C505 C506 1.369 . S
C505 H518 0.950 . S
C506 C505 1.369 . S
C506 C507 1.392 . S
C506 H519 0.951 . S
C507 C506 1.392 . S
C507 C509 1.384 . S
H508 C510 0.949 . S
C509 C507 1.384 . S
C509 C510 1.385 . S
C509 H511 0.950 . S
C510 C504 1.404 . S
C510 H508 0.949 . S
C510 C509 1.385 . S
H511 C509 0.950 . S
H512 C496 0.951 . S
H513 C498 0.951 . S
H514 C500 0.951 . S
H515 C501 0.950 . S
H516 C502 0.950 . S
H517 C503 0.950 . S
H518 C505 0.950 . S
H519 C506 0.951 . S
C520 C521 1.386 . S
C520 C522 1.383 . S
C520 H536 0.951 . S
C521 C520 1.386 . S
C521 C525 1.383 . S
C522 C520 1.383 . S
C522 C523 1.402 . S
C522 H537 0.951 . S
C523 C522 1.402 . S
C523 C524 1.375 . S
C523 C526 1.481 . S
C524 C523 1.375 . S
C524 C525 1.367 . S
C524 H538 0.951 . S
C525 C521 1.383 . S
C525 C524 1.367 . S
C525 H539 0.950 . S
C526 C523 1.481 . S
C526 C527 1.297 1_554 S
C526 H540 0.950 . S
C527 C526 1.297 1_556 S
C527 C528 1.479 . S
C527 H541 0.951 . S
C528 C527 1.479 . S
C528 C529 1.375 . S
C528 C534 1.404 . S
C529 C528 1.375 . S
C529 C530 1.369 . S
C529 H542 0.950 . S
C530 C529 1.369 . S
C530 C531 1.392 . S
C530 H543 0.951 . S
C531 C530 1.392 . S
C531 C533 1.384 . S
H532 C534 0.949 . S
C533 C531 1.384 . S
C533 C534 1.385 . S
C533 H535 0.950 . S
C534 C528 1.404 . S
C534 H532 0.949 . S
C534 C533 1.385 . S
H535 C533 0.950 . S
H536 C520 0.951 . S
H537 C522 0.951 . S
H538 C524 0.951 . S
H539 C525 0.950 . S
H540 C526 0.950 . S
H541 C527 0.951 . S
H542 C529 0.950 . S
H543 C530 0.951 . S
C544 C545 1.386 . S
C544 C546 1.383 . S
C544 H560 0.951 . S
C545 C544 1.386 . S
C545 C549 1.383 . S
C546 C544 1.383 . S
C546 C547 1.402 . S
C546 H561 0.951 . S
C547 C546 1.402 . S
C547 C548 1.375 . S
C547 C550 1.481 . S
C548 C547 1.375 . S
C548 C549 1.367 . S
C548 H562 0.951 . S
C549 C545 1.383 . S
C549 C548 1.367 . S
C549 H563 0.950 . S
C550 C547 1.481 . S
C550 C551 1.297 1_554 S
C550 H564 0.950 . S
C551 C550 1.297 1_556 S
C551 C552 1.479 . S
C551 H565 0.950 . S
C552 C551 1.479 . S
C552 C553 1.375 . S
C552 C558 1.404 . S
C553 C552 1.375 . S
C553 C554 1.369 . S
C553 H566 0.950 . S
C554 C553 1.369 . S
C554 C555 1.392 . S
C554 H567 0.951 . S
C555 C554 1.392 . S
C555 C557 1.384 . S
H556 C558 0.949 . S
C557 C555 1.384 . S
C557 C558 1.385 . S
C557 H559 0.950 . S
C558 C552 1.404 . S
C558 H556 0.949 . S
C558 C557 1.385 . S
H559 C557 0.950 . S
H560 C544 0.951 . S
H561 C546 0.951 . S
H562 C548 0.951 . S
H563 C549 0.950 . S
H564 C550 0.950 . S
H565 C551 0.950 . S
H566 C553 0.950 . S
H567 C554 0.951 . S
C185 C16 1.685 . S
C195 N58 1.711 . S
C209 N81 1.739 . S
C219 C39 1.712 . S
C233 N150 1.753 . S
C243 C108 1.662 . S
C257 C131 1.690 . S
C267 N173 1.714 . S
C281 C154 1.924 . S
C291 N12 1.843 . S
C305 N35 1.887 . S
C315 C177 1.902 . S
C329 C62 1.923 . S
C339 N104 1.849 . S
C353 C85 1.913 . S
C363 N127 1.872 . S
C377 N140 1.915 . S
C387 C7 1.978 . S
C401 C30 2.001 . S
C411 N163 1.930 . S
C425 C99 2.001 . S
C435 N48 1.865 . S
C449 C122 2.007 . S
C459 N71 1.935 . S
C473 N25 0.627 . S
C483 N2 0.632 . S
C497 C53 0.389 . S
C507 C76 0.497 . S
C521 N117 0.705 . S
C531 N94 0.621 . S
C545 C145 0.457 . S
C555 C168 0.374 . S
