# Generated by pormake.
# Topology umg, (4)-cn, num edge types: 1
# Building blocks:
#     Node 0, Type 0, BuildingBlock: KOZSID_clean_sbu_0, # of connection points: 4
#     Node 1, Type 0, BuildingBlock: KOZSID_clean_sbu_0, # of connection points: 4
#     Node 2, Type 0, BuildingBlock: KOZSID_clean_sbu_0, # of connection points: 4
#     Node 3, Type 0, BuildingBlock: KOZSID_clean_sbu_0, # of connection points: 4
#     Node 4, Type 0, BuildingBlock: KOZSID_clean_sbu_0, # of connection points: 4
#     Node 5, Type 0, BuildingBlock: KOZSID_clean_sbu_0, # of connection points: 4
#     Node 6, Type 0, BuildingBlock: KOZSID_clean_sbu_0, # of connection points: 4
#     Node 7, Type 0, BuildingBlock: KOZSID_clean_sbu_0, # of connection points: 4
#     Node 8, Type 0, BuildingBlock: KOZSID_clean_sbu_0, # of connection points: 4
#     Node 9, Type 0, BuildingBlock: KOZSID_clean_sbu_0, # of connection points: 4
#     Node 10, Type 0, BuildingBlock: KOZSID_clean_sbu_0, # of connection points: 4
#     Node 11, Type 0, BuildingBlock: KOZSID_clean_sbu_0, # of connection points: 4
#     Edge 12, Type (0, 0), BuildingBlock: XUDNAN_clean_linker_2, # of connection points: 2
#     Edge 13, Type (0, 0), BuildingBlock: XUDNAN_clean_linker_2, # of connection points: 2
#     Edge 14, Type (0, 0), BuildingBlock: XUDNAN_clean_linker_2, # of connection points: 2
#     Edge 15, Type (0, 0), BuildingBlock: XUDNAN_clean_linker_2, # of connection points: 2
#     Edge 16, Type (0, 0), BuildingBlock: XUDNAN_clean_linker_2, # of connection points: 2
#     Edge 17, Type (0, 0), BuildingBlock: XUDNAN_clean_linker_2, # of connection points: 2
#     Edge 18, Type (0, 0), BuildingBlock: XUDNAN_clean_linker_2, # of connection points: 2
#     Edge 19, Type (0, 0), BuildingBlock: XUDNAN_clean_linker_2, # of connection points: 2
#     Edge 20, Type (0, 0), BuildingBlock: XUDNAN_clean_linker_2, # of connection points: 2
#     Edge 21, Type (0, 0), BuildingBlock: XUDNAN_clean_linker_2, # of connection points: 2
#     Edge 22, Type (0, 0), BuildingBlock: XUDNAN_clean_linker_2, # of connection points: 2
#     Edge 23, Type (0, 0), BuildingBlock: XUDNAN_clean_linker_2, # of connection points: 2
#     Edge 24, Type (0, 0), BuildingBlock: XUDNAN_clean_linker_2, # of connection points: 2
#     Edge 25, Type (0, 0), BuildingBlock: XUDNAN_clean_linker_2, # of connection points: 2
#     Edge 26, Type (0, 0), BuildingBlock: XUDNAN_clean_linker_2, # of connection points: 2
#     Edge 27, Type (0, 0), BuildingBlock: XUDNAN_clean_linker_2, # of connection points: 2
#     Edge 28, Type (0, 0), BuildingBlock: XUDNAN_clean_linker_2, # of connection points: 2
#     Edge 29, Type (0, 0), BuildingBlock: XUDNAN_clean_linker_2, # of connection points: 2
#     Edge 30, Type (0, 0), BuildingBlock: XUDNAN_clean_linker_2, # of connection points: 2
#     Edge 31, Type (0, 0), BuildingBlock: XUDNAN_clean_linker_2, # of connection points: 2
#     Edge 32, Type (0, 0), BuildingBlock: XUDNAN_clean_linker_2, # of connection points: 2
#     Edge 33, Type (0, 0), BuildingBlock: XUDNAN_clean_linker_2, # of connection points: 2
#     Edge 34, Type (0, 0), BuildingBlock: XUDNAN_clean_linker_2, # of connection points: 2
#     Edge 35, Type (0, 0), BuildingBlock: XUDNAN_clean_linker_2, # of connection points: 2
# Relax obj value: 0.044
# Max RMSD: 0.153
# Mean RMSD: 0.153
data_MOF--net-umg--node1-KOZSID_clean_sbu_0--edge1-XUDNAN_clean_linker_2
_symmetry_space_group_name_H-M    P1
_symmetry_Int_Tables_number       1
_symmetry_cell_setting            triclinic
loop_
_symmetry_equiv_pos_as_xyz
'x, y, z'
_cell_length_a     39.052227
_cell_length_b     38.972755
_cell_length_c     93.594555
_cell_angle_alpha  89.951546
_cell_angle_beta   89.906392
_cell_angle_gamma 120.19939
loop_
_atom_site_label
_atom_site_type_symbol
_atom_site_fract_x
_atom_site_fract_y
_atom_site_fract_z
_atom_type_partial_charge
C0 C 0.27927 0.54139 0.12335 0.0
C1 C 0.26947 0.51432 0.13442 0.0
C2 C 0.2616 0.47905 0.12832 0.0
C3 C 0.26707 0.48645 0.1139 0.0
N4 N 0.27774 0.5241 0.11054 0.0
Co5 Co 0.2887 0.54685 0.09089 0.0
N6 N 0.26184 0.49359 0.08173 0.0
C7 C 0.25343 0.4594 0.08825 0.0
C8 C 0.2366 0.42732 0.07923 0.0
C9 C 0.23475 0.44233 0.06617 0.0
C10 C 0.25051 0.48288 0.06795 0.0
N11 N 0.29926 0.5703 0.07133 0.0
C12 C 0.28321 0.55343 0.05856 0.0
C13 C 0.29787 0.58156 0.04767 0.0
C14 C 0.32507 0.61672 0.05373 0.0
C15 C 0.32513 0.60838 0.06795 0.0
N16 N 0.31626 0.60019 0.10002 0.0
C17 C 0.34095 0.63475 0.09341 0.0
C18 C 0.35346 0.66721 0.10207 0.0
C19 C 0.33575 0.65232 0.11497 0.0
C20 C 0.3138 0.61125 0.11356 0.0
N21 N 0.33933 0.54578 0.09032 0.0
C22 C 0.40351 0.53039 0.08969 0.0
C23 C 0.38173 0.52769 0.07737 0.0
C24 C 0.35008 0.535 0.07793 0.0
C25 C 0.39384 0.54385 0.10221 0.0
C26 C 0.36198 0.55159 0.10228 0.0
N27 N 0.23763 0.54638 0.09137 0.0
C28 C 0.19934 0.5793 0.08882 0.0
C29 C 0.16398 0.5442 0.09225 0.0
C30 C 0.16644 0.51024 0.09511 0.0
C31 C 0.20333 0.51207 0.09482 0.0
C32 C 0.23558 0.57963 0.08823 0.0
H33 H 0.20395 0.48556 0.09755 0.0
H34 H 0.26196 0.60693 0.08535 0.0
H35 H 0.33342 0.5303 0.06827 0.0
H36 H 0.35487 0.56093 0.11215 0.0
C37 C 0.25728 0.45805 0.10311 0.0
C38 C 0.29311 0.5839 0.12553 0.0
C39 C 0.25768 0.51057 0.05609 0.0
C40 C 0.34457 0.63651 0.07859 0.0
H41 H 0.26846 0.51963 0.14572 0.0
H42 H 0.25192 0.45109 0.13374 0.0
H43 H 0.22623 0.39658 0.08186 0.0
H44 H 0.22374 0.42549 0.05639 0.0
H45 H 0.29024 0.57721 0.03645 0.0
H46 H 0.34187 0.64521 0.04846 0.0
H47 H 0.37127 0.69819 0.09912 0.0
H48 H 0.33845 0.66995 0.12427 0.0
H49 H 0.38839 0.51902 0.06723 0.0
H50 H 0.40966 0.54694 0.11205 0.0
H51 H 0.19897 0.60638 0.08658 0.0
H52 H 0.14016 0.48266 0.09805 0.0
C53 C 0.74428 0.25786 0.45661 0.0
C54 C 0.76208 0.24918 0.46775 0.0
C55 C 0.79425 0.24866 0.46205 0.0
C56 C 0.7944 0.25713 0.44779 0.0
N57 N 0.7643 0.2628 0.44417 0.0
Co58 Co 0.75369 0.2756 0.42468 0.0
N59 N 0.78837 0.25818 0.41543 0.0
C60 C 0.81594 0.25311 0.42221 0.0
C61 C 0.83608 0.24162 0.4132 0.0
C62 C 0.82074 0.24 0.39988 0.0
C63 C 0.79217 0.25096 0.40147 0.0
N64 N 0.74228 0.28798 0.40522 0.0
C65 C 0.74952 0.27797 0.39212 0.0
C66 C 0.73791 0.29466 0.38137 0.0
C67 C 0.72328 0.3159 0.38796 0.0
C68 C 0.72678 0.31122 0.40229 0.0
N69 N 0.71981 0.29399 0.43394 0.0
C70 C 0.70711 0.31681 0.4278 0.0
C71 C 0.68281 0.32355 0.43649 0.0
C72 C 0.68011 0.30389 0.44893 0.0
C73 C 0.70349 0.2866 0.4472 0.0
N74 N 0.80057 0.32985 0.42623 0.0
C75 C 0.87551 0.39906 0.43014 0.0
C76 C 0.86382 0.38082 0.41672 0.0
C77 C 0.82653 0.34638 0.41501 0.0
C78 C 0.84755 0.38333 0.44128 0.0
C79 C 0.81029 0.34929 0.43907 0.0
N80 N 0.70784 0.22091 0.42336 0.0
C81 C 0.63751 0.17369 0.421 0.0
C82 C 0.64325 0.1417 0.42445 0.0
C83 C 0.68247 0.15068 0.42662 0.0
C84 C 0.71372 0.18988 0.42629 0.0
C85 C 0.67016 0.21293 0.4204 0.0
H86 H 0.74274 0.19487 0.42875 0.0
H87 H 0.66477 0.23683 0.41788 0.0
H88 H 0.81972 0.33214 0.40472 0.0
H89 H 0.79007 0.33765 0.44799 0.0
C90 C 0.81807 0.25401 0.43718 0.0
C91 C 0.71069 0.26467 0.45847 0.0
C92 C 0.77189 0.25748 0.38938 0.0
C93 C 0.71208 0.32463 0.41318 0.0
H94 H 0.753 0.24417 0.47885 0.0
H95 H 0.81433 0.24167 0.46757 0.0
H96 H 0.85852 0.23429 0.41601 0.0
H97 H 0.82999 0.23221 0.3901 0.0
H98 H 0.74078 0.29285 0.36994 0.0
H99 H 0.71117 0.33245 0.38289 0.0
H100 H 0.66711 0.339 0.43383 0.0
H101 H 0.66238 0.3022 0.45807 0.0
H102 H 0.88418 0.39171 0.40776 0.0
H103 H 0.85477 0.39671 0.45179 0.0
H104 H 0.60804 0.16879 0.41916 0.0
H105 H 0.68945 0.12759 0.42875 0.0
C106 C 0.49369 0.74439 0.79114 0.0
C107 C 0.52286 0.75802 0.80155 0.0
C108 C 0.55814 0.78161 0.79476 0.0
C109 C 0.54865 0.78135 0.78063 0.0
N110 N 0.50935 0.75953 0.77804 0.0
Co111 Co 0.48313 0.74983 0.75888 0.0
N112 N 0.53525 0.77731 0.74846 0.0
C113 C 0.57162 0.79563 0.7545 0.0
C114 C 0.60198 0.81138 0.74474 0.0
C115 C 0.58394 0.80234 0.73168 0.0
C116 C 0.54342 0.78139 0.73421 0.0
N117 N 0.45649 0.73986 0.73976 0.0
C118 C 0.4718 0.7475 0.72631 0.0
C119 C 0.44204 0.73391 0.71607 0.0
C120 C 0.40699 0.71787 0.72325 0.0
C121 C 0.41708 0.72208 0.73739 0.0
N122 N 0.43083 0.7214 0.76926 0.0
C123 C 0.39449 0.70545 0.76328 0.0
C124 C 0.36394 0.68434 0.77259 0.0
C125 C 0.38162 0.68619 0.7853 0.0
C126 C 0.42231 0.70903 0.78309 0.0
N127 N 0.4838 0.80208 0.7602 0.0
C128 C 0.48699 0.87737 0.75915 0.0
C129 C 0.45123 0.84117 0.75751 0.0
C130 C 0.45036 0.80455 0.75799 0.0
C131 C 0.52069 0.8745 0.76197 0.0
C132 C 0.51838 0.83728 0.76259 0.0
N133 N 0.48337 0.6987 0.75746 0.0
C134 C 0.45082 0.62825 0.75212 0.0
C135 C 0.48555 0.62686 0.75489 0.0
C136 C 0.51883 0.66241 0.75921 0.0
C137 C 0.51702 0.69733 0.76053 0.0
C138 C 0.45048 0.66409 0.75334 0.0
H139 H 0.54347 0.72308 0.76395 0.0
H140 H 0.42331 0.66329 0.75089 0.0
H141 H 0.42219 0.77865 0.75638 0.0
H142 H 0.54541 0.83817 0.76483 0.0
C143 C 0.57607 0.79692 0.76939 0.0
C144 C 0.45166 0.71646 0.79422 0.0
C145 C 0.51396 0.76654 0.7227 0.0
C146 C 0.39005 0.70681 0.74859 0.0
H147 H 0.51909 0.75085 0.81282 0.0
H148 H 0.58739 0.79585 0.79947 0.0
H149 H 0.63349 0.82734 0.74686 0.0
H150 H 0.59891 0.81029 0.72144 0.0
H151 H 0.44497 0.73463 0.70457 0.0
H152 H 0.37755 0.70372 0.71869 0.0
H153 H 0.33256 0.6677 0.77024 0.0
H154 H 0.36588 0.67087 0.79488 0.0
H155 H 0.4236 0.84068 0.75583 0.0
H156 H 0.54936 0.90091 0.76334 0.0
H157 H 0.42369 0.6018 0.74906 0.0
H158 H 0.54676 0.66386 0.76133 0.0
C159 C 0.76651 0.49154 0.1236 0.0
C160 C 0.77284 0.51734 0.1348 0.0
C161 C 0.77729 0.55156 0.12885 0.0
C162 C 0.77336 0.54483 0.11438 0.0
N163 N 0.76699 0.50864 0.11083 0.0
Co164 Co 0.75892 0.4871 0.09103 0.0
N165 N 0.78034 0.54049 0.08212 0.0
C166 C 0.78532 0.57317 0.0889 0.0
C167 C 0.80034 0.60592 0.08018 0.0
C168 C 0.80447 0.59294 0.06702 0.0
C169 C 0.79135 0.55271 0.06839 0.0
N170 N 0.75112 0.465 0.07132 0.0
C171 C 0.76464 0.48336 0.05849 0.0
C172 C 0.74991 0.45593 0.04739 0.0
C173 C 0.7265 0.41951 0.05343 0.0
C174 C 0.72793 0.4265 0.0678 0.0
N175 N 0.73686 0.43355 0.09986 0.0
C176 C 0.71562 0.39859 0.09307 0.0
C177 C 0.70606 0.36634 0.10157 0.0
C178 C 0.72199 0.38178 0.1146 0.0
C179 C 0.73998 0.42283 0.11339 0.0
N180 N 0.70511 0.48134 0.09066 0.0
C181 C 0.63349 0.48385 0.0906 0.0
C182 C 0.65675 0.49213 0.07825 0.0
C183 C 0.69222 0.49113 0.07853 0.0
C184 C 0.6465 0.47329 0.10295 0.0
C185 C 0.68191 0.47165 0.1027 0.0
N186 N 0.8131 0.49449 0.0915 0.0
C187 C 0.85982 0.47082 0.08923 0.0
C188 C 0.89168 0.50787 0.09356 0.0
C189 C 0.88281 0.53801 0.09631 0.0
C190 C 0.84395 0.53065 0.09548 0.0
C191 C 0.82096 0.46484 0.0882 0.0
H192 H 0.83906 0.55463 0.0982 0.0
H193 H 0.79725 0.43611 0.0849 0.0
H194 H 0.70956 0.49923 0.06888 0.0
H195 H 0.69074 0.4631 0.11237 0.0
C196 C 0.78065 0.57309 0.10376 0.0
C197 C 0.75667 0.45002 0.12561 0.0
C198 C 0.78661 0.52663 0.0562 0.0
C199 C 0.7115 0.39729 0.0783 0.0
H200 H 0.77372 0.51181 0.14609 0.0
H201 H 0.78364 0.57848 0.1344 0.0
H202 H 0.8083 0.63589 0.0831 0.0
H203 H 0.81537 0.61096 0.05747 0.0
H204 H 0.75433 0.46144 0.03603 0.0
H205 H 0.71063 0.39126 0.04798 0.0
H206 H 0.69096 0.33539 0.09849 0.0
H207 H 0.7204 0.36462 0.12393 0.0
H208 H 0.64784 0.50001 0.0684 0.0
H209 H 0.62913 0.46572 0.11268 0.0
H210 H 0.86453 0.4463 0.08693 0.0
H211 H 0.90578 0.56768 0.09916 0.0
C212 C 0.29716 0.77421 0.45749 0.0
C213 C 0.28725 0.79304 0.46792 0.0
C214 C 0.2576 0.79819 0.46233 0.0
C215 C 0.25128 0.78285 0.44875 0.0
N216 N 0.27515 0.76843 0.44547 0.0
Co217 Co 0.2801 0.74909 0.42632 0.0
N218 N 0.25293 0.77396 0.4165 0.0
C219 C 0.23037 0.78645 0.423 0.0
C220 C 0.21438 0.80157 0.41358 0.0
C221 C 0.2272 0.7978 0.40033 0.0
C222 C 0.25027 0.78034 0.40236 0.0
N223 N 0.28654 0.7303 0.40731 0.0
C224 C 0.28237 0.74131 0.39395 0.0
C225 C 0.28833 0.71898 0.3837 0.0
C226 C 0.29574 0.69283 0.3909 0.0
C227 C 0.29401 0.70052 0.40509 0.0
N228 N 0.30579 0.72294 0.43613 0.0
C229 C 0.30845 0.69212 0.43103 0.0
C230 C 0.3247 0.67775 0.44063 0.0
C231 C 0.33282 0.70109 0.45252 0.0
C232 C 0.32147 0.72881 0.44939 0.0
N233 N 0.22783 0.69993 0.42873 0.0
C234 C 0.15204 0.63053 0.43226 0.0
C235 C 0.16501 0.64938 0.41891 0.0
C236 C 0.20235 0.68387 0.41742 0.0
C237 C 0.17851 0.64795 0.4438 0.0
C238 C 0.21602 0.68191 0.44179 0.0
N239 N 0.33169 0.79856 0.42399 0.0
C240 C 0.40287 0.83305 0.42099 0.0
C241 C 0.40553 0.87002 0.42323 0.0
C242 C 0.37025 0.87029 0.42546 0.0
C243 C 0.334 0.83453 0.42597 0.0
C244 C 0.36572 0.79782 0.4212 0.0
H245 H 0.30797 0.8362 0.42839 0.0
H246 H 0.36462 0.76991 0.41944 0.0
H247 H 0.21042 0.69747 0.40701 0.0
H248 H 0.23539 0.69376 0.45091 0.0
C249 C 0.23017 0.7892 0.43795 0.0
C250 C 0.32565 0.75996 0.45929 0.0
C251 C 0.26677 0.76781 0.3906 0.0
C252 C 0.30218 0.68262 0.41652 0.0
H253 H 0.30032 0.80294 0.47833 0.0
H254 H 0.24415 0.81366 0.46727 0.0
H255 H 0.19658 0.81491 0.41607 0.0
H256 H 0.22012 0.80663 0.3903 0.0
H257 H 0.28592 0.72017 0.37222 0.0
H258 H 0.30169 0.67086 0.38632 0.0
H259 H 0.33144 0.65428 0.43899 0.0
H260 H 0.34596 0.69831 0.46231 0.0
H261 H 0.14679 0.63759 0.40948 0.0
H262 H 0.1705 0.63598 0.45449 0.0
H263 H 0.42937 0.83133 0.41918 0.0
H264 H 0.37074 0.89791 0.42745 0.0
C265 C 0.54696 0.28961 0.78994 0.0
C266 C 0.51975 0.2828 0.8007 0.0
C267 C 0.48426 0.27114 0.79413 0.0
C268 C 0.49161 0.27119 0.77979 0.0
N269 N 0.52937 0.28152 0.77683 0.0
Co270 Co 0.55196 0.28604 0.75721 0.0
N271 N 0.49853 0.25867 0.74805 0.0
C272 C 0.46439 0.25104 0.75439 0.0
C273 C 0.4321 0.23235 0.74558 0.0
C274 C 0.44676 0.22843 0.73278 0.0
C275 C 0.4874 0.24529 0.73446 0.0
N276 N 0.57494 0.29061 0.73767 0.0
C277 C 0.55741 0.27379 0.72503 0.0
C278 C 0.58529 0.28621 0.71406 0.0
C279 C 0.62115 0.31176 0.71995 0.0
C280 C 0.61339 0.31368 0.73409 0.0
N281 N 0.6056 0.31416 0.76625 0.0
C282 C 0.64027 0.33514 0.75922 0.0
C283 C 0.67254 0.35388 0.76798 0.0
C284 C 0.65754 0.34462 0.78149 0.0
C285 C 0.6167 0.32036 0.7802 0.0
N286 N 0.54852 0.23369 0.75974 0.0
C287 C 0.53585 0.15528 0.75926 0.0
C288 C 0.5725 0.18795 0.75519 0.0
C289 C 0.57819 0.22684 0.75546 0.0
C290 C 0.50681 0.16326 0.76433 0.0
C291 C 0.51378 0.20221 0.76462 0.0
N292 N 0.5536 0.3375 0.75456 0.0
C293 C 0.53552 0.37757 0.74019 0.0
C294 C 0.53895 0.40164 0.75191 0.0
C295 C 0.55328 0.39465 0.76472 0.0
C296 C 0.56088 0.36297 0.76576 0.0
C297 C 0.54252 0.34587 0.74175 0.0
H298 H 0.57103 0.35826 0.77586 0.0
H299 H 0.5372 0.32722 0.73262 0.0
H300 H 0.60606 0.25109 0.75172 0.0
H301 H 0.49005 0.20634 0.76828 0.0
C302 C 0.46326 0.25831 0.76895 0.0
C303 C 0.58971 0.30708 0.79253 0.0
C304 C 0.51443 0.2511 0.7225 0.0
C305 C 0.64186 0.33429 0.74443 0.0
H306 H 0.52513 0.28661 0.81208 0.0
H307 H 0.45632 0.26312 0.79924 0.0
H308 H 0.40146 0.22224 0.7482 0.0
H309 H 0.42962 0.21536 0.7232 0.0
H310 H 0.58044 0.27897 0.70284 0.0
H311 H 0.64953 0.32705 0.71455 0.0
H312 H 0.70333 0.37204 0.76491 0.0
H313 H 0.67483 0.35556 0.79116 0.0
H314 H 0.59589 0.18333 0.75116 0.0
H315 H 0.47816 0.1392 0.76771 0.0
H316 H 0.52644 0.38234 0.72981 0.0
H317 H 0.55708 0.41233 0.77413 0.0
C318 C 0.51479 0.78089 0.55006 0.0
C319 C 0.5471 0.80332 0.54118 0.0
C320 C 0.58002 0.80792 0.54812 0.0
C321 C 0.56661 0.78936 0.56106 0.0
N322 N 0.52727 0.77364 0.56273 0.0
Co323 Co 0.49753 0.7523 0.58093 0.0
N324 N 0.54662 0.77565 0.59263 0.0
C325 C 0.5834 0.78883 0.58751 0.0
C326 C 0.61177 0.80308 0.59799 0.0
C327 C 0.59153 0.79808 0.61052 0.0
C328 C 0.55171 0.7808 0.60699 0.0
N329 N 0.46712 0.73159 0.59902 0.0
C330 C 0.47858 0.74123 0.61284 0.0
C331 C 0.4475 0.71814 0.62211 0.0
C332 C 0.4159 0.6929 0.61383 0.0
C333 C 0.42925 0.70191 0.60002 0.0
N334 N 0.44844 0.72776 0.56924 0.0
C335 C 0.41351 0.6967 0.57337 0.0
C336 C 0.38571 0.68252 0.56273 0.0
C337 C 0.40427 0.7061 0.55113 0.0
C338 C 0.44238 0.73407 0.55544 0.0
N339 N 0.50063 0.7031 0.57888 0.0
C340 C 0.50685 0.63361 0.57579 0.0
C341 C 0.50984 0.6511 0.58923 0.0
C342 C 0.50701 0.68563 0.59051 0.0
C343 C 0.50095 0.6525 0.56395 0.0
C344 C 0.49751 0.6865 0.56572 0.0
N345 N 0.49536 0.80174 0.58291 0.0
C346 C 0.45841 0.83616 0.58454 0.0
C347 C 0.49334 0.87331 0.58334 0.0
C348 C 0.52925 0.87362 0.58235 0.0
C349 C 0.52959 0.83783 0.58201 0.0
C350 C 0.46009 0.80088 0.5845 0.0
H351 H 0.55778 0.83964 0.58062 0.0
H352 H 0.43278 0.77287 0.58543 0.0
H353 H 0.51003 0.69811 0.60102 0.0
H354 H 0.49256 0.69952 0.55634 0.0
C355 C 0.59071 0.79397 0.5728 0.0
C356 C 0.47255 0.7646 0.54594 0.0
C357 C 0.51958 0.76747 0.61761 0.0
C358 C 0.40636 0.68567 0.58775 0.0
H359 H 0.54758 0.81622 0.53092 0.0
H360 H 0.61047 0.8253 0.54456 0.0
H361 H 0.64353 0.81693 0.59665 0.0
H362 H 0.60461 0.8062 0.62104 0.0
H363 H 0.44796 0.71841 0.63367 0.0
H364 H 0.38665 0.67077 0.61747 0.0
H365 H 0.3553 0.65852 0.56339 0.0
H366 H 0.39114 0.70258 0.54068 0.0
H367 H 0.51388 0.63811 0.59884 0.0
H368 H 0.49941 0.64162 0.55321 0.0
H369 H 0.42988 0.83434 0.58542 0.0
H370 H 0.55695 0.90136 0.5812 0.0
C371 C 0.73426 0.48171 0.88565 0.0
C372 C 0.74131 0.50788 0.87447 0.0
C373 C 0.75413 0.54438 0.88046 0.0
C374 C 0.75451 0.53865 0.89492 0.0
N375 N 0.74332 0.50094 0.89846 0.0
Co376 Co 0.73952 0.48057 0.91841 0.0
N377 N 0.7694 0.5351 0.92666 0.0
C378 C 0.77784 0.56888 0.9198 0.0
C379 C 0.79824 0.60216 0.92808 0.0
C380 C 0.80253 0.58859 0.94107 0.0
C381 C 0.78421 0.54757 0.94003 0.0
N382 N 0.7353 0.45975 0.93828 0.0
C383 C 0.75361 0.47845 0.95059 0.0
C384 C 0.74064 0.45198 0.96203 0.0
C385 C 0.71321 0.41583 0.95679 0.0
C386 C 0.7108 0.42204 0.94253 0.0
N387 N 0.70917 0.42586 0.91027 0.0
C388 C 0.68728 0.39228 0.91784 0.0
C389 C 0.66719 0.35901 0.90959 0.0
C390 C 0.67655 0.3722 0.89586 0.0
C391 C 0.70221 0.41302 0.8965 0.0
N392 N 0.79061 0.48134 0.9157 0.0
C393 C 0.86598 0.48714 0.91294 0.0
C394 C 0.83425 0.4546 0.91987 0.0
C395 C 0.79682 0.45204 0.92099 0.0
C396 C 0.85884 0.51637 0.90742 0.0
C397 C 0.8216 0.51321 0.90904 0.0
N398 N 0.68925 0.48138 0.92113 0.0
C399 C 0.65044 0.50152 0.93534 0.0
C400 C 0.62466 0.49557 0.92389 0.0
C401 C 0.63078 0.47964 0.91129 0.0
C402 C 0.66269 0.47238 0.9102 0.0
C403 C 0.68232 0.49477 0.93371 0.0
H404 H 0.66645 0.46073 0.90027 0.0
H405 H 0.70201 0.50169 0.94263 0.0
H406 H 0.773 0.42639 0.92619 0.0
H407 H 0.81825 0.53708 0.90492 0.0
C408 C 0.76937 0.56847 0.90528 0.0
C409 C 0.71607 0.4385 0.88376 0.0
C410 C 0.7787 0.52163 0.95234 0.0
C411 C 0.68866 0.39254 0.93266 0.0
H412 H 0.73714 0.50125 0.86317 0.0
H413 H 0.7629 0.57197 0.87491 0.0
H414 H 0.80919 0.63272 0.92499 0.0
H415 H 0.81688 0.60673 0.95034 0.0
H416 H 0.74891 0.4581 0.97315 0.0
H417 H 0.69711 0.38824 0.96267 0.0
H418 H 0.64812 0.32873 0.91314 0.0
H419 H 0.66478 0.35381 0.88646 0.0
H420 H 0.83805 0.43089 0.92413 0.0
H421 H 0.88221 0.54195 0.90192 0.0
H422 H 0.64668 0.51203 0.94558 0.0
H423 H 0.61203 0.47402 0.90207 0.0
C424 C 0.27867 0.73871 0.21938 0.0
C425 C 0.2699 0.75601 0.20807 0.0
C426 C 0.26228 0.78386 0.21386 0.0
C427 C 0.26691 0.78219 0.22834 0.0
N428 N 0.27675 0.7549 0.23204 0.0
Co429 Co 0.28686 0.74382 0.25192 0.0
N430 N 0.26028 0.77096 0.26061 0.0
C431 C 0.25187 0.79616 0.25372 0.0
C432 C 0.23514 0.81203 0.26247 0.0
C433 C 0.23333 0.7962 0.27574 0.0
C434 C 0.24905 0.7714 0.27436 0.0
N435 N 0.29724 0.73229 0.27171 0.0
C436 C 0.28148 0.73427 0.2844 0.0
C437 C 0.29589 0.72144 0.29552 0.0
C438 C 0.32267 0.71273 0.28969 0.0
C439 C 0.32274 0.72005 0.27537 0.0
N440 N 0.31348 0.71665 0.24326 0.0
C441 C 0.33713 0.70617 0.25016 0.0
C442 C 0.34874 0.6849 0.24185 0.0
C443 C 0.33159 0.68184 0.22886 0.0
C444 C 0.31095 0.70224 0.22986 0.0
N445 N 0.33789 0.79556 0.25216 0.0
C446 C 0.40192 0.87567 0.25212 0.0
C447 C 0.37987 0.85744 0.26453 0.0
C448 C 0.34834 0.81818 0.26431 0.0
C449 C 0.39276 0.85144 0.23991 0.0
C450 C 0.36094 0.81157 0.24018 0.0
N451 N 0.23526 0.69329 0.25182 0.0
C452 C 0.19339 0.625 0.2594 0.0
C453 C 0.15937 0.62419 0.25403 0.0
C454 C 0.16456 0.6584 0.24713 0.0
C455 C 0.20235 0.69251 0.24631 0.0
C456 C 0.23095 0.65944 0.25798 0.0
H457 H 0.20454 0.71866 0.24152 0.0
H458 H 0.25633 0.65889 0.26221 0.0
H459 H 0.33144 0.80692 0.27398 0.0
H460 H 0.3541 0.79426 0.23051 0.0
C461 C 0.25658 0.801 0.23886 0.0
C462 C 0.29184 0.70951 0.21758 0.0
C463 C 0.25653 0.75217 0.28656 0.0
C464 C 0.34118 0.70955 0.26493 0.0
H465 H 0.26936 0.74938 0.19682 0.0
H466 H 0.25324 0.80222 0.2082 0.0
H467 H 0.22504 0.83234 0.25954 0.0
H468 H 0.22251 0.80283 0.2854 0.0
H469 H 0.28833 0.71906 0.30675 0.0
H470 H 0.33905 0.70106 0.29516 0.0
H471 H 0.36575 0.67123 0.24508 0.0
H472 H 0.33392 0.66607 0.21976 0.0
H473 H 0.38616 0.87375 0.27446 0.0
H474 H 0.40888 0.86356 0.23004 0.0
H475 H 0.19095 0.59923 0.26476 0.0
H476 H 0.13926 0.65945 0.24295 0.0
C477 C 0.54022 0.26056 0.55101 0.0
C478 C 0.51342 0.25186 0.53997 0.0
C479 C 0.48073 0.25106 0.54584 0.0
C480 C 0.48935 0.2594 0.56009 0.0
N481 N 0.52533 0.26527 0.56352 0.0
Co482 Co 0.54918 0.27775 0.58289 0.0
N483 N 0.49713 0.25899 0.59238 0.0
C484 C 0.46415 0.25382 0.58583 0.0
C485 C 0.4325 0.24079 0.59499 0.0
C486 C 0.44659 0.23818 0.60813 0.0
C487 C 0.48636 0.25013 0.60631 0.0
N488 N 0.57345 0.28993 0.60222 0.0
C489 C 0.55652 0.27848 0.61534 0.0
C490 C 0.58494 0.29557 0.62602 0.0
C491 C 0.62059 0.31846 0.61935 0.0
C492 C 0.61215 0.3143 0.60504 0.0
N493 N 0.6014 0.29731 0.57342 0.0
C494 C 0.63703 0.3209 0.57941 0.0
C495 C 0.66804 0.32833 0.57056 0.0
C496 C 0.65094 0.30831 0.5582 0.0
C497 C 0.61017 0.2901 0.56012 0.0
N498 N 0.55566 0.33167 0.58162 0.0
C499 C 0.54956 0.40079 0.5781 0.0
C500 C 0.54266 0.38175 0.59141 0.0
C501 C 0.54572 0.34739 0.59293 0.0
C502 C 0.56222 0.38578 0.56688 0.0
C503 C 0.56551 0.35176 0.56889 0.0
N504 N 0.54119 0.22342 0.58393 0.0
C505 C 0.56515 0.17699 0.58617 0.0
C506 C 0.52765 0.14477 0.58254 0.0
C507 C 0.49707 0.15318 0.58034 0.0
C508 C 0.50447 0.19212 0.58086 0.0
C509 C 0.57123 0.21597 0.58689 0.0
H510 H 0.48021 0.19673 0.57841 0.0
H511 H 0.60038 0.24013 0.58951 0.0
H512 H 0.53814 0.33255 0.60314 0.0
H513 H 0.57436 0.3407 0.55989 0.0
C514 C 0.46259 0.25547 0.57087 0.0
C515 C 0.58067 0.26749 0.54903 0.0
C516 C 0.51361 0.25574 0.61817 0.0
C517 C 0.64011 0.32869 0.59403 0.0
H518 H 0.51727 0.24693 0.52885 0.0
H519 H 0.45342 0.24382 0.54045 0.0
H520 H 0.40242 0.23287 0.59236 0.0
H521 H 0.42957 0.22889 0.61793 0.0
H522 H 0.58045 0.29277 0.63746 0.0
H523 H 0.64932 0.33555 0.62435 0.0
H524 H 0.69933 0.34447 0.57307 0.0
H525 H 0.66695 0.30703 0.54898 0.0
H526 H 0.53285 0.392 0.60043 0.0
H527 H 0.56869 0.39973 0.55645 0.0
H528 H 0.58993 0.17244 0.58804 0.0
H529 H 0.46716 0.1298 0.57803 0.0
C530 C 0.28417 0.53702 0.88526 0.0
C531 C 0.27 0.51045 0.87396 0.0
C532 C 0.24032 0.4751 0.87938 0.0
C533 C 0.23785 0.482 0.89364 0.0
N534 N 0.26412 0.51944 0.8975 0.0
Co535 Co 0.27055 0.54158 0.91704 0.0
N536 N 0.24216 0.48806 0.92602 0.0
C537 C 0.21863 0.45388 0.91908 0.0
C538 C 0.20244 0.42142 0.92797 0.0
C539 C 0.21622 0.43617 0.94137 0.0
C540 C 0.23997 0.47703 0.93993 0.0
N541 N 0.27734 0.56435 0.93651 0.0
C542 C 0.27224 0.54714 0.94954 0.0
C543 C 0.27854 0.57415 0.96036 0.0
C544 C 0.28759 0.60916 0.95387 0.0
C545 C 0.28625 0.60174 0.93951 0.0
N546 N 0.29877 0.59517 0.90803 0.0
C547 C 0.30571 0.62925 0.91421 0.0
C548 C 0.32806 0.662 0.90585 0.0
C549 C 0.33554 0.64771 0.8936 0.0
C550 C 0.31664 0.60667 0.89505 0.0
N551 N 0.21897 0.54024 0.91523 0.0
C552 C 0.14196 0.5308 0.91175 0.0
C553 C 0.17152 0.54831 0.90107 0.0
C554 C 0.20924 0.5524 0.90295 0.0
C555 C 0.15311 0.51971 0.92445 0.0
C556 C 0.19138 0.52496 0.92601 0.0
N557 N 0.32126 0.54175 0.91883 0.0
C558 C 0.39112 0.57485 0.92458 0.0
C559 C 0.39331 0.54051 0.9215 0.0
C560 C 0.35814 0.50707 0.91683 0.0
C561 C 0.32295 0.5084 0.91547 0.0
C562 C 0.35509 0.57472 0.92334 0.0
H563 H 0.29693 0.48206 0.91177 0.0
H564 H 0.35465 0.60142 0.92601 0.0
H565 H 0.23039 0.5649 0.89431 0.0
H566 H 0.19813 0.5156 0.93592 0.0
C567 C 0.21684 0.45303 0.90409 0.0
C568 C 0.31466 0.5793 0.8838 0.0
C569 C 0.25703 0.50462 0.95209 0.0
C570 C 0.29811 0.63023 0.92872 0.0
H571 H 0.28001 0.51607 0.86297 0.0
H572 H 0.22372 0.44731 0.87371 0.0
H573 H 0.18367 0.39059 0.92504 0.0
H574 H 0.20912 0.41888 0.9511 0.0
H575 H 0.27593 0.569 0.97178 0.0
H576 H 0.29498 0.6369 0.95902 0.0
H577 H 0.33963 0.69284 0.90865 0.0
H578 H 0.35351 0.66588 0.88482 0.0
H579 H 0.16585 0.55889 0.89117 0.0
H580 H 0.13218 0.5059 0.93312 0.0
H581 H 0.41709 0.6021 0.92787 0.0
H582 H 0.35723 0.47947 0.91445 0.0
C583 C 0.76283 0.28858 0.21865 0.0
C584 C 0.77169 0.27175 0.20721 0.0
C585 C 0.77806 0.24281 0.21277 0.0
C586 C 0.77264 0.2434 0.22726 0.0
N587 N 0.76352 0.27108 0.23117 0.0
Co588 Co 0.75251 0.28085 0.25108 0.0
N589 N 0.77755 0.25204 0.25958 0.0
C590 C 0.78563 0.22684 0.25254 0.0
C591 C 0.80182 0.21021 0.26118 0.0
C592 C 0.80366 0.22562 0.27454 0.0
C593 C 0.78849 0.25092 0.27329 0.0
N594 N 0.74097 0.29074 0.27092 0.0
C595 C 0.75564 0.28724 0.28361 0.0
C596 C 0.73997 0.29833 0.29486 0.0
C597 C 0.71377 0.30788 0.28904 0.0
C598 C 0.71518 0.30258 0.27462 0.0
N599 N 0.72756 0.30985 0.24265 0.0
C600 C 0.70368 0.32004 0.24954 0.0
C601 C 0.69297 0.34229 0.24137 0.0
C602 C 0.71095 0.34623 0.22846 0.0
C603 C 0.7312 0.32544 0.22937 0.0
N604 N 0.7008 0.22996 0.25069 0.0
C605 C 0.63048 0.15436 0.25012 0.0
C606 C 0.65399 0.16824 0.2624 0.0
C607 C 0.68884 0.20552 0.26244 0.0
C608 C 0.64275 0.1795 0.23811 0.0
C609 C 0.67766 0.2172 0.23866 0.0
N610 N 0.80466 0.33071 0.25156 0.0
C611 C 0.84709 0.39834 0.25963 0.0
C612 C 0.88085 0.39908 0.25401 0.0
C613 C 0.87538 0.36516 0.24686 0.0
C614 C 0.83743 0.33137 0.24592 0.0
C615 C 0.80933 0.36427 0.25808 0.0
H616 H 0.83496 0.30539 0.24091 0.0
H617 H 0.78406 0.36484 0.26245 0.0
H618 H 0.70623 0.21425 0.27205 0.0
H619 H 0.68598 0.23591 0.2293 0.0
C620 C 0.78171 0.22319 0.23763 0.0
C621 C 0.75072 0.31865 0.21709 0.0
C622 C 0.78139 0.27021 0.28555 0.0
C623 C 0.69804 0.31476 0.26425 0.0
H624 H 0.7731 0.2794 0.19602 0.0
H625 H 0.78681 0.22442 0.20697 0.0
H626 H 0.81173 0.18985 0.25812 0.0
H627 H 0.81423 0.21851 0.28414 0.0
H628 H 0.74644 0.29922 0.30613 0.0
H629 H 0.69689 0.31884 0.29461 0.0
H630 H 0.6758 0.35576 0.24463 0.0
H631 H 0.70925 0.36265 0.21943 0.0
H632 H 0.64552 0.15021 0.27199 0.0
H633 H 0.6251 0.17046 0.22847 0.0
H634 H 0.8499 0.42387 0.26528 0.0
H635 H 0.90057 0.36412 0.24252 0.0
H636 H 0.30916 0.51509 0.97354 0.0
H637 H 0.18421 0.46527 0.96485 0.0
H638 H 0.16944 0.45308 0.9907 0.0
H639 H 0.2987 0.45032 0.00494 0.0
H640 H 0.33924 0.49087 0.01423 0.0
H641 H 0.33904 0.48939 0.99497 0.0
H642 H 0.3467 0.55938 0.99416 0.0
H643 H 0.34658 0.56096 0.01336 0.0
H644 H 0.31113 0.56795 1.00338 0.0
H645 H 0.16948 0.4554 0.01779 0.0
H646 H 0.18458 0.47123 0.04352 0.0
H647 H 0.30919 0.51812 0.03472 0.0
C648 C 0.2786 0.50011 0.97709 0.0
C649 C 0.24766 0.48993 0.96718 0.0
C650 C 0.20814 0.47206 0.97222 0.0
C651 C 0.19955 0.46529 0.9869 0.0
C652 C 0.23081 0.47656 0.99646 0.0
C653 C 0.26956 0.49327 0.99173 0.0
C654 C 0.29809 0.50625 1.00423 0.0
C655 C 0.32006 0.4828 0.00461 0.0
C656 C 0.32734 0.5513 1.00375 0.0
C657 C 0.26955 0.49514 0.0167 0.0
C658 C 0.23081 0.47785 0.01203 0.0
C659 C 0.19963 0.46823 0.02156 0.0
C660 C 0.20838 0.47722 0.03615 0.0
C661 C 0.24791 0.49572 0.04105 0.0
C662 C 0.27863 0.50361 0.03123 0.0
H663 H 0.72482 0.21268 0.3671 0.0
H664 H 0.84535 0.30195 0.37742 0.0
H665 H 0.86358 0.30773 0.35184 0.0
H666 H 0.74756 0.16633 0.33624 0.0
H667 H 0.70551 0.1603 0.32622 0.0
H668 H 0.7036 0.15844 0.34547 0.0
H669 H 0.68616 0.21441 0.34578 0.0
H670 H 0.68804 0.21644 0.32658 0.0
H671 H 0.71841 0.26069 0.33682 0.0
H672 H 0.8665 0.31033 0.32481 0.0
H673 H 0.85316 0.31023 0.29889 0.0
H674 H 0.73107 0.21918 0.30591 0.0
C675 C 0.75534 0.23232 0.36397 0.0
C676 C 0.78401 0.25596 0.37428 0.0
C677 C 0.82328 0.28267 0.36975 0.0
C678 C 0.83382 0.28627 0.35523 0.0
C679 C 0.80473 0.26309 0.34527 0.0
C680 C 0.76626 0.23651 0.34946 0.0
C681 C 0.73966 0.21818 0.33657 0.0
C682 C 0.72311 0.17313 0.3361 0.0
C683 C 0.7061 0.22803 0.33644 0.0
C684 C 0.76889 0.2391 0.32448 0.0
C685 C 0.80638 0.2647 0.3297 0.0
C686 C 0.83745 0.2898 0.32061 0.0
C687 C 0.82976 0.28948 0.3059 0.0
C688 C 0.79135 0.26433 0.30044 0.0
C689 C 0.76093 0.23801 0.30981 0.0
H690 H 0.50455 0.80828 0.70076 0.0
H691 H 0.54919 0.72903 0.71003 0.0
H692 H 0.56113 0.72543 0.6842 0.0
H693 H 0.45059 0.75712 0.67038 0.0
H694 H 0.45976 0.8006 0.66045 0.0
H695 H 0.46007 0.80152 0.67968 0.0
H696 H 0.5309 0.86281 0.67943 0.0
H697 H 0.53075 0.86224 0.66017 0.0
H698 H 0.56975 0.86051 0.66983 0.0
H699 H 0.56182 0.72513 0.65719 0.0
H700 H 0.55195 0.72865 0.63122 0.0
H701 H 0.50501 0.8066 0.63921 0.0
C702 C 0.51771 0.79095 0.69732 0.0
C703 C 0.52625 0.7691 0.70736 0.0
C704 C 0.54285 0.74624 0.70251 0.0
C705 C 0.54957 0.74396 0.68786 0.0
C706 C 0.53953 0.76472 0.67817 0.0
C707 C 0.52407 0.78792 0.68271 0.0
C708 C 0.51284 0.8047 0.67006 0.0
C709 C 0.46817 0.79011 0.67015 0.0
C710 C 0.53754 0.85028 0.66986 0.0
C711 C 0.52387 0.78694 0.65768 0.0
C712 C 0.53954 0.76424 0.66261 0.0
C713 C 0.55021 0.74336 0.65323 0.0
C714 C 0.54465 0.74561 0.63851 0.0
C715 C 0.52864 0.76864 0.63322 0.0
C716 C 0.51816 0.78955 0.64297 0.0
H717 H 0.83217 0.5222 0.03455 0.0
H718 H 0.74765 0.56037 0.04355 0.0
H719 H 0.74498 0.57347 0.01787 0.0
H720 H 0.88299 0.58897 1.0031 0.0
H721 H 0.88612 0.5504 0.99361 0.0
H722 H 0.8876 0.55161 0.01287 0.0
H723 H 0.82838 0.4795 0.01371 0.0
H724 H 0.82663 0.47811 0.99451 0.0
H725 H 0.7831 0.46768 0.00461 0.0
H726 H 0.7437 0.57304 0.99109 0.0
H727 H 0.74288 0.55777 0.96541 0.0
H728 H 0.82708 0.5185 0.97315 0.0
C729 C 0.81441 0.53488 0.03111 0.0
C730 C 0.79112 0.54156 0.04111 0.0
C731 C 0.76675 0.55636 0.03617 0.0
C732 C 0.76486 0.56362 0.02157 0.0
C733 C 0.78727 0.55565 0.01193 0.0
C734 C 0.81166 0.54163 0.01649 0.0
C735 C 0.82873 0.53075 1.00382 0.0
C736 C 0.87406 0.55701 1.00333 0.0
C737 C 0.81594 0.48639 1.00419 0.0
C738 C 0.80953 0.54004 0.99145 0.0
C739 C 0.78608 0.55482 0.99637 0.0
C740 C 0.76268 0.56237 0.9871 0.0
C741 C 0.76255 0.55384 0.97251 0.0
C742 C 0.78566 0.53793 0.96724 0.0
C743 C 0.81009 0.53179 0.97684 0.0
H744 H 0.30986 0.7995 0.30687 0.0
H745 H 0.18467 0.71893 0.30015 0.0
H746 H 0.17233 0.72116 0.32608 0.0
H747 H 0.31597 0.75394 0.33776 0.0
H748 H 0.35216 0.7987 0.34659 0.0
H749 H 0.34998 0.7967 0.32739 0.0
H750 H 0.3414 0.85842 0.32681 0.0
H751 H 0.34377 0.86078 0.34605 0.0
H752 H 0.3019 0.85811 0.33691 0.0
H753 H 0.17527 0.72528 0.35316 0.0
H754 H 0.19287 0.73059 0.37879 0.0
H755 H 0.31666 0.8068 0.36804 0.0
C756 C 0.27971 0.78335 0.31085 0.0
C757 C 0.24806 0.75925 0.30155 0.0
C758 C 0.20914 0.73785 0.3071 0.0
C759 C 0.20198 0.7389 0.3218 0.0
C760 C 0.23411 0.76157 0.33082 0.0
C761 C 0.27224 0.78358 0.32551 0.0
C762 C 0.30214 0.80199 0.33753 0.0
C763 C 0.3318 0.78692 0.3373 0.0
C764 C 0.32357 0.84754 0.33678 0.0
C765 C 0.2751 0.78642 0.35048 0.0
C766 C 0.23589 0.76353 0.34638 0.0
C767 C 0.20577 0.74381 0.35645 0.0
C768 C 0.21597 0.74714 0.37099 0.0
C769 C 0.25596 0.77 0.3754 0.0
C770 C 0.28577 0.79013 0.36498 0.0
H771 H 0.5183 0.20539 0.7007 0.0
H772 H 0.48195 0.29126 0.71001 0.0
H773 H 0.46903 0.2947 0.68436 0.0
H774 H 0.57253 0.25393 0.67033 0.0
H775 H 0.56079 0.20991 0.66029 0.0
H776 H 0.56024 0.20845 0.67951 0.0
H777 H 0.48775 0.15007 0.67921 0.0
H778 H 0.48813 0.15123 0.65995 0.0
H779 H 0.45058 0.15544 0.66971 0.0
H780 H 0.46899 0.29609 0.65758 0.0
H781 H 0.48171 0.29519 0.63174 0.0
H782 H 0.51899 0.20919 0.6392 0.0
C783 C 0.50626 0.22377 0.69733 0.0
C784 C 0.50021 0.24737 0.70738 0.0
C785 C 0.48583 0.27223 0.70255 0.0
C786 C 0.47862 0.27451 0.68798 0.0
C787 C 0.48608 0.25188 0.67828 0.0
C788 C 0.49948 0.22685 0.68274 0.0
C789 C 0.50926 0.20911 0.67 0.0
C790 C 0.55331 0.22107 0.67004 0.0
C791 C 0.48232 0.16376 0.6697 0.0
C792 C 0.49998 0.22858 0.6577 0.0
C793 C 0.48629 0.25286 0.66273 0.0
C794 C 0.47872 0.27641 0.65351 0.0
C795 C 0.48576 0.27553 0.63882 0.0
C796 C 0.5 0.25111 0.6334 0.0
C797 C 0.5068 0.22707 0.643 0.0
H798 H 0.23567 0.65751 0.19805 0.0
H799 H 0.36205 0.73482 0.2039 0.0
H800 H 0.37502 0.70712 0.18222 0.0
H801 H 0.23632 0.57304 0.1841 0.0
H802 H 0.19942 0.56143 0.17051 0.0
H803 H 0.19901 0.58682 0.18654 0.0
H804 H 0.20235 0.64415 0.17148 0.0
H805 H 0.2019 0.61852 0.1554 0.0
H806 H 0.24122 0.66878 0.1584 0.0
H807 H 0.37483 0.66497 0.16204 0.0
H808 H 0.36218 0.62513 0.14013 0.0
H809 H 0.23632 0.58146 0.14432 0.0
C810 C 0.26598 0.66895 0.19459 0.0
C811 C 0.29799 0.69755 0.20292 0.0
C812 C 0.33719 0.71238 0.19788 0.0
C813 C 0.34484 0.69664 0.18561 0.0
C814 C 0.31291 0.66704 0.17807 0.0
C815 C 0.2742 0.65443 0.18197 0.0
C816 C 0.24561 0.62408 0.17124 0.0
C817 C 0.21848 0.58396 0.17854 0.0
C818 C 0.22134 0.63983 0.16368 0.0
C819 C 0.27435 0.62117 0.16093 0.0
C820 C 0.31296 0.64558 0.16537 0.0
C821 C 0.34481 0.64657 0.15825 0.0
C822 C 0.33733 0.62362 0.14587 0.0
C823 C 0.29848 0.60101 0.14031 0.0
C824 C 0.26639 0.59888 0.14821 0.0
H825 H 0.71323 0.31865 0.47806 0.0
H826 H 0.65992 0.19244 0.47049 0.0
H827 H 0.61984 0.17865 0.49264 0.0
H828 H 0.71649 0.31604 0.51679 0.0
H829 H 0.70408 0.35443 0.51905 0.0
H830 H 0.73009 0.35367 0.50325 0.0
H831 H 0.67541 0.35323 0.48747 0.0
H832 H 0.64907 0.35367 0.50322 0.0
H833 H 0.62451 0.31502 0.4901 0.0
H834 H 0.58435 0.17937 0.51577 0.0
H835 H 0.55877 0.19456 0.53777 0.0
H836 H 0.63145 0.32025 0.52886 0.0
C837 C 0.69321 0.28811 0.48113 0.0
C838 C 0.68933 0.25652 0.47252 0.0
C839 C 0.6632 0.21699 0.47694 0.0
C840 C 0.64024 0.20896 0.48946 0.0
C841 C 0.64365 0.24084 0.49745 0.0
C842 C 0.66961 0.27965 0.49343 0.0
C843 C 0.66697 0.30868 0.50354 0.0
C844 C 0.70677 0.33473 0.5111 0.0
C845 C 0.65316 0.33415 0.49561 0.0
C846 C 0.63561 0.28028 0.51393 0.0
C847 C 0.62261 0.24123 0.51032 0.0
C848 C 0.59438 0.20987 0.51863 0.0
C849 C 0.57984 0.21869 0.53107 0.0
C850 C 0.5934 0.25849 0.53507 0.0
C851 C 0.62084 0.28952 0.52613 0.0
H852 H 0.401 0.71903 0.81434 0.0
H853 H 0.47256 0.66511 0.80592 0.0
H854 H 0.44643 0.62461 0.82798 0.0
H855 H 0.4051 0.71977 0.85316 0.0
H856 H 0.35403 0.70661 0.85525 0.0
H857 H 0.38154 0.73396 0.83971 0.0
H858 H 0.32815 0.68 0.82337 0.0
H859 H 0.30058 0.65239 0.83885 0.0
H860 H 0.31546 0.62898 0.82556 0.0
H861 H 0.41039 0.58854 0.8511 0.0
H862 H 0.36818 0.5607 0.87271 0.0
H863 H 0.31416 0.63209 0.86405 0.0
C864 C 0.41135 0.69886 0.8172 0.0
C865 C 0.43874 0.69509 0.80835 0.0
C866 C 0.45171 0.66856 0.81254 0.0
C867 C 0.43684 0.6453 0.82502 0.0
C868 C 0.40861 0.64855 0.83319 0.0
C869 C 0.39591 0.67463 0.82938 0.0
C870 C 0.36362 0.67089 0.83943 0.0
C871 C 0.37688 0.71014 0.84735 0.0
C872 C 0.32465 0.65725 0.83132 0.0
C873 C 0.36022 0.63888 0.84956 0.0
C874 C 0.38671 0.62662 0.84591 0.0
C875 C 0.38958 0.59801 0.854 0.0
C876 C 0.36542 0.58221 0.86623 0.0
C877 C 0.33844 0.59473 0.87025 0.0
C878 C 0.33517 0.6226 0.86149 0.0
H879 H 0.81175 0.45287 0.14519 0.0
H880 H 0.68598 0.40585 0.13897 0.0
H881 H 0.67155 0.36485 0.16073 0.0
H882 H 0.80744 0.36572 0.15876 0.0
H883 H 0.84471 0.38991 0.17233 0.0
H884 H 0.84612 0.41664 0.15642 0.0
H885 H 0.84529 0.47151 0.17172 0.0
H886 H 0.84473 0.44537 0.18769 0.0
H887 H 0.80674 0.458 0.18485 0.0
H888 H 0.67011 0.3227 0.18115 0.0
H889 H 0.68157 0.29391 0.20288 0.0
H890 H 0.80819 0.37303 0.19843 0.0
C891 C 0.7813 0.43455 0.14863 0.0
C892 C 0.74984 0.43209 0.1403 0.0
C893 C 0.71038 0.40793 0.14516 0.0
C894 C 0.70192 0.38431 0.15744 0.0
C895 C 0.73331 0.38594 0.16507 0.0
C896 C 0.77229 0.41141 0.1612 0.0
C897 C 0.80025 0.40836 0.17182 0.0
C898 C 0.82616 0.39433 0.16438 0.0
C899 C 0.82576 0.44818 0.17947 0.0
C900 C 0.77085 0.37681 0.18207 0.0
C901 C 0.73243 0.36379 0.17772 0.0
C902 C 0.70001 0.33336 0.18486 0.0
C903 C 0.7068 0.317 0.19714 0.0
C904 C 0.74561 0.33184 0.20254 0.0
C905 C 0.77817 0.36147 0.19466 0.0
H906 H 0.40981 0.77624 0.53943 0.0
H907 H 0.50169 0.76203 0.51907 0.0
H908 H 0.481 0.77335 0.49562 0.0
H909 H 0.3398 0.71068 0.51356 0.0
H910 H 0.30955 0.73355 0.51408 0.0
H911 H 0.33781 0.73542 0.52954 0.0
H912 H 0.37131 0.81209 0.52967 0.0
H913 H 0.34356 0.81043 0.51404 0.0
H914 H 0.39689 0.83983 0.5139 0.0
H915 H 0.4509 0.78818 0.47414 0.0
H916 H 0.40305 0.7828 0.45586 0.0
H917 H 0.31772 0.7629 0.48925 0.0
C918 C 0.42619 0.77639 0.53006 0.0
C919 C 0.45996 0.77178 0.53142 0.0
C920 C 0.4786 0.76959 0.5187 0.0
C921 C 0.46641 0.77517 0.50519 0.0
C922 C 0.43353 0.78016 0.50431 0.0
C923 C 0.41242 0.77866 0.51636 0.0
C924 C 0.37326 0.77569 0.51223 0.0
C925 C 0.33802 0.73651 0.51767 0.0
C926 C 0.37114 0.81166 0.51779 0.0
C927 C 0.37602 0.77634 0.49598 0.0
C928 C 0.41191 0.78075 0.49173 0.0
C929 C 0.42241 0.78398 0.47735 0.0
C930 C 0.39499 0.78099 0.46704 0.0
C931 C 0.35643 0.77273 0.47094 0.0
C932 C 0.34714 0.7708 0.48572 0.0
H933 H 0.66428 0.44063 0.86393 0.0
H934 H 0.73983 0.39067 0.8714 0.0
H935 H 0.71276 0.34895 0.84981 0.0
H936 H 0.5802 0.35389 0.85091 0.0
H937 H 0.56804 0.37834 0.83715 0.0
H938 H 0.5937 0.40517 0.85298 0.0
H939 H 0.65044 0.45899 0.83755 0.0
H940 H 0.62448 0.43282 0.82166 0.0
H941 H 0.6748 0.44437 0.82455 0.0
H942 H 0.67344 0.30862 0.82847 0.0
H943 H 0.63369 0.28122 0.80648 0.0
H944 H 0.58755 0.36104 0.81132 0.0
C945 C 0.67587 0.4217 0.86078 0.0
C946 C 0.70453 0.41916 0.8693 0.0
C947 C 0.71826 0.39335 0.86497 0.0
C948 C 0.70277 0.36931 0.85278 0.0
C949 C 0.67387 0.37174 0.84483 0.0
C950 C 0.66128 0.39802 0.84842 0.0
C951 C 0.6307 0.3955 0.83775 0.0
C952 C 0.5908 0.38245 0.84515 0.0
C953 C 0.64602 0.43528 0.82991 0.0
C954 C 0.62777 0.36344 0.82771 0.0
C955 C 0.65248 0.34971 0.83215 0.0
C956 C 0.65429 0.31945 0.82484 0.0
C957 C 0.63136 0.30378 0.81244 0.0
C958 C 0.60729 0.31867 0.80724 0.0
C959 C 0.60518 0.3486 0.81514 0.0
H960 H 0.9324 0.47471 0.07948 0.0
H961 H 0.94714 0.55826 0.11299 0.0
H962 H 1.01676 0.57707 0.1154 0.0
H963 H 0.99564 0.44217 0.09715 0.0
H964 H 1.01581 0.43617 0.08063 0.0
H965 H 0.96664 0.42939 0.08102 0.0
H966 H 0.98639 0.48195 0.06102 0.0
H967 H 0.0357 0.48909 0.06064 0.0
H968 H 0.02867 0.53086 0.06352 0.0
H969 H 0.08655 0.59091 0.11345 0.0
H970 H 0.14966 0.59206 0.10934 0.0
H971 H 0.09107 0.49527 0.07917 0.0
C972 C 0.95002 0.49669 0.08743 0.0
C973 C 0.93364 0.51581 0.09565 0.0
C974 C 0.95848 0.54418 0.10599 0.0
C975 C 0.99838 0.55494 0.1076 0.0
C976 C 1.01369 0.53656 0.0991 0.0
C977 C 0.9902 0.50739 0.08942 0.0
C978 C 1.01431 0.49146 0.08204 0.0
C979 C 0.99707 0.44716 0.08541 0.0
C980 C 1.01638 0.49878 0.06584 0.0
C981 C 0.05489 0.51663 0.08897 0.0
C982 C 0.05377 0.54276 0.09866 0.0
C983 C 0.08765 0.57026 0.106 0.0
C984 C 0.12351 0.57088 0.10355 0.0
C985 C 0.12551 0.5438 0.09399 0.0
C986 C 0.0905 0.51619 0.08663 0.0
H987 H 0.56889 0.10175 0.41083 0.0
H988 H 0.63949 0.08497 0.44296 0.0
H989 H 0.5887 0.01487 0.44501 0.0
H990 H 0.47416 0.03693 0.42894 0.0
H991 H 0.44703 0.01791 0.41253 0.0
H992 H 0.48967 0.0672 0.41303 0.0
H993 H 0.52123 0.04904 0.39219 0.0
H994 H 0.47884 0.99959 0.39171 0.0
H995 H 0.52782 1.00662 0.3939 0.0
H996 H 0.53217 0.94514 0.44296 0.0
H997 H 0.46915 0.88247 0.43919 0.0
H998 H 0.43037 0.94322 0.4103 0.0
C999 C 0.57366 0.08355 0.41839 0.0
C1000 C 0.60952 0.09945 0.42633 0.0
C1001 C 0.61367 0.07395 0.43619 0.0
C1002 C 0.58459 0.03379 0.43758 0.0
C1003 C 0.55048 0.01897 0.42934 0.0
C1004 C 0.54431 0.04313 0.42016 0.0
C1005 C 0.50387 0.01952 0.41305 0.0
C1006 C 0.4771 0.0364 0.41713 0.0
C1007 C 0.50822 0.01865 0.39674 0.0
C1008 C 0.48873 0.97846 0.41957 0.0
C1009 C 0.51645 0.97887 0.42881 0.0
C1010 C 0.51009 0.94452 0.43582 0.0
C1011 C 0.47428 0.90892 0.43353 0.0
C1012 C 0.44472 0.9077 0.42445 0.0
C1013 C 0.45227 0.94314 0.41736 0.0
H1014 H 0.56676 0.47404 0.76644 0.0
H1015 H 0.47923 0.39791 0.73514 0.0
H1016 H 0.45757 0.44663 0.73247 0.0
H1017 H 0.50278 0.50526 0.78349 0.0
H1018 H 0.54249 0.55511 0.78683 0.0
H1019 H 0.55255 0.51481 0.7861 0.0
H1020 H 0.60541 0.55201 0.76651 0.0
H1021 H 0.59541 0.59236 0.76714 0.0
H1022 H 0.59177 0.56774 0.75044 0.0
H1023 H 0.44587 0.50438 0.73246 0.0
H1024 H 0.44306 0.56532 0.73599 0.0
H1025 H 0.53318 0.60245 0.76895 0.0
C1026 C 0.54288 0.46731 0.75907 0.0
C1027 C 0.52564 0.43193 0.75077 0.0
C1028 C 0.49434 0.425 0.7413 0.0
C1029 C 0.48133 0.45248 0.73979 0.0
C1030 C 0.4992 0.48695 0.74796 0.0
C1031 C 0.52902 0.49437 0.75753 0.0
C1032 C 0.54244 0.53356 0.76522 0.0
C1033 C 0.53459 0.52677 0.78137 0.0
C1034 C 0.58637 0.56316 0.76214 0.0
C1035 C 0.51574 0.547 0.75837 0.0
C1036 C 0.49117 0.51965 0.7484 0.0
C1037 C 0.46462 0.52576 0.74039 0.0
C1038 C 0.46299 0.5606 0.74261 0.0
C1039 C 0.48742 0.58927 0.75291 0.0
C1040 C 0.51413 0.58186 0.76089 0.0
H1041 H 0.56068 0.1043 0.59663 0.0
H1042 H 0.47723 0.08952 0.56319 0.0
H1043 H 0.45843 0.01968 0.56073 0.0
H1044 H 0.59308 0.04086 0.57915 0.0
H1045 H 0.59882 0.02067 0.59571 0.0
H1046 H 0.60564 0.06995 0.59528 0.0
H1047 H 0.55292 0.05021 0.6152 0.0
H1048 H 0.54571 1.00077 0.61561 0.0
H1049 H 0.50411 1.00789 0.61263 0.0
H1050 H 0.44524 0.95002 0.56246 0.0
H1051 H 0.44487 0.88715 0.5663 0.0
H1052 H 0.54017 0.94572 0.59701 0.0
C1053 C 0.53872 0.08657 0.58869 0.0
C1054 C 0.51968 0.10288 0.58046 0.0
C1055 C 0.4913 0.07807 0.57013 0.0
C1056 C 0.48053 0.0381 0.56852 0.0
C1057 C 0.49884 0.02281 0.57704 0.0
C1058 C 0.52791 0.04632 0.58674 0.0
C1059 C 0.54368 0.02223 0.59418 0.0
C1060 C 0.58794 0.03946 0.59088 0.0
C1061 C 0.53615 0.02016 0.61036 0.0
C1062 C 0.51862 0.98164 0.58723 0.0
C1063 C 0.49267 0.98271 0.57749 0.0
C1064 C 0.46564 0.94889 0.56999 0.0
C1065 C 0.46542 0.91314 0.57233 0.0
C1066 C 0.49235 0.91121 0.58196 0.0
C1067 C 0.5193 0.94615 0.58952 0.0
H1068 H 0.41902 0.49317 0.90763 0.0
H1069 H 0.45496 0.58431 0.94026 0.0
H1070 H 0.5169 0.58369 0.94354 0.0
H1071 H 0.45706 0.43747 0.92629 0.0
H1072 H 0.47265 0.42374 0.91021 0.0
H1073 H 0.43147 0.43238 0.90972 0.0
H1074 H 0.46635 0.48465 0.88974 0.0
H1075 H 0.50771 0.47627 0.89021 0.0
H1076 H 0.51574 0.52566 0.89266 0.0
H1077 H 0.57634 0.57473 0.94317 0.0
H1078 H 0.62669 0.55543 0.94032 0.0
H1079 H 0.55106 0.46473 0.9098 0.0
C1080 C 0.43953 0.5129 0.91558 0.0
C1081 C 0.43139 0.53937 0.92347 0.0
C1082 C 0.46007 0.56459 0.93364 0.0
C1083 C 0.49556 0.56422 0.93573 0.0
C1084 C 0.50245 0.53805 0.92777 0.0
C1085 C 0.47511 0.51252 0.91799 0.0
C1086 C 0.48958 0.48645 0.91119 0.0
C1087 C 0.46099 0.4424 0.91455 0.0
C1088 C 0.49517 0.4937 0.89498 0.0
C1089 C 0.52931 0.50143 0.91866 0.0
C1090 C 0.5361 0.53143 0.92809 0.0
C1091 C 0.57095 0.55078 0.93599 0.0
C1092 C 0.59942 0.53908 0.93438 0.0
C1093 C 0.59324 0.50757 0.92509 0.0
C1094 C 0.55739 0.48883 0.91704 0.0
H1095 H 0.09929 0.58149 0.23435 0.0
H1096 H 0.12677 0.58803 0.27946 0.0
H1097 H 0.05872 0.53312 0.28433 0.0
H1098 H 0.99759 0.55753 0.23785 0.0
H1099 H 0.97961 0.52277 0.22323 0.0
H1100 H 0.03014 0.56317 0.22323 0.0
H1101 H 0.05512 0.51332 0.22052 0.0
H1102 H 1.00466 0.47279 0.22043 0.0
H1103 H 0.03939 0.47333 0.23322 0.0
H1104 H 0.98598 0.47954 0.28452 0.0
H1105 H 0.91716 0.42614 0.27969 0.0
H1106 H 0.93732 0.44915 0.23427 0.0
C1107 C 0.09093 0.57124 0.24524 0.0
C1108 C 0.11856 0.58927 0.25655 0.0
C1109 C 0.10642 0.57467 0.27062 0.0
C1110 C 0.06766 0.54359 0.2735 0.0
C1111 C 0.04114 0.5266 0.26217 0.0
C1112 C 0.05244 0.53942 0.24827 0.0
C1113 C 0.01852 0.51483 0.238 0.0
C1114 C 1.00572 0.54115 0.23011 0.0
C1115 C 0.03012 0.49222 0.22741 0.0
C1116 C 0.98636 0.48643 0.24828 0.0
C1117 C 0.99991 0.49422 0.2622 0.0
C1118 C 0.97528 0.47301 0.27365 0.0
C1119 C 0.93611 0.44282 0.27082 0.0
C1120 C 0.92178 0.43335 0.25664 0.0
C1121 C 0.94745 0.45557 0.24523 0.0
H1122 H 0.60939 0.53035 0.10567 0.0
H1123 H 0.57035 0.43778 0.07372 0.0
H1124 H 0.5076 0.43813 0.07106 0.0
H1125 H 0.51153 0.4976 0.12191 0.0
H1126 H 0.52017 0.54723 0.12431 0.0
H1127 H 0.56122 0.53833 0.12456 0.0
H1128 H 0.5956 0.59019 0.10445 0.0
H1129 H 0.55466 0.59922 0.10413 0.0
H1130 H 0.56948 0.58496 0.08799 0.0
H1131 H 0.44915 0.44808 0.0716 0.0
H1132 H 0.40001 0.46914 0.07408 0.0
H1133 H 0.47605 0.55937 0.1046 0.0
C1134 C 0.5873 0.5098 0.09828 0.0
C1135 C 0.59476 0.48357 0.09 0.0
C1136 C 0.56538 0.45786 0.08022 0.0
C1137 C 0.52955 0.45786 0.07865 0.0
C1138 C 0.52319 0.48412 0.08681 0.0
C1139 C 0.55124 0.50986 0.09639 0.0
C1140 C 0.53723 0.53636 0.10325 0.0
C1141 C 0.53225 0.52946 0.11947 0.0
C1142 C 0.56596 0.58029 0.09974 0.0
C1143 C 0.49714 0.52155 0.09599 0.0
C1144 C 0.48975 0.49113 0.08666 0.0
C1145 C 0.45492 0.47221 0.07875 0.0
C1146 C 0.42714 0.48485 0.08016 0.0
C1147 C 0.4339 0.51686 0.08927 0.0
C1148 C 0.46951 0.53498 0.09748 0.0
H1149 H 0.92306 0.46743 0.41408 0.0
H1150 H 0.92344 0.40453 0.45227 0.0
H1151 H 0.99304 0.45571 0.45674 0.0
H1152 H 0.02365 0.501 0.40296 0.0
H1153 H 0.03354 0.54917 0.39704 0.0
H1154 H 0.9837 0.50752 0.39664 0.0
H1155 H 0.95975 0.54641 0.41213 0.0
H1156 H 1.00949 0.58825 0.41252 0.0
H1157 H 0.98352 0.56677 0.429 0.0
H1158 H 0.0641 0.51181 0.45641 0.0
H1159 H 0.12905 0.5711 0.45269 0.0
H1160 H 0.0824 0.60271 0.41593 0.0
C1161 C 0.93781 0.46449 0.42339 0.0
C1162 C 0.91741 0.43173 0.43285 0.0
C1163 C 0.93796 0.42935 0.44495 0.0
C1164 C 0.97772 0.45825 0.44753 0.0
C1165 C 0.99691 0.49001 0.43804 0.0
C1166 C 0.97755 0.49367 0.4263 0.0
C1167 C 1.00499 0.5315 0.41803 0.0
C1168 C 1.01187 0.5217 0.40276 0.0
C1169 C 0.98845 0.55992 0.41792 0.0
C1170 C 0.04278 0.54826 0.42689 0.0
C1171 C 0.03746 0.52355 0.43828 0.0
C1172 C 0.06831 0.53176 0.44767 0.0
C1173 C 0.10537 0.56618 0.4455 0.0
C1174 C 0.11185 0.59313 0.43415 0.0
C1175 C 0.07954 0.58341 0.42471 0.0
H1176 H 0.57206 0.11427 0.77021 0.0
H1177 H 0.47526 0.09979 0.74341 0.0
H1178 H 0.45355 0.02887 0.74023 0.0
H1179 H 0.5927 0.04434 0.751 0.0
H1180 H 0.60244 0.0249 0.76699 0.0
H1181 H 0.61208 0.07524 0.76662 0.0
H1182 H 0.56694 0.06068 0.78874 0.0
H1183 H 0.55711 1.0103 0.78915 0.0
H1184 H 0.51659 0.01991 0.78824 0.0
H1185 H 0.4417 0.95921 0.73987 0.0
H1186 H 0.43924 0.89548 0.74277 0.0
H1187 H 0.54061 0.95163 0.7713 0.0
C1188 C 0.54663 0.0962 0.76353 0.0
C1189 C 0.5255 0.11289 0.75697 0.0
C1190 C 0.49195 0.0879 0.74853 0.0
C1191 C 0.47939 0.04748 0.74665 0.0
C1192 C 0.50034 0.03178 0.75337 0.0
C1193 C 0.53319 0.05522 0.7617 0.0
C1194 C 0.54921 0.03006 0.76813 0.0
C1195 C 0.59163 0.0445 0.76287 0.0
C1196 C 0.54734 0.03025 0.78454 0.0
C1197 C 0.52023 0.98903 0.76215 0.0
C1198 C 0.49253 0.99095 0.75358 0.0
C1199 C 0.46305 0.95733 0.74669 0.0
C1200 C 0.46166 0.92082 0.74857 0.0
C1201 C 0.48921 0.91729 0.75748 0.0
C1202 C 0.51901 0.95246 0.76432 0.0
H1203 H 0.54541 0.60379 0.59297 0.0
H1204 H 0.4726 0.57582 0.55485 0.0
H1205 H 0.47776 0.51635 0.55123 0.0
H1206 H 0.60947 0.56851 0.58079 0.0
H1207 H 0.61071 0.54684 0.59766 0.0
H1208 H 0.60292 0.58864 0.59722 0.0
H1209 H 0.53794 0.54863 0.61163 0.0
H1210 H 0.54561 0.50675 0.61217 0.0
H1211 H 0.50008 0.50097 0.60511 0.0
H1212 H 0.49172 0.45985 0.55111 0.0
H1213 H 0.50922 0.40819 0.55561 0.0
H1214 H 0.56843 0.46772 0.5948 0.0
C1215 C 0.53012 0.5852 0.58391 0.0
C1216 C 0.50922 0.596 0.57406 0.0
C1217 C 0.49007 0.57001 0.56237 0.0
C1218 C 0.49244 0.53551 0.56025 0.0
C1219 C 0.5135 0.52624 0.57002 0.0
C1220 C 0.53158 0.54999 0.58173 0.0
C1221 C 0.55129 0.53225 0.59084 0.0
C1222 C 0.59627 0.56077 0.59168 0.0
C1223 C 0.53261 0.52152 0.60583 0.0
C1224 C 0.54165 0.49504 0.58234 0.0
C1225 C 0.5201 0.4925 0.5703 0.0
C1226 C 0.50846 0.46153 0.56055 0.0
C1227 C 0.51881 0.43234 0.56317 0.0
C1228 C 0.5404 0.4336 0.57553 0.0
C1229 C 0.55176 0.46556 0.58528 0.0
H1230 H 0.08473 0.52397 0.93191 0.0
H1231 H 0.10155 0.51844 0.88619 0.0
H1232 H 0.03463 0.50679 0.88196 0.0
H1233 H 0.9814 0.44395 0.93212 0.0
H1234 H 0.96637 0.46668 0.94562 0.0
H1235 H 1.01651 0.47604 0.9453 0.0
H1236 H 0.043 0.55161 0.94417 0.0
H1237 H 0.99297 0.5425 0.9445 0.0
H1238 H 0.02603 0.57131 0.93021 0.0
H1239 H 0.96567 0.49738 0.88226 0.0
H1240 H 0.89949 0.48842 0.88733 0.0
H1241 H 0.92288 0.49415 0.93276 0.0
C1242 C 0.07456 0.52001 0.92097 0.0
C1243 C 0.09996 0.52309 0.90941 0.0
C1244 C 0.08431 0.51779 0.89534 0.0
C1245 C 0.04571 0.5106 0.89278 0.0
C1246 C 0.02193 0.508 0.90434 0.0
C1247 C 0.03557 0.5122 0.91819 0.0
C1248 C 1.00335 0.50731 0.92869 0.0
C1249 C 0.99119 0.47136 0.93852 0.0
C1250 C 1.01717 0.54546 0.93741 0.0
C1251 C 0.96968 0.50004 0.91857 0.0
C1252 C 0.98131 0.50079 0.90455 0.0
C1253 C 0.95623 0.49635 0.89321 0.0
C1254 C 0.91856 0.49123 0.89619 0.0
C1255 C 0.90551 0.48999 0.91042 0.0
C1256 C 0.93156 0.49421 0.92177 0.0
H1257 H 0.47573 0.9189 0.23785 0.0
H1258 H 0.39615 0.93424 0.26614 0.0
H1259 H 0.44454 1.00526 0.26802 0.0
H1260 H 0.56666 0.98893 0.25508 0.0
H1261 H 0.59472 1.00869 0.23883 0.0
H1262 H 0.5537 0.95844 0.23929 0.0
H1263 H 0.52152 0.97371 0.21793 0.0
H1264 H 0.5625 0.02402 0.21739 0.0
H1265 H 0.51253 0.0147 0.21905 0.0
H1266 H 0.50243 0.07444 0.26821 0.0
H1267 H 0.56534 0.13803 0.2656 0.0
H1268 H 0.60861 0.08253 0.23621 0.0
C1269 C 0.46829 0.93721 0.24433 0.0
C1270 C 0.43188 0.91992 0.25211 0.0
C1271 C 0.42389 0.94566 0.26041 0.0
C1272 C 0.45122 0.98649 0.26147 0.0
C1273 C 0.48687 1.00226 0.254 0.0
C1274 C 0.49549 0.97867 0.24546 0.0
C1275 C 0.53639 1.00388 0.23863 0.0
C1276 C 0.56453 0.9891 0.24323 0.0
C1277 C 0.53303 1.00408 0.22228 0.0
C1278 C 0.54939 0.04495 0.24485 0.0
C1279 C 0.52014 0.04305 0.2537 0.0
C1280 C 0.52533 0.07634 0.26116 0.0
C1281 C 0.56121 0.11244 0.25962 0.0
C1282 C 0.59178 0.11565 0.25058 0.0
C1283 C 0.58556 0.08129 0.24301 0.0
loop_
_geom_bond_atom_site_label_1
_geom_bond_atom_site_label_2
_geom_bond_distance
_geom_bond_site_symmetry_2
_ccdc_geom_bond_type
C0 C1 1.443 . S
C0 N4 1.376 . S
C0 C38 1.389 . S
C1 C0 1.443 . S
C1 C2 1.340 . S
C1 H41 0.951 . S
C2 C1 1.340 . S
C2 C3 1.439 . S
C2 H42 0.950 . S
C3 C2 1.439 . S
C3 N4 1.374 . S
C3 C37 1.395 . S
N4 C0 1.376 . S
N4 C3 1.374 . S
N4 Co5 2.008 . S
Co5 N4 2.008 . S
Co5 N6 1.995 . S
Co5 N11 2.008 . S
Co5 N16 1.995 . S
Co5 N21 2.282 . S
Co5 N27 2.282 . S
N6 Co5 1.995 . S
N6 C7 1.376 . S
N6 C10 1.383 . S
C7 N6 1.376 . S
C7 C8 1.446 . S
C7 C37 1.391 . S
C8 C7 1.446 . S
C8 C9 1.339 . S
C8 H43 0.949 . S
C9 C8 1.339 . S
C9 C10 1.439 . S
C9 H44 0.950 . S
C10 N6 1.383 . S
C10 C9 1.439 . S
C10 C39 1.392 . S
N11 Co5 2.008 . S
N11 C12 1.376 . S
N11 C15 1.374 . S
C12 N11 1.376 . S
C12 C13 1.443 . S
C12 C39 1.389 . S
C13 C12 1.443 . S
C13 C14 1.340 . S
C13 H45 0.951 . S
C14 C13 1.340 . S
C14 C15 1.439 . S
C14 H46 0.950 . S
C15 N11 1.374 . S
C15 C14 1.439 . S
C15 C40 1.395 . S
N16 Co5 1.995 . S
N16 C17 1.376 . S
N16 C20 1.383 . S
C17 N16 1.376 . S
C17 C18 1.446 . S
C17 C40 1.391 . S
C18 C17 1.446 . S
C18 C19 1.339 . S
C18 H47 0.949 . S
C19 C18 1.339 . S
C19 C20 1.439 . S
C19 H48 0.950 . S
C20 N16 1.383 . S
C20 C19 1.439 . S
C20 C38 1.392 . S
N21 Co5 2.282 . S
N21 C24 1.332 . S
N21 C26 1.332 . S
C22 C23 1.386 . S
C22 C25 1.388 . S
C23 C22 1.386 . S
C23 C24 1.382 . S
C23 H49 0.950 . S
C24 N21 1.332 . S
C24 C23 1.382 . S
C24 H35 0.952 . S
C25 C22 1.388 . S
C25 C26 1.382 . S
C25 H50 0.950 . S
C26 N21 1.332 . S
C26 C25 1.382 . S
C26 H36 0.948 . S
N27 Co5 2.282 . S
N27 C31 1.332 . S
N27 C32 1.332 . S
C28 C29 1.388 . S
C28 C32 1.382 . S
C28 H51 0.950 . S
C29 C28 1.388 . S
C29 C30 1.386 . S
C30 C29 1.386 . S
C30 C31 1.382 . S
C30 H52 0.950 . S
C31 N27 1.332 . S
C31 C30 1.382 . S
C31 H33 0.952 . S
C32 N27 1.332 . S
C32 C28 1.382 . S
C32 H34 0.948 . S
H33 C31 0.952 . S
H34 C32 0.948 . S
H35 C24 0.952 . S
H36 C26 0.948 . S
C37 C3 1.395 . S
C37 C7 1.391 . S
C38 C0 1.389 . S
C38 C20 1.392 . S
C39 C10 1.392 . S
C39 C12 1.389 . S
C40 C15 1.395 . S
C40 C17 1.391 . S
H41 C1 0.951 . S
H42 C2 0.950 . S
H43 C8 0.949 . S
H44 C9 0.950 . S
H45 C13 0.951 . S
H46 C14 0.950 . S
H47 C18 0.949 . S
H48 C19 0.950 . S
H49 C23 0.950 . S
H50 C25 0.950 . S
H51 C28 0.950 . S
H52 C30 0.950 . S
C53 C54 1.443 . S
C53 N57 1.376 . S
C53 C91 1.389 . S
C54 C53 1.443 . S
C54 C55 1.340 . S
C54 H94 0.951 . S
C55 C54 1.340 . S
C55 C56 1.439 . S
C55 H95 0.950 . S
C56 C55 1.439 . S
C56 N57 1.374 . S
C56 C90 1.395 . S
N57 C53 1.376 . S
N57 C56 1.374 . S
N57 Co58 2.008 . S
Co58 N57 2.008 . S
Co58 N59 1.995 . S
Co58 N64 2.008 . S
Co58 N69 1.995 . S
Co58 N74 2.282 . S
Co58 N80 2.282 . S
N59 Co58 1.995 . S
N59 C60 1.376 . S
N59 C63 1.383 . S
C60 N59 1.376 . S
C60 C61 1.446 . S
C60 C90 1.391 . S
C61 C60 1.446 . S
C61 C62 1.339 . S
C61 H96 0.949 . S
C62 C61 1.339 . S
C62 C63 1.439 . S
C62 H97 0.950 . S
C63 N59 1.383 . S
C63 C62 1.439 . S
C63 C92 1.392 . S
N64 Co58 2.008 . S
N64 C65 1.376 . S
N64 C68 1.374 . S
C65 N64 1.376 . S
C65 C66 1.443 . S
C65 C92 1.389 . S
C66 C65 1.443 . S
C66 C67 1.340 . S
C66 H98 0.951 . S
C67 C66 1.340 . S
C67 C68 1.439 . S
C67 H99 0.950 . S
C68 N64 1.374 . S
C68 C67 1.439 . S
C68 C93 1.395 . S
N69 Co58 1.995 . S
N69 C70 1.376 . S
N69 C73 1.383 . S
C70 N69 1.376 . S
C70 C71 1.446 . S
C70 C93 1.391 . S
C71 C70 1.446 . S
C71 C72 1.339 . S
C71 H100 0.949 . S
C72 C71 1.339 . S
C72 C73 1.439 . S
C72 H101 0.950 . S
C73 N69 1.383 . S
C73 C72 1.439 . S
C73 C91 1.392 . S
N74 Co58 2.282 . S
N74 C77 1.332 . S
N74 C79 1.332 . S
C75 C76 1.386 . S
C75 C78 1.388 . S
C76 C75 1.386 . S
C76 C77 1.382 . S
C76 H102 0.950 . S
C77 N74 1.332 . S
C77 C76 1.382 . S
C77 H88 0.952 . S
C78 C75 1.388 . S
C78 C79 1.382 . S
C78 H103 0.950 . S
C79 N74 1.332 . S
C79 C78 1.382 . S
C79 H89 0.948 . S
N80 Co58 2.282 . S
N80 C84 1.332 . S
N80 C85 1.332 . S
C81 C82 1.388 . S
C81 C85 1.382 . S
C81 H104 0.950 . S
C82 C81 1.388 . S
C82 C83 1.386 . S
C83 C82 1.386 . S
C83 C84 1.382 . S
C83 H105 0.950 . S
C84 N80 1.332 . S
C84 C83 1.382 . S
C84 H86 0.952 . S
C85 N80 1.332 . S
C85 C81 1.382 . S
C85 H87 0.948 . S
H86 C84 0.952 . S
H87 C85 0.948 . S
H88 C77 0.952 . S
H89 C79 0.948 . S
C90 C56 1.395 . S
C90 C60 1.391 . S
C91 C53 1.389 . S
C91 C73 1.392 . S
C92 C63 1.392 . S
C92 C65 1.389 . S
C93 C68 1.395 . S
C93 C70 1.391 . S
H94 C54 0.951 . S
H95 C55 0.950 . S
H96 C61 0.949 . S
H97 C62 0.950 . S
H98 C66 0.951 . S
H99 C67 0.950 . S
H100 C71 0.949 . S
H101 C72 0.950 . S
H102 C76 0.950 . S
H103 C78 0.950 . S
H104 C81 0.950 . S
H105 C83 0.950 . S
C106 C107 1.443 . S
C106 N110 1.376 . S
C106 C144 1.389 . S
C107 C106 1.443 . S
C107 C108 1.340 . S
C107 H147 0.951 . S
C108 C107 1.340 . S
C108 C109 1.439 . S
C108 H148 0.950 . S
C109 C108 1.439 . S
C109 N110 1.374 . S
C109 C143 1.395 . S
N110 C106 1.376 . S
N110 C109 1.374 . S
N110 Co111 2.008 . S
Co111 N110 2.008 . S
Co111 N112 1.995 . S
Co111 N117 2.008 . S
Co111 N122 1.995 . S
Co111 N127 2.282 . S
Co111 N133 2.282 . S
N112 Co111 1.995 . S
N112 C113 1.376 . S
N112 C116 1.383 . S
C113 N112 1.376 . S
C113 C114 1.446 . S
C113 C143 1.391 . S
C114 C113 1.446 . S
C114 C115 1.339 . S
C114 H149 0.949 . S
C115 C114 1.339 . S
C115 C116 1.439 . S
C115 H150 0.950 . S
C116 N112 1.383 . S
C116 C115 1.439 . S
C116 C145 1.392 . S
N117 Co111 2.008 . S
N117 C118 1.376 . S
N117 C121 1.374 . S
C118 N117 1.376 . S
C118 C119 1.443 . S
C118 C145 1.389 . S
C119 C118 1.443 . S
C119 C120 1.340 . S
C119 H151 0.951 . S
C120 C119 1.340 . S
C120 C121 1.439 . S
C120 H152 0.950 . S
C121 N117 1.374 . S
C121 C120 1.439 . S
C121 C146 1.395 . S
N122 Co111 1.995 . S
N122 C123 1.376 . S
N122 C126 1.383 . S
C123 N122 1.376 . S
C123 C124 1.446 . S
C123 C146 1.391 . S
C124 C123 1.446 . S
C124 C125 1.339 . S
C124 H153 0.949 . S
C125 C124 1.339 . S
C125 C126 1.439 . S
C125 H154 0.950 . S
C126 N122 1.383 . S
C126 C125 1.439 . S
C126 C144 1.392 . S
N127 Co111 2.282 . S
N127 C130 1.332 . S
N127 C132 1.332 . S
C128 C129 1.386 . S
C128 C131 1.388 . S
C129 C128 1.386 . S
C129 C130 1.382 . S
C129 H155 0.950 . S
C130 N127 1.332 . S
C130 C129 1.382 . S
C130 H141 0.952 . S
C131 C128 1.388 . S
C131 C132 1.382 . S
C131 H156 0.950 . S
C132 N127 1.332 . S
C132 C131 1.382 . S
C132 H142 0.948 . S
N133 Co111 2.282 . S
N133 C137 1.332 . S
N133 C138 1.332 . S
C134 C135 1.388 . S
C134 C138 1.382 . S
C134 H157 0.950 . S
C135 C134 1.388 . S
C135 C136 1.386 . S
C136 C135 1.386 . S
C136 C137 1.382 . S
C136 H158 0.950 . S
C137 N133 1.332 . S
C137 C136 1.382 . S
C137 H139 0.952 . S
C138 N133 1.332 . S
C138 C134 1.382 . S
C138 H140 0.948 . S
H139 C137 0.952 . S
H140 C138 0.948 . S
H141 C130 0.952 . S
H142 C132 0.948 . S
C143 C109 1.395 . S
C143 C113 1.391 . S
C144 C106 1.389 . S
C144 C126 1.392 . S
C145 C116 1.392 . S
C145 C118 1.389 . S
C146 C121 1.395 . S
C146 C123 1.391 . S
H147 C107 0.951 . S
H148 C108 0.950 . S
H149 C114 0.949 . S
H150 C115 0.950 . S
H151 C119 0.951 . S
H152 C120 0.950 . S
H153 C124 0.949 . S
H154 C125 0.950 . S
H155 C129 0.950 . S
H156 C131 0.950 . S
H157 C134 0.950 . S
H158 C136 0.950 . S
C159 C160 1.443 . S
C159 N163 1.376 . S
C159 C197 1.389 . S
C160 C159 1.443 . S
C160 C161 1.340 . S
C160 H200 0.951 . S
C161 C160 1.340 . S
C161 C162 1.439 . S
C161 H201 0.950 . S
C162 C161 1.439 . S
C162 N163 1.374 . S
C162 C196 1.395 . S
N163 C159 1.376 . S
N163 C162 1.374 . S
N163 Co164 2.008 . S
Co164 N163 2.008 . S
Co164 N165 1.995 . S
Co164 N170 2.008 . S
Co164 N175 1.995 . S
Co164 N180 2.282 . S
Co164 N186 2.282 . S
N165 Co164 1.995 . S
N165 C166 1.376 . S
N165 C169 1.383 . S
C166 N165 1.376 . S
C166 C167 1.446 . S
C166 C196 1.391 . S
C167 C166 1.446 . S
C167 C168 1.339 . S
C167 H202 0.949 . S
C168 C167 1.339 . S
C168 C169 1.439 . S
C168 H203 0.950 . S
C169 N165 1.383 . S
C169 C168 1.439 . S
C169 C198 1.392 . S
N170 Co164 2.008 . S
N170 C171 1.376 . S
N170 C174 1.374 . S
C171 N170 1.376 . S
C171 C172 1.443 . S
C171 C198 1.389 . S
C172 C171 1.443 . S
C172 C173 1.340 . S
C172 H204 0.951 . S
C173 C172 1.340 . S
C173 C174 1.439 . S
C173 H205 0.950 . S
C174 N170 1.374 . S
C174 C173 1.439 . S
C174 C199 1.395 . S
N175 Co164 1.995 . S
N175 C176 1.376 . S
N175 C179 1.383 . S
C176 N175 1.376 . S
C176 C177 1.446 . S
C176 C199 1.391 . S
C177 C176 1.446 . S
C177 C178 1.339 . S
C177 H206 0.949 . S
C178 C177 1.339 . S
C178 C179 1.439 . S
C178 H207 0.950 . S
C179 N175 1.383 . S
C179 C178 1.439 . S
C179 C197 1.392 . S
N180 Co164 2.282 . S
N180 C183 1.332 . S
N180 C185 1.332 . S
C181 C182 1.386 . S
C181 C184 1.388 . S
C182 C181 1.386 . S
C182 C183 1.382 . S
C182 H208 0.950 . S
C183 N180 1.332 . S
C183 C182 1.382 . S
C183 H194 0.952 . S
C184 C181 1.388 . S
C184 C185 1.382 . S
C184 H209 0.950 . S
C185 N180 1.332 . S
C185 C184 1.382 . S
C185 H195 0.948 . S
N186 Co164 2.282 . S
N186 C190 1.332 . S
N186 C191 1.332 . S
C187 C188 1.388 . S
C187 C191 1.382 . S
C187 H210 0.950 . S
C188 C187 1.388 . S
C188 C189 1.386 . S
C189 C188 1.386 . S
C189 C190 1.382 . S
C189 H211 0.950 . S
C190 N186 1.332 . S
C190 C189 1.382 . S
C190 H192 0.952 . S
C191 N186 1.332 . S
C191 C187 1.382 . S
C191 H193 0.948 . S
H192 C190 0.952 . S
H193 C191 0.948 . S
H194 C183 0.952 . S
H195 C185 0.948 . S
C196 C162 1.395 . S
C196 C166 1.391 . S
C197 C159 1.389 . S
C197 C179 1.392 . S
C198 C169 1.392 . S
C198 C171 1.389 . S
C199 C174 1.395 . S
C199 C176 1.391 . S
H200 C160 0.951 . S
H201 C161 0.950 . S
H202 C167 0.949 . S
H203 C168 0.950 . S
H204 C172 0.951 . S
H205 C173 0.950 . S
H206 C177 0.949 . S
H207 C178 0.950 . S
H208 C182 0.950 . S
H209 C184 0.950 . S
H210 C187 0.950 . S
H211 C189 0.950 . S
C212 C213 1.443 . S
C212 N216 1.376 . S
C212 C250 1.389 . S
C213 C212 1.443 . S
C213 C214 1.340 . S
C213 H253 0.951 . S
C214 C213 1.340 . S
C214 C215 1.439 . S
C214 H254 0.950 . S
C215 C214 1.439 . S
C215 N216 1.374 . S
C215 C249 1.395 . S
N216 C212 1.376 . S
N216 C215 1.374 . S
N216 Co217 2.008 . S
Co217 N216 2.008 . S
Co217 N218 1.995 . S
Co217 N223 2.008 . S
Co217 N228 1.995 . S
Co217 N233 2.282 . S
Co217 N239 2.282 . S
N218 Co217 1.995 . S
N218 C219 1.376 . S
N218 C222 1.383 . S
C219 N218 1.376 . S
C219 C220 1.446 . S
C219 C249 1.391 . S
C220 C219 1.446 . S
C220 C221 1.339 . S
C220 H255 0.949 . S
C221 C220 1.339 . S
C221 C222 1.439 . S
C221 H256 0.950 . S
C222 N218 1.383 . S
C222 C221 1.439 . S
C222 C251 1.392 . S
N223 Co217 2.008 . S
N223 C224 1.376 . S
N223 C227 1.374 . S
C224 N223 1.376 . S
C224 C225 1.443 . S
C224 C251 1.389 . S
C225 C224 1.443 . S
C225 C226 1.340 . S
C225 H257 0.951 . S
C226 C225 1.340 . S
C226 C227 1.439 . S
C226 H258 0.950 . S
C227 N223 1.374 . S
C227 C226 1.439 . S
C227 C252 1.395 . S
N228 Co217 1.995 . S
N228 C229 1.376 . S
N228 C232 1.383 . S
C229 N228 1.376 . S
C229 C230 1.446 . S
C229 C252 1.391 . S
C230 C229 1.446 . S
C230 C231 1.339 . S
C230 H259 0.949 . S
C231 C230 1.339 . S
C231 C232 1.439 . S
C231 H260 0.950 . S
C232 N228 1.383 . S
C232 C231 1.439 . S
C232 C250 1.392 . S
N233 Co217 2.282 . S
N233 C236 1.332 . S
N233 C238 1.332 . S
C234 C235 1.386 . S
C234 C237 1.388 . S
C235 C234 1.386 . S
C235 C236 1.382 . S
C235 H261 0.950 . S
C236 N233 1.332 . S
C236 C235 1.382 . S
C236 H247 0.952 . S
C237 C234 1.388 . S
C237 C238 1.382 . S
C237 H262 0.950 . S
C238 N233 1.332 . S
C238 C237 1.382 . S
C238 H248 0.948 . S
N239 Co217 2.282 . S
N239 C243 1.332 . S
N239 C244 1.332 . S
C240 C241 1.388 . S
C240 C244 1.382 . S
C240 H263 0.950 . S
C241 C240 1.388 . S
C241 C242 1.386 . S
C242 C241 1.386 . S
C242 C243 1.382 . S
C242 H264 0.950 . S
C243 N239 1.332 . S
C243 C242 1.382 . S
C243 H245 0.952 . S
C244 N239 1.332 . S
C244 C240 1.382 . S
C244 H246 0.948 . S
H245 C243 0.952 . S
H246 C244 0.948 . S
H247 C236 0.952 . S
H248 C238 0.948 . S
C249 C215 1.395 . S
C249 C219 1.391 . S
C250 C212 1.389 . S
C250 C232 1.392 . S
C251 C222 1.392 . S
C251 C224 1.389 . S
C252 C227 1.395 . S
C252 C229 1.391 . S
H253 C213 0.951 . S
H254 C214 0.950 . S
H255 C220 0.949 . S
H256 C221 0.950 . S
H257 C225 0.951 . S
H258 C226 0.950 . S
H259 C230 0.949 . S
H260 C231 0.950 . S
H261 C235 0.950 . S
H262 C237 0.950 . S
H263 C240 0.950 . S
H264 C242 0.950 . S
C265 C266 1.443 . S
C265 N269 1.376 . S
C265 C303 1.389 . S
C266 C265 1.443 . S
C266 C267 1.340 . S
C266 H306 0.951 . S
C267 C266 1.340 . S
C267 C268 1.439 . S
C267 H307 0.950 . S
C268 C267 1.439 . S
C268 N269 1.374 . S
C268 C302 1.395 . S
N269 C265 1.376 . S
N269 C268 1.374 . S
N269 Co270 2.008 . S
Co270 N269 2.008 . S
Co270 N271 1.995 . S
Co270 N276 2.008 . S
Co270 N281 1.995 . S
Co270 N286 2.282 . S
Co270 N292 2.282 . S
N271 Co270 1.995 . S
N271 C272 1.376 . S
N271 C275 1.383 . S
C272 N271 1.376 . S
C272 C273 1.446 . S
C272 C302 1.391 . S
C273 C272 1.446 . S
C273 C274 1.339 . S
C273 H308 0.949 . S
C274 C273 1.339 . S
C274 C275 1.439 . S
C274 H309 0.950 . S
C275 N271 1.383 . S
C275 C274 1.439 . S
C275 C304 1.392 . S
N276 Co270 2.008 . S
N276 C277 1.376 . S
N276 C280 1.374 . S
C277 N276 1.376 . S
C277 C278 1.443 . S
C277 C304 1.389 . S
C278 C277 1.443 . S
C278 C279 1.340 . S
C278 H310 0.951 . S
C279 C278 1.340 . S
C279 C280 1.439 . S
C279 H311 0.950 . S
C280 N276 1.374 . S
C280 C279 1.439 . S
C280 C305 1.395 . S
N281 Co270 1.995 . S
N281 C282 1.376 . S
N281 C285 1.383 . S
C282 N281 1.376 . S
C282 C283 1.446 . S
C282 C305 1.391 . S
C283 C282 1.446 . S
C283 C284 1.339 . S
C283 H312 0.949 . S
C284 C283 1.339 . S
C284 C285 1.439 . S
C284 H313 0.950 . S
C285 N281 1.383 . S
C285 C284 1.439 . S
C285 C303 1.392 . S
N286 Co270 2.282 . S
N286 C289 1.332 . S
N286 C291 1.332 . S
C287 C288 1.386 . S
C287 C290 1.388 . S
C288 C287 1.386 . S
C288 C289 1.382 . S
C288 H314 0.950 . S
C289 N286 1.332 . S
C289 C288 1.382 . S
C289 H300 0.952 . S
C290 C287 1.388 . S
C290 C291 1.382 . S
C290 H315 0.950 . S
C291 N286 1.332 . S
C291 C290 1.382 . S
C291 H301 0.948 . S
N292 Co270 2.282 . S
N292 C296 1.332 . S
N292 C297 1.332 . S
C293 C294 1.388 . S
C293 C297 1.382 . S
C293 H316 0.950 . S
C294 C293 1.388 . S
C294 C295 1.386 . S
C295 C294 1.386 . S
C295 C296 1.382 . S
C295 H317 0.950 . S
C296 N292 1.332 . S
C296 C295 1.382 . S
C296 H298 0.952 . S
C297 N292 1.332 . S
C297 C293 1.382 . S
C297 H299 0.948 . S
H298 C296 0.952 . S
H299 C297 0.948 . S
H300 C289 0.952 . S
H301 C291 0.948 . S
C302 C268 1.395 . S
C302 C272 1.391 . S
C303 C265 1.389 . S
C303 C285 1.392 . S
C304 C275 1.392 . S
C304 C277 1.389 . S
C305 C280 1.395 . S
C305 C282 1.391 . S
H306 C266 0.951 . S
H307 C267 0.950 . S
H308 C273 0.949 . S
H309 C274 0.950 . S
H310 C278 0.951 . S
H311 C279 0.950 . S
H312 C283 0.949 . S
H313 C284 0.950 . S
H314 C288 0.950 . S
H315 C290 0.950 . S
H316 C293 0.950 . S
H317 C295 0.950 . S
C318 C319 1.443 . S
C318 N322 1.376 . S
C318 C356 1.389 . S
C319 C318 1.443 . S
C319 C320 1.340 . S
C319 H359 0.951 . S
C320 C319 1.340 . S
C320 C321 1.439 . S
C320 H360 0.950 . S
C321 C320 1.439 . S
C321 N322 1.374 . S
C321 C355 1.395 . S
N322 C318 1.376 . S
N322 C321 1.374 . S
N322 Co323 2.008 . S
Co323 N322 2.008 . S
Co323 N324 1.995 . S
Co323 N329 2.008 . S
Co323 N334 1.995 . S
Co323 N339 2.282 . S
Co323 N345 2.282 . S
N324 Co323 1.995 . S
N324 C325 1.376 . S
N324 C328 1.383 . S
C325 N324 1.376 . S
C325 C326 1.446 . S
C325 C355 1.391 . S
C326 C325 1.446 . S
C326 C327 1.339 . S
C326 H361 0.949 . S
C327 C326 1.339 . S
C327 C328 1.439 . S
C327 H362 0.950 . S
C328 N324 1.383 . S
C328 C327 1.439 . S
C328 C357 1.392 . S
N329 Co323 2.008 . S
N329 C330 1.376 . S
N329 C333 1.374 . S
C330 N329 1.376 . S
C330 C331 1.443 . S
C330 C357 1.389 . S
C331 C330 1.443 . S
C331 C332 1.340 . S
C331 H363 0.951 . S
C332 C331 1.340 . S
C332 C333 1.439 . S
C332 H364 0.950 . S
C333 N329 1.374 . S
C333 C332 1.439 . S
C333 C358 1.395 . S
N334 Co323 1.995 . S
N334 C335 1.376 . S
N334 C338 1.383 . S
C335 N334 1.376 . S
C335 C336 1.446 . S
C335 C358 1.391 . S
C336 C335 1.446 . S
C336 C337 1.339 . S
C336 H365 0.949 . S
C337 C336 1.339 . S
C337 C338 1.439 . S
C337 H366 0.950 . S
C338 N334 1.383 . S
C338 C337 1.439 . S
C338 C356 1.392 . S
N339 Co323 2.282 . S
N339 C342 1.332 . S
N339 C344 1.332 . S
C340 C341 1.386 . S
C340 C343 1.388 . S
C341 C340 1.386 . S
C341 C342 1.382 . S
C341 H367 0.950 . S
C342 N339 1.332 . S
C342 C341 1.382 . S
C342 H353 0.952 . S
C343 C340 1.388 . S
C343 C344 1.382 . S
C343 H368 0.950 . S
C344 N339 1.332 . S
C344 C343 1.382 . S
C344 H354 0.948 . S
N345 Co323 2.282 . S
N345 C349 1.332 . S
N345 C350 1.332 . S
C346 C347 1.388 . S
C346 C350 1.382 . S
C346 H369 0.950 . S
C347 C346 1.388 . S
C347 C348 1.386 . S
C348 C347 1.386 . S
C348 C349 1.382 . S
C348 H370 0.950 . S
C349 N345 1.332 . S
C349 C348 1.382 . S
C349 H351 0.952 . S
C350 N345 1.332 . S
C350 C346 1.382 . S
C350 H352 0.948 . S
H351 C349 0.952 . S
H352 C350 0.948 . S
H353 C342 0.952 . S
H354 C344 0.948 . S
C355 C321 1.395 . S
C355 C325 1.391 . S
C356 C318 1.389 . S
C356 C338 1.392 . S
C357 C328 1.392 . S
C357 C330 1.389 . S
C358 C333 1.395 . S
C358 C335 1.391 . S
H359 C319 0.951 . S
H360 C320 0.950 . S
H361 C326 0.949 . S
H362 C327 0.950 . S
H363 C331 0.951 . S
H364 C332 0.950 . S
H365 C336 0.949 . S
H366 C337 0.950 . S
H367 C341 0.950 . S
H368 C343 0.950 . S
H369 C346 0.950 . S
H370 C348 0.950 . S
C371 C372 1.443 . S
C371 N375 1.376 . S
C371 C409 1.389 . S
C372 C371 1.443 . S
C372 C373 1.340 . S
C372 H412 0.951 . S
C373 C372 1.340 . S
C373 C374 1.439 . S
C373 H413 0.950 . S
C374 C373 1.439 . S
C374 N375 1.374 . S
C374 C408 1.395 . S
N375 C371 1.376 . S
N375 C374 1.374 . S
N375 Co376 2.008 . S
Co376 N375 2.008 . S
Co376 N377 1.995 . S
Co376 N382 2.008 . S
Co376 N387 1.995 . S
Co376 N392 2.282 . S
Co376 N398 2.282 . S
N377 Co376 1.995 . S
N377 C378 1.376 . S
N377 C381 1.383 . S
C378 N377 1.376 . S
C378 C379 1.446 . S
C378 C408 1.391 . S
C379 C378 1.446 . S
C379 C380 1.339 . S
C379 H414 0.949 . S
C380 C379 1.339 . S
C380 C381 1.439 . S
C380 H415 0.950 . S
C381 N377 1.383 . S
C381 C380 1.439 . S
C381 C410 1.392 . S
N382 Co376 2.008 . S
N382 C383 1.376 . S
N382 C386 1.374 . S
C383 N382 1.376 . S
C383 C384 1.443 . S
C383 C410 1.389 . S
C384 C383 1.443 . S
C384 C385 1.340 . S
C384 H416 0.951 . S
C385 C384 1.340 . S
C385 C386 1.439 . S
C385 H417 0.950 . S
C386 N382 1.374 . S
C386 C385 1.439 . S
C386 C411 1.395 . S
N387 Co376 1.995 . S
N387 C388 1.376 . S
N387 C391 1.383 . S
C388 N387 1.376 . S
C388 C389 1.446 . S
C388 C411 1.391 . S
C389 C388 1.446 . S
C389 C390 1.339 . S
C389 H418 0.949 . S
C390 C389 1.339 . S
C390 C391 1.439 . S
C390 H419 0.950 . S
C391 N387 1.383 . S
C391 C390 1.439 . S
C391 C409 1.392 . S
N392 Co376 2.282 . S
N392 C395 1.332 . S
N392 C397 1.332 . S
C393 C394 1.386 . S
C393 C396 1.388 . S
C394 C393 1.386 . S
C394 C395 1.382 . S
C394 H420 0.950 . S
C395 N392 1.332 . S
C395 C394 1.382 . S
C395 H406 0.952 . S
C396 C393 1.388 . S
C396 C397 1.382 . S
C396 H421 0.950 . S
C397 N392 1.332 . S
C397 C396 1.382 . S
C397 H407 0.948 . S
N398 Co376 2.282 . S
N398 C402 1.332 . S
N398 C403 1.332 . S
C399 C400 1.388 . S
C399 C403 1.382 . S
C399 H422 0.950 . S
C400 C399 1.388 . S
C400 C401 1.386 . S
C401 C400 1.386 . S
C401 C402 1.382 . S
C401 H423 0.950 . S
C402 N398 1.332 . S
C402 C401 1.382 . S
C402 H404 0.952 . S
C403 N398 1.332 . S
C403 C399 1.382 . S
C403 H405 0.948 . S
H404 C402 0.952 . S
H405 C403 0.948 . S
H406 C395 0.952 . S
H407 C397 0.948 . S
C408 C374 1.395 . S
C408 C378 1.391 . S
C409 C371 1.389 . S
C409 C391 1.392 . S
C410 C381 1.392 . S
C410 C383 1.389 . S
C411 C386 1.395 . S
C411 C388 1.391 . S
H412 C372 0.951 . S
H413 C373 0.950 . S
H414 C379 0.949 . S
H415 C380 0.950 . S
H416 C384 0.951 . S
H417 C385 0.950 . S
H418 C389 0.949 . S
H419 C390 0.950 . S
H420 C394 0.950 . S
H421 C396 0.950 . S
H422 C399 0.950 . S
H423 C401 0.950 . S
C424 C425 1.443 . S
C424 N428 1.376 . S
C424 C462 1.389 . S
C425 C424 1.443 . S
C425 C426 1.340 . S
C425 H465 0.951 . S
C426 C425 1.340 . S
C426 C427 1.439 . S
C426 H466 0.950 . S
C427 C426 1.439 . S
C427 N428 1.374 . S
C427 C461 1.395 . S
N428 C424 1.376 . S
N428 C427 1.374 . S
N428 Co429 2.008 . S
Co429 N428 2.008 . S
Co429 N430 1.995 . S
Co429 N435 2.008 . S
Co429 N440 1.995 . S
Co429 N445 2.282 . S
Co429 N451 2.282 . S
N430 Co429 1.995 . S
N430 C431 1.376 . S
N430 C434 1.383 . S
C431 N430 1.376 . S
C431 C432 1.446 . S
C431 C461 1.391 . S
C432 C431 1.446 . S
C432 C433 1.339 . S
C432 H467 0.949 . S
C433 C432 1.339 . S
C433 C434 1.439 . S
C433 H468 0.950 . S
C434 N430 1.383 . S
C434 C433 1.439 . S
C434 C463 1.392 . S
N435 Co429 2.008 . S
N435 C436 1.376 . S
N435 C439 1.374 . S
C436 N435 1.376 . S
C436 C437 1.443 . S
C436 C463 1.389 . S
C437 C436 1.443 . S
C437 C438 1.340 . S
C437 H469 0.951 . S
C438 C437 1.340 . S
C438 C439 1.439 . S
C438 H470 0.950 . S
C439 N435 1.374 . S
C439 C438 1.439 . S
C439 C464 1.395 . S
N440 Co429 1.995 . S
N440 C441 1.376 . S
N440 C444 1.383 . S
C441 N440 1.376 . S
C441 C442 1.446 . S
C441 C464 1.391 . S
C442 C441 1.446 . S
C442 C443 1.339 . S
C442 H471 0.949 . S
C443 C442 1.339 . S
C443 C444 1.439 . S
C443 H472 0.950 . S
C444 N440 1.383 . S
C444 C443 1.439 . S
C444 C462 1.392 . S
N445 Co429 2.282 . S
N445 C448 1.332 . S
N445 C450 1.332 . S
C446 C447 1.386 . S
C446 C449 1.388 . S
C447 C446 1.386 . S
C447 C448 1.382 . S
C447 H473 0.950 . S
C448 N445 1.332 . S
C448 C447 1.382 . S
C448 H459 0.952 . S
C449 C446 1.388 . S
C449 C450 1.382 . S
C449 H474 0.950 . S
C450 N445 1.332 . S
C450 C449 1.382 . S
C450 H460 0.948 . S
N451 Co429 2.282 . S
N451 C455 1.332 . S
N451 C456 1.332 . S
C452 C453 1.388 . S
C452 C456 1.382 . S
C452 H475 0.950 . S
C453 C452 1.388 . S
C453 C454 1.386 . S
C454 C453 1.386 . S
C454 C455 1.382 . S
C454 H476 0.950 . S
C455 N451 1.332 . S
C455 C454 1.382 . S
C455 H457 0.952 . S
C456 N451 1.332 . S
C456 C452 1.382 . S
C456 H458 0.948 . S
H457 C455 0.952 . S
H458 C456 0.948 . S
H459 C448 0.952 . S
H460 C450 0.948 . S
C461 C427 1.395 . S
C461 C431 1.391 . S
C462 C424 1.389 . S
C462 C444 1.392 . S
C463 C434 1.392 . S
C463 C436 1.389 . S
C464 C439 1.395 . S
C464 C441 1.391 . S
H465 C425 0.951 . S
H466 C426 0.950 . S
H467 C432 0.949 . S
H468 C433 0.950 . S
H469 C437 0.951 . S
H470 C438 0.950 . S
H471 C442 0.949 . S
H472 C443 0.950 . S
H473 C447 0.950 . S
H474 C449 0.950 . S
H475 C452 0.950 . S
H476 C454 0.950 . S
C477 C478 1.443 . S
C477 N481 1.376 . S
C477 C515 1.389 . S
C478 C477 1.443 . S
C478 C479 1.340 . S
C478 H518 0.951 . S
C479 C478 1.340 . S
C479 C480 1.439 . S
C479 H519 0.950 . S
C480 C479 1.439 . S
C480 N481 1.374 . S
C480 C514 1.395 . S
N481 C477 1.376 . S
N481 C480 1.374 . S
N481 Co482 2.008 . S
Co482 N481 2.008 . S
Co482 N483 1.995 . S
Co482 N488 2.008 . S
Co482 N493 1.995 . S
Co482 N498 2.282 . S
Co482 N504 2.282 . S
N483 Co482 1.995 . S
N483 C484 1.376 . S
N483 C487 1.383 . S
C484 N483 1.376 . S
C484 C485 1.446 . S
C484 C514 1.391 . S
C485 C484 1.446 . S
C485 C486 1.339 . S
C485 H520 0.949 . S
C486 C485 1.339 . S
C486 C487 1.439 . S
C486 H521 0.950 . S
C487 N483 1.383 . S
C487 C486 1.439 . S
C487 C516 1.392 . S
N488 Co482 2.008 . S
N488 C489 1.376 . S
N488 C492 1.374 . S
C489 N488 1.376 . S
C489 C490 1.443 . S
C489 C516 1.389 . S
C490 C489 1.443 . S
C490 C491 1.340 . S
C490 H522 0.951 . S
C491 C490 1.340 . S
C491 C492 1.439 . S
C491 H523 0.950 . S
C492 N488 1.374 . S
C492 C491 1.439 . S
C492 C517 1.395 . S
N493 Co482 1.995 . S
N493 C494 1.376 . S
N493 C497 1.383 . S
C494 N493 1.376 . S
C494 C495 1.446 . S
C494 C517 1.391 . S
C495 C494 1.446 . S
C495 C496 1.339 . S
C495 H524 0.949 . S
C496 C495 1.339 . S
C496 C497 1.439 . S
C496 H525 0.950 . S
C497 N493 1.383 . S
C497 C496 1.439 . S
C497 C515 1.392 . S
N498 Co482 2.282 . S
N498 C501 1.332 . S
N498 C503 1.332 . S
C499 C500 1.386 . S
C499 C502 1.388 . S
C500 C499 1.386 . S
C500 C501 1.382 . S
C500 H526 0.950 . S
C501 N498 1.332 . S
C501 C500 1.382 . S
C501 H512 0.952 . S
C502 C499 1.388 . S
C502 C503 1.382 . S
C502 H527 0.950 . S
C503 N498 1.332 . S
C503 C502 1.382 . S
C503 H513 0.948 . S
N504 Co482 2.282 . S
N504 C508 1.332 . S
N504 C509 1.332 . S
C505 C506 1.388 . S
C505 C509 1.382 . S
C505 H528 0.950 . S
C506 C505 1.388 . S
C506 C507 1.386 . S
C507 C506 1.386 . S
C507 C508 1.382 . S
C507 H529 0.950 . S
C508 N504 1.332 . S
C508 C507 1.382 . S
C508 H510 0.952 . S
C509 N504 1.332 . S
C509 C505 1.382 . S
C509 H511 0.948 . S
H510 C508 0.952 . S
H511 C509 0.948 . S
H512 C501 0.952 . S
H513 C503 0.948 . S
C514 C480 1.395 . S
C514 C484 1.391 . S
C515 C477 1.389 . S
C515 C497 1.392 . S
C516 C487 1.392 . S
C516 C489 1.389 . S
C517 C492 1.395 . S
C517 C494 1.391 . S
H518 C478 0.951 . S
H519 C479 0.950 . S
H520 C485 0.949 . S
H521 C486 0.950 . S
H522 C490 0.951 . S
H523 C491 0.950 . S
H524 C495 0.949 . S
H525 C496 0.950 . S
H526 C500 0.950 . S
H527 C502 0.950 . S
H528 C505 0.950 . S
H529 C507 0.950 . S
C530 C531 1.443 . S
C530 N534 1.376 . S
C530 C568 1.389 . S
C531 C530 1.443 . S
C531 C532 1.340 . S
C531 H571 0.951 . S
C532 C531 1.340 . S
C532 C533 1.439 . S
C532 H572 0.950 . S
C533 C532 1.439 . S
C533 N534 1.374 . S
C533 C567 1.395 . S
N534 C530 1.376 . S
N534 C533 1.374 . S
N534 Co535 2.008 . S
Co535 N534 2.008 . S
Co535 N536 1.995 . S
Co535 N541 2.008 . S
Co535 N546 1.995 . S
Co535 N551 2.282 . S
Co535 N557 2.282 . S
N536 Co535 1.995 . S
N536 C537 1.376 . S
N536 C540 1.383 . S
C537 N536 1.376 . S
C537 C538 1.446 . S
C537 C567 1.391 . S
C538 C537 1.446 . S
C538 C539 1.339 . S
C538 H573 0.949 . S
C539 C538 1.339 . S
C539 C540 1.439 . S
C539 H574 0.950 . S
C540 N536 1.383 . S
C540 C539 1.439 . S
C540 C569 1.392 . S
N541 Co535 2.008 . S
N541 C542 1.376 . S
N541 C545 1.374 . S
C542 N541 1.376 . S
C542 C543 1.443 . S
C542 C569 1.389 . S
C543 C542 1.443 . S
C543 C544 1.340 . S
C543 H575 0.951 . S
C544 C543 1.340 . S
C544 C545 1.439 . S
C544 H576 0.950 . S
C545 N541 1.374 . S
C545 C544 1.439 . S
C545 C570 1.395 . S
N546 Co535 1.995 . S
N546 C547 1.376 . S
N546 C550 1.383 . S
C547 N546 1.376 . S
C547 C548 1.446 . S
C547 C570 1.391 . S
C548 C547 1.446 . S
C548 C549 1.339 . S
C548 H577 0.949 . S
C549 C548 1.339 . S
C549 C550 1.439 . S
C549 H578 0.950 . S
C550 N546 1.383 . S
C550 C549 1.439 . S
C550 C568 1.392 . S
N551 Co535 2.282 . S
N551 C554 1.332 . S
N551 C556 1.332 . S
C552 C553 1.386 . S
C552 C555 1.388 . S
C553 C552 1.386 . S
C553 C554 1.382 . S
C553 H579 0.950 . S
C554 N551 1.332 . S
C554 C553 1.382 . S
C554 H565 0.952 . S
C555 C552 1.388 . S
C555 C556 1.382 . S
C555 H580 0.950 . S
C556 N551 1.332 . S
C556 C555 1.382 . S
C556 H566 0.948 . S
N557 Co535 2.282 . S
N557 C561 1.332 . S
N557 C562 1.332 . S
C558 C559 1.388 . S
C558 C562 1.382 . S
C558 H581 0.950 . S
C559 C558 1.388 . S
C559 C560 1.386 . S
C560 C559 1.386 . S
C560 C561 1.382 . S
C560 H582 0.950 . S
C561 N557 1.332 . S
C561 C560 1.382 . S
C561 H563 0.952 . S
C562 N557 1.332 . S
C562 C558 1.382 . S
C562 H564 0.948 . S
H563 C561 0.952 . S
H564 C562 0.948 . S
H565 C554 0.952 . S
H566 C556 0.948 . S
C567 C533 1.395 . S
C567 C537 1.391 . S
C568 C530 1.389 . S
C568 C550 1.392 . S
C569 C540 1.392 . S
C569 C542 1.389 . S
C570 C545 1.395 . S
C570 C547 1.391 . S
H571 C531 0.951 . S
H572 C532 0.950 . S
H573 C538 0.949 . S
H574 C539 0.950 . S
H575 C543 0.951 . S
H576 C544 0.950 . S
H577 C548 0.949 . S
H578 C549 0.950 . S
H579 C553 0.950 . S
H580 C555 0.950 . S
H581 C558 0.950 . S
H582 C560 0.950 . S
C583 C584 1.443 . S
C583 N587 1.376 . S
C583 C621 1.389 . S
C584 C583 1.443 . S
C584 C585 1.340 . S
C584 H624 0.951 . S
C585 C584 1.340 . S
C585 C586 1.439 . S
C585 H625 0.950 . S
C586 C585 1.439 . S
C586 N587 1.374 . S
C586 C620 1.395 . S
N587 C583 1.376 . S
N587 C586 1.374 . S
N587 Co588 2.008 . S
Co588 N587 2.008 . S
Co588 N589 1.995 . S
Co588 N594 2.008 . S
Co588 N599 1.995 . S
Co588 N604 2.282 . S
Co588 N610 2.282 . S
N589 Co588 1.995 . S
N589 C590 1.376 . S
N589 C593 1.383 . S
C590 N589 1.376 . S
C590 C591 1.446 . S
C590 C620 1.391 . S
C591 C590 1.446 . S
C591 C592 1.339 . S
C591 H626 0.949 . S
C592 C591 1.339 . S
C592 C593 1.439 . S
C592 H627 0.950 . S
C593 N589 1.383 . S
C593 C592 1.439 . S
C593 C622 1.392 . S
N594 Co588 2.008 . S
N594 C595 1.376 . S
N594 C598 1.374 . S
C595 N594 1.376 . S
C595 C596 1.443 . S
C595 C622 1.389 . S
C596 C595 1.443 . S
C596 C597 1.340 . S
C596 H628 0.951 . S
C597 C596 1.340 . S
C597 C598 1.439 . S
C597 H629 0.950 . S
C598 N594 1.374 . S
C598 C597 1.439 . S
C598 C623 1.395 . S
N599 Co588 1.995 . S
N599 C600 1.376 . S
N599 C603 1.383 . S
C600 N599 1.376 . S
C600 C601 1.446 . S
C600 C623 1.391 . S
C601 C600 1.446 . S
C601 C602 1.339 . S
C601 H630 0.949 . S
C602 C601 1.339 . S
C602 C603 1.439 . S
C602 H631 0.950 . S
C603 N599 1.383 . S
C603 C602 1.439 . S
C603 C621 1.392 . S
N604 Co588 2.282 . S
N604 C607 1.332 . S
N604 C609 1.332 . S
C605 C606 1.386 . S
C605 C608 1.388 . S
C606 C605 1.386 . S
C606 C607 1.382 . S
C606 H632 0.950 . S
C607 N604 1.332 . S
C607 C606 1.382 . S
C607 H618 0.952 . S
C608 C605 1.388 . S
C608 C609 1.382 . S
C608 H633 0.950 . S
C609 N604 1.332 . S
C609 C608 1.382 . S
C609 H619 0.948 . S
N610 Co588 2.282 . S
N610 C614 1.332 . S
N610 C615 1.332 . S
C611 C612 1.388 . S
C611 C615 1.382 . S
C611 H634 0.950 . S
C612 C611 1.388 . S
C612 C613 1.386 . S
C613 C612 1.386 . S
C613 C614 1.382 . S
C613 H635 0.950 . S
C614 N610 1.332 . S
C614 C613 1.382 . S
C614 H616 0.952 . S
C615 N610 1.332 . S
C615 C611 1.382 . S
C615 H617 0.948 . S
H616 C614 0.952 . S
H617 C615 0.948 . S
H618 C607 0.952 . S
H619 C609 0.948 . S
C620 C586 1.395 . S
C620 C590 1.391 . S
C621 C583 1.389 . S
C621 C603 1.392 . S
C622 C593 1.392 . S
C622 C595 1.389 . S
C623 C598 1.395 . S
C623 C600 1.391 . S
H624 C584 0.951 . S
H625 C585 0.950 . S
H626 C591 0.949 . S
H627 C592 0.950 . S
H628 C596 0.951 . S
H629 C597 0.950 . S
H630 C601 0.949 . S
H631 C602 0.950 . S
H632 C606 0.950 . S
H633 C608 0.950 . S
H634 C611 0.950 . S
H635 C613 0.950 . S
H636 C648 0.930 . S
H637 C650 0.930 . S
H638 C651 0.930 . S
H639 C655 0.959 . S
H640 C655 0.959 1_554 S
H641 C655 0.961 . S
H642 C656 0.921 1_556 S
H643 C656 0.995 . S
H644 C656 0.968 . S
H645 C659 0.929 . S
H646 C660 0.931 . S
H647 C662 0.930 . S
C648 H636 0.930 . S
C648 C649 1.399 . S
C648 C653 1.399 . S
C649 C648 1.399 . S
C649 C650 1.376 . S
C650 H637 0.930 . S
C650 C649 1.376 . S
C650 C651 1.388 . S
C651 H638 0.930 . S
C651 C650 1.388 . S
C651 C652 1.390 . S
C652 C651 1.390 . S
C652 C653 1.394 . S
C652 C658 1.465 1_556 S
C653 C648 1.399 . S
C653 C652 1.394 . S
C653 C654 1.543 . S
C654 C653 1.543 . S
C654 C655 1.505 . S
C654 C656 1.558 1_556 S
C654 C657 1.498 1_556 S
C655 H639 0.959 . S
C655 H640 0.959 1_556 S
C655 H641 0.961 . S
C655 C654 1.505 . S
C656 H642 0.921 1_554 S
C656 H643 0.995 . S
C656 H644 0.968 . S
C656 C654 1.558 1_554 S
C657 C654 1.498 1_554 S
C657 C658 1.396 . S
C657 C662 1.390 . S
C658 C652 1.465 1_554 S
C658 C657 1.396 . S
C658 C659 1.399 . S
C659 H645 0.929 . S
C659 C658 1.399 . S
C659 C660 1.385 . S
C660 H646 0.931 . S
C660 C659 1.385 . S
C660 C661 1.389 . S
C661 C660 1.389 . S
C661 C662 1.387 . S
C662 H647 0.930 . S
C662 C657 1.390 . S
C662 C661 1.387 . S
H663 C675 0.930 . S
H664 C677 0.930 . S
H665 C678 0.930 . S
H666 C682 0.959 . S
H667 C682 0.959 . S
H668 C682 0.961 . S
H669 C683 0.960 . S
H670 C683 0.961 . S
H671 C683 0.959 . S
H672 C686 0.929 . S
H673 C687 0.931 . S
H674 C689 0.930 . S
C675 H663 0.930 . S
C675 C676 1.399 . S
C675 C680 1.399 . S
C676 C675 1.399 . S
C676 C677 1.376 . S
C677 H664 0.930 . S
C677 C676 1.376 . S
C677 C678 1.388 . S
C678 H665 0.930 . S
C678 C677 1.388 . S
C678 C679 1.390 . S
C679 C678 1.390 . S
C679 C680 1.394 . S
C679 C685 1.465 . S
C680 C675 1.399 . S
C680 C679 1.394 . S
C680 C681 1.516 . S
C681 C680 1.516 . S
C681 C682 1.502 . S
C681 C683 1.561 . S
C681 C684 1.526 . S
C682 H666 0.959 . S
C682 H667 0.959 . S
C682 H668 0.961 . S
C682 C681 1.502 . S
C683 H669 0.960 . S
C683 H670 0.961 . S
C683 H671 0.959 . S
C683 C681 1.561 . S
C684 C681 1.526 . S
C684 C685 1.396 . S
C684 C689 1.390 . S
C685 C679 1.465 . S
C685 C684 1.396 . S
C685 C686 1.399 . S
C686 H672 0.929 . S
C686 C685 1.399 . S
C686 C687 1.385 . S
C687 H673 0.931 . S
C687 C686 1.385 . S
C687 C688 1.389 . S
C688 C687 1.389 . S
C688 C689 1.387 . S
C689 H674 0.930 . S
C689 C684 1.390 . S
C689 C688 1.387 . S
H690 C702 0.930 . S
H691 C704 0.930 . S
H692 C705 0.930 . S
H693 C709 0.959 . S
H694 C709 0.959 . S
H695 C709 0.961 . S
H696 C710 0.960 . S
H697 C710 0.961 . S
H698 C710 0.959 . S
H699 C713 0.929 . S
H700 C714 0.931 . S
H701 C716 0.930 . S
C702 H690 0.930 . S
C702 C703 1.399 . S
C702 C707 1.399 . S
C703 C702 1.399 . S
C703 C704 1.376 . S
C704 H691 0.930 . S
C704 C703 1.376 . S
C704 C705 1.388 . S
C705 H692 0.930 . S
C705 C704 1.388 . S
C705 C706 1.390 . S
C706 C705 1.390 . S
C706 C707 1.394 . S
C706 C712 1.465 . S
C707 C702 1.399 . S
C707 C706 1.394 . S
C707 C708 1.516 . S
C708 C707 1.516 . S
C708 C709 1.502 . S
C708 C710 1.561 . S
C708 C711 1.526 . S
C709 H693 0.959 . S
C709 H694 0.959 . S
C709 H695 0.961 . S
C709 C708 1.502 . S
C710 H696 0.960 . S
C710 H697 0.961 . S
C710 H698 0.959 . S
C710 C708 1.561 . S
C711 C708 1.526 . S
C711 C712 1.396 . S
C711 C716 1.390 . S
C712 C706 1.465 . S
C712 C711 1.396 . S
C712 C713 1.399 . S
C713 H699 0.929 . S
C713 C712 1.399 . S
C713 C714 1.385 . S
C714 H700 0.931 . S
C714 C713 1.385 . S
C714 C715 1.389 . S
C715 C714 1.389 . S
C715 C716 1.387 . S
C716 H701 0.930 . S
C716 C711 1.390 . S
C716 C715 1.387 . S
H717 C729 0.930 . S
H718 C731 0.930 . S
H719 C732 0.930 . S
H720 C736 0.959 . S
H721 C736 0.959 1_556 S
H722 C736 0.961 . S
H723 C737 0.960 . S
H724 C737 0.961 1_556 S
H725 C737 0.961 . S
H726 C740 0.929 . S
H727 C741 0.931 . S
H728 C743 0.930 . S
C729 H717 0.930 . S
C729 C730 1.399 . S
C729 C734 1.399 . S
C730 C729 1.399 . S
C730 C731 1.376 . S
C731 H718 0.930 . S
C731 C730 1.376 . S
C731 C732 1.388 . S
C732 H719 0.930 . S
C732 C731 1.388 . S
C732 C733 1.390 . S
C733 C732 1.390 . S
C733 C734 1.394 . S
C733 C739 1.465 1_554 S
C734 C729 1.399 . S
C734 C733 1.394 . S
C734 C735 1.516 . S
C735 C734 1.516 . S
C735 C736 1.502 . S
C735 C737 1.561 . S
C735 C738 1.526 1_554 S
C736 H720 0.959 . S
C736 H721 0.959 1_554 S
C736 H722 0.961 . S
C736 C735 1.502 . S
C737 H723 0.960 . S
C737 H724 0.961 1_554 S
C737 H725 0.961 . S
C737 C735 1.561 . S
C738 C735 1.526 1_556 S
C738 C739 1.396 . S
C738 C743 1.390 . S
C739 C733 1.465 1_556 S
C739 C738 1.396 . S
C739 C740 1.399 . S
C740 H726 0.929 . S
C740 C739 1.399 . S
C740 C741 1.385 . S
C741 H727 0.931 . S
C741 C740 1.385 . S
C741 C742 1.389 . S
C742 C741 1.389 . S
C742 C743 1.387 . S
C743 H728 0.930 . S
C743 C738 1.390 . S
C743 C742 1.387 . S
H744 C756 0.930 . S
H745 C758 0.930 . S
H746 C759 0.930 . S
H747 C763 0.959 . S
H748 C763 0.959 . S
H749 C763 0.961 . S
H750 C764 0.960 . S
H751 C764 0.961 . S
H752 C764 0.959 . S
H753 C767 0.929 . S
H754 C768 0.931 . S
H755 C770 0.930 . S
C756 H744 0.930 . S
C756 C757 1.399 . S
C756 C761 1.399 . S
C757 C756 1.399 . S
C757 C758 1.376 . S
C758 H745 0.930 . S
C758 C757 1.376 . S
C758 C759 1.388 . S
C759 H746 0.930 . S
C759 C758 1.388 . S
C759 C760 1.390 . S
C760 C759 1.390 . S
C760 C761 1.394 . S
C760 C766 1.465 . S
C761 C756 1.399 . S
C761 C760 1.394 . S
C761 C762 1.516 . S
C762 C761 1.516 . S
C762 C763 1.502 . S
C762 C764 1.561 . S
C762 C765 1.526 . S
C763 H747 0.959 . S
C763 H748 0.959 . S
C763 H749 0.961 . S
C763 C762 1.502 . S
C764 H750 0.960 . S
C764 H751 0.961 . S
C764 H752 0.959 . S
C764 C762 1.561 . S
C765 C762 1.526 . S
C765 C766 1.396 . S
C765 C770 1.390 . S
C766 C760 1.465 . S
C766 C765 1.396 . S
C766 C767 1.399 . S
C767 H753 0.929 . S
C767 C766 1.399 . S
C767 C768 1.385 . S
C768 H754 0.931 . S
C768 C767 1.385 . S
C768 C769 1.389 . S
C769 C768 1.389 . S
C769 C770 1.387 . S
C770 H755 0.930 . S
C770 C765 1.390 . S
C770 C769 1.387 . S
H771 C783 0.930 . S
H772 C785 0.930 . S
H773 C786 0.930 . S
H774 C790 0.959 . S
H775 C790 0.959 . S
H776 C790 0.961 . S
H777 C791 0.960 . S
H778 C791 0.961 . S
H779 C791 0.959 . S
H780 C794 0.929 . S
H781 C795 0.931 . S
H782 C797 0.930 . S
C783 H771 0.930 . S
C783 C784 1.399 . S
C783 C788 1.399 . S
C784 C783 1.399 . S
C784 C785 1.376 . S
C785 H772 0.930 . S
C785 C784 1.376 . S
C785 C786 1.388 . S
C786 H773 0.930 . S
C786 C785 1.388 . S
C786 C787 1.390 . S
C787 C786 1.390 . S
C787 C788 1.394 . S
C787 C793 1.465 . S
C788 C783 1.399 . S
C788 C787 1.394 . S
C788 C789 1.516 . S
C789 C788 1.516 . S
C789 C790 1.502 . S
C789 C791 1.561 . S
C789 C792 1.526 . S
C790 H774 0.959 . S
C790 H775 0.959 . S
C790 H776 0.961 . S
C790 C789 1.502 . S
C791 H777 0.960 . S
C791 H778 0.961 . S
C791 H779 0.959 . S
C791 C789 1.561 . S
C792 C789 1.526 . S
C792 C793 1.396 . S
C792 C797 1.390 . S
C793 C787 1.465 . S
C793 C792 1.396 . S
C793 C794 1.399 . S
C794 H780 0.929 . S
C794 C793 1.399 . S
C794 C795 1.385 . S
C795 H781 0.931 . S
C795 C794 1.385 . S
C795 C796 1.389 . S
C796 C795 1.389 . S
C796 C797 1.387 . S
C797 H782 0.930 . S
C797 C792 1.390 . S
C797 C796 1.387 . S
H798 C810 0.930 . S
H799 C812 0.930 . S
H800 C813 0.930 . S
H801 C817 0.959 . S
H802 C817 0.959 . S
H803 C817 0.961 . S
H804 C818 0.960 . S
H805 C818 0.961 . S
H806 C818 0.959 . S
H807 C821 0.929 . S
H808 C822 0.931 . S
H809 C824 0.930 . S
C810 H798 0.930 . S
C810 C811 1.399 . S
C810 C815 1.399 . S
C811 C810 1.399 . S
C811 C812 1.376 . S
C812 H799 0.930 . S
C812 C811 1.376 . S
C812 C813 1.388 . S
C813 H800 0.930 . S
C813 C812 1.388 . S
C813 C814 1.390 . S
C814 C813 1.390 . S
C814 C815 1.394 . S
C814 C820 1.465 . S
C815 C810 1.399 . S
C815 C814 1.394 . S
C815 C816 1.516 . S
C816 C815 1.516 . S
C816 C817 1.502 . S
C816 C818 1.561 . S
C816 C819 1.526 . S
C817 H801 0.959 . S
C817 H802 0.959 . S
C817 H803 0.961 . S
C817 C816 1.502 . S
C818 H804 0.960 . S
C818 H805 0.961 . S
C818 H806 0.959 . S
C818 C816 1.561 . S
C819 C816 1.526 . S
C819 C820 1.396 . S
C819 C824 1.390 . S
C820 C814 1.465 . S
C820 C819 1.396 . S
C820 C821 1.399 . S
C821 H807 0.929 . S
C821 C820 1.399 . S
C821 C822 1.385 . S
C822 H808 0.931 . S
C822 C821 1.385 . S
C822 C823 1.389 . S
C823 C822 1.389 . S
C823 C824 1.387 . S
C824 H809 0.930 . S
C824 C819 1.390 . S
C824 C823 1.387 . S
H825 C837 0.930 . S
H826 C839 0.930 . S
H827 C840 0.930 . S
H828 C844 0.959 . S
H829 C844 0.959 . S
H830 C844 0.961 . S
H831 C845 0.960 . S
H832 C845 0.961 . S
H833 C845 0.959 . S
H834 C848 0.929 . S
H835 C849 0.931 . S
H836 C851 0.930 . S
C837 H825 0.930 . S
C837 C838 1.399 . S
C837 C842 1.399 . S
C838 C837 1.399 . S
C838 C839 1.376 . S
C839 H826 0.930 . S
C839 C838 1.376 . S
C839 C840 1.388 . S
C840 H827 0.930 . S
C840 C839 1.388 . S
C840 C841 1.390 . S
C841 C840 1.390 . S
C841 C842 1.394 . S
C841 C847 1.465 . S
C842 C837 1.399 . S
C842 C841 1.394 . S
C842 C843 1.516 . S
C843 C842 1.516 . S
C843 C844 1.502 . S
C843 C845 1.561 . S
C843 C846 1.526 . S
C844 H828 0.959 . S
C844 H829 0.959 . S
C844 H830 0.961 . S
C844 C843 1.502 . S
C845 H831 0.960 . S
C845 H832 0.961 . S
C845 H833 0.959 . S
C845 C843 1.561 . S
C846 C843 1.526 . S
C846 C847 1.396 . S
C846 C851 1.390 . S
C847 C841 1.465 . S
C847 C846 1.396 . S
C847 C848 1.399 . S
C848 H834 0.929 . S
C848 C847 1.399 . S
C848 C849 1.385 . S
C849 H835 0.931 . S
C849 C848 1.385 . S
C849 C850 1.389 . S
C850 C849 1.389 . S
C850 C851 1.387 . S
C851 H836 0.930 . S
C851 C846 1.390 . S
C851 C850 1.387 . S
H852 C864 0.930 . S
H853 C866 0.930 . S
H854 C867 0.930 . S
H855 C871 0.959 . S
H856 C871 0.959 . S
H857 C871 0.961 . S
H858 C872 0.960 . S
H859 C872 0.961 . S
H860 C872 0.959 . S
H861 C875 0.929 . S
H862 C876 0.931 . S
H863 C878 0.930 . S
C864 H852 0.930 . S
C864 C865 1.399 . S
C864 C869 1.399 . S
C865 C864 1.399 . S
C865 C866 1.376 . S
C866 H853 0.930 . S
C866 C865 1.376 . S
C866 C867 1.388 . S
C867 H854 0.930 . S
C867 C866 1.388 . S
C867 C868 1.390 . S
C868 C867 1.390 . S
C868 C869 1.394 . S
C868 C874 1.465 . S
C869 C864 1.399 . S
C869 C868 1.394 . S
C869 C870 1.516 . S
C870 C869 1.516 . S
C870 C871 1.502 . S
C870 C872 1.561 . S
C870 C873 1.526 . S
C871 H855 0.959 . S
C871 H856 0.959 . S
C871 H857 0.961 . S
C871 C870 1.502 . S
C872 H858 0.960 . S
C872 H859 0.961 . S
C872 H860 0.959 . S
C872 C870 1.561 . S
C873 C870 1.526 . S
C873 C874 1.396 . S
C873 C878 1.390 . S
C874 C868 1.465 . S
C874 C873 1.396 . S
C874 C875 1.399 . S
C875 H861 0.929 . S
C875 C874 1.399 . S
C875 C876 1.385 . S
C876 H862 0.931 . S
C876 C875 1.385 . S
C876 C877 1.389 . S
C877 C876 1.389 . S
C877 C878 1.387 . S
C878 H863 0.930 . S
C878 C873 1.390 . S
C878 C877 1.387 . S
H879 C891 0.930 . S
H880 C893 0.930 . S
H881 C894 0.930 . S
H882 C898 0.959 . S
H883 C898 0.959 . S
H884 C898 0.961 . S
H885 C899 0.960 . S
H886 C899 0.961 . S
H887 C899 0.959 . S
H888 C902 0.929 . S
H889 C903 0.931 . S
H890 C905 0.930 . S
C891 H879 0.930 . S
C891 C892 1.399 . S
C891 C896 1.399 . S
C892 C891 1.399 . S
C892 C893 1.376 . S
C893 H880 0.930 . S
C893 C892 1.376 . S
C893 C894 1.388 . S
C894 H881 0.930 . S
C894 C893 1.388 . S
C894 C895 1.390 . S
C895 C894 1.390 . S
C895 C896 1.394 . S
C895 C901 1.465 . S
C896 C891 1.399 . S
C896 C895 1.394 . S
C896 C897 1.516 . S
C897 C896 1.516 . S
C897 C898 1.502 . S
C897 C899 1.561 . S
C897 C900 1.526 . S
C898 H882 0.959 . S
C898 H883 0.959 . S
C898 H884 0.961 . S
C898 C897 1.502 . S
C899 H885 0.960 . S
C899 H886 0.961 . S
C899 H887 0.959 . S
C899 C897 1.561 . S
C900 C897 1.526 . S
C900 C901 1.396 . S
C900 C905 1.390 . S
C901 C895 1.465 . S
C901 C900 1.396 . S
C901 C902 1.399 . S
C902 H888 0.929 . S
C902 C901 1.399 . S
C902 C903 1.385 . S
C903 H889 0.931 . S
C903 C902 1.385 . S
C903 C904 1.389 . S
C904 C903 1.389 . S
C904 C905 1.387 . S
C905 H890 0.930 . S
C905 C900 1.390 . S
C905 C904 1.387 . S
H906 C918 0.930 . S
H907 C920 0.930 . S
H908 C921 0.930 . S
H909 C925 0.959 . S
H910 C925 0.959 . S
H911 C925 0.961 . S
H912 C926 0.960 . S
H913 C926 0.961 . S
H914 C926 0.959 . S
H915 C929 0.929 . S
H916 C930 0.931 . S
H917 C932 0.930 . S
C918 H906 0.930 . S
C918 C919 1.399 . S
C918 C923 1.399 . S
C919 C918 1.399 . S
C919 C920 1.376 . S
C920 H907 0.930 . S
C920 C919 1.376 . S
C920 C921 1.388 . S
C921 H908 0.930 . S
C921 C920 1.388 . S
C921 C922 1.390 . S
C922 C921 1.390 . S
C922 C923 1.394 . S
C922 C928 1.465 . S
C923 C918 1.399 . S
C923 C922 1.394 . S
C923 C924 1.516 . S
C924 C923 1.516 . S
C924 C925 1.502 . S
C924 C926 1.561 . S
C924 C927 1.526 . S
C925 H909 0.959 . S
C925 H910 0.959 . S
C925 H911 0.961 . S
C925 C924 1.502 . S
C926 H912 0.960 . S
C926 H913 0.961 . S
C926 H914 0.959 . S
C926 C924 1.561 . S
C927 C924 1.526 . S
C927 C928 1.396 . S
C927 C932 1.390 . S
C928 C922 1.465 . S
C928 C927 1.396 . S
C928 C929 1.399 . S
C929 H915 0.929 . S
C929 C928 1.399 . S
C929 C930 1.385 . S
C930 H916 0.931 . S
C930 C929 1.385 . S
C930 C931 1.389 . S
C931 C930 1.389 . S
C931 C932 1.387 . S
C932 H917 0.930 . S
C932 C927 1.390 . S
C932 C931 1.387 . S
H933 C945 0.930 . S
H934 C947 0.930 . S
H935 C948 0.930 . S
H936 C952 0.959 . S
H937 C952 0.959 . S
H938 C952 0.961 . S
H939 C953 0.960 . S
H940 C953 0.961 . S
H941 C953 0.959 . S
H942 C956 0.929 . S
H943 C957 0.931 . S
H944 C959 0.930 . S
C945 H933 0.930 . S
C945 C946 1.399 . S
C945 C950 1.399 . S
C946 C945 1.399 . S
C946 C947 1.376 . S
C947 H934 0.930 . S
C947 C946 1.376 . S
C947 C948 1.388 . S
C948 H935 0.930 . S
C948 C947 1.388 . S
C948 C949 1.390 . S
C949 C948 1.390 . S
C949 C950 1.394 . S
C949 C955 1.465 . S
C950 C945 1.399 . S
C950 C949 1.394 . S
C950 C951 1.516 . S
C951 C950 1.516 . S
C951 C952 1.502 . S
C951 C953 1.561 . S
C951 C954 1.526 . S
C952 H936 0.959 . S
C952 H937 0.959 . S
C952 H938 0.961 . S
C952 C951 1.502 . S
C953 H939 0.960 . S
C953 H940 0.961 . S
C953 H941 0.959 . S
C953 C951 1.561 . S
C954 C951 1.526 . S
C954 C955 1.396 . S
C954 C959 1.390 . S
C955 C949 1.465 . S
C955 C954 1.396 . S
C955 C956 1.399 . S
C956 H942 0.929 . S
C956 C955 1.399 . S
C956 C957 1.385 . S
C957 H943 0.931 . S
C957 C956 1.385 . S
C957 C958 1.389 . S
C958 C957 1.389 . S
C958 C959 1.387 . S
C959 H944 0.930 . S
C959 C954 1.390 . S
C959 C958 1.387 . S
H960 C972 0.930 . S
H961 C974 0.930 . S
H962 C975 0.930 . S
H963 C979 0.959 . S
H964 C979 0.959 . S
H965 C979 0.961 . S
H966 C980 0.960 1_655 S
H967 C980 0.961 . S
H968 C980 0.959 . S
H969 C983 0.929 . S
H970 C984 0.931 . S
H971 C986 0.930 . S
C972 H960 0.930 . S
C972 C973 1.399 . S
C972 C977 1.399 . S
C973 C972 1.399 . S
C973 C974 1.376 . S
C974 H961 0.930 . S
C974 C973 1.376 . S
C974 C975 1.388 . S
C975 H962 0.930 . S
C975 C974 1.388 . S
C975 C976 1.390 . S
C976 C975 1.390 . S
C976 C977 1.394 . S
C976 C982 1.465 1_655 S
C977 C972 1.399 . S
C977 C976 1.394 . S
C977 C978 1.516 . S
C978 C977 1.516 . S
C978 C979 1.502 . S
C978 C980 1.561 1_655 S
C978 C981 1.526 1_655 S
C979 H963 0.959 . S
C979 H964 0.959 . S
C979 H965 0.961 . S
C979 C978 1.502 . S
C980 H966 0.960 1_455 S
C980 H967 0.961 . S
C980 H968 0.959 . S
C980 C978 1.561 1_455 S
C981 C978 1.526 1_455 S
C981 C982 1.396 . S
C981 C986 1.390 . S
C982 C976 1.465 1_455 S
C982 C981 1.396 . S
C982 C983 1.399 . S
C983 H969 0.929 . S
C983 C982 1.399 . S
C983 C984 1.385 . S
C984 H970 0.931 . S
C984 C983 1.385 . S
C984 C985 1.389 . S
C985 C984 1.389 . S
C985 C986 1.387 . S
C986 H971 0.930 . S
C986 C981 1.390 . S
C986 C985 1.387 . S
H987 C999 0.930 . S
H988 C1001 0.930 . S
H989 C1002 0.930 . S
H990 C1006 0.959 . S
H991 C1006 0.959 . S
H992 C1006 0.961 . S
H993 C1007 0.960 1_545 S
H994 C1007 0.961 . S
H995 C1007 0.959 . S
H996 C1010 0.929 . S
H997 C1011 0.931 . S
H998 C1013 0.930 . S
C999 H987 0.930 . S
C999 C1000 1.399 . S
C999 C1004 1.399 . S
C1000 C999 1.399 . S
C1000 C1001 1.376 . S
C1001 H988 0.930 . S
C1001 C1000 1.376 . S
C1001 C1002 1.388 . S
C1002 H989 0.930 . S
C1002 C1001 1.388 . S
C1002 C1003 1.390 . S
C1003 C1002 1.390 . S
C1003 C1004 1.394 . S
C1003 C1009 1.465 1_545 S
C1004 C999 1.399 . S
C1004 C1003 1.394 . S
C1004 C1005 1.516 . S
C1005 C1004 1.516 . S
C1005 C1006 1.502 . S
C1005 C1007 1.561 1_545 S
C1005 C1008 1.526 1_545 S
C1006 H990 0.959 . S
C1006 H991 0.959 . S
C1006 H992 0.961 . S
C1006 C1005 1.502 . S
C1007 H993 0.960 1_565 S
C1007 H994 0.961 . S
C1007 H995 0.959 . S
C1007 C1005 1.561 1_565 S
C1008 C1005 1.526 1_565 S
C1008 C1009 1.396 . S
C1008 C1013 1.390 . S
C1009 C1003 1.465 1_565 S
C1009 C1008 1.396 . S
C1009 C1010 1.399 . S
C1010 H996 0.929 . S
C1010 C1009 1.399 . S
C1010 C1011 1.385 . S
C1011 H997 0.931 . S
C1011 C1010 1.385 . S
C1011 C1012 1.389 . S
C1012 C1011 1.389 . S
C1012 C1013 1.387 . S
C1013 H998 0.930 . S
C1013 C1008 1.390 . S
C1013 C1012 1.387 . S
H1014 C1026 0.930 . S
H1015 C1028 0.930 . S
H1016 C1029 0.930 . S
H1017 C1033 0.959 . S
H1018 C1033 0.959 . S
H1019 C1033 0.961 . S
H1020 C1034 0.960 . S
H1021 C1034 0.961 . S
H1022 C1034 0.959 . S
H1023 C1037 0.929 . S
H1024 C1038 0.931 . S
H1025 C1040 0.930 . S
C1026 H1014 0.930 . S
C1026 C1027 1.399 . S
C1026 C1031 1.399 . S
C1027 C1026 1.399 . S
C1027 C1028 1.376 . S
C1028 H1015 0.930 . S
C1028 C1027 1.376 . S
C1028 C1029 1.388 . S
C1029 H1016 0.930 . S
C1029 C1028 1.388 . S
C1029 C1030 1.390 . S
C1030 C1029 1.390 . S
C1030 C1031 1.394 . S
C1030 C1036 1.465 . S
C1031 C1026 1.399 . S
C1031 C1030 1.394 . S
C1031 C1032 1.516 . S
C1032 C1031 1.516 . S
C1032 C1033 1.502 . S
C1032 C1034 1.561 . S
C1032 C1035 1.526 . S
C1033 H1017 0.959 . S
C1033 H1018 0.959 . S
C1033 H1019 0.961 . S
C1033 C1032 1.502 . S
C1034 H1020 0.960 . S
C1034 H1021 0.961 . S
C1034 H1022 0.959 . S
C1034 C1032 1.561 . S
C1035 C1032 1.526 . S
C1035 C1036 1.396 . S
C1035 C1040 1.390 . S
C1036 C1030 1.465 . S
C1036 C1035 1.396 . S
C1036 C1037 1.399 . S
C1037 H1023 0.929 . S
C1037 C1036 1.399 . S
C1037 C1038 1.385 . S
C1038 H1024 0.931 . S
C1038 C1037 1.385 . S
C1038 C1039 1.389 . S
C1039 C1038 1.389 . S
C1039 C1040 1.387 . S
C1040 H1025 0.930 . S
C1040 C1035 1.390 . S
C1040 C1039 1.387 . S
H1041 C1053 0.930 . S
H1042 C1055 0.930 . S
H1043 C1056 0.930 . S
H1044 C1060 0.959 . S
H1045 C1060 0.959 1_565 S
H1046 C1060 0.961 . S
H1047 C1061 0.960 1_545 S
H1048 C1061 0.961 . S
H1049 C1061 0.959 . S
H1050 C1064 0.929 . S
H1051 C1065 0.931 . S
H1052 C1067 0.930 . S
C1053 H1041 0.930 . S
C1053 C1054 1.399 . S
C1053 C1058 1.399 . S
C1054 C1053 1.399 . S
C1054 C1055 1.376 . S
C1055 H1042 0.930 . S
C1055 C1054 1.376 . S
C1055 C1056 1.388 . S
C1056 H1043 0.930 . S
C1056 C1055 1.388 . S
C1056 C1057 1.390 . S
C1057 C1056 1.390 . S
C1057 C1058 1.394 . S
C1057 C1063 1.465 1_545 S
C1058 C1053 1.399 . S
C1058 C1057 1.394 . S
C1058 C1059 1.516 . S
C1059 C1058 1.516 . S
C1059 C1060 1.502 . S
C1059 C1061 1.561 1_545 S
C1059 C1062 1.526 1_545 S
C1060 H1044 0.959 . S
C1060 H1045 0.959 1_545 S
C1060 H1046 0.961 . S
C1060 C1059 1.502 . S
C1061 H1047 0.960 1_565 S
C1061 H1048 0.961 . S
C1061 H1049 0.959 . S
C1061 C1059 1.561 1_565 S
C1062 C1059 1.526 1_565 S
C1062 C1063 1.396 . S
C1062 C1067 1.390 . S
C1063 C1057 1.465 1_565 S
C1063 C1062 1.396 . S
C1063 C1064 1.399 . S
C1064 H1050 0.929 . S
C1064 C1063 1.399 . S
C1064 C1065 1.385 . S
C1065 H1051 0.931 . S
C1065 C1064 1.385 . S
C1065 C1066 1.389 . S
C1066 C1065 1.389 . S
C1066 C1067 1.387 . S
C1067 H1052 0.930 . S
C1067 C1062 1.390 . S
C1067 C1066 1.387 . S
H1068 C1080 0.930 . S
H1069 C1082 0.930 . S
H1070 C1083 0.930 . S
H1071 C1087 0.959 . S
H1072 C1087 0.959 . S
H1073 C1087 0.961 . S
H1074 C1088 0.960 . S
H1075 C1088 0.961 . S
H1076 C1088 0.959 . S
H1077 C1091 0.929 . S
H1078 C1092 0.931 . S
H1079 C1094 0.930 . S
C1080 H1068 0.930 . S
C1080 C1081 1.399 . S
C1080 C1085 1.399 . S
C1081 C1080 1.399 . S
C1081 C1082 1.376 . S
C1082 H1069 0.930 . S
C1082 C1081 1.376 . S
C1082 C1083 1.388 . S
C1083 H1070 0.930 . S
C1083 C1082 1.388 . S
C1083 C1084 1.390 . S
C1084 C1083 1.390 . S
C1084 C1085 1.394 . S
C1084 C1090 1.465 . S
C1085 C1080 1.399 . S
C1085 C1084 1.394 . S
C1085 C1086 1.516 . S
C1086 C1085 1.516 . S
C1086 C1087 1.502 . S
C1086 C1088 1.561 . S
C1086 C1089 1.526 . S
C1087 H1071 0.959 . S
C1087 H1072 0.959 . S
C1087 H1073 0.961 . S
C1087 C1086 1.502 . S
C1088 H1074 0.960 . S
C1088 H1075 0.961 . S
C1088 H1076 0.959 . S
C1088 C1086 1.561 . S
C1089 C1086 1.526 . S
C1089 C1090 1.396 . S
C1089 C1094 1.390 . S
C1090 C1084 1.465 . S
C1090 C1089 1.396 . S
C1090 C1091 1.399 . S
C1091 H1077 0.929 . S
C1091 C1090 1.399 . S
C1091 C1092 1.385 . S
C1092 H1078 0.931 . S
C1092 C1091 1.385 . S
C1092 C1093 1.389 . S
C1093 C1092 1.389 . S
C1093 C1094 1.387 . S
C1094 H1079 0.930 . S
C1094 C1089 1.390 . S
C1094 C1093 1.387 . S
H1095 C1107 0.930 . S
H1096 C1109 0.930 . S
H1097 C1110 0.930 . S
H1098 C1114 0.959 . S
H1099 C1114 0.959 . S
H1100 C1114 0.961 1_455 S
H1101 C1115 0.960 . S
H1102 C1115 0.961 1_655 S
H1103 C1115 0.959 . S
H1104 C1118 0.929 . S
H1105 C1119 0.931 . S
H1106 C1121 0.930 . S
C1107 H1095 0.930 . S
C1107 C1108 1.399 . S
C1107 C1112 1.399 . S
C1108 C1107 1.399 . S
C1108 C1109 1.376 . S
C1109 H1096 0.930 . S
C1109 C1108 1.376 . S
C1109 C1110 1.388 . S
C1110 H1097 0.930 . S
C1110 C1109 1.388 . S
C1110 C1111 1.390 . S
C1111 C1110 1.390 . S
C1111 C1112 1.394 . S
C1111 C1117 1.465 1_455 S
C1112 C1107 1.399 . S
C1112 C1111 1.394 . S
C1112 C1113 1.516 1_455 S
C1113 C1112 1.516 1_655 S
C1113 C1114 1.502 . S
C1113 C1115 1.561 1_655 S
C1113 C1116 1.526 . S
C1114 H1098 0.959 . S
C1114 H1099 0.959 . S
C1114 H1100 0.961 1_655 S
C1114 C1113 1.502 . S
C1115 H1101 0.960 . S
C1115 H1102 0.961 1_455 S
C1115 H1103 0.959 . S
C1115 C1113 1.561 1_455 S
C1116 C1113 1.526 . S
C1116 C1117 1.396 . S
C1116 C1121 1.390 . S
C1117 C1111 1.465 1_655 S
C1117 C1116 1.396 . S
C1117 C1118 1.399 . S
C1118 H1104 0.929 . S
C1118 C1117 1.399 . S
C1118 C1119 1.385 . S
C1119 H1105 0.931 . S
C1119 C1118 1.385 . S
C1119 C1120 1.389 . S
C1120 C1119 1.389 . S
C1120 C1121 1.387 . S
C1121 H1106 0.930 . S
C1121 C1116 1.390 . S
C1121 C1120 1.387 . S
H1122 C1134 0.930 . S
H1123 C1136 0.930 . S
H1124 C1137 0.930 . S
H1125 C1141 0.959 . S
H1126 C1141 0.959 . S
H1127 C1141 0.961 . S
H1128 C1142 0.960 . S
H1129 C1142 0.961 . S
H1130 C1142 0.959 . S
H1131 C1145 0.929 . S
H1132 C1146 0.931 . S
H1133 C1148 0.930 . S
C1134 H1122 0.930 . S
C1134 C1135 1.399 . S
C1134 C1139 1.399 . S
C1135 C1134 1.399 . S
C1135 C1136 1.376 . S
C1136 H1123 0.930 . S
C1136 C1135 1.376 . S
C1136 C1137 1.388 . S
C1137 H1124 0.930 . S
C1137 C1136 1.388 . S
C1137 C1138 1.390 . S
C1138 C1137 1.390 . S
C1138 C1139 1.394 . S
C1138 C1144 1.465 . S
C1139 C1134 1.399 . S
C1139 C1138 1.394 . S
C1139 C1140 1.516 . S
C1140 C1139 1.516 . S
C1140 C1141 1.502 . S
C1140 C1142 1.561 . S
C1140 C1143 1.526 . S
C1141 H1125 0.959 . S
C1141 H1126 0.959 . S
C1141 H1127 0.961 . S
C1141 C1140 1.502 . S
C1142 H1128 0.960 . S
C1142 H1129 0.961 . S
C1142 H1130 0.959 . S
C1142 C1140 1.561 . S
C1143 C1140 1.526 . S
C1143 C1144 1.396 . S
C1143 C1148 1.390 . S
C1144 C1138 1.465 . S
C1144 C1143 1.396 . S
C1144 C1145 1.399 . S
C1145 H1131 0.929 . S
C1145 C1144 1.399 . S
C1145 C1146 1.385 . S
C1146 H1132 0.931 . S
C1146 C1145 1.385 . S
C1146 C1147 1.389 . S
C1147 C1146 1.389 . S
C1147 C1148 1.387 . S
C1148 H1133 0.930 . S
C1148 C1143 1.390 . S
C1148 C1147 1.387 . S
H1149 C1161 0.930 . S
H1150 C1163 0.930 . S
H1151 C1164 0.930 . S
H1152 C1168 0.959 1_455 S
H1153 C1168 0.959 1_455 S
H1154 C1168 0.961 . S
H1155 C1169 0.960 . S
H1156 C1169 0.961 . S
H1157 C1169 0.959 . S
H1158 C1172 0.929 . S
H1159 C1173 0.931 . S
H1160 C1175 0.930 . S
C1161 H1149 0.930 . S
C1161 C1162 1.399 . S
C1161 C1166 1.399 . S
C1162 C1161 1.399 . S
C1162 C1163 1.376 . S
C1163 H1150 0.930 . S
C1163 C1162 1.376 . S
C1163 C1164 1.388 . S
C1164 H1151 0.930 . S
C1164 C1163 1.388 . S
C1164 C1165 1.390 . S
C1165 C1164 1.390 . S
C1165 C1166 1.394 . S
C1165 C1171 1.465 1_655 S
C1166 C1161 1.399 . S
C1166 C1165 1.394 . S
C1166 C1167 1.516 . S
C1167 C1166 1.516 . S
C1167 C1168 1.502 . S
C1167 C1169 1.561 . S
C1167 C1170 1.526 1_655 S
C1168 H1152 0.959 1_655 S
C1168 H1153 0.959 1_655 S
C1168 H1154 0.961 . S
C1168 C1167 1.502 . S
C1169 H1155 0.960 . S
C1169 H1156 0.961 . S
C1169 H1157 0.959 . S
C1169 C1167 1.561 . S
C1170 C1167 1.526 1_455 S
C1170 C1171 1.396 . S
C1170 C1175 1.390 . S
C1171 C1165 1.465 1_455 S
C1171 C1170 1.396 . S
C1171 C1172 1.399 . S
C1172 H1158 0.929 . S
C1172 C1171 1.399 . S
C1172 C1173 1.385 . S
C1173 H1159 0.931 . S
C1173 C1172 1.385 . S
C1173 C1174 1.389 . S
C1174 C1173 1.389 . S
C1174 C1175 1.387 . S
C1175 H1160 0.930 . S
C1175 C1170 1.390 . S
C1175 C1174 1.387 . S
H1176 C1188 0.930 . S
H1177 C1190 0.930 . S
H1178 C1191 0.930 . S
H1179 C1195 0.959 . S
H1180 C1195 0.959 . S
H1181 C1195 0.961 . S
H1182 C1196 0.960 . S
H1183 C1196 0.961 . S
H1184 C1196 0.958 1_565 S
H1185 C1199 0.929 . S
H1186 C1200 0.931 . S
H1187 C1202 0.930 . S
C1188 H1176 0.930 . S
C1188 C1189 1.399 . S
C1188 C1193 1.399 . S
C1189 C1188 1.399 . S
C1189 C1190 1.376 . S
C1190 H1177 0.930 . S
C1190 C1189 1.376 . S
C1190 C1191 1.388 . S
C1191 H1178 0.930 . S
C1191 C1190 1.388 . S
C1191 C1192 1.390 . S
C1192 C1191 1.390 . S
C1192 C1193 1.394 . S
C1192 C1198 1.465 1_545 S
C1193 C1188 1.399 . S
C1193 C1192 1.394 . S
C1193 C1194 1.516 . S
C1194 C1193 1.516 . S
C1194 C1195 1.502 . S
C1194 C1196 1.561 . S
C1194 C1197 1.526 1_545 S
C1195 H1179 0.959 . S
C1195 H1180 0.959 . S
C1195 H1181 0.961 . S
C1195 C1194 1.502 . S
C1196 H1182 0.960 . S
C1196 H1183 0.961 . S
C1196 H1184 0.958 1_545 S
C1196 C1194 1.561 . S
C1197 C1194 1.526 1_565 S
C1197 C1198 1.396 . S
C1197 C1202 1.390 . S
C1198 C1192 1.465 1_565 S
C1198 C1197 1.396 . S
C1198 C1199 1.399 . S
C1199 H1185 0.929 . S
C1199 C1198 1.399 . S
C1199 C1200 1.385 . S
C1200 H1186 0.931 . S
C1200 C1199 1.385 . S
C1200 C1201 1.389 . S
C1201 C1200 1.389 . S
C1201 C1202 1.387 . S
C1202 H1187 0.930 . S
C1202 C1197 1.390 . S
C1202 C1201 1.387 . S
H1203 C1215 0.930 . S
H1204 C1217 0.930 . S
H1205 C1218 0.930 . S
H1206 C1222 0.959 . S
H1207 C1222 0.959 . S
H1208 C1222 0.961 . S
H1209 C1223 0.960 . S
H1210 C1223 0.961 . S
H1211 C1223 0.959 . S
H1212 C1226 0.929 . S
H1213 C1227 0.931 . S
H1214 C1229 0.930 . S
C1215 H1203 0.930 . S
C1215 C1216 1.399 . S
C1215 C1220 1.399 . S
C1216 C1215 1.399 . S
C1216 C1217 1.376 . S
C1217 H1204 0.930 . S
C1217 C1216 1.376 . S
C1217 C1218 1.388 . S
C1218 H1205 0.930 . S
C1218 C1217 1.388 . S
C1218 C1219 1.390 . S
C1219 C1218 1.390 . S
C1219 C1220 1.394 . S
C1219 C1225 1.465 . S
C1220 C1215 1.399 . S
C1220 C1219 1.394 . S
C1220 C1221 1.516 . S
C1221 C1220 1.516 . S
C1221 C1222 1.502 . S
C1221 C1223 1.561 . S
C1221 C1224 1.526 . S
C1222 H1206 0.959 . S
C1222 H1207 0.959 . S
C1222 H1208 0.961 . S
C1222 C1221 1.502 . S
C1223 H1209 0.960 . S
C1223 H1210 0.961 . S
C1223 H1211 0.959 . S
C1223 C1221 1.561 . S
C1224 C1221 1.526 . S
C1224 C1225 1.396 . S
C1224 C1229 1.390 . S
C1225 C1219 1.465 . S
C1225 C1224 1.396 . S
C1225 C1226 1.399 . S
C1226 H1212 0.929 . S
C1226 C1225 1.399 . S
C1226 C1227 1.385 . S
C1227 H1213 0.931 . S
C1227 C1226 1.385 . S
C1227 C1228 1.389 . S
C1228 C1227 1.389 . S
C1228 C1229 1.387 . S
C1229 H1214 0.930 . S
C1229 C1224 1.390 . S
C1229 C1228 1.387 . S
H1230 C1242 0.930 . S
H1231 C1244 0.930 . S
H1232 C1245 0.930 . S
H1233 C1249 0.959 . S
H1234 C1249 0.959 . S
H1235 C1249 0.934 1_455 S
H1236 C1250 0.960 . S
H1237 C1250 0.961 1_655 S
H1238 C1250 0.959 . S
H1239 C1253 0.929 . S
H1240 C1254 0.931 . S
H1241 C1256 0.930 . S
C1242 H1230 0.930 . S
C1242 C1243 1.399 . S
C1242 C1247 1.399 . S
C1243 C1242 1.399 . S
C1243 C1244 1.376 . S
C1244 H1231 0.930 . S
C1244 C1243 1.376 . S
C1244 C1245 1.388 . S
C1245 H1232 0.930 . S
C1245 C1244 1.388 . S
C1245 C1246 1.390 . S
C1246 C1245 1.390 . S
C1246 C1247 1.394 . S
C1246 C1252 1.465 1_455 S
C1247 C1242 1.399 . S
C1247 C1246 1.394 . S
C1247 C1248 1.516 1_455 S
C1248 C1247 1.516 1_655 S
C1248 C1249 1.502 . S
C1248 C1250 1.561 1_655 S
C1248 C1251 1.526 . S
C1249 H1233 0.959 . S
C1249 H1234 0.959 . S
C1249 H1235 0.934 1_655 S
C1249 C1248 1.502 . S
C1250 H1236 0.960 . S
C1250 H1237 0.961 1_455 S
C1250 H1238 0.959 . S
C1250 C1248 1.561 1_455 S
C1251 C1248 1.526 . S
C1251 C1252 1.396 . S
C1251 C1256 1.390 . S
C1252 C1246 1.465 1_655 S
C1252 C1251 1.396 . S
C1252 C1253 1.399 . S
C1253 H1239 0.929 . S
C1253 C1252 1.399 . S
C1253 C1254 1.385 . S
C1254 H1240 0.931 . S
C1254 C1253 1.385 . S
C1254 C1255 1.389 . S
C1255 C1254 1.389 . S
C1255 C1256 1.387 . S
C1256 H1241 0.930 . S
C1256 C1251 1.390 . S
C1256 C1255 1.387 . S
H1257 C1269 0.930 . S
H1258 C1271 0.930 . S
H1259 C1272 0.930 . S
H1260 C1276 0.959 . S
H1261 C1276 0.959 1_545 S
H1262 C1276 0.961 . S
H1263 C1277 0.950 1_565 S
H1264 C1277 0.961 . S
H1265 C1277 0.959 . S
H1266 C1280 0.929 . S
H1267 C1281 0.931 . S
H1268 C1283 0.930 . S
C1269 H1257 0.930 . S
C1269 C1270 1.399 . S
C1269 C1274 1.399 . S
C1270 C1269 1.399 . S
C1270 C1271 1.376 . S
C1271 H1258 0.930 . S
C1271 C1270 1.376 . S
C1271 C1272 1.388 . S
C1272 H1259 0.930 . S
C1272 C1271 1.388 . S
C1272 C1273 1.390 . S
C1273 C1272 1.390 . S
C1273 C1274 1.394 . S
C1273 C1279 1.465 1_565 S
C1274 C1269 1.399 . S
C1274 C1273 1.394 . S
C1274 C1275 1.504 1_565 S
C1275 C1274 1.504 1_545 S
C1275 C1276 1.482 1_545 S
C1275 C1277 1.584 . S
C1275 C1278 1.539 . S
C1276 H1260 0.959 . S
C1276 H1261 0.959 1_565 S
C1276 H1262 0.961 . S
C1276 C1275 1.482 1_565 S
C1277 H1263 0.950 1_545 S
C1277 H1264 0.961 . S
C1277 H1265 0.959 . S
C1277 C1275 1.584 . S
C1278 C1275 1.539 . S
C1278 C1279 1.396 . S
C1278 C1283 1.390 . S
C1279 C1273 1.465 1_545 S
C1279 C1278 1.396 . S
C1279 C1280 1.399 . S
C1280 H1266 0.929 . S
C1280 C1279 1.399 . S
C1280 C1281 1.385 . S
C1281 H1267 0.931 . S
C1281 C1280 1.385 . S
C1281 C1282 1.389 . S
C1282 C1281 1.389 . S
C1282 C1283 1.387 . S
C1283 H1268 0.930 . S
C1283 C1278 1.390 . S
C1283 C1282 1.387 . S
C649 C569 1.881 . S
C661 C39 1.856 . S
C676 C92 1.845 . S
C688 C622 1.830 . S
C703 C145 1.838 . S
C715 C357 1.877 . S
C730 C198 1.873 . S
C742 C410 1.834 . S
C757 C463 1.834 . S
C769 C251 1.874 . S
C784 C304 1.834 . S
C796 C516 1.874 . S
C811 C462 1.932 . S
C823 C38 1.895 . S
C838 C91 1.912 . S
C850 C515 1.925 . S
C865 C144 1.928 . S
C877 C568 1.910 . S
C892 C197 1.906 . S
C904 C621 1.917 . S
C919 C356 1.932 . S
C931 C250 1.904 . S
C946 C409 1.898 . S
C958 C303 1.927 . S
C973 C188 1.009 . S
C985 C29 1.019 . S
C1000 C82 1.006 . S
C1012 C241 1.019 . S
C1027 C294 1.001 . S
C1039 C135 0.992 . S
C1054 C506 1.011 . S
C1066 C347 1.019 . S
C1081 C559 1.002 . S
C1093 C400 0.992 . S
C1108 C453 1.000 . S
C1120 C612 0.992 . S
C1135 C181 2.006 . S
C1147 C22 2.008 . S
C1162 C75 1.995 . S
C1174 C234 1.996 . S
C1189 C287 2.001 . S
C1201 C128 2.006 . S
C1216 C340 2.000 . S
C1228 C499 1.996 . S
C1243 C552 1.998 . S
C1255 C393 1.996 . S
C1270 C446 2.005 . S
C1282 C605 2.008 . S
