# Generated by pormake.
# Topology ukg, (4)-cn, num edge types: 1
# Building blocks:
#     Node 0, Type 0, BuildingBlock: KUFVIS_clean_sbu_0, # of connection points: 4
#     Node 1, Type 0, BuildingBlock: KUFVIS_clean_sbu_0, # of connection points: 4
#     Node 2, Type 0, BuildingBlock: KUFVIS_clean_sbu_0, # of connection points: 4
#     Node 3, Type 0, BuildingBlock: KUFVIS_clean_sbu_0, # of connection points: 4
#     Node 4, Type 0, BuildingBlock: KUFVIS_clean_sbu_0, # of connection points: 4
#     Node 5, Type 0, BuildingBlock: KUFVIS_clean_sbu_0, # of connection points: 4
#     Node 6, Type 0, BuildingBlock: KUFVIS_clean_sbu_0, # of connection points: 4
#     Node 7, Type 0, BuildingBlock: KUFVIS_clean_sbu_0, # of connection points: 4
#     Edge 8, Type (0, 0), BuildingBlock: ZUJKAS_clean_linker_0, # of connection points: 2
#     Edge 9, Type (0, 0), BuildingBlock: ZUJKAS_clean_linker_0, # of connection points: 2
#     Edge 10, Type (0, 0), BuildingBlock: ZUJKAS_clean_linker_0, # of connection points: 2
#     Edge 11, Type (0, 0), BuildingBlock: ZUJKAS_clean_linker_0, # of connection points: 2
#     Edge 12, Type (0, 0), BuildingBlock: ZUJKAS_clean_linker_0, # of connection points: 2
#     Edge 13, Type (0, 0), BuildingBlock: ZUJKAS_clean_linker_0, # of connection points: 2
#     Edge 14, Type (0, 0), BuildingBlock: ZUJKAS_clean_linker_0, # of connection points: 2
#     Edge 15, Type (0, 0), BuildingBlock: ZUJKAS_clean_linker_0, # of connection points: 2
#     Edge 16, Type (0, 0), BuildingBlock: ZUJKAS_clean_linker_0, # of connection points: 2
#     Edge 17, Type (0, 0), BuildingBlock: ZUJKAS_clean_linker_0, # of connection points: 2
#     Edge 18, Type (0, 0), BuildingBlock: ZUJKAS_clean_linker_0, # of connection points: 2
#     Edge 19, Type (0, 0), BuildingBlock: ZUJKAS_clean_linker_0, # of connection points: 2
#     Edge 20, Type (0, 0), BuildingBlock: ZUJKAS_clean_linker_0, # of connection points: 2
#     Edge 21, Type (0, 0), BuildingBlock: ZUJKAS_clean_linker_0, # of connection points: 2
#     Edge 22, Type (0, 0), BuildingBlock: ZUJKAS_clean_linker_0, # of connection points: 2
#     Edge 23, Type (0, 0), BuildingBlock: ZUJKAS_clean_linker_0, # of connection points: 2
# Relax obj value: 0.156
# Max RMSD: 0.244
# Mean RMSD: 0.244
data_MOF--net-ukg--node1-KUFVIS_clean_sbu_0--edge1-ZUJKAS_clean_linker_0
_symmetry_space_group_name_H-M    P1
_symmetry_Int_Tables_number       1
_symmetry_cell_setting            triclinic
loop_
_symmetry_equiv_pos_as_xyz
'x, y, z'
_cell_length_a     39.522284
_cell_length_b     39.52775
_cell_length_c     46.872699
_cell_angle_alpha  89.975882
_cell_angle_beta   90.031782
_cell_angle_gamma 90.064893
loop_
_atom_site_label
_atom_site_type_symbol
_atom_site_fract_x
_atom_site_fract_y
_atom_site_fract_z
_atom_type_partial_charge
Mn0 Mn 0.00335 0.68877 0.14502 0.0
Mn1 Mn 0.00315 0.73667 0.08536 0.0
C2 C 0.99294 0.74583 0.1484 0.0
C3 C 0.97473 0.65328 0.17653 0.0
C4 C 0.06737 0.7142 0.11524 0.0
O5 O 0.00092 0.65401 0.11338 0.0
O6 O -0.0017 0.68789 0.07486 0.0
C7 C 0.93236 0.72437 0.06747 0.0
N8 N 0.95747 0.74634 0.07481 0.0
C9 C 0.92066 0.79416 0.06821 0.0
C10 C 0.89448 0.77206 0.06037 0.0
C11 C 0.90035 0.73701 0.06005 0.0
C12 C 0.9521 0.7801 0.07519 0.0
H13 H 0.93672 0.6974 0.06734 0.0
C14 C -0.00159 0.65853 0.08655 0.0
O15 O 0.00751 0.65244 0.17444 0.0
O16 O 0.9588 0.67412 0.15992 0.0
N17 N 0.00738 0.78427 0.09195 0.0
C18 C 0.03476 0.80201 0.10141 0.0
C19 C 0.03272 0.83736 0.10387 0.0
C20 C 0.0027 0.85412 0.09631 0.0
C21 C 0.97503 0.83537 0.08623 0.0
C22 C 0.97861 0.80022 0.08406 0.0
H23 H 0.05788 0.78927 0.10733 0.0
O24 O 0.00249 0.72864 0.17056 0.0
O25 O 0.98853 0.7288 0.12485 0.0
O26 O 0.05311 0.69813 0.1356 0.0
O27 O 0.05103 0.72879 0.09518 0.0
C28 C 0.94377 0.85011 0.07888 0.0
C29 C 0.9166 0.82952 0.0699 0.0
H30 H 0.86969 0.78169 0.05481 0.0
H31 H 0.88022 0.71978 0.05417 0.0
H32 H 0.05418 0.85164 0.11169 0.0
H33 H 0.00113 0.88135 0.09847 0.0
H34 H 0.94022 0.87722 0.08043 0.0
H35 H 0.89257 0.84111 0.06464 0.0
Mn36 Mn 0.32348 0.50947 0.65271 0.0
Mn37 Mn 0.27702 0.51174 0.59225 0.0
C38 C 0.26679 0.49657 0.6546 0.0
C39 C 0.35927 0.4798 0.68304 0.0
C40 C 0.29573 0.57439 0.62618 0.0
O41 O 0.35908 0.51154 0.62168 0.0
O42 O 0.32617 0.50934 0.58258 0.0
C43 C 0.29237 0.44278 0.57137 0.0
N44 N 0.2693 0.46653 0.57935 0.0
C45 C 0.22303 0.42852 0.56995 0.0
C46 C 0.24628 0.40373 0.56142 0.0
C47 C 0.2811 0.41089 0.56218 0.0
C48 C 0.23575 0.45989 0.57877 0.0
H49 H 0.31916 0.44812 0.57205 0.0
C50 C 0.35524 0.51025 0.59472 0.0
O51 O 0.35859 0.51266 0.68326 0.0
O52 O 0.33994 0.46445 0.66481 0.0
N53 N 0.22909 0.51382 0.59786 0.0
C54 C 0.21005 0.54007 0.60769 0.0
C55 C 0.1747 0.53672 0.60891 0.0
C56 C 0.15928 0.50663 0.59965 0.0
C57 C 0.17934 0.4802 0.58914 0.0
C58 C 0.21444 0.48506 0.58829 0.0
H59 H 0.22173 0.56327 0.61483 0.0
O60 O 0.2833 0.50453 0.67752 0.0
O61 O 0.28437 0.49469 0.63109 0.0
O62 O 0.31176 0.55938 0.64618 0.0
O63 O 0.2829 0.55901 0.60475 0.0
C64 C 0.16595 0.44899 0.57999 0.0
C65 C 0.18778 0.42315 0.57045 0.0
H66 H 0.23769 0.37905 0.55444 0.0
H67 H 0.2992 0.39183 0.55577 0.0
H68 H 0.15938 0.55724 0.61703 0.0
H69 H 0.13202 0.50406 0.60079 0.0
H70 H 0.13892 0.44446 0.58052 0.0
H71 H 0.1772 0.39914 0.56375 0.0
Mn72 Mn 0.48996 0.80153 0.14221 0.0
Mn73 Mn 0.48929 0.75303 0.08296 0.0
C74 C 0.50042 0.74453 0.14596 0.0
C75 C 0.51919 0.83717 0.17317 0.0
C76 C 0.4255 0.77582 0.11327 0.0
O77 O 0.49198 0.83594 0.1103 0.0
O78 O 0.49398 0.80172 0.07199 0.0
C79 C 0.55978 0.76514 0.06423 0.0
N80 N 0.53483 0.74326 0.07207 0.0
C81 C 0.57165 0.6954 0.06577 0.0
C82 C 0.59767 0.71741 0.05742 0.0
C83 C 0.59171 0.75244 0.05668 0.0
C84 C 0.54026 0.70951 0.07282 0.0
H85 H 0.55537 0.7921 0.0638 0.0
C86 C 0.49407 0.83118 0.08348 0.0
O87 O 0.48638 0.83816 0.17141 0.0
O88 O 0.53475 0.81614 0.15652 0.0
N89 N 0.48521 0.70551 0.09009 0.0
C90 C 0.45802 0.68789 0.10009 0.0
C91 C 0.46022 0.65261 0.10306 0.0
C92 C 0.49017 0.63578 0.09548 0.0
C93 C 0.51764 0.65439 0.08485 0.0
C94 C 0.51391 0.68949 0.08218 0.0
H95 H 0.43497 0.70069 0.10605 0.0
O96 O 0.49113 0.76193 0.16805 0.0
O97 O 0.50448 0.76131 0.12224 0.0
O98 O 0.44005 0.79214 0.13334 0.0
O99 O 0.44156 0.76101 0.09318 0.0
C100 C 0.54883 0.6396 0.07745 0.0
C101 C 0.57582 0.66008 0.06792 0.0
H102 H 0.62241 0.70773 0.05177 0.0
H103 H 0.61173 0.7696 0.05041 0.0
H104 H 0.43892 0.63842 0.1113 0.0
H105 H 0.49188 0.60861 0.09808 0.0
H106 H 0.55249 0.61254 0.07937 0.0
H107 H 0.59981 0.64846 0.06263 0.0
Mn108 Mn 0.16729 0.98601 0.65091 0.0
Mn109 Mn 0.21418 0.98414 0.5907 0.0
C110 C 0.22374 -0.00017 0.65304 0.0
C111 C 0.13074 0.01525 0.68085 0.0
C112 C 0.19653 0.92142 0.62495 0.0
O113 O 0.13191 0.98306 0.61974 0.0
O114 O 0.16506 0.98542 0.58083 0.0
C115 C 0.1974 0.05261 0.56942 0.0
N116 N 0.22096 0.02942 0.57758 0.0
C117 C 0.26642 0.06834 0.56805 0.0
C118 C 0.24266 0.09257 0.55934 0.0
C119 C 0.208 0.08468 0.56009 0.0
C120 C 0.25435 0.03678 0.57704 0.0
H121 H 0.17073 0.04671 0.57008 0.0
C122 C 0.13593 0.98415 0.5928 0.0
O123 O 0.13202 0.9824 0.68128 0.0
O124 O 0.14994 0.0308 0.66266 0.0
N125 N 0.26214 0.98312 0.59641 0.0
C126 C 0.28174 0.95728 0.60629 0.0
C127 C 0.31702 0.96136 0.60746 0.0
C128 C 0.3318 0.99171 0.59809 0.0
C129 C 0.31118 0.01769 0.58751 0.0
C130 C 0.27619 0.01212 0.58671 0.0
H131 H 0.27055 0.93387 0.61349 0.0
O132 O 0.20719 0.99183 0.67592 0.0
O133 O 0.20631 0.00129 0.62942 0.0
O134 O 0.17997 0.93628 0.64472 0.0
O135 O 0.20926 0.93686 0.60351 0.0
C136 C 0.32392 0.04911 0.57821 0.0
C137 C 0.30155 0.07444 0.56854 0.0
H138 H 0.25073 0.11738 0.55224 0.0
H139 H 0.1895 0.1033 0.55354 0.0
H140 H 0.33277 0.94118 0.61563 0.0
H141 H 0.359 0.99484 0.59918 0.0
H142 H 0.35085 0.0542 0.5787 0.0
H143 H 0.31163 0.09862 0.56171 0.0
Mn144 Mn 0.97883 0.3335 0.84785 0.0
Mn145 Mn 0.98253 0.28533 0.90721 0.0
C146 C 0.99283 0.27727 0.84402 0.0
C147 C 0.00565 0.37049 0.81663 0.0
C148 C 0.9168 0.30344 0.87742 0.0
O149 O 0.9787 0.36814 0.87963 0.0
O150 O 0.98438 0.33426 0.91789 0.0
C151 C 0.05255 0.30206 0.92471 0.0
N152 N 0.02886 0.27857 0.91738 0.0
C153 C 0.06891 0.23324 0.92299 0.0
C154 C 0.09367 0.25693 0.93083 0.0
C155 C 0.08545 0.29149 0.93164 0.0
C156 C 0.03649 0.24525 0.91651 0.0
H157 H 0.04639 0.32866 0.9252 0.0
C158 C 0.982 0.36362 0.90639 0.0
O159 O 0.97282 0.36936 0.81815 0.0
O160 O 0.02251 0.35103 0.83371 0.0
N161 N 0.9813 0.2376 0.90042 0.0
C162 C 0.95491 0.21816 0.89132 0.0
C163 C 0.95925 0.18306 0.88854 0.0
C164 C 0.9905 0.16828 0.89543 0.0
C165 C 0.01709 0.18872 0.90524 0.0
C166 C 0.01122 0.22353 0.90775 0.0
H167 H 0.93086 0.22937 0.8859 0.0
O168 O 0.98243 0.29415 0.822 0.0
O169 O 0.99623 0.29426 0.86771 0.0
O170 O 0.92975 0.32054 0.857 0.0
O171 O 0.93424 0.29022 0.89752 0.0
C172 C 0.0494 0.17602 0.91204 0.0
C173 C 0.07529 0.19826 0.92089 0.0
H174 H 0.11914 0.2489 0.93602 0.0
H175 H 0.10447 0.30994 0.93751 0.0
H176 H 0.93859 0.16745 0.88098 0.0
H177 H 0.99385 0.14124 0.89299 0.0
H178 H 0.05472 0.14923 0.91022 0.0
H179 H 0.10013 0.18824 0.92576 0.0
Mn180 Mn 0.6779 0.48323 0.35542 0.0
Mn181 Mn 0.72762 0.49464 0.41311 0.0
C182 C 0.73428 0.49555 0.34939 0.0
C183 C 0.64045 0.5057 0.32227 0.0
C184 C 0.70774 0.42542 0.39081 0.0
O185 O 0.64401 0.48845 0.38745 0.0
O186 O 0.67897 0.498 0.42446 0.0
C187 C 0.71123 0.56668 0.42333 0.0
N188 N 0.73456 0.54215 0.418 0.0
C189 C 0.77975 0.58299 0.41733 0.0
C190 C 0.75624 0.60865 0.42303 0.0
C191 C 0.72182 0.60045 0.426 0.0
C192 C 0.76771 0.54978 0.41499 0.0
H193 H 0.68472 0.56054 0.42545 0.0
C194 C 0.64928 0.4948 0.41372 0.0
O195 O 0.6412 0.47335 0.32722 0.0
O196 O 0.66073 0.5247 0.33694 0.0
N197 N 0.77517 0.49247 0.40559 0.0
C198 C 0.79454 0.46482 0.39975 0.0
C199 C 0.82955 0.46877 0.39579 0.0
C200 C 0.84431 0.50099 0.39819 0.0
C201 C 0.82397 0.52894 0.40481 0.0
C202 C 0.78926 0.52343 0.40869 0.0
H203 H 0.78333 0.44 0.39784 0.0
O204 O 0.71684 0.48225 0.32883 0.0
O205 O 0.71778 0.50264 0.37271 0.0
O206 O 0.69012 0.43586 0.3697 0.0
O207 O 0.72235 0.4452 0.4086 0.0
C208 C 0.8367 0.5621 0.40744 0.0
C209 C 0.8146 0.58912 0.41359 0.0
H210 H 0.76429 0.63475 0.425 0.0
H211 H 0.7035 0.62014 0.43026 0.0
H212 H 0.84509 0.44706 0.39078 0.0
H213 H 0.87127 0.50397 0.3949 0.0
H214 H 0.86343 0.56715 0.40462 0.0
H215 H 0.82465 0.61455 0.4153 0.0
Mn216 Mn 0.51027 0.16048 0.8484 0.0
Mn217 Mn 0.50654 0.20735 0.90846 0.0
C218 C 0.49553 0.21658 0.84542 0.0
C219 C 0.4838 0.12379 0.81675 0.0
C220 C 0.57217 0.1909 0.87794 0.0
O221 O 0.51118 0.12518 0.87966 0.0
O222 O 0.50558 0.15817 0.91844 0.0
C223 C 0.43699 0.18908 0.92614 0.0
N224 N 0.46021 0.21312 0.91901 0.0
C225 C 0.41945 0.25763 0.92548 0.0
C226 C 0.39517 0.23337 0.93311 0.0
C227 C 0.40398 0.19895 0.9334 0.0
C228 C 0.45201 0.24631 0.91864 0.0
H229 H 0.44359 0.16258 0.92621 0.0
C230 C 0.50817 0.12909 0.9065 0.0
O231 O 0.51662 0.12536 0.81818 0.0
O232 O 0.46675 0.1426 0.83419 0.0
N233 N 0.50693 0.25524 0.9024 0.0
C234 C 0.53293 0.27532 0.89352 0.0
C235 C 0.52799 0.3104 0.8913 0.0
C236 C 0.49655 0.3245 0.89854 0.0
C237 C 0.47038 0.3034 0.90814 0.0
C238 C 0.47684 0.26864 0.91008 0.0
H239 H 0.55714 0.26464 0.88785 0.0
O240 O 0.50589 0.20027 0.82312 0.0
O241 O 0.49254 0.19908 0.86891 0.0
O242 O 0.5592 0.17399 0.85742 0.0
O243 O 0.55483 0.20347 0.89837 0.0
C244 C 0.43792 0.31541 0.91529 0.0
C245 C 0.41247 0.29254 0.92393 0.0
H246 H 0.36962 0.24086 0.93856 0.0
H247 H 0.38533 0.18006 0.93911 0.0
H248 H 0.54833 0.32652 0.88391 0.0
H249 H 0.49274 0.35153 0.89653 0.0
H250 H 0.43214 0.34214 0.9139 0.0
H251 H 0.38751 0.30204 0.92908 0.0
Mn252 Mn 0.81711 0.01485 0.35051 0.0
Mn253 Mn 0.76604 0.00225 0.40709 0.0
C254 C 0.76108 0.00195 0.34326 0.0
C255 C 0.85573 0.99258 0.31829 0.0
C256 C 0.78654 0.07194 0.38603 0.0
O257 O 0.85003 0.00968 0.38327 0.0
O258 O 0.81433 -0.00185 0.41939 0.0
C259 C 0.78132 0.92982 0.41655 0.0
N260 N 0.75843 0.95472 0.41106 0.0
C261 C 0.71297 0.91432 0.40803 0.0
C262 C 0.73602 0.88827 0.41388 0.0
C263 C 0.77034 0.89607 0.41814 0.0
C264 C 0.72534 0.9475 0.40692 0.0
H265 H 0.80778 0.93566 0.41956 0.0
C266 C 0.84422 0.0022 0.40926 0.0
O267 O 0.85462 0.02496 0.32308 0.0
O268 O 0.83505 0.97353 0.33247 0.0
N269 N 0.71879 0.00513 0.39844 0.0
C270 C 0.69995 0.0331 0.39242 0.0
C271 C 0.66513 0.02959 0.3872 0.0
C272 C 0.65002 -0.00255 0.38839 0.0
C273 C 0.6698 0.96913 0.39516 0.0
C274 C 0.7043 0.97423 0.40048 0.0
H275 H 0.71146 0.05785 0.39132 0.0
O276 O 0.77888 0.01561 0.32309 0.0
O277 O 0.77705 0.99501 0.36687 0.0
O278 O 0.80415 0.06203 0.36475 0.0
O279 O 0.77198 0.05173 0.4035 0.0
C280 C 0.65674 0.93598 0.39639 0.0
C281 C 0.67831 0.90859 0.4028 0.0
H282 H 0.72769 0.86218 0.41493 0.0
H283 H 0.78832 0.87609 0.42249 0.0
H284 H 0.65002 0.05159 0.38207 0.0
H285 H 0.62323 0.99479 0.38402 0.0
H286 H 0.6302 0.93123 0.3922 0.0
H287 H 0.66803 0.88319 0.40344 0.0
H288 H 0.98902 0.36592 0.96467 0.0
H289 H 0.99056 0.41608 0.99519 0.0
H290 H 0.98012 0.48007 0.92121 0.0
H291 H 0.97808 0.43027 0.89053 0.0
H292 H 0.03623 0.47016 0.99406 0.0
H293 H 0.90517 0.51446 0.97382 0.0
H294 H 0.91924 0.47243 0.96458 0.0
H295 H 0.92969 0.50778 0.94209 0.0
C296 C 0.98687 0.39063 0.95484 0.0
C297 C 0.98319 0.39394 0.92509 0.0
C298 C 0.9878 0.41928 0.97235 0.0
C299 C 0.98488 0.45176 0.96051 0.0
C300 C 0.98165 0.45521 0.93086 0.0
H301 H 0.99118 0.65621 0.02829 0.0
H302 H 0.98837 0.60596 0.9979 0.0
C303 C 0.98069 0.42664 0.91333 0.0
C304 C 0.98614 0.4821 0.97909 0.0
H305 H 0.94127 0.55193 -0.00076 0.0
C306 C 0.01541 0.48795 0.99533 0.0
C307 C 0.95897 0.50531 0.98062 0.0
C308 C 0.92635 0.49962 0.96456 0.0
C309 C 0.01849 0.51672 0.0127 0.0
C310 C 0.99133 0.53995 0.0142 0.0
C311 C 0.96206 0.53411 0.99797 0.0
C312 C 0.99272 0.57031 0.03272 0.0
C313 C 0.05107 0.5224 0.02882 0.0
C314 C 0.99552 0.56688 0.06241 0.0
C315 C -0.00285 0.59548 0.07986 0.0
C316 C 0.99586 0.6282 0.06798 0.0
C317 C 0.99244 0.63149 0.0382 0.0
C318 C 0.99078 0.6028 0.02077 0.0
H319 H 0.07218 0.50723 0.01985 0.0
H320 H 0.05838 0.54953 0.02849 0.0
H321 H 0.04752 0.5147 0.05139 0.0
H322 H 0.99635 0.54202 0.07211 0.0
H323 H -0.00045 0.59187 0.10267 0.0
H324 H 0.3588 0.50377 0.5365 0.0
H325 H 0.40956 0.50203 0.50677 0.0
H326 H 0.47201 0.51383 0.58156 0.0
H327 H 0.42155 0.51517 0.61157 0.0
H328 H 0.46027 0.55069 0.50043 0.0
H329 H 0.5128 0.43062 0.54306 0.0
H330 H 0.46972 0.44367 0.54951 0.0
H331 H 0.50381 0.46191 0.56976 0.0
C332 C 0.38329 0.50593 0.54671 0.0
C333 C 0.38599 0.50947 0.57651 0.0
C334 C 0.41229 0.50494 0.52964 0.0
C335 C 0.44456 0.50729 0.542 0.0
C336 C 0.44738 0.51125 0.57164 0.0
H337 H 0.6486 0.50584 0.47159 0.0
H338 H 0.59921 0.51055 0.5028 0.0
C339 C 0.41843 0.51219 0.58875 0.0
C340 C 0.47521 0.50622 0.52377 0.0
H341 H 0.54774 0.46167 0.51135 0.0
C342 C 0.47936 0.53118 0.50275 0.0
C343 C 0.50012 0.48079 0.52691 0.0
C344 C 0.49636 0.45253 0.54834 0.0
C345 C 0.50793 0.5316 0.48495 0.0
C346 C 0.53272 0.50608 0.48799 0.0
C347 C 0.52872 0.48126 0.50914 0.0
C348 C 0.56258 0.50412 0.46893 0.0
C349 C 0.51158 0.55965 0.46331 0.0
C350 C 0.55833 0.49867 0.43959 0.0
C351 C 0.58643 0.49593 0.42168 0.0
C352 C 0.61947 0.49841 0.43277 0.0
C353 C 0.6236 0.50386 0.46225 0.0
C354 C 0.59541 0.50653 0.48016 0.0
H355 H 0.49544 0.58174 0.46868 0.0
H356 H 0.53829 0.56822 0.46177 0.0
H357 H 0.50369 0.55016 0.44205 0.0
H358 H 0.53322 0.4961 0.43056 0.0
H359 H 0.58218 0.49162 0.39914 0.0
H360 H 0.49238 0.89791 0.09921 0.0
H361 H 0.49516 0.94759 0.06841 0.0
H362 H 0.50471 0.88322 0.99463 0.0
H363 H 0.50151 0.83316 0.02521 0.0
H364 H 0.54627 0.96788 0.03128 0.0
H365 H 0.42591 0.94529 0.97304 0.0
H366 H 0.43662 0.9232 0.00552 0.0
H367 H 0.4551 0.91053 0.97217 0.0
C368 C 0.49499 0.89416 0.07643 0.0
C369 C 0.49647 0.86139 0.06472 0.0
C370 C 0.49662 0.92267 0.05886 0.0
C371 C 0.49961 0.9191 0.02921 0.0
C372 C 0.50167 0.88653 0.01742 0.0
H373 H 0.51276 0.06284 0.88964 0.0
H374 H 0.51161 0.01233 0.91961 0.0
C375 C 0.5 0.85793 0.03498 0.0
C376 C 0.50105 0.94959 0.01078 0.0
H377 H 0.46013 0.99054 0.95667 0.0
C378 C 0.5274 0.97291 0.01501 0.0
C379 C 0.47638 0.95606 0.98958 0.0
C380 C 0.44671 0.93264 0.98489 0.0
C381 C 0.53002 0.00233 -0.00166 0.0
C382 C 0.50531 0.00883 0.97721 0.0
C383 C 0.47903 0.98546 0.97289 0.0
C384 C 0.50627 0.03973 0.95927 0.0
C385 C 0.55956 0.02587 0.00313 0.0
C386 C 0.50325 0.07193 0.97162 0.0
C387 C 0.50391 0.10097 0.95456 0.0
C388 C 0.50744 0.09835 0.92475 0.0
C389 C 0.51013 0.06594 0.91249 0.0
C390 C 0.50944 0.03696 0.92958 0.0
H391 H 0.58046 0.01323 0.01486 0.0
H392 H 0.56953 0.03555 0.98253 0.0
H393 H 0.55107 0.04783 0.01599 0.0
H394 H 0.50011 0.07459 0.99446 0.0
H395 H 0.50153 0.12543 0.96476 0.0
H396 H 0.84389 0.98973 0.46697 0.0
H397 H 0.89273 0.98605 0.49897 0.0
H398 H 0.95988 0.0019 0.42776 0.0
H399 H 0.9115 0.00609 0.39568 0.0
H400 H 0.94831 0.94184 0.49817 0.0
H401 H 0.98935 0.07509 0.4842 0.0
H402 H 0.94819 0.06021 0.47312 0.0
H403 H 0.98474 0.05239 0.45126 0.0
C404 C 0.86903 0.99247 0.45807 0.0
C405 C 0.87365 -0.00144 0.42873 0.0
C406 C 0.89691 0.99033 0.47642 0.0
C407 C 0.92986 0.99435 0.46581 0.0
C408 C 0.93462 -0.00048 0.43649 0.0
H409 H 0.13279 0.99112 0.53463 0.0
H410 H 0.08228 0.99233 0.50455 0.0
C411 C 0.90685 0.00173 0.41815 0.0
C412 C 0.9594 0.99295 0.48529 0.0
H413 H 0.02759 0.03853 0.50832 0.0
C414 C 0.96554 0.96303 0.50058 0.0
C415 C 0.98178 0.02067 0.48838 0.0
C416 C 0.97559 0.05403 0.47359 0.0
C417 C 0.99402 0.95979 0.51831 0.0
C418 C 0.01662 0.98737 0.52108 0.0
C419 C 0.01029 0.01738 0.50601 0.0
C420 C 0.04711 0.98567 0.53944 0.0
C421 C 0.00019 0.92662 0.53337 0.0
C422 C 0.04402 0.9818 0.56907 0.0
C423 C 0.07283 0.98111 0.58638 0.0
C424 C 0.10534 0.98439 0.57439 0.0
C425 C 0.10825 0.98835 0.54464 0.0
C426 C 0.0794 0.98911 0.52738 0.0
H427 H 0.98513 0.9057 0.52387 0.0
H428 H 0.0274 0.9197 0.5326 0.0
H429 H 0.99278 0.92911 0.5561 0.0
H430 H 0.01928 0.97973 0.57886 0.0
H431 H 0.06955 0.97816 0.60919 0.0
H432 H 0.10712 0.74473 0.07502 0.0
H433 H 0.16797 0.75436 0.07675 0.0
H434 H 0.17331 0.7031 0.15784 0.0
H435 H 0.11227 0.69286 0.15625 0.0
H436 H 0.2033 0.79042 0.11853 0.0
H437 H 0.24799 0.65743 0.11057 0.0
H438 H 0.20522 0.66971 0.10189 0.0
H439 H 0.21795 0.6655 0.13851 0.0
C440 C 0.12115 0.73513 0.09315 0.0
C441 C 0.1047 0.7179 0.11549 0.0
C442 C 0.15596 0.74078 0.0941 0.0
C443 C 0.17512 0.72925 0.11731 0.0
C444 C 0.159 0.71174 0.13953 0.0
H445 H 0.38127 0.79715 0.15473 0.0
H446 H 0.32028 0.78683 0.157 0.0
C447 C 0.12409 0.70599 0.13859 0.0
C448 C 0.21179 0.73662 0.11845 0.0
H449 H 0.28966 0.69947 0.11801 0.0
C450 C 0.22224 0.77058 0.1185 0.0
C451 C 0.2363 0.71062 0.11819 0.0
C452 C 0.22645 0.67374 0.11705 0.0
C453 C 0.25666 0.77928 0.11809 0.0
C454 C 0.28117 0.75328 0.11805 0.0
C455 C 0.27072 0.71931 0.11821 0.0
C456 C 0.31782 0.76066 0.11652 0.0
C457 C 0.26648 0.81615 0.11686 0.0
C458 C 0.3366 0.74913 0.09312 0.0
C459 C 0.37139 0.75482 0.09178 0.0
C460 C 0.38819 0.7721 0.11391 0.0
C461 C 0.36917 0.784 0.13721 0.0
C462 C 0.33428 0.7782 0.13854 0.0
H463 H 0.24483 0.83246 0.11059 0.0
H464 H 0.27528 0.82438 0.13824 0.0
H465 H 0.28748 0.82021 0.1015 0.0
H466 H 0.32432 0.73553 0.07592 0.0
H467 H 0.38513 0.74522 0.07351 0.0
H468 H 0.31268 0.61701 0.67036 0.0
H469 H 0.29566 0.67621 0.67633 0.0
H470 H 0.24639 0.67389 0.59428 0.0
H471 H 0.26301 0.61511 0.58803 0.0
H472 H 0.30815 0.73397 0.64014 0.0
H473 H 0.17151 0.70469 0.65072 0.0
H474 H 0.20412 0.67309 0.65508 0.0
H475 H 0.19083 0.68572 0.61996 0.0
C476 C 0.29848 0.62916 0.65346 0.0
C477 C 0.28901 0.61113 0.62881 0.0
C478 C 0.28871 0.66292 0.65698 0.0
C479 C 0.26916 0.67902 0.63602 0.0
C480 C 0.26084 0.66158 0.61097 0.0
H481 H 0.23043 0.88098 0.58737 0.0
H482 H 0.24775 0.82246 0.59406 0.0
C483 C 0.2706 0.62801 0.60739 0.0
C484 C 0.25739 0.71416 0.63991 0.0
H485 H 0.1858 0.76236 0.64035 0.0
C486 C 0.28144 0.74022 0.64062 0.0
C487 C 0.22253 0.72211 0.64102 0.0
C488 C 0.19572 0.69492 0.64195 0.0
C489 C 0.27143 0.77425 0.64071 0.0
C490 C 0.23655 0.7822 0.63972 0.0
C491 C 0.21252 0.75613 0.64074 0.0
C492 C 0.22468 0.81729 0.63566 0.0
C493 C 0.29825 0.80143 0.64135 0.0
C494 C 0.20473 0.83327 0.65638 0.0
C495 C 0.19451 0.86686 0.6526 0.0
C496 C 0.20393 0.88484 0.6279 0.0
C497 C 0.22284 0.86811 0.60675 0.0
C498 C 0.23304 0.83469 0.6106 0.0
H499 H 0.32245 0.79177 0.65026 0.0
H500 H 0.30318 0.81026 0.61926 0.0
H501 H 0.28989 0.82348 0.6542 0.0
H502 H 0.19773 0.82001 0.67573 0.0
H503 H 0.17995 0.87891 0.66931 0.0
H504 H 0.61738 0.17877 0.83462 0.0
H505 H 0.67614 0.1981 0.83166 0.0
H506 H 0.66837 0.24099 0.91595 0.0
H507 H 0.60979 0.22219 0.91913 0.0
H508 H 0.69416 0.28586 0.87421 0.0
H509 H 0.76042 0.16169 0.87379 0.0
H510 H 0.72727 0.16677 0.84786 0.0
H511 H 0.71701 0.16619 0.88516 0.0
C512 C 0.6283 0.19186 0.85272 0.0
C513 C 0.60879 0.19891 0.87711 0.0
C514 C 0.66189 0.20287 0.85097 0.0
C515 C 0.67653 0.22086 0.87363 0.0
C516 C 0.65744 0.22721 0.89822 0.0
H517 H 0.88005 0.26915 0.91741 0.0
H518 H 0.82121 0.25128 0.91441 0.0
C519 C 0.62396 0.2163 0.9 0.0
C520 C 0.71137 0.23427 0.87158 0.0
H521 H 0.79425 0.21055 0.86882 0.0
C522 C 0.71609 0.26946 0.87286 0.0
C523 C 0.73978 0.21271 0.86994 0.0
C524 C 0.73609 0.17471 0.86932 0.0
C525 C 0.74862 0.28368 0.873 0.0
C526 C 0.77701 0.2621 0.87155 0.0
C527 C 0.77229 0.22696 0.86981 0.0
C528 C 0.81193 0.27521 0.87368 0.0
C529 C 0.75248 0.32153 0.87566 0.0
C530 C 0.826 0.29505 0.85188 0.0
C531 C 0.85981 0.30546 0.85349 0.0
C532 C 0.88004 0.29603 0.87691 0.0
C533 C 0.86536 0.2769 0.89903 0.0
C534 C 0.83172 0.26653 0.89736 0.0
H535 H 0.72827 0.33406 0.88137 0.0
H536 H 0.77173 0.32788 0.89208 0.0
H537 H 0.76127 0.33204 0.85499 0.0
H538 H 0.81112 0.30172 0.8333 0.0
H539 H 0.87029 0.32002 0.83602 0.0
H540 H 0.68678 0.37467 0.35508 0.0
H541 H 0.69986 0.31451 0.35851 0.0
H542 H 0.75408 0.33216 0.43698 0.0
H543 H 0.74171 0.39252 0.43356 0.0
H544 H 0.79035 0.29434 0.39895 0.0
H545 H 0.66089 0.24222 0.41074 0.0
H546 H 0.6653 0.26933 0.38024 0.0
H547 H 0.6703 0.28656 0.41552 0.0
C548 C 0.70113 0.36579 0.37329 0.0
C549 C 0.71314 0.38853 0.39406 0.0
C550 C 0.70844 0.33132 0.37527 0.0
C551 C 0.72755 0.31884 0.39819 0.0
C552 C 0.73916 0.3413 0.41918 0.0
H553 H 0.75406 0.10361 0.43014 0.0
H554 H 0.74196 0.16383 0.43511 0.0
C555 C 0.73198 0.3758 0.41719 0.0
C556 C 0.73708 0.28267 0.39937 0.0
H557 H 0.70445 0.20275 0.39896 0.0
C558 C 0.77159 0.27429 0.39921 0.0
C559 C 0.71257 0.25661 0.40009 0.0
C560 C 0.6752 0.26408 0.40195 0.0
C561 C 0.78225 0.24046 0.39892 0.0
C562 C 0.75771 0.21442 0.39821 0.0
C563 C 0.72322 0.2228 0.39921 0.0
C564 C 0.76714 0.1783 0.39599 0.0
C565 C 0.81967 0.23294 0.39957 0.0
C566 C 0.78541 0.16649 0.37236 0.0
C567 C 0.79257 0.13206 0.36948 0.0
C568 C 0.78123 0.10873 0.39005 0.0
C569 C 0.76322 0.12079 0.41387 0.0
C570 C 0.75622 0.15522 0.41676 0.0
H571 H 0.83435 0.25449 0.40846 0.0
H572 H 0.82509 0.21001 0.41247 0.0
H573 H 0.82869 0.2284 0.37749 0.0
H574 H 0.79343 0.18379 0.35576 0.0
H575 H 0.80626 0.12369 0.35076 0.0
H576 H 0.78588 0.45765 0.3297 0.0
H577 H 0.83835 0.4784 0.30807 0.0
H578 H 0.81044 0.58067 0.32995 0.0
H579 H 0.75841 0.55971 0.35216 0.0
H580 H 0.83495 0.51755 0.26238 0.0
H581 H 0.91129 0.58437 0.34385 0.0
H582 H 0.87975 0.55301 0.35282 0.0
H583 H 0.86738 0.59583 0.34501 0.0
C584 C 0.79177 0.48439 0.33085 0.0
C585 C 0.76879 0.50707 0.34319 0.0
C586 C 0.82164 0.49623 0.31849 0.0
C587 C 0.82861 0.53106 0.31766 0.0
C588 C 0.8062 0.55363 0.33105 0.0
H589 H 0.90658 0.64979 0.18364 0.0
H590 H 0.87516 0.61698 0.2188 0.0
C591 C 0.77645 0.54171 0.34369 0.0
C592 C 0.85563 0.54408 0.29863 0.0
H593 H 0.9211 0.60038 0.29485 0.0
C594 C 0.85419 0.53515 0.26966 0.0
C595 C 0.88097 0.56676 0.30807 0.0
C596 C 0.88524 0.57533 0.33919 0.0
C597 C 0.87616 0.54964 0.24966 0.0
C598 C 0.89975 0.57426 0.25874 0.0
C599 C 0.90261 0.58182 0.28791 0.0
C600 C 0.91952 0.59423 0.23786 0.0
C601 C 0.87339 0.53899 0.21882 0.0
C602 C 0.95499 0.59279 0.23728 0.0
C603 C 0.97316 0.61163 0.21709 0.0
C604 C 0.95605 0.63237 0.19742 0.0
C605 C 0.92054 0.6339 0.19834 0.0
C606 C 0.90251 0.61511 0.21839 0.0
H607 H 0.86188 0.51345 0.21676 0.0
H608 H 0.85695 0.55717 0.20727 0.0
H609 H 0.89858 0.53881 0.20833 0.0
H610 H 0.96854 0.57691 0.25225 0.0
H611 H 0.00052 0.61011 0.21701 0.0
H612 H 0.37424 0.49638 0.7382 0.0
H613 H 0.39786 0.45869 0.77472 0.0
H614 H 0.41264 0.38143 0.71085 0.0
H615 H 0.3874 0.41824 0.6749 0.0
H616 H 0.38008 0.35677 0.75417 0.0
H617 H 0.49075 0.4279 0.79579 0.0
H618 H 0.45145 0.4504 0.79818 0.0
H619 H 0.46874 0.44029 0.76374 0.0
C620 C 0.38326 0.4716 0.73196 0.0
C621 C 0.37901 0.46008 0.70384 0.0
C622 C 0.39686 0.45011 0.75281 0.0
C623 C 0.40724 0.41722 0.74556 0.0
C624 C 0.40464 0.40659 0.71704 0.0
H625 H 0.52918 0.26715 0.81968 0.0
H626 H 0.50522 0.31986 0.80161 0.0
C627 C 0.39035 0.42765 0.69647 0.0
C628 C 0.41802 0.39248 0.76764 0.0
H629 H 0.47721 0.37651 0.81902 0.0
C630 C 0.4013 0.36114 0.7684 0.0
C631 C 0.44554 0.39829 0.78634 0.0
C632 C 0.46539 0.43091 0.78589 0.0
C633 C 0.41241 0.33476 0.78601 0.0
C634 C 0.44009 0.34039 0.80465 0.0
C635 C 0.4558 0.37233 0.80496 0.0
C636 C 0.45593 0.31217 0.82076 0.0
C637 C 0.39568 0.30055 0.78292 0.0
C638 C 0.43674 0.29096 0.83863 0.0
C639 C 0.45021 0.26029 0.84828 0.0
C640 C 0.48361 0.25143 0.84155 0.0
C641 C 0.50353 0.27385 0.82555 0.0
C642 C 0.48987 0.304 0.81533 0.0
H643 H 0.38044 0.29873 0.76304 0.0
H644 H 0.41477 0.27998 0.78264 0.0
H645 H 0.37836 0.29627 0.80118 0.0
H646 H 0.41076 0.29711 0.84371 0.0
H647 H 0.43406 0.24282 0.85975 0.0
H648 H 0.58728 0.83841 0.18079 0.0
H649 H 0.61956 0.87101 0.21546 0.0
H650 H 0.52746 0.91587 0.247 0.0
H651 H 0.4946 0.88271 0.21232 0.0
H652 H 0.62202 0.94127 0.22009 0.0
H653 H 0.57551 0.88099 0.32005 0.0
H654 H 0.56975 0.86182 0.28541 0.0
H655 H 0.54405 0.89709 0.29584 0.0
C656 C 0.57376 0.85515 0.19507 0.0
C657 C 0.53836 0.85798 0.19381 0.0
C658 C 0.59228 0.87374 0.21492 0.0
C659 C 0.57588 0.89554 0.234 0.0
C660 C 0.54053 0.89873 0.23276 0.0
H661 H 0.70821 0.03805 0.32312 0.0
H662 H 0.65678 0.01534 0.30089 0.0
C663 C 0.52185 0.88 0.21282 0.0
C664 C 0.59649 0.91553 0.2543 0.0
H665 H 0.61739 0.92316 0.32478 0.0
C666 C 0.62075 0.93768 0.24301 0.0
C667 C 0.59487 0.91045 0.28415 0.0
C668 C 0.56985 0.88616 0.29724 0.0
C669 C 0.64429 0.95404 0.26059 0.0
C670 C 0.64294 0.94879 0.29046 0.0
C671 C 0.61807 0.92735 0.30191 0.0
C672 C 0.66922 0.96302 0.30952 0.0
C673 C 0.67149 0.97538 0.24682 0.0
C674 C 0.69208 0.94123 0.32324 0.0
C675 C 0.72108 0.95423 0.33634 0.0
C676 C 0.72727 0.98917 0.3362 0.0
C677 C 0.70352 0.01104 0.32382 0.0
C678 C 0.67434 -0.00189 0.31105 0.0
H679 H 0.67328 0.97081 0.22348 0.0
H680 H 0.66558 0.00254 0.25008 0.0
H681 H 0.69658 0.97017 0.25653 0.0
H682 H 0.68864 0.91406 0.3222 0.0
H683 H 0.73963 0.93689 0.34505 0.0
H684 H 0.05425 0.2506 0.85783 0.0
H685 H 0.07732 0.19652 0.84116 0.0
H686 H 0.98269 0.17479 0.79888 0.0
H687 H 0.95895 0.22731 0.81755 0.0
H688 H 0.01072 0.11767 0.81591 0.0
H689 H 0.10718 0.1961 0.76029 0.0
H690 H 0.10946 0.19824 0.79843 0.0
H691 H 0.0729 0.21459 0.78009 0.0
C692 C 0.03801 0.23338 0.84618 0.0
C693 C 0.00462 0.24248 0.83958 0.0
C694 C 0.05134 0.20284 0.83617 0.0
C695 C 0.03204 0.18198 0.8181 0.0
C696 C -0.00188 0.19037 0.81276 0.0
H697 H 0.10187 0.07639 0.67227 0.0
H698 H 0.07581 0.113 0.7079 0.0
C699 C 0.98459 0.22042 0.82332 0.0
C700 C 0.04778 0.15395 0.80174 0.0
H701 H 0.10793 0.13803 0.75136 0.0
C702 C 0.03213 0.12198 0.8019 0.0
C703 C 0.07543 0.15978 0.78315 0.0
C704 C 0.09205 0.19407 0.78019 0.0
C705 C 0.04256 0.09613 0.78327 0.0
C706 C 0.07014 0.1021 0.76469 0.0
C707 C 0.08668 0.13353 0.76551 0.0
C708 C 0.08126 0.07738 0.74275 0.0
C709 C 0.02288 0.0634 0.78272 0.0
C710 C 0.09193 0.04462 0.75018 0.0
C711 C 0.10603 0.02325 0.72952 0.0
C712 C 0.11047 0.03475 0.7014 0.0
C713 C 0.09879 0.067 0.69383 0.0
C714 C 0.08402 0.08795 0.71422 0.0
H715 H -0.00257 0.0663 0.79247 0.0
H716 H 0.01974 0.05401 0.76056 0.0
H717 H 0.03682 0.04398 0.79512 0.0
H718 H 0.0908 0.03611 0.7721 0.0
H719 H 0.11529 -0.0014 0.73591 0.0
H720 H 0.98351 0.38879 0.76339 0.0
H721 H 0.01876 0.41085 0.72428 0.0
H722 H 0.10343 0.41892 0.78201 0.0
H723 H 0.06892 0.39602 0.82058 0.0
H724 H 0.05844 0.46811 0.71385 0.0
H725 H 0.13797 0.35389 0.72141 0.0
H726 H 0.09761 0.35722 0.73916 0.0
H727 H 0.13521 0.37449 0.75538 0.0
C728 C 0.00946 0.39597 0.76775 0.0
C729 C 0.02372 0.39033 0.79482 0.0
C730 C 0.02956 0.40839 0.74542 0.0
C731 C 0.06395 0.41548 0.7501 0.0
C732 C 0.07722 0.41259 0.77776 0.0
H733 H 0.21806 0.53153 0.68142 0.0
H734 H 0.16293 0.51058 0.69639 0.0
C735 C 0.05744 0.39975 0.79982 0.0
C736 C 0.08694 0.42405 0.72621 0.0
H737 H 0.16415 0.40272 0.69967 0.0
C738 C 0.08128 0.45354 0.71026 0.0
C739 C 0.116 0.40428 0.72063 0.0
C740 C 0.12184 0.37049 0.73483 0.0
C741 C 0.10556 0.46537 0.69072 0.0
C742 C 0.13663 0.44778 0.68788 0.0
C743 C 0.14072 0.4167 0.70199 0.0
C744 C 0.16684 0.46284 0.67384 0.0
C745 C 0.0978 0.49685 0.67377 0.0
C746 C 0.188 0.44297 0.65646 0.0
C747 C 0.22016 0.45461 0.64873 0.0
C748 C 0.23113 0.48673 0.65738 0.0
C749 C 0.2096 0.50706 0.67379 0.0
C750 C 0.17784 0.49523 0.68202 0.0
H751 H 0.07048 0.4979 0.66826 0.0
H752 H 0.10356 0.51947 0.68693 0.0
H753 H 0.11278 0.49811 0.65377 0.0
H754 H 0.18039 0.41773 0.65016 0.0
H755 H 0.23699 0.43794 0.63714 0.0
H756 H 0.6218 0.47742 0.27127 0.0
H757 H 0.59753 0.50758 0.2301 0.0
H758 H 0.58769 0.59758 0.28146 0.0
H759 H 0.613 0.56818 0.32194 0.0
H760 H 0.53924 0.54328 0.21722 0.0
H761 H 0.64948 0.62877 0.21775 0.0
H762 H 0.64824 0.59041 0.23861 0.0
H763 H 0.62957 0.62883 0.25208 0.0
C764 C 0.61381 0.50346 0.27379 0.0
C765 C 0.61963 0.52073 0.29954 0.0
C766 C 0.60011 0.52065 0.2503 0.0
C767 C 0.59185 0.5551 0.25253 0.0
C768 C 0.59494 0.57131 0.27903 0.0
H769 H 0.46723 0.69576 0.17474 0.0
H770 H 0.49079 0.64294 0.19257 0.0
C771 C 0.60915 0.55446 0.30219 0.0
C772 C 0.58188 0.57518 0.2272 0.0
H773 H 0.59891 0.65065 0.19538 0.0
C774 C 0.55257 0.56646 0.21197 0.0
C775 C 0.60009 0.60458 0.2194 0.0
C776 C 0.63382 0.61344 0.23261 0.0
C777 C 0.53934 0.58813 0.19093 0.0
C778 C 0.5552 0.61976 0.1859 0.0
C779 C 0.58617 0.6268 0.19937 0.0
C780 C 0.53848 0.64774 0.17003 0.0
C781 C 0.50831 0.57701 0.17469 0.0
C782 C 0.55734 0.6686 0.15158 0.0
C783 C 0.54428 0.69959 0.14238 0.0
C784 C 0.5116 0.70951 0.15037 0.0
C785 C 0.49213 0.68805 0.16761 0.0
C786 C 0.50548 0.65756 0.17748 0.0
H787 H 0.50882 0.54926 0.17098 0.0
H788 H 0.48543 0.58257 0.18756 0.0
H789 H 0.50615 0.59004 0.15377 0.0
H790 H 0.58299 0.66192 0.14573 0.0
H791 H 0.56033 0.7165 0.13024 0.0
H792 H 0.50641 0.1065 0.76346 0.0
H793 H 0.47154 0.08507 0.72386 0.0
H794 H 0.38641 0.07581 0.78089 0.0
H795 H 0.42055 0.09804 0.81999 0.0
H796 H 0.43189 0.02775 0.71266 0.0
H797 H 0.35253 0.14205 0.72067 0.0
H798 H 0.3928 0.13842 0.73859 0.0
H799 H 0.35508 0.12101 0.75449 0.0
C800 C 0.48044 0.09919 0.76756 0.0
C801 C 0.46594 0.1043 0.7946 0.0
C802 C 0.46056 0.08713 0.74495 0.0
C803 C 0.42616 0.07989 0.74931 0.0
C804 C 0.41264 0.08225 0.7769 0.0
H805 H 0.27242 0.96486 0.6799 0.0
H806 H 0.32758 0.98573 0.69489 0.0
C807 C 0.43221 0.09471 0.79926 0.0
C808 C 0.4034 0.07173 0.72518 0.0
H809 H 0.3264 0.09351 0.6984 0.0
C810 C 0.4091 0.04241 0.70904 0.0
C811 C 0.37443 0.09163 0.71957 0.0
C812 C 0.36856 0.12525 0.73403 0.0
C813 C 0.3849 0.03084 0.68932 0.0
C814 C 0.35388 0.04851 0.68648 0.0
C815 C 0.3498 0.07947 0.70073 0.0
C816 C 0.32366 0.03353 0.6724 0.0
C817 C 0.39267 -0.00052 0.67223 0.0
C818 C 0.30249 0.05347 0.65505 0.0
C819 C 0.27031 0.04187 0.6473 0.0
C820 C 0.25935 0.00972 0.65591 0.0
C821 C 0.28088 0.98935 0.67231 0.0
C822 C 0.31265 0.00113 0.68054 0.0
H823 H 0.41999 -0.00151 0.66673 0.0
H824 H 0.38693 0.97676 0.68528 0.0
H825 H 0.37768 -0.00164 0.65222 0.0
H826 H 0.31011 0.07874 0.64879 0.0
H827 H 0.25349 0.05855 0.6357 0.0
H828 H 0.93306 0.77425 0.13304 0.0
H829 H 0.91154 0.82964 0.14759 0.0
H830 H 0.00481 0.84854 0.19298 0.0
H831 H 0.02719 0.79475 0.17613 0.0
H832 H 0.89685 0.84298 0.19729 0.0
H833 H 0.98824 0.94173 0.16858 0.0
H834 H 0.98978 0.9002 0.15262 0.0
H835 H 0.01116 0.90861 0.18596 0.0
C836 C 0.94955 0.79123 0.14469 0.0
C837 C 0.98221 0.78103 0.15251 0.0
C838 C 0.93716 0.8227 0.15334 0.0
C839 C 0.9567 0.84384 0.17104 0.0
C840 C 0.98963 0.83366 0.17841 0.0
H841 H 0.88604 0.93163 0.32068 0.0
H842 H 0.9118 0.90071 0.28126 0.0
C843 C 0.00229 0.80264 0.16913 0.0
C844 C 0.94078 0.87277 0.18623 0.0
H845 H 0.95824 0.95057 0.21455 0.0
C846 C 0.90996 0.86684 0.20028 0.0
C847 C 0.9572 0.90437 0.18998 0.0
C848 C 0.98821 0.91414 0.17314 0.0
C849 C 0.89667 0.89024 0.2196 0.0
C850 C 0.91534 0.91981 0.22605 0.0
C851 C 0.94456 0.92732 0.21028 0.0
C852 C 0.90591 0.9413 0.25065 0.0
C853 C 0.86317 0.88245 0.23364 0.0
C854 C 0.89651 0.97529 0.24702 0.0
C855 C 0.88249 0.99338 0.26987 0.0
C856 C 0.87752 0.97742 0.29634 0.0
C857 C 0.88931 0.94432 0.30037 0.0
C858 C 0.90382 0.92661 0.27784 0.0
H859 H 0.84718 0.86612 0.21981 0.0
H860 H 0.86774 0.86854 0.25384 0.0
H861 H 0.84893 0.90593 0.23859 0.0
H862 H 0.89826 0.98715 0.22623 0.0
H863 H 0.87342 0.01889 0.2663 0.0
loop_
_geom_bond_atom_site_label_1
_geom_bond_atom_site_label_2
_geom_bond_distance
_geom_bond_site_symmetry_2
_ccdc_geom_bond_type
Mn0 O5 2.095 . S
Mn0 O15 2.162 . S
Mn0 O16 2.297 1_455 S
Mn0 O24 2.385 . S
Mn0 O25 2.209 . S
Mn0 O26 2.094 . S
Mn1 O6 2.121 . S
Mn1 N8 2.257 . S
Mn1 N17 2.282 . S
Mn1 O25 2.215 . S
Mn1 O27 2.117 . S
C2 O24 1.234 1_655 S
C2 O25 1.283 1_655 S
C3 O15 1.281 1_655 S
C3 O16 1.236 . S
C4 O26 1.240 . S
C4 O27 1.264 . S
O5 Mn0 2.095 . S
O5 C14 1.250 . S
O6 Mn1 2.121 . S
O6 C14 1.258 . S
C7 N8 1.326 1_655 S
C7 C11 1.460 . S
C7 H13 0.929 . S
N8 Mn1 2.257 . S
N8 C7 1.326 1_455 S
N8 C12 1.362 . S
C9 C10 1.258 . S
C9 C12 1.431 1_655 S
C9 C29 1.449 . S
C10 C9 1.258 . S
C10 C11 1.477 . S
C10 H30 0.931 . S
C11 C7 1.460 . S
C11 C10 1.477 . S
C11 H31 0.930 . S
C12 N8 1.362 . S
C12 C9 1.431 1_455 S
C12 C22 1.476 . S
H13 C7 0.929 . S
C14 O5 1.250 . S
C14 O6 1.258 . S
O15 Mn0 2.162 . S
O15 C3 1.281 1_455 S
O16 Mn0 2.297 1_655 S
O16 C3 1.236 . S
N17 Mn1 2.282 . S
N17 C18 1.328 . S
N17 C22 1.318 . S
C18 N17 1.328 . S
C18 C19 1.457 . S
C18 H23 0.929 . S
C19 C18 1.457 . S
C19 C20 1.291 . S
C19 H32 0.931 . S
C20 C19 1.291 . S
C20 C21 1.373 . S
C20 H33 0.929 . S
C21 C20 1.373 . S
C21 C22 1.396 . S
C21 C28 1.403 . S
C22 C12 1.476 . S
C22 N17 1.318 . S
C22 C21 1.396 . S
H23 C18 0.929 . S
O24 Mn0 2.385 . S
O24 C2 1.234 1_455 S
O25 Mn0 2.209 . S
O25 Mn1 2.215 . S
O25 C2 1.283 1_455 S
O26 Mn0 2.094 . S
O26 C4 1.240 . S
O27 Mn1 2.117 . S
O27 C4 1.264 . S
C28 C21 1.403 . S
C28 C29 1.399 1_455 S
C28 H34 0.929 . S
C29 C9 1.449 . S
C29 C28 1.399 1_655 S
C29 H35 0.930 . S
H30 C10 0.931 . S
H31 C11 0.930 . S
H32 C19 0.931 . S
H33 C20 0.929 . S
H34 C28 0.929 . S
H35 C29 0.930 . S
Mn36 O41 2.095 . S
Mn36 O51 2.162 . S
Mn36 O52 2.297 . S
Mn36 O60 2.385 . S
Mn36 O61 2.209 . S
Mn36 O62 2.094 . S
Mn37 O42 2.121 . S
Mn37 N44 2.257 . S
Mn37 N53 2.282 . S
Mn37 O61 2.215 . S
Mn37 O63 2.117 . S
C38 O60 1.234 . S
C38 O61 1.283 . S
C39 O51 1.281 . S
C39 O52 1.236 . S
C40 O62 1.240 . S
C40 O63 1.264 . S
O41 Mn36 2.095 . S
O41 C50 1.250 . S
O42 Mn37 2.121 . S
O42 C50 1.258 . S
C43 N44 1.326 . S
C43 C47 1.460 . S
C43 H49 0.929 . S
N44 Mn37 2.257 . S
N44 C43 1.326 . S
N44 C48 1.362 . S
C45 C46 1.258 . S
C45 C48 1.431 . S
C45 C65 1.449 . S
C46 C45 1.258 . S
C46 C47 1.477 . S
C46 H66 0.931 . S
C47 C43 1.460 . S
C47 C46 1.477 . S
C47 H67 0.930 . S
C48 N44 1.362 . S
C48 C45 1.431 . S
C48 C58 1.476 . S
H49 C43 0.929 . S
C50 O41 1.250 . S
C50 O42 1.258 . S
O51 Mn36 2.162 . S
O51 C39 1.281 . S
O52 Mn36 2.297 . S
O52 C39 1.236 . S
N53 Mn37 2.282 . S
N53 C54 1.328 . S
N53 C58 1.318 . S
C54 N53 1.328 . S
C54 C55 1.457 . S
C54 H59 0.929 . S
C55 C54 1.457 . S
C55 C56 1.291 . S
C55 H68 0.931 . S
C56 C55 1.291 . S
C56 C57 1.373 . S
C56 H69 0.929 . S
C57 C56 1.373 . S
C57 C58 1.396 . S
C57 C64 1.403 . S
C58 C48 1.476 . S
C58 N53 1.318 . S
C58 C57 1.396 . S
H59 C54 0.929 . S
O60 Mn36 2.385 . S
O60 C38 1.234 . S
O61 Mn36 2.209 . S
O61 Mn37 2.215 . S
O61 C38 1.283 . S
O62 Mn36 2.094 . S
O62 C40 1.240 . S
O63 Mn37 2.117 . S
O63 C40 1.264 . S
C64 C57 1.403 . S
C64 C65 1.399 . S
C64 H70 0.929 . S
C65 C45 1.449 . S
C65 C64 1.399 . S
C65 H71 0.930 . S
H66 C46 0.931 . S
H67 C47 0.930 . S
H68 C55 0.931 . S
H69 C56 0.929 . S
H70 C64 0.929 . S
H71 C65 0.930 . S
Mn72 O77 2.095 . S
Mn72 O87 2.162 . S
Mn72 O88 2.297 . S
Mn72 O96 2.385 . S
Mn72 O97 2.209 . S
Mn72 O98 2.094 . S
Mn73 O78 2.121 . S
Mn73 N80 2.257 . S
Mn73 N89 2.282 . S
Mn73 O97 2.215 . S
Mn73 O99 2.117 . S
C74 O96 1.234 . S
C74 O97 1.283 . S
C75 O87 1.281 . S
C75 O88 1.236 . S
C76 O98 1.240 . S
C76 O99 1.264 . S
O77 Mn72 2.095 . S
O77 C86 1.250 . S
O78 Mn73 2.121 . S
O78 C86 1.258 . S
C79 N80 1.326 . S
C79 C83 1.460 . S
C79 H85 0.929 . S
N80 Mn73 2.257 . S
N80 C79 1.326 . S
N80 C84 1.362 . S
C81 C82 1.258 . S
C81 C84 1.431 . S
C81 C101 1.449 . S
C82 C81 1.258 . S
C82 C83 1.477 . S
C82 H102 0.931 . S
C83 C79 1.460 . S
C83 C82 1.477 . S
C83 H103 0.930 . S
C84 N80 1.362 . S
C84 C81 1.431 . S
C84 C94 1.476 . S
H85 C79 0.929 . S
C86 O77 1.250 . S
C86 O78 1.258 . S
O87 Mn72 2.162 . S
O87 C75 1.281 . S
O88 Mn72 2.297 . S
O88 C75 1.236 . S
N89 Mn73 2.282 . S
N89 C90 1.328 . S
N89 C94 1.318 . S
C90 N89 1.328 . S
C90 C91 1.457 . S
C90 H95 0.929 . S
C91 C90 1.457 . S
C91 C92 1.291 . S
C91 H104 0.931 . S
C92 C91 1.291 . S
C92 C93 1.373 . S
C92 H105 0.929 . S
C93 C92 1.373 . S
C93 C94 1.396 . S
C93 C100 1.403 . S
C94 C84 1.476 . S
C94 N89 1.318 . S
C94 C93 1.396 . S
H95 C90 0.929 . S
O96 Mn72 2.385 . S
O96 C74 1.234 . S
O97 Mn72 2.209 . S
O97 Mn73 2.215 . S
O97 C74 1.283 . S
O98 Mn72 2.094 . S
O98 C76 1.240 . S
O99 Mn73 2.117 . S
O99 C76 1.264 . S
C100 C93 1.403 . S
C100 C101 1.399 . S
C100 H106 0.929 . S
C101 C81 1.449 . S
C101 C100 1.399 . S
C101 H107 0.930 . S
H102 C82 0.931 . S
H103 C83 0.930 . S
H104 C91 0.931 . S
H105 C92 0.929 . S
H106 C100 0.929 . S
H107 C101 0.930 . S
Mn108 O113 2.095 . S
Mn108 O123 2.162 . S
Mn108 O124 2.297 1_565 S
Mn108 O132 2.385 . S
Mn108 O133 2.209 . S
Mn108 O134 2.094 . S
Mn109 O114 2.121 . S
Mn109 N116 2.257 . S
Mn109 N125 2.282 . S
Mn109 O133 2.215 . S
Mn109 O135 2.117 . S
C110 O132 1.234 1_545 S
C110 O133 1.283 1_545 S
C111 O123 1.281 1_545 S
C111 O124 1.236 . S
C112 O134 1.240 . S
C112 O135 1.264 . S
O113 Mn108 2.095 . S
O113 C122 1.250 . S
O114 Mn109 2.121 . S
O114 C122 1.258 . S
C115 N116 1.326 1_545 S
C115 C119 1.460 . S
C115 H121 0.929 . S
N116 Mn109 2.257 . S
N116 C115 1.326 1_565 S
N116 C120 1.362 . S
C117 C118 1.258 . S
C117 C120 1.431 1_545 S
C117 C137 1.449 . S
C118 C117 1.258 . S
C118 C119 1.477 . S
C118 H138 0.931 . S
C119 C115 1.460 . S
C119 C118 1.477 . S
C119 H139 0.930 . S
C120 N116 1.362 . S
C120 C117 1.431 1_565 S
C120 C130 1.476 . S
H121 C115 0.929 . S
C122 O113 1.250 . S
C122 O114 1.258 . S
O123 Mn108 2.162 . S
O123 C111 1.281 1_565 S
O124 Mn108 2.297 1_545 S
O124 C111 1.236 . S
N125 Mn109 2.282 . S
N125 C126 1.328 . S
N125 C130 1.318 . S
C126 N125 1.328 . S
C126 C127 1.457 . S
C126 H131 0.929 . S
C127 C126 1.457 . S
C127 C128 1.291 . S
C127 H140 0.931 . S
C128 C127 1.291 . S
C128 C129 1.373 . S
C128 H141 0.929 . S
C129 C128 1.373 . S
C129 C130 1.396 . S
C129 C136 1.403 . S
C130 C120 1.476 . S
C130 N125 1.318 . S
C130 C129 1.396 . S
H131 C126 0.929 . S
O132 Mn108 2.385 . S
O132 C110 1.234 1_565 S
O133 Mn108 2.209 . S
O133 Mn109 2.215 . S
O133 C110 1.283 1_565 S
O134 Mn108 2.094 . S
O134 C112 1.240 . S
O135 Mn109 2.117 . S
O135 C112 1.264 . S
C136 C129 1.403 . S
C136 C137 1.399 1_565 S
C136 H142 0.929 . S
C137 C117 1.449 . S
C137 C136 1.399 1_545 S
C137 H143 0.930 . S
H138 C118 0.931 . S
H139 C119 0.930 . S
H140 C127 0.931 . S
H141 C128 0.929 . S
H142 C136 0.929 . S
H143 C137 0.930 . S
Mn144 O149 2.095 . S
Mn144 O159 2.162 . S
Mn144 O160 2.297 1_655 S
Mn144 O168 2.385 . S
Mn144 O169 2.209 . S
Mn144 O170 2.094 . S
Mn145 O150 2.121 . S
Mn145 N152 2.257 . S
Mn145 N161 2.282 . S
Mn145 O169 2.215 . S
Mn145 O171 2.117 . S
C146 O168 1.234 1_455 S
C146 O169 1.283 1_455 S
C147 O159 1.281 1_455 S
C147 O160 1.236 . S
C148 O170 1.240 . S
C148 O171 1.264 . S
O149 Mn144 2.095 . S
O149 C158 1.250 . S
O150 Mn145 2.121 . S
O150 C158 1.258 . S
C151 N152 1.326 1_455 S
C151 C155 1.460 . S
C151 H157 0.929 . S
N152 Mn145 2.257 . S
N152 C151 1.326 1_655 S
N152 C156 1.362 . S
C153 C154 1.258 . S
C153 C156 1.431 1_455 S
C153 C173 1.449 . S
C154 C153 1.258 . S
C154 C155 1.477 . S
C154 H174 0.931 . S
C155 C151 1.460 . S
C155 C154 1.477 . S
C155 H175 0.930 . S
C156 N152 1.362 . S
C156 C153 1.431 1_655 S
C156 C166 1.476 . S
H157 C151 0.929 . S
C158 O149 1.250 . S
C158 O150 1.258 . S
O159 Mn144 2.162 . S
O159 C147 1.281 1_655 S
O160 Mn144 2.297 1_455 S
O160 C147 1.236 . S
N161 Mn145 2.282 . S
N161 C162 1.328 . S
N161 C166 1.318 . S
C162 N161 1.328 . S
C162 C163 1.457 . S
C162 H167 0.929 . S
C163 C162 1.457 . S
C163 C164 1.291 . S
C163 H176 0.931 . S
C164 C163 1.291 . S
C164 C165 1.373 . S
C164 H177 0.929 . S
C165 C164 1.373 . S
C165 C166 1.396 . S
C165 C172 1.403 . S
C166 C156 1.476 . S
C166 N161 1.318 . S
C166 C165 1.396 . S
H167 C162 0.929 . S
O168 Mn144 2.385 . S
O168 C146 1.234 1_655 S
O169 Mn144 2.209 . S
O169 Mn145 2.215 . S
O169 C146 1.283 1_655 S
O170 Mn144 2.094 . S
O170 C148 1.240 . S
O171 Mn145 2.117 . S
O171 C148 1.264 . S
C172 C165 1.403 . S
C172 C173 1.399 1_655 S
C172 H178 0.929 . S
C173 C153 1.449 . S
C173 C172 1.399 1_455 S
C173 H179 0.930 . S
H174 C154 0.931 . S
H175 C155 0.930 . S
H176 C163 0.931 . S
H177 C164 0.929 . S
H178 C172 0.929 . S
H179 C173 0.930 . S
Mn180 O185 2.095 . S
Mn180 O195 2.162 . S
Mn180 O196 2.297 . S
Mn180 O204 2.385 . S
Mn180 O205 2.209 . S
Mn180 O206 2.094 . S
Mn181 O186 2.121 . S
Mn181 N188 2.257 . S
Mn181 N197 2.282 . S
Mn181 O205 2.215 . S
Mn181 O207 2.117 . S
C182 O204 1.234 . S
C182 O205 1.283 . S
C183 O195 1.281 . S
C183 O196 1.236 . S
C184 O206 1.240 . S
C184 O207 1.264 . S
O185 Mn180 2.095 . S
O185 C194 1.250 . S
O186 Mn181 2.121 . S
O186 C194 1.258 . S
C187 N188 1.326 . S
C187 C191 1.460 . S
C187 H193 0.929 . S
N188 Mn181 2.257 . S
N188 C187 1.326 . S
N188 C192 1.362 . S
C189 C190 1.258 . S
C189 C192 1.431 . S
C189 C209 1.449 . S
C190 C189 1.258 . S
C190 C191 1.477 . S
C190 H210 0.931 . S
C191 C187 1.460 . S
C191 C190 1.477 . S
C191 H211 0.930 . S
C192 N188 1.362 . S
C192 C189 1.431 . S
C192 C202 1.476 . S
H193 C187 0.929 . S
C194 O185 1.250 . S
C194 O186 1.258 . S
O195 Mn180 2.162 . S
O195 C183 1.281 . S
O196 Mn180 2.297 . S
O196 C183 1.236 . S
N197 Mn181 2.282 . S
N197 C198 1.328 . S
N197 C202 1.318 . S
C198 N197 1.328 . S
C198 C199 1.457 . S
C198 H203 0.929 . S
C199 C198 1.457 . S
C199 C200 1.291 . S
C199 H212 0.931 . S
C200 C199 1.291 . S
C200 C201 1.373 . S
C200 H213 0.929 . S
C201 C200 1.373 . S
C201 C202 1.396 . S
C201 C208 1.403 . S
C202 C192 1.476 . S
C202 N197 1.318 . S
C202 C201 1.396 . S
H203 C198 0.929 . S
O204 Mn180 2.385 . S
O204 C182 1.234 . S
O205 Mn180 2.209 . S
O205 Mn181 2.215 . S
O205 C182 1.283 . S
O206 Mn180 2.094 . S
O206 C184 1.240 . S
O207 Mn181 2.117 . S
O207 C184 1.264 . S
C208 C201 1.403 . S
C208 C209 1.399 . S
C208 H214 0.929 . S
C209 C189 1.449 . S
C209 C208 1.399 . S
C209 H215 0.930 . S
H210 C190 0.931 . S
H211 C191 0.930 . S
H212 C199 0.931 . S
H213 C200 0.929 . S
H214 C208 0.929 . S
H215 C209 0.930 . S
Mn216 O221 2.095 . S
Mn216 O231 2.162 . S
Mn216 O232 2.297 . S
Mn216 O240 2.385 . S
Mn216 O241 2.209 . S
Mn216 O242 2.094 . S
Mn217 O222 2.121 . S
Mn217 N224 2.257 . S
Mn217 N233 2.282 . S
Mn217 O241 2.215 . S
Mn217 O243 2.117 . S
C218 O240 1.234 . S
C218 O241 1.283 . S
C219 O231 1.281 . S
C219 O232 1.236 . S
C220 O242 1.240 . S
C220 O243 1.264 . S
O221 Mn216 2.095 . S
O221 C230 1.250 . S
O222 Mn217 2.121 . S
O222 C230 1.258 . S
C223 N224 1.326 . S
C223 C227 1.460 . S
C223 H229 0.929 . S
N224 Mn217 2.257 . S
N224 C223 1.326 . S
N224 C228 1.362 . S
C225 C226 1.258 . S
C225 C228 1.431 . S
C225 C245 1.449 . S
C226 C225 1.258 . S
C226 C227 1.477 . S
C226 H246 0.931 . S
C227 C223 1.460 . S
C227 C226 1.477 . S
C227 H247 0.930 . S
C228 N224 1.362 . S
C228 C225 1.431 . S
C228 C238 1.476 . S
H229 C223 0.929 . S
C230 O221 1.250 . S
C230 O222 1.258 . S
O231 Mn216 2.162 . S
O231 C219 1.281 . S
O232 Mn216 2.297 . S
O232 C219 1.236 . S
N233 Mn217 2.282 . S
N233 C234 1.328 . S
N233 C238 1.318 . S
C234 N233 1.328 . S
C234 C235 1.457 . S
C234 H239 0.929 . S
C235 C234 1.457 . S
C235 C236 1.291 . S
C235 H248 0.931 . S
C236 C235 1.291 . S
C236 C237 1.373 . S
C236 H249 0.929 . S
C237 C236 1.373 . S
C237 C238 1.396 . S
C237 C244 1.403 . S
C238 C228 1.476 . S
C238 N233 1.318 . S
C238 C237 1.396 . S
H239 C234 0.929 . S
O240 Mn216 2.385 . S
O240 C218 1.234 . S
O241 Mn216 2.209 . S
O241 Mn217 2.215 . S
O241 C218 1.283 . S
O242 Mn216 2.094 . S
O242 C220 1.240 . S
O243 Mn217 2.117 . S
O243 C220 1.264 . S
C244 C237 1.403 . S
C244 C245 1.399 . S
C244 H250 0.929 . S
C245 C225 1.449 . S
C245 C244 1.399 . S
C245 H251 0.930 . S
H246 C226 0.931 . S
H247 C227 0.930 . S
H248 C235 0.931 . S
H249 C236 0.929 . S
H250 C244 0.929 . S
H251 C245 0.930 . S
Mn252 O257 2.095 . S
Mn252 O267 2.162 . S
Mn252 O268 2.297 1_545 S
Mn252 O276 2.385 . S
Mn252 O277 2.209 . S
Mn252 O278 2.094 . S
Mn253 O258 2.121 . S
Mn253 N260 2.257 . S
Mn253 N269 2.282 . S
Mn253 O277 2.215 . S
Mn253 O279 2.117 . S
C254 O276 1.234 1_565 S
C254 O277 1.283 1_565 S
C255 O267 1.281 1_565 S
C255 O268 1.236 . S
C256 O278 1.240 . S
C256 O279 1.264 . S
O257 Mn252 2.095 . S
O257 C266 1.250 . S
O258 Mn253 2.121 . S
O258 C266 1.258 . S
C259 N260 1.326 1_565 S
C259 C263 1.460 . S
C259 H265 0.929 . S
N260 Mn253 2.257 . S
N260 C259 1.326 1_545 S
N260 C264 1.362 . S
C261 C262 1.258 . S
C261 C264 1.431 1_565 S
C261 C281 1.449 . S
C262 C261 1.258 . S
C262 C263 1.477 . S
C262 H282 0.931 . S
C263 C259 1.460 . S
C263 C262 1.477 . S
C263 H283 0.930 . S
C264 N260 1.362 . S
C264 C261 1.431 1_545 S
C264 C274 1.476 . S
H265 C259 0.929 . S
C266 O257 1.250 . S
C266 O258 1.258 . S
O267 Mn252 2.162 . S
O267 C255 1.281 1_545 S
O268 Mn252 2.297 1_565 S
O268 C255 1.236 . S
N269 Mn253 2.282 . S
N269 C270 1.328 . S
N269 C274 1.318 . S
C270 N269 1.328 . S
C270 C271 1.457 . S
C270 H275 0.929 . S
C271 C270 1.457 . S
C271 C272 1.291 . S
C271 H284 0.931 . S
C272 C271 1.291 . S
C272 C273 1.373 . S
C272 H285 0.929 . S
C273 C272 1.373 . S
C273 C274 1.396 . S
C273 C280 1.403 . S
C274 C264 1.476 . S
C274 N269 1.318 . S
C274 C273 1.396 . S
H275 C270 0.929 . S
O276 Mn252 2.385 . S
O276 C254 1.234 1_545 S
O277 Mn252 2.209 . S
O277 Mn253 2.215 . S
O277 C254 1.283 1_545 S
O278 Mn252 2.094 . S
O278 C256 1.240 . S
O279 Mn253 2.117 . S
O279 C256 1.264 . S
C280 C273 1.403 . S
C280 C281 1.399 1_545 S
C280 H286 0.929 . S
C281 C261 1.449 . S
C281 C280 1.399 1_565 S
C281 H287 0.930 . S
H282 C262 0.931 . S
H283 C263 0.930 . S
H284 C271 0.931 . S
H285 C272 0.929 . S
H286 C280 0.929 . S
H287 C281 0.930 . S
H288 C296 0.929 . S
H289 C298 0.930 . S
H290 C300 0.930 . S
H291 C303 0.929 . S
H292 C306 0.930 . S
H293 C308 0.960 . S
H294 C308 0.960 1_655 S
H295 C308 0.960 . S
C296 H288 0.929 . S
C296 C297 1.377 . S
C296 C298 1.384 . S
C297 C296 1.377 . S
C297 C303 1.390 1_655 S
C298 H289 0.930 . S
C298 C296 1.384 . S
C298 C299 1.372 . S
C299 C298 1.372 . S
C299 C300 1.400 1_655 S
C299 C304 1.490 . S
C300 H290 0.930 . S
C300 C299 1.400 1_455 S
C300 C303 1.386 . S
H301 C317 0.930 . S
H302 C318 0.931 . S
C303 H291 0.929 . S
C303 C297 1.390 1_455 S
C303 C300 1.386 . S
C304 C299 1.490 . S
C304 C306 1.395 1_556 S
C304 C307 1.403 1_655 S
H305 C311 0.930 . S
C306 H292 0.930 . S
C306 C304 1.395 1_554 S
C306 C309 1.403 . S
C307 C304 1.403 1_455 S
C307 C308 1.524 . S
C307 C311 1.400 . S
C308 H293 0.960 . S
C308 H294 0.960 1_455 S
C308 H295 0.960 . S
C308 C307 1.524 . S
C309 C306 1.403 . S
C309 C310 1.386 1_655 S
C309 C313 1.495 . S
C310 C309 1.386 1_455 S
C310 C311 1.389 1_554 S
C310 C312 1.481 . S
C311 H305 0.930 . S
C311 C307 1.400 . S
C311 C310 1.389 1_556 S
C312 C310 1.481 . S
C312 C314 1.381 1_455 S
C312 C318 1.383 . S
C313 C309 1.495 . S
C313 H319 0.959 . S
C313 H320 0.961 1_655 S
C313 H321 0.960 . S
C314 C312 1.381 1_655 S
C314 C315 1.394 . S
C314 H322 0.930 . S
C315 C314 1.394 . S
C315 C316 1.383 1_655 S
C315 H323 0.929 . S
C316 C315 1.383 1_455 S
C316 C317 1.377 . S
C317 H301 0.930 . S
C317 C316 1.377 . S
C317 C318 1.379 . S
C318 H302 0.931 . S
C318 C312 1.383 . S
C318 C317 1.379 . S
H319 C313 0.959 . S
H320 C313 0.961 1_455 S
H321 C313 0.960 . S
H322 C314 0.930 . S
H323 C315 0.929 . S
H324 C332 0.929 . S
H325 C334 0.930 . S
H326 C336 0.930 . S
H327 C339 0.929 . S
H328 C342 0.930 . S
H329 C344 0.960 . S
H330 C344 0.960 . S
H331 C344 0.960 . S
C332 H324 0.929 . S
C332 C333 1.377 . S
C332 C334 1.384 . S
C333 C332 1.377 . S
C333 C339 1.390 . S
C334 H325 0.930 . S
C334 C332 1.384 . S
C334 C335 1.372 . S
C335 C334 1.372 . S
C335 C336 1.400 . S
C335 C340 1.490 . S
C336 H326 0.930 . S
C336 C335 1.400 . S
C336 C339 1.386 . S
H337 C353 0.930 . S
H338 C354 0.931 . S
C339 H327 0.929 . S
C339 C333 1.390 . S
C339 C336 1.386 . S
C340 C335 1.490 . S
C340 C342 1.395 . S
C340 C343 1.403 . S
H341 C347 0.930 . S
C342 H328 0.930 . S
C342 C340 1.395 . S
C342 C345 1.403 . S
C343 C340 1.403 . S
C343 C344 1.524 . S
C343 C347 1.400 . S
C344 H329 0.960 . S
C344 H330 0.960 . S
C344 H331 0.960 . S
C344 C343 1.524 . S
C345 C342 1.403 . S
C345 C346 1.392 . S
C345 C349 1.495 . S
C346 C345 1.392 . S
C346 C347 1.385 . S
C346 C348 1.478 . S
C347 H341 0.930 . S
C347 C343 1.400 . S
C347 C346 1.385 . S
C348 C346 1.478 . S
C348 C350 1.381 . S
C348 C354 1.383 . S
C349 C345 1.495 . S
C349 H355 0.959 . S
C349 H356 0.961 . S
C349 H357 0.960 . S
C350 C348 1.381 . S
C350 C351 1.394 . S
C350 H358 0.930 . S
C351 C350 1.394 . S
C351 C352 1.383 . S
C351 H359 0.929 . S
C352 C351 1.383 . S
C352 C353 1.377 . S
C353 H337 0.930 . S
C353 C352 1.377 . S
C353 C354 1.379 . S
C354 H338 0.931 . S
C354 C348 1.383 . S
C354 C353 1.379 . S
H355 C349 0.959 . S
H356 C349 0.961 . S
H357 C349 0.960 . S
H358 C350 0.930 . S
H359 C351 0.929 . S
H360 C368 0.929 . S
H361 C370 0.930 . S
H362 C372 0.930 . S
H363 C375 0.929 . S
H364 C378 0.930 . S
H365 C380 0.960 . S
H366 C380 0.960 . S
H367 C380 0.960 . S
C368 H360 0.929 . S
C368 C369 1.377 . S
C368 C370 1.384 . S
C369 C368 1.377 . S
C369 C375 1.390 . S
C370 H361 0.930 . S
C370 C368 1.384 . S
C370 C371 1.372 . S
C371 C370 1.372 . S
C371 C372 1.400 . S
C371 C376 1.490 . S
C372 H362 0.930 . S
C372 C371 1.400 . S
C372 C375 1.386 . S
H373 C389 0.930 . S
H374 C390 0.931 . S
C375 H363 0.929 . S
C375 C369 1.390 . S
C375 C372 1.386 . S
C376 C371 1.490 . S
C376 C378 1.395 1_565 S
C376 C379 1.403 1_554 S
H377 C383 0.930 . S
C378 H364 0.930 . S
C378 C376 1.395 1_545 S
C378 C381 1.403 . S
C379 C376 1.403 1_556 S
C379 C380 1.524 . S
C379 C383 1.400 . S
C380 H365 0.960 . S
C380 H366 0.960 . S
C380 H367 0.960 . S
C380 C379 1.524 . S
C381 C378 1.403 . S
C381 C382 1.392 1_554 S
C381 C385 1.495 . S
C382 C381 1.392 1_556 S
C382 C383 1.385 1_545 S
C382 C384 1.478 . S
C383 H377 0.930 . S
C383 C379 1.400 . S
C383 C382 1.385 1_565 S
C384 C382 1.478 . S
C384 C386 1.381 . S
C384 C390 1.383 . S
C385 C381 1.495 . S
C385 H391 0.959 . S
C385 H392 0.961 . S
C385 H393 0.960 . S
C386 C384 1.381 . S
C386 C387 1.394 . S
C386 H394 0.930 . S
C387 C386 1.394 . S
C387 C388 1.383 . S
C387 H395 0.929 . S
C388 C387 1.383 . S
C388 C389 1.377 . S
C389 H373 0.930 . S
C389 C388 1.377 . S
C389 C390 1.379 . S
C390 H374 0.931 . S
C390 C384 1.383 . S
C390 C389 1.379 . S
H391 C385 0.959 . S
H392 C385 0.961 . S
H393 C385 0.960 . S
H394 C386 0.930 . S
H395 C387 0.929 . S
H396 C404 0.929 . S
H397 C406 0.930 . S
H398 C408 0.930 . S
H399 C411 0.929 . S
H400 C414 0.930 . S
H401 C416 0.960 . S
H402 C416 0.960 . S
H403 C416 0.960 . S
C404 H396 0.929 . S
C404 C405 1.377 . S
C404 C406 1.384 . S
C405 C404 1.377 . S
C405 C411 1.390 1_545 S
C406 H397 0.930 . S
C406 C404 1.384 . S
C406 C407 1.372 . S
C407 C406 1.372 . S
C407 C408 1.400 1_545 S
C407 C412 1.490 . S
C408 H398 0.930 . S
C408 C407 1.400 1_565 S
C408 C411 1.386 . S
H409 C425 0.930 . S
H410 C426 0.931 . S
C411 H399 0.929 . S
C411 C405 1.390 1_565 S
C411 C408 1.386 . S
C412 C407 1.490 . S
C412 C414 1.395 1_545 S
C412 C415 1.403 1_655 S
H413 C419 0.930 . S
C414 H400 0.930 . S
C414 C412 1.395 1_565 S
C414 C417 1.403 . S
C415 C412 1.403 1_455 S
C415 C416 1.524 . S
C415 C419 1.400 . S
C416 H401 0.960 . S
C416 H402 0.960 . S
C416 H403 0.960 . S
C416 C415 1.524 . S
C417 C414 1.403 . S
C417 C418 1.392 1_655 S
C417 C421 1.495 . S
C418 C417 1.392 1_455 S
C418 C419 1.385 1_565 S
C418 C420 1.478 . S
C419 H413 0.930 . S
C419 C415 1.400 . S
C419 C418 1.385 1_545 S
C420 C418 1.478 . S
C420 C422 1.381 1_565 S
C420 C426 1.383 . S
C421 C417 1.495 . S
C421 H427 0.959 . S
C421 H428 0.961 . S
C421 H429 0.960 . S
C422 C420 1.381 1_545 S
C422 C423 1.394 . S
C422 H430 0.930 . S
C423 C422 1.394 . S
C423 C424 1.383 1_545 S
C423 H431 0.929 . S
C424 C423 1.383 1_565 S
C424 C425 1.377 . S
C425 H409 0.930 . S
C425 C424 1.377 . S
C425 C426 1.379 . S
C426 H410 0.931 . S
C426 C420 1.383 . S
C426 C425 1.379 . S
H427 C421 0.959 . S
H428 C421 0.961 . S
H429 C421 0.960 . S
H430 C422 0.930 . S
H431 C423 0.929 . S
H432 C440 0.929 . S
H433 C442 0.930 . S
H434 C444 0.930 . S
H435 C447 0.929 . S
H436 C450 0.930 . S
H437 C452 0.960 . S
H438 C452 0.960 . S
H439 C452 0.960 . S
C440 H432 0.929 . S
C440 C441 1.377 . S
C440 C442 1.384 . S
C441 C440 1.377 . S
C441 C447 1.390 . S
C442 H433 0.930 . S
C442 C440 1.384 . S
C442 C443 1.372 . S
C443 C442 1.372 . S
C443 C444 1.400 . S
C443 C448 1.490 . S
C444 H434 0.930 . S
C444 C443 1.400 . S
C444 C447 1.386 . S
H445 C461 0.930 . S
H446 C462 0.931 . S
C447 H435 0.929 . S
C447 C441 1.390 . S
C447 C444 1.386 . S
C448 C443 1.490 . S
C448 C450 1.395 . S
C448 C451 1.403 . S
H449 C455 0.930 . S
C450 H436 0.930 . S
C450 C448 1.395 . S
C450 C453 1.403 . S
C451 C448 1.403 . S
C451 C452 1.524 . S
C451 C455 1.400 . S
C452 H437 0.960 . S
C452 H438 0.960 . S
C452 H439 0.960 . S
C452 C451 1.524 . S
C453 C450 1.403 . S
C453 C454 1.392 . S
C453 C457 1.495 . S
C454 C453 1.392 . S
C454 C455 1.385 . S
C454 C456 1.478 . S
C455 H449 0.930 . S
C455 C451 1.400 . S
C455 C454 1.385 . S
C456 C454 1.478 . S
C456 C458 1.381 . S
C456 C462 1.383 . S
C457 C453 1.495 . S
C457 H463 0.959 . S
C457 H464 0.961 . S
C457 H465 0.960 . S
C458 C456 1.381 . S
C458 C459 1.394 . S
C458 H466 0.930 . S
C459 C458 1.394 . S
C459 C460 1.383 . S
C459 H467 0.929 . S
C460 C459 1.383 . S
C460 C461 1.377 . S
C461 H445 0.930 . S
C461 C460 1.377 . S
C461 C462 1.379 . S
C462 H446 0.931 . S
C462 C456 1.383 . S
C462 C461 1.379 . S
H463 C457 0.959 . S
H464 C457 0.961 . S
H465 C457 0.960 . S
H466 C458 0.930 . S
H467 C459 0.929 . S
H468 C476 0.929 . S
H469 C478 0.930 . S
H470 C480 0.930 . S
H471 C483 0.929 . S
H472 C486 0.930 . S
H473 C488 0.960 . S
H474 C488 0.960 . S
H475 C488 0.960 . S
C476 H468 0.929 . S
C476 C477 1.377 . S
C476 C478 1.384 . S
C477 C476 1.377 . S
C477 C483 1.390 . S
C478 H469 0.930 . S
C478 C476 1.384 . S
C478 C479 1.372 . S
C479 C478 1.372 . S
C479 C480 1.400 . S
C479 C484 1.490 . S
C480 H470 0.930 . S
C480 C479 1.400 . S
C480 C483 1.386 . S
H481 C497 0.930 . S
H482 C498 0.931 . S
C483 H471 0.929 . S
C483 C477 1.390 . S
C483 C480 1.386 . S
C484 C479 1.490 . S
C484 C486 1.395 . S
C484 C487 1.403 . S
H485 C491 0.930 . S
C486 H472 0.930 . S
C486 C484 1.395 . S
C486 C489 1.403 . S
C487 C484 1.403 . S
C487 C488 1.524 . S
C487 C491 1.400 . S
C488 H473 0.960 . S
C488 H474 0.960 . S
C488 H475 0.960 . S
C488 C487 1.524 . S
C489 C486 1.403 . S
C489 C490 1.392 . S
C489 C493 1.495 . S
C490 C489 1.392 . S
C490 C491 1.385 . S
C490 C492 1.478 . S
C491 H485 0.930 . S
C491 C487 1.400 . S
C491 C490 1.385 . S
C492 C490 1.478 . S
C492 C494 1.381 . S
C492 C498 1.383 . S
C493 C489 1.495 . S
C493 H499 0.959 . S
C493 H500 0.961 . S
C493 H501 0.960 . S
C494 C492 1.381 . S
C494 C495 1.394 . S
C494 H502 0.930 . S
C495 C494 1.394 . S
C495 C496 1.383 . S
C495 H503 0.929 . S
C496 C495 1.383 . S
C496 C497 1.377 . S
C497 H481 0.930 . S
C497 C496 1.377 . S
C497 C498 1.379 . S
C498 H482 0.931 . S
C498 C492 1.383 . S
C498 C497 1.379 . S
H499 C493 0.959 . S
H500 C493 0.961 . S
H501 C493 0.960 . S
H502 C494 0.930 . S
H503 C495 0.929 . S
H504 C512 0.929 . S
H505 C514 0.930 . S
H506 C516 0.930 . S
H507 C519 0.929 . S
H508 C522 0.930 . S
H509 C524 0.960 . S
H510 C524 0.960 . S
H511 C524 0.960 . S
C512 H504 0.929 . S
C512 C513 1.377 . S
C512 C514 1.384 . S
C513 C512 1.377 . S
C513 C519 1.390 . S
C514 H505 0.930 . S
C514 C512 1.384 . S
C514 C515 1.372 . S
C515 C514 1.372 . S
C515 C516 1.400 . S
C515 C520 1.490 . S
C516 H506 0.930 . S
C516 C515 1.400 . S
C516 C519 1.386 . S
H517 C533 0.930 . S
H518 C534 0.931 . S
C519 H507 0.929 . S
C519 C513 1.390 . S
C519 C516 1.386 . S
C520 C515 1.490 . S
C520 C522 1.395 . S
C520 C523 1.403 . S
H521 C527 0.930 . S
C522 H508 0.930 . S
C522 C520 1.395 . S
C522 C525 1.403 . S
C523 C520 1.403 . S
C523 C524 1.524 . S
C523 C527 1.400 . S
C524 H509 0.960 . S
C524 H510 0.960 . S
C524 H511 0.960 . S
C524 C523 1.524 . S
C525 C522 1.403 . S
C525 C526 1.392 . S
C525 C529 1.495 . S
C526 C525 1.392 . S
C526 C527 1.385 . S
C526 C528 1.478 . S
C527 H521 0.930 . S
C527 C523 1.400 . S
C527 C526 1.385 . S
C528 C526 1.478 . S
C528 C530 1.381 . S
C528 C534 1.383 . S
C529 C525 1.495 . S
C529 H535 0.959 . S
C529 H536 0.961 . S
C529 H537 0.960 . S
C530 C528 1.381 . S
C530 C531 1.394 . S
C530 H538 0.930 . S
C531 C530 1.394 . S
C531 C532 1.383 . S
C531 H539 0.929 . S
C532 C531 1.383 . S
C532 C533 1.377 . S
C533 H517 0.930 . S
C533 C532 1.377 . S
C533 C534 1.379 . S
C534 H518 0.931 . S
C534 C528 1.383 . S
C534 C533 1.379 . S
H535 C529 0.959 . S
H536 C529 0.961 . S
H537 C529 0.960 . S
H538 C530 0.930 . S
H539 C531 0.929 . S
H540 C548 0.929 . S
H541 C550 0.930 . S
H542 C552 0.930 . S
H543 C555 0.929 . S
H544 C558 0.930 . S
H545 C560 0.960 . S
H546 C560 0.960 . S
H547 C560 0.960 . S
C548 H540 0.929 . S
C548 C549 1.377 . S
C548 C550 1.384 . S
C549 C548 1.377 . S
C549 C555 1.390 . S
C550 H541 0.930 . S
C550 C548 1.384 . S
C550 C551 1.372 . S
C551 C550 1.372 . S
C551 C552 1.400 . S
C551 C556 1.490 . S
C552 H542 0.930 . S
C552 C551 1.400 . S
C552 C555 1.386 . S
H553 C569 0.930 . S
H554 C570 0.931 . S
C555 H543 0.929 . S
C555 C549 1.390 . S
C555 C552 1.386 . S
C556 C551 1.490 . S
C556 C558 1.395 . S
C556 C559 1.403 . S
H557 C563 0.930 . S
C558 H544 0.930 . S
C558 C556 1.395 . S
C558 C561 1.403 . S
C559 C556 1.403 . S
C559 C560 1.524 . S
C559 C563 1.400 . S
C560 H545 0.960 . S
C560 H546 0.960 . S
C560 H547 0.960 . S
C560 C559 1.524 . S
C561 C558 1.403 . S
C561 C562 1.392 . S
C561 C565 1.495 . S
C562 C561 1.392 . S
C562 C563 1.385 . S
C562 C564 1.478 . S
C563 H557 0.930 . S
C563 C559 1.400 . S
C563 C562 1.385 . S
C564 C562 1.478 . S
C564 C566 1.381 . S
C564 C570 1.383 . S
C565 C561 1.495 . S
C565 H571 0.959 . S
C565 H572 0.961 . S
C565 H573 0.960 . S
C566 C564 1.381 . S
C566 C567 1.394 . S
C566 H574 0.930 . S
C567 C566 1.394 . S
C567 C568 1.383 . S
C567 H575 0.929 . S
C568 C567 1.383 . S
C568 C569 1.377 . S
C569 H553 0.930 . S
C569 C568 1.377 . S
C569 C570 1.379 . S
C570 H554 0.931 . S
C570 C564 1.383 . S
C570 C569 1.379 . S
H571 C565 0.959 . S
H572 C565 0.961 . S
H573 C565 0.960 . S
H574 C566 0.930 . S
H575 C567 0.929 . S
H576 C584 0.929 . S
H577 C586 0.930 . S
H578 C588 0.930 . S
H579 C591 0.929 . S
H580 C594 0.930 . S
H581 C596 0.960 . S
H582 C596 0.960 . S
H583 C596 0.960 . S
C584 H576 0.929 . S
C584 C585 1.377 . S
C584 C586 1.384 . S
C585 C584 1.377 . S
C585 C591 1.390 . S
C586 H577 0.930 . S
C586 C584 1.384 . S
C586 C587 1.372 . S
C587 C586 1.372 . S
C587 C588 1.400 . S
C587 C592 1.490 . S
C588 H578 0.930 . S
C588 C587 1.400 . S
C588 C591 1.386 . S
H589 C605 0.930 . S
H590 C606 0.931 . S
C591 H579 0.929 . S
C591 C585 1.390 . S
C591 C588 1.386 . S
C592 C587 1.490 . S
C592 C594 1.395 . S
C592 C595 1.403 . S
H593 C599 0.930 . S
C594 H580 0.930 . S
C594 C592 1.395 . S
C594 C597 1.403 . S
C595 C592 1.403 . S
C595 C596 1.524 . S
C595 C599 1.400 . S
C596 H581 0.960 . S
C596 H582 0.960 . S
C596 H583 0.960 . S
C596 C595 1.524 . S
C597 C594 1.403 . S
C597 C598 1.392 . S
C597 C601 1.495 . S
C598 C597 1.392 . S
C598 C599 1.385 . S
C598 C600 1.478 . S
C599 H593 0.930 . S
C599 C595 1.400 . S
C599 C598 1.385 . S
C600 C598 1.478 . S
C600 C602 1.381 . S
C600 C606 1.383 . S
C601 C597 1.495 . S
C601 H607 0.959 . S
C601 H608 0.961 . S
C601 H609 0.960 . S
C602 C600 1.381 . S
C602 C603 1.394 . S
C602 H610 0.930 . S
C603 C602 1.394 . S
C603 C604 1.383 . S
C603 H611 0.929 . S
C604 C603 1.383 . S
C604 C605 1.377 . S
C605 H589 0.930 . S
C605 C604 1.377 . S
C605 C606 1.379 . S
C606 H590 0.931 . S
C606 C600 1.383 . S
C606 C605 1.379 . S
H607 C601 0.959 . S
H608 C601 0.961 . S
H609 C601 0.960 . S
H610 C602 0.930 . S
H611 C603 0.929 . S
H612 C620 0.929 . S
H613 C622 0.930 . S
H614 C624 0.930 . S
H615 C627 0.929 . S
H616 C630 0.930 . S
H617 C632 0.960 . S
H618 C632 0.960 . S
H619 C632 0.960 . S
C620 H612 0.929 . S
C620 C621 1.377 . S
C620 C622 1.384 . S
C621 C620 1.377 . S
C621 C627 1.390 . S
C622 H613 0.930 . S
C622 C620 1.384 . S
C622 C623 1.372 . S
C623 C622 1.372 . S
C623 C624 1.400 . S
C623 C628 1.490 . S
C624 H614 0.930 . S
C624 C623 1.400 . S
C624 C627 1.386 . S
H625 C641 0.930 . S
H626 C642 0.931 . S
C627 H615 0.929 . S
C627 C621 1.390 . S
C627 C624 1.386 . S
C628 C623 1.490 . S
C628 C630 1.395 . S
C628 C631 1.403 . S
H629 C635 0.930 . S
C630 H616 0.930 . S
C630 C628 1.395 . S
C630 C633 1.403 . S
C631 C628 1.403 . S
C631 C632 1.524 . S
C631 C635 1.400 . S
C632 H617 0.960 . S
C632 H618 0.960 . S
C632 H619 0.960 . S
C632 C631 1.524 . S
C633 C630 1.403 . S
C633 C634 1.392 . S
C633 C637 1.495 . S
C634 C633 1.392 . S
C634 C635 1.385 . S
C634 C636 1.478 . S
C635 H629 0.930 . S
C635 C631 1.400 . S
C635 C634 1.385 . S
C636 C634 1.478 . S
C636 C638 1.381 . S
C636 C642 1.383 . S
C637 C633 1.495 . S
C637 H643 0.959 . S
C637 H644 0.961 . S
C637 H645 0.960 . S
C638 C636 1.381 . S
C638 C639 1.394 . S
C638 H646 0.930 . S
C639 C638 1.394 . S
C639 C640 1.383 . S
C639 H647 0.929 . S
C640 C639 1.383 . S
C640 C641 1.377 . S
C641 H625 0.930 . S
C641 C640 1.377 . S
C641 C642 1.379 . S
C642 H626 0.931 . S
C642 C636 1.383 . S
C642 C641 1.379 . S
H643 C637 0.959 . S
H644 C637 0.961 . S
H645 C637 0.960 . S
H646 C638 0.930 . S
H647 C639 0.929 . S
H648 C656 0.929 . S
H649 C658 0.930 . S
H650 C660 0.930 . S
H651 C663 0.929 . S
H652 C666 0.930 . S
H653 C668 0.960 . S
H654 C668 0.960 . S
H655 C668 0.960 . S
C656 H648 0.929 . S
C656 C657 1.377 . S
C656 C658 1.384 . S
C657 C656 1.377 . S
C657 C663 1.390 . S
C658 H649 0.930 . S
C658 C656 1.384 . S
C658 C659 1.372 . S
C659 C658 1.372 . S
C659 C660 1.400 . S
C659 C664 1.490 . S
C660 H650 0.930 . S
C660 C659 1.400 . S
C660 C663 1.386 . S
H661 C677 0.930 . S
H662 C678 0.931 1_545 S
C663 H651 0.929 . S
C663 C657 1.390 . S
C663 C660 1.386 . S
C664 C659 1.490 . S
C664 C666 1.395 . S
C664 C667 1.403 . S
H665 C671 0.930 . S
C666 H652 0.930 . S
C666 C664 1.395 . S
C666 C669 1.403 . S
C667 C664 1.403 . S
C667 C668 1.524 . S
C667 C671 1.400 . S
C668 H653 0.960 . S
C668 H654 0.960 . S
C668 H655 0.960 . S
C668 C667 1.524 . S
C669 C666 1.403 . S
C669 C670 1.392 . S
C669 C673 1.495 . S
C670 C669 1.392 . S
C670 C671 1.385 . S
C670 C672 1.478 . S
C671 H665 0.930 . S
C671 C667 1.400 . S
C671 C670 1.385 . S
C672 C670 1.478 . S
C672 C674 1.381 . S
C672 C678 1.383 . S
C673 C669 1.495 . S
C673 H679 0.959 . S
C673 H680 0.961 . S
C673 H681 0.960 . S
C674 C672 1.381 . S
C674 C675 1.394 . S
C674 H682 0.930 . S
C675 C674 1.394 . S
C675 C676 1.383 . S
C675 H683 0.929 . S
C676 C675 1.383 . S
C676 C677 1.377 1_565 S
C677 H661 0.930 . S
C677 C676 1.377 1_545 S
C677 C678 1.379 1_545 S
C678 H662 0.931 1_565 S
C678 C672 1.383 . S
C678 C677 1.379 1_565 S
H679 C673 0.959 . S
H680 C673 0.961 . S
H681 C673 0.960 . S
H682 C674 0.930 . S
H683 C675 0.929 . S
H684 C692 0.919 1_655 S
H685 C694 0.930 . S
H686 C696 0.930 . S
H687 C699 0.929 . S
H688 C702 0.930 1_655 S
H689 C704 0.960 . S
H690 C704 0.960 . S
H691 C704 0.960 . S
C692 H684 0.919 1_455 S
C692 C693 1.377 . S
C692 C694 1.384 . S
C693 C692 1.377 . S
C693 C699 1.390 . S
C694 H685 0.930 . S
C694 C692 1.384 . S
C694 C695 1.372 . S
C695 C694 1.372 . S
C695 C696 1.400 . S
C695 C700 1.490 . S
C696 H686 0.930 . S
C696 C695 1.400 . S
C696 C699 1.386 . S
H697 C713 0.930 . S
H698 C714 0.931 . S
C699 H687 0.929 . S
C699 C693 1.390 . S
C699 C696 1.386 . S
C700 C695 1.490 . S
C700 C702 1.395 . S
C700 C703 1.403 . S
H701 C707 0.930 . S
C702 H688 0.930 1_455 S
C702 C700 1.395 . S
C702 C705 1.403 . S
C703 C700 1.403 . S
C703 C704 1.524 . S
C703 C707 1.400 . S
C704 H689 0.960 . S
C704 H690 0.960 . S
C704 H691 0.960 . S
C704 C703 1.524 . S
C705 C702 1.403 . S
C705 C706 1.392 . S
C705 C709 1.503 . S
C706 C705 1.392 . S
C706 C707 1.385 . S
C706 C708 1.478 . S
C707 H701 0.930 . S
C707 C703 1.400 . S
C707 C706 1.385 . S
C708 C706 1.478 . S
C708 C710 1.381 . S
C708 C714 1.383 . S
C709 C705 1.503 . S
C709 H715 0.950 1_455 S
C709 H716 0.960 1_455 S
C709 H717 0.962 . S
C710 C708 1.381 . S
C710 C711 1.394 . S
C710 H718 0.930 . S
C711 C710 1.394 . S
C711 C712 1.383 . S
C711 H719 0.929 . S
C712 C711 1.383 . S
C712 C713 1.377 . S
C713 H697 0.930 . S
C713 C712 1.377 . S
C713 C714 1.379 . S
C714 H698 0.931 . S
C714 C708 1.383 . S
C714 C713 1.379 . S
H715 C709 0.950 1_655 S
H716 C709 0.960 1_655 S
H717 C709 0.962 . S
H718 C710 0.930 . S
H719 C711 0.929 . S
H720 C728 0.929 . S
H721 C730 0.930 . S
H722 C732 0.930 . S
H723 C735 0.929 . S
H724 C738 0.930 . S
H725 C740 0.960 . S
H726 C740 0.960 . S
H727 C740 0.960 . S
C728 H720 0.929 . S
C728 C729 1.377 . S
C728 C730 1.384 . S
C729 C728 1.377 . S
C729 C735 1.390 . S
C730 H721 0.930 . S
C730 C728 1.384 . S
C730 C731 1.372 . S
C731 C730 1.372 . S
C731 C732 1.400 . S
C731 C736 1.490 . S
C732 H722 0.930 . S
C732 C731 1.400 . S
C732 C735 1.386 . S
H733 C749 0.930 . S
H734 C750 0.931 . S
C735 H723 0.929 . S
C735 C729 1.390 . S
C735 C732 1.386 . S
C736 C731 1.490 . S
C736 C738 1.395 . S
C736 C739 1.403 . S
H737 C743 0.930 . S
C738 H724 0.930 . S
C738 C736 1.395 . S
C738 C741 1.403 . S
C739 C736 1.403 . S
C739 C740 1.524 . S
C739 C743 1.400 . S
C740 H725 0.960 . S
C740 H726 0.960 . S
C740 H727 0.960 . S
C740 C739 1.524 . S
C741 C738 1.403 . S
C741 C742 1.392 . S
C741 C745 1.495 . S
C742 C741 1.392 . S
C742 C743 1.385 . S
C742 C744 1.478 . S
C743 H737 0.930 . S
C743 C739 1.400 . S
C743 C742 1.385 . S
C744 C742 1.478 . S
C744 C746 1.381 . S
C744 C750 1.383 . S
C745 C741 1.495 . S
C745 H751 0.959 . S
C745 H752 0.961 . S
C745 H753 0.960 . S
C746 C744 1.381 . S
C746 C747 1.394 . S
C746 H754 0.930 . S
C747 C746 1.394 . S
C747 C748 1.383 . S
C747 H755 0.929 . S
C748 C747 1.383 . S
C748 C749 1.377 . S
C749 H733 0.930 . S
C749 C748 1.377 . S
C749 C750 1.379 . S
C750 H734 0.931 . S
C750 C744 1.383 . S
C750 C749 1.379 . S
H751 C745 0.959 . S
H752 C745 0.961 . S
H753 C745 0.960 . S
H754 C746 0.930 . S
H755 C747 0.929 . S
H756 C764 0.929 . S
H757 C766 0.930 . S
H758 C768 0.930 . S
H759 C771 0.929 . S
H760 C774 0.930 . S
H761 C776 0.960 . S
H762 C776 0.960 . S
H763 C776 0.960 . S
C764 H756 0.929 . S
C764 C765 1.377 . S
C764 C766 1.384 . S
C765 C764 1.377 . S
C765 C771 1.390 . S
C766 H757 0.930 . S
C766 C764 1.384 . S
C766 C767 1.372 . S
C767 C766 1.372 . S
C767 C768 1.400 . S
C767 C772 1.490 . S
C768 H758 0.930 . S
C768 C767 1.400 . S
C768 C771 1.386 . S
H769 C785 0.930 . S
H770 C786 0.931 . S
C771 H759 0.929 . S
C771 C765 1.390 . S
C771 C768 1.386 . S
C772 C767 1.490 . S
C772 C774 1.395 . S
C772 C775 1.403 . S
H773 C779 0.930 . S
C774 H760 0.930 . S
C774 C772 1.395 . S
C774 C777 1.403 . S
C775 C772 1.403 . S
C775 C776 1.524 . S
C775 C779 1.400 . S
C776 H761 0.960 . S
C776 H762 0.960 . S
C776 H763 0.960 . S
C776 C775 1.524 . S
C777 C774 1.403 . S
C777 C778 1.392 . S
C777 C781 1.495 . S
C778 C777 1.392 . S
C778 C779 1.385 . S
C778 C780 1.478 . S
C779 H773 0.930 . S
C779 C775 1.400 . S
C779 C778 1.385 . S
C780 C778 1.478 . S
C780 C782 1.381 . S
C780 C786 1.383 . S
C781 C777 1.495 . S
C781 H787 0.959 . S
C781 H788 0.961 . S
C781 H789 0.960 . S
C782 C780 1.381 . S
C782 C783 1.394 . S
C782 H790 0.930 . S
C783 C782 1.394 . S
C783 C784 1.383 . S
C783 H791 0.929 . S
C784 C783 1.383 . S
C784 C785 1.377 . S
C785 H769 0.930 . S
C785 C784 1.377 . S
C785 C786 1.379 . S
C786 H770 0.931 . S
C786 C780 1.383 . S
C786 C785 1.379 . S
H787 C781 0.959 . S
H788 C781 0.961 . S
H789 C781 0.960 . S
H790 C782 0.930 . S
H791 C783 0.929 . S
H792 C800 0.929 . S
H793 C802 0.930 . S
H794 C804 0.930 . S
H795 C807 0.929 . S
H796 C810 0.930 . S
H797 C812 0.960 . S
H798 C812 0.960 . S
H799 C812 0.960 . S
C800 H792 0.929 . S
C800 C801 1.377 . S
C800 C802 1.384 . S
C801 C800 1.377 . S
C801 C807 1.390 . S
C802 H793 0.930 . S
C802 C800 1.384 . S
C802 C803 1.372 . S
C803 C802 1.372 . S
C803 C804 1.400 . S
C803 C808 1.490 . S
C804 H794 0.930 . S
C804 C803 1.400 . S
C804 C807 1.386 . S
H805 C821 0.930 . S
H806 C822 0.931 1_565 S
C807 H795 0.929 . S
C807 C801 1.390 . S
C807 C804 1.386 . S
C808 C803 1.490 . S
C808 C810 1.395 . S
C808 C811 1.403 . S
H809 C815 0.930 . S
C810 H796 0.930 . S
C810 C808 1.395 . S
C810 C813 1.403 . S
C811 C808 1.403 . S
C811 C812 1.524 . S
C811 C815 1.400 . S
C812 H797 0.960 . S
C812 H798 0.960 . S
C812 H799 0.960 . S
C812 C811 1.524 . S
C813 C810 1.403 . S
C813 C814 1.392 . S
C813 C817 1.495 . S
C814 C813 1.392 . S
C814 C815 1.385 . S
C814 C816 1.478 . S
C815 H809 0.930 . S
C815 C811 1.400 . S
C815 C814 1.385 . S
C816 C814 1.478 . S
C816 C818 1.381 . S
C816 C822 1.383 . S
C817 C813 1.495 . S
C817 H823 0.959 . S
C817 H824 0.961 . S
C817 H825 0.960 . S
C818 C816 1.381 . S
C818 C819 1.394 . S
C818 H826 0.930 . S
C819 C818 1.394 . S
C819 C820 1.383 . S
C819 H827 0.929 . S
C820 C819 1.383 . S
C820 C821 1.377 1_545 S
C821 H805 0.930 . S
C821 C820 1.377 1_565 S
C821 C822 1.379 1_565 S
C822 H806 0.931 1_545 S
C822 C816 1.383 . S
C822 C821 1.379 1_545 S
H823 C817 0.959 . S
H824 C817 0.961 . S
H825 C817 0.960 . S
H826 C818 0.930 . S
H827 C819 0.929 . S
H828 C836 0.929 . S
H829 C838 0.930 . S
H830 C840 0.930 . S
H831 C843 0.939 . S
H832 C846 0.930 . S
H833 C848 0.960 . S
H834 C848 0.960 . S
H835 C848 0.960 . S
C836 H828 0.929 . S
C836 C837 1.377 . S
C836 C838 1.384 . S
C837 C836 1.377 . S
C837 C843 1.390 . S
C838 H829 0.930 . S
C838 C836 1.384 . S
C838 C839 1.372 . S
C839 C838 1.372 . S
C839 C840 1.400 . S
C839 C844 1.490 . S
C840 H830 0.930 . S
C840 C839 1.400 . S
C840 C843 1.386 . S
H841 C857 0.930 . S
H842 C858 0.931 . S
C843 H831 0.939 . S
C843 C837 1.390 . S
C843 C840 1.386 . S
C844 C839 1.490 . S
C844 C846 1.395 . S
C844 C847 1.403 . S
H845 C851 0.930 . S
C846 H832 0.930 . S
C846 C844 1.395 . S
C846 C849 1.403 . S
C847 C844 1.403 . S
C847 C848 1.524 1_655 S
C847 C851 1.400 . S
C848 H833 0.960 . S
C848 H834 0.960 . S
C848 H835 0.960 . S
C848 C847 1.524 1_455 S
C849 C846 1.403 . S
C849 C850 1.392 . S
C849 C853 1.495 . S
C850 C849 1.392 . S
C850 C851 1.385 . S
C850 C852 1.478 . S
C851 H845 0.930 . S
C851 C847 1.400 . S
C851 C850 1.385 . S
C852 C850 1.478 . S
C852 C854 1.381 . S
C852 C858 1.383 . S
C853 C849 1.495 . S
C853 H859 0.959 . S
C853 H860 0.961 . S
C853 H861 0.960 . S
C854 C852 1.381 . S
C854 C855 1.394 . S
C854 H862 0.930 . S
C855 C854 1.394 . S
C855 C856 1.383 . S
C855 H863 0.929 . S
C856 C855 1.383 . S
C856 C857 1.377 . S
C857 H841 0.930 . S
C857 C856 1.377 . S
C857 C858 1.379 . S
C858 H842 0.931 . S
C858 C852 1.383 . S
C858 C857 1.379 . S
H859 C853 0.959 . S
H860 C853 0.961 . S
H861 C853 0.960 . S
H862 C854 0.930 . S
H863 C855 0.929 . S
C297 C158 1.585 . S
C316 C14 1.589 . S
C333 C50 1.589 . S
C352 C194 1.585 . S
C369 C86 1.584 . S
C388 C230 1.582 . S
C405 C266 1.584 . S
C424 C122 1.582 . S
C441 C4 1.333 . S
C460 C76 1.360 . S
C477 C40 1.337 . S
C496 C112 1.304 . S
C513 C220 1.339 . S
C532 C148 1.355 . S
C549 C184 1.339 . S
C568 C256 1.356 . S
C585 C182 0.762 . S
C604 C3 0.743 . S
C621 C39 0.771 . S
C640 C218 0.810 . S
C657 C75 0.761 . S
C676 C254 0.713 . S
C693 C146 0.774 . S
C712 C111 0.789 . S
C729 C147 0.764 . S
C748 C38 0.760 . S
C765 C183 0.769 . S
C784 C74 0.727 . S
C801 C219 0.760 . S
C820 C110 0.803 . S
C837 C2 0.769 . S
C856 C255 0.746 . S
