# Generated by pormake.
# Topology vby, (6)-cn, num edge types: 1
# Building blocks:
#     Node 0, Type 0, BuildingBlock: NUHQIS_clean_sbu_0, # of connection points: 6
#     Node 1, Type 0, BuildingBlock: NUHQIS_clean_sbu_0, # of connection points: 6
#     Node 2, Type 0, BuildingBlock: NUHQIS_clean_sbu_0, # of connection points: 6
#     Node 3, Type 0, BuildingBlock: NUHQIS_clean_sbu_0, # of connection points: 6
#     Node 4, Type 0, BuildingBlock: NUHQIS_clean_sbu_0, # of connection points: 6
#     Node 5, Type 0, BuildingBlock: NUHQIS_clean_sbu_0, # of connection points: 6
#     Node 6, Type 0, BuildingBlock: NUHQIS_clean_sbu_0, # of connection points: 6
#     Node 7, Type 0, BuildingBlock: NUHQIS_clean_sbu_0, # of connection points: 6
#     Edge 8, Type (0, 0), BuildingBlock: UVAHIK_clean_linker_0, # of connection points: 2
#     Edge 9, Type (0, 0), BuildingBlock: UVAHIK_clean_linker_0, # of connection points: 2
#     Edge 10, Type (0, 0), BuildingBlock: UVAHIK_clean_linker_0, # of connection points: 2
#     Edge 11, Type (0, 0), BuildingBlock: UVAHIK_clean_linker_0, # of connection points: 2
#     Edge 12, Type (0, 0), BuildingBlock: UVAHIK_clean_linker_0, # of connection points: 2
#     Edge 13, Type (0, 0), BuildingBlock: UVAHIK_clean_linker_0, # of connection points: 2
#     Edge 14, Type (0, 0), BuildingBlock: UVAHIK_clean_linker_0, # of connection points: 2
#     Edge 15, Type (0, 0), BuildingBlock: UVAHIK_clean_linker_0, # of connection points: 2
#     Edge 16, Type (0, 0), BuildingBlock: UVAHIK_clean_linker_0, # of connection points: 2
#     Edge 17, Type (0, 0), BuildingBlock: UVAHIK_clean_linker_0, # of connection points: 2
#     Edge 18, Type (0, 0), BuildingBlock: UVAHIK_clean_linker_0, # of connection points: 2
#     Edge 19, Type (0, 0), BuildingBlock: UVAHIK_clean_linker_0, # of connection points: 2
#     Edge 20, Type (0, 0), BuildingBlock: UVAHIK_clean_linker_0, # of connection points: 2
#     Edge 21, Type (0, 0), BuildingBlock: UVAHIK_clean_linker_0, # of connection points: 2
#     Edge 22, Type (0, 0), BuildingBlock: UVAHIK_clean_linker_0, # of connection points: 2
#     Edge 23, Type (0, 0), BuildingBlock: UVAHIK_clean_linker_0, # of connection points: 2
#     Edge 24, Type (0, 0), BuildingBlock: UVAHIK_clean_linker_0, # of connection points: 2
#     Edge 25, Type (0, 0), BuildingBlock: UVAHIK_clean_linker_0, # of connection points: 2
#     Edge 26, Type (0, 0), BuildingBlock: UVAHIK_clean_linker_0, # of connection points: 2
#     Edge 27, Type (0, 0), BuildingBlock: UVAHIK_clean_linker_0, # of connection points: 2
#     Edge 28, Type (0, 0), BuildingBlock: UVAHIK_clean_linker_0, # of connection points: 2
#     Edge 29, Type (0, 0), BuildingBlock: UVAHIK_clean_linker_0, # of connection points: 2
#     Edge 30, Type (0, 0), BuildingBlock: UVAHIK_clean_linker_0, # of connection points: 2
#     Edge 31, Type (0, 0), BuildingBlock: UVAHIK_clean_linker_0, # of connection points: 2
# Relax obj value: 0.193
# Max RMSD: 0.225
# Mean RMSD: 0.213
data_MOF--net-vby--node1-NUHQIS_clean_sbu_0--edge1-UVAHIK_clean_linker_0
_symmetry_space_group_name_H-M    P1
_symmetry_Int_Tables_number       1
_symmetry_cell_setting            triclinic
loop_
_symmetry_equiv_pos_as_xyz
'x, y, z'
_cell_length_a     19.878613
_cell_length_b     120.48876
_cell_length_c     39.355027
_cell_angle_alpha  86.059621
_cell_angle_beta   89.236716
_cell_angle_gamma 89.902373
loop_
_atom_site_label
_atom_site_type_symbol
_atom_site_fract_x
_atom_site_fract_y
_atom_site_fract_z
_atom_type_partial_charge
Tb0 Tb 0.08493 0.40182 -0.01041 0.0
Eu1 Eu 0.08038 0.37442 -0.00252 0.0
C2 C 0.07611 0.38924 0.06183 0.0
C3 C 0.21907 0.38786 -0.00635 0.0
C4 C 0.05955 0.43342 0.98326 0.0
C5 C 0.04868 0.45016 0.01408 0.0
C6 C 0.06798 0.43903 0.01306 0.0
C7 C 1.02791 0.43897 0.95523 0.0
C8 C 1.00877 0.4501 0.95623 0.0
C9 C 1.02118 0.45592 0.98522 0.0
C10 C 0.09356 0.42268 0.97899 0.0
O11 O 0.11042 0.39512 0.94094 0.0
O12 O 0.04013 0.38037 0.94652 0.0
O13 O 0.97356 0.3796 0.00575 0.0
O14 O 0.97748 0.39828 0.98747 0.0
C15 C 0.07157 0.38796 0.92711 0.0
O16 O 0.09064 0.35889 0.9729 0.0
O17 O 0.06453 0.35852 0.02671 0.0
O18 O 0.1033 0.38046 0.04898 0.0
O19 O 0.05333 0.39765 0.04213 0.0
O20 O 0.18617 0.39659 0.00323 0.0
O21 O 0.18763 0.37904 0.98419 0.0
C22 C 0.94405 0.38914 -0.00284 0.0
O23 O 0.11709 0.41715 0.00592 0.0
O24 O 0.06783 0.41614 0.95754 0.0
C25 C 0.12406 0.34284 0.00686 0.0
C26 C 0.19335 0.32241 0.01671 0.0
C27 C 0.18181 0.32718 0.98371 0.0
C28 C 0.14744 0.33725 0.97886 0.0
C29 C 0.13746 0.33829 0.03994 0.0
C30 C 0.17191 0.32817 0.04481 0.0
C31 C 0.08015 0.35269 0.00095 0.0
H32 H 0.0595 0.45445 0.03668 0.0
H33 H 0.09292 0.43504 0.03496 0.0
H34 H 1.02128 0.43491 0.93178 0.0
H35 H 0.98697 0.45429 0.93375 0.0
H36 H 0.19644 0.32289 0.96147 0.0
H37 H 0.13703 0.34045 0.95306 0.0
H38 H 0.11972 0.34236 0.06207 0.0
H39 H 0.18052 0.32474 0.07055 0.0
Tb40 Tb 0.98426 0.62879 -0.00992 0.0
Eu41 Eu 0.98839 0.65616 0.9885 0.0
C42 C 0.98949 0.64104 0.05779 0.0
C43 C 0.8492 0.64258 -0.00843 0.0
C44 C 1.01068 0.59718 -0.01073 0.0
C45 C 0.04848 0.58073 0.02298 0.0
C46 C 1.02837 0.5919 0.02084 0.0
C47 C 1.01698 0.59131 0.95983 0.0
C48 C 0.0367 0.58019 0.96195 0.0
C49 C 0.05056 0.57464 -0.00633 0.0
C50 C 0.97569 0.608 0.98657 0.0
O51 O 0.95762 0.63588 0.93954 0.0
O52 O 1.02556 0.65096 0.93794 0.0
O53 O 0.09437 0.6506 -0.00151 0.0
O54 O 0.09112 0.63245 0.98315 0.0
C55 C 0.99467 0.64331 0.92213 0.0
O56 O 0.96903 0.67216 0.96116 0.0
O57 O 1.01485 0.67157 0.01104 0.0
O58 O 0.96097 0.64971 0.04182 0.0
O59 O 1.01456 0.63288 0.0409 0.0
O60 O 0.88201 0.63359 0.00241 0.0
O61 O 0.88027 0.65171 0.98005 0.0
C62 C 0.12445 0.64131 -0.00873 0.0
O63 O 0.96216 0.61305 0.01414 0.0
O64 O 0.99264 0.61493 0.96106 0.0
C65 C 0.94777 0.68748 -0.00525 0.0
C66 C 0.8809 0.70738 0.00867 0.0
C67 C 0.88067 0.70356 0.97573 0.0
C68 C 0.91403 0.69375 0.96882 0.0
C69 C 0.94605 0.69109 0.02799 0.0
C70 C 0.91292 0.70094 0.03487 0.0
C71 C 0.98943 0.67788 0.98608 0.0
H72 H 0.05984 0.57675 0.04775 0.0
H73 H 1.02383 0.59622 0.04401 0.0
H74 H 1.00275 0.59514 0.93523 0.0
H75 H 0.03662 0.57578 0.9389 0.0
H76 H 0.85733 0.70842 0.9549 0.0
H77 H 0.91525 0.69128 0.94287 0.0
H78 H 0.97183 0.68647 0.04853 0.0
H79 H 0.91347 0.70366 0.06054 0.0
Tb80 Tb 0.08124 0.65558 0.48727 0.0
Eu81 Eu 0.08636 0.62819 0.48936 0.0
C82 C 0.08181 0.64302 0.42121 0.0
C83 C 0.94578 0.64158 0.49049 0.0
C84 C 0.12159 0.68645 0.48639 0.0
C85 C 0.18164 0.70243 0.45994 0.0
C86 C 0.15004 0.6922 0.45742 0.0
C87 C 0.1278 0.69096 0.51821 0.0
C88 C 0.15958 0.70122 0.52073 0.0
C89 C 0.18513 0.70721 0.49144 0.0
C90 C 0.07888 0.6766 0.4822 0.0
O91 O 0.10478 0.64982 0.53959 0.0
O92 O 0.05323 0.63277 0.54144 0.0
O93 O 0.19083 0.63348 0.50104 0.0
O94 O 0.18762 0.65178 0.48005 0.0
C95 C 0.07658 0.64126 0.55689 0.0
O96 O 0.11008 0.61184 0.51371 0.0
O97 O 0.07526 0.61335 0.46141 0.0
O98 O 0.11804 0.63538 0.43748 0.0
O99 O 0.04837 0.65021 0.4384 0.0
O100 O 0.97786 0.65057 0.49845 0.0
O101 O 0.97737 0.63261 0.48156 0.0
C102 C 0.22098 0.64283 0.49101 0.0
O103 O 0.09481 0.67046 0.4573 0.0
O104 O 0.05933 0.67061 0.5094 0.0
C105 C 0.05921 0.59578 0.49179 0.0
C106 C 1.01825 0.57334 0.49932 0.0
C107 C 1.02511 0.57956 0.52807 0.0
C108 C 0.04561 0.59069 0.52435 0.0
C109 C 0.04845 0.58976 0.46309 0.0
C110 C 1.02808 0.57868 0.46677 0.0
C111 C 0.09365 0.60662 0.487 0.0
H112 H 0.20167 0.70678 0.437 0.0
H113 H 0.14564 0.68899 0.43249 0.0
H114 H 0.10585 0.68679 0.54097 0.0
H115 H 0.16104 0.70473 0.54532 0.0
H116 H 1.01713 0.5757 0.55347 0.0
H117 H 0.05358 0.59512 0.54698 0.0
H118 H 0.05942 0.59344 0.43771 0.0
H119 H 1.02437 0.57413 0.44409 0.0
Tb120 Tb 0.98272 0.40101 0.49462 0.0
Eu121 Eu 0.98826 0.3735 0.49866 0.0
C122 C 0.99406 0.38827 0.42766 0.0
C123 C 0.84905 0.38703 0.49477 0.0
C124 C 1.00822 0.4326 0.49252 0.0
C125 C 0.04089 0.44895 0.4564 0.0
C126 C 1.02038 0.43781 0.45997 0.0
C127 C 1.02054 0.4385 0.52131 0.0
C128 C 0.04085 0.44959 0.51777 0.0
C129 C 0.0491 0.45506 0.48529 0.0
C130 C 0.97304 0.42183 0.49739 0.0
O131 O 0.95563 0.39424 0.54578 0.0
O132 O 1.026 0.37947 0.54752 0.0
O133 O 0.09517 0.37882 0.48957 0.0
O134 O 0.09014 0.39756 0.49916 0.0
C135 C 0.9938 0.3871 0.56319 0.0
O136 O 0.97359 0.35805 0.52996 0.0
O137 O 1.00877 0.35753 0.47758 0.0
O138 O 0.96936 0.37925 0.44397 0.0
O139 O 1.01383 0.39691 0.44371 0.0
O140 O 0.88204 0.39583 0.48221 0.0
O141 O 0.88018 0.37816 0.50794 0.0
C142 C 0.12409 0.38841 0.49391 0.0
O143 O 0.95698 0.41658 0.47076 0.0
O144 O 0.99237 0.41506 0.52262 0.0
C145 C 0.94711 0.34186 0.50211 0.0
C146 C 0.87838 0.3216 0.49683 0.0
C147 C 0.90419 0.32439 0.52819 0.0
C148 C 0.9383 0.33439 0.53074 0.0
C149 C 0.9194 0.33931 0.47092 0.0
C150 C 0.88537 0.32924 0.46831 0.0
C151 C 0.98926 0.35178 0.50531 0.0
H152 H 0.04768 0.45289 0.43103 0.0
H153 H 1.01111 0.43347 0.43728 0.0
H154 H 1.01064 0.43474 0.54669 0.0
H155 H 0.04559 0.45405 0.54058 0.0
H156 H 0.90066 0.31863 0.55052 0.0
H157 H 0.95964 0.33615 0.555 0.0
H158 H 0.92525 0.34494 0.44843 0.0
H159 H 0.86547 0.32735 0.44388 0.0
Tb160 Tb 0.59237 0.90117 0.98784 0.0
Eu161 Eu 0.59818 0.87749 -0.00833 0.0
C162 C 0.56454 0.88936 0.06001 0.0
C163 C 0.72391 0.89016 0.01369 0.0
C164 C 0.59812 0.93256 0.97952 0.0
C165 C 0.53372 0.94721 0.00448 0.0
C166 C 0.55418 0.93608 0.00492 0.0
C167 C 0.61829 0.94018 0.95283 0.0
C168 C 0.59759 0.95127 0.95227 0.0
C169 C 0.55658 0.95498 0.97859 0.0
C170 C 0.62825 0.92134 0.98174 0.0
O171 O 0.55218 0.89841 0.938 0.0
O172 O 0.59946 0.88133 0.93519 0.0
O173 O 0.48514 0.87994 -0.00525 0.0
O174 O 0.48369 0.89911 -0.01003 0.0
C175 C 0.5702 0.89005 0.92034 0.0
O176 O 0.58467 0.8604 0.97784 0.0
O177 O 0.66815 0.8646 0.01111 0.0
O178 O 0.57863 0.87995 0.04674 0.0
O179 O 0.56299 0.89877 0.04119 0.0
O180 O 0.68265 0.89023 0.9877 0.0
O181 O 0.68475 0.89006 0.98715 0.0
C182 C 0.452 0.88947 -0.00696 0.0
O183 O 0.62287 0.9155 0.01074 0.0
O184 O 0.61937 0.91528 0.95603 0.0
C185 C 0.65857 0.84522 -0.00242 0.0
C186 C 0.69475 0.82253 0.0029 0.0
C187 C 0.65929 0.82706 0.97449 0.0
C188 C 0.64102 0.83827 0.97198 0.0
C189 C 0.69557 0.84084 0.02551 0.0
C190 C 0.71324 0.82958 0.02825 0.0
C191 C 0.63678 0.85692 -0.00447 0.0
H192 H 0.50141 0.94979 0.02487 0.0
H193 H 0.53735 0.93036 0.02571 0.0
H194 H 0.65227 0.93765 0.93303 0.0
H195 H 0.61666 0.95706 0.93217 0.0
H196 H 0.64557 0.82194 0.9541 0.0
H197 H 0.61309 0.8415 0.95 0.0
H198 H 0.70947 0.84605 0.04566 0.0
H199 H 0.73986 0.82637 0.05065 0.0
Tb200 Tb 0.48223 0.12817 -0.00904 0.0
Eu201 Eu 0.48621 0.1556 -0.01051 0.0
C202 C 0.48657 0.14045 0.05871 0.0
C203 C 0.34692 0.14207 -0.0086 0.0
C204 C 0.50914 0.09644 -0.00668 0.0
C205 C 0.50834 0.07777 0.02113 0.0
C206 C 0.48944 0.08896 0.02056 0.0
C207 C 0.55171 0.09265 0.96772 0.0
C208 C 0.5704 0.08145 0.96822 0.0
C209 C 0.54682 0.07382 -0.00574 0.0
C210 C 0.47467 0.1073 0.9884 0.0
O211 O 0.45657 0.13513 0.94016 0.0
O212 O 0.52411 0.15027 0.93918 0.0
O213 O 0.59175 0.15002 0.00065 0.0
O214 O 0.58901 0.13199 0.98428 0.0
C215 C 0.49337 0.14266 0.92306 0.0
O216 O 0.47224 0.17149 0.96073 0.0
O217 O 0.50779 0.17113 0.01274 0.0
O218 O 0.45809 0.14912 0.0427 0.0
O219 O 0.51188 0.1323 0.04185 0.0
O220 O 0.37929 0.13298 0.00187 0.0
O221 O 0.3782 0.15126 0.98064 0.0
C222 C 0.62212 0.1408 -0.00694 0.0
O223 O 0.45718 0.11253 0.01511 0.0
O224 O 0.49462 0.11412 0.96313 0.0
C225 C 0.4462 0.18723 -0.00821 0.0
C226 C 0.38386 0.20797 -0.00026 0.0
C227 C 0.38795 0.20362 0.96757 0.0
C228 C 0.41898 0.19338 0.96363 0.0
C229 C 0.43924 0.19132 0.02428 0.0
C230 C 0.40805 0.20158 0.02823 0.0
C231 C 0.48797 0.17733 0.98621 0.0
H232 H 0.4889 0.0721 0.04142 0.0
H233 H 0.45586 0.0916 0.04038 0.0
H234 H 0.56751 0.09816 0.94622 0.0
H235 H 0.60092 0.07867 0.94743 0.0
H236 H 0.36892 0.20829 0.94522 0.0
H237 H 0.42387 0.19049 0.93824 0.0
H238 H 0.46013 0.18682 0.04647 0.0
H239 H 0.40605 0.20476 0.0533 0.0
Tb240 Tb 0.58063 0.1557 0.48762 0.0
Eu241 Eu 0.58563 0.1283 0.49048 0.0
C242 C 0.58144 0.1429 0.42186 0.0
C243 C 0.44519 0.14171 0.49097 0.0
C244 C 0.61968 0.18657 0.48585 0.0
C245 C 0.66318 0.20414 0.4608 0.0
C246 C 0.62945 0.19414 0.45756 0.0
C247 C 0.646 0.18903 0.51746 0.0
C248 C 0.67967 0.19909 0.52076 0.0
C249 C 0.68768 0.20683 0.49254 0.0
C250 C 0.57753 0.1767 0.48181 0.0
O251 O 0.6042 0.15013 0.5401 0.0
O252 O 0.55221 0.13312 0.54224 0.0
O253 O 0.69035 0.13361 0.50161 0.0
O254 O 0.68711 0.15193 0.48076 0.0
C255 C 0.57587 0.14162 0.55755 0.0
O256 O 0.60973 0.11209 0.51582 0.0
O257 O 0.57367 0.11325 0.46378 0.0
O258 O 0.61721 0.13522 0.4383 0.0
O259 O 0.54818 0.15016 0.43885 0.0
O260 O 0.47728 0.1507 0.49889 0.0
O261 O 0.47679 0.13272 0.48221 0.0
C262 C 0.72045 0.14296 0.49163 0.0
O263 O 0.5947 0.17052 0.45724 0.0
O264 O 0.55776 0.17078 0.5091 0.0
C265 C 0.55674 0.09593 0.49594 0.0
C266 C 0.51683 0.07342 0.50104 0.0
C267 C 0.54999 0.07799 0.52814 0.0
C268 C 0.57007 0.08913 0.52553 0.0
C269 C 0.51899 0.09157 0.46998 0.0
C270 C 0.49918 0.08043 0.47254 0.0
C271 C 0.59204 0.10667 0.48974 0.0
H272 H 0.66745 0.20997 0.43868 0.0
H273 H 0.6091 0.19248 0.43301 0.0
H274 H 0.63928 0.18332 0.53972 0.0
H275 H 0.69851 0.2009 0.54548 0.0
H276 H 0.56484 0.07277 0.55029 0.0
H277 H 0.5997 0.0922 0.54578 0.0
H278 H 0.5081 0.09656 0.44676 0.0
H279 H 0.473 0.07714 0.45145 0.0
Tb280 Tb 0.47898 0.90185 0.48632 0.0
Eu281 Eu 0.48418 0.8744 0.49583 0.0
C282 C 0.48731 0.88773 0.42444 0.0
C283 C 0.34431 0.88765 0.49156 0.0
C284 C 0.50552 0.93326 0.4815 0.0
C285 C 0.52895 0.95219 0.45972 0.0
C286 C 0.50805 0.94142 0.45443 0.0
C287 C 0.52794 0.93584 0.51373 0.0
C288 C 0.549 0.94666 0.51908 0.0
C289 C 0.54781 0.95504 0.49232 0.0
C290 C 0.4719 0.9227 0.47592 0.0
O291 O 0.50833 0.89782 0.53865 0.0
O292 O 0.45639 0.88085 0.54652 0.0
O293 O 0.58853 0.88001 0.50677 0.0
O294 O 0.58584 0.89784 0.4814 0.0
C295 C 0.48314 0.88967 0.5588 0.0
O296 O 0.49302 0.85861 0.52649 0.0
O297 O 0.48696 0.85876 0.47152 0.0
O298 O 0.52005 0.88022 0.44324 0.0
O299 O 0.45059 0.89513 0.43886 0.0
O300 O 0.37621 0.89673 0.49875 0.0
O301 O 0.37613 0.87852 0.4844 0.0
C302 C 0.619 0.88914 0.49475 0.0
O303 O 0.50074 0.91624 0.45483 0.0
O304 O 0.4451 0.91714 0.5023 0.0
C305 C 0.44602 0.84256 0.50287 0.0
C306 C 0.38059 0.82169 0.50739 0.0
C307 C 0.3955 0.82706 0.53701 0.0
C308 C 0.42808 0.83738 0.53479 0.0
C309 C 0.42909 0.83735 0.47327 0.0
C310 C 0.39663 0.82707 0.4755 0.0
C311 C 0.48865 0.85265 0.50014 0.0
H312 H 0.52639 0.95843 0.43862 0.0
H313 H 0.49059 0.93961 0.42942 0.0
H314 H 0.52672 0.92964 0.53501 0.0
H315 H 0.56413 0.94855 0.54438 0.0
H316 H 0.38319 0.82318 0.56196 0.0
H317 H 0.44094 0.84112 0.55808 0.0
H318 H 0.44313 0.84102 0.44829 0.0
H319 H 0.38699 0.8231 0.45217 0.0
C320 C 0.3313 0.37876 0.98517 0.0
C321 C 0.29359 0.38803 -0.00599 0.0
C322 C 0.40164 0.37901 0.98562 0.0
C323 C 0.54581 0.39824 0.98185 0.0
H324 H 0.64284 0.37288 0.02258 0.0
C325 C 0.83403 0.39925 0.00107 0.0
C326 C 0.86978 0.38935 -0.00292 0.0
C327 C 0.76359 0.39926 0.00117 0.0
C328 C 0.61677 0.37998 0.01063 0.0
H329 H 0.3005 0.40487 0.01024 0.0
H330 H 0.42285 0.40525 0.01105 0.0
H331 H 0.52061 0.37243 0.02095 0.0
H332 H 0.86015 0.37182 0.98887 0.0
H333 H 0.73817 0.37192 0.98764 0.0
H334 H 0.64178 0.40574 0.97087 0.0
C335 C 0.39804 0.39783 0.0035 0.0
C336 C 0.54659 0.37972 0.0098 0.0
C337 C 0.32783 0.39757 0.0032 0.0
C338 C 0.83395 0.37954 -0.00741 0.0
C339 C 0.76383 0.37959 -0.00792 0.0
C340 C 0.61611 0.39847 0.98234 0.0
C341 C 0.43572 0.38856 -0.00525 0.0
C342 C 0.51033 0.38884 -0.0046 0.0
C343 C 0.72755 0.38942 -0.00333 0.0
C344 C 0.65258 0.38933 -0.00332 0.0
H345 H 0.30661 0.37129 0.97789 0.0
H346 H 0.42939 0.37177 0.97842 0.0
H347 H 0.51923 0.40536 0.97027 0.0
H348 H 0.86043 0.40693 0.00471 0.0
H349 H 0.73749 0.40696 0.00525 0.0
C350 C 0.23545 0.65079 -0.00414 0.0
C351 C 0.19891 0.64097 -0.00788 0.0
C352 C 0.30557 0.65062 -0.00341 0.0
C353 C 0.45356 0.63381 0.97356 0.0
H354 H 0.54629 0.65322 0.03215 0.0
C355 C 0.74075 0.63204 -0.00496 0.0
C356 C 0.77479 0.6423 -0.00758 0.0
C357 C 0.67053 0.63168 -0.00455 0.0
C358 C 0.52103 0.64782 0.0155 0.0
H359 H 0.2077 0.62325 0.98647 0.0
H360 H 0.33034 0.62291 0.98852 0.0
H361 H 0.42373 0.65263 0.03296 0.0
H362 H 0.76179 0.66021 0.98857 0.0
H363 H 0.63878 0.65956 -0.01019 0.0
H364 H 0.55138 0.62889 0.95664 0.0
C365 C 0.30466 0.63079 -0.00977 0.0
C366 C 0.45079 0.64749 0.01586 0.0
C367 C 0.23429 0.63097 -0.01077 0.0
C368 C 0.73705 0.65219 -0.00949 0.0
C369 C 0.66671 0.65182 -0.00859 0.0
C370 C 0.52387 0.63406 0.9735 0.0
C371 C 0.34119 0.64063 -0.00608 0.0
C372 C 0.41607 0.64057 -0.00536 0.0
C373 C 0.6328 0.64155 -0.00628 0.0
C374 C 0.55826 0.64114 -0.00575 0.0
H375 H 0.21002 0.65867 -0.00209 0.0
H376 H 0.33184 0.6584 -0.00125 0.0
H377 H 0.42867 0.62851 0.95651 0.0
H378 H 0.76834 0.62427 -0.00356 0.0
H379 H 0.6457 0.62366 -0.00248 0.0
C380 C 0.83429 0.63213 0.48512 0.0
C381 C 0.87124 0.64168 0.49149 0.0
C382 C 0.76395 0.63235 0.48557 0.0
C383 C 0.61775 0.64859 0.51529 0.0
H384 H 0.52165 0.63254 0.449 0.0
C385 C 0.33062 0.65313 0.49193 0.0
C386 C 0.29533 0.64305 0.49114 0.0
C387 C 0.40106 0.65317 0.4923 0.0
C388 C 0.54787 0.63701 0.46776 0.0
H389 H 0.86293 0.65897 0.50343 0.0
H390 H 0.74082 0.6594 0.50347 0.0
H391 H 0.64424 0.63212 0.44922 0.0
H392 H 0.3061 0.62516 0.48964 0.0
H393 H 0.42865 0.6253 0.48967 0.0
H394 H 0.52087 0.65363 0.53331 0.0
C395 C 0.76597 0.65167 0.49876 0.0
C396 C 0.6181 0.63673 0.46804 0.0
C397 C 0.8362 0.65143 0.4985 0.0
C398 C 0.33178 0.63306 0.49043 0.0
C399 C 0.40196 0.63313 0.49022 0.0
C400 C 0.54746 0.64897 0.51475 0.0
C401 C 0.72887 0.64214 0.49221 0.0
C402 C 0.654 0.64247 0.49192 0.0
C403 C 0.43733 0.64317 0.49122 0.0
C404 C 0.51187 0.64313 0.49111 0.0
H405 H 0.85959 0.62446 0.47981 0.0
H406 H 0.7371 0.62479 0.48097 0.0
H407 H 0.64358 0.65296 0.5344 0.0
H408 H 0.30386 0.66095 0.49262 0.0
H409 H 0.4272 0.66104 0.49294 0.0
C410 C 0.74037 0.39686 0.48156 0.0
C411 C 0.77455 0.38722 0.49406 0.0
C412 C 0.67016 0.39717 0.48129 0.0
C413 C 0.52114 0.37919 0.48203 0.0
H414 H 0.42703 0.40499 0.51259 0.0
C415 C 0.23465 0.37889 0.50208 0.0
C416 C 0.19837 0.3887 0.49396 0.0
C417 C 0.30477 0.37897 0.50208 0.0
C418 C 0.45241 0.39779 0.50348 0.0
H419 H 0.76141 0.37033 0.51602 0.0
H420 H 0.63868 0.3709 0.51553 0.0
H421 H 0.54966 0.40456 0.5124 0.0
H422 H 0.20701 0.40632 0.47945 0.0
H423 H 0.32998 0.40642 0.4782 0.0
H424 H 0.42448 0.37247 0.47247 0.0
C425 C 0.66646 0.37818 0.50573 0.0
C426 C 0.52274 0.39753 0.5035 0.0
C427 C 0.73677 0.37788 0.50614 0.0
C428 C 0.23372 0.39864 0.48595 0.0
C429 C 0.30418 0.39869 0.48542 0.0
C430 C 0.45094 0.37948 0.48169 0.0
C431 C 0.63243 0.38785 0.49337 0.0
C432 C 0.55781 0.3882 0.49299 0.0
C433 C 0.34061 0.38883 0.49339 0.0
C434 C 0.41555 0.38874 0.49269 0.0
H435 H 0.76776 0.40421 0.47199 0.0
H436 H 0.64538 0.40469 0.47123 0.0
H437 H 0.54678 0.37196 0.47324 0.0
H438 H 0.20883 0.37113 0.50891 0.0
H439 H 0.33082 0.37128 0.50926 0.0
C440 C 0.83123 0.89418 0.97978 0.0
C441 C 0.79804 0.88982 0.00949 0.0
C442 C 0.90179 0.89409 0.9775 0.0
C443 C 0.05594 0.88929 0.03208 0.0
H444 H 0.14643 0.88931 0.94421 0.0
C445 C 0.3423 0.88049 0.01179 0.0
C446 C 0.37725 0.88934 -0.00563 0.0
C447 C 0.27176 0.88047 0.0134 0.0
C448 C 0.12166 0.88931 0.9689 0.0
H449 H 0.81202 0.88175 0.05958 0.0
H450 H 0.93386 0.88079 0.05496 0.0
H451 H 1.02384 0.88899 0.9472 0.0
H452 H 0.36545 0.90497 0.96434 0.0
H453 H 0.24204 0.90469 0.96612 0.0
H454 H 0.15476 0.88903 0.05355 0.0
C455 C 0.90677 0.88481 0.03386 0.0
C456 C 0.05111 0.88924 0.97073 0.0
C457 C 0.8365 0.88522 0.03648 0.0
C458 C 0.34003 0.89807 0.97812 0.0
C459 C 0.26948 0.8979 0.97897 0.0
C460 C 0.12636 0.88905 0.03024 0.0
C461 C 0.941 0.88937 0.00451 0.0
C462 C 1.01679 0.88929 0.00237 0.0
C463 C 0.23469 0.88914 -0.00316 0.0
C464 C 0.15992 0.88914 -0.00135 0.0
H465 H 0.80282 0.89792 0.95866 0.0
H466 H 0.92525 0.89793 0.9547 0.0
H467 H 1.03261 0.88965 0.05696 0.0
H468 H 0.36951 0.87367 0.02465 0.0
H469 H 0.24607 0.87362 0.02731 0.0
C470 C 0.23826 0.13165 -0.00829 0.0
C471 C 0.27255 0.14184 -0.00803 0.0
C472 C 0.16803 0.13134 -0.00789 0.0
C473 C 1.01939 0.14666 0.01781 0.0
H474 H 0.92552 0.12971 0.95287 0.0
C475 C 0.73288 0.15006 0.00093 0.0
C476 C 0.69661 0.14048 -0.00596 0.0
C477 C 0.80304 0.14994 0.00135 0.0
C478 C 0.95084 0.13434 0.97156 0.0
H479 H 0.26014 0.15969 -0.00676 0.0
H480 H 0.13703 0.15912 -0.0054 0.0
H481 H 0.04826 0.1301 0.95232 0.0
H482 H 0.70602 0.12318 0.98258 0.0
H483 H 0.82865 0.1229 0.98402 0.0
H484 H 0.92249 0.15075 0.03759 0.0
C485 C 0.16476 0.15139 -0.00614 0.0
C486 C 1.02115 0.1346 0.9711 0.0
C487 C 0.23511 0.15172 -0.00712 0.0
C488 C 0.73233 0.13073 0.98785 0.0
C489 C 0.80271 0.13059 0.98847 0.0
C490 C 0.94913 0.1463 0.01854 0.0
C491 C 0.13059 0.1412 -0.00667 0.0
C492 C 0.05606 0.14083 -0.00594 0.0
C493 C 0.83897 0.14021 -0.00485 0.0
C494 C 0.91389 0.14021 -0.00476 0.0
H495 H 0.2657 0.1239 -0.00914 0.0
H496 H 0.14295 0.12337 -0.00809 0.0
H497 H 0.0451 0.1514 0.03613 0.0
H498 H 0.70721 0.15775 0.00568 0.0
H499 H 0.82909 0.15756 0.00597 0.0
C500 C 0.33371 0.13227 0.48552 0.0
C501 C 0.37067 0.14182 0.49189 0.0
C502 C 0.26338 0.13249 0.48596 0.0
C503 C 0.11728 0.14873 0.51575 0.0
H504 H 1.02103 0.1327 0.44945 0.0
C505 C 0.83009 0.15326 0.49262 0.0
C506 C 0.79481 0.14319 0.49174 0.0
C507 C 0.90053 0.15331 0.49295 0.0
C508 C 0.04729 0.13717 0.46821 0.0
H509 H 0.3624 0.15911 0.50378 0.0
H510 H 0.24028 0.15955 0.5038 0.0
H511 H 0.14362 0.13229 0.44959 0.0
H512 H 0.80559 0.12531 0.49008 0.0
H513 H 0.92813 0.12544 0.49006 0.0
H514 H 1.02043 0.15375 0.53385 0.0
C515 C 0.26542 0.15182 0.4991 0.0
C516 C 0.11753 0.13689 0.46845 0.0
C517 C 0.33565 0.15158 0.49885 0.0
C518 C 0.83127 0.1332 0.49093 0.0
C519 C 0.90145 0.13327 0.49069 0.0
C520 C 0.04699 0.1491 0.51526 0.0
C521 C 0.22833 0.14229 0.49258 0.0
C522 C 0.15346 0.14262 0.49233 0.0
C523 C 0.9368 0.14331 0.49177 0.0
C524 C 1.01135 0.14327 0.49161 0.0
H525 H 0.359 0.1246 0.48023 0.0
H526 H 0.2365 0.12494 0.48137 0.0
H527 H 0.14315 0.1531 0.53485 0.0
H528 H 0.80332 0.16108 0.4934 0.0
H529 H 0.92667 0.16117 0.49365 0.0
C530 C 0.72927 0.89923 0.48589 0.0
C531 C 0.69353 0.88944 0.49562 0.0
C532 C 0.7997 0.89932 0.48621 0.0
C533 C 0.94674 0.88313 0.52077 0.0
H534 H 0.04465 0.90005 0.44883 0.0
C535 C 0.23263 0.87793 0.49596 0.0
C536 C 0.26989 0.88784 0.49182 0.0
C537 C 0.16224 0.87823 0.49686 0.0
C538 C 1.01791 0.89534 0.46919 0.0
H539 H 0.70414 0.87205 0.51326 0.0
H540 H 0.82602 0.87215 0.51299 0.0
H541 H 0.92194 0.90053 0.44991 0.0
H542 H 0.26262 0.90582 0.48477 0.0
H543 H 0.13992 0.90631 0.48575 0.0
H544 H 0.04305 0.87775 0.53946 0.0
C545 C 0.80002 0.87984 0.50585 0.0
C546 C 0.94758 0.89566 0.46995 0.0
C547 C 0.72983 0.87977 0.50577 0.0
C548 C 0.23536 0.89804 0.48816 0.0
C549 C 0.16512 0.89833 0.48851 0.0
C550 C 1.017 0.88272 0.51975 0.0
C551 C 0.83601 0.8896 0.49607 0.0
C552 C 0.91101 0.88954 0.49573 0.0
C553 C 0.12784 0.88844 0.49304 0.0
C554 C 0.05327 0.88881 0.49395 0.0
H555 H 0.70293 0.90684 0.47807 0.0
H556 H 0.82562 0.90703 0.47898 0.0
H557 H 0.9205 0.87849 0.54141 0.0
H558 H 0.25782 0.86995 0.49896 0.0
H559 H 0.13466 0.87048 0.50019 0.0
C560 C 1.02638 0.55586 0.02263 0.0
C561 C 0.05874 0.56234 -0.00378 0.0
C562 C 1.02397 0.54429 0.02206 0.0
C563 C 0.09668 0.5202 0.98018 0.0
H564 H 0.92516 0.50656 0.00609 0.0
C565 C 0.03843 0.47476 0.95572 0.0
C566 C 1.01362 0.46819 0.98403 0.0
C567 C 0.04043 0.48632 0.95621 0.0
C568 C 0.97341 0.51025 -0.00104 0.0
H569 H 0.11814 0.56164 0.94976 0.0
H570 H 0.11218 0.54152 0.94819 0.0
H571 H 0.94047 0.52649 0.01032 0.0
H572 H 0.96805 0.4686 0.03426 0.0
H573 H 0.9713 0.48888 0.03507 0.0
H574 H 0.12908 0.50394 0.96834 0.0
C575 C 0.08895 0.54535 0.9695 0.0
C576 C 0.98243 0.52165 0.00156 0.0
C577 C 0.09184 0.55692 0.97023 0.0
C578 C 0.98786 0.47346 0.0122 0.0
C579 C 0.98938 0.48505 0.01257 0.0
C580 C 0.08744 0.50881 0.97732 0.0
C581 C 0.05341 0.53892 -0.00506 0.0
C582 C 0.04433 0.52676 -0.00759 0.0
C583 C 1.0173 0.49157 0.98493 0.0
C584 C 1.02582 0.50372 0.98681 0.0
H585 H 0.99985 0.55972 0.04293 0.0
H586 H 0.99755 0.53958 0.0425 0.0
H587 H 0.14521 0.52382 0.97328 0.0
H588 H 0.05927 0.47095 0.93376 0.0
H589 H 0.06141 0.49116 0.93439 0.0
C590 C 0.09673 0.47275 0.50536 0.0
C591 C 0.05742 0.46734 0.48205 0.0
C592 C 0.09411 0.4843 0.5065 0.0
C593 C 0.97822 0.50755 0.48582 0.0
H594 H 0.13112 0.52586 0.50535 0.0
C595 C 0.97056 0.55563 0.47953 0.0
C596 C 1.00947 0.56107 0.5029 0.0
C597 C 0.97274 0.54406 0.47882 0.0
C598 C 0.08773 0.52083 0.50039 0.0
H599 H 0.9878 0.46996 0.44023 0.0
H600 H 0.9851 0.49012 0.44149 0.0
H601 H 0.14785 0.50616 0.49741 0.0
H602 H 0.07791 0.55854 0.54525 0.0
H603 H 0.08007 0.53835 0.54463 0.0
H604 H 0.91813 0.52222 0.48872 0.0
C605 C 1.01661 0.48538 0.45947 0.0
C606 C 0.09741 0.50955 0.49569 0.0
C607 C 1.01905 0.47383 0.45839 0.0
C608 C 0.047 0.55463 0.52703 0.0
C609 C 0.04909 0.54306 0.52634 0.0
C610 C 0.96854 0.51883 0.4905 0.0
C611 C 0.05233 0.49071 0.48426 0.0
C612 C 0.04279 0.50278 0.48828 0.0
C613 C 1.01377 0.53768 0.50152 0.0
C614 C 1.02319 0.52559 0.49784 0.0
H615 H 0.12757 0.468 0.52362 0.0
H616 H 0.1223 0.48814 0.52592 0.0
H617 H 0.93481 0.50251 0.48085 0.0
H618 H 0.9404 0.56035 0.46091 0.0
H619 H 0.9449 0.54017 0.45937 0.0
C620 C 0.5296 0.97392 0.95127 0.0
C621 C 0.54375 0.96706 0.98067 0.0
C622 C 0.5267 0.98549 0.95264 0.0
C623 C 0.59413 1.00751 0.00245 0.0
H624 H 0.46355 0.02641 0.95433 0.0
C625 C 0.56945 0.05457 0.02046 0.0
C626 C 0.55556 0.06166 -0.00844 0.0
C627 C 0.57001 0.04302 0.01844 0.0
C628 C 0.50092 0.02125 0.96755 0.0
H629 H 0.56338 0.96694 0.03478 0.0
H630 H 0.55731 0.98706 0.03723 0.0
H631 H 0.45554 1.00622 0.95273 0.0
H632 H 0.53259 0.06219 0.93772 0.0
H633 H 0.5348 0.04209 0.9341 0.0
H634 H 0.63972 0.0225 0.01716 0.0
C635 C 0.54931 0.98351 0.01305 0.0
C636 C 0.49615 1.00969 0.9667 0.0
C637 C 0.5519 0.97197 0.01172 0.0
C638 C 0.54425 0.05697 0.96038 0.0
C639 C 0.54455 0.04544 0.9584 0.0
C640 C 0.59895 0.01905 0.00325 0.0
C641 C 0.53831 0.99041 0.98339 0.0
C642 C 0.54254 1.0027 0.9843 0.0
C643 C 0.55634 0.03833 0.98752 0.0
C644 C 0.5523 0.02606 0.98591 0.0
H645 H 0.5224 0.97037 0.92704 0.0
H646 H 0.51811 0.99058 0.92934 0.0
H647 H 0.6315 1.00236 0.01568 0.0
H648 H 0.57874 0.05794 0.04477 0.0
H649 H 0.57896 0.03778 0.04139 0.0
C650 C 0.4891 0.05467 0.52975 0.0
C651 C 0.50982 0.06119 0.50051 0.0
C652 C 0.49222 0.04306 0.53043 0.0
C653 C 0.58867 0.0212 0.49253 0.0
H654 H 0.44582 1.00142 0.52646 0.0
C655 C 0.59015 0.97417 0.474 0.0
C656 C 0.55848 0.96691 0.49871 0.0
C657 C 0.58896 0.98565 0.47699 0.0
C658 C 0.48677 1.00682 0.51753 0.0
H659 H 0.54815 0.06066 0.44876 0.0
H660 H 0.55331 0.04044 0.44997 0.0
H661 H 0.42905 0.02151 0.52523 0.0
H662 H 0.5046 0.96601 0.54715 0.0
H663 H 0.50502 0.98598 0.55306 0.0
H664 H 0.64684 1.0066 0.48513 0.0
C665 C 0.53492 0.0443 0.47236 0.0
C666 C 0.47686 0.01832 0.51664 0.0
C667 C 0.53115 0.05587 0.47155 0.0
C668 C 0.52977 0.97134 0.52769 0.0
C669 C 0.52901 0.98282 0.53082 0.0
C670 C 0.59887 1.00972 0.49374 0.0
C671 C 0.51698 0.0378 0.50203 0.0
C672 C 0.52745 0.02561 0.50377 0.0
C673 C 0.55659 0.99014 0.50495 0.0
C674 C 0.54781 1.00237 0.50594 0.0
H675 H 0.47217 0.05856 0.55236 0.0
H676 H 0.47801 0.03822 0.55362 0.0
H677 H 0.62897 0.02666 0.48303 0.0
H678 H 0.61369 0.97102 0.45163 0.0
H679 H 0.61062 0.99102 0.45652 0.0
C680 C 0.27379 0.30768 -0.00061 0.0
C681 C 0.22226 0.31103 0.02127 0.0
C682 C 0.29333 0.29654 -0.00013 0.0
C683 C 0.28752 0.2694 0.04886 0.0
H684 H 0.29158 0.25775 0.9594 0.0
C685 C 0.31788 0.22231 0.02989 0.0
C686 C 0.36038 0.21956 0.00291 0.0
C687 C 0.29883 0.23338 0.03328 0.0
C688 C 0.29147 0.26087 0.98456 0.0
H689 H 0.1536 0.30538 0.06217 0.0
H690 H 0.18872 0.28594 0.06333 0.0
H691 H 0.26851 0.27739 0.96472 0.0
H692 H 0.41724 0.22625 0.95877 0.0
H693 H 0.3849 0.24544 0.96482 0.0
H694 H 0.31153 0.25288 0.06866 0.0
C695 C 0.21375 0.29195 0.04578 0.0
C696 C 0.27828 0.27213 0.98758 0.0
C697 C 0.19384 0.3031 0.04517 0.0
C698 C 0.38326 0.22806 0.97941 0.0
C699 C 0.36465 0.23909 0.9829 0.0
C700 C 0.30136 0.25811 0.04582 0.0
C701 C 0.26214 0.28852 0.02239 0.0
C702 C 0.27667 0.27654 0.0197 0.0
C703 C 0.3223 0.24191 0.00987 0.0
C704 C 0.30404 0.25374 0.01357 0.0
H705 H 0.29769 0.31362 0.98118 0.0
H706 H 0.33181 0.29414 0.98203 0.0
H707 H 0.28664 0.27259 0.07393 0.0
H708 H 0.29917 0.21591 0.04826 0.0
H709 H 0.26545 0.23525 0.0541 0.0
C710 C 0.66435 0.80261 -0.0041 0.0
C711 C 0.71079 0.81044 0.00636 0.0
C712 C 0.67926 0.79127 -0.00128 0.0
C713 C 0.78352 0.77023 0.04444 0.0
H714 H 0.75398 0.75324 0.96581 0.0
C715 C 0.89004 0.72601 0.03266 0.0
C716 C 0.85277 0.71848 0.01473 0.0
C717 C 0.86803 0.73696 0.0347 0.0
C718 C 0.76136 0.75779 0.98825 0.0
H719 H 0.80947 0.81241 0.02815 0.0
H720 H 0.83482 0.79253 0.03367 0.0
H721 H 0.72577 0.77294 0.96309 0.0
H722 H 0.76119 0.7163 0.98671 0.0
H723 H 0.72192 0.73536 -0.0092 0.0
H724 H 0.81882 0.75507 0.06971 0.0
C725 C 0.78679 0.79524 0.02337 0.0
C726 C 0.7455 0.76909 0.98659 0.0
C727 C 0.77217 0.80661 0.02024 0.0
C728 C 0.79141 0.72197 0.00027 0.0
C729 C 0.76913 0.7329 0.00251 0.0
C730 C 0.7989 0.75888 0.04622 0.0
C731 C 0.74062 0.78747 0.01241 0.0
C732 C 0.75672 0.77544 0.01459 0.0
C733 C 0.80803 0.74061 0.01901 0.0
C734 C 0.78835 0.75253 0.01806 0.0
H735 H 0.61597 0.80522 0.98583 0.0
H736 H 0.64237 0.78544 -0.00948 0.0
H737 H 0.79194 0.77491 0.06653 0.0
H738 H 0.93795 0.7236 0.04372 0.0
H739 H 0.89966 0.74268 0.04728 0.0
C740 C 0.18918 0.7271 0.46874 0.0
C741 C 0.20985 0.71877 0.49315 0.0
C742 C 0.20864 0.73813 0.47109 0.0
C743 C 0.26857 0.75755 0.53271 0.0
H744 H 0.30957 0.77626 0.45095 0.0
C745 C 0.37838 0.80208 0.53355 0.0
C746 C 0.35339 0.81017 0.50945 0.0
C747 C 0.35872 0.79097 0.53304 0.0
C748 C 0.2975 0.77117 0.47398 0.0
H749 H 0.26852 0.71545 0.53874 0.0
H750 H 0.30353 0.73477 0.54262 0.0
H751 H 0.28428 0.75665 0.44651 0.0
H752 H 0.28516 0.81299 0.46716 0.0
H753 H 0.25124 0.79356 0.46615 0.0
H754 H 0.28267 0.77212 0.56014 0.0
C755 C 0.27115 0.73277 0.522 0.0
C756 C 0.28307 0.75993 0.47146 0.0
C757 C 0.25132 0.72171 0.51973 0.0
C758 C 0.30629 0.80694 0.48568 0.0
C759 C 0.2869 0.79582 0.48507 0.0
C760 C 0.28342 0.76881 0.53524 0.0
C761 C 0.24954 0.74113 0.49783 0.0
C762 C 0.26795 0.75299 0.50076 0.0
C763 C 0.31388 0.78768 0.50834 0.0
C764 C 0.29761 0.77575 0.50587 0.0
H765 H 0.15613 0.72515 0.44832 0.0
H766 H 0.19 0.74436 0.45239 0.0
H767 H 0.25617 0.7525 0.55575 0.0
H768 H 0.41543 0.80424 0.5519 0.0
H769 H 0.38077 0.78487 0.55112 0.0
C770 C 0.80799 0.3054 0.51964 0.0
C771 C 0.84946 0.31036 0.49367 0.0
C772 C 0.78865 0.29428 0.51904 0.0
C773 C 0.84623 0.26819 0.48503 0.0
H774 H 0.6696 0.25732 0.5137 0.0
C775 C 0.75866 0.22307 0.47074 0.0
C776 C 0.71643 0.21804 0.49627 0.0
C777 C 0.7778 0.23419 0.47171 0.0
C778 C 0.71949 0.26021 0.50611 0.0
H779 H 0.90061 0.30767 0.44591 0.0
H780 H 0.86571 0.28832 0.44451 0.0
H781 H 0.69231 0.27725 0.51073 0.0
H782 H 0.66378 0.22062 0.54371 0.0
H783 H 0.69849 0.23997 0.54582 0.0
H784 H 0.87347 0.25116 0.48044 0.0
C785 C 0.84912 0.29299 0.46565 0.0
C786 C 0.73238 0.27163 0.50427 0.0
C787 C 0.86836 0.30412 0.46622 0.0
C788 C 0.69662 0.22422 0.52373 0.0
C789 C 0.71573 0.23535 0.5247 0.0
C790 C 0.83337 0.25677 0.4869 0.0
C791 C 0.81045 0.28786 0.49247 0.0
C792 C 0.79586 0.27576 0.49364 0.0
C793 C 0.75517 0.24054 0.49827 0.0
C794 C 0.76984 0.25264 0.49744 0.0
H795 H 0.79193 0.31005 0.54093 0.0
H796 H 0.75893 0.29058 0.54012 0.0
H797 H 0.89609 0.27109 0.47739 0.0
H798 H 0.77547 0.21848 0.44947 0.0
H799 H 0.80807 0.23792 0.4509 0.0
C800 C 0.04621 0.39907 0.11435 0.0
C801 C 0.06928 0.38947 0.09941 0.0
C802 C 0.03835 0.39916 0.14975 0.0
C803 C 1.01142 0.38054 0.22675 0.0
H804 H 0.07688 0.40527 0.27492 0.0
C805 C 1.01034 0.37868 0.37371 0.0
C806 C 1.00139 0.38858 0.39012 0.0
C807 C 1.01883 0.37894 0.33833 0.0
C808 C 0.05712 0.39836 0.26196 0.0
H809 H 0.10238 0.37243 0.11019 0.0
H810 H 0.08833 0.37259 0.17178 0.0
H811 H 0.0904 0.40555 0.21327 0.0
H812 H 0.99297 0.40649 0.38231 0.0
H813 H 1.00413 0.40694 0.32049 0.0
H814 H 0.97629 0.37345 0.27491 0.0
C815 C 0.07608 0.38003 0.15608 0.0
C816 C 0.06527 0.39852 0.22653 0.0
C817 C 0.08451 0.37997 0.12075 0.0
C818 C 1.00032 0.39873 0.37037 0.0
C819 C 1.00727 0.39898 0.33486 0.0
C820 C 1.00232 0.38045 0.26207 0.0
C821 C 0.05274 0.38961 0.17099 0.0
C822 C 0.04296 0.38958 0.20856 0.0
C823 C 1.01703 0.38909 0.31826 0.0
C824 C 1.02547 0.38932 0.28033 0.0
H825 H 1.03395 0.40653 0.09872 0.0
H826 H 1.01978 0.40664 0.16047 0.0
H827 H 0.99277 0.37359 0.21356 0.0
H828 H 1.01226 0.37074 0.38831 0.0
H829 H 1.02785 0.37115 0.32686 0.0
C830 C 0.97146 0.64961 0.11357 0.0
C831 C 0.99637 0.64079 0.0954 0.0
C832 C 0.9802 0.64967 0.14876 0.0
C833 C 0.08616 0.63774 0.21874 0.0
H834 H 0.9427 0.64811 0.27629 0.0
C835 C 0.1019 0.63429 0.36585 0.0
C836 C 0.07451 0.64298 0.38374 0.0
C837 C 0.0927 0.63399 0.33074 0.0
C838 C 0.98368 0.64533 0.26059 0.0
H839 H 0.04947 0.62503 0.10029 0.0
H840 H 0.0641 0.62508 0.16177 0.0
H841 H 0.92509 0.64746 0.21535 0.0
H842 H 1.01691 0.65829 0.37852 0.0
H843 H 1.0021 0.65791 0.31723 0.0
H844 H 0.14496 0.63569 0.2639 0.0
C845 C 0.0385 0.63203 0.14866 0.0
C846 C 0.97349 0.64493 0.22558 0.0
C847 C 1.02968 0.63197 0.11341 0.0
C848 C 0.03845 0.65145 0.36558 0.0
C849 C 1.02953 0.65118 0.33042 0.0
C850 C 0.09644 0.63817 0.25374 0.0
C851 C 1.01411 0.64091 0.16676 0.0
C852 C 1.02461 0.64114 0.20417 0.0
C853 C 0.05617 0.64241 0.31253 0.0
C854 C 0.04536 0.64198 0.27516 0.0
H855 H 0.94579 0.65658 0.10059 0.0
H856 H 0.96154 0.65672 0.16174 0.0
H857 H 0.12702 0.63494 0.20297 0.0
H858 H 0.12963 0.62759 0.37905 0.0
H859 H 0.11315 0.62703 0.31801 0.0
C860 C 0.97595 0.63414 0.86759 0.0
C861 C 1.00133 0.6431 0.88458 0.0
C862 C 0.98428 0.6338 0.83228 0.0
C863 C 0.08755 0.64591 0.75937 0.0
H864 H 0.94511 0.6345 0.70521 0.0
C865 C 0.09311 0.65029 0.61192 0.0
C866 C 0.07033 0.64123 0.59457 0.0
C867 C 0.08544 0.65037 0.64733 0.0
C868 C 0.98573 0.6376 0.71999 0.0
H869 H 0.05453 0.65881 0.87762 0.0
H870 H 0.06766 0.65834 0.81617 0.0
H871 H 0.92951 0.63498 0.76661 0.0
H872 H 1.02211 0.62505 0.60111 0.0
H873 H 1.0094 0.62515 0.66273 0.0
H874 H 0.14352 0.6486 0.71268 0.0
C875 C 0.04259 0.65144 0.83011 0.0
C876 C 0.9768 0.63786 0.75527 0.0
C877 C 0.0346 0.65175 0.8654 0.0
C878 C 0.04012 0.6322 0.61355 0.0
C879 C 1.03241 0.63228 0.64893 0.0
C880 C 0.09637 0.64568 0.7241 0.0
C881 C 1.01791 0.64243 0.81306 0.0
C882 C 1.02753 0.64205 0.77546 0.0
C883 C 0.05473 0.64138 0.66628 0.0
C884 C 0.04555 0.64153 0.70392 0.0
H885 H 0.95045 0.62729 0.8816 0.0
H886 H 0.96539 0.62665 0.82017 0.0
H887 H 0.1283 0.64899 0.77409 0.0
H888 H 0.11637 0.65741 0.59816 0.0
H889 H 0.1025 0.65757 0.65977 0.0
C890 C 1.03356 0.37893 0.61955 0.0
C891 C 0.99995 0.3875 0.60056 0.0
C892 C 0.04063 0.3793 0.6547 0.0
C893 C 0.03729 0.39846 0.72424 0.0
H894 H 1.01728 0.37107 0.78111 0.0
C895 C 0.10421 0.39514 0.86769 0.0
C896 C 0.06316 0.38833 0.88972 0.0
C897 C 0.09598 0.39534 0.83236 0.0
C898 C 1.02242 0.37883 0.76573 0.0
H899 H 0.94776 0.40323 0.60362 0.0
H900 H 0.95964 0.40382 0.66521 0.0
H901 H 1.00146 0.37093 0.72006 0.0
H902 H 0.98012 0.37664 0.89196 0.0
H903 H 0.96479 0.37718 0.83075 0.0
H904 H 0.05658 0.40641 0.77016 0.0
C905 C 0.98096 0.39686 0.6528 0.0
C906 C 1.0142 0.37872 0.73058 0.0
C907 C 0.97366 0.39647 0.61755 0.0
C908 C 1.01317 0.38187 0.87571 0.0
C909 C 1.00459 0.38214 0.84052 0.0
C910 C 0.04531 0.39859 0.75951 0.0
C911 C 1.01439 0.38825 0.67181 0.0
C912 C 1.02178 0.38851 0.70935 0.0
C913 C 0.04619 0.3888 0.81831 0.0
C914 C 0.03798 0.38876 0.78072 0.0
H915 H 0.05459 0.37191 0.60728 0.0
H916 H 0.06752 0.37261 0.66842 0.0
H917 H 0.04414 0.40614 0.7086 0.0
H918 H 0.14323 0.40022 0.87769 0.0
H919 H 0.12946 0.40047 0.81605 0.0
C920 C 0.52316 0.89857 0.11162 0.0
C921 C 0.55209 0.88932 0.09711 0.0
C922 C 0.513 0.89851 0.14688 0.0
C923 C 0.50509 0.87931 0.22513 0.0
H924 H 0.53448 0.90631 0.27106 0.0
C925 C 0.52676 0.87948 0.371 0.0
C926 C 0.4922 0.88793 0.3869 0.0
C927 C 0.532 0.87975 0.33553 0.0
C928 C 0.52551 0.89873 0.25853 0.0
H929 H 0.59402 0.87285 0.1082 0.0
H930 H 0.57834 0.87289 0.16942 0.0
H931 H 0.54726 0.90664 0.20931 0.0
H932 H 0.4362 0.90332 0.37806 0.0
H933 H 0.44539 0.90377 0.31611 0.0
H934 H 0.48482 0.87138 0.27451 0.0
C935 C 0.56148 0.88006 0.1537 0.0
C936 C 0.53259 0.89892 0.22311 0.0
C937 C 0.57083 0.88006 0.11852 0.0
C938 C 0.46309 0.89667 0.3666 0.0
C939 C 0.46868 0.89697 0.33113 0.0
C940 C 0.49864 0.87911 0.26052 0.0
C941 C 0.53227 0.88926 0.16838 0.0
C942 C 0.52276 0.88919 0.20596 0.0
C943 C 0.50312 0.88851 0.31524 0.0
C944 C 0.50899 0.8888 0.2776 0.0
H945 H 0.50799 0.90582 0.09575 0.0
H946 H 0.48949 0.90568 0.15721 0.0
H947 H 0.49573 0.87172 0.21279 0.0
H948 H 0.5499 0.87265 0.38592 0.0
H949 H 0.5595 0.87318 0.32399 0.0
C950 C 0.46868 0.14904 0.11449 0.0
C951 C 0.49361 0.14022 0.09631 0.0
C952 C 0.47775 0.14912 0.14966 0.0
C953 C 0.58455 0.13726 0.21947 0.0
H954 H 0.44158 0.14769 0.27723 0.0
C955 C 0.6014 0.13406 0.36664 0.0
C956 C 0.57413 0.14279 0.3844 0.0
C957 C 0.59204 0.13369 0.33155 0.0
C958 C 0.48242 0.14489 0.26146 0.0
H959 H 0.5471 0.12449 0.10116 0.0
H960 H 0.56226 0.12458 0.16258 0.0
H961 H 0.4234 0.14695 0.21637 0.0
H962 H 0.51664 0.1581 0.37895 0.0
H963 H 0.50151 0.1576 0.31772 0.0
H964 H 0.64376 0.13527 0.26451 0.0
C965 C 0.5364 0.13151 0.14951 0.0
C966 C 0.47191 0.14445 0.2265 0.0
C967 C 0.52726 0.13142 0.11429 0.0
C968 C 0.53808 0.15123 0.36612 0.0
C969 C 0.52898 0.15089 0.331 0.0
C970 C 0.59514 0.13774 0.25444 0.0
C971 C 0.51201 0.14039 0.16763 0.0
C972 C 0.52285 0.14065 0.20501 0.0
C973 C 0.55542 0.14208 0.31325 0.0
C974 C 0.54427 0.14157 0.27593 0.0
H975 H 0.44277 0.15598 0.10154 0.0
H976 H 0.45908 0.15616 0.16264 0.0
H977 H 0.62528 0.13446 0.20364 0.0
H978 H 0.62915 0.12738 0.37992 0.0
H979 H 0.61239 0.1267 0.31892 0.0
C980 C 0.47509 0.13375 0.86803 0.0
C981 C 0.50023 0.14263 0.88547 0.0
C982 C 0.48344 0.1336 0.83268 0.0
C983 C 0.58627 0.14614 0.76019 0.0
H984 H 0.44412 0.13483 0.70565 0.0
C985 C 0.59225 0.1507 0.61257 0.0
C986 C 0.56959 0.14162 0.59523 0.0
C987 C 0.5845 0.15078 0.64799 0.0
C988 C 0.48465 0.13791 0.72053 0.0
H989 H 0.55304 0.15839 0.87925 0.0
H990 H 0.56623 0.15825 0.81772 0.0
H991 H 0.42849 0.13509 0.76708 0.0
H992 H 0.52161 0.12543 0.6018 0.0
H993 H 0.5088 0.12553 0.66336 0.0
H994 H 0.6422 0.14902 0.71354 0.0
C995 C 0.54133 0.15127 0.83135 0.0
C996 C 0.47571 0.13805 0.75583 0.0
C997 C 0.53332 0.15139 0.86669 0.0
C998 C 0.53949 0.13259 0.61422 0.0
C999 C 0.5317 0.13267 0.64957 0.0
C1000 C 0.59511 0.14603 0.72487 0.0
C1001 C 0.51684 0.14235 0.81384 0.0
C1002 C 0.52639 0.14217 0.77618 0.0
C1003 C 0.55381 0.14178 0.66693 0.0
C1004 C 0.54444 0.14191 0.70457 0.0
H1005 H 0.44971 0.12683 0.88173 0.0
H1006 H 0.46471 0.12651 0.82021 0.0
H1007 H 0.62695 0.14919 0.77502 0.0
H1008 H 0.61546 0.15782 0.5988 0.0
H1009 H 0.60146 0.15798 0.66045 0.0
C1010 C 0.52008 0.89927 0.60984 0.0
C1011 C 0.48754 0.89027 0.59614 0.0
C1012 C 0.52662 0.89965 0.64503 0.0
C1013 C 0.45549 0.88874 0.72726 0.0
H1014 H 0.63039 0.89597 0.76233 0.0
C1015 C 0.50548 0.89671 0.86875 0.0
C1016 C 0.55871 0.89046 0.88338 0.0
C1017 C 0.49465 0.89692 0.83366 0.0
C1018 C 0.58131 0.89395 0.75283 0.0
H1019 H 0.43551 0.87467 0.60879 0.0
H1020 H 0.44691 0.87537 0.67026 0.0
H1021 H 0.61477 0.89589 0.70085 0.0
H1022 H 0.64294 0.87969 0.873 0.0
H1023 H 0.62514 0.88032 0.81161 0.0
H1024 H 0.42229 0.88679 0.77942 0.0
C1025 C 0.46699 0.88215 0.65369 0.0
C1026 C 0.57223 0.89398 0.71771 0.0
C1027 C 0.46076 0.88174 0.61847 0.0
C1028 C 0.60132 0.88453 0.86237 0.0
C1029 C 0.59141 0.88494 0.82729 0.0
C1030 C 0.46438 0.88887 0.76241 0.0
C1031 C 0.50044 0.89107 0.6673 0.0
C1032 C 0.50935 0.89131 0.70457 0.0
C1033 C 0.53787 0.89109 0.81264 0.0
C1034 C 0.5275 0.89139 0.77546 0.0
H1035 H 0.54115 0.906 0.59342 0.0
H1036 H 0.55201 0.90668 0.65484 0.0
H1037 H 0.4064 0.88672 0.7178 0.0
H1038 H 0.47173 0.90131 0.88447 0.0
H1039 H 0.45313 0.90174 0.82286 0.0
loop_
_geom_bond_atom_site_label_1
_geom_bond_atom_site_label_2
_geom_bond_distance
_geom_bond_site_symmetry_2
_ccdc_geom_bond_type
Tb0 C10 2.825 1_554 S
Tb0 O11 2.347 1_554 S
Tb0 O14 2.366 1_455 S
Tb0 O19 2.418 . S
Tb0 O20 2.384 . S
Tb0 O23 2.479 . S
Tb0 O24 2.471 1_554 S
Eu1 O12 2.417 1_554 S
Eu1 O13 2.384 1_454 S
Eu1 O16 2.478 1_554 S
Eu1 O17 2.472 . S
Eu1 O18 2.348 . S
Eu1 O21 2.366 1_554 S
Eu1 C31 2.825 . S
C2 O18 1.259 . S
C2 O19 1.265 . S
C3 O20 1.255 . S
C3 O21 1.265 1_554 S
C4 C6 1.380 1_556 S
C4 C7 1.374 . S
C4 C10 1.507 1_655 S
C5 C6 1.384 . S
C5 C9 1.387 1_554 S
C5 H32 0.930 . S
C6 C4 1.380 1_554 S
C6 C5 1.384 . S
C6 H33 0.939 . S
C7 C4 1.374 . S
C7 C8 1.390 . S
C7 H34 0.930 . S
C8 C7 1.390 . S
C8 C9 1.391 . S
C8 H35 0.930 . S
C9 C5 1.387 1_556 S
C9 C8 1.391 . S
C10 Tb0 2.825 1_556 S
C10 C4 1.507 1_455 S
C10 O23 1.239 1_556 S
C10 O24 1.246 . S
O11 Tb0 2.347 1_556 S
O11 C15 1.259 . S
O12 Eu1 2.417 1_556 S
O12 C15 1.265 . S
O13 Eu1 2.384 1_656 S
O13 C22 1.250 1_556 S
O14 Tb0 2.366 1_655 S
O14 C22 1.265 . S
C15 O11 1.259 . S
C15 O12 1.265 . S
O16 Eu1 2.478 1_556 S
O16 C31 1.238 1_556 S
O17 Eu1 2.472 . S
O17 C31 1.247 . S
O18 Eu1 2.348 . S
O18 C2 1.259 . S
O19 Tb0 2.418 . S
O19 C2 1.265 . S
O20 Tb0 2.384 . S
O20 C3 1.255 . S
O21 Eu1 2.366 1_556 S
O21 C3 1.265 1_556 S
C22 O13 1.250 1_554 S
C22 O14 1.265 . S
O23 Tb0 2.479 . S
O23 C10 1.239 1_554 S
O24 Tb0 2.471 1_556 S
O24 C10 1.246 . S
C25 C28 1.380 1_554 S
C25 C29 1.374 . S
C25 C31 1.507 . S
C26 C27 1.387 1_554 S
C26 C30 1.391 . S
C27 C26 1.387 1_556 S
C27 C28 1.384 . S
C27 H36 0.930 . S
C28 C25 1.380 1_556 S
C28 C27 1.384 . S
C28 H37 0.931 . S
C29 C25 1.374 . S
C29 C30 1.390 . S
C29 H38 0.930 . S
C30 C26 1.391 . S
C30 C29 1.390 . S
C30 H39 0.930 . S
C31 Eu1 2.825 . S
C31 O16 1.238 1_554 S
C31 O17 1.247 . S
C31 C25 1.507 . S
H32 C5 0.930 . S
H33 C6 0.939 . S
H34 C7 0.930 . S
H35 C8 0.930 . S
H36 C27 0.930 . S
H37 C28 0.931 . S
H38 C29 0.930 . S
H39 C30 0.930 . S
Tb40 C50 2.825 . S
Tb40 O51 2.347 1_554 S
Tb40 O54 2.366 1_655 S
Tb40 O59 2.418 . S
Tb40 O60 2.384 . S
Tb40 O63 2.479 . S
Tb40 O64 2.471 1_554 S
Eu41 O52 2.418 . S
Eu41 O53 2.384 1_655 S
Eu41 O56 2.479 . S
Eu41 O57 2.471 1_556 S
Eu41 O58 2.347 1_556 S
Eu41 O61 2.366 . S
Eu41 C71 2.825 1_556 S
C42 O58 1.259 . S
C42 O59 1.265 . S
C43 O60 1.255 . S
C43 O61 1.265 1_554 S
C44 C46 1.380 . S
C44 C47 1.374 1_554 S
C44 C50 1.507 1_455 S
C45 C46 1.384 . S
C45 C49 1.387 1_554 S
C45 H72 0.930 . S
C46 C44 1.380 . S
C46 C45 1.384 . S
C46 H73 0.938 . S
C47 C44 1.374 1_556 S
C47 C48 1.390 . S
C47 H74 0.930 . S
C48 C47 1.390 . S
C48 C49 1.391 . S
C48 H75 0.930 . S
C49 C45 1.387 1_556 S
C49 C48 1.391 . S
C50 Tb40 2.825 . S
C50 C44 1.507 1_655 S
C50 O63 1.238 . S
C50 O64 1.247 1_554 S
O51 Tb40 2.347 1_556 S
O51 C55 1.259 . S
O52 Eu41 2.418 . S
O52 C55 1.265 . S
O53 Eu41 2.384 1_455 S
O53 C62 1.255 1_556 S
O54 Tb40 2.366 1_455 S
O54 C62 1.265 . S
C55 O51 1.259 . S
C55 O52 1.265 . S
O56 Eu41 2.479 . S
O56 C71 1.238 1_556 S
O57 Eu41 2.471 1_554 S
O57 C71 1.247 . S
O58 Eu41 2.347 1_554 S
O58 C42 1.259 . S
O59 Tb40 2.418 . S
O59 C42 1.265 . S
O60 Tb40 2.384 . S
O60 C43 1.255 . S
O61 Eu41 2.366 . S
O61 C43 1.265 1_556 S
C62 O53 1.255 1_554 S
C62 O54 1.265 . S
O63 Tb40 2.479 . S
O63 C50 1.238 . S
O64 Tb40 2.471 1_556 S
O64 C50 1.247 1_556 S
C65 C68 1.380 1_554 S
C65 C69 1.374 . S
C65 C71 1.507 . S
C66 C67 1.387 1_554 S
C66 C70 1.391 . S
C67 C66 1.387 1_556 S
C67 C68 1.384 . S
C67 H76 0.930 . S
C68 C65 1.380 1_556 S
C68 C67 1.384 . S
C68 H77 0.931 . S
C69 C65 1.374 . S
C69 C70 1.390 . S
C69 H78 0.930 . S
C70 C66 1.391 . S
C70 C69 1.390 . S
C70 H79 0.930 . S
C71 Eu41 2.825 1_554 S
C71 O56 1.238 1_554 S
C71 O57 1.247 . S
C71 C65 1.507 . S
H72 C45 0.930 . S
H73 C46 0.938 . S
H74 C47 0.930 . S
H75 C48 0.930 . S
H76 C67 0.930 . S
H77 C68 0.931 . S
H78 C69 0.930 . S
H79 C70 0.930 . S
Tb80 C90 2.825 . S
Tb80 O91 2.347 . S
Tb80 O94 2.366 . S
Tb80 O99 2.418 . S
Tb80 O100 2.384 1_455 S
Tb80 O103 2.479 . S
Tb80 O104 2.471 . S
Eu81 O92 2.418 . S
Eu81 O93 2.384 . S
Eu81 O96 2.479 . S
Eu81 O97 2.471 . S
Eu81 O98 2.347 . S
Eu81 O101 2.366 1_455 S
Eu81 C111 2.825 . S
C82 O98 1.259 . S
C82 O99 1.265 . S
C83 O100 1.255 . S
C83 O101 1.265 . S
C84 C86 1.380 . S
C84 C87 1.374 . S
C84 C90 1.507 . S
C85 C86 1.384 . S
C85 C89 1.387 . S
C85 H112 0.930 . S
C86 C84 1.380 . S
C86 C85 1.384 . S
C86 H113 0.931 . S
C87 C84 1.374 . S
C87 C88 1.390 . S
C87 H114 0.930 . S
C88 C87 1.390 . S
C88 C89 1.391 . S
C88 H115 0.930 . S
C89 C85 1.387 . S
C89 C88 1.391 . S
C90 Tb80 2.825 . S
C90 C84 1.507 . S
C90 O103 1.238 . S
C90 O104 1.247 . S
O91 Tb80 2.347 . S
O91 C95 1.259 . S
O92 Eu81 2.418 . S
O92 C95 1.265 . S
O93 Eu81 2.384 . S
O93 C102 1.255 . S
O94 Tb80 2.366 . S
O94 C102 1.265 . S
C95 O91 1.259 . S
C95 O92 1.265 . S
O96 Eu81 2.479 . S
O96 C111 1.238 . S
O97 Eu81 2.471 . S
O97 C111 1.247 . S
O98 Eu81 2.347 . S
O98 C82 1.259 . S
O99 Tb80 2.418 . S
O99 C82 1.265 . S
O100 Tb80 2.384 1_655 S
O100 C83 1.255 . S
O101 Eu81 2.366 1_655 S
O101 C83 1.265 . S
C102 O93 1.255 . S
C102 O94 1.265 . S
O103 Tb80 2.479 . S
O103 C90 1.238 . S
O104 Tb80 2.471 . S
O104 C90 1.247 . S
C105 C108 1.380 . S
C105 C109 1.374 . S
C105 C111 1.507 1_655 S
C106 C107 1.387 . S
C106 C110 1.391 . S
C107 C106 1.387 . S
C107 C108 1.384 . S
C107 H116 0.930 . S
C108 C105 1.380 . S
C108 C107 1.384 . S
C108 H117 0.931 . S
C109 C105 1.374 . S
C109 C110 1.390 . S
C109 H118 0.930 . S
C110 C106 1.391 . S
C110 C109 1.390 . S
C110 H119 0.930 . S
C111 Eu81 2.825 . S
C111 O96 1.238 . S
C111 O97 1.247 . S
C111 C105 1.507 1_455 S
H112 C85 0.930 . S
H113 C86 0.931 . S
H114 C87 0.930 . S
H115 C88 0.930 . S
H116 C107 0.930 . S
H117 C108 0.931 . S
H118 C109 0.930 . S
H119 C110 0.930 . S
Tb120 C130 2.825 . S
Tb120 O131 2.347 . S
Tb120 O134 2.366 1_655 S
Tb120 O139 2.418 . S
Tb120 O140 2.384 . S
Tb120 O143 2.479 . S
Tb120 O144 2.471 . S
Eu121 O132 2.418 . S
Eu121 O133 2.384 1_655 S
Eu121 O136 2.479 . S
Eu121 O137 2.471 . S
Eu121 O138 2.347 . S
Eu121 O141 2.366 . S
Eu121 C151 2.825 . S
C122 O138 1.259 . S
C122 O139 1.265 . S
C123 O140 1.255 . S
C123 O141 1.265 . S
C124 C126 1.380 . S
C124 C127 1.374 . S
C124 C130 1.507 1_455 S
C125 C126 1.384 . S
C125 C129 1.387 . S
C125 H152 0.930 . S
C126 C124 1.380 . S
C126 C125 1.384 . S
C126 H153 0.931 . S
C127 C124 1.374 . S
C127 C128 1.390 . S
C127 H154 0.930 . S
C128 C127 1.390 . S
C128 C129 1.391 . S
C128 H155 0.930 . S
C129 C125 1.387 . S
C129 C128 1.391 . S
C130 Tb120 2.825 . S
C130 C124 1.507 1_655 S
C130 O143 1.238 . S
C130 O144 1.247 . S
O131 Tb120 2.347 . S
O131 C135 1.259 . S
O132 Eu121 2.418 . S
O132 C135 1.265 . S
O133 Eu121 2.384 1_455 S
O133 C142 1.255 . S
O134 Tb120 2.366 1_455 S
O134 C142 1.265 . S
C135 O131 1.259 . S
C135 O132 1.265 . S
O136 Eu121 2.479 . S
O136 C151 1.238 . S
O137 Eu121 2.471 . S
O137 C151 1.247 . S
O138 Eu121 2.347 . S
O138 C122 1.259 . S
O139 Tb120 2.418 . S
O139 C122 1.265 . S
O140 Tb120 2.384 . S
O140 C123 1.255 . S
O141 Eu121 2.366 . S
O141 C123 1.265 . S
C142 O133 1.255 . S
C142 O134 1.265 . S
O143 Tb120 2.479 . S
O143 C130 1.238 . S
O144 Tb120 2.471 . S
O144 C130 1.247 . S
C145 C148 1.380 . S
C145 C149 1.374 . S
C145 C151 1.507 . S
C146 C147 1.387 . S
C146 C150 1.391 . S
C147 C146 1.387 . S
C147 C148 1.384 . S
C147 H156 0.930 . S
C148 C145 1.380 . S
C148 C147 1.384 . S
C148 H157 0.931 . S
C149 C145 1.374 . S
C149 C150 1.390 . S
C149 H158 0.930 . S
C150 C146 1.391 . S
C150 C149 1.390 . S
C150 H159 0.930 . S
C151 Eu121 2.825 . S
C151 O136 1.238 . S
C151 O137 1.247 . S
C151 C145 1.507 . S
H152 C125 0.930 . S
H153 C126 0.931 . S
H154 C127 0.930 . S
H155 C128 0.930 . S
H156 C147 0.930 . S
H157 C148 0.931 . S
H158 C149 0.930 . S
H159 C150 0.930 . S
Tb160 C170 2.825 1_554 S
Tb160 O171 2.347 1_554 S
Tb160 O174 2.366 . S
Tb160 O179 2.418 . S
Tb160 O180 2.384 . S
Tb160 O183 2.479 . S
Tb160 O184 2.471 1_554 S
Eu161 O172 2.417 1_554 S
Eu161 O173 2.384 1_554 S
Eu161 O176 2.478 1_554 S
Eu161 O177 2.472 . S
Eu161 O178 2.348 . S
Eu161 O181 2.366 1_554 S
Eu161 C191 2.825 . S
C162 O178 1.259 . S
C162 O179 1.265 . S
C163 O180 1.255 . S
C163 O181 1.265 1_554 S
C164 C166 1.380 1_556 S
C164 C167 1.374 . S
C164 C170 1.507 . S
C165 C166 1.384 . S
C165 C169 1.387 1_554 S
C165 H192 0.930 . S
C166 C164 1.380 1_554 S
C166 C165 1.384 . S
C166 H193 0.931 . S
C167 C164 1.374 . S
C167 C168 1.390 . S
C167 H194 0.930 . S
C168 C167 1.390 . S
C168 C169 1.391 . S
C168 H195 0.930 . S
C169 C165 1.387 1_556 S
C169 C168 1.391 . S
C170 Tb160 2.825 1_556 S
C170 C164 1.507 . S
C170 O183 1.239 1_556 S
C170 O184 1.246 . S
O171 Tb160 2.347 1_556 S
O171 C175 1.259 . S
O172 Eu161 2.417 1_556 S
O172 C175 1.265 . S
O173 Eu161 2.384 1_556 S
O173 C182 1.250 1_556 S
O174 Tb160 2.366 . S
O174 C182 1.265 . S
C175 O171 1.259 . S
C175 O172 1.265 . S
O176 Eu161 2.478 1_556 S
O176 C191 1.238 1_556 S
O177 Eu161 2.472 . S
O177 C191 1.247 . S
O178 Eu161 2.348 . S
O178 C162 1.259 . S
O179 Tb160 2.418 . S
O179 C162 1.265 . S
O180 Tb160 2.384 . S
O180 C163 1.255 . S
O181 Eu161 2.366 1_556 S
O181 C163 1.265 1_556 S
C182 O173 1.250 1_554 S
C182 O174 1.265 . S
O183 Tb160 2.479 . S
O183 C170 1.239 1_554 S
O184 Tb160 2.471 1_556 S
O184 C170 1.246 . S
C185 C188 1.380 1_554 S
C185 C189 1.374 . S
C185 C191 1.507 . S
C186 C187 1.387 1_554 S
C186 C190 1.391 . S
C187 C186 1.387 1_556 S
C187 C188 1.384 . S
C187 H196 0.930 . S
C188 C185 1.380 1_556 S
C188 C187 1.384 . S
C188 H197 0.931 . S
C189 C185 1.374 . S
C189 C190 1.390 . S
C189 H198 0.930 . S
C190 C186 1.391 . S
C190 C189 1.390 . S
C190 H199 0.930 . S
C191 Eu161 2.825 . S
C191 O176 1.238 1_554 S
C191 O177 1.247 . S
C191 C185 1.507 . S
H192 C165 0.930 . S
H193 C166 0.931 . S
H194 C167 0.930 . S
H195 C168 0.930 . S
H196 C187 0.930 . S
H197 C188 0.931 . S
H198 C189 0.930 . S
H199 C190 0.930 . S
Tb200 C210 2.825 . S
Tb200 O211 2.347 1_554 S
Tb200 O214 2.366 . S
Tb200 O219 2.418 . S
Tb200 O220 2.384 . S
Tb200 O223 2.479 . S
Tb200 O224 2.471 1_554 S
Eu201 O212 2.418 . S
Eu201 O213 2.384 . S
Eu201 O216 2.479 . S
Eu201 O217 2.471 1_556 S
Eu201 O218 2.347 1_556 S
Eu201 O221 2.366 . S
Eu201 C231 2.825 1_556 S
C202 O218 1.259 . S
C202 O219 1.265 . S
C203 O220 1.255 . S
C203 O221 1.265 1_554 S
C204 C206 1.380 . S
C204 C207 1.374 1_554 S
C204 C210 1.507 . S
C205 C206 1.384 . S
C205 C209 1.387 1_554 S
C205 H232 0.930 . S
C206 C204 1.380 . S
C206 C205 1.384 . S
C206 H233 0.931 . S
C207 C204 1.374 1_556 S
C207 C208 1.390 . S
C207 H234 0.930 . S
C208 C207 1.390 . S
C208 C209 1.391 . S
C208 H235 0.930 . S
C209 C205 1.387 1_556 S
C209 C208 1.391 . S
C210 Tb200 2.825 . S
C210 C204 1.507 . S
C210 O223 1.238 . S
C210 O224 1.247 1_554 S
O211 Tb200 2.347 1_556 S
O211 C215 1.259 . S
O212 Eu201 2.418 . S
O212 C215 1.265 . S
O213 Eu201 2.384 . S
O213 C222 1.255 1_556 S
O214 Tb200 2.366 . S
O214 C222 1.265 . S
C215 O211 1.259 . S
C215 O212 1.265 . S
O216 Eu201 2.479 . S
O216 C231 1.238 1_556 S
O217 Eu201 2.471 1_554 S
O217 C231 1.247 . S
O218 Eu201 2.347 1_554 S
O218 C202 1.259 . S
O219 Tb200 2.418 . S
O219 C202 1.265 . S
O220 Tb200 2.384 . S
O220 C203 1.255 . S
O221 Eu201 2.366 . S
O221 C203 1.265 1_556 S
C222 O213 1.255 1_554 S
C222 O214 1.265 . S
O223 Tb200 2.479 . S
O223 C210 1.238 . S
O224 Tb200 2.471 1_556 S
O224 C210 1.247 1_556 S
C225 C228 1.380 1_554 S
C225 C229 1.374 . S
C225 C231 1.507 . S
C226 C227 1.387 1_554 S
C226 C230 1.391 . S
C227 C226 1.387 1_556 S
C227 C228 1.384 . S
C227 H236 0.930 . S
C228 C225 1.380 1_556 S
C228 C227 1.384 . S
C228 H237 0.931 . S
C229 C225 1.374 . S
C229 C230 1.390 . S
C229 H238 0.930 . S
C230 C226 1.391 . S
C230 C229 1.390 . S
C230 H239 0.930 . S
C231 Eu201 2.825 1_554 S
C231 O216 1.238 1_554 S
C231 O217 1.247 . S
C231 C225 1.507 . S
H232 C205 0.930 . S
H233 C206 0.931 . S
H234 C207 0.930 . S
H235 C208 0.930 . S
H236 C227 0.930 . S
H237 C228 0.931 . S
H238 C229 0.930 . S
H239 C230 0.930 . S
Tb240 C250 2.825 . S
Tb240 O251 2.347 . S
Tb240 O254 2.366 . S
Tb240 O259 2.418 . S
Tb240 O260 2.384 . S
Tb240 O263 2.479 . S
Tb240 O264 2.471 . S
Eu241 O252 2.418 . S
Eu241 O253 2.384 . S
Eu241 O256 2.479 . S
Eu241 O257 2.471 . S
Eu241 O258 2.347 . S
Eu241 O261 2.366 . S
Eu241 C271 2.825 . S
C242 O258 1.259 . S
C242 O259 1.265 . S
C243 O260 1.255 . S
C243 O261 1.265 . S
C244 C246 1.380 . S
C244 C247 1.374 . S
C244 C250 1.507 . S
C245 C246 1.384 . S
C245 C249 1.387 . S
C245 H272 0.930 . S
C246 C244 1.380 . S
C246 C245 1.384 . S
C246 H273 0.931 . S
C247 C244 1.374 . S
C247 C248 1.390 . S
C247 H274 0.930 . S
C248 C247 1.390 . S
C248 C249 1.391 . S
C248 H275 0.930 . S
C249 C245 1.387 . S
C249 C248 1.391 . S
C250 Tb240 2.825 . S
C250 C244 1.507 . S
C250 O263 1.238 . S
C250 O264 1.247 . S
O251 Tb240 2.347 . S
O251 C255 1.259 . S
O252 Eu241 2.418 . S
O252 C255 1.265 . S
O253 Eu241 2.384 . S
O253 C262 1.255 . S
O254 Tb240 2.366 . S
O254 C262 1.265 . S
C255 O251 1.259 . S
C255 O252 1.265 . S
O256 Eu241 2.479 . S
O256 C271 1.238 . S
O257 Eu241 2.471 . S
O257 C271 1.247 . S
O258 Eu241 2.347 . S
O258 C242 1.259 . S
O259 Tb240 2.418 . S
O259 C242 1.265 . S
O260 Tb240 2.384 . S
O260 C243 1.255 . S
O261 Eu241 2.366 . S
O261 C243 1.265 . S
C262 O253 1.255 . S
C262 O254 1.265 . S
O263 Tb240 2.479 . S
O263 C250 1.238 . S
O264 Tb240 2.471 . S
O264 C250 1.247 . S
C265 C268 1.380 . S
C265 C269 1.374 . S
C265 C271 1.507 . S
C266 C267 1.387 . S
C266 C270 1.391 . S
C267 C266 1.387 . S
C267 C268 1.384 . S
C267 H276 0.930 . S
C268 C265 1.380 . S
C268 C267 1.384 . S
C268 H277 0.931 . S
C269 C265 1.374 . S
C269 C270 1.390 . S
C269 H278 0.930 . S
C270 C266 1.391 . S
C270 C269 1.390 . S
C270 H279 0.930 . S
C271 Eu241 2.825 . S
C271 O256 1.238 . S
C271 O257 1.247 . S
C271 C265 1.507 . S
H272 C245 0.930 . S
H273 C246 0.931 . S
H274 C247 0.930 . S
H275 C248 0.930 . S
H276 C267 0.930 . S
H277 C268 0.931 . S
H278 C269 0.930 . S
H279 C270 0.930 . S
Tb280 C290 2.825 . S
Tb280 O291 2.347 . S
Tb280 O294 2.366 . S
Tb280 O299 2.418 . S
Tb280 O300 2.384 . S
Tb280 O303 2.479 . S
Tb280 O304 2.471 . S
Eu281 O292 2.418 . S
Eu281 O293 2.384 . S
Eu281 O296 2.479 . S
Eu281 O297 2.471 . S
Eu281 O298 2.347 . S
Eu281 O301 2.366 . S
Eu281 C311 2.825 . S
C282 O298 1.259 . S
C282 O299 1.265 . S
C283 O300 1.255 . S
C283 O301 1.265 . S
C284 C286 1.380 . S
C284 C287 1.374 . S
C284 C290 1.507 . S
C285 C286 1.384 . S
C285 C289 1.387 . S
C285 H312 0.930 . S
C286 C284 1.380 . S
C286 C285 1.384 . S
C286 H313 0.931 . S
C287 C284 1.374 . S
C287 C288 1.390 . S
C287 H314 0.930 . S
C288 C287 1.390 . S
C288 C289 1.391 . S
C288 H315 0.930 . S
C289 C285 1.387 . S
C289 C288 1.391 . S
C290 Tb280 2.825 . S
C290 C284 1.507 . S
C290 O303 1.238 . S
C290 O304 1.247 . S
O291 Tb280 2.347 . S
O291 C295 1.259 . S
O292 Eu281 2.418 . S
O292 C295 1.265 . S
O293 Eu281 2.384 . S
O293 C302 1.255 . S
O294 Tb280 2.366 . S
O294 C302 1.265 . S
C295 O291 1.259 . S
C295 O292 1.265 . S
O296 Eu281 2.479 . S
O296 C311 1.238 . S
O297 Eu281 2.471 . S
O297 C311 1.247 . S
O298 Eu281 2.347 . S
O298 C282 1.259 . S
O299 Tb280 2.418 . S
O299 C282 1.265 . S
O300 Tb280 2.384 . S
O300 C283 1.255 . S
O301 Eu281 2.366 . S
O301 C283 1.265 . S
C302 O293 1.255 . S
C302 O294 1.265 . S
O303 Tb280 2.479 . S
O303 C290 1.238 . S
O304 Tb280 2.471 . S
O304 C290 1.247 . S
C305 C308 1.380 . S
C305 C309 1.374 . S
C305 C311 1.507 . S
C306 C307 1.387 . S
C306 C310 1.391 . S
C307 C306 1.387 . S
C307 C308 1.384 . S
C307 H316 0.930 . S
C308 C305 1.380 . S
C308 C307 1.384 . S
C308 H317 0.931 . S
C309 C305 1.374 . S
C309 C310 1.390 . S
C309 H318 0.930 . S
C310 C306 1.391 . S
C310 C309 1.390 . S
C310 H319 0.930 . S
C311 Eu281 2.825 . S
C311 O296 1.238 . S
C311 O297 1.247 . S
C311 C305 1.507 . S
H312 C285 0.930 . S
H313 C286 0.931 . S
H314 C287 0.930 . S
H315 C288 0.930 . S
H316 C307 0.930 . S
H317 C308 0.931 . S
H318 C309 0.930 . S
H319 C310 0.930 . S
C320 C321 1.349 1_556 S
C320 C322 1.327 . S
C320 H345 0.950 . S
C321 C320 1.349 1_554 S
C321 C337 1.349 . S
C322 C320 1.327 . S
C322 C341 1.429 1_556 S
C322 H346 0.950 . S
C323 C340 1.574 . S
C323 C342 1.368 . S
C323 H347 0.949 . S
H324 C328 0.949 . S
C325 C326 1.349 . S
C325 C327 1.327 . S
C325 H348 0.950 . S
C326 C325 1.349 . S
C326 C338 1.349 1_554 S
C327 C325 1.327 . S
C327 C343 1.429 . S
C327 H349 0.950 . S
C328 H324 0.949 . S
C328 C336 1.574 . S
C328 C344 1.368 1_556 S
H329 C337 0.950 . S
H330 C335 0.950 . S
H331 C336 0.949 . S
H332 C338 0.950 . S
H333 C339 0.950 . S
H334 C340 0.949 . S
C335 H330 0.950 . S
C335 C337 1.327 . S
C335 C341 1.429 . S
C336 C328 1.574 . S
C336 H331 0.949 . S
C336 C342 1.368 1_556 S
C337 C321 1.349 . S
C337 H329 0.950 . S
C337 C335 1.327 . S
C338 C326 1.349 1_556 S
C338 H332 0.950 . S
C338 C339 1.327 . S
C339 H333 0.950 . S
C339 C338 1.327 . S
C339 C343 1.429 1_556 S
C340 C323 1.574 . S
C340 H334 0.949 . S
C340 C344 1.368 . S
C341 C322 1.429 1_554 S
C341 C335 1.429 . S
C341 C342 1.523 . S
C342 C323 1.368 . S
C342 C336 1.368 1_554 S
C342 C341 1.523 . S
C343 C327 1.429 . S
C343 C339 1.429 1_554 S
C343 C344 1.523 . S
C344 C328 1.368 1_554 S
C344 C340 1.368 . S
C344 C343 1.523 . S
H345 C320 0.950 . S
H346 C322 0.950 . S
H347 C323 0.949 . S
H348 C325 0.950 . S
H349 C327 0.950 . S
C350 C351 1.349 . S
C350 C352 1.327 . S
C350 H375 0.950 . S
C351 C350 1.349 . S
C351 C367 1.349 1_554 S
C352 C350 1.327 . S
C352 C371 1.429 . S
C352 H376 0.950 . S
C353 C370 1.574 . S
C353 C372 1.368 1_556 S
C353 H377 0.949 . S
H354 C358 0.949 . S
C355 C356 1.349 1_556 S
C355 C357 1.327 . S
C355 H378 0.950 . S
C356 C355 1.349 1_554 S
C356 C368 1.349 . S
C357 C355 1.327 . S
C357 C373 1.429 1_556 S
C357 H379 0.950 . S
C358 H354 0.949 . S
C358 C366 1.574 . S
C358 C374 1.368 . S
H359 C367 0.950 . S
H360 C365 0.950 . S
H361 C366 0.949 . S
H362 C368 0.950 . S
H363 C369 0.950 . S
H364 C370 0.949 . S
C365 H360 0.950 . S
C365 C367 1.327 . S
C365 C371 1.429 1_556 S
C366 C358 1.574 . S
C366 H361 0.949 . S
C366 C372 1.368 . S
C367 C351 1.349 1_556 S
C367 H359 0.950 . S
C367 C365 1.327 . S
C368 C356 1.349 . S
C368 H362 0.950 . S
C368 C369 1.327 . S
C369 H363 0.950 . S
C369 C368 1.327 . S
C369 C373 1.429 . S
C370 C353 1.574 . S
C370 H364 0.949 . S
C370 C374 1.368 1_556 S
C371 C352 1.429 . S
C371 C365 1.429 1_554 S
C371 C372 1.523 . S
C372 C353 1.368 1_554 S
C372 C366 1.368 . S
C372 C371 1.523 . S
C373 C357 1.429 1_554 S
C373 C369 1.429 . S
C373 C374 1.523 . S
C374 C358 1.368 . S
C374 C370 1.368 1_554 S
C374 C373 1.523 . S
H375 C350 0.950 . S
H376 C352 0.950 . S
H377 C353 0.949 . S
H378 C355 0.950 . S
H379 C357 0.950 . S
C380 C381 1.349 . S
C380 C382 1.327 . S
C380 H405 0.950 . S
C381 C380 1.349 . S
C381 C397 1.349 . S
C382 C380 1.327 . S
C382 C401 1.429 . S
C382 H406 0.950 . S
C383 C400 1.574 . S
C383 C402 1.368 . S
C383 H407 0.949 . S
H384 C388 0.949 . S
C385 C386 1.349 . S
C385 C387 1.327 . S
C385 H408 0.950 . S
C386 C385 1.349 . S
C386 C398 1.349 . S
C387 C385 1.327 . S
C387 C403 1.429 . S
C387 H409 0.950 . S
C388 H384 0.949 . S
C388 C396 1.574 . S
C388 C404 1.368 . S
H389 C397 0.950 . S
H390 C395 0.950 . S
H391 C396 0.949 . S
H392 C398 0.950 . S
H393 C399 0.950 . S
H394 C400 0.949 . S
C395 H390 0.950 . S
C395 C397 1.327 . S
C395 C401 1.429 . S
C396 C388 1.574 . S
C396 H391 0.949 . S
C396 C402 1.368 . S
C397 C381 1.349 . S
C397 H389 0.950 . S
C397 C395 1.327 . S
C398 C386 1.349 . S
C398 H392 0.950 . S
C398 C399 1.327 . S
C399 H393 0.950 . S
C399 C398 1.327 . S
C399 C403 1.429 . S
C400 C383 1.574 . S
C400 H394 0.949 . S
C400 C404 1.368 . S
C401 C382 1.429 . S
C401 C395 1.429 . S
C401 C402 1.523 . S
C402 C383 1.368 . S
C402 C396 1.368 . S
C402 C401 1.523 . S
C403 C387 1.429 . S
C403 C399 1.429 . S
C403 C404 1.523 . S
C404 C388 1.368 . S
C404 C400 1.368 . S
C404 C403 1.523 . S
H405 C380 0.950 . S
H406 C382 0.950 . S
H407 C383 0.949 . S
H408 C385 0.950 . S
H409 C387 0.950 . S
C410 C411 1.349 . S
C410 C412 1.327 . S
C410 H435 0.950 . S
C411 C410 1.349 . S
C411 C427 1.349 . S
C412 C410 1.327 . S
C412 C431 1.429 . S
C412 H436 0.950 . S
C413 C430 1.574 . S
C413 C432 1.368 . S
C413 H437 0.949 . S
H414 C418 0.949 . S
C415 C416 1.349 . S
C415 C417 1.327 . S
C415 H438 0.950 . S
C416 C415 1.349 . S
C416 C428 1.349 . S
C417 C415 1.327 . S
C417 C433 1.429 . S
C417 H439 0.950 . S
C418 H414 0.949 . S
C418 C426 1.574 . S
C418 C434 1.368 . S
H419 C427 0.950 . S
H420 C425 0.950 . S
H421 C426 0.949 . S
H422 C428 0.950 . S
H423 C429 0.950 . S
H424 C430 0.949 . S
C425 H420 0.950 . S
C425 C427 1.327 . S
C425 C431 1.429 . S
C426 C418 1.574 . S
C426 H421 0.949 . S
C426 C432 1.368 . S
C427 C411 1.349 . S
C427 H419 0.950 . S
C427 C425 1.327 . S
C428 C416 1.349 . S
C428 H422 0.950 . S
C428 C429 1.327 . S
C429 H423 0.950 . S
C429 C428 1.327 . S
C429 C433 1.429 . S
C430 C413 1.574 . S
C430 H424 0.949 . S
C430 C434 1.368 . S
C431 C412 1.429 . S
C431 C425 1.429 . S
C431 C432 1.523 . S
C432 C413 1.368 . S
C432 C426 1.368 . S
C432 C431 1.523 . S
C433 C417 1.429 . S
C433 C429 1.429 . S
C433 C434 1.523 . S
C434 C418 1.368 . S
C434 C430 1.368 . S
C434 C433 1.523 . S
H435 C410 0.950 . S
H436 C412 0.950 . S
H437 C413 0.949 . S
H438 C415 0.950 . S
H439 C417 0.950 . S
C440 C441 1.349 1_556 S
C440 C442 1.327 . S
C440 H465 0.950 . S
C441 C440 1.349 1_554 S
C441 C457 1.349 . S
C442 C440 1.327 . S
C442 C461 1.429 1_556 S
C442 H466 0.950 . S
C443 C460 1.574 . S
C443 C462 1.362 1_455 S
C443 H467 0.949 . S
H444 C448 0.949 . S
C445 C446 1.349 . S
C445 C447 1.327 . S
C445 H468 0.950 . S
C446 C445 1.349 . S
C446 C458 1.349 1_554 S
C447 C445 1.327 . S
C447 C463 1.429 . S
C447 H469 0.950 . S
C448 H444 0.949 . S
C448 C456 1.574 . S
C448 C464 1.368 1_556 S
H449 C457 0.950 . S
H450 C455 0.950 . S
H451 C456 0.949 1_655 S
H452 C458 0.950 . S
H453 C459 0.950 . S
H454 C460 0.949 . S
C455 H450 0.950 . S
C455 C457 1.327 . S
C455 C461 1.429 . S
C456 C448 1.574 . S
C456 H451 0.949 1_455 S
C456 C462 1.363 1_456 S
C457 C441 1.349 . S
C457 H449 0.950 . S
C457 C455 1.327 . S
C458 C446 1.349 1_556 S
C458 H452 0.950 . S
C458 C459 1.327 . S
C459 H453 0.950 . S
C459 C458 1.327 . S
C459 C463 1.429 1_556 S
C460 C443 1.574 . S
C460 H454 0.949 . S
C460 C464 1.368 . S
C461 C442 1.429 1_554 S
C461 C455 1.429 . S
C461 C462 1.538 . S
C462 C443 1.362 1_655 S
C462 C456 1.363 1_654 S
C462 C461 1.538 . S
C463 C447 1.429 . S
C463 C459 1.429 1_554 S
C463 C464 1.523 . S
C464 C448 1.368 1_554 S
C464 C460 1.368 . S
C464 C463 1.523 . S
H465 C440 0.950 . S
H466 C442 0.950 . S
H467 C443 0.949 . S
H468 C445 0.950 . S
H469 C447 0.950 . S
C470 C471 1.349 1_556 S
C470 C472 1.327 . S
C470 H495 0.950 . S
C471 C470 1.349 1_554 S
C471 C487 1.349 . S
C472 C470 1.327 . S
C472 C491 1.429 1_556 S
C472 H496 0.950 . S
C473 C490 1.574 . S
C473 C492 1.362 1_655 S
C473 H497 0.949 . S
H474 C478 0.949 . S
C475 C476 1.349 . S
C475 C477 1.327 . S
C475 H498 0.950 . S
C476 C475 1.349 . S
C476 C488 1.349 1_554 S
C477 C475 1.327 . S
C477 C493 1.429 . S
C477 H499 0.950 . S
C478 H474 0.949 . S
C478 C486 1.574 . S
C478 C494 1.368 1_556 S
H479 C487 0.950 . S
H480 C485 0.950 . S
H481 C486 0.949 1_455 S
H482 C488 0.950 . S
H483 C489 0.950 . S
H484 C490 0.949 . S
C485 H480 0.950 . S
C485 C487 1.327 . S
C485 C491 1.429 . S
C486 C478 1.574 . S
C486 H481 0.949 1_655 S
C486 C492 1.363 1_656 S
C487 C471 1.349 . S
C487 H479 0.950 . S
C487 C485 1.327 . S
C488 C476 1.349 1_556 S
C488 H482 0.950 . S
C488 C489 1.327 . S
C489 H483 0.950 . S
C489 C488 1.327 . S
C489 C493 1.429 1_556 S
C490 C473 1.574 . S
C490 H484 0.949 . S
C490 C494 1.368 . S
C491 C472 1.429 1_554 S
C491 C485 1.429 . S
C491 C492 1.539 . S
C492 C473 1.362 1_455 S
C492 C486 1.363 1_454 S
C492 C491 1.539 . S
C493 C477 1.429 . S
C493 C489 1.429 1_554 S
C493 C494 1.523 . S
C494 C478 1.368 1_554 S
C494 C490 1.368 . S
C494 C493 1.523 . S
H495 C470 0.950 . S
H496 C472 0.950 . S
H497 C473 0.949 . S
H498 C475 0.950 . S
H499 C477 0.950 . S
C500 C501 1.349 . S
C500 C502 1.327 . S
C500 H525 0.950 . S
C501 C500 1.349 . S
C501 C517 1.349 . S
C502 C500 1.327 . S
C502 C521 1.429 . S
C502 H526 0.950 . S
C503 C520 1.574 . S
C503 C522 1.368 . S
C503 H527 0.949 . S
H504 C508 0.949 1_655 S
C505 C506 1.349 . S
C505 C507 1.327 . S
C505 H528 0.950 . S
C506 C505 1.349 . S
C506 C518 1.349 . S
C507 C505 1.327 . S
C507 C523 1.429 . S
C507 H529 0.950 . S
C508 H504 0.949 1_455 S
C508 C516 1.574 . S
C508 C524 1.363 1_455 S
H509 C517 0.950 . S
H510 C515 0.950 . S
H511 C516 0.949 . S
H512 C518 0.950 . S
H513 C519 0.950 . S
H514 C520 0.949 . S
C515 H510 0.950 . S
C515 C517 1.327 . S
C515 C521 1.429 . S
C516 C508 1.574 . S
C516 H511 0.949 . S
C516 C522 1.368 . S
C517 C501 1.349 . S
C517 H509 0.950 . S
C517 C515 1.327 . S
C518 C506 1.349 . S
C518 H512 0.950 . S
C518 C519 1.327 . S
C519 H513 0.950 . S
C519 C518 1.327 . S
C519 C523 1.429 . S
C520 C503 1.574 . S
C520 H514 0.949 . S
C520 C524 1.362 1_455 S
C521 C502 1.429 . S
C521 C515 1.429 . S
C521 C522 1.523 . S
C522 C503 1.368 . S
C522 C516 1.368 . S
C522 C521 1.523 . S
C523 C507 1.429 . S
C523 C519 1.429 . S
C523 C524 1.538 . S
C524 C508 1.363 1_655 S
C524 C520 1.362 1_655 S
C524 C523 1.538 . S
H525 C500 0.950 . S
H526 C502 0.950 . S
H527 C503 0.949 . S
H528 C505 0.950 . S
H529 C507 0.950 . S
C530 C531 1.349 . S
C530 C532 1.327 . S
C530 H555 0.950 . S
C531 C530 1.349 . S
C531 C547 1.349 . S
C532 C530 1.327 . S
C532 C551 1.429 . S
C532 H556 0.950 . S
C533 C550 1.574 . S
C533 C552 1.368 . S
C533 H557 0.949 . S
H534 C538 0.949 1_455 S
C535 C536 1.349 . S
C535 C537 1.327 . S
C535 H558 0.950 . S
C536 C535 1.349 . S
C536 C548 1.349 . S
C537 C535 1.327 . S
C537 C553 1.429 . S
C537 H559 0.950 . S
C538 H534 0.949 1_655 S
C538 C546 1.574 . S
C538 C554 1.364 1_655 S
H539 C547 0.950 . S
H540 C545 0.950 . S
H541 C546 0.949 . S
H542 C548 0.950 . S
H543 C549 0.950 . S
H544 C550 0.949 . S
C545 H540 0.950 . S
C545 C547 1.327 . S
C545 C551 1.429 . S
C546 C538 1.574 . S
C546 H541 0.949 . S
C546 C552 1.368 . S
C547 C531 1.349 . S
C547 H539 0.950 . S
C547 C545 1.327 . S
C548 C536 1.349 . S
C548 H542 0.950 . S
C548 C549 1.327 . S
C549 H543 0.950 . S
C549 C548 1.327 . S
C549 C553 1.429 . S
C550 C533 1.574 . S
C550 H544 0.949 . S
C550 C554 1.362 1_655 S
C551 C532 1.429 . S
C551 C545 1.429 . S
C551 C552 1.523 . S
C552 C533 1.368 . S
C552 C546 1.368 . S
C552 C551 1.523 . S
C553 C537 1.429 . S
C553 C549 1.429 . S
C553 C554 1.538 . S
C554 C538 1.364 1_455 S
C554 C550 1.362 1_455 S
C554 C553 1.538 . S
H555 C530 0.950 . S
H556 C532 0.950 . S
H557 C533 0.949 . S
H558 C535 0.950 . S
H559 C537 0.950 . S
C560 C561 1.349 1_554 S
C560 C562 1.327 . S
C560 H585 0.950 . S
C561 C560 1.349 1_556 S
C561 C577 1.349 . S
C562 C560 1.327 . S
C562 C581 1.429 1_554 S
C562 H586 0.950 1_455 S
C563 C580 1.574 . S
C563 C582 1.368 . S
C563 H587 0.949 . S
H564 C568 0.949 . S
C565 C566 1.349 . S
C565 C567 1.327 . S
C565 H588 0.950 . S
C566 C565 1.349 . S
C566 C578 1.349 1_556 S
C567 C565 1.327 . S
C567 C583 1.429 . S
C567 H589 0.950 1_655 S
C568 H564 0.949 . S
C568 C576 1.574 . S
C568 C584 1.368 1_554 S
H569 C577 0.950 . S
H570 C575 0.950 . S
H571 C576 0.949 . S
H572 C578 0.950 . S
H573 C579 0.950 . S
H574 C580 0.949 . S
C575 H570 0.950 . S
C575 C577 1.327 . S
C575 C581 1.429 . S
C576 C568 1.574 . S
C576 H571 0.949 . S
C576 C582 1.368 1_654 S
C577 C561 1.349 . S
C577 H569 0.950 . S
C577 C575 1.327 . S
C578 C566 1.349 1_554 S
C578 H572 0.950 . S
C578 C579 1.327 . S
C579 H573 0.950 . S
C579 C578 1.327 . S
C579 C583 1.429 1_554 S
C580 C563 1.574 . S
C580 H574 0.949 . S
C580 C584 1.368 1_455 S
C581 C562 1.429 1_556 S
C581 C575 1.429 . S
C581 C582 1.523 . S
C582 C563 1.368 . S
C582 C576 1.368 1_456 S
C582 C581 1.523 . S
C583 C567 1.429 . S
C583 C579 1.429 1_556 S
C583 C584 1.523 . S
C584 C568 1.368 1_556 S
C584 C580 1.368 1_655 S
C584 C583 1.523 . S
H585 C560 0.950 . S
H586 C562 0.950 1_655 S
H587 C563 0.949 . S
H588 C565 0.950 . S
H589 C567 0.950 1_455 S
C590 C591 1.349 . S
C590 C592 1.327 . S
C590 H615 0.950 . S
C591 C590 1.349 . S
C591 C607 1.349 . S
C592 C590 1.327 . S
C592 C611 1.429 . S
C592 H616 0.950 . S
C593 C610 1.574 . S
C593 C612 1.368 1_655 S
C593 H617 0.949 . S
H594 C598 0.949 . S
C595 C596 1.349 . S
C595 C597 1.327 . S
C595 H618 0.950 . S
C596 C595 1.349 . S
C596 C608 1.349 . S
C597 C595 1.327 . S
C597 C613 1.429 . S
C597 H619 0.950 . S
C598 H594 0.949 . S
C598 C606 1.574 . S
C598 C614 1.368 1_455 S
H599 C607 0.950 . S
H600 C605 0.950 1_655 S
H601 C606 0.949 . S
H602 C608 0.950 . S
H603 C609 0.950 1_455 S
H604 C610 0.949 . S
C605 H600 0.950 1_455 S
C605 C607 1.327 . S
C605 C611 1.429 . S
C606 C598 1.574 . S
C606 H601 0.949 . S
C606 C612 1.368 . S
C607 C591 1.349 . S
C607 H599 0.950 . S
C607 C605 1.327 . S
C608 C596 1.349 . S
C608 H602 0.950 . S
C608 C609 1.327 . S
C609 H603 0.950 1_655 S
C609 C608 1.327 . S
C609 C613 1.429 . S
C610 C593 1.574 . S
C610 H604 0.949 . S
C610 C614 1.368 . S
C611 C592 1.429 . S
C611 C605 1.429 . S
C611 C612 1.523 . S
C612 C593 1.368 1_455 S
C612 C606 1.368 . S
C612 C611 1.523 . S
C613 C597 1.429 . S
C613 C609 1.429 . S
C613 C614 1.523 . S
C614 C598 1.368 1_655 S
C614 C610 1.368 . S
C614 C613 1.523 . S
H615 C590 0.950 . S
H616 C592 0.950 . S
H617 C593 0.949 . S
H618 C595 0.950 . S
H619 C597 0.950 . S
C620 C621 1.349 . S
C620 C622 1.327 . S
C620 H645 0.950 . S
C621 C620 1.349 . S
C621 C637 1.349 1_556 S
C622 C620 1.327 . S
C622 C641 1.429 . S
C622 H646 0.950 . S
C623 C640 1.574 1_565 S
C623 C642 1.368 1_554 S
C623 H647 0.949 . S
H624 C628 0.949 . S
C625 C626 1.349 1_554 S
C625 C627 1.327 . S
C625 H648 0.950 . S
C626 C625 1.349 1_556 S
C626 C638 1.349 . S
C627 C625 1.327 . S
C627 C643 1.429 1_554 S
C627 H649 0.950 . S
C628 H624 0.949 . S
C628 C636 1.574 1_545 S
C628 C644 1.368 . S
H629 C637 0.950 . S
H630 C635 0.950 . S
H631 C636 0.949 . S
H632 C638 0.950 . S
H633 C639 0.950 . S
H634 C640 0.949 . S
C635 H630 0.950 . S
C635 C637 1.327 . S
C635 C641 1.429 1_554 S
C636 C628 1.574 1_565 S
C636 H631 0.949 . S
C636 C642 1.368 . S
C637 C621 1.349 1_554 S
C637 H629 0.950 . S
C637 C635 1.327 . S
C638 C626 1.349 . S
C638 H632 0.950 . S
C638 C639 1.327 . S
C639 H633 0.950 . S
C639 C638 1.327 . S
C639 C643 1.429 . S
C640 C623 1.574 1_545 S
C640 H634 0.949 . S
C640 C644 1.368 1_554 S
C641 C622 1.429 . S
C641 C635 1.429 1_556 S
C641 C642 1.523 . S
C642 C623 1.368 1_556 S
C642 C636 1.368 . S
C642 C641 1.523 . S
C643 C627 1.429 1_556 S
C643 C639 1.429 . S
C643 C644 1.523 . S
C644 C628 1.368 . S
C644 C640 1.368 1_556 S
C644 C643 1.523 . S
H645 C620 0.950 . S
H646 C622 0.950 . S
H647 C623 0.949 . S
H648 C625 0.950 . S
H649 C627 0.950 . S
C650 C651 1.349 . S
C650 C652 1.327 . S
C650 H675 0.950 . S
C651 C650 1.349 . S
C651 C667 1.349 . S
C652 C650 1.327 . S
C652 C671 1.429 . S
C652 H676 0.950 . S
C653 C670 1.574 1_545 S
C653 C672 1.368 . S
C653 H677 0.949 . S
H654 C658 0.949 . S
C655 C656 1.349 . S
C655 C657 1.327 . S
C655 H678 0.950 . S
C656 C655 1.349 . S
C656 C668 1.349 . S
C657 C655 1.327 . S
C657 C673 1.429 . S
C657 H679 0.950 . S
C658 H654 0.949 . S
C658 C666 1.574 1_565 S
C658 C674 1.368 . S
H659 C667 0.950 . S
H660 C665 0.950 . S
H661 C666 0.949 . S
H662 C668 0.950 . S
H663 C669 0.950 . S
H664 C670 0.949 . S
C665 H660 0.950 . S
C665 C667 1.327 . S
C665 C671 1.429 . S
C666 C658 1.574 1_545 S
C666 H661 0.949 . S
C666 C672 1.368 . S
C667 C651 1.349 . S
C667 H659 0.950 . S
C667 C665 1.327 . S
C668 C656 1.349 . S
C668 H662 0.950 . S
C668 C669 1.327 . S
C669 H663 0.950 . S
C669 C668 1.327 . S
C669 C673 1.429 . S
C670 C653 1.574 1_565 S
C670 H664 0.949 . S
C670 C674 1.368 . S
C671 C652 1.429 . S
C671 C665 1.429 . S
C671 C672 1.523 . S
C672 C653 1.368 . S
C672 C666 1.368 . S
C672 C671 1.523 . S
C673 C657 1.429 . S
C673 C669 1.429 . S
C673 C674 1.523 . S
C674 C658 1.368 . S
C674 C670 1.368 . S
C674 C673 1.523 . S
H675 C650 0.950 . S
H676 C652 0.950 . S
H677 C653 0.949 . S
H678 C655 0.950 . S
H679 C657 0.950 . S
C680 C681 1.349 . S
C680 C682 1.327 . S
C680 H705 0.950 1_554 S
C681 C680 1.349 . S
C681 C697 1.349 . S
C682 C680 1.327 . S
C682 C701 1.429 . S
C682 H706 0.950 1_554 S
C683 C700 1.574 . S
C683 C702 1.368 . S
C683 H707 0.949 . S
H684 C688 0.949 . S
C685 C686 1.349 . S
C685 C687 1.327 . S
C685 H708 0.950 . S
C686 C685 1.349 . S
C686 C698 1.349 1_554 S
C687 C685 1.327 . S
C687 C703 1.429 . S
C687 H709 0.950 . S
C688 H684 0.949 . S
C688 C696 1.574 . S
C688 C704 1.368 1_556 S
H689 C697 0.950 . S
H690 C695 0.950 . S
H691 C696 0.949 . S
H692 C698 0.950 . S
H693 C699 0.950 . S
H694 C700 0.949 . S
C695 H690 0.950 . S
C695 C697 1.327 . S
C695 C701 1.429 . S
C696 C688 1.574 . S
C696 H691 0.949 . S
C696 C702 1.368 1_556 S
C697 C681 1.349 . S
C697 H689 0.950 . S
C697 C695 1.327 . S
C698 C686 1.349 1_556 S
C698 H692 0.950 . S
C698 C699 1.327 . S
C699 H693 0.950 . S
C699 C698 1.327 . S
C699 C703 1.429 1_556 S
C700 C683 1.574 . S
C700 H694 0.949 . S
C700 C704 1.368 . S
C701 C682 1.429 . S
C701 C695 1.429 . S
C701 C702 1.523 . S
C702 C683 1.368 . S
C702 C696 1.368 1_554 S
C702 C701 1.523 . S
C703 C687 1.429 . S
C703 C699 1.429 1_554 S
C703 C704 1.523 . S
C704 C688 1.368 1_554 S
C704 C700 1.368 . S
C704 C703 1.523 . S
H705 C680 0.950 1_556 S
H706 C682 0.950 1_556 S
H707 C683 0.949 . S
H708 C685 0.950 . S
H709 C687 0.950 . S
C710 C711 1.349 . S
C710 C712 1.327 . S
C710 H735 0.950 . S
C711 C710 1.349 . S
C711 C727 1.349 . S
C712 C710 1.327 . S
C712 C731 1.429 . S
C712 H736 0.950 1_554 S
C713 C730 1.574 . S
C713 C732 1.368 . S
C713 H737 0.949 . S
H714 C718 0.949 1_556 S
C715 C716 1.349 . S
C715 C717 1.327 . S
C715 H738 0.950 . S
C716 C715 1.349 . S
C716 C728 1.349 . S
C717 C715 1.327 . S
C717 C733 1.429 . S
C717 H739 0.950 . S
C718 H714 0.949 1_554 S
C718 C726 1.574 . S
C718 C734 1.368 . S
H719 C727 0.950 . S
H720 C725 0.950 . S
H721 C726 0.949 1_556 S
H722 C728 0.950 1_556 S
H723 C729 0.950 1_556 S
H724 C730 0.949 . S
C725 H720 0.950 . S
C725 C727 1.327 . S
C725 C731 1.429 . S
C726 C718 1.574 . S
C726 H721 0.949 1_554 S
C726 C732 1.368 . S
C727 C711 1.349 . S
C727 H719 0.950 . S
C727 C725 1.327 . S
C728 C716 1.349 . S
C728 H722 0.950 1_554 S
C728 C729 1.327 . S
C729 H723 0.950 1_554 S
C729 C728 1.327 . S
C729 C733 1.429 . S
C730 C713 1.574 . S
C730 H724 0.949 . S
C730 C734 1.368 . S
C731 C712 1.429 . S
C731 C725 1.429 . S
C731 C732 1.523 . S
C732 C713 1.368 . S
C732 C726 1.368 . S
C732 C731 1.523 . S
C733 C717 1.429 . S
C733 C729 1.429 . S
C733 C734 1.523 . S
C734 C718 1.368 . S
C734 C730 1.368 . S
C734 C733 1.523 . S
H735 C710 0.950 . S
H736 C712 0.950 1_556 S
H737 C713 0.949 . S
H738 C715 0.950 . S
H739 C717 0.950 . S
C740 C741 1.349 . S
C740 C742 1.327 . S
C740 H765 0.950 . S
C741 C740 1.349 . S
C741 C757 1.349 . S
C742 C740 1.327 . S
C742 C761 1.429 . S
C742 H766 0.950 . S
C743 C760 1.574 . S
C743 C762 1.368 . S
C743 H767 0.949 . S
H744 C748 0.949 . S
C745 C746 1.349 . S
C745 C747 1.327 . S
C745 H768 0.950 . S
C746 C745 1.349 . S
C746 C758 1.349 . S
C747 C745 1.327 . S
C747 C763 1.429 . S
C747 H769 0.950 . S
C748 H744 0.949 . S
C748 C756 1.574 . S
C748 C764 1.368 . S
H749 C757 0.950 . S
H750 C755 0.950 . S
H751 C756 0.949 . S
H752 C758 0.950 . S
H753 C759 0.950 . S
H754 C760 0.949 . S
C755 H750 0.950 . S
C755 C757 1.327 . S
C755 C761 1.429 . S
C756 C748 1.574 . S
C756 H751 0.949 . S
C756 C762 1.368 . S
C757 C741 1.349 . S
C757 H749 0.950 . S
C757 C755 1.327 . S
C758 C746 1.349 . S
C758 H752 0.950 . S
C758 C759 1.327 . S
C759 H753 0.950 . S
C759 C758 1.327 . S
C759 C763 1.429 . S
C760 C743 1.574 . S
C760 H754 0.949 . S
C760 C764 1.368 . S
C761 C742 1.429 . S
C761 C755 1.429 . S
C761 C762 1.523 . S
C762 C743 1.368 . S
C762 C756 1.368 . S
C762 C761 1.523 . S
C763 C747 1.429 . S
C763 C759 1.429 . S
C763 C764 1.523 . S
C764 C748 1.368 . S
C764 C760 1.368 . S
C764 C763 1.523 . S
H765 C740 0.950 . S
H766 C742 0.950 . S
H767 C743 0.949 . S
H768 C745 0.950 . S
H769 C747 0.950 . S
C770 C771 1.349 . S
C770 C772 1.327 . S
C770 H795 0.950 . S
C771 C770 1.349 . S
C771 C787 1.349 . S
C772 C770 1.327 . S
C772 C791 1.429 . S
C772 H796 0.950 . S
C773 C790 1.574 . S
C773 C792 1.368 . S
C773 H797 0.949 . S
H774 C778 0.949 . S
C775 C776 1.349 . S
C775 C777 1.327 . S
C775 H798 0.950 . S
C776 C775 1.349 . S
C776 C788 1.349 . S
C777 C775 1.327 . S
C777 C793 1.429 . S
C777 H799 0.950 . S
C778 H774 0.949 . S
C778 C786 1.574 . S
C778 C794 1.368 . S
H779 C787 0.950 . S
H780 C785 0.950 . S
H781 C786 0.949 . S
H782 C788 0.950 . S
H783 C789 0.950 . S
H784 C790 0.949 . S
C785 H780 0.950 . S
C785 C787 1.327 . S
C785 C791 1.429 . S
C786 C778 1.574 . S
C786 H781 0.949 . S
C786 C792 1.368 . S
C787 C771 1.349 . S
C787 H779 0.950 . S
C787 C785 1.327 . S
C788 C776 1.349 . S
C788 H782 0.950 . S
C788 C789 1.327 . S
C789 H783 0.950 . S
C789 C788 1.327 . S
C789 C793 1.429 . S
C790 C773 1.574 . S
C790 H784 0.949 . S
C790 C794 1.368 . S
C791 C772 1.429 . S
C791 C785 1.429 . S
C791 C792 1.523 . S
C792 C773 1.368 . S
C792 C786 1.368 . S
C792 C791 1.523 . S
C793 C777 1.429 . S
C793 C789 1.429 . S
C793 C794 1.523 . S
C794 C778 1.368 . S
C794 C790 1.368 . S
C794 C793 1.523 . S
H795 C770 0.950 . S
H796 C772 0.950 . S
H797 C773 0.949 . S
H798 C775 0.950 . S
H799 C777 0.950 . S
C800 C801 1.349 . S
C800 C802 1.324 1_455 S
C800 H825 0.950 1_455 S
C801 C800 1.349 . S
C801 C817 1.349 . S
C802 C800 1.324 1_655 S
C802 C821 1.423 1_655 S
C802 H826 0.959 . S
C803 C820 1.574 . S
C803 C822 1.368 . S
C803 H827 0.949 . S
H804 C808 0.949 . S
C805 C806 1.349 . S
C805 C807 1.327 1_655 S
C805 H828 0.950 1_655 S
C806 C805 1.349 . S
C806 C818 1.349 . S
C807 C805 1.327 1_455 S
C807 C823 1.429 1_455 S
C807 H829 0.950 . S
C808 H804 0.949 . S
C808 C816 1.574 . S
C808 C824 1.368 . S
H809 C817 0.950 . S
H810 C815 0.950 . S
H811 C816 0.949 . S
H812 C818 0.950 . S
H813 C819 0.950 . S
H814 C820 0.949 . S
C815 H810 0.950 . S
C815 C817 1.327 . S
C815 C821 1.429 . S
C816 C808 1.574 . S
C816 H811 0.949 . S
C816 C822 1.368 1_655 S
C817 C801 1.349 . S
C817 H809 0.950 . S
C817 C815 1.327 . S
C818 C806 1.349 . S
C818 H812 0.950 . S
C818 C819 1.327 . S
C819 H813 0.950 . S
C819 C818 1.327 . S
C819 C823 1.429 . S
C820 C803 1.574 . S
C820 H814 0.949 . S
C820 C824 1.368 1_455 S
C821 C802 1.423 1_455 S
C821 C815 1.429 . S
C821 C822 1.523 . S
C822 C803 1.368 . S
C822 C816 1.368 1_455 S
C822 C821 1.523 . S
C823 C807 1.429 1_655 S
C823 C819 1.429 . S
C823 C824 1.523 . S
C824 C808 1.368 . S
C824 C820 1.368 1_655 S
C824 C823 1.523 . S
H825 C800 0.950 1_655 S
H826 C802 0.959 . S
H827 C803 0.949 . S
H828 C805 0.950 1_455 S
H829 C807 0.950 . S
C830 C831 1.349 . S
C830 C832 1.327 . S
C830 H855 0.950 . S
C831 C830 1.349 . S
C831 C847 1.349 . S
C832 C830 1.327 . S
C832 C851 1.429 . S
C832 H856 0.950 . S
C833 C850 1.574 . S
C833 C852 1.368 1_455 S
C833 H857 0.949 . S
H834 C838 0.949 . S
C835 C836 1.349 . S
C835 C837 1.327 . S
C835 H858 0.950 . S
C836 C835 1.349 . S
C836 C848 1.349 . S
C837 C835 1.327 . S
C837 C853 1.429 . S
C837 H859 0.950 . S
C838 H834 0.949 . S
C838 C846 1.574 . S
C838 C854 1.368 1_655 S
H839 C847 0.950 1_455 S
H840 C845 0.950 . S
H841 C846 0.949 . S
H842 C848 0.945 1_655 S
H843 C849 0.950 1_655 S
H844 C850 0.949 . S
C845 H840 0.950 . S
C845 C847 1.327 1_455 S
C845 C851 1.429 1_455 S
C846 C838 1.574 . S
C846 H841 0.949 . S
C846 C852 1.368 . S
C847 C831 1.349 . S
C847 H839 0.950 1_655 S
C847 C845 1.327 1_655 S
C848 C836 1.349 . S
C848 H842 0.945 1_455 S
C848 C849 1.327 . S
C849 H843 0.950 1_455 S
C849 C848 1.327 . S
C849 C853 1.429 . S
C850 C833 1.574 . S
C850 H844 0.949 . S
C850 C854 1.368 . S
C851 C832 1.429 . S
C851 C845 1.429 1_655 S
C851 C852 1.523 . S
C852 C833 1.368 1_655 S
C852 C846 1.368 . S
C852 C851 1.523 . S
C853 C837 1.429 . S
C853 C849 1.429 . S
C853 C854 1.523 . S
C854 C838 1.368 1_455 S
C854 C850 1.368 . S
C854 C853 1.523 . S
H855 C830 0.950 . S
H856 C832 0.950 . S
H857 C833 0.949 . S
H858 C835 0.950 . S
H859 C837 0.950 . S
C860 C861 1.349 . S
C860 C862 1.327 . S
C860 H885 0.950 . S
C861 C860 1.349 . S
C861 C877 1.349 . S
C862 C860 1.327 . S
C862 C881 1.429 . S
C862 H886 0.950 . S
C863 C880 1.574 . S
C863 C882 1.368 1_455 S
C863 H887 0.949 . S
H864 C868 0.949 . S
C865 C866 1.349 . S
C865 C867 1.327 . S
C865 H888 0.950 . S
C866 C865 1.349 . S
C866 C878 1.349 . S
C867 C865 1.327 . S
C867 C883 1.429 . S
C867 H889 0.950 . S
C868 H864 0.949 . S
C868 C876 1.574 . S
C868 C884 1.368 1_655 S
H869 C877 0.948 1_455 S
H870 C875 0.950 1_455 S
H871 C876 0.949 . S
H872 C878 0.950 1_655 S
H873 C879 0.950 . S
H874 C880 0.949 . S
C875 H870 0.950 1_655 S
C875 C877 1.327 . S
C875 C881 1.429 . S
C876 C868 1.574 . S
C876 H871 0.949 . S
C876 C882 1.368 . S
C877 C861 1.349 . S
C877 H869 0.948 1_655 S
C877 C875 1.327 . S
C878 C866 1.349 . S
C878 H872 0.950 1_455 S
C878 C879 1.327 1_455 S
C879 H873 0.950 . S
C879 C878 1.327 1_655 S
C879 C883 1.429 1_655 S
C880 C863 1.574 . S
C880 H874 0.949 . S
C880 C884 1.368 . S
C881 C862 1.429 . S
C881 C875 1.429 . S
C881 C882 1.523 . S
C882 C863 1.368 1_655 S
C882 C876 1.368 . S
C882 C881 1.523 . S
C883 C867 1.429 . S
C883 C879 1.429 1_455 S
C883 C884 1.523 . S
C884 C868 1.368 1_455 S
C884 C880 1.368 . S
C884 C883 1.523 . S
H885 C860 0.950 . S
H886 C862 0.950 . S
H887 C863 0.949 . S
H888 C865 0.950 . S
H889 C867 0.950 . S
C890 C891 1.349 . S
C890 C892 1.327 . S
C890 H915 0.950 . S
C891 C890 1.349 . S
C891 C907 1.349 . S
C892 C890 1.327 . S
C892 C911 1.429 . S
C892 H916 0.950 . S
C893 C910 1.574 . S
C893 C912 1.368 1_455 S
C893 H917 0.949 . S
H894 C898 0.949 . S
C895 C896 1.349 . S
C895 C897 1.327 . S
C895 H918 0.950 . S
C896 C895 1.349 . S
C896 C908 1.349 . S
C897 C895 1.327 . S
C897 C913 1.429 . S
C897 H919 0.950 . S
C898 H894 0.949 . S
C898 C906 1.574 . S
C898 C914 1.368 1_655 S
H899 C907 0.950 1_455 S
H900 C905 0.950 . S
H901 C906 0.949 . S
H902 C908 0.950 1_655 S
H903 C909 0.950 . S
H904 C910 0.949 . S
C905 H900 0.950 . S
C905 C907 1.327 1_455 S
C905 C911 1.429 1_455 S
C906 C898 1.574 . S
C906 H901 0.949 . S
C906 C912 1.368 . S
C907 C891 1.349 . S
C907 H899 0.950 1_655 S
C907 C905 1.327 1_655 S
C908 C896 1.349 . S
C908 H902 0.950 1_455 S
C908 C909 1.327 1_455 S
C909 H903 0.950 . S
C909 C908 1.327 1_655 S
C909 C913 1.429 1_655 S
C910 C893 1.574 . S
C910 H904 0.949 . S
C910 C914 1.368 . S
C911 C892 1.429 . S
C911 C905 1.429 1_655 S
C911 C912 1.523 . S
C912 C893 1.368 1_655 S
C912 C906 1.368 . S
C912 C911 1.523 . S
C913 C897 1.429 . S
C913 C909 1.429 1_455 S
C913 C914 1.523 . S
C914 C898 1.368 1_455 S
C914 C910 1.368 . S
C914 C913 1.523 . S
H915 C890 0.950 . S
H916 C892 0.950 . S
H917 C893 0.949 . S
H918 C895 0.950 . S
H919 C897 0.950 . S
C920 C921 1.349 . S
C920 C922 1.327 . S
C920 H945 0.950 . S
C921 C920 1.349 . S
C921 C937 1.349 . S
C922 C920 1.327 . S
C922 C941 1.429 . S
C922 H946 0.950 . S
C923 C940 1.574 . S
C923 C942 1.368 . S
C923 H947 0.949 . S
H924 C928 0.949 . S
C925 C926 1.349 . S
C925 C927 1.327 . S
C925 H948 0.950 . S
C926 C925 1.349 . S
C926 C938 1.349 . S
C927 C925 1.327 . S
C927 C943 1.429 . S
C927 H949 0.950 . S
C928 H924 0.949 . S
C928 C936 1.574 . S
C928 C944 1.368 . S
H929 C937 0.950 . S
H930 C935 0.950 . S
H931 C936 0.949 . S
H932 C938 0.950 . S
H933 C939 0.950 . S
H934 C940 0.949 . S
C935 H930 0.950 . S
C935 C937 1.327 . S
C935 C941 1.429 . S
C936 C928 1.574 . S
C936 H931 0.949 . S
C936 C942 1.368 . S
C937 C921 1.349 . S
C937 H929 0.950 . S
C937 C935 1.327 . S
C938 C926 1.349 . S
C938 H932 0.950 . S
C938 C939 1.327 . S
C939 H933 0.950 . S
C939 C938 1.327 . S
C939 C943 1.429 . S
C940 C923 1.574 . S
C940 H934 0.949 . S
C940 C944 1.368 . S
C941 C922 1.429 . S
C941 C935 1.429 . S
C941 C942 1.523 . S
C942 C923 1.368 . S
C942 C936 1.368 . S
C942 C941 1.523 . S
C943 C927 1.429 . S
C943 C939 1.429 . S
C943 C944 1.523 . S
C944 C928 1.368 . S
C944 C940 1.368 . S
C944 C943 1.523 . S
H945 C920 0.950 . S
H946 C922 0.950 . S
H947 C923 0.949 . S
H948 C925 0.950 . S
H949 C927 0.950 . S
C950 C951 1.349 . S
C950 C952 1.327 . S
C950 H975 0.950 . S
C951 C950 1.349 . S
C951 C967 1.349 . S
C952 C950 1.327 . S
C952 C971 1.429 . S
C952 H976 0.950 . S
C953 C970 1.574 . S
C953 C972 1.368 . S
C953 H977 0.949 . S
H954 C958 0.949 . S
C955 C956 1.349 . S
C955 C957 1.327 . S
C955 H978 0.950 . S
C956 C955 1.349 . S
C956 C968 1.349 . S
C957 C955 1.327 . S
C957 C973 1.429 . S
C957 H979 0.950 . S
C958 H954 0.949 . S
C958 C966 1.574 . S
C958 C974 1.368 . S
H959 C967 0.950 . S
H960 C965 0.950 . S
H961 C966 0.949 . S
H962 C968 0.950 . S
H963 C969 0.950 . S
H964 C970 0.949 . S
C965 H960 0.950 . S
C965 C967 1.327 . S
C965 C971 1.429 . S
C966 C958 1.574 . S
C966 H961 0.949 . S
C966 C972 1.368 . S
C967 C951 1.349 . S
C967 H959 0.950 . S
C967 C965 1.327 . S
C968 C956 1.349 . S
C968 H962 0.950 . S
C968 C969 1.327 . S
C969 H963 0.950 . S
C969 C968 1.327 . S
C969 C973 1.429 . S
C970 C953 1.574 . S
C970 H964 0.949 . S
C970 C974 1.368 . S
C971 C952 1.429 . S
C971 C965 1.429 . S
C971 C972 1.523 . S
C972 C953 1.368 . S
C972 C966 1.368 . S
C972 C971 1.523 . S
C973 C957 1.429 . S
C973 C969 1.429 . S
C973 C974 1.523 . S
C974 C958 1.368 . S
C974 C970 1.368 . S
C974 C973 1.523 . S
H975 C950 0.950 . S
H976 C952 0.950 . S
H977 C953 0.949 . S
H978 C955 0.950 . S
H979 C957 0.950 . S
C980 C981 1.349 . S
C980 C982 1.327 . S
C980 H1005 0.950 . S
C981 C980 1.349 . S
C981 C997 1.349 . S
C982 C980 1.327 . S
C982 C1001 1.429 . S
C982 H1006 0.950 . S
C983 C1000 1.574 . S
C983 C1002 1.368 . S
C983 H1007 0.949 . S
H984 C988 0.949 . S
C985 C986 1.349 . S
C985 C987 1.327 . S
C985 H1008 0.950 . S
C986 C985 1.349 . S
C986 C998 1.349 . S
C987 C985 1.327 . S
C987 C1003 1.429 . S
C987 H1009 0.950 . S
C988 H984 0.949 . S
C988 C996 1.574 . S
C988 C1004 1.368 . S
H989 C997 0.950 . S
H990 C995 0.950 . S
H991 C996 0.949 . S
H992 C998 0.950 . S
H993 C999 0.950 . S
H994 C1000 0.949 . S
C995 H990 0.950 . S
C995 C997 1.327 . S
C995 C1001 1.429 . S
C996 C988 1.574 . S
C996 H991 0.949 . S
C996 C1002 1.368 . S
C997 C981 1.349 . S
C997 H989 0.950 . S
C997 C995 1.327 . S
C998 C986 1.349 . S
C998 H992 0.950 . S
C998 C999 1.327 . S
C999 H993 0.950 . S
C999 C998 1.327 . S
C999 C1003 1.429 . S
C1000 C983 1.574 . S
C1000 H994 0.949 . S
C1000 C1004 1.368 . S
C1001 C982 1.429 . S
C1001 C995 1.429 . S
C1001 C1002 1.523 . S
C1002 C983 1.368 . S
C1002 C996 1.368 . S
C1002 C1001 1.523 . S
C1003 C987 1.429 . S
C1003 C999 1.429 . S
C1003 C1004 1.523 . S
C1004 C988 1.368 . S
C1004 C1000 1.368 . S
C1004 C1003 1.523 . S
H1005 C980 0.950 . S
H1006 C982 0.950 . S
H1007 C983 0.949 . S
H1008 C985 0.950 . S
H1009 C987 0.950 . S
C1010 C1011 1.349 . S
C1010 C1012 1.327 . S
C1010 H1035 0.950 . S
C1011 C1010 1.349 . S
C1011 C1027 1.349 . S
C1012 C1010 1.327 . S
C1012 C1031 1.429 . S
C1012 H1036 0.950 . S
C1013 C1030 1.574 . S
C1013 C1032 1.368 . S
C1013 H1037 0.949 . S
H1014 C1018 0.949 . S
C1015 C1016 1.349 . S
C1015 C1017 1.327 . S
C1015 H1038 0.950 . S
C1016 C1015 1.349 . S
C1016 C1028 1.349 . S
C1017 C1015 1.327 . S
C1017 C1033 1.429 . S
C1017 H1039 0.950 . S
C1018 H1014 0.949 . S
C1018 C1026 1.574 . S
C1018 C1034 1.368 . S
H1019 C1027 0.950 . S
H1020 C1025 0.950 . S
H1021 C1026 0.949 . S
H1022 C1028 0.950 . S
H1023 C1029 0.950 . S
H1024 C1030 0.949 . S
C1025 H1020 0.950 . S
C1025 C1027 1.327 . S
C1025 C1031 1.429 . S
C1026 C1018 1.574 . S
C1026 H1021 0.949 . S
C1026 C1032 1.368 . S
C1027 C1011 1.349 . S
C1027 H1019 0.950 . S
C1027 C1025 1.327 . S
C1028 C1016 1.349 . S
C1028 H1022 0.950 . S
C1028 C1029 1.327 . S
C1029 H1023 0.950 . S
C1029 C1028 1.327 . S
C1029 C1033 1.429 . S
C1030 C1013 1.574 . S
C1030 H1024 0.949 . S
C1030 C1034 1.368 . S
C1031 C1012 1.429 . S
C1031 C1025 1.429 . S
C1031 C1032 1.523 . S
C1032 C1013 1.368 . S
C1032 C1026 1.368 . S
C1032 C1031 1.523 . S
C1033 C1017 1.429 . S
C1033 C1029 1.429 . S
C1033 C1034 1.523 . S
C1034 C1018 1.368 . S
C1034 C1030 1.368 . S
C1034 C1033 1.523 . S
H1035 C1010 0.950 . S
H1036 C1012 0.950 . S
H1037 C1013 0.949 . S
H1038 C1015 0.950 . S
H1039 C1017 0.950 . S
C321 C3 2.359 . S
C326 C22 2.359 . S
C351 C62 2.356 . S
C356 C43 2.356 . S
C381 C83 2.357 . S
C386 C102 2.357 . S
C411 C123 2.357 . S
C416 C142 2.357 . S
C441 C163 2.359 . S
C446 C182 2.359 . S
C471 C203 2.356 . S
C476 C222 2.356 . S
C501 C243 2.357 . S
C506 C262 2.357 . S
C531 C302 2.357 . S
C536 C283 2.357 . S
C561 C49 2.416 . S
C566 C9 2.403 . S
C591 C129 2.393 . S
C596 C106 2.393 . S
C621 C169 2.403 . S
C626 C209 2.416 . S
C651 C266 2.394 . S
C656 C289 2.394 . S
C681 C26 1.731 . S
C686 C226 1.742 . S
C711 C186 1.731 . S
C716 C66 1.742 . S
C741 C89 1.716 . S
C746 C306 1.716 . S
C771 C146 1.716 . S
C776 C249 1.716 . S
C801 C2 1.530 . S
C806 C122 1.549 . S
C831 C42 1.578 . S
C836 C82 1.567 . S
C861 C55 1.531 . S
C866 C95 1.543 . S
C891 C135 1.587 . S
C896 C15 1.570 . S
C921 C162 1.530 . S
C926 C282 1.549 . S
C951 C202 1.578 . S
C956 C242 1.566 . S
C981 C215 1.531 . S
C986 C255 1.543 . S
C1011 C295 1.587 . S
C1016 C175 1.570 . S
