# Generated by pormake.
# Topology snp, (6)-cn, num edge types: 1
# Building blocks:
#     Node 0, Type 0, BuildingBlock: KUMBUR_clean_sbu_0, # of connection points: 6
#     Node 1, Type 0, BuildingBlock: KUMBUR_clean_sbu_0, # of connection points: 6
#     Node 2, Type 0, BuildingBlock: KUMBUR_clean_sbu_0, # of connection points: 6
#     Node 3, Type 0, BuildingBlock: KUMBUR_clean_sbu_0, # of connection points: 6
#     Edge 4, Type (0, 0), BuildingBlock: UVAHIK_clean_linker_0, # of connection points: 2
#     Edge 5, Type (0, 0), BuildingBlock: UVAHIK_clean_linker_0, # of connection points: 2
#     Edge 6, Type (0, 0), BuildingBlock: UVAHIK_clean_linker_0, # of connection points: 2
#     Edge 7, Type (0, 0), BuildingBlock: UVAHIK_clean_linker_0, # of connection points: 2
#     Edge 8, Type (0, 0), BuildingBlock: UVAHIK_clean_linker_0, # of connection points: 2
#     Edge 9, Type (0, 0), BuildingBlock: UVAHIK_clean_linker_0, # of connection points: 2
#     Edge 10, Type (0, 0), BuildingBlock: UVAHIK_clean_linker_0, # of connection points: 2
#     Edge 11, Type (0, 0), BuildingBlock: UVAHIK_clean_linker_0, # of connection points: 2
#     Edge 12, Type (0, 0), BuildingBlock: UVAHIK_clean_linker_0, # of connection points: 2
#     Edge 13, Type (0, 0), BuildingBlock: UVAHIK_clean_linker_0, # of connection points: 2
#     Edge 14, Type (0, 0), BuildingBlock: UVAHIK_clean_linker_0, # of connection points: 2
#     Edge 15, Type (0, 0), BuildingBlock: UVAHIK_clean_linker_0, # of connection points: 2
# Relax obj value: 0.223
# Max RMSD: 0.242
# Mean RMSD: 0.223
data_MOF--net-snp--node1-KUMBUR_clean_sbu_0--edge1-UVAHIK_clean_linker_0
_symmetry_space_group_name_H-M    P1
_symmetry_Int_Tables_number       1
_symmetry_cell_setting            triclinic
loop_
_symmetry_equiv_pos_as_xyz
'x, y, z'
_cell_length_a     31.48174
_cell_length_b     32.900087
_cell_length_c     41.219445
_cell_angle_alpha  115.09104
_cell_angle_beta   100.83286
_cell_angle_gamma 92.935975
loop_
_atom_site_label
_atom_site_type_symbol
_atom_site_fract_x
_atom_site_fract_y
_atom_site_fract_z
_atom_type_partial_charge
Tb0 Tb 0.36388 0.1311 0.21149 0.0
C1 C 0.42894 0.96092 0.20904 0.0
C2 C 0.38639 0.89932 0.15282 0.0
C3 C 0.46112 0.89361 0.17752 0.0
C4 C 0.39066 0.9428 0.18231 0.0
C5 C 0.46452 0.93641 0.20738 0.0
C6 C 0.4221 0.87509 0.15024 0.0
C7 C 0.50293 0.99723 0.2658 0.0
N8 N 0.43082 1.00251 0.23725 0.0
C9 C 0.46667 0.02019 0.26625 0.0
C10 C 0.50203 0.95536 0.23608 0.0
Tb11 Tb 0.36934 0.03712 0.23567 0.0
N12 N 0.35693 0.9671 0.18614 0.0
C13 C 0.31689 0.94854 0.16249 0.0
C14 C 0.34607 0.88114 0.1274 0.0
C15 C 0.31101 0.9057 0.13251 0.0
H16 H 0.46787 0.05246 0.2894 0.0
H17 H 0.27943 0.89167 0.11342 0.0
H18 H 0.4196 0.84172 0.12768 0.0
H19 H 0.53151 0.01181 0.28844 0.0
H20 H 0.28951 0.96708 0.16629 0.0
H21 H 0.45903 0.2736 0.33422 0.0
H22 H 0.34142 0.84788 0.10428 0.0
H23 H 0.26782 0.12163 0.15594 0.0
H24 H 0.44729 0.19845 0.28145 0.0
H25 H 0.20757 0.16717 0.15698 0.0
H26 H 0.48818 0.87429 0.17558 0.0
H27 H 0.39905 0.31997 0.34341 0.0
H28 H 0.32249 0.32961 0.32024 0.0
H29 H 0.53012 0.93762 0.23588 0.0
H30 H 0.25418 0.30076 0.27213 0.0
N31 N 0.38029 0.20071 0.26124 0.0
C32 C 0.42051 0.21783 0.28496 0.0
C33 C 0.39347 0.28671 0.32016 0.0
C34 C 0.35312 0.27013 0.29466 0.0
C35 C 0.42743 0.26066 0.31504 0.0
C36 C 0.34745 0.22651 0.265 0.0
H37 H 0.2113 0.24061 0.211 0.0
N38 N 0.30462 0.16834 0.20943 0.0
C39 C 0.23565 0.17947 0.18007 0.0
C40 C 0.30856 0.20997 0.23818 0.0
C41 C 0.26983 0.15387 0.17953 0.0
C42 C 0.23785 0.22084 0.21067 0.0
C43 C 0.2749 0.23697 0.23991 0.0
O44 O 0.3505 0.13161 0.15969 0.0
O45 O 0.34659 0.05793 0.19243 0.0
O46 O 0.42681 0.04723 0.21562 0.0
O47 O 0.43099 0.12418 0.23189 0.0
O48 O 0.37317 0.07804 0.1602 0.0
O49 O 0.40661 0.17484 0.2029 0.0
O50 O 0.36936 0.0403 0.28789 0.0
O51 O 0.36853 0.10852 0.25348 0.0
O52 O 0.30031 0.11594 0.22144 0.0
O53 O 0.30052 0.04391 0.21957 0.0
O54 O 0.4043 0.09121 0.28997 0.0
O55 O 0.32363 0.9914 0.24012 0.0
C56 C 0.35652 0.04283 0.16156 0.0
C57 C 0.37118 0.20271 0.16141 0.0
C58 C 0.34897 0.23191 0.11595 0.0
C59 C 0.36188 0.19646 0.12456 0.0
C60 C 0.34533 0.27345 0.14464 0.0
C61 C 0.36862 0.24513 0.18952 0.0
C62 C 0.35534 0.27999 0.1811 0.0
C63 C 0.44754 0.0858 0.21982 0.0
C64 C 0.38248 0.16462 0.17001 0.0
C65 C 0.27987 0.27972 0.27011 0.0
C66 C 0.31882 0.29619 0.29748 0.0
C67 C 0.39066 0.12541 0.28614 0.0
C68 C 0.34557 0.97228 0.28961 0.0
C69 C 0.31968 0.96656 0.31238 0.0
C70 C 0.32799 0.93533 0.32737 0.0
C71 C 0.36313 0.91074 0.31939 0.0
C72 C 0.37954 0.94646 0.28172 0.0
C73 C 0.3883 0.91606 0.29661 0.0
C74 C 0.28092 0.07949 0.22194 0.0
C75 C 0.33818 0.0064 0.27541 0.0
H76 H 0.36428 0.16404 0.10267 0.0
H77 H 0.33583 0.30138 0.13896 0.0
H78 H 0.37697 0.25155 0.21804 0.0
H79 H 0.35313 0.31241 0.20301 0.0
H80 H 0.29307 0.98615 0.3181 0.0
H81 H 0.37177 0.88761 0.33113 0.0
H82 H 0.39969 0.9501 0.2644 0.0
H83 H 0.41504 0.89676 0.29072 0.0
Tb84 Tb 0.10753 0.26296 0.57588 0.0
C85 C 0.24415 0.40011 0.70412 0.0
C86 C 0.30696 0.41488 0.68255 0.0
C87 C 0.28996 0.4736 0.73693 0.0
C88 C 0.27007 0.38576 0.67882 0.0
C89 C 0.25373 0.44406 0.73347 0.0
C90 C 0.31652 0.45905 0.71153 0.0
C91 C 0.19148 0.4257 0.75405 0.0
N92 N 0.20885 0.37087 0.69937 0.0
C93 C 0.18326 0.38238 0.7244 0.0
C94 C 0.2267 0.45678 0.75848 0.0
Tb95 Tb 0.20061 0.30017 0.65168 0.0
N96 N 0.25994 0.3427 0.65135 0.0
C97 C 0.28705 0.32573 0.62808 0.0
C98 C 0.33359 0.39838 0.65753 0.0
C99 C 0.32382 0.35346 0.63041 0.0
H100 H 0.15634 0.35812 0.72105 0.0
H101 H 0.34477 0.34005 0.61145 0.0
H102 H 0.34466 0.48201 0.71479 0.0
H103 H 0.1708 0.43504 0.77353 0.0
H104 H 0.28055 0.29074 0.60768 0.0
H105 H 0.96848 0.2728 0.63777 0.0
H106 H 0.36225 0.41968 0.65941 0.0
H107 H 0.11617 0.18077 0.49527 0.0
H108 H 0.02955 0.30343 0.62174 0.0
H109 H 0.09028 0.09884 0.45812 0.0
H110 H 0.29791 0.50762 0.75927 0.0
H111 H 0.94921 0.18995 0.61424 0.0
H112 H 0.96047 0.1115 0.57247 0.0
H113 H 0.23297 0.49029 0.78147 0.0
H114 H 0.99441 0.06331 0.52309 0.0
N115 N 0.04724 0.23864 0.59054 0.0
C116 C 0.02236 0.26719 0.61136 0.0
C117 C 0.97653 0.20318 0.60725 0.0
C118 C 0.99969 0.17403 0.58348 0.0
C119 C 0.9872 0.24994 0.62044 0.0
C120 C 0.03508 0.19306 0.57533 0.0
H121 H 0.04127 0.05866 0.47891 0.0
N122 N 0.08504 0.18647 0.53845 0.0
C123 C 0.08046 0.11712 0.48368 0.0
C124 C 0.05461 0.16592 0.54812 0.0
C125 C 0.09505 0.16357 0.50485 0.0
C126 C 0.05301 0.09453 0.49561 0.0
C127 C 0.03862 0.11917 0.52758 0.0
O128 O 0.09872 0.25911 0.52249 0.0
O129 O 0.17748 0.28506 0.59472 0.0
O130 O 0.17167 0.35942 0.65111 0.0
O131 O 0.10015 0.32711 0.61993 0.0
O132 O 0.14511 0.31039 0.5632 0.0
O133 O 0.05296 0.2871 0.55588 0.0
O134 O 0.21005 0.29267 0.70066 0.0
O135 O 0.12935 0.27913 0.6336 0.0
O136 O 0.14782 0.20691 0.56887 0.0
O137 O 0.21691 0.24279 0.60662 0.0
O138 O 0.16459 0.24919 0.66093 0.0
O139 O 0.25834 0.27708 0.66737 0.0
C140 C 0.18387 0.31002 0.57938 0.0
C141 C 0.02444 0.24585 0.4913 0.0
C142 C 0.98534 0.22253 0.42732 0.0
C143 C 0.0211 0.24788 0.45735 0.0
C144 C 0.95386 0.19435 0.43153 0.0
C145 C 0.99225 0.21755 0.49458 0.0
C146 C 0.95746 0.19182 0.46482 0.0
C147 C 0.13061 0.36291 0.63923 0.0
C148 C 0.06105 0.27353 0.52326 0.0
C149 C 0.00634 0.09936 0.53795 0.0
C150 C 0.98695 0.1268 0.566 0.0
C151 C 0.12584 0.25027 0.64591 0.0
C152 C 0.28356 0.30174 0.73217 0.0
C153 C 0.28158 0.29036 0.76131 0.0
C154 C 0.3152 0.30861 0.79386 0.0
C155 C 0.35071 0.33866 0.79655 0.0
C156 C 0.31925 0.33194 0.73585 0.0
C157 C 0.35248 0.35032 0.7679 0.0
C158 C 0.19022 0.20647 0.58077 0.0
C159 C 0.24864 0.28069 0.69798 0.0
H160 H 0.04561 0.26983 0.4546 0.0
H161 H 0.92643 0.17399 0.40888 0.0
H162 H 0.99369 0.21551 0.52022 0.0
H163 H 0.93296 0.17002 0.46767 0.0
H164 H 0.25371 0.26741 0.75852 0.0
H165 H 0.37774 0.35267 0.82054 0.0
H166 H 0.32183 0.34096 0.71386 0.0
H167 H 0.38007 0.37334 0.7704 0.0
Tb168 Tb 0.82557 0.1043 0.98017 0.0
C169 C 0.88709 0.92942 0.96502 0.0
C170 C 0.83867 0.87364 0.90834 0.0
C171 C 0.91328 0.86145 0.92573 0.0
C172 C 0.84635 0.91516 0.94055 0.0
C173 C 0.9203 0.9017 0.95852 0.0
C174 C 0.87265 0.84759 0.90061 0.0
C175 C 0.96308 0.95243 0.01932 0.0
N176 N 0.89309 0.96868 0.99644 0.0
C177 C 0.92943 0.97896 0.02452 0.0
C178 C 0.95893 0.91419 0.98587 0.0
Tb179 Tb 0.83466 0.00822 1.0014 0.0
N180 N 0.81381 0.94078 0.94904 0.0
C181 C 0.77215 0.92494 0.92753 0.0
C182 C 0.79676 0.85886 0.88525 0.0
C183 C 0.76327 0.88428 0.89519 0.0
H184 H 0.93338 0.00909 0.05027 0.0
H185 H 0.73048 0.87255 0.87792 0.0
H186 H 0.8674 0.81589 0.87582 0.0
H187 H 0.99234 0.96171 0.04102 0.0
H188 H 0.74534 0.94338 0.93433 0.0
H189 H 0.90807 0.24967 0.10594 0.0
H190 H 0.78965 0.82728 0.86022 0.0
H191 H 0.72869 0.08753 0.92338 0.0
H192 H 0.90187 0.17588 0.0523 0.0
H193 H 0.66371 0.12572 0.92273 0.0
H194 H 0.93865 0.8401 0.92004 0.0
H195 H 0.8441 0.29064 0.11347 0.0
H196 H 0.76608 0.2946 0.08766 0.0
H197 H 0.98509 0.8937 0.98191 0.0
H198 H 0.69965 0.26108 0.03746 0.0
N199 N 0.83451 0.17347 0.03036 0.0
C200 C 0.87356 0.19298 0.05535 0.0
C201 C 0.84111 0.25798 0.08999 0.0
C202 C 0.80191 0.23909 0.06319 0.0
C203 C 0.87728 0.23501 0.0858 0.0
C204 C 0.79982 0.19641 0.03329 0.0
H205 H 0.6613 0.19824 0.97562 0.0
N206 N 0.76307 0.13712 0.97677 0.0
C207 C 0.69131 0.14065 0.94624 0.0
C208 C 0.76281 0.17781 1.00526 0.0
C209 C 0.72841 0.11905 0.94676 0.0
C210 C 0.69005 0.18157 0.97614 0.0
C211 C 0.72629 0.20094 1.006 0.0
O212 O 0.82735 0.10204 0.92851 0.0
O213 O 0.83016 0.03329 0.9611 0.0
O214 O 0.89835 0.02899 0.99422 0.0
O215 O 0.89479 0.1019 0.99898 0.0
O216 O 0.79155 0.05027 0.92569 0.0
O217 O 0.87091 0.15171 0.9775 0.0
O218 O 0.85485 0.00794 0.05297 0.0
O219 O 0.84806 0.08199 0.02249 0.0
O220 O 0.76725 0.09078 0.99778 0.0
O221 O 0.76628 0.01415 0.9834 0.0
O222 O 0.82008 0.05781 0.05195 0.0
O223 O 0.79857 0.96163 1.01205 0.0
C224 C 0.80741 0.01655 0.92872 0.0
C225 C 0.85178 0.17031 0.92756 0.0
C226 C 0.86987 0.20361 0.88771 0.0
C227 C 0.87597 0.17205 0.90251 0.0
C228 C 0.83875 0.23299 0.89839 0.0
C229 C 0.82136 0.20023 0.93786 0.0
C230 C 0.8149 0.23132 0.92328 0.0
C231 C 0.91638 0.06747 0.996 0.0
C232 C 0.85808 0.13649 0.94205 0.0
C233 C 0.72747 0.24285 0.03622 0.0
C234 C 0.76525 0.2619 0.06481 0.0
C235 C 0.83583 0.09454 0.0523 0.0
C236 C 0.84065 0.93651 0.05276 0.0
C237 C 0.84962 0.94225 0.08944 0.0
C238 C 0.86554 0.90784 0.09815 0.0
C239 C 0.8726 0.86787 0.06961 0.0
C240 C 0.84692 0.89572 0.0248 0.0
C241 C 0.86321 0.8619 0.03328 0.0
C242 C 0.74793 0.0516 0.99363 0.0
C243 C 0.82521 0.97341 0.04423 0.0
H244 H 0.89981 0.14916 0.89493 0.0
H245 H 0.83232 0.25701 0.88714 0.0
H246 H 0.80251 0.19946 0.95702 0.0
H247 H 0.79111 0.25412 0.93116 0.0
H248 H 0.84447 0.9735 0.11114 0.0
H249 H 0.88433 0.8406 0.07525 0.0
H250 H 0.83907 0.88975 0.99636 0.0
H251 H 0.86815 0.83068 1.01151 0.0
Tb252 Tb 0.00231 0.81697 0.55838 0.0
C253 C 0.1917 0.83263 0.61352 0.0
C254 C 0.21518 0.77112 0.62641 0.0
C255 C 0.26183 0.80865 0.60346 0.0
C256 C 0.18379 0.79956 0.62451 0.0
C257 C 0.23135 0.83848 0.60375 0.0
C258 C 0.25379 0.77503 0.61487 0.0
C259 C 0.21024 0.9061 0.60006 0.0
N260 N 0.16194 0.86138 0.61531 0.0
C261 C 0.17161 0.89911 0.61037 0.0
C262 C 0.23993 0.87523 0.59613 0.0
Tb263 Tb 0.09893 0.84662 0.63148 0.0
N264 N 0.14628 0.79728 0.63562 0.0
C265 C 0.14006 0.77007 0.65241 0.0
C266 C 0.20752 0.74095 0.64119 0.0
C267 C 0.17014 0.74102 0.65486 0.0
H268 H 0.14927 0.92352 0.61338 0.0
H269 H 0.16439 0.71864 0.66719 0.0
H270 H 0.27817 0.7532 0.61573 0.0
H271 H 0.21713 0.93527 0.59515 0.0
H272 H 0.11127 0.76979 0.66304 0.0
H273 H 0.8678 0.86372 0.62495 0.0
H274 H 0.23083 0.71853 0.6432 0.0
H275 H 0.00706 0.72327 0.48392 0.0
H276 H 0.9354 0.87765 0.60734 0.0
H277 H 0.96828 0.64525 0.44907 0.0
H278 H 0.29232 0.8123 0.5957 0.0
H279 H 0.82912 0.7855 0.59975 0.0
H280 H 0.82298 0.70284 0.55587 0.0
H281 H 0.26993 0.8809 0.58839 0.0
H282 H 0.85015 0.64313 0.50736 0.0
N283 N 0.9373 0.8077 0.57409 0.0
C284 C 0.91952 0.8432 0.59639 0.0
C285 C 0.85919 0.79136 0.59218 0.0
C286 C 0.87556 0.75557 0.56704 0.0
C287 C 0.88085 0.83552 0.60635 0.0
C288 C 0.91493 0.76514 0.5583 0.0
H289 H 0.90403 0.62149 0.46685 0.0
N290 N 0.96657 0.74382 0.52258 0.0
C291 C 0.95732 0.6692 0.47233 0.0
C292 C 0.92988 0.73192 0.53117 0.0
C293 C 0.97929 0.71368 0.4923 0.0
C294 C 0.92111 0.65589 0.48247 0.0
C295 C 0.90642 0.68765 0.51179 0.0
O296 O 0.00147 0.82116 0.50842 0.0
O297 O 0.07192 0.84339 0.57805 0.0
O298 O 0.08104 0.9072 0.62616 0.0
O299 O 0.00721 0.88861 0.59797 0.0
O300 O 0.05098 0.79457 0.52554 0.0
O301 O 0.95762 0.85365 0.54157 0.0
O302 O 0.13283 0.90957 0.6729 0.0
O303 O 0.02839 0.84035 0.61649 0.0
O304 O 0.0177 0.75648 0.5654 0.0
O305 O 0.09277 0.77508 0.59225 0.0
O306 O 0.05397 0.81414 0.651 0.0
O307 O 0.10393 0.86151 0.68747 0.0
C308 C 0.08492 0.82107 0.5491 0.0
C309 C 0.93332 0.828 0.47739 0.0
C310 C 0.89978 0.83145 0.42011 0.0
C311 C 0.93458 0.84507 0.45139 0.0
C312 C 0.86417 0.80003 0.41507 0.0
C313 C 0.89754 0.79652 0.47157 0.0
C314 C 0.86324 0.78262 0.44053 0.0
C315 C 0.04283 0.91889 0.61634 0.0
C316 C 0.96898 0.84397 0.51076 0.0
C317 C 0.86845 0.67707 0.52163 0.0
C318 C 0.85303 0.71103 0.54928 0.0
C319 C 0.01794 0.8212 0.63522 0.0
C320 C 0.17185 0.90436 0.72591 0.0
C321 C 0.17182 0.90592 0.76076 0.0
C322 C 0.21157 0.91011 0.78549 0.0
C323 C 0.25108 0.91341 0.7748 0.0
C324 C 0.21196 0.90715 0.71615 0.0
C325 C 0.25114 0.91175 0.74048 0.0
C326 C 0.0565 0.74538 0.57458 0.0
C327 C 0.13025 0.89906 0.69957 0.0
H328 H 0.96211 0.86956 0.45591 0.0
H329 H 0.83719 0.7885 0.39114 0.0
H330 H 0.89593 0.78296 0.49114 0.0
H331 H 0.83572 0.75834 0.43624 0.0
H332 H 0.14099 0.90317 0.76826 0.0
H333 H 0.28226 0.91786 0.79322 0.0
H334 H 0.21325 0.90596 0.68972 0.0
H335 H 0.28183 0.91422 0.73272 0.0
C336 C 0.98555 0.11942 0.03118 0.0
C337 C 0.96415 0.07609 1.00525 0.0
C338 C 0.02632 0.12382 0.05341 0.0
C339 C 0.11065 0.0599 0.07642 0.0
H340 H 0.08066 0.11332 0.17171 0.0
C341 C 0.2094 0.0318 0.18854 0.0
C342 C 0.23324 0.07402 0.21439 0.0
C343 C 0.16909 0.03014 0.16695 0.0
C344 C 0.08917 0.09818 0.14523 0.0
H345 H 0.97207 1.00584 0.97515 0.0
H346 H 0.04295 0.01319 0.01427 0.0
H347 H 0.03733 0.12205 0.12005 0.0
H348 H 0.23015 0.14561 0.24475 0.0
H349 H 0.15965 0.14277 0.20712 0.0
H350 H 0.16227 0.03574 0.1016 0.0
C351 C 0.02825 0.04356 0.01845 0.0
C352 C 0.06509 0.10388 0.11589 0.0
C353 C 0.98752 0.03922 0.99621 0.0
C354 C 0.21259 0.11288 0.22406 0.0
C355 C 0.17219 0.11121 0.20259 0.0
C356 C 0.13463 0.05412 0.10573 0.0
C357 C 0.04563 0.08498 0.04939 0.0
C358 C 0.0756 0.08468 0.08123 0.0
C359 C 0.15263 0.07061 0.17164 0.0
C360 C 0.12379 0.07285 0.14023 0.0
H361 H 0.96873 0.14877 0.03781 0.0
H362 H 0.04007 0.15645 0.07643 0.0
H363 H 0.11921 0.0447 0.04996 0.0
H364 H 0.22425 1.00111 0.18127 0.0
H365 H 0.15362 0.99823 0.14376 0.0
C366 C 0.08115 0.99516 0.63662 0.0
C367 C 0.04481 0.9622 0.61415 0.0
C368 C 0.104 0.01695 0.62127 0.0
C369 C 0.10853 0.02447 0.53453 0.0
H370 H 0.23017 0.01485 0.56582 0.0
C371 C 0.19734 0.13859 0.52461 0.0
C372 C 0.20931 0.16531 0.56286 0.0
C373 C 0.20328 0.09306 0.50996 0.0
C374 C 0.19627 0.01695 0.5562 0.0
H375 H 0.99523 0.93788 0.56326 0.0
H376 H 0.03513 0.9748 0.53612 0.0
H377 H 0.17569 0.99447 0.59308 0.0
H378 H 0.24834 0.17043 0.61399 0.0
H379 H 0.25599 0.09098 0.58895 0.0
H380 H 0.12843 0.04795 0.49853 0.0
C381 C 0.04779 0.98237 0.56468 0.0
C382 C 0.16522 0.00646 0.57256 0.0
C383 C 0.02461 0.9613 0.58041 0.0
C384 C 0.23607 0.14937 0.5847 0.0
C385 C 0.24099 0.10364 0.5699 0.0
C386 C 0.13963 0.03527 0.51842 0.0
C387 C 0.08995 0.0062 0.58376 0.0
C388 C 0.12159 0.01324 0.56368 0.0
C389 C 0.21599 0.07395 0.53436 0.0
C390 C 0.18464 0.03697 0.53236 0.0
H391 H 0.09625 0.99793 0.66351 0.0
H392 H 0.13517 0.03776 0.6374 0.0
H393 H 0.07485 0.02798 0.52585 0.0
H394 H 0.18052 0.15146 0.50646 0.0
H395 H 0.18839 0.07147 0.48118 0.0
C396 C 0.68977 0.01233 1.00858 0.0
C397 C 0.70818 0.05173 1.0079 0.0
C398 C 0.65916 0.01471 0.0296 0.0
C399 C 0.58632 0.0884 0.08166 0.0
H400 H 0.61147 0.02633 0.1433 0.0
C401 C 0.50448 0.12275 0.20203 0.0
C402 C 0.48571 0.08395 0.20338 0.0
C403 C 0.53369 0.11909 0.17963 0.0
C404 C 0.60386 0.04359 0.1261 0.0
H405 H 0.70604 0.12386 0.02644 0.0
H406 H 0.6529 0.12792 0.06296 0.0
H407 H 0.65339 0.01711 0.09717 0.0
H408 H 0.48562 0.01145 0.18437 0.0
H409 H 0.53662 1.00524 0.14558 0.0
H410 H 0.53695 0.11507 0.11078 0.0
C411 C 0.66208 0.09517 0.0473 0.0
C412 C 0.62766 0.0381 0.09952 0.0
C413 C 0.69267 0.09281 0.02629 0.0
C414 C 0.49935 0.04205 0.18402 0.0
C415 C 0.52865 0.03844 0.16171 0.0
C416 C 0.56257 0.09393 0.10828 0.0
C417 C 0.64624 0.05649 0.05027 0.0
C418 C 0.61919 0.06049 0.07703 0.0
C419 C 0.54493 0.07665 0.15831 0.0
C420 C 0.57118 0.0717 0.13087 0.0
H421 H 0.70065 0.98001 0.99451 0.0
H422 H 0.64674 0.9841 0.03068 0.0
H423 H 0.57874 0.10573 0.06453 0.0
H424 H 0.49505 0.15565 0.21681 0.0
H425 H 0.54652 0.14931 0.17817 0.0
C426 C 0.07623 0.41253 0.63134 0.0
C427 C 0.11987 0.40718 0.64208 0.0
C428 C 0.06673 0.44989 0.62501 0.0
C429 C 0.11406 0.52114 0.59088 0.0
H430 H 0.02723 0.59868 0.62417 0.0
C431 C 0.09931 0.68285 0.57146 0.0
C432 C 0.05881 0.69867 0.56978 0.0
C433 C 0.10383 0.64364 0.57612 0.0
C434 C 0.05091 0.57667 0.61395 0.0
H435 H 0.18755 0.43864 0.65762 0.0
H436 H 0.17076 0.50359 0.64627 0.0
H437 H 0.04151 0.54115 0.64589 0.0
H438 H 0.99008 0.68312 0.56714 0.0
H439 H 0.99748 0.61331 0.57343 0.0
H440 H 0.12298 0.5555 0.55828 0.0
C441 C 0.14408 0.47867 0.64251 0.0
C442 C 0.05935 0.54414 0.62675 0.0
C443 C 0.15358 0.44168 0.6493 0.0
C444 C 0.02187 0.672 0.56878 0.0
C445 C 0.02624 0.63236 0.57294 0.0
C446 C 0.1052 0.55313 0.57764 0.0
C447 C 0.10074 0.48212 0.629 0.0
C448 C 0.09145 0.51664 0.61574 0.0
C449 C 0.06765 0.61888 0.57835 0.0
C450 C 0.07395 0.58174 0.5894 0.0
H451 H 0.04954 0.38661 0.62573 0.0
H452 H 0.03303 0.45199 0.6147 0.0
H453 H 0.13832 0.49953 0.58138 0.0
H454 H 0.12814 0.70225 0.57141 0.0
H455 H 0.13627 0.63447 0.58022 0.0
C456 C 0.21689 0.25815 0.53086 0.0
C457 C 0.21655 0.30252 0.55685 0.0
C458 C 0.24231 0.24934 0.50525 0.0
C459 C 0.33183 0.2893 0.47671 0.0
H460 H 0.2624 0.20389 0.38066 0.0
C461 C 0.40487 0.17851 0.35342 0.0
C462 C 0.37851 0.16231 0.31764 0.0
C463 C 0.3896 0.20682 0.38409 0.0
C464 C 0.28239 0.2286 0.40688 0.0
H465 H 0.24118 0.37325 0.57546 0.0
H466 H 0.2859 0.3579 0.52927 0.0
H467 H 0.22852 0.23323 0.43212 0.0
H468 H 0.31566 0.16404 0.28658 0.0
H469 H 0.29134 0.21646 0.33844 0.0
H470 H 0.38595 0.28433 0.45092 0.0
C471 C 0.26752 0.32976 0.5301 0.0
C472 C 0.26289 0.24495 0.43665 0.0
C473 C 0.24198 0.33854 0.55633 0.0
C474 C 0.33759 0.17668 0.31322 0.0
C475 C 0.32312 0.20623 0.34343 0.0
C476 C 0.35154 0.27306 0.44653 0.0
C477 C 0.26688 0.28497 0.50372 0.0
C478 C 0.28753 0.27429 0.47207 0.0
C479 C 0.34778 0.21983 0.37945 0.0
C480 C 0.32714 0.24176 0.4113 0.0
H481 H 0.19517 0.23029 0.52862 0.0
H482 H 0.24103 0.21448 0.48533 0.0
H483 H 0.35152 0.31198 0.50378 0.0
H484 H 0.43632 0.16736 0.35779 0.0
H485 H 0.40949 0.21617 0.41134 0.0
C486 C 0.07904 0.19943 0.6599 0.0
C487 C 0.09064 0.24283 0.66287 0.0
C488 C 0.05171 0.19287 0.68098 0.0
C489 C 0.97643 0.24933 0.74145 0.0
H490 H 0.00601 0.16503 0.78234 0.0
C491 C 0.90917 0.24833 0.86244 0.0
C492 C 0.8954 0.20616 0.86119 0.0
C493 C 0.93125 0.25098 0.83676 0.0
C494 C 0.99692 0.18832 0.77085 0.0
H495 H 0.08413 0.31374 0.69113 0.0
H496 H 0.03702 0.30279 0.72849 0.0
H497 H 0.04605 0.17281 0.73962 0.0
H498 H 0.89484 0.13359 0.83161 0.0
H499 H 0.93397 0.13832 0.78713 0.0
H500 H 0.92787 0.26544 0.77334 0.0
C501 C 0.04759 0.27332 0.70892 0.0
C502 C 0.01985 0.19274 0.74617 0.0
C503 C 0.07468 0.27974 0.68759 0.0
C504 C 0.90529 0.16672 0.83383 0.0
C505 C 0.92766 0.16942 0.80819 0.0
C506 C 0.95368 0.24508 0.76627 0.0
C507 C 0.03621 0.22985 0.70636 0.0
C508 C 0.01018 0.22356 0.73128 0.0
C509 C 0.94059 0.21159 0.80911 0.0
C510 C 0.96382 0.21478 0.78156 0.0
H511 H 0.09179 0.1706 0.64163 0.0
H512 H 0.04328 0.15883 0.67774 0.0
H513 H 0.9674 0.27279 0.73013 0.0
H514 H 0.90315 0.27959 0.88352 0.0
H515 H 0.9415 0.28412 0.83887 0.0
C516 C 0.86232 0.86423 0.37931 0.0
C517 C 0.89997 0.84951 0.3925 0.0
C518 C 0.86071 0.87756 0.35111 0.0
C519 C 0.92953 0.90753 0.29713 0.0
H520 H 0.8192 0.87178 0.2249 0.0
C521 C 0.91094 0.89861 0.15113 0.0
C522 C 0.87334 0.91213 0.13639 0.0
C523 C 0.91599 0.89738 0.18519 0.0
C524 C 0.8501 0.88263 0.24506 0.0
H525 H 0.96596 0.83838 0.38701 0.0
H526 H 0.96296 0.86049 0.33708 0.0
H527 H 0.8248 0.85696 0.27838 0.0
H528 H 0.81224 0.9364 0.14658 0.0
H529 H 0.82098 0.9342 0.20608 0.0
H530 H 0.95498 0.93174 0.2627 0.0
C531 C 0.9348 0.86263 0.34897 0.0
C532 C 0.85337 0.87422 0.27593 0.0
C533 C 0.93656 0.8498 0.37758 0.0
C534 C 0.84167 0.92604 0.15722 0.0
C535 C 0.8465 0.92434 0.19114 0.0
C536 C 0.92633 0.91556 0.26598 0.0
C537 C 0.89653 0.87599 0.33486 0.0
C538 C 0.89314 0.88641 0.30246 0.0
C539 C 0.88336 0.90921 0.20524 0.0
C540 C 0.88657 0.90308 0.23948 0.0
H541 H 0.83383 0.86514 0.39068 0.0
H542 H 0.83109 0.88881 0.3419 0.0
H543 H 0.96054 0.91811 0.3171 0.0
H544 H 0.93614 0.88805 0.13592 0.0
H545 H 0.94468 0.88536 0.19508 0.0
C546 C 0.18595 0.93646 0.84506 0.0
C547 C 0.213 0.9116 0.82254 0.0
C548 C 0.19137 0.94182 0.88139 0.0
C549 C 0.24958 0.89959 0.94737 0.0
H550 H 0.24149 0.01895 0.02125 0.0
C551 C 0.34781 0.98037 0.09896 0.0
C552 C 0.32821 0.00885 0.1265 0.0
C553 C 0.32481 0.95951 0.06201 0.0
C554 C 0.2432 0.98513 1.00098 0.0
H555 H 0.26497 0.87029 0.82014 0.0
H556 H 0.27559 0.88105 0.88308 0.0
H557 H 0.21798 1.00067 0.9563 0.0
H558 H 0.26875 0.03666 0.13733 0.0
H559 H 0.22849 1.00043 0.07273 0.0
H560 H 0.27726 0.88527 0.99246 0.0
C561 C 0.24974 0.89614 0.87299 0.0
C562 C 0.22958 0.97452 0.96353 0.0
C563 C 0.24409 0.89052 0.83679 0.0
C564 C 0.28427 0.01397 0.11674 0.0
C565 C 0.26147 0.99376 0.07969 0.0
C566 C 0.26377 0.91047 0.98482 0.0
C567 C 0.22405 0.92254 0.8962 0.0
C568 C 0.23345 0.9319 0.93606 0.0
C569 C 0.28205 0.96767 0.05174 0.0
C570 C 0.26152 0.95366 1.01211 0.0
H571 H 0.16167 0.95322 0.83515 0.0
H572 H 0.17031 0.96171 0.898 0.0
H573 H 0.25208 0.86598 0.92728 0.0
H574 H 0.38194 0.9768 0.10573 0.0
H575 H 0.34176 0.93991 0.04123 0.0
C576 C 0.86437 0.97339 0.90038 0.0
C577 C 0.82102 0.98214 0.89685 0.0
C578 C 0.87985 0.9477 0.86949 0.0
C579 C 0.85092 0.87462 0.76869 0.0
H580 H 0.96368 0.93476 0.77537 0.0
C581 C 0.98037 0.88042 0.67483 0.0
C582 C 0.98415 0.83435 0.65636 0.0
C583 C 0.95418 0.89463 0.70019 0.0
C584 C 0.93199 0.91772 0.7728 0.0
H585 H 0.75961 0.97033 0.85804 0.0
H586 H 0.78718 0.92631 0.80334 0.0
H587 H 0.93013 0.9638 0.82743 0.0
H588 H 0.96414 0.76692 0.64977 0.0
H589 H 0.91846 0.7919 0.69496 0.0
H590 H 0.853 0.82891 0.71335 0.0
C591 C 0.80876 0.93818 0.83034 0.0
C592 C 0.91302 0.93396 0.80294 0.0
C593 C 0.79303 0.9635 0.86157 0.0
C594 C 0.96084 0.80253 0.66325 0.0
C595 C 0.93469 0.81682 0.68894 0.0
C596 C 0.87012 0.85816 0.73829 0.0
C597 C 0.85285 0.93144 0.834 0.0
C598 C 0.87238 0.91262 0.80142 0.0
C599 C 0.93219 0.86325 0.70848 0.0
C600 C 0.91079 0.87983 0.74003 0.0
H601 H 0.88717 0.98791 0.9268 0.0
H602 H 0.91376 0.9424 0.87336 0.0
H603 H 0.81958 0.85746 0.76673 0.0
H604 H 0.99888 0.9057 0.6706 0.0
H605 H 0.95245 0.93054 0.71436 0.0
C606 C 0.29361 0.88476 0.35042 0.0
C607 C 0.30104 0.928 0.35147 0.0
C608 C 0.27204 0.878 0.37485 0.0
C609 C 0.19353 0.91958 0.43187 0.0
H610 H 0.24849 0.85516 0.48439 0.0
C611 C 0.11067 0.88078 0.53221 0.0
C612 C 0.11633 0.84022 0.5349 0.0
C613 C 0.13485 0.8952 0.51276 0.0
C614 C 0.23209 0.8725 0.4696 0.0
H615 H 0.28935 0.99769 0.37876 0.0
H616 H 0.24994 0.98521 0.42052 0.0
H617 H 0.28551 0.87276 0.44411 0.0
H618 H 0.15066 0.78219 0.51855 0.0
H619 H 0.19363 0.80737 0.48518 0.0
H620 H 0.13916 0.91759 0.4556 0.0
C621 C 0.2618 0.95682 0.40092 0.0
C622 C 0.25364 0.88294 0.44666 0.0
C623 C 0.28418 0.96386 0.37678 0.0
C624 C 0.14673 0.81435 0.51784 0.0
C625 C 0.1714 0.82902 0.49873 0.0
C626 C 0.17149 0.90836 0.45427 0.0
C627 C 0.25626 0.91395 0.40068 0.0
C628 C 0.23444 0.90611 0.42716 0.0
C629 C 0.16563 0.86961 0.49555 0.0
C630 C 0.19015 0.88405 0.47319 0.0
H631 H 0.30461 0.8558 0.33069 0.0
H632 H 0.26745 0.84434 0.37336 0.0
H633 H 0.17776 0.93729 0.4171 0.0
H634 H 0.08629 0.90045 0.54404 0.0
H635 H 0.1287 0.92607 0.51071 0.0
C636 C 0.29711 0.25201 0.81794 0.0
C637 C 0.31408 0.29614 0.82478 0.0
C638 C 0.2985 0.24005 0.847 0.0
C639 C 0.36056 0.27124 0.94127 0.0
H640 H 0.25989 0.20805 0.95101 0.0
C641 C 0.37214 0.21309 0.05658 0.0
C642 C 0.34067 0.2271 0.07759 0.0
C643 C 0.36737 0.21543 0.0229 0.0
C644 C 0.28833 0.22554 0.94856 0.0
H645 H 0.34384 0.3627 0.86834 0.0
H646 H 0.3474 0.34139 0.91843 0.0
H647 H 0.25425 0.22535 0.89815 0.0
H648 H 0.27832 0.252 0.07875 0.0
H649 H 0.26958 0.25527 0.01973 0.0
H650 H 0.3946 0.27182 0.99167 0.0
C651 C 0.33346 0.31594 0.8905 0.0
C652 C 0.28515 0.23523 0.91821 0.0
C653 C 0.33154 0.32807 0.86163 0.0
C654 C 0.3032 0.24113 0.06323 0.0
C655 C 0.2981 0.24281 0.02934 0.0
C656 C 0.36392 0.26094 0.97124 0.0
C657 C 0.31737 0.2717 0.88357 0.0
C658 C 0.32107 0.25884 0.91453 0.0
C659 C 0.33066 0.23113 1.0092 0.0
C660 C 0.32772 0.23849 0.97555 0.0
H661 H 0.28384 0.22623 0.79006 0.0
H662 H 0.28597 0.20563 0.84075 0.0
H663 H 0.38894 0.28909 0.93907 0.0
H664 H 0.40146 0.2024 0.06703 0.0
H665 H 0.39285 0.2058 1.00788 0.0
C666 C 0.83778 0.1526 0.11535 0.0
C667 C 0.86069 0.12948 0.08852 0.0
C668 C 0.85919 0.17466 0.15266 0.0
C669 C 0.95369 0.16451 0.21564 0.0
H670 H 0.91558 0.26675 0.28882 0.0
C671 C 0.01339 0.21847 0.37258 0.0
C672 C 0.97962 0.2251 0.39151 0.0
C673 C 0.00558 0.21522 0.33677 0.0
C674 C 0.92662 0.23811 0.26876 0.0
H675 H 0.92423 0.11219 0.0794 0.0
H676 H 0.96216 0.15188 0.14444 0.0
H677 H 0.89071 0.24797 0.22371 0.0
H678 H 0.91198 0.23594 0.38849 0.0
H679 H 0.89845 0.23054 0.32658 0.0
H680 H 0.98873 0.15404 0.2607 0.0
C681 C 0.92752 0.15291 0.13682 0.0
C682 C 0.91231 0.22729 0.23135 0.0
C683 C 0.90601 0.13086 0.09945 0.0
C684 C 0.93861 0.23052 0.37455 0.0
C685 C 0.93096 0.22777 0.3391 0.0
C686 C 0.96815 0.17546 0.2531 0.0
C687 C 0.90406 0.17363 0.1641 0.0
C688 C 0.92464 0.18956 0.20413 0.0
C689 C 0.96402 0.21921 0.31937 0.0
C690 C 0.95384 0.21165 0.2801 0.0
H691 H 0.80264 0.151 0.10766 0.0
H692 H 0.83976 0.18965 0.17264 0.0
H693 H 0.96355 0.13486 0.19565 0.0
H694 H 0.04527 0.21396 0.38486 0.0
H695 H 0.0319 0.20896 0.32251 0.0
loop_
_geom_bond_atom_site_label_1
_geom_bond_atom_site_label_2
_geom_bond_distance
_geom_bond_site_symmetry_2
_ccdc_geom_bond_type
Tb0 N31 2.660 . S
Tb0 N38 2.600 . S
Tb0 O44 2.546 . S
Tb0 O45 2.610 1_545 S
Tb0 O47 2.320 . S
Tb0 O48 2.552 . S
Tb0 O49 2.413 . S
Tb0 O51 2.362 . S
Tb0 O52 2.421 . S
Tb0 C64 2.833 . S
C1 C4 1.432 . S
C1 C5 1.414 . S
C1 N8 1.359 . S
C2 C4 1.417 . S
C2 C6 1.432 . S
C2 C14 1.410 . S
C3 C5 1.444 . S
C3 C6 1.317 . S
C3 H26 0.929 . S
C4 C1 1.432 . S
C4 C2 1.417 . S
C4 N12 1.360 . S
C5 C1 1.414 . S
C5 C3 1.444 . S
C5 C10 1.385 . S
C6 C2 1.432 . S
C6 C3 1.317 . S
C6 H18 0.931 1_554 S
C7 C9 1.392 . S
C7 C10 1.370 . S
C7 H19 0.931 . S
N8 C1 1.359 . S
N8 C9 1.327 . S
N8 Tb11 2.600 . S
C9 C7 1.392 . S
C9 N8 1.327 . S
C9 H16 0.930 . S
C10 C5 1.385 . S
C10 C7 1.370 . S
C10 H29 0.930 . S
Tb11 N8 2.600 . S
Tb11 N12 2.660 . S
Tb11 O45 2.362 . S
Tb11 O46 2.421 . S
Tb11 O50 2.546 . S
Tb11 O51 2.610 1_565 S
Tb11 O53 2.320 . S
Tb11 O54 2.552 1_565 S
Tb11 O55 2.413 . S
Tb11 C75 2.833 . S
N12 C4 1.360 . S
N12 Tb11 2.660 . S
N12 C13 1.305 . S
C13 N12 1.305 . S
C13 C15 1.407 . S
C13 H20 0.930 . S
C14 C2 1.410 . S
C14 C15 1.345 . S
C14 H22 0.930 . S
C15 C13 1.407 . S
C15 C14 1.345 . S
C15 H17 0.930 . S
H16 C9 0.930 . S
H17 C15 0.930 . S
H18 C6 0.931 1_556 S
H19 C7 0.931 . S
H20 C13 0.930 . S
H21 C35 0.930 . S
H22 C14 0.930 . S
H23 C41 0.930 . S
H24 C32 0.930 . S
H25 C39 0.931 . S
H26 C3 0.929 . S
H27 C33 0.930 . S
H28 C66 0.930 . S
H29 C10 0.930 . S
H30 C65 0.929 . S
N31 Tb0 2.660 . S
N31 C32 1.305 . S
N31 C36 1.360 . S
C32 H24 0.930 . S
C32 N31 1.305 . S
C32 C35 1.407 . S
C33 H27 0.930 . S
C33 C34 1.410 . S
C33 C35 1.345 . S
C34 C33 1.410 . S
C34 C36 1.417 . S
C34 C66 1.432 . S
C35 H21 0.930 . S
C35 C32 1.407 . S
C35 C33 1.345 . S
C36 N31 1.360 . S
C36 C34 1.417 . S
C36 C40 1.432 . S
H37 C42 0.930 . S
N38 Tb0 2.600 . S
N38 C40 1.359 . S
N38 C41 1.327 . S
C39 H25 0.931 . S
C39 C41 1.392 . S
C39 C42 1.370 . S
C40 C36 1.432 . S
C40 N38 1.359 . S
C40 C43 1.414 . S
C41 H23 0.930 . S
C41 N38 1.327 . S
C41 C39 1.392 . S
C42 H37 0.930 . S
C42 C39 1.370 . S
C42 C43 1.385 . S
C43 C40 1.414 . S
C43 C42 1.385 . S
C43 C65 1.444 . S
O44 Tb0 2.546 . S
O44 C64 1.251 . S
O45 Tb0 2.610 1_565 S
O45 Tb11 2.362 . S
O45 C56 1.283 . S
O46 Tb11 2.421 . S
O46 C63 1.262 1_565 S
O47 Tb0 2.320 . S
O47 C63 1.260 . S
O48 Tb0 2.552 . S
O48 C56 1.243 1_545 S
O49 Tb0 2.413 . S
O49 C64 1.256 . S
O50 Tb11 2.546 . S
O50 C75 1.251 . S
O51 Tb0 2.362 . S
O51 Tb11 2.610 1_545 S
O51 C67 1.283 . S
O52 Tb0 2.421 . S
O52 C74 1.262 . S
O53 Tb11 2.320 . S
O53 C74 1.260 1_565 S
O54 Tb11 2.552 1_545 S
O54 C67 1.243 . S
O55 Tb11 2.413 . S
O55 C75 1.256 . S
C56 O45 1.283 . S
C56 O48 1.243 1_565 S
C57 C59 1.382 . S
C57 C61 1.393 . S
C57 C64 1.500 . S
C58 C59 1.400 . S
C58 C60 1.384 . S
C59 C57 1.382 . S
C59 C58 1.400 . S
C59 H76 0.930 . S
C60 C58 1.384 . S
C60 C62 1.392 . S
C60 H77 0.931 . S
C61 C57 1.393 . S
C61 C62 1.401 . S
C61 H78 0.930 . S
C62 C60 1.392 . S
C62 C61 1.401 . S
C62 H79 0.930 . S
C63 O46 1.262 1_545 S
C63 O47 1.260 . S
C64 Tb0 2.833 . S
C64 O44 1.251 . S
C64 O49 1.256 . S
C64 C57 1.500 . S
C65 H30 0.929 . S
C65 C43 1.444 . S
C65 C66 1.317 . S
C66 H28 0.930 . S
C66 C34 1.432 . S
C66 C65 1.317 . S
C67 O51 1.283 . S
C67 O54 1.243 . S
C68 C69 1.382 . S
C68 C72 1.393 . S
C68 C75 1.500 . S
C69 C68 1.382 . S
C69 C70 1.400 . S
C69 H80 0.930 . S
C70 C69 1.400 . S
C70 C71 1.384 . S
C71 C70 1.384 . S
C71 C73 1.392 . S
C71 H81 0.931 . S
C72 C68 1.393 . S
C72 C73 1.401 . S
C72 H82 0.930 . S
C73 C71 1.392 . S
C73 C72 1.401 . S
C73 H83 0.930 . S
C74 O52 1.262 . S
C74 O53 1.260 1_545 S
C75 Tb11 2.833 . S
C75 O50 1.251 . S
C75 O55 1.256 . S
C75 C68 1.500 . S
H76 C59 0.930 . S
H77 C60 0.931 . S
H78 C61 0.930 . S
H79 C62 0.930 . S
H80 C69 0.930 . S
H81 C71 0.931 . S
H82 C72 0.930 . S
H83 C73 0.930 . S
Tb84 N115 2.660 . S
Tb84 N122 2.600 . S
Tb84 O128 2.546 . S
Tb84 O129 2.610 . S
Tb84 O131 2.320 . S
Tb84 O132 2.552 . S
Tb84 O133 2.413 . S
Tb84 O135 2.362 . S
Tb84 O136 2.421 . S
Tb84 C148 2.833 . S
C85 C88 1.432 . S
C85 C89 1.414 . S
C85 N92 1.359 . S
C86 C88 1.417 . S
C86 C90 1.432 . S
C86 C98 1.410 . S
C87 C89 1.444 . S
C87 C90 1.317 . S
C87 H110 0.929 . S
C88 C85 1.432 . S
C88 C86 1.417 . S
C88 N96 1.360 . S
C89 C85 1.414 . S
C89 C87 1.444 . S
C89 C94 1.385 . S
C90 C86 1.432 . S
C90 C87 1.317 . S
C90 H102 0.930 . S
C91 C93 1.392 . S
C91 C94 1.370 . S
C91 H103 0.931 . S
N92 C85 1.359 . S
N92 C93 1.327 . S
N92 Tb95 2.600 . S
C93 C91 1.392 . S
C93 N92 1.327 . S
C93 H100 0.930 . S
C94 C89 1.385 . S
C94 C91 1.370 . S
C94 H113 0.930 . S
Tb95 N92 2.600 . S
Tb95 N96 2.660 . S
Tb95 O129 2.362 . S
Tb95 O130 2.421 . S
Tb95 O134 2.546 . S
Tb95 O135 2.610 . S
Tb95 O137 2.320 . S
Tb95 O138 2.552 . S
Tb95 O139 2.413 . S
Tb95 C159 2.833 . S
N96 C88 1.360 . S
N96 Tb95 2.660 . S
N96 C97 1.305 . S
C97 N96 1.305 . S
C97 C99 1.407 . S
C97 H104 0.930 . S
C98 C86 1.410 . S
C98 C99 1.345 . S
C98 H106 0.930 . S
C99 C97 1.407 . S
C99 C98 1.345 . S
C99 H101 0.930 . S
H100 C93 0.930 . S
H101 C99 0.930 . S
H102 C90 0.930 . S
H103 C91 0.931 . S
H104 C97 0.930 . S
H105 C119 0.930 . S
H106 C98 0.930 . S
H107 C125 0.930 . S
H108 C116 0.930 . S
H109 C123 0.931 . S
H110 C87 0.929 . S
H111 C117 0.930 . S
H112 C150 0.930 . S
H113 C94 0.930 . S
H114 C149 0.929 . S
N115 Tb84 2.660 . S
N115 C116 1.305 . S
N115 C120 1.360 . S
C116 H108 0.930 . S
C116 N115 1.305 . S
C116 C119 1.407 . S
C117 H111 0.930 . S
C117 C118 1.410 . S
C117 C119 1.345 1_655 S
C118 C117 1.410 . S
C118 C120 1.417 1_655 S
C118 C150 1.432 . S
C119 H105 0.930 . S
C119 C116 1.407 . S
C119 C117 1.345 1_455 S
C120 N115 1.360 . S
C120 C118 1.417 1_455 S
C120 C124 1.432 . S
H121 C126 0.930 . S
N122 Tb84 2.600 . S
N122 C124 1.359 . S
N122 C125 1.327 . S
C123 H109 0.931 . S
C123 C125 1.392 . S
C123 C126 1.370 1_455 S
C124 C120 1.432 . S
C124 N122 1.359 . S
C124 C127 1.414 1_455 S
C125 H107 0.930 . S
C125 N122 1.327 . S
C125 C123 1.392 . S
C126 H121 0.930 . S
C126 C123 1.370 1_655 S
C126 C127 1.385 . S
C127 C124 1.414 1_655 S
C127 C126 1.385 . S
C127 C149 1.444 . S
O128 Tb84 2.546 . S
O128 C148 1.251 . S
O129 Tb84 2.610 . S
O129 Tb95 2.362 . S
O129 C140 1.283 . S
O130 Tb95 2.421 . S
O130 C147 1.262 . S
O131 Tb84 2.320 . S
O131 C147 1.260 . S
O132 Tb84 2.552 . S
O132 C140 1.243 . S
O133 Tb84 2.413 . S
O133 C148 1.256 . S
O134 Tb95 2.546 . S
O134 C159 1.251 . S
O135 Tb84 2.362 . S
O135 Tb95 2.610 . S
O135 C151 1.283 . S
O136 Tb84 2.421 . S
O136 C158 1.262 . S
O137 Tb95 2.320 . S
O137 C158 1.260 . S
O138 Tb95 2.552 . S
O138 C151 1.243 . S
O139 Tb95 2.413 . S
O139 C159 1.256 . S
C140 O129 1.283 . S
C140 O132 1.243 . S
C141 C143 1.382 . S
C141 C145 1.393 . S
C141 C148 1.500 . S
C142 C143 1.400 . S
C142 C144 1.384 . S
C143 C141 1.382 . S
C143 C142 1.400 . S
C143 H160 0.930 . S
C144 C142 1.384 . S
C144 C146 1.394 . S
C144 H161 0.931 1_455 S
C145 C141 1.393 . S
C145 C146 1.405 . S
C145 H162 0.930 . S
C146 C144 1.394 . S
C146 C145 1.405 . S
C146 H163 0.924 1_455 S
C147 O130 1.262 . S
C147 O131 1.260 . S
C148 Tb84 2.833 . S
C148 O128 1.251 . S
C148 O133 1.256 . S
C148 C141 1.500 . S
C149 H114 0.929 . S
C149 C127 1.444 . S
C149 C150 1.317 . S
C150 H112 0.930 . S
C150 C118 1.432 . S
C150 C149 1.317 . S
C151 O135 1.283 . S
C151 O138 1.243 . S
C152 C153 1.382 . S
C152 C156 1.393 . S
C152 C159 1.500 . S
C153 C152 1.382 . S
C153 C154 1.400 . S
C153 H164 0.930 . S
C154 C153 1.400 . S
C154 C155 1.384 . S
C155 C154 1.384 . S
C155 C157 1.392 . S
C155 H165 0.931 . S
C156 C152 1.393 . S
C156 C157 1.401 . S
C156 H166 0.930 . S
C157 C155 1.392 . S
C157 C156 1.401 . S
C157 H167 0.930 . S
C158 O136 1.262 . S
C158 O137 1.260 . S
C159 Tb95 2.833 . S
C159 O134 1.251 . S
C159 O139 1.256 . S
C159 C152 1.500 . S
H160 C143 0.930 . S
H161 C144 0.931 1_655 S
H162 C145 0.930 . S
H163 C146 0.924 1_655 S
H164 C153 0.930 . S
H165 C155 0.931 . S
H166 C156 0.930 . S
H167 C157 0.930 . S
Tb168 N199 2.660 . S
Tb168 N206 2.600 . S
Tb168 O212 2.517 1_554 S
Tb168 O213 2.610 . S
Tb168 O215 2.320 . S
Tb168 O216 2.552 1_554 S
Tb168 O217 2.413 . S
Tb168 O219 2.362 . S
Tb168 O220 2.421 . S
Tb168 C232 2.833 1_554 S
C169 C172 1.432 . S
C169 C173 1.414 . S
C169 N176 1.359 1_556 S
C170 C172 1.417 . S
C170 C174 1.432 . S
C170 C182 1.410 . S
C171 C173 1.444 . S
C171 C174 1.317 . S
C171 H194 0.929 . S
C172 C169 1.432 . S
C172 C170 1.417 . S
C172 N180 1.360 . S
C173 C169 1.414 . S
C173 C171 1.444 . S
C173 C178 1.385 . S
C174 C170 1.432 . S
C174 C171 1.317 . S
C174 H186 0.930 . S
C175 C177 1.392 . S
C175 C178 1.370 1_554 S
C175 H187 0.931 1_655 S
N176 C169 1.359 1_554 S
N176 C177 1.327 . S
N176 Tb179 2.600 1_565 S
C177 C175 1.392 . S
C177 N176 1.327 . S
C177 H184 0.930 . S
C178 C173 1.385 . S
C178 C175 1.370 1_556 S
C178 H197 0.930 . S
Tb179 N176 2.600 1_545 S
Tb179 N180 2.660 1_544 S
Tb179 O213 2.362 . S
Tb179 O214 2.421 . S
Tb179 O218 2.546 . S
Tb179 O219 2.610 . S
Tb179 O221 2.320 . S
Tb179 O222 2.552 . S
Tb179 O223 2.413 . S
Tb179 C243 2.833 1_545 S
N180 C172 1.360 . S
N180 Tb179 2.660 1_566 S
N180 C181 1.305 . S
C181 N180 1.305 . S
C181 C183 1.407 . S
C181 H188 0.943 . S
C182 C170 1.410 . S
C182 C183 1.345 . S
C182 H190 0.930 . S
C183 C181 1.407 . S
C183 C182 1.345 . S
C183 H185 0.930 . S
H184 C177 0.930 . S
H185 C183 0.930 . S
H186 C174 0.930 . S
H187 C175 0.931 1_455 S
H188 C181 0.943 . S
H189 C203 0.930 1_455 S
H190 C182 0.930 . S
H191 C209 0.930 . S
H192 C200 0.930 . S
H193 C207 0.931 . S
H194 C171 0.929 . S
H195 C201 0.930 . S
H196 C234 0.930 . S
H197 C178 0.930 . S
H198 C233 0.929 . S
N199 Tb168 2.660 . S
N199 C200 1.305 . S
N199 C204 1.360 . S
C200 H192 0.930 . S
C200 N199 1.305 . S
C200 C203 1.407 . S
C201 H195 0.930 . S
C201 C202 1.410 . S
C201 C203 1.345 . S
C202 C201 1.410 . S
C202 C204 1.417 . S
C202 C234 1.432 . S
C203 H189 0.930 1_655 S
C203 C200 1.407 . S
C203 C201 1.345 . S
C204 N199 1.360 . S
C204 C202 1.417 . S
C204 C208 1.432 . S
H205 C210 0.930 . S
N206 Tb168 2.600 . S
N206 C208 1.359 . S
N206 C209 1.327 . S
C207 H193 0.931 . S
C207 C209 1.392 . S
C207 C210 1.370 . S
C208 C204 1.432 . S
C208 N206 1.359 . S
C208 C211 1.414 . S
C209 H191 0.930 . S
C209 N206 1.327 . S
C209 C207 1.392 . S
C210 H205 0.930 . S
C210 C207 1.370 . S
C210 C211 1.385 . S
C211 C208 1.414 . S
C211 C210 1.385 . S
C211 C233 1.444 . S
O212 Tb168 2.517 1_556 S
O212 C232 1.265 . S
O213 Tb168 2.610 . S
O213 Tb179 2.362 . S
O213 C224 1.283 1_554 S
O214 Tb179 2.421 . S
O214 C231 1.262 . S
O215 Tb168 2.320 . S
O215 C231 1.260 . S
O216 Tb168 2.552 1_556 S
O216 C224 1.243 . S
O217 Tb168 2.413 . S
O217 C232 1.256 1_554 S
O218 Tb179 2.546 . S
O218 C243 1.251 1_545 S
O219 Tb168 2.362 . S
O219 Tb179 2.610 . S
O219 C235 1.283 . S
O220 Tb168 2.421 . S
O220 C242 1.262 . S
O221 Tb179 2.320 . S
O221 C242 1.260 . S
O222 Tb179 2.552 . S
O222 C235 1.243 . S
O223 Tb179 2.413 . S
O223 C243 1.256 1_545 S
C224 O213 1.283 1_556 S
C224 O216 1.243 . S
C225 C227 1.382 . S
C225 C229 1.393 . S
C225 C232 1.500 . S
C226 C227 1.400 . S
C226 C228 1.384 . S
C227 C225 1.382 . S
C227 C226 1.400 . S
C227 H244 0.930 . S
C228 C226 1.384 . S
C228 C230 1.392 . S
C228 H245 0.931 . S
C229 C225 1.393 . S
C229 C230 1.401 . S
C229 H246 0.930 . S
C230 C228 1.392 . S
C230 C229 1.401 . S
C230 H247 0.930 . S
C231 O214 1.262 . S
C231 O215 1.260 . S
C232 Tb168 2.833 1_556 S
C232 O212 1.265 . S
C232 O217 1.256 1_556 S
C232 C225 1.500 . S
C233 H198 0.929 . S
C233 C211 1.444 . S
C233 C234 1.317 . S
C234 H196 0.930 . S
C234 C202 1.432 . S
C234 C233 1.317 . S
C235 O219 1.283 . S
C235 O222 1.243 . S
C236 C237 1.382 . S
C236 C240 1.393 . S
C236 C243 1.500 . S
C237 C236 1.382 . S
C237 C238 1.400 . S
C237 H248 0.930 . S
C238 C237 1.400 . S
C238 C239 1.384 . S
C239 C238 1.384 . S
C239 C241 1.392 . S
C239 H249 0.931 . S
C240 C236 1.393 . S
C240 C241 1.401 . S
C240 H250 0.930 . S
C241 C239 1.392 . S
C241 C240 1.401 . S
C241 H251 0.930 . S
C242 O220 1.262 . S
C242 O221 1.260 . S
C243 Tb179 2.833 1_565 S
C243 O218 1.251 1_565 S
C243 O223 1.256 1_565 S
C243 C236 1.500 . S
H244 C227 0.930 . S
H245 C228 0.931 . S
H246 C229 0.930 . S
H247 C230 0.930 . S
H248 C237 0.930 . S
H249 C239 0.931 . S
H250 C240 0.930 . S
H251 C241 0.930 . S
Tb252 N283 2.660 . S
Tb252 N290 2.600 . S
Tb252 O296 2.546 . S
Tb252 O297 2.610 1_655 S
Tb252 O299 2.320 . S
Tb252 O300 2.552 1_655 S
Tb252 O301 2.413 . S
Tb252 O303 2.362 . S
Tb252 O304 2.421 . S
Tb252 C316 2.833 . S
C253 C256 1.432 . S
C253 C257 1.414 . S
C253 N260 1.359 . S
C254 C256 1.417 . S
C254 C258 1.432 . S
C254 C266 1.410 . S
C255 C257 1.444 . S
C255 C258 1.317 . S
C255 H278 0.929 . S
C256 C253 1.432 . S
C256 C254 1.417 . S
C256 N264 1.360 . S
C257 C253 1.414 . S
C257 C255 1.444 . S
C257 C262 1.385 . S
C258 C254 1.432 . S
C258 C255 1.317 . S
C258 H270 0.930 . S
C259 C261 1.392 . S
C259 C262 1.370 . S
C259 H271 0.931 . S
N260 C253 1.359 . S
N260 C261 1.327 . S
N260 Tb263 2.600 . S
C261 C259 1.392 . S
C261 N260 1.327 . S
C261 H268 0.930 . S
C262 C257 1.385 . S
C262 C259 1.370 . S
C262 H281 0.930 . S
Tb263 N260 2.600 . S
Tb263 N264 2.660 . S
Tb263 O297 2.362 . S
Tb263 O298 2.421 . S
Tb263 O302 2.546 . S
Tb263 O303 2.610 1_455 S
Tb263 O305 2.320 . S
Tb263 O306 2.552 . S
Tb263 O307 2.413 . S
Tb263 C327 2.833 . S
N264 C256 1.360 . S
N264 Tb263 2.660 . S
N264 C265 1.305 . S
C265 N264 1.305 . S
C265 C267 1.407 . S
C265 H272 0.930 . S
C266 C254 1.410 . S
C266 C267 1.345 . S
C266 H274 0.930 . S
C267 C265 1.407 . S
C267 C266 1.345 . S
C267 H269 0.930 . S
H268 C261 0.930 . S
H269 C267 0.930 . S
H270 C258 0.930 . S
H271 C259 0.931 . S
H272 C265 0.930 . S
H273 C287 0.930 . S
H274 C266 0.930 . S
H275 C293 0.930 . S
H276 C284 0.930 . S
H277 C291 0.931 . S
H278 C255 0.929 . S
H279 C285 0.930 . S
H280 C318 0.930 . S
H281 C262 0.930 . S
H282 C317 0.929 . S
N283 Tb252 2.660 . S
N283 C284 1.305 . S
N283 C288 1.360 . S
C284 H276 0.930 . S
C284 N283 1.305 . S
C284 C287 1.407 . S
C285 H279 0.930 . S
C285 C286 1.410 . S
C285 C287 1.345 . S
C286 C285 1.410 . S
C286 C288 1.417 . S
C286 C318 1.432 . S
C287 H273 0.930 . S
C287 C284 1.407 . S
C287 C285 1.345 . S
C288 N283 1.360 . S
C288 C286 1.417 . S
C288 C292 1.432 . S
H289 C294 0.930 . S
N290 Tb252 2.600 . S
N290 C292 1.359 . S
N290 C293 1.327 . S
C291 H277 0.931 . S
C291 C293 1.392 . S
C291 C294 1.370 . S
C292 C288 1.432 . S
C292 N290 1.359 . S
C292 C295 1.414 . S
C293 H275 0.930 . S
C293 N290 1.327 . S
C293 C291 1.392 . S
C294 H289 0.930 . S
C294 C291 1.370 . S
C294 C295 1.385 . S
C295 C292 1.414 . S
C295 C294 1.385 . S
C295 C317 1.444 . S
O296 Tb252 2.546 . S
O296 C316 1.251 . S
O297 Tb252 2.610 1_455 S
O297 Tb263 2.362 . S
O297 C308 1.283 . S
O298 Tb263 2.421 . S
O298 C315 1.262 . S
O299 Tb252 2.320 . S
O299 C315 1.260 1_655 S
O300 Tb252 2.552 1_455 S
O300 C308 1.243 . S
O301 Tb252 2.413 . S
O301 C316 1.256 . S
O302 Tb263 2.546 . S
O302 C327 1.251 . S
O303 Tb252 2.362 . S
O303 Tb263 2.610 1_655 S
O303 C319 1.283 . S
O304 Tb252 2.421 . S
O304 C326 1.262 1_655 S
O305 Tb263 2.320 . S
O305 C326 1.260 . S
O306 Tb263 2.552 . S
O306 C319 1.243 1_455 S
O307 Tb263 2.413 . S
O307 C327 1.256 . S
C308 O297 1.283 . S
C308 O300 1.243 . S
C309 C311 1.382 . S
C309 C313 1.393 . S
C309 C316 1.500 . S
C310 C311 1.400 . S
C310 C312 1.384 . S
C311 C309 1.382 . S
C311 C310 1.400 . S
C311 H328 0.930 . S
C312 C310 1.384 . S
C312 C314 1.392 . S
C312 H329 0.931 . S
C313 C309 1.393 . S
C313 C314 1.401 . S
C313 H330 0.930 . S
C314 C312 1.392 . S
C314 C313 1.401 . S
C314 H331 0.930 . S
C315 O298 1.262 . S
C315 O299 1.260 1_455 S
C316 Tb252 2.833 . S
C316 O296 1.251 . S
C316 O301 1.256 . S
C316 C309 1.500 . S
C317 H282 0.929 . S
C317 C295 1.444 . S
C317 C318 1.317 . S
C318 H280 0.930 . S
C318 C286 1.432 . S
C318 C317 1.317 . S
C319 O303 1.283 . S
C319 O306 1.243 1_655 S
C320 C321 1.382 . S
C320 C324 1.393 . S
C320 C327 1.500 . S
C321 C320 1.382 . S
C321 C322 1.400 . S
C321 H332 0.930 . S
C322 C321 1.400 . S
C322 C323 1.384 . S
C323 C322 1.384 . S
C323 C325 1.392 . S
C323 H333 0.931 . S
C324 C320 1.393 . S
C324 C325 1.401 . S
C324 H334 0.930 . S
C325 C323 1.392 . S
C325 C324 1.401 . S
C325 H335 0.930 . S
C326 O304 1.262 1_455 S
C326 O305 1.260 . S
C327 Tb263 2.833 . S
C327 O302 1.251 . S
C327 O307 1.256 . S
C327 C320 1.500 . S
H328 C311 0.930 . S
H329 C312 0.931 . S
H330 C313 0.930 . S
H331 C314 0.930 . S
H332 C321 0.930 . S
H333 C323 0.931 . S
H334 C324 0.930 . S
H335 C325 0.930 . S
C336 C337 1.349 . S
C336 C338 1.327 . S
C336 H361 0.950 . S
C337 C336 1.349 . S
C337 C353 1.349 . S
C338 C336 1.327 . S
C338 C357 1.429 1_655 S
C338 H362 0.950 . S
C339 C356 1.574 . S
C339 C358 1.368 . S
C339 H363 0.949 . S
H340 C344 0.949 . S
C341 C342 1.349 . S
C341 C343 1.327 . S
C341 H364 0.950 1_545 S
C342 C341 1.349 . S
C342 C354 1.349 . S
C343 C341 1.327 . S
C343 C359 1.429 . S
C343 H365 0.950 . S
C344 H340 0.949 . S
C344 C352 1.574 . S
C344 C360 1.368 . S
H345 C353 0.950 1_556 S
H346 C351 0.950 . S
H347 C352 0.949 . S
H348 C354 0.950 . S
H349 C355 0.950 . S
H350 C356 0.949 . S
C351 H346 0.950 . S
C351 C353 1.327 1_455 S
C351 C357 1.429 . S
C352 C344 1.574 . S
C352 H347 0.949 . S
C352 C358 1.368 . S
C353 C337 1.349 . S
C353 H345 0.950 1_554 S
C353 C351 1.327 1_655 S
C354 C342 1.349 . S
C354 H348 0.950 . S
C354 C355 1.327 . S
C355 H349 0.950 . S
C355 C354 1.327 . S
C355 C359 1.429 . S
C356 C339 1.574 . S
C356 H350 0.949 . S
C356 C360 1.368 . S
C357 C338 1.429 1_455 S
C357 C351 1.429 . S
C357 C358 1.523 . S
C358 C339 1.368 . S
C358 C352 1.368 . S
C358 C357 1.523 . S
C359 C343 1.429 . S
C359 C355 1.429 . S
C359 C360 1.523 . S
C360 C344 1.368 . S
C360 C356 1.368 . S
C360 C359 1.523 . S
H361 C336 0.950 . S
H362 C338 0.950 . S
H363 C339 0.949 . S
H364 C341 0.950 1_565 S
H365 C343 0.950 . S
C366 C367 1.349 . S
C366 C368 1.327 . S
C366 H391 0.950 . S
C367 C366 1.349 . S
C367 C383 1.349 . S
C368 C366 1.327 . S
C368 C387 1.429 . S
C368 H392 0.950 . S
C369 C386 1.574 . S
C369 C388 1.368 . S
C369 H393 0.949 . S
H370 C374 0.949 . S
C371 C372 1.349 . S
C371 C373 1.327 . S
C371 H394 0.950 . S
C372 C371 1.349 . S
C372 C384 1.349 . S
C373 C371 1.327 . S
C373 C389 1.429 . S
C373 H395 0.950 . S
C374 H370 0.949 . S
C374 C382 1.574 . S
C374 C390 1.368 . S
H375 C383 0.950 1_655 S
H376 C381 0.950 . S
H377 C382 0.949 . S
H378 C384 0.950 . S
H379 C385 0.950 . S
H380 C386 0.949 . S
C381 H376 0.950 . S
C381 C383 1.327 . S
C381 C387 1.429 . S
C382 C374 1.574 . S
C382 H377 0.949 . S
C382 C388 1.368 . S
C383 C367 1.349 . S
C383 H375 0.950 1_455 S
C383 C381 1.327 . S
C384 C372 1.349 . S
C384 H378 0.950 . S
C384 C385 1.327 . S
C385 H379 0.950 . S
C385 C384 1.327 . S
C385 C389 1.429 . S
C386 C369 1.574 . S
C386 H380 0.949 . S
C386 C390 1.368 . S
C387 C368 1.429 . S
C387 C381 1.429 . S
C387 C388 1.523 1_565 S
C388 C369 1.368 . S
C388 C382 1.368 . S
C388 C387 1.523 1_545 S
C389 C373 1.429 . S
C389 C385 1.429 . S
C389 C390 1.523 . S
C390 C374 1.368 . S
C390 C386 1.368 . S
C390 C389 1.523 . S
H391 C366 0.950 . S
H392 C368 0.950 . S
H393 C369 0.949 . S
H394 C371 0.950 . S
H395 C373 0.950 . S
C396 C397 1.349 . S
C396 C398 1.327 . S
C396 H421 0.950 . S
C397 C396 1.349 . S
C397 C413 1.349 . S
C398 C396 1.327 . S
C398 C417 1.429 . S
C398 H422 0.950 . S
C399 C416 1.574 . S
C399 C418 1.368 . S
C399 H423 0.949 . S
H400 C404 0.949 1_565 S
C401 C402 1.349 . S
C401 C403 1.327 . S
C401 H424 0.950 . S
C402 C401 1.349 . S
C402 C414 1.349 1_545 S
C403 C401 1.327 . S
C403 C419 1.429 . S
C403 H425 0.950 . S
C404 H400 0.949 1_545 S
C404 C412 1.574 . S
C404 C420 1.368 . S
H405 C413 0.950 . S
H406 C411 0.950 . S
H407 C412 0.949 . S
H408 C414 0.950 . S
H409 C415 0.950 . S
H410 C416 0.949 . S
C411 H406 0.950 . S
C411 C413 1.327 . S
C411 C417 1.429 . S
C412 C404 1.574 . S
C412 H407 0.949 . S
C412 C418 1.368 . S
C413 C397 1.349 . S
C413 H405 0.950 . S
C413 C411 1.327 . S
C414 C402 1.349 1_565 S
C414 H408 0.950 . S
C414 C415 1.327 . S
C415 H409 0.950 . S
C415 C414 1.327 . S
C415 C419 1.429 1_565 S
C416 C399 1.574 . S
C416 H410 0.949 . S
C416 C420 1.368 . S
C417 C398 1.429 . S
C417 C411 1.429 . S
C417 C418 1.523 . S
C418 C399 1.368 . S
C418 C412 1.368 . S
C418 C417 1.523 . S
C419 C403 1.429 . S
C419 C415 1.429 1_545 S
C419 C420 1.523 . S
C420 C404 1.368 . S
C420 C416 1.368 . S
C420 C419 1.523 . S
H421 C396 0.950 . S
H422 C398 0.950 . S
H423 C399 0.949 . S
H424 C401 0.950 . S
H425 C403 0.950 . S
C426 C427 1.349 . S
C426 C428 1.327 . S
C426 H451 0.950 . S
C427 C426 1.349 . S
C427 C443 1.349 . S
C428 C426 1.327 . S
C428 C447 1.429 . S
C428 H452 0.950 . S
C429 C446 1.574 . S
C429 C448 1.368 . S
C429 H453 0.949 . S
H430 C434 0.949 . S
C431 C432 1.349 . S
C431 C433 1.327 . S
C431 H454 0.950 1_455 S
C432 C431 1.349 . S
C432 C444 1.349 . S
C433 C431 1.327 . S
C433 C449 1.429 . S
C433 H455 0.950 . S
C434 H430 0.949 . S
C434 C442 1.574 . S
C434 C450 1.368 . S
H435 C443 0.950 . S
H436 C441 0.950 . S
H437 C442 0.949 . S
H438 C444 0.950 . S
H439 C445 0.950 . S
H440 C446 0.949 . S
C441 H436 0.950 . S
C441 C443 1.327 . S
C441 C447 1.429 . S
C442 C434 1.574 . S
C442 H437 0.949 . S
C442 C448 1.368 . S
C443 C427 1.349 . S
C443 H435 0.950 . S
C443 C441 1.327 . S
C444 C432 1.349 . S
C444 H438 0.950 . S
C444 C445 1.327 . S
C445 H439 0.950 . S
C445 C444 1.327 . S
C445 C449 1.429 . S
C446 C429 1.574 . S
C446 H440 0.949 . S
C446 C450 1.368 . S
C447 C428 1.429 . S
C447 C441 1.429 . S
C447 C448 1.523 . S
C448 C429 1.368 . S
C448 C442 1.368 . S
C448 C447 1.523 . S
C449 C433 1.429 . S
C449 C445 1.429 . S
C449 C450 1.523 . S
C450 C434 1.368 . S
C450 C446 1.368 . S
C450 C449 1.523 . S
H451 C426 0.950 . S
H452 C428 0.950 . S
H453 C429 0.949 . S
H454 C431 0.950 1_655 S
H455 C433 0.950 . S
C456 C457 1.349 . S
C456 C458 1.327 . S
C456 H481 0.950 . S
C457 C456 1.349 . S
C457 C473 1.349 . S
C458 C456 1.327 . S
C458 C477 1.429 . S
C458 H482 0.950 . S
C459 C476 1.574 . S
C459 C478 1.368 . S
C459 H483 0.949 . S
H460 C464 0.949 . S
C461 C462 1.349 . S
C461 C463 1.327 . S
C461 H484 0.950 . S
C462 C461 1.349 . S
C462 C474 1.349 . S
C463 C461 1.327 . S
C463 C479 1.429 . S
C463 H485 0.950 . S
C464 H460 0.949 . S
C464 C472 1.574 . S
C464 C480 1.368 . S
H465 C473 0.950 . S
H466 C471 0.950 . S
H467 C472 0.949 . S
H468 C474 0.950 . S
H469 C475 0.950 . S
H470 C476 0.949 . S
C471 H466 0.950 . S
C471 C473 1.327 . S
C471 C477 1.429 . S
C472 C464 1.574 . S
C472 H467 0.949 . S
C472 C478 1.368 . S
C473 C457 1.349 . S
C473 H465 0.950 . S
C473 C471 1.327 . S
C474 C462 1.349 . S
C474 H468 0.950 . S
C474 C475 1.327 . S
C475 H469 0.950 . S
C475 C474 1.327 . S
C475 C479 1.429 . S
C476 C459 1.574 . S
C476 H470 0.949 . S
C476 C480 1.368 . S
C477 C458 1.429 . S
C477 C471 1.429 . S
C477 C478 1.523 . S
C478 C459 1.368 . S
C478 C472 1.368 . S
C478 C477 1.523 . S
C479 C463 1.429 . S
C479 C475 1.429 . S
C479 C480 1.523 . S
C480 C464 1.368 . S
C480 C476 1.368 . S
C480 C479 1.523 . S
H481 C456 0.950 . S
H482 C458 0.950 . S
H483 C459 0.949 . S
H484 C461 0.950 . S
H485 C463 0.950 . S
C486 C487 1.349 . S
C486 C488 1.327 . S
C486 H511 0.950 . S
C487 C486 1.349 . S
C487 C503 1.349 . S
C488 C486 1.327 . S
C488 C507 1.429 . S
C488 H512 0.950 . S
C489 C506 1.574 1_455 S
C489 C508 1.368 . S
C489 H513 0.949 . S
H490 C494 0.949 . S
C491 C492 1.349 . S
C491 C493 1.327 . S
C491 H514 0.950 . S
C492 C491 1.349 . S
C492 C504 1.349 . S
C493 C491 1.327 . S
C493 C509 1.429 . S
C493 H515 0.950 . S
C494 H490 0.949 . S
C494 C502 1.574 . S
C494 C510 1.368 . S
H495 C503 0.950 . S
H496 C501 0.950 . S
H497 C502 0.949 . S
H498 C504 0.950 1_455 S
H499 C505 0.950 . S
H500 C506 0.949 . S
C501 H496 0.950 . S
C501 C503 1.327 . S
C501 C507 1.429 . S
C502 C494 1.574 . S
C502 H497 0.949 . S
C502 C508 1.368 . S
C503 C487 1.349 . S
C503 H495 0.950 . S
C503 C501 1.327 . S
C504 C492 1.349 . S
C504 H498 0.950 1_655 S
C504 C505 1.327 1_655 S
C505 H499 0.950 . S
C505 C504 1.327 1_455 S
C505 C509 1.429 1_455 S
C506 C489 1.574 1_655 S
C506 H500 0.949 . S
C506 C510 1.368 1_655 S
C507 C488 1.429 . S
C507 C501 1.429 . S
C507 C508 1.523 . S
C508 C489 1.368 . S
C508 C502 1.368 . S
C508 C507 1.523 . S
C509 C493 1.429 . S
C509 C505 1.429 1_655 S
C509 C510 1.523 1_655 S
C510 C494 1.368 . S
C510 C506 1.368 1_455 S
C510 C509 1.523 1_455 S
H511 C486 0.950 . S
H512 C488 0.950 . S
H513 C489 0.949 . S
H514 C491 0.950 . S
H515 C493 0.950 . S
C516 C517 1.349 . S
C516 C518 1.327 . S
C516 H541 0.950 . S
C517 C516 1.349 . S
C517 C533 1.349 . S
C518 C516 1.327 . S
C518 C537 1.429 . S
C518 H542 0.950 . S
C519 C536 1.574 . S
C519 C538 1.368 . S
C519 H543 0.949 . S
H520 C524 0.949 . S
C521 C522 1.349 . S
C521 C523 1.327 . S
C521 H544 0.950 1_565 S
C522 C521 1.349 . S
C522 C534 1.349 . S
C523 C521 1.327 . S
C523 C539 1.429 . S
C523 H545 0.950 . S
C524 H520 0.949 . S
C524 C532 1.574 . S
C524 C540 1.368 . S
H525 C533 0.950 . S
H526 C531 0.950 . S
H527 C532 0.949 . S
H528 C534 0.950 . S
H529 C535 0.950 . S
H530 C536 0.949 . S
C531 H526 0.950 . S
C531 C533 1.327 . S
C531 C537 1.429 . S
C532 C524 1.574 . S
C532 H527 0.949 . S
C532 C538 1.368 . S
C533 C517 1.349 . S
C533 H525 0.950 . S
C533 C531 1.327 . S
C534 C522 1.349 . S
C534 H528 0.950 . S
C534 C535 1.327 . S
C535 H529 0.950 . S
C535 C534 1.327 . S
C535 C539 1.429 . S
C536 C519 1.574 . S
C536 H530 0.949 . S
C536 C540 1.368 . S
C537 C518 1.429 . S
C537 C531 1.429 . S
C537 C538 1.523 . S
C538 C519 1.368 . S
C538 C532 1.368 . S
C538 C537 1.523 . S
C539 C523 1.429 . S
C539 C535 1.429 . S
C539 C540 1.523 . S
C540 C524 1.368 . S
C540 C536 1.368 . S
C540 C539 1.523 . S
H541 C516 0.950 . S
H542 C518 0.950 . S
H543 C519 0.949 . S
H544 C521 0.950 1_545 S
H545 C523 0.950 . S
C546 C547 1.349 . S
C546 C548 1.327 . S
C546 H571 0.950 . S
C547 C546 1.349 . S
C547 C563 1.349 . S
C548 C546 1.327 . S
C548 C567 1.429 . S
C548 H572 0.950 . S
C549 C566 1.574 . S
C549 C568 1.368 . S
C549 H573 0.949 . S
H550 C554 0.949 . S
C551 C552 1.349 . S
C551 C553 1.327 1_554 S
C551 H574 0.950 . S
C552 C551 1.349 . S
C552 C564 1.349 . S
C553 C551 1.327 1_556 S
C553 C569 1.429 . S
C553 H575 0.950 . S
C554 H550 0.949 . S
C554 C562 1.574 . S
C554 C570 1.368 . S
H555 C563 0.950 . S
H556 C561 0.950 . S
H557 C562 0.949 . S
H558 C564 0.950 1_545 S
H559 C565 0.950 1_556 S
H560 C566 0.949 . S
C561 H556 0.950 . S
C561 C563 1.327 . S
C561 C567 1.429 . S
C562 C554 1.574 . S
C562 H557 0.949 . S
C562 C568 1.368 . S
C563 C547 1.349 . S
C563 H555 0.950 . S
C563 C561 1.327 . S
C564 C552 1.349 . S
C564 H558 0.950 1_565 S
C564 C565 1.327 . S
C565 H559 0.950 1_554 S
C565 C564 1.327 . S
C565 C569 1.429 1_554 S
C566 C549 1.574 . S
C566 H560 0.949 . S
C566 C570 1.368 . S
C567 C548 1.429 . S
C567 C561 1.429 . S
C567 C568 1.523 . S
C568 C549 1.368 . S
C568 C562 1.368 . S
C568 C567 1.523 . S
C569 C553 1.429 . S
C569 C565 1.429 1_556 S
C569 C570 1.523 . S
C570 C554 1.368 . S
C570 C566 1.368 . S
C570 C569 1.523 . S
H571 C546 0.950 . S
H572 C548 0.950 . S
H573 C549 0.949 . S
H574 C551 0.950 . S
H575 C553 0.950 . S
C576 C577 1.349 . S
C576 C578 1.327 1_545 S
C576 H601 0.950 . S
C577 C576 1.349 . S
C577 C593 1.349 1_545 S
C578 C576 1.327 1_565 S
C578 C597 1.429 . S
C578 H602 0.951 . S
C579 C596 1.574 . S
C579 C598 1.368 . S
C579 H603 0.949 . S
H580 C584 0.949 . S
C581 C582 1.349 . S
C581 C583 1.327 . S
C581 H604 0.950 . S
C582 C581 1.349 . S
C582 C594 1.349 . S
C583 C581 1.327 . S
C583 C599 1.429 . S
C583 H605 0.950 . S
C584 H580 0.949 . S
C584 C592 1.574 . S
C584 C600 1.368 . S
H585 C593 0.950 . S
H586 C591 0.950 . S
H587 C592 0.949 . S
H588 C594 0.950 1_455 S
H589 C595 0.950 1_455 S
H590 C596 0.949 . S
C591 H586 0.950 . S
C591 C593 1.327 . S
C591 C597 1.429 . S
C592 C584 1.574 . S
C592 H587 0.949 . S
C592 C598 1.368 . S
C593 C577 1.349 1_565 S
C593 H585 0.950 . S
C593 C591 1.327 . S
C594 C582 1.349 . S
C594 H588 0.950 1_655 S
C594 C595 1.327 . S
C595 H589 0.950 1_655 S
C595 C594 1.327 . S
C595 C599 1.429 . S
C596 C579 1.574 . S
C596 H590 0.949 . S
C596 C600 1.368 . S
C597 C578 1.429 . S
C597 C591 1.429 . S
C597 C598 1.523 . S
C598 C579 1.368 . S
C598 C592 1.368 . S
C598 C597 1.523 . S
C599 C583 1.429 . S
C599 C595 1.429 . S
C599 C600 1.523 . S
C600 C584 1.368 . S
C600 C596 1.368 . S
C600 C599 1.523 . S
H601 C576 0.950 . S
H602 C578 0.951 . S
H603 C579 0.949 . S
H604 C581 0.950 . S
H605 C583 0.950 . S
C606 C607 1.349 . S
C606 C608 1.327 . S
C606 H631 0.950 . S
C607 C606 1.349 . S
C607 C623 1.349 . S
C608 C606 1.327 . S
C608 C627 1.429 . S
C608 H632 0.950 . S
C609 C626 1.574 . S
C609 C628 1.368 . S
C609 H633 0.949 . S
H610 C614 0.949 . S
C611 C612 1.349 . S
C611 C613 1.327 . S
C611 H634 0.950 . S
C612 C611 1.349 . S
C612 C624 1.349 . S
C613 C611 1.327 . S
C613 C629 1.429 . S
C613 H635 0.950 . S
C614 H610 0.949 . S
C614 C622 1.574 . S
C614 C630 1.368 . S
H615 C623 0.950 . S
H616 C621 0.950 . S
H617 C622 0.949 . S
H618 C624 0.950 . S
H619 C625 0.950 . S
H620 C626 0.949 . S
C621 H616 0.950 . S
C621 C623 1.327 . S
C621 C627 1.429 . S
C622 C614 1.574 . S
C622 H617 0.949 . S
C622 C628 1.368 . S
C623 C607 1.349 . S
C623 H615 0.950 . S
C623 C621 1.327 . S
C624 C612 1.349 . S
C624 H618 0.950 . S
C624 C625 1.327 . S
C625 H619 0.950 . S
C625 C624 1.327 . S
C625 C629 1.429 . S
C626 C609 1.574 . S
C626 H620 0.949 . S
C626 C630 1.368 . S
C627 C608 1.429 . S
C627 C621 1.429 . S
C627 C628 1.523 . S
C628 C609 1.368 . S
C628 C622 1.368 . S
C628 C627 1.523 . S
C629 C613 1.429 . S
C629 C625 1.429 . S
C629 C630 1.523 . S
C630 C614 1.368 . S
C630 C626 1.368 . S
C630 C629 1.523 . S
H631 C606 0.950 . S
H632 C608 0.950 . S
H633 C609 0.949 . S
H634 C611 0.950 . S
H635 C613 0.950 . S
C636 C637 1.349 . S
C636 C638 1.327 . S
C636 H661 0.950 . S
C637 C636 1.349 . S
C637 C653 1.349 . S
C638 C636 1.327 . S
C638 C657 1.429 . S
C638 H662 0.950 . S
C639 C656 1.574 . S
C639 C658 1.368 . S
C639 H663 0.949 . S
H640 C644 0.949 . S
C641 C642 1.349 . S
C641 C643 1.327 1_554 S
C641 H664 0.950 . S
C642 C641 1.349 . S
C642 C654 1.349 1_554 S
C643 C641 1.327 1_556 S
C643 C659 1.429 . S
C643 H665 0.950 1_556 S
C644 H640 0.949 . S
C644 C652 1.574 . S
C644 C660 1.368 . S
H645 C653 0.950 . S
H646 C651 0.950 . S
H647 C652 0.949 . S
H648 C654 0.950 . S
H649 C655 0.950 . S
H650 C656 0.949 . S
C651 H646 0.950 . S
C651 C653 1.327 . S
C651 C657 1.429 . S
C652 C644 1.574 . S
C652 H647 0.949 . S
C652 C658 1.368 . S
C653 C637 1.349 . S
C653 H645 0.950 . S
C653 C651 1.327 . S
C654 C642 1.349 1_556 S
C654 H648 0.950 . S
C654 C655 1.327 . S
C655 H649 0.950 . S
C655 C654 1.327 . S
C655 C659 1.429 . S
C656 C639 1.574 . S
C656 H650 0.949 . S
C656 C660 1.368 . S
C657 C638 1.429 . S
C657 C651 1.429 . S
C657 C658 1.523 . S
C658 C639 1.368 . S
C658 C652 1.368 . S
C658 C657 1.523 . S
C659 C643 1.429 . S
C659 C655 1.429 . S
C659 C660 1.523 . S
C660 C644 1.368 . S
C660 C656 1.368 . S
C660 C659 1.523 . S
H661 C636 0.950 . S
H662 C638 0.950 . S
H663 C639 0.949 . S
H664 C641 0.950 . S
H665 C643 0.950 1_554 S
C666 C667 1.349 . S
C666 C668 1.327 . S
C666 H691 0.950 . S
C667 C666 1.349 . S
C667 C683 1.349 . S
C668 C666 1.327 . S
C668 C687 1.429 . S
C668 H692 0.950 . S
C669 C686 1.574 . S
C669 C688 1.368 . S
C669 H693 0.949 . S
H670 C674 0.949 . S
C671 C672 1.349 . S
C671 C673 1.327 . S
C671 H694 0.950 . S
C672 C671 1.349 . S
C672 C684 1.349 . S
C673 C671 1.327 . S
C673 C689 1.429 . S
C673 H695 0.950 . S
C674 H670 0.949 . S
C674 C682 1.574 . S
C674 C690 1.368 . S
H675 C683 0.950 . S
H676 C681 0.950 . S
H677 C682 0.949 . S
H678 C684 0.950 . S
H679 C685 0.950 . S
H680 C686 0.949 1_455 S
C681 H676 0.950 . S
C681 C683 1.327 . S
C681 C687 1.429 . S
C682 C674 1.574 . S
C682 H677 0.949 . S
C682 C688 1.368 . S
C683 C667 1.349 . S
C683 H675 0.950 . S
C683 C681 1.327 . S
C684 C672 1.349 . S
C684 H678 0.950 . S
C684 C685 1.327 1_455 S
C685 H679 0.950 . S
C685 C684 1.327 1_655 S
C685 C689 1.429 1_655 S
C686 C669 1.574 . S
C686 H680 0.949 1_655 S
C686 C690 1.368 . S
C687 C668 1.429 . S
C687 C681 1.429 . S
C687 C688 1.523 . S
C688 C669 1.368 . S
C688 C682 1.368 . S
C688 C687 1.523 . S
C689 C673 1.429 . S
C689 C685 1.429 1_455 S
C689 C690 1.523 1_455 S
C690 C674 1.368 . S
C690 C686 1.368 . S
C690 C689 1.523 1_655 S
H691 C666 0.950 . S
H692 C668 0.950 . S
H693 C669 0.949 . S
H694 C671 0.950 . S
H695 C673 0.950 . S
C337 C231 0.962 . S
C342 C74 0.962 . S
C367 C315 0.467 . S
C372 C158 0.467 . S
C397 C242 1.145 . S
C402 C63 1.145 . S
C427 C147 1.215 . S
C432 C326 1.215 . S
C457 C140 1.932 . S
C462 C67 2.069 . S
C487 C151 2.237 . S
C492 C226 2.245 . S
C517 C310 1.056 . S
C522 C238 0.904 . S
C547 C322 0.741 . S
C552 C56 0.723 . S
C577 C224 2.069 . S
C582 C319 1.932 . S
C607 C70 2.245 . S
C612 C308 2.236 . S
C637 C154 1.056 . S
C642 C58 0.904 . S
C667 C235 0.723 . S
C672 C142 0.741 . S
