# Generated by pormake.
# Topology sml, (6)-cn, num edge types: 1
# Building blocks:
#     Node 0, Type 0, BuildingBlock: LEVNOQ01_clean_sbu_1, # of connection points: 6
#     Node 1, Type 0, BuildingBlock: LEVNOQ01_clean_sbu_1, # of connection points: 6
#     Node 2, Type 0, BuildingBlock: LEVNOQ01_clean_sbu_1, # of connection points: 6
#     Node 3, Type 0, BuildingBlock: LEVNOQ01_clean_sbu_1, # of connection points: 6
#     Node 4, Type 0, BuildingBlock: LEVNOQ01_clean_sbu_1, # of connection points: 6
#     Node 5, Type 0, BuildingBlock: LEVNOQ01_clean_sbu_1, # of connection points: 6
#     Edge 6, Type (0, 0), BuildingBlock: UVAHIK_clean_linker_0, # of connection points: 2
#     Edge 7, Type (0, 0), BuildingBlock: UVAHIK_clean_linker_0, # of connection points: 2
#     Edge 8, Type (0, 0), BuildingBlock: UVAHIK_clean_linker_0, # of connection points: 2
#     Edge 9, Type (0, 0), BuildingBlock: UVAHIK_clean_linker_0, # of connection points: 2
#     Edge 10, Type (0, 0), BuildingBlock: UVAHIK_clean_linker_0, # of connection points: 2
#     Edge 11, Type (0, 0), BuildingBlock: UVAHIK_clean_linker_0, # of connection points: 2
#     Edge 12, Type (0, 0), BuildingBlock: UVAHIK_clean_linker_0, # of connection points: 2
#     Edge 13, Type (0, 0), BuildingBlock: UVAHIK_clean_linker_0, # of connection points: 2
#     Edge 14, Type (0, 0), BuildingBlock: UVAHIK_clean_linker_0, # of connection points: 2
#     Edge 15, Type (0, 0), BuildingBlock: UVAHIK_clean_linker_0, # of connection points: 2
#     Edge 16, Type (0, 0), BuildingBlock: UVAHIK_clean_linker_0, # of connection points: 2
#     Edge 17, Type (0, 0), BuildingBlock: UVAHIK_clean_linker_0, # of connection points: 2
#     Edge 18, Type (0, 0), BuildingBlock: UVAHIK_clean_linker_0, # of connection points: 2
#     Edge 19, Type (0, 0), BuildingBlock: UVAHIK_clean_linker_0, # of connection points: 2
#     Edge 20, Type (0, 0), BuildingBlock: UVAHIK_clean_linker_0, # of connection points: 2
#     Edge 21, Type (0, 0), BuildingBlock: UVAHIK_clean_linker_0, # of connection points: 2
#     Edge 22, Type (0, 0), BuildingBlock: UVAHIK_clean_linker_0, # of connection points: 2
#     Edge 23, Type (0, 0), BuildingBlock: UVAHIK_clean_linker_0, # of connection points: 2
# Relax obj value: 0.144
# Max RMSD: 0.170
# Mean RMSD: 0.170
data_MOF--net-sml--node1-LEVNOQ01_clean_sbu_1--edge1-UVAHIK_clean_linker_0
_symmetry_space_group_name_H-M    P1
_symmetry_Int_Tables_number       1
_symmetry_cell_setting            triclinic
loop_
_symmetry_equiv_pos_as_xyz
'x, y, z'
_cell_length_a     51.580258
_cell_length_b     51.556188
_cell_length_c     20.103691
_cell_angle_alpha  89.850772
_cell_angle_beta   89.991167
_cell_angle_gamma 119.98734
loop_
_atom_site_label
_atom_site_type_symbol
_atom_site_fract_x
_atom_site_fract_y
_atom_site_fract_z
_atom_type_partial_charge
O0 O 0.16267 0.37219 0.84518 0.0
Mg1 Mg 0.16331 0.34983 0.9336 0.0
O2 O 0.19878 0.41729 0.87621 0.0
Mg3 Mg 0.20918 0.41701 -0.01249 0.0
O4 O 0.16402 0.37588 0.0099 0.0
O5 O 0.12637 0.32964 -0.00392 0.0
O6 O 0.21846 0.41508 0.10038 0.0
O7 O 0.18436 0.44381 0.00569 0.0
Mg8 Mg 0.25198 0.4786 0.04595 0.0
O9 O 0.2557 0.45857 0.96208 0.0
O10 O 0.25536 0.45875 0.13397 0.0
O11 O 0.21823 0.48971 0.03645 0.0
O12 O 0.2904 0.50451 -0.00406 0.0
C13 C 0.22655 0.36279 0.95414 0.0
C14 C 0.18055 0.3997 0.83262 0.0
C15 C 0.1381 0.35447 0.02855 0.0
C16 C 0.23673 0.43149 0.14527 0.0
C17 C 0.19167 0.47061 0.02061 0.0
C18 C 0.28131 0.48296 0.95355 0.0
O19 O 0.1998 0.34212 0.94448 0.0
O20 O 0.23307 0.38968 0.96621 0.0
O21 O 0.771 0.16931 0.15778 0.0
Mg22 Mg 0.79434 0.1621 0.23545 0.0
O23 O 0.77408 0.21016 0.20252 0.0
Mg24 Mg 0.78437 0.21139 0.31575 0.0
O25 O 0.77422 0.16326 0.32087 0.0
O26 O 0.77481 0.1224 0.29002 0.0
O27 O 0.79335 0.20702 0.431 0.0
O28 O 0.73434 0.19399 0.33539 0.0
Mg29 Mg 0.7871 0.24803 0.39724 0.0
O30 O 0.79544 0.26235 0.30139 0.0
O31 O 0.82415 0.25357 0.45234 0.0
O32 O 0.74178 0.21881 0.42846 0.0
O33 O 0.79273 0.28899 0.38692 0.0
C34 C 0.85157 0.22057 0.26822 0.0
C35 C 0.76791 0.1922 0.15372 0.0
C36 C 0.76658 0.13569 0.33214 0.0
C37 C 0.81274 0.22665 0.46964 0.0
C38 C 0.72397 0.19946 0.38749 0.0
C39 C 0.79772 0.28695 0.3249 0.0
O40 O 0.84058 0.19434 0.24435 0.0
O41 O 0.8349 0.22968 0.29394 0.0
O42 O 0.58769 0.77277 0.48675 0.0
Mg43 Mg 0.6213 0.79519 0.5594 0.0
O44 O 0.55211 0.77757 0.53855 0.0
Mg45 Mg 0.56499 0.78915 0.65037 0.0
O46 O 0.60093 0.77655 0.64659 0.0
O47 O 0.63973 0.77312 0.61233 0.0
O48 O 0.57927 0.80001 0.76267 0.0
O49 O 0.53118 0.74048 0.68061 0.0
Mg50 Mg 0.52114 0.79366 0.74866 0.0
O51 O 0.52812 0.80148 0.64999 0.0
O52 O 0.55901 0.82562 0.80058 0.0
O53 O 0.50598 0.74686 0.7629 0.0
O54 O 0.49392 0.80746 0.7044 0.0
C55 C 0.62346 0.85428 0.59269 0.0
C56 C 0.56207 0.77068 0.48733 0.0
C57 C 0.61914 0.76666 0.65611 0.0
C58 C 0.57756 0.81663 0.80733 0.0
C59 C 0.51189 0.72994 0.72759 0.0
C60 C 0.50729 0.80846 0.64949 0.0
O61 O 0.63729 0.8421 0.56691 0.0
O62 O 0.59834 0.83867 0.62219 0.0
O63 O 0.80657 0.60691 0.83187 0.0
Mg64 Mg 0.80571 0.62763 0.92063 0.0
O65 O 0.77277 0.56339 0.87379 0.0
Mg66 Mg 0.76705 0.56989 -0.01437 0.0
O67 O 0.81621 0.61077 0.00242 0.0
O68 O 0.84633 0.65594 0.95676 0.0
O69 O 0.76077 0.57516 0.09873 0.0
O70 O 0.78927 0.54088 0.00653 0.0
Mg71 Mg 0.72052 0.50903 0.05427 0.0
O72 O 0.71977 0.52938 0.9687 0.0
O73 O 0.72085 0.53416 0.13594 0.0
O74 O 0.75395 0.49705 0.0465 0.0
O75 O 0.68167 0.48546 0.0024 0.0
C76 C 0.7489 0.62372 0.94969 0.0
C77 C 0.7892 0.57903 0.8257 0.0
C78 C 0.84179 0.63587 0.00091 0.0
C79 C 0.74173 0.56083 0.14455 0.0
C80 C 0.78054 0.5143 0.02681 0.0
C81 C 0.69321 0.50671 0.95886 0.0
O82 O 0.77523 0.64289 0.93283 0.0
O83 O 0.74259 0.59728 0.96587 0.0
O84 O 0.19762 0.81825 0.17477 0.0
Mg85 Mg 0.17714 0.82149 0.26329 0.0
O86 O 0.20736 0.78254 0.20686 0.0
Mg87 Mg 0.19689 0.77423 0.31959 0.0
O88 O 0.20352 0.82066 0.33668 0.0
O89 O 0.19774 0.86 0.32136 0.0
O90 O 0.18512 0.77109 0.43543 0.0
O91 O 0.24817 0.79553 0.33746 0.0
Mg92 Mg 0.2005 0.73747 0.39109 0.0
O93 O 0.18958 0.72534 0.29402 0.0
O94 O 0.16423 0.72343 0.45545 0.0
O95 O 0.24416 0.76854 0.42511 0.0
O96 O 0.20146 0.70044 0.36901 0.0
C97 C 0.12574 0.7594 0.28752 0.0
C98 C 0.20716 0.80027 0.16255 0.0
C99 C 0.21007 0.84738 0.35363 0.0
C100 C 0.16946 0.74886 0.47364 0.0
C101 C 0.2602 0.79015 0.38677 0.0
C102 C 0.19184 0.70212 0.31097 0.0
O103 O 0.13237 0.78649 0.27995 0.0
O104 O 0.14584 0.75232 0.29784 0.0
O105 O 0.38761 0.18392 0.497 0.0
Mg106 Mg 0.36387 0.17838 0.58632 0.0
O107 O 0.43254 0.20875 0.54276 0.0
Mg108 Mg 0.41944 0.19795 0.6527 0.0
O109 O 0.38354 0.21333 0.65138 0.0
O110 O 0.34176 0.20136 0.59368 0.0
O111 O 0.406 0.1883 0.76324 0.0
O112 O 0.45325 0.24692 0.68022 0.0
Mg113 Mg 0.4658 0.19481 0.75223 0.0
O114 O 0.45588 0.18579 0.65501 0.0
O115 O 0.42769 0.16503 0.80802 0.0
O116 O 0.48069 0.24185 0.75968 0.0
O117 O 0.49096 0.17939 0.70246 0.0
C118 C 0.3609 0.12697 0.63192 0.0
C119 C 0.41586 0.19858 0.49194 0.0
C120 C 0.36104 0.21736 0.63857 0.0
C121 C 0.40843 0.17334 0.81077 0.0
C122 C 0.47365 0.25811 0.72475 0.0
C123 C 0.47629 0.17847 0.64984 0.0
O124 O 0.34197 0.13561 0.62951 0.0
O125 O 0.38875 0.14627 0.63066 0.0
C126 C 0.36662 0.24706 0.74198 0.0
C127 C 0.35605 0.23896 0.67655 0.0
C128 C 0.35728 0.26348 0.78084 0.0
C129 C 0.29373 0.27699 0.7908 0.0
H130 H 0.34393 0.34361 0.90638 0.0
C131 C 0.26589 0.3657 0.87944 0.0
C132 C 0.25046 0.35611 0.94005 0.0
C133 C 0.2836 0.35397 0.85747 0.0
C134 C 0.32977 0.32483 0.87468 0.0
H135 H 0.3295 0.24361 0.59881 0.0
H136 H 0.31395 0.27263 0.66547 0.0
H137 H 0.3658 0.31769 0.84546 0.0
H138 H 0.24215 0.3281 0.02679 0.0
H139 H 0.27406 0.30804 -0.01116 0.0
H140 H 0.25799 0.28459 0.81851 0.0
C141 C 0.32856 0.26558 0.68777 0.0
C142 C 0.34216 0.31 0.84006 0.0
C143 C 0.33765 0.24912 0.64941 0.0
C144 C 0.25427 0.33601 0.98031 0.0
C145 C 0.27241 0.32461 0.95875 0.0
C146 C 0.28147 0.29173 0.8252 0.0
C147 C 0.33738 0.27207 0.75456 0.0
C148 C 0.32436 0.28638 0.7965 0.0
C149 C 0.28644 0.3329 0.89634 0.0
C150 C 0.29947 0.316 0.8664 0.0
H151 H 0.38077 0.23942 0.76417 0.0
H152 H 0.36449 0.26824 0.83215 0.0
H153 H 0.27925 0.25844 0.75887 0.0
H154 H 0.26257 0.38061 0.84701 0.0
H155 H 0.29374 0.36006 0.80851 0.0
C156 C 0.10856 0.37646 0.07375 0.0
C157 C 0.12068 0.35759 0.08241 0.0
C158 C 0.08255 0.37059 0.10833 0.0
C159 C 0.01652 0.30747 0.13238 0.0
H160 H 0.9891 0.33297 0.28516 0.0
C161 C 0.90305 0.2298 0.24634 0.0
C162 C 0.88415 0.24131 0.26126 0.0
C163 C 0.93312 0.24896 0.23136 0.0
C164 C -0.00355 0.32591 0.24189 0.0
H165 H 0.11768 0.32034 0.13848 0.0
H166 H 0.07289 0.31065 0.19999 0.0
H167 H 0.04222 0.36152 0.2516 0.0
H168 H 0.88233 0.2821 0.27495 0.0
H169 H 0.93529 0.31581 0.24806 0.0
H170 H 0.97151 0.27174 0.1225 0.0
C171 C 0.08326 0.32978 0.16673 0.0
C172 C 0.0267 0.34219 0.22289 0.0
C173 C 0.10886 0.33535 0.1317 0.0
C174 C 0.89638 0.27257 0.26383 0.0
C175 C 0.92665 0.29186 0.24846 0.0
C176 C 0.98657 0.29132 0.15116 0.0
C177 C 0.06893 0.34616 0.15234 0.0
C178 C 0.03691 0.33255 0.16886 0.0
C179 C 0.94509 0.28015 0.23039 0.0
C180 C 0.97632 0.29978 0.20723 0.0
H181 H 0.11706 0.3934 0.03504 0.0
H182 H 0.07155 0.38319 0.09591 0.0
H183 H 0.02401 0.29981 0.09029 0.0
H184 H 0.89447 0.20587 0.24475 0.0
H185 H 0.94694 0.23927 0.21925 0.0
C186 C 0.76211 0.10644 0.43297 0.0
C187 C 0.74967 0.11917 0.39116 0.0
C188 C 0.74376 0.08252 0.47466 0.0
C189 C 0.69198 0.03229 0.56539 0.0
H190 H 0.65838 0.96951 0.43237 0.0
C191 C 0.62242 0.90189 0.61428 0.0
C192 C 0.63579 0.88693 0.58359 0.0
C193 C 0.63291 0.93226 0.60099 0.0
C194 C 0.66717 0.9868 0.47009 0.0
H195 H 0.70901 0.11878 0.36302 0.0
H196 H 0.67649 0.07584 0.43444 0.0
H197 H 0.68156 0.02193 0.39791 0.0
H198 H 0.67104 0.89244 0.51585 0.0
H199 H 0.68876 0.94499 0.49211 0.0
H200 H 0.67817 -0.00315 0.63745 0.0
C201 C 0.7005 0.085 0.43632 0.0
C202 C 0.68019 0.01668 0.45049 0.0
C203 C 0.71903 0.1095 0.39574 0.0
C204 C 0.66018 0.90315 0.54044 0.0
C205 C 0.67028 0.93322 0.52652 0.0
C206 C 0.67825 0.00219 0.58528 0.0
C207 C 0.71265 0.07058 0.47374 0.0
C208 C 0.69338 0.03966 0.4977 0.0
C209 C 0.65656 0.94793 0.55602 0.0
C210 C 0.66666 0.97932 0.53741 0.0
H211 H 0.78565 0.11335 0.42929 0.0
H212 H 0.75351 0.07143 0.50231 0.0
H213 H 0.70242 0.04976 0.60237 0.0
H214 H 0.60358 0.89006 0.6477 0.0
H215 H 0.62201 0.94323 0.62419 0.0
C216 C 0.63934 0.76101 0.76305 0.0
C217 C 0.61725 0.74846 0.71388 0.0
C218 C 0.64377 0.74255 0.80697 0.0
C219 C 0.63814 0.66952 0.80141 0.0
H220 H 0.66962 0.68957 -0.01936 0.0
C221 C 0.69636 0.61125 0.92463 0.0
C222 C 0.72538 0.63198 0.94611 0.0
C223 C 0.67579 0.62072 0.91041 0.0
C224 C 0.66066 0.68356 0.93077 0.0
H225 H 0.5814 0.70731 0.67336 0.0
H226 H 0.58898 0.67476 0.75039 0.0
H227 H 0.64519 0.71518 0.9309 0.0
H228 H 0.75502 0.67815 0.97426 0.0
H229 H 0.71907 0.69451 0.95092 0.0
H230 H 0.65483 0.63899 0.79996 0.0
C231 C 0.60284 0.69882 0.75536 0.0
C232 C 0.64671 0.69821 0.90232 0.0
C233 C 0.59825 0.71736 0.71183 0.0
C234 C 0.73282 0.66177 0.95742 0.0
C235 C 0.71215 0.67107 0.94449 0.0
C236 C 0.652 0.65484 0.82989 0.0
C237 C 0.62649 0.71119 0.80152 0.0
C238 C 0.63607 0.69197 0.83659 0.0
C239 C 0.68374 0.6509 0.91884 0.0
C240 C 0.66421 0.66234 0.89412 0.0
H241 H 0.65452 0.78498 0.76449 0.0
H242 H 0.66234 0.75284 0.84143 0.0
H243 H 0.63073 0.66456 0.75024 0.0
H244 H 0.69014 0.58817 0.91522 0.0
H245 H 0.654 0.60468 0.89089 0.0
C246 C 0.08899 0.71382 0.22652 0.0
C247 C 0.09472 0.73579 0.27451 0.0
C248 C 0.05981 0.6951 0.20369 0.0
C249 C 0.97981 0.66592 0.23709 0.0
H250 H 0.97377 0.67838 0.04873 0.0
C251 C 0.86831 0.61851 0.07976 0.0
C252 C 0.86704 0.64163 0.04521 0.0
C253 C 0.89469 0.62433 0.11289 0.0
C254 C 0.97513 0.67429 0.10117 0.0
H255 H 0.07472 0.75443 0.33922 0.0
H256 H 0.02341 0.72073 0.30153 0.0
H257 H 0.02301 0.69723 0.09916 0.0
H258 H 0.8917 0.68922 0.02213 0.0
H259 H 0.93711 0.69896 0.07874 0.0
H260 H 0.93173 0.64375 0.23903 0.0
C261 C 0.04144 0.7182 0.28106 0.0
C262 C 0.00326 0.68493 0.12991 0.0
C263 C 0.07071 0.73749 0.30247 0.0
C264 C 0.89196 0.67074 0.04731 0.0
C265 C 0.9181 0.67639 0.07953 0.0
C266 C 0.95153 0.65477 0.20798 0.0
C267 C 0.03586 0.69753 0.22991 0.0
C268 C 0.00592 0.68162 0.19848 0.0
C269 C 0.92004 0.6532 0.11119 0.0
C270 C 0.94906 0.65976 0.1402 0.0
H271 H 0.10727 0.71245 0.20353 0.0
H272 H 0.05608 0.67947 0.16393 0.0
H273 H 0.98135 0.66309 0.29008 0.0
H274 H 0.8495 0.59586 0.07891 0.0
H275 H 0.8957 0.60613 0.13746 0.0
C276 C 0.3665 0.08492 0.58695 0.0
C277 C 0.35055 0.09476 0.62606 0.0
C278 C 0.3542 0.05448 0.57234 0.0
C279 C 0.27979 0.98559 0.56496 0.0
H280 H 0.3263 0.94741 0.5238 0.0
C281 C 0.21997 0.86682 0.46829 0.0
C282 C 0.23119 0.86414 0.40684 0.0
C283 C 0.23769 0.89081 0.51023 0.0
C284 C 0.31304 0.95776 0.53557 0.0
H285 H 0.31046 0.0806 0.68463 0.0
H286 H 0.28975 0.02742 0.66273 0.0
H287 H 0.35128 -0.00179 0.56921 0.0
H288 H 0.26993 0.88277 0.34233 0.0
H289 H 0.30105 0.92487 0.41541 0.0
H290 H 0.24173 0.94557 0.53055 0.0
C291 C 0.31109 0.04312 0.6406 0.0
C292 C 0.32734 0.98693 0.56117 0.0
C293 C 0.32304 0.07356 0.65378 0.0
C294 C 0.26113 0.88416 0.39032 0.0
C295 C 0.27887 0.90829 0.4321 0.0
C296 C 0.26555 0.95647 0.54024 0.0
C297 C 0.32595 0.03322 0.59772 0.0
C298 C 0.31091 0.00137 0.57549 0.0
C299 C 0.26671 0.91276 0.49068 0.0
C300 C 0.28198 0.94229 0.52455 0.0
H301 H 0.38767 0.10091 0.56445 0.0
H302 H 0.36621 0.04789 0.53854 0.0
H303 H 0.26638 -0.00394 0.57331 0.0
H304 H 0.19673 0.85188 0.48126 0.0
H305 H 0.22788 0.89342 0.55558 0.0
C306 C 0.21101 0.43242 0.73896 0.0
C307 C 0.1832 0.41005 0.76343 0.0
C308 C 0.21598 0.43639 0.67052 0.0
C309 C 0.18853 0.38927 0.52289 0.0
H310 H 0.24231 0.46229 0.42835 0.0
C311 C 0.20516 0.39895 0.23818 0.0
C312 C 0.2334 0.42057 0.21414 0.0
C313 C 0.19994 0.39506 0.30661 0.0
C314 C 0.22761 0.44165 0.45448 0.0
H315 H 0.13761 0.37743 0.73677 0.0
H316 H 0.146 0.38509 0.61721 0.0
H317 H 0.22885 0.46507 0.54325 0.0
H318 H 0.27927 0.45198 0.24166 0.0
H319 H 0.27031 0.4446 0.36106 0.0
H320 H 0.18724 0.36588 0.43403 0.0
C321 C 0.16432 0.39857 0.65064 0.0
C322 C 0.21974 0.44331 0.52004 0.0
C323 C 0.15946 0.39432 0.71895 0.0
C324 C 0.25713 0.43561 0.25909 0.0
C325 C 0.25198 0.43155 0.32733 0.0
C326 C 0.19636 0.38763 0.45731 0.0
C327 C 0.19308 0.41828 0.62581 0.0
C328 C 0.20006 0.41712 0.55488 0.0
C329 C 0.22296 0.41255 0.35165 0.0
C330 C 0.216 0.41379 0.4225 0.0
H331 H 0.22967 0.44501 0.77228 0.0
H332 H 0.23836 0.45189 0.65293 0.0
H333 H 0.17392 0.3686 0.549 0.0
H334 H 0.18649 0.387 0.20453 0.0
H335 H 0.17736 0.38013 0.32399 0.0
C336 C 0.74446 0.17721 0.04238 0.0
C337 C 0.76178 0.20011 0.08758 0.0
C338 C 0.74637 0.18329 0.97443 0.0
C339 C 0.80583 0.22985 0.86413 0.0
H340 H 0.74607 0.19303 0.72583 0.0
C341 C 0.83314 0.24326 0.58342 0.0
C342 C 0.81383 0.22003 0.54072 0.0
C343 C 0.8277 0.24108 0.65169 0.0
C344 C 0.76303 0.20303 0.76404 0.0
H345 H 0.79181 0.24784 0.09871 0.0
H346 H 0.79563 0.25842 0.9792 0.0
H347 H 0.73027 0.19278 0.84045 0.0
H348 H 0.77639 0.17456 0.53692 0.0
H349 H 0.76755 0.17031 0.65667 0.0
H350 H 0.83858 0.23909 0.78873 0.0
C351 C 0.78066 0.2358 -0.00357 0.0
C352 C 0.75396 0.20328 0.82936 0.0
C353 C 0.77831 0.22979 0.0647 0.0
C354 C 0.7914 0.19303 0.56844 0.0
C355 C 0.78604 0.19079 0.63692 0.0
C356 C 0.8149 0.22935 0.79899 0.0
C357 C 0.76602 0.21228 0.95071 0.0
C358 C 0.77527 0.21638 0.88011 0.0
C359 C 0.80306 0.21544 0.67866 0.0
C360 C 0.79359 0.21557 0.74832 0.0
H361 H 0.73134 0.15419 0.05908 0.0
H362 H 0.73478 0.16475 0.94031 0.0
H363 H 0.82272 0.23953 0.9026 0.0
H364 H 0.85092 0.26422 0.5636 0.0
H365 H 0.84144 0.26041 0.68233 0.0
C366 C 0.54665 0.74486 0.37884 0.0
C367 C 0.54721 0.76625 0.42273 0.0
C368 C 0.54462 0.74804 0.3104 0.0
C369 C 0.57653 0.81029 0.20006 0.0
H370 H 0.53736 0.75252 0.05909 0.0
C371 C 0.59116 0.83876 0.92017 0.0
C372 C 0.58793 0.81644 0.87551 0.0
C373 C 0.58901 0.83341 -0.01143 0.0
C374 C 0.54886 0.76872 0.09811 0.0
H375 H 0.54264 0.80564 0.43111 0.0
H376 H 0.5398 0.81164 0.31096 0.0
H377 H 0.5196 0.73904 0.17371 0.0
H378 H 0.58388 0.77263 0.86728 0.0
H379 H 0.58046 0.76341 -0.01303 0.0
H380 H 0.6063 0.83973 0.12524 0.0
C381 C 0.54075 0.79238 0.32946 0.0
C382 C 0.53837 0.76112 0.16338 0.0
C383 C 0.54206 0.78877 0.39809 0.0
C384 C 0.58638 0.79023 0.90055 0.0
C385 C 0.58392 0.78475 0.96904 0.0
C386 C 0.58717 0.81781 0.13497 0.0
C387 C 0.54385 0.77306 0.28514 0.0
C388 C 0.55213 0.78185 0.2149 0.0
C389 C 0.58342 0.80557 0.01334 0.0
C390 C 0.57354 0.79708 0.08328 0.0
H391 H 0.55067 0.72737 0.39697 0.0
H392 H 0.54692 0.73278 0.27726 0.0
H393 H 0.58804 0.82641 0.23924 0.0
H394 H 0.59255 0.85923 0.90202 0.0
H395 H 0.589 0.85004 0.02136 0.0
C396 C 0.81056 0.57655 0.71756 0.0
C397 C 0.78563 0.56585 0.75966 0.0
C398 C 0.80658 0.57181 0.64935 0.0
C399 C 0.75052 0.53771 0.51432 0.0
H400 H 0.79771 0.61684 0.43584 0.0
C401 C 0.72238 0.56119 0.25697 0.0
C402 C 0.74667 0.57252 0.21263 0.0
C403 C 0.72731 0.56309 0.32527 0.0
C404 C 0.78452 0.59462 0.45695 0.0
H405 H 0.73736 0.53863 0.76605 0.0
H406 H 0.73022 0.53122 0.64619 0.0
H407 H 0.80721 0.60817 0.54988 0.0
H408 H 0.79502 0.59805 0.20411 0.0
H409 H 0.80371 0.60132 0.32377 0.0
H410 H 0.72762 0.52434 0.42123 0.0
C411 C 0.75283 0.54296 0.66551 0.0
C412 C 0.79013 0.5895 0.52197 0.0
C413 C 0.75687 0.54722 0.73409 0.0
C414 C 0.77592 0.58911 0.23738 0.0
C415 C 0.78087 0.59084 0.30589 0.0
C416 C 0.74489 0.54285 0.44918 0.0
C417 C 0.7776 0.557 0.62242 0.0
C418 C 0.77319 0.56102 0.55136 0.0
C419 C 0.7566 0.57622 0.35006 0.0
C420 C 0.76174 0.57141 0.42008 0.0
H421 H 0.83298 0.59047 0.7368 0.0
H422 H 0.82609 0.58193 0.61726 0.0
H423 H 0.73719 0.51556 0.53567 0.0
H424 H 0.69959 0.54872 0.23885 0.0
H425 H 0.70823 0.5525 0.3585 0.0
C426 C 0.1532 0.72896 0.58828 0.0
C427 C 0.16471 0.75339 0.54395 0.0
C428 C 0.1564 0.73375 0.65665 0.0
C429 C 0.17449 0.78841 0.78973 0.0
H430 H 0.21654 0.75097 0.86818 0.0
C431 C 0.22212 0.82141 0.04891 0.0
C432 C 0.21391 0.79733 0.09286 0.0
C433 C 0.22 0.81674 0.98052 0.0
C434 C 0.20465 0.76139 0.84712 0.0
H435 H 0.18521 0.80167 0.53649 0.0
H436 H 0.19021 0.80998 0.65638 0.0
H437 H 0.19902 0.73969 0.75329 0.0
H438 H 0.20044 0.7503 0.10027 0.0
H439 H 0.19618 0.74194 0.98041 0.0
H440 H 0.17957 0.80976 0.88338 0.0
C441 C 0.17928 0.7872 0.63798 0.0
C442 C 0.1945 0.75485 0.78162 0.0
C443 C 0.17638 0.78245 0.56941 0.0
C444 C 0.20677 0.76921 0.06734 0.0
C445 C 0.20429 0.76444 -0.00132 0.0
C446 C 0.18441 0.79478 0.85527 0.0
C447 C 0.17069 0.76298 0.6818 0.0
C448 C 0.17946 0.76842 0.75239 0.0
C449 C 0.20925 0.78783 0.95494 0.0
C450 C 0.19983 0.78156 0.88451 0.0
H451 H 0.14366 0.70622 0.57024 0.0
H452 H 0.14903 0.7147 0.68972 0.0
H453 H 0.16276 0.79895 0.76833 0.0
H454 H 0.22827 0.84347 0.06745 0.0
H455 H 0.22501 0.83542 0.94783 0.0
C456 C 0.42188 0.17612 0.39057 0.0
C457 C 0.42866 0.20212 0.4258 0.0
C458 C 0.42336 0.17684 0.3216 0.0
C459 C 0.44335 0.22025 0.16867 0.0
H460 H 0.36233 0.16056 0.11832 0.0
C461 C 0.40298 0.20365 0.89834 0.0
C462 C 0.39789 0.17556 0.87685 0.0
C463 C 0.40379 0.20962 0.9661 0.0
C464 C 0.38488 0.17744 0.13189 0.0
H465 H 0.44548 0.24979 0.41923 0.0
H466 H 0.448 0.25112 0.29709 0.0
H467 H 0.3768 0.16716 0.23531 0.0
H468 H 0.38642 0.13081 0.90749 0.0
H469 H 0.38607 0.14072 0.02627 0.0
H470 H 0.45144 0.22998 0.06447 0.0
C471 C 0.44171 0.23032 0.32286 0.0
C472 C 0.39327 0.18104 0.19837 0.0
C473 C 0.44037 0.2296 0.39236 0.0
C474 C 0.39018 0.15251 0.92322 0.0
C475 C 0.39014 0.15825 -0.00913 0.0
C476 C 0.43489 0.21668 0.1018 0.0
C477 C 0.43121 0.20351 0.28732 0.0
C478 C 0.42276 0.20181 0.21701 0.0
C479 C 0.39857 0.18726 0.01265 0.0
C480 C 0.40577 0.19475 0.0831 0.0
H481 H 0.41279 0.15474 0.41598 0.0
H482 H 0.41568 0.15603 0.29488 0.0
H483 H 0.46612 0.2365 0.18228 0.0
H484 H 0.40938 0.22189 0.86335 0.0
H485 H 0.4102 0.23208 -0.01781 0.0
C486 C 0.17344 0.50405 -0.01707 0.0
C487 C 0.16934 0.48011 0.02344 0.0
C488 C 0.16193 0.52227 0.00237 0.0
C489 C 0.16113 0.55074 0.16003 0.0
H490 H 0.13509 0.60103 0.07286 0.0
C491 C 0.16638 0.64735 0.30014 0.0
C492 C 0.18003 0.67541 0.26862 0.0
C493 C 0.1571 0.62142 0.26372 0.0
C494 C 0.14254 0.58719 0.09742 0.0
H495 H 0.14716 0.45378 0.11085 0.0
H496 H 0.12723 0.48586 0.14559 0.0
H497 H 0.1276 0.55513 0.01771 0.0
H498 H 0.19302 0.69843 0.17373 0.0
H499 H 0.17769 0.65239 0.10898 0.0
H500 H 0.17778 0.58306 0.23744 0.0
C501 C 0.13906 0.49046 0.09862 0.0
C502 C 0.13795 0.56087 0.06637 0.0
C503 C 0.15031 0.47205 0.07872 0.0
C504 C 0.18279 0.67698 0.19903 0.0
C505 C 0.17387 0.65072 0.16218 0.0
C506 C 0.166 0.57693 0.19037 0.0
C507 C 0.1468 0.51698 0.06326 0.0
C508 C 0.14712 0.54239 0.09779 0.0
C509 C 0.16179 0.62281 0.19481 0.0
C510 C 0.15662 0.59538 0.15985 0.0
H511 H 0.18824 0.5106 0.94023 0.0
H512 H 0.16822 0.54252 0.97425 0.0
H513 H 0.16959 0.53765 0.1842 0.0
H514 H 0.16324 0.64542 0.35361 0.0
H515 H 0.14709 0.60022 0.29005 0.0
C516 C 0.67207 0.17812 0.34231 0.0
C517 C 0.69139 0.18596 0.39728 0.0
C518 C 0.64196 0.16974 0.35127 0.0
C519 C 0.58184 0.14304 0.47649 0.0
H520 H 0.55536 0.19156 0.383 0.0
C521 C 0.47942 0.14314 0.57195 0.0
C522 C 0.48545 0.17223 0.58577 0.0
C523 C 0.49676 0.13846 0.52534 0.0
C524 C 0.56224 0.17756 0.40896 0.0
H525 H 0.69414 0.18956 0.50469 0.0
H526 H 0.6415 0.17416 0.52052 0.0
H527 H 0.60243 0.19423 0.35109 0.0
H528 H 0.51213 0.21895 0.55882 0.0
H529 H 0.54304 0.21114 0.47884 0.0
H530 H 0.54309 0.12778 0.5373 0.0
C531 C 0.6496 0.17475 0.4705 0.0
C532 C 0.58907 0.17893 0.39036 0.0
C533 C 0.67975 0.18369 0.46148 0.0
C534 C 0.50693 0.19626 0.548 0.0
C535 C 0.52462 0.1917 0.50214 0.0
C536 C 0.55508 0.14157 0.49488 0.0
C537 C 0.63056 0.16838 0.41544 0.0
C538 C 0.59964 0.16252 0.42572 0.0
C539 C 0.52095 0.16295 0.49345 0.0
C540 C 0.54545 0.15962 0.46303 0.0
H541 H 0.68055 0.17989 0.29221 0.0
H542 H 0.62772 0.16486 0.30808 0.0
H543 H 0.58935 0.12995 0.50414 0.0
H544 H 0.46299 0.12435 0.60102 0.0
H545 H 0.49283 0.11595 0.51851 0.0
C546 C 0.30087 0.50579 0.84439 0.0
C547 C 0.30074 0.48761 0.89643 0.0
C548 C 0.32689 0.52295 0.80722 0.0
C549 C 0.4063 0.56122 0.8458 0.0
H550 H 0.41241 0.59913 0.67528 0.0
C551 C 0.48116 0.6865 0.80231 0.0
C552 C 0.49496 0.69732 0.74029 0.0
C553 C 0.46246 0.65588 0.81285 0.0
C554 C 0.41138 0.58848 0.72248 0.0
H555 H 0.32613 0.47038 0.94631 0.0
H556 H 0.37135 0.49939 0.87974 0.0
H557 H 0.36858 0.55055 0.69995 0.0
H558 H 0.50114 0.68446 0.64155 0.0
H559 H 0.46789 0.63065 0.65976 0.0
H560 H 0.44851 0.59961 0.86929 0.0
C561 C 0.35166 0.50095 0.86816 0.0
C562 C 0.38614 0.56075 0.73683 0.0
C563 C 0.32564 0.48393 0.90554 0.0
C564 C 0.49072 0.67674 0.68983 0.0
C565 C 0.47162 0.646 0.70012 0.0
C566 C 0.43147 0.58886 0.83145 0.0
C567 C 0.35323 0.52223 0.82188 0.0
C568 C 0.38273 0.54736 0.79971 0.0
C569 C 0.45689 0.63531 0.76143 0.0
C570 C 0.4337 0.60338 0.77076 0.0
H571 H 0.28207 0.50941 0.8376 0.0
H572 H 0.32718 0.53912 0.77232 0.0
H573 H 0.40446 0.55189 0.89504 0.0
H574 H 0.48422 0.70178 0.84241 0.0
H575 H 0.45125 0.64846 0.86045 0.0
C576 C 0.81944 0.34167 0.3124 0.0
C577 C 0.80675 0.31341 0.28229 0.0
C578 C 0.82564 0.36687 0.2753 0.0
C579 C 0.833 0.3985 0.10689 0.0
H580 H 0.8047 0.44602 0.19756 0.0
C581 C 0.79612 0.47816 -0.00665 0.0
C582 C 0.80144 0.50303 0.03165 0.0
C583 C 0.80738 0.45979 0.01364 0.0
C584 C 0.8134 0.43345 0.17212 0.0
H585 H 0.79216 0.2895 0.18891 0.0
H586 H 0.80228 0.33399 0.12345 0.0
H587 H 0.80122 0.40259 0.25255 0.0
H588 H 0.82478 0.53021 0.11687 0.0
H589 H 0.84429 0.49788 0.1531 0.0
H590 H 0.84359 0.42901 0.02469 0.0
C591 C 0.80771 0.33648 0.17592 0.0
C592 C 0.81128 0.40844 0.20352 0.0
C593 C 0.80179 0.31106 0.21329 0.0
C594 C 0.82078 0.51128 0.08628 0.0
C595 C 0.83174 0.49272 0.1071 0.0
C596 C 0.83484 0.42358 0.07491 0.0
C597 C 0.81888 0.36447 0.20722 0.0
C598 C 0.82122 0.39077 0.17166 0.0
C599 C 0.8235 0.46583 0.07327 0.0
C600 C 0.82518 0.44133 0.10761 0.0
H601 H 0.82415 0.34433 0.36525 0.0
H602 H 0.835 0.38823 0.30052 0.0
H603 H 0.84084 0.38526 0.08122 0.0
H604 H 0.78096 0.47138 0.95136 0.0
H605 H 0.80063 0.43918 -0.01317 0.0
C606 C 0.30483 0.81011 0.46002 0.0
C607 C 0.29291 0.80603 0.39568 0.0
C608 C 0.33502 0.81942 0.4693 0.0
C609 C 0.39347 0.81077 0.39295 0.0
H610 H 0.44091 0.8626 0.53698 0.0
C611 C 0.47295 0.79029 0.55378 0.0
C612 C 0.49619 0.81437 0.58768 0.0
C613 C 0.45506 0.79524 0.50925 0.0
C614 C 0.42848 0.84856 0.49542 0.0
H615 H 0.30326 0.80961 0.29047 0.0
H616 H 0.35629 0.82533 0.30679 0.0
H617 H 0.3961 0.86289 0.50096 0.0
H618 H 0.52089 0.86248 0.59868 0.0
H619 H 0.49046 0.87147 0.51866 0.0
H620 H 0.42517 0.79545 0.38938 0.0
C621 C 0.34224 0.82163 0.34989 0.0
C622 C 0.40259 0.84855 0.4753 0.0
C623 C 0.31205 0.81291 0.3406 0.0
C624 C 0.50317 0.84366 0.57231 0.0
C625 C 0.48553 0.8487 0.52718 0.0
C626 C 0.41939 0.8107 0.41325 0.0
C627 C 0.35381 0.82428 0.4144 0.0
C628 C 0.38426 0.82891 0.42555 0.0
C629 C 0.46022 0.82443 0.49807 0.0
C630 C 0.43664 0.82885 0.46633 0.0
H631 H 0.29048 0.80487 0.50324 0.0
H632 H 0.34321 0.82099 0.51961 0.0
H633 H 0.37964 0.79524 0.35471 0.0
H634 H 0.46695 0.76748 0.56612 0.0
H635 H 0.43566 0.77597 0.48841 0.0
C636 C 0.67796 0.48597 0.84678 0.0
C637 C 0.67596 0.50307 0.89844 0.0
C638 C 0.65314 0.4687 0.80645 0.0
C639 C 0.57333 0.42782 0.83867 0.0
H640 H 0.57136 0.39046 0.67025 0.0
C641 C 0.50429 0.30212 0.79727 0.0
C642 C 0.49021 0.2908 0.73588 0.0
C643 C 0.52216 0.33287 0.80688 0.0
C644 C 0.57126 0.40095 0.71679 0.0
H645 H 0.6484 0.51887 0.94356 0.0
H646 H 0.60543 0.48985 0.87128 0.0
H647 H 0.61354 0.44005 0.69579 0.0
H648 H 0.48296 0.30283 0.63703 0.0
H649 H 0.51494 0.35697 0.65356 0.0
H650 H 0.53185 0.38822 0.86097 0.0
C651 C 0.62574 0.48904 0.86266 0.0
C652 C 0.59552 0.42926 0.73161 0.0
C653 C 0.65048 0.50605 0.90336 0.0
C654 C 0.49357 0.31096 0.68487 0.0
C655 C 0.51192 0.34187 0.69418 0.0
C656 C 0.54922 0.3996 0.82392 0.0
C657 C 0.62601 0.46838 0.81744 0.0
C658 C 0.59741 0.4425 0.79386 0.0
C659 C 0.52665 0.35307 0.7551 0.0
C660 C 0.54855 0.38534 0.76406 0.0
H661 H 0.69727 0.48297 0.84304 0.0
H662 H 0.65427 0.45309 0.77229 0.0
H663 H 0.57405 0.437 0.88746 0.0
H664 H 0.50192 0.28715 0.83773 0.0
H665 H 0.53347 0.34076 0.85414 0.0
loop_
_geom_bond_atom_site_label_1
_geom_bond_atom_site_label_2
_geom_bond_distance
_geom_bond_site_symmetry_2
_ccdc_geom_bond_type
O0 Mg1 1.990 . S
O0 C14 1.253 . S
Mg1 O0 1.990 . S
Mg1 O4 2.180 1_556 S
Mg1 O5 2.117 . S
Mg1 O19 2.030 . S
O2 Mg3 2.072 1_556 S
O2 C14 1.260 . S
Mg3 O2 2.072 1_554 S
Mg3 O4 2.099 . S
Mg3 O6 2.079 . S
Mg3 O7 2.072 . S
Mg3 O9 2.099 . S
Mg3 O20 2.079 1_554 S
O4 Mg1 2.180 1_554 S
O4 Mg3 2.099 . S
O4 C15 1.279 . S
O5 Mg1 2.117 . S
O5 C15 1.250 1_556 S
O6 Mg3 2.079 . S
O6 C16 1.264 . S
O7 Mg3 2.072 . S
O7 C17 1.260 . S
Mg8 O9 2.180 . S
Mg8 O10 2.030 . S
Mg8 O11 1.990 . S
Mg8 O12 2.117 . S
O9 Mg3 2.099 . S
O9 Mg8 2.180 . S
O9 C18 1.279 1_554 S
O10 Mg8 2.030 . S
O10 C16 1.248 . S
O11 Mg8 1.990 . S
O11 C17 1.253 . S
O12 Mg8 2.117 . S
O12 C18 1.250 1_554 S
C13 O19 1.248 . S
C13 O20 1.264 . S
C14 O0 1.253 . S
C14 O2 1.260 . S
C15 O4 1.279 . S
C15 O5 1.250 1_554 S
C16 O6 1.264 . S
C16 O10 1.248 . S
C17 O7 1.260 . S
C17 O11 1.253 . S
C18 O9 1.279 1_556 S
C18 O12 1.250 1_556 S
O19 Mg1 2.030 . S
O19 C13 1.248 . S
O20 Mg3 2.079 1_556 S
O20 C13 1.264 . S
O21 Mg22 1.990 . S
O21 C35 1.253 . S
Mg22 O21 1.990 . S
Mg22 O25 2.180 . S
Mg22 O26 2.117 . S
Mg22 O40 2.030 . S
O23 Mg24 2.072 . S
O23 C35 1.260 . S
Mg24 O23 2.072 . S
Mg24 O25 2.099 . S
Mg24 O27 2.079 . S
Mg24 O28 2.072 . S
Mg24 O30 2.099 . S
Mg24 O41 2.079 . S
O25 Mg22 2.180 . S
O25 Mg24 2.099 . S
O25 C36 1.279 . S
O26 Mg22 2.117 . S
O26 C36 1.250 . S
O27 Mg24 2.079 . S
O27 C37 1.264 . S
O28 Mg24 2.072 . S
O28 C38 1.260 . S
Mg29 O30 2.180 . S
Mg29 O31 2.030 . S
Mg29 O32 1.990 . S
Mg29 O33 2.117 . S
O30 Mg24 2.099 . S
O30 Mg29 2.180 . S
O30 C39 1.279 . S
O31 Mg29 2.030 . S
O31 C37 1.248 . S
O32 Mg29 1.990 . S
O32 C38 1.253 . S
O33 Mg29 2.117 . S
O33 C39 1.250 . S
C34 O40 1.248 . S
C34 O41 1.264 . S
C35 O21 1.253 . S
C35 O23 1.260 . S
C36 O25 1.279 . S
C36 O26 1.250 . S
C37 O27 1.264 . S
C37 O31 1.248 . S
C38 O28 1.260 . S
C38 O32 1.253 . S
C39 O30 1.279 . S
C39 O33 1.250 . S
O40 Mg22 2.030 . S
O40 C34 1.248 . S
O41 Mg24 2.079 . S
O41 C34 1.264 . S
O42 Mg43 1.990 . S
O42 C56 1.253 . S
Mg43 O42 1.990 . S
Mg43 O46 2.180 . S
Mg43 O47 2.117 . S
Mg43 O61 2.030 . S
O44 Mg45 2.072 . S
O44 C56 1.260 . S
Mg45 O44 2.072 . S
Mg45 O46 2.099 . S
Mg45 O48 2.079 . S
Mg45 O49 2.072 . S
Mg45 O51 2.099 . S
Mg45 O62 2.079 . S
O46 Mg43 2.180 . S
O46 Mg45 2.099 . S
O46 C57 1.279 . S
O47 Mg43 2.117 . S
O47 C57 1.250 . S
O48 Mg45 2.079 . S
O48 C58 1.264 . S
O49 Mg45 2.072 . S
O49 C59 1.260 . S
Mg50 O51 2.180 . S
Mg50 O52 2.030 . S
Mg50 O53 1.990 . S
Mg50 O54 2.117 . S
O51 Mg45 2.099 . S
O51 Mg50 2.180 . S
O51 C60 1.279 . S
O52 Mg50 2.030 . S
O52 C58 1.248 . S
O53 Mg50 1.990 . S
O53 C59 1.253 . S
O54 Mg50 2.117 . S
O54 C60 1.250 . S
C55 O61 1.248 . S
C55 O62 1.264 . S
C56 O42 1.253 . S
C56 O44 1.260 . S
C57 O46 1.279 . S
C57 O47 1.250 . S
C58 O48 1.264 . S
C58 O52 1.248 . S
C59 O49 1.260 . S
C59 O53 1.253 . S
C60 O51 1.279 . S
C60 O54 1.250 . S
O61 Mg43 2.030 . S
O61 C55 1.248 . S
O62 Mg45 2.079 . S
O62 C55 1.264 . S
O63 Mg64 1.990 . S
O63 C77 1.253 . S
Mg64 O63 1.990 . S
Mg64 O67 2.180 1_556 S
Mg64 O68 2.117 . S
Mg64 O82 2.030 . S
O65 Mg66 2.072 1_556 S
O65 C77 1.260 . S
Mg66 O65 2.072 1_554 S
Mg66 O67 2.099 . S
Mg66 O69 2.079 . S
Mg66 O70 2.072 . S
Mg66 O72 2.099 . S
Mg66 O83 2.079 1_554 S
O67 Mg64 2.180 1_554 S
O67 Mg66 2.099 . S
O67 C78 1.279 . S
O68 Mg64 2.117 . S
O68 C78 1.250 1_556 S
O69 Mg66 2.079 . S
O69 C79 1.264 . S
O70 Mg66 2.072 . S
O70 C80 1.260 . S
Mg71 O72 2.180 . S
Mg71 O73 2.030 . S
Mg71 O74 1.990 . S
Mg71 O75 2.117 . S
O72 Mg66 2.099 . S
O72 Mg71 2.180 . S
O72 C81 1.279 1_554 S
O73 Mg71 2.030 . S
O73 C79 1.248 . S
O74 Mg71 1.990 . S
O74 C80 1.253 . S
O75 Mg71 2.117 . S
O75 C81 1.250 1_554 S
C76 O82 1.248 . S
C76 O83 1.264 . S
C77 O63 1.253 . S
C77 O65 1.260 . S
C78 O67 1.279 . S
C78 O68 1.250 1_554 S
C79 O69 1.264 . S
C79 O73 1.248 . S
C80 O70 1.260 . S
C80 O74 1.253 . S
C81 O72 1.279 1_556 S
C81 O75 1.250 1_556 S
O82 Mg64 2.030 . S
O82 C76 1.248 . S
O83 Mg66 2.079 1_556 S
O83 C76 1.264 . S
O84 Mg85 1.990 . S
O84 C98 1.253 . S
Mg85 O84 1.990 . S
Mg85 O88 2.180 . S
Mg85 O89 2.117 . S
Mg85 O103 2.030 . S
O86 Mg87 2.072 . S
O86 C98 1.260 . S
Mg87 O86 2.072 . S
Mg87 O88 2.099 . S
Mg87 O90 2.079 . S
Mg87 O91 2.072 . S
Mg87 O93 2.099 . S
Mg87 O104 2.079 . S
O88 Mg85 2.180 . S
O88 Mg87 2.099 . S
O88 C99 1.279 . S
O89 Mg85 2.117 . S
O89 C99 1.250 . S
O90 Mg87 2.079 . S
O90 C100 1.264 . S
O91 Mg87 2.072 . S
O91 C101 1.260 . S
Mg92 O93 2.180 . S
Mg92 O94 2.030 . S
Mg92 O95 1.990 . S
Mg92 O96 2.117 . S
O93 Mg87 2.099 . S
O93 Mg92 2.180 . S
O93 C102 1.279 . S
O94 Mg92 2.030 . S
O94 C100 1.248 . S
O95 Mg92 1.990 . S
O95 C101 1.253 . S
O96 Mg92 2.117 . S
O96 C102 1.250 . S
C97 O103 1.248 . S
C97 O104 1.264 . S
C98 O84 1.253 . S
C98 O86 1.260 . S
C99 O88 1.279 . S
C99 O89 1.250 . S
C100 O90 1.264 . S
C100 O94 1.248 . S
C101 O91 1.260 . S
C101 O95 1.253 . S
C102 O93 1.279 . S
C102 O96 1.250 . S
O103 Mg85 2.030 . S
O103 C97 1.248 . S
O104 Mg87 2.079 . S
O104 C97 1.264 . S
O105 Mg106 1.990 . S
O105 C119 1.253 . S
Mg106 O105 1.990 . S
Mg106 O109 2.180 . S
Mg106 O110 2.117 . S
Mg106 O124 2.030 . S
O107 Mg108 2.072 . S
O107 C119 1.260 . S
Mg108 O107 2.072 . S
Mg108 O109 2.099 . S
Mg108 O111 2.079 . S
Mg108 O112 2.072 . S
Mg108 O114 2.099 . S
Mg108 O125 2.079 . S
O109 Mg106 2.180 . S
O109 Mg108 2.099 . S
O109 C120 1.279 . S
O110 Mg106 2.117 . S
O110 C120 1.250 . S
O111 Mg108 2.079 . S
O111 C121 1.264 . S
O112 Mg108 2.072 . S
O112 C122 1.260 . S
Mg113 O114 2.180 . S
Mg113 O115 2.030 . S
Mg113 O116 1.990 . S
Mg113 O117 2.117 . S
O114 Mg108 2.099 . S
O114 Mg113 2.180 . S
O114 C123 1.279 . S
O115 Mg113 2.030 . S
O115 C121 1.248 . S
O116 Mg113 1.990 . S
O116 C122 1.253 . S
O117 Mg113 2.117 . S
O117 C123 1.250 . S
C118 O124 1.248 . S
C118 O125 1.264 . S
C119 O105 1.253 . S
C119 O107 1.260 . S
C120 O109 1.279 . S
C120 O110 1.250 . S
C121 O111 1.264 . S
C121 O115 1.248 . S
C122 O112 1.260 . S
C122 O116 1.253 . S
C123 O114 1.279 . S
C123 O117 1.250 . S
O124 Mg106 2.030 . S
O124 C118 1.248 . S
O125 Mg108 2.079 . S
O125 C118 1.264 . S
C126 C127 1.349 . S
C126 C128 1.327 . S
C126 H151 0.950 . S
C127 C126 1.349 . S
C127 C143 1.349 . S
C128 C126 1.327 . S
C128 C147 1.429 . S
C128 H152 0.950 . S
C129 C146 1.574 . S
C129 C148 1.368 . S
C129 H153 0.949 . S
H130 C134 0.949 . S
C131 C132 1.349 . S
C131 C133 1.327 . S
C131 H154 0.950 . S
C132 C131 1.349 . S
C132 C144 1.349 . S
C133 C131 1.327 . S
C133 C149 1.429 . S
C133 H155 0.950 . S
C134 H130 0.949 . S
C134 C142 1.574 . S
C134 C150 1.368 . S
H135 C143 0.950 . S
H136 C141 0.950 . S
H137 C142 0.949 . S
H138 C144 0.950 1_554 S
H139 C145 0.950 . S
H140 C146 0.949 . S
C141 H136 0.950 . S
C141 C143 1.327 . S
C141 C147 1.429 . S
C142 C134 1.574 . S
C142 H137 0.949 . S
C142 C148 1.368 . S
C143 C127 1.349 . S
C143 H135 0.950 . S
C143 C141 1.327 . S
C144 C132 1.349 . S
C144 H138 0.950 1_556 S
C144 C145 1.327 . S
C145 H139 0.950 . S
C145 C144 1.327 . S
C145 C149 1.429 . S
C146 C129 1.574 . S
C146 H140 0.949 . S
C146 C150 1.368 . S
C147 C128 1.429 . S
C147 C141 1.429 . S
C147 C148 1.523 . S
C148 C129 1.368 . S
C148 C142 1.368 . S
C148 C147 1.523 . S
C149 C133 1.429 . S
C149 C145 1.429 . S
C149 C150 1.523 . S
C150 C134 1.368 . S
C150 C146 1.368 . S
C150 C149 1.523 . S
H151 C126 0.950 . S
H152 C128 0.950 . S
H153 C129 0.949 . S
H154 C131 0.950 . S
H155 C133 0.950 . S
C156 C157 1.349 . S
C156 C158 1.327 . S
C156 H181 0.950 . S
C157 C156 1.349 . S
C157 C173 1.349 . S
C158 C156 1.327 . S
C158 C177 1.429 . S
C158 H182 0.950 . S
C159 C176 1.574 1_455 S
C159 C178 1.368 . S
C159 H183 0.949 . S
H160 C164 0.949 . S
C161 C162 1.349 . S
C161 C163 1.327 . S
C161 H184 0.950 . S
C162 C161 1.349 . S
C162 C174 1.349 . S
C163 C161 1.327 . S
C163 C179 1.429 . S
C163 H185 0.950 . S
C164 H160 0.949 . S
C164 C172 1.574 1_655 S
C164 C180 1.368 . S
H165 C173 0.950 . S
H166 C171 0.950 . S
H167 C172 0.949 . S
H168 C174 0.950 . S
H169 C175 0.950 . S
H170 C176 0.949 . S
C171 H166 0.950 . S
C171 C173 1.327 . S
C171 C177 1.429 . S
C172 C164 1.574 1_455 S
C172 H167 0.949 . S
C172 C178 1.368 . S
C173 C157 1.349 . S
C173 H165 0.950 . S
C173 C171 1.327 . S
C174 C162 1.349 . S
C174 H168 0.950 . S
C174 C175 1.327 . S
C175 H169 0.950 . S
C175 C174 1.327 . S
C175 C179 1.429 . S
C176 C159 1.574 1_655 S
C176 H170 0.949 . S
C176 C180 1.368 . S
C177 C158 1.429 . S
C177 C171 1.429 . S
C177 C178 1.523 . S
C178 C159 1.368 . S
C178 C172 1.368 . S
C178 C177 1.523 . S
C179 C163 1.429 . S
C179 C175 1.429 . S
C179 C180 1.523 . S
C180 C164 1.368 . S
C180 C176 1.368 . S
C180 C179 1.523 . S
H181 C156 0.950 . S
H182 C158 0.950 . S
H183 C159 0.949 . S
H184 C161 0.950 . S
H185 C163 0.950 . S
C186 C187 1.349 . S
C186 C188 1.327 . S
C186 H211 0.950 . S
C187 C186 1.349 . S
C187 C203 1.349 . S
C188 C186 1.327 . S
C188 C207 1.429 . S
C188 H212 0.950 . S
C189 C206 1.574 . S
C189 C208 1.368 . S
C189 H213 0.949 . S
H190 C194 0.949 . S
C191 C192 1.349 . S
C191 C193 1.327 . S
C191 H214 0.950 . S
C192 C191 1.349 . S
C192 C204 1.349 . S
C193 C191 1.327 . S
C193 C209 1.429 . S
C193 H215 0.950 . S
C194 H190 0.949 . S
C194 C202 1.574 1_565 S
C194 C210 1.368 . S
H195 C203 0.950 . S
H196 C201 0.950 . S
H197 C202 0.949 . S
H198 C204 0.950 . S
H199 C205 0.950 . S
H200 C206 0.949 1_565 S
C201 H196 0.950 . S
C201 C203 1.327 . S
C201 C207 1.429 . S
C202 C194 1.574 1_545 S
C202 H197 0.949 . S
C202 C208 1.368 . S
C203 C187 1.349 . S
C203 H195 0.950 . S
C203 C201 1.327 . S
C204 C192 1.349 . S
C204 H198 0.950 . S
C204 C205 1.327 . S
C205 H199 0.950 . S
C205 C204 1.327 . S
C205 C209 1.429 . S
C206 C189 1.574 . S
C206 H200 0.949 1_545 S
C206 C210 1.368 1_545 S
C207 C188 1.429 . S
C207 C201 1.429 . S
C207 C208 1.523 . S
C208 C189 1.368 . S
C208 C202 1.368 . S
C208 C207 1.523 . S
C209 C193 1.429 . S
C209 C205 1.429 . S
C209 C210 1.523 . S
C210 C194 1.368 . S
C210 C206 1.368 1_565 S
C210 C209 1.523 . S
H211 C186 0.950 . S
H212 C188 0.950 . S
H213 C189 0.949 . S
H214 C191 0.950 . S
H215 C193 0.950 . S
C216 C217 1.349 . S
C216 C218 1.327 . S
C216 H241 0.950 . S
C217 C216 1.349 . S
C217 C233 1.349 . S
C218 C216 1.327 . S
C218 C237 1.429 . S
C218 H242 0.950 . S
C219 C236 1.574 . S
C219 C238 1.368 . S
C219 H243 0.949 . S
H220 C224 0.949 . S
C221 C222 1.349 . S
C221 C223 1.327 . S
C221 H244 0.950 . S
C222 C221 1.349 . S
C222 C234 1.349 . S
C223 C221 1.327 . S
C223 C239 1.429 . S
C223 H245 0.950 . S
C224 H220 0.949 . S
C224 C232 1.574 . S
C224 C240 1.368 . S
H225 C233 0.950 . S
H226 C231 0.950 . S
H227 C232 0.949 . S
H228 C234 0.950 1_554 S
H229 C235 0.950 . S
H230 C236 0.949 . S
C231 H226 0.950 . S
C231 C233 1.327 . S
C231 C237 1.429 . S
C232 C224 1.574 . S
C232 H227 0.949 . S
C232 C238 1.368 . S
C233 C217 1.349 . S
C233 H225 0.950 . S
C233 C231 1.327 . S
C234 C222 1.349 . S
C234 H228 0.950 1_556 S
C234 C235 1.327 . S
C235 H229 0.950 . S
C235 C234 1.327 . S
C235 C239 1.429 . S
C236 C219 1.574 . S
C236 H230 0.949 . S
C236 C240 1.368 . S
C237 C218 1.429 . S
C237 C231 1.429 . S
C237 C238 1.523 . S
C238 C219 1.368 . S
C238 C232 1.368 . S
C238 C237 1.523 . S
C239 C223 1.429 . S
C239 C235 1.429 . S
C239 C240 1.523 . S
C240 C224 1.368 . S
C240 C236 1.368 . S
C240 C239 1.523 . S
H241 C216 0.950 . S
H242 C218 0.950 . S
H243 C219 0.949 . S
H244 C221 0.950 . S
H245 C223 0.950 . S
C246 C247 1.349 . S
C246 C248 1.327 . S
C246 H271 0.950 . S
C247 C246 1.349 . S
C247 C263 1.349 . S
C248 C246 1.327 . S
C248 C267 1.429 . S
C248 H272 0.950 . S
C249 C266 1.574 . S
C249 C268 1.368 1_655 S
C249 H273 0.934 1_655 S
H250 C254 0.949 . S
C251 C252 1.349 . S
C251 C253 1.327 . S
C251 H274 0.950 . S
C252 C251 1.349 . S
C252 C264 1.349 . S
C253 C251 1.327 . S
C253 C269 1.429 . S
C253 H275 0.950 . S
C254 H250 0.949 . S
C254 C262 1.574 1_655 S
C254 C270 1.368 . S
H255 C263 0.950 . S
H256 C261 0.950 . S
H257 C262 0.949 . S
H258 C264 0.950 1_556 S
H259 C265 0.950 . S
H260 C266 0.949 . S
C261 H256 0.950 . S
C261 C263 1.327 . S
C261 C267 1.429 . S
C262 C254 1.574 1_455 S
C262 H257 0.949 . S
C262 C268 1.368 . S
C263 C247 1.349 . S
C263 H255 0.950 . S
C263 C261 1.327 . S
C264 C252 1.349 . S
C264 H258 0.950 1_554 S
C264 C265 1.327 . S
C265 H259 0.950 . S
C265 C264 1.327 . S
C265 C269 1.429 . S
C266 C249 1.574 . S
C266 H260 0.949 . S
C266 C270 1.368 . S
C267 C248 1.429 . S
C267 C261 1.429 . S
C267 C268 1.523 . S
C268 C249 1.368 1_455 S
C268 C262 1.368 . S
C268 C267 1.523 . S
C269 C253 1.429 . S
C269 C265 1.429 . S
C269 C270 1.523 . S
C270 C254 1.368 . S
C270 C266 1.368 . S
C270 C269 1.523 . S
H271 C246 0.950 . S
H272 C248 0.950 . S
H273 C249 0.934 1_455 S
H274 C251 0.950 . S
H275 C253 0.950 . S
C276 C277 1.349 . S
C276 C278 1.327 . S
C276 H301 0.950 . S
C277 C276 1.349 . S
C277 C293 1.349 . S
C278 C276 1.327 . S
C278 C297 1.429 . S
C278 H302 0.950 . S
C279 C296 1.574 . S
C279 C298 1.368 1_565 S
C279 H303 0.949 1_565 S
H280 C284 0.949 . S
C281 C282 1.349 . S
C281 C283 1.327 . S
C281 H304 0.950 . S
C282 C281 1.349 . S
C282 C294 1.349 . S
C283 C281 1.327 . S
C283 C299 1.429 . S
C283 H305 0.950 . S
C284 H280 0.949 . S
C284 C292 1.574 1_565 S
C284 C300 1.368 . S
H285 C293 0.950 . S
H286 C291 0.950 . S
H287 C292 0.949 . S
H288 C294 0.950 . S
H289 C295 0.950 . S
H290 C296 0.949 . S
C291 H286 0.950 . S
C291 C293 1.327 . S
C291 C297 1.429 . S
C292 C284 1.574 1_545 S
C292 H287 0.949 . S
C292 C298 1.368 . S
C293 C277 1.349 . S
C293 H285 0.950 . S
C293 C291 1.327 . S
C294 C282 1.349 . S
C294 H288 0.950 . S
C294 C295 1.327 . S
C295 H289 0.950 . S
C295 C294 1.327 . S
C295 C299 1.429 . S
C296 C279 1.574 . S
C296 H290 0.949 . S
C296 C300 1.368 . S
C297 C278 1.429 . S
C297 C291 1.429 . S
C297 C298 1.523 . S
C298 C279 1.368 1_545 S
C298 C292 1.368 . S
C298 C297 1.523 . S
C299 C283 1.429 . S
C299 C295 1.429 . S
C299 C300 1.523 . S
C300 C284 1.368 . S
C300 C296 1.368 . S
C300 C299 1.523 . S
H301 C276 0.950 . S
H302 C278 0.950 . S
H303 C279 0.949 1_545 S
H304 C281 0.950 . S
H305 C283 0.950 . S
C306 C307 1.349 . S
C306 C308 1.327 . S
C306 H331 0.950 . S
C307 C306 1.349 . S
C307 C323 1.349 . S
C308 C306 1.327 . S
C308 C327 1.429 . S
C308 H332 0.950 . S
C309 C326 1.574 . S
C309 C328 1.368 . S
C309 H333 0.949 . S
H310 C314 0.949 . S
C311 C312 1.349 . S
C311 C313 1.327 . S
C311 H334 0.950 . S
C312 C311 1.349 . S
C312 C324 1.349 . S
C313 C311 1.327 . S
C313 C329 1.429 . S
C313 H335 0.950 . S
C314 H310 0.949 . S
C314 C322 1.574 . S
C314 C330 1.368 . S
H315 C323 0.950 . S
H316 C321 0.950 . S
H317 C322 0.949 . S
H318 C324 0.950 . S
H319 C325 0.950 . S
H320 C326 0.949 . S
C321 H316 0.950 . S
C321 C323 1.327 . S
C321 C327 1.429 . S
C322 C314 1.574 . S
C322 H317 0.949 . S
C322 C328 1.368 . S
C323 C307 1.349 . S
C323 H315 0.950 . S
C323 C321 1.327 . S
C324 C312 1.349 . S
C324 H318 0.950 . S
C324 C325 1.327 . S
C325 H319 0.950 . S
C325 C324 1.327 . S
C325 C329 1.429 . S
C326 C309 1.574 . S
C326 H320 0.949 . S
C326 C330 1.368 . S
C327 C308 1.429 . S
C327 C321 1.429 . S
C327 C328 1.523 . S
C328 C309 1.368 . S
C328 C322 1.368 . S
C328 C327 1.523 . S
C329 C313 1.429 . S
C329 C325 1.429 . S
C329 C330 1.523 . S
C330 C314 1.368 . S
C330 C326 1.368 . S
C330 C329 1.523 . S
H331 C306 0.950 . S
H332 C308 0.950 . S
H333 C309 0.949 . S
H334 C311 0.950 . S
H335 C313 0.950 . S
C336 C337 1.349 . S
C336 C338 1.327 . S
C336 H361 0.950 . S
C337 C336 1.349 . S
C337 C353 1.349 . S
C338 C336 1.327 . S
C338 C357 1.429 1_554 S
C338 H362 0.950 . S
C339 C356 1.574 . S
C339 C358 1.368 . S
C339 H363 0.949 . S
H340 C344 0.949 . S
C341 C342 1.349 . S
C341 C343 1.327 . S
C341 H364 0.950 . S
C342 C341 1.349 . S
C342 C354 1.349 . S
C343 C341 1.327 . S
C343 C359 1.429 . S
C343 H365 0.950 . S
C344 H340 0.949 . S
C344 C352 1.574 . S
C344 C360 1.368 . S
H345 C353 0.950 . S
H346 C351 0.950 . S
H347 C352 0.949 . S
H348 C354 0.950 . S
H349 C355 0.950 . S
H350 C356 0.949 . S
C351 H346 0.950 . S
C351 C353 1.327 . S
C351 C357 1.429 1_554 S
C352 C344 1.574 . S
C352 H347 0.949 . S
C352 C358 1.368 . S
C353 C337 1.349 . S
C353 H345 0.950 . S
C353 C351 1.327 . S
C354 C342 1.349 . S
C354 H348 0.950 . S
C354 C355 1.327 . S
C355 H349 0.950 . S
C355 C354 1.327 . S
C355 C359 1.429 . S
C356 C339 1.574 . S
C356 H350 0.949 . S
C356 C360 1.368 . S
C357 C338 1.429 1_556 S
C357 C351 1.429 1_556 S
C357 C358 1.523 . S
C358 C339 1.368 . S
C358 C352 1.368 . S
C358 C357 1.523 . S
C359 C343 1.429 . S
C359 C355 1.429 . S
C359 C360 1.523 . S
C360 C344 1.368 . S
C360 C356 1.368 . S
C360 C359 1.523 . S
H361 C336 0.950 . S
H362 C338 0.950 . S
H363 C339 0.949 . S
H364 C341 0.950 . S
H365 C343 0.950 . S
C366 C367 1.349 . S
C366 C368 1.327 . S
C366 H391 0.950 . S
C367 C366 1.349 . S
C367 C383 1.349 . S
C368 C366 1.327 . S
C368 C387 1.429 . S
C368 H392 0.950 . S
C369 C386 1.574 . S
C369 C388 1.368 . S
C369 H393 0.949 . S
H370 C374 0.949 . S
C371 C372 1.349 . S
C371 C373 1.327 . S
C371 H394 0.950 . S
C372 C371 1.349 . S
C372 C384 1.349 . S
C373 C371 1.327 . S
C373 C389 1.429 1_556 S
C373 H395 0.950 1_556 S
C374 H370 0.949 . S
C374 C382 1.574 . S
C374 C390 1.368 . S
H375 C383 0.950 . S
H376 C381 0.950 . S
H377 C382 0.949 . S
H378 C384 0.950 . S
H379 C385 0.950 1_554 S
H380 C386 0.949 . S
C381 H376 0.950 . S
C381 C383 1.327 . S
C381 C387 1.429 . S
C382 C374 1.574 . S
C382 H377 0.949 . S
C382 C388 1.368 . S
C383 C367 1.349 . S
C383 H375 0.950 . S
C383 C381 1.327 . S
C384 C372 1.349 . S
C384 H378 0.950 . S
C384 C385 1.327 . S
C385 H379 0.950 1_556 S
C385 C384 1.327 . S
C385 C389 1.429 1_556 S
C386 C369 1.574 . S
C386 H380 0.949 . S
C386 C390 1.368 . S
C387 C368 1.429 . S
C387 C381 1.429 . S
C387 C388 1.523 . S
C388 C369 1.368 . S
C388 C382 1.368 . S
C388 C387 1.523 . S
C389 C373 1.429 1_554 S
C389 C385 1.429 1_554 S
C389 C390 1.523 . S
C390 C374 1.368 . S
C390 C386 1.368 . S
C390 C389 1.523 . S
H391 C366 0.950 . S
H392 C368 0.950 . S
H393 C369 0.949 . S
H394 C371 0.950 . S
H395 C373 0.950 1_554 S
C396 C397 1.349 . S
C396 C398 1.327 . S
C396 H421 0.950 . S
C397 C396 1.349 . S
C397 C413 1.349 . S
C398 C396 1.327 . S
C398 C417 1.429 . S
C398 H422 0.950 . S
C399 C416 1.574 . S
C399 C418 1.368 . S
C399 H423 0.949 . S
H400 C404 0.949 . S
C401 C402 1.349 . S
C401 C403 1.327 . S
C401 H424 0.950 . S
C402 C401 1.349 . S
C402 C414 1.349 . S
C403 C401 1.327 . S
C403 C419 1.429 . S
C403 H425 0.950 . S
C404 H400 0.949 . S
C404 C412 1.574 . S
C404 C420 1.368 . S
H405 C413 0.950 . S
H406 C411 0.950 . S
H407 C412 0.949 . S
H408 C414 0.950 . S
H409 C415 0.950 . S
H410 C416 0.949 . S
C411 H406 0.950 . S
C411 C413 1.327 . S
C411 C417 1.429 . S
C412 C404 1.574 . S
C412 H407 0.949 . S
C412 C418 1.368 . S
C413 C397 1.349 . S
C413 H405 0.950 . S
C413 C411 1.327 . S
C414 C402 1.349 . S
C414 H408 0.950 . S
C414 C415 1.327 . S
C415 H409 0.950 . S
C415 C414 1.327 . S
C415 C419 1.429 . S
C416 C399 1.574 . S
C416 H410 0.949 . S
C416 C420 1.368 . S
C417 C398 1.429 . S
C417 C411 1.429 . S
C417 C418 1.523 . S
C418 C399 1.368 . S
C418 C412 1.368 . S
C418 C417 1.523 . S
C419 C403 1.429 . S
C419 C415 1.429 . S
C419 C420 1.523 . S
C420 C404 1.368 . S
C420 C416 1.368 . S
C420 C419 1.523 . S
H421 C396 0.950 . S
H422 C398 0.950 . S
H423 C399 0.949 . S
H424 C401 0.950 . S
H425 C403 0.950 . S
C426 C427 1.349 . S
C426 C428 1.327 . S
C426 H451 0.950 . S
C427 C426 1.349 . S
C427 C443 1.349 . S
C428 C426 1.327 . S
C428 C447 1.429 . S
C428 H452 0.950 . S
C429 C446 1.574 . S
C429 C448 1.368 . S
C429 H453 0.949 . S
H430 C434 0.949 . S
C431 C432 1.349 . S
C431 C433 1.327 . S
C431 H454 0.950 . S
C432 C431 1.349 . S
C432 C444 1.349 . S
C433 C431 1.327 . S
C433 C449 1.429 1_554 S
C433 H455 0.950 . S
C434 H430 0.949 . S
C434 C442 1.574 . S
C434 C450 1.368 . S
H435 C443 0.950 . S
H436 C441 0.950 . S
H437 C442 0.949 . S
H438 C444 0.950 . S
H439 C445 0.950 . S
H440 C446 0.949 . S
C441 H436 0.950 . S
C441 C443 1.327 . S
C441 C447 1.429 . S
C442 C434 1.574 . S
C442 H437 0.949 . S
C442 C448 1.368 . S
C443 C427 1.349 . S
C443 H435 0.950 . S
C443 C441 1.327 . S
C444 C432 1.349 . S
C444 H438 0.950 . S
C444 C445 1.327 . S
C445 H439 0.950 . S
C445 C444 1.327 . S
C445 C449 1.429 1_554 S
C446 C429 1.574 . S
C446 H440 0.949 . S
C446 C450 1.368 . S
C447 C428 1.429 . S
C447 C441 1.429 . S
C447 C448 1.523 . S
C448 C429 1.368 . S
C448 C442 1.368 . S
C448 C447 1.523 . S
C449 C433 1.429 1_556 S
C449 C445 1.429 1_556 S
C449 C450 1.523 . S
C450 C434 1.368 . S
C450 C446 1.368 . S
C450 C449 1.523 . S
H451 C426 0.950 . S
H452 C428 0.950 . S
H453 C429 0.949 . S
H454 C431 0.950 . S
H455 C433 0.950 . S
C456 C457 1.349 . S
C456 C458 1.327 . S
C456 H481 0.950 . S
C457 C456 1.349 . S
C457 C473 1.349 . S
C458 C456 1.327 . S
C458 C477 1.429 . S
C458 H482 0.950 . S
C459 C476 1.574 . S
C459 C478 1.368 . S
C459 H483 0.949 . S
H460 C464 0.949 . S
C461 C462 1.349 . S
C461 C463 1.327 . S
C461 H484 0.950 . S
C462 C461 1.349 . S
C462 C474 1.349 . S
C463 C461 1.327 . S
C463 C479 1.429 1_556 S
C463 H485 0.950 1_556 S
C464 H460 0.949 . S
C464 C472 1.574 . S
C464 C480 1.368 . S
H465 C473 0.950 . S
H466 C471 0.950 . S
H467 C472 0.949 . S
H468 C474 0.950 . S
H469 C475 0.950 1_554 S
H470 C476 0.949 . S
C471 H466 0.950 . S
C471 C473 1.327 . S
C471 C477 1.429 . S
C472 C464 1.574 . S
C472 H467 0.949 . S
C472 C478 1.368 . S
C473 C457 1.349 . S
C473 H465 0.950 . S
C473 C471 1.327 . S
C474 C462 1.349 . S
C474 H468 0.950 . S
C474 C475 1.327 . S
C475 H469 0.950 1_556 S
C475 C474 1.327 . S
C475 C479 1.429 1_556 S
C476 C459 1.574 . S
C476 H470 0.949 . S
C476 C480 1.368 . S
C477 C458 1.429 . S
C477 C471 1.429 . S
C477 C478 1.523 . S
C478 C459 1.368 . S
C478 C472 1.368 . S
C478 C477 1.523 . S
C479 C463 1.429 1_554 S
C479 C475 1.429 1_554 S
C479 C480 1.523 . S
C480 C464 1.368 . S
C480 C476 1.368 . S
C480 C479 1.523 . S
H481 C456 0.950 . S
H482 C458 0.950 . S
H483 C459 0.949 . S
H484 C461 0.950 . S
H485 C463 0.950 1_554 S
C486 C487 1.349 . S
C486 C488 1.327 . S
C486 H511 0.950 1_554 S
C487 C486 1.349 . S
C487 C503 1.349 . S
C488 C486 1.327 . S
C488 C507 1.429 . S
C488 H512 0.950 . S
C489 C506 1.574 . S
C489 C508 1.368 . S
C489 H513 0.949 . S
H490 C494 0.949 . S
C491 C492 1.349 . S
C491 C493 1.327 . S
C491 H514 0.950 . S
C492 C491 1.349 . S
C492 C504 1.349 . S
C493 C491 1.327 . S
C493 C509 1.429 . S
C493 H515 0.950 . S
C494 H490 0.949 . S
C494 C502 1.574 . S
C494 C510 1.368 . S
H495 C503 0.950 . S
H496 C501 0.950 . S
H497 C502 0.949 . S
H498 C504 0.950 . S
H499 C505 0.950 . S
H500 C506 0.949 . S
C501 H496 0.950 . S
C501 C503 1.327 . S
C501 C507 1.429 . S
C502 C494 1.574 . S
C502 H497 0.949 . S
C502 C508 1.368 . S
C503 C487 1.349 . S
C503 H495 0.950 . S
C503 C501 1.327 . S
C504 C492 1.349 . S
C504 H498 0.950 . S
C504 C505 1.327 . S
C505 H499 0.950 . S
C505 C504 1.327 . S
C505 C509 1.429 . S
C506 C489 1.574 . S
C506 H500 0.949 . S
C506 C510 1.368 . S
C507 C488 1.429 . S
C507 C501 1.429 . S
C507 C508 1.523 . S
C508 C489 1.368 . S
C508 C502 1.368 . S
C508 C507 1.523 . S
C509 C493 1.429 . S
C509 C505 1.429 . S
C509 C510 1.523 . S
C510 C494 1.368 . S
C510 C506 1.368 . S
C510 C509 1.523 . S
H511 C486 0.950 1_556 S
H512 C488 0.950 . S
H513 C489 0.949 . S
H514 C491 0.950 . S
H515 C493 0.950 . S
C516 C517 1.349 . S
C516 C518 1.327 . S
C516 H541 0.950 . S
C517 C516 1.349 . S
C517 C533 1.349 . S
C518 C516 1.327 . S
C518 C537 1.429 . S
C518 H542 0.950 . S
C519 C536 1.574 . S
C519 C538 1.368 . S
C519 H543 0.949 . S
H520 C524 0.949 . S
C521 C522 1.349 . S
C521 C523 1.327 . S
C521 H544 0.950 . S
C522 C521 1.349 . S
C522 C534 1.349 . S
C523 C521 1.327 . S
C523 C539 1.429 . S
C523 H545 0.950 . S
C524 H520 0.949 . S
C524 C532 1.574 . S
C524 C540 1.368 . S
H525 C533 0.950 . S
H526 C531 0.950 . S
H527 C532 0.949 . S
H528 C534 0.950 . S
H529 C535 0.950 . S
H530 C536 0.949 . S
C531 H526 0.950 . S
C531 C533 1.327 . S
C531 C537 1.429 . S
C532 C524 1.574 . S
C532 H527 0.949 . S
C532 C538 1.368 . S
C533 C517 1.349 . S
C533 H525 0.950 . S
C533 C531 1.327 . S
C534 C522 1.349 . S
C534 H528 0.950 . S
C534 C535 1.327 . S
C535 H529 0.950 . S
C535 C534 1.327 . S
C535 C539 1.429 . S
C536 C519 1.574 . S
C536 H530 0.949 . S
C536 C540 1.368 . S
C537 C518 1.429 . S
C537 C531 1.429 . S
C537 C538 1.523 . S
C538 C519 1.368 . S
C538 C532 1.368 . S
C538 C537 1.523 . S
C539 C523 1.429 . S
C539 C535 1.429 . S
C539 C540 1.523 . S
C540 C524 1.368 . S
C540 C536 1.368 . S
C540 C539 1.523 . S
H541 C516 0.950 . S
H542 C518 0.950 . S
H543 C519 0.949 . S
H544 C521 0.950 . S
H545 C523 0.950 . S
C546 C547 1.349 . S
C546 C548 1.327 . S
C546 H571 0.950 . S
C547 C546 1.349 . S
C547 C563 1.349 . S
C548 C546 1.327 . S
C548 C567 1.429 . S
C548 H572 0.950 . S
C549 C566 1.574 . S
C549 C568 1.368 . S
C549 H573 0.949 . S
H550 C554 0.949 . S
C551 C552 1.349 . S
C551 C553 1.327 . S
C551 H574 0.950 . S
C552 C551 1.349 . S
C552 C564 1.349 . S
C553 C551 1.327 . S
C553 C569 1.429 . S
C553 H575 0.950 . S
C554 H550 0.949 . S
C554 C562 1.574 . S
C554 C570 1.368 . S
H555 C563 0.950 1_554 S
H556 C561 0.950 . S
H557 C562 0.949 . S
H558 C564 0.950 . S
H559 C565 0.950 . S
H560 C566 0.949 . S
C561 H556 0.950 . S
C561 C563 1.327 . S
C561 C567 1.429 . S
C562 C554 1.574 . S
C562 H557 0.949 . S
C562 C568 1.368 . S
C563 C547 1.349 . S
C563 H555 0.950 1_556 S
C563 C561 1.327 . S
C564 C552 1.349 . S
C564 H558 0.950 . S
C564 C565 1.327 . S
C565 H559 0.950 . S
C565 C564 1.327 . S
C565 C569 1.429 . S
C566 C549 1.574 . S
C566 H560 0.949 . S
C566 C570 1.368 . S
C567 C548 1.429 . S
C567 C561 1.429 . S
C567 C568 1.523 . S
C568 C549 1.368 . S
C568 C562 1.368 . S
C568 C567 1.523 . S
C569 C553 1.429 . S
C569 C565 1.429 . S
C569 C570 1.523 . S
C570 C554 1.368 . S
C570 C566 1.368 . S
C570 C569 1.523 . S
H571 C546 0.950 . S
H572 C548 0.950 . S
H573 C549 0.949 . S
H574 C551 0.950 . S
H575 C553 0.950 . S
C576 C577 1.349 . S
C576 C578 1.327 . S
C576 H601 0.950 . S
C577 C576 1.349 . S
C577 C593 1.349 . S
C578 C576 1.327 . S
C578 C597 1.429 . S
C578 H602 0.950 . S
C579 C596 1.574 . S
C579 C598 1.368 . S
C579 H603 0.949 . S
H580 C584 0.949 . S
C581 C582 1.349 . S
C581 C583 1.327 . S
C581 H604 0.950 1_554 S
C582 C581 1.349 . S
C582 C594 1.349 . S
C583 C581 1.327 . S
C583 C599 1.429 . S
C583 H605 0.950 . S
C584 H580 0.949 . S
C584 C592 1.574 . S
C584 C600 1.368 . S
H585 C593 0.950 . S
H586 C591 0.950 . S
H587 C592 0.949 . S
H588 C594 0.950 . S
H589 C595 0.950 . S
H590 C596 0.949 . S
C591 H586 0.950 . S
C591 C593 1.327 . S
C591 C597 1.429 . S
C592 C584 1.574 . S
C592 H587 0.949 . S
C592 C598 1.368 . S
C593 C577 1.349 . S
C593 H585 0.950 . S
C593 C591 1.327 . S
C594 C582 1.349 . S
C594 H588 0.950 . S
C594 C595 1.327 . S
C595 H589 0.950 . S
C595 C594 1.327 . S
C595 C599 1.429 . S
C596 C579 1.574 . S
C596 H590 0.949 . S
C596 C600 1.368 . S
C597 C578 1.429 . S
C597 C591 1.429 . S
C597 C598 1.523 . S
C598 C579 1.368 . S
C598 C592 1.368 . S
C598 C597 1.523 . S
C599 C583 1.429 . S
C599 C595 1.429 . S
C599 C600 1.523 . S
C600 C584 1.368 . S
C600 C596 1.368 . S
C600 C599 1.523 . S
H601 C576 0.950 . S
H602 C578 0.950 . S
H603 C579 0.949 . S
H604 C581 0.950 1_556 S
H605 C583 0.950 . S
C606 C607 1.349 . S
C606 C608 1.327 . S
C606 H631 0.950 . S
C607 C606 1.349 . S
C607 C623 1.349 . S
C608 C606 1.327 . S
C608 C627 1.429 . S
C608 H632 0.950 . S
C609 C626 1.574 . S
C609 C628 1.368 . S
C609 H633 0.949 . S
H610 C614 0.949 . S
C611 C612 1.349 . S
C611 C613 1.327 . S
C611 H634 0.950 . S
C612 C611 1.349 . S
C612 C624 1.349 . S
C613 C611 1.327 . S
C613 C629 1.429 . S
C613 H635 0.950 . S
C614 H610 0.949 . S
C614 C622 1.574 . S
C614 C630 1.368 . S
H615 C623 0.950 . S
H616 C621 0.950 . S
H617 C622 0.949 . S
H618 C624 0.950 . S
H619 C625 0.950 . S
H620 C626 0.949 . S
C621 H616 0.950 . S
C621 C623 1.327 . S
C621 C627 1.429 . S
C622 C614 1.574 . S
C622 H617 0.949 . S
C622 C628 1.368 . S
C623 C607 1.349 . S
C623 H615 0.950 . S
C623 C621 1.327 . S
C624 C612 1.349 . S
C624 H618 0.950 . S
C624 C625 1.327 . S
C625 H619 0.950 . S
C625 C624 1.327 . S
C625 C629 1.429 . S
C626 C609 1.574 . S
C626 H620 0.949 . S
C626 C630 1.368 . S
C627 C608 1.429 . S
C627 C621 1.429 . S
C627 C628 1.523 . S
C628 C609 1.368 . S
C628 C622 1.368 . S
C628 C627 1.523 . S
C629 C613 1.429 . S
C629 C625 1.429 . S
C629 C630 1.523 . S
C630 C614 1.368 . S
C630 C626 1.368 . S
C630 C629 1.523 . S
H631 C606 0.950 . S
H632 C608 0.950 . S
H633 C609 0.949 . S
H634 C611 0.950 . S
H635 C613 0.950 . S
C636 C637 1.349 . S
C636 C638 1.327 . S
C636 H661 0.950 . S
C637 C636 1.349 . S
C637 C653 1.349 . S
C638 C636 1.327 . S
C638 C657 1.429 . S
C638 H662 0.950 . S
C639 C656 1.574 . S
C639 C658 1.368 . S
C639 H663 0.949 . S
H640 C644 0.949 . S
C641 C642 1.349 . S
C641 C643 1.327 . S
C641 H664 0.950 . S
C642 C641 1.349 . S
C642 C654 1.349 . S
C643 C641 1.327 . S
C643 C659 1.429 . S
C643 H665 0.950 . S
C644 H640 0.949 . S
C644 C652 1.574 . S
C644 C660 1.368 . S
H645 C653 0.950 1_554 S
H646 C651 0.950 . S
H647 C652 0.949 . S
H648 C654 0.950 . S
H649 C655 0.950 . S
H650 C656 0.949 . S
C651 H646 0.950 . S
C651 C653 1.327 . S
C651 C657 1.429 . S
C652 C644 1.574 . S
C652 H647 0.949 . S
C652 C658 1.368 . S
C653 C637 1.349 . S
C653 H645 0.950 1_556 S
C653 C651 1.327 . S
C654 C642 1.349 . S
C654 H648 0.950 . S
C654 C655 1.327 . S
C655 H649 0.950 . S
C655 C654 1.327 . S
C655 C659 1.429 . S
C656 C639 1.574 . S
C656 H650 0.949 . S
C656 C660 1.368 . S
C657 C638 1.429 . S
C657 C651 1.429 . S
C657 C658 1.523 . S
C658 C639 1.368 . S
C658 C652 1.368 . S
C658 C657 1.523 . S
C659 C643 1.429 . S
C659 C655 1.429 . S
C659 C660 1.523 . S
C660 C644 1.368 . S
C660 C656 1.368 . S
C660 C659 1.523 . S
H661 C636 0.950 . S
H662 C638 0.950 . S
H663 C639 0.949 . S
H664 C641 0.950 . S
H665 C643 0.950 . S
C127 C120 1.335 . S
C132 C13 1.422 . S
C157 C15 1.335 . S
C162 C34 1.422 . S
C187 C36 1.335 . S
C192 C55 1.422 . S
C217 C57 1.335 . S
C222 C76 1.422 . S
C247 C97 1.422 . S
C252 C78 1.335 . S
C277 C118 1.422 . S
C282 C99 1.335 . S
C307 C14 1.083 . S
C312 C16 1.077 . S
C337 C35 1.083 . S
C342 C37 1.077 . S
C367 C56 1.083 . S
C372 C58 1.077 . S
C397 C77 1.083 . S
C402 C79 1.077 . S
C427 C100 1.077 . S
C432 C98 1.083 . S
C457 C119 1.083 . S
C462 C121 1.077 . S
C487 C17 1.283 . S
C492 C102 1.169 . S
C517 C38 1.283 . S
C522 C123 1.170 . S
C547 C18 1.169 . S
C552 C59 1.283 . S
C577 C39 1.169 . S
C582 C80 1.283 . S
C607 C101 1.283 . S
C612 C60 1.170 . S
C637 C81 1.169 . S
C642 C122 1.283 . S
