# Generated by pormake.
# Topology umm, (4)-cn, num edge types: 1
# Building blocks:
#     Node 0, Type 0, BuildingBlock: NAWXER_clean_sbu_0, # of connection points: 4
#     Node 1, Type 0, BuildingBlock: NAWXER_clean_sbu_0, # of connection points: 4
#     Node 2, Type 0, BuildingBlock: NAWXER_clean_sbu_0, # of connection points: 4
#     Node 3, Type 0, BuildingBlock: NAWXER_clean_sbu_0, # of connection points: 4
#     Node 4, Type 0, BuildingBlock: NAWXER_clean_sbu_0, # of connection points: 4
#     Node 5, Type 0, BuildingBlock: NAWXER_clean_sbu_0, # of connection points: 4
#     Node 6, Type 0, BuildingBlock: NAWXER_clean_sbu_0, # of connection points: 4
#     Node 7, Type 0, BuildingBlock: NAWXER_clean_sbu_0, # of connection points: 4
#     Node 8, Type 0, BuildingBlock: NAWXER_clean_sbu_0, # of connection points: 4
#     Node 9, Type 0, BuildingBlock: NAWXER_clean_sbu_0, # of connection points: 4
#     Node 10, Type 0, BuildingBlock: NAWXER_clean_sbu_0, # of connection points: 4
#     Node 11, Type 0, BuildingBlock: NAWXER_clean_sbu_0, # of connection points: 4
#     Edge 12, Type (0, 0), BuildingBlock: MIFKUJ_clean_linker_0, # of connection points: 2
#     Edge 13, Type (0, 0), BuildingBlock: MIFKUJ_clean_linker_0, # of connection points: 2
#     Edge 14, Type (0, 0), BuildingBlock: MIFKUJ_clean_linker_0, # of connection points: 2
#     Edge 15, Type (0, 0), BuildingBlock: MIFKUJ_clean_linker_0, # of connection points: 2
#     Edge 16, Type (0, 0), BuildingBlock: MIFKUJ_clean_linker_0, # of connection points: 2
#     Edge 17, Type (0, 0), BuildingBlock: MIFKUJ_clean_linker_0, # of connection points: 2
#     Edge 18, Type (0, 0), BuildingBlock: MIFKUJ_clean_linker_0, # of connection points: 2
#     Edge 19, Type (0, 0), BuildingBlock: MIFKUJ_clean_linker_0, # of connection points: 2
#     Edge 20, Type (0, 0), BuildingBlock: MIFKUJ_clean_linker_0, # of connection points: 2
#     Edge 21, Type (0, 0), BuildingBlock: MIFKUJ_clean_linker_0, # of connection points: 2
#     Edge 22, Type (0, 0), BuildingBlock: MIFKUJ_clean_linker_0, # of connection points: 2
#     Edge 23, Type (0, 0), BuildingBlock: MIFKUJ_clean_linker_0, # of connection points: 2
#     Edge 24, Type (0, 0), BuildingBlock: MIFKUJ_clean_linker_0, # of connection points: 2
#     Edge 25, Type (0, 0), BuildingBlock: MIFKUJ_clean_linker_0, # of connection points: 2
#     Edge 26, Type (0, 0), BuildingBlock: MIFKUJ_clean_linker_0, # of connection points: 2
#     Edge 27, Type (0, 0), BuildingBlock: MIFKUJ_clean_linker_0, # of connection points: 2
#     Edge 28, Type (0, 0), BuildingBlock: MIFKUJ_clean_linker_0, # of connection points: 2
#     Edge 29, Type (0, 0), BuildingBlock: MIFKUJ_clean_linker_0, # of connection points: 2
#     Edge 30, Type (0, 0), BuildingBlock: MIFKUJ_clean_linker_0, # of connection points: 2
#     Edge 31, Type (0, 0), BuildingBlock: MIFKUJ_clean_linker_0, # of connection points: 2
#     Edge 32, Type (0, 0), BuildingBlock: MIFKUJ_clean_linker_0, # of connection points: 2
#     Edge 33, Type (0, 0), BuildingBlock: MIFKUJ_clean_linker_0, # of connection points: 2
#     Edge 34, Type (0, 0), BuildingBlock: MIFKUJ_clean_linker_0, # of connection points: 2
#     Edge 35, Type (0, 0), BuildingBlock: MIFKUJ_clean_linker_0, # of connection points: 2
# Relax obj value: 0.044
# Max RMSD: 0.161
# Mean RMSD: 0.161
data_MOF--net-umm--node1-NAWXER_clean_sbu_0--edge1-MIFKUJ_clean_linker_0
_symmetry_space_group_name_H-M    P1
_symmetry_Int_Tables_number       1
_symmetry_cell_setting            triclinic
loop_
_symmetry_equiv_pos_as_xyz
'x, y, z'
_cell_length_a     73.673151
_cell_length_b     73.6587
_cell_length_c     38.147503
_cell_angle_alpha  89.986913
_cell_angle_beta   90.029991
_cell_angle_gamma 120.01848
loop_
_atom_site_label
_atom_site_type_symbol
_atom_site_fract_x
_atom_site_fract_y
_atom_site_fract_z
_atom_type_partial_charge
C0 C 0.36096 0.53713 0.07343 0.0
C1 C 0.42276 0.53017 0.0923 0.0
O2 O 0.37784 0.55503 0.07522 0.0
Zn3 Zn 0.41084 0.56654 0.08423 0.0
O4 O 0.36186 0.52057 0.07873 0.0
Zn5 Zn 0.39176 0.5338 0.08535 0.0
O6 O 0.39714 0.54878 0.13603 0.0
O7 O 0.41737 0.58264 0.12663 0.0
O8 O 0.40365 0.51582 0.09081 0.0
O9 O 0.42742 0.54943 0.0903 0.0
O10 O 0.42284 0.58176 0.04167 0.0
O11 O 0.40339 0.54756 0.03412 0.0
C12 C 0.40742 0.5676 0.14785 0.0
C13 C 0.41499 0.56598 0.02134 0.0
C14 C 0.84896 0.41355 0.35523 0.0
C15 C 0.84047 0.40746 0.4819 0.0
O16 O 0.85495 0.40133 0.36825 0.0
Zn17 Zn 0.85733 0.39028 0.41982 0.0
O18 O 0.84228 0.42265 0.37539 0.0
Zn19 Zn 0.84486 0.41043 0.41824 0.0
O20 O 0.87846 0.42592 0.42386 0.0
O21 O 0.88717 0.40134 0.42465 0.0
O22 O 0.83591 0.41776 0.46052 0.0
O23 O 0.84834 0.39653 0.47026 0.0
O24 O 0.83974 0.36046 0.41422 0.0
O25 O 0.82234 0.37752 0.4099 0.0
C26 C 0.8926 0.42064 0.42579 0.0
C27 C 0.82263 0.36024 0.40867 0.0
C28 C 0.43654 0.84017 0.81847 0.0
C29 C 0.43909 0.85001 0.69198 0.0
O30 O 0.45532 0.84783 0.80681 0.0
Zn31 Zn 0.4705 0.85667 0.75616 0.0
O32 O 0.42173 0.83575 0.79705 0.0
Zn33 Zn 0.43804 0.84474 0.75478 0.0
O34 O 0.44775 0.82177 0.7454 0.0
O35 O 0.48219 0.83867 0.74987 0.0
O36 O 0.42334 0.84311 0.71227 0.0
O37 O 0.45724 0.8554 0.7047 0.0
O38 O 0.48986 0.88631 0.76153 0.0
O39 O 0.45676 0.8783 0.76132 0.0
C40 C 0.46516 0.82175 0.74401 0.0
C41 C 0.47629 0.89211 0.76326 0.0
C42 C 0.59229 0.4394 0.02337 0.0
C43 C 0.59771 0.4359 0.15004 0.0
O44 O 0.60455 0.45749 0.03682 0.0
Zn45 Zn 0.61545 0.47044 0.08872 0.0
O46 O 0.58292 0.42348 0.04321 0.0
Zn47 Zn 0.59495 0.43786 0.08642 0.0
O48 O 0.57982 0.45624 0.0924 0.0
O49 O 0.60467 0.48943 0.09397 0.0
O50 O 0.5873 0.42123 0.12837 0.0
O51 O 0.60886 0.45476 0.13878 0.0
O52 O 0.6453 0.48237 0.08346 0.0
O53 O 0.62773 0.44793 0.07823 0.0
C54 C 0.58532 0.4757 0.0948 0.0
C55 C 0.64519 0.46535 0.07739 0.0
C56 C 0.16138 0.59668 0.47853 0.0
C57 C 0.15395 0.59091 0.35148 0.0
O58 O 0.15277 0.60685 0.46658 0.0
Zn59 Zn 0.14486 0.61379 0.41583 0.0
O60 O 0.16742 0.58753 0.45731 0.0
Zn61 Zn 0.15801 0.59417 0.41457 0.0
O62 O 0.18002 0.62697 0.40594 0.0
O63 O 0.16248 0.64383 0.41089 0.0
O64 O 0.16095 0.58212 0.37173 0.0
O65 O 0.14758 0.60284 0.36442 0.0
O66 O 0.11499 0.60239 0.41966 0.0
O67 O 0.12423 0.57816 0.41975 0.0
C68 C 0.17962 0.64418 0.40497 0.0
C69 C 0.10986 0.58317 0.42111 0.0
C70 C 0.56973 0.16234 0.81238 0.0
C71 C 0.57076 0.15392 0.68629 0.0
O72 O 0.55117 0.15381 0.79946 0.0
Zn73 Zn 0.53721 0.14443 0.74811 0.0
O74 O 0.58521 0.16752 0.79212 0.0
Zn75 Zn 0.56996 0.15807 0.74897 0.0
O76 O 0.55871 0.17963 0.7389 0.0
O77 O 0.5242 0.16124 0.7403 0.0
O78 O 0.5861 0.16177 0.70753 0.0
O79 O 0.55204 0.14687 0.69788 0.0
O80 O 0.51911 0.11459 0.75311 0.0
O81 O 0.55268 0.12431 0.75444 0.0
C82 C 0.54091 0.17869 0.73588 0.0
C83 C 0.53338 0.10976 0.75557 0.0
C84 C 0.43883 0.5882 0.64731 0.0
C85 C 0.43545 0.59533 0.52088 0.0
O86 O 0.45697 0.60015 0.63381 0.0
Zn87 Zn 0.46989 0.61209 0.58239 0.0
O88 O 0.42272 0.5799 0.6277 0.0
Zn89 Zn 0.4372 0.592 0.5845 0.0
O90 O 0.4553 0.57651 0.57782 0.0
O91 O 0.48861 0.60111 0.57609 0.0
O92 O 0.42066 0.58495 0.54235 0.0
O93 O 0.4543 0.60614 0.53236 0.0
O94 O 0.48207 0.64193 0.58924 0.0
O95 O 0.44763 0.62469 0.59376 0.0
C96 C 0.4747 0.58181 0.57512 0.0
C97 C 0.46515 0.642 0.59531 0.0
C98 C 0.84195 0.43652 0.85453 0.0
C99 C 0.85091 0.43886 0.98118 0.0
O100 O 0.84999 0.45532 0.8663 0.0
Zn101 Zn 0.85932 0.47054 0.91672 0.0
O102 O 0.83735 0.42159 0.87578 0.0
Zn103 Zn 0.8465 0.43784 0.91814 0.0
O104 O 0.82425 0.44852 0.92642 0.0
O105 O 0.84197 0.48301 0.92277 0.0
O106 O 0.84374 0.42301 0.96105 0.0
O107 O 0.85717 0.45711 0.96811 0.0
O108 O 0.88915 0.48909 0.91147 0.0
O109 O 0.88012 0.4557 0.91226 0.0
C110 C 0.82473 0.46617 0.92793 0.0
C111 C 0.89438 0.47508 0.91021 0.0
C112 C 0.42072 0.89452 0.2483 0.0
C113 C 0.35865 0.82532 0.2603 0.0
O114 O 0.42547 0.87999 0.25035 0.0
Zn115 Zn 0.40893 0.84624 0.25492 0.0
O116 O 0.40157 0.8896 0.24882 0.0
Zn117 Zn 0.38967 0.85968 0.25292 0.0
O118 O 0.39935 0.85616 0.30501 0.0
O119 O 0.4195 0.84215 0.2986 0.0
O120 O 0.35968 0.84294 0.25651 0.0
O121 O 0.37559 0.82436 0.2598 0.0
O122 O 0.41691 0.83764 0.21283 0.0
O123 O 0.39644 0.85091 0.2025 0.0
C124 C 0.41065 0.8492 0.31855 0.0
C125 C 0.4072 0.84278 0.19113 0.0
C126 C 0.54091 0.36041 0.59662 0.0
C127 C 0.53132 0.42077 0.57957 0.0
O128 O 0.55849 0.37767 0.59492 0.0
Zn129 Zn 0.5689 0.41056 0.58636 0.0
O130 O 0.52398 0.36065 0.59172 0.0
Zn131 Zn 0.53627 0.39048 0.58582 0.0
O132 O 0.55095 0.3964 0.53492 0.0
O133 O 0.58474 0.41758 0.54358 0.0
O134 O 0.51747 0.40149 0.58135 0.0
O135 O 0.55077 0.42609 0.58098 0.0
O136 O 0.5842 0.42296 0.62878 0.0
O137 O 0.55025 0.40194 0.63693 0.0
C138 C 0.56962 0.40719 0.52268 0.0
C139 C 0.56862 0.41415 0.64942 0.0
C140 C 0.16264 0.56446 0.8512 0.0
C141 C 0.15472 0.56427 0.97802 0.0
O142 O 0.15377 0.54579 0.86372 0.0
Zn143 Zn 0.14558 0.53151 0.91491 0.0
O144 O 0.16887 0.57992 0.87192 0.0
Zn145 Zn 0.15915 0.56436 0.91506 0.0
O146 O 0.18079 0.55329 0.92489 0.0
O147 O 0.16288 0.51883 0.92127 0.0
O148 O 0.16211 0.57988 0.95731 0.0
O149 O 0.14817 0.5458 0.96568 0.0
O150 O 0.11569 0.51326 0.91087 0.0
O151 O 0.12538 0.54685 0.90946 0.0
C152 C 0.18014 0.53558 0.92682 0.0
C153 C 0.11084 0.52753 0.90851 0.0
C154 C 0.59355 0.15653 0.3121 0.0
C155 C 0.59652 0.16286 0.18525 0.0
O156 O 0.60463 0.14935 0.2985 0.0
Zn157 Zn 0.61481 0.14657 0.24649 0.0
O158 O 0.58495 0.16402 0.29253 0.0
Zn159 Zn 0.59509 0.15956 0.24897 0.0
O160 O 0.57905 0.12574 0.24508 0.0
O161 O 0.60339 0.11672 0.24235 0.0
O162 O 0.58677 0.16785 0.20707 0.0
O163 O 0.60758 0.15503 0.19637 0.0
O164 O 0.64487 0.16412 0.25049 0.0
O165 O 0.62806 0.18176 0.25447 0.0
C166 C 0.58413 0.11145 0.24274 0.0
C167 C 0.64529 0.18141 0.2551 0.0
H168 H 0.38223 0.54119 0.1995 0.0
H169 H 0.38568 0.54731 0.26295 0.0
H170 H 0.43908 0.60882 0.2461 0.0
H171 H 0.43557 0.60301 0.1827 0.0
H172 H 0.44525 0.58314 0.2962 0.0
H173 H 0.39654 0.6069 0.26933 0.0
H174 H 0.36402 0.60336 0.24448 0.0
H175 H 0.32734 0.55047 0.31125 0.0
H176 H 0.35967 0.5535 0.33615 0.0
H177 H 0.46136 0.6209 0.46928 0.0
H178 H 0.45528 0.61747 0.40606 0.0
H179 H 0.39429 0.56313 0.42277 0.0
H180 H 0.39998 0.56697 0.48613 0.0
H181 H 0.39156 0.58509 0.37204 0.0
H182 H 0.43798 0.55926 0.39794 0.0
H183 H 0.46935 0.56005 0.42248 0.0
H184 H 0.50888 0.61288 0.35747 0.0
H185 H 0.47774 0.61259 0.33289 0.0
C186 C 0.39459 0.55609 0.20929 0.0
C187 C 0.40862 0.57162 0.18607 0.0
C188 C 0.39651 0.55957 0.24551 0.0
C189 C 0.41261 0.57853 0.25914 0.0
C190 C 0.42654 0.5941 0.23605 0.0
C191 C 0.42445 0.59077 0.19985 0.0
C192 C 0.41544 0.58185 0.29753 0.0
C193 C 0.43368 0.58388 0.31279 0.0
C194 C 0.39997 0.58207 0.31915 0.0
C195 C 0.38053 0.5803 0.30434 0.0
C196 C 0.38154 0.59439 0.27849 0.0
C197 C 0.36315 0.5925 0.26444 0.0
C198 C 0.34363 0.57666 0.2762 0.0
C199 C 0.34247 0.56271 0.30212 0.0
C200 C 0.36083 0.56452 0.31624 0.0
C201 C 0.44659 0.60831 0.45951 0.0
C202 C 0.43121 0.59412 0.48273 0.0
C203 C 0.44317 0.60629 0.42332 0.0
C204 C 0.4245 0.58976 0.40951 0.0
C205 C 0.40885 0.57597 0.43271 0.0
C206 C 0.41214 0.57817 0.46896 0.0
C207 C 0.42152 0.58654 0.37093 0.0
C208 C 0.40321 0.58443 0.35557 0.0
C209 C 0.43677 0.58584 0.34921 0.0
C210 C 0.45554 0.58603 0.36384 0.0
C211 C 0.45337 0.57114 0.38907 0.0
C212 C 0.47111 0.57149 0.40295 0.0
C213 C 0.49109 0.58654 0.39161 0.0
C214 C 0.49338 0.60125 0.36627 0.0
C215 C 0.4757 0.60099 0.35234 0.0
H216 H 0.5048 0.58678 0.40238 0.0
H217 H 0.3294 0.57523 0.26529 0.0
H218 H 0.83334 0.43582 0.51638 0.0
H219 H 0.83128 0.43964 0.57972 0.0
H220 H 0.83918 0.38617 0.59721 0.0
H221 H 0.84153 0.38235 0.53382 0.0
H222 H 0.80693 0.3872 0.63937 0.0
H223 H 0.87973 0.43089 0.60745 0.0
H224 H 0.90887 0.45846 0.5732 0.0
H225 H 0.89244 0.50372 0.60857 0.0
H226 H 0.86297 0.47632 0.64262 0.0
H227 H 0.83463 0.40115 0.81941 0.0
H228 H 0.83202 0.39538 0.75616 0.0
H229 H 0.8394 0.45672 0.73997 0.0
H230 H 0.84283 0.46288 0.80322 0.0
H231 H 0.86289 0.45161 0.69616 0.0
H232 H 0.79103 0.40952 0.72915 0.0
H233 H 0.76084 0.38254 0.76237 0.0
H234 H 0.77365 0.33519 0.72452 0.0
H235 H 0.8041 0.36194 0.69143 0.0
C236 C 0.83446 0.42474 0.53365 0.0
C237 C 0.8377 0.40883 0.52007 0.0
C238 C 0.83332 0.42699 0.56982 0.0
C239 C 0.8352 0.41326 0.59308 0.0
C240 C 0.83769 0.39691 0.57964 0.0
C241 C 0.83911 0.39481 0.54345 0.0
C242 C 0.83543 0.41651 0.63143 0.0
C243 C 0.81925 0.40115 0.65197 0.0
C244 C 0.85122 0.435 0.64753 0.0
C245 C 0.86901 0.45151 0.62727 0.0
C246 C 0.88221 0.44668 0.60767 0.0
C247 C 0.89881 0.46229 0.58834 0.0
C248 C 0.90247 0.48282 0.58863 0.0
C249 C 0.88957 0.4878 0.60833 0.0
C250 C 0.87292 0.47224 0.62766 0.0
C251 C 0.83552 0.41334 0.80241 0.0
C252 C 0.83892 0.43247 0.81635 0.0
C253 C 0.83391 0.40998 0.76619 0.0
C254 C 0.83522 0.42549 0.74317 0.0
C255 C 0.83834 0.4445 0.75713 0.0
C256 C 0.84025 0.44799 0.79331 0.0
C257 C 0.8343 0.42229 0.70453 0.0
C258 C 0.85042 0.43766 0.6838 0.0
C259 C 0.81829 0.40392 0.68824 0.0
C260 C 0.79997 0.38777 0.70807 0.0
C261 C 0.78751 0.39338 0.72812 0.0
C262 C 0.77033 0.37813 0.74689 0.0
C263 C 0.76536 0.35718 0.74562 0.0
C264 C 0.77753 0.35143 0.72551 0.0
C265 C 0.79474 0.36663 0.70671 0.0
H266 H 0.75206 0.34539 0.76017 0.0
H267 H 0.91533 0.49488 0.57365 0.0
H268 H 0.46266 0.84163 0.87095 0.0
H269 H 0.45636 0.83965 0.93429 0.0
H270 H 0.39506 0.83172 0.91585 0.0
H271 H 0.40108 0.83341 0.85258 0.0
H272 H 0.41967 0.86345 0.96526 0.0
H273 H 0.39763 0.79106 0.94134 0.0
H274 H 0.40195 0.7622 0.91817 0.0
H275 H 0.45486 0.78031 0.98589 0.0
H276 H 0.45104 0.80948 0.00911 0.0
H277 H 0.382 0.84319 0.13887 0.0
H278 H 0.38572 0.8404 0.07576 0.0
H279 H 0.44046 0.83464 0.09382 0.0
H280 H 0.43625 0.83651 0.15704 0.0
H281 H 0.41909 0.8095 0.04387 0.0
H282 H 0.44322 0.88189 0.06673 0.0
H283 H 0.4414 0.91226 0.08958 0.0
H284 H 0.38823 0.89655 0.0238 0.0
H285 H 0.38955 0.8659 1.0009 0.0
C286 C 0.44776 0.83928 0.88037 0.0
C287 C 0.43237 0.83767 0.85671 0.0
C288 C 0.44418 0.83811 0.91655 0.0
C289 C 0.42523 0.8355 0.92972 0.0
C290 C 0.40979 0.83373 0.9062 0.0
C291 C 0.41324 0.83461 0.87004 0.0
C292 C 0.42179 0.8354 0.96807 0.0
C293 C 0.41924 0.8515 0.98244 0.0
C294 C 0.42193 0.82019 0.99051 0.0
C295 C 0.42418 0.80259 0.97671 0.0
C296 C 0.4103 0.789 0.95107 0.0
C297 C 0.41263 0.77256 0.93798 0.0
C298 C 0.4287 0.76945 0.95048 0.0
C299 C 0.44244 0.78275 0.97619 0.0
C300 C 0.44018 0.79923 0.98935 0.0
C301 C 0.39477 0.84123 0.1294 0.0
C302 C 0.4089 0.8402 0.15296 0.0
C303 C 0.39696 0.83975 0.09326 0.0
C304 C 0.41366 0.83775 0.07984 0.0
C305 C 0.42749 0.83622 0.10342 0.0
C306 C 0.42509 0.83734 0.1396 0.0
C307 C 0.41689 0.83758 0.04129 0.0
C308 C 0.41947 0.82147 0.0268 0.0
C309 C 0.41716 0.85302 0.01875 0.0
C310 C 0.41636 0.87148 0.03236 0.0
C311 C 0.43105 0.88482 0.05732 0.0
C312 C 0.43012 0.9021 0.07026 0.0
C313 C 0.41468 0.9063 0.05822 0.0
C314 C 0.40016 0.89326 0.03314 0.0
C315 C 0.401 0.87594 0.02015 0.0
H316 H 0.41398 0.91968 0.06826 0.0
H317 H 0.43048 0.75672 0.94031 0.0
H318 H 0.56858 0.40058 0.18402 0.0
H319 H 0.56465 0.3943 0.24729 0.0
H320 H 0.6194 0.4547 0.26552 0.0
H321 H 0.6233 0.46127 0.20224 0.0
H322 H 0.61717 0.4204 0.30663 0.0
H323 H 0.57557 0.45214 0.27649 0.0
H324 H 0.54856 0.45511 0.24292 0.0
H325 H 0.50181 0.39382 0.27761 0.0
H326 H 0.52863 0.39035 0.31098 0.0
H327 H 0.60506 0.43462 0.48701 0.0
H328 H 0.61039 0.43772 0.42368 0.0
H329 H 0.54816 0.38502 0.40823 0.0
H330 H 0.54246 0.38231 0.47161 0.0
H331 H 0.55404 0.41419 0.36467 0.0
H332 H 0.59404 0.38192 0.39612 0.0
H333 H 0.6204 0.37733 0.42863 0.0
H334 H 0.66916 0.43684 0.3909 0.0
H335 H 0.64305 0.44193 0.35852 0.0
C336 C 0.5799 0.41247 0.20144 0.0
C337 C 0.59621 0.43147 0.18812 0.0
C338 C 0.5776 0.40886 0.23757 0.0
C339 C 0.59167 0.42409 0.261 0.0
C340 C 0.60838 0.44276 0.2478 0.0
C341 C 0.61053 0.44651 0.21168 0.0
C342 C 0.58845 0.42086 0.29933 0.0
C343 C 0.6035 0.41925 0.31949 0.0
C344 C 0.57031 0.41878 0.31577 0.0
C345 C 0.55415 0.42089 0.29591 0.0
C346 C 0.55957 0.43922 0.27671 0.0
C347 C 0.54429 0.441 0.25776 0.0
C348 C 0.52349 0.42464 0.25805 0.0
C349 C 0.51793 0.40647 0.27736 0.0
C350 C 0.53316 0.40459 0.29631 0.0
C351 C 0.59256 0.42356 0.47017 0.0
C352 C 0.57334 0.40819 0.48438 0.0
C353 C 0.59567 0.42529 0.4339 0.0
C354 C 0.57979 0.41143 0.41106 0.0
C355 C 0.56066 0.39591 0.42525 0.0
C356 C 0.55744 0.39434 0.46151 0.0
C357 C 0.58279 0.41369 0.37239 0.0
C358 C 0.56769 0.41518 0.35202 0.0
C359 C 0.60079 0.4154 0.35574 0.0
C360 C 0.61655 0.41239 0.37515 0.0
C361 C 0.61036 0.39411 0.39497 0.0
C362 C 0.62527 0.3914 0.41334 0.0
C363 C 0.64644 0.4068 0.4119 0.0
C364 C 0.65275 0.42493 0.39202 0.0
C365 C 0.63791 0.42772 0.37363 0.0
H366 H 0.65795 0.40468 0.42614 0.0
H367 H 0.51168 0.42605 0.24337 0.0
H368 H 0.18819 0.58736 0.5133 0.0
H369 H 0.19028 0.58307 0.5765 0.0
H370 H 0.14006 0.59628 0.59313 0.0
H371 H 0.13872 0.60166 0.53025 0.0
H372 H 0.16592 0.61369 0.64197 0.0
H373 H 0.13313 0.5446 0.59411 0.0
H374 H 0.12918 0.5161 0.55521 0.0
H375 H 0.18543 0.52092 0.59761 0.0
H376 H 0.18986 0.54964 0.63648 0.0
H377 H 0.13917 0.53661 0.80025 0.0
H378 H 0.14014 0.54286 0.73726 0.0
H379 H 0.19187 0.60576 0.75211 0.0
H380 H 0.19012 0.5999 0.81545 0.0
H381 H 0.16502 0.55017 0.6875 0.0
H382 H 0.19206 0.63896 0.6919 0.0
H383 H 0.1893 0.66421 0.73086 0.0
H384 H 0.13278 0.61435 0.77558 0.0
H385 H 0.13507 0.58886 0.7366 0.0
C386 C 0.1777 0.58946 0.53051 0.0
C387 C 0.16326 0.59479 0.51682 0.0
C388 C 0.1788 0.58687 0.56664 0.0
C389 C 0.16505 0.58893 0.58973 0.0
C390 C 0.15087 0.59461 0.57603 0.0
C391 C 0.15008 0.59764 0.54002 0.0
C392 C 0.16524 0.585 0.62805 0.0
C393 C 0.16575 0.5998 0.65186 0.0
C394 C 0.16454 0.56667 0.64124 0.0
C395 C 0.16194 0.54941 0.61793 0.0
C396 C 0.14474 0.53968 0.59495 0.0
C397 C 0.1424 0.52347 0.57294 0.0
C398 C 0.15708 0.51675 0.57387 0.0
C399 C 0.1741 0.52617 0.59688 0.0
C400 C 0.17652 0.5424 0.61893 0.0
C401 C 0.15079 0.55176 0.79007 0.0
C402 C 0.16446 0.56782 0.81281 0.0
C403 C 0.15137 0.55532 0.75398 0.0
C404 C 0.16585 0.57492 0.73976 0.0
C405 C 0.18015 0.59069 0.76238 0.0
C406 C 0.17924 0.58729 0.79859 0.0
C407 C 0.16567 0.57885 0.70143 0.0
C408 C 0.16525 0.56409 0.67761 0.0
C409 C 0.16549 0.59675 0.68824 0.0
C410 C 0.16389 0.61199 0.71161 0.0
C411 C 0.17902 0.63341 0.70999 0.0
C412 C 0.17754 0.64776 0.73208 0.0
C413 C 0.16092 0.64088 0.75577 0.0
C414 C 0.1457 0.61965 0.75732 0.0
C415 C 0.14709 0.60524 0.73526 0.0
H416 H 0.15981 0.65201 0.77286 0.0
H417 H 0.15524 0.50419 0.55681 0.0
H418 H 0.62219 0.16382 0.13273 0.0
H419 H 0.61783 0.16628 0.06952 0.0
H420 H 0.56155 0.16899 0.0885 0.0
H421 H 0.56599 0.16696 0.15177 0.0
H422 H 0.55846 0.13812 0.03656 0.0
H423 H 0.6005 0.21146 0.06595 0.0
H424 H 0.631 0.24228 0.09192 0.0
H425 H 0.67236 0.23274 0.02507 0.0
H426 H 0.64211 0.20165 0.99905 0.0
H427 H 0.54134 0.1583 0.86239 0.0
H428 H 0.54616 0.1608 0.92596 0.0
H429 H 0.60992 0.17434 0.91274 0.0
H430 H 0.60542 0.17255 0.84919 0.0
H431 H 0.60878 0.19768 0.96284 0.0
H432 H 0.56949 0.12481 0.93491 0.0
H433 H 0.54066 0.09267 0.90888 0.0
H434 H 0.49615 0.09896 0.97279 0.0
H435 H 0.52473 0.1314 0.99879 0.0
C436 C 0.60897 0.16508 0.12345 0.0
C437 C 0.59445 0.16523 0.1472 0.0
C438 C 0.60653 0.16652 0.0874 0.0
C439 C 0.58939 0.16784 0.07448 0.0
C440 C 0.57488 0.16799 0.09806 0.0
C441 C 0.5775 0.16693 0.13414 0.0
C442 C 0.58635 0.16851 0.03627 0.0
C443 C 0.56923 0.15127 0.02042 0.0
C444 C 0.60084 0.18537 0.01529 0.0
C445 C 0.61905 0.2041 0.03081 0.0
C446 C 0.61611 0.21581 0.05702 0.0
C447 C 0.63335 0.23336 0.0717 0.0
C448 C 0.65361 0.23943 0.06022 0.0
C449 C 0.65666 0.228 0.03397 0.0
C450 C 0.63947 0.21043 0.01922 0.0
C451 C 0.55643 0.16196 0.87301 0.0
C452 C 0.57295 0.1651 0.85074 0.0
C453 C 0.55914 0.16329 0.90938 0.0
C454 C 0.57829 0.16738 0.92421 0.0
C455 C 0.59499 0.17113 0.90196 0.0
C456 C 0.59237 0.17005 0.8656 0.0
C457 C 0.5808 0.16725 0.96286 0.0
C458 C 0.59787 0.18455 0.97885 0.0
C459 C 0.56647 0.15022 0.98393 0.0
C460 C 0.54923 0.13067 0.9685 0.0
C461 C 0.55354 0.11943 0.94321 0.0
C462 C 0.53724 0.10114 0.92849 0.0
C463 C 0.51656 0.09379 0.93911 0.0
C464 C 0.51216 0.10469 0.96455 0.0
C465 C 0.52841 0.12304 0.97929 0.0
H466 H 0.50396 0.07962 0.92769 0.0
H467 H 0.66694 0.25302 0.07162 0.0
H468 H 0.35369 0.56951 0.06104 0.0
H469 H 0.32194 0.56756 0.03755 0.0
H470 H 0.29135 0.50004 0.03668 0.0
H471 H 0.32319 0.50184 0.05991 0.0
H472 H 0.28583 0.51489 0.97524 0.0
H473 H 0.27778 0.52513 0.09665 0.0
H474 H 0.28838 0.54215 0.15454 0.0
H475 H 0.29635 0.59943 0.11092 0.0
H476 H 0.2861 0.58285 0.05261 0.0
H477 H 0.18405 0.50085 0.93803 0.0
H478 H 0.21407 0.49981 0.96332 0.0
H479 H 0.24861 0.56737 0.96817 0.0
H480 H 0.21871 0.56856 0.94327 0.0
H481 H 0.25081 0.55055 0.02932 0.0
H482 H 0.26042 0.5408 0.90757 0.0
H483 H 0.25009 0.52393 0.84952 0.0
H484 H 0.23918 0.46574 0.89392 0.0
H485 H 0.24919 0.48221 0.95237 0.0
C486 C 0.34015 0.55421 0.05625 0.0
C487 C 0.34101 0.53583 0.06243 0.0
C488 C 0.32197 0.55313 0.04287 0.0
C489 C 0.30419 0.53365 0.03552 0.0
C490 C 0.30487 0.51524 0.04214 0.0
C491 C 0.32306 0.51631 0.05561 0.0
C492 C 0.28523 0.5326 0.01971 0.0
C493 C 0.27794 0.52238 0.98737 0.0
C494 C 0.27521 0.54276 0.03512 0.0
C495 C 0.28135 0.55279 0.07018 0.0
C496 C 0.28196 0.54141 0.09933 0.0
C497 C 0.28788 0.55097 0.13224 0.0
C498 C 0.29309 0.57187 0.13639 0.0
C499 C 0.29234 0.58324 0.10765 0.0
C500 C 0.28645 0.57377 0.07467 0.0
C501 C 0.19813 0.5155 0.94406 0.0
C502 C 0.19894 0.53479 0.93859 0.0
C503 C 0.21529 0.51487 0.95851 0.0
C504 C 0.23363 0.53352 0.96761 0.0
C505 C 0.23462 0.55278 0.96149 0.0
C506 C 0.21751 0.55342 0.94705 0.0
C507 C 0.25155 0.53304 0.98467 0.0
C508 C 0.25863 0.54297 0.01729 0.0
C509 C 0.26136 0.52261 0.96951 0.0
C510 C 0.25533 0.51268 0.93441 0.0
C511 C 0.25564 0.52436 0.90501 0.0
C512 C 0.24988 0.51488 0.87203 0.0
C513 C 0.24392 0.49376 0.86805 0.0
C514 C 0.24376 0.48209 0.89705 0.0
C515 C 0.24949 0.49149 0.93011 0.0
H516 H 0.23947 0.48646 0.84249 0.0
H517 H 0.29766 0.57924 0.16189 0.0
H518 H 0.8189 0.32196 0.39536 0.0
H519 H 0.78886 0.29112 0.36978 0.0
H520 H 0.75353 0.32335 0.37002 0.0
H521 H 0.78343 0.35423 0.39579 0.0
H522 H 0.72918 0.2822 0.38882 0.0
H523 H 0.77691 0.32161 0.29673 0.0
H524 H 0.81117 0.33996 0.26695 0.0
H525 H 0.81273 0.28251 0.26205 0.0
H526 H 0.77861 0.26388 0.29237 0.0
H527 H 0.65119 0.22064 0.26617 0.0
H528 H 0.68196 0.25086 0.29117 0.0
H529 H 0.7147 0.21604 0.29269 0.0
H530 H 0.68397 0.18565 0.26732 0.0
H531 H 0.74042 0.25789 0.27374 0.0
H532 H 0.68997 0.21812 0.36284 0.0
H533 H 0.65449 0.20081 0.38826 0.0
H534 H 0.65746 0.26028 0.39789 0.0
H535 H 0.69257 0.27789 0.37084 0.0
C536 C 0.80465 0.32241 0.39047 0.0
C537 C 0.80365 0.34065 0.39742 0.0
C538 C 0.78752 0.30479 0.37568 0.0
C539 C 0.76906 0.30504 0.3675 0.0
C540 C 0.76763 0.32282 0.37601 0.0
C541 C 0.78478 0.34048 0.3907 0.0
C542 C 0.75166 0.28723 0.34846 0.0
C543 C 0.73159 0.27699 0.36353 0.0
C544 C 0.75486 0.28029 0.31562 0.0
C545 C 0.77531 0.2914 0.29717 0.0
C546 C 0.78464 0.31293 0.28957 0.0
C547 C 0.80402 0.32338 0.27255 0.0
C548 C 0.81415 0.31242 0.26269 0.0
C549 C 0.80488 0.29098 0.26976 0.0
C550 C 0.78552 0.28047 0.28685 0.0
C551 C 0.66502 0.21945 0.27126 0.0
C552 C 0.66501 0.20061 0.26507 0.0
C553 C 0.68259 0.23675 0.28567 0.0
C554 C 0.70046 0.23555 0.29442 0.0
C555 C 0.70101 0.21724 0.28631 0.0
C556 C 0.68342 0.19989 0.27183 0.0
C557 C 0.71796 0.25287 0.31406 0.0
C558 C 0.73804 0.26301 0.29912 0.0
C559 C 0.7147 0.25983 0.34688 0.0
C560 C 0.69388 0.24933 0.36444 0.0
C561 C 0.68303 0.22752 0.37011 0.0
C562 C 0.66296 0.21764 0.38483 0.0
C563 C 0.65376 0.22943 0.39487 0.0
C564 C 0.6646 0.25115 0.39011 0.0
C565 C 0.68456 0.26109 0.37494 0.0
H566 H 0.63823 0.22172 0.4063 0.0
H567 H 0.82915 0.32053 0.24951 0.0
H568 H 0.43166 0.78296 0.72942 0.0
H569 H 0.43237 0.75251 0.70562 0.0
H570 H 0.49995 0.78668 0.70886 0.0
H571 H 0.49941 0.81727 0.73244 0.0
H572 H 0.48581 0.76801 0.64623 0.0
H573 H 0.47171 0.74749 0.76661 0.0
H574 H 0.45316 0.74006 0.82316 0.0
H575 H 0.3968 0.6923 0.77453 0.0
H576 H 0.41492 0.6997 0.71752 0.0
H577 H 0.49949 0.68057 0.60848 0.0
H578 H 0.49995 0.71123 0.63408 0.0
H579 H 0.43233 0.67799 0.63528 0.0
H580 H 0.43174 0.64719 0.61025 0.0
H581 H 0.44732 0.6964 0.69664 0.0
H582 H 0.4608 0.71769 0.57605 0.0
H583 H 0.47918 0.7249 0.51934 0.0
H584 H 0.5364 0.77091 0.56827 0.0
H585 H 0.51841 0.76378 0.6254 0.0
C586 C 0.44669 0.78394 0.72548 0.0
C587 C 0.46548 0.80259 0.73286 0.0
C588 C 0.44706 0.76648 0.71193 0.0
C589 C 0.46622 0.76725 0.70557 0.0
C590 C 0.48499 0.78571 0.71351 0.0
C591 C 0.48464 0.80317 0.72715 0.0
C592 C 0.46669 0.74916 0.68918 0.0
C593 C 0.47765 0.75241 0.65754 0.0
C594 C 0.45562 0.72869 0.70344 0.0
C595 C 0.44463 0.72433 0.73767 0.0
C596 C 0.4553 0.73556 0.76787 0.0
C597 C 0.44487 0.73132 0.80004 0.0
C598 C 0.4238 0.71577 0.80242 0.0
C599 C 0.41312 0.70438 0.77264 0.0
C600 C 0.42346 0.70859 0.74039 0.0
C601 C 0.48471 0.67986 0.61376 0.0
C602 C 0.46558 0.6614 0.60725 0.0
C603 C 0.485 0.69743 0.62838 0.0
C604 C 0.46616 0.69698 0.63649 0.0
C605 C 0.44706 0.67871 0.62936 0.0
C606 C 0.44676 0.66114 0.61485 0.0
C607 C 0.46631 0.71523 0.65356 0.0
C608 C 0.45549 0.71201 0.68535 0.0
C609 C 0.47746 0.73572 0.6394 0.0
C610 C 0.4883 0.74004 0.60507 0.0
C611 C 0.47734 0.72922 0.57478 0.0
C612 C 0.48768 0.73332 0.54254 0.0
C613 C 0.50896 0.74831 0.54022 0.0
C614 C 0.51992 0.75928 0.57012 0.0
C615 C 0.50966 0.75523 0.60242 0.0
H616 H 0.51694 0.75146 0.51524 0.0
H617 H 0.41576 0.7125 0.82735 0.0
H618 H 0.6494 0.43203 0.05729 0.0
H619 H 0.68029 0.43281 0.03237 0.0
H620 H 0.7156 0.49996 0.04537 0.0
H621 H 0.68477 0.49933 0.07062 0.0
H622 H 0.70056 0.4519 0.97313 0.0
H623 H 0.76758 0.515 0.05795 0.0
H624 H 0.77375 0.52839 0.11862 0.0
H625 H 0.72437 0.46892 0.15528 0.0
H626 H 0.71809 0.45509 0.09494 0.0
H627 H 0.82169 0.50069 0.94487 0.0
H628 H 0.79121 0.50138 0.96867 0.0
H629 H 0.75451 0.43405 0.96014 0.0
H630 H 0.78487 0.4332 0.93633 0.0
H631 H 0.77055 0.48321 0.02936 0.0
H632 H 0.70233 0.4205 0.94451 0.0
H633 H 0.69572 0.40702 0.88394 0.0
H634 H 0.74721 0.46517 0.84731 0.0
H635 H 0.75389 0.47917 0.90753 0.0
C636 C 0.6638 0.44696 0.05536 0.0
C637 C 0.66458 0.46563 0.06599 0.0
C638 C 0.68143 0.44737 0.04092 0.0
C639 C 0.70028 0.46642 0.03703 0.0
C640 C 0.7013 0.48504 0.04845 0.0
C641 C 0.68364 0.48465 0.06285 0.0
C642 C 0.71851 0.46684 0.01954 0.0
C643 C 0.7158 0.45847 0.98561 0.0
C644 C 0.73854 0.47598 0.03542 0.0
C645 C 0.74221 0.48411 0.07185 0.0
C646 C 0.75807 0.50477 0.07898 0.0
C647 C 0.76159 0.51244 0.11331 0.0
C648 C 0.74941 0.49954 0.14077 0.0
C649 C 0.73373 0.47893 0.13397 0.0
C650 C 0.73016 0.47118 0.09969 0.0
C651 C 0.80706 0.48605 0.94756 0.0
C652 C 0.80574 0.46688 0.93869 0.0
C653 C 0.78968 0.48647 0.96134 0.0
C654 C 0.77056 0.46779 0.96611 0.0
C655 C 0.76903 0.44869 0.95636 0.0
C656 C 0.78643 0.44823 0.94281 0.0
C657 C 0.75257 0.46813 0.98301 0.0
C658 C 0.75532 0.47666 0.01683 0.0
C659 C 0.73256 0.45907 0.96705 0.0
C660 C 0.7288 0.45077 0.93069 0.0
C661 C 0.71224 0.43043 0.92354 0.0
C662 C 0.70846 0.4227 0.88925 0.0
C663 C 0.7211 0.43519 0.86182 0.0
C664 C 0.7375 0.45547 0.86861 0.0
C665 C 0.74131 0.46329 0.90285 0.0
H666 H 0.71815 0.42918 0.83529 0.0
H667 H 0.75215 0.50551 0.16733 0.0
H668 H 0.18505 0.68384 0.4009 0.0
H669 H 0.21505 0.7152 0.37638 0.0
H670 H 0.24662 0.68013 0.35757 0.0
H671 H 0.21702 0.64895 0.38281 0.0
H672 H 0.27393 0.71786 0.37942 0.0
H673 H 0.21988 0.68973 0.29176 0.0
H674 H 0.18442 0.67712 0.26796 0.0
H675 H 0.19071 0.73753 0.28632 0.0
H676 H 0.22612 0.75041 0.31067 0.0
H677 H 0.34948 0.7845 0.2586 0.0
H678 H 0.31778 0.75376 0.28023 0.0
H679 H 0.29066 0.79241 0.30385 0.0
H680 H 0.32207 0.82315 0.2812 0.0
H681 H 0.26107 0.7537 0.28034 0.0
H682 H 0.31745 0.7819 0.36466 0.0
H683 H 0.35426 0.79404 0.38006 0.0
H684 H 0.34392 0.7318 0.36489 0.0
H685 H 0.30727 0.71948 0.34778 0.0
C686 C 0.19848 0.68287 0.39195 0.0
C687 C 0.19855 0.66382 0.39367 0.0
C688 C 0.21559 0.70079 0.37771 0.0
C689 C 0.23297 0.69996 0.36448 0.0
C690 C 0.2334 0.68119 0.36748 0.0
C691 C 0.2164 0.66333 0.38192 0.0
C692 C 0.25041 0.71836 0.34644 0.0
C693 C 0.27109 0.72556 0.3576 0.0
C694 C 0.24679 0.72863 0.31814 0.0
C695 C 0.22555 0.72096 0.30338 0.0
C696 C 0.21363 0.70027 0.29095 0.0
C697 C 0.19356 0.69309 0.27733 0.0
C698 C 0.18529 0.7065 0.27572 0.0
C699 C 0.19712 0.72715 0.28764 0.0
C700 C 0.21719 0.7344 0.30133 0.0
C701 C 0.33663 0.78641 0.26783 0.0
C702 C 0.3384 0.80632 0.2686 0.0
C703 C 0.31853 0.76883 0.28024 0.0
C704 C 0.30205 0.77087 0.29444 0.0
C705 C 0.30322 0.79048 0.29321 0.0
C706 C 0.32122 0.80805 0.28033 0.0
C707 C 0.28448 0.75305 0.31321 0.0
C708 C 0.26384 0.74603 0.30229 0.0
C709 C 0.28814 0.74281 0.34151 0.0
C710 C 0.30965 0.74981 0.35459 0.0
C711 C 0.32303 0.77081 0.36449 0.0
C712 C 0.34391 0.77775 0.37327 0.0
C713 C 0.35144 0.76371 0.37331 0.0
C714 C 0.33807 0.74267 0.36472 0.0
C715 C 0.31726 0.73571 0.35534 0.0
H716 H 0.36761 0.76912 0.38019 0.0
H717 H 0.16974 0.70091 0.26516 0.0
H718 H 0.57378 0.21809 0.72377 0.0
H719 H 0.57256 0.24831 0.70047 0.0
H720 H 0.505 0.21234 0.69858 0.0
H721 H 0.50607 0.18183 0.72154 0.0
H722 H 0.52033 0.23328 0.63786 0.0
H723 H 0.53059 0.25037 0.75996 0.0
H724 H 0.54755 0.25596 0.81778 0.0
H725 H 0.60529 0.30491 0.77485 0.0
H726 H 0.58875 0.29942 0.71662 0.0
H727 H 0.50648 0.32144 0.60625 0.0
H728 H 0.50569 0.29006 0.62926 0.0
H729 H 0.57324 0.32344 0.6342 0.0
H730 H 0.57417 0.35493 0.61163 0.0
H731 H 0.55663 0.30332 0.69435 0.0
H732 H 0.5466 0.28571 0.57202 0.0
H733 H 0.52973 0.27999 0.51408 0.0
H734 H 0.47157 0.23201 0.55743 0.0
H735 H 0.48802 0.23765 0.61577 0.0
C736 C 0.55862 0.21662 0.71877 0.0
C737 C 0.54001 0.19752 0.72465 0.0
C738 C 0.55796 0.23396 0.70549 0.0
C739 C 0.53868 0.23267 0.69802 0.0
C740 C 0.52005 0.2137 0.70418 0.0
C741 C 0.52069 0.19631 0.71749 0.0
C742 C 0.53809 0.25095 0.68279 0.0
C743 C 0.52797 0.24852 0.65049 0.0
C744 C 0.54848 0.27096 0.69884 0.0
C745 C 0.55847 0.27435 0.73385 0.0
C746 C 0.54695 0.26222 0.76278 0.0
C747 C 0.55648 0.26539 0.79564 0.0
C748 C 0.5775 0.28075 0.79997 0.0
C749 C 0.58902 0.29301 0.77145 0.0
C750 C 0.57957 0.28988 0.73852 0.0
C751 C 0.52119 0.32205 0.61182 0.0
C752 C 0.54039 0.34074 0.6071 0.0
C753 C 0.52071 0.30406 0.62492 0.0
C754 C 0.53942 0.30435 0.63336 0.0
C755 C 0.55861 0.32285 0.62797 0.0
C756 C 0.55911 0.34083 0.61489 0.0
C757 C 0.53901 0.28571 0.64926 0.0
C758 C 0.54893 0.28807 0.68175 0.0
C759 C 0.52842 0.26565 0.63338 0.0
C760 C 0.51849 0.26226 0.59834 0.0
C761 C 0.53016 0.27407 0.56927 0.0
C762 C 0.52068 0.27081 0.53634 0.0
C763 C 0.49957 0.25569 0.5321 0.0
C764 C 0.48791 0.24375 0.56077 0.0
C765 C 0.49731 0.24695 0.59376 0.0
H766 H 0.49227 0.25319 0.50658 0.0
H767 H 0.58485 0.28318 0.82543 0.0
H768 H 0.41882 0.49116 0.09587 0.0
H769 H 0.4469 0.48268 0.0991 0.0
H770 H 0.49297 0.54859 0.0992 0.0
H771 H 0.46504 0.55722 0.0955 0.0
H772 H 0.50378 0.52772 0.05442 0.0
H773 H 0.48125 0.51934 0.17416 0.0
H774 H 0.45584 0.50567 0.2228 0.0
H775 H 0.43999 0.44275 0.19648 0.0
H776 H 0.46512 0.45602 0.14735 0.0
H777 H 0.59092 0.51543 0.09796 0.0
H778 H 0.56379 0.52533 0.10031 0.0
H779 H 0.5159 0.46003 0.09975 0.0
H780 H 0.54284 0.45 0.09789 0.0
H781 H 0.50666 0.48151 0.14622 0.0
H782 H 0.52807 0.48965 0.02548 0.0
H783 H 0.55324 0.50307 0.97645 0.0
H784 H 0.5709 0.56626 0.00444 0.0
H785 H 0.54602 0.55321 0.05396 0.0
C786 C 0.43491 0.50386 0.09675 0.0
C787 C 0.43965 0.52488 0.09547 0.0
C788 C 0.45096 0.49899 0.09874 0.0
C789 C 0.47206 0.515 0.09973 0.0
C790 C 0.47682 0.53597 0.09848 0.0
C791 C 0.4608 0.54087 0.09648 0.0
C792 C 0.4892 0.50992 0.10114 0.0
C793 C 0.50458 0.51788 0.07482 0.0
C794 C 0.49002 0.49669 0.12728 0.0
C795 C 0.47493 0.48867 0.15686 0.0
C796 C 0.47223 0.50257 0.17856 0.0
C797 C 0.4579 0.4949 0.20626 0.0
C798 C 0.44627 0.47335 0.21267 0.0
C799 C 0.44899 0.45944 0.19145 0.0
C800 C 0.46329 0.46703 0.1637 0.0
C801 C 0.57462 0.50317 0.09849 0.0
C802 C 0.56907 0.48192 0.09755 0.0
C803 C 0.55912 0.50886 0.09969 0.0
C804 C 0.53778 0.49342 0.09978 0.0
C805 C 0.53224 0.47221 0.09966 0.0
C806 C 0.54769 0.46651 0.09848 0.0
C807 C 0.52118 0.49928 0.09947 0.0
C808 C 0.5059 0.49143 0.12594 0.0
C809 C 0.52042 0.51259 0.07344 0.0
C810 C 0.53535 0.52046 0.04365 0.0
C811 C 0.53745 0.50641 0.02135 0.0
C812 C 0.55163 0.51395 0.99345 0.0
C813 C 0.5637 0.53551 0.9874 0.0
C814 C 0.56157 0.54957 0.00919 0.0
C815 C 0.54742 0.54211 0.03717 0.0
H816 H 0.57468 0.54131 0.96578 0.0
H817 H 0.43518 0.46745 0.23413 0.0
H818 H 0.90899 0.46305 0.42958 0.0
H819 H 0.94586 0.49028 0.43078 0.0
H820 H 0.96402 0.44298 0.42818 0.0
H821 H 0.92704 0.41551 0.42741 0.0
H822 H 0.98786 0.47405 0.47421 0.0
H823 H 0.96619 0.46943 0.35462 0.0
H824 H 0.94365 0.46876 0.30626 0.0
H825 H 0.95748 0.53106 0.33267 0.0
H826 H 0.97987 0.53199 0.38158 0.0
H827 H 0.09385 0.54074 0.4234 0.0
H828 H 0.05709 0.51326 0.4261 0.0
H829 H 0.03841 0.56019 0.42743 0.0
H830 H 0.07522 0.58785 0.4242 0.0
H831 H 0.01485 0.52912 0.3823 0.0
H832 H 0.03701 0.53359 0.50197 0.0
H833 H 0.05971 0.53395 0.54979 0.0
H834 H 0.04525 0.47157 0.52247 0.0
H835 H 0.02268 0.47095 0.47413 0.0
C836 C 0.92079 0.45838 0.4294 0.0
C837 C 0.91503 0.43706 0.42817 0.0
C838 C 0.94189 0.474 0.42997 0.0
C839 C 0.95772 0.4687 0.42905 0.0
C840 C 0.95206 0.44744 0.4288 0.0
C841 C 0.93091 0.43176 0.42827 0.0
C842 C 0.98015 0.48538 0.42772 0.0
C843 C 0.99383 0.48594 0.45386 0.0
C844 C 0.98786 0.50114 0.40155 0.0
C845 C 0.97455 0.5007 0.37198 0.0
C846 C 0.9643 0.48293 0.35028 0.0
C847 C 0.95157 0.48251 0.32274 0.0
C848 C 0.94909 0.49983 0.31644 0.0
C849 C 0.95939 0.51764 0.33761 0.0
C850 C 0.97212 0.51813 0.36523 0.0
C851 C 0.08196 0.54527 0.4244 0.0
C852 C 0.08752 0.56654 0.42368 0.0
C853 C 0.06092 0.52951 0.42608 0.0
C854 C 0.04497 0.53464 0.42737 0.0
C855 C 0.05045 0.55585 0.42652 0.0
C856 C 0.07151 0.57165 0.42479 0.0
C857 C 0.02257 0.51788 0.4289 0.0
C858 C 0.00889 0.51727 0.40271 0.0
C859 C 0.0149 0.50205 0.45496 0.0
C860 C 0.0283 0.50231 0.48422 0.0
C861 C 0.03878 0.52001 0.506 0.0
C862 C 0.05161 0.52025 0.53322 0.0
C863 C 0.05397 0.50281 0.53911 0.0
C864 C 0.04344 0.48507 0.51785 0.0
C865 C 0.03061 0.48476 0.49056 0.0
H866 H 0.06392 0.50303 0.56019 0.0
H867 H 0.93922 0.49946 0.29511 0.0
H868 H 0.49434 0.07512 0.76299 0.0
H869 H 0.48548 0.03845 0.76727 0.0
H870 H 0.55102 0.05733 0.76018 0.0
H871 H 0.56003 0.09401 0.7557 0.0
H872 H 0.52705 0.02446 0.71696 0.0
H873 H 0.52613 0.04203 0.83792 0.0
H874 H 0.51574 0.05556 0.88857 0.0
H875 H 0.4512 0.00924 0.87165 0.0
H876 H 0.46118 0.99554 0.82065 0.0
H877 H 0.51617 0.92602 0.76221 0.0
H878 H 0.52646 0.96317 0.76382 0.0
H879 H 0.46152 0.94637 0.77204 0.0
H880 H 0.45109 0.90925 0.77075 0.0
H881 H 0.48595 0.97844 0.81585 0.0
H882 H 0.48617 0.96139 0.69473 0.0
H883 H 0.49579 0.94749 0.64368 0.0
H884 H 0.56077 0.99274 0.6598 0.0
H885 H 0.55154 0.00671 0.71137 0.0
C886 C 0.50689 0.0715 0.76246 0.0
C887 C 0.5279 0.08753 0.75904 0.0
C888 C 0.5018 0.05052 0.76505 0.0
C889 C 0.51761 0.04516 0.76432 0.0
C890 C 0.53857 0.06111 0.76082 0.0
C891 C 0.54369 0.08208 0.75838 0.0
C892 C 0.51224 0.02288 0.76644 0.0
C893 C 0.51836 0.01448 0.73886 0.0
C894 C 0.50044 0.00972 0.79457 0.0
C895 C 0.49439 0.01789 0.82526 0.0
C896 C 0.5097 0.03484 0.84483 0.0
C897 C 0.50389 0.04252 0.87363 0.0
C898 C 0.48282 0.03333 0.88325 0.0
C899 C 0.46751 0.01637 0.86414 0.0
C900 C 0.47324 0.00862 0.83532 0.0
C901 C 0.50408 0.93021 0.7646 0.0
C902 C 0.48279 0.91464 0.76615 0.0
C903 C 0.50999 0.95146 0.76539 0.0
C904 C 0.49474 0.95755 0.76766 0.0
C905 C 0.47354 0.94204 0.77024 0.0
C906 C 0.46762 0.92082 0.76937 0.0
C907 C 0.50079 0.98004 0.7664 0.0
C908 C 0.49476 0.98845 0.79407 0.0
C909 C 0.51257 0.9932 0.73826 0.0
C910 C 0.51818 0.98494 0.70714 0.0
C911 C 0.50253 0.96827 0.68756 0.0
C912 C 0.50791 0.96039 0.6585 0.0
C913 C 0.52888 0.96918 0.64853 0.0
C914 C 0.54453 0.98592 0.66758 0.0
C915 C 0.53923 0.99383 0.69673 0.0
H916 H 0.53301 0.96306 0.62601 0.0
H917 H 0.47835 0.0393 0.90556 0.0
H918 H 0.44867 0.53934 0.57293 0.0
H919 H 0.45836 0.51216 0.57124 0.0
H920 H 0.5238 0.55959 0.56958 0.0
H921 H 0.51423 0.587 0.57087 0.0
H922 H 0.51542 0.52785 0.52407 0.0
H923 H 0.50124 0.53421 0.64475 0.0
H924 H 0.48043 0.53537 0.69441 0.0
H925 H 0.43172 0.47255 0.67148 0.0
H926 H 0.45211 0.47113 0.62132 0.0
H927 H 0.55718 0.4632 0.57452 0.0
H928 H 0.54729 0.49022 0.57122 0.0
H929 H 0.48194 0.44261 0.57449 0.0
H930 H 0.4917 0.41541 0.57822 0.0
H931 H 0.49015 0.47438 0.61854 0.0
H932 H 0.50471 0.46788 0.49822 0.0
H933 H 0.52567 0.46685 0.44868 0.0
H934 H 0.57387 0.52997 0.47114 0.0
H935 H 0.55332 0.53127 0.52116 0.0
C936 C 0.46514 0.54406 0.57204 0.0
C937 C 0.48068 0.56539 0.57226 0.0
C938 C 0.47065 0.52846 0.5712 0.0
C939 C 0.49181 0.53382 0.5708 0.0
C940 C 0.50737 0.55509 0.56999 0.0
C941 C 0.50187 0.57074 0.57082 0.0
C942 C 0.49764 0.51721 0.57192 0.0
C943 C 0.51013 0.51631 0.54496 0.0
C944 C 0.49035 0.50188 0.59878 0.0
C945 C 0.47811 0.50264 0.62906 0.0
C946 C 0.48602 0.5207 0.65013 0.0
C947 C 0.47431 0.5214 0.67839 0.0
C948 C 0.45474 0.50406 0.68604 0.0
C949 C 0.44686 0.48598 0.66549 0.0
C950 C 0.4585 0.48521 0.63715 0.0
C951 C 0.54068 0.45842 0.5744 0.0
C952 C 0.52523 0.4371 0.57657 0.0
C953 C 0.53506 0.47392 0.57236 0.0
C954 C 0.51386 0.46845 0.57223 0.0
C955 C 0.49839 0.44719 0.57448 0.0
C956 C 0.504 0.43166 0.57651 0.0
C957 C 0.50789 0.48496 0.57064 0.0
C958 C 0.49541 0.48587 0.59758 0.0
C959 C 0.51521 0.5003 0.54379 0.0
C960 C 0.52756 0.49959 0.51365 0.0
C961 C 0.51986 0.48148 0.49277 0.0
C962 C 0.53165 0.48086 0.46457 0.0
C963 C 0.55111 0.49831 0.45682 0.0
C964 C 0.5588 0.51645 0.47721 0.0
C965 C 0.54708 0.51714 0.50546 0.0
H966 H 0.56021 0.4978 0.43498 0.0
H967 H 0.4457 0.50463 0.70794 0.0
H968 H 0.09549 0.55438 0.90294 0.0
H969 H 0.05889 0.54563 0.9007 0.0
H970 H 0.03908 0.4798 0.90584 0.0
H971 H 0.07576 0.4884 0.90767 0.0
H972 H 0.01628 0.48738 0.85818 0.0
H973 H 0.03737 0.50557 0.9781 0.0
H974 H 0.0598 0.52793 0.02617 0.0
H975 H 0.04707 0.57663 0.99597 0.0
H976 H 0.02479 0.55467 0.94737 0.0
H977 H 0.91051 0.4488 0.90818 0.0
H978 H 0.94727 0.4582 0.90523 0.0
H979 H 0.96575 0.52376 0.90244 0.0
H980 H 0.9289 0.51448 0.90594 0.0
H981 H 0.98941 0.51684 0.94782 0.0
H982 H 0.96755 0.49823 0.82861 0.0
H983 H 0.94512 0.47578 0.78062 0.0
H984 H 0.95917 0.42779 0.80946 0.0
H985 H 0.98147 0.44984 0.85796 0.0
C986 C 0.08339 0.53801 0.90347 0.0
C987 C 0.08859 0.52209 0.9057 0.0
C988 C 0.06244 0.53305 0.90231 0.0
C989 C 0.04623 0.51207 0.9036 0.0
C990 C 0.05134 0.4961 0.90491 0.0
C991 C 0.07232 0.50105 0.90605 0.0
C992 C 0.02395 0.50685 0.90412 0.0
C993 C 0.01033 0.4936 0.87802 0.0
C994 C 0.01631 0.51537 0.92953 0.0
C995 C 0.02958 0.52855 0.95889 0.0
C996 C 0.03948 0.52111 0.98155 0.0
C997 C 0.05215 0.5337 0.00891 0.0
C998 C 0.05491 0.55371 0.01406 0.0
C999 C 0.04495 0.56114 0.99192 0.0
C1000 C 0.03229 0.54862 0.96447 0.0
C1001 C 0.92235 0.46523 0.90677 0.0
C1002 C 0.91672 0.48089 0.90723 0.0
C1003 C 0.94339 0.47058 0.90493 0.0
C1004 C 0.95929 0.49169 0.9032 0.0
C1005 C 0.95375 0.50737 0.90368 0.0
C1006 C 0.93267 0.50203 0.90558 0.0
C1007 C 0.98169 0.49735 0.90186 0.0
C1008 C 0.99535 0.51066 0.92787 0.0
C1009 C 0.98935 0.48888 0.87637 0.0
C1010 C 0.97603 0.47562 0.84712 0.0
C1011 C 0.96573 0.48282 0.82489 0.0
C1012 C 0.95306 0.47018 0.79756 0.0
C1013 C 0.95068 0.45035 0.79205 0.0
C1014 C 0.96101 0.44315 0.81379 0.0
C1015 C 0.97369 0.45572 0.84118 0.0
H1016 H 0.94087 0.44059 0.77088 0.0
H1017 H 0.06472 0.56343 0.03526 0.0
H1018 H 0.46307 0.9101 0.24538 0.0
H1019 H 0.49081 0.94677 0.24255 0.0
H1020 H 0.44442 0.96616 0.24311 0.0
H1021 H 0.41649 0.92943 0.24542 0.0
H1022 H 0.4748 0.98834 0.19596 0.0
H1023 H 0.47186 0.96938 0.31703 0.0
H1024 H 0.47192 0.94798 0.36671 0.0
H1025 H 0.53362 0.96081 0.3383 0.0
H1026 H 0.53381 0.98206 0.28813 0.0
H1027 H 0.54164 0.09517 0.24171 0.0
H1028 H 0.51432 0.0583 0.24058 0.0
H1029 H 0.56153 0.04002 0.23905 0.0
H1030 H 0.58904 0.07694 0.24056 0.0
H1031 H 0.53104 0.01717 0.28587 0.0
H1032 H 0.53416 0.03686 0.16532 0.0
H1033 H 0.53397 0.05837 0.11595 0.0
H1034 H 0.47182 0.04439 0.14371 0.0
H1035 H 0.47175 0.02302 0.19358 0.0
C1036 C 0.45872 0.92213 0.24485 0.0
C1037 C 0.43753 0.9168 0.24583 0.0
C1038 C 0.47463 0.94312 0.24335 0.0
C1039 C 0.46972 0.95925 0.2431 0.0
C1040 C 0.44858 0.95398 0.24337 0.0
C1041 C 0.43264 0.93297 0.2448 0.0
C1042 C 0.48666 0.98159 0.24283 0.0
C1043 C 0.48695 0.99472 0.21587 0.0
C1044 C 0.50279 0.98981 0.26835 0.0
C1045 C 0.50276 0.97714 0.29862 0.0
C1046 C 0.48538 0.96751 0.32122 0.0
C1047 C 0.48538 0.95543 0.34949 0.0
C1048 C 0.50274 0.95299 0.3556 0.0
C1049 C 0.52017 0.96269 0.33351 0.0
C1050 C 0.52024 0.97476 0.30516 0.0
C1051 C 0.54627 0.08334 0.241 0.0
C1052 C 0.56757 0.08904 0.24115 0.0
C1053 C 0.53059 0.06224 0.24021 0.0
C1054 C 0.53586 0.04638 0.23937 0.0
C1055 C 0.5571 0.05199 0.23963 0.0
C1056 C 0.57281 0.07312 0.24038 0.0
C1057 C 0.51919 0.02393 0.23901 0.0
C1058 C 0.51893 0.01079 0.2659 0.0
C1059 C 0.50307 0.01572 0.21346 0.0
C1060 C 0.50303 0.02849 0.1834 0.0
C1061 C 0.52052 0.0385 0.16107 0.0
C1062 C 0.52045 0.05065 0.13296 0.0
C1063 C 0.50292 0.05279 0.12675 0.0
C1064 C 0.4854 0.04273 0.14858 0.0
C1065 C 0.4854 0.03059 0.17675 0.0
H1066 H 0.50289 0.0622 0.10497 0.0
H1067 H 0.50271 0.94363 0.3775 0.0
H1068 H 0.40313 0.5719 0.68702 0.0
H1069 H 0.40048 0.56875 0.75099 0.0
H1070 H 0.46729 0.59403 0.75818 0.0
H1071 H 0.47012 0.59732 0.69439 0.0
H1072 H 0.44514 0.55979 0.80125 0.0
H1073 H 0.44918 0.62518 0.77552 0.0
H1074 H 0.43935 0.64896 0.74656 0.0
H1075 H 0.37773 0.61476 0.79133 0.0
H1076 H 0.3871 0.59056 0.82015 0.0
H1077 H 0.4378 0.60267 0.98495 0.0
H1078 H 0.44345 0.60698 0.92157 0.0
H1079 H 0.40605 0.54 0.90783 0.0
H1080 H 0.40053 0.5355 0.97104 0.0
H1081 H 0.41632 0.59743 0.86832 0.0
H1082 H 0.42586 0.52522 0.84011 0.0
H1083 H 0.43897 0.50427 0.8698 0.0
H1084 H 0.47938 0.55714 0.93407 0.0
H1085 H 0.46674 0.57849 0.90444 0.0
C1086 C 0.41723 0.57663 0.70221 0.0
C1087 C 0.43685 0.58493 0.68568 0.0
C1088 C 0.4157 0.57492 0.73872 0.0
C1089 C 0.43372 0.58133 0.75925 0.0
C1090 C 0.45322 0.58903 0.74277 0.0
C1091 C 0.4548 0.59095 0.70634 0.0
C1092 C 0.43232 0.58037 0.79798 0.0
C1093 C 0.43879 0.56796 0.81595 0.0
C1094 C 0.42451 0.59146 0.8171 0.0
C1095 C 0.41878 0.60592 0.7997 0.0
C1096 C 0.43347 0.6226 0.77892 0.0
C1097 C 0.428 0.63619 0.76259 0.0
C1098 C 0.40792 0.63335 0.76704 0.0
C1099 C 0.39327 0.61693 0.78787 0.0
C1100 C 0.39866 0.60328 0.80423 0.0
C1101 C 0.43085 0.58884 0.96846 0.0
C1102 C 0.41878 0.56873 0.98309 0.0
C1103 C 0.43403 0.59135 0.93224 0.0
C1104 C 0.42532 0.57381 0.91002 0.0
C1105 C 0.41318 0.55374 0.92453 0.0
C1106 C 0.40999 0.55121 0.96069 0.0
C1107 C 0.42871 0.57646 0.87161 0.0
C1108 C 0.42261 0.58919 0.85366 0.0
C1109 C 0.43727 0.56601 0.85257 0.0
C1110 C 0.44518 0.55338 0.87027 0.0
C1111 C 0.4376 0.53239 0.86048 0.0
C1112 C 0.44494 0.52045 0.87732 0.0
C1113 C 0.45995 0.52935 0.90389 0.0
C1114 C 0.4677 0.55024 0.91359 0.0
C1115 C 0.46043 0.56226 0.89681 0.0
H1116 H 0.46559 0.52007 0.91691 0.0
H1117 H 0.40372 0.6439 0.75441 0.0
H1118 H 0.84889 0.3875 0.30459 0.0
H1119 H 0.84924 0.39199 0.24119 0.0
H1120 H 0.85106 0.45101 0.25573 0.0
H1121 H 0.84974 0.44608 0.31936 0.0
H1122 H 0.82566 0.43101 0.20521 0.0
H1123 H 0.89565 0.44758 0.232 0.0
H1124 H 0.9233 0.44213 0.2576 0.0
H1125 H 0.90268 0.3868 0.19495 0.0
H1126 H 0.87472 0.39177 0.16927 0.0
H1127 H 0.85889 0.46817 0.03165 0.0
H1128 H 0.85876 0.46388 0.09516 0.0
H1129 H 0.8442 0.39988 0.08137 0.0
H1130 H 0.84421 0.40397 0.01762 0.0
H1131 H 0.87647 0.42299 0.13087 0.0
H1132 H 0.80633 0.40831 0.10372 0.0
H1133 H 0.78046 0.41627 0.07762 0.0
H1134 H 0.80399 0.47163 0.14115 0.0
H1135 H 0.83023 0.46417 0.16726 0.0
C1136 C 0.84944 0.40148 0.29428 0.0
C1137 C 0.84945 0.41653 0.3169 0.0
C1138 C 0.84973 0.40408 0.258 0.0
C1139 C 0.85063 0.42206 0.24359 0.0
C1140 C 0.85044 0.43703 0.26619 0.0
C1141 C 0.84974 0.43424 0.30252 0.0
C1142 C 0.85153 0.4251 0.20498 0.0
C1143 C 0.83698 0.42955 0.18908 0.0
C1144 C 0.86609 0.42292 0.18372 0.0
C1145 C 0.88298 0.41995 0.19894 0.0
C1146 C 0.89693 0.43417 0.22385 0.0
C1147 C 0.91267 0.43118 0.23835 0.0
C1148 C 0.91471 0.4141 0.22798 0.0
C1149 C 0.90106 0.40001 0.20299 0.0
C1150 C 0.88528 0.40292 0.18841 0.0
C1151 C 0.85574 0.45319 0.04205 0.0
C1152 C 0.8515 0.43638 0.01958 0.0
C1153 C 0.85559 0.45076 0.07836 0.0
C1154 C 0.8513 0.43152 0.09288 0.0
C1155 C 0.84751 0.41484 0.07059 0.0
C1156 C 0.84746 0.41719 0.03422 0.0
C1157 C 0.85061 0.42881 0.13138 0.0
C1158 C 0.8652 0.42445 0.14716 0.0
C1159 C 0.83634 0.43144 0.15256 0.0
C1160 C 0.82038 0.43578 0.13721 0.0
C1161 C 0.80609 0.42227 0.11194 0.0
C1162 C 0.79135 0.42668 0.09717 0.0
C1163 C 0.79062 0.44448 0.10765 0.0
C1164 C 0.80459 0.45786 0.13302 0.0
C1165 C 0.81939 0.45354 0.14784 0.0
H1166 H 0.7792 0.44787 0.09616 0.0
H1167 H 0.92691 0.41181 0.23925 0.0
H1168 H 0.46455 0.85058 0.63966 0.0
H1169 H 0.45972 0.85177 0.57657 0.0
H1170 H 0.40362 0.85506 0.5951 0.0
H1171 H 0.40784 0.85276 0.65826 0.0
H1172 H 0.396 0.82929 0.54602 0.0
H1173 H 0.45246 0.8987 0.56604 0.0
H1174 H 0.48694 0.9261 0.58773 0.0
H1175 H 0.51749 0.90178 0.52291 0.0
H1176 H 0.48317 0.87408 0.50107 0.0
H1177 H 0.38957 0.85789 0.36868 0.0
H1178 H 0.39402 0.85857 0.43225 0.0
H1179 H 0.44166 0.8414 0.41958 0.0
H1180 H 0.43735 0.84071 0.35584 0.0
H1181 H 0.45327 0.87573 0.46508 0.0
H1182 H 0.39429 0.8002 0.46444 0.0
H1183 H 0.35887 0.77203 0.44787 0.0
H1184 H 0.33345 0.8114 0.47519 0.0
H1185 H 0.36865 0.83946 0.49331 0.0
C1186 C 0.45125 0.85168 0.63026 0.0
C1187 C 0.43656 0.85158 0.65386 0.0
C1188 C 0.44858 0.85252 0.59415 0.0
C1189 C 0.4315 0.8539 0.5809 0.0
C1190 C 0.41694 0.85402 0.60457 0.0
C1191 C 0.41936 0.85272 0.64067 0.0
C1192 C 0.42823 0.85413 0.54242 0.0
C1193 C 0.4085 0.83978 0.52855 0.0
C1194 C 0.44453 0.86749 0.51922 0.0
C1195 C 0.46522 0.8842 0.53214 0.0
C1196 C 0.46652 0.89911 0.55658 0.0
C1197 C 0.48604 0.91471 0.56888 0.0
C1198 C 0.50439 0.91565 0.5568 0.0
C1199 C 0.50326 0.90103 0.53228 0.0
C1200 C 0.48378 0.88539 0.51988 0.0
C1201 C 0.40097 0.85419 0.37937 0.0
C1202 C 0.41315 0.84929 0.35714 0.0
C1203 C 0.40337 0.85444 0.41575 0.0
C1204 C 0.41802 0.84983 0.43065 0.0
C1205 C 0.43021 0.84494 0.40859 0.0
C1206 C 0.42772 0.84454 0.37218 0.0
C1207 C 0.42118 0.8509 0.46916 0.0
C1208 C 0.44086 0.86546 0.48287 0.0
C1209 C 0.40481 0.83809 0.49237 0.0
C1210 C 0.384 0.8219 0.47972 0.0
C1211 C 0.38113 0.80284 0.46664 0.0
C1212 C 0.3611 0.78687 0.45725 0.0
C1213 C 0.34394 0.78998 0.46016 0.0
C1214 C 0.34675 0.80902 0.47284 0.0
C1215 C 0.36669 0.82489 0.48294 0.0
H1216 H 0.32846 0.77763 0.45267 0.0
H1217 H 0.51948 0.92773 0.56639 0.0
H1218 H 0.5411 0.39099 0.70092 0.0
H1219 H 0.54587 0.39593 0.76412 0.0
H1220 H 0.60722 0.44988 0.74802 0.0
H1221 H 0.60283 0.44454 0.68453 0.0
H1222 H 0.60897 0.42762 0.79956 0.0
H1223 H 0.56386 0.45454 0.77125 0.0
H1224 H 0.53319 0.45449 0.74525 0.0
H1225 H 0.49203 0.40173 0.80908 0.0
H1226 H 0.52246 0.40128 0.83512 0.0
H1227 H 0.61703 0.46742 0.97351 0.0
H1228 H 0.61357 0.46337 0.90981 0.0
H1229 H 0.55857 0.40245 0.92241 0.0
H1230 H 0.56203 0.40624 0.98628 0.0
H1231 H 0.55439 0.4295 0.87308 0.0
H1232 H 0.60151 0.40393 0.90139 0.0
H1233 H 0.63321 0.4062 0.92751 0.0
H1234 H 0.67202 0.45982 0.86356 0.0
H1235 H 0.64053 0.45809 0.83746 0.0
C1236 C 0.55559 0.40396 0.71078 0.0
C1237 C 0.57154 0.41747 0.68772 0.0
C1238 C 0.55827 0.40682 0.74697 0.0
C1239 C 0.57675 0.42352 0.76089 0.0
C1240 C 0.5928 0.43692 0.73791 0.0
C1241 C 0.59025 0.43389 0.70164 0.0
C1242 C 0.57931 0.42682 0.79941 0.0
C1243 C 0.59717 0.42835 0.81553 0.0
C1244 C 0.5638 0.4275 0.82041 0.0
C1245 C 0.54544 0.42776 0.8049 0.0
C1246 C 0.54826 0.44283 0.77956 0.0
C1247 C 0.53092 0.44291 0.76484 0.0
C1248 C 0.51067 0.42809 0.77545 0.0
C1249 C 0.50772 0.41319 0.80086 0.0
C1250 C 0.52501 0.41303 0.81563 0.0
C1251 C 0.60415 0.45318 0.96276 0.0
C1252 C 0.58978 0.43714 0.98491 0.0
C1253 C 0.60228 0.45086 0.92639 0.0
C1254 C 0.58591 0.43256 0.91153 0.0
C1255 C 0.57133 0.41667 0.93349 0.0
C1256 C 0.57336 0.41884 0.9699 0.0
C1257 C 0.58389 0.43011 0.87301 0.0
C1258 C 0.56616 0.4288 0.85697 0.0
C1259 C 0.59968 0.42999 0.85209 0.0
C1260 C 0.61864 0.43101 0.86774 0.0
C1261 C 0.61679 0.41633 0.89314 0.0
C1262 C 0.63473 0.4175 0.9079 0.0
C1263 C 0.65462 0.43318 0.89728 0.0
C1264 C 0.65661 0.4477 0.87181 0.0
C1265 C 0.63872 0.44663 0.85701 0.0
H1266 H 0.66849 0.43405 0.90871 0.0
H1267 H 0.49726 0.42817 0.76402 0.0
H1268 H 0.15882 0.59867 0.01283 0.0
H1269 H 0.15808 0.60328 0.07623 0.0
H1270 H 0.14933 0.54144 0.0929 0.0
H1271 H 0.14925 0.53645 0.02969 0.0
H1272 H 0.12514 0.54667 0.13507 0.0
H1273 H 0.19783 0.58774 0.10512 0.0
H1274 H 0.22875 0.61468 0.07329 0.0
H1275 H 0.21655 0.66243 0.11123 0.0
H1276 H 0.18537 0.63571 0.14293 0.0
H1277 H 0.15666 0.56022 0.31537 0.0
H1278 H 0.15616 0.55579 0.2516 0.0
H1279 H 0.15043 0.61077 0.23727 0.0
H1280 H 0.15062 0.61518 0.30083 0.0
H1281 H 0.1818 0.60933 0.19467 0.0
H1282 H 0.1089 0.56653 0.22606 0.0
H1283 H 0.07929 0.53873 0.25918 0.0
H1284 H 0.09398 0.49303 0.21954 0.0
H1285 H 0.12389 0.52063 0.18658 0.0
C1286 C 0.15671 0.58606 0.03004 0.0
C1287 C 0.15414 0.56722 0.01626 0.0
C1288 C 0.1564 0.58875 0.06629 0.0
C1289 C 0.15398 0.57283 0.08944 0.0
C1290 C 0.15121 0.55395 0.07564 0.0
C1291 C 0.15121 0.55114 0.03946 0.0
C1292 C 0.15421 0.57572 0.12804 0.0
C1293 C 0.1377 0.56026 0.14807 0.0
C1294 C 0.17041 0.59359 0.14512 0.0
C1295 C 0.18914 0.60969 0.12609 0.0
C1296 C 0.20164 0.60396 0.10645 0.0
C1297 C 0.21923 0.61919 0.08847 0.0
C1298 C 0.22458 0.64024 0.09015 0.0
C1299 C 0.21237 0.64611 0.1099 0.0
C1300 C 0.19475 0.63093 0.1279 0.0
C1301 C 0.15526 0.57134 0.29862 0.0
C1302 C 0.15359 0.58799 0.3131 0.0
C1303 C 0.15494 0.56876 0.26226 0.0
C1304 C 0.15318 0.58292 0.23985 0.0
C1305 C 0.15178 0.59969 0.25419 0.0
C1306 C 0.15179 0.6021 0.29049 0.0
C1307 C 0.15284 0.58028 0.20136 0.0
C1308 C 0.16931 0.59578 0.18148 0.0
C1309 C 0.1368 0.56231 0.18449 0.0
C1310 C 0.11876 0.54569 0.20414 0.0
C1311 C 0.10593 0.55058 0.22465 0.0
C1312 C 0.08907 0.53485 0.24335 0.0
C1313 C 0.08479 0.51413 0.24154 0.0
C1314 C 0.09733 0.50909 0.22096 0.0
C1315 C 0.11423 0.52477 0.20224 0.0
H1316 H 0.07173 0.50198 0.25603 0.0
H1317 H 0.2382 0.65202 0.07622 0.0
H1318 H 0.60793 0.17529 0.65101 0.0
H1319 H 0.61328 0.17728 0.58756 0.0
H1320 H 0.54731 0.13396 0.57227 0.0
H1321 H 0.54174 0.13243 0.63551 0.0
H1322 H 0.60879 0.15101 0.53862 0.0
H1323 H 0.52981 0.14571 0.49945 0.0
H1324 H 0.505 0.15574 0.52357 0.0
H1325 H 0.55424 0.2038 0.58559 0.0
H1326 H 0.57941 0.19428 0.56145 0.0
H1327 H 0.5917 0.12774 0.3587 0.0
H1328 H 0.58914 0.12845 0.42249 0.0
H1329 H 0.59034 0.18759 0.41575 0.0
H1330 H 0.59142 0.1861 0.35176 0.0
H1331 H 0.56401 0.16641 0.46126 0.0
H1332 H 0.63485 0.18251 0.44444 0.0
H1333 H 0.66379 0.17799 0.42189 0.0
H1334 H 0.63765 0.11821 0.47302 0.0
H1335 H 0.60856 0.12232 0.49576 0.0
C1336 C 0.59458 0.16611 0.63413 0.0
C1337 C 0.57438 0.15384 0.64823 0.0
C1338 C 0.59767 0.16725 0.59787 0.0
C1339 C 0.58064 0.15606 0.57512 0.0
C1340 C 0.5606 0.14314 0.58926 0.0
C1341 C 0.55746 0.14219 0.62544 0.0
C1342 C 0.58375 0.15806 0.53659 0.0
C1343 C 0.59904 0.15442 0.52168 0.0
C1344 C 0.57145 0.16312 0.51455 0.0
C1345 C 0.55645 0.16913 0.52887 0.0
C1346 C 0.53536 0.15848 0.51811 0.0
C1347 C 0.52123 0.16407 0.53181 0.0
C1348 C 0.52802 0.18035 0.55618 0.0
C1349 C 0.54898 0.19114 0.5668 0.0
C1350 C 0.56318 0.18564 0.55315 0.0
C1351 C 0.59132 0.14082 0.37094 0.0
C1352 C 0.59165 0.15681 0.35047 0.0
C1353 C 0.59008 0.14135 0.40741 0.0
C1354 C 0.58999 0.15831 0.42417 0.0
C1355 C 0.59035 0.17431 0.40357 0.0
C1356 C 0.59095 0.17346 0.36703 0.0
C1357 C 0.58888 0.15903 0.46304 0.0
C1358 C 0.57389 0.16312 0.47809 0.0
C1359 C 0.60203 0.15521 0.48528 0.0
C1360 C 0.61944 0.15264 0.4715 0.0
C1361 C 0.63521 0.16834 0.45063 0.0
C1362 C 0.65164 0.16587 0.43787 0.0
C1363 C 0.65249 0.1478 0.44587 0.0
C1364 C 0.63696 0.13219 0.46679 0.0
C1365 C 0.62053 0.1346 0.47969 0.0
H1366 H 0.66521 0.14592 0.43595 0.0
H1367 H 0.51706 0.18464 0.56677 0.0
loop_
_geom_bond_atom_site_label_1
_geom_bond_atom_site_label_2
_geom_bond_distance
_geom_bond_site_symmetry_2
_ccdc_geom_bond_type
C0 O2 1.247 . S
C0 O4 1.258 . S
C1 O8 1.247 . S
C1 O9 1.258 . S
O2 C0 1.247 . S
O2 Zn3 2.028 . S
Zn3 O2 2.028 . S
Zn3 O7 2.035 . S
Zn3 O9 2.035 . S
Zn3 O10 2.028 . S
O4 C0 1.258 . S
O4 Zn5 2.035 . S
Zn5 O4 2.035 . S
Zn5 O6 2.028 . S
Zn5 O8 2.028 . S
Zn5 O11 2.035 . S
O6 Zn5 2.028 . S
O6 C12 1.247 . S
O7 Zn3 2.035 . S
O7 C12 1.258 . S
O8 C1 1.247 . S
O8 Zn5 2.028 . S
O9 C1 1.258 . S
O9 Zn3 2.035 . S
O10 Zn3 2.028 . S
O10 C13 1.247 . S
O11 Zn5 2.035 . S
O11 C13 1.258 . S
C12 O6 1.247 . S
C12 O7 1.258 . S
C13 O10 1.247 . S
C13 O11 1.258 . S
C14 O16 1.247 . S
C14 O18 1.258 . S
C15 O22 1.247 . S
C15 O23 1.258 . S
O16 C14 1.247 . S
O16 Zn17 2.028 . S
Zn17 O16 2.028 . S
Zn17 O21 2.035 . S
Zn17 O23 2.035 . S
Zn17 O24 2.028 . S
O18 C14 1.258 . S
O18 Zn19 2.035 . S
Zn19 O18 2.035 . S
Zn19 O20 2.028 . S
Zn19 O22 2.028 . S
Zn19 O25 2.035 . S
O20 Zn19 2.028 . S
O20 C26 1.247 . S
O21 Zn17 2.035 . S
O21 C26 1.258 . S
O22 C15 1.247 . S
O22 Zn19 2.028 . S
O23 C15 1.258 . S
O23 Zn17 2.035 . S
O24 Zn17 2.028 . S
O24 C27 1.247 . S
O25 Zn19 2.035 . S
O25 C27 1.258 . S
C26 O20 1.247 . S
C26 O21 1.258 . S
C27 O24 1.247 . S
C27 O25 1.258 . S
C28 O30 1.247 . S
C28 O32 1.258 . S
C29 O36 1.247 . S
C29 O37 1.258 . S
O30 C28 1.247 . S
O30 Zn31 2.028 . S
Zn31 O30 2.028 . S
Zn31 O35 2.035 . S
Zn31 O37 2.035 . S
Zn31 O38 2.028 . S
O32 C28 1.258 . S
O32 Zn33 2.035 . S
Zn33 O32 2.035 . S
Zn33 O34 2.028 . S
Zn33 O36 2.028 . S
Zn33 O39 2.035 . S
O34 Zn33 2.028 . S
O34 C40 1.247 . S
O35 Zn31 2.035 . S
O35 C40 1.258 . S
O36 C29 1.247 . S
O36 Zn33 2.028 . S
O37 C29 1.258 . S
O37 Zn31 2.035 . S
O38 Zn31 2.028 . S
O38 C41 1.247 . S
O39 Zn33 2.035 . S
O39 C41 1.258 . S
C40 O34 1.247 . S
C40 O35 1.258 . S
C41 O38 1.247 . S
C41 O39 1.258 . S
C42 O44 1.247 . S
C42 O46 1.258 . S
C43 O50 1.247 . S
C43 O51 1.258 . S
O44 C42 1.247 . S
O44 Zn45 2.028 . S
Zn45 O44 2.028 . S
Zn45 O49 2.035 . S
Zn45 O51 2.035 . S
Zn45 O52 2.028 . S
O46 C42 1.258 . S
O46 Zn47 2.035 . S
Zn47 O46 2.035 . S
Zn47 O48 2.028 . S
Zn47 O50 2.028 . S
Zn47 O53 2.035 . S
O48 Zn47 2.028 . S
O48 C54 1.247 . S
O49 Zn45 2.035 . S
O49 C54 1.258 . S
O50 C43 1.247 . S
O50 Zn47 2.028 . S
O51 C43 1.258 . S
O51 Zn45 2.035 . S
O52 Zn45 2.028 . S
O52 C55 1.247 . S
O53 Zn47 2.035 . S
O53 C55 1.258 . S
C54 O48 1.247 . S
C54 O49 1.258 . S
C55 O52 1.247 . S
C55 O53 1.258 . S
C56 O58 1.247 . S
C56 O60 1.258 . S
C57 O64 1.247 . S
C57 O65 1.258 . S
O58 C56 1.247 . S
O58 Zn59 2.028 . S
Zn59 O58 2.028 . S
Zn59 O63 2.035 . S
Zn59 O65 2.035 . S
Zn59 O66 2.028 . S
O60 C56 1.258 . S
O60 Zn61 2.035 . S
Zn61 O60 2.035 . S
Zn61 O62 2.028 . S
Zn61 O64 2.028 . S
Zn61 O67 2.035 . S
O62 Zn61 2.028 . S
O62 C68 1.247 . S
O63 Zn59 2.035 . S
O63 C68 1.258 . S
O64 C57 1.247 . S
O64 Zn61 2.028 . S
O65 C57 1.258 . S
O65 Zn59 2.035 . S
O66 Zn59 2.028 . S
O66 C69 1.247 . S
O67 Zn61 2.035 . S
O67 C69 1.258 . S
C68 O62 1.247 . S
C68 O63 1.258 . S
C69 O66 1.247 . S
C69 O67 1.258 . S
C70 O72 1.247 . S
C70 O74 1.258 . S
C71 O78 1.247 . S
C71 O79 1.258 . S
O72 C70 1.247 . S
O72 Zn73 2.028 . S
Zn73 O72 2.028 . S
Zn73 O77 2.035 . S
Zn73 O79 2.035 . S
Zn73 O80 2.028 . S
O74 C70 1.258 . S
O74 Zn75 2.035 . S
Zn75 O74 2.035 . S
Zn75 O76 2.028 . S
Zn75 O78 2.028 . S
Zn75 O81 2.035 . S
O76 Zn75 2.028 . S
O76 C82 1.247 . S
O77 Zn73 2.035 . S
O77 C82 1.258 . S
O78 C71 1.247 . S
O78 Zn75 2.028 . S
O79 C71 1.258 . S
O79 Zn73 2.035 . S
O80 Zn73 2.028 . S
O80 C83 1.247 . S
O81 Zn75 2.035 . S
O81 C83 1.258 . S
C82 O76 1.247 . S
C82 O77 1.258 . S
C83 O80 1.247 . S
C83 O81 1.258 . S
C84 O86 1.247 . S
C84 O88 1.258 . S
C85 O92 1.247 . S
C85 O93 1.258 . S
O86 C84 1.247 . S
O86 Zn87 2.028 . S
Zn87 O86 2.028 . S
Zn87 O91 2.035 . S
Zn87 O93 2.035 . S
Zn87 O94 2.028 . S
O88 C84 1.258 . S
O88 Zn89 2.035 . S
Zn89 O88 2.035 . S
Zn89 O90 2.028 . S
Zn89 O92 2.028 . S
Zn89 O95 2.035 . S
O90 Zn89 2.028 . S
O90 C96 1.247 . S
O91 Zn87 2.035 . S
O91 C96 1.258 . S
O92 C85 1.247 . S
O92 Zn89 2.028 . S
O93 C85 1.258 . S
O93 Zn87 2.035 . S
O94 Zn87 2.028 . S
O94 C97 1.247 . S
O95 Zn89 2.035 . S
O95 C97 1.258 . S
C96 O90 1.247 . S
C96 O91 1.258 . S
C97 O94 1.247 . S
C97 O95 1.258 . S
C98 O100 1.247 . S
C98 O102 1.258 . S
C99 O106 1.247 . S
C99 O107 1.258 . S
O100 C98 1.247 . S
O100 Zn101 2.028 . S
Zn101 O100 2.028 . S
Zn101 O105 2.035 . S
Zn101 O107 2.035 . S
Zn101 O108 2.028 . S
O102 C98 1.258 . S
O102 Zn103 2.035 . S
Zn103 O102 2.035 . S
Zn103 O104 2.028 . S
Zn103 O106 2.028 . S
Zn103 O109 2.035 . S
O104 Zn103 2.028 . S
O104 C110 1.247 . S
O105 Zn101 2.035 . S
O105 C110 1.258 . S
O106 C99 1.247 . S
O106 Zn103 2.028 . S
O107 C99 1.258 . S
O107 Zn101 2.035 . S
O108 Zn101 2.028 . S
O108 C111 1.247 . S
O109 Zn103 2.035 . S
O109 C111 1.258 . S
C110 O104 1.247 . S
C110 O105 1.258 . S
C111 O108 1.247 . S
C111 O109 1.258 . S
C112 O114 1.247 . S
C112 O116 1.258 . S
C113 O120 1.247 . S
C113 O121 1.258 . S
O114 C112 1.247 . S
O114 Zn115 2.028 . S
Zn115 O114 2.028 . S
Zn115 O119 2.035 . S
Zn115 O121 2.035 . S
Zn115 O122 2.028 . S
O116 C112 1.258 . S
O116 Zn117 2.035 . S
Zn117 O116 2.035 . S
Zn117 O118 2.028 . S
Zn117 O120 2.028 . S
Zn117 O123 2.035 . S
O118 Zn117 2.028 . S
O118 C124 1.247 . S
O119 Zn115 2.035 . S
O119 C124 1.258 . S
O120 C113 1.247 . S
O120 Zn117 2.028 . S
O121 C113 1.258 . S
O121 Zn115 2.035 . S
O122 Zn115 2.028 . S
O122 C125 1.247 . S
O123 Zn117 2.035 . S
O123 C125 1.258 . S
C124 O118 1.247 . S
C124 O119 1.258 . S
C125 O122 1.247 . S
C125 O123 1.258 . S
C126 O128 1.247 . S
C126 O130 1.258 . S
C127 O134 1.247 . S
C127 O135 1.258 . S
O128 C126 1.247 . S
O128 Zn129 2.028 . S
Zn129 O128 2.028 . S
Zn129 O133 2.035 . S
Zn129 O135 2.035 . S
Zn129 O136 2.028 . S
O130 C126 1.258 . S
O130 Zn131 2.035 . S
Zn131 O130 2.035 . S
Zn131 O132 2.028 . S
Zn131 O134 2.028 . S
Zn131 O137 2.035 . S
O132 Zn131 2.028 . S
O132 C138 1.247 . S
O133 Zn129 2.035 . S
O133 C138 1.258 . S
O134 C127 1.247 . S
O134 Zn131 2.028 . S
O135 C127 1.258 . S
O135 Zn129 2.035 . S
O136 Zn129 2.028 . S
O136 C139 1.247 . S
O137 Zn131 2.035 . S
O137 C139 1.258 . S
C138 O132 1.247 . S
C138 O133 1.258 . S
C139 O136 1.247 . S
C139 O137 1.258 . S
C140 O142 1.247 . S
C140 O144 1.258 . S
C141 O148 1.247 . S
C141 O149 1.258 . S
O142 C140 1.247 . S
O142 Zn143 2.028 . S
Zn143 O142 2.028 . S
Zn143 O147 2.035 . S
Zn143 O149 2.035 . S
Zn143 O150 2.028 . S
O144 C140 1.258 . S
O144 Zn145 2.035 . S
Zn145 O144 2.035 . S
Zn145 O146 2.028 . S
Zn145 O148 2.028 . S
Zn145 O151 2.035 . S
O146 Zn145 2.028 . S
O146 C152 1.247 . S
O147 Zn143 2.035 . S
O147 C152 1.258 . S
O148 C141 1.247 . S
O148 Zn145 2.028 . S
O149 C141 1.258 . S
O149 Zn143 2.035 . S
O150 Zn143 2.028 . S
O150 C153 1.247 . S
O151 Zn145 2.035 . S
O151 C153 1.258 . S
C152 O146 1.247 . S
C152 O147 1.258 . S
C153 O150 1.247 . S
C153 O151 1.258 . S
C154 O156 1.247 . S
C154 O158 1.258 . S
C155 O162 1.247 . S
C155 O163 1.258 . S
O156 C154 1.247 . S
O156 Zn157 2.028 . S
Zn157 O156 2.028 . S
Zn157 O161 2.035 . S
Zn157 O163 2.035 . S
Zn157 O164 2.028 . S
O158 C154 1.258 . S
O158 Zn159 2.035 . S
Zn159 O158 2.035 . S
Zn159 O160 2.028 . S
Zn159 O162 2.028 . S
Zn159 O165 2.035 . S
O160 Zn159 2.028 . S
O160 C166 1.247 . S
O161 Zn157 2.035 . S
O161 C166 1.258 . S
O162 C155 1.247 . S
O162 Zn159 2.028 . S
O163 C155 1.258 . S
O163 Zn157 2.035 . S
O164 Zn157 2.028 . S
O164 C167 1.247 . S
O165 Zn159 2.035 . S
O165 C167 1.258 . S
C166 O160 1.247 . S
C166 O161 1.258 . S
C167 O164 1.247 . S
C167 O165 1.258 . S
H168 C186 0.951 . S
H169 C188 0.951 . S
H170 C190 0.950 . S
H171 C191 0.950 . S
H172 C193 0.950 . S
H173 C196 0.950 . S
H174 C197 0.950 . S
H175 C199 0.950 . S
H176 C200 0.950 . S
H177 C201 0.951 . S
H178 C203 0.951 . S
H179 C205 0.950 . S
H180 C206 0.950 . S
H181 C208 0.950 . S
H182 C211 0.950 . S
H183 C212 0.950 . S
H184 C214 0.950 . S
H185 C215 0.950 . S
C186 H168 0.951 . S
C186 C187 1.366 . S
C186 C188 1.388 . S
C187 C186 1.366 . S
C187 C191 1.385 . S
C188 H169 0.951 . S
C188 C186 1.388 . S
C188 C189 1.366 . S
C189 C188 1.366 . S
C189 C190 1.414 . S
C189 C192 1.499 . S
C190 H170 0.950 . S
C190 C189 1.414 . S
C190 C191 1.374 . S
C191 H171 0.950 . S
C191 C187 1.385 . S
C191 C190 1.374 . S
C192 C189 1.499 . S
C192 C193 1.373 . S
C192 C194 1.389 . S
C193 H172 0.950 . S
C193 C192 1.373 . S
C193 C209 1.377 . S
C194 C192 1.389 . S
C194 C195 1.524 . S
C194 C208 1.377 . S
C195 C194 1.524 . S
C195 C196 1.397 . S
C195 C200 1.363 . S
C196 H173 0.950 . S
C196 C195 1.397 . S
C196 C197 1.334 . S
C197 H174 0.950 . S
C197 C196 1.334 . S
C197 C198 1.287 . S
C198 C197 1.287 . S
C198 C199 1.524 . S
C198 H217 0.913 . S
C199 H175 0.950 . S
C199 C198 1.524 . S
C199 C200 1.415 . S
C200 H176 0.950 . S
C200 C195 1.363 . S
C200 C199 1.415 . S
C201 H177 0.951 . S
C201 C202 1.366 . S
C201 C203 1.388 . S
C202 C201 1.366 . S
C202 C206 1.385 . S
C203 H178 0.951 . S
C203 C201 1.388 . S
C203 C204 1.366 . S
C204 C203 1.366 . S
C204 C205 1.414 . S
C204 C207 1.499 . S
C205 H179 0.950 . S
C205 C204 1.414 . S
C205 C206 1.374 . S
C206 H180 0.950 . S
C206 C202 1.385 . S
C206 C205 1.374 . S
C207 C204 1.499 . S
C207 C208 1.373 . S
C207 C209 1.389 . S
C208 H181 0.950 . S
C208 C194 1.377 . S
C208 C207 1.373 . S
C209 C193 1.377 . S
C209 C207 1.389 . S
C209 C210 1.524 . S
C210 C209 1.524 . S
C210 C211 1.397 . S
C210 C215 1.363 . S
C211 H182 0.950 . S
C211 C210 1.397 . S
C211 C212 1.334 . S
C212 H183 0.950 . S
C212 C211 1.334 . S
C212 C213 1.287 . S
C213 C212 1.287 . S
C213 C214 1.524 . S
C213 H216 0.999 . S
C214 H184 0.950 . S
C214 C213 1.524 . S
C214 C215 1.415 . S
C215 H185 0.950 . S
C215 C210 1.363 . S
C215 C214 1.415 . S
H216 C213 0.999 . S
H217 C198 0.913 . S
H218 C236 0.951 . S
H219 C238 0.951 . S
H220 C240 0.950 . S
H221 C241 0.950 . S
H222 C243 0.950 . S
H223 C246 0.950 . S
H224 C247 0.950 . S
H225 C249 0.950 . S
H226 C250 0.950 . S
H227 C251 0.951 . S
H228 C253 0.951 . S
H229 C255 0.950 . S
H230 C256 0.950 . S
H231 C258 0.950 . S
H232 C261 0.950 . S
H233 C262 0.950 . S
H234 C264 0.950 . S
H235 C265 0.950 . S
C236 H218 0.951 . S
C236 C237 1.366 . S
C236 C238 1.388 . S
C237 C236 1.366 . S
C237 C241 1.385 . S
C238 H219 0.951 . S
C238 C236 1.388 . S
C238 C239 1.366 . S
C239 C238 1.366 . S
C239 C240 1.414 . S
C239 C242 1.499 . S
C240 H220 0.950 . S
C240 C239 1.414 . S
C240 C241 1.374 . S
C241 H221 0.950 . S
C241 C237 1.385 . S
C241 C240 1.374 . S
C242 C239 1.499 . S
C242 C243 1.373 . S
C242 C244 1.389 . S
C243 H222 0.950 . S
C243 C242 1.373 . S
C243 C259 1.377 . S
C244 C242 1.389 . S
C244 C245 1.524 . S
C244 C258 1.377 . S
C245 C244 1.524 . S
C245 C246 1.397 . S
C245 C250 1.363 . S
C246 H223 0.950 . S
C246 C245 1.397 . S
C246 C247 1.334 . S
C247 H224 0.950 . S
C247 C246 1.334 . S
C247 C248 1.287 . S
C248 C247 1.287 . S
C248 C249 1.524 . S
C248 H267 0.913 . S
C249 H225 0.950 . S
C249 C248 1.524 . S
C249 C250 1.415 . S
C250 H226 0.950 . S
C250 C245 1.363 . S
C250 C249 1.415 . S
C251 H227 0.951 . S
C251 C252 1.366 . S
C251 C253 1.388 . S
C252 C251 1.366 . S
C252 C256 1.385 . S
C253 H228 0.951 . S
C253 C251 1.388 . S
C253 C254 1.366 . S
C254 C253 1.366 . S
C254 C255 1.414 . S
C254 C257 1.499 . S
C255 H229 0.950 . S
C255 C254 1.414 . S
C255 C256 1.374 . S
C256 H230 0.950 . S
C256 C252 1.385 . S
C256 C255 1.374 . S
C257 C254 1.499 . S
C257 C258 1.373 . S
C257 C259 1.389 . S
C258 H231 0.950 . S
C258 C244 1.377 . S
C258 C257 1.373 . S
C259 C243 1.377 . S
C259 C257 1.389 . S
C259 C260 1.524 . S
C260 C259 1.524 . S
C260 C261 1.397 . S
C260 C265 1.363 . S
C261 H232 0.950 . S
C261 C260 1.397 . S
C261 C262 1.334 . S
C262 H233 0.950 . S
C262 C261 1.334 . S
C262 C263 1.287 . S
C263 C262 1.287 . S
C263 C264 1.524 . S
C263 H266 0.999 . S
C264 H234 0.950 . S
C264 C263 1.524 . S
C264 C265 1.415 . S
C265 H235 0.950 . S
C265 C260 1.363 . S
C265 C264 1.415 . S
H266 C263 0.999 . S
H267 C248 0.913 . S
H268 C286 0.951 . S
H269 C288 0.951 . S
H270 C290 0.950 . S
H271 C291 0.950 . S
H272 C293 0.950 . S
H273 C296 0.950 . S
H274 C297 0.950 . S
H275 C299 0.950 . S
H276 C300 0.950 1_554 S
H277 C301 0.951 . S
H278 C303 0.951 . S
H279 C305 0.950 . S
H280 C306 0.950 . S
H281 C308 0.950 . S
H282 C311 0.950 . S
H283 C312 0.950 . S
H284 C314 0.950 . S
H285 C315 0.950 1_556 S
C286 H268 0.951 . S
C286 C287 1.366 . S
C286 C288 1.388 . S
C287 C286 1.366 . S
C287 C291 1.385 . S
C288 H269 0.951 . S
C288 C286 1.388 . S
C288 C289 1.366 . S
C289 C288 1.366 . S
C289 C290 1.414 . S
C289 C292 1.499 . S
C290 H270 0.950 . S
C290 C289 1.414 . S
C290 C291 1.374 . S
C291 H271 0.950 . S
C291 C287 1.385 . S
C291 C290 1.374 . S
C292 C289 1.499 . S
C292 C293 1.373 . S
C292 C294 1.389 . S
C293 H272 0.950 . S
C293 C292 1.373 . S
C293 C309 1.377 1_556 S
C294 C292 1.389 . S
C294 C295 1.524 . S
C294 C308 1.377 1_556 S
C295 C294 1.524 . S
C295 C296 1.397 . S
C295 C300 1.363 . S
C296 H273 0.950 . S
C296 C295 1.397 . S
C296 C297 1.334 . S
C297 H274 0.950 . S
C297 C296 1.334 . S
C297 C298 1.287 . S
C298 C297 1.287 . S
C298 C299 1.524 . S
C298 H317 0.913 . S
C299 H275 0.950 . S
C299 C298 1.524 . S
C299 C300 1.415 . S
C300 H276 0.950 1_556 S
C300 C295 1.363 . S
C300 C299 1.415 . S
C301 H277 0.951 . S
C301 C302 1.366 . S
C301 C303 1.388 . S
C302 C301 1.366 . S
C302 C306 1.385 . S
C303 H278 0.951 . S
C303 C301 1.388 . S
C303 C304 1.366 . S
C304 C303 1.366 . S
C304 C305 1.414 . S
C304 C307 1.499 . S
C305 H279 0.950 . S
C305 C304 1.414 . S
C305 C306 1.374 . S
C306 H280 0.950 . S
C306 C302 1.385 . S
C306 C305 1.374 . S
C307 C304 1.499 . S
C307 C308 1.373 . S
C307 C309 1.389 . S
C308 H281 0.950 . S
C308 C294 1.377 1_554 S
C308 C307 1.373 . S
C309 C293 1.377 1_554 S
C309 C307 1.389 . S
C309 C310 1.524 . S
C310 C309 1.524 . S
C310 C311 1.397 . S
C310 C315 1.363 . S
C311 H282 0.950 . S
C311 C310 1.397 . S
C311 C312 1.334 . S
C312 H283 0.950 . S
C312 C311 1.334 . S
C312 C313 1.287 . S
C313 C312 1.287 . S
C313 C314 1.524 . S
C313 H316 0.999 . S
C314 H284 0.950 . S
C314 C313 1.524 . S
C314 C315 1.415 . S
C315 H285 0.950 1_554 S
C315 C310 1.363 . S
C315 C314 1.415 . S
H316 C313 0.999 . S
H317 C298 0.913 . S
H318 C336 0.951 . S
H319 C338 0.951 . S
H320 C340 0.950 . S
H321 C341 0.950 . S
H322 C343 0.950 . S
H323 C346 0.950 . S
H324 C347 0.950 . S
H325 C349 0.950 . S
H326 C350 0.950 . S
H327 C351 0.951 . S
H328 C353 0.951 . S
H329 C355 0.950 . S
H330 C356 0.950 . S
H331 C358 0.950 . S
H332 C361 0.950 . S
H333 C362 0.950 . S
H334 C364 0.950 . S
H335 C365 0.950 . S
C336 H318 0.951 . S
C336 C337 1.366 . S
C336 C338 1.388 . S
C337 C336 1.366 . S
C337 C341 1.385 . S
C338 H319 0.951 . S
C338 C336 1.388 . S
C338 C339 1.366 . S
C339 C338 1.366 . S
C339 C340 1.414 . S
C339 C342 1.499 . S
C340 H320 0.950 . S
C340 C339 1.414 . S
C340 C341 1.374 . S
C341 H321 0.950 . S
C341 C337 1.385 . S
C341 C340 1.374 . S
C342 C339 1.499 . S
C342 C343 1.373 . S
C342 C344 1.389 . S
C343 H322 0.950 . S
C343 C342 1.373 . S
C343 C359 1.377 . S
C344 C342 1.389 . S
C344 C345 1.524 . S
C344 C358 1.377 . S
C345 C344 1.524 . S
C345 C346 1.397 . S
C345 C350 1.363 . S
C346 H323 0.950 . S
C346 C345 1.397 . S
C346 C347 1.334 . S
C347 H324 0.950 . S
C347 C346 1.334 . S
C347 C348 1.287 . S
C348 C347 1.287 . S
C348 C349 1.524 . S
C348 H367 0.913 . S
C349 H325 0.950 . S
C349 C348 1.524 . S
C349 C350 1.415 . S
C350 H326 0.950 . S
C350 C345 1.363 . S
C350 C349 1.415 . S
C351 H327 0.951 . S
C351 C352 1.366 . S
C351 C353 1.388 . S
C352 C351 1.366 . S
C352 C356 1.385 . S
C353 H328 0.951 . S
C353 C351 1.388 . S
C353 C354 1.366 . S
C354 C353 1.366 . S
C354 C355 1.414 . S
C354 C357 1.499 . S
C355 H329 0.950 . S
C355 C354 1.414 . S
C355 C356 1.374 . S
C356 H330 0.950 . S
C356 C352 1.385 . S
C356 C355 1.374 . S
C357 C354 1.499 . S
C357 C358 1.373 . S
C357 C359 1.389 . S
C358 H331 0.950 . S
C358 C344 1.377 . S
C358 C357 1.373 . S
C359 C343 1.377 . S
C359 C357 1.389 . S
C359 C360 1.524 . S
C360 C359 1.524 . S
C360 C361 1.397 . S
C360 C365 1.363 . S
C361 H332 0.950 . S
C361 C360 1.397 . S
C361 C362 1.334 . S
C362 H333 0.950 . S
C362 C361 1.334 . S
C362 C363 1.287 . S
C363 C362 1.287 . S
C363 C364 1.524 . S
C363 H366 0.999 . S
C364 H334 0.950 . S
C364 C363 1.524 . S
C364 C365 1.415 . S
C365 H335 0.950 . S
C365 C360 1.363 . S
C365 C364 1.415 . S
H366 C363 0.999 . S
H367 C348 0.913 . S
H368 C386 0.951 . S
H369 C388 0.951 . S
H370 C390 0.950 . S
H371 C391 0.950 . S
H372 C393 0.950 . S
H373 C396 0.950 . S
H374 C397 0.950 . S
H375 C399 0.950 . S
H376 C400 0.950 . S
H377 C401 0.951 . S
H378 C403 0.951 . S
H379 C405 0.950 . S
H380 C406 0.950 . S
H381 C408 0.950 . S
H382 C411 0.950 . S
H383 C412 0.950 . S
H384 C414 0.950 . S
H385 C415 0.950 . S
C386 H368 0.951 . S
C386 C387 1.366 . S
C386 C388 1.388 . S
C387 C386 1.366 . S
C387 C391 1.385 . S
C388 H369 0.951 . S
C388 C386 1.388 . S
C388 C389 1.366 . S
C389 C388 1.366 . S
C389 C390 1.414 . S
C389 C392 1.499 . S
C390 H370 0.950 . S
C390 C389 1.414 . S
C390 C391 1.374 . S
C391 H371 0.950 . S
C391 C387 1.385 . S
C391 C390 1.374 . S
C392 C389 1.499 . S
C392 C393 1.373 . S
C392 C394 1.389 . S
C393 H372 0.950 . S
C393 C392 1.373 . S
C393 C409 1.377 . S
C394 C392 1.389 . S
C394 C395 1.524 . S
C394 C408 1.377 . S
C395 C394 1.524 . S
C395 C396 1.397 . S
C395 C400 1.363 . S
C396 H373 0.950 . S
C396 C395 1.397 . S
C396 C397 1.334 . S
C397 H374 0.950 . S
C397 C396 1.334 . S
C397 C398 1.287 . S
C398 C397 1.287 . S
C398 C399 1.524 . S
C398 H417 0.913 . S
C399 H375 0.950 . S
C399 C398 1.524 . S
C399 C400 1.415 . S
C400 H376 0.950 . S
C400 C395 1.363 . S
C400 C399 1.415 . S
C401 H377 0.951 . S
C401 C402 1.366 . S
C401 C403 1.388 . S
C402 C401 1.366 . S
C402 C406 1.385 . S
C403 H378 0.951 . S
C403 C401 1.388 . S
C403 C404 1.366 . S
C404 C403 1.366 . S
C404 C405 1.414 . S
C404 C407 1.499 . S
C405 H379 0.950 . S
C405 C404 1.414 . S
C405 C406 1.374 . S
C406 H380 0.950 . S
C406 C402 1.385 . S
C406 C405 1.374 . S
C407 C404 1.499 . S
C407 C408 1.373 . S
C407 C409 1.389 . S
C408 H381 0.950 . S
C408 C394 1.377 . S
C408 C407 1.373 . S
C409 C393 1.377 . S
C409 C407 1.389 . S
C409 C410 1.524 . S
C410 C409 1.524 . S
C410 C411 1.397 . S
C410 C415 1.363 . S
C411 H382 0.950 . S
C411 C410 1.397 . S
C411 C412 1.334 . S
C412 H383 0.950 . S
C412 C411 1.334 . S
C412 C413 1.287 . S
C413 C412 1.287 . S
C413 C414 1.524 . S
C413 H416 0.999 . S
C414 H384 0.950 . S
C414 C413 1.524 . S
C414 C415 1.415 . S
C415 H385 0.950 . S
C415 C410 1.363 . S
C415 C414 1.415 . S
H416 C413 0.999 . S
H417 C398 0.913 . S
H418 C436 0.951 . S
H419 C438 0.951 . S
H420 C440 0.950 . S
H421 C441 0.950 . S
H422 C443 0.950 . S
H423 C446 0.950 . S
H424 C447 0.950 . S
H425 C449 0.950 . S
H426 C450 0.950 . S
H427 C451 0.951 . S
H428 C453 0.951 . S
H429 C455 0.950 . S
H430 C456 0.950 . S
H431 C458 0.950 . S
H432 C461 0.950 . S
H433 C462 0.950 . S
H434 C464 0.950 . S
H435 C465 0.950 . S
C436 H418 0.951 . S
C436 C437 1.366 . S
C436 C438 1.388 . S
C437 C436 1.366 . S
C437 C441 1.385 . S
C438 H419 0.951 . S
C438 C436 1.388 . S
C438 C439 1.366 . S
C439 C438 1.366 . S
C439 C440 1.414 . S
C439 C442 1.499 . S
C440 H420 0.950 . S
C440 C439 1.414 . S
C440 C441 1.374 . S
C441 H421 0.950 . S
C441 C437 1.385 . S
C441 C440 1.374 . S
C442 C439 1.499 . S
C442 C443 1.373 . S
C442 C444 1.389 . S
C443 H422 0.950 . S
C443 C442 1.373 . S
C443 C459 1.377 1_554 S
C444 C442 1.389 . S
C444 C445 1.524 . S
C444 C458 1.377 1_554 S
C445 C444 1.524 . S
C445 C446 1.397 . S
C445 C450 1.363 . S
C446 H423 0.950 . S
C446 C445 1.397 . S
C446 C447 1.334 . S
C447 H424 0.950 . S
C447 C446 1.334 . S
C447 C448 1.287 . S
C448 C447 1.287 . S
C448 C449 1.524 . S
C448 H467 0.913 . S
C449 H425 0.950 . S
C449 C448 1.524 . S
C449 C450 1.415 . S
C450 H426 0.950 . S
C450 C445 1.363 . S
C450 C449 1.415 . S
C451 H427 0.951 . S
C451 C452 1.366 . S
C451 C453 1.388 . S
C452 C451 1.366 . S
C452 C456 1.385 . S
C453 H428 0.951 . S
C453 C451 1.388 . S
C453 C454 1.366 . S
C454 C453 1.366 . S
C454 C455 1.414 . S
C454 C457 1.499 . S
C455 H429 0.950 . S
C455 C454 1.414 . S
C455 C456 1.374 . S
C456 H430 0.950 . S
C456 C452 1.385 . S
C456 C455 1.374 . S
C457 C454 1.499 . S
C457 C458 1.373 . S
C457 C459 1.389 . S
C458 H431 0.950 . S
C458 C444 1.377 1_556 S
C458 C457 1.373 . S
C459 C443 1.377 1_556 S
C459 C457 1.389 . S
C459 C460 1.524 . S
C460 C459 1.524 . S
C460 C461 1.397 . S
C460 C465 1.363 . S
C461 H432 0.950 . S
C461 C460 1.397 . S
C461 C462 1.334 . S
C462 H433 0.950 . S
C462 C461 1.334 . S
C462 C463 1.287 . S
C463 C462 1.287 . S
C463 C464 1.524 . S
C463 H466 0.999 . S
C464 H434 0.950 . S
C464 C463 1.524 . S
C464 C465 1.415 . S
C465 H435 0.950 . S
C465 C460 1.363 . S
C465 C464 1.415 . S
H466 C463 0.999 . S
H467 C448 0.913 . S
H468 C486 0.951 . S
H469 C488 0.951 . S
H470 C490 0.950 1_556 S
H471 C491 0.950 . S
H472 C493 0.950 . S
H473 C496 0.950 . S
H474 C497 0.950 . S
H475 C499 0.950 . S
H476 C500 0.950 . S
H477 C501 0.951 . S
H478 C503 0.951 . S
H479 C505 0.950 1_554 S
H480 C506 0.950 . S
H481 C508 0.950 . S
H482 C511 0.950 . S
H483 C512 0.950 . S
H484 C514 0.950 . S
H485 C515 0.950 . S
C486 H468 0.951 . S
C486 C487 1.366 . S
C486 C488 1.388 . S
C487 C486 1.366 . S
C487 C491 1.385 . S
C488 H469 0.951 . S
C488 C486 1.388 . S
C488 C489 1.366 . S
C489 C488 1.366 . S
C489 C490 1.414 . S
C489 C492 1.499 . S
C490 H470 0.950 1_554 S
C490 C489 1.414 . S
C490 C491 1.374 . S
C491 H471 0.950 . S
C491 C487 1.385 . S
C491 C490 1.374 . S
C492 C489 1.499 . S
C492 C493 1.373 1_554 S
C492 C494 1.389 . S
C493 H472 0.950 . S
C493 C492 1.373 1_556 S
C493 C509 1.377 . S
C494 C492 1.389 . S
C494 C495 1.524 . S
C494 C508 1.377 . S
C495 C494 1.524 . S
C495 C496 1.397 . S
C495 C500 1.363 . S
C496 H473 0.950 . S
C496 C495 1.397 . S
C496 C497 1.334 . S
C497 H474 0.950 . S
C497 C496 1.334 . S
C497 C498 1.287 . S
C498 C497 1.287 . S
C498 C499 1.524 . S
C498 H517 0.913 . S
C499 H475 0.950 . S
C499 C498 1.524 . S
C499 C500 1.415 . S
C500 H476 0.950 . S
C500 C495 1.363 . S
C500 C499 1.415 . S
C501 H477 0.951 . S
C501 C502 1.366 . S
C501 C503 1.388 . S
C502 C501 1.366 . S
C502 C506 1.385 . S
C503 H478 0.951 . S
C503 C501 1.388 . S
C503 C504 1.366 . S
C504 C503 1.366 . S
C504 C505 1.414 . S
C504 C507 1.499 . S
C505 H479 0.950 1_556 S
C505 C504 1.414 . S
C505 C506 1.374 . S
C506 H480 0.950 . S
C506 C502 1.385 . S
C506 C505 1.374 . S
C507 C504 1.499 . S
C507 C508 1.373 1_556 S
C507 C509 1.389 . S
C508 H481 0.950 . S
C508 C494 1.377 . S
C508 C507 1.373 1_554 S
C509 C493 1.377 . S
C509 C507 1.389 . S
C509 C510 1.524 . S
C510 C509 1.524 . S
C510 C511 1.397 . S
C510 C515 1.363 . S
C511 H482 0.950 . S
C511 C510 1.397 . S
C511 C512 1.334 . S
C512 H483 0.950 . S
C512 C511 1.334 . S
C512 C513 1.287 . S
C513 C512 1.287 . S
C513 C514 1.524 . S
C513 H516 0.999 . S
C514 H484 0.950 . S
C514 C513 1.524 . S
C514 C515 1.415 . S
C515 H485 0.950 . S
C515 C510 1.363 . S
C515 C514 1.415 . S
H516 C513 0.999 . S
H517 C498 0.913 . S
H518 C536 0.951 . S
H519 C538 0.951 . S
H520 C540 0.950 . S
H521 C541 0.950 . S
H522 C543 0.950 . S
H523 C546 0.950 . S
H524 C547 0.950 . S
H525 C549 0.950 . S
H526 C550 0.950 . S
H527 C551 0.951 . S
H528 C553 0.951 . S
H529 C555 0.950 . S
H530 C556 0.950 . S
H531 C558 0.950 . S
H532 C561 0.950 . S
H533 C562 0.950 . S
H534 C564 0.950 . S
H535 C565 0.950 . S
C536 H518 0.951 . S
C536 C537 1.366 . S
C536 C538 1.388 . S
C537 C536 1.366 . S
C537 C541 1.385 . S
C538 H519 0.951 . S
C538 C536 1.388 . S
C538 C539 1.366 . S
C539 C538 1.366 . S
C539 C540 1.414 . S
C539 C542 1.499 . S
C540 H520 0.950 . S
C540 C539 1.414 . S
C540 C541 1.374 . S
C541 H521 0.950 . S
C541 C537 1.385 . S
C541 C540 1.374 . S
C542 C539 1.499 . S
C542 C543 1.373 . S
C542 C544 1.389 . S
C543 H522 0.950 . S
C543 C542 1.373 . S
C543 C559 1.377 . S
C544 C542 1.389 . S
C544 C545 1.524 . S
C544 C558 1.377 . S
C545 C544 1.524 . S
C545 C546 1.397 . S
C545 C550 1.363 . S
C546 H523 0.950 . S
C546 C545 1.397 . S
C546 C547 1.334 . S
C547 H524 0.950 . S
C547 C546 1.334 . S
C547 C548 1.287 . S
C548 C547 1.287 . S
C548 C549 1.524 . S
C548 H567 0.913 . S
C549 H525 0.950 . S
C549 C548 1.524 . S
C549 C550 1.415 . S
C550 H526 0.950 . S
C550 C545 1.363 . S
C550 C549 1.415 . S
C551 H527 0.951 . S
C551 C552 1.366 . S
C551 C553 1.388 . S
C552 C551 1.366 . S
C552 C556 1.385 . S
C553 H528 0.951 . S
C553 C551 1.388 . S
C553 C554 1.366 . S
C554 C553 1.366 . S
C554 C555 1.414 . S
C554 C557 1.499 . S
C555 H529 0.950 . S
C555 C554 1.414 . S
C555 C556 1.374 . S
C556 H530 0.950 . S
C556 C552 1.385 . S
C556 C555 1.374 . S
C557 C554 1.499 . S
C557 C558 1.373 . S
C557 C559 1.389 . S
C558 H531 0.950 . S
C558 C544 1.377 . S
C558 C557 1.373 . S
C559 C543 1.377 . S
C559 C557 1.389 . S
C559 C560 1.524 . S
C560 C559 1.524 . S
C560 C561 1.397 . S
C560 C565 1.363 . S
C561 H532 0.950 . S
C561 C560 1.397 . S
C561 C562 1.334 . S
C562 H533 0.950 . S
C562 C561 1.334 . S
C562 C563 1.287 . S
C563 C562 1.287 . S
C563 C564 1.524 . S
C563 H566 0.999 . S
C564 H534 0.950 . S
C564 C563 1.524 . S
C564 C565 1.415 . S
C565 H535 0.950 . S
C565 C560 1.363 . S
C565 C564 1.415 . S
H566 C563 0.999 . S
H567 C548 0.913 . S
H568 C586 0.951 . S
H569 C588 0.951 . S
H570 C590 0.950 . S
H571 C591 0.950 . S
H572 C593 0.950 . S
H573 C596 0.950 . S
H574 C597 0.950 . S
H575 C599 0.950 . S
H576 C600 0.950 . S
H577 C601 0.951 . S
H578 C603 0.951 . S
H579 C605 0.950 . S
H580 C606 0.950 . S
H581 C608 0.950 . S
H582 C611 0.950 . S
H583 C612 0.950 . S
H584 C614 0.950 . S
H585 C615 0.950 . S
C586 H568 0.951 . S
C586 C587 1.366 . S
C586 C588 1.388 . S
C587 C586 1.366 . S
C587 C591 1.385 . S
C588 H569 0.951 . S
C588 C586 1.388 . S
C588 C589 1.366 . S
C589 C588 1.366 . S
C589 C590 1.414 . S
C589 C592 1.499 . S
C590 H570 0.950 . S
C590 C589 1.414 . S
C590 C591 1.374 . S
C591 H571 0.950 . S
C591 C587 1.385 . S
C591 C590 1.374 . S
C592 C589 1.499 . S
C592 C593 1.373 . S
C592 C594 1.389 . S
C593 H572 0.950 . S
C593 C592 1.373 . S
C593 C609 1.377 . S
C594 C592 1.389 . S
C594 C595 1.524 . S
C594 C608 1.377 . S
C595 C594 1.524 . S
C595 C596 1.397 . S
C595 C600 1.363 . S
C596 H573 0.950 . S
C596 C595 1.397 . S
C596 C597 1.334 . S
C597 H574 0.950 . S
C597 C596 1.334 . S
C597 C598 1.287 . S
C598 C597 1.287 . S
C598 C599 1.524 . S
C598 H617 0.913 . S
C599 H575 0.950 . S
C599 C598 1.524 . S
C599 C600 1.415 . S
C600 H576 0.950 . S
C600 C595 1.363 . S
C600 C599 1.415 . S
C601 H577 0.951 . S
C601 C602 1.366 . S
C601 C603 1.388 . S
C602 C601 1.366 . S
C602 C606 1.385 . S
C603 H578 0.951 . S
C603 C601 1.388 . S
C603 C604 1.366 . S
C604 C603 1.366 . S
C604 C605 1.414 . S
C604 C607 1.499 . S
C605 H579 0.950 . S
C605 C604 1.414 . S
C605 C606 1.374 . S
C606 H580 0.950 . S
C606 C602 1.385 . S
C606 C605 1.374 . S
C607 C604 1.499 . S
C607 C608 1.373 . S
C607 C609 1.389 . S
C608 H581 0.950 . S
C608 C594 1.377 . S
C608 C607 1.373 . S
C609 C593 1.377 . S
C609 C607 1.389 . S
C609 C610 1.524 . S
C610 C609 1.524 . S
C610 C611 1.397 . S
C610 C615 1.363 . S
C611 H582 0.950 . S
C611 C610 1.397 . S
C611 C612 1.334 . S
C612 H583 0.950 . S
C612 C611 1.334 . S
C612 C613 1.287 . S
C613 C612 1.287 . S
C613 C614 1.524 . S
C613 H616 0.999 . S
C614 H584 0.950 . S
C614 C613 1.524 . S
C614 C615 1.415 . S
C615 H585 0.950 . S
C615 C610 1.363 . S
C615 C614 1.415 . S
H616 C613 0.999 . S
H617 C598 0.913 . S
H618 C636 0.951 . S
H619 C638 0.951 . S
H620 C640 0.950 1_556 S
H621 C641 0.956 . S
H622 C643 0.950 . S
H623 C646 0.950 . S
H624 C647 0.950 . S
H625 C649 0.950 . S
H626 C650 0.950 . S
H627 C651 0.951 . S
H628 C653 0.951 . S
H629 C655 0.950 1_554 S
H630 C656 0.956 . S
H631 C658 0.950 . S
H632 C661 0.950 . S
H633 C662 0.950 . S
H634 C664 0.950 . S
H635 C665 0.950 . S
C636 H618 0.951 . S
C636 C637 1.366 . S
C636 C638 1.388 . S
C637 C636 1.366 . S
C637 C641 1.385 . S
C638 H619 0.951 . S
C638 C636 1.388 . S
C638 C639 1.366 . S
C639 C638 1.366 . S
C639 C640 1.414 . S
C639 C642 1.499 . S
C640 H620 0.950 1_554 S
C640 C639 1.414 . S
C640 C641 1.374 . S
C641 H621 0.956 . S
C641 C637 1.385 . S
C641 C640 1.374 . S
C642 C639 1.499 . S
C642 C643 1.373 1_554 S
C642 C644 1.389 . S
C643 H622 0.950 . S
C643 C642 1.373 1_556 S
C643 C659 1.377 . S
C644 C642 1.389 . S
C644 C645 1.524 . S
C644 C658 1.377 . S
C645 C644 1.524 . S
C645 C646 1.397 . S
C645 C650 1.363 . S
C646 H623 0.950 . S
C646 C645 1.397 . S
C646 C647 1.334 . S
C647 H624 0.950 . S
C647 C646 1.334 . S
C647 C648 1.287 . S
C648 C647 1.287 . S
C648 C649 1.524 . S
C648 H667 0.913 . S
C649 H625 0.950 . S
C649 C648 1.524 . S
C649 C650 1.415 . S
C650 H626 0.950 . S
C650 C645 1.363 . S
C650 C649 1.415 . S
C651 H627 0.951 . S
C651 C652 1.366 . S
C651 C653 1.388 . S
C652 C651 1.366 . S
C652 C656 1.385 . S
C653 H628 0.951 . S
C653 C651 1.388 . S
C653 C654 1.366 . S
C654 C653 1.366 . S
C654 C655 1.414 . S
C654 C657 1.499 . S
C655 H629 0.950 1_556 S
C655 C654 1.414 . S
C655 C656 1.374 . S
C656 H630 0.956 . S
C656 C652 1.385 . S
C656 C655 1.374 . S
C657 C654 1.499 . S
C657 C658 1.373 1_556 S
C657 C659 1.389 . S
C658 H631 0.950 . S
C658 C644 1.377 . S
C658 C657 1.373 1_554 S
C659 C643 1.377 . S
C659 C657 1.389 . S
C659 C660 1.524 . S
C660 C659 1.524 . S
C660 C661 1.397 . S
C660 C665 1.363 . S
C661 H632 0.950 . S
C661 C660 1.397 . S
C661 C662 1.334 . S
C662 H633 0.950 . S
C662 C661 1.334 . S
C662 C663 1.287 . S
C663 C662 1.287 . S
C663 C664 1.524 . S
C663 H666 0.999 . S
C664 H634 0.950 . S
C664 C663 1.524 . S
C664 C665 1.415 . S
C665 H635 0.950 . S
C665 C660 1.363 . S
C665 C664 1.415 . S
H666 C663 0.999 . S
H667 C648 0.913 . S
H668 C686 0.951 . S
H669 C688 0.951 . S
H670 C690 0.950 . S
H671 C691 0.950 . S
H672 C693 0.950 . S
H673 C696 0.950 . S
H674 C697 0.950 . S
H675 C699 0.950 . S
H676 C700 0.950 . S
H677 C701 0.951 . S
H678 C703 0.951 . S
H679 C705 0.950 . S
H680 C706 0.950 . S
H681 C708 0.950 . S
H682 C711 0.950 . S
H683 C712 0.950 . S
H684 C714 0.950 . S
H685 C715 0.950 . S
C686 H668 0.951 . S
C686 C687 1.366 . S
C686 C688 1.388 . S
C687 C686 1.366 . S
C687 C691 1.385 . S
C688 H669 0.951 . S
C688 C686 1.388 . S
C688 C689 1.366 . S
C689 C688 1.366 . S
C689 C690 1.414 . S
C689 C692 1.499 . S
C690 H670 0.950 . S
C690 C689 1.414 . S
C690 C691 1.374 . S
C691 H671 0.950 . S
C691 C687 1.385 . S
C691 C690 1.374 . S
C692 C689 1.499 . S
C692 C693 1.373 . S
C692 C694 1.389 . S
C693 H672 0.950 . S
C693 C692 1.373 . S
C693 C709 1.377 . S
C694 C692 1.389 . S
C694 C695 1.524 . S
C694 C708 1.377 . S
C695 C694 1.524 . S
C695 C696 1.397 . S
C695 C700 1.363 . S
C696 H673 0.950 . S
C696 C695 1.397 . S
C696 C697 1.334 . S
C697 H674 0.950 . S
C697 C696 1.334 . S
C697 C698 1.287 . S
C698 C697 1.287 . S
C698 C699 1.524 . S
C698 H717 0.913 . S
C699 H675 0.950 . S
C699 C698 1.524 . S
C699 C700 1.415 . S
C700 H676 0.950 . S
C700 C695 1.363 . S
C700 C699 1.415 . S
C701 H677 0.951 . S
C701 C702 1.366 . S
C701 C703 1.388 . S
C702 C701 1.366 . S
C702 C706 1.385 . S
C703 H678 0.951 . S
C703 C701 1.388 . S
C703 C704 1.366 . S
C704 C703 1.366 . S
C704 C705 1.414 . S
C704 C707 1.499 . S
C705 H679 0.950 . S
C705 C704 1.414 . S
C705 C706 1.374 . S
C706 H680 0.950 . S
C706 C702 1.385 . S
C706 C705 1.374 . S
C707 C704 1.499 . S
C707 C708 1.373 . S
C707 C709 1.389 . S
C708 H681 0.950 . S
C708 C694 1.377 . S
C708 C707 1.373 . S
C709 C693 1.377 . S
C709 C707 1.389 . S
C709 C710 1.524 . S
C710 C709 1.524 . S
C710 C711 1.397 . S
C710 C715 1.363 . S
C711 H682 0.950 . S
C711 C710 1.397 . S
C711 C712 1.334 . S
C712 H683 0.950 . S
C712 C711 1.334 . S
C712 C713 1.287 . S
C713 C712 1.287 . S
C713 C714 1.524 . S
C713 H716 0.999 . S
C714 H684 0.950 . S
C714 C713 1.524 . S
C714 C715 1.415 . S
C715 H685 0.950 . S
C715 C710 1.363 . S
C715 C714 1.415 . S
H716 C713 0.999 . S
H717 C698 0.913 . S
H718 C736 0.951 . S
H719 C738 0.951 . S
H720 C740 0.950 . S
H721 C741 0.950 . S
H722 C743 0.950 . S
H723 C746 0.950 . S
H724 C747 0.950 . S
H725 C749 0.950 . S
H726 C750 0.950 . S
H727 C751 0.951 . S
H728 C753 0.951 . S
H729 C755 0.950 . S
H730 C756 0.950 . S
H731 C758 0.950 . S
H732 C761 0.950 . S
H733 C762 0.950 . S
H734 C764 0.950 . S
H735 C765 0.950 . S
C736 H718 0.951 . S
C736 C737 1.366 . S
C736 C738 1.388 . S
C737 C736 1.366 . S
C737 C741 1.385 . S
C738 H719 0.951 . S
C738 C736 1.388 . S
C738 C739 1.366 . S
C739 C738 1.366 . S
C739 C740 1.414 . S
C739 C742 1.499 . S
C740 H720 0.950 . S
C740 C739 1.414 . S
C740 C741 1.374 . S
C741 H721 0.950 . S
C741 C737 1.385 . S
C741 C740 1.374 . S
C742 C739 1.499 . S
C742 C743 1.373 . S
C742 C744 1.389 . S
C743 H722 0.950 . S
C743 C742 1.373 . S
C743 C759 1.377 . S
C744 C742 1.389 . S
C744 C745 1.524 . S
C744 C758 1.377 . S
C745 C744 1.524 . S
C745 C746 1.397 . S
C745 C750 1.363 . S
C746 H723 0.950 . S
C746 C745 1.397 . S
C746 C747 1.334 . S
C747 H724 0.950 . S
C747 C746 1.334 . S
C747 C748 1.287 . S
C748 C747 1.287 . S
C748 C749 1.524 . S
C748 H767 0.913 . S
C749 H725 0.950 . S
C749 C748 1.524 . S
C749 C750 1.415 . S
C750 H726 0.950 . S
C750 C745 1.363 . S
C750 C749 1.415 . S
C751 H727 0.951 . S
C751 C752 1.366 . S
C751 C753 1.388 . S
C752 C751 1.366 . S
C752 C756 1.385 . S
C753 H728 0.951 . S
C753 C751 1.388 . S
C753 C754 1.366 . S
C754 C753 1.366 . S
C754 C755 1.414 . S
C754 C757 1.499 . S
C755 H729 0.950 . S
C755 C754 1.414 . S
C755 C756 1.374 . S
C756 H730 0.950 . S
C756 C752 1.385 . S
C756 C755 1.374 . S
C757 C754 1.499 . S
C757 C758 1.373 . S
C757 C759 1.389 . S
C758 H731 0.950 . S
C758 C744 1.377 . S
C758 C757 1.373 . S
C759 C743 1.377 . S
C759 C757 1.389 . S
C759 C760 1.524 . S
C760 C759 1.524 . S
C760 C761 1.397 . S
C760 C765 1.363 . S
C761 H732 0.950 . S
C761 C760 1.397 . S
C761 C762 1.334 . S
C762 H733 0.950 . S
C762 C761 1.334 . S
C762 C763 1.287 . S
C763 C762 1.287 . S
C763 C764 1.524 . S
C763 H766 0.999 . S
C764 H734 0.950 . S
C764 C763 1.524 . S
C764 C765 1.415 . S
C765 H735 0.950 . S
C765 C760 1.363 . S
C765 C764 1.415 . S
H766 C763 0.999 . S
H767 C748 0.913 . S
H768 C786 0.951 . S
H769 C788 0.951 . S
H770 C790 0.950 . S
H771 C791 0.950 . S
H772 C793 0.950 . S
H773 C796 0.950 . S
H774 C797 0.950 . S
H775 C799 0.950 . S
H776 C800 0.950 . S
H777 C801 0.951 . S
H778 C803 0.951 . S
H779 C805 0.950 . S
H780 C806 0.950 . S
H781 C808 0.950 . S
H782 C811 0.950 . S
H783 C812 0.974 . S
H784 C814 0.950 . S
H785 C815 0.950 . S
C786 H768 0.951 . S
C786 C787 1.366 . S
C786 C788 1.388 . S
C787 C786 1.366 . S
C787 C791 1.385 . S
C788 H769 0.951 . S
C788 C786 1.388 . S
C788 C789 1.366 . S
C789 C788 1.366 . S
C789 C790 1.414 . S
C789 C792 1.499 . S
C790 H770 0.950 . S
C790 C789 1.414 . S
C790 C791 1.374 . S
C791 H771 0.950 . S
C791 C787 1.385 . S
C791 C790 1.374 . S
C792 C789 1.499 . S
C792 C793 1.373 . S
C792 C794 1.389 . S
C793 H772 0.950 . S
C793 C792 1.373 . S
C793 C809 1.377 . S
C794 C792 1.389 . S
C794 C795 1.524 . S
C794 C808 1.377 . S
C795 C794 1.524 . S
C795 C796 1.397 . S
C795 C800 1.363 . S
C796 H773 0.950 . S
C796 C795 1.397 . S
C796 C797 1.334 . S
C797 H774 0.950 . S
C797 C796 1.334 . S
C797 C798 1.287 . S
C798 C797 1.287 . S
C798 C799 1.524 . S
C798 H817 0.913 . S
C799 H775 0.950 . S
C799 C798 1.524 . S
C799 C800 1.415 . S
C800 H776 0.950 . S
C800 C795 1.363 . S
C800 C799 1.415 . S
C801 H777 0.951 . S
C801 C802 1.366 . S
C801 C803 1.388 . S
C802 C801 1.366 . S
C802 C806 1.385 . S
C803 H778 0.951 . S
C803 C801 1.388 . S
C803 C804 1.366 . S
C804 C803 1.366 . S
C804 C805 1.414 . S
C804 C807 1.499 . S
C805 H779 0.950 . S
C805 C804 1.414 . S
C805 C806 1.374 . S
C806 H780 0.950 . S
C806 C802 1.385 . S
C806 C805 1.374 . S
C807 C804 1.499 . S
C807 C808 1.373 . S
C807 C809 1.389 . S
C808 H781 0.950 . S
C808 C794 1.377 . S
C808 C807 1.373 . S
C809 C793 1.377 . S
C809 C807 1.389 . S
C809 C810 1.524 . S
C810 C809 1.524 . S
C810 C811 1.397 . S
C810 C815 1.363 . S
C811 H782 0.950 . S
C811 C810 1.397 . S
C811 C812 1.334 . S
C812 H783 0.974 . S
C812 C811 1.334 . S
C812 C813 1.287 . S
C813 C812 1.287 . S
C813 C814 1.524 . S
C813 H816 0.999 . S
C814 H784 0.950 . S
C814 C813 1.524 . S
C814 C815 1.415 . S
C815 H785 0.950 . S
C815 C810 1.363 . S
C815 C814 1.415 . S
H816 C813 0.999 . S
H817 C798 0.913 . S
H818 C836 0.951 . S
H819 C838 0.951 . S
H820 C840 0.950 . S
H821 C841 0.950 . S
H822 C843 0.950 . S
H823 C846 0.950 . S
H824 C847 0.950 . S
H825 C849 0.950 . S
H826 C850 0.950 . S
H827 C851 0.951 . S
H828 C853 0.951 . S
H829 C855 0.950 . S
H830 C856 0.950 . S
H831 C858 0.950 . S
H832 C861 0.950 . S
H833 C862 0.950 . S
H834 C864 0.950 . S
H835 C865 0.950 . S
C836 H818 0.951 . S
C836 C837 1.366 . S
C836 C838 1.388 . S
C837 C836 1.366 . S
C837 C841 1.385 . S
C838 H819 0.951 . S
C838 C836 1.388 . S
C838 C839 1.366 . S
C839 C838 1.366 . S
C839 C840 1.414 . S
C839 C842 1.499 . S
C840 H820 0.950 . S
C840 C839 1.414 . S
C840 C841 1.374 . S
C841 H821 0.950 . S
C841 C837 1.385 . S
C841 C840 1.374 . S
C842 C839 1.499 . S
C842 C843 1.373 . S
C842 C844 1.389 . S
C843 H822 0.950 . S
C843 C842 1.373 . S
C843 C859 1.377 1_655 S
C844 C842 1.389 . S
C844 C845 1.524 . S
C844 C858 1.377 1_655 S
C845 C844 1.524 . S
C845 C846 1.397 . S
C845 C850 1.363 . S
C846 H823 0.950 . S
C846 C845 1.397 . S
C846 C847 1.334 . S
C847 H824 0.950 . S
C847 C846 1.334 . S
C847 C848 1.287 . S
C848 C847 1.287 . S
C848 C849 1.524 . S
C848 H867 0.913 . S
C849 H825 0.950 . S
C849 C848 1.524 . S
C849 C850 1.415 . S
C850 H826 0.950 . S
C850 C845 1.363 . S
C850 C849 1.415 . S
C851 H827 0.951 . S
C851 C852 1.366 . S
C851 C853 1.388 . S
C852 C851 1.366 . S
C852 C856 1.385 . S
C853 H828 0.951 . S
C853 C851 1.388 . S
C853 C854 1.366 . S
C854 C853 1.366 . S
C854 C855 1.414 . S
C854 C857 1.499 . S
C855 H829 0.950 . S
C855 C854 1.414 . S
C855 C856 1.374 . S
C856 H830 0.950 . S
C856 C852 1.385 . S
C856 C855 1.374 . S
C857 C854 1.499 . S
C857 C858 1.373 . S
C857 C859 1.389 . S
C858 H831 0.950 . S
C858 C844 1.377 1_455 S
C858 C857 1.373 . S
C859 C843 1.377 1_455 S
C859 C857 1.389 . S
C859 C860 1.524 . S
C860 C859 1.524 . S
C860 C861 1.397 . S
C860 C865 1.363 . S
C861 H832 0.950 . S
C861 C860 1.397 . S
C861 C862 1.334 . S
C862 H833 0.950 . S
C862 C861 1.334 . S
C862 C863 1.287 . S
C863 C862 1.287 . S
C863 C864 1.524 . S
C863 H866 0.999 . S
C864 H834 0.950 . S
C864 C863 1.524 . S
C864 C865 1.415 . S
C865 H835 0.950 . S
C865 C860 1.363 . S
C865 C864 1.415 . S
H866 C863 0.999 . S
H867 C848 0.913 . S
H868 C886 0.951 . S
H869 C888 0.951 . S
H870 C890 0.950 . S
H871 C891 0.950 . S
H872 C893 0.950 . S
H873 C896 0.950 . S
H874 C897 0.950 . S
H875 C899 0.950 . S
H876 C900 0.950 . S
H877 C901 0.951 . S
H878 C903 0.951 . S
H879 C905 0.950 . S
H880 C906 0.950 . S
H881 C908 0.950 . S
H882 C911 0.950 . S
H883 C912 0.950 . S
H884 C914 0.950 . S
H885 C915 0.950 . S
C886 H868 0.951 . S
C886 C887 1.366 . S
C886 C888 1.388 . S
C887 C886 1.366 . S
C887 C891 1.385 . S
C888 H869 0.951 . S
C888 C886 1.388 . S
C888 C889 1.366 . S
C889 C888 1.366 . S
C889 C890 1.414 . S
C889 C892 1.499 . S
C890 H870 0.950 . S
C890 C889 1.414 . S
C890 C891 1.374 . S
C891 H871 0.950 . S
C891 C887 1.385 . S
C891 C890 1.374 . S
C892 C889 1.499 . S
C892 C893 1.373 . S
C892 C894 1.389 . S
C893 H872 0.950 . S
C893 C892 1.373 . S
C893 C909 1.377 1_545 S
C894 C892 1.389 . S
C894 C895 1.524 . S
C894 C908 1.377 1_545 S
C895 C894 1.524 . S
C895 C896 1.397 . S
C895 C900 1.363 . S
C896 H873 0.950 . S
C896 C895 1.397 . S
C896 C897 1.334 . S
C897 H874 0.950 . S
C897 C896 1.334 . S
C897 C898 1.287 . S
C898 C897 1.287 . S
C898 C899 1.524 . S
C898 H917 0.913 . S
C899 H875 0.950 . S
C899 C898 1.524 . S
C899 C900 1.415 . S
C900 H876 0.950 . S
C900 C895 1.363 . S
C900 C899 1.415 . S
C901 H877 0.951 . S
C901 C902 1.366 . S
C901 C903 1.388 . S
C902 C901 1.366 . S
C902 C906 1.385 . S
C903 H878 0.951 . S
C903 C901 1.388 . S
C903 C904 1.366 . S
C904 C903 1.366 . S
C904 C905 1.414 . S
C904 C907 1.499 . S
C905 H879 0.950 . S
C905 C904 1.414 . S
C905 C906 1.374 . S
C906 H880 0.950 . S
C906 C902 1.385 . S
C906 C905 1.374 . S
C907 C904 1.499 . S
C907 C908 1.373 . S
C907 C909 1.389 . S
C908 H881 0.950 . S
C908 C894 1.377 1_565 S
C908 C907 1.373 . S
C909 C893 1.377 1_565 S
C909 C907 1.389 . S
C909 C910 1.524 . S
C910 C909 1.524 . S
C910 C911 1.397 . S
C910 C915 1.363 . S
C911 H882 0.950 . S
C911 C910 1.397 . S
C911 C912 1.334 . S
C912 H883 0.950 . S
C912 C911 1.334 . S
C912 C913 1.287 . S
C913 C912 1.287 . S
C913 C914 1.524 . S
C913 H916 0.999 . S
C914 H884 0.950 . S
C914 C913 1.524 . S
C914 C915 1.415 . S
C915 H885 0.950 . S
C915 C910 1.363 . S
C915 C914 1.415 . S
H916 C913 0.999 . S
H917 C898 0.913 . S
H918 C936 0.951 . S
H919 C938 0.951 . S
H920 C940 0.950 . S
H921 C941 0.950 . S
H922 C943 0.950 . S
H923 C946 0.950 . S
H924 C947 0.950 . S
H925 C949 0.950 . S
H926 C950 0.950 . S
H927 C951 0.951 . S
H928 C953 0.951 . S
H929 C955 0.950 . S
H930 C956 0.950 . S
H931 C958 0.950 . S
H932 C961 0.950 . S
H933 C962 0.950 . S
H934 C964 0.950 . S
H935 C965 0.950 . S
C936 H918 0.951 . S
C936 C937 1.366 . S
C936 C938 1.388 . S
C937 C936 1.366 . S
C937 C941 1.385 . S
C938 H919 0.951 . S
C938 C936 1.388 . S
C938 C939 1.366 . S
C939 C938 1.366 . S
C939 C940 1.414 . S
C939 C942 1.499 . S
C940 H920 0.950 . S
C940 C939 1.414 . S
C940 C941 1.374 . S
C941 H921 0.950 . S
C941 C937 1.385 . S
C941 C940 1.374 . S
C942 C939 1.499 . S
C942 C943 1.373 . S
C942 C944 1.389 . S
C943 H922 0.950 . S
C943 C942 1.373 . S
C943 C959 1.377 . S
C944 C942 1.389 . S
C944 C945 1.524 . S
C944 C958 1.377 . S
C945 C944 1.524 . S
C945 C946 1.397 . S
C945 C950 1.363 . S
C946 H923 0.950 . S
C946 C945 1.397 . S
C946 C947 1.334 . S
C947 H924 0.950 . S
C947 C946 1.334 . S
C947 C948 1.287 . S
C948 C947 1.287 . S
C948 C949 1.524 . S
C948 H967 0.913 . S
C949 H925 0.950 . S
C949 C948 1.524 . S
C949 C950 1.415 . S
C950 H926 0.950 . S
C950 C945 1.363 . S
C950 C949 1.415 . S
C951 H927 0.951 . S
C951 C952 1.366 . S
C951 C953 1.388 . S
C952 C951 1.366 . S
C952 C956 1.385 . S
C953 H928 0.951 . S
C953 C951 1.388 . S
C953 C954 1.366 . S
C954 C953 1.366 . S
C954 C955 1.414 . S
C954 C957 1.499 . S
C955 H929 0.950 . S
C955 C954 1.414 . S
C955 C956 1.374 . S
C956 H930 0.950 . S
C956 C952 1.385 . S
C956 C955 1.374 . S
C957 C954 1.499 . S
C957 C958 1.373 . S
C957 C959 1.389 . S
C958 H931 0.950 . S
C958 C944 1.377 . S
C958 C957 1.373 . S
C959 C943 1.377 . S
C959 C957 1.389 . S
C959 C960 1.524 . S
C960 C959 1.524 . S
C960 C961 1.397 . S
C960 C965 1.363 . S
C961 H932 0.950 . S
C961 C960 1.397 . S
C961 C962 1.334 . S
C962 H933 0.950 . S
C962 C961 1.334 . S
C962 C963 1.287 . S
C963 C962 1.287 . S
C963 C964 1.524 . S
C963 H966 0.999 . S
C964 H934 0.950 . S
C964 C963 1.524 . S
C964 C965 1.415 . S
C965 H935 0.950 . S
C965 C960 1.363 . S
C965 C964 1.415 . S
H966 C963 0.999 . S
H967 C948 0.913 . S
H968 C986 0.951 . S
H969 C988 0.951 . S
H970 C990 0.950 . S
H971 C991 0.950 . S
H972 C993 0.950 . S
H973 C996 0.950 . S
H974 C997 0.950 . S
H975 C999 0.950 . S
H976 C1000 0.950 . S
H977 C1001 0.951 . S
H978 C1003 0.951 . S
H979 C1005 0.950 . S
H980 C1006 0.950 . S
H981 C1008 0.950 . S
H982 C1011 0.950 . S
H983 C1012 0.950 . S
H984 C1014 0.950 . S
H985 C1015 0.950 . S
C986 H968 0.951 . S
C986 C987 1.366 . S
C986 C988 1.388 . S
C987 C986 1.366 . S
C987 C991 1.385 . S
C988 H969 0.951 . S
C988 C986 1.388 . S
C988 C989 1.366 . S
C989 C988 1.366 . S
C989 C990 1.414 . S
C989 C992 1.499 . S
C990 H970 0.950 . S
C990 C989 1.414 . S
C990 C991 1.374 . S
C991 H971 0.950 . S
C991 C987 1.385 . S
C991 C990 1.374 . S
C992 C989 1.499 . S
C992 C993 1.373 . S
C992 C994 1.389 . S
C993 H972 0.950 . S
C993 C992 1.373 . S
C993 C1009 1.377 1_455 S
C994 C992 1.389 . S
C994 C995 1.524 . S
C994 C1008 1.377 1_455 S
C995 C994 1.524 . S
C995 C996 1.397 . S
C995 C1000 1.363 . S
C996 H973 0.950 . S
C996 C995 1.397 . S
C996 C997 1.334 1_556 S
C997 H974 0.950 . S
C997 C996 1.334 1_554 S
C997 C998 1.287 . S
C998 C997 1.287 . S
C998 C999 1.524 1_554 S
C998 H1017 0.913 . S
C999 H975 0.950 . S
C999 C998 1.524 1_556 S
C999 C1000 1.415 . S
C1000 H976 0.950 . S
C1000 C995 1.363 . S
C1000 C999 1.415 . S
C1001 H977 0.951 . S
C1001 C1002 1.366 . S
C1001 C1003 1.388 . S
C1002 C1001 1.366 . S
C1002 C1006 1.385 . S
C1003 H978 0.951 . S
C1003 C1001 1.388 . S
C1003 C1004 1.366 . S
C1004 C1003 1.366 . S
C1004 C1005 1.414 . S
C1004 C1007 1.499 . S
C1005 H979 0.950 . S
C1005 C1004 1.414 . S
C1005 C1006 1.374 . S
C1006 H980 0.950 . S
C1006 C1002 1.385 . S
C1006 C1005 1.374 . S
C1007 C1004 1.499 . S
C1007 C1008 1.373 . S
C1007 C1009 1.389 . S
C1008 H981 0.950 . S
C1008 C994 1.377 1_655 S
C1008 C1007 1.373 . S
C1009 C993 1.377 1_655 S
C1009 C1007 1.389 . S
C1009 C1010 1.524 . S
C1010 C1009 1.524 . S
C1010 C1011 1.397 . S
C1010 C1015 1.363 . S
C1011 H982 0.950 . S
C1011 C1010 1.397 . S
C1011 C1012 1.334 . S
C1012 H983 0.950 . S
C1012 C1011 1.334 . S
C1012 C1013 1.287 . S
C1013 C1012 1.287 . S
C1013 C1014 1.524 . S
C1013 H1016 0.999 . S
C1014 H984 0.950 . S
C1014 C1013 1.524 . S
C1014 C1015 1.415 . S
C1015 H985 0.950 . S
C1015 C1010 1.363 . S
C1015 C1014 1.415 . S
H1016 C1013 0.999 . S
H1017 C998 0.913 . S
H1018 C1036 0.951 . S
H1019 C1038 0.951 . S
H1020 C1040 0.950 . S
H1021 C1041 0.950 . S
H1022 C1043 0.950 . S
H1023 C1046 0.950 . S
H1024 C1047 0.950 . S
H1025 C1049 0.950 . S
H1026 C1050 0.950 . S
H1027 C1051 0.951 . S
H1028 C1053 0.951 . S
H1029 C1055 0.950 . S
H1030 C1056 0.950 . S
H1031 C1058 0.950 . S
H1032 C1061 0.950 . S
H1033 C1062 0.950 . S
H1034 C1064 0.950 . S
H1035 C1065 0.950 . S
C1036 H1018 0.951 . S
C1036 C1037 1.366 . S
C1036 C1038 1.388 . S
C1037 C1036 1.366 . S
C1037 C1041 1.385 . S
C1038 H1019 0.951 . S
C1038 C1036 1.388 . S
C1038 C1039 1.366 . S
C1039 C1038 1.366 . S
C1039 C1040 1.414 . S
C1039 C1042 1.499 . S
C1040 H1020 0.950 . S
C1040 C1039 1.414 . S
C1040 C1041 1.374 . S
C1041 H1021 0.950 . S
C1041 C1037 1.385 . S
C1041 C1040 1.374 . S
C1042 C1039 1.499 . S
C1042 C1043 1.373 . S
C1042 C1044 1.389 . S
C1043 H1022 0.950 . S
C1043 C1042 1.373 . S
C1043 C1059 1.377 1_565 S
C1044 C1042 1.389 . S
C1044 C1045 1.524 . S
C1044 C1058 1.377 1_565 S
C1045 C1044 1.524 . S
C1045 C1046 1.397 . S
C1045 C1050 1.363 . S
C1046 H1023 0.950 . S
C1046 C1045 1.397 . S
C1046 C1047 1.334 . S
C1047 H1024 0.950 . S
C1047 C1046 1.334 . S
C1047 C1048 1.287 . S
C1048 C1047 1.287 . S
C1048 C1049 1.524 . S
C1048 H1067 0.913 . S
C1049 H1025 0.950 . S
C1049 C1048 1.524 . S
C1049 C1050 1.415 . S
C1050 H1026 0.950 . S
C1050 C1045 1.363 . S
C1050 C1049 1.415 . S
C1051 H1027 0.951 . S
C1051 C1052 1.366 . S
C1051 C1053 1.388 . S
C1052 C1051 1.366 . S
C1052 C1056 1.385 . S
C1053 H1028 0.951 . S
C1053 C1051 1.388 . S
C1053 C1054 1.366 . S
C1054 C1053 1.366 . S
C1054 C1055 1.414 . S
C1054 C1057 1.499 . S
C1055 H1029 0.950 . S
C1055 C1054 1.414 . S
C1055 C1056 1.374 . S
C1056 H1030 0.950 . S
C1056 C1052 1.385 . S
C1056 C1055 1.374 . S
C1057 C1054 1.499 . S
C1057 C1058 1.373 . S
C1057 C1059 1.389 . S
C1058 H1031 0.950 . S
C1058 C1044 1.377 1_545 S
C1058 C1057 1.373 . S
C1059 C1043 1.377 1_545 S
C1059 C1057 1.389 . S
C1059 C1060 1.524 . S
C1060 C1059 1.524 . S
C1060 C1061 1.397 . S
C1060 C1065 1.363 . S
C1061 H1032 0.950 . S
C1061 C1060 1.397 . S
C1061 C1062 1.334 . S
C1062 H1033 0.950 . S
C1062 C1061 1.334 . S
C1062 C1063 1.287 . S
C1063 C1062 1.287 . S
C1063 C1064 1.524 . S
C1063 H1066 0.999 . S
C1064 H1034 0.950 . S
C1064 C1063 1.524 . S
C1064 C1065 1.415 . S
C1065 H1035 0.950 . S
C1065 C1060 1.363 . S
C1065 C1064 1.415 . S
H1066 C1063 0.999 . S
H1067 C1048 0.913 . S
H1068 C1086 0.951 . S
H1069 C1088 0.951 . S
H1070 C1090 0.950 . S
H1071 C1091 0.950 . S
H1072 C1093 0.950 . S
H1073 C1096 0.950 . S
H1074 C1097 0.950 . S
H1075 C1099 0.950 . S
H1076 C1100 0.950 . S
H1077 C1101 0.951 . S
H1078 C1103 0.951 . S
H1079 C1105 0.950 . S
H1080 C1106 0.950 . S
H1081 C1108 0.950 . S
H1082 C1111 0.950 . S
H1083 C1112 0.950 . S
H1084 C1114 0.950 . S
H1085 C1115 0.950 . S
C1086 H1068 0.951 . S
C1086 C1087 1.366 . S
C1086 C1088 1.388 . S
C1087 C1086 1.366 . S
C1087 C1091 1.385 . S
C1088 H1069 0.951 . S
C1088 C1086 1.388 . S
C1088 C1089 1.366 . S
C1089 C1088 1.366 . S
C1089 C1090 1.414 . S
C1089 C1092 1.499 . S
C1090 H1070 0.950 . S
C1090 C1089 1.414 . S
C1090 C1091 1.374 . S
C1091 H1071 0.950 . S
C1091 C1087 1.385 . S
C1091 C1090 1.374 . S
C1092 C1089 1.499 . S
C1092 C1093 1.373 . S
C1092 C1094 1.389 . S
C1093 H1072 0.950 . S
C1093 C1092 1.373 . S
C1093 C1109 1.377 . S
C1094 C1092 1.389 . S
C1094 C1095 1.524 . S
C1094 C1108 1.377 . S
C1095 C1094 1.524 . S
C1095 C1096 1.397 . S
C1095 C1100 1.363 . S
C1096 H1073 0.950 . S
C1096 C1095 1.397 . S
C1096 C1097 1.334 . S
C1097 H1074 0.950 . S
C1097 C1096 1.334 . S
C1097 C1098 1.287 . S
C1098 C1097 1.287 . S
C1098 C1099 1.524 . S
C1098 H1117 0.913 . S
C1099 H1075 0.950 . S
C1099 C1098 1.524 . S
C1099 C1100 1.415 . S
C1100 H1076 0.950 . S
C1100 C1095 1.363 . S
C1100 C1099 1.415 . S
C1101 H1077 0.951 . S
C1101 C1102 1.366 . S
C1101 C1103 1.388 . S
C1102 C1101 1.366 . S
C1102 C1106 1.385 . S
C1103 H1078 0.951 . S
C1103 C1101 1.388 . S
C1103 C1104 1.366 . S
C1104 C1103 1.366 . S
C1104 C1105 1.414 . S
C1104 C1107 1.499 . S
C1105 H1079 0.950 . S
C1105 C1104 1.414 . S
C1105 C1106 1.374 . S
C1106 H1080 0.950 . S
C1106 C1102 1.385 . S
C1106 C1105 1.374 . S
C1107 C1104 1.499 . S
C1107 C1108 1.373 . S
C1107 C1109 1.389 . S
C1108 H1081 0.950 . S
C1108 C1094 1.377 . S
C1108 C1107 1.373 . S
C1109 C1093 1.377 . S
C1109 C1107 1.389 . S
C1109 C1110 1.524 . S
C1110 C1109 1.524 . S
C1110 C1111 1.397 . S
C1110 C1115 1.363 . S
C1111 H1082 0.950 . S
C1111 C1110 1.397 . S
C1111 C1112 1.334 . S
C1112 H1083 0.950 . S
C1112 C1111 1.334 . S
C1112 C1113 1.287 . S
C1113 C1112 1.287 . S
C1113 C1114 1.524 . S
C1113 H1116 0.999 . S
C1114 H1084 0.950 . S
C1114 C1113 1.524 . S
C1114 C1115 1.415 . S
C1115 H1085 0.950 . S
C1115 C1110 1.363 . S
C1115 C1114 1.415 . S
H1116 C1113 0.999 . S
H1117 C1098 0.913 . S
H1118 C1136 0.951 . S
H1119 C1138 0.951 . S
H1120 C1140 0.950 . S
H1121 C1141 0.950 . S
H1122 C1143 0.950 . S
H1123 C1146 0.950 . S
H1124 C1147 0.950 . S
H1125 C1149 0.950 . S
H1126 C1150 0.950 . S
H1127 C1151 0.951 . S
H1128 C1153 0.951 . S
H1129 C1155 0.950 . S
H1130 C1156 0.950 . S
H1131 C1158 0.950 . S
H1132 C1161 0.950 . S
H1133 C1162 0.950 . S
H1134 C1164 0.950 . S
H1135 C1165 0.950 . S
C1136 H1118 0.951 . S
C1136 C1137 1.366 . S
C1136 C1138 1.388 . S
C1137 C1136 1.366 . S
C1137 C1141 1.385 . S
C1138 H1119 0.951 . S
C1138 C1136 1.388 . S
C1138 C1139 1.366 . S
C1139 C1138 1.366 . S
C1139 C1140 1.414 . S
C1139 C1142 1.499 . S
C1140 H1120 0.950 . S
C1140 C1139 1.414 . S
C1140 C1141 1.374 . S
C1141 H1121 0.950 . S
C1141 C1137 1.385 . S
C1141 C1140 1.374 . S
C1142 C1139 1.499 . S
C1142 C1143 1.373 . S
C1142 C1144 1.389 . S
C1143 H1122 0.950 . S
C1143 C1142 1.373 . S
C1143 C1159 1.377 . S
C1144 C1142 1.389 . S
C1144 C1145 1.524 . S
C1144 C1158 1.377 . S
C1145 C1144 1.524 . S
C1145 C1146 1.397 . S
C1145 C1150 1.363 . S
C1146 H1123 0.950 . S
C1146 C1145 1.397 . S
C1146 C1147 1.334 . S
C1147 H1124 0.950 . S
C1147 C1146 1.334 . S
C1147 C1148 1.287 . S
C1148 C1147 1.287 . S
C1148 C1149 1.524 . S
C1148 H1167 0.913 . S
C1149 H1125 0.950 . S
C1149 C1148 1.524 . S
C1149 C1150 1.415 . S
C1150 H1126 0.950 . S
C1150 C1145 1.363 . S
C1150 C1149 1.415 . S
C1151 H1127 0.951 . S
C1151 C1152 1.366 . S
C1151 C1153 1.388 . S
C1152 C1151 1.366 . S
C1152 C1156 1.385 . S
C1153 H1128 0.951 . S
C1153 C1151 1.388 . S
C1153 C1154 1.366 . S
C1154 C1153 1.366 . S
C1154 C1155 1.414 . S
C1154 C1157 1.499 . S
C1155 H1129 0.950 . S
C1155 C1154 1.414 . S
C1155 C1156 1.374 . S
C1156 H1130 0.950 . S
C1156 C1152 1.385 . S
C1156 C1155 1.374 . S
C1157 C1154 1.499 . S
C1157 C1158 1.373 . S
C1157 C1159 1.389 . S
C1158 H1131 0.950 . S
C1158 C1144 1.377 . S
C1158 C1157 1.373 . S
C1159 C1143 1.377 . S
C1159 C1157 1.389 . S
C1159 C1160 1.524 . S
C1160 C1159 1.524 . S
C1160 C1161 1.397 . S
C1160 C1165 1.363 . S
C1161 H1132 0.950 . S
C1161 C1160 1.397 . S
C1161 C1162 1.334 . S
C1162 H1133 0.950 . S
C1162 C1161 1.334 . S
C1162 C1163 1.287 . S
C1163 C1162 1.287 . S
C1163 C1164 1.524 . S
C1163 H1166 0.999 . S
C1164 H1134 0.950 . S
C1164 C1163 1.524 . S
C1164 C1165 1.415 . S
C1165 H1135 0.950 . S
C1165 C1160 1.363 . S
C1165 C1164 1.415 . S
H1166 C1163 0.999 . S
H1167 C1148 0.913 . S
H1168 C1186 0.951 . S
H1169 C1188 0.951 . S
H1170 C1190 0.950 . S
H1171 C1191 0.950 . S
H1172 C1193 0.950 . S
H1173 C1196 0.950 . S
H1174 C1197 0.950 . S
H1175 C1199 0.950 . S
H1176 C1200 0.950 . S
H1177 C1201 0.951 . S
H1178 C1203 0.951 . S
H1179 C1205 0.950 . S
H1180 C1206 0.950 . S
H1181 C1208 0.950 . S
H1182 C1211 0.950 . S
H1183 C1212 0.950 . S
H1184 C1214 0.950 . S
H1185 C1215 0.950 . S
C1186 H1168 0.951 . S
C1186 C1187 1.366 . S
C1186 C1188 1.388 . S
C1187 C1186 1.366 . S
C1187 C1191 1.385 . S
C1188 H1169 0.951 . S
C1188 C1186 1.388 . S
C1188 C1189 1.366 . S
C1189 C1188 1.366 . S
C1189 C1190 1.414 . S
C1189 C1192 1.499 . S
C1190 H1170 0.950 . S
C1190 C1189 1.414 . S
C1190 C1191 1.374 . S
C1191 H1171 0.950 . S
C1191 C1187 1.385 . S
C1191 C1190 1.374 . S
C1192 C1189 1.499 . S
C1192 C1193 1.373 . S
C1192 C1194 1.389 . S
C1193 H1172 0.950 . S
C1193 C1192 1.373 . S
C1193 C1209 1.377 . S
C1194 C1192 1.389 . S
C1194 C1195 1.524 . S
C1194 C1208 1.377 . S
C1195 C1194 1.524 . S
C1195 C1196 1.397 . S
C1195 C1200 1.363 . S
C1196 H1173 0.950 . S
C1196 C1195 1.397 . S
C1196 C1197 1.334 . S
C1197 H1174 0.950 . S
C1197 C1196 1.334 . S
C1197 C1198 1.287 . S
C1198 C1197 1.287 . S
C1198 C1199 1.524 . S
C1198 H1217 0.913 . S
C1199 H1175 0.950 . S
C1199 C1198 1.524 . S
C1199 C1200 1.415 . S
C1200 H1176 0.950 . S
C1200 C1195 1.363 . S
C1200 C1199 1.415 . S
C1201 H1177 0.951 . S
C1201 C1202 1.366 . S
C1201 C1203 1.388 . S
C1202 C1201 1.366 . S
C1202 C1206 1.385 . S
C1203 H1178 0.951 . S
C1203 C1201 1.388 . S
C1203 C1204 1.366 . S
C1204 C1203 1.366 . S
C1204 C1205 1.414 . S
C1204 C1207 1.499 . S
C1205 H1179 0.950 . S
C1205 C1204 1.414 . S
C1205 C1206 1.374 . S
C1206 H1180 0.950 . S
C1206 C1202 1.385 . S
C1206 C1205 1.374 . S
C1207 C1204 1.499 . S
C1207 C1208 1.373 . S
C1207 C1209 1.389 . S
C1208 H1181 0.950 . S
C1208 C1194 1.377 . S
C1208 C1207 1.373 . S
C1209 C1193 1.377 . S
C1209 C1207 1.389 . S
C1209 C1210 1.524 . S
C1210 C1209 1.524 . S
C1210 C1211 1.397 . S
C1210 C1215 1.363 . S
C1211 H1182 0.950 . S
C1211 C1210 1.397 . S
C1211 C1212 1.334 . S
C1212 H1183 0.950 . S
C1212 C1211 1.334 . S
C1212 C1213 1.287 . S
C1213 C1212 1.287 . S
C1213 C1214 1.524 . S
C1213 H1216 0.999 . S
C1214 H1184 0.950 . S
C1214 C1213 1.524 . S
C1214 C1215 1.415 . S
C1215 H1185 0.950 . S
C1215 C1210 1.363 . S
C1215 C1214 1.415 . S
H1216 C1213 0.999 . S
H1217 C1198 0.913 . S
H1218 C1236 0.951 . S
H1219 C1238 0.951 . S
H1220 C1240 0.950 . S
H1221 C1241 0.950 . S
H1222 C1243 0.950 . S
H1223 C1246 0.950 . S
H1224 C1247 0.950 . S
H1225 C1249 0.950 . S
H1226 C1250 0.950 . S
H1227 C1251 0.951 . S
H1228 C1253 0.951 . S
H1229 C1255 0.950 . S
H1230 C1256 0.950 . S
H1231 C1258 0.950 . S
H1232 C1261 0.950 . S
H1233 C1262 0.950 . S
H1234 C1264 0.950 . S
H1235 C1265 0.950 . S
C1236 H1218 0.951 . S
C1236 C1237 1.366 . S
C1236 C1238 1.388 . S
C1237 C1236 1.366 . S
C1237 C1241 1.385 . S
C1238 H1219 0.951 . S
C1238 C1236 1.388 . S
C1238 C1239 1.366 . S
C1239 C1238 1.366 . S
C1239 C1240 1.414 . S
C1239 C1242 1.499 . S
C1240 H1220 0.950 . S
C1240 C1239 1.414 . S
C1240 C1241 1.374 . S
C1241 H1221 0.950 . S
C1241 C1237 1.385 . S
C1241 C1240 1.374 . S
C1242 C1239 1.499 . S
C1242 C1243 1.373 . S
C1242 C1244 1.389 . S
C1243 H1222 0.950 . S
C1243 C1242 1.373 . S
C1243 C1259 1.377 . S
C1244 C1242 1.389 . S
C1244 C1245 1.524 . S
C1244 C1258 1.377 . S
C1245 C1244 1.524 . S
C1245 C1246 1.397 . S
C1245 C1250 1.363 . S
C1246 H1223 0.950 . S
C1246 C1245 1.397 . S
C1246 C1247 1.334 . S
C1247 H1224 0.950 . S
C1247 C1246 1.334 . S
C1247 C1248 1.287 . S
C1248 C1247 1.287 . S
C1248 C1249 1.524 . S
C1248 H1267 0.913 . S
C1249 H1225 0.950 . S
C1249 C1248 1.524 . S
C1249 C1250 1.415 . S
C1250 H1226 0.950 . S
C1250 C1245 1.363 . S
C1250 C1249 1.415 . S
C1251 H1227 0.951 . S
C1251 C1252 1.366 . S
C1251 C1253 1.388 . S
C1252 C1251 1.366 . S
C1252 C1256 1.385 . S
C1253 H1228 0.951 . S
C1253 C1251 1.388 . S
C1253 C1254 1.366 . S
C1254 C1253 1.366 . S
C1254 C1255 1.414 . S
C1254 C1257 1.499 . S
C1255 H1229 0.950 . S
C1255 C1254 1.414 . S
C1255 C1256 1.374 . S
C1256 H1230 0.950 . S
C1256 C1252 1.385 . S
C1256 C1255 1.374 . S
C1257 C1254 1.499 . S
C1257 C1258 1.373 . S
C1257 C1259 1.389 . S
C1258 H1231 0.950 . S
C1258 C1244 1.377 . S
C1258 C1257 1.373 . S
C1259 C1243 1.377 . S
C1259 C1257 1.389 . S
C1259 C1260 1.524 . S
C1260 C1259 1.524 . S
C1260 C1261 1.397 . S
C1260 C1265 1.363 . S
C1261 H1232 0.950 . S
C1261 C1260 1.397 . S
C1261 C1262 1.334 . S
C1262 H1233 0.950 . S
C1262 C1261 1.334 . S
C1262 C1263 1.287 . S
C1263 C1262 1.287 . S
C1263 C1264 1.524 . S
C1263 H1266 0.999 . S
C1264 H1234 0.950 . S
C1264 C1263 1.524 . S
C1264 C1265 1.415 . S
C1265 H1235 0.950 . S
C1265 C1260 1.363 . S
C1265 C1264 1.415 . S
H1266 C1263 0.999 . S
H1267 C1248 0.913 . S
H1268 C1286 0.951 . S
H1269 C1288 0.951 . S
H1270 C1290 0.950 . S
H1271 C1291 0.950 . S
H1272 C1293 0.950 . S
H1273 C1296 0.950 . S
H1274 C1297 0.950 . S
H1275 C1299 0.950 . S
H1276 C1300 0.950 . S
H1277 C1301 0.951 . S
H1278 C1303 0.951 . S
H1279 C1305 0.950 . S
H1280 C1306 0.950 . S
H1281 C1308 0.950 . S
H1282 C1311 0.950 . S
H1283 C1312 0.950 . S
H1284 C1314 0.950 . S
H1285 C1315 0.950 . S
C1286 H1268 0.951 . S
C1286 C1287 1.366 . S
C1286 C1288 1.388 . S
C1287 C1286 1.366 . S
C1287 C1291 1.385 . S
C1288 H1269 0.951 . S
C1288 C1286 1.388 . S
C1288 C1289 1.366 . S
C1289 C1288 1.366 . S
C1289 C1290 1.414 . S
C1289 C1292 1.499 . S
C1290 H1270 0.950 . S
C1290 C1289 1.414 . S
C1290 C1291 1.374 . S
C1291 H1271 0.950 . S
C1291 C1287 1.385 . S
C1291 C1290 1.374 . S
C1292 C1289 1.499 . S
C1292 C1293 1.373 . S
C1292 C1294 1.389 . S
C1293 H1272 0.950 . S
C1293 C1292 1.373 . S
C1293 C1309 1.377 . S
C1294 C1292 1.389 . S
C1294 C1295 1.524 . S
C1294 C1308 1.377 . S
C1295 C1294 1.524 . S
C1295 C1296 1.397 . S
C1295 C1300 1.363 . S
C1296 H1273 0.950 . S
C1296 C1295 1.397 . S
C1296 C1297 1.334 . S
C1297 H1274 0.950 . S
C1297 C1296 1.334 . S
C1297 C1298 1.287 . S
C1298 C1297 1.287 . S
C1298 C1299 1.524 . S
C1298 H1317 0.913 . S
C1299 H1275 0.950 . S
C1299 C1298 1.524 . S
C1299 C1300 1.415 . S
C1300 H1276 0.950 . S
C1300 C1295 1.363 . S
C1300 C1299 1.415 . S
C1301 H1277 0.951 . S
C1301 C1302 1.366 . S
C1301 C1303 1.388 . S
C1302 C1301 1.366 . S
C1302 C1306 1.385 . S
C1303 H1278 0.951 . S
C1303 C1301 1.388 . S
C1303 C1304 1.366 . S
C1304 C1303 1.366 . S
C1304 C1305 1.414 . S
C1304 C1307 1.499 . S
C1305 H1279 0.950 . S
C1305 C1304 1.414 . S
C1305 C1306 1.374 . S
C1306 H1280 0.950 . S
C1306 C1302 1.385 . S
C1306 C1305 1.374 . S
C1307 C1304 1.499 . S
C1307 C1308 1.373 . S
C1307 C1309 1.389 . S
C1308 H1281 0.950 . S
C1308 C1294 1.377 . S
C1308 C1307 1.373 . S
C1309 C1293 1.377 . S
C1309 C1307 1.389 . S
C1309 C1310 1.524 . S
C1310 C1309 1.524 . S
C1310 C1311 1.397 . S
C1310 C1315 1.363 . S
C1311 H1282 0.950 . S
C1311 C1310 1.397 . S
C1311 C1312 1.334 . S
C1312 H1283 0.950 . S
C1312 C1311 1.334 . S
C1312 C1313 1.287 . S
C1313 C1312 1.287 . S
C1313 C1314 1.524 . S
C1313 H1316 0.999 . S
C1314 H1284 0.950 . S
C1314 C1313 1.524 . S
C1314 C1315 1.415 . S
C1315 H1285 0.950 . S
C1315 C1310 1.363 . S
C1315 C1314 1.415 . S
H1316 C1313 0.999 . S
H1317 C1298 0.913 . S
H1318 C1336 0.951 . S
H1319 C1338 0.951 . S
H1320 C1340 0.950 . S
H1321 C1341 0.950 . S
H1322 C1343 0.950 . S
H1323 C1346 0.950 . S
H1324 C1347 0.950 . S
H1325 C1349 0.950 . S
H1326 C1350 0.950 . S
H1327 C1351 0.951 . S
H1328 C1353 0.951 . S
H1329 C1355 0.950 . S
H1330 C1356 0.950 . S
H1331 C1358 0.950 . S
H1332 C1361 0.950 . S
H1333 C1362 0.950 . S
H1334 C1364 0.950 . S
H1335 C1365 0.950 . S
C1336 H1318 0.951 . S
C1336 C1337 1.366 . S
C1336 C1338 1.388 . S
C1337 C1336 1.366 . S
C1337 C1341 1.385 . S
C1338 H1319 0.951 . S
C1338 C1336 1.388 . S
C1338 C1339 1.366 . S
C1339 C1338 1.366 . S
C1339 C1340 1.414 . S
C1339 C1342 1.499 . S
C1340 H1320 0.950 . S
C1340 C1339 1.414 . S
C1340 C1341 1.374 . S
C1341 H1321 0.950 . S
C1341 C1337 1.385 . S
C1341 C1340 1.374 . S
C1342 C1339 1.499 . S
C1342 C1343 1.373 . S
C1342 C1344 1.389 . S
C1343 H1322 0.950 . S
C1343 C1342 1.373 . S
C1343 C1359 1.377 . S
C1344 C1342 1.389 . S
C1344 C1345 1.524 . S
C1344 C1358 1.377 . S
C1345 C1344 1.524 . S
C1345 C1346 1.397 . S
C1345 C1350 1.363 . S
C1346 H1323 0.950 . S
C1346 C1345 1.397 . S
C1346 C1347 1.334 . S
C1347 H1324 0.950 . S
C1347 C1346 1.334 . S
C1347 C1348 1.287 . S
C1348 C1347 1.287 . S
C1348 C1349 1.524 . S
C1348 H1367 0.913 . S
C1349 H1325 0.950 . S
C1349 C1348 1.524 . S
C1349 C1350 1.415 . S
C1350 H1326 0.950 . S
C1350 C1345 1.363 . S
C1350 C1349 1.415 . S
C1351 H1327 0.951 . S
C1351 C1352 1.366 . S
C1351 C1353 1.388 . S
C1352 C1351 1.366 . S
C1352 C1356 1.385 . S
C1353 H1328 0.951 . S
C1353 C1351 1.388 . S
C1353 C1354 1.366 . S
C1354 C1353 1.366 . S
C1354 C1355 1.414 . S
C1354 C1357 1.499 . S
C1355 H1329 0.950 . S
C1355 C1354 1.414 . S
C1355 C1356 1.374 . S
C1356 H1330 0.950 . S
C1356 C1352 1.385 . S
C1356 C1355 1.374 . S
C1357 C1354 1.499 . S
C1357 C1358 1.373 . S
C1357 C1359 1.389 . S
C1358 H1331 0.950 . S
C1358 C1344 1.377 . S
C1358 C1357 1.373 . S
C1359 C1343 1.377 . S
C1359 C1357 1.389 . S
C1359 C1360 1.524 . S
C1360 C1359 1.524 . S
C1360 C1361 1.397 . S
C1360 C1365 1.363 . S
C1361 H1332 0.950 . S
C1361 C1360 1.397 . S
C1361 C1362 1.334 . S
C1362 H1333 0.950 . S
C1362 C1361 1.334 . S
C1362 C1363 1.287 . S
C1363 C1362 1.287 . S
C1363 C1364 1.524 . S
C1363 H1366 0.999 . S
C1364 H1334 0.950 . S
C1364 C1363 1.524 . S
C1364 C1365 1.415 . S
C1365 H1335 0.950 . S
C1365 C1360 1.363 . S
C1365 C1364 1.415 . S
H1366 C1363 0.999 . S
H1367 C1348 0.913 . S
C187 C12 1.733 . S
C202 C85 1.732 . S
C237 C15 1.732 . S
C252 C98 1.732 . S
C287 C28 1.732 . S
C302 C125 1.732 . S
C337 C43 1.732 . S
C352 C138 1.733 . S
C387 C56 1.732 . S
C402 C140 1.732 . S
C437 C155 1.732 . S
C452 C70 1.732 . S
C487 C0 1.841 . S
C502 C152 1.841 . S
C537 C27 1.840 . S
C552 C167 1.840 . S
C587 C40 1.841 . S
C602 C97 1.840 . S
C637 C55 1.840 . S
C652 C110 1.841 . S
C687 C68 1.841 . S
C702 C113 1.840 . S
C737 C82 1.841 . S
C752 C126 1.841 . S
C787 C1 1.817 . S
C802 C54 1.819 . S
C837 C26 1.818 . S
C852 C69 1.816 . S
C887 C83 1.817 . S
C902 C41 1.817 . S
C937 C96 1.819 . S
C952 C127 1.816 . S
C987 C153 1.817 . S
C1002 C111 1.816 . S
C1037 C112 1.819 . S
C1052 C166 1.818 . S
C1087 C84 0.972 . S
C1102 C13 0.972 1_556 S
C1137 C14 0.972 . S
C1152 C99 0.972 1_554 S
C1187 C29 0.972 . S
C1202 C124 0.972 . S
C1237 C139 0.972 . S
C1252 C42 0.972 1_556 S
C1287 C141 0.972 1_554 S
C1302 C57 0.972 . S
C1337 C71 0.972 . S
C1352 C154 0.972 . S
