# Generated by pormake.
# Topology wni, (7)-cn, num edge types: 1
# Building blocks:
#     Node 0, Type 0, BuildingBlock: NUHQUE_clean_sbu_2, # of connection points: 7
#     Node 1, Type 0, BuildingBlock: NUHQUE_clean_sbu_2, # of connection points: 7
#     Node 2, Type 0, BuildingBlock: NUHQUE_clean_sbu_2, # of connection points: 7
#     Node 3, Type 0, BuildingBlock: NUHQUE_clean_sbu_2, # of connection points: 7
#     Node 4, Type 0, BuildingBlock: NUHQUE_clean_sbu_2, # of connection points: 7
#     Node 5, Type 0, BuildingBlock: NUHQUE_clean_sbu_2, # of connection points: 7
#     Edge 6, Type (0, 0), BuildingBlock: UVAHIK_clean_linker_0, # of connection points: 2
#     Edge 7, Type (0, 0), BuildingBlock: UVAHIK_clean_linker_0, # of connection points: 2
#     Edge 8, Type (0, 0), BuildingBlock: UVAHIK_clean_linker_0, # of connection points: 2
#     Edge 9, Type (0, 0), BuildingBlock: UVAHIK_clean_linker_0, # of connection points: 2
#     Edge 10, Type (0, 0), BuildingBlock: UVAHIK_clean_linker_0, # of connection points: 2
#     Edge 11, Type (0, 0), BuildingBlock: UVAHIK_clean_linker_0, # of connection points: 2
#     Edge 12, Type (0, 0), BuildingBlock: UVAHIK_clean_linker_0, # of connection points: 2
#     Edge 13, Type (0, 0), BuildingBlock: UVAHIK_clean_linker_0, # of connection points: 2
#     Edge 14, Type (0, 0), BuildingBlock: UVAHIK_clean_linker_0, # of connection points: 2
#     Edge 15, Type (0, 0), BuildingBlock: UVAHIK_clean_linker_0, # of connection points: 2
#     Edge 16, Type (0, 0), BuildingBlock: UVAHIK_clean_linker_0, # of connection points: 2
#     Edge 17, Type (0, 0), BuildingBlock: UVAHIK_clean_linker_0, # of connection points: 2
#     Edge 18, Type (0, 0), BuildingBlock: UVAHIK_clean_linker_0, # of connection points: 2
#     Edge 19, Type (0, 0), BuildingBlock: UVAHIK_clean_linker_0, # of connection points: 2
#     Edge 20, Type (0, 0), BuildingBlock: UVAHIK_clean_linker_0, # of connection points: 2
#     Edge 21, Type (0, 0), BuildingBlock: UVAHIK_clean_linker_0, # of connection points: 2
#     Edge 22, Type (0, 0), BuildingBlock: UVAHIK_clean_linker_0, # of connection points: 2
#     Edge 23, Type (0, 0), BuildingBlock: UVAHIK_clean_linker_0, # of connection points: 2
#     Edge 24, Type (0, 0), BuildingBlock: UVAHIK_clean_linker_0, # of connection points: 2
#     Edge 25, Type (0, 0), BuildingBlock: UVAHIK_clean_linker_0, # of connection points: 2
#     Edge 26, Type (0, 0), BuildingBlock: UVAHIK_clean_linker_0, # of connection points: 2
# Relax obj value: 0.260
# Max RMSD: 0.302
# Mean RMSD: 0.302
data_MOF--net-wni--node1-NUHQUE_clean_sbu_2--edge1-UVAHIK_clean_linker_0
_symmetry_space_group_name_H-M    P1
_symmetry_Int_Tables_number       1
_symmetry_cell_setting            triclinic
loop_
_symmetry_equiv_pos_as_xyz
'x, y, z'
_cell_length_a     44.506112
_cell_length_b     44.504985
_cell_length_c     37.935596
_cell_angle_alpha  89.879455
_cell_angle_beta   90.124308
_cell_angle_gamma 119.8586
loop_
_atom_site_label
_atom_site_type_symbol
_atom_site_fract_x
_atom_site_fract_y
_atom_site_fract_z
_atom_type_partial_charge
O0 O 0.24981 0.45865 0.0501 0.0
Tb1 Tb 0.25561 0.45838 0.10697 0.0
Eu2 Eu 0.16052 0.4074 0.12015 0.0
C3 C 0.25011 0.48522 0.03446 0.0
O4 O 0.24436 0.50648 0.05342 0.0
C5 C 0.2137 0.3802 0.11685 0.0
O6 O 0.11846 0.3818 0.16104 0.0
C7 C 0.13608 0.41985 0.06352 0.0
C8 C 0.11542 0.35612 0.18084 0.0
O9 O 0.13646 0.34383 0.17561 0.0
C10 C 0.21173 0.48564 0.14711 0.0
C11 C 0.11511 0.43412 0.04942 0.0
C12 C 0.10795 0.4303 0.01326 0.0
C13 C 0.0841 0.43862 0.99864 0.0
C14 C 0.06836 0.4521 0.02053 0.0
C15 C 0.07468 0.45553 0.05708 0.0
C16 C 0.09856 0.44679 0.07144 0.0
O17 O 0.23343 0.40899 0.13394 0.0
O18 O 0.1829 0.37348 0.1066 0.0
O19 O 0.30622 0.4653 0.09292 0.0
O20 O 0.30313 0.49519 0.13473 0.0
C21 C 0.32394 0.48876 0.11634 0.0
O22 O 0.18759 0.45401 0.15586 0.0
O23 O 0.23589 0.4921 0.12348 0.0
O24 O 0.11924 0.39115 0.08194 0.0
O25 O 0.16716 0.44152 0.07585 0.0
H26 H 0.12003 0.4195 0.99665 0.0
H27 H 0.04975 0.45836 0.00928 0.0
H28 H 0.10294 0.44812 0.09966 0.0
O29 O 0.54149 0.79011 0.71295 0.0
Tb30 Tb 0.54355 0.79085 0.77025 0.0
Eu31 Eu 0.5925 0.74478 0.77598 0.0
C32 C 0.51655 0.76334 0.69632 0.0
O33 O 0.49897 0.73392 0.71337 0.0
C34 C 0.62319 0.82677 0.76703 0.0
O35 O 0.62115 0.73118 0.81658 0.0
C36 C 0.57814 0.7049 0.72162 0.0
C37 C 0.64319 0.75393 0.83918 0.0
O38 O 0.65063 0.78638 0.83691 0.0
C39 C 0.51653 0.71899 0.80823 0.0
C40 C 0.56421 0.66962 0.708 0.0
C41 C 0.56901 0.66616 0.67211 0.0
C42 C 0.56078 0.63394 0.65792 0.0
C43 C 0.54631 0.60476 0.67994 0.0
C44 C 0.54193 0.60773 0.71629 0.0
C45 C 0.55076 0.64048 0.73021 0.0
O46 O 0.5972 0.82294 0.78642 0.0
O47 O 0.62529 0.79975 0.75685 0.0
O48 O 0.51816 0.82042 0.75629 0.0
O49 O 0.52492 0.81319 0.81033 0.0
C50 C 0.51316 0.82727 0.78822 0.0
O51 O 0.54824 0.72536 0.8148 0.0
O52 O 0.5098 0.7372 0.78547 0.0
O53 O 0.60746 0.71764 0.73912 0.0
O54 O 0.5565 0.71437 0.73403 0.0
H55 H 0.58041 0.68898 0.65538 0.0
H56 H 0.53984 0.57982 0.6689 0.0
H57 H 0.54872 0.64366 0.75827 0.0
O58 O 0.20616 0.75313 0.37865 0.0
Tb59 Tb 0.20512 0.75627 0.43572 0.0
Eu60 Eu 0.25581 0.85874 0.45271 0.0
C61 C 0.23353 0.75591 0.36243 0.0
O62 O 0.26284 0.76828 0.37984 0.0
C63 C 0.17876 0.80714 0.44218 0.0
O64 O 0.2722 0.90051 0.49394 0.0
C65 C 0.29398 0.88196 0.39682 0.0
C66 C 0.25895 0.89283 0.52585 0.0
O67 O 0.23589 0.86054 0.53315 0.0
C68 C 0.2765 0.80074 0.4762 0.0
C69 C 0.32948 0.90049 0.38332 0.0
C70 C 0.33387 0.90703 0.34703 0.0
C71 C 0.36678 0.92907 0.33304 0.0
C72 C 0.39551 0.94328 0.35561 0.0
C73 C 0.39152 0.93779 0.39222 0.0
C74 C 0.35827 0.91581 0.40601 0.0
O75 O 0.18996 0.78992 0.46077 0.0
O76 O 0.20067 0.83983 0.43697 0.0
O77 O 0.15476 0.70909 0.43953 0.0
O78 O 0.19827 0.71046 0.46424 0.0
C79 C 0.16528 0.69141 0.45786 0.0
O80 O 0.26938 0.82492 0.4866 0.0
O81 O 0.25939 0.77817 0.45085 0.0
O82 O 0.28425 0.90037 0.41562 0.0
O83 O 0.28192 0.85016 0.40849 0.0
H84 H 0.31129 0.89677 0.33001 0.0
H85 H 0.42105 0.95988 0.34466 0.0
H86 H 0.35448 0.91216 0.43425 0.0
O87 O 0.48193 0.2569 0.97788 0.0
Tb88 Tb 0.44798 0.23797 0.93237 0.0
Eu89 Eu 0.39165 0.1721 0.88219 0.0
C90 C 0.47299 0.26872 0.00529 0.0
O91 O 0.44202 0.26557 0.00586 0.0
C92 C 0.37114 0.20941 0.93641 0.0
O93 O 0.36405 0.13963 0.83444 0.0
C94 C 0.38838 0.13011 0.93162 0.0
C95 C 0.37502 0.14971 0.80203 0.0
O96 O 0.40113 0.18107 0.79665 0.0
C97 C 0.47335 0.20878 0.87269 0.0
C98 C 0.39503 0.1015 0.93843 0.0
C99 C 0.39215 0.08955 0.97317 0.0
C100 C 0.39657 0.06116 0.98092 0.0
C101 C 0.40358 0.04467 0.95334 0.0
C102 C 0.40685 0.05655 0.91855 0.0
C103 C 0.40289 0.08529 0.91105 0.0
O104 O 0.39614 0.20833 0.95373 0.0
O105 O 0.36879 0.20403 0.90219 0.0
O106 O 0.46055 0.29193 0.93197 0.0
O107 O 0.44345 0.26317 0.88435 0.0
C108 C 0.45343 0.29314 0.89901 0.0
O109 O 0.44402 0.19917 0.85593 0.0
O110 O 0.47678 0.21666 0.90644 0.0
O111 O 0.36252 0.12345 0.91032 0.0
O112 O 0.41547 0.16091 0.92686 0.0
H113 H 0.38657 0.10253 0.99418 0.0
H114 H 0.40639 0.02226 0.95882 0.0
H115 H 0.40519 0.09448 0.88416 0.0
O116 O 0.75095 0.22458 0.63565 0.0
Tb117 Tb 0.77034 0.20579 0.5938 0.0
Eu118 Eu 0.84024 0.21851 0.54584 0.0
C119 C 0.74558 0.21167 0.66768 0.0
O120 O 0.7557 0.1894 0.67585 0.0
C121 C 0.80179 0.15951 0.59914 0.0
O122 O 0.87334 0.22579 0.49796 0.0
C123 C 0.87895 0.258 0.59645 0.0
C124 C 0.88748 0.25605 0.48193 0.0
O125 O 0.88174 0.28015 0.49466 0.0
C126 C 0.79903 0.25883 0.53194 0.0
C127 C 0.90573 0.29337 0.60549 0.0
C128 C 0.91414 0.30132 0.64118 0.0
C129 C 0.94079 0.33417 0.65127 0.0
C130 C 0.95911 0.3589 0.62518 0.0
C131 C 0.95102 0.35129 0.5894 0.0
C132 C 0.92395 0.31852 0.5795 0.0
O133 O 0.80113 0.18495 0.61601 0.0
O134 O 0.80996 0.16354 0.56548 0.0
O135 O 0.71784 0.16212 0.59682 0.0
O136 O 0.74297 0.17593 0.54688 0.0
C137 C 0.71466 0.15449 0.56352 0.0
O138 O 0.81124 0.24051 0.51688 0.0
O139 O 0.79004 0.25455 0.5654 0.0
O140 O 0.88822 0.24049 0.57562 0.0
O141 O 0.8477 0.25277 0.59005 0.0
H142 H 0.89996 0.28182 0.6611 0.0
H143 H 0.98027 0.38416 0.63266 0.0
H144 H 0.91781 0.31239 0.55189 0.0
O145 O 0.79288 0.53515 0.30429 0.0
Tb146 Tb 0.80633 0.56858 0.2584 0.0
Eu147 Eu 0.7909 0.62588 0.20641 0.0
C148 C 0.77704 0.50136 0.3 0.0
O149 O 0.7672 0.48856 0.26819 0.0
C150 C 0.85127 0.64575 0.25786 0.0
O151 O 0.7824 0.649 0.15668 0.0
C152 C 0.75249 0.62833 0.25646 0.0
C153 C 0.75208 0.6321 0.14079 0.0
O154 O 0.72838 0.60251 0.1543 0.0
C155 C 0.74968 0.54314 0.19977 0.0
C156 C 0.71691 0.61977 0.26486 0.0
C157 C 0.70751 0.61728 0.30046 0.0
C158 C 0.67415 0.61007 0.30999 0.0
C159 C 0.65037 0.60566 0.28344 0.0
C160 C 0.65944 0.60842 0.24767 0.0
C161 C 0.69277 0.61507 0.23839 0.0
O162 O 0.82505 0.62126 0.27526 0.0
O163 O 0.84657 0.6506 0.22456 0.0
O164 O 0.83186 0.56592 0.21003 0.0
O165 O 0.85265 0.56372 0.25984 0.0
C166 C 0.85642 0.56332 0.22598 0.0
O167 O 0.76769 0.57249 0.18236 0.0
O168 O 0.75586 0.54 0.23318 0.0
O169 O 0.76965 0.65379 0.23406 0.0
O170 O 0.75799 0.6022 0.25228 0.0
H171 H 0.72622 0.62091 0.32077 0.0
H172 H 0.62466 0.60046 0.29068 0.0
H173 H 0.7001 0.6174 0.21089 0.0
C174 C 0.62454 0.58055 0.19311 0.0
C175 C 0.63346 0.60438 0.22082 0.0
C176 C 0.59535 0.57202 0.17223 0.0
C177 C 0.52788 0.59689 0.15322 0.0
H178 H 0.46717 0.49773 0.14383 0.0
C179 C 0.37911 0.53221 0.14533 0.0
C180 C 0.36166 0.50484 0.12145 0.0
C181 C 0.4148 0.54682 0.15057 0.0
C182 C 0.48398 0.52552 0.14573 0.0
H183 H 0.62105 0.64031 0.24641 0.0
H184 H 0.57016 0.62518 0.2108 0.0
H185 H 0.52679 0.52013 0.16304 0.0
H186 H 0.36761 0.47146 0.08399 0.0
H187 H 0.42993 0.49671 0.09349 0.0
H188 H 0.48432 0.60198 0.13758 0.0
C189 C 0.5854 0.61301 0.20478 0.0
C190 C 0.51828 0.53842 0.15656 0.0
C191 C 0.61443 0.62148 0.22549 0.0
C192 C 0.38048 0.49253 0.10263 0.0
C193 C 0.41608 0.50689 0.10812 0.0
C194 C 0.49349 0.58395 0.14271 0.0
C195 C 0.57475 0.58732 0.17867 0.0
C196 C 0.54042 0.57423 0.16133 0.0
C197 C 0.43359 0.53409 0.13225 0.0
C198 C 0.47098 0.54809 0.13965 0.0
H199 H 0.63887 0.56708 0.18892 0.0
H200 H 0.58819 0.55255 0.15193 0.0
H201 H 0.54438 0.62464 0.15593 0.0
H202 H 0.36516 0.54216 0.16013 0.0
H203 H 0.42753 0.56748 0.16967 0.0
C204 C 0.48678 0.86305 0.77074 0.0
C205 C 0.49952 0.85038 0.79735 0.0
C206 C 0.47609 0.88693 0.7787 0.0
C207 C 0.48912 0.95329 0.84378 0.0
H208 H 0.40323 0.94317 0.80679 0.0
C209 C 0.44781 0.05332 0.87615 0.0
C210 C 0.41458 0.03818 0.89093 0.0
C211 C 0.45819 0.03289 0.85756 0.0
C212 C 0.4274 0.94644 0.8171 0.0
H213 H 0.51064 0.85213 0.85315 0.0
H214 H 0.49194 0.89396 0.86718 0.0
H215 H 0.42086 0.90095 0.79087 0.0
H216 H 0.36539 0.99088 0.89627 0.0
H217 H 0.38313 0.95526 0.86334 0.0
H218 H 0.49527 0.99817 0.87075 0.0
C219 C 0.49046 0.88563 0.84012 0.0
C220 C 0.43754 0.92237 0.80791 0.0
C221 C 0.50088 0.86151 0.83218 0.0
C222 C 0.39103 0.00306 0.88468 0.0
C223 C 0.40123 0.98274 0.86586 0.0
C224 C 0.47914 0.97748 0.85272 0.0
C225 C 0.47824 0.89882 0.8134 0.0
C226 C 0.46821 0.92522 0.82166 0.0
C227 C 0.43534 0.99712 0.85334 0.0
C228 C 0.4479 0.97403 0.83993 0.0
H229 H 0.48555 0.85491 0.74363 0.0
H230 H 0.46699 0.89677 0.75755 0.0
H231 H 0.51313 0.95642 0.85439 0.0
H232 H 0.46646 0.08031 0.88108 0.0
H233 H 0.48454 0.0447 0.84789 0.0
C234 C 0.10794 0.63707 0.46002 0.0
C235 C 0.14351 0.65475 0.46782 0.0
C236 C 0.08735 0.60204 0.46865 0.0
C237 C 0.08548 0.53506 0.52764 0.0
H238 H 0.01158 0.47126 0.4659 0.0
C239 C 0.00805 0.39231 0.56324 0.0
C240 C 0.97199 0.37819 0.56325 0.0
C241 C 0.02931 0.42326 0.54562 0.0
C242 C 0.03207 0.48883 0.48339 0.0
H243 H 0.18566 0.64987 0.49025 0.0
H244 H 0.14992 0.5886 0.50496 0.0
H245 H 0.04841 0.53168 0.44789 0.0
H246 H 0.92947 0.38359 0.54294 0.0
H247 H 0.96678 0.43822 0.51201 0.0
H248 H 0.06915 0.49257 0.56324 0.0
C249 C 0.1377 0.60181 0.49273 0.0
C250 C 0.05309 0.52344 0.47318 0.0
C251 C 0.15822 0.63687 0.48424 0.0
C252 C 0.95726 0.39398 0.54301 0.0
C253 C 0.97861 0.42521 0.52542 0.0
C254 C 0.06466 0.50058 0.53772 0.0
C255 C 0.10198 0.58398 0.48515 0.0
C256 C 0.07999 0.54698 0.49528 0.0
C257 C 0.01491 0.4409 0.52791 0.0
C258 C 0.03771 0.47705 0.51577 0.0
H259 H 0.09599 0.65032 0.44732 0.0
H260 H 0.05989 0.58927 0.46289 0.0
H261 H 0.1054 0.55258 0.54566 0.0
H262 H 0.01989 0.38039 0.57863 0.0
H263 H 0.05714 0.4343 0.54732 0.0
C264 C 0.54193 0.55309 0.73254 0.0
C265 C 0.53046 0.57684 0.73944 0.0
C266 C 0.52953 0.52271 0.75211 0.0
C267 C 0.50429 0.48254 0.83335 0.0
H268 H 0.44476 0.3961 0.78489 0.0
C269 C 0.4586 0.3513 0.90208 0.0
C270 C 0.45663 0.32418 0.88157 0.0
C271 C 0.46323 0.38163 0.88618 0.0
C272 C 0.46164 0.4199 0.79876 0.0
H273 H 0.49821 0.58785 0.77382 0.0
H274 H 0.47754 0.53479 0.8092 0.0
H275 H 0.46195 0.45118 0.75548 0.0
H276 H 0.45755 0.30705 0.82847 0.0
H277 H 0.46732 0.36064 0.80052 0.0
H278 H 0.50621 0.45188 0.87569 0.0
C279 C 0.49556 0.53982 0.78785 0.0
C280 C 0.47106 0.45137 0.78204 0.0
C281 C 0.50755 0.57015 0.76776 0.0
C282 C 0.45886 0.32761 0.8448 0.0
C283 C 0.46419 0.35828 0.82886 0.0
C284 C 0.4954 0.45109 0.8499 0.0
C285 C 0.50605 0.51568 0.7796 0.0
C286 C 0.49268 0.48283 0.7991 0.0
C287 C 0.46673 0.38586 0.84938 0.0
C288 C 0.47429 0.4193 0.83266 0.0
H289 H 0.5605 0.55786 0.71184 0.0
H290 H 0.53835 0.50463 0.74579 0.0
H291 H 0.52143 0.50664 0.84668 0.0
H292 H 0.45656 0.34909 0.93053 0.0
H293 H 0.46417 0.40179 0.90286 0.0
C294 C 0.44485 0.99306 0.40772 0.0
C295 C 0.42184 0.95807 0.41555 0.0
C296 C 0.47484 0.01213 0.42743 0.0
C297 C 0.53499 1.00214 0.48716 0.0
H298 H 0.57309 0.10134 0.49715 0.0
C299 C 0.65718 0.10101 0.56831 0.0
C300 C 0.68248 0.12753 0.54728 0.0
C301 C 0.625 0.07734 0.55404 0.0
C302 C 0.56269 0.07367 0.49444 0.0
H303 H 0.4114 0.91609 0.45151 0.0
H304 H 0.46369 0.95 0.48711 0.0
H305 H 0.51519 0.06609 0.47271 0.0
H306 H 0.69465 0.14986 0.49491 0.0
H307 H 0.63762 0.10902 0.47016 0.0
H308 H 0.58263 0.01022 0.51019 0.0
C309 C 0.45886 0.96231 0.46488 0.0
C310 C 0.52963 0.05343 0.48034 0.0
C311 C 0.42875 0.94298 0.44477 0.0
C312 C 0.67556 0.12951 0.51154 0.0
C313 C 0.64306 0.10633 0.49748 0.0
C314 C 0.56791 0.02242 0.50201 0.0
C315 C 0.48247 0.99705 0.45613 0.0
C316 C 0.51569 0.01754 0.47556 0.0
C317 C 0.61748 0.0804 0.51878 0.0
C318 C 0.58221 0.05839 0.50491 0.0
H319 H 0.43992 0.00578 0.38592 0.0
H320 H 0.4925 0.03855 0.41941 0.0
H321 H 0.52527 0.97469 0.48365 0.0
H322 H 0.66203 0.09899 0.59598 0.0
H323 H 0.60549 0.05759 0.57087 0.0
C324 C 0.01848 0.452 0.07268 0.0
C325 C 0.05388 0.46545 0.07989 0.0
C326 C 0.999 0.463 0.09164 0.0
C327 C 0.00785 0.53501 0.14777 0.0
H328 H 0.90932 0.47263 0.16061 0.0
C329 C 0.91216 0.56295 0.2279 0.0
C330 C 0.8826 0.55723 0.20897 0.0
C331 C 0.93541 0.55393 0.21336 0.0
C332 C 0.93679 0.49031 0.15704 0.0
H333 H 0.09615 0.49973 0.11414 0.0
H334 H 0.0616 0.51815 0.1485 0.0
H335 H 0.94526 0.45046 0.13684 0.0
H336 H 0.85437 0.53843 0.15994 0.0
H337 H 0.8946 0.52156 0.13487 0.0
H338 H 0.99899 0.57456 0.1693 0.0
C339 C 0.04924 0.49983 0.12724 0.0
C340 C 0.95744 0.47773 0.14331 0.0
C341 C 0.06896 0.489 0.10786 0.0
C342 C 0.87706 0.54319 0.17494 0.0
C343 C 0.8999 0.53343 0.16073 0.0
C344 C 0.9872 0.54745 0.16223 0.0
C345 C 0.01407 0.48728 0.11901 0.0
C346 C 0.99311 0.50005 0.13762 0.0
C347 C 0.92901 0.53835 0.18002 0.0
C348 C 0.9514 0.52531 0.16623 0.0
H349 H 0.00575 0.43315 0.05191 0.0
H350 H 0.97224 0.45303 0.08402 0.0
H351 H 0.03508 0.55307 0.14349 0.0
H352 H 0.91696 0.57382 0.25421 0.0
H353 H 0.95764 0.55784 0.22871 0.0
C354 C 0.33326 0.23648 0.93666 0.0
C355 C 0.34968 0.22119 0.95501 0.0
C356 C 0.31655 0.25125 0.95509 0.0
C357 C 0.31497 0.28575 0.04397 0.0
H358 H 0.23338 0.28531 0.00753 0.0
C359 C 0.26397 0.37133 0.10364 0.0
C360 C 0.22807 0.35871 0.1034 0.0
C361 C 0.27781 0.35297 0.08686 0.0
C362 C 0.25591 0.28533 0.0184 0.0
H363 H 0.35996 0.20777 0.00687 0.0
H364 H 0.32988 0.23217 0.03882 0.0
H365 H 0.25763 0.25496 0.9756 0.0
H366 H 0.17843 0.31605 0.08687 0.0
H367 H 0.20238 0.28344 0.0588 0.0
H368 H 0.31268 0.31516 0.08731 0.0
C369 C 0.33081 0.23398 0.01033 0.0
C370 C 0.27015 0.26832 0.99973 0.0
C371 C 0.34782 0.21966 0.99198 0.0
C372 C 0.20624 0.32663 0.08731 0.0
C373 C 0.22003 0.30808 0.07088 0.0
C374 C 0.30057 0.30248 0.06277 0.0
C375 C 0.31561 0.25069 0.99225 0.0
C376 C 0.29994 0.26834 0.01222 0.0
C377 C 0.25606 0.3213 0.0698 0.0
C378 C 0.27091 0.30264 0.05021 0.0
H379 H 0.33452 0.23827 0.90817 0.0
H380 H 0.30545 0.26415 0.94022 0.0
H381 H 0.33826 0.28692 0.0542 0.0
H382 H 0.28155 0.39604 0.11564 0.0
H383 H 0.3057 0.36425 0.08629 0.0
C384 C 0.77712 0.12132 0.652 0.0
C385 C 0.78993 0.12593 0.6174 0.0
C386 C 0.76353 0.08925 0.66881 0.0
C387 C 0.72694 0.99556 0.65009 0.0
H388 H 0.73396 0.99053 0.75164 0.0
C389 C 0.6704 0.86522 0.72513 0.0
C390 C 0.64866 0.86169 0.75361 0.0
C391 C 0.69131 0.89756 0.70943 0.0
C392 C 0.73175 0.99156 0.72328 0.0
H393 H 0.79942 0.1005 0.57368 0.0
H394 H 0.77663 0.04458 0.60346 0.0
H395 H 0.76473 0.04654 0.72204 0.0
H396 H 0.63295 0.88973 0.78876 0.0
H397 H 0.67004 0.94632 0.76176 0.0
H398 H 0.69417 0.94037 0.65154 0.0
C399 C 0.77631 0.06565 0.61733 0.0
C400 C 0.74925 0.02368 0.70624 0.0
C401 C 0.78965 0.0978 0.60031 0.0
C402 C 0.6494 0.89152 0.76692 0.0
C403 C 0.67071 0.92395 0.75151 0.0
C404 C 0.70982 0.96338 0.66711 0.0
C405 C 0.76272 0.06084 0.65173 0.0
C406 C 0.74659 0.02624 0.66946 0.0
C407 C 0.69136 0.9272 0.72216 0.0
C408 C 0.7116 0.9611 0.70394 0.0
H409 H 0.77684 0.14232 0.66602 0.0
H410 H 0.75277 0.0866 0.69495 0.0
H411 H 0.72376 0.99639 0.62186 0.0
H412 H 0.6704 0.8428 0.71409 0.0
H413 H 0.70719 0.89934 0.68704 0.0
C414 C 0.89093 0.64987 0.3065 0.0
C415 C 0.88598 0.66317 0.27472 0.0
C416 C 0.92317 0.66548 0.32307 0.0
C417 C 0.01697 0.7263 0.30873 0.0
H418 H 0.01836 0.72848 0.41098 0.0
C419 C 0.14191 0.80576 0.39155 0.0
C420 C 0.14622 0.78959 0.4215 0.0
C421 C 0.11092 0.78988 0.37243 0.0
C422 C 0.01841 0.72774 0.38244 0.0
H423 H 0.9113 0.70323 0.23522 0.0
H424 H 0.96784 0.73136 0.26482 0.0
H425 H 0.96326 0.70336 0.37991 0.0
H426 H 0.12132 0.74427 0.45506 0.0
H427 H 0.06698 0.71643 0.42165 0.0
H428 H 0.07243 0.75152 0.31158 0.0
C429 C 0.94671 0.70837 0.2766 0.0
C430 C 0.98679 0.71329 0.36453 0.0
C431 C 0.91429 0.69242 0.25971 0.0
C432 C 0.11889 0.75713 0.43186 0.0
C433 C 0.08771 0.74138 0.41292 0.0
C434 C 0.0487 0.74109 0.3267 0.0
C435 C 0.95148 0.69518 0.30866 0.0
C436 C 0.98554 0.71205 0.32743 0.0
C437 C 0.08333 0.75767 0.38307 0.0
C438 C 0.04974 0.74176 0.36378 0.0
H439 H 0.86988 0.62703 0.3186 0.0
H440 H 0.92592 0.65392 0.34713 0.0
H441 H 0.01708 0.72544 0.28021 0.0
H442 H 0.16249 0.8308 0.38285 0.0
H443 H 0.10825 0.80326 0.3498 0.0
C444 C 0.91892 0.29367 0.43047 0.0
C445 C 0.90957 0.26354 0.45023 0.0
C446 C 0.94045 0.30181 0.4011 0.0
C447 C 0.97602 0.2648 0.33652 0.0
H448 H 0.04228 0.36179 0.32002 0.0
C449 C 0.08481 0.31394 0.23018 0.0
C450 C 0.09002 0.34283 0.2102 0.0
C451 C 0.06211 0.30263 0.25898 0.0
C452 C 0.02372 0.33462 0.32407 0.0
H453 H 0.91532 0.2181 0.45438 0.0
H454 H 0.95376 0.23273 0.40338 0.0
H455 H 0.00486 0.34515 0.37147 0.0
H456 H 0.07494 0.38205 0.20455 0.0
H457 H 0.03563 0.36244 0.25478 0.0
H458 H 0.99563 0.25449 0.28917 0.0
C459 C 0.9439 0.24981 0.4103 0.0
C460 C 1.00213 0.32502 0.35357 0.0
C461 C 0.922 0.24147 0.43965 0.0
C462 C 0.07163 0.35977 0.21936 0.0
C463 C 0.04923 0.34866 0.2483 0.0
C464 C 0.99791 0.27443 0.3071 0.0
C465 C 0.95364 0.28028 0.39079 0.0
C466 C 0.97765 0.29003 0.36002 0.0
C467 C 0.04443 0.32016 0.26865 0.0
C468 C 0.02173 0.3095 0.30034 0.0
H469 H 0.90951 0.31108 0.4376 0.0
H470 H 0.94657 0.32502 0.38633 0.0
H471 H 0.95729 0.23767 0.34037 0.0
H472 H 0.09854 0.30028 0.22382 0.0
H473 H 0.05911 0.28071 0.27426 0.0
C474 C 0.64377 0.70704 0.87566 0.0
C475 C 0.65752 0.7425 0.86843 0.0
C476 C 0.6556 0.69616 0.90453 0.0
C477 C 0.72857 0.72273 0.96629 0.0
H478 H 0.65914 0.65233 0.02694 0.0
C479 C 0.76418 0.68066 0.09841 0.0
C480 C 0.74389 0.64582 0.10865 0.0
C481 C 0.75487 0.69344 0.06895 0.0
C482 C 0.67902 0.67159 0.01008 0.0
H483 H 0.69526 0.79432 0.88551 0.0
H484 H 0.71628 0.77523 0.93565 0.0
H485 H 0.64118 0.67217 0.97554 0.0
H486 H 0.69859 0.59682 0.09519 0.0
H487 H 0.68318 0.61851 0.04357 0.0
H488 H 0.7665 0.72166 0.00036 0.0
C489 C 0.69622 0.75588 0.91897 0.0
C490 C 0.66862 0.68307 0.9806 0.0
C491 C 0.68406 0.76681 0.89031 0.0
C492 C 0.71463 0.62392 0.08832 0.0
C493 C 0.7056 0.6365 0.05875 0.0
C494 C 0.73905 0.71092 0.99562 0.0
C495 C 0.68179 0.72043 0.9267 0.0
C496 C 0.69322 0.70867 0.95824 0.0
C497 C 0.72524 0.67157 0.04881 0.0
C498 C 0.71441 0.685 0.01787 0.0
H499 H 0.62331 0.68758 0.85942 0.0
H500 H 0.64421 0.66865 0.90952 0.0
H501 H 0.74818 0.74235 0.94945 0.0
H502 H 0.7868 0.69825 0.1136 0.0
H503 H 0.77051 0.72066 0.06248 0.0
C504 C 0.33431 0.09029 0.77841 0.0
C505 C 0.36024 0.12479 0.77235 0.0
C506 C 0.32224 0.06611 0.75093 0.0
C507 C 0.34811 0.04979 0.66358 0.0
H508 H 0.25113 0.97976 0.65605 0.0
C509 C 0.29455 0.9547 0.54575 0.0
C510 C 0.26994 0.92006 0.5533 0.0
C511 C 0.305 0.98025 0.57179 0.0
C512 C 0.27837 0.99892 0.65797 0.0
H513 H 0.39321 0.16105 0.73231 0.0
H514 H 0.37187 0.11903 0.68436 0.0
H515 H 0.26985 0.02335 0.7024 0.0
H516 H 0.23705 0.88517 0.59428 0.0
H517 H 0.25549 0.92956 0.63966 0.0
H518 H 0.35669 0.02525 0.61931 0.0
C519 C 0.36122 0.11051 0.7105 0.0
C520 C 0.28911 0.02395 0.68456 0.0
C521 C 0.37327 0.1347 0.73797 0.0
C522 C 0.25598 0.9116 0.58748 0.0
C523 C 0.2664 0.93713 0.61349 0.0
C524 C 0.33738 0.02476 0.637 0.0
C525 C 0.33581 0.07581 0.71668 0.0
C526 C 0.32414 0.04966 0.6878 0.0
C527 C 0.29107 0.9718 0.60602 0.0
C528 C 0.30239 0.99891 0.63391 0.0
H529 H 0.32378 0.08169 0.80457 0.0
H530 H 0.30294 0.03955 0.75678 0.0
H531 H 0.37539 0.06881 0.66561 0.0
H532 H 0.30578 0.96215 0.51969 0.0
H533 H 0.32373 0.00674 0.56495 0.0
C534 C 0.26699 0.52487 0.98238 0.0
C535 C 0.26761 0.49735 0.99995 0.0
C536 C 0.29028 0.54247 0.95504 0.0
C537 C 0.37831 0.56703 0.93159 0.0
H538 H 0.36042 0.60389 0.84648 0.0
C539 C 0.49036 0.6631 0.84216 0.0
C540 C 0.48705 0.69008 0.82686 0.0
C541 C 0.46217 0.63556 0.85915 0.0
C542 C 0.36596 0.59414 0.87034 0.0
H543 H 0.29138 0.46498 0.00072 0.0
H544 H 0.3322 0.49596 0.95322 0.0
H545 H 0.31193 0.5615 0.88183 0.0
H546 H 0.45161 0.70944 0.81761 0.0
H547 H 0.4031 0.66245 0.84833 0.0
H548 H 0.43214 0.60074 0.92149 0.0
C549 C 0.31377 0.50396 0.96074 0.0
C550 C 0.33811 0.56964 0.89039 0.0
C551 C 0.29015 0.48604 0.98774 0.0
C552 C 0.45499 0.68896 0.82895 0.0
C553 C 0.427 0.66174 0.84635 0.0
C554 C 0.40615 0.59185 0.91185 0.0
C555 C 0.31492 0.53313 0.94502 0.0
C556 C 0.34401 0.55613 0.92144 0.0
C557 C 0.43012 0.63459 0.86168 0.0
C558 C 0.4004 0.60616 0.8812 0.0
H559 H 0.24989 0.53414 0.99113 0.0
H560 H 0.29059 0.56489 0.94346 0.0
H561 H 0.38369 0.55751 0.95573 0.0
H562 H 0.51461 0.66298 0.8406 0.0
H563 H 0.46551 0.6149 0.87005 0.0
C564 C 0.3291 0.82521 0.51547 0.0
C565 C 0.30446 0.79787 0.49463 0.0
C566 C 0.35535 0.82227 0.53282 0.0
C567 C 0.37463 0.75732 0.56897 0.0
H568 H 0.47024 0.83159 0.5691 0.0
C569 C 0.47736 0.74045 0.64387 0.0
C570 C 0.50144 0.76891 0.66378 0.0
C571 C 0.45705 0.74452 0.61819 0.0
C572 C 0.44363 0.81068 0.56965 0.0
H573 H 0.28834 0.74603 0.47563 0.0
H574 H 0.33372 0.74081 0.50627 0.0
H575 H 0.42686 0.83807 0.53556 0.0
H576 H 0.52448 0.8244 0.67088 0.0
H577 H 0.48856 0.8314 0.62702 0.0
H578 H 0.39062 0.73036 0.604 0.0
C579 C 0.33275 0.76453 0.50913 0.0
C580 C 0.41879 0.81442 0.55035 0.0
C581 C 0.30682 0.76762 0.49145 0.0
C582 C 0.50636 0.80193 0.65584 0.0
C583 C 0.48565 0.80594 0.63055 0.0
C584 C 0.39929 0.75373 0.58858 0.0
C585 C 0.35726 0.79175 0.53009 0.0
C586 C 0.38399 0.78779 0.54989 0.0
C587 C 0.45984 0.77708 0.61221 0.0
C588 C 0.43418 0.78037 0.58933 0.0
H589 H 0.3282 0.84896 0.51833 0.0
H590 H 0.37371 0.84359 0.549 0.0
H591 H 0.34793 0.73653 0.56956 0.0
H592 H 0.47314 0.7147 0.6492 0.0
H593 H 0.43828 0.72183 0.60389 0.0
C594 C 0.18147 0.51155 0.18021 0.0
C595 C 0.21178 0.51537 0.16462 0.0
C596 C 0.18139 0.53975 0.19632 0.0
C597 C 0.23305 0.63634 0.20455 0.0
H598 H 0.17974 0.6189 0.29038 0.0
C599 C 0.25789 0.73846 0.31215 0.0
C600 C 0.22899 0.73645 0.32934 0.0
C601 C 0.25357 0.71441 0.2861 0.0
C602 C 0.19433 0.62417 0.26613 0.0
H603 H 0.26581 0.55178 0.15373 0.0
H604 H 0.26614 0.60051 0.18304 0.0
H605 H 0.17679 0.57051 0.25792 0.0
H606 H 0.17276 0.7093 0.33058 0.0
H607 H 0.16534 0.66726 0.28534 0.0
H608 H 0.25183 0.69035 0.21412 0.0
C609 C 0.24206 0.57608 0.18198 0.0
C610 C 0.19262 0.59637 0.2474 0.0
C611 C 0.24198 0.54801 0.1654 0.0
C612 C 0.19562 0.71157 0.31799 0.0
C613 C 0.19132 0.68729 0.29225 0.0
C614 C 0.23511 0.66422 0.22361 0.0
C615 C 0.21177 0.57237 0.19773 0.0
C616 C 0.2122 0.60204 0.21651 0.0
C617 C 0.22026 0.68771 0.27698 0.0
C618 C 0.21595 0.6584 0.25473 0.0
H619 H 0.15762 0.48686 0.17957 0.0
H620 H 0.15737 0.53595 0.20747 0.0
H621 H 0.24798 0.64177 0.18053 0.0
H622 H 0.28394 0.7574 0.32017 0.0
H623 H 0.27636 0.71536 0.27482 0.0
C624 C 0.5331 0.29569 0.0302 0.0
C625 C 0.49938 0.29077 0.03162 0.0
C626 C 0.5593 0.3203 0.05176 0.0
C627 C 0.58334 0.40234 0.09521 0.0
H628 H 0.65333 0.38904 0.14224 0.0
C629 C 0.7035 0.48048 0.19826 0.0
C630 C 0.72124 0.51295 0.18146 0.0
C631 C 0.67631 0.45212 0.18123 0.0
C632 C 0.63385 0.39304 0.12937 0.0
H633 H 0.46631 0.30656 0.05814 0.0
H634 H 0.51204 0.34949 0.09563 0.0
H635 H 0.60505 0.34023 0.11205 0.0
H636 H 0.72438 0.54085 0.13332 0.0
H637 H 0.67663 0.49147 0.10391 0.0
H638 H 0.61218 0.45514 0.11218 0.0
C639 C 0.51826 0.33455 0.07758 0.0
C640 C 0.60639 0.36521 0.11194 0.0
C641 C 0.49203 0.30978 0.05625 0.0
C642 C 0.71122 0.51633 0.14717 0.0
C643 C 0.68377 0.48807 0.13031 0.0
C644 C 0.61095 0.4302 0.11228 0.0
C645 C 0.55233 0.34063 0.07498 0.0
C646 C 0.58086 0.36959 0.09468 0.0
C647 C 0.666 0.45569 0.14719 0.0
C648 C 0.63654 0.42589 0.12945 0.0
H649 H 0.5396 0.28141 0.01156 0.0
H650 H 0.58535 0.32451 0.04909 0.0
H651 H 0.56429 0.40662 0.08178 0.0
H652 H 0.71049 0.4769 0.22465 0.0
H653 H 0.6629 0.42754 0.19496 0.0
C654 C 0.70343 0.23208 0.67917 0.0
C655 C 0.72316 0.21767 0.69202 0.0
C656 C 0.67856 0.23338 0.70042 0.0
C657 C 0.65018 0.23354 0.79001 0.0
H658 H 0.55764 0.18712 0.75009 0.0
C659 C 0.53014 0.20982 0.87102 0.0
C660 C 0.50301 0.21088 0.85313 0.0
C661 C 0.55791 0.21131 0.85233 0.0
C662 C 0.58334 0.20077 0.7615 0.0
H663 H 0.73365 0.19518 0.7379 0.0
H664 H 0.69054 0.19837 0.77545 0.0
H665 H 0.60572 0.19086 0.71624 0.0
H666 H 0.48409 0.2152 0.80175 0.0
H667 H 0.53302 0.21934 0.76932 0.0
H668 H 0.62822 0.24456 0.83483 0.0
C669 C 0.69422 0.20821 0.74873 0.0
C670 C 0.61084 0.20268 0.74211 0.0
C671 C 0.71878 0.20634 0.72723 0.0
C672 C 0.50443 0.21394 0.81626 0.0
C673 C 0.53246 0.21608 0.79764 0.0
C674 C 0.62273 0.23221 0.80924 0.0
C675 C 0.67329 0.22089 0.73514 0.0
C676 C 0.64448 0.2191 0.75614 0.0
C677 C 0.55948 0.21448 0.81535 0.0
C678 C 0.58889 0.21583 0.7952 0.0
H679 H 0.7061 0.24105 0.65218 0.0
H680 H 0.6629 0.24356 0.68949 0.0
H681 H 0.67599 0.24645 0.80128 0.0
H682 H 0.52962 0.20722 0.89944 0.0
H683 H 0.57783 0.2094 0.86691 0.0
C684 C 0.77619 0.29979 0.52347 0.0
C685 C 0.79579 0.28518 0.5109 0.0
C686 C 0.77291 0.32445 0.50344 0.0
C687 C 0.81577 0.38997 0.4349 0.0
H688 H 0.7246 0.37735 0.41518 0.0
C689 C 0.75265 0.44233 0.32665 0.0
C690 C 0.77465 0.47834 0.32935 0.0
C691 C 0.75328 0.42009 0.35234 0.0
C692 C 0.7502 0.38125 0.42065 0.0
H693 H 0.8274 0.28518 0.46741 0.0
H694 H 0.82231 0.32879 0.43295 0.0
H695 H 0.73032 0.33583 0.45314 0.0
H696 H 0.81385 0.51936 0.36162 0.0
H697 H 0.81535 0.48033 0.40623 0.0
H698 H 0.83568 0.43524 0.4023 0.0
C699 C 0.80943 0.32103 0.45826 0.0
C700 C 0.75348 0.35764 0.44246 0.0
C701 C 0.81222 0.29596 0.47797 0.0
C702 C 0.7965 0.49174 0.35887 0.0
C703 C 0.79754 0.46943 0.38427 0.0
C704 C 0.81254 0.41388 0.4136 0.0
C705 C 0.78965 0.33542 0.47073 0.0
C706 C 0.78626 0.36152 0.44936 0.0
C707 C 0.77631 0.43337 0.38096 0.0
C708 C 0.7797 0.40951 0.40589 0.0
H709 H 0.76309 0.29197 0.54866 0.0
H710 H 0.75761 0.33524 0.5137 0.0
H711 H 0.84135 0.39367 0.44001 0.0
H712 H 0.73549 0.43125 0.30423 0.0
H713 H 0.73678 0.39239 0.34903 0.0
C714 C 0.95839 0.37489 0.70247 0.0
C715 C 0.95085 0.34257 0.68875 0.0
C716 C 0.97124 0.38435 0.73666 0.0
C717 C 0.01954 0.36616 0.80365 0.0
H718 H 0.99151 0.41705 0.8655 0.0
C719 C 0.06452 0.39687 0.94828 0.0
C720 C 0.0724 0.42944 0.96159 0.0
C721 C 0.05016 0.3865 0.91474 0.0
C722 C 0.99992 0.40324 0.84834 0.0
H723 H 0.94981 0.29436 0.70042 0.0
H724 H 0.97182 0.31069 0.76049 0.0
H725 H 0.96309 0.39688 0.80847 0.0
H726 H 0.07248 0.47715 0.94973 0.0
H727 H 0.04755 0.4591 0.89087 0.0
H728 H 0.05647 0.37265 0.84338 0.0
C729 C 0.96818 0.32887 0.74458 0.0
C730 C 0.98356 0.39159 0.81575 0.0
C731 C 0.95522 0.31936 0.71037 0.0
C732 C 0.06638 0.45178 0.94028 0.0
C733 C 0.052 0.44139 0.90668 0.0
C734 C 0.03592 0.37784 0.8362 0.0
C735 C 0.97688 0.3617 0.75786 0.0
C736 C 0.99323 0.37296 0.79304 0.0
C737 C 0.04332 0.40845 0.89374 0.0
C738 C 0.02634 0.39656 0.85888 0.0
H739 H 0.95491 0.39315 0.68649 0.0
H740 H 0.97788 0.4099 0.74604 0.0
H741 H 0.02801 0.35242 0.78646 0.0
H742 H 0.06817 0.37877 0.96432 0.0
H743 H 0.04332 0.36078 0.90575 0.0
C744 C 0.60373 0.65571 0.60855 0.0
C745 C 0.57079 0.63129 0.62124 0.0
C746 C 0.61463 0.65189 0.57525 0.0
C747 C 0.58304 0.60894 0.48946 0.0
H748 H 0.67712 0.62631 0.47953 0.0
C749 C 0.63148 0.58254 0.35915 0.0
C750 C 0.66417 0.60852 0.3475 0.0
C751 C 0.62046 0.5831 0.39343 0.0
C752 C 0.65088 0.62163 0.48182 0.0
H753 H 0.52313 0.58417 0.60857 0.0
H754 H 0.54231 0.57731 0.55032 0.0
H755 H 0.65647 0.63231 0.53715 0.0
H756 H 0.71137 0.65489 0.36291 0.0
H757 H 0.69212 0.65599 0.42285 0.0
H758 H 0.57753 0.5986 0.4341 0.0
C759 C 0.55961 0.59952 0.56615 0.0
C760 C 0.63905 0.6251 0.5148 0.0
C761 C 0.54871 0.60331 0.59956 0.0
C762 C 0.68618 0.63434 0.37127 0.0
C763 C 0.67512 0.63495 0.40559 0.0
C764 C 0.59488 0.60551 0.45647 0.0
C765 C 0.59286 0.62357 0.55382 0.0
C766 C 0.60508 0.61902 0.51893 0.0
C767 C 0.64187 0.60971 0.41683 0.0
C768 C 0.62899 0.61199 0.45223 0.0
H769 H 0.62157 0.67729 0.62479 0.0
H770 H 0.6402 0.67111 0.56631 0.0
H771 H 0.55688 0.60449 0.49171 0.0
H772 H 0.6142 0.56199 0.34154 0.0
H773 H 0.595 0.56287 0.40151 0.0
C774 C 0.3671 0.04541 0.0399 0.0
C775 C 0.39354 0.04824 0.01756 0.0
C776 C 0.3635 0.03183 0.07386 0.0
C777 C 0.37607 0.02162 0.15088 0.0
H778 H 0.38481 0.93989 0.16485 0.0
C779 C 0.39085 0.97652 0.28829 0.0
C780 C 0.37067 0.941 0.29597 0.0
C781 C 0.39294 0.98858 0.25397 0.0
C782 C 0.38206 0.96256 0.16128 0.0
H783 H 0.43764 0.04013 0.01378 0.0
H784 H 0.43117 0.01624 0.07293 0.0
H785 H 0.38935 0.96318 0.10546 0.0
H786 H 0.33723 0.8902 0.27365 0.0
H787 H 0.34095 0.91141 0.21323 0.0
H788 H 0.36874 0.02101 0.20664 0.0
C789 C 0.4129 0.02398 0.06395 0.0
C790 C 0.38499 0.97608 0.12739 0.0
C791 C 0.41659 0.03768 0.0301 0.0
C792 C 0.35295 0.9177 0.26845 0.0
C793 C 0.35522 0.9298 0.23394 0.0
C794 C 0.37337 0.00824 0.18476 0.0
C795 C 0.3862 0.02071 0.0861 0.0
C796 C 0.3822 0.00585 0.12189 0.0
C797 C 0.37493 0.96542 0.22649 0.0
C798 C 0.37656 0.97872 0.19032 0.0
H799 H 0.34867 0.05292 0.03085 0.0
H800 H 0.34251 0.02936 0.09029 0.0
H801 H 0.37403 0.04471 0.14746 0.0
H802 H 0.40436 0.99519 0.30902 0.0
H803 H 0.40864 0.01612 0.24894 0.0
loop_
_geom_bond_atom_site_label_1
_geom_bond_atom_site_label_2
_geom_bond_distance
_geom_bond_site_symmetry_2
_ccdc_geom_bond_type
O0 Tb1 2.292 . S
O0 C3 1.255 1_554 S
Tb1 O0 2.292 . S
Tb1 O17 2.326 . S
Tb1 O19 2.500 . S
Tb1 O20 2.473 . S
Tb1 O23 2.324 . S
Eu2 O6 2.292 . S
Eu2 C7 2.852 . S
Eu2 O18 2.324 . S
Eu2 O22 2.326 . S
Eu2 O24 2.500 . S
Eu2 O25 2.473 . S
C3 O0 1.255 1_556 S
C3 O4 1.247 . S
O4 C3 1.247 . S
C5 O17 1.242 . S
C5 O18 1.258 . S
O6 Eu2 2.292 . S
O6 C8 1.255 . S
C7 Eu2 2.852 . S
C7 C11 1.503 . S
C7 O24 1.273 . S
C7 O25 1.257 . S
C8 O6 1.255 . S
C8 O9 1.247 . S
O9 C8 1.247 . S
C10 O22 1.242 . S
C10 O23 1.258 . S
C11 C7 1.503 . S
C11 C12 1.379 . S
C11 C16 1.392 . S
C12 C11 1.379 . S
C12 C13 1.404 1_554 S
C12 H26 0.929 . S
C13 C12 1.404 1_556 S
C13 C14 1.389 1_556 S
C14 C13 1.389 1_554 S
C14 C15 1.399 . S
C14 H27 0.931 1_554 S
C15 C14 1.399 . S
C15 C16 1.390 . S
C16 C11 1.392 . S
C16 C15 1.390 . S
C16 H28 0.929 . S
O17 Tb1 2.326 . S
O17 C5 1.242 . S
O18 Eu2 2.324 . S
O18 C5 1.258 . S
O19 Tb1 2.500 . S
O19 C21 1.273 . S
O20 Tb1 2.473 . S
O20 C21 1.257 . S
C21 O19 1.273 . S
C21 O20 1.257 . S
O22 Eu2 2.326 . S
O22 C10 1.242 . S
O23 Tb1 2.324 . S
O23 C10 1.258 . S
O24 Eu2 2.500 . S
O24 C7 1.273 . S
O25 Eu2 2.473 . S
O25 C7 1.257 . S
H26 C12 0.929 . S
H27 C14 0.931 1_556 S
H28 C16 0.929 . S
O29 Tb30 2.292 . S
O29 C32 1.255 . S
Tb30 O29 2.292 . S
Tb30 O46 2.326 . S
Tb30 O48 2.500 . S
Tb30 O49 2.473 . S
Tb30 O52 2.324 . S
Eu31 O35 2.292 . S
Eu31 C36 2.852 . S
Eu31 O47 2.324 . S
Eu31 O51 2.326 . S
Eu31 O53 2.500 . S
Eu31 O54 2.473 . S
C32 O29 1.255 . S
C32 O33 1.247 . S
O33 C32 1.247 . S
C34 O46 1.242 . S
C34 O47 1.258 . S
O35 Eu31 2.292 . S
O35 C37 1.255 . S
C36 Eu31 2.852 . S
C36 C40 1.503 . S
C36 O53 1.273 . S
C36 O54 1.257 . S
C37 O35 1.255 . S
C37 O38 1.247 . S
O38 C37 1.247 . S
C39 O51 1.242 . S
C39 O52 1.258 . S
C40 C36 1.503 . S
C40 C41 1.379 . S
C40 C45 1.392 . S
C41 C40 1.379 . S
C41 C42 1.404 . S
C41 H55 0.929 . S
C42 C41 1.404 . S
C42 C43 1.389 . S
C43 C42 1.389 . S
C43 C44 1.399 . S
C43 H56 0.931 . S
C44 C43 1.399 . S
C44 C45 1.390 . S
C45 C40 1.392 . S
C45 C44 1.390 . S
C45 H57 0.929 . S
O46 Tb30 2.326 . S
O46 C34 1.242 . S
O47 Eu31 2.324 . S
O47 C34 1.258 . S
O48 Tb30 2.500 . S
O48 C50 1.273 . S
O49 Tb30 2.473 . S
O49 C50 1.257 . S
C50 O48 1.273 . S
C50 O49 1.257 . S
O51 Eu31 2.326 . S
O51 C39 1.242 . S
O52 Tb30 2.324 . S
O52 C39 1.258 . S
O53 Eu31 2.500 . S
O53 C36 1.273 . S
O54 Eu31 2.473 . S
O54 C36 1.257 . S
H55 C41 0.929 . S
H56 C43 0.931 . S
H57 C45 0.929 . S
O58 Tb59 2.292 . S
O58 C61 1.255 . S
Tb59 O58 2.292 . S
Tb59 O75 2.326 . S
Tb59 O77 2.500 . S
Tb59 O78 2.473 . S
Tb59 O81 2.324 . S
Eu60 O64 2.292 . S
Eu60 C65 2.852 . S
Eu60 O76 2.324 . S
Eu60 O80 2.326 . S
Eu60 O82 2.500 . S
Eu60 O83 2.473 . S
C61 O58 1.255 . S
C61 O62 1.247 . S
O62 C61 1.247 . S
C63 O75 1.242 . S
C63 O76 1.258 . S
O64 Eu60 2.292 . S
O64 C66 1.255 . S
C65 Eu60 2.852 . S
C65 C69 1.503 . S
C65 O82 1.273 . S
C65 O83 1.257 . S
C66 O64 1.255 . S
C66 O67 1.247 . S
O67 C66 1.247 . S
C68 O80 1.242 . S
C68 O81 1.258 . S
C69 C65 1.503 . S
C69 C70 1.379 . S
C69 C74 1.392 . S
C70 C69 1.379 . S
C70 C71 1.404 . S
C70 H84 0.929 . S
C71 C70 1.404 . S
C71 C72 1.389 . S
C72 C71 1.389 . S
C72 C73 1.399 . S
C72 H85 0.931 . S
C73 C72 1.399 . S
C73 C74 1.390 . S
C74 C69 1.392 . S
C74 C73 1.390 . S
C74 H86 0.929 . S
O75 Tb59 2.326 . S
O75 C63 1.242 . S
O76 Eu60 2.324 . S
O76 C63 1.258 . S
O77 Tb59 2.500 . S
O77 C79 1.273 . S
O78 Tb59 2.473 . S
O78 C79 1.257 . S
C79 O77 1.273 . S
C79 O78 1.257 . S
O80 Eu60 2.326 . S
O80 C68 1.242 . S
O81 Tb59 2.324 . S
O81 C68 1.258 . S
O82 Eu60 2.500 . S
O82 C65 1.273 . S
O83 Eu60 2.473 . S
O83 C65 1.257 . S
H84 C70 0.929 . S
H85 C72 0.931 . S
H86 C74 0.929 . S
O87 Tb88 2.292 . S
O87 C90 1.255 1_556 S
Tb88 O87 2.292 . S
Tb88 O104 2.326 . S
Tb88 O106 2.500 . S
Tb88 O107 2.473 . S
Tb88 O110 2.324 . S
Eu89 O93 2.292 . S
Eu89 C94 2.852 . S
Eu89 O105 2.324 . S
Eu89 O109 2.326 . S
Eu89 O111 2.500 . S
Eu89 O112 2.473 . S
C90 O87 1.255 1_554 S
C90 O91 1.247 . S
O91 C90 1.247 . S
C92 O104 1.242 . S
C92 O105 1.258 . S
O93 Eu89 2.292 . S
O93 C95 1.255 . S
C94 Eu89 2.852 . S
C94 C98 1.503 . S
C94 O111 1.273 . S
C94 O112 1.257 . S
C95 O93 1.255 . S
C95 O96 1.247 . S
O96 C95 1.247 . S
C97 O109 1.242 . S
C97 O110 1.258 . S
C98 C94 1.503 . S
C98 C99 1.379 . S
C98 C103 1.392 . S
C99 C98 1.379 . S
C99 C100 1.404 1_556 S
C99 H113 0.929 . S
C100 C99 1.404 1_554 S
C100 C101 1.389 1_554 S
C101 C100 1.389 1_556 S
C101 C102 1.399 . S
C101 H114 0.931 1_556 S
C102 C101 1.399 . S
C102 C103 1.390 . S
C103 C98 1.392 . S
C103 C102 1.390 . S
C103 H115 0.929 . S
O104 Tb88 2.326 . S
O104 C92 1.242 . S
O105 Eu89 2.324 . S
O105 C92 1.258 . S
O106 Tb88 2.500 . S
O106 C108 1.273 . S
O107 Tb88 2.473 . S
O107 C108 1.257 . S
C108 O106 1.273 . S
C108 O107 1.257 . S
O109 Eu89 2.326 . S
O109 C97 1.242 . S
O110 Tb88 2.324 . S
O110 C97 1.258 . S
O111 Eu89 2.500 . S
O111 C94 1.273 . S
O112 Eu89 2.473 . S
O112 C94 1.257 . S
H113 C99 0.929 . S
H114 C101 0.931 1_554 S
H115 C103 0.929 . S
O116 Tb117 2.292 . S
O116 C119 1.255 . S
Tb117 O116 2.292 . S
Tb117 O133 2.326 . S
Tb117 O135 2.500 . S
Tb117 O136 2.473 . S
Tb117 O139 2.324 . S
Eu118 O122 2.292 . S
Eu118 C123 2.852 . S
Eu118 O134 2.324 . S
Eu118 O138 2.326 . S
Eu118 O140 2.500 . S
Eu118 O141 2.473 . S
C119 O116 1.255 . S
C119 O120 1.247 . S
O120 C119 1.247 . S
C121 O133 1.242 . S
C121 O134 1.258 . S
O122 Eu118 2.292 . S
O122 C124 1.255 . S
C123 Eu118 2.852 . S
C123 C127 1.503 . S
C123 O140 1.273 . S
C123 O141 1.257 . S
C124 O122 1.255 . S
C124 O125 1.247 . S
O125 C124 1.247 . S
C126 O138 1.242 . S
C126 O139 1.258 . S
C127 C123 1.503 . S
C127 C128 1.379 . S
C127 C132 1.392 . S
C128 C127 1.379 . S
C128 C129 1.404 . S
C128 H142 0.929 . S
C129 C128 1.404 . S
C129 C130 1.389 . S
C130 C129 1.389 . S
C130 C131 1.399 . S
C130 H143 0.931 . S
C131 C130 1.399 . S
C131 C132 1.390 . S
C132 C127 1.392 . S
C132 C131 1.390 . S
C132 H144 0.929 . S
O133 Tb117 2.326 . S
O133 C121 1.242 . S
O134 Eu118 2.324 . S
O134 C121 1.258 . S
O135 Tb117 2.500 . S
O135 C137 1.273 . S
O136 Tb117 2.473 . S
O136 C137 1.257 . S
C137 O135 1.273 . S
C137 O136 1.257 . S
O138 Eu118 2.326 . S
O138 C126 1.242 . S
O139 Tb117 2.324 . S
O139 C126 1.258 . S
O140 Eu118 2.500 . S
O140 C123 1.273 . S
O141 Eu118 2.473 . S
O141 C123 1.257 . S
H142 C128 0.929 . S
H143 C130 0.931 . S
H144 C132 0.929 . S
O145 Tb146 2.292 . S
O145 C148 1.255 . S
Tb146 O145 2.292 . S
Tb146 O162 2.326 . S
Tb146 O164 2.500 . S
Tb146 O165 2.473 . S
Tb146 O168 2.324 . S
Eu147 O151 2.292 . S
Eu147 C152 2.852 . S
Eu147 O163 2.324 . S
Eu147 O167 2.326 . S
Eu147 O169 2.500 . S
Eu147 O170 2.473 . S
C148 O145 1.255 . S
C148 O149 1.247 . S
O149 C148 1.247 . S
C150 O162 1.242 . S
C150 O163 1.258 . S
O151 Eu147 2.292 . S
O151 C153 1.255 . S
C152 Eu147 2.852 . S
C152 C156 1.503 . S
C152 O169 1.273 . S
C152 O170 1.257 . S
C153 O151 1.255 . S
C153 O154 1.247 . S
O154 C153 1.247 . S
C155 O167 1.242 . S
C155 O168 1.258 . S
C156 C152 1.503 . S
C156 C157 1.379 . S
C156 C161 1.392 . S
C157 C156 1.379 . S
C157 C158 1.404 . S
C157 H171 0.929 . S
C158 C157 1.404 . S
C158 C159 1.389 . S
C159 C158 1.389 . S
C159 C160 1.399 . S
C159 H172 0.931 . S
C160 C159 1.399 . S
C160 C161 1.390 . S
C161 C156 1.392 . S
C161 C160 1.390 . S
C161 H173 0.929 . S
O162 Tb146 2.326 . S
O162 C150 1.242 . S
O163 Eu147 2.324 . S
O163 C150 1.258 . S
O164 Tb146 2.500 . S
O164 C166 1.273 . S
O165 Tb146 2.473 . S
O165 C166 1.257 . S
C166 O164 1.273 . S
C166 O165 1.257 . S
O167 Eu147 2.326 . S
O167 C155 1.242 . S
O168 Tb146 2.324 . S
O168 C155 1.258 . S
O169 Eu147 2.500 . S
O169 C152 1.273 . S
O170 Eu147 2.473 . S
O170 C152 1.257 . S
H171 C157 0.929 . S
H172 C159 0.931 . S
H173 C161 0.929 . S
C174 C175 1.349 . S
C174 C176 1.327 . S
C174 H199 0.950 . S
C175 C174 1.349 . S
C175 C191 1.349 . S
C176 C174 1.327 . S
C176 C195 1.429 . S
C176 H200 0.950 . S
C177 C194 1.574 . S
C177 C196 1.368 . S
C177 H201 0.949 . S
H178 C182 0.949 . S
C179 C180 1.349 . S
C179 C181 1.327 . S
C179 H202 0.950 . S
C180 C179 1.349 . S
C180 C192 1.349 . S
C181 C179 1.327 . S
C181 C197 1.429 . S
C181 H203 0.950 . S
C182 H178 0.949 . S
C182 C190 1.574 . S
C182 C198 1.368 . S
H183 C191 0.950 . S
H184 C189 0.950 . S
H185 C190 0.949 . S
H186 C192 0.950 . S
H187 C193 0.950 . S
H188 C194 0.949 . S
C189 H184 0.950 . S
C189 C191 1.327 . S
C189 C195 1.429 . S
C190 C182 1.574 . S
C190 H185 0.949 . S
C190 C196 1.368 . S
C191 C175 1.349 . S
C191 H183 0.950 . S
C191 C189 1.327 . S
C192 C180 1.349 . S
C192 H186 0.950 . S
C192 C193 1.327 . S
C193 H187 0.950 . S
C193 C192 1.327 . S
C193 C197 1.429 . S
C194 C177 1.574 . S
C194 H188 0.949 . S
C194 C198 1.368 . S
C195 C176 1.429 . S
C195 C189 1.429 . S
C195 C196 1.523 . S
C196 C177 1.368 . S
C196 C190 1.368 . S
C196 C195 1.523 . S
C197 C181 1.429 . S
C197 C193 1.429 . S
C197 C198 1.523 . S
C198 C182 1.368 . S
C198 C194 1.368 . S
C198 C197 1.523 . S
H199 C174 0.950 . S
H200 C176 0.950 . S
H201 C177 0.949 . S
H202 C179 0.950 . S
H203 C181 0.950 . S
C204 C205 1.349 . S
C204 C206 1.327 . S
C204 H229 0.950 . S
C205 C204 1.349 . S
C205 C221 1.349 . S
C206 C204 1.327 . S
C206 C225 1.429 . S
C206 H230 0.950 . S
C207 C224 1.574 . S
C207 C226 1.368 . S
C207 H231 0.949 . S
H208 C212 0.949 . S
C209 C210 1.349 . S
C209 C211 1.327 1_545 S
C209 H232 0.950 . S
C210 C209 1.349 . S
C210 C222 1.349 1_545 S
C211 C209 1.327 1_565 S
C211 C227 1.429 . S
C211 H233 0.950 . S
C212 H208 0.949 . S
C212 C220 1.574 . S
C212 C228 1.368 . S
H213 C221 0.950 . S
H214 C219 0.950 . S
H215 C220 0.949 . S
H216 C222 0.950 . S
H217 C223 0.950 . S
H218 C224 0.949 . S
C219 H214 0.950 . S
C219 C221 1.327 . S
C219 C225 1.429 . S
C220 C212 1.574 . S
C220 H215 0.949 . S
C220 C226 1.368 . S
C221 C205 1.349 . S
C221 H213 0.950 . S
C221 C219 1.327 . S
C222 C210 1.349 1_565 S
C222 H216 0.950 . S
C222 C223 1.327 . S
C223 H217 0.950 . S
C223 C222 1.327 . S
C223 C227 1.429 . S
C224 C207 1.574 . S
C224 H218 0.949 . S
C224 C228 1.368 . S
C225 C206 1.429 . S
C225 C219 1.429 . S
C225 C226 1.523 . S
C226 C207 1.368 . S
C226 C220 1.368 . S
C226 C225 1.523 . S
C227 C211 1.429 . S
C227 C223 1.429 . S
C227 C228 1.523 . S
C228 C212 1.368 . S
C228 C224 1.368 . S
C228 C227 1.523 . S
H229 C204 0.950 . S
H230 C206 0.950 . S
H231 C207 0.949 . S
H232 C209 0.950 . S
H233 C211 0.950 . S
C234 C235 1.349 . S
C234 C236 1.327 . S
C234 H259 0.950 . S
C235 C234 1.349 . S
C235 C251 1.349 . S
C236 C234 1.327 . S
C236 C255 1.429 . S
C236 H260 0.950 . S
C237 C254 1.574 . S
C237 C256 1.368 . S
C237 H261 0.949 . S
H238 C242 0.949 . S
C239 C240 1.349 1_455 S
C239 C241 1.327 . S
C239 H262 0.947 1_455 S
C240 C239 1.349 1_655 S
C240 C252 1.349 . S
C241 C239 1.327 . S
C241 C257 1.429 . S
C241 H263 0.950 . S
C242 H238 0.949 . S
C242 C250 1.574 . S
C242 C258 1.368 . S
H243 C251 0.950 . S
H244 C249 0.950 . S
H245 C250 0.949 . S
H246 C252 0.950 . S
H247 C253 0.950 . S
H248 C254 0.949 . S
C249 H244 0.950 . S
C249 C251 1.327 . S
C249 C255 1.429 . S
C250 C242 1.574 . S
C250 H245 0.949 . S
C250 C256 1.368 . S
C251 C235 1.349 . S
C251 H243 0.950 . S
C251 C249 1.327 . S
C252 C240 1.349 . S
C252 H246 0.950 . S
C252 C253 1.327 1_655 S
C253 H247 0.950 . S
C253 C252 1.327 1_455 S
C253 C257 1.429 . S
C254 C237 1.574 . S
C254 H248 0.949 . S
C254 C258 1.368 . S
C255 C236 1.429 . S
C255 C249 1.429 . S
C255 C256 1.523 . S
C256 C237 1.368 . S
C256 C250 1.368 . S
C256 C255 1.523 . S
C257 C241 1.429 . S
C257 C253 1.429 . S
C257 C258 1.523 . S
C258 C242 1.368 . S
C258 C254 1.368 . S
C258 C257 1.523 . S
H259 C234 0.950 . S
H260 C236 0.950 . S
H261 C237 0.949 . S
H262 C239 0.947 1_655 S
H263 C241 0.950 . S
C264 C265 1.349 . S
C264 C266 1.327 . S
C264 H289 0.950 . S
C265 C264 1.349 . S
C265 C281 1.349 . S
C266 C264 1.327 . S
C266 C285 1.429 . S
C266 H290 0.950 . S
C267 C284 1.574 . S
C267 C286 1.368 . S
C267 H291 0.949 . S
H268 C272 0.949 . S
C269 C270 1.349 . S
C269 C271 1.327 . S
C269 H292 0.950 . S
C270 C269 1.349 . S
C270 C282 1.349 . S
C271 C269 1.327 . S
C271 C287 1.429 . S
C271 H293 0.950 . S
C272 H268 0.949 . S
C272 C280 1.574 . S
C272 C288 1.368 . S
H273 C281 0.950 . S
H274 C279 0.950 . S
H275 C280 0.949 . S
H276 C282 0.950 . S
H277 C283 0.950 . S
H278 C284 0.949 . S
C279 H274 0.950 . S
C279 C281 1.327 . S
C279 C285 1.429 . S
C280 C272 1.574 . S
C280 H275 0.949 . S
C280 C286 1.368 . S
C281 C265 1.349 . S
C281 H273 0.950 . S
C281 C279 1.327 . S
C282 C270 1.349 . S
C282 H276 0.950 . S
C282 C283 1.327 . S
C283 H277 0.950 . S
C283 C282 1.327 . S
C283 C287 1.429 . S
C284 C267 1.574 . S
C284 H278 0.949 . S
C284 C288 1.368 . S
C285 C266 1.429 . S
C285 C279 1.429 . S
C285 C286 1.523 . S
C286 C267 1.368 . S
C286 C280 1.368 . S
C286 C285 1.523 . S
C287 C271 1.429 . S
C287 C283 1.429 . S
C287 C288 1.523 . S
C288 C272 1.368 . S
C288 C284 1.368 . S
C288 C287 1.523 . S
H289 C264 0.950 . S
H290 C266 0.950 . S
H291 C267 0.949 . S
H292 C269 0.950 . S
H293 C271 0.950 . S
C294 C295 1.349 1_545 S
C294 C296 1.327 . S
C294 H319 0.950 . S
C295 C294 1.349 1_565 S
C295 C311 1.349 . S
C296 C294 1.327 . S
C296 C315 1.429 . S
C296 H320 0.950 . S
C297 C314 1.574 . S
C297 C316 1.368 . S
C297 H321 0.949 . S
H298 C302 0.949 . S
C299 C300 1.349 . S
C299 C301 1.327 . S
C299 H322 0.950 . S
C300 C299 1.349 . S
C300 C312 1.349 . S
C301 C299 1.327 . S
C301 C317 1.429 . S
C301 H323 0.950 . S
C302 H298 0.949 . S
C302 C310 1.574 . S
C302 C318 1.368 . S
H303 C311 0.950 . S
H304 C309 0.950 . S
H305 C310 0.949 . S
H306 C312 0.950 . S
H307 C313 0.950 . S
H308 C314 0.949 . S
C309 H304 0.950 . S
C309 C311 1.327 . S
C309 C315 1.429 1_565 S
C310 C302 1.574 . S
C310 H305 0.949 . S
C310 C316 1.368 . S
C311 C295 1.349 . S
C311 H303 0.950 . S
C311 C309 1.327 . S
C312 C300 1.349 . S
C312 H306 0.950 . S
C312 C313 1.327 . S
C313 H307 0.950 . S
C313 C312 1.327 . S
C313 C317 1.429 . S
C314 C297 1.574 . S
C314 H308 0.949 . S
C314 C318 1.368 . S
C315 C296 1.429 . S
C315 C309 1.429 1_545 S
C315 C316 1.523 . S
C316 C297 1.368 . S
C316 C310 1.368 . S
C316 C315 1.523 . S
C317 C301 1.429 . S
C317 C313 1.429 . S
C317 C318 1.523 . S
C318 C302 1.368 . S
C318 C314 1.368 . S
C318 C317 1.523 . S
H319 C294 0.950 . S
H320 C296 0.950 . S
H321 C297 0.949 . S
H322 C299 0.950 . S
H323 C301 0.950 . S
C324 C325 1.349 1_655 S
C324 C326 1.327 . S
C324 H349 0.950 . S
C325 C324 1.349 1_455 S
C325 C341 1.349 . S
C326 C324 1.327 . S
C326 C345 1.429 . S
C326 H350 0.950 . S
C327 C344 1.574 . S
C327 C346 1.368 . S
C327 H351 0.949 . S
H328 C332 0.949 . S
C329 C330 1.349 . S
C329 C331 1.327 . S
C329 H352 0.950 . S
C330 C329 1.349 . S
C330 C342 1.349 . S
C331 C329 1.327 . S
C331 C347 1.429 . S
C331 H353 0.950 . S
C332 H328 0.949 . S
C332 C340 1.574 . S
C332 C348 1.368 . S
H333 C341 0.950 . S
H334 C339 0.950 . S
H335 C340 0.949 . S
H336 C342 0.950 . S
H337 C343 0.950 . S
H338 C344 0.949 . S
C339 H334 0.950 . S
C339 C341 1.327 . S
C339 C345 1.429 1_455 S
C340 C332 1.574 . S
C340 H335 0.949 . S
C340 C346 1.368 . S
C341 C325 1.349 . S
C341 H333 0.950 . S
C341 C339 1.327 . S
C342 C330 1.349 . S
C342 H336 0.950 . S
C342 C343 1.327 . S
C343 H337 0.950 . S
C343 C342 1.327 . S
C343 C347 1.429 . S
C344 C327 1.574 . S
C344 H338 0.949 . S
C344 C348 1.368 . S
C345 C326 1.429 . S
C345 C339 1.429 1_655 S
C345 C346 1.523 . S
C346 C327 1.368 . S
C346 C340 1.368 . S
C346 C345 1.523 . S
C347 C331 1.429 . S
C347 C343 1.429 . S
C347 C348 1.523 . S
C348 C332 1.368 . S
C348 C344 1.368 . S
C348 C347 1.523 . S
H349 C324 0.950 . S
H350 C326 0.950 . S
H351 C327 0.949 . S
H352 C329 0.950 . S
H353 C331 0.950 . S
C354 C355 1.349 . S
C354 C356 1.327 . S
C354 H379 0.950 . S
C355 C354 1.349 . S
C355 C371 1.349 . S
C356 C354 1.327 . S
C356 C375 1.429 . S
C356 H380 0.950 . S
C357 C374 1.574 . S
C357 C376 1.368 1_554 S
C357 H381 0.949 . S
H358 C362 0.949 . S
C359 C360 1.349 . S
C359 C361 1.327 . S
C359 H382 0.950 . S
C360 C359 1.349 . S
C360 C372 1.349 . S
C361 C359 1.327 . S
C361 C377 1.429 . S
C361 H383 0.950 . S
C362 H358 0.949 . S
C362 C370 1.574 . S
C362 C378 1.368 1_556 S
H363 C371 0.950 1_554 S
H364 C369 0.950 . S
H365 C370 0.949 . S
H366 C372 0.950 1_556 S
H367 C373 0.950 . S
H368 C374 0.949 . S
C369 H364 0.950 . S
C369 C371 1.327 1_554 S
C369 C375 1.429 1_554 S
C370 C362 1.574 . S
C370 H365 0.949 . S
C370 C376 1.368 . S
C371 C355 1.349 . S
C371 H363 0.950 1_556 S
C371 C369 1.327 1_556 S
C372 C360 1.349 . S
C372 H366 0.950 1_554 S
C372 C373 1.327 1_554 S
C373 H367 0.950 . S
C373 C372 1.327 1_556 S
C373 C377 1.429 1_556 S
C374 C357 1.574 . S
C374 H368 0.949 . S
C374 C378 1.368 . S
C375 C356 1.429 . S
C375 C369 1.429 1_556 S
C375 C376 1.523 . S
C376 C357 1.368 1_556 S
C376 C370 1.368 . S
C376 C375 1.523 . S
C377 C361 1.429 . S
C377 C373 1.429 1_554 S
C377 C378 1.523 . S
C378 C362 1.368 1_554 S
C378 C374 1.368 . S
C378 C377 1.523 . S
H379 C354 0.950 . S
H380 C356 0.950 . S
H381 C357 0.949 . S
H382 C359 0.950 . S
H383 C361 0.950 . S
C384 C385 1.349 . S
C384 C386 1.327 . S
C384 H409 0.950 . S
C385 C384 1.349 . S
C385 C401 1.349 . S
C386 C384 1.327 . S
C386 C405 1.429 . S
C386 H410 0.950 . S
C387 C404 1.574 1_545 S
C387 C406 1.368 . S
C387 H411 0.949 . S
H388 C392 0.949 . S
C389 C390 1.349 . S
C389 C391 1.327 . S
C389 H412 0.950 . S
C390 C389 1.349 . S
C390 C402 1.349 . S
C391 C389 1.327 . S
C391 C407 1.429 . S
C391 H413 0.950 . S
C392 H388 0.949 . S
C392 C400 1.574 1_565 S
C392 C408 1.368 . S
H393 C401 0.950 . S
H394 C399 0.950 . S
H395 C400 0.949 . S
H396 C402 0.950 . S
H397 C403 0.950 . S
H398 C404 0.949 . S
C399 H394 0.950 . S
C399 C401 1.327 . S
C399 C405 1.429 . S
C400 C392 1.574 1_545 S
C400 H395 0.949 . S
C400 C406 1.368 . S
C401 C385 1.349 . S
C401 H393 0.950 . S
C401 C399 1.327 . S
C402 C390 1.349 . S
C402 H396 0.950 . S
C402 C403 1.327 . S
C403 H397 0.950 . S
C403 C402 1.327 . S
C403 C407 1.429 . S
C404 C387 1.574 1_565 S
C404 H398 0.949 . S
C404 C408 1.368 . S
C405 C386 1.429 . S
C405 C399 1.429 . S
C405 C406 1.523 . S
C406 C387 1.368 . S
C406 C400 1.368 . S
C406 C405 1.523 . S
C407 C391 1.429 . S
C407 C403 1.429 . S
C407 C408 1.523 . S
C408 C392 1.368 . S
C408 C404 1.368 . S
C408 C407 1.523 . S
H409 C384 0.950 . S
H410 C386 0.950 . S
H411 C387 0.949 . S
H412 C389 0.950 . S
H413 C391 0.950 . S
C414 C415 1.349 . S
C414 C416 1.327 . S
C414 H439 0.950 . S
C415 C414 1.349 . S
C415 C431 1.349 . S
C416 C414 1.327 . S
C416 C435 1.429 . S
C416 H440 0.950 . S
C417 C434 1.574 1_655 S
C417 C436 1.368 . S
C417 H441 0.949 . S
H418 C422 0.949 . S
C419 C420 1.349 . S
C419 C421 1.327 . S
C419 H442 0.950 . S
C420 C419 1.349 . S
C420 C432 1.349 . S
C421 C419 1.327 . S
C421 C437 1.429 . S
C421 H443 0.950 . S
C422 H418 0.949 . S
C422 C430 1.574 1_455 S
C422 C438 1.368 . S
H423 C431 0.950 . S
H424 C429 0.950 . S
H425 C430 0.949 . S
H426 C432 0.950 . S
H427 C433 0.950 . S
H428 C434 0.949 . S
C429 H424 0.950 . S
C429 C431 1.327 . S
C429 C435 1.429 . S
C430 C422 1.574 1_655 S
C430 H425 0.949 . S
C430 C436 1.368 . S
C431 C415 1.349 . S
C431 H423 0.950 . S
C431 C429 1.327 . S
C432 C420 1.349 . S
C432 H426 0.950 . S
C432 C433 1.327 . S
C433 H427 0.950 . S
C433 C432 1.327 . S
C433 C437 1.429 . S
C434 C417 1.574 1_455 S
C434 H428 0.949 . S
C434 C438 1.368 . S
C435 C416 1.429 . S
C435 C429 1.429 . S
C435 C436 1.523 . S
C436 C417 1.368 . S
C436 C430 1.368 . S
C436 C435 1.523 . S
C437 C421 1.429 . S
C437 C433 1.429 . S
C437 C438 1.523 . S
C438 C422 1.368 . S
C438 C434 1.368 . S
C438 C437 1.523 . S
H439 C414 0.950 . S
H440 C416 0.950 . S
H441 C417 0.949 . S
H442 C419 0.950 . S
H443 C421 0.950 . S
C444 C445 1.349 . S
C444 C446 1.327 . S
C444 H469 0.950 . S
C445 C444 1.349 . S
C445 C461 1.349 . S
C446 C444 1.327 . S
C446 C465 1.429 . S
C446 H470 0.950 . S
C447 C464 1.548 1_655 S
C447 C466 1.406 . S
C447 H471 0.940 . S
H448 C452 0.940 . S
C449 C450 1.349 . S
C449 C451 1.327 . S
C449 H472 0.950 . S
C450 C449 1.349 . S
C450 C462 1.349 . S
C451 C449 1.327 . S
C451 C467 1.429 . S
C451 H473 0.950 . S
C452 H448 0.940 . S
C452 C460 1.548 1_455 S
C452 C468 1.406 . S
H453 C461 0.950 . S
H454 C459 0.950 . S
H455 C460 0.949 . S
H456 C462 0.950 . S
H457 C463 0.950 . S
H458 C464 0.949 . S
C459 H454 0.950 . S
C459 C461 1.327 . S
C459 C465 1.429 . S
C460 C452 1.548 1_655 S
C460 H455 0.949 . S
C460 C466 1.368 . S
C461 C445 1.349 . S
C461 H453 0.950 . S
C461 C459 1.327 . S
C462 C450 1.349 . S
C462 H456 0.950 . S
C462 C463 1.327 . S
C463 H457 0.950 . S
C463 C462 1.327 . S
C463 C467 1.429 . S
C464 C447 1.548 1_455 S
C464 H458 0.949 . S
C464 C468 1.368 . S
C465 C446 1.429 . S
C465 C459 1.429 . S
C465 C466 1.523 . S
C466 C447 1.406 . S
C466 C460 1.368 . S
C466 C465 1.523 . S
C467 C451 1.429 . S
C467 C463 1.429 . S
C467 C468 1.523 . S
C468 C452 1.406 . S
C468 C464 1.368 . S
C468 C467 1.523 . S
H469 C444 0.950 . S
H470 C446 0.950 . S
H471 C447 0.940 . S
H472 C449 0.950 . S
H473 C451 0.950 . S
C474 C475 1.349 . S
C474 C476 1.327 . S
C474 H499 0.950 . S
C475 C474 1.349 . S
C475 C491 1.349 . S
C476 C474 1.327 . S
C476 C495 1.429 . S
C476 H500 0.950 . S
C477 C494 1.574 . S
C477 C496 1.368 1_554 S
C477 H501 0.949 . S
H478 C482 0.949 . S
C479 C480 1.349 . S
C479 C481 1.327 . S
C479 H502 0.950 . S
C480 C479 1.349 . S
C480 C492 1.349 . S
C481 C479 1.327 . S
C481 C497 1.429 . S
C481 H503 0.950 . S
C482 H478 0.949 . S
C482 C490 1.574 . S
C482 C498 1.368 1_556 S
H483 C491 0.950 . S
H484 C489 0.950 . S
H485 C490 0.949 . S
H486 C492 0.950 . S
H487 C493 0.950 . S
H488 C494 0.949 . S
C489 H484 0.950 . S
C489 C491 1.327 . S
C489 C495 1.429 . S
C490 C482 1.574 . S
C490 H485 0.949 . S
C490 C496 1.368 . S
C491 C475 1.349 . S
C491 H483 0.950 . S
C491 C489 1.327 . S
C492 C480 1.349 . S
C492 H486 0.950 . S
C492 C493 1.327 . S
C493 H487 0.950 . S
C493 C492 1.327 . S
C493 C497 1.429 . S
C494 C477 1.574 . S
C494 H488 0.949 . S
C494 C498 1.368 . S
C495 C476 1.429 . S
C495 C489 1.429 . S
C495 C496 1.523 . S
C496 C477 1.368 1_556 S
C496 C490 1.368 . S
C496 C495 1.523 . S
C497 C481 1.429 . S
C497 C493 1.429 . S
C497 C498 1.523 . S
C498 C482 1.368 1_554 S
C498 C494 1.368 . S
C498 C497 1.523 . S
H499 C474 0.950 . S
H500 C476 0.950 . S
H501 C477 0.949 . S
H502 C479 0.950 . S
H503 C481 0.950 . S
C504 C505 1.349 . S
C504 C506 1.327 . S
C504 H529 0.950 . S
C505 C504 1.349 . S
C505 C521 1.349 . S
C506 C504 1.327 . S
C506 C525 1.429 . S
C506 H530 0.950 . S
C507 C524 1.576 . S
C507 C526 1.368 . S
C507 H531 0.949 . S
H508 C512 0.949 . S
C509 C510 1.349 . S
C509 C511 1.327 . S
C509 H532 0.950 . S
C510 C509 1.349 . S
C510 C522 1.349 . S
C511 C509 1.327 . S
C511 C527 1.429 . S
C511 H533 0.950 . S
C512 H508 0.949 . S
C512 C520 1.576 . S
C512 C528 1.368 . S
H513 C521 0.950 . S
H514 C519 0.950 . S
H515 C520 0.945 1_545 S
H516 C522 0.950 . S
H517 C523 0.950 . S
H518 C524 0.945 1_565 S
C519 H514 0.950 . S
C519 C521 1.327 . S
C519 C525 1.429 . S
C520 C512 1.576 . S
C520 H515 0.945 1_565 S
C520 C526 1.367 1_565 S
C521 C505 1.349 . S
C521 H513 0.950 . S
C521 C519 1.327 . S
C522 C510 1.349 . S
C522 H516 0.950 . S
C522 C523 1.327 . S
C523 H517 0.950 . S
C523 C522 1.327 . S
C523 C527 1.429 . S
C524 C507 1.576 . S
C524 H518 0.945 1_545 S
C524 C528 1.367 1_545 S
C525 C506 1.429 . S
C525 C519 1.429 . S
C525 C526 1.523 . S
C526 C507 1.368 . S
C526 C520 1.367 1_545 S
C526 C525 1.523 . S
C527 C511 1.429 . S
C527 C523 1.429 . S
C527 C528 1.523 . S
C528 C512 1.368 . S
C528 C524 1.367 1_565 S
C528 C527 1.523 . S
H529 C504 0.950 . S
H530 C506 0.950 . S
H531 C507 0.949 . S
H532 C509 0.950 . S
H533 C511 0.950 . S
C534 C535 1.349 . S
C534 C536 1.327 . S
C534 H559 0.950 . S
C535 C534 1.349 . S
C535 C551 1.349 . S
C536 C534 1.327 . S
C536 C555 1.429 . S
C536 H560 0.950 . S
C537 C554 1.574 . S
C537 C556 1.368 . S
C537 H561 0.949 . S
H538 C542 0.949 . S
C539 C540 1.349 . S
C539 C541 1.327 . S
C539 H562 0.950 . S
C540 C539 1.349 . S
C540 C552 1.349 . S
C541 C539 1.327 . S
C541 C557 1.429 . S
C541 H563 0.950 . S
C542 H538 0.949 . S
C542 C550 1.574 . S
C542 C558 1.368 . S
H543 C551 0.950 1_554 S
H544 C549 0.950 . S
H545 C550 0.949 . S
H546 C552 0.950 . S
H547 C553 0.950 . S
H548 C554 0.949 . S
C549 H544 0.950 . S
C549 C551 1.327 . S
C549 C555 1.429 . S
C550 C542 1.574 . S
C550 H545 0.949 . S
C550 C556 1.368 . S
C551 C535 1.349 . S
C551 H543 0.950 1_556 S
C551 C549 1.327 . S
C552 C540 1.349 . S
C552 H546 0.950 . S
C552 C553 1.327 . S
C553 H547 0.950 . S
C553 C552 1.327 . S
C553 C557 1.429 . S
C554 C537 1.574 . S
C554 H548 0.949 . S
C554 C558 1.368 . S
C555 C536 1.429 . S
C555 C549 1.429 . S
C555 C556 1.523 . S
C556 C537 1.368 . S
C556 C550 1.368 . S
C556 C555 1.523 . S
C557 C541 1.429 . S
C557 C553 1.429 . S
C557 C558 1.523 . S
C558 C542 1.368 . S
C558 C554 1.368 . S
C558 C557 1.523 . S
H559 C534 0.950 . S
H560 C536 0.950 . S
H561 C537 0.949 . S
H562 C539 0.950 . S
H563 C541 0.950 . S
C564 C565 1.349 . S
C564 C566 1.327 . S
C564 H589 0.950 . S
C565 C564 1.349 . S
C565 C581 1.349 . S
C566 C564 1.327 . S
C566 C585 1.429 . S
C566 H590 0.950 . S
C567 C584 1.574 . S
C567 C586 1.368 . S
C567 H591 0.949 . S
H568 C572 0.949 . S
C569 C570 1.349 . S
C569 C571 1.327 . S
C569 H592 0.950 . S
C570 C569 1.349 . S
C570 C582 1.349 . S
C571 C569 1.327 . S
C571 C587 1.429 . S
C571 H593 0.950 . S
C572 H568 0.949 . S
C572 C580 1.574 . S
C572 C588 1.368 . S
H573 C581 0.950 . S
H574 C579 0.950 . S
H575 C580 0.949 . S
H576 C582 0.950 . S
H577 C583 0.950 . S
H578 C584 0.949 . S
C579 H574 0.950 . S
C579 C581 1.327 . S
C579 C585 1.429 . S
C580 C572 1.574 . S
C580 H575 0.949 . S
C580 C586 1.368 . S
C581 C565 1.349 . S
C581 H573 0.950 . S
C581 C579 1.327 . S
C582 C570 1.349 . S
C582 H576 0.950 . S
C582 C583 1.327 . S
C583 H577 0.950 . S
C583 C582 1.327 . S
C583 C587 1.429 . S
C584 C567 1.574 . S
C584 H578 0.949 . S
C584 C588 1.368 . S
C585 C566 1.429 . S
C585 C579 1.429 . S
C585 C586 1.523 . S
C586 C567 1.368 . S
C586 C580 1.368 . S
C586 C585 1.523 . S
C587 C571 1.429 . S
C587 C583 1.429 . S
C587 C588 1.523 . S
C588 C572 1.368 . S
C588 C584 1.368 . S
C588 C587 1.523 . S
H589 C564 0.950 . S
H590 C566 0.950 . S
H591 C567 0.949 . S
H592 C569 0.950 . S
H593 C571 0.950 . S
C594 C595 1.349 . S
C594 C596 1.327 . S
C594 H619 0.950 . S
C595 C594 1.349 . S
C595 C611 1.349 . S
C596 C594 1.327 . S
C596 C615 1.429 . S
C596 H620 0.950 . S
C597 C614 1.574 . S
C597 C616 1.368 . S
C597 H621 0.949 . S
H598 C602 0.949 . S
C599 C600 1.349 . S
C599 C601 1.327 . S
C599 H622 0.950 . S
C600 C599 1.349 . S
C600 C612 1.349 . S
C601 C599 1.327 . S
C601 C617 1.429 . S
C601 H623 0.950 . S
C602 H598 0.949 . S
C602 C610 1.574 . S
C602 C618 1.368 . S
H603 C611 0.950 . S
H604 C609 0.950 . S
H605 C610 0.949 . S
H606 C612 0.950 . S
H607 C613 0.950 . S
H608 C614 0.949 . S
C609 H604 0.950 . S
C609 C611 1.327 . S
C609 C615 1.429 . S
C610 C602 1.574 . S
C610 H605 0.949 . S
C610 C616 1.368 . S
C611 C595 1.349 . S
C611 H603 0.950 . S
C611 C609 1.327 . S
C612 C600 1.349 . S
C612 H606 0.950 . S
C612 C613 1.327 . S
C613 H607 0.950 . S
C613 C612 1.327 . S
C613 C617 1.429 . S
C614 C597 1.574 . S
C614 H608 0.949 . S
C614 C618 1.368 . S
C615 C596 1.429 . S
C615 C609 1.429 . S
C615 C616 1.523 . S
C616 C597 1.368 . S
C616 C610 1.368 . S
C616 C615 1.523 . S
C617 C601 1.429 . S
C617 C613 1.429 . S
C617 C618 1.523 . S
C618 C602 1.368 . S
C618 C614 1.368 . S
C618 C617 1.523 . S
H619 C594 0.950 . S
H620 C596 0.950 . S
H621 C597 0.949 . S
H622 C599 0.950 . S
H623 C601 0.950 . S
C624 C625 1.349 . S
C624 C626 1.327 . S
C624 H649 0.950 1_554 S
C625 C624 1.349 . S
C625 C641 1.349 . S
C626 C624 1.327 . S
C626 C645 1.429 . S
C626 H650 0.950 . S
C627 C644 1.574 . S
C627 C646 1.368 . S
C627 H651 0.949 . S
H628 C632 0.949 . S
C629 C630 1.349 . S
C629 C631 1.327 . S
C629 H652 0.950 . S
C630 C629 1.349 . S
C630 C642 1.349 . S
C631 C629 1.327 . S
C631 C647 1.429 . S
C631 H653 0.950 . S
C632 H628 0.949 . S
C632 C640 1.574 . S
C632 C648 1.368 . S
H633 C641 0.950 . S
H634 C639 0.950 . S
H635 C640 0.949 . S
H636 C642 0.950 . S
H637 C643 0.950 . S
H638 C644 0.949 . S
C639 H634 0.950 . S
C639 C641 1.327 . S
C639 C645 1.429 . S
C640 C632 1.574 . S
C640 H635 0.949 . S
C640 C646 1.368 . S
C641 C625 1.349 . S
C641 H633 0.950 . S
C641 C639 1.327 . S
C642 C630 1.349 . S
C642 H636 0.950 . S
C642 C643 1.327 . S
C643 H637 0.950 . S
C643 C642 1.327 . S
C643 C647 1.429 . S
C644 C627 1.574 . S
C644 H638 0.949 . S
C644 C648 1.368 . S
C645 C626 1.429 . S
C645 C639 1.429 . S
C645 C646 1.523 . S
C646 C627 1.368 . S
C646 C640 1.368 . S
C646 C645 1.523 . S
C647 C631 1.429 . S
C647 C643 1.429 . S
C647 C648 1.523 . S
C648 C632 1.368 . S
C648 C644 1.368 . S
C648 C647 1.523 . S
H649 C624 0.950 1_556 S
H650 C626 0.950 . S
H651 C627 0.949 . S
H652 C629 0.950 . S
H653 C631 0.950 . S
C654 C655 1.349 . S
C654 C656 1.327 . S
C654 H679 0.950 . S
C655 C654 1.349 . S
C655 C671 1.349 . S
C656 C654 1.327 . S
C656 C675 1.429 . S
C656 H680 0.950 . S
C657 C674 1.574 . S
C657 C676 1.368 . S
C657 H681 0.949 . S
H658 C662 0.949 . S
C659 C660 1.349 . S
C659 C661 1.327 . S
C659 H682 0.950 . S
C660 C659 1.349 . S
C660 C672 1.349 . S
C661 C659 1.327 . S
C661 C677 1.429 . S
C661 H683 0.950 . S
C662 H658 0.949 . S
C662 C670 1.574 . S
C662 C678 1.368 . S
H663 C671 0.950 . S
H664 C669 0.950 . S
H665 C670 0.949 . S
H666 C672 0.950 . S
H667 C673 0.950 . S
H668 C674 0.949 . S
C669 H664 0.950 . S
C669 C671 1.327 . S
C669 C675 1.429 . S
C670 C662 1.574 . S
C670 H665 0.949 . S
C670 C676 1.368 . S
C671 C655 1.349 . S
C671 H663 0.950 . S
C671 C669 1.327 . S
C672 C660 1.349 . S
C672 H666 0.950 . S
C672 C673 1.327 . S
C673 H667 0.950 . S
C673 C672 1.327 . S
C673 C677 1.429 . S
C674 C657 1.574 . S
C674 H668 0.949 . S
C674 C678 1.368 . S
C675 C656 1.429 . S
C675 C669 1.429 . S
C675 C676 1.523 . S
C676 C657 1.368 . S
C676 C670 1.368 . S
C676 C675 1.523 . S
C677 C661 1.429 . S
C677 C673 1.429 . S
C677 C678 1.523 . S
C678 C662 1.368 . S
C678 C674 1.368 . S
C678 C677 1.523 . S
H679 C654 0.950 . S
H680 C656 0.950 . S
H681 C657 0.949 . S
H682 C659 0.950 . S
H683 C661 0.950 . S
C684 C685 1.349 . S
C684 C686 1.327 . S
C684 H709 0.950 . S
C685 C684 1.349 . S
C685 C701 1.349 . S
C686 C684 1.327 . S
C686 C705 1.429 . S
C686 H710 0.950 . S
C687 C704 1.574 . S
C687 C706 1.368 . S
C687 H711 0.949 . S
H688 C692 0.949 . S
C689 C690 1.349 . S
C689 C691 1.327 . S
C689 H712 0.950 . S
C690 C689 1.349 . S
C690 C702 1.349 . S
C691 C689 1.327 . S
C691 C707 1.429 . S
C691 H713 0.950 . S
C692 H688 0.949 . S
C692 C700 1.574 . S
C692 C708 1.368 . S
H693 C701 0.950 . S
H694 C699 0.950 . S
H695 C700 0.949 . S
H696 C702 0.950 . S
H697 C703 0.950 . S
H698 C704 0.949 . S
C699 H694 0.950 . S
C699 C701 1.327 . S
C699 C705 1.429 . S
C700 C692 1.574 . S
C700 H695 0.949 . S
C700 C706 1.368 . S
C701 C685 1.349 . S
C701 H693 0.950 . S
C701 C699 1.327 . S
C702 C690 1.349 . S
C702 H696 0.950 . S
C702 C703 1.327 . S
C703 H697 0.950 . S
C703 C702 1.327 . S
C703 C707 1.429 . S
C704 C687 1.574 . S
C704 H698 0.949 . S
C704 C708 1.368 . S
C705 C686 1.429 . S
C705 C699 1.429 . S
C705 C706 1.523 . S
C706 C687 1.368 . S
C706 C700 1.368 . S
C706 C705 1.523 . S
C707 C691 1.429 . S
C707 C703 1.429 . S
C707 C708 1.523 . S
C708 C692 1.368 . S
C708 C704 1.368 . S
C708 C707 1.523 . S
H709 C684 0.950 . S
H710 C686 0.950 . S
H711 C687 0.949 . S
H712 C689 0.950 . S
H713 C691 0.950 . S
C714 C715 1.349 . S
C714 C716 1.327 . S
C714 H739 0.950 . S
C715 C714 1.349 . S
C715 C731 1.349 . S
C716 C714 1.327 . S
C716 C735 1.429 . S
C716 H740 0.950 . S
C717 C734 1.574 1_655 S
C717 C736 1.368 . S
C717 H741 0.949 . S
H718 C722 0.949 . S
C719 C720 1.349 . S
C719 C721 1.327 . S
C719 H742 0.950 . S
C720 C719 1.349 . S
C720 C732 1.349 . S
C721 C719 1.327 . S
C721 C737 1.429 . S
C721 H743 0.950 . S
C722 H718 0.949 . S
C722 C730 1.574 1_455 S
C722 C738 1.368 . S
H723 C731 0.950 . S
H724 C729 0.950 . S
H725 C730 0.949 . S
H726 C732 0.950 . S
H727 C733 0.950 . S
H728 C734 0.949 . S
C729 H724 0.950 . S
C729 C731 1.327 . S
C729 C735 1.429 . S
C730 C722 1.574 1_655 S
C730 H725 0.949 . S
C730 C736 1.368 . S
C731 C715 1.349 . S
C731 H723 0.950 . S
C731 C729 1.327 . S
C732 C720 1.349 . S
C732 H726 0.950 . S
C732 C733 1.327 . S
C733 H727 0.950 . S
C733 C732 1.327 . S
C733 C737 1.429 . S
C734 C717 1.574 1_455 S
C734 H728 0.949 . S
C734 C738 1.368 . S
C735 C716 1.429 . S
C735 C729 1.429 . S
C735 C736 1.523 . S
C736 C717 1.368 . S
C736 C730 1.368 . S
C736 C735 1.523 . S
C737 C721 1.429 . S
C737 C733 1.429 . S
C737 C738 1.523 . S
C738 C722 1.368 . S
C738 C734 1.368 . S
C738 C737 1.523 . S
H739 C714 0.950 . S
H740 C716 0.950 . S
H741 C717 0.949 . S
H742 C719 0.950 . S
H743 C721 0.950 . S
C744 C745 1.349 . S
C744 C746 1.327 . S
C744 H769 0.950 . S
C745 C744 1.349 . S
C745 C761 1.349 . S
C746 C744 1.327 . S
C746 C765 1.429 . S
C746 H770 0.950 . S
C747 C764 1.574 . S
C747 C766 1.368 . S
C747 H771 0.949 . S
H748 C752 0.949 . S
C749 C750 1.349 . S
C749 C751 1.327 . S
C749 H772 0.950 . S
C750 C749 1.349 . S
C750 C762 1.349 . S
C751 C749 1.327 . S
C751 C767 1.429 . S
C751 H773 0.950 . S
C752 H748 0.949 . S
C752 C760 1.574 . S
C752 C768 1.368 . S
H753 C761 0.950 . S
H754 C759 0.950 . S
H755 C760 0.949 . S
H756 C762 0.950 . S
H757 C763 0.950 . S
H758 C764 0.949 . S
C759 H754 0.950 . S
C759 C761 1.327 . S
C759 C765 1.429 . S
C760 C752 1.574 . S
C760 H755 0.949 . S
C760 C766 1.368 . S
C761 C745 1.349 . S
C761 H753 0.950 . S
C761 C759 1.327 . S
C762 C750 1.349 . S
C762 H756 0.950 . S
C762 C763 1.327 . S
C763 H757 0.950 . S
C763 C762 1.327 . S
C763 C767 1.429 . S
C764 C747 1.574 . S
C764 H758 0.949 . S
C764 C768 1.368 . S
C765 C746 1.429 . S
C765 C759 1.429 . S
C765 C766 1.523 . S
C766 C747 1.368 . S
C766 C760 1.368 . S
C766 C765 1.523 . S
C767 C751 1.429 . S
C767 C763 1.429 . S
C767 C768 1.523 . S
C768 C752 1.368 . S
C768 C764 1.368 . S
C768 C767 1.523 . S
H769 C744 0.950 . S
H770 C746 0.950 . S
H771 C747 0.949 . S
H772 C749 0.950 . S
H773 C751 0.950 . S
C774 C775 1.349 . S
C774 C776 1.327 . S
C774 H799 0.950 . S
C775 C774 1.349 . S
C775 C791 1.349 . S
C776 C774 1.327 . S
C776 C795 1.429 . S
C776 H800 0.949 . S
C777 C794 1.574 . S
C777 C796 1.368 . S
C777 H801 0.949 . S
H778 C782 0.949 . S
C779 C780 1.349 . S
C779 C781 1.327 . S
C779 H802 0.950 . S
C780 C779 1.349 . S
C780 C792 1.349 . S
C781 C779 1.327 . S
C781 C797 1.429 . S
C781 H803 0.949 . S
C782 H778 0.949 . S
C782 C790 1.574 . S
C782 C798 1.368 . S
H783 C791 0.950 . S
H784 C789 0.950 . S
H785 C790 0.949 . S
H786 C792 0.950 . S
H787 C793 0.950 . S
H788 C794 0.949 . S
C789 H784 0.950 . S
C789 C791 1.327 . S
C789 C795 1.429 . S
C790 C782 1.574 . S
C790 H785 0.949 . S
C790 C796 1.368 1_565 S
C791 C775 1.349 . S
C791 H783 0.950 . S
C791 C789 1.327 . S
C792 C780 1.349 . S
C792 H786 0.950 . S
C792 C793 1.327 . S
C793 H787 0.950 . S
C793 C792 1.327 . S
C793 C797 1.429 . S
C794 C777 1.574 . S
C794 H788 0.949 . S
C794 C798 1.368 1_545 S
C795 C776 1.429 . S
C795 C789 1.429 . S
C795 C796 1.523 . S
C796 C777 1.368 . S
C796 C790 1.368 1_545 S
C796 C795 1.523 . S
C797 C781 1.429 . S
C797 C793 1.429 . S
C797 C798 1.523 . S
C798 C782 1.368 . S
C798 C794 1.368 1_565 S
C798 C797 1.523 . S
H799 C774 0.950 . S
H800 C776 0.949 . S
H801 C777 0.949 . S
H802 C779 0.950 . S
H803 C781 0.949 . S
C175 C160 1.466 . S
C180 C21 1.424 . S
C205 C50 1.424 . S
C210 C102 1.466 . S
C235 C79 1.424 . S
C240 C131 1.466 . S
C265 C44 1.466 . S
C270 C108 1.425 . S
C295 C73 1.466 . S
C300 C137 1.424 . S
C325 C15 1.466 . S
C330 C166 1.425 . S
C355 C92 2.517 . S
C360 C5 2.517 . S
C385 C121 2.517 . S
C390 C34 2.517 . S
C415 C150 2.517 . S
C420 C63 2.517 . S
C445 C124 1.859 . S
C450 C8 1.859 . S
C475 C37 1.859 . S
C480 C153 1.859 . S
C505 C95 1.858 . S
C510 C66 1.858 . S
C535 C3 0.812 . S
C540 C39 0.815 . S
C565 C68 0.815 . S
C570 C32 0.812 . S
C595 C10 0.815 . S
C600 C61 0.812 . S
C625 C90 0.812 . S
C630 C155 0.815 . S
C655 C119 0.812 . S
C660 C97 0.815 . S
C685 C126 0.815 . S
C690 C148 0.812 . S
C715 C129 1.397 . S
C720 C13 1.397 . S
C745 C42 1.398 . S
C750 C158 1.398 . S
C775 C100 1.397 . S
C780 C71 1.397 . S
