# Generated by pormake.
# Topology unh, (4)-cn, num edge types: 1
# Building blocks:
#     Node 0, Type 0, BuildingBlock: ICAMEG_clean_sbu_1, # of connection points: 4
#     Node 1, Type 0, BuildingBlock: ICAMEG_clean_sbu_1, # of connection points: 4
#     Node 2, Type 0, BuildingBlock: ICAMEG_clean_sbu_1, # of connection points: 4
#     Node 3, Type 0, BuildingBlock: ICAMEG_clean_sbu_1, # of connection points: 4
#     Node 4, Type 0, BuildingBlock: ICAMEG_clean_sbu_1, # of connection points: 4
#     Node 5, Type 0, BuildingBlock: ICAMEG_clean_sbu_1, # of connection points: 4
#     Edge 6, Type (0, 0), BuildingBlock: AJUNOK_clean_linker_0, # of connection points: 2
#     Edge 7, Type (0, 0), BuildingBlock: AJUNOK_clean_linker_0, # of connection points: 2
#     Edge 8, Type (0, 0), BuildingBlock: AJUNOK_clean_linker_0, # of connection points: 2
#     Edge 9, Type (0, 0), BuildingBlock: AJUNOK_clean_linker_0, # of connection points: 2
#     Edge 10, Type (0, 0), BuildingBlock: AJUNOK_clean_linker_0, # of connection points: 2
#     Edge 11, Type (0, 0), BuildingBlock: AJUNOK_clean_linker_0, # of connection points: 2
#     Edge 12, Type (0, 0), BuildingBlock: AJUNOK_clean_linker_0, # of connection points: 2
#     Edge 13, Type (0, 0), BuildingBlock: AJUNOK_clean_linker_0, # of connection points: 2
#     Edge 14, Type (0, 0), BuildingBlock: AJUNOK_clean_linker_0, # of connection points: 2
#     Edge 15, Type (0, 0), BuildingBlock: AJUNOK_clean_linker_0, # of connection points: 2
#     Edge 16, Type (0, 0), BuildingBlock: AJUNOK_clean_linker_0, # of connection points: 2
#     Edge 17, Type (0, 0), BuildingBlock: AJUNOK_clean_linker_0, # of connection points: 2
# Relax obj value: 0.025
# Max RMSD: 0.111
# Mean RMSD: 0.111
data_MOF--net-unh--node1-ICAMEG_clean_sbu_1--edge1-AJUNOK_clean_linker_0
_symmetry_space_group_name_H-M    P1
_symmetry_Int_Tables_number       1
_symmetry_cell_setting            triclinic
loop_
_symmetry_equiv_pos_as_xyz
'x, y, z'
_cell_length_a     32.871986
_cell_length_b     32.878792
_cell_length_c     18.231466
_cell_angle_alpha  90.129537
_cell_angle_beta   89.902239
_cell_angle_gamma 119.97677
loop_
_atom_site_label
_atom_site_type_symbol
_atom_site_fract_x
_atom_site_fract_y
_atom_site_fract_z
_atom_type_partial_charge
Co0 Co 0.16199 0.54142 0.03405 0.0
Co1 Co 0.15975 0.62123 0.15321 0.0
O2 O 0.12872 0.56468 0.09343 0.0
C3 C 0.09373 0.54587 0.93419 0.0
O4 O 0.11081 0.58943 0.95627 0.0
C5 C 0.09407 0.54648 0.25223 0.0
O6 O 0.11396 0.52262 0.22972 0.0
O7 O 0.1989 0.59853 0.2008 0.0
O8 O 0.21253 0.56025 0.11038 0.0
H9 H 0.29737 0.75809 0.2744 0.0
H10 H 0.06087 0.47865 0.06679 0.0
O11 O 0.11172 0.52185 0.95762 0.0
H12 H 0.14102 0.39809 0.16706 0.0
H13 H 0.1718 0.4278 0.85937 0.0
H14 H 0.26154 0.57725 0.99359 0.0
H15 H 0.1861 0.4741 0.10366 0.0
H16 H 0.13146 0.45614 0.94146 0.0
O17 O 0.10958 0.58832 0.22941 0.0
H18 H 0.2584 0.6889 0.19317 0.0
H19 H 0.12503 0.67169 0.24751 0.0
H20 H 0.3034 0.55006 0.9126 0.0
H21 H 0.01441 0.40244 0.12895 0.0
H22 H 0.25841 0.47493 0.84452 0.0
H23 H 0.05453 0.36175 0.17995 0.0
O24 O 0.19878 0.6036 0.98645 0.0
H25 H 0.00923 0.60531 0.05713 0.0
H26 H 0.17977 0.71168 0.08477 0.0
H27 H 0.13214 0.73969 0.02146 0.0
H28 H 0.04621 0.68633 1.00734 0.0
H29 H 0.05821 0.57861 0.11953 0.0
H30 H 0.16251 0.74053 0.32976 0.0
H31 H 0.24929 0.78421 0.34361 0.0
O32 O 0.21009 0.65485 0.07694 0.0
C33 C 0.22024 0.57832 0.17463 0.0
C34 C 0.25954 0.73946 0.26862 0.0
C35 C 0.18384 0.72956 0.29976 0.0
N36 N 0.18957 0.67662 0.21507 0.0
C37 C 0.23731 0.70038 0.22248 0.0
C38 C 0.16282 0.69061 0.25316 0.0
C39 C 0.23254 0.75407 0.30749 0.0
C40 C 0.07853 0.46089 0.08795 0.0
N41 N 0.12612 0.48072 0.08123 0.0
C42 C 0.05205 0.41783 0.12339 0.0
C43 C 0.0746 0.39506 0.15211 0.0
C44 C 0.12313 0.41546 0.14499 0.0
C45 C 0.14848 0.45857 0.1092 0.0
C46 C 0.1918 0.46057 0.88879 0.0
C47 C 0.2418 0.54428 0.96473 0.0
C48 C 0.16913 0.47682 0.93523 0.0
N49 N 0.19416 0.51815 0.97257 0.0
C50 C 0.26567 0.52915 0.91874 0.0
C51 C 0.2404 0.48701 0.88052 0.0
C52 C 0.21856 0.64511 1.01269 0.0
C53 C 0.0466 0.62894 0.06317 0.0
C54 C 0.14241 0.68823 0.07876 0.0
C55 C 0.11561 0.70432 0.04298 0.0
C56 C 0.06739 0.67438 0.03513 0.0
N57 N 0.12176 0.64362 0.10612 0.0
C58 C 0.07449 0.61409 0.09877 0.0
Co59 Co 0.62254 0.15863 0.19495 0.0
Co60 Co 0.54728 0.16083 0.32248 0.0
O61 O 0.56824 0.12721 0.25925 0.0
C62 C 0.54569 0.09002 0.10127 0.0
O63 O 0.52137 0.10905 0.12542 0.0
C64 C 0.55208 0.09124 0.41885 0.0
O65 O 0.5951 0.10745 0.39468 0.0
O66 O 0.61078 0.19619 0.36666 0.0
O67 O 0.65775 0.21052 0.26879 0.0
H68 H 0.56269 0.30207 0.45489 0.0
H69 H 0.58405 0.05794 0.23089 0.0
O70 O 0.58832 0.10706 0.1212 0.0
H71 H 0.74841 0.1376 0.31581 0.0
H72 H 0.73903 0.16275 1.01108 0.0
H73 H 0.68473 0.25676 0.14656 0.0
H74 H 0.71605 0.18248 0.2559 0.0
H75 H 0.6728 0.1249 0.09808 0.0
O76 O 0.52836 0.11 0.39746 0.0
H77 H 0.5873 0.25979 0.37013 0.0
H78 H 0.46324 0.13133 0.4177 0.0
H79 H 0.7514 0.29619 0.06082 0.0
H80 H 0.61513 0.01166 0.28987 0.0
H81 H 0.77889 0.24903 0.99219 0.0
H82 H 0.69783 0.05153 0.33303 0.0
O83 O 0.5963 0.1956 0.15016 0.0
H84 H 0.40454 0.01555 0.23014 0.0
H85 H 0.47992 0.1873 0.25954 0.0
H86 H 0.40258 0.14397 0.19929 0.0
H87 H 0.36437 0.05746 0.18429 0.0
H88 H 0.48209 0.06028 0.28922 0.0
H89 H 0.4375 0.17203 0.5038 0.0
H90 H 0.48732 0.25807 0.52265 0.0
O91 O 0.5654 0.21223 0.24782 0.0
C92 C 0.65079 0.21808 0.33536 0.0
C93 C 0.54053 0.26462 0.44685 0.0
C94 C 0.4703 0.19163 0.47435 0.0
N95 N 0.52637 0.19331 0.388 0.0
C96 C 0.55416 0.24055 0.39859 0.0
C97 C 0.48506 0.16876 0.42556 0.0
C98 C 0.49827 0.23991 0.48491 0.0
C99 C 0.62023 0.07547 0.24875 0.0
N100 N 0.64826 0.12282 0.23961 0.0
C101 C 0.63757 0.04911 0.28244 0.0
C102 C 0.68394 0.07152 0.30676 0.0
C103 C 0.71233 0.11981 0.29718 0.0
C104 C 0.69377 0.14506 0.26338 0.0
C105 C 0.72755 0.18371 0.04097 0.0
C106 C 0.69698 0.23616 0.11779 0.0
C107 C 0.6901 0.16248 0.09031 0.0
N108 N 0.67556 0.18878 0.12844 0.0
C109 C 0.73455 0.25861 0.06894 0.0
C110 C 0.74991 0.23213 0.03038 0.0
C111 C 0.57954 0.21886 0.18117 0.0
C112 C 0.42074 0.05321 0.23662 0.0
C113 C 0.46359 0.14968 0.25306 0.0
C114 C 0.41972 0.12531 0.21908 0.0
C115 C 0.39827 0.07676 0.21077 0.0
N116 N 0.48545 0.12633 0.27816 0.0
C117 C 0.46457 0.07872 0.27037 0.0
Co118 Co 0.39578 0.54688 0.4891 0.0
Co119 Co 0.47291 0.6226 0.36201 0.0
O120 O 0.45 0.56786 0.42511 0.0
C121 C 0.47058 0.55037 0.58317 0.0
O122 O 0.49742 0.59355 0.55988 0.0
C123 C 0.46356 0.54633 0.26549 0.0
O124 O 0.42036 0.52199 0.29009 0.0
O125 O 0.40954 0.59706 0.31804 0.0
O126 O 0.36232 0.56566 0.41577 0.0
H127 H 0.46461 0.75299 0.23252 0.0
H128 H 0.43052 0.48152 0.45261 0.0
O129 O 0.42788 0.52717 0.5626 0.0
H130 H 0.2668 0.40329 0.36492 0.0
H131 H 0.27566 0.43674 0.67052 0.0
H132 H 0.33723 0.58696 0.53878 0.0
H133 H 0.30147 0.48024 0.4268 0.0
H134 H 0.34163 0.46259 0.5836 0.0
O135 O 0.48953 0.58867 0.28658 0.0
H136 H 0.4372 0.68546 0.31631 0.0
H137 H 0.55662 0.67319 0.26495 0.0
H138 H 0.27083 0.56227 0.62444 0.0
H139 H 0.39706 0.40436 0.3918 0.0
H140 H 0.23971 0.48669 0.69125 0.0
H141 H 0.31472 0.36484 0.34707 0.0
O142 O 0.42442 0.61018 0.53457 0.0
H143 H 0.61224 0.61318 0.45287 0.0
H144 H 0.54334 0.71544 0.42437 0.0
H145 H 0.62078 0.74676 0.48339 0.0
H146 H 0.65575 0.6955 0.49786 0.0
H147 H 0.5347 0.58314 0.39484 0.0
H148 H 0.58513 0.74027 0.17986 0.0
H149 H 0.5391 0.78079 0.16352 0.0
O150 O 0.45702 0.6576 0.43745 0.0
C151 C 0.36961 0.58009 0.34932 0.0
C152 C 0.48517 0.73586 0.23956 0.0
C153 C 0.55278 0.72868 0.20996 0.0
N154 N 0.49578 0.6761 0.2967 0.0
C155 C 0.46996 0.69781 0.28729 0.0
C156 C 0.53648 0.69075 0.25823 0.0
C157 C 0.52693 0.75139 0.20079 0.0
C158 C 0.39445 0.46427 0.43425 0.0
N159 N 0.36793 0.4853 0.44359 0.0
C160 C 0.37577 0.42067 0.39951 0.0
C161 C 0.3296 0.39857 0.3743 0.0
C162 C 0.30272 0.42015 0.38421 0.0
C163 C 0.32258 0.46379 0.41913 0.0
C164 C 0.28876 0.46964 0.64152 0.0
C165 C 0.32344 0.55374 0.56684 0.0
C166 C 0.32613 0.48446 0.59227 0.0
N167 N 0.34277 0.5259 0.55529 0.0
C168 C 0.28601 0.54006 0.6156 0.0
C169 C 0.26861 0.49768 0.65312 0.0
C170 C 0.44277 0.65043 0.50411 0.0
C171 C 0.59745 0.63591 0.44664 0.0
C172 C 0.55826 0.69287 0.43065 0.0
C173 C 0.60218 0.71084 0.46395 0.0
C174 C 0.6218 0.68207 0.47199 0.0
N175 N 0.53461 0.64756 0.40588 0.0
C176 C 0.55365 0.61917 0.41349 0.0
Co177 Co 0.85876 0.47024 0.53256 0.0
Co178 Co 0.85697 0.38862 0.65155 0.0
O179 O 0.89004 0.44506 0.59229 0.0
C180 C 0.92475 0.46146 0.4334 0.0
O181 O 0.90516 0.41779 0.45583 0.0
C182 C 0.92515 0.46152 0.75158 0.0
O183 O 0.90789 0.48792 0.73003 0.0
O184 O 0.81992 0.4139 0.69932 0.0
O185 O 0.80844 0.45353 0.60892 0.0
H186 H 0.7158 0.25545 0.77209 0.0
H187 H 0.96023 0.52953 0.56634 0.0
O188 O 0.90896 0.48761 0.45633 0.0
H189 H 0.88559 0.61626 0.66462 0.0
H190 H 0.85513 0.58616 0.3566 0.0
H191 H 0.75999 0.43872 0.49275 0.0
H192 H 0.83826 0.54051 0.60114 0.0
H193 H 0.893 0.55519 0.43844 0.0
O194 O 0.90718 0.41952 0.72798 0.0
H195 H 0.75747 0.32459 0.69168 0.0
H196 H 0.88787 0.33438 0.74414 0.0
H197 H 0.72063 0.46855 0.41192 0.0
H198 H 0.00891 0.60532 0.6289 0.0
H199 H 0.76833 0.54272 0.34297 0.0
H200 H 0.97156 0.64915 0.6788 0.0
O201 O 0.81991 0.40826 0.48479 0.0
H202 H 1.00496 0.39787 0.5564 0.0
H203 H 0.83338 0.2972 0.58179 0.0
H204 H 0.8788 0.26653 0.51823 0.0
H205 H 0.96524 0.317 0.50528 0.0
H206 H 0.95816 0.42736 0.61872 0.0
H207 H 0.84771 0.26561 0.82565 0.0
H208 H 0.76103 0.22565 0.83998 0.0
O209 O 0.80654 0.35663 0.57512 0.0
C210 C 0.8001 0.43559 0.67323 0.0
C211 C 0.75356 0.27248 0.76614 0.0
C212 C 0.82761 0.27822 0.79628 0.0
N213 N 0.82499 0.33327 0.71286 0.0
C214 C 0.77732 0.31153 0.7205 0.0
C215 C 0.85017 0.31719 0.75017 0.0
C216 C 0.77897 0.2558 0.80427 0.0
C217 C 0.94379 0.54863 0.58715 0.0
N218 N 0.89649 0.53072 0.57975 0.0
C219 C 0.97151 0.59144 0.62284 0.0
C220 C 0.95052 0.61597 0.65094 0.0
C221 C 0.90227 0.59751 0.64305 0.0
C222 C 0.87565 0.55456 0.60717 0.0
C223 C 0.83396 0.55387 0.38649 0.0
C224 C 0.78092 0.47127 0.46352 0.0
C225 C 0.85521 0.53616 0.43286 0.0
N226 N 0.82866 0.49544 0.47084 0.0
C227 C 0.75846 0.4879 0.41761 0.0
C228 C 0.78525 0.52949 0.37889 0.0
C229 C 0.79887 0.36673 0.51079 0.0
C230 C 0.96734 0.37548 0.56198 0.0
C231 C 0.87096 0.31942 0.57624 0.0
C232 C 0.89652 0.30182 0.54035 0.0
C233 C 0.94502 0.33013 0.53319 0.0
N234 N 0.8931 0.36397 0.60427 0.0
C235 C 0.94067 0.39191 0.59752 0.0
Co236 Co 0.39336 0.85385 0.69966 0.0
Co237 Co 0.47108 0.85363 0.82434 0.0
O238 O 0.44788 0.88607 0.76313 0.0
C239 C 0.46824 0.92426 0.60463 0.0
O240 O 0.49464 0.90723 0.62719 0.0
C241 C 0.46104 0.91932 0.92277 0.0
O242 O 0.41778 0.9002 0.89845 0.0
O243 O 0.40778 0.81476 0.86827 0.0
O244 O 0.35962 0.80152 0.77265 0.0
H245 H 0.46546 0.71333 0.94377 0.0
H246 H 0.42968 0.95403 0.73711 0.0
O247 O 0.42581 0.9057 0.62637 0.0
H248 H 0.26627 0.87054 0.82669 0.0
H249 H 0.27354 0.84671 0.52042 0.0
H250 H 0.33364 0.75573 0.64906 0.0
H251 H 0.29967 0.82743 0.76355 0.0
H252 H 0.33984 0.88562 0.60691 0.0
O253 O 0.48721 0.90319 0.90138 0.0
H254 H 0.43783 0.75421 0.86197 0.0
H255 H 0.55353 0.886 0.92374 0.0
H256 H 0.26693 0.71523 0.56374 0.0
H257 H 0.39748 0.99855 0.79913 0.0
H258 H 0.23654 0.76086 0.49851 0.0
H259 H 0.3153 0.95674 0.84479 0.0
O260 O 0.42097 0.81872 0.65281 0.0
H261 H 0.60956 1.004 0.73625 0.0
H262 H 0.54228 0.83284 0.76021 0.0
H263 H 0.61969 0.88016 0.70153 0.0
H264 H 0.65384 0.9664 0.68931 0.0
H265 H 0.53208 0.95532 0.79396 0.0
H266 H 0.58222 0.84659 1.00674 0.0
H267 H 0.53812 0.75963 0.01696 0.0
O268 O 0.45573 0.80397 0.74703 0.0
C269 C 0.36743 0.7931 0.83804 0.0
C270 C 0.48509 0.75123 0.93956 0.0
C271 C 0.55059 0.82603 0.97497 0.0
N272 N 0.4943 0.82237 0.88758 0.0
C273 C 0.46971 0.77455 0.89313 0.0
C274 C 0.53415 0.84815 0.92798 0.0
C275 C 0.52583 0.77723 0.98069 0.0
C276 C 0.39368 0.93565 0.7559 0.0
N277 N 0.36653 0.88821 0.74637 0.0
C278 C 0.37571 0.96103 0.7913 0.0
C279 C 0.32962 0.93753 0.81703 0.0
C280 C 0.30212 0.88916 0.80698 0.0
C281 C 0.32127 0.86492 0.77137 0.0
C282 C 0.28631 0.8264 0.54877 0.0
C283 C 0.32015 0.77565 0.62172 0.0
C284 C 0.32383 0.84825 0.59779 0.0
N285 N 0.34004 0.82279 0.63395 0.0
C286 C 0.28255 0.7526 0.57313 0.0
C287 C 0.26556 0.77823 0.53649 0.0
C288 C 0.44081 0.79758 0.68083 0.0
C289 C 0.59512 0.96648 0.74149 0.0
C290 C 0.55686 0.87034 0.75498 0.0
C291 C 0.60075 0.89696 0.72183 0.0
C292 C 0.61991 0.94535 0.71504 0.0
N293 N 0.53276 0.89132 0.7808 0.0
C294 C 0.55135 0.93876 0.77443 0.0
Co295 Co 0.62459 0.47107 0.98631 0.0
Co296 Co 0.5483 0.39075 0.86242 0.0
O297 O 0.56987 0.44662 0.92281 0.0
C298 C 0.54791 0.46259 0.08082 0.0
O299 O 0.52393 0.41907 0.05744 0.0
C300 C 0.55422 0.46425 0.76287 0.0
O301 O 0.5975 0.49063 0.78615 0.0
O302 O 0.61171 0.41703 0.81812 0.0
O303 O 0.65986 0.45405 0.91316 0.0
H304 H 0.56001 0.25908 0.74306 0.0
H305 H 0.5844 0.53149 0.94825 0.0
O306 O 0.59023 0.48862 0.05963 0.0
H307 H 0.74802 0.61686 0.85972 0.0
H308 H 0.74116 0.58686 0.16628 0.0
H309 H 0.68793 0.43694 0.03647 0.0
H310 H 0.71725 0.54075 0.92274 0.0
H311 H 0.67455 0.55661 0.07988 0.0
O312 O 0.53008 0.422 0.78513 0.0
H313 H 0.58534 0.32761 0.82451 0.0
H314 H 0.4654 0.33687 0.76508 0.0
H315 H 0.75497 0.46602 0.12174 0.0
H316 H 0.61387 0.60768 0.88609 0.0
H317 H 0.78192 0.54148 0.18753 0.0
H318 H 0.69619 0.65082 0.84111 0.0
O319 O 0.59955 0.4088 0.03338 0.0
H320 H 0.40691 0.39758 0.95084 0.0
H321 H 0.47977 0.29844 0.9284 0.0
H322 H 0.40246 0.26655 0.98828 0.0
H323 H 0.36553 0.31627 0.9998 0.0
H324 H 0.48438 0.42826 0.89213 0.0
H325 H 0.43898 0.26875 0.68239 0.0
H326 H 0.48642 0.22934 0.67107 0.0
O327 O 0.56565 0.35841 0.93979 0.0
C328 C 0.65219 0.43709 0.84805 0.0
C329 C 0.53897 0.27587 0.74767 0.0
C330 C 0.47107 0.28133 0.71355 0.0
N331 N 0.5267 0.33599 0.79989 0.0
C332 C 0.55305 0.31457 0.79389 0.0
C333 C 0.48624 0.31995 0.76033 0.0
C334 C 0.4977 0.25922 0.70725 0.0
C335 C 0.62043 0.55031 0.92959 0.0
N336 N 0.64913 0.53181 0.93945 0.0
C337 C 0.63685 0.59333 0.89412 0.0
C338 C 0.68301 0.61747 0.86877 0.0
C339 C 0.7121 0.59841 0.87913 0.0
C340 C 0.69445 0.55526 0.91471 0.0
C341 C 0.72994 0.55408 0.13762 0.0
C342 C 0.69998 0.47015 0.06395 0.0
C343 C 0.69229 0.53682 0.08859 0.0
N344 N 0.67806 0.49554 0.05201 0.0
C345 C 0.73774 0.4863 0.11256 0.0
C346 C 0.75279 0.5286 0.14953 0.0
C347 C 0.58093 0.36774 1.0057 0.0
C348 C 0.42256 0.37552 0.94589 0.0
C349 C 0.46397 0.32032 0.93329 0.0
C350 C 0.42013 0.30203 0.96711 0.0
C351 C 0.3994 0.32992 0.97347 0.0
N352 N 0.48651 0.36512 0.90648 0.0
C353 C 0.46634 0.39262 0.91237 0.0
C354 C 0.02912 0.54904 0.86611 0.0
C355 C 0.05137 0.52362 0.88647 0.0
C356 C 0.98821 0.52855 0.82329 0.0
C357 C 0.96764 0.48169 0.79903 0.0
H358 H 0.0432 0.58512 0.88362 0.0
H359 H 0.97272 0.54983 0.80904 0.0
S360 S 0.01216 0.39973 0.8366 0.0
N361 N 0.04968 0.44885 0.87851 0.0
N362 N 0.97307 0.41047 0.79833 0.0
C363 C 0.98954 0.45582 0.81889 0.0
C364 C 0.03126 0.47672 0.86243 0.0
C365 C 0.52849 0.98411 0.99114 0.0
C366 C 0.48098 0.96204 0.96989 0.0
C367 C 0.54902 0.02553 0.0328 0.0
C368 C 0.52302 0.04686 0.05512 0.0
H369 H 0.55033 0.96951 0.97518 0.0
H370 H 0.58568 0.04082 0.04767 0.0
S371 S 0.39708 1.00322 0.01443 0.0
N372 N 0.40831 0.96468 0.97491 0.0
N373 N 0.44686 0.04246 0.05285 0.0
C374 C 0.4754 0.02516 0.03442 0.0
C375 C 0.45442 0.98284 0.99202 0.0
C376 C 0.53073 0.54995 0.19472 0.0
C377 C 0.48348 0.52401 0.21725 0.0
C378 C 0.55115 0.52968 0.15132 0.0
C379 C 0.52531 0.4825 0.12844 0.0
H380 H 0.55243 0.58633 0.21094 0.0
H381 H 0.58762 0.5514 0.13556 0.0
S382 S 0.40008 0.39903 0.17204 0.0
N383 N 0.41123 0.44837 0.21294 0.0
N384 N 0.44958 0.4103 0.13161 0.0
C385 C 0.47795 0.45606 0.15044 0.0
C386 C 0.45708 0.47677 0.19467 0.0
C387 C 0.98873 0.52896 0.36413 0.0
C388 C 0.96732 0.48164 0.38607 0.0
C389 C 0.02983 0.54959 0.32175 0.0
C390 C 0.0515 0.52391 0.29954 0.0
H391 H 0.97378 0.55052 0.37991 0.0
H392 H 0.04458 0.58607 0.3062 0.0
S393 S 0.00977 0.39865 0.34238 0.0
N394 N 0.97102 0.40952 0.38199 0.0
N395 N 0.04831 0.44832 0.30303 0.0
C396 C 0.03056 0.47653 0.32118 0.0
C397 C 0.98851 0.45541 0.36414 0.0
C398 C 0.55537 0.02691 0.48762 0.0
C399 C 0.53007 0.0493 0.46738 0.0
C400 C 0.53505 0.98648 0.53152 0.0
C401 C 0.48849 0.96658 0.55691 0.0
H402 H 0.59121 0.0405 0.46922 0.0
H403 H 0.55617 0.97078 0.54554 0.0
S404 S 0.40699 0.01179 0.52026 0.0
N405 N 0.45574 0.04848 0.47679 0.0
N406 N 0.41773 0.97284 0.55897 0.0
C407 C 0.46277 0.98866 0.53724 0.0
C408 C 0.48348 0.02987 0.49265 0.0
C409 C 0.55858 0.53188 0.69261 0.0
C410 C 0.53222 0.48479 0.71556 0.0
C411 C 0.53831 0.55278 0.65044 0.0
C412 C 0.49073 0.52758 0.62956 0.0
H413 H 0.59525 0.55304 0.70753 0.0
H414 H 0.56031 0.58906 0.63409 0.0
S415 S 0.40604 0.40306 0.67537 0.0
N416 N 0.45569 0.41348 0.71396 0.0
N417 N 0.41774 0.45261 0.63507 0.0
C418 C 0.46391 0.48039 0.65206 0.0
C419 C 0.48458 0.45907 0.69486 0.0
C420 C 0.29432 0.57474 0.18724 0.0
C421 C 0.25673 0.57681 0.22053 0.0
C422 C 0.33049 0.57569 0.22931 0.0
C423 C 0.33012 0.57785 0.30647 0.0
H424 H 0.29643 0.57342 0.12805 0.0
H425 H 0.35894 0.57462 0.20101 0.0
S426 S 0.23859 0.58201 0.4207 0.0
N427 N 0.22072 0.57997 0.33553 0.0
N428 N 0.28825 0.58117 0.4144 0.0
C429 C 0.29218 0.57891 0.34051 0.0
C430 C 0.25568 0.5786 0.29764 0.0
C431 C 0.6903 0.25253 0.45528 0.0
C432 C 0.69048 0.25519 0.37816 0.0
C433 C 0.72601 0.28815 0.49754 0.0
C434 C 0.76292 0.32838 0.46454 0.0
H435 H 0.66222 0.22266 0.4834 0.0
H436 H 0.72399 0.28457 0.55669 0.0
S437 S 0.78036 0.35219 0.2645 0.0
N438 N 0.73148 0.30102 0.27053 0.0
N439 N 0.79818 0.36814 0.34972 0.0
C440 C 0.76385 0.33129 0.38742 0.0
C441 C 0.72783 0.29466 0.34435 0.0
C442 C 0.44425 0.72342 0.66776 0.0
C443 C 0.44481 0.76238 0.63494 0.0
C444 C 0.44428 0.68784 0.62507 0.0
C445 C 0.44574 0.69015 0.54783 0.0
H446 H 0.44236 0.7196 0.72687 0.0
H447 H 0.44281 0.65808 0.65301 0.0
S448 S 0.45072 0.7866 0.43521 0.0
N449 N 0.44889 0.80227 0.52066 0.0
N450 N 0.44962 0.73597 0.44069 0.0
C451 C 0.4479 0.72979 0.5145 0.0
C452 C 0.4472 0.76567 0.55793 0.0
C453 C 0.69133 0.4412 0.72805 0.0
C454 C 0.69185 0.43957 0.80522 0.0
C455 C 0.72715 0.44128 0.68589 0.0
C456 C 0.76442 0.43874 0.71915 0.0
H457 H 0.66292 0.44231 0.69984 0.0
H458 H 0.72487 0.44208 0.62669 0.0
S459 S 0.7828 0.43483 0.91937 0.0
N460 N 0.73358 0.4365 0.91313 0.0
N461 N 0.80038 0.43593 0.83416 0.0
C462 C 0.76569 0.43767 0.7963 0.0
C463 C 0.72961 0.43834 0.83922 0.0
C464 C 0.32881 0.75794 0.95827 0.0
C465 C 0.32789 0.75599 0.88104 0.0
C466 C 0.29262 0.72272 1.00041 0.0
C467 C 0.25453 0.68365 0.96703 0.0
H468 H 0.35775 0.78697 0.98656 0.0
H469 H 0.29521 0.72556 0.05963 0.0
S470 S 0.23464 0.66216 0.76681 0.0
N471 N 0.28477 0.71215 0.77307 0.0
N472 N 0.2173 0.64577 0.85206 0.0
C473 C 0.25285 0.6815 0.88991 0.0
C474 C 0.28932 0.7177 0.84701 0.0
C475 C 0.57663 0.28975 0.01854 0.0
C476 C 0.57828 0.32926 0.0517 0.0
C477 C 0.57674 0.25419 0.06081 0.0
C478 C 0.57768 0.25622 0.13802 0.0
H479 H 0.57633 0.28669 0.95934 0.0
H480 H 0.57611 0.22484 0.03259 0.0
S481 S 0.58025 0.35131 0.25194 0.0
N482 N 0.57962 0.36768 0.16665 0.0
N483 N 0.57936 0.3008 0.2458 0.0
C484 C 0.57826 0.29504 0.17188 0.0
C485 C 0.57874 0.33154 0.12886 0.0
loop_
_geom_bond_atom_site_label_1
_geom_bond_atom_site_label_2
_geom_bond_distance
_geom_bond_site_symmetry_2
_ccdc_geom_bond_type
Co0 O2 2.143 . S
Co0 O8 2.074 . S
Co0 O11 2.093 1_554 S
Co0 O24 2.097 1_554 S
Co0 N41 2.151 . S
Co0 N49 2.214 1_554 S
Co1 O2 2.160 . S
Co1 O7 2.058 . S
Co1 O17 2.057 . S
Co1 O32 2.037 . S
Co1 N36 2.145 . S
Co1 N57 2.257 . S
O2 Co0 2.143 . S
O2 Co1 2.160 . S
C3 O4 1.278 . S
C3 O11 1.224 . S
O4 C3 1.278 . S
C5 O6 1.245 . S
C5 O17 1.232 . S
O6 C5 1.245 . S
O7 Co1 2.058 . S
O7 C33 1.269 . S
O8 Co0 2.074 . S
O8 C33 1.257 . S
H9 C34 0.930 . S
H10 C40 0.930 . S
O11 Co0 2.093 1_556 S
O11 C3 1.224 . S
H12 C44 0.929 . S
H13 C46 0.930 . S
H14 C47 0.930 . S
H15 C45 0.929 . S
H16 C48 0.928 . S
O17 Co1 2.057 . S
O17 C5 1.232 . S
H18 C37 0.929 . S
H19 C38 0.929 . S
H20 C50 0.931 . S
H21 C42 0.929 . S
H22 C51 0.930 . S
H23 C43 0.931 . S
O24 Co0 2.097 1_556 S
O24 C52 1.214 1_556 S
H25 C53 0.929 . S
H26 C54 0.929 . S
H27 C55 0.930 . S
H28 C56 0.929 . S
H29 C58 0.930 . S
H30 C35 0.930 . S
H31 C39 0.930 . S
O32 Co1 2.037 . S
O32 C52 1.234 . S
C33 O7 1.269 . S
C33 O8 1.257 . S
C34 H9 0.930 . S
C34 C37 1.388 . S
C34 C39 1.418 . S
C35 H30 0.930 . S
C35 C38 1.404 . S
C35 C39 1.353 . S
N36 Co1 2.145 . S
N36 C37 1.397 . S
N36 C38 1.334 . S
C37 H18 0.929 . S
C37 C34 1.388 . S
C37 N36 1.397 . S
C38 H19 0.929 . S
C38 C35 1.404 . S
C38 N36 1.334 . S
C39 H31 0.930 . S
C39 C34 1.418 . S
C39 C35 1.353 . S
C40 H10 0.930 . S
C40 N41 1.330 . S
C40 C42 1.446 . S
N41 Co0 2.151 . S
N41 C40 1.330 . S
N41 C45 1.418 . S
C42 H21 0.929 . S
C42 C40 1.446 . S
C42 C43 1.332 . S
C43 H23 0.931 . S
C43 C42 1.332 . S
C43 C44 1.267 . S
C44 H12 0.929 . S
C44 C43 1.267 . S
C44 C45 1.251 . S
C45 H15 0.929 . S
C45 N41 1.418 . S
C45 C44 1.251 . S
C46 H13 0.930 . S
C46 C48 1.406 . S
C46 C51 1.261 . S
C47 H14 0.930 . S
C47 N49 1.325 . S
C47 C50 1.357 . S
C48 H16 0.928 . S
C48 C46 1.406 . S
C48 N49 1.261 . S
N49 Co0 2.214 1_556 S
N49 C47 1.325 . S
N49 C48 1.261 . S
C50 H20 0.931 . S
C50 C47 1.357 . S
C50 C51 1.312 . S
C51 H22 0.930 . S
C51 C46 1.261 . S
C51 C50 1.312 . S
C52 O24 1.214 1_554 S
C52 O32 1.234 . S
C53 H25 0.929 . S
C53 C56 1.391 . S
C53 C58 1.391 . S
C54 H26 0.929 . S
C54 C55 1.390 . S
C54 N57 1.391 . S
C55 H27 0.930 . S
C55 C54 1.390 . S
C55 C56 1.392 . S
C56 H28 0.929 . S
C56 C53 1.391 . S
C56 C55 1.392 . S
N57 Co1 2.257 . S
N57 C54 1.391 . S
N57 C58 1.388 . S
C58 H29 0.930 . S
C58 C53 1.391 . S
C58 N57 1.388 . S
Co59 O61 2.143 . S
Co59 O67 2.074 . S
Co59 O70 2.093 . S
Co59 O83 2.097 . S
Co59 N100 2.151 . S
Co59 N108 2.214 . S
Co60 O61 2.160 . S
Co60 O66 2.058 . S
Co60 O76 2.057 . S
Co60 O91 2.037 . S
Co60 N95 2.145 . S
Co60 N116 2.257 . S
O61 Co59 2.143 . S
O61 Co60 2.160 . S
C62 O63 1.278 . S
C62 O70 1.224 . S
O63 C62 1.278 . S
C64 O65 1.245 . S
C64 O76 1.232 . S
O65 C64 1.245 . S
O66 Co60 2.058 . S
O66 C92 1.269 . S
O67 Co59 2.074 . S
O67 C92 1.257 . S
H68 C93 0.930 . S
H69 C99 0.930 . S
O70 Co59 2.093 . S
O70 C62 1.224 . S
H71 C103 0.929 . S
H72 C105 0.930 1_556 S
H73 C106 0.930 . S
H74 C104 0.929 . S
H75 C107 0.928 . S
O76 Co60 2.057 . S
O76 C64 1.232 . S
H77 C96 0.929 . S
H78 C97 0.929 . S
H79 C109 0.931 . S
H80 C101 0.929 . S
H81 C110 0.930 1_556 S
H82 C102 0.931 . S
O83 Co59 2.097 . S
O83 C111 1.214 . S
H84 C112 0.929 . S
H85 C113 0.929 . S
H86 C114 0.930 . S
H87 C115 0.929 . S
H88 C117 0.930 . S
H89 C94 0.930 . S
H90 C98 0.930 . S
O91 Co60 2.037 . S
O91 C111 1.234 . S
C92 O66 1.269 . S
C92 O67 1.257 . S
C93 H68 0.930 . S
C93 C96 1.388 . S
C93 C98 1.418 . S
C94 H89 0.930 . S
C94 C97 1.404 . S
C94 C98 1.353 . S
N95 Co60 2.145 . S
N95 C96 1.397 . S
N95 C97 1.334 . S
C96 H77 0.929 . S
C96 C93 1.388 . S
C96 N95 1.397 . S
C97 H78 0.929 . S
C97 C94 1.404 . S
C97 N95 1.334 . S
C98 H90 0.930 . S
C98 C93 1.418 . S
C98 C94 1.353 . S
C99 H69 0.930 . S
C99 N100 1.330 . S
C99 C101 1.446 . S
N100 Co59 2.151 . S
N100 C99 1.330 . S
N100 C104 1.418 . S
C101 H80 0.929 . S
C101 C99 1.446 . S
C101 C102 1.332 . S
C102 H82 0.931 . S
C102 C101 1.332 . S
C102 C103 1.267 . S
C103 H71 0.929 . S
C103 C102 1.267 . S
C103 C104 1.251 . S
C104 H74 0.929 . S
C104 N100 1.418 . S
C104 C103 1.251 . S
C105 H72 0.930 1_554 S
C105 C107 1.406 . S
C105 C110 1.261 . S
C106 H73 0.930 . S
C106 N108 1.325 . S
C106 C109 1.357 . S
C107 H75 0.928 . S
C107 C105 1.406 . S
C107 N108 1.261 . S
N108 Co59 2.214 . S
N108 C106 1.325 . S
N108 C107 1.261 . S
C109 H79 0.931 . S
C109 C106 1.357 . S
C109 C110 1.312 . S
C110 H81 0.930 1_554 S
C110 C105 1.261 . S
C110 C109 1.312 . S
C111 O83 1.214 . S
C111 O91 1.234 . S
C112 H84 0.929 . S
C112 C115 1.391 . S
C112 C117 1.391 . S
C113 H85 0.929 . S
C113 C114 1.390 . S
C113 N116 1.391 . S
C114 H86 0.930 . S
C114 C113 1.390 . S
C114 C115 1.392 . S
C115 H87 0.929 . S
C115 C112 1.391 . S
C115 C114 1.392 . S
N116 Co60 2.257 . S
N116 C113 1.391 . S
N116 C117 1.388 . S
C117 H88 0.930 . S
C117 C112 1.391 . S
C117 N116 1.388 . S
Co118 O120 2.143 . S
Co118 O126 2.074 . S
Co118 O129 2.093 . S
Co118 O142 2.097 . S
Co118 N159 2.151 . S
Co118 N167 2.214 . S
Co119 O120 2.160 . S
Co119 O125 2.058 . S
Co119 O135 2.057 . S
Co119 O150 2.037 . S
Co119 N154 2.145 . S
Co119 N175 2.257 . S
O120 Co118 2.143 . S
O120 Co119 2.160 . S
C121 O122 1.278 . S
C121 O129 1.224 . S
O122 C121 1.278 . S
C123 O124 1.245 . S
C123 O135 1.232 . S
O124 C123 1.245 . S
O125 Co119 2.058 . S
O125 C151 1.269 . S
O126 Co118 2.074 . S
O126 C151 1.257 . S
H127 C152 0.930 . S
H128 C158 0.930 . S
O129 Co118 2.093 . S
O129 C121 1.224 . S
H130 C162 0.929 . S
H131 C164 0.930 . S
H132 C165 0.930 . S
H133 C163 0.929 . S
H134 C166 0.928 . S
O135 Co119 2.057 . S
O135 C123 1.232 . S
H136 C155 0.929 . S
H137 C156 0.929 . S
H138 C168 0.931 . S
H139 C160 0.929 . S
H140 C169 0.930 . S
H141 C161 0.931 . S
O142 Co118 2.097 . S
O142 C170 1.214 . S
H143 C171 0.929 . S
H144 C172 0.929 . S
H145 C173 0.930 . S
H146 C174 0.929 . S
H147 C176 0.930 . S
H148 C153 0.930 . S
H149 C157 0.930 . S
O150 Co119 2.037 . S
O150 C170 1.234 . S
C151 O125 1.269 . S
C151 O126 1.257 . S
C152 H127 0.930 . S
C152 C155 1.388 . S
C152 C157 1.418 . S
C153 H148 0.930 . S
C153 C156 1.404 . S
C153 C157 1.353 . S
N154 Co119 2.145 . S
N154 C155 1.397 . S
N154 C156 1.334 . S
C155 H136 0.929 . S
C155 C152 1.388 . S
C155 N154 1.397 . S
C156 H137 0.929 . S
C156 C153 1.404 . S
C156 N154 1.334 . S
C157 H149 0.930 . S
C157 C152 1.418 . S
C157 C153 1.353 . S
C158 H128 0.930 . S
C158 N159 1.330 . S
C158 C160 1.446 . S
N159 Co118 2.151 . S
N159 C158 1.330 . S
N159 C163 1.418 . S
C160 H139 0.929 . S
C160 C158 1.446 . S
C160 C161 1.332 . S
C161 H141 0.931 . S
C161 C160 1.332 . S
C161 C162 1.267 . S
C162 H130 0.929 . S
C162 C161 1.267 . S
C162 C163 1.251 . S
C163 H133 0.929 . S
C163 N159 1.418 . S
C163 C162 1.251 . S
C164 H131 0.930 . S
C164 C166 1.406 . S
C164 C169 1.261 . S
C165 H132 0.930 . S
C165 N167 1.325 . S
C165 C168 1.357 . S
C166 H134 0.928 . S
C166 C164 1.406 . S
C166 N167 1.261 . S
N167 Co118 2.214 . S
N167 C165 1.325 . S
N167 C166 1.261 . S
C168 H138 0.931 . S
C168 C165 1.357 . S
C168 C169 1.312 . S
C169 H140 0.930 . S
C169 C164 1.261 . S
C169 C168 1.312 . S
C170 O142 1.214 . S
C170 O150 1.234 . S
C171 H143 0.929 . S
C171 C174 1.391 . S
C171 C176 1.391 . S
C172 H144 0.929 . S
C172 C173 1.390 . S
C172 N175 1.391 . S
C173 H145 0.930 . S
C173 C172 1.390 . S
C173 C174 1.392 . S
C174 H146 0.929 . S
C174 C171 1.391 . S
C174 C173 1.392 . S
N175 Co119 2.257 . S
N175 C172 1.391 . S
N175 C176 1.388 . S
C176 H147 0.930 . S
C176 C171 1.391 . S
C176 N175 1.388 . S
Co177 O179 2.143 . S
Co177 O185 2.074 . S
Co177 O188 2.093 . S
Co177 O201 2.097 . S
Co177 N218 2.151 . S
Co177 N226 2.214 . S
Co178 O179 2.160 . S
Co178 O184 2.058 . S
Co178 O194 2.057 . S
Co178 O209 2.037 . S
Co178 N213 2.145 . S
Co178 N234 2.257 . S
O179 Co177 2.143 . S
O179 Co178 2.160 . S
C180 O181 1.278 . S
C180 O188 1.224 . S
O181 C180 1.278 . S
C182 O183 1.245 . S
C182 O194 1.232 . S
O183 C182 1.245 . S
O184 Co178 2.058 . S
O184 C210 1.269 . S
O185 Co177 2.074 . S
O185 C210 1.257 . S
H186 C211 0.930 . S
H187 C217 0.930 . S
O188 Co177 2.093 . S
O188 C180 1.224 . S
H189 C221 0.929 . S
H190 C223 0.930 . S
H191 C224 0.930 . S
H192 C222 0.929 . S
H193 C225 0.928 . S
O194 Co178 2.057 . S
O194 C182 1.232 . S
H195 C214 0.929 . S
H196 C215 0.929 . S
H197 C227 0.931 . S
H198 C219 0.929 . S
H199 C228 0.930 . S
H200 C220 0.931 . S
O201 Co177 2.097 . S
O201 C229 1.214 . S
H202 C230 0.929 . S
H203 C231 0.929 . S
H204 C232 0.930 . S
H205 C233 0.929 . S
H206 C235 0.930 . S
H207 C212 0.930 . S
H208 C216 0.930 . S
O209 Co178 2.037 . S
O209 C229 1.234 . S
C210 O184 1.269 . S
C210 O185 1.257 . S
C211 H186 0.930 . S
C211 C214 1.388 . S
C211 C216 1.418 . S
C212 H207 0.930 . S
C212 C215 1.404 . S
C212 C216 1.353 . S
N213 Co178 2.145 . S
N213 C214 1.397 . S
N213 C215 1.334 . S
C214 H195 0.929 . S
C214 C211 1.388 . S
C214 N213 1.397 . S
C215 H196 0.929 . S
C215 C212 1.404 . S
C215 N213 1.334 . S
C216 H208 0.930 . S
C216 C211 1.418 . S
C216 C212 1.353 . S
C217 H187 0.930 . S
C217 N218 1.330 . S
C217 C219 1.446 . S
N218 Co177 2.151 . S
N218 C217 1.330 . S
N218 C222 1.418 . S
C219 H198 0.929 . S
C219 C217 1.446 . S
C219 C220 1.332 . S
C220 H200 0.931 . S
C220 C219 1.332 . S
C220 C221 1.267 . S
C221 H189 0.929 . S
C221 C220 1.267 . S
C221 C222 1.251 . S
C222 H192 0.929 . S
C222 N218 1.418 . S
C222 C221 1.251 . S
C223 H190 0.930 . S
C223 C225 1.406 . S
C223 C228 1.261 . S
C224 H191 0.930 . S
C224 N226 1.325 . S
C224 C227 1.357 . S
C225 H193 0.928 . S
C225 C223 1.406 . S
C225 N226 1.261 . S
N226 Co177 2.214 . S
N226 C224 1.325 . S
N226 C225 1.261 . S
C227 H197 0.931 . S
C227 C224 1.357 . S
C227 C228 1.312 . S
C228 H199 0.930 . S
C228 C223 1.261 . S
C228 C227 1.312 . S
C229 O201 1.214 . S
C229 O209 1.234 . S
C230 H202 0.929 . S
C230 C233 1.391 . S
C230 C235 1.391 . S
C231 H203 0.929 . S
C231 C232 1.390 . S
C231 N234 1.391 . S
C232 H204 0.930 . S
C232 C231 1.390 . S
C232 C233 1.392 . S
C233 H205 0.929 . S
C233 C230 1.391 . S
C233 C232 1.392 . S
N234 Co178 2.257 . S
N234 C231 1.391 . S
N234 C235 1.388 . S
C235 H206 0.930 . S
C235 C230 1.391 . S
C235 N234 1.388 . S
Co236 O238 2.143 . S
Co236 O244 2.074 . S
Co236 O247 2.093 . S
Co236 O260 2.097 . S
Co236 N277 2.151 . S
Co236 N285 2.214 . S
Co237 O238 2.160 . S
Co237 O243 2.058 . S
Co237 O253 2.057 . S
Co237 O268 2.037 . S
Co237 N272 2.145 . S
Co237 N293 2.257 . S
O238 Co236 2.143 . S
O238 Co237 2.160 . S
C239 O240 1.278 . S
C239 O247 1.224 . S
O240 C239 1.278 . S
C241 O242 1.245 . S
C241 O253 1.232 . S
O242 C241 1.245 . S
O243 Co237 2.058 . S
O243 C269 1.269 . S
O244 Co236 2.074 . S
O244 C269 1.257 . S
H245 C270 0.930 . S
H246 C276 0.930 . S
O247 Co236 2.093 . S
O247 C239 1.224 . S
H248 C280 0.929 . S
H249 C282 0.930 . S
H250 C283 0.930 . S
H251 C281 0.929 . S
H252 C284 0.928 . S
O253 Co237 2.057 . S
O253 C241 1.232 . S
H254 C273 0.929 . S
H255 C274 0.929 . S
H256 C286 0.931 . S
H257 C278 0.929 . S
H258 C287 0.930 . S
H259 C279 0.931 . S
O260 Co236 2.097 . S
O260 C288 1.214 . S
H261 C289 0.929 . S
H262 C290 0.929 . S
H263 C291 0.930 . S
H264 C292 0.929 . S
H265 C294 0.930 . S
H266 C271 0.930 1_554 S
H267 C275 0.930 1_554 S
O268 Co237 2.037 . S
O268 C288 1.234 . S
C269 O243 1.269 . S
C269 O244 1.257 . S
C270 H245 0.930 . S
C270 C273 1.388 . S
C270 C275 1.418 . S
C271 H266 0.930 1_556 S
C271 C274 1.404 . S
C271 C275 1.353 . S
N272 Co237 2.145 . S
N272 C273 1.397 . S
N272 C274 1.334 . S
C273 H254 0.929 . S
C273 C270 1.388 . S
C273 N272 1.397 . S
C274 H255 0.929 . S
C274 C271 1.404 . S
C274 N272 1.334 . S
C275 H267 0.930 1_556 S
C275 C270 1.418 . S
C275 C271 1.353 . S
C276 H246 0.930 . S
C276 N277 1.330 . S
C276 C278 1.446 . S
N277 Co236 2.151 . S
N277 C276 1.330 . S
N277 C281 1.418 . S
C278 H257 0.929 . S
C278 C276 1.446 . S
C278 C279 1.332 . S
C279 H259 0.931 . S
C279 C278 1.332 . S
C279 C280 1.267 . S
C280 H248 0.929 . S
C280 C279 1.267 . S
C280 C281 1.251 . S
C281 H251 0.929 . S
C281 N277 1.418 . S
C281 C280 1.251 . S
C282 H249 0.930 . S
C282 C284 1.406 . S
C282 C287 1.261 . S
C283 H250 0.930 . S
C283 N285 1.325 . S
C283 C286 1.357 . S
C284 H252 0.928 . S
C284 C282 1.406 . S
C284 N285 1.261 . S
N285 Co236 2.214 . S
N285 C283 1.325 . S
N285 C284 1.261 . S
C286 H256 0.931 . S
C286 C283 1.357 . S
C286 C287 1.312 . S
C287 H258 0.930 . S
C287 C282 1.261 . S
C287 C286 1.312 . S
C288 O260 1.214 . S
C288 O268 1.234 . S
C289 H261 0.929 . S
C289 C292 1.391 . S
C289 C294 1.391 . S
C290 H262 0.929 . S
C290 C291 1.390 . S
C290 N293 1.391 . S
C291 H263 0.930 . S
C291 C290 1.390 . S
C291 C292 1.392 . S
C292 H264 0.929 . S
C292 C289 1.391 . S
C292 C291 1.392 . S
N293 Co237 2.257 . S
N293 C290 1.391 . S
N293 C294 1.388 . S
C294 H265 0.930 . S
C294 C289 1.391 . S
C294 N293 1.388 . S
Co295 O297 2.143 . S
Co295 O303 2.074 . S
Co295 O306 2.093 1_556 S
Co295 O319 2.097 1_556 S
Co295 N336 2.151 . S
Co295 N344 2.214 1_556 S
Co296 O297 2.160 . S
Co296 O302 2.058 . S
Co296 O312 2.057 . S
Co296 O327 2.037 . S
Co296 N331 2.145 . S
Co296 N352 2.257 . S
O297 Co295 2.143 . S
O297 Co296 2.160 . S
C298 O299 1.278 . S
C298 O306 1.224 . S
O299 C298 1.278 . S
C300 O301 1.245 . S
C300 O312 1.232 . S
O301 C300 1.245 . S
O302 Co296 2.058 . S
O302 C328 1.269 . S
O303 Co295 2.074 . S
O303 C328 1.257 . S
H304 C329 0.930 . S
H305 C335 0.930 . S
O306 Co295 2.093 1_554 S
O306 C298 1.224 . S
H307 C339 0.929 . S
H308 C341 0.930 . S
H309 C342 0.930 . S
H310 C340 0.929 . S
H311 C343 0.928 . S
O312 Co296 2.057 . S
O312 C300 1.232 . S
H313 C332 0.929 . S
H314 C333 0.929 . S
H315 C345 0.931 . S
H316 C337 0.929 . S
H317 C346 0.930 . S
H318 C338 0.931 . S
O319 Co295 2.097 1_554 S
O319 C347 1.214 1_554 S
H320 C348 0.929 . S
H321 C349 0.929 . S
H322 C350 0.930 . S
H323 C351 0.929 . S
H324 C353 0.930 . S
H325 C330 0.930 . S
H326 C334 0.930 . S
O327 Co296 2.037 . S
O327 C347 1.234 . S
C328 O302 1.269 . S
C328 O303 1.257 . S
C329 H304 0.930 . S
C329 C332 1.388 . S
C329 C334 1.418 . S
C330 H325 0.930 . S
C330 C333 1.404 . S
C330 C334 1.353 . S
N331 Co296 2.145 . S
N331 C332 1.397 . S
N331 C333 1.334 . S
C332 H313 0.929 . S
C332 C329 1.388 . S
C332 N331 1.397 . S
C333 H314 0.929 . S
C333 C330 1.404 . S
C333 N331 1.334 . S
C334 H326 0.930 . S
C334 C329 1.418 . S
C334 C330 1.353 . S
C335 H305 0.930 . S
C335 N336 1.330 . S
C335 C337 1.446 . S
N336 Co295 2.151 . S
N336 C335 1.330 . S
N336 C340 1.418 . S
C337 H316 0.929 . S
C337 C335 1.446 . S
C337 C338 1.332 . S
C338 H318 0.931 . S
C338 C337 1.332 . S
C338 C339 1.267 . S
C339 H307 0.929 . S
C339 C338 1.267 . S
C339 C340 1.251 . S
C340 H310 0.929 . S
C340 N336 1.418 . S
C340 C339 1.251 . S
C341 H308 0.930 . S
C341 C343 1.406 . S
C341 C346 1.261 . S
C342 H309 0.930 . S
C342 N344 1.325 . S
C342 C345 1.357 . S
C343 H311 0.928 . S
C343 C341 1.406 . S
C343 N344 1.261 . S
N344 Co295 2.214 1_554 S
N344 C342 1.325 . S
N344 C343 1.261 . S
C345 H315 0.931 . S
C345 C342 1.357 . S
C345 C346 1.312 . S
C346 H317 0.930 . S
C346 C341 1.261 . S
C346 C345 1.312 . S
C347 O319 1.214 1_556 S
C347 O327 1.234 . S
C348 H320 0.929 . S
C348 C351 1.391 . S
C348 C353 1.391 . S
C349 H321 0.929 . S
C349 C350 1.390 . S
C349 N352 1.391 . S
C350 H322 0.930 . S
C350 C349 1.390 . S
C350 C351 1.392 . S
C351 H323 0.929 . S
C351 C348 1.391 . S
C351 C350 1.392 . S
N352 Co296 2.257 . S
N352 C349 1.391 . S
N352 C353 1.388 . S
C353 H324 0.930 . S
C353 C348 1.391 . S
C353 N352 1.388 . S
C354 C355 1.369 1_655 S
C354 C356 1.419 . S
C354 H358 0.930 . S
C355 C354 1.369 1_455 S
C355 C364 1.429 . S
C356 C354 1.419 . S
C356 C357 1.363 . S
C356 H359 0.929 . S
C357 C356 1.363 . S
C357 C363 1.428 1_655 S
H358 C354 0.930 . S
H359 C356 0.929 . S
S360 N361 1.613 . S
S360 N362 1.610 . S
N361 S360 1.613 . S
N361 C364 1.350 . S
N362 S360 1.610 . S
N362 C363 1.351 . S
C363 C357 1.428 1_455 S
C363 N362 1.351 . S
C363 C364 1.434 . S
C364 C355 1.429 . S
C364 N361 1.350 . S
C364 C363 1.434 . S
C365 C366 1.369 . S
C365 C367 1.419 1_566 S
C365 H369 0.930 . S
C366 C365 1.369 . S
C366 C375 1.429 . S
C367 C365 1.419 1_544 S
C367 C368 1.363 . S
C367 H370 0.929 . S
C368 C367 1.363 . S
C368 C374 1.428 . S
H369 C365 0.930 . S
H370 C367 0.929 . S
S371 N372 1.613 1_554 S
S371 N373 1.610 1_565 S
N372 S371 1.613 1_556 S
N372 C375 1.350 . S
N373 S371 1.610 1_545 S
N373 C374 1.351 . S
C374 C368 1.428 . S
C374 N373 1.351 . S
C374 C375 1.434 1_544 S
C375 C366 1.429 . S
C375 N372 1.350 . S
C375 C374 1.434 1_566 S
C376 C377 1.369 . S
C376 C378 1.419 . S
C376 H380 0.930 . S
C377 C376 1.369 . S
C377 C386 1.429 . S
C378 C376 1.419 . S
C378 C379 1.363 . S
C378 H381 0.929 . S
C379 C378 1.363 . S
C379 C385 1.428 . S
H380 C376 0.930 . S
H381 C378 0.929 . S
S382 N383 1.613 . S
S382 N384 1.610 . S
N383 S382 1.613 . S
N383 C386 1.350 . S
N384 S382 1.610 . S
N384 C385 1.351 . S
C385 C379 1.428 . S
C385 N384 1.351 . S
C385 C386 1.434 . S
C386 C377 1.429 . S
C386 N383 1.350 . S
C386 C385 1.434 . S
C387 C388 1.369 . S
C387 C389 1.419 1_655 S
C387 H391 0.930 . S
C388 C387 1.369 . S
C388 C397 1.429 . S
C389 C387 1.419 1_455 S
C389 C390 1.363 . S
C389 H392 0.929 . S
C390 C389 1.363 . S
C390 C396 1.428 . S
H391 C387 0.930 . S
H392 C389 0.929 . S
S393 N394 1.613 . S
S393 N395 1.618 . S
N394 S393 1.613 . S
N394 C397 1.350 . S
N395 S393 1.618 . S
N395 C396 1.358 1_655 S
C396 C390 1.428 . S
C396 N395 1.358 1_455 S
C396 C397 1.434 1_455 S
C397 C388 1.429 . S
C397 N394 1.350 . S
C397 C396 1.434 1_655 S
C398 C399 1.369 1_565 S
C398 C400 1.419 . S
C398 H402 0.930 . S
C399 C398 1.369 1_545 S
C399 C408 1.429 . S
C400 C398 1.419 . S
C400 C401 1.363 . S
C400 H403 0.929 . S
C401 C400 1.363 . S
C401 C407 1.428 1_565 S
H402 C398 0.930 . S
H403 C400 0.929 . S
S404 N405 1.613 . S
S404 N406 1.610 . S
N405 S404 1.613 . S
N405 C408 1.350 . S
N406 S404 1.610 . S
N406 C407 1.351 . S
C407 C401 1.428 1_545 S
C407 N406 1.351 . S
C407 C408 1.434 . S
C408 C399 1.429 . S
C408 N405 1.350 . S
C408 C407 1.434 . S
C409 C410 1.369 . S
C409 C411 1.419 . S
C409 H413 0.930 . S
C410 C409 1.369 . S
C410 C419 1.429 . S
C411 C409 1.419 . S
C411 C412 1.363 . S
C411 H414 0.929 . S
C412 C411 1.363 . S
C412 C418 1.428 . S
H413 C409 0.930 . S
H414 C411 0.929 . S
S415 N416 1.613 . S
S415 N417 1.610 . S
N416 S415 1.613 . S
N416 C419 1.350 . S
N417 S415 1.610 . S
N417 C418 1.351 . S
C418 C412 1.428 . S
C418 N417 1.351 . S
C418 C419 1.434 . S
C419 C410 1.429 . S
C419 N416 1.350 . S
C419 C418 1.434 . S
C420 C421 1.369 . S
C420 C422 1.419 . S
C420 H424 0.930 . S
C421 C420 1.369 . S
C421 C430 1.429 . S
C422 C420 1.419 . S
C422 C423 1.363 . S
C422 H425 0.929 . S
C423 C422 1.363 . S
C423 C429 1.428 . S
H424 C420 0.930 . S
H425 C422 0.929 . S
S426 N427 1.613 . S
S426 N428 1.610 . S
N427 S426 1.613 . S
N427 C430 1.350 . S
N428 S426 1.610 . S
N428 C429 1.351 . S
C429 C423 1.428 . S
C429 N428 1.351 . S
C429 C430 1.434 . S
C430 C421 1.429 . S
C430 N427 1.350 . S
C430 C429 1.434 . S
C431 C432 1.369 . S
C431 C433 1.419 . S
C431 H435 0.930 . S
C432 C431 1.369 . S
C432 C441 1.429 . S
C433 C431 1.419 . S
C433 C434 1.363 . S
C433 H436 0.929 . S
C434 C433 1.363 . S
C434 C440 1.428 . S
H435 C431 0.930 . S
H436 C433 0.929 . S
S437 N438 1.613 . S
S437 N439 1.610 . S
N438 S437 1.613 . S
N438 C441 1.350 . S
N439 S437 1.610 . S
N439 C440 1.351 . S
C440 C434 1.428 . S
C440 N439 1.351 . S
C440 C441 1.434 . S
C441 C432 1.429 . S
C441 N438 1.350 . S
C441 C440 1.434 . S
C442 C443 1.369 . S
C442 C444 1.419 . S
C442 H446 0.930 . S
C443 C442 1.369 . S
C443 C452 1.429 . S
C444 C442 1.419 . S
C444 C445 1.363 . S
C444 H447 0.929 . S
C445 C444 1.363 . S
C445 C451 1.428 . S
H446 C442 0.930 . S
H447 C444 0.929 . S
S448 N449 1.613 . S
S448 N450 1.610 . S
N449 S448 1.613 . S
N449 C452 1.350 . S
N450 S448 1.610 . S
N450 C451 1.351 . S
C451 C445 1.428 . S
C451 N450 1.351 . S
C451 C452 1.434 . S
C452 C443 1.429 . S
C452 N449 1.350 . S
C452 C451 1.434 . S
C453 C454 1.369 . S
C453 C455 1.419 . S
C453 H457 0.930 . S
C454 C453 1.369 . S
C454 C463 1.429 . S
C455 C453 1.419 . S
C455 C456 1.363 . S
C455 H458 0.929 . S
C456 C455 1.363 . S
C456 C462 1.428 . S
H457 C453 0.930 . S
H458 C455 0.929 . S
S459 N460 1.613 . S
S459 N461 1.610 . S
N460 S459 1.613 . S
N460 C463 1.350 . S
N461 S459 1.610 . S
N461 C462 1.351 . S
C462 C456 1.428 . S
C462 N461 1.351 . S
C462 C463 1.434 . S
C463 C454 1.429 . S
C463 N460 1.350 . S
C463 C462 1.434 . S
C464 C465 1.369 . S
C464 C466 1.419 . S
C464 H468 0.930 . S
C465 C464 1.369 . S
C465 C474 1.429 . S
C466 C464 1.419 . S
C466 C467 1.363 . S
C466 H469 0.929 1_556 S
C467 C466 1.363 . S
C467 C473 1.428 . S
H468 C464 0.930 . S
H469 C466 0.929 1_554 S
S470 N471 1.613 . S
S470 N472 1.610 . S
N471 S470 1.613 . S
N471 C474 1.350 . S
N472 S470 1.610 . S
N472 C473 1.351 . S
C473 C467 1.428 . S
C473 N472 1.351 . S
C473 C474 1.434 . S
C474 C465 1.429 . S
C474 N471 1.350 . S
C474 C473 1.434 . S
C475 C476 1.369 . S
C475 C477 1.419 . S
C475 H479 0.930 . S
C476 C475 1.369 . S
C476 C485 1.429 . S
C477 C475 1.419 . S
C477 C478 1.363 . S
C477 H480 0.929 . S
C478 C477 1.363 . S
C478 C484 1.428 . S
H479 C475 0.930 . S
H480 C477 0.929 . S
S481 N482 1.613 . S
S481 N483 1.610 . S
N482 S481 1.613 . S
N482 C485 1.350 . S
N483 S481 1.610 . S
N483 C484 1.351 . S
C484 C478 1.428 . S
C484 N483 1.351 . S
C484 C485 1.434 . S
C485 C476 1.429 . S
C485 N482 1.350 . S
C485 C484 1.434 . S
C355 C3 1.336 . S
C357 C182 1.339 . S
C366 C241 1.338 . S
C368 C62 1.336 . S
C377 C123 1.339 . S
C379 C298 1.337 . S
C388 C180 1.335 . S
C390 C5 1.338 . S
C399 C64 1.340 . S
C401 C239 1.338 . S
C410 C300 1.340 . S
C412 C121 1.338 . S
C421 C33 1.535 . S
C423 C151 1.537 . S
C432 C92 1.540 . S
C434 C229 1.535 . S
C443 C288 1.536 . S
C445 C170 1.539 . S
C454 C328 1.537 . S
C456 C210 1.535 . S
C465 C269 1.540 . S
C467 C52 1.536 1_556 S
C476 C347 1.538 1_554 S
C478 C111 1.537 . S
