# Generated by pormake.
# Topology uol, (4)-cn, num edge types: 1
# Building blocks:
#     Node 0, Type 0, BuildingBlock: KOZSID_clean_sbu_0, # of connection points: 4
#     Node 1, Type 0, BuildingBlock: KOZSID_clean_sbu_0, # of connection points: 4
#     Node 2, Type 0, BuildingBlock: KOZSID_clean_sbu_0, # of connection points: 4
#     Node 3, Type 0, BuildingBlock: KOZSID_clean_sbu_0, # of connection points: 4
#     Node 4, Type 0, BuildingBlock: KOZSID_clean_sbu_0, # of connection points: 4
#     Node 5, Type 0, BuildingBlock: KOZSID_clean_sbu_0, # of connection points: 4
#     Node 6, Type 0, BuildingBlock: KOZSID_clean_sbu_0, # of connection points: 4
#     Node 7, Type 0, BuildingBlock: KOZSID_clean_sbu_0, # of connection points: 4
#     Node 8, Type 0, BuildingBlock: KOZSID_clean_sbu_0, # of connection points: 4
#     Node 9, Type 0, BuildingBlock: KOZSID_clean_sbu_0, # of connection points: 4
#     Node 10, Type 0, BuildingBlock: KOZSID_clean_sbu_0, # of connection points: 4
#     Node 11, Type 0, BuildingBlock: KOZSID_clean_sbu_0, # of connection points: 4
#     Edge 12, Type (0, 0), None
#     Edge 13, Type (0, 0), None
#     Edge 14, Type (0, 0), None
#     Edge 15, Type (0, 0), None
#     Edge 16, Type (0, 0), None
#     Edge 17, Type (0, 0), None
#     Edge 18, Type (0, 0), None
#     Edge 19, Type (0, 0), None
#     Edge 20, Type (0, 0), None
#     Edge 21, Type (0, 0), None
#     Edge 22, Type (0, 0), None
#     Edge 23, Type (0, 0), None
#     Edge 24, Type (0, 0), None
#     Edge 25, Type (0, 0), None
#     Edge 26, Type (0, 0), None
#     Edge 27, Type (0, 0), None
#     Edge 28, Type (0, 0), None
#     Edge 29, Type (0, 0), None
#     Edge 30, Type (0, 0), None
#     Edge 31, Type (0, 0), None
#     Edge 32, Type (0, 0), None
#     Edge 33, Type (0, 0), None
#     Edge 34, Type (0, 0), None
#     Edge 35, Type (0, 0), None
# Relax obj value: 0.153
# Max RMSD: 0.343
# Mean RMSD: 0.316
data_MOF--net-uol--node1-KOZSID_clean_sbu_0--edge1-none
_symmetry_space_group_name_H-M    P1
_symmetry_Int_Tables_number       1
_symmetry_cell_setting            triclinic
loop_
_symmetry_equiv_pos_as_xyz
'x, y, z'
_cell_length_a     21.50567
_cell_length_b     23.568768
_cell_length_c     35.715077
_cell_angle_alpha  89.999963
_cell_angle_beta   89.999981
_cell_angle_gamma 117.11827
loop_
_atom_site_label
_atom_site_type_symbol
_atom_site_fract_x
_atom_site_fract_y
_atom_site_fract_z
_atom_type_partial_charge
C0 C 0.19831 0.30036 0.04766 0.0
C1 C 0.17397 0.26012 0.01671 0.0
C2 C 0.10463 0.24252 0.0133 0.0
C3 C 0.08867 0.2693 0.04342 0.0
N4 N 0.14417 0.30347 0.06563 0.0
Co5 Co 0.13981 0.33317 0.11747 0.0
N6 N 1.03629 0.27954 0.12082 0.0
C7 C 0.99453 0.24475 0.09279 0.0
C8 C 0.92835 0.20367 0.10406 0.0
C9 C 0.92726 0.21422 0.14149 0.0
C10 C 0.99236 0.26356 0.15078 0.0
N11 N 0.13499 0.36564 0.16862 0.0
C12 C 0.07937 0.35185 0.19182 0.0
C13 C 0.09685 0.39824 0.21946 0.0
C14 C 0.16528 0.44098 0.21419 0.0
C15 C 0.1857 0.41988 0.18311 0.0
N16 N 0.24348 0.38441 0.1143 0.0
C17 C 0.28093 0.43674 0.1349 0.0
C18 C 0.34837 0.47071 0.12278 0.0
C19 C 0.35407 0.43726 0.09277 0.0
C20 C 0.29051 0.3826 0.08914 0.0
N21 N 0.12736 0.40663 0.09708 0.0
C22 C 0.12831 0.52577 0.08237 0.0
C23 C 0.17783 0.50995 0.0661 0.0
C24 C 0.17579 0.45011 0.07327 0.0
C25 C 0.07566 0.4789 0.10402 0.0
C26 C 0.07599 0.42017 0.11093 0.0
N27 N 0.15486 0.26155 0.13846 0.0
C28 C 0.21455 0.22624 0.18324 0.0
C29 C 0.21072 0.17761 0.1595 0.0
C30 C 0.16941 0.16634 0.12731 0.0
C31 C 0.13973 0.20715 0.11819 0.0
C32 C 0.18955 0.2692 0.17173 0.0
H33 H 0.10764 0.19584 0.09355 0.0
H34 H 0.20134 0.30994 0.18931 0.0
H35 H 0.21521 0.4402 0.06053 0.0
H36 H 1.03566 0.38695 0.12879 0.0
C37 C 1.02147 0.24473 0.05762 0.0
C38 C 0.27361 0.33586 0.05799 0.0
C39 C 1.00757 0.29962 0.18633 0.0
C40 C 0.25094 0.45113 0.16577 0.0
H41 H 0.20289 0.24387 0.99867 0.0
H42 H 0.06872 0.20813 0.99371 0.0
H43 H 0.88673 0.16824 0.08738 0.0
H44 H 0.88296 0.18783 0.15944 0.0
H45 H 0.06293 0.40323 0.24012 0.0
H46 H 0.19553 0.48398 0.2301 0.0
H47 H 0.38819 0.51524 0.13383 0.0
H48 H 0.39922 0.45316 0.0747 0.0
H49 H 0.21838 0.54387 0.04818 0.0
H50 H 1.0352 0.48815 0.11641 0.0
H51 H 0.2394 0.23246 0.20992 0.0
H52 H 0.16161 0.12734 0.10873 0.0
C53 C 0.65435 0.17419 0.29299 0.0
C54 C 0.62985 0.21214 0.31122 0.0
C55 C 0.67453 0.24147 0.34011 0.0
C56 C 0.72458 0.22093 0.33789 0.0
N57 N 0.71495 0.18042 0.30926 0.0
Co58 Co 0.77894 0.14207 0.29676 0.0
N59 N 0.83579 0.1751 0.34352 0.0
C60 C 0.82546 0.21051 0.36989 0.0
C61 C 0.86268 0.21616 0.40182 0.0
C62 C 0.9046 0.18827 0.39421 0.0
C63 C 0.88831 0.16454 0.35812 0.0
N64 N 0.8439 0.10504 0.28376 0.0
C65 C 0.90392 0.11152 0.30067 0.0
C66 C 0.93761 0.085 0.27918 0.0
C67 C 0.8988 0.06237 0.24732 0.0
C68 C 0.84363 0.07619 0.25116 0.0
N69 N 0.72012 0.10748 0.25032 0.0
C70 C 0.73564 0.07862 0.2218 0.0
C71 C 0.68765 0.05974 0.19332 0.0
C72 C 0.63852 0.07809 0.20412 0.0
C73 C 0.65966 0.10816 0.23858 0.0
N74 N 0.84413 0.22025 0.26877 0.0
C75 C 0.95107 0.28392 0.21583 0.0
C76 C 0.88077 0.26691 0.20728 0.0
C77 C 0.82802 0.23432 0.23398 0.0
C78 C 0.96641 0.28203 0.25353 0.0
C79 C 0.91281 0.25201 0.27957 0.0
N80 N 0.7174 0.06306 0.32496 0.0
C81 C 0.6703 0.94866 0.33068 0.0
C82 C 0.67428 0.95291 0.36994 0.0
C83 C 0.68739 1.01154 0.38576 0.0
C84 C 0.70552 0.06507 0.36263 0.0
C85 C 0.69514 1.00431 0.30884 0.0
H86 H 0.71381 0.10849 0.37607 0.0
H87 H 0.6998 0.99951 0.27921 0.0
H88 H 0.77463 0.21736 0.22549 0.0
H89 H 0.92913 0.25127 0.30772 0.0
C90 C 0.77559 0.23215 0.36493 0.0
C91 C 0.62042 0.13655 0.25895 0.0
C92 C 0.93295 0.14487 0.33615 0.0
C93 C 0.79323 0.06643 0.22393 0.0
H94 H 0.58429 0.21809 0.30448 0.0
H95 H 0.66993 0.27273 0.36093 0.0
H96 H 0.85776 0.23598 0.42795 0.0
H97 H 0.94335 0.18681 0.41292 0.0
H98 H 0.98626 0.08387 0.28554 0.0
H99 H 0.91068 1.04039 0.22361 0.0
H100 H 0.68773 1.03465 0.16796 0.0
H101 H 0.59242 0.07041 0.1883 0.0
H102 H 0.86589 0.27453 0.17949 0.0
H103 H 1.01978 0.301 0.26274 0.0
H104 H 0.65422 0.90325 0.31682 0.0
H105 H 0.68709 1.01692 0.41588 0.0
C106 C 0.71567 0.8673 0.3836 0.0
C107 C 0.75279 0.87642 0.35026 0.0
C108 C 0.777 0.83197 0.34929 0.0
C109 C 0.75609 0.79964 0.38241 0.0
N110 N 0.7208 0.8215 0.40442 0.0
Co111 Co 0.69331 0.79603 0.45714 0.0
N112 N 0.76077 0.76103 0.4617 0.0
C113 C 0.78433 0.73922 0.43301 0.0
C114 C 0.81809 0.70481 0.44419 0.0
C115 C 0.81513 0.70453 0.48245 0.0
C116 C 0.78099 0.74026 0.49235 0.0
N117 N 0.66621 0.7691 0.50988 0.0
C118 C 0.70146 0.75558 0.53748 0.0
C119 C 0.66204 0.73947 0.57017 0.0
C120 C 0.59919 0.73903 0.56176 0.0
C121 C 0.60451 0.75811 0.52502 0.0
N122 N 0.62537 0.83023 0.45142 0.0
C123 C 0.569 0.81463 0.47322 0.0
C124 C 0.53117 0.84588 0.46266 0.0
C125 C 0.56604 0.88287 0.43227 0.0
C126 C 0.62374 0.87255 0.42595 0.0
N127 N 0.62036 0.71006 0.44083 0.0
C128 C 0.50389 0.58954 0.42683 0.0
C129 C 0.51404 0.6441 0.40638 0.0
C130 C 0.57266 0.7035 0.41351 0.0
C131 C 0.55465 0.59641 0.4534 0.0
C132 C 0.61167 0.65644 0.46007 0.0
N133 N 0.76298 0.8826 0.47506 0.0
C134 C 0.7819 0.97435 0.51357 0.0
C135 C 0.84711 1.01208 0.49741 0.0
C136 C 0.87029 0.98268 0.47006 0.0
C137 C 0.82775 0.91791 0.45946 0.0
C138 C 0.74129 0.91102 0.50207 0.0
H139 H 0.84617 0.89715 0.43786 0.0
H140 H 0.68999 0.88612 0.51387 0.0
H141 H 0.57822 0.74456 0.39764 0.0
H142 H 0.64734 0.65935 0.48197 0.0
C143 C 0.78073 0.7584 0.39652 0.0
C144 C 0.67262 0.89928 0.39387 0.0
C145 C 0.76919 0.75375 0.5312 0.0
C146 C 0.56081 0.77919 0.5064 0.0
H147 H 0.76377 0.91197 0.32886 0.0
H148 H 0.81006 0.8269 0.32806 0.0
H149 H 0.84309 0.68366 0.42672 0.0
H150 H 0.83661 0.68174 0.50106 0.0
H151 H 0.67695 0.73075 0.59759 0.0
H152 H 0.55756 0.73161 0.5812 0.0
H153 H 0.4851 0.84382 0.47613 0.0
H154 H 0.5505 0.91343 0.41641 0.0
H155 H 0.47664 0.64101 0.38517 0.0
H156 H 0.54948 0.55571 0.46969 0.0
H157 H 0.76057 0.99472 0.53402 0.0
H158 H 0.91967 1.01009 0.45599 0.0
C159 C 0.89358 0.79499 0.54765 0.0
C160 C 0.91792 0.83524 0.5167 0.0
C161 C 0.98727 0.85285 0.5133 0.0
C162 C 1.00322 0.82607 0.54342 0.0
N163 N 0.94772 0.7919 0.56563 0.0
Co164 Co 0.95206 0.76218 0.61747 0.0
N165 N 0.05559 0.81581 0.62082 0.0
C166 C 0.09735 0.85061 0.5928 0.0
C167 C 0.16352 0.89169 0.60407 0.0
C168 C 0.16461 0.88113 0.6415 0.0
C169 C 0.09951 0.83179 0.65078 0.0
N170 N 0.95688 0.72971 0.66862 0.0
C171 C 1.01249 0.7435 0.69182 0.0
C172 C 0.99501 0.69711 0.71946 0.0
C173 C 0.92658 0.65437 0.71419 0.0
C174 C 0.90616 0.67547 0.68311 0.0
N175 N 0.84839 0.71094 0.6143 0.0
C176 C 0.81093 0.65862 0.6349 0.0
C177 C 0.74349 0.62465 0.62278 0.0
C178 C 0.7378 0.6581 0.59277 0.0
C179 C 0.80135 0.71275 0.58914 0.0
N180 N 0.96451 0.68872 0.59708 0.0
C181 C 0.96356 0.56958 0.58237 0.0
C182 C 0.91404 0.5854 0.5661 0.0
C183 C 0.91608 0.64524 0.57327 0.0
C184 C 1.01621 0.61645 0.60402 0.0
C185 C 1.01588 0.67519 0.61093 0.0
N186 N 0.93701 0.83381 0.63845 0.0
C187 C 0.87733 0.86912 0.68323 0.0
C188 C 0.88115 0.91775 0.65949 0.0
C189 C 0.92245 0.92901 0.6273 0.0
C190 C 0.95214 0.88821 0.61819 0.0
C191 C 0.90232 0.82616 0.67173 0.0
H192 H 0.98423 0.89952 0.59354 0.0
H193 H 0.89054 0.78542 0.68931 0.0
H194 H 0.87666 0.65516 0.56053 0.0
H195 H 0.05621 0.70841 0.62879 0.0
C196 C 0.07042 0.85064 0.55762 0.0
C197 C 0.81829 0.75947 0.55797 0.0
C198 C 0.08429 0.79573 0.68633 0.0
C199 C 0.84092 0.64423 0.66577 0.0
H200 H 0.88901 0.85148 0.49865 0.0
H201 H 1.02318 0.88724 0.49371 0.0
H202 H 0.20515 0.92713 0.58739 0.0
H203 H 0.2089 0.90752 0.65945 0.0
H204 H 1.02892 0.69211 0.74012 0.0
H205 H 0.89633 0.61137 0.7301 0.0
H206 H 0.70367 0.58011 0.63383 0.0
H207 H 0.69266 0.64219 0.57469 0.0
H208 H 0.87349 0.55149 0.54819 0.0
H209 H 0.05667 0.60721 0.6164 0.0
H210 H 0.85247 0.8629 0.70992 0.0
H211 H 0.93025 0.96802 0.60872 0.0
C212 C 0.43752 0.92116 0.79299 0.0
C213 C 0.46202 0.88321 0.81122 0.0
C214 C 0.41733 0.85388 0.84011 0.0
C215 C 0.36729 0.87442 0.83789 0.0
N216 N 0.37692 0.91493 0.80926 0.0
Co217 Co 0.31292 0.95328 0.79676 0.0
N218 N 0.25608 0.92026 0.84352 0.0
C219 C 0.26641 0.88484 0.86989 0.0
C220 C 0.22918 0.8792 0.90182 0.0
C221 C 0.18727 0.90708 0.89421 0.0
C222 C 0.20356 0.93081 0.85811 0.0
N223 N 0.24796 0.99031 0.78375 0.0
C224 C 0.18795 0.98383 0.80066 0.0
C225 C 0.15425 1.01034 0.77918 0.0
C226 C 0.19307 1.03297 0.74731 0.0
C227 C 0.24823 1.01915 0.75115 0.0
N228 N 0.37175 0.98787 0.75032 0.0
C229 C 0.35623 1.01672 0.7218 0.0
C230 C 0.40422 1.0356 0.69332 0.0
C231 C 0.45334 1.01725 0.70411 0.0
C232 C 0.43221 0.98719 0.73858 0.0
N233 N 0.24774 0.8751 0.76877 0.0
C234 C 0.14079 0.81142 0.71583 0.0
C235 C 0.21109 0.82843 0.70728 0.0
C236 C 0.26385 0.86102 0.73398 0.0
C237 C 0.12546 0.81332 0.75353 0.0
C238 C 0.17905 0.84334 0.77958 0.0
N239 N 0.37446 1.03229 0.82496 0.0
C240 C 0.42156 0.14669 0.83067 0.0
C241 C 0.41759 0.14244 0.86993 0.0
C242 C 0.40448 0.08381 0.88576 0.0
C243 C 0.38635 1.03028 0.86263 0.0
C244 C 0.39672 0.09104 0.80883 0.0
H245 H 0.37807 0.98686 0.87606 0.0
H246 H 0.39206 0.09584 0.77921 0.0
H247 H 0.31723 0.87799 0.72549 0.0
H248 H 0.16274 0.84408 0.80773 0.0
C249 C 0.31628 0.8632 0.86493 0.0
C250 C 0.47145 0.9588 0.75894 0.0
C251 C 0.15891 0.95048 0.83614 0.0
C252 C 0.29863 1.02891 0.72392 0.0
H253 H 0.50758 0.87726 0.80448 0.0
H254 H 0.42194 0.82262 0.86094 0.0
H255 H 0.23411 0.85937 0.92795 0.0
H256 H 0.14852 0.90854 0.91292 0.0
H257 H 0.10561 1.01147 0.78554 0.0
H258 H 0.18119 0.05495 0.7236 0.0
H259 H 0.40414 0.06069 0.66795 0.0
H260 H 0.49945 1.02493 0.6883 0.0
H261 H 0.22597 0.82081 0.67949 0.0
H262 H 0.07209 0.79434 0.76274 0.0
H263 H 0.43764 0.1921 0.81682 0.0
H264 H 0.40479 0.07843 0.91587 0.0
C265 C 0.37619 0.22805 0.8836 0.0
C266 C 0.33907 0.21894 0.85027 0.0
C267 C 0.31486 0.26338 0.84929 0.0
C268 C 0.33577 0.29571 0.88242 0.0
N269 N 0.37107 0.27386 0.90442 0.0
Co270 Co 0.39857 0.29931 0.95714 0.0
N271 N 0.33111 0.33432 0.96171 0.0
C272 C 0.30754 0.35613 0.93302 0.0
C273 C 0.27379 0.39054 0.9442 0.0
C274 C 0.27676 0.39082 0.98247 0.0
C275 C 0.3109 0.3551 0.99236 0.0
N276 N 0.42568 0.32625 0.00988 0.0
C277 C 0.39044 0.33977 0.03749 0.0
C278 C 0.42986 0.35589 0.07017 0.0
C279 C 0.49271 0.35633 0.06175 0.0
C280 C 0.48738 0.33723 0.02502 0.0
N281 N 0.4665 0.26512 0.95142 0.0
C282 C 0.52287 0.28071 0.97322 0.0
C283 C 0.56071 0.24946 0.96265 0.0
C284 C 0.52583 0.21248 0.93226 0.0
C285 C 0.46813 0.22279 0.92594 0.0
N286 N 0.47152 0.38528 0.94083 0.0
C287 C 0.58799 0.50581 0.92683 0.0
C288 C 0.57782 0.45125 0.90638 0.0
C289 C 0.51921 0.39184 0.91351 0.0
C290 C 0.53723 0.49894 0.9534 0.0
C291 C 0.48021 0.43891 0.96007 0.0
N292 N 0.32889 0.21274 0.97506 0.0
C293 C 0.30998 0.12099 0.01357 0.0
C294 C 0.24477 0.08327 0.99742 0.0
C295 C 0.22158 0.11267 0.97006 0.0
C296 C 0.26413 0.17745 0.95947 0.0
C297 C 0.35059 0.18432 0.00208 0.0
H298 H 0.2457 0.19821 0.93787 0.0
H299 H 0.40189 0.20922 0.01387 0.0
H300 H 0.51364 0.35079 0.89764 0.0
H301 H 0.44454 0.436 0.98198 0.0
C302 C 0.31114 0.33695 0.89653 0.0
C303 C 0.41925 0.19607 0.89387 0.0
C304 C 0.32271 0.34162 0.03121 0.0
C305 C 0.53108 0.31615 0.00639 0.0
H306 H 0.32809 0.18338 0.82886 0.0
H307 H 0.28179 0.26845 0.82807 0.0
H308 H 0.24878 0.41169 0.92674 0.0
H309 H 0.25528 0.41362 1.00108 0.0
H310 H 0.41497 0.36463 0.09758 0.0
H311 H 0.53435 0.36375 0.08119 0.0
H312 H 0.60678 0.25153 0.97611 0.0
H313 H 0.54137 0.18191 0.9164 0.0
H314 H 0.61522 0.45434 0.88516 0.0
H315 H 0.54241 0.53964 0.96969 0.0
H316 H 0.3313 0.10063 0.03402 0.0
H317 H 0.1722 0.08526 0.95599 0.0
C318 C 0.52773 0.92119 0.70976 0.0
C319 C 0.46532 0.88324 0.69153 0.0
C320 C 0.4807 0.85393 0.66263 0.0
C321 C 0.55128 0.87448 0.66485 0.0
N322 N 0.58211 0.91497 0.69349 0.0
Co323 Co 0.68442 0.95331 0.706 0.0
N324 N 0.70828 0.9203 0.65923 0.0
C325 C 0.66257 0.8849 0.63286 0.0
C326 C 0.69417 0.87926 0.60093 0.0
C327 C 0.76394 0.90713 0.60855 0.0
C328 C 0.77135 0.93085 0.64465 0.0
N329 N 0.78637 0.99034 0.71902 0.0
C330 C 0.83992 0.98387 0.70211 0.0
C331 C 0.90011 1.01039 0.7236 0.0
C332 C 0.88389 1.03301 0.75546 0.0
C333 C 0.81492 1.01918 0.75162 0.0
N334 N 0.66015 0.98791 0.75244 0.0
C335 C 0.7045 1.01677 0.78096 0.0
C336 C 0.67536 1.03564 0.80944 0.0
C337 C 0.6079 1.01728 0.79865 0.0
C338 C 0.599 0.98721 0.76418 0.0
N339 N 0.67148 0.87513 0.73399 0.0
C340 C 0.71478 0.81142 0.78692 0.0
C341 C 0.66149 0.82845 0.79547 0.0
C342 C 0.64131 0.86105 0.76878 0.0
C343 C 0.73201 0.81333 0.74922 0.0
C344 C 0.70842 0.84336 0.72318 0.0
N345 N 0.70185 1.03234 0.6778 0.0
C346 C 0.7692 0.14671 0.67207 0.0
C347 C 0.76893 0.14243 0.63281 0.0
C348 C 0.72337 0.08382 0.61699 0.0
C349 C 0.68794 1.03032 0.64013 0.0
C350 C 0.73836 0.09108 0.69392 0.0
H351 H 0.65279 0.98691 0.62671 0.0
H352 H 0.74782 0.09588 0.72354 0.0
H353 H 0.60488 0.87802 0.77726 0.0
H354 H 0.72548 0.8441 0.69503 0.0
C355 C 0.59109 0.86327 0.63781 0.0
C356 C 0.53139 0.95879 0.74382 0.0
C357 C 0.83562 0.95052 0.66664 0.0
C358 C 0.77427 1.02895 0.77884 0.0
H359 H 0.4138 0.87727 0.69827 0.0
H360 H 0.44488 0.82267 0.6418 0.0
H361 H 0.66945 0.85944 0.5748 0.0
H362 H 0.80416 0.90859 0.58985 0.0
H363 H 0.94988 1.01152 0.71724 0.0
H364 H 0.91773 0.05499 0.77918 0.0
H365 H 0.7005 0.06072 0.83481 0.0
H366 H 0.56945 1.02494 0.81446 0.0
H367 H 0.63899 0.82083 0.82326 0.0
H368 H 0.76643 0.79435 0.74001 0.0
H369 H 0.79858 0.19212 0.68591 0.0
H370 H 0.71768 0.07843 0.58688 0.0
C371 C 0.94554 0.79505 0.95513 0.0
C372 C 0.96142 0.83533 0.98606 0.0
C373 C 0.90966 0.85293 0.98945 0.0
C374 C 0.86694 0.82612 0.95935 0.0
N375 N 0.88828 0.79193 0.93715 0.0
Co376 Co 0.85427 0.7622 0.88531 0.0
N377 N 0.80436 0.81585 0.88193 0.0
C378 C 0.79736 0.85066 0.90995 0.0
C379 C 0.77225 0.89175 0.89867 0.0
C380 C 0.76064 0.88119 0.86123 0.0
C381 C 0.77642 0.83183 0.85196 0.0
N382 N 0.81701 0.7297 0.83416 0.0
C383 C 0.77522 0.74351 0.81095 0.0
C384 C 0.74636 0.69712 0.7833 0.0
C385 C 0.77205 0.65436 0.7886 0.0
C386 C 0.81353 0.67545 0.81969 0.0
N387 N 0.9067 0.71093 0.88852 0.0
C388 C 0.89185 0.65858 0.86794 0.0
C389 C 0.92533 0.6246 0.88008 0.0
C390 C 0.96445 0.65807 0.91008 0.0
C391 C 0.95554 0.71275 0.91368 0.0
N392 N 0.76839 0.68876 0.9057 0.0
C393 C 0.65024 0.56965 0.92043 0.0
C394 C 0.71556 0.58546 0.93672 0.0
C395 C 0.77333 0.64529 0.92954 0.0
C396 C 0.64447 0.61652 0.89875 0.0
C397 C 0.70351 0.67523 0.89184 0.0
N398 N 0.9409 0.83379 0.86433 0.0
C399 C 1.03588 0.86907 0.81956 0.0
C400 C 0.08064 0.9177 0.84329 0.0
C401 C 0.05059 0.92899 0.87547 0.0
C402 C 0.98014 0.8882 0.88459 0.0
C403 C 0.96796 0.82612 0.83106 0.0
H404 H 0.95933 0.89953 0.90922 0.0
H405 H 0.93903 0.78537 0.81349 0.0
H406 H 0.82265 0.6552 0.94229 0.0
H407 H 0.6964 0.70845 0.87396 0.0
C408 C 0.82429 0.85069 0.94513 0.0
C409 C 0.98537 0.75954 0.94481 0.0
C410 C 0.75561 0.79575 0.81642 0.0
C411 C 0.84751 0.64419 0.83706 0.0
H412 H 1.00659 0.85162 0.00409 0.0
H413 H 0.90813 0.88735 0.00903 0.0
H414 H 0.76604 0.9272 0.91533 0.0
H415 H 0.74273 0.90758 0.84327 0.0
H416 H 0.70748 0.69213 0.76263 0.0
H417 H 0.75933 0.61135 0.7727 0.0
H418 H 0.92063 0.58005 0.86905 0.0
H419 H 0.99371 0.64219 0.92816 0.0
H420 H 0.72219 0.55156 0.95465 0.0
H421 H 0.59478 0.60727 0.88635 0.0
H422 H 0.05452 0.86283 0.79288 0.0
H423 H 0.08176 0.968 0.89404 0.0
C424 C 0.19592 0.86748 0.11914 0.0
C425 C 0.16796 0.87668 0.15247 0.0
C426 C 0.09933 0.83229 0.15346 0.0
C427 C 0.08787 0.79992 0.12035 0.0
N428 N 0.14498 0.82169 0.09833 0.0
Co429 Co 0.14695 0.79616 0.04562 0.0
N430 N 1.04453 0.76123 0.04108 0.0
C431 C 0.99919 0.73949 0.06979 0.0
C432 C 0.93105 0.70509 0.05863 0.0
C433 C 0.93369 0.70473 0.02037 0.0
C434 C 1.00351 0.74042 0.01045 0.0
N435 N 0.14707 0.76916 0.99289 0.0
C436 C 0.0983 0.75563 0.9653 0.0
C437 C 0.12155 0.73944 0.93262 0.0
C438 C 0.18395 0.73896 0.94102 0.0
C439 C 0.19774 0.7581 0.97775 0.0
N440 N 0.24906 0.83027 0.05131 0.0
C441 C 0.28978 0.8146 0.02952 0.0
C442 C 0.35885 0.84578 0.04007 0.0
C443 C 0.361 0.8828 0.07045 0.0
C444 C 0.29303 0.87258 0.07678 0.0
N445 N 0.13393 0.71018 0.06196 0.0
C446 C 0.12988 0.58963 0.07597 0.0
C447 C 0.17429 0.64419 0.0964 0.0
C448 C 0.17507 0.70361 0.08927 0.0
C449 C 0.08597 0.59651 0.04941 0.0
C450 C 0.08898 0.65656 0.04273 0.0
N451 N 0.16385 0.88274 0.02767 0.0
C452 C 0.23669 0.97445 0.98917 0.0
C453 C 0.20924 1.01223 0.00532 0.0
C454 C 0.15665 0.98287 0.03267 0.0
C455 C 0.13441 0.91809 0.04326 0.0
C456 C 0.21394 0.91111 1.00066 0.0
H457 H 0.09523 0.89735 0.06486 0.0
H458 H 0.24032 0.88617 0.98887 0.0
H459 H 0.21058 0.74466 0.10512 0.0
H460 H 0.05622 0.65948 0.02084 0.0
C461 C 1.022 0.75871 0.10627 0.0
C462 C 0.27093 0.89937 0.10886 0.0
C463 C 1.02875 0.75383 0.97159 0.0
C464 C 0.26252 0.77914 0.99636 0.0
H465 H 0.19257 0.91226 0.17386 0.0
H466 H 0.06123 0.8273 0.17469 0.0
H467 H 0.88493 0.68397 0.07611 0.0
H468 H 0.88941 0.68192 0.00178 0.0
H469 H 0.0979 0.73069 0.90521 0.0
H470 H 0.21812 0.73148 0.92158 0.0
H471 H 0.40281 0.84364 0.0266 0.0
H472 H 0.4071 0.91333 0.0863 0.0
H473 H 0.20861 0.64108 0.1176 0.0
H474 H 0.05044 0.55581 0.03314 0.0
H475 H 0.27836 0.99478 0.96871 0.0
H476 H 0.13469 1.01032 0.04673 0.0
C477 C 0.56414 0.17416 0.20976 0.0
C478 C 0.62655 0.2121 0.19153 0.0
C479 C 0.61116 0.24142 0.16263 0.0
C480 C 0.54059 0.22087 0.16486 0.0
N481 N 0.50976 0.18038 0.19349 0.0
Co482 Co 0.40745 0.14204 0.206 0.0
N483 N 0.38359 0.17505 0.15924 0.0
C484 C 0.4293 0.21045 0.13286 0.0
C485 C 0.3977 0.21609 0.10093 0.0
C486 C 0.32793 0.18823 0.10856 0.0
C487 C 0.32052 0.1645 0.14465 0.0
N488 N 0.3055 0.10501 0.21902 0.0
C489 C 0.25195 0.11148 0.20212 0.0
C490 C 0.19176 0.08497 0.2236 0.0
C491 C 0.20798 0.06235 0.25547 0.0
C492 C 0.27695 0.07617 0.25162 0.0
N493 N 0.43172 0.10744 0.25244 0.0
C494 C 0.38737 0.07858 0.28096 0.0
C495 C 0.41651 0.05971 0.30944 0.0
C496 C 0.48397 0.07807 0.29865 0.0
C497 C 0.49287 0.10813 0.26418 0.0
N498 N 0.42039 0.22022 0.23399 0.0
C499 C 0.37709 0.28393 0.28692 0.0
C500 C 0.43038 0.2669 0.29548 0.0
C501 C 0.45056 0.23429 0.26878 0.0
C502 C 0.35986 0.28202 0.24922 0.0
C503 C 0.38345 0.25199 0.22318 0.0
N504 N 0.39002 0.06302 0.1778 0.0
C505 C 0.32265 0.94864 0.17206 0.0
C506 C 0.32292 0.95293 0.1328 0.0
C507 C 0.3685 1.01153 0.11699 0.0
C508 C 0.40393 0.06503 0.14013 0.0
C509 C 0.3535 1.00427 0.19392 0.0
H510 H 0.43909 0.10844 0.12672 0.0
H511 H 0.34404 0.99946 0.22354 0.0
H512 H 0.48699 0.21732 0.27727 0.0
H513 H 0.3664 0.25125 0.19503 0.0
C514 C 0.50078 0.23208 0.13781 0.0
C515 C 0.56048 0.13656 0.24382 0.0
C516 C 0.25625 0.14484 0.16664 0.0
C517 C 0.3176 0.0664 0.27884 0.0
H518 H 0.67807 0.21808 0.19827 0.0
H519 H 0.64699 0.27267 0.1418 0.0
H520 H 0.42242 0.23591 0.0748 0.0
H521 H 0.28771 0.18677 0.08985 0.0
H522 H 0.14199 0.08384 0.21724 0.0
H523 H 0.17414 1.04036 0.27918 0.0
H524 H 0.39137 1.03462 0.33481 0.0
H525 H 0.52241 0.07041 0.31446 0.0
H526 H 0.45288 0.27451 0.32326 0.0
H527 H 0.32545 0.301 0.24001 0.0
H528 H 0.29327 0.90323 0.18591 0.0
H529 H 0.37419 1.01693 0.08688 0.0
C530 C 0.14633 0.3003 0.45513 0.0
C531 C 0.13045 0.26002 0.48606 0.0
C532 C 0.18221 0.24242 0.48946 0.0
C533 C 0.22493 0.26923 0.45935 0.0
N534 N 0.20359 0.30342 0.43716 0.0
Co535 Co 0.2376 0.33315 0.38531 0.0
N536 N 0.28751 0.2795 0.38194 0.0
C537 C 0.29451 0.24469 0.40995 0.0
C538 C 0.31961 0.20359 0.39867 0.0
C539 C 0.33122 0.21416 0.36123 0.0
C540 C 0.31545 0.26352 0.35197 0.0
N541 N 0.27486 0.36565 0.33417 0.0
C542 C 0.31665 0.35184 0.31095 0.0
C543 C 0.34551 0.39823 0.28331 0.0
C544 C 0.31982 0.441 0.2886 0.0
C545 C 0.27834 0.4199 0.3197 0.0
N546 N 0.18518 0.38442 0.38852 0.0
C547 C 0.20003 0.43678 0.36795 0.0
C548 C 0.16655 0.47075 0.38008 0.0
C549 C 0.12742 0.43728 0.41009 0.0
C550 C 0.13634 0.3826 0.41369 0.0
N551 N 0.32349 0.40659 0.40571 0.0
C552 C 0.44163 0.5257 0.42044 0.0
C553 C 0.37632 0.50989 0.43672 0.0
C554 C 0.31854 0.45006 0.42954 0.0
C555 C 0.4474 0.47883 0.39875 0.0
C556 C 0.38837 0.42011 0.39184 0.0
N557 N 0.15097 0.26156 0.36433 0.0
C558 C 0.05599 0.22629 0.31956 0.0
C559 C 1.01123 0.17765 0.34329 0.0
C560 C 1.04128 0.16636 0.37547 0.0
C561 C 0.11173 0.20715 0.38459 0.0
C562 C 0.12391 0.26923 0.33106 0.0
H563 H 0.13253 0.19582 0.40922 0.0
H564 H 0.15284 0.30998 0.31349 0.0
H565 H 0.26923 0.44016 0.44229 0.0
H566 H 0.39547 0.3869 0.37396 0.0
C567 C 0.26757 0.24465 0.44513 0.0
C568 C 0.1065 0.33581 0.44482 0.0
C569 C 0.33626 0.2996 0.31643 0.0
C570 C 0.24437 0.45116 0.33706 0.0
H571 H 0.08528 0.24373 0.50409 0.0
H572 H 0.18374 0.208 0.50903 0.0
H573 H 0.32582 0.16814 0.41533 0.0
H574 H 0.34913 0.18776 0.34327 0.0
H575 H 0.3844 0.40322 0.26263 0.0
H576 H 0.33254 0.48401 0.2727 0.0
H577 H 0.17125 0.51531 0.36905 0.0
H578 H 0.09817 0.45317 0.42817 0.0
H579 H 0.36968 0.5438 0.45465 0.0
H580 H 0.49709 0.48807 0.38635 0.0
H581 H 1.03735 0.23252 0.29288 0.0
H582 H 1.0101 0.12735 0.39405 0.0
C583 C 0.89593 0.22787 0.61914 0.0
C584 C 0.92389 0.21866 0.65247 0.0
C585 C 0.99253 0.26305 0.65346 0.0
C586 C 1.00399 0.29542 0.62036 0.0
N587 N 0.94688 0.27366 0.59833 0.0
Co588 Co 0.94491 0.29919 0.54562 0.0
N589 N 0.04734 0.33412 0.54109 0.0
C590 C 0.09267 0.35586 0.56979 0.0
C591 C 0.16081 0.39026 0.55864 0.0
C592 C 0.15818 0.39061 0.52037 0.0
C593 C 0.08836 0.35493 0.51046 0.0
N594 N 0.94479 0.32619 0.49289 0.0
C595 C 0.99358 0.33972 0.4653 0.0
C596 C 0.97032 0.35591 0.43262 0.0
C597 C 0.90793 0.35639 0.44102 0.0
C598 C 0.89413 0.33725 0.47775 0.0
N599 N 0.84281 0.26508 0.55131 0.0
C600 C 0.80209 0.28075 0.52951 0.0
C601 C 0.73302 0.24957 0.54006 0.0
C602 C 0.73086 0.21255 0.57045 0.0
C603 C 0.79883 0.22278 0.57678 0.0
N604 N 0.95794 0.38517 0.56196 0.0
C605 C 0.96199 0.50572 0.57597 0.0
C606 C 0.91757 0.45116 0.5964 0.0
C607 C 0.91679 0.39174 0.58927 0.0
C608 C 1.0059 0.49884 0.54942 0.0
C609 C 1.00289 0.43879 0.54274 0.0
N610 N 0.92801 0.21261 0.52768 0.0
C611 C 0.85518 0.1209 0.48916 0.0
C612 C 0.88263 0.08312 0.50532 0.0
C613 C 0.93522 0.11248 0.53267 0.0
C614 C 0.95746 0.17726 0.54326 0.0
C615 C 0.87792 0.18424 0.50066 0.0
H616 H 0.99663 0.19799 0.56486 0.0
H617 H 0.85155 0.20918 0.48887 0.0
H618 H 0.88128 0.35069 0.60512 0.0
H619 H 1.03565 0.43587 0.52084 0.0
C620 C 0.06986 0.33664 0.60627 0.0
C621 C 0.82093 0.19599 0.60886 0.0
C622 C 0.06312 0.34152 0.47159 0.0
C623 C 0.82935 0.31621 0.49635 0.0
H624 H 0.89928 0.18309 0.67386 0.0
H625 H 1.03062 0.26804 0.67469 0.0
H626 H 0.20694 0.41137 0.57612 0.0
H627 H 0.20246 0.41343 0.50178 0.0
H628 H 0.99398 0.36466 0.40521 0.0
H629 H 0.87376 0.36387 0.42158 0.0
H630 H 0.68906 0.25171 0.5266 0.0
H631 H 0.68475 0.18203 0.5863 0.0
H632 H 0.88325 0.45427 0.6176 0.0
H633 H 1.04143 0.53954 0.53314 0.0
H634 H 0.81351 0.10057 0.46871 0.0
H635 H 0.95717 0.08503 0.54673 0.0
loop_
_geom_bond_atom_site_label_1
_geom_bond_atom_site_label_2
_geom_bond_distance
_geom_bond_site_symmetry_2
_ccdc_geom_bond_type
C0 C1 1.443 . S
C0 N4 1.376 . S
C0 C38 1.389 . S
C1 C0 1.443 . S
C1 C2 1.340 . S
C1 H41 0.951 1_554 S
C2 C1 1.340 . S
C2 C3 1.439 . S
C2 H42 0.950 1_554 S
C3 C2 1.439 . S
C3 N4 1.374 . S
C3 C37 1.395 . S
N4 C0 1.376 . S
N4 C3 1.374 . S
N4 Co5 2.008 . S
Co5 N4 2.008 . S
Co5 N6 1.995 . S
Co5 N11 2.008 . S
Co5 N16 1.995 . S
Co5 N21 2.282 . S
Co5 N27 2.282 . S
N6 Co5 1.995 . S
N6 C7 1.376 . S
N6 C10 1.383 . S
C7 N6 1.376 . S
C7 C8 1.446 1_455 S
C7 C37 1.391 . S
C8 C7 1.446 1_655 S
C8 C9 1.339 . S
C8 H43 0.949 . S
C9 C8 1.339 . S
C9 C10 1.439 1_655 S
C9 H44 0.950 . S
C10 N6 1.383 . S
C10 C9 1.439 1_455 S
C10 C39 1.392 . S
N11 Co5 2.008 . S
N11 C12 1.376 . S
N11 C15 1.374 . S
C12 N11 1.376 . S
C12 C13 1.443 . S
C12 C39 1.389 . S
C13 C12 1.443 . S
C13 C14 1.340 . S
C13 H45 0.951 . S
C14 C13 1.340 . S
C14 C15 1.439 . S
C14 H46 0.950 . S
C15 N11 1.374 . S
C15 C14 1.439 . S
C15 C40 1.395 . S
N16 Co5 1.995 . S
N16 C17 1.376 . S
N16 C20 1.383 . S
C17 N16 1.376 . S
C17 C18 1.446 . S
C17 C40 1.391 . S
C18 C17 1.446 . S
C18 C19 1.339 . S
C18 H47 0.949 . S
C19 C18 1.339 . S
C19 C20 1.439 . S
C19 H48 0.950 . S
C20 N16 1.383 . S
C20 C19 1.439 . S
C20 C38 1.392 . S
N21 Co5 2.282 . S
N21 C24 1.332 . S
N21 C26 1.332 . S
C22 C23 1.386 . S
C22 C25 1.388 . S
C23 C22 1.386 . S
C23 C24 1.382 . S
C23 H49 0.950 . S
C24 N21 1.332 . S
C24 C23 1.382 . S
C24 H35 0.952 . S
C25 C22 1.388 . S
C25 C26 1.382 . S
C25 H50 0.950 . S
C26 N21 1.332 . S
C26 C25 1.382 . S
C26 H36 0.948 . S
N27 Co5 2.282 . S
N27 C31 1.332 . S
N27 C32 1.332 . S
C28 C29 1.388 . S
C28 C32 1.382 . S
C28 H51 0.950 . S
C29 C28 1.388 . S
C29 C30 1.386 . S
C30 C29 1.386 . S
C30 C31 1.382 . S
C30 H52 0.950 . S
C31 N27 1.332 . S
C31 C30 1.382 . S
C31 H33 0.952 . S
C32 N27 1.332 . S
C32 C28 1.382 . S
C32 H34 0.948 . S
H33 C31 0.952 . S
H34 C32 0.948 . S
H35 C24 0.952 . S
H36 C26 0.948 . S
C37 C3 1.395 . S
C37 C7 1.391 . S
C38 C0 1.389 . S
C38 C20 1.392 . S
C39 C10 1.392 . S
C39 C12 1.389 . S
C40 C15 1.395 . S
C40 C17 1.391 . S
H41 C1 0.951 1_556 S
H42 C2 0.950 1_556 S
H43 C8 0.949 . S
H44 C9 0.950 . S
H45 C13 0.951 . S
H46 C14 0.950 . S
H47 C18 0.949 . S
H48 C19 0.950 . S
H49 C23 0.950 . S
H50 C25 0.950 . S
H51 C28 0.950 . S
H52 C30 0.950 . S
C53 C54 1.443 . S
C53 N57 1.376 . S
C53 C91 1.389 . S
C54 C53 1.443 . S
C54 C55 1.340 . S
C54 H94 0.951 . S
C55 C54 1.340 . S
C55 C56 1.439 . S
C55 H95 0.950 . S
C56 C55 1.439 . S
C56 N57 1.374 . S
C56 C90 1.395 . S
N57 C53 1.376 . S
N57 C56 1.374 . S
N57 Co58 2.008 . S
Co58 N57 2.008 . S
Co58 N59 1.995 . S
Co58 N64 2.008 . S
Co58 N69 1.995 . S
Co58 N74 2.282 . S
Co58 N80 2.282 . S
N59 Co58 1.995 . S
N59 C60 1.376 . S
N59 C63 1.383 . S
C60 N59 1.376 . S
C60 C61 1.446 . S
C60 C90 1.391 . S
C61 C60 1.446 . S
C61 C62 1.339 . S
C61 H96 0.949 . S
C62 C61 1.339 . S
C62 C63 1.439 . S
C62 H97 0.950 . S
C63 N59 1.383 . S
C63 C62 1.439 . S
C63 C92 1.392 . S
N64 Co58 2.008 . S
N64 C65 1.376 . S
N64 C68 1.374 . S
C65 N64 1.376 . S
C65 C66 1.443 . S
C65 C92 1.389 . S
C66 C65 1.443 . S
C66 C67 1.340 . S
C66 H98 0.951 . S
C67 C66 1.340 . S
C67 C68 1.439 . S
C67 H99 0.950 . S
C68 N64 1.374 . S
C68 C67 1.439 . S
C68 C93 1.395 . S
N69 Co58 1.995 . S
N69 C70 1.376 . S
N69 C73 1.383 . S
C70 N69 1.376 . S
C70 C71 1.446 . S
C70 C93 1.391 . S
C71 C70 1.446 . S
C71 C72 1.339 . S
C71 H100 0.949 1_545 S
C72 C71 1.339 . S
C72 C73 1.439 . S
C72 H101 0.950 1_545 S
C73 N69 1.383 . S
C73 C72 1.439 . S
C73 C91 1.392 . S
N74 Co58 2.282 . S
N74 C77 1.332 . S
N74 C79 1.332 . S
C75 C76 1.386 . S
C75 C78 1.388 . S
C76 C75 1.386 . S
C76 C77 1.382 . S
C76 H102 0.950 . S
C77 N74 1.332 . S
C77 C76 1.382 . S
C77 H88 0.952 . S
C78 C75 1.388 . S
C78 C79 1.382 . S
C78 H103 0.950 . S
C79 N74 1.332 . S
C79 C78 1.382 . S
C79 H89 0.948 . S
N80 Co58 2.282 . S
N80 C84 1.332 . S
N80 C85 1.332 . S
C81 C82 1.388 . S
C81 C85 1.382 1_565 S
C81 H104 0.950 . S
C82 C81 1.388 . S
C82 C83 1.386 1_565 S
C83 C82 1.386 1_545 S
C83 C84 1.382 . S
C83 H105 0.950 . S
C84 N80 1.332 . S
C84 C83 1.382 . S
C84 H86 0.952 . S
C85 N80 1.332 . S
C85 C81 1.382 1_545 S
C85 H87 0.948 1_545 S
H86 C84 0.952 . S
H87 C85 0.948 1_565 S
H88 C77 0.952 . S
H89 C79 0.948 . S
C90 C56 1.395 . S
C90 C60 1.391 . S
C91 C53 1.389 . S
C91 C73 1.392 . S
C92 C63 1.392 . S
C92 C65 1.389 . S
C93 C68 1.395 . S
C93 C70 1.391 . S
H94 C54 0.951 . S
H95 C55 0.950 . S
H96 C61 0.949 . S
H97 C62 0.950 . S
H98 C66 0.951 . S
H99 C67 0.950 . S
H100 C71 0.949 1_565 S
H101 C72 0.950 1_565 S
H102 C76 0.950 . S
H103 C78 0.950 . S
H104 C81 0.950 . S
H105 C83 0.950 . S
C106 C107 1.443 . S
C106 N110 1.376 . S
C106 C144 1.389 . S
C107 C106 1.443 . S
C107 C108 1.340 . S
C107 H147 0.951 . S
C108 C107 1.340 . S
C108 C109 1.439 . S
C108 H148 0.950 . S
C109 C108 1.439 . S
C109 N110 1.374 . S
C109 C143 1.395 . S
N110 C106 1.376 . S
N110 C109 1.374 . S
N110 Co111 2.008 . S
Co111 N110 2.008 . S
Co111 N112 1.995 . S
Co111 N117 2.008 . S
Co111 N122 1.995 . S
Co111 N127 2.282 . S
Co111 N133 2.282 . S
N112 Co111 1.995 . S
N112 C113 1.376 . S
N112 C116 1.383 . S
C113 N112 1.376 . S
C113 C114 1.446 . S
C113 C143 1.391 . S
C114 C113 1.446 . S
C114 C115 1.339 . S
C114 H149 0.949 . S
C115 C114 1.339 . S
C115 C116 1.439 . S
C115 H150 0.950 . S
C116 N112 1.383 . S
C116 C115 1.439 . S
C116 C145 1.392 . S
N117 Co111 2.008 . S
N117 C118 1.376 . S
N117 C121 1.374 . S
C118 N117 1.376 . S
C118 C119 1.443 . S
C118 C145 1.389 . S
C119 C118 1.443 . S
C119 C120 1.340 . S
C119 H151 0.951 . S
C120 C119 1.340 . S
C120 C121 1.439 . S
C120 H152 0.950 . S
C121 N117 1.374 . S
C121 C120 1.439 . S
C121 C146 1.395 . S
N122 Co111 1.995 . S
N122 C123 1.376 . S
N122 C126 1.383 . S
C123 N122 1.376 . S
C123 C124 1.446 . S
C123 C146 1.391 . S
C124 C123 1.446 . S
C124 C125 1.339 . S
C124 H153 0.949 . S
C125 C124 1.339 . S
C125 C126 1.439 . S
C125 H154 0.950 . S
C126 N122 1.383 . S
C126 C125 1.439 . S
C126 C144 1.392 . S
N127 Co111 2.282 . S
N127 C130 1.332 . S
N127 C132 1.332 . S
C128 C129 1.386 . S
C128 C131 1.388 . S
C129 C128 1.386 . S
C129 C130 1.382 . S
C129 H155 0.950 . S
C130 N127 1.332 . S
C130 C129 1.382 . S
C130 H141 0.952 . S
C131 C128 1.388 . S
C131 C132 1.382 . S
C131 H156 0.950 . S
C132 N127 1.332 . S
C132 C131 1.382 . S
C132 H142 0.948 . S
N133 Co111 2.282 . S
N133 C137 1.332 . S
N133 C138 1.332 . S
C134 C135 1.388 . S
C134 C138 1.382 . S
C134 H157 0.950 . S
C135 C134 1.388 . S
C135 C136 1.386 . S
C136 C135 1.386 . S
C136 C137 1.382 . S
C136 H158 0.950 . S
C137 N133 1.332 . S
C137 C136 1.382 . S
C137 H139 0.952 . S
C138 N133 1.332 . S
C138 C134 1.382 . S
C138 H140 0.948 . S
H139 C137 0.952 . S
H140 C138 0.948 . S
H141 C130 0.952 . S
H142 C132 0.948 . S
C143 C109 1.395 . S
C143 C113 1.391 . S
C144 C106 1.389 . S
C144 C126 1.392 . S
C145 C116 1.392 . S
C145 C118 1.389 . S
C146 C121 1.395 . S
C146 C123 1.391 . S
H147 C107 0.951 . S
H148 C108 0.950 . S
H149 C114 0.949 . S
H150 C115 0.950 . S
H151 C119 0.951 . S
H152 C120 0.950 . S
H153 C124 0.949 . S
H154 C125 0.950 . S
H155 C129 0.950 . S
H156 C131 0.950 . S
H157 C134 0.950 . S
H158 C136 0.950 . S
C159 C160 1.443 . S
C159 N163 1.376 . S
C159 C197 1.389 . S
C160 C159 1.443 . S
C160 C161 1.340 . S
C160 H200 0.951 . S
C161 C160 1.340 . S
C161 C162 1.439 . S
C161 H201 0.950 . S
C162 C161 1.439 . S
C162 N163 1.374 . S
C162 C196 1.395 . S
N163 C159 1.376 . S
N163 C162 1.374 . S
N163 Co164 2.008 . S
Co164 N163 2.008 . S
Co164 N165 1.995 . S
Co164 N170 2.008 . S
Co164 N175 1.995 . S
Co164 N180 2.282 . S
Co164 N186 2.282 . S
N165 Co164 1.995 . S
N165 C166 1.376 . S
N165 C169 1.383 . S
C166 N165 1.376 . S
C166 C167 1.446 1_655 S
C166 C196 1.391 . S
C167 C166 1.446 1_455 S
C167 C168 1.339 . S
C167 H202 0.949 . S
C168 C167 1.339 . S
C168 C169 1.439 1_455 S
C168 H203 0.950 . S
C169 N165 1.383 . S
C169 C168 1.439 1_655 S
C169 C198 1.392 . S
N170 Co164 2.008 . S
N170 C171 1.376 . S
N170 C174 1.374 . S
C171 N170 1.376 . S
C171 C172 1.443 . S
C171 C198 1.389 . S
C172 C171 1.443 . S
C172 C173 1.340 . S
C172 H204 0.951 . S
C173 C172 1.340 . S
C173 C174 1.439 . S
C173 H205 0.950 . S
C174 N170 1.374 . S
C174 C173 1.439 . S
C174 C199 1.395 . S
N175 Co164 1.995 . S
N175 C176 1.376 . S
N175 C179 1.383 . S
C176 N175 1.376 . S
C176 C177 1.446 . S
C176 C199 1.391 . S
C177 C176 1.446 . S
C177 C178 1.339 . S
C177 H206 0.949 . S
C178 C177 1.339 . S
C178 C179 1.439 . S
C178 H207 0.950 . S
C179 N175 1.383 . S
C179 C178 1.439 . S
C179 C197 1.392 . S
N180 Co164 2.282 . S
N180 C183 1.332 . S
N180 C185 1.332 . S
C181 C182 1.386 . S
C181 C184 1.388 . S
C182 C181 1.386 . S
C182 C183 1.382 . S
C182 H208 0.950 . S
C183 N180 1.332 . S
C183 C182 1.382 . S
C183 H194 0.952 . S
C184 C181 1.388 . S
C184 C185 1.382 . S
C184 H209 0.950 . S
C185 N180 1.332 . S
C185 C184 1.382 . S
C185 H195 0.948 . S
N186 Co164 2.282 . S
N186 C190 1.332 . S
N186 C191 1.332 . S
C187 C188 1.388 . S
C187 C191 1.382 . S
C187 H210 0.950 . S
C188 C187 1.388 . S
C188 C189 1.386 . S
C189 C188 1.386 . S
C189 C190 1.382 . S
C189 H211 0.950 . S
C190 N186 1.332 . S
C190 C189 1.382 . S
C190 H192 0.952 . S
C191 N186 1.332 . S
C191 C187 1.382 . S
C191 H193 0.948 . S
H192 C190 0.952 . S
H193 C191 0.948 . S
H194 C183 0.952 . S
H195 C185 0.948 . S
C196 C162 1.395 . S
C196 C166 1.391 . S
C197 C159 1.389 . S
C197 C179 1.392 . S
C198 C169 1.392 . S
C198 C171 1.389 . S
C199 C174 1.395 . S
C199 C176 1.391 . S
H200 C160 0.951 . S
H201 C161 0.950 . S
H202 C167 0.949 . S
H203 C168 0.950 . S
H204 C172 0.951 . S
H205 C173 0.950 . S
H206 C177 0.949 . S
H207 C178 0.950 . S
H208 C182 0.950 . S
H209 C184 0.950 . S
H210 C187 0.950 . S
H211 C189 0.950 . S
C212 C213 1.443 . S
C212 N216 1.376 . S
C212 C250 1.389 . S
C213 C212 1.443 . S
C213 C214 1.340 . S
C213 H253 0.951 . S
C214 C213 1.340 . S
C214 C215 1.439 . S
C214 H254 0.950 . S
C215 C214 1.439 . S
C215 N216 1.374 . S
C215 C249 1.395 . S
N216 C212 1.376 . S
N216 C215 1.374 . S
N216 Co217 2.008 . S
Co217 N216 2.008 . S
Co217 N218 1.995 . S
Co217 N223 2.008 . S
Co217 N228 1.995 . S
Co217 N233 2.282 . S
Co217 N239 2.282 . S
N218 Co217 1.995 . S
N218 C219 1.376 . S
N218 C222 1.383 . S
C219 N218 1.376 . S
C219 C220 1.446 . S
C219 C249 1.391 . S
C220 C219 1.446 . S
C220 C221 1.339 . S
C220 H255 0.949 . S
C221 C220 1.339 . S
C221 C222 1.439 . S
C221 H256 0.950 . S
C222 N218 1.383 . S
C222 C221 1.439 . S
C222 C251 1.392 . S
N223 Co217 2.008 . S
N223 C224 1.376 . S
N223 C227 1.374 . S
C224 N223 1.376 . S
C224 C225 1.443 . S
C224 C251 1.389 . S
C225 C224 1.443 . S
C225 C226 1.340 . S
C225 H257 0.951 . S
C226 C225 1.340 . S
C226 C227 1.439 . S
C226 H258 0.950 . S
C227 N223 1.374 . S
C227 C226 1.439 . S
C227 C252 1.395 . S
N228 Co217 1.995 . S
N228 C229 1.376 . S
N228 C232 1.383 . S
C229 N228 1.376 . S
C229 C230 1.446 . S
C229 C252 1.391 . S
C230 C229 1.446 . S
C230 C231 1.339 . S
C230 H259 0.949 1_565 S
C231 C230 1.339 . S
C231 C232 1.439 . S
C231 H260 0.950 1_565 S
C232 N228 1.383 . S
C232 C231 1.439 . S
C232 C250 1.392 . S
N233 Co217 2.282 . S
N233 C236 1.332 . S
N233 C238 1.332 . S
C234 C235 1.386 . S
C234 C237 1.388 . S
C235 C234 1.386 . S
C235 C236 1.382 . S
C235 H261 0.950 . S
C236 N233 1.332 . S
C236 C235 1.382 . S
C236 H247 0.952 . S
C237 C234 1.388 . S
C237 C238 1.382 . S
C237 H262 0.950 . S
C238 N233 1.332 . S
C238 C237 1.382 . S
C238 H248 0.948 . S
N239 Co217 2.282 . S
N239 C243 1.332 . S
N239 C244 1.332 . S
C240 C241 1.388 . S
C240 C244 1.382 1_545 S
C240 H263 0.950 . S
C241 C240 1.388 . S
C241 C242 1.386 1_545 S
C242 C241 1.386 1_565 S
C242 C243 1.382 . S
C242 H264 0.950 . S
C243 N239 1.332 . S
C243 C242 1.382 . S
C243 H245 0.952 . S
C244 N239 1.332 . S
C244 C240 1.382 1_565 S
C244 H246 0.948 1_565 S
H245 C243 0.952 . S
H246 C244 0.948 1_545 S
H247 C236 0.952 . S
H248 C238 0.948 . S
C249 C215 1.395 . S
C249 C219 1.391 . S
C250 C212 1.389 . S
C250 C232 1.392 . S
C251 C222 1.392 . S
C251 C224 1.389 . S
C252 C227 1.395 . S
C252 C229 1.391 . S
H253 C213 0.951 . S
H254 C214 0.950 . S
H255 C220 0.949 . S
H256 C221 0.950 . S
H257 C225 0.951 . S
H258 C226 0.950 . S
H259 C230 0.949 1_545 S
H260 C231 0.950 1_545 S
H261 C235 0.950 . S
H262 C237 0.950 . S
H263 C240 0.950 . S
H264 C242 0.950 . S
C265 C266 1.443 . S
C265 N269 1.376 . S
C265 C303 1.389 . S
C266 C265 1.443 . S
C266 C267 1.340 . S
C266 H306 0.951 . S
C267 C266 1.340 . S
C267 C268 1.439 . S
C267 H307 0.950 . S
C268 C267 1.439 . S
C268 N269 1.374 . S
C268 C302 1.395 . S
N269 C265 1.376 . S
N269 C268 1.374 . S
N269 Co270 2.008 . S
Co270 N269 2.008 . S
Co270 N271 1.995 . S
Co270 N276 2.008 . S
Co270 N281 1.995 . S
Co270 N286 2.282 . S
Co270 N292 2.282 . S
N271 Co270 1.995 . S
N271 C272 1.376 . S
N271 C275 1.383 . S
C272 N271 1.376 . S
C272 C273 1.446 . S
C272 C302 1.391 . S
C273 C272 1.446 . S
C273 C274 1.339 . S
C273 H308 0.949 . S
C274 C273 1.339 . S
C274 C275 1.439 . S
C274 H309 0.950 . S
C275 N271 1.383 . S
C275 C274 1.439 . S
C275 C304 1.392 1_556 S
N276 Co270 2.008 . S
N276 C277 1.376 1_556 S
N276 C280 1.374 . S
C277 N276 1.376 1_554 S
C277 C278 1.443 . S
C277 C304 1.389 . S
C278 C277 1.443 . S
C278 C279 1.340 . S
C278 H310 0.951 . S
C279 C278 1.340 . S
C279 C280 1.439 1_554 S
C279 H311 0.950 . S
C280 N276 1.374 . S
C280 C279 1.439 1_556 S
C280 C305 1.395 . S
N281 Co270 1.995 . S
N281 C282 1.376 . S
N281 C285 1.383 . S
C282 N281 1.376 . S
C282 C283 1.446 . S
C282 C305 1.391 . S
C283 C282 1.446 . S
C283 C284 1.339 . S
C283 H312 0.949 . S
C284 C283 1.339 . S
C284 C285 1.439 . S
C284 H313 0.950 . S
C285 N281 1.383 . S
C285 C284 1.439 . S
C285 C303 1.392 . S
N286 Co270 2.282 . S
N286 C289 1.332 . S
N286 C291 1.332 . S
C287 C288 1.386 . S
C287 C290 1.388 . S
C288 C287 1.386 . S
C288 C289 1.382 . S
C288 H314 0.950 . S
C289 N286 1.332 . S
C289 C288 1.382 . S
C289 H300 0.952 . S
C290 C287 1.388 . S
C290 C291 1.382 . S
C290 H315 0.950 . S
C291 N286 1.332 . S
C291 C290 1.382 . S
C291 H301 0.948 . S
N292 Co270 2.282 . S
N292 C296 1.332 . S
N292 C297 1.332 . S
C293 C294 1.388 . S
C293 C297 1.382 . S
C293 H316 0.950 . S
C294 C293 1.388 . S
C294 C295 1.386 . S
C295 C294 1.386 . S
C295 C296 1.382 . S
C295 H317 0.950 . S
C296 N292 1.332 . S
C296 C295 1.382 . S
C296 H298 0.952 . S
C297 N292 1.332 . S
C297 C293 1.382 . S
C297 H299 0.948 . S
H298 C296 0.952 . S
H299 C297 0.948 . S
H300 C289 0.952 . S
H301 C291 0.948 . S
C302 C268 1.395 . S
C302 C272 1.391 . S
C303 C265 1.389 . S
C303 C285 1.392 . S
C304 C275 1.392 1_554 S
C304 C277 1.389 . S
C305 C280 1.395 . S
C305 C282 1.391 . S
H306 C266 0.951 . S
H307 C267 0.950 . S
H308 C273 0.949 . S
H309 C274 0.950 . S
H310 C278 0.951 . S
H311 C279 0.950 . S
H312 C283 0.949 . S
H313 C284 0.950 . S
H314 C288 0.950 . S
H315 C290 0.950 . S
H316 C293 0.950 . S
H317 C295 0.950 . S
C318 C319 1.443 . S
C318 N322 1.376 . S
C318 C356 1.389 . S
C319 C318 1.443 . S
C319 C320 1.340 . S
C319 H359 0.951 . S
C320 C319 1.340 . S
C320 C321 1.439 . S
C320 H360 0.950 . S
C321 C320 1.439 . S
C321 N322 1.374 . S
C321 C355 1.395 . S
N322 C318 1.376 . S
N322 C321 1.374 . S
N322 Co323 2.008 . S
Co323 N322 2.008 . S
Co323 N324 1.995 . S
Co323 N329 2.008 . S
Co323 N334 1.995 . S
Co323 N339 2.282 . S
Co323 N345 2.282 . S
N324 Co323 1.995 . S
N324 C325 1.376 . S
N324 C328 1.383 . S
C325 N324 1.376 . S
C325 C326 1.446 . S
C325 C355 1.391 . S
C326 C325 1.446 . S
C326 C327 1.339 . S
C326 H361 0.949 . S
C327 C326 1.339 . S
C327 C328 1.439 . S
C327 H362 0.950 . S
C328 N324 1.383 . S
C328 C327 1.439 . S
C328 C357 1.392 . S
N329 Co323 2.008 . S
N329 C330 1.376 . S
N329 C333 1.374 . S
C330 N329 1.376 . S
C330 C331 1.443 . S
C330 C357 1.389 . S
C331 C330 1.443 . S
C331 C332 1.340 . S
C331 H363 0.951 . S
C332 C331 1.340 . S
C332 C333 1.439 . S
C332 H364 0.950 . S
C333 N329 1.374 . S
C333 C332 1.439 . S
C333 C358 1.395 . S
N334 Co323 1.995 . S
N334 C335 1.376 . S
N334 C338 1.383 . S
C335 N334 1.376 . S
C335 C336 1.446 . S
C335 C358 1.391 . S
C336 C335 1.446 . S
C336 C337 1.339 . S
C336 H365 0.949 1_565 S
C337 C336 1.339 . S
C337 C338 1.439 . S
C337 H366 0.950 1_565 S
C338 N334 1.383 . S
C338 C337 1.439 . S
C338 C356 1.392 . S
N339 Co323 2.282 . S
N339 C342 1.332 . S
N339 C344 1.332 . S
C340 C341 1.386 . S
C340 C343 1.388 . S
C341 C340 1.386 . S
C341 C342 1.382 . S
C341 H367 0.950 . S
C342 N339 1.332 . S
C342 C341 1.382 . S
C342 H353 0.952 . S
C343 C340 1.388 . S
C343 C344 1.382 . S
C343 H368 0.950 . S
C344 N339 1.332 . S
C344 C343 1.382 . S
C344 H354 0.948 . S
N345 Co323 2.282 . S
N345 C349 1.332 . S
N345 C350 1.332 . S
C346 C347 1.388 . S
C346 C350 1.382 1_545 S
C346 H369 0.950 . S
C347 C346 1.388 . S
C347 C348 1.386 1_545 S
C348 C347 1.386 1_565 S
C348 C349 1.382 . S
C348 H370 0.950 . S
C349 N345 1.332 . S
C349 C348 1.382 . S
C349 H351 0.952 . S
C350 N345 1.332 . S
C350 C346 1.382 1_565 S
C350 H352 0.948 1_565 S
H351 C349 0.952 . S
H352 C350 0.948 1_545 S
H353 C342 0.952 . S
H354 C344 0.948 . S
C355 C321 1.395 . S
C355 C325 1.391 . S
C356 C318 1.389 . S
C356 C338 1.392 . S
C357 C328 1.392 . S
C357 C330 1.389 . S
C358 C333 1.395 . S
C358 C335 1.391 . S
H359 C319 0.951 . S
H360 C320 0.950 . S
H361 C326 0.949 . S
H362 C327 0.950 . S
H363 C331 0.951 . S
H364 C332 0.950 . S
H365 C336 0.949 1_545 S
H366 C337 0.950 1_545 S
H367 C341 0.950 . S
H368 C343 0.950 . S
H369 C346 0.950 . S
H370 C348 0.950 . S
C371 C372 1.443 . S
C371 N375 1.376 . S
C371 C409 1.389 . S
C372 C371 1.443 . S
C372 C373 1.340 . S
C372 H412 0.951 1_556 S
C373 C372 1.340 . S
C373 C374 1.439 . S
C373 H413 0.950 1_556 S
C374 C373 1.439 . S
C374 N375 1.374 . S
C374 C408 1.395 . S
N375 C371 1.376 . S
N375 C374 1.374 . S
N375 Co376 2.008 . S
Co376 N375 2.008 . S
Co376 N377 1.995 . S
Co376 N382 2.008 . S
Co376 N387 1.995 . S
Co376 N392 2.282 . S
Co376 N398 2.282 . S
N377 Co376 1.995 . S
N377 C378 1.376 . S
N377 C381 1.383 . S
C378 N377 1.376 . S
C378 C379 1.446 . S
C378 C408 1.391 . S
C379 C378 1.446 . S
C379 C380 1.339 . S
C379 H414 0.949 . S
C380 C379 1.339 . S
C380 C381 1.439 . S
C380 H415 0.950 . S
C381 N377 1.383 . S
C381 C380 1.439 . S
C381 C410 1.392 . S
N382 Co376 2.008 . S
N382 C383 1.376 . S
N382 C386 1.374 . S
C383 N382 1.376 . S
C383 C384 1.443 . S
C383 C410 1.389 . S
C384 C383 1.443 . S
C384 C385 1.340 . S
C384 H416 0.951 . S
C385 C384 1.340 . S
C385 C386 1.439 . S
C385 H417 0.950 . S
C386 N382 1.374 . S
C386 C385 1.439 . S
C386 C411 1.395 . S
N387 Co376 1.995 . S
N387 C388 1.376 . S
N387 C391 1.383 . S
C388 N387 1.376 . S
C388 C389 1.446 . S
C388 C411 1.391 . S
C389 C388 1.446 . S
C389 C390 1.339 . S
C389 H418 0.949 . S
C390 C389 1.339 . S
C390 C391 1.439 . S
C390 H419 0.950 . S
C391 N387 1.383 . S
C391 C390 1.439 . S
C391 C409 1.392 . S
N392 Co376 2.282 . S
N392 C395 1.332 . S
N392 C397 1.332 . S
C393 C394 1.386 . S
C393 C396 1.388 . S
C394 C393 1.386 . S
C394 C395 1.382 . S
C394 H420 0.950 . S
C395 N392 1.332 . S
C395 C394 1.382 . S
C395 H406 0.952 . S
C396 C393 1.388 . S
C396 C397 1.382 . S
C396 H421 0.950 . S
C397 N392 1.332 . S
C397 C396 1.382 . S
C397 H407 0.948 . S
N398 Co376 2.282 . S
N398 C402 1.332 . S
N398 C403 1.332 . S
C399 C400 1.388 . S
C399 C403 1.382 1_455 S
C399 H422 0.950 . S
C400 C399 1.388 . S
C400 C401 1.386 . S
C401 C400 1.386 . S
C401 C402 1.382 1_455 S
C401 H423 0.950 . S
C402 N398 1.332 . S
C402 C401 1.382 1_655 S
C402 H404 0.952 . S
C403 N398 1.332 . S
C403 C399 1.382 1_655 S
C403 H405 0.948 . S
H404 C402 0.952 . S
H405 C403 0.948 . S
H406 C395 0.952 . S
H407 C397 0.948 . S
C408 C374 1.395 . S
C408 C378 1.391 . S
C409 C371 1.389 . S
C409 C391 1.392 . S
C410 C381 1.392 . S
C410 C383 1.389 . S
C411 C386 1.395 . S
C411 C388 1.391 . S
H412 C372 0.951 1_554 S
H413 C373 0.950 1_554 S
H414 C379 0.949 . S
H415 C380 0.950 . S
H416 C384 0.951 . S
H417 C385 0.950 . S
H418 C389 0.949 . S
H419 C390 0.950 . S
H420 C394 0.950 . S
H421 C396 0.950 . S
H422 C399 0.950 . S
H423 C401 0.950 . S
C424 C425 1.443 . S
C424 N428 1.376 . S
C424 C462 1.389 . S
C425 C424 1.443 . S
C425 C426 1.340 . S
C425 H465 0.951 . S
C426 C425 1.340 . S
C426 C427 1.439 . S
C426 H466 0.950 . S
C427 C426 1.439 . S
C427 N428 1.374 . S
C427 C461 1.395 . S
N428 C424 1.376 . S
N428 C427 1.374 . S
N428 Co429 2.008 . S
Co429 N428 2.008 . S
Co429 N430 1.995 . S
Co429 N435 2.008 . S
Co429 N440 1.995 . S
Co429 N445 2.282 . S
Co429 N451 2.282 . S
N430 Co429 1.995 . S
N430 C431 1.385 . S
N430 C434 1.383 . S
C431 N430 1.385 . S
C431 C432 1.439 1_455 S
C431 C461 1.390 . S
C432 C431 1.439 1_655 S
C432 C433 1.339 . S
C432 H467 0.949 . S
C433 C432 1.339 . S
C433 C434 1.439 1_655 S
C433 H468 0.950 . S
C434 N430 1.383 . S
C434 C433 1.439 1_455 S
C434 C463 1.392 1_554 S
N435 Co429 2.008 . S
N435 C436 1.376 1_554 S
N435 C439 1.374 . S
C436 N435 1.376 1_556 S
C436 C437 1.443 . S
C436 C463 1.389 . S
C437 C436 1.443 . S
C437 C438 1.340 . S
C437 H469 0.951 . S
C438 C437 1.340 . S
C438 C439 1.439 1_556 S
C438 H470 0.950 . S
C439 N435 1.374 . S
C439 C438 1.439 1_554 S
C439 C464 1.395 . S
N440 Co429 1.995 . S
N440 C441 1.376 . S
N440 C444 1.383 . S
C441 N440 1.376 . S
C441 C442 1.446 . S
C441 C464 1.391 . S
C442 C441 1.446 . S
C442 C443 1.339 . S
C442 H471 0.949 . S
C443 C442 1.339 . S
C443 C444 1.439 . S
C443 H472 0.950 . S
C444 N440 1.383 . S
C444 C443 1.439 . S
C444 C462 1.392 . S
N445 Co429 2.282 . S
N445 C448 1.332 . S
N445 C450 1.332 . S
C446 C447 1.386 . S
C446 C449 1.388 . S
C447 C446 1.386 . S
C447 C448 1.382 . S
C447 H473 0.950 . S
C448 N445 1.332 . S
C448 C447 1.382 . S
C448 H459 0.952 . S
C449 C446 1.388 . S
C449 C450 1.382 . S
C449 H474 0.950 . S
C450 N445 1.332 . S
C450 C449 1.382 . S
C450 H460 0.948 . S
N451 Co429 2.282 . S
N451 C455 1.332 . S
N451 C456 1.332 . S
C452 C453 1.388 . S
C452 C456 1.382 . S
C452 H475 0.950 . S
C453 C452 1.388 . S
C453 C454 1.386 . S
C454 C453 1.386 . S
C454 C455 1.382 . S
C454 H476 0.950 . S
C455 N451 1.332 . S
C455 C454 1.382 . S
C455 H457 0.952 . S
C456 N451 1.332 . S
C456 C452 1.382 . S
C456 H458 0.948 . S
H457 C455 0.952 . S
H458 C456 0.948 . S
H459 C448 0.952 . S
H460 C450 0.948 . S
C461 C427 1.395 . S
C461 C431 1.390 . S
C462 C424 1.389 . S
C462 C444 1.392 . S
C463 C434 1.392 1_556 S
C463 C436 1.389 . S
C464 C439 1.395 . S
C464 C441 1.391 . S
H465 C425 0.951 . S
H466 C426 0.950 . S
H467 C432 0.949 . S
H468 C433 0.950 . S
H469 C437 0.951 . S
H470 C438 0.950 . S
H471 C442 0.949 . S
H472 C443 0.950 . S
H473 C447 0.950 . S
H474 C449 0.950 . S
H475 C452 0.950 . S
H476 C454 0.950 . S
C477 C478 1.443 . S
C477 N481 1.376 . S
C477 C515 1.389 . S
C478 C477 1.443 . S
C478 C479 1.340 . S
C478 H518 0.951 . S
C479 C478 1.340 . S
C479 C480 1.439 . S
C479 H519 0.950 . S
C480 C479 1.439 . S
C480 N481 1.374 . S
C480 C514 1.395 . S
N481 C477 1.376 . S
N481 C480 1.374 . S
N481 Co482 2.008 . S
Co482 N481 2.008 . S
Co482 N483 1.995 . S
Co482 N488 2.008 . S
Co482 N493 1.995 . S
Co482 N498 2.282 . S
Co482 N504 2.282 . S
N483 Co482 1.995 . S
N483 C484 1.376 . S
N483 C487 1.383 . S
C484 N483 1.376 . S
C484 C485 1.446 . S
C484 C514 1.391 . S
C485 C484 1.446 . S
C485 C486 1.339 . S
C485 H520 0.949 . S
C486 C485 1.339 . S
C486 C487 1.439 . S
C486 H521 0.950 . S
C487 N483 1.383 . S
C487 C486 1.439 . S
C487 C516 1.392 . S
N488 Co482 2.008 . S
N488 C489 1.376 . S
N488 C492 1.374 . S
C489 N488 1.376 . S
C489 C490 1.443 . S
C489 C516 1.389 . S
C490 C489 1.443 . S
C490 C491 1.340 . S
C490 H522 0.951 . S
C491 C490 1.340 . S
C491 C492 1.439 . S
C491 H523 0.950 . S
C492 N488 1.374 . S
C492 C491 1.439 . S
C492 C517 1.395 . S
N493 Co482 1.995 . S
N493 C494 1.376 . S
N493 C497 1.383 . S
C494 N493 1.376 . S
C494 C495 1.446 . S
C494 C517 1.391 . S
C495 C494 1.446 . S
C495 C496 1.339 . S
C495 H524 0.949 1_545 S
C496 C495 1.339 . S
C496 C497 1.439 . S
C496 H525 0.950 1_545 S
C497 N493 1.383 . S
C497 C496 1.439 . S
C497 C515 1.392 . S
N498 Co482 2.282 . S
N498 C501 1.332 . S
N498 C503 1.332 . S
C499 C500 1.386 . S
C499 C502 1.388 . S
C500 C499 1.386 . S
C500 C501 1.382 . S
C500 H526 0.950 . S
C501 N498 1.332 . S
C501 C500 1.382 . S
C501 H512 0.952 . S
C502 C499 1.388 . S
C502 C503 1.382 . S
C502 H527 0.950 . S
C503 N498 1.332 . S
C503 C502 1.382 . S
C503 H513 0.948 . S
N504 Co482 2.282 . S
N504 C508 1.332 . S
N504 C509 1.332 . S
C505 C506 1.388 . S
C505 C509 1.382 1_565 S
C505 H528 0.950 . S
C506 C505 1.388 . S
C506 C507 1.386 1_565 S
C507 C506 1.386 1_545 S
C507 C508 1.382 . S
C507 H529 0.950 . S
C508 N504 1.332 . S
C508 C507 1.382 . S
C508 H510 0.952 . S
C509 N504 1.332 . S
C509 C505 1.382 1_545 S
C509 H511 0.948 1_545 S
H510 C508 0.952 . S
H511 C509 0.948 1_565 S
H512 C501 0.952 . S
H513 C503 0.948 . S
C514 C480 1.395 . S
C514 C484 1.391 . S
C515 C477 1.389 . S
C515 C497 1.392 . S
C516 C487 1.392 . S
C516 C489 1.389 . S
C517 C492 1.395 . S
C517 C494 1.391 . S
H518 C478 0.951 . S
H519 C479 0.950 . S
H520 C485 0.949 . S
H521 C486 0.950 . S
H522 C490 0.951 . S
H523 C491 0.950 . S
H524 C495 0.949 1_565 S
H525 C496 0.950 1_565 S
H526 C500 0.950 . S
H527 C502 0.950 . S
H528 C505 0.950 . S
H529 C507 0.950 . S
C530 C531 1.443 . S
C530 N534 1.376 . S
C530 C568 1.389 . S
C531 C530 1.443 . S
C531 C532 1.340 . S
C531 H571 0.951 . S
C532 C531 1.340 . S
C532 C533 1.439 . S
C532 H572 0.950 . S
C533 C532 1.439 . S
C533 N534 1.374 . S
C533 C567 1.395 . S
N534 C530 1.376 . S
N534 C533 1.374 . S
N534 Co535 2.008 . S
Co535 N534 2.008 . S
Co535 N536 1.995 . S
Co535 N541 2.008 . S
Co535 N546 1.995 . S
Co535 N551 2.282 . S
Co535 N557 2.282 . S
N536 Co535 1.995 . S
N536 C537 1.376 . S
N536 C540 1.383 . S
C537 N536 1.376 . S
C537 C538 1.446 . S
C537 C567 1.391 . S
C538 C537 1.446 . S
C538 C539 1.339 . S
C538 H573 0.949 . S
C539 C538 1.339 . S
C539 C540 1.439 . S
C539 H574 0.950 . S
C540 N536 1.383 . S
C540 C539 1.439 . S
C540 C569 1.392 . S
N541 Co535 2.008 . S
N541 C542 1.376 . S
N541 C545 1.374 . S
C542 N541 1.376 . S
C542 C543 1.443 . S
C542 C569 1.389 . S
C543 C542 1.443 . S
C543 C544 1.340 . S
C543 H575 0.951 . S
C544 C543 1.340 . S
C544 C545 1.439 . S
C544 H576 0.950 . S
C545 N541 1.374 . S
C545 C544 1.439 . S
C545 C570 1.395 . S
N546 Co535 1.995 . S
N546 C547 1.376 . S
N546 C550 1.383 . S
C547 N546 1.376 . S
C547 C548 1.446 . S
C547 C570 1.391 . S
C548 C547 1.446 . S
C548 C549 1.339 . S
C548 H577 0.949 . S
C549 C548 1.339 . S
C549 C550 1.439 . S
C549 H578 0.950 . S
C550 N546 1.383 . S
C550 C549 1.439 . S
C550 C568 1.392 . S
N551 Co535 2.282 . S
N551 C554 1.332 . S
N551 C556 1.332 . S
C552 C553 1.386 . S
C552 C555 1.388 . S
C553 C552 1.386 . S
C553 C554 1.382 . S
C553 H579 0.950 . S
C554 N551 1.332 . S
C554 C553 1.382 . S
C554 H565 0.952 . S
C555 C552 1.388 . S
C555 C556 1.382 . S
C555 H580 0.950 . S
C556 N551 1.332 . S
C556 C555 1.382 . S
C556 H566 0.948 . S
N557 Co535 2.282 . S
N557 C561 1.332 . S
N557 C562 1.332 . S
C558 C559 1.388 . S
C558 C562 1.382 1_655 S
C558 H581 0.950 . S
C559 C558 1.388 . S
C559 C560 1.386 . S
C560 C559 1.386 . S
C560 C561 1.382 1_655 S
C560 H582 0.950 . S
C561 N557 1.332 . S
C561 C560 1.382 1_455 S
C561 H563 0.952 . S
C562 N557 1.332 . S
C562 C558 1.382 1_455 S
C562 H564 0.948 . S
H563 C561 0.952 . S
H564 C562 0.948 . S
H565 C554 0.952 . S
H566 C556 0.948 . S
C567 C533 1.395 . S
C567 C537 1.391 . S
C568 C530 1.389 . S
C568 C550 1.392 . S
C569 C540 1.392 . S
C569 C542 1.389 . S
C570 C545 1.395 . S
C570 C547 1.391 . S
H571 C531 0.951 . S
H572 C532 0.950 . S
H573 C538 0.949 . S
H574 C539 0.950 . S
H575 C543 0.951 . S
H576 C544 0.950 . S
H577 C548 0.949 . S
H578 C549 0.950 . S
H579 C553 0.950 . S
H580 C555 0.950 . S
H581 C558 0.950 . S
H582 C560 0.950 . S
C583 C584 1.443 . S
C583 N587 1.376 . S
C583 C621 1.389 . S
C584 C583 1.443 . S
C584 C585 1.340 . S
C584 H624 0.951 . S
C585 C584 1.340 . S
C585 C586 1.439 . S
C585 H625 0.950 . S
C586 C585 1.439 . S
C586 N587 1.374 . S
C586 C620 1.395 . S
N587 C583 1.376 . S
N587 C586 1.374 . S
N587 Co588 2.008 . S
Co588 N587 2.008 . S
Co588 N589 1.995 . S
Co588 N594 2.008 . S
Co588 N599 1.995 . S
Co588 N604 2.282 . S
Co588 N610 2.282 . S
N589 Co588 1.995 . S
N589 C590 1.385 . S
N589 C593 1.383 . S
C590 N589 1.385 . S
C590 C591 1.439 1_655 S
C590 C620 1.390 . S
C591 C590 1.439 1_455 S
C591 C592 1.339 . S
C591 H626 0.949 . S
C592 C591 1.339 . S
C592 C593 1.439 1_455 S
C592 H627 0.950 . S
C593 N589 1.383 . S
C593 C592 1.439 1_655 S
C593 C622 1.392 . S
N594 Co588 2.008 . S
N594 C595 1.376 . S
N594 C598 1.374 . S
C595 N594 1.376 . S
C595 C596 1.443 . S
C595 C622 1.389 . S
C596 C595 1.443 . S
C596 C597 1.340 . S
C596 H628 0.951 . S
C597 C596 1.340 . S
C597 C598 1.439 . S
C597 H629 0.950 . S
C598 N594 1.374 . S
C598 C597 1.439 . S
C598 C623 1.395 . S
N599 Co588 1.995 . S
N599 C600 1.376 . S
N599 C603 1.383 . S
C600 N599 1.376 . S
C600 C601 1.446 . S
C600 C623 1.391 . S
C601 C600 1.446 . S
C601 C602 1.339 . S
C601 H630 0.949 . S
C602 C601 1.339 . S
C602 C603 1.439 . S
C602 H631 0.950 . S
C603 N599 1.383 . S
C603 C602 1.439 . S
C603 C621 1.392 . S
N604 Co588 2.282 . S
N604 C607 1.332 . S
N604 C609 1.332 . S
C605 C606 1.386 . S
C605 C608 1.388 . S
C606 C605 1.386 . S
C606 C607 1.382 . S
C606 H632 0.950 . S
C607 N604 1.332 . S
C607 C606 1.382 . S
C607 H618 0.952 . S
C608 C605 1.388 . S
C608 C609 1.382 . S
C608 H633 0.950 . S
C609 N604 1.332 . S
C609 C608 1.382 . S
C609 H619 0.948 . S
N610 Co588 2.282 . S
N610 C614 1.332 . S
N610 C615 1.332 . S
C611 C612 1.388 . S
C611 C615 1.382 . S
C611 H634 0.950 . S
C612 C611 1.388 . S
C612 C613 1.386 . S
C613 C612 1.386 . S
C613 C614 1.382 . S
C613 H635 0.950 . S
C614 N610 1.332 . S
C614 C613 1.382 . S
C614 H616 0.952 . S
C615 N610 1.332 . S
C615 C611 1.382 . S
C615 H617 0.948 . S
H616 C614 0.952 . S
H617 C615 0.948 . S
H618 C607 0.952 . S
H619 C609 0.948 . S
C620 C586 1.395 . S
C620 C590 1.390 . S
C621 C583 1.389 . S
C621 C603 1.392 . S
C622 C593 1.392 . S
C622 C595 1.389 . S
C623 C598 1.395 . S
C623 C600 1.391 . S
H624 C584 0.951 . S
H625 C585 0.950 . S
H626 C591 0.949 . S
H627 C592 0.950 . S
H628 C596 0.951 . S
H629 C597 0.950 . S
H630 C601 0.949 . S
H631 C602 0.950 . S
H632 C606 0.950 . S
H633 C608 0.950 . S
H634 C611 0.950 . S
H635 C613 0.950 . S
C446 C22 2.560 . S
C91 C515 2.602 . S
C128 C552 2.560 . S
C181 C605 2.560 . S
C356 C250 2.602 . S
C287 C393 2.560 . S
C516 C29 2.117 . S
C92 C559 2.117 . S
C612 C135 1.782 1_545 S
C188 C357 2.117 . S
C400 C251 2.117 . S
C453 C294 1.782 1_564 S
C38 C304 2.442 . S
C75 C39 3.285 1_655 S
C82 C144 3.093 . S
C197 C145 2.442 . S
C234 C198 3.285 1_455 S
C303 C241 3.093 . S
C340 C410 3.285 . S
C409 C463 2.442 1_655 S
C462 C506 3.094 . S
C499 C569 3.285 . S
C568 C622 2.442 1_455 S
C347 C621 3.094 . S
