# Generated by pormake.
# Topology bcg, (8)-cn, num edge types: 1
# Building blocks:
#     Node 0, Type 0, BuildingBlock: LIZSOE_clean_sbu_0, # of connection points: 8
#     Node 1, Type 0, BuildingBlock: LIZSOE_clean_sbu_0, # of connection points: 8
#     Node 2, Type 0, BuildingBlock: LIZSOE_clean_sbu_0, # of connection points: 8
#     Node 3, Type 0, BuildingBlock: LIZSOE_clean_sbu_0, # of connection points: 8
#     Edge 4, Type (0, 0), BuildingBlock: XUDNAN_clean_linker_2, # of connection points: 2
#     Edge 5, Type (0, 0), BuildingBlock: XUDNAN_clean_linker_2, # of connection points: 2
#     Edge 6, Type (0, 0), BuildingBlock: XUDNAN_clean_linker_2, # of connection points: 2
#     Edge 7, Type (0, 0), BuildingBlock: XUDNAN_clean_linker_2, # of connection points: 2
#     Edge 8, Type (0, 0), BuildingBlock: XUDNAN_clean_linker_2, # of connection points: 2
#     Edge 9, Type (0, 0), BuildingBlock: XUDNAN_clean_linker_2, # of connection points: 2
#     Edge 10, Type (0, 0), BuildingBlock: XUDNAN_clean_linker_2, # of connection points: 2
#     Edge 11, Type (0, 0), BuildingBlock: XUDNAN_clean_linker_2, # of connection points: 2
#     Edge 12, Type (0, 0), BuildingBlock: XUDNAN_clean_linker_2, # of connection points: 2
#     Edge 13, Type (0, 0), BuildingBlock: XUDNAN_clean_linker_2, # of connection points: 2
#     Edge 14, Type (0, 0), BuildingBlock: XUDNAN_clean_linker_2, # of connection points: 2
#     Edge 15, Type (0, 0), BuildingBlock: XUDNAN_clean_linker_2, # of connection points: 2
#     Edge 16, Type (0, 0), BuildingBlock: XUDNAN_clean_linker_2, # of connection points: 2
#     Edge 17, Type (0, 0), BuildingBlock: XUDNAN_clean_linker_2, # of connection points: 2
#     Edge 18, Type (0, 0), BuildingBlock: XUDNAN_clean_linker_2, # of connection points: 2
#     Edge 19, Type (0, 0), BuildingBlock: XUDNAN_clean_linker_2, # of connection points: 2
# Relax obj value: 0.241
# Max RMSD: 0.310
# Mean RMSD: 0.310
data_MOF--net-bcg--node1-LIZSOE_clean_sbu_0--edge1-XUDNAN_clean_linker_2
_symmetry_space_group_name_H-M    P1
_symmetry_Int_Tables_number       1
_symmetry_cell_setting            triclinic
loop_
_symmetry_equiv_pos_as_xyz
'x, y, z'
_cell_length_a     21.372169
_cell_length_b     22.341678
_cell_length_c     21.603832
_cell_angle_alpha  90.470232
_cell_angle_beta   89.938911
_cell_angle_gamma 90.433957
loop_
_atom_site_label
_atom_site_type_symbol
_atom_site_fract_x
_atom_site_fract_y
_atom_site_fract_z
_atom_type_partial_charge
Co0 Co 0.1127 0.27965 0.98457 0.0
N1 N 0.03312 0.25296 1.00801 0.0
C2 C 0.99696 0.28363 0.04852 0.0
N3 N 0.94937 0.19761 0.03295 0.0
C4 C 1.0012 0.20101 0.99793 0.0
C5 C 0.94548 0.24989 0.0635 0.0
Co6 Co 0.39332 0.27661 0.07215 0.0
N7 N 0.4785 0.27021 0.06689 0.0
N8 N 0.57309 0.22904 0.07111 0.0
C9 C 0.57538 0.28133 0.10223 0.0
C10 C 0.51713 0.30675 0.09924 0.0
C11 C 0.51435 0.22309 0.04954 0.0
Co12 Co 0.25379 0.29313 1.0214 0.0
C13 C 0.34093 0.23176 0.11441 0.0
H14 H 0.50241 0.34675 0.12357 0.0
O15 O 0.18469 0.31053 0.9591 0.0
O16 O 0.29883 0.25525 0.94893 0.0
O17 O 0.21759 0.21 0.04093 0.0
O18 O 0.20727 0.33339 0.09067 0.0
O19 O 0.12765 0.27566 0.07107 0.0
O20 O 0.39264 0.26307 0.98786 0.0
O21 O 0.3171 0.27788 0.08557 0.0
O22 O 0.3937 0.3588 0.0537 0.0
O23 O 0.14017 0.20143 0.9739 0.0
O24 O 0.09675 0.35708 0.9949 0.0
O25 O 0.29969 0.3725 1.00511 0.0
O26 O 0.38008 0.1975 0.08544 0.0
C27 C 0.17875 0.17744 1.01018 0.0
C28 C 0.4907 0.16606 1.01947 0.0
H29 H 0.44514 0.17059 0.99637 0.0
H30 H 0.52432 0.14993 0.98417 0.0
H31 H 0.4868 0.13088 0.05529 0.0
C32 C 0.35762 0.25293 0.94257 0.0
C33 C 0.15588 0.31058 0.10745 0.0
H34 H 1.00806 0.3274 0.0674 0.0
H35 H 0.97549 0.14214 0.92331 0.0
H36 H 0.02857 0.11333 0.97681 0.0
H37 H 0.05506 0.16636 0.91911 0.0
C38 C 0.01719 0.15389 0.95126 0.0
C39 C 0.13947 0.3505 0.95256 0.0
C40 C 0.35407 0.39148 1.02474 0.0
H41 H 0.90716 0.26308 0.09314 0.0
H42 H 0.61537 0.29821 0.12787 0.0
Co43 Co 0.63958 0.85771 0.03452 0.0
N44 N 0.57198 0.87667 0.08475 0.0
C45 C 0.56872 0.9264 0.12068 0.0
N46 N 0.47626 0.88344 0.12651 0.0
C47 C 0.51435 0.85158 0.0888 0.0
C48 C 0.51005 0.93046 0.14676 0.0
Co49 Co 0.90231 0.72383 1.02452 0.0
N50 N 0.9809 0.71129 0.98785 0.0
N51 N 0.08563 0.72051 0.99386 0.0
C52 C 0.06519 0.75257 0.94553 0.0
C53 C 1.00181 0.74663 0.94178 0.0
C54 C 0.03373 0.69298 1.01621 0.0
Co55 Co 0.76628 0.78558 1.02111 0.0
C56 C 0.87296 0.6957 0.08355 0.0
H57 H 0.97296 0.77468 0.91356 0.0
O58 O 0.7001 0.84005 0.98108 0.0
O59 O 0.80188 0.77651 0.93364 0.0
O60 O 0.70765 0.7185 1.00913 0.0
O61 O 0.73321 0.79204 0.11071 0.0
O62 O 0.69419 0.87925 0.09854 0.0
O63 O 0.86421 0.70029 0.94901 0.0
O64 O 0.83103 0.73284 0.06096 0.0
O65 O 0.90901 0.80713 1.00216 0.0
O66 O 0.63051 0.7689 0.0563 0.0
O67 O 0.59435 0.84266 0.97186 0.0
O68 O 0.82397 0.85508 0.03459 0.0
O69 O 0.89319 0.64974 0.0516 0.0
C70 C 0.65311 0.71986 0.03343 0.0
C71 C 0.03623 0.63834 0.05567 0.0
H72 H 1.00123 0.60464 0.03998 0.0
H73 H 0.08354 0.61819 0.05404 0.0
H74 H 0.02602 0.65064 0.10374 0.0
C75 C 0.83866 0.73628 0.91224 0.0
C76 C 0.70918 0.83858 0.13471 0.0
H77 H 0.60576 0.95941 0.1251 0.0
H78 H 0.47246 0.81988 1.00458 0.0
H79 H 0.4527 0.77571 0.07132 0.0
H80 H 0.52666 0.76919 0.03393 0.0
C81 C 0.49081 0.80095 0.04807 0.0
C82 C 0.64834 0.83115 0.94773 0.0
C83 C 0.88092 0.85531 1.01668 0.0
H84 H 0.49218 0.96725 0.17432 0.0
H85 H 0.09252 0.78464 0.91959 0.0
Co86 Co 0.40157 0.80873 0.58075 0.0
N87 N 0.4886 0.8021 0.57923 0.0
C88 C 0.52654 0.83893 0.54667 0.0
N89 N 0.58623 0.76761 0.58216 0.0
C90 C 0.52721 0.75953 0.6016 0.0
C91 C 0.58643 0.81727 0.54767 0.0
Co92 Co 0.13803 0.74684 0.45441 0.0
N93 N 0.05273 0.72967 0.45574 0.0
N94 N 0.95875 0.68687 0.46715 0.0
C95 C 0.95167 0.73742 0.43463 0.0
C96 C 1.00959 0.76326 0.42704 0.0
C97 C 0.02013 0.68306 0.47994 0.0
Co98 Co 0.26774 0.78899 0.51732 0.0
C99 C 0.18039 0.71548 0.42131 0.0
H100 H 0.01962 0.80434 0.40269 0.0
O101 O 0.32148 0.8197 0.58881 0.0
O102 O 0.21904 0.75253 0.58803 0.0
O103 O 0.31983 0.71379 0.5103 0.0
O104 O 0.31925 0.82825 0.45031 0.0
O105 O 0.40822 0.80424 0.49308 0.0
O106 O 0.13108 0.74431 0.53946 0.0
O107 O 0.21634 0.75864 0.44566 0.0
O108 O 0.12533 0.83055 0.46312 0.0
O109 O 0.39262 0.72527 0.58324 0.0
O110 O 0.40089 0.88932 0.57246 0.0
O111 O 0.2097 0.86142 0.52042 0.0
O112 O 0.16181 0.66911 0.45253 0.0
C113 C 0.36305 0.69269 0.54465 0.0
C114 C 0.04819 0.63081 0.51332 0.0
H115 H 0.08736 0.64441 0.54368 0.0
H116 H 1.0128 0.60705 0.54177 0.0
H117 H 0.06615 0.59848 0.47846 0.0
C118 C 0.16073 0.74331 0.58905 0.0
C119 C 0.37777 0.81962 0.44616 0.0
H120 H 0.51083 0.87679 0.52012 0.0
H121 H 0.54516 0.69839 0.67562 0.0
H122 H 0.50627 0.66634 0.6102 0.0
H123 H 0.46367 0.71232 0.66411 0.0
C124 C 0.50862 0.70666 0.64027 0.0
C125 C 0.36912 0.85413 0.60861 0.0
C126 C 0.1562 0.87092 0.49353 0.0
H127 H 0.6259 0.83381 0.52122 0.0
H128 H 0.90734 0.75554 0.41983 0.0
Co129 Co 0.62388 0.22743 0.49831 0.0
N130 N 0.54584 0.20734 0.53123 0.0
C131 C 0.50265 0.25004 0.54141 0.0
N132 N 0.46163 0.16669 0.57701 0.0
C133 C 0.51858 0.15609 0.55204 0.0
C134 C 0.45183 0.22561 0.56994 0.0
Co135 Co 0.89993 0.30189 0.55427 0.0
N136 N 0.98475 0.28404 0.53828 0.0
N137 N 0.07692 0.23581 0.54225 0.0
C138 C 0.06728 0.25351 0.48382 0.0
C139 C 1.01143 0.28331 0.48156 0.0
C140 C 0.02722 0.25626 0.57485 0.0
Co141 Co 0.75662 0.28064 0.52469 0.0
C142 C 0.84994 0.29625 0.62674 0.0
H143 H 0.98994 0.29942 0.43994 0.0
O144 O 0.69283 0.24536 0.46431 0.0
O145 O 0.79526 0.19949 0.53438 0.0
O146 O 0.70805 0.2684 0.60524 0.0
O147 O 0.71006 0.35641 0.51706 0.0
O148 O 0.61739 0.30968 0.53178 0.0
O149 O 0.88467 0.23308 0.50313 0.0
O150 O 0.82213 0.31892 0.57818 0.0
O151 O 0.89375 0.34934 0.48499 0.0
O152 O 0.65964 0.19225 0.56891 0.0
O153 O 0.63738 0.15591 0.46507 0.0
O154 O 0.80814 0.30217 0.44714 0.0
O155 O 0.89318 0.25651 0.61921 0.0
C156 C 0.67343 0.22352 0.61485 0.0
C157 C 0.01798 0.24613 0.64264 0.0
H158 H 0.99044 0.20445 0.64943 0.0
H159 H 0.06206 0.24095 0.66816 0.0
H160 H 0.99351 0.2848 0.66352 0.0
C161 C 0.84948 0.18929 0.51407 0.0
C162 C 0.65089 0.35761 0.52755 0.0
H163 H 0.50672 0.29633 0.52785 0.0
H164 H 0.53929 0.07811 0.49821 0.0
H165 H 0.52402 0.06314 0.57874 0.0
H166 H 0.59746 0.09598 0.55519 0.0
C167 C 0.54656 0.09487 0.54618 0.0
C168 C 0.65197 0.20677 0.43994 0.0
C169 C 0.85606 0.33756 0.44065 0.0
H170 H 0.40921 0.24895 0.58188 0.0
H171 H 0.09727 0.24285 0.44497 0.0
H172 H 0.62942 0.18862 0.97001 0.0
H173 H 0.62533 0.17471 0.16845 0.0
H174 H 0.71594 0.10771 0.16557 0.0
H175 H 0.72891 0.03017 0.94533 0.0
H176 H 0.76897 0.06598 0.88209 0.0
H177 H 0.68618 0.07724 0.8932 0.0
H178 H 0.70398 0.19137 0.89429 0.0
H179 H 0.78545 0.18021 0.88267 0.0
H180 H 0.75923 0.22407 0.94829 0.0
H181 H 0.82145 0.08246 0.14946 0.0
H182 H 0.92423 0.12816 0.13034 0.0
H183 H 0.87177 0.16558 0.94271 0.0
C184 C 0.64643 0.16809 1.01187 0.0
C185 C 0.62075 0.18476 0.06906 0.0
C186 C 0.64423 0.16075 0.12421 0.0
C187 C 0.69509 0.12197 0.12258 0.0
C188 C 0.72294 0.10891 0.06545 0.0
C189 C 0.69853 0.13081 1.0105 0.0
C190 C 0.74576 0.12673 0.95857 0.0
C191 C 0.73162 0.07175 0.91744 0.0
C192 C 0.74882 0.18412 0.91894 0.0
C193 C 0.80414 0.11633 0.99651 0.0
C194 C 0.78894 0.09753 0.05599 0.0
C195 C 0.83363 0.09632 0.10309 0.0
C196 C 0.89169 0.12307 0.09238 0.0
C197 C 0.90407 0.1505 0.03537 0.0
C198 C 0.86257 0.14277 0.9857 0.0
H199 H 0.19329 0.764 0.9457 0.0
H200 H 0.1048 0.71676 0.11991 0.0
H201 H 0.19387 0.75923 0.17654 0.0
H202 H 0.35579 0.7498 0.99308 0.0
H203 H 0.37754 0.81403 0.94757 0.0
H204 H 0.3121 0.76828 0.9246 0.0
H205 H 0.24242 0.86612 0.92704 0.0
H206 H 0.31176 0.90698 0.94936 0.0
H207 H 0.24332 0.91138 0.9972 0.0
H208 H 0.29798 0.80547 0.2137 0.0
H209 H 0.40384 0.85187 0.22414 0.0
H210 H 0.40158 0.89665 0.03007 0.0
C211 C 0.19254 0.76198 0.99571 0.0
C212 C 0.14213 0.73517 0.02752 0.0
C213 C 0.14357 0.73392 0.09337 0.0
C214 C 0.19363 0.75939 0.12644 0.0
C215 C 0.24063 0.78813 0.09326 0.0
C216 C 0.23986 0.79023 0.02934 0.0
C217 C 0.29346 0.82693 1.00431 0.0
C218 C 0.33736 0.78738 0.96522 0.0
C219 C 0.27114 0.88099 0.96721 0.0
C220 C 0.32337 0.84665 0.0642 0.0
C221 C 0.29414 0.82208 0.11516 0.0
C222 C 0.32024 0.82646 0.17434 0.0
C223 C 0.37951 0.85368 0.18028 0.0
C224 C 0.40972 0.87761 0.12774 0.0
C225 C 0.37846 0.87896 0.07071 0.0
H226 H 0.68893 0.76297 0.65103 0.0
H227 H 0.58527 0.67238 0.5068 0.0
H228 H 0.67318 0.60348 0.48895 0.0
H229 H 0.8152 0.78285 0.59021 0.0
H230 H 0.87056 0.76413 0.64996 0.0
H231 H 0.79299 0.7847 0.67091 0.0
H232 H 0.77654 0.68495 0.72907 0.0
H233 H 0.85574 0.66617 0.71006 0.0
H234 H 0.79348 0.61489 0.69069 0.0
H235 H 0.77643 0.58034 0.4568 0.0
H236 H 0.88033 0.60649 0.41538 0.0
H237 H 0.92457 0.70279 0.58319 0.0
C238 C 0.68491 0.72657 0.61788 0.0
C239 C 0.63235 0.72225 0.57972 0.0
C240 C 0.62635 0.67545 0.536 0.0
C241 C 0.67557 0.63583 0.52643 0.0
C242 C 0.72974 0.64343 0.56173 0.0
C243 C 0.73393 0.68669 0.60814 0.0
C244 C 0.80018 0.69389 0.63097 0.0
C245 C 0.82084 0.76029 0.63552 0.0
C246 C 0.80685 0.66302 0.69384 0.0
C247 C 0.83406 0.65946 0.58049 0.0
C248 C 0.79243 0.6266 0.54396 0.0
C249 C 0.80986 0.60353 0.48615 0.0
C250 C 0.86859 0.61887 0.46249 0.0
C251 C 0.90906 0.65581 0.49718 0.0
C252 C 0.89374 0.67268 0.55797 0.0
H253 H 0.15838 0.24741 0.63728 0.0
H254 H 0.10492 0.13222 0.48488 0.0
H255 H 0.19525 0.06754 0.50589 0.0
H256 H 0.2985 0.25803 0.62727 0.0
H257 H 0.32522 0.24879 0.70589 0.0
H258 H 0.24698 0.27173 0.69201 0.0
H259 H 0.20495 0.18263 0.75508 0.0
H260 H 0.28406 0.15875 0.7693 0.0
H261 H 0.22809 0.10742 0.7355 0.0
H262 H 0.30499 0.04431 0.51671 0.0
H263 H 0.41653 0.07037 0.51418 0.0
H264 H 0.39555 0.17707 0.67945 0.0
C265 C 0.16256 0.20573 0.61203 0.0
C266 C 0.12362 0.1936 0.56093 0.0
C267 C 0.13412 0.1418 0.5246 0.0
C268 C 0.18463 0.10429 0.53701 0.0
C269 C 0.22277 0.11765 0.58774 0.0
C270 C 0.21065 0.16602 0.62637 0.0
C271 C 0.26334 0.17622 0.67201 0.0
C272 C 0.28482 0.2425 0.67415 0.0
C273 C 0.24394 0.15495 0.73679 0.0
C274 C 0.31206 0.13482 0.64448 0.0
C275 C 0.28673 0.09874 0.59799 0.0
C276 C 0.32502 0.06998 0.5546 0.0
C277 C 0.38893 0.08438 0.55369 0.0
C278 C 0.4135 0.12612 0.59671 0.0
C279 C 0.37656 0.14449 0.64711 0.0
H280 H 0.55211 0.68327 0.10451 0.0
H281 H 0.66102 0.63432 0.94304 0.0
H282 H 0.58156 0.55892 0.91427 0.0
H283 H 0.51533 0.52568 0.1394 0.0
H284 H 0.44002 0.54345 0.17207 0.0
H285 H 0.50281 0.59734 0.17587 0.0
H286 H 0.43013 0.67422 0.12229 0.0
H287 H 0.36853 0.61905 0.11591 0.0
H288 H 0.39713 0.65623 0.04767 0.0
H289 H 0.48609 0.495 0.89771 0.0
H290 H 0.40328 0.41918 0.91406 0.0
H291 H 0.36755 0.49244 0.09657 0.0
C292 C 0.55928 0.65618 0.06367 0.0
C293 C 0.61141 0.66672 1.02479 0.0
C294 C 0.62047 0.62882 0.97262 0.0
C295 C 0.57524 0.58611 0.95546 0.0
C296 C 0.52262 0.57929 0.99282 0.0
C297 C 0.51611 0.61081 0.0477 0.0
C298 C 0.46003 0.5879 0.08406 0.0
C299 C 0.48078 0.56207 0.14652 0.0
C300 C 0.41107 0.63731 0.093 0.0
C301 C 0.43605 0.53895 0.04066 0.0
C302 C 0.47145 0.53671 0.98715 0.0
C303 C 0.45849 0.49581 0.93974 0.0
C304 C 0.41098 0.45323 0.94908 0.0
C305 C 0.3789 0.45027 1.00616 0.0
C306 C 0.3902 0.49487 0.05178 0.0
H307 H 0.56261 0.40019 0.60803 0.0
H308 H 0.66091 0.44073 0.43773 0.0
H309 H 0.58912 0.52506 0.41909 0.0
H310 H 0.40884 0.4353 0.5606 0.0
H311 H 0.38659 0.47075 0.63252 0.0
H312 H 0.44547 0.41351 0.63182 0.0
H313 H 0.52345 0.48722 0.68611 0.0
H314 H 0.46422 0.54409 0.68673 0.0
H315 H 0.53918 0.55887 0.65149 0.0
H316 H 0.50017 0.59714 0.41366 0.0
H317 H 0.41805 0.67174 0.43512 0.0
H318 H 0.385 0.59313 0.61473 0.0
C319 C 0.56969 0.42789 0.56768 0.0
C320 C 0.61722 0.41459 0.52439 0.0
C321 C 0.62523 0.45106 0.47176 0.0
C322 C 0.58419 0.49837 0.46041 0.0
C323 C 0.53647 0.50927 0.50297 0.0
C324 C 0.53048 0.47663 0.55674 0.0
C325 C 0.4775 0.50015 0.59663 0.0
C326 C 0.42659 0.45207 0.60595 0.0
C327 C 0.50257 0.52401 0.65892 0.0
C328 C 0.45398 0.55042 0.55636 0.0
C329 C 0.48771 0.55376 0.50183 0.0
C330 C 0.47387 0.59546 0.45643 0.0
C331 C 0.4266 0.63702 0.46853 0.0
C332 C 0.39487 0.63741 0.52595 0.0
C333 C 0.40772 0.59276 0.5699 0.0
H334 H 0.16726 0.07292 0.9442 0.0
H335 H 0.13655 0.15295 0.12459 0.0
H336 H 0.05706 0.07587 0.14753 0.0
H337 H 0.01567 0.0379 0.90428 0.0
H338 H 0.03524 0.96832 0.86842 0.0
H339 H 0.09371 0.02624 0.87462 0.0
H340 H 0.16155 0.94319 0.92802 0.0
H341 H 0.09683 0.89152 0.92378 0.0
H342 H 0.13228 0.9076 0.99764 0.0
H343 H 0.96336 1.00821 0.1397 0.0
H344 H 0.87992 0.93479 0.11335 0.0
H345 H 0.97494 0.89328 0.9411 0.0
C346 C 0.14725 0.07117 0.99021 0.0
C347 C 0.15873 0.11824 0.03314 0.0
C348 C 0.12953 0.11657 0.09185 0.0
C349 C 0.08372 0.0732 0.10499 0.0
C350 C 0.06955 0.03026 0.05983 0.0
C351 C 0.10257 0.0268 1.00463 0.0
C352 C 0.07384 0.97953 0.96182 0.0
C353 C 0.05363 1.0048 0.89879 0.0
C354 C 0.11893 0.92727 0.95246 0.0
C355 C 0.0177 0.96044 0.99975 0.0
C356 C 0.01581 0.99024 0.05597 0.0
C357 C 0.96541 0.98336 0.09655 0.0
C358 C 0.91758 0.94253 0.0807 0.0
C359 C 0.92101 0.90873 1.02515 0.0
C360 C 0.97122 0.91869 0.98387 0.0
H361 H 0.88971 0.10982 0.42581 0.0
H362 H 0.88565 0.14309 0.6236 0.0
H363 H 0.97394 0.0739 0.63753 0.0
H364 H 0.92208 0.94452 0.44703 0.0
H365 H 0.96703 0.94131 0.37648 0.0
H366 H 0.90289 0.99279 0.38345 0.0
H367 H 0.97824 0.07851 0.35406 0.0
H368 H 0.04395 0.02865 0.35071 0.0
H369 H 0.04636 0.09352 0.4007 0.0
H370 H 0.07425 0.01468 0.62662 0.0
H371 H 0.15491 0.9401 0.59909 0.0
H372 H 0.08054 0.92957 0.41259 0.0
C373 C 0.90561 0.10033 0.47227 0.0
C374 C 0.88115 0.13188 0.52367 0.0
C375 C 0.9038 0.11936 0.58366 0.0
C376 C 0.9544 0.08063 0.59194 0.0
C377 C 0.97989 0.05272 0.53995 0.0
C378 C 0.95396 0.05925 0.48179 0.0
C379 C 0.98703 0.02005 0.43456 0.0
C380 C 0.9421 0.9718 0.40889 0.0
C381 C 0.01561 0.05744 0.38198 0.0
C382 C 0.03724 0.99268 0.47483 0.0
C383 C 0.03322 0.01322 0.53515 0.0
C384 C 0.0765 0.99657 0.58006 0.0
C385 C 0.12245 0.95456 0.56392 0.0
C386 C 0.12274 0.92782 0.50435 0.0
C387 C 0.08097 0.94888 0.45875 0.0
H388 H 0.57947 0.1327 0.36758 0.0
H389 H 0.62929 0.31987 0.39346 0.0
H390 H 0.5425 0.34816 0.32373 0.0
H391 H 0.52999 0.13853 0.20473 0.0
H392 H 0.46997 0.08395 0.21999 0.0
H393 H 0.54046 0.08447 0.2654 0.0
H394 H 0.46658 0.09057 0.36244 0.0
H395 H 0.39815 0.09691 0.31437 0.0
H396 H 0.41569 0.15404 0.37128 0.0
H397 H 0.44529 0.35518 0.25373 0.0
H398 H 0.36394 0.33981 0.17422 0.0
H399 H 0.37752 0.14781 0.1977 0.0
C400 C 0.57337 0.17972 0.35762 0.0
C401 C 0.61188 0.22404 0.38604 0.0
C402 C 0.60131 0.28495 0.37184 0.0
C403 C 0.55139 0.30145 0.33295 0.0
C404 C 0.51237 0.25655 0.30859 0.0
C405 C 0.52386 0.19682 0.31943 0.0
C406 C 0.47528 0.15681 0.2885 0.0
C407 C 0.50585 0.11341 0.24196 0.0
C408 C 0.43666 0.12259 0.33705 0.0
C409 C 0.43581 0.20316 0.25621 0.0
C410 C 0.45687 0.26054 0.26947 0.0
C411 C 0.42877 0.31038 0.243 0.0
C412 C 0.3817 0.30116 0.19823 0.0
C413 C 0.36435 0.2424 0.17894 0.0
C414 C 0.38908 0.19324 0.21168 0.0
H415 H 0.63803 0.74819 0.19017 0.0
H416 H 0.69888 0.93262 0.21284 0.0
H417 H 0.61437 0.94977 0.28847 0.0
H418 H 0.48312 0.76575 0.19607 0.0
H419 H 0.45847 0.7065 0.24705 0.0
H420 H 0.52933 0.69905 0.20325 0.0
H421 H 0.59949 0.68347 0.29598 0.0
H422 H 0.52963 0.68228 0.34272 0.0
H423 H 0.59293 0.73269 0.36218 0.0
H424 H 0.51318 0.95155 0.34964 0.0
H425 H 0.4208 0.92986 0.41533 0.0
H426 H 0.42788 0.74364 0.35934 0.0
C427 C 0.63556 0.79125 0.21336 0.0
C428 C 0.67566 0.83909 0.19548 0.0
C429 C 0.66946 0.89515 0.22615 0.0
C430 C 0.62088 0.90561 0.26864 0.0
C431 C 0.57943 0.85906 0.28185 0.0
C432 C 0.58798 0.80217 0.25759 0.0
C433 C 0.53752 0.75983 0.28177 0.0
C434 C 0.49973 0.73126 0.22878 0.0
C435 C 0.56664 0.71174 0.32313 0.0
C436 C 0.49748 0.80248 0.31974 0.0
C437 C 0.52239 0.85962 0.31905 0.0
C438 C 0.49363 0.90674 0.35079 0.0
C439 C 0.44027 0.89435 0.38698 0.0
C440 C 0.41585 0.83545 0.39115 0.0
C441 C 0.44435 0.78935 0.35592 0.0
H442 H 0.45199 0.93159 0.66802 0.0
H443 H 0.34811 0.76681 0.69779 0.0
H444 H 0.42458 0.73852 0.77836 0.0
H445 H 0.60084 0.87686 0.67808 0.0
H446 H 0.6349 0.9385 0.7209 0.0
H447 H 0.56795 0.95068 0.67216 0.0
H448 H 0.50504 0.99429 0.76474 0.0
H449 H 0.57323 0.98526 0.81253 0.0
H450 H 0.49961 0.95227 0.83546 0.0
H451 H 0.5311 0.71507 0.83064 0.0
H452 H 0.62283 0.72252 0.89891 0.0
H453 H 0.64986 0.907 0.84757 0.0
C454 C 0.44375 0.89034 0.6928 0.0
C455 C 0.3944 0.85057 0.67474 0.0
C456 C 0.38521 0.798 0.70992 0.0
C457 C 0.42939 0.78102 0.7551 0.0
C458 C 0.48228 0.81721 0.76484 0.0
C459 C 0.48727 0.87276 0.73792 0.0
C460 C 0.54662 0.90507 0.75931 0.0
C461 C 0.5901 0.91858 0.70431 0.0
C462 C 0.53016 0.96261 0.79518 0.0
C463 C 0.57529 0.85833 0.8014 0.0
C464 C 0.53869 0.80706 0.80164 0.0
C465 C 0.55823 0.75614 0.83277 0.0
C466 C 0.61208 0.76011 0.87022 0.0
C467 C 0.64303 0.81554 0.88109 0.0
C468 C 0.62772 0.86363 0.84117 0.0
H469 H 0.43092 0.32789 0.87641 0.0
H470 H 0.36207 0.1455 0.88031 0.0
H471 H 0.44052 0.1173 0.80041 0.0
H472 H 0.46412 0.33142 0.70704 0.0
H473 H 0.53202 0.37865 0.7183 0.0
H474 H 0.46682 0.38393 0.77088 0.0
H475 H 0.54225 0.36477 0.86226 0.0
H476 H 0.60733 0.35738 0.80981 0.0
H477 H 0.58861 0.29766 0.86246 0.0
H478 H 0.53621 0.10764 0.73066 0.0
H479 H 0.62563 0.11979 0.6596 0.0
H480 H 0.62709 0.31112 0.69461 0.0
C481 C 0.43045 0.28269 0.85837 0.0
C482 C 0.38907 0.23929 0.88305 0.0
C483 C 0.39185 0.1798 0.86048 0.0
C484 C 0.43697 0.16334 0.81589 0.0
C485 C 0.4786 0.20709 0.79419 0.0
C486 C 0.47442 0.26596 0.81338 0.0
C487 C 0.52476 0.30448 0.78342 0.0
C488 C 0.49513 0.35248 0.74247 0.0
C489 C 0.56829 0.33273 0.83243 0.0
C490 C 0.5589 0.25804 0.74478 0.0
C491 C 0.532 0.20198 0.75248 0.0
C492 C 0.55661 0.15153 0.72351 0.0
C493 C 0.6077 0.15892 0.68334 0.0
C494 C 0.63312 0.21645 0.67076 0.0
C495 C 0.60937 0.26648 0.70353 0.0
H496 H 0.11916 0.62842 0.35216 0.0
H497 H 0.1731 0.81581 0.34626 0.0
H498 H 0.09325 0.83254 0.26535 0.0
H499 H 0.08742 0.61128 0.18691 0.0
H500 H 0.02122 0.56178 0.19778 0.0
H501 H 0.08471 0.56255 0.25261 0.0
H502 H 1.01022 0.58531 0.34348 0.0
H503 H 0.94543 0.58191 0.29028 0.0
H504 H 0.95737 0.64749 0.33784 0.0
H505 H 0.99455 0.8313 0.19704 0.0
H506 H 0.90769 0.8075 0.12592 0.0
H507 H 0.92143 0.61993 0.17224 0.0
C508 C 0.11609 0.67266 0.33237 0.0
C509 C 0.15273 0.72091 0.35634 0.0
C510 C 0.14633 0.77795 0.32884 0.0
C511 C 0.1001 0.78808 0.28352 0.0
C512 C 0.06118 0.74051 0.26518 0.0
C513 C 0.07028 0.68347 0.28729 0.0
C514 C 0.02264 0.63972 0.26013 0.0
C515 C 0.05586 0.59097 0.22199 0.0
C516 C 0.98156 0.61195 0.31101 0.0
C517 C 0.98452 0.68109 0.21957 0.0
C518 C 1.00686 0.73924 0.22398 0.0
C519 C 0.97798 0.7856 0.19222 0.0
C520 C 0.92809 0.77166 0.15189 0.0
C521 C 0.90854 0.71164 0.14155 0.0
C522 C 0.93517 0.66632 0.17865 0.0
H523 H 0.89077 0.25489 0.35635 0.0
H524 H 0.8903 0.4455 0.39358 0.0
H525 H 0.97182 0.46056 0.31342 0.0
H526 H 0.05708 0.24649 0.344 0.0
H527 H 0.05278 0.18666 0.28791 0.0
H528 H 0.99063 0.19631 0.34344 0.0
H529 H 0.91672 0.19669 0.25009 0.0
H530 H 0.9778 0.19841 0.19253 0.0
H531 H 0.92027 0.2573 0.19622 0.0
H532 H 0.06339 0.45206 0.23739 0.0
H533 H 0.14407 0.42255 0.16018 0.0
H534 H 0.0871 0.2371 0.17946 0.0
C535 C 0.90523 0.30008 0.34498 0.0
C536 C 0.88263 0.34934 0.37917 0.0
C537 C 0.90559 0.40756 0.36607 0.0
C538 C 0.95274 0.4163 0.32157 0.0
C539 C 0.97732 0.36613 0.29173 0.0
C540 C 0.95393 0.30923 0.30269 0.0
C541 C 0.99123 0.26219 0.26855 0.0
C542 C 0.02483 0.2204 0.31373 0.0
C543 C 0.94905 0.22648 0.22405 0.0
C544 C 0.03785 0.30152 0.23482 0.0
C545 C 0.03024 0.36125 0.24965 0.0
C546 C 0.06961 0.40544 0.22523 0.0
C547 C 0.11603 0.38828 0.18235 0.0
C548 C 0.12222 0.32757 0.16454 0.0
C549 C 0.08374 0.28382 0.19267 0.0
H550 H 0.06301 0.26887 0.89839 0.0
H551 H 0.14015 0.44575 0.86986 0.0
H552 H 0.06085 0.46217 0.78694 0.0
H553 H 1.00238 0.22488 0.76132 0.0
H554 H 0.92847 0.19797 0.79089 0.0
H555 H 0.99697 0.19976 0.83829 0.0
H556 H 0.93609 0.26386 0.91988 0.0
H557 H 0.86842 0.26412 0.87102 0.0
H558 H 0.90289 0.33371 0.8973 0.0
H559 H 0.97157 0.45049 0.7 0.0
H560 H 0.89105 0.41329 0.62636 0.0
H561 H 0.85457 0.26183 0.74419 0.0
C562 C 0.06364 0.31126 0.87547 0.0
C563 C 0.10902 0.35533 0.8905 0.0
C564 C 0.10761 0.41014 0.85786 0.0
C565 C 0.06164 0.4203 0.81177 0.0
C566 C 0.01456 0.37705 0.80237 0.0
C567 C 0.01463 0.32449 0.8354 0.0
C568 C 0.95589 0.28783 0.82408 0.0
C569 C 0.9715 0.22396 0.80223 0.0
C570 C 0.91337 0.28736 0.88147 0.0
C571 C 0.92577 0.32386 0.77403 0.0
C572 C 0.95935 0.37574 0.76186 0.0
C573 C 0.94411 0.41107 0.71097 0.0
C574 C 0.89705 0.39031 0.66988 0.0
C575 C 0.86552 0.33508 0.68038 0.0
C576 C 0.87639 0.30502 0.73616 0.0
H577 H 0.11083 0.6577 0.66906 0.0
H578 H 0.118 0.84738 0.6315 0.0
H579 H 0.02744 0.86394 0.70005 0.0
H580 H 0.95407 0.6373 0.67564 0.0
H581 H 0.94588 0.59095 0.74332 0.0
H582 H 0.0168 0.58936 0.69823 0.0
H583 H 0.08636 0.61674 0.78818 0.0
H584 H 0.01984 0.61495 0.83945 0.0
H585 H 0.06924 0.68064 0.83622 0.0
H586 H 0.92908 0.85868 0.76364 0.0
H587 H 0.84763 0.83761 0.84169 0.0
H588 H 0.90708 0.65237 0.84701 0.0
C589 C 0.09496 0.70294 0.67755 0.0
C590 C 0.12256 0.7518 0.64588 0.0
C591 C 0.09876 0.8099 0.65649 0.0
C592 C 0.04658 0.81949 0.69463 0.0
C593 C 0.01891 0.77043 0.72338 0.0
C594 C 0.04383 0.71364 0.71766 0.0
C595 C 1.00659 0.66944 0.75662 0.0
C596 C 0.97908 0.61881 0.71611 0.0
C597 C 0.04789 0.64395 0.80822 0.0
C598 C 0.95578 0.71005 0.78317 0.0
C599 C 0.96346 0.76793 0.76255 0.0
C600 C 0.92292 0.81363 0.78073 0.0
C601 C 0.87586 0.80101 0.82447 0.0
C602 C 0.8703 0.74336 0.85078 0.0
C603 C 0.90937 0.69683 0.82751 0.0
loop_
_geom_bond_atom_site_label_1
_geom_bond_atom_site_label_2
_geom_bond_distance
_geom_bond_site_symmetry_2
_ccdc_geom_bond_type
Co0 N1 2.034 1_455 S
Co0 O15 2.262 1_554 S
Co0 O19 1.958 . S
Co0 O23 1.950 1_554 S
Co0 O24 2.057 1_554 S
N1 Co0 2.034 1_655 S
N1 C2 1.366 . S
N1 C4 1.332 1_554 S
C2 N1 1.366 . S
C2 C5 1.377 . S
C2 H34 0.931 . S
N3 C4 1.342 1_554 S
N3 C5 1.349 . S
C4 N1 1.332 1_556 S
C4 N3 1.342 1_556 S
C4 C38 1.361 . S
C5 C2 1.377 . S
C5 N3 1.349 . S
C5 H41 0.930 . S
Co6 N7 2.034 1_554 S
Co6 O20 1.950 1_554 S
Co6 O21 2.262 . S
Co6 O22 1.958 . S
Co6 O26 2.057 . S
N7 Co6 2.034 1_556 S
N7 C10 1.366 . S
N7 C11 1.332 . S
N8 C9 1.337 . S
N8 C11 1.346 . S
C9 N8 1.337 . S
C9 C10 1.377 . S
C9 H42 0.930 . S
C10 N7 1.366 . S
C10 C9 1.377 . S
C10 H14 0.931 . S
C11 N7 1.332 . S
C11 N8 1.346 . S
C11 C28 1.361 . S
Co12 O15 2.097 1_554 S
Co12 O16 2.065 1_554 S
Co12 O17 2.065 . S
Co12 O18 2.042 . S
Co12 O21 2.097 . S
Co12 O25 2.042 1_554 S
C13 O21 1.253 . S
C13 O26 1.263 . S
H14 C10 0.931 . S
O15 Co0 2.262 1_556 S
O15 Co12 2.097 1_556 S
O15 C39 1.253 . S
O16 Co12 2.065 1_556 S
O16 C32 1.221 . S
O17 Co12 2.065 . S
O17 C27 1.221 . S
O18 Co12 2.042 . S
O18 C33 1.237 . S
O19 Co0 1.958 . S
O19 C33 1.278 . S
O20 Co6 1.950 1_556 S
O20 C32 1.277 . S
O21 Co6 2.262 . S
O21 Co12 2.097 . S
O21 C13 1.253 . S
O22 Co6 1.958 . S
O22 C40 1.278 . S
O23 Co0 1.950 1_556 S
O23 C27 1.277 1_556 S
O24 Co0 2.057 1_556 S
O24 C39 1.263 . S
O25 Co12 2.042 1_556 S
O25 C40 1.237 1_556 S
O26 Co6 2.057 . S
O26 C13 1.263 . S
C27 O17 1.221 . S
C27 O23 1.277 1_554 S
C28 C11 1.361 . S
C28 H29 0.960 . S
C28 H30 0.961 . S
C28 H31 0.961 1_556 S
H29 C28 0.960 . S
H30 C28 0.961 . S
H31 C28 0.961 1_554 S
C32 O16 1.221 . S
C32 O20 1.277 . S
C33 O18 1.237 . S
C33 O19 1.278 . S
H34 C2 0.931 . S
H35 C38 0.961 . S
H36 C38 0.961 . S
H37 C38 0.960 1_455 S
C38 C4 1.361 . S
C38 H35 0.961 . S
C38 H36 0.961 . S
C38 H37 0.960 1_655 S
C39 O15 1.253 . S
C39 O24 1.263 . S
C40 O22 1.278 . S
C40 O25 1.237 1_554 S
H41 C5 0.930 . S
H42 C9 0.930 . S
Co43 N44 2.034 . S
Co43 O58 2.262 1_554 S
Co43 O62 1.958 . S
Co43 O66 1.950 1_554 S
Co43 O67 2.057 1_554 S
N44 Co43 2.034 . S
N44 C45 1.366 . S
N44 C47 1.332 1_554 S
C45 N44 1.366 . S
C45 C48 1.377 . S
C45 H77 0.931 . S
N46 C47 1.342 1_554 S
N46 C48 1.349 . S
C47 N44 1.332 1_556 S
C47 N46 1.342 1_556 S
C47 C81 1.361 . S
C48 C45 1.377 . S
C48 N46 1.349 . S
C48 H84 0.930 . S
Co49 N50 2.034 1_554 S
Co49 O63 1.950 1_554 S
Co49 O64 2.262 . S
Co49 O65 1.958 . S
Co49 O69 2.057 . S
N50 Co49 2.034 1_556 S
N50 C53 1.366 1_655 S
N50 C54 1.332 1_655 S
N51 C52 1.337 . S
N51 C54 1.346 . S
C52 N51 1.337 . S
C52 C53 1.377 . S
C52 H85 0.930 . S
C53 N50 1.366 1_455 S
C53 C52 1.377 . S
C53 H57 0.927 1_455 S
C54 N50 1.332 1_455 S
C54 N51 1.346 . S
C54 C71 1.361 . S
Co55 O58 2.097 1_554 S
Co55 O59 2.065 1_554 S
Co55 O60 2.065 . S
Co55 O61 2.042 . S
Co55 O64 2.097 . S
Co55 O68 2.042 1_554 S
C56 O64 1.253 . S
C56 O69 1.263 . S
H57 C53 0.927 1_655 S
O58 Co43 2.262 1_556 S
O58 Co55 2.097 1_556 S
O58 C82 1.253 . S
O59 Co55 2.065 1_556 S
O59 C75 1.221 . S
O60 Co55 2.065 . S
O60 C70 1.221 . S
O61 Co55 2.042 . S
O61 C76 1.237 . S
O62 Co43 1.958 . S
O62 C76 1.278 . S
O63 Co49 1.950 1_556 S
O63 C75 1.277 . S
O64 Co49 2.262 . S
O64 Co55 2.097 . S
O64 C56 1.253 . S
O65 Co49 1.958 . S
O65 C83 1.278 . S
O66 Co43 1.950 1_556 S
O66 C70 1.277 1_556 S
O67 Co43 2.057 1_556 S
O67 C82 1.263 . S
O68 Co55 2.042 1_556 S
O68 C83 1.237 1_556 S
O69 Co49 2.057 . S
O69 C56 1.263 . S
C70 O60 1.221 . S
C70 O66 1.277 1_554 S
C71 C54 1.361 . S
C71 H72 0.960 1_455 S
C71 H73 0.961 . S
C71 H74 0.961 1_556 S
H72 C71 0.960 1_655 S
H73 C71 0.961 . S
H74 C71 0.961 1_554 S
C75 O59 1.221 . S
C75 O63 1.277 . S
C76 O61 1.237 . S
C76 O62 1.278 . S
H77 C45 0.931 . S
H78 C81 0.961 . S
H79 C81 0.961 . S
H80 C81 0.960 . S
C81 C47 1.361 . S
C81 H78 0.961 . S
C81 H79 0.961 . S
C81 H80 0.960 . S
C82 O58 1.253 . S
C82 O67 1.263 . S
C83 O65 1.278 . S
C83 O68 1.237 1_554 S
H84 C48 0.930 . S
H85 C52 0.930 . S
Co86 N87 2.034 . S
Co86 O101 2.262 . S
Co86 O105 1.958 . S
Co86 O109 1.950 . S
Co86 O110 2.057 . S
N87 Co86 2.034 . S
N87 C88 1.366 . S
N87 C90 1.332 . S
C88 N87 1.366 . S
C88 C91 1.377 . S
C88 H120 0.931 . S
N89 C90 1.346 . S
N89 C91 1.337 . S
C90 N87 1.332 . S
C90 N89 1.346 . S
C90 C124 1.361 . S
C91 C88 1.377 . S
C91 N89 1.337 . S
C91 H127 0.930 . S
Co92 N93 2.034 . S
Co92 O106 1.950 . S
Co92 O107 2.262 . S
Co92 O108 1.958 . S
Co92 O112 2.057 . S
N93 Co92 2.034 . S
N93 C96 1.366 1_455 S
N93 C97 1.332 1_455 S
N94 C95 1.337 . S
N94 C97 1.346 . S
C95 N94 1.337 . S
C95 C96 1.377 . S
C95 H128 0.930 . S
C96 N93 1.366 1_655 S
C96 C95 1.377 . S
C96 H100 0.927 1_655 S
C97 N93 1.332 1_655 S
C97 N94 1.346 . S
C97 C114 1.361 . S
Co98 O101 2.097 . S
Co98 O102 2.065 . S
Co98 O103 2.065 . S
Co98 O104 2.042 . S
Co98 O107 2.097 . S
Co98 O111 2.042 . S
C99 O107 1.253 . S
C99 O112 1.263 . S
H100 C96 0.927 1_455 S
O101 Co86 2.262 . S
O101 Co98 2.097 . S
O101 C125 1.253 . S
O102 Co98 2.065 . S
O102 C118 1.221 . S
O103 Co98 2.065 . S
O103 C113 1.221 . S
O104 Co98 2.042 . S
O104 C119 1.237 . S
O105 Co86 1.958 . S
O105 C119 1.278 . S
O106 Co92 1.950 . S
O106 C118 1.277 . S
O107 Co92 2.262 . S
O107 Co98 2.097 . S
O107 C99 1.253 . S
O108 Co92 1.958 . S
O108 C126 1.278 . S
O109 Co86 1.950 . S
O109 C113 1.277 . S
O110 Co86 2.057 . S
O110 C125 1.263 . S
O111 Co98 2.042 . S
O111 C126 1.237 . S
O112 Co92 2.057 . S
O112 C99 1.263 . S
C113 O103 1.221 . S
C113 O109 1.277 . S
C114 C97 1.361 . S
C114 H115 0.960 1_655 S
C114 H116 0.961 . S
C114 H117 0.961 . S
H115 C114 0.960 1_455 S
H116 C114 0.961 . S
H117 C114 0.961 . S
C118 O102 1.221 . S
C118 O106 1.277 . S
C119 O104 1.237 . S
C119 O105 1.278 . S
H120 C88 0.931 . S
H121 C124 0.961 . S
H122 C124 0.961 . S
H123 C124 0.960 . S
C124 C90 1.361 . S
C124 H121 0.961 . S
C124 H122 0.961 . S
C124 H123 0.960 . S
C125 O101 1.253 . S
C125 O110 1.263 . S
C126 O108 1.278 . S
C126 O111 1.237 . S
H127 C91 0.930 . S
H128 C95 0.930 . S
Co129 N130 2.034 . S
Co129 O144 2.262 . S
Co129 O148 1.958 . S
Co129 O152 1.950 . S
Co129 O153 2.057 . S
N130 Co129 2.034 . S
N130 C131 1.366 . S
N130 C133 1.332 . S
C131 N130 1.366 . S
C131 C134 1.377 . S
C131 H163 0.931 . S
N132 C133 1.346 . S
N132 C134 1.337 . S
C133 N130 1.332 . S
C133 N132 1.346 . S
C133 C167 1.361 . S
C134 C131 1.377 . S
C134 N132 1.337 . S
C134 H170 0.930 . S
Co135 N136 2.034 1_655 S
Co135 O149 1.950 . S
Co135 O150 2.262 . S
Co135 O151 1.958 . S
Co135 O155 2.057 . S
N136 Co135 2.034 1_455 S
N136 C139 1.366 . S
N136 C140 1.332 . S
N137 C138 1.337 . S
N137 C140 1.346 . S
C138 N137 1.337 . S
C138 C139 1.377 . S
C138 H171 0.930 . S
C139 N136 1.366 . S
C139 C138 1.377 . S
C139 H143 0.931 . S
C140 N136 1.332 . S
C140 N137 1.346 . S
C140 C157 1.361 . S
Co141 O144 2.097 . S
Co141 O145 2.065 . S
Co141 O146 2.065 . S
Co141 O147 2.042 . S
Co141 O150 2.097 . S
Co141 O154 2.042 . S
C142 O150 1.253 . S
C142 O155 1.263 . S
H143 C139 0.931 . S
O144 Co129 2.262 . S
O144 Co141 2.097 . S
O144 C168 1.253 . S
O145 Co141 2.065 . S
O145 C161 1.221 . S
O146 Co141 2.065 . S
O146 C156 1.221 . S
O147 Co141 2.042 . S
O147 C162 1.237 . S
O148 Co129 1.958 . S
O148 C162 1.278 . S
O149 Co135 1.950 . S
O149 C161 1.277 . S
O150 Co135 2.262 . S
O150 Co141 2.097 . S
O150 C142 1.253 . S
O151 Co135 1.958 . S
O151 C169 1.278 . S
O152 Co129 1.950 . S
O152 C156 1.277 . S
O153 Co129 2.057 . S
O153 C168 1.263 . S
O154 Co141 2.042 . S
O154 C169 1.237 . S
O155 Co135 2.057 . S
O155 C142 1.263 . S
C156 O146 1.221 . S
C156 O152 1.277 . S
C157 C140 1.361 . S
C157 H158 0.960 1_455 S
C157 H159 0.961 . S
C157 H160 0.961 . S
H158 C157 0.960 1_655 S
H159 C157 0.961 . S
H160 C157 0.961 . S
C161 O145 1.221 . S
C161 O149 1.277 . S
C162 O147 1.237 . S
C162 O148 1.278 . S
H163 C131 0.931 . S
H164 C167 0.961 . S
H165 C167 0.961 . S
H166 C167 0.960 . S
C167 C133 1.361 . S
C167 H164 0.961 . S
C167 H165 0.961 . S
C167 H166 0.960 . S
C168 O144 1.253 . S
C168 O153 1.263 . S
C169 O151 1.278 . S
C169 O154 1.237 . S
H170 C134 0.930 . S
H171 C138 0.930 . S
H172 C184 0.930 . S
H173 C186 0.930 . S
H174 C187 0.930 . S
H175 C191 0.959 . S
H176 C191 0.959 . S
H177 C191 0.961 . S
H178 C192 0.960 . S
H179 C192 0.961 . S
H180 C192 0.959 . S
H181 C195 0.929 . S
H182 C196 0.931 . S
H183 C198 0.930 . S
C184 H172 0.930 . S
C184 C185 1.399 1_556 S
C184 C189 1.399 . S
C185 C184 1.399 1_554 S
C185 C186 1.376 . S
C186 H173 0.930 . S
C186 C185 1.376 . S
C186 C187 1.388 . S
C187 H174 0.930 . S
C187 C186 1.388 . S
C187 C188 1.390 . S
C188 C187 1.390 . S
C188 C189 1.394 1_554 S
C188 C194 1.465 . S
C189 C184 1.399 . S
C189 C188 1.394 1_556 S
C189 C190 1.516 . S
C190 C189 1.516 . S
C190 C191 1.502 . S
C190 C192 1.561 . S
C190 C193 1.526 . S
C191 H175 0.959 . S
C191 H176 0.959 . S
C191 H177 0.961 . S
C191 C190 1.502 . S
C192 H178 0.960 . S
C192 H179 0.961 . S
C192 H180 0.959 . S
C192 C190 1.561 . S
C193 C190 1.526 . S
C193 C194 1.396 1_556 S
C193 C198 1.390 . S
C194 C188 1.465 . S
C194 C193 1.396 1_554 S
C194 C195 1.399 . S
C195 H181 0.929 . S
C195 C194 1.399 . S
C195 C196 1.385 . S
C196 H182 0.931 . S
C196 C195 1.385 . S
C196 C197 1.389 1_554 S
C197 C196 1.389 1_556 S
C197 C198 1.387 . S
C198 H183 0.930 . S
C198 C193 1.390 . S
C198 C197 1.387 . S
H199 C211 0.930 . S
H200 C213 0.930 . S
H201 C214 0.930 . S
H202 C218 0.959 . S
H203 C218 0.959 . S
H204 C218 0.961 . S
H205 C219 0.960 . S
H206 C219 0.961 . S
H207 C219 0.959 . S
H208 C222 0.929 . S
H209 C223 0.931 . S
H210 C225 0.930 . S
C211 H199 0.930 . S
C211 C212 1.399 1_556 S
C211 C216 1.399 . S
C212 C211 1.399 1_554 S
C212 C213 1.376 . S
C213 H200 0.930 . S
C213 C212 1.376 . S
C213 C214 1.388 . S
C214 H201 0.930 . S
C214 C213 1.388 . S
C214 C215 1.390 . S
C215 C214 1.390 . S
C215 C216 1.394 1_554 S
C215 C221 1.465 . S
C216 C211 1.399 . S
C216 C215 1.394 1_556 S
C216 C217 1.516 . S
C217 C216 1.516 . S
C217 C218 1.502 . S
C217 C219 1.561 . S
C217 C220 1.526 . S
C218 H202 0.959 . S
C218 H203 0.959 . S
C218 H204 0.961 . S
C218 C217 1.502 . S
C219 H205 0.960 . S
C219 H206 0.961 . S
C219 H207 0.959 . S
C219 C217 1.561 . S
C220 C217 1.526 . S
C220 C221 1.396 1_556 S
C220 C225 1.390 . S
C221 C215 1.465 . S
C221 C220 1.396 1_554 S
C221 C222 1.399 . S
C222 H208 0.929 . S
C222 C221 1.399 . S
C222 C223 1.385 . S
C223 H209 0.931 . S
C223 C222 1.385 . S
C223 C224 1.389 1_554 S
C224 C223 1.389 1_556 S
C224 C225 1.387 . S
C225 H210 0.930 . S
C225 C220 1.390 . S
C225 C224 1.387 . S
H226 C238 0.930 . S
H227 C240 0.930 . S
H228 C241 0.930 . S
H229 C245 0.959 . S
H230 C245 0.959 . S
H231 C245 0.961 . S
H232 C246 0.960 . S
H233 C246 0.961 . S
H234 C246 0.959 . S
H235 C249 0.929 . S
H236 C250 0.931 . S
H237 C252 0.930 . S
C238 H226 0.930 . S
C238 C239 1.399 . S
C238 C243 1.399 . S
C239 C238 1.399 . S
C239 C240 1.376 . S
C240 H227 0.930 . S
C240 C239 1.376 . S
C240 C241 1.388 . S
C241 H228 0.930 . S
C241 C240 1.388 . S
C241 C242 1.390 . S
C242 C241 1.390 . S
C242 C243 1.394 . S
C242 C248 1.465 . S
C243 C238 1.399 . S
C243 C242 1.394 . S
C243 C244 1.516 . S
C244 C243 1.516 . S
C244 C245 1.502 . S
C244 C246 1.561 . S
C244 C247 1.526 . S
C245 H229 0.959 . S
C245 H230 0.959 . S
C245 H231 0.961 . S
C245 C244 1.502 . S
C246 H232 0.960 . S
C246 H233 0.961 . S
C246 H234 0.959 . S
C246 C244 1.561 . S
C247 C244 1.526 . S
C247 C248 1.396 . S
C247 C252 1.390 . S
C248 C242 1.465 . S
C248 C247 1.396 . S
C248 C249 1.399 . S
C249 H235 0.929 . S
C249 C248 1.399 . S
C249 C250 1.385 . S
C250 H236 0.931 . S
C250 C249 1.385 . S
C250 C251 1.389 . S
C251 C250 1.389 . S
C251 C252 1.387 . S
C252 H237 0.930 . S
C252 C247 1.390 . S
C252 C251 1.387 . S
H253 C265 0.930 . S
H254 C267 0.930 . S
H255 C268 0.930 . S
H256 C272 0.959 . S
H257 C272 0.959 . S
H258 C272 0.961 . S
H259 C273 0.960 . S
H260 C273 0.961 . S
H261 C273 0.959 . S
H262 C276 0.929 . S
H263 C277 0.931 . S
H264 C279 0.930 . S
C265 H253 0.930 . S
C265 C266 1.399 . S
C265 C270 1.399 . S
C266 C265 1.399 . S
C266 C267 1.376 . S
C267 H254 0.930 . S
C267 C266 1.376 . S
C267 C268 1.388 . S
C268 H255 0.930 . S
C268 C267 1.388 . S
C268 C269 1.390 . S
C269 C268 1.390 . S
C269 C270 1.394 . S
C269 C275 1.465 . S
C270 C265 1.399 . S
C270 C269 1.394 . S
C270 C271 1.516 . S
C271 C270 1.516 . S
C271 C272 1.502 . S
C271 C273 1.561 . S
C271 C274 1.526 . S
C272 H256 0.959 . S
C272 H257 0.959 . S
C272 H258 0.961 . S
C272 C271 1.502 . S
C273 H259 0.960 . S
C273 H260 0.961 . S
C273 H261 0.959 . S
C273 C271 1.561 . S
C274 C271 1.526 . S
C274 C275 1.396 . S
C274 C279 1.390 . S
C275 C269 1.465 . S
C275 C274 1.396 . S
C275 C276 1.399 . S
C276 H262 0.929 . S
C276 C275 1.399 . S
C276 C277 1.385 . S
C277 H263 0.931 . S
C277 C276 1.385 . S
C277 C278 1.389 . S
C278 C277 1.389 . S
C278 C279 1.387 . S
C279 H264 0.930 . S
C279 C274 1.390 . S
C279 C278 1.387 . S
H280 C292 0.930 . S
H281 C294 0.930 . S
H282 C295 0.930 . S
H283 C299 0.959 . S
H284 C299 0.959 . S
H285 C299 0.961 . S
H286 C300 0.960 . S
H287 C300 0.961 . S
H288 C300 0.959 . S
H289 C303 0.929 . S
H290 C304 0.931 . S
H291 C306 0.930 . S
C292 H280 0.930 . S
C292 C293 1.399 1_554 S
C292 C297 1.399 . S
C293 C292 1.399 1_556 S
C293 C294 1.376 . S
C294 H281 0.930 . S
C294 C293 1.376 . S
C294 C295 1.388 . S
C295 H282 0.930 . S
C295 C294 1.388 . S
C295 C296 1.390 . S
C296 C295 1.390 . S
C296 C297 1.394 1_556 S
C296 C302 1.465 . S
C297 C292 1.399 . S
C297 C296 1.394 1_554 S
C297 C298 1.516 . S
C298 C297 1.516 . S
C298 C299 1.502 . S
C298 C300 1.561 . S
C298 C301 1.526 . S
C299 H283 0.959 . S
C299 H284 0.959 . S
C299 H285 0.961 . S
C299 C298 1.502 . S
C300 H286 0.960 . S
C300 H287 0.961 . S
C300 H288 0.959 . S
C300 C298 1.561 . S
C301 C298 1.526 . S
C301 C302 1.396 1_554 S
C301 C306 1.390 . S
C302 C296 1.465 . S
C302 C301 1.396 1_556 S
C302 C303 1.399 . S
C303 H289 0.929 . S
C303 C302 1.399 . S
C303 C304 1.385 . S
C304 H290 0.931 . S
C304 C303 1.385 . S
C304 C305 1.389 . S
C305 C304 1.389 . S
C305 C306 1.387 1_556 S
C306 H291 0.930 . S
C306 C301 1.390 . S
C306 C305 1.387 1_554 S
H307 C319 0.930 . S
H308 C321 0.930 . S
H309 C322 0.930 . S
H310 C326 0.959 . S
H311 C326 0.959 . S
H312 C326 0.961 . S
H313 C327 0.960 . S
H314 C327 0.961 . S
H315 C327 0.959 . S
H316 C330 0.929 . S
H317 C331 0.931 . S
H318 C333 0.930 . S
C319 H307 0.930 . S
C319 C320 1.399 . S
C319 C324 1.399 . S
C320 C319 1.399 . S
C320 C321 1.376 . S
C321 H308 0.930 . S
C321 C320 1.376 . S
C321 C322 1.388 . S
C322 H309 0.930 . S
C322 C321 1.388 . S
C322 C323 1.390 . S
C323 C322 1.390 . S
C323 C324 1.394 . S
C323 C329 1.465 . S
C324 C319 1.399 . S
C324 C323 1.394 . S
C324 C325 1.516 . S
C325 C324 1.516 . S
C325 C326 1.502 . S
C325 C327 1.561 . S
C325 C328 1.526 . S
C326 H310 0.959 . S
C326 H311 0.959 . S
C326 H312 0.961 . S
C326 C325 1.502 . S
C327 H313 0.960 . S
C327 H314 0.961 . S
C327 H315 0.959 . S
C327 C325 1.561 . S
C328 C325 1.526 . S
C328 C329 1.396 . S
C328 C333 1.390 . S
C329 C323 1.465 . S
C329 C328 1.396 . S
C329 C330 1.399 . S
C330 H316 0.929 . S
C330 C329 1.399 . S
C330 C331 1.385 . S
C331 H317 0.931 . S
C331 C330 1.385 . S
C331 C332 1.389 . S
C332 C331 1.389 . S
C332 C333 1.387 . S
C333 H318 0.930 . S
C333 C328 1.390 . S
C333 C332 1.387 . S
H334 C346 0.930 . S
H335 C348 0.930 . S
H336 C349 0.930 1_565 S
H337 C353 0.959 . S
H338 C353 0.959 . S
H339 C353 0.961 . S
H340 C354 0.960 1_545 S
H341 C354 0.961 1_655 S
H342 C354 0.959 . S
H343 C357 0.929 . S
H344 C358 0.931 . S
H345 C360 0.930 . S
C346 H334 0.930 . S
C346 C347 1.399 1_556 S
C346 C351 1.399 . S
C347 C346 1.399 1_554 S
C347 C348 1.376 . S
C348 H335 0.930 . S
C348 C347 1.376 . S
C348 C349 1.388 . S
C349 H336 0.930 1_545 S
C349 C348 1.388 . S
C349 C350 1.390 . S
C350 C349 1.390 . S
C350 C351 1.394 1_554 S
C350 C356 1.465 1_445 S
C351 C346 1.399 . S
C351 C350 1.394 1_556 S
C351 C352 1.516 1_455 S
C352 C351 1.516 1_655 S
C352 C353 1.502 . S
C352 C354 1.561 1_645 S
C352 C355 1.526 1_545 S
C353 H337 0.959 . S
C353 H338 0.959 . S
C353 H339 0.961 . S
C353 C352 1.502 . S
C354 H340 0.960 1_565 S
C354 H341 0.961 1_455 S
C354 H342 0.959 . S
C354 C352 1.561 1_465 S
C355 C352 1.526 1_565 S
C355 C356 1.396 1_556 S
C355 C360 1.390 . S
C356 C350 1.465 1_665 S
C356 C355 1.396 1_554 S
C356 C357 1.399 . S
C357 H343 0.929 . S
C357 C356 1.399 . S
C357 C358 1.385 . S
C358 H344 0.931 . S
C358 C357 1.385 . S
C358 C359 1.389 . S
C359 C358 1.389 . S
C359 C360 1.387 1_554 S
C360 H345 0.930 . S
C360 C355 1.390 . S
C360 C359 1.387 1_556 S
H361 C373 0.930 . S
H362 C375 0.930 . S
H363 C376 0.930 . S
H364 C380 0.959 . S
H365 C380 0.959 . S
H366 C380 0.961 . S
H367 C381 0.960 1_655 S
H368 C381 0.961 . S
H369 C381 0.959 . S
H370 C384 0.929 1_545 S
H371 C385 0.931 . S
H372 C387 0.930 . S
C373 H361 0.930 . S
C373 C374 1.399 . S
C373 C378 1.399 . S
C374 C373 1.399 . S
C374 C375 1.376 . S
C375 H362 0.930 . S
C375 C374 1.376 . S
C375 C376 1.388 . S
C376 H363 0.930 . S
C376 C375 1.388 . S
C376 C377 1.390 . S
C377 C376 1.390 . S
C377 C378 1.394 . S
C377 C383 1.465 1_655 S
C378 C373 1.399 . S
C378 C377 1.394 . S
C378 C379 1.516 1_545 S
C379 C378 1.516 1_565 S
C379 C380 1.502 . S
C379 C381 1.561 1_665 S
C379 C382 1.526 1_655 S
C380 H364 0.959 . S
C380 H365 0.959 . S
C380 H366 0.961 . S
C380 C379 1.502 . S
C381 H367 0.960 1_455 S
C381 H368 0.961 . S
C381 H369 0.959 . S
C381 C379 1.561 1_445 S
C382 C379 1.526 1_455 S
C382 C383 1.396 1_565 S
C382 C387 1.390 . S
C383 C377 1.465 1_455 S
C383 C382 1.396 1_545 S
C383 C384 1.399 1_545 S
C384 H370 0.929 1_565 S
C384 C383 1.399 1_565 S
C384 C385 1.385 . S
C385 H371 0.931 . S
C385 C384 1.385 . S
C385 C386 1.389 . S
C386 C385 1.389 . S
C386 C387 1.387 . S
C387 H372 0.930 . S
C387 C382 1.390 . S
C387 C386 1.387 . S
H388 C400 0.930 . S
H389 C402 0.930 . S
H390 C403 0.930 . S
H391 C407 0.959 . S
H392 C407 0.959 . S
H393 C407 0.961 . S
H394 C408 0.960 . S
H395 C408 0.961 . S
H396 C408 0.959 . S
H397 C411 0.929 . S
H398 C412 0.931 . S
H399 C414 0.930 . S
C400 H388 0.930 . S
C400 C401 1.399 . S
C400 C405 1.399 . S
C401 C400 1.399 . S
C401 C402 1.376 . S
C402 H389 0.930 . S
C402 C401 1.376 . S
C402 C403 1.388 . S
C403 H390 0.930 . S
C403 C402 1.388 . S
C403 C404 1.390 . S
C404 C403 1.390 . S
C404 C405 1.394 . S
C404 C410 1.465 . S
C405 C400 1.399 . S
C405 C404 1.394 . S
C405 C406 1.516 . S
C406 C405 1.516 . S
C406 C407 1.502 . S
C406 C408 1.561 . S
C406 C409 1.526 . S
C407 H391 0.959 . S
C407 H392 0.959 . S
C407 H393 0.961 . S
C407 C406 1.502 . S
C408 H394 0.960 . S
C408 H395 0.961 . S
C408 H396 0.959 . S
C408 C406 1.561 . S
C409 C406 1.526 . S
C409 C410 1.396 . S
C409 C414 1.390 . S
C410 C404 1.465 . S
C410 C409 1.396 . S
C410 C411 1.399 . S
C411 H397 0.929 . S
C411 C410 1.399 . S
C411 C412 1.385 . S
C412 H398 0.931 . S
C412 C411 1.385 . S
C412 C413 1.389 . S
C413 C412 1.389 . S
C413 C414 1.387 . S
C414 H399 0.930 . S
C414 C409 1.390 . S
C414 C413 1.387 . S
H415 C427 0.930 . S
H416 C429 0.930 . S
H417 C430 0.930 . S
H418 C434 0.959 . S
H419 C434 0.959 . S
H420 C434 0.961 . S
H421 C435 0.960 . S
H422 C435 0.961 . S
H423 C435 0.959 . S
H424 C438 0.929 . S
H425 C439 0.931 . S
H426 C441 0.930 . S
C427 H415 0.930 . S
C427 C428 1.399 . S
C427 C432 1.399 . S
C428 C427 1.399 . S
C428 C429 1.376 . S
C429 H416 0.930 . S
C429 C428 1.376 . S
C429 C430 1.388 . S
C430 H417 0.930 . S
C430 C429 1.388 . S
C430 C431 1.390 . S
C431 C430 1.390 . S
C431 C432 1.394 . S
C431 C437 1.465 . S
C432 C427 1.399 . S
C432 C431 1.394 . S
C432 C433 1.516 . S
C433 C432 1.516 . S
C433 C434 1.502 . S
C433 C435 1.561 . S
C433 C436 1.526 . S
C434 H418 0.959 . S
C434 H419 0.959 . S
C434 H420 0.961 . S
C434 C433 1.502 . S
C435 H421 0.960 . S
C435 H422 0.961 . S
C435 H423 0.959 . S
C435 C433 1.561 . S
C436 C433 1.526 . S
C436 C437 1.396 . S
C436 C441 1.390 . S
C437 C431 1.465 . S
C437 C436 1.396 . S
C437 C438 1.399 . S
C438 H424 0.929 . S
C438 C437 1.399 . S
C438 C439 1.385 . S
C439 H425 0.931 . S
C439 C438 1.385 . S
C439 C440 1.389 . S
C440 C439 1.389 . S
C440 C441 1.387 . S
C441 H426 0.930 . S
C441 C436 1.390 . S
C441 C440 1.387 . S
H442 C454 0.930 . S
H443 C456 0.930 . S
H444 C457 0.930 . S
H445 C461 0.959 . S
H446 C461 0.959 . S
H447 C461 0.961 . S
H448 C462 0.960 . S
H449 C462 0.961 . S
H450 C462 0.959 . S
H451 C465 0.929 . S
H452 C466 0.931 . S
H453 C468 0.930 . S
C454 H442 0.930 . S
C454 C455 1.399 . S
C454 C459 1.399 . S
C455 C454 1.399 . S
C455 C456 1.376 . S
C456 H443 0.930 . S
C456 C455 1.376 . S
C456 C457 1.388 . S
C457 H444 0.930 . S
C457 C456 1.388 . S
C457 C458 1.390 . S
C458 C457 1.390 . S
C458 C459 1.394 . S
C458 C464 1.465 . S
C459 C454 1.399 . S
C459 C458 1.394 . S
C459 C460 1.516 . S
C460 C459 1.516 . S
C460 C461 1.502 . S
C460 C462 1.561 . S
C460 C463 1.526 . S
C461 H445 0.959 . S
C461 H446 0.959 . S
C461 H447 0.961 . S
C461 C460 1.502 . S
C462 H448 0.960 . S
C462 H449 0.961 . S
C462 H450 0.959 . S
C462 C460 1.561 . S
C463 C460 1.526 . S
C463 C464 1.396 . S
C463 C468 1.390 . S
C464 C458 1.465 . S
C464 C463 1.396 . S
C464 C465 1.399 . S
C465 H451 0.929 . S
C465 C464 1.399 . S
C465 C466 1.385 . S
C466 H452 0.931 . S
C466 C465 1.385 . S
C466 C467 1.389 . S
C467 C466 1.389 . S
C467 C468 1.387 . S
C468 H453 0.930 . S
C468 C463 1.390 . S
C468 C467 1.387 . S
H469 C481 0.930 . S
H470 C483 0.930 . S
H471 C484 0.930 . S
H472 C488 0.959 . S
H473 C488 0.959 . S
H474 C488 0.961 . S
H475 C489 0.960 . S
H476 C489 0.961 . S
H477 C489 0.959 . S
H478 C492 0.929 . S
H479 C493 0.931 . S
H480 C495 0.930 . S
C481 H469 0.930 . S
C481 C482 1.399 . S
C481 C486 1.399 . S
C482 C481 1.399 . S
C482 C483 1.376 . S
C483 H470 0.930 . S
C483 C482 1.376 . S
C483 C484 1.388 . S
C484 H471 0.930 . S
C484 C483 1.388 . S
C484 C485 1.390 . S
C485 C484 1.390 . S
C485 C486 1.394 . S
C485 C491 1.465 . S
C486 C481 1.399 . S
C486 C485 1.394 . S
C486 C487 1.516 . S
C487 C486 1.516 . S
C487 C488 1.502 . S
C487 C489 1.561 . S
C487 C490 1.526 . S
C488 H472 0.959 . S
C488 H473 0.959 . S
C488 H474 0.961 . S
C488 C487 1.502 . S
C489 H475 0.960 . S
C489 H476 0.961 . S
C489 H477 0.959 . S
C489 C487 1.561 . S
C490 C487 1.526 . S
C490 C491 1.396 . S
C490 C495 1.390 . S
C491 C485 1.465 . S
C491 C490 1.396 . S
C491 C492 1.399 . S
C492 H478 0.929 . S
C492 C491 1.399 . S
C492 C493 1.385 . S
C493 H479 0.931 . S
C493 C492 1.385 . S
C493 C494 1.389 . S
C494 C493 1.389 . S
C494 C495 1.387 . S
C495 H480 0.930 . S
C495 C490 1.390 . S
C495 C494 1.387 . S
H496 C508 0.930 . S
H497 C510 0.930 . S
H498 C511 0.930 . S
H499 C515 0.959 . S
H500 C515 0.959 . S
H501 C515 0.961 . S
H502 C516 0.960 1_455 S
H503 C516 0.961 . S
H504 C516 0.959 . S
H505 C519 0.929 . S
H506 C520 0.931 . S
H507 C522 0.930 . S
C508 H496 0.930 . S
C508 C509 1.399 . S
C508 C513 1.399 . S
C509 C508 1.399 . S
C509 C510 1.376 . S
C510 H497 0.930 . S
C510 C509 1.376 . S
C510 C511 1.388 . S
C511 H498 0.930 . S
C511 C510 1.388 . S
C511 C512 1.390 . S
C512 C511 1.390 . S
C512 C513 1.394 . S
C512 C518 1.465 1_455 S
C513 C508 1.399 . S
C513 C512 1.394 . S
C513 C514 1.516 . S
C514 C513 1.516 . S
C514 C515 1.502 . S
C514 C516 1.561 1_455 S
C514 C517 1.526 1_455 S
C515 H499 0.959 . S
C515 H500 0.959 . S
C515 H501 0.961 . S
C515 C514 1.502 . S
C516 H502 0.960 1_655 S
C516 H503 0.961 . S
C516 H504 0.959 . S
C516 C514 1.561 1_655 S
C517 C514 1.526 1_655 S
C517 C518 1.396 . S
C517 C522 1.390 . S
C518 C512 1.465 1_655 S
C518 C517 1.396 . S
C518 C519 1.399 . S
C519 H505 0.929 . S
C519 C518 1.399 . S
C519 C520 1.385 . S
C520 H506 0.931 . S
C520 C519 1.385 . S
C520 C521 1.389 . S
C521 C520 1.389 . S
C521 C522 1.387 . S
C522 H507 0.930 . S
C522 C517 1.390 . S
C522 C521 1.387 . S
H523 C535 0.930 . S
H524 C537 0.930 . S
H525 C538 0.930 . S
H526 C542 0.959 . S
H527 C542 0.959 . S
H528 C542 0.970 . S
H529 C543 0.960 . S
H530 C543 0.961 . S
H531 C543 0.959 . S
H532 C546 0.929 . S
H533 C547 0.931 . S
H534 C549 0.930 . S
C535 H523 0.930 . S
C535 C536 1.399 . S
C535 C540 1.399 . S
C536 C535 1.399 . S
C536 C537 1.376 . S
C537 H524 0.930 . S
C537 C536 1.376 . S
C537 C538 1.388 . S
C538 H525 0.930 . S
C538 C537 1.388 . S
C538 C539 1.390 . S
C539 C538 1.390 . S
C539 C540 1.394 . S
C539 C545 1.465 1_655 S
C540 C535 1.399 . S
C540 C539 1.394 . S
C540 C541 1.516 . S
C541 C540 1.516 . S
C541 C542 1.502 1_655 S
C541 C543 1.561 . S
C541 C544 1.526 1_655 S
C542 H526 0.959 . S
C542 H527 0.959 . S
C542 H528 0.970 . S
C542 C541 1.502 1_455 S
C543 H529 0.960 . S
C543 H530 0.961 . S
C543 H531 0.959 . S
C543 C541 1.561 . S
C544 C541 1.526 1_455 S
C544 C545 1.396 . S
C544 C549 1.390 . S
C545 C539 1.465 1_455 S
C545 C544 1.396 . S
C545 C546 1.399 . S
C546 H532 0.929 . S
C546 C545 1.399 . S
C546 C547 1.385 . S
C547 H533 0.931 . S
C547 C546 1.385 . S
C547 C548 1.389 . S
C548 C547 1.389 . S
C548 C549 1.387 . S
C549 H534 0.930 . S
C549 C544 1.390 . S
C549 C548 1.387 . S
H550 C562 0.930 . S
H551 C564 0.930 . S
H552 C565 0.930 . S
H553 C569 0.959 1_455 S
H554 C569 0.959 . S
H555 C569 0.961 1_455 S
H556 C570 0.960 . S
H557 C570 0.961 . S
H558 C570 0.959 . S
H559 C573 0.929 . S
H560 C574 0.931 . S
H561 C576 0.930 . S
C562 H550 0.930 . S
C562 C563 1.399 . S
C562 C567 1.399 . S
C563 C562 1.399 . S
C563 C564 1.376 . S
C564 H551 0.930 . S
C564 C563 1.376 . S
C564 C565 1.388 . S
C565 H552 0.930 . S
C565 C564 1.388 . S
C565 C566 1.390 . S
C566 C565 1.390 . S
C566 C567 1.394 . S
C566 C572 1.465 1_455 S
C567 C562 1.399 . S
C567 C566 1.394 . S
C567 C568 1.516 1_455 S
C568 C567 1.516 1_655 S
C568 C569 1.502 . S
C568 C570 1.561 . S
C568 C571 1.526 . S
C569 H553 0.959 1_655 S
C569 H554 0.959 . S
C569 H555 0.961 1_655 S
C569 C568 1.502 . S
C570 H556 0.960 . S
C570 H557 0.961 . S
C570 H558 0.959 . S
C570 C568 1.561 . S
C571 C568 1.526 . S
C571 C572 1.396 . S
C571 C576 1.390 . S
C572 C566 1.465 1_655 S
C572 C571 1.396 . S
C572 C573 1.399 . S
C573 H559 0.929 . S
C573 C572 1.399 . S
C573 C574 1.385 . S
C574 H560 0.931 . S
C574 C573 1.385 . S
C574 C575 1.389 . S
C575 C574 1.389 . S
C575 C576 1.387 . S
C576 H561 0.930 . S
C576 C571 1.390 . S
C576 C575 1.387 . S
H577 C589 0.930 . S
H578 C591 0.930 . S
H579 C592 0.930 . S
H580 C596 0.959 . S
H581 C596 0.959 . S
H582 C596 0.961 . S
H583 C597 0.960 . S
H584 C597 0.961 1_655 S
H585 C597 0.959 . S
H586 C600 0.929 . S
H587 C601 0.931 . S
H588 C603 0.930 . S
C589 H577 0.930 . S
C589 C590 1.399 . S
C589 C594 1.399 . S
C590 C589 1.399 . S
C590 C591 1.376 . S
C591 H578 0.930 . S
C591 C590 1.376 . S
C591 C592 1.388 . S
C592 H579 0.930 . S
C592 C591 1.388 . S
C592 C593 1.390 . S
C593 C592 1.390 . S
C593 C594 1.394 . S
C593 C599 1.465 1_455 S
C594 C589 1.399 . S
C594 C593 1.394 . S
C594 C595 1.516 1_455 S
C595 C594 1.516 1_655 S
C595 C596 1.502 . S
C595 C597 1.561 1_655 S
C595 C598 1.526 . S
C596 H580 0.959 . S
C596 H581 0.959 . S
C596 H582 0.961 . S
C596 C595 1.502 . S
C597 H583 0.960 . S
C597 H584 0.961 1_455 S
C597 H585 0.959 . S
C597 C595 1.561 1_455 S
C598 C595 1.526 . S
C598 C599 1.396 . S
C598 C603 1.390 . S
C599 C593 1.465 1_655 S
C599 C598 1.396 . S
C599 C600 1.399 . S
C600 H586 0.929 . S
C600 C599 1.399 . S
C600 C601 1.385 . S
C601 H587 0.931 . S
C601 C600 1.385 . S
C601 C602 1.389 . S
C602 C601 1.389 . S
C602 C603 1.387 . S
C603 H588 0.930 . S
C603 C598 1.390 . S
C603 C602 1.387 . S
C185 N8 0.387 1_554 S
C197 N3 0.352 1_556 S
C212 N51 0.397 1_554 S
C224 N46 0.361 1_556 S
C239 N89 0.627 . S
C251 N94 0.293 . S
C266 N137 0.528 . S
C278 N132 0.376 . S
C293 C70 1.554 1_556 S
C305 C40 1.606 1_556 S
C320 C162 1.626 . S
C332 C113 1.553 . S
C347 C27 1.629 . S
C359 C83 1.550 . S
C374 C161 1.547 . S
C386 C126 1.613 . S
C401 C168 1.556 . S
C413 C13 1.620 . S
C428 C76 1.495 . S
C440 C119 1.441 . S
C455 C125 1.433 . S
C467 C82 1.447 . S
C482 C32 1.542 . S
C494 C156 1.564 . S
C509 C99 1.558 . S
C521 C56 1.610 . S
C536 C169 1.489 . S
C548 C33 1.465 . S
C563 C39 1.494 . S
C575 C142 1.487 . S
C590 C118 1.521 . S
C602 C75 1.467 . S
