# Generated by pormake.
# Topology snl, (6)-cn, num edge types: 1
# Building blocks:
#     Node 0, Type 0, BuildingBlock: BETDEL_clean_sbu_0, # of connection points: 6
#     Node 1, Type 0, BuildingBlock: BETDEL_clean_sbu_0, # of connection points: 6
#     Node 2, Type 0, BuildingBlock: BETDEL_clean_sbu_0, # of connection points: 6
#     Node 3, Type 0, BuildingBlock: BETDEL_clean_sbu_0, # of connection points: 6
#     Node 4, Type 0, BuildingBlock: BETDEL_clean_sbu_0, # of connection points: 6
#     Node 5, Type 0, BuildingBlock: BETDEL_clean_sbu_0, # of connection points: 6
#     Node 6, Type 0, BuildingBlock: BETDEL_clean_sbu_0, # of connection points: 6
#     Node 7, Type 0, BuildingBlock: BETDEL_clean_sbu_0, # of connection points: 6
#     Node 8, Type 0, BuildingBlock: BETDEL_clean_sbu_0, # of connection points: 6
#     Node 9, Type 0, BuildingBlock: BETDEL_clean_sbu_0, # of connection points: 6
#     Node 10, Type 0, BuildingBlock: BETDEL_clean_sbu_0, # of connection points: 6
#     Node 11, Type 0, BuildingBlock: BETDEL_clean_sbu_0, # of connection points: 6
#     Node 12, Type 0, BuildingBlock: BETDEL_clean_sbu_0, # of connection points: 6
#     Node 13, Type 0, BuildingBlock: BETDEL_clean_sbu_0, # of connection points: 6
#     Node 14, Type 0, BuildingBlock: BETDEL_clean_sbu_0, # of connection points: 6
#     Node 15, Type 0, BuildingBlock: BETDEL_clean_sbu_0, # of connection points: 6
#     Edge 16, Type (0, 0), BuildingBlock: XIVTED_clean_linker_0, # of connection points: 2
#     Edge 17, Type (0, 0), BuildingBlock: XIVTED_clean_linker_0, # of connection points: 2
#     Edge 18, Type (0, 0), BuildingBlock: XIVTED_clean_linker_0, # of connection points: 2
#     Edge 19, Type (0, 0), BuildingBlock: XIVTED_clean_linker_0, # of connection points: 2
#     Edge 20, Type (0, 0), BuildingBlock: XIVTED_clean_linker_0, # of connection points: 2
#     Edge 21, Type (0, 0), BuildingBlock: XIVTED_clean_linker_0, # of connection points: 2
#     Edge 22, Type (0, 0), BuildingBlock: XIVTED_clean_linker_0, # of connection points: 2
#     Edge 23, Type (0, 0), BuildingBlock: XIVTED_clean_linker_0, # of connection points: 2
#     Edge 24, Type (0, 0), BuildingBlock: XIVTED_clean_linker_0, # of connection points: 2
#     Edge 25, Type (0, 0), BuildingBlock: XIVTED_clean_linker_0, # of connection points: 2
#     Edge 26, Type (0, 0), BuildingBlock: XIVTED_clean_linker_0, # of connection points: 2
#     Edge 27, Type (0, 0), BuildingBlock: XIVTED_clean_linker_0, # of connection points: 2
#     Edge 28, Type (0, 0), BuildingBlock: XIVTED_clean_linker_0, # of connection points: 2
#     Edge 29, Type (0, 0), BuildingBlock: XIVTED_clean_linker_0, # of connection points: 2
#     Edge 30, Type (0, 0), BuildingBlock: XIVTED_clean_linker_0, # of connection points: 2
#     Edge 31, Type (0, 0), BuildingBlock: XIVTED_clean_linker_0, # of connection points: 2
#     Edge 32, Type (0, 0), BuildingBlock: XIVTED_clean_linker_0, # of connection points: 2
#     Edge 33, Type (0, 0), BuildingBlock: XIVTED_clean_linker_0, # of connection points: 2
#     Edge 34, Type (0, 0), BuildingBlock: XIVTED_clean_linker_0, # of connection points: 2
#     Edge 35, Type (0, 0), BuildingBlock: XIVTED_clean_linker_0, # of connection points: 2
#     Edge 36, Type (0, 0), BuildingBlock: XIVTED_clean_linker_0, # of connection points: 2
#     Edge 37, Type (0, 0), BuildingBlock: XIVTED_clean_linker_0, # of connection points: 2
#     Edge 38, Type (0, 0), BuildingBlock: XIVTED_clean_linker_0, # of connection points: 2
#     Edge 39, Type (0, 0), BuildingBlock: XIVTED_clean_linker_0, # of connection points: 2
#     Edge 40, Type (0, 0), BuildingBlock: XIVTED_clean_linker_0, # of connection points: 2
#     Edge 41, Type (0, 0), BuildingBlock: XIVTED_clean_linker_0, # of connection points: 2
#     Edge 42, Type (0, 0), BuildingBlock: XIVTED_clean_linker_0, # of connection points: 2
#     Edge 43, Type (0, 0), BuildingBlock: XIVTED_clean_linker_0, # of connection points: 2
#     Edge 44, Type (0, 0), BuildingBlock: XIVTED_clean_linker_0, # of connection points: 2
#     Edge 45, Type (0, 0), BuildingBlock: XIVTED_clean_linker_0, # of connection points: 2
#     Edge 46, Type (0, 0), BuildingBlock: XIVTED_clean_linker_0, # of connection points: 2
#     Edge 47, Type (0, 0), BuildingBlock: XIVTED_clean_linker_0, # of connection points: 2
#     Edge 48, Type (0, 0), BuildingBlock: XIVTED_clean_linker_0, # of connection points: 2
#     Edge 49, Type (0, 0), BuildingBlock: XIVTED_clean_linker_0, # of connection points: 2
#     Edge 50, Type (0, 0), BuildingBlock: XIVTED_clean_linker_0, # of connection points: 2
#     Edge 51, Type (0, 0), BuildingBlock: XIVTED_clean_linker_0, # of connection points: 2
#     Edge 52, Type (0, 0), BuildingBlock: XIVTED_clean_linker_0, # of connection points: 2
#     Edge 53, Type (0, 0), BuildingBlock: XIVTED_clean_linker_0, # of connection points: 2
#     Edge 54, Type (0, 0), BuildingBlock: XIVTED_clean_linker_0, # of connection points: 2
#     Edge 55, Type (0, 0), BuildingBlock: XIVTED_clean_linker_0, # of connection points: 2
#     Edge 56, Type (0, 0), BuildingBlock: XIVTED_clean_linker_0, # of connection points: 2
#     Edge 57, Type (0, 0), BuildingBlock: XIVTED_clean_linker_0, # of connection points: 2
#     Edge 58, Type (0, 0), BuildingBlock: XIVTED_clean_linker_0, # of connection points: 2
#     Edge 59, Type (0, 0), BuildingBlock: XIVTED_clean_linker_0, # of connection points: 2
#     Edge 60, Type (0, 0), BuildingBlock: XIVTED_clean_linker_0, # of connection points: 2
#     Edge 61, Type (0, 0), BuildingBlock: XIVTED_clean_linker_0, # of connection points: 2
#     Edge 62, Type (0, 0), BuildingBlock: XIVTED_clean_linker_0, # of connection points: 2
#     Edge 63, Type (0, 0), BuildingBlock: XIVTED_clean_linker_0, # of connection points: 2
# Relax obj value: 0.146
# Max RMSD: 0.204
# Mean RMSD: 0.175
data_MOF--net-snl--node1-BETDEL_clean_sbu_0--edge1-XIVTED_clean_linker_0
_symmetry_space_group_name_H-M    P1
_symmetry_Int_Tables_number       1
_symmetry_cell_setting            triclinic
loop_
_symmetry_equiv_pos_as_xyz
'x, y, z'
_cell_length_a     58.481038
_cell_length_b     58.680421
_cell_length_c     18.22125
_cell_angle_alpha  99.637609
_cell_angle_beta   89.932802
_cell_angle_gamma 90.066123
loop_
_atom_site_label
_atom_site_type_symbol
_atom_site_fract_x
_atom_site_fract_y
_atom_site_fract_z
_atom_type_partial_charge
Dy0 Dy 0.14001 0.62812 0.09426 0.0
C1 C 0.12848 0.62709 0.39816 0.0
C2 C 0.14163 0.62572 0.94365 0.0
Dy3 Dy 0.13043 0.62445 0.24758 0.0
O4 O 0.14623 0.64386 0.99219 0.0
O5 O 0.13631 0.60859 0.97714 0.0
O6 O 0.15698 0.66196 0.13299 0.0
O7 O 0.12745 0.65378 0.18768 0.0
C8 C 0.14247 0.66916 0.18542 0.0
C9 C 0.12737 0.58408 0.15422 0.0
O10 O 0.09614 0.63672 0.22065 0.0
O11 O 0.10113 0.62572 0.09444 0.0
O12 O 0.12013 0.61043 0.35002 0.0
O13 O 0.13768 0.64257 0.36421 0.0
O14 O 0.11337 0.59037 0.20895 0.0
O15 O 0.14277 0.59905 0.15338 0.0
O16 O 0.17579 0.61968 0.12342 0.0
O17 O 0.16881 0.62591 0.25013 0.0
C18 C 0.0876 0.63214 0.15278 0.0
C19 C 0.18306 0.62223 0.193 0.0
Dy20 Dy 0.64315 0.87966 0.43449 0.0
C21 C 0.62952 0.87699 0.12736 0.0
C22 C 0.64622 0.88416 0.58578 0.0
Dy23 Dy 0.63229 0.88121 0.27865 0.0
O24 O 0.65569 0.868 0.53848 0.0
O25 O 0.63536 0.89829 0.55055 0.0
O26 O 0.65709 0.84411 0.40152 0.0
O27 O 0.6285 0.85363 0.34544 0.0
C28 C 0.64253 0.83754 0.34885 0.0
C29 C 0.63286 0.923 0.36539 0.0
O30 O 0.59818 0.87027 0.31282 0.0
O31 O 0.60439 0.88325 0.43766 0.0
O32 O 0.61849 0.89198 0.1746 0.0
O33 O 0.64172 0.86388 0.16265 0.0
O34 O 0.6192 0.91741 0.30956 0.0
O35 O 0.64683 0.90692 0.36864 0.0
O36 O 0.67838 0.88774 0.39655 0.0
O37 O 0.66988 0.87453 0.27329 0.0
C38 C 0.5903 0.87627 0.3813 0.0
C39 C 0.68496 0.88046 0.32698 0.0
Dy40 Dy 0.38439 0.38731 0.69561 0.0
C41 C 0.38273 0.36382 0.37709 0.0
C42 C 0.38264 0.39213 0.84801 0.0
Dy43 Dy 0.38004 0.36852 0.52934 0.0
O44 O 0.40106 0.39252 0.80854 0.0
O45 O 0.36493 0.39002 0.80429 0.0
O46 O 0.41694 0.40451 0.67335 0.0
O47 O 0.40852 0.37242 0.60802 0.0
C48 C 0.42272 0.38893 0.61708 0.0
C49 C 0.34159 0.36781 0.60872 0.0
O50 O 0.39083 0.33556 0.56439 0.0
O51 O 0.38181 0.34865 0.68843 0.0
O52 O 0.36445 0.36078 0.41474 0.0
O53 O 0.39986 0.36845 0.42256 0.0
O54 O 0.34653 0.35229 0.55126 0.0
O55 O 0.35638 0.38366 0.61697 0.0
O56 O 0.37403 0.4206 0.66009 0.0
O57 O 0.38087 0.40696 0.53477 0.0
C58 C 0.38701 0.33174 0.63302 0.0
C59 C 0.37633 0.42404 0.59018 0.0
Dy60 Dy 0.88304 0.11724 0.82665 0.0
C61 C 0.88086 0.14172 0.14547 0.0
C62 C 0.88179 0.11241 0.67404 0.0
Dy63 Dy 0.87873 0.13684 0.99297 0.0
O64 O 0.90013 0.11326 0.71435 0.0
O65 O 0.86393 0.1132 0.71702 0.0
O66 O 0.91532 0.09977 0.84993 0.0
O67 O 0.90725 0.13211 0.91404 0.0
C68 C 0.92131 0.11549 0.90559 0.0
C69 C 0.84061 0.13836 0.91287 0.0
O70 O 0.88962 0.16953 0.95626 0.0
O71 O 0.88042 0.15579 0.8327 0.0
O72 O 0.86244 0.14295 0.10675 0.0
O73 O 0.89841 0.13889 0.10092 0.0
O74 O 0.84576 0.15385 0.97022 0.0
O75 O 0.85496 0.1221 0.90524 0.0
O76 O 0.872 0.08441 0.86398 0.0
O77 O 0.87944 0.09849 0.98858 0.0
C78 C 0.8857 0.17292 0.88726 0.0
C79 C 0.87436 0.0813 0.93419 0.0
Dy80 Dy 0.14231 0.38088 0.92902 0.0
C81 C 0.12863 0.37906 0.6231 0.0
C82 C 0.14503 0.38534 0.08046 0.0
Dy83 Dy 0.13126 0.3822 0.77425 0.0
O84 O 0.15196 0.36771 0.03338 0.0
O85 O 0.13694 0.40097 0.04492 0.0
O86 O 0.15751 0.3459 0.89512 0.0
O87 O 0.12816 0.3544 0.84054 0.0
C88 C 0.14265 0.33868 0.8439 0.0
C89 C 0.13012 0.42364 0.86261 0.0
O90 O 0.09728 0.37074 0.80662 0.0
O91 O 0.1034 0.38374 0.93153 0.0
O92 O 0.12121 0.39617 0.67134 0.0
O93 O 0.13712 0.36331 0.6573 0.0
O94 O 0.11535 0.41694 0.81068 0.0
O95 O 0.14525 0.40844 0.86368 0.0
O96 O 0.17764 0.38886 0.89222 0.0
O97 O 0.16901 0.37646 0.76863 0.0
C98 C 0.08937 0.37653 0.87506 0.0
C99 C 0.18413 0.38214 0.82234 0.0
Dy100 Dy 0.88483 0.88844 0.19389 0.0
C101 C 0.88222 0.866 0.87574 0.0
C102 C 0.88243 0.8931 0.34598 0.0
Dy103 Dy 0.87976 0.87049 0.02775 0.0
O104 O 0.90079 0.89553 0.30796 0.0
O105 O 0.86514 0.88898 0.30099 0.0
O106 O 0.91715 0.90601 0.17144 0.0
O107 O 0.90869 0.87416 0.10481 0.0
C108 C 0.92283 0.89073 0.11423 0.0
C109 C 0.8418 0.86883 0.10878 0.0
O110 O 0.89042 0.83727 0.05956 0.0
O111 O 0.88432 0.84955 0.18611 0.0
O112 O 0.86389 0.86334 0.91359 0.0
O113 O 0.89948 0.87024 0.92085 0.0
O114 O 0.84664 0.85366 0.05031 0.0
O115 O 0.85636 0.88489 0.11708 0.0
O116 O 0.8735 0.92176 0.15987 0.0
O117 O 0.88009 0.90882 0.03411 0.0
C118 C 0.88822 0.83298 0.1283 0.0
C119 C 0.87531 0.92556 0.09016 0.0
Dy120 Dy 0.38148 0.61667 0.32413 0.0
C121 C 0.37725 0.64136 0.65073 0.0
C122 C 0.37223 0.6106 0.17535 0.0
Dy123 Dy 0.37589 0.63677 0.49892 0.0
O124 O 0.38819 0.59977 0.20563 0.0
O125 O 0.36068 0.62376 0.22688 0.0
O126 O 0.4203 0.6172 0.32101 0.0
O127 O 0.40266 0.62802 0.4189 0.0
C128 C 0.42233 0.62537 0.39149 0.0
C129 C 0.3386 0.63509 0.41283 0.0
O130 O 0.38776 0.6687 0.4591 0.0
O131 O 0.37885 0.65539 0.33402 0.0
O132 O 0.35887 0.642 0.61119 0.0
O133 O 0.39511 0.63924 0.60741 0.0
O134 O 0.34201 0.65115 0.47032 0.0
O135 O 0.35434 0.62026 0.4073 0.0
O136 O 0.37536 0.58333 0.36626 0.0
O137 O 0.37811 0.59839 0.49349 0.0
C138 C 0.38439 0.6722 0.38971 0.0
C139 C 0.37639 0.58076 0.43753 0.0
Dy140 Dy 0.64142 0.12707 0.58934 0.0
C141 C 0.63826 0.1263 0.8947 0.0
C142 C 0.63981 0.12515 0.43975 0.0
Dy143 Dy 0.63605 0.12428 0.74528 0.0
O144 O 0.6299 0.1406 0.48817 0.0
O145 O 0.65074 0.11051 0.4727 0.0
O146 O 0.65626 0.16231 0.61892 0.0
O147 O 0.62946 0.15271 0.68363 0.0
C148 C 0.64309 0.16887 0.67564 0.0
C149 C 0.63367 0.08287 0.65735 0.0
O150 O 0.59955 0.12917 0.72218 0.0
O151 O 0.60382 0.11781 0.59571 0.0
O152 O 0.64931 0.11177 0.84624 0.0
O153 O 0.62593 0.13996 0.86184 0.0
O154 O 0.62186 0.08835 0.71785 0.0
O155 O 0.64736 0.09889 0.64969 0.0
O156 O 0.67853 0.12344 0.61738 0.0
O157 O 0.67206 0.13656 0.74181 0.0
C158 C 0.59062 0.12285 0.65551 0.0
C159 C 0.68622 0.13123 0.68521 0.0
Dy160 Dy 0.87482 0.38171 0.77965 0.0
C161 C 0.86765 0.37975 0.08438 0.0
C162 C 0.87371 0.38083 0.63056 0.0
Dy163 Dy 0.86724 0.37851 0.93497 0.0
O164 O 0.86341 0.39586 0.67948 0.0
O165 O 0.88476 0.36606 0.66278 0.0
O166 O 0.89098 0.41654 0.81004 0.0
O167 O 0.86395 0.40731 0.87541 0.0
C168 C 0.87878 0.42251 0.86947 0.0
C169 C 0.86507 0.33711 0.84613 0.0
O170 O 0.83067 0.38331 0.90364 0.0
O171 O 0.83827 0.3708 0.77945 0.0
O172 O 0.87642 0.36357 0.03574 0.0
O173 O 0.85845 0.39551 0.05174 0.0
O174 O 0.85137 0.3438 0.90144 0.0
O175 O 0.87934 0.35294 0.84106 0.0
O176 O 0.91054 0.3741 0.80614 0.0
O177 O 0.90533 0.38566 0.93228 0.0
C178 C 0.82362 0.37609 0.83474 0.0
C179 C 0.91893 0.37962 0.87396 0.0
Dy180 Dy 0.37305 0.12297 0.74725 0.0
C181 C 0.36994 0.12351 0.44169 0.0
C182 C 0.3706 0.12513 0.89676 0.0
Dy183 Dy 0.36812 0.12566 0.59142 0.0
O184 O 0.35938 0.11073 0.84835 0.0
O185 O 0.38322 0.13857 0.86378 0.0
O186 O 0.38732 0.08712 0.72081 0.0
O187 O 0.36208 0.09739 0.65142 0.0
C188 C 0.37574 0.08145 0.66001 0.0
C189 C 0.36618 0.16752 0.67759 0.0
O190 O 0.33089 0.12223 0.61899 0.0
O191 O 0.33714 0.13532 0.7435 0.0
O192 O 0.37978 0.13905 0.48999 0.0
O193 O 0.35898 0.10889 0.47484 0.0
O194 O 0.3532 0.16087 0.62049 0.0
O195 O 0.37984 0.15144 0.68568 0.0
O196 O 0.40958 0.12813 0.72525 0.0
O197 O 0.40577 0.11674 0.59869 0.0
C198 C 0.32309 0.13008 0.6867 0.0
C199 C 0.41877 0.12188 0.65889 0.0
Dy200 Dy 0.63076 0.63738 0.49403 0.0
C201 C 0.6353 0.61084 0.16988 0.0
C202 C 0.62946 0.64203 0.64591 0.0
Dy203 Dy 0.62624 0.6172 0.3189 0.0
O204 O 0.64769 0.64346 0.60622 0.0
O205 O 0.6116 0.63909 0.60269 0.0
O206 O 0.66441 0.6526 0.46895 0.0
O207 O 0.65319 0.62172 0.40268 0.0
C208 C 0.66849 0.63714 0.41042 0.0
C209 C 0.58496 0.62586 0.38404 0.0
O210 O 0.6327 0.58396 0.36189 0.0
O211 O 0.62923 0.59911 0.4888 0.0
O212 O 0.6201 0.59931 0.20112 0.0
O213 O 0.64627 0.62488 0.22065 0.0
O214 O 0.58746 0.61812 0.31348 0.0
O215 O 0.60446 0.6282 0.41271 0.0
O216 O 0.6189 0.66915 0.45323 0.0
O217 O 0.62906 0.65586 0.32912 0.0
C218 C 0.63144 0.58148 0.43325 0.0
C219 C 0.62307 0.67265 0.38422 0.0
Dy220 Dy 0.13096 0.86949 0.02443 0.0
C221 C 0.12879 0.89378 0.34355 0.0
C222 C 0.12776 0.86475 0.87222 0.0
Dy223 Dy 0.12691 0.88892 0.19109 0.0
O224 O 0.14629 0.86229 0.90922 0.0
O225 O 0.11068 0.86875 0.91833 0.0
O226 O 0.16449 0.85323 0.04603 0.0
O227 O 0.15468 0.88467 0.11159 0.0
C228 C 0.16943 0.86883 0.10334 0.0
C229 C 0.08869 0.8908 0.11241 0.0
O230 O 0.1376 0.92194 0.15384 0.0
O231 O 0.13059 0.90789 0.02884 0.0
O232 O 0.11027 0.89327 0.30419 0.0
O233 O 0.14647 0.89262 0.29969 0.0
O234 O 0.0946 0.90643 0.16839 0.0
O235 O 0.10266 0.87411 0.1041 0.0
O236 O 0.12023 0.83671 0.061 0.0
O237 O 0.12949 0.85026 0.18461 0.0
C238 C 0.13541 0.9251 0.08356 0.0
C239 C 0.12414 0.83318 0.12985 0.0
Dy240 Dy 0.8728 0.62542 0.23852 0.0
C241 C 0.86305 0.60793 0.91981 0.0
C242 C 0.86926 0.62848 0.38869 0.0
Dy243 Dy 0.86572 0.62227 0.06951 0.0
O244 O 0.8545 0.61871 0.34046 0.0
O245 O 0.88599 0.6372 0.35512 0.0
O246 O 0.88875 0.58996 0.21654 0.0
O247 O 0.863 0.59814 0.14645 0.0
C248 C 0.87735 0.58308 0.15616 0.0
C249 C 0.86804 0.66717 0.12788 0.0
O250 O 0.82958 0.61882 0.10943 0.0
O251 O 0.83671 0.6368 0.23043 0.0
O252 O 0.84636 0.61701 0.96182 0.0
O253 O 0.88098 0.60583 0.96018 0.0
O254 O 0.86457 0.65941 0.05805 0.0
O255 O 0.8697 0.65054 0.16345 0.0
O256 O 0.90687 0.63722 0.20741 0.0
O257 O 0.90409 0.61986 0.08366 0.0
C258 C 0.82235 0.62911 0.17585 0.0
C259 C 0.91633 0.62983 0.14178 0.0
Dy260 Dy 0.13031 0.13773 0.99398 0.0
C261 C 0.12712 0.11341 0.67527 0.0
C262 C 0.12799 0.1425 0.14645 0.0
Dy263 Dy 0.12594 0.11823 0.82788 0.0
O264 O 0.1464 0.14426 0.10799 0.0
O265 O 0.11055 0.13917 0.10167 0.0
O266 O 0.16332 0.15477 0.97116 0.0
O267 O 0.15408 0.12304 0.90595 0.0
C268 C 0.16846 0.13929 0.91375 0.0
C269 C 0.08786 0.11598 0.90764 0.0
O270 O 0.13705 0.08533 0.86473 0.0
O271 O 0.13004 0.09935 0.98969 0.0
O272 O 0.10879 0.11424 0.71577 0.0
O273 O 0.145 0.11423 0.71806 0.0
O274 O 0.09392 0.10034 0.85186 0.0
O275 O 0.1017 0.13282 0.9155 0.0
O276 O 0.11929 0.17045 0.9579 0.0
O277 O 0.12839 0.15687 0.83416 0.0
C278 C 0.13497 0.08217 0.93503 0.0
C279 C 0.12311 0.17396 0.88894 0.0
Dy280 Dy 0.63094 0.36922 0.52687 0.0
C281 C 0.62762 0.39376 0.84604 0.0
C282 C 0.62821 0.3644 0.37452 0.0
Dy283 Dy 0.62631 0.38886 0.69347 0.0
O284 O 0.64657 0.36173 0.41212 0.0
O285 O 0.61103 0.36865 0.42011 0.0
O286 O 0.66423 0.35282 0.54973 0.0
O287 O 0.6544 0.38434 0.61499 0.0
C288 C 0.66903 0.36837 0.60731 0.0
C289 C 0.58836 0.39045 0.61314 0.0
O290 O 0.6369 0.42189 0.65642 0.0
O291 O 0.63076 0.4076 0.531 0.0
O292 O 0.60925 0.39324 0.80592 0.0
O293 O 0.64546 0.39259 0.80288 0.0
O294 O 0.59402 0.40617 0.6692 0.0
O295 O 0.60241 0.37385 0.60564 0.0
O296 O 0.61997 0.33653 0.56359 0.0
O297 O 0.62886 0.35027 0.68741 0.0
C298 C 0.63511 0.42489 0.58591 0.0
C299 C 0.6237 0.33312 0.63269 0.0
Dy300 Dy 0.37839 0.88028 0.27601 0.0
C301 C 0.36427 0.8832 0.58292 0.0
C302 C 0.38108 0.87605 0.12458 0.0
Dy303 Dy 0.36739 0.87878 0.43155 0.0
O304 O 0.39244 0.89079 0.17166 0.0
O305 O 0.3686 0.86319 0.16011 0.0
O306 O 0.3915 0.91649 0.30638 0.0
O307 O 0.36383 0.90612 0.36597 0.0
C308 C 0.37782 0.92219 0.36217 0.0
C309 C 0.36761 0.83666 0.34554 0.0
O310 O 0.33216 0.8867 0.39347 0.0
O311 O 0.34086 0.87336 0.2704 0.0
O312 O 0.35505 0.86689 0.53558 0.0
O313 O 0.37489 0.89754 0.54769 0.0
O314 O 0.35306 0.84337 0.39817 0.0
O315 O 0.38192 0.85259 0.34264 0.0
O316 O 0.41238 0.86909 0.30987 0.0
O317 O 0.40617 0.88221 0.43462 0.0
C318 C 0.32571 0.87925 0.32391 0.0
C319 C 0.42025 0.87508 0.37828 0.0
H320 H 0.15369 0.66046 0.87017 0.0
H321 H 0.11276 0.59385 0.47306 0.0
H322 H 0.12737 0.59078 0.83475 0.0
H323 H 0.14642 0.66023 0.50551 0.0
H324 H 0.11636 0.59303 0.60626 0.0
H325 H 0.15012 0.66111 0.73713 0.0
C326 C 0.14727 0.64524 0.83411 0.0
C327 C 0.14081 0.62552 0.86306 0.0
C328 C 0.12292 0.6078 0.58434 0.0
C329 C 0.13649 0.62619 0.71112 0.0
C330 C 0.12078 0.60832 0.50848 0.0
C331 C 0.12931 0.62715 0.47869 0.0
C332 C 0.13362 0.62629 0.63054 0.0
C333 C 0.13961 0.64542 0.52658 0.0
C334 C 0.14521 0.64563 0.75824 0.0
C335 C 0.13257 0.60628 0.81428 0.0
N336 N 0.1415 0.64453 0.6003 0.0
N337 N 0.13056 0.60712 0.74049 0.0
H338 H 0.60703 0.90581 0.04957 0.0
H339 H 0.66767 0.85466 0.66307 0.0
H340 H 0.65479 0.84906 0.02294 0.0
H341 H 0.62226 0.91335 0.69103 0.0
H342 H 0.66318 0.85239 0.7949 0.0
H343 H 0.61163 0.90833 0.91776 0.0
C344 C 0.61833 0.89374 0.01566 0.0
C345 C 0.63055 0.87718 0.04683 0.0
C346 C 0.65427 0.86585 0.77245 0.0
C347 C 0.6361 0.88011 0.89651 0.0
C348 C 0.65691 0.86721 0.6973 0.0
C349 C 0.64531 0.88423 0.66646 0.0
C350 C 0.63985 0.88158 0.81699 0.0
C351 C 0.63153 0.90001 0.71294 0.0
C352 C 0.62104 0.89526 0.94059 0.0
C353 C 0.64503 0.86203 1.00081 0.0
N354 N 0.62909 0.89825 0.78598 0.0
N355 N 0.64746 0.86389 0.92789 0.0
H356 H 0.34671 0.35922 0.28049 0.0
H357 H 0.419 0.39494 0.94265 0.0
H358 H 0.41889 0.37435 0.29301 0.0
H359 H 0.34609 0.38387 0.9344 0.0
H360 H 0.41933 0.38735 0.07064 0.0
H361 H 0.3463 0.36707 0.15268 0.0
C362 C 0.36254 0.36394 0.25598 0.0
C363 C 0.38289 0.36606 0.29731 0.0
C364 C 0.40321 0.3867 0.04115 0.0
C365 C 0.38251 0.37538 0.15118 0.0
C366 C 0.403 0.39116 0.96815 0.0
C367 C 0.38247 0.3901 0.92795 0.0
C368 C 0.38274 0.38101 0.07432 0.0
C369 C 0.36228 0.38497 0.96356 0.0
C370 C 0.36227 0.36857 0.18313 0.0
C371 C 0.40285 0.37241 0.263 0.0
N372 N 0.36293 0.38051 0.03456 0.0
N373 N 0.40216 0.37689 0.19206 0.0
H374 H 0.91843 0.11263 0.58139 0.0
H375 H 0.8444 0.14288 0.2397 0.0
H376 H 0.84492 0.11808 0.5857 0.0
H377 H 0.91761 0.13432 0.23198 0.0
H378 H 0.84431 0.1348 0.36722 0.0
H379 H 0.91848 0.12051 0.45371 0.0
C380 C 0.90226 0.11523 0.55509 0.0
C381 C 0.88162 0.11461 0.59414 0.0
C382 C 0.86043 0.1348 0.33792 0.0
C383 C 0.88156 0.12403 0.448 0.0
C384 C 0.86051 0.13956 0.26521 0.0
C385 C 0.88107 0.13937 0.22525 0.0
C386 C 0.88108 0.12977 0.3712 0.0
C387 C 0.9014 0.13476 0.26088 0.0
C388 C 0.90231 0.11986 0.48225 0.0
C389 C 0.8612 0.11828 0.55749 0.0
N390 N 0.90089 0.1301 0.33167 0.0
N391 N 0.86169 0.12292 0.48665 0.0
H392 H 0.12694 0.419 0.18687 0.0
H393 H 0.14674 0.34586 0.51599 0.0
H394 H 0.16 0.35241 0.15719 0.0
H395 H 0.11387 0.41256 0.54767 0.0
H396 H 0.15141 0.34783 0.3837 0.0
H397 H 0.12235 0.41738 0.31972 0.0
C398 C 0.1334 0.40416 0.20857 0.0
C399 C 0.14386 0.38583 0.16137 0.0
C400 C 0.1431 0.36202 0.41948 0.0
C401 C 0.13848 0.38367 0.31238 0.0
C402 C 0.14035 0.36082 0.49483 0.0
C403 C 0.1299 0.37906 0.54245 0.0
C404 C 0.13536 0.38162 0.39177 0.0
C405 C 0.122 0.39811 0.51256 0.0
C406 C 0.1307 0.40317 0.28417 0.0
C407 C 0.15185 0.36693 0.19188 0.0
N408 N 0.12495 0.39894 0.4391 0.0
N409 N 0.14893 0.3663 0.26541 0.0
H410 H 0.84635 0.86079 0.77869 0.0
H411 H 0.91828 0.8984 0.44311 0.0
H412 H 0.91838 0.87671 0.79212 0.0
H413 H 0.84622 0.88264 0.42979 0.0
H414 H 0.91856 0.89108 0.57145 0.0
H415 H 0.84603 0.86827 0.65052 0.0
C416 C 0.86216 0.86562 0.7543 0.0
C417 C 0.88244 0.86807 0.79593 0.0
C418 C 0.90264 0.88933 0.54071 0.0
C419 C 0.88216 0.87698 0.6495 0.0
C420 C 0.90245 0.89364 0.46756 0.0
C421 C 0.88217 0.89118 0.42589 0.0
C422 C 0.88241 0.88243 0.57251 0.0
C423 C 0.8622 0.88482 0.46011 0.0
C424 C 0.86195 0.87002 0.68124 0.0
C425 C 0.90239 0.87453 0.76181 0.0
N426 N 0.86283 0.88059 0.5313 0.0
N427 N 0.90174 0.87883 0.6907 0.0
H428 H 0.41273 0.62852 0.73268 0.0
H429 H 0.33902 0.63118 0.10424 0.0
H430 H 0.34134 0.64701 0.74777 0.0
H431 H 0.40324 0.5951 0.06586 0.0
H432 H 0.34021 0.63927 0.97668 0.0
H433 H 0.41083 0.61945 0.85918 0.0
C434 C 0.39675 0.63098 0.76306 0.0
C435 C 0.37718 0.63861 0.72994 0.0
C436 C 0.35394 0.62939 0.99587 0.0
C437 C 0.37479 0.62804 0.87415 0.0
C438 C 0.3532 0.62466 0.06851 0.0
C439 C 0.371 0.61236 0.09544 0.0
C440 C 0.37281 0.62209 0.95015 0.0
C441 C 0.38907 0.60449 0.04708 0.0
C442 C 0.3956 0.62559 0.83492 0.0
C443 C 0.35684 0.64125 0.77141 0.0
N444 N 0.38964 0.60968 0.97701 0.0
N445 N 0.35617 0.63599 0.84132 0.0
H446 H 0.66261 0.09758 0.96665 0.0
H447 H 0.61717 0.15508 0.36813 0.0
H448 H 0.61564 0.15504 1.00377 0.0
H449 H 0.66104 0.09517 0.33032 0.0
H450 H 0.61689 0.15569 0.23476 0.0
H451 H 0.66301 0.09694 0.10014 0.0
C452 C 0.65243 0.1101 1.00318 0.0
C453 C 0.63905 0.12639 0.97481 0.0
C454 C 0.62655 0.14238 0.25546 0.0
C455 C 0.63936 0.12573 0.12684 0.0
C456 C 0.6267 0.14201 0.33146 0.0
C457 C 0.63917 0.12505 0.35962 0.0
C458 C 0.639 0.12566 0.20758 0.0
C459 C 0.65124 0.10851 0.31031 0.0
C460 C 0.65263 0.1097 0.0792 0.0
C461 C 0.62616 0.14223 0.02392 0.0
N462 N 0.65089 0.10925 0.23631 0.0
N463 N 0.62662 0.1415 0.09788 0.0
H464 H 0.88739 0.3478 0.15484 0.0
H465 H 0.85176 0.41161 0.56026 0.0
H466 H 0.84989 0.41198 0.19517 0.0
H467 H 0.89346 0.35015 0.51981 0.0
H468 H 0.8501 0.41164 0.42653 0.0
H469 H 0.889 0.34793 0.28848 0.0
C470 C 0.87948 0.36193 0.1921 0.0
C471 C 0.86847 0.37992 0.16456 0.0
C472 C 0.85963 0.39815 0.4468 0.0
C473 C 0.87024 0.3802 0.31703 0.0
C474 C 0.86057 0.39812 0.52298 0.0
C475 C 0.87277 0.38084 0.55048 0.0
C476 C 0.87095 0.38073 0.39809 0.0
C477 C 0.88389 0.36375 0.50038 0.0
C478 C 0.88043 0.36201 0.26828 0.0
C479 C 0.85851 0.39781 0.21468 0.0
N480 N 0.88269 0.36412 0.42626 0.0
N481 N 0.85962 0.39751 0.28888 0.0
H482 H 0.3927 0.15333 0.36964 0.0
H483 H 0.34592 0.09665 0.96916 0.0
H484 H 0.34844 0.09362 0.33259 0.0
H485 H 0.39366 0.15355 1.00543 0.0
H486 H 0.34576 0.09586 0.10262 0.0
H487 H 0.39272 0.15407 0.23633 0.0
C488 C 0.38304 0.14032 0.33314 0.0
C489 C 0.37053 0.12339 0.36152 0.0
C490 C 0.35626 0.10853 0.08149 0.0
C491 C 0.37038 0.12416 0.20953 0.0
C492 C 0.35631 0.10903 1.0055 0.0
C493 C 0.36984 0.12519 0.97689 0.0
C494 C 0.36983 0.12435 0.12885 0.0
C495 C 0.38301 0.14084 0.02575 0.0
C496 C 0.38304 0.14076 0.25718 0.0
C497 C 0.35829 0.10694 0.31241 0.0
N498 N 0.38269 0.14002 0.09966 0.0
N499 N 0.35848 0.10775 0.23845 0.0
H500 H 0.60507 0.59262 0.06117 0.0
H501 H 0.66512 0.65056 0.7426 0.0
H502 H 0.66663 0.63345 0.09725 0.0
H503 H 0.59537 0.62635 0.72814 0.0
H504 H 0.66751 0.64151 0.86868 0.0
H505 H 0.60329 0.60076 0.93356 0.0
C506 C 0.61843 0.60294 0.04177 0.0
C507 C 0.63605 0.61234 0.0897 0.0
C508 C 0.65162 0.63833 0.83824 0.0
C509 C 0.63396 0.62198 0.94432 0.0
C510 C 0.65021 0.6436 0.76641 0.0
C511 C 0.62997 0.63935 0.72515 0.0
C512 C 0.63274 0.62841 0.8688 0.0
C513 C 0.61123 0.6301 0.75838 0.0
C514 C 0.61727 0.60779 0.96924 0.0
C515 C 0.65278 0.62583 0.06201 0.0
N516 N 0.61311 0.62478 0.82809 0.0
N517 N 0.65131 0.63028 0.99124 0.0
H518 H 0.16599 0.8875 0.42949 0.0
H519 H 0.09082 0.87377 0.78931 0.0
H520 H 0.09259 0.89424 0.43848 0.0
H521 H 0.16357 0.8621 0.77472 0.0
H522 H 0.09112 0.88182 0.66152 0.0
H523 H 0.1657 0.87965 0.55761 0.0
C524 C 0.14985 0.88761 0.45878 0.0
C525 C 0.12929 0.8916 0.42342 0.0
C526 C 0.10702 0.87736 0.68604 0.0
C527 C 0.12875 0.88232 0.56969 0.0
C528 C 0.10681 0.87264 0.75887 0.0
C529 C 0.12718 0.86716 0.79254 0.0
C530 C 0.12778 0.87673 0.64661 0.0
C531 C 0.14745 0.86615 0.75075 0.0
C532 C 0.14966 0.88297 0.53174 0.0
C533 C 0.10884 0.89132 0.46373 0.0
N534 N 0.14726 0.87098 0.68022 0.0
N535 N 0.10908 0.88671 0.5345 0.0
H536 H 0.82669 0.60936 0.82771 0.0
H537 H 0.90374 0.63595 0.4914 0.0
H538 H 0.90027 0.60448 0.82857 0.0
H539 H 0.83278 0.61614 0.46509 0.0
H540 H 0.90237 0.62841 0.61994 0.0
H541 H 0.82809 0.61434 0.6971 0.0
C542 C 0.8431 0.60891 0.79986 0.0
C543 C 0.86339 0.60647 0.83855 0.0
C544 C 0.88712 0.62577 0.58593 0.0
C545 C 0.8652 0.61284 0.69043 0.0
C546 C 0.88784 0.6303 0.51309 0.0
C547 C 0.86834 0.62668 0.46809 0.0
C548 C 0.86667 0.61787 0.61374 0.0
C549 C 0.84819 0.61914 0.49824 0.0
C550 C 0.84392 0.61189 0.72559 0.0
C551 C 0.88424 0.60619 0.80035 0.0
N552 N 0.84785 0.61503 0.56931 0.0
N553 N 0.88465 0.60966 0.72848 0.0
H554 H 0.09049 0.11328 0.58266 0.0
H555 H 0.16436 0.14439 0.24115 0.0
H556 H 0.16397 0.11932 0.58681 0.0
H557 H 0.09131 0.13436 0.2325 0.0
H558 H 0.16445 0.13635 0.36873 0.0
H559 H 0.09041 0.12108 0.45487 0.0
C560 C 0.10665 0.116 0.55631 0.0
C561 C 0.12728 0.11557 0.59534 0.0
C562 C 0.14837 0.13602 0.3392 0.0
C563 C 0.12732 0.12489 0.44909 0.0
C564 C 0.14828 0.14076 0.26646 0.0
C565 C 0.12777 0.14014 0.22623 0.0
C566 C 0.12777 0.1306 0.37224 0.0
C567 C 0.10749 0.13513 0.26161 0.0
C568 C 0.10659 0.12057 0.4834 0.0
C569 C 0.14768 0.11937 0.55861 0.0
N570 N 0.10801 0.13051 0.33245 0.0
N571 N 0.14718 0.12397 0.48773 0.0
H572 H 0.66428 0.36087 0.27787 0.0
H573 H 0.59109 0.39495 0.93992 0.0
H574 H 0.59179 0.37421 0.29048 0.0
H575 H 0.66435 0.38676 0.9332 0.0
H576 H 0.59093 0.38709 0.06767 0.0
H577 H 0.66447 0.36898 0.15034 0.0
C578 C 0.64834 0.36524 0.25344 0.0
C579 C 0.62796 0.36677 0.29476 0.0
C580 C 0.60708 0.38715 0.03857 0.0
C581 C 0.62808 0.3764 0.14886 0.0
C582 C 0.60719 0.39175 0.96569 0.0
C583 C 0.62778 0.39159 0.92596 0.0
C584 C 0.62771 0.38219 0.07211 0.0
C585 C 0.64811 0.38718 0.96196 0.0
C586 C 0.64848 0.37003 0.18075 0.0
C587 C 0.60785 0.37272 0.2605 0.0
N588 N 0.64755 0.38255 0.03279 0.0
N589 N 0.60843 0.37736 0.1897 0.0
H590 H 0.40375 0.90475 0.04637 0.0
H591 H 0.34306 0.85349 0.66027 0.0
H592 H 0.35551 0.84832 0.02054 0.0
H593 H 0.38802 0.91262 0.68822 0.0
H594 H 0.34755 0.85125 0.79209 0.0
H595 H 0.39911 0.90728 0.91457 0.0
C596 C 0.39234 0.89275 0.01265 0.0
C597 C 0.38 0.87628 0.04404 0.0
C598 C 0.35636 0.8648 0.76965 0.0
C599 C 0.37441 0.87921 0.89373 0.0
C600 C 0.35372 0.86614 0.69449 0.0
C601 C 0.36519 0.88328 0.66363 0.0
C602 C 0.37066 0.88067 0.8142 0.0
C603 C 0.37885 0.89919 0.71013 0.0
C604 C 0.3896 0.89428 0.93759 0.0
C605 C 0.36536 0.86123 0.99825 0.0
N606 N 0.3813 0.89744 0.78318 0.0
N607 N 0.36293 0.86309 0.92534 0.0
H608 H 0.17169 0.70447 0.23273 0.0
H609 H 0.10107 0.795 0.05803 0.0
H610 H 0.10181 0.68996 0.16561 0.0
H611 H 0.14757 0.81721 0.23975 0.0
H612 H 0.10294 0.75546 0.08613 0.0
H613 H 0.16509 0.74555 0.22864 0.0
C614 C 0.1548 0.7101 0.21915 0.0
C615 C 0.13718 0.694 0.20051 0.0
C616 C 0.11251 0.76912 0.12015 0.0
C617 C 0.12984 0.74049 0.1921 0.0
C618 C 0.11158 0.79157 0.10384 0.0
C619 C 0.12418 0.80937 0.14658 0.0
C620 C 0.12661 0.76441 0.1782 0.0
C621 C 0.13749 0.80402 0.20558 0.0
C622 C 0.15108 0.73343 0.21635 0.0
C623 C 0.11571 0.70197 0.18155 0.0
N624 N 0.13861 0.78197 0.21899 0.0
N625 N 0.11275 0.72464 0.17631 0.0
H626 H 0.56359 0.89728 0.49864 0.0
H627 H 0.44931 0.84643 0.29185 0.0
H628 H 0.56059 0.84931 0.29165 0.0
H629 H 0.44743 0.89733 0.49228 0.0
H630 H 0.49048 0.84421 0.30267 0.0
H631 H 0.52162 0.8948 0.50849 0.0
C632 C 0.55416 0.88607 0.45585 0.0
C633 C 0.56552 0.87373 0.39372 0.0
C634 C 0.48121 0.85585 0.34474 0.0
C635 C 0.5179 0.87076 0.40467 0.0
C636 C 0.45761 0.85714 0.33847 0.0
C637 C 0.44497 0.87234 0.39065 0.0
C638 C 0.49251 0.87008 0.40319 0.0
C639 C 0.45663 0.88547 0.45067 0.0
C640 C 0.53027 0.88471 0.46139 0.0
C641 C 0.55256 0.85944 0.33991 0.0
N642 N 0.47988 0.88427 0.45488 0.0
N643 N 0.52955 0.85846 0.34654 0.0
H644 H 0.40926 0.29358 0.55759 0.0
H645 H 0.33824 0.20314 0.73158 0.0
H646 H 0.36438 0.31553 0.74422 0.0
H647 H 0.40715 0.18737 0.65608 0.0
H648 H 0.34577 0.24427 0.73078 0.0
H649 H 0.40708 0.25382 0.58352 0.0
C650 C 0.39906 0.29006 0.60407 0.0
C651 C 0.38697 0.30783 0.64874 0.0
C652 C 0.3594 0.23186 0.71605 0.0
C653 C 0.3842 0.26263 0.67794 0.0
C654 C 0.35515 0.20851 0.717 0.0
C655 C 0.37224 0.1921 0.69516 0.0
C656 C 0.3806 0.23861 0.69031 0.0
C657 C 0.39372 0.19968 0.67468 0.0
C658 C 0.39796 0.26747 0.61913 0.0
C659 C 0.37406 0.30236 0.70852 0.0
N660 N 0.39718 0.22241 0.67127 0.0
N661 N 0.37274 0.28019 0.72072 0.0
H662 H 0.94641 0.15394 0.96509 0.0
H663 H 0.06112 0.07952 0.92145 0.0
H664 H 0.94974 0.07963 0.91119 0.0
H665 H 0.06121 0.15401 0.95952 0.0
H666 H 0.02017 0.07984 0.94601 0.0
H667 H 0.98781 0.15491 0.98989 0.0
C668 C 0.95577 0.13784 0.96019 0.0
C669 C 0.94482 0.11667 0.93509 0.0
C670 C 0.02907 0.09619 0.95009 0.0
C671 C 0.99188 0.11763 0.96298 0.0
C672 C 0.05249 0.09598 0.93627 0.0
C673 C 0.0644 0.11674 0.93758 0.0
C674 C 0.0173 0.11735 0.96389 0.0
C675 C 0.05253 0.13762 0.95771 0.0
C676 C 0.97937 0.13839 0.97399 0.0
C677 C 0.95763 0.09632 0.92947 0.0
N678 N 0.02946 0.13742 0.96871 0.0
N679 N 0.98046 0.09732 0.94255 0.0
H680 H 0.1011 0.31879 0.85942 0.0
H681 H 0.14763 0.18966 0.78092 0.0
H682 H 0.1714 0.30273 0.80101 0.0
H683 H 0.09991 0.21235 0.95901 0.0
H684 H 0.15018 0.22932 0.75664 0.0
H685 H 0.09412 0.27765 0.86333 0.0
C686 C 0.11485 0.30648 0.84512 0.0
C687 C 0.13684 0.31397 0.82937 0.0
C688 C 0.139 0.22553 0.80051 0.0
C689 C 0.12898 0.26732 0.83393 0.0
C690 C 0.13745 0.20294 0.81436 0.0
C691 C 0.12358 0.19775 0.87233 0.0
C692 C 0.12622 0.24299 0.8438 0.0
C693 C 0.11093 0.21568 0.91419 0.0
C694 C 0.11092 0.28316 0.84827 0.0
C695 C 0.1542 0.2975 0.81287 0.0
N696 N 0.11248 0.23758 0.89893 0.0
N697 N 0.14992 0.27489 0.81549 0.0
H698 H 0.0622 0.92726 0.09761 0.0
H699 H 0.94773 0.85253 0.05184 0.0
H700 H 0.06229 0.85276 0.05872 0.0
H701 H 0.95104 0.92679 0.10859 0.0
H702 H 0.98905 0.85177 0.02563 0.0
H703 H 0.02137 0.92688 0.07132 0.0
C704 C 0.05359 0.91078 0.08224 0.0
C705 C 0.06543 0.89003 0.08132 0.0
C706 C 0.98061 0.86824 0.0424 0.0
C707 C 0.0185 0.88936 0.05309 0.0
C708 C 0.95706 0.86867 0.057 0.0
C709 C 0.94617 0.88975 0.08344 0.0
C710 C 0.9931 0.88904 0.05395 0.0
C711 C 0.95892 0.91016 0.08934 0.0
C712 C 0.03025 0.91054 0.06742 0.0
C713 C 0.05363 0.86913 0.06035 0.0
N714 N 0.98171 0.90928 0.0755 0.0
N715 N 0.03062 0.8693 0.04849 0.0
H716 H 0.40796 0.70966 0.46375 0.0
H717 H 0.3393 0.80152 0.29042 0.0
H718 H 0.36239 0.68889 0.27835 0.0
H719 H 0.40825 0.81613 0.36757 0.0
H720 H 0.34608 0.76026 0.29018 0.0
H721 H 0.40706 0.7494 0.43739 0.0
C722 C 0.39787 0.71344 0.41745 0.0
C723 C 0.38516 0.69601 0.3734 0.0
C724 C 0.35989 0.77244 0.30557 0.0
C725 C 0.3839 0.74119 0.34357 0.0
C726 C 0.35606 0.79587 0.30529 0.0
C727 C 0.37334 0.81201 0.32812 0.0
C728 C 0.38086 0.7653 0.33149 0.0
C729 C 0.39464 0.80405 0.34853 0.0
C730 C 0.39751 0.73601 0.4021 0.0
C731 C 0.37249 0.70178 0.31368 0.0
N732 N 0.39768 0.78123 0.35127 0.0
N733 N 0.37191 0.72394 0.30121 0.0
H734 H 0.56344 0.11284 0.52933 0.0
H735 H 0.44885 0.12855 0.77375 0.0
H736 H 0.55999 0.12969 0.76909 0.0
H737 H 0.44657 0.11269 0.53367 0.0
H738 H 0.49003 0.12785 0.76893 0.0
H739 H 0.52128 0.11159 0.52553 0.0
C740 C 0.5539 0.11621 0.58099 0.0
C741 C 0.56534 0.12142 0.64962 0.0
C742 C 0.4807 0.12448 0.71695 0.0
C743 C 0.51739 0.12001 0.6456 0.0
C744 C 0.45699 0.12488 0.71964 0.0
C745 C 0.44407 0.12073 0.65394 0.0
C746 C 0.49196 0.11992 0.648 0.0
C747 C 0.45585 0.116 0.58573 0.0
C748 C 0.52989 0.11551 0.57874 0.0
C749 C 0.55211 0.12565 0.71474 0.0
N750 N 0.47921 0.11577 0.58443 0.0
N751 N 0.52901 0.12486 0.71096 0.0
H752 H 0.86035 0.18827 0.78091 0.0
H753 H 0.90692 0.31738 0.85434 0.0
H754 H 0.90927 0.21137 0.95479 0.0
H755 H 0.83612 0.30126 0.8041 0.0
H756 H 0.91423 0.27622 0.85604 0.0
H757 H 0.85755 0.22779 0.75575 0.0
C758 C 0.87074 0.20162 0.8132 0.0
C759 C 0.88503 0.19661 0.87029 0.0
C760 C 0.89725 0.28171 0.84309 0.0
C761 C 0.88209 0.24164 0.8407 0.0
C762 C 0.89312 0.30504 0.84114 0.0
C763 C 0.87091 0.3125 0.82853 0.0
C764 C 0.87912 0.26588 0.83075 0.0
C765 C 0.85348 0.29602 0.81348 0.0
C766 C 0.86905 0.22411 0.79884 0.0
C767 C 0.89794 0.2146 0.91073 0.0
N768 N 0.85794 0.2734 0.81501 0.0
N769 N 0.89623 0.23641 0.89498 0.0
H770 H 0.60078 0.81799 0.36338 0.0
H771 H 0.64724 0.68884 0.27631 0.0
H772 H 0.67073 0.80162 0.30091 0.0
H773 H 0.59932 0.71061 0.45465 0.0
H774 H 0.64931 0.72857 0.25296 0.0
H775 H 0.59342 0.77669 0.36356 0.0
C776 C 0.61435 0.80558 0.34732 0.0
C777 C 0.63637 0.81299 0.33161 0.0
C778 C 0.63818 0.72456 0.29665 0.0
C779 C 0.62811 0.76623 0.33198 0.0
C780 C 0.63691 0.70192 0.31001 0.0
C781 C 0.62316 0.69647 0.36791 0.0
C782 C 0.6253 0.74182 0.34046 0.0
C783 C 0.61028 0.71417 0.40999 0.0
C784 C 0.61022 0.78218 0.34834 0.0
C785 C 0.65352 0.79643 0.31281 0.0
N786 N 0.61163 0.73614 0.39535 0.0
N787 N 0.64905 0.77376 0.31349 0.0
H788 H 0.8378 0.69741 0.09215 0.0
H789 H 0.89601 0.81549 0.25739 0.0
H790 H 0.89813 0.69315 0.22482 0.0
H791 H 0.87804 0.79522 0.02587 0.0
H792 H 0.8901 0.77514 0.27588 0.0
H793 H 0.84326 0.73905 0.10415 0.0
C794 C 0.8518 0.70544 0.12598 0.0
C795 C 0.8676 0.69199 0.15735 0.0
C796 C 0.88771 0.77969 0.2212 0.0
C797 C 0.8742 0.73941 0.16975 0.0
C798 C 0.89106 0.80257 0.21046 0.0
C799 C 0.88754 0.80867 0.13987 0.0
C800 C 0.88013 0.76325 0.16143 0.0
C801 C 0.8811 0.79132 0.08103 0.0
C802 C 0.855 0.72909 0.13215 0.0
C803 C 0.88552 0.70312 0.20041 0.0
N804 N 0.87728 0.76951 0.09343 0.0
N805 N 0.88863 0.72637 0.20452 0.0
H806 H 0.60149 0.18823 0.65989 0.0
H807 H 0.64744 0.31771 0.74267 0.0
H808 H 0.6712 0.20487 0.72436 0.0
H809 H 0.60077 0.29462 0.56204 0.0
H810 H 0.64961 0.27817 0.76808 0.0
H811 H 0.59428 0.22941 0.65745 0.0
C812 C 0.615 0.2007 0.67616 0.0
C813 C 0.6369 0.19339 0.69317 0.0
C814 C 0.63874 0.28185 0.72341 0.0
C815 C 0.62887 0.24002 0.6899 0.0
C816 C 0.63741 0.30437 0.70888 0.0
C817 C 0.62396 0.3094 0.64983 0.0
C818 C 0.62617 0.26431 0.67969 0.0
C819 C 0.61148 0.2914 0.60764 0.0
C820 C 0.61097 0.22403 0.67375 0.0
C821 C 0.65405 0.21 0.71178 0.0
N822 N 0.61282 0.26957 0.62353 0.0
N823 N 0.64968 0.23261 0.70969 0.0
H824 H 0.94543 0.39737 0.99601 0.0
H825 H 0.06018 0.3485 0.78723 0.0
H826 H 0.94949 0.35827 0.77349 0.0
H827 H 0.06208 0.39906 0.98851 0.0
H828 H 0.01885 0.34761 0.79493 0.0
H829 H 0.98737 0.39475 1.00589 0.0
C830 C 0.95508 0.3882 0.94951 0.0
C831 C 0.94396 0.3782 0.88358 0.0
C832 C 0.02817 0.3589 0.83778 0.0
C833 C 0.99155 0.37494 0.89485 0.0
C834 C 0.05185 0.3594 0.83344 0.0
C835 C 0.06456 0.37416 0.88669 0.0
C836 C 0.01687 0.37342 0.89551 0.0
C837 C 0.05284 0.38752 0.94613 0.0
C838 C 0.97894 0.38674 0.95519 0.0
C839 C 0.95725 0.36649 0.82512 0.0
N840 N 0.02952 0.38706 0.94857 0.0
N841 N 0.98022 0.36521 0.83222 0.0
H842 H 0.4459 0.66462 0.38724 0.0
H843 H 0.56261 0.60723 0.49195 0.0
H844 H 0.44891 0.60044 0.47171 0.0
H845 H 0.55685 0.65897 0.35106 0.0
H846 H 0.52161 0.61211 0.52225 0.0
H847 H 0.48676 0.6705 0.41325 0.0
C848 C 0.45509 0.6522 0.41383 0.0
C849 C 0.4442 0.63216 0.42805 0.0
C850 C 0.5295 0.62285 0.48641 0.0
C851 C 0.49097 0.63821 0.45534 0.0
C852 C 0.55286 0.62021 0.46973 0.0
C853 C 0.5629 0.6328 0.41926 0.0
C854 C 0.51637 0.63829 0.45254 0.0
C855 C 0.5496 0.64902 0.39041 0.0
C856 C 0.47842 0.65541 0.42804 0.0
C857 C 0.4568 0.61625 0.46092 0.0
N858 N 0.52699 0.65119 0.40699 0.0
N859 N 0.47968 0.61943 0.47251 0.0
H860 H 0.44783 0.35073 0.55604 0.0
H861 H 0.56156 0.42654 0.59659 0.0
H862 H 0.4505 0.42509 0.60865 0.0
H863 H 0.56234 0.35206 0.56063 0.0
H864 H 0.52071 0.42567 0.57032 0.0
H865 H 0.48909 0.35022 0.52872 0.0
C866 C 0.45701 0.36694 0.56005 0.0
C867 C 0.44597 0.38798 0.58571 0.0
C868 C 0.52976 0.40943 0.56702 0.0
C869 C 0.49281 0.38757 0.55493 0.0
C870 C 0.5531 0.40996 0.58183 0.0
C871 C 0.56514 0.38937 0.58177 0.0
C872 C 0.5182 0.38814 0.55364 0.0
C873 C 0.55353 0.36832 0.56158 0.0
C874 C 0.48052 0.36665 0.54481 0.0
C875 C 0.45851 0.40849 0.59011 0.0
N876 N 0.53051 0.36822 0.54979 0.0
N877 N 0.48126 0.40776 0.57568 0.0
H878 H 0.05774 0.65513 0.25295 0.0
H879 H 0.94456 0.61135 0.02517 0.0
H880 H 0.06037 0.61438 0.03276 0.0
H881 H 0.94561 0.65355 0.24334 0.0
H882 H 0.9865 0.61378 0.02112 0.0
H883 H 0.01639 0.65642 0.24445 0.0
C884 C 0.0496 0.64649 0.20247 0.0
C885 C 0.06258 0.63445 0.1437 0.0
C886 C 0.97747 0.62259 0.06956 0.0
C887 C 0.0148 0.63573 0.13368 0.0
C888 C 0.95354 0.62124 0.07192 0.0
C889 C 0.94149 0.63209 0.135 0.0
C890 C 0.98937 0.63492 0.13063 0.0
C891 C 0.95406 0.64469 0.19381 0.0
C892 C 0.02589 0.64725 0.1976 0.0
C893 C 0.05101 0.62383 0.07941 0.0
N894 N 0.9772 0.64565 0.19024 0.0
N895 N 0.02771 0.62453 0.07632 0.0
H896 H 0.09213 0.55363 0.12989 0.0
H897 H 0.16607 0.44647 0.93887 0.0
H898 H 0.16345 0.56137 0.07872 0.0
H899 H 0.09467 0.45367 0.8884 0.0
H900 H 0.16582 0.48611 1.00948 0.0
H901 H 0.09301 0.51421 0.05945 0.0
C902 C 0.10796 0.54699 0.10373 0.0
C903 C 0.12773 0.56068 0.1098 0.0
C904 C 0.15026 0.47893 0.98281 0.0
C905 C 0.12896 0.51564 0.03065 0.0
C906 C 0.15036 0.45636 0.94304 0.0
C907 C 0.13038 0.44695 0.90771 0.0
C908 C 0.12991 0.49181 0.98852 0.0
C909 C 0.11046 0.4604 0.91456 0.0
C910 C 0.10844 0.52457 0.06356 0.0
C911 C 0.14782 0.55133 0.0749 0.0
N912 N 0.11068 0.48211 0.95461 0.0
N913 N 0.148 0.52924 0.03726 0.0
H914 H 0.72241 0.90448 0.3934 0.0
H915 H 0.80864 0.83603 0.09196 0.0
H916 H 0.70302 0.85032 0.21376 0.0
H917 H 0.826 0.90219 0.22156 0.0
H918 H 0.77173 0.83756 0.15493 0.0
H919 H 0.76235 0.90068 0.3487 0.0
C920 C 0.72659 0.8917 0.34521 0.0
C921 C 0.7094 0.87788 0.30667 0.0
C922 C 0.78361 0.85174 0.16999 0.0
C923 C 0.75465 0.87329 0.25616 0.0
C924 C 0.8047 0.85084 0.13405 0.0
C925 C 0.82024 0.86912 0.15103 0.0
C926 C 0.77795 0.87106 0.22348 0.0
C927 C 0.81437 0.8878 0.20663 0.0
C928 C 0.74927 0.8896 0.31962 0.0
C929 C 0.71565 0.86158 0.24455 0.0
N930 N 0.79357 0.88839 0.24072 0.0
N931 N 0.73768 0.85976 0.22136 0.0
H932 H 0.37446 0.46626 0.68359 0.0
H933 H 0.37297 0.53842 0.34551 0.0
H934 H 0.37323 0.4352 0.4513 0.0
H935 H 0.37684 0.56969 0.57739 0.0
H936 H 0.37125 0.50034 0.38355 0.0
H937 H 0.37322 0.50454 0.64624 0.0
C938 C 0.37378 0.46746 0.62496 0.0
C939 C 0.37411 0.44747 0.57069 0.0
C940 C 0.37245 0.51559 0.42601 0.0
C941 C 0.37278 0.49108 0.52745 0.0
C942 C 0.37344 0.53733 0.40424 0.0
C943 C 0.37513 0.55736 0.45807 0.0
C944 C 0.37313 0.51386 0.50214 0.0
C945 C 0.37562 0.55482 0.53356 0.0
C946 C 0.37315 0.48929 0.60358 0.0
C947 C 0.37322 0.45008 0.49535 0.0
N948 N 0.37466 0.53353 0.55322 0.0
N949 N 0.37267 0.47141 0.47608 0.0
H950 H 0.80991 0.1733 0.9211 0.0
H951 H 0.72256 0.10471 0.6238 0.0
H952 H 0.82408 0.10497 0.80141 0.0
H953 H 0.70567 0.16511 0.78396 0.0
H954 H 0.76238 0.10769 0.66903 0.0
H955 H 0.7742 0.17363 0.8523 0.0
C956 C 0.80552 0.15838 0.88 0.0
C957 C 0.81979 0.13897 0.86751 0.0
C958 C 0.74997 0.12044 0.69339 0.0
C959 C 0.77886 0.13918 0.78829 0.0
C960 C 0.72736 0.11885 0.66722 0.0
C961 C 0.71087 0.13459 0.7007 0.0
C962 C 0.75598 0.13807 0.75254 0.0
C963 C 0.71784 0.15247 0.75721 0.0
C964 C 0.78513 0.15857 0.84062 0.0
C965 C 0.81342 0.12022 0.81292 0.0
N966 N 0.73977 0.15365 0.78147 0.0
N967 N 0.79329 0.12069 0.77559 0.0
H968 H 0.86274 0.569 0.01402 0.0
H969 H 0.86597 0.43589 0.01425 0.0
H970 H 0.89317 0.54389 0.20063 0.0
H971 H 0.89127 0.46239 0.82273 0.0
H972 H 0.86642 0.47538 0.08561 0.0
H973 H 0.86378 0.52953 0.9429 0.0
C974 C 0.86968 0.55518 0.03978 0.0
C975 C 0.8781 0.5596 0.11275 0.0
C976 C 0.87186 0.47241 0.02795 0.0
C977 C 0.87854 0.51471 0.03335 0.0
C978 C 0.87152 0.45002 0.98733 0.0
C979 C 0.87866 0.446 0.9129 0.0
C980 C 0.87866 0.49083 0.99282 0.0
C981 C 0.88575 0.46484 0.88026 0.0
C982 C 0.87025 0.53279 0.99938 0.0
C983 C 0.8867 0.54112 0.14419 0.0
N984 N 0.8853 0.48657 0.92021 0.0
N985 N 0.88644 0.51933 0.10455 0.0
H986 H 0.19977 0.17385 0.92269 0.0
H987 H 0.28647 0.10388 0.62573 0.0
H988 H 0.18463 0.10585 0.80209 0.0
H989 H 0.30397 0.1645 0.78409 0.0
H990 H 0.24662 0.10749 0.67082 0.0
H991 H 0.2356 0.17375 0.85388 0.0
C992 C 0.20397 0.15892 0.88139 0.0
C993 C 0.18939 0.13973 0.86862 0.0
C994 C 0.25917 0.12015 0.69481 0.0
C995 C 0.23043 0.13943 0.7894 0.0
C996 C 0.2818 0.11819 0.66871 0.0
C997 C 0.29846 0.13381 0.70178 0.0
C998 C 0.25333 0.138 0.75351 0.0
C999 C 0.29166 0.15194 0.7577 0.0
C1000 C 0.22442 0.15886 0.84199 0.0
C1001 C 0.19552 0.12094 0.81382 0.0
N1002 N 0.26971 0.15346 0.78197 0.0
N1003 N 0.21571 0.12117 0.7765 0.0
H1004 H 0.62778 0.57099 0.57318 0.0
H1005 H 0.64211 0.435 0.44709 0.0
H1006 H 0.63869 0.53892 0.34452 0.0
H1007 H 0.63322 0.46769 0.67587 0.0
H1008 H 0.64234 0.4728 0.40932 0.0
H1009 H 0.63067 0.5335 0.61117 0.0
C1010 C 0.63082 0.55608 0.53056 0.0
C1011 C 0.63299 0.55826 0.45507 0.0
C1012 C 0.64045 0.47178 0.46781 0.0
C1013 C 0.63635 0.51487 0.49927 0.0
C1014 C 0.6403 0.45015 0.48968 0.0
C1015 C 0.63745 0.44811 0.56499 0.0
C1016 C 0.63764 0.49166 0.52142 0.0
C1017 C 0.63546 0.46842 0.61734 0.0
C1018 C 0.6325 0.53458 0.5527 0.0
C1019 C 0.63686 0.53813 0.40315 0.0
N1020 N 0.63543 0.48936 0.59446 0.0
N1021 N 0.63839 0.51726 0.42625 0.0
H1022 H 0.30814 0.84654 0.21763 0.0
H1023 H 0.18452 0.90267 0.21529 0.0
H1024 H 0.28808 0.90464 0.38259 0.0
H1025 H 0.20291 0.83632 0.08924 0.0
H1026 H 0.22142 0.90399 0.28023 0.0
H1027 H 0.26905 0.84265 0.17291 0.0
C1028 C 0.29539 0.85848 0.2447 0.0
C1029 C 0.30137 0.8761 0.30339 0.0
C1030 C 0.21725 0.88906 0.23891 0.0
C1031 C 0.25632 0.87186 0.25177 0.0
C1032 C 0.19625 0.8883 0.20183 0.0
C1033 C 0.1908 0.86942 0.14649 0.0
C1034 C 0.2329 0.87089 0.21986 0.0
C1035 C 0.20653 0.85128 0.13106 0.0
C1036 C 0.27299 0.85619 0.21926 0.0
C1037 C 0.2841 0.89084 0.33709 0.0
N1038 N 0.2269 0.85256 0.16709 0.0
N1039 N 0.26231 0.88861 0.31005 0.0
H1040 H 0.65193 0.9361 0.50293 0.0
H1041 H 0.64586 0.07027 0.51195 0.0
H1042 H 0.61777 0.96306 0.32611 0.0
H1043 H 0.6241 0.04222 0.70467 0.0
H1044 H 0.6466 0.03094 0.43969 0.0
H1045 H 0.65276 0.97539 0.57627 0.0
C1046 C 0.64472 0.95029 0.47958 0.0
C1047 C 0.63456 0.94643 0.40895 0.0
C1048 C 0.64178 0.03351 0.49792 0.0
C1049 C 0.63615 0.99102 0.49068 0.0
C1050 C 0.64139 0.05582 0.539 0.0
C1051 C 0.63477 0.05939 0.61393 0.0
C1052 C 0.63624 0.0147 0.53294 0.0
C1053 C 0.62913 0.04013 0.64673 0.0
C1054 C 0.64518 0.97256 0.52127 0.0
C1055 C 0.6256 0.96536 0.38068 0.0
N1056 N 0.63021 0.01849 0.60614 0.0
N1057 N 0.62679 0.98694 0.42139 0.0
H1058 H 0.22185 0.4052 0.89063 0.0
H1059 H 0.30781 0.33568 0.59087 0.0
H1060 H 0.20189 0.3526 0.70704 0.0
H1061 H 0.326 0.40158 0.72057 0.0
H1062 H 0.27063 0.33803 0.65233 0.0
H1063 H 0.26186 0.40081 0.84684 0.0
C1064 C 0.2259 0.39267 0.84169 0.0
C1065 C 0.20855 0.37945 0.80187 0.0
C1066 C 0.28275 0.35197 0.66772 0.0
C1067 C 0.25387 0.37415 0.75251 0.0
C1068 C 0.30399 0.35061 0.63267 0.0
C1069 C 0.31984 0.36857 0.65011 0.0
C1070 C 0.27727 0.37144 0.72082 0.0
C1071 C 0.31412 0.38742 0.70531 0.0
C1072 C 0.24863 0.39023 0.81666 0.0
C1073 C 0.21465 0.36342 0.73886 0.0
N1074 N 0.29318 0.38846 0.73858 0.0
N1075 N 0.23672 0.36124 0.71631 0.0
H1076 H 0.87396 0.96787 0.1835 0.0
H1077 H 0.86839 0.03902 0.8434 0.0
H1078 H 0.86895 0.93635 0.95221 0.0
H1079 H 0.87406 0.07079 0.07435 0.0
H1080 H 0.86595 1.00114 0.88293 0.0
H1081 H 0.87126 0.00602 0.14557 0.0
C1082 C 0.87212 0.96894 0.12504 0.0
C1083 C 0.87195 0.94889 0.0711 0.0
C1084 C 0.86763 0.01647 0.92486 0.0
C1085 C 0.86891 0.9923 0.02717 0.0
C1086 C 0.86901 0.03808 0.90221 0.0
C1087 C 0.87162 0.05813 0.95534 0.0
C1088 C 0.86888 0.01495 1.00112 0.0
C1089 C 0.87227 0.05584 0.03103 0.0
C1090 C 0.87064 0.99069 0.10329 0.0
C1091 C 0.8695 0.95131 0.99593 0.0
N1092 N 0.87101 0.0347 0.05152 0.0
N1093 N 0.8682 0.97254 0.9763 0.0
H1094 H 0.20507 0.59167 0.26446 0.0
H1095 H 0.31045 0.6695 0.38401 0.0
H1096 H 0.21625 0.65169 0.16152 0.0
H1097 H 0.31913 0.59553 0.33908 0.0
H1098 H 0.27394 0.66505 0.31618 0.0
H1099 H 0.24511 0.5937 0.30625 0.0
C1100 C 0.21614 0.60502 0.24971 0.0
C1101 C 0.20764 0.62137 0.20892 0.0
C1102 C 0.284 0.64986 0.32058 0.0
C1103 C 0.25284 0.62434 0.25862 0.0
C1104 C 0.30469 0.65237 0.35945 0.0
C1105 C 0.31765 0.63284 0.36722 0.0
C1106 C 0.27596 0.62763 0.29156 0.0
C1107 C 0.30958 0.611 0.33418 0.0
C1108 C 0.23887 0.60617 0.27344 0.0
C1109 C 0.22241 0.6386 0.19205 0.0
N1110 N 0.28899 0.60892 0.29896 0.0
N1111 N 0.24426 0.63993 0.21822 0.0
H1112 H 0.39263 0.96212 0.32071 0.0
H1113 H 0.38532 0.0411 0.709 0.0
H1114 H 0.35906 0.9358 0.50018 0.0
H1115 H 0.36416 0.06823 0.51413 0.0
H1116 H 0.384 1.00184 0.63624 0.0
H1117 H 0.39052 1.00126 0.39334 0.0
C1118 C 0.38487 0.96459 0.37548 0.0
C1119 C 0.37606 0.94578 0.40484 0.0
C1120 C 0.37959 0.01646 0.60978 0.0
C1121 C 0.37415 0.99017 0.48819 0.0
C1122 C 0.38045 0.03877 0.65088 0.0
C1123 C 0.37482 0.05784 0.61721 0.0
C1124 C 0.37381 0.01337 0.53413 0.0
C1125 C 0.36855 0.05395 0.54193 0.0
C1126 C 0.3836 0.98686 0.41652 0.0
C1127 C 0.3661 0.94989 0.47587 0.0
N1128 N 0.36853 0.03213 0.50241 0.0
N1129 N 0.36571 0.97167 0.51585 0.0
H1130 H 0.78631 0.60084 0.12094 0.0
H1131 H 0.69932 0.67176 0.41443 0.0
H1132 H 0.80243 0.66374 0.2709 0.0
H1133 H 0.68413 0.60318 0.29843 0.0
H1134 H 0.73477 0.67147 0.34415 0.0
H1135 H 0.74658 0.60376 0.16728 0.0
C1136 C 0.78138 0.61546 0.16243 0.0
C1137 C 0.79768 0.63197 0.19268 0.0
C1138 C 0.72371 0.65647 0.33354 0.0
C1139 C 0.75261 0.63538 0.24574 0.0
C1140 C 0.70344 0.65664 0.37377 0.0
C1141 C 0.68895 0.63736 0.36289 0.0
C1142 C 0.72974 0.63679 0.28208 0.0
C1143 C 0.69498 0.61834 0.30878 0.0
C1144 C 0.75881 0.61703 0.1892 0.0
C1145 C 0.79049 0.65047 0.24668 0.0
N1146 N 0.71508 0.61842 0.27072 0.0
N1147 N 0.76861 0.6516 0.27157 0.0
H1148 H 0.13776 0.07193 0.07522 0.0
H1149 H 0.13914 0.93533 0.94355 0.0
H1150 H 0.13878 0.03954 0.84418 0.0
H1151 H 0.1381 0.96779 0.17451 0.0
H1152 H 0.14128 0.97317 0.90681 0.0
H1153 H 0.14012 0.03413 0.112 0.0
C1154 C 0.13854 0.05686 0.03189 0.0
C1155 C 0.13787 0.059 0.95612 0.0
C1156 C 0.14068 0.97209 0.96553 0.0
C1157 C 0.14061 0.01535 0.99872 0.0
C1158 C 0.13941 0.95043 0.98686 0.0
C1159 C 0.13823 0.9483 0.06257 0.0
C1160 C 0.1407 0.99198 0.02006 0.0
C1161 C 0.13893 0.96856 0.11563 0.0
C1162 C 0.13993 0.03522 0.05326 0.0
C1163 C 0.13918 0.03876 0.90309 0.0
N1164 N 0.13997 0.98958 0.09331 0.0
N1165 N 0.14036 0.01776 0.92544 0.0
H1166 H 0.68422 0.40195 0.72 0.0
H1167 H 0.80533 0.34145 0.73648 0.0
H1168 H 0.70125 0.33469 0.59764 0.0
H1169 H 0.7866 0.40249 0.89103 0.0
H1170 H 0.76617 0.33791 0.69138 0.0
H1171 H 0.72032 0.40209 0.78885 0.0
C1172 C 0.69547 0.38714 0.70817 0.0
C1173 C 0.6899 0.36835 0.65268 0.0
C1174 C 0.77041 0.35198 0.73573 0.0
C1175 C 0.7311 0.36843 0.73063 0.0
C1176 C 0.79281 0.354 0.76148 0.0
C1177 C 0.79917 0.37239 0.81709 0.0
C1178 C 0.75421 0.36873 0.76465 0.0
C1179 C 0.78228 0.38805 0.8481 0.0
C1180 C 0.71603 0.38722 0.74748 0.0
C1181 C 0.705 0.34962 0.63945 0.0
N1182 N 0.76055 0.38609 0.82057 0.0
N1183 N 0.72496 0.35022 0.67767 0.0
loop_
_geom_bond_atom_site_label_1
_geom_bond_atom_site_label_2
_geom_bond_distance
_geom_bond_site_symmetry_2
_ccdc_geom_bond_type
Dy0 O4 2.398 1_554 S
Dy0 O5 2.491 1_554 S
Dy0 O6 2.403 . S
Dy0 O7 2.664 . S
Dy0 O11 2.326 . S
Dy0 O15 2.310 . S
Dy0 O16 2.351 . S
C1 O12 1.185 . S
C1 O13 1.355 . S
C2 O4 1.185 . S
C2 O5 1.355 . S
Dy3 O7 2.310 . S
Dy3 O10 2.351 . S
Dy3 O12 2.398 . S
Dy3 O13 2.491 . S
Dy3 O14 2.403 . S
Dy3 O15 2.664 . S
Dy3 O17 2.326 . S
O4 Dy0 2.398 1_556 S
O4 C2 1.185 . S
O5 Dy0 2.491 1_556 S
O5 C2 1.355 . S
O6 Dy0 2.403 . S
O6 C8 1.254 . S
O7 Dy0 2.664 . S
O7 Dy3 2.310 . S
O7 C8 1.268 . S
C8 O6 1.254 . S
C8 O7 1.268 . S
C9 O14 1.254 . S
C9 O15 1.268 . S
O10 Dy3 2.351 . S
O10 C18 1.249 . S
O11 Dy0 2.326 . S
O11 C18 1.267 . S
O12 C1 1.185 . S
O12 Dy3 2.398 . S
O13 C1 1.355 . S
O13 Dy3 2.491 . S
O14 Dy3 2.403 . S
O14 C9 1.254 . S
O15 Dy0 2.310 . S
O15 Dy3 2.664 . S
O15 C9 1.268 . S
O16 Dy0 2.351 . S
O16 C19 1.249 . S
O17 Dy3 2.326 . S
O17 C19 1.267 . S
C18 O10 1.249 . S
C18 O11 1.267 . S
C19 O16 1.249 . S
C19 O17 1.267 . S
Dy20 O24 2.398 . S
Dy20 O25 2.491 . S
Dy20 O26 2.403 . S
Dy20 O27 2.664 . S
Dy20 O31 2.326 . S
Dy20 O35 2.310 . S
Dy20 O36 2.351 . S
C21 O32 1.185 . S
C21 O33 1.355 . S
C22 O24 1.185 . S
C22 O25 1.355 . S
Dy23 O27 2.310 . S
Dy23 O30 2.351 . S
Dy23 O32 2.398 . S
Dy23 O33 2.491 . S
Dy23 O34 2.403 . S
Dy23 O35 2.664 . S
Dy23 O37 2.326 . S
O24 Dy20 2.398 . S
O24 C22 1.185 . S
O25 Dy20 2.491 . S
O25 C22 1.355 . S
O26 Dy20 2.403 . S
O26 C28 1.254 . S
O27 Dy20 2.664 . S
O27 Dy23 2.310 . S
O27 C28 1.268 . S
C28 O26 1.254 . S
C28 O27 1.268 . S
C29 O34 1.254 . S
C29 O35 1.268 . S
O30 Dy23 2.351 . S
O30 C38 1.249 . S
O31 Dy20 2.326 . S
O31 C38 1.267 . S
O32 C21 1.185 . S
O32 Dy23 2.398 . S
O33 C21 1.355 . S
O33 Dy23 2.491 . S
O34 Dy23 2.403 . S
O34 C29 1.254 . S
O35 Dy20 2.310 . S
O35 Dy23 2.664 . S
O35 C29 1.268 . S
O36 Dy20 2.351 . S
O36 C39 1.249 . S
O37 Dy23 2.326 . S
O37 C39 1.267 . S
C38 O30 1.249 . S
C38 O31 1.267 . S
C39 O36 1.249 . S
C39 O37 1.267 . S
Dy40 O44 2.398 . S
Dy40 O45 2.491 . S
Dy40 O46 2.403 . S
Dy40 O47 2.664 . S
Dy40 O51 2.326 . S
Dy40 O55 2.310 . S
Dy40 O56 2.351 . S
C41 O52 1.185 . S
C41 O53 1.355 . S
C42 O44 1.185 . S
C42 O45 1.355 . S
Dy43 O47 2.310 . S
Dy43 O50 2.351 . S
Dy43 O52 2.398 . S
Dy43 O53 2.491 . S
Dy43 O54 2.403 . S
Dy43 O55 2.664 . S
Dy43 O57 2.326 . S
O44 Dy40 2.398 . S
O44 C42 1.185 . S
O45 Dy40 2.491 . S
O45 C42 1.355 . S
O46 Dy40 2.403 . S
O46 C48 1.254 . S
O47 Dy40 2.664 . S
O47 Dy43 2.310 . S
O47 C48 1.268 . S
C48 O46 1.254 . S
C48 O47 1.268 . S
C49 O54 1.254 . S
C49 O55 1.268 . S
O50 Dy43 2.351 . S
O50 C58 1.249 . S
O51 Dy40 2.326 . S
O51 C58 1.267 . S
O52 C41 1.185 . S
O52 Dy43 2.398 . S
O53 C41 1.355 . S
O53 Dy43 2.491 . S
O54 Dy43 2.403 . S
O54 C49 1.254 . S
O55 Dy40 2.310 . S
O55 Dy43 2.664 . S
O55 C49 1.268 . S
O56 Dy40 2.351 . S
O56 C59 1.249 . S
O57 Dy43 2.326 . S
O57 C59 1.267 . S
C58 O50 1.249 . S
C58 O51 1.267 . S
C59 O56 1.249 . S
C59 O57 1.267 . S
Dy60 O64 2.398 . S
Dy60 O65 2.491 . S
Dy60 O66 2.403 . S
Dy60 O67 2.664 . S
Dy60 O71 2.326 . S
Dy60 O75 2.310 . S
Dy60 O76 2.351 . S
C61 O72 1.185 . S
C61 O73 1.355 . S
C62 O64 1.185 . S
C62 O65 1.355 . S
Dy63 O67 2.310 . S
Dy63 O70 2.351 . S
Dy63 O72 2.398 1_556 S
Dy63 O73 2.491 1_556 S
Dy63 O74 2.403 . S
Dy63 O75 2.664 . S
Dy63 O77 2.326 . S
O64 Dy60 2.398 . S
O64 C62 1.185 . S
O65 Dy60 2.491 . S
O65 C62 1.355 . S
O66 Dy60 2.403 . S
O66 C68 1.254 . S
O67 Dy60 2.664 . S
O67 Dy63 2.310 . S
O67 C68 1.268 . S
C68 O66 1.254 . S
C68 O67 1.268 . S
C69 O74 1.254 . S
C69 O75 1.268 . S
O70 Dy63 2.351 . S
O70 C78 1.249 . S
O71 Dy60 2.326 . S
O71 C78 1.267 . S
O72 C61 1.185 . S
O72 Dy63 2.398 1_554 S
O73 C61 1.355 . S
O73 Dy63 2.491 1_554 S
O74 Dy63 2.403 . S
O74 C69 1.254 . S
O75 Dy60 2.310 . S
O75 Dy63 2.664 . S
O75 C69 1.268 . S
O76 Dy60 2.351 . S
O76 C79 1.249 . S
O77 Dy63 2.326 . S
O77 C79 1.267 . S
C78 O70 1.249 . S
C78 O71 1.267 . S
C79 O76 1.249 . S
C79 O77 1.267 . S
Dy80 O84 2.398 1_556 S
Dy80 O85 2.491 1_556 S
Dy80 O86 2.403 . S
Dy80 O87 2.664 . S
Dy80 O91 2.326 . S
Dy80 O95 2.310 . S
Dy80 O96 2.351 . S
C81 O92 1.185 . S
C81 O93 1.355 . S
C82 O84 1.185 . S
C82 O85 1.355 . S
Dy83 O87 2.310 . S
Dy83 O90 2.351 . S
Dy83 O92 2.398 . S
Dy83 O93 2.491 . S
Dy83 O94 2.403 . S
Dy83 O95 2.664 . S
Dy83 O97 2.326 . S
O84 Dy80 2.398 1_554 S
O84 C82 1.185 . S
O85 Dy80 2.491 1_554 S
O85 C82 1.355 . S
O86 Dy80 2.403 . S
O86 C88 1.254 . S
O87 Dy80 2.664 . S
O87 Dy83 2.310 . S
O87 C88 1.268 . S
C88 O86 1.254 . S
C88 O87 1.268 . S
C89 O94 1.254 . S
C89 O95 1.268 . S
O90 Dy83 2.351 . S
O90 C98 1.249 . S
O91 Dy80 2.326 . S
O91 C98 1.267 . S
O92 C81 1.185 . S
O92 Dy83 2.398 . S
O93 C81 1.355 . S
O93 Dy83 2.491 . S
O94 Dy83 2.403 . S
O94 C89 1.254 . S
O95 Dy80 2.310 . S
O95 Dy83 2.664 . S
O95 C89 1.268 . S
O96 Dy80 2.351 . S
O96 C99 1.249 . S
O97 Dy83 2.326 . S
O97 C99 1.267 . S
C98 O90 1.249 . S
C98 O91 1.267 . S
C99 O96 1.249 . S
C99 O97 1.267 . S
Dy100 O104 2.398 . S
Dy100 O105 2.491 . S
Dy100 O106 2.403 . S
Dy100 O107 2.664 . S
Dy100 O111 2.326 . S
Dy100 O115 2.310 . S
Dy100 O116 2.351 . S
C101 O112 1.185 . S
C101 O113 1.355 . S
C102 O104 1.185 . S
C102 O105 1.355 . S
Dy103 O107 2.310 . S
Dy103 O110 2.351 . S
Dy103 O112 2.398 1_554 S
Dy103 O113 2.491 1_554 S
Dy103 O114 2.403 . S
Dy103 O115 2.664 . S
Dy103 O117 2.326 . S
O104 Dy100 2.398 . S
O104 C102 1.185 . S
O105 Dy100 2.491 . S
O105 C102 1.355 . S
O106 Dy100 2.403 . S
O106 C108 1.254 . S
O107 Dy100 2.664 . S
O107 Dy103 2.310 . S
O107 C108 1.268 . S
C108 O106 1.254 . S
C108 O107 1.268 . S
C109 O114 1.254 . S
C109 O115 1.268 . S
O110 Dy103 2.351 . S
O110 C118 1.249 . S
O111 Dy100 2.326 . S
O111 C118 1.267 . S
O112 C101 1.185 . S
O112 Dy103 2.398 1_556 S
O113 C101 1.355 . S
O113 Dy103 2.491 1_556 S
O114 Dy103 2.403 . S
O114 C109 1.254 . S
O115 Dy100 2.310 . S
O115 Dy103 2.664 . S
O115 C109 1.268 . S
O116 Dy100 2.351 . S
O116 C119 1.249 . S
O117 Dy103 2.326 . S
O117 C119 1.267 . S
C118 O110 1.249 . S
C118 O111 1.267 . S
C119 O116 1.249 . S
C119 O117 1.267 . S
Dy120 O124 2.398 . S
Dy120 O125 2.491 . S
Dy120 O126 2.403 . S
Dy120 O127 2.664 . S
Dy120 O131 2.326 . S
Dy120 O135 2.310 . S
Dy120 O136 2.351 . S
C121 O132 1.185 . S
C121 O133 1.355 . S
C122 O124 1.185 . S
C122 O125 1.355 . S
Dy123 O127 2.310 . S
Dy123 O130 2.351 . S
Dy123 O132 2.398 . S
Dy123 O133 2.491 . S
Dy123 O134 2.403 . S
Dy123 O135 2.664 . S
Dy123 O137 2.326 . S
O124 Dy120 2.398 . S
O124 C122 1.185 . S
O125 Dy120 2.491 . S
O125 C122 1.355 . S
O126 Dy120 2.403 . S
O126 C128 1.254 . S
O127 Dy120 2.664 . S
O127 Dy123 2.310 . S
O127 C128 1.268 . S
C128 O126 1.254 . S
C128 O127 1.268 . S
C129 O134 1.254 . S
C129 O135 1.268 . S
O130 Dy123 2.351 . S
O130 C138 1.249 . S
O131 Dy120 2.326 . S
O131 C138 1.267 . S
O132 C121 1.185 . S
O132 Dy123 2.398 . S
O133 C121 1.355 . S
O133 Dy123 2.491 . S
O134 Dy123 2.403 . S
O134 C129 1.254 . S
O135 Dy120 2.310 . S
O135 Dy123 2.664 . S
O135 C129 1.268 . S
O136 Dy120 2.351 . S
O136 C139 1.249 . S
O137 Dy123 2.326 . S
O137 C139 1.267 . S
C138 O130 1.249 . S
C138 O131 1.267 . S
C139 O136 1.249 . S
C139 O137 1.267 . S
Dy140 O144 2.398 . S
Dy140 O145 2.491 . S
Dy140 O146 2.403 . S
Dy140 O147 2.664 . S
Dy140 O151 2.326 . S
Dy140 O155 2.310 . S
Dy140 O156 2.351 . S
C141 O152 1.185 . S
C141 O153 1.355 . S
C142 O144 1.185 . S
C142 O145 1.355 . S
Dy143 O147 2.310 . S
Dy143 O150 2.351 . S
Dy143 O152 2.398 . S
Dy143 O153 2.491 . S
Dy143 O154 2.403 . S
Dy143 O155 2.664 . S
Dy143 O157 2.326 . S
O144 Dy140 2.398 . S
O144 C142 1.185 . S
O145 Dy140 2.491 . S
O145 C142 1.355 . S
O146 Dy140 2.403 . S
O146 C148 1.254 . S
O147 Dy140 2.664 . S
O147 Dy143 2.310 . S
O147 C148 1.268 . S
C148 O146 1.254 . S
C148 O147 1.268 . S
C149 O154 1.254 . S
C149 O155 1.268 . S
O150 Dy143 2.351 . S
O150 C158 1.249 . S
O151 Dy140 2.326 . S
O151 C158 1.267 . S
O152 C141 1.185 . S
O152 Dy143 2.398 . S
O153 C141 1.355 . S
O153 Dy143 2.491 . S
O154 Dy143 2.403 . S
O154 C149 1.254 . S
O155 Dy140 2.310 . S
O155 Dy143 2.664 . S
O155 C149 1.268 . S
O156 Dy140 2.351 . S
O156 C159 1.249 . S
O157 Dy143 2.326 . S
O157 C159 1.267 . S
C158 O150 1.249 . S
C158 O151 1.267 . S
C159 O156 1.249 . S
C159 O157 1.267 . S
Dy160 O164 2.398 . S
Dy160 O165 2.491 . S
Dy160 O166 2.403 . S
Dy160 O167 2.664 . S
Dy160 O171 2.326 . S
Dy160 O175 2.310 . S
Dy160 O176 2.351 . S
C161 O172 1.185 . S
C161 O173 1.355 . S
C162 O164 1.185 . S
C162 O165 1.355 . S
Dy163 O167 2.310 . S
Dy163 O170 2.351 . S
Dy163 O172 2.398 1_556 S
Dy163 O173 2.491 1_556 S
Dy163 O174 2.403 . S
Dy163 O175 2.664 . S
Dy163 O177 2.326 . S
O164 Dy160 2.398 . S
O164 C162 1.185 . S
O165 Dy160 2.491 . S
O165 C162 1.355 . S
O166 Dy160 2.403 . S
O166 C168 1.254 . S
O167 Dy160 2.664 . S
O167 Dy163 2.310 . S
O167 C168 1.268 . S
C168 O166 1.254 . S
C168 O167 1.268 . S
C169 O174 1.254 . S
C169 O175 1.268 . S
O170 Dy163 2.351 . S
O170 C178 1.249 . S
O171 Dy160 2.326 . S
O171 C178 1.267 . S
O172 C161 1.185 . S
O172 Dy163 2.398 1_554 S
O173 C161 1.355 . S
O173 Dy163 2.491 1_554 S
O174 Dy163 2.403 . S
O174 C169 1.254 . S
O175 Dy160 2.310 . S
O175 Dy163 2.664 . S
O175 C169 1.268 . S
O176 Dy160 2.351 . S
O176 C179 1.249 . S
O177 Dy163 2.326 . S
O177 C179 1.267 . S
C178 O170 1.249 . S
C178 O171 1.267 . S
C179 O176 1.249 . S
C179 O177 1.267 . S
Dy180 O184 2.398 . S
Dy180 O185 2.491 . S
Dy180 O186 2.403 . S
Dy180 O187 2.664 . S
Dy180 O191 2.326 . S
Dy180 O195 2.310 . S
Dy180 O196 2.351 . S
C181 O192 1.185 . S
C181 O193 1.355 . S
C182 O184 1.185 . S
C182 O185 1.355 . S
Dy183 O187 2.310 . S
Dy183 O190 2.351 . S
Dy183 O192 2.398 . S
Dy183 O193 2.491 . S
Dy183 O194 2.403 . S
Dy183 O195 2.664 . S
Dy183 O197 2.326 . S
O184 Dy180 2.398 . S
O184 C182 1.185 . S
O185 Dy180 2.491 . S
O185 C182 1.355 . S
O186 Dy180 2.403 . S
O186 C188 1.254 . S
O187 Dy180 2.664 . S
O187 Dy183 2.310 . S
O187 C188 1.268 . S
C188 O186 1.254 . S
C188 O187 1.268 . S
C189 O194 1.254 . S
C189 O195 1.268 . S
O190 Dy183 2.351 . S
O190 C198 1.249 . S
O191 Dy180 2.326 . S
O191 C198 1.267 . S
O192 C181 1.185 . S
O192 Dy183 2.398 . S
O193 C181 1.355 . S
O193 Dy183 2.491 . S
O194 Dy183 2.403 . S
O194 C189 1.254 . S
O195 Dy180 2.310 . S
O195 Dy183 2.664 . S
O195 C189 1.268 . S
O196 Dy180 2.351 . S
O196 C199 1.249 . S
O197 Dy183 2.326 . S
O197 C199 1.267 . S
C198 O190 1.249 . S
C198 O191 1.267 . S
C199 O196 1.249 . S
C199 O197 1.267 . S
Dy200 O204 2.398 . S
Dy200 O205 2.491 . S
Dy200 O206 2.403 . S
Dy200 O207 2.664 . S
Dy200 O211 2.326 . S
Dy200 O215 2.310 . S
Dy200 O216 2.351 . S
C201 O212 1.185 . S
C201 O213 1.355 . S
C202 O204 1.185 . S
C202 O205 1.355 . S
Dy203 O207 2.310 . S
Dy203 O210 2.351 . S
Dy203 O212 2.398 . S
Dy203 O213 2.491 . S
Dy203 O214 2.403 . S
Dy203 O215 2.664 . S
Dy203 O217 2.326 . S
O204 Dy200 2.398 . S
O204 C202 1.185 . S
O205 Dy200 2.491 . S
O205 C202 1.355 . S
O206 Dy200 2.403 . S
O206 C208 1.254 . S
O207 Dy200 2.664 . S
O207 Dy203 2.310 . S
O207 C208 1.268 . S
C208 O206 1.254 . S
C208 O207 1.268 . S
C209 O214 1.254 . S
C209 O215 1.268 . S
O210 Dy203 2.351 . S
O210 C218 1.249 . S
O211 Dy200 2.326 . S
O211 C218 1.267 . S
O212 C201 1.185 . S
O212 Dy203 2.398 . S
O213 C201 1.355 . S
O213 Dy203 2.491 . S
O214 Dy203 2.403 . S
O214 C209 1.254 . S
O215 Dy200 2.310 . S
O215 Dy203 2.664 . S
O215 C209 1.268 . S
O216 Dy200 2.351 . S
O216 C219 1.249 . S
O217 Dy203 2.326 . S
O217 C219 1.267 . S
C218 O210 1.249 . S
C218 O211 1.267 . S
C219 O216 1.249 . S
C219 O217 1.267 . S
Dy220 O224 2.398 1_554 S
Dy220 O225 2.491 1_554 S
Dy220 O226 2.403 . S
Dy220 O227 2.664 . S
Dy220 O231 2.326 . S
Dy220 O235 2.310 . S
Dy220 O236 2.351 . S
C221 O232 1.185 . S
C221 O233 1.355 . S
C222 O224 1.185 . S
C222 O225 1.355 . S
Dy223 O227 2.310 . S
Dy223 O230 2.351 . S
Dy223 O232 2.398 . S
Dy223 O233 2.491 . S
Dy223 O234 2.403 . S
Dy223 O235 2.664 . S
Dy223 O237 2.326 . S
O224 Dy220 2.398 1_556 S
O224 C222 1.185 . S
O225 Dy220 2.491 1_556 S
O225 C222 1.355 . S
O226 Dy220 2.403 . S
O226 C228 1.254 . S
O227 Dy220 2.664 . S
O227 Dy223 2.310 . S
O227 C228 1.268 . S
C228 O226 1.254 . S
C228 O227 1.268 . S
C229 O234 1.254 . S
C229 O235 1.268 . S
O230 Dy223 2.351 . S
O230 C238 1.249 . S
O231 Dy220 2.326 . S
O231 C238 1.267 . S
O232 C221 1.185 . S
O232 Dy223 2.398 . S
O233 C221 1.355 . S
O233 Dy223 2.491 . S
O234 Dy223 2.403 . S
O234 C229 1.254 . S
O235 Dy220 2.310 . S
O235 Dy223 2.664 . S
O235 C229 1.268 . S
O236 Dy220 2.351 . S
O236 C239 1.249 . S
O237 Dy223 2.326 . S
O237 C239 1.267 . S
C238 O230 1.249 . S
C238 O231 1.267 . S
C239 O236 1.249 . S
C239 O237 1.267 . S
Dy240 O244 2.398 . S
Dy240 O245 2.491 . S
Dy240 O246 2.403 . S
Dy240 O247 2.664 . S
Dy240 O251 2.326 . S
Dy240 O255 2.310 . S
Dy240 O256 2.351 . S
C241 O252 1.185 . S
C241 O253 1.355 . S
C242 O244 1.185 . S
C242 O245 1.355 . S
Dy243 O247 2.310 . S
Dy243 O250 2.351 . S
Dy243 O252 2.398 1_554 S
Dy243 O253 2.491 1_554 S
Dy243 O254 2.403 . S
Dy243 O255 2.664 . S
Dy243 O257 2.326 . S
O244 Dy240 2.398 . S
O244 C242 1.185 . S
O245 Dy240 2.491 . S
O245 C242 1.355 . S
O246 Dy240 2.403 . S
O246 C248 1.254 . S
O247 Dy240 2.664 . S
O247 Dy243 2.310 . S
O247 C248 1.268 . S
C248 O246 1.254 . S
C248 O247 1.268 . S
C249 O254 1.254 . S
C249 O255 1.268 . S
O250 Dy243 2.351 . S
O250 C258 1.249 . S
O251 Dy240 2.326 . S
O251 C258 1.267 . S
O252 C241 1.185 . S
O252 Dy243 2.398 1_556 S
O253 C241 1.355 . S
O253 Dy243 2.491 1_556 S
O254 Dy243 2.403 . S
O254 C249 1.254 . S
O255 Dy240 2.310 . S
O255 Dy243 2.664 . S
O255 C249 1.268 . S
O256 Dy240 2.351 . S
O256 C259 1.249 . S
O257 Dy243 2.326 . S
O257 C259 1.267 . S
C258 O250 1.249 . S
C258 O251 1.267 . S
C259 O256 1.249 . S
C259 O257 1.267 . S
Dy260 O264 2.398 1_556 S
Dy260 O265 2.491 1_556 S
Dy260 O266 2.403 . S
Dy260 O267 2.664 . S
Dy260 O271 2.326 . S
Dy260 O275 2.310 . S
Dy260 O276 2.351 . S
C261 O272 1.185 . S
C261 O273 1.355 . S
C262 O264 1.185 . S
C262 O265 1.355 . S
Dy263 O267 2.310 . S
Dy263 O270 2.351 . S
Dy263 O272 2.398 . S
Dy263 O273 2.491 . S
Dy263 O274 2.403 . S
Dy263 O275 2.664 . S
Dy263 O277 2.326 . S
O264 Dy260 2.398 1_554 S
O264 C262 1.185 . S
O265 Dy260 2.491 1_554 S
O265 C262 1.355 . S
O266 Dy260 2.403 . S
O266 C268 1.254 . S
O267 Dy260 2.664 . S
O267 Dy263 2.310 . S
O267 C268 1.268 . S
C268 O266 1.254 . S
C268 O267 1.268 . S
C269 O274 1.254 . S
C269 O275 1.268 . S
O270 Dy263 2.351 . S
O270 C278 1.249 . S
O271 Dy260 2.326 . S
O271 C278 1.267 . S
O272 C261 1.185 . S
O272 Dy263 2.398 . S
O273 C261 1.355 . S
O273 Dy263 2.491 . S
O274 Dy263 2.403 . S
O274 C269 1.254 . S
O275 Dy260 2.310 . S
O275 Dy263 2.664 . S
O275 C269 1.268 . S
O276 Dy260 2.351 . S
O276 C279 1.249 . S
O277 Dy263 2.326 . S
O277 C279 1.267 . S
C278 O270 1.249 . S
C278 O271 1.267 . S
C279 O276 1.249 . S
C279 O277 1.267 . S
Dy280 O284 2.398 . S
Dy280 O285 2.491 . S
Dy280 O286 2.403 . S
Dy280 O287 2.664 . S
Dy280 O291 2.326 . S
Dy280 O295 2.310 . S
Dy280 O296 2.351 . S
C281 O292 1.185 . S
C281 O293 1.355 . S
C282 O284 1.185 . S
C282 O285 1.355 . S
Dy283 O287 2.310 . S
Dy283 O290 2.351 . S
Dy283 O292 2.398 . S
Dy283 O293 2.491 . S
Dy283 O294 2.403 . S
Dy283 O295 2.664 . S
Dy283 O297 2.326 . S
O284 Dy280 2.398 . S
O284 C282 1.185 . S
O285 Dy280 2.491 . S
O285 C282 1.355 . S
O286 Dy280 2.403 . S
O286 C288 1.254 . S
O287 Dy280 2.664 . S
O287 Dy283 2.310 . S
O287 C288 1.268 . S
C288 O286 1.254 . S
C288 O287 1.268 . S
C289 O294 1.254 . S
C289 O295 1.268 . S
O290 Dy283 2.351 . S
O290 C298 1.249 . S
O291 Dy280 2.326 . S
O291 C298 1.267 . S
O292 C281 1.185 . S
O292 Dy283 2.398 . S
O293 C281 1.355 . S
O293 Dy283 2.491 . S
O294 Dy283 2.403 . S
O294 C289 1.254 . S
O295 Dy280 2.310 . S
O295 Dy283 2.664 . S
O295 C289 1.268 . S
O296 Dy280 2.351 . S
O296 C299 1.249 . S
O297 Dy283 2.326 . S
O297 C299 1.267 . S
C298 O290 1.249 . S
C298 O291 1.267 . S
C299 O296 1.249 . S
C299 O297 1.267 . S
Dy300 O304 2.398 . S
Dy300 O305 2.491 . S
Dy300 O306 2.403 . S
Dy300 O307 2.664 . S
Dy300 O311 2.326 . S
Dy300 O315 2.310 . S
Dy300 O316 2.351 . S
C301 O312 1.185 . S
C301 O313 1.355 . S
C302 O304 1.185 . S
C302 O305 1.355 . S
Dy303 O307 2.310 . S
Dy303 O310 2.351 . S
Dy303 O312 2.398 . S
Dy303 O313 2.491 . S
Dy303 O314 2.403 . S
Dy303 O315 2.664 . S
Dy303 O317 2.326 . S
O304 Dy300 2.398 . S
O304 C302 1.185 . S
O305 Dy300 2.491 . S
O305 C302 1.355 . S
O306 Dy300 2.403 . S
O306 C308 1.254 . S
O307 Dy300 2.664 . S
O307 Dy303 2.310 . S
O307 C308 1.268 . S
C308 O306 1.254 . S
C308 O307 1.268 . S
C309 O314 1.254 . S
C309 O315 1.268 . S
O310 Dy303 2.351 . S
O310 C318 1.249 . S
O311 Dy300 2.326 . S
O311 C318 1.267 . S
O312 C301 1.185 . S
O312 Dy303 2.398 . S
O313 C301 1.355 . S
O313 Dy303 2.491 . S
O314 Dy303 2.403 . S
O314 C309 1.254 . S
O315 Dy300 2.310 . S
O315 Dy303 2.664 . S
O315 C309 1.268 . S
O316 Dy300 2.351 . S
O316 C319 1.249 . S
O317 Dy303 2.326 . S
O317 C319 1.267 . S
C318 O310 1.249 . S
C318 O311 1.267 . S
C319 O316 1.249 . S
C319 O317 1.267 . S
H320 C326 0.930 . S
H321 C330 0.930 . S
H322 C335 0.929 . S
H323 C333 0.929 . S
H324 C328 0.929 . S
H325 C334 0.929 . S
C326 H320 0.930 . S
C326 C327 1.367 . S
C326 C334 1.378 . S
C327 C326 1.367 . S
C327 C335 1.433 . S
C328 H324 0.929 . S
C328 C330 1.378 . S
C328 C332 1.350 . S
C329 C332 1.463 . S
C329 C334 1.350 . S
C329 N337 1.427 . S
C330 H321 0.930 . S
C330 C328 1.378 . S
C330 C331 1.367 . S
C331 C330 1.367 . S
C331 C333 1.433 . S
C332 C328 1.350 . S
C332 C329 1.463 . S
C332 N336 1.427 . S
C333 H323 0.929 . S
C333 C331 1.433 . S
C333 N336 1.384 . S
C334 H325 0.929 . S
C334 C326 1.378 . S
C334 C329 1.350 . S
C335 H322 0.929 . S
C335 C327 1.433 . S
C335 N337 1.384 . S
N336 C332 1.427 . S
N336 C333 1.384 . S
N337 C329 1.427 . S
N337 C335 1.384 . S
H338 C344 0.930 . S
H339 C348 0.930 . S
H340 C353 0.929 1_554 S
H341 C351 0.929 . S
H342 C346 0.929 . S
H343 C352 0.929 . S
C344 H338 0.930 . S
C344 C345 1.367 . S
C344 C352 1.378 1_554 S
C345 C344 1.367 . S
C345 C353 1.433 1_554 S
C346 H342 0.929 . S
C346 C348 1.378 . S
C346 C350 1.350 . S
C347 C350 1.463 . S
C347 C352 1.350 . S
C347 N355 1.427 . S
C348 H339 0.930 . S
C348 C346 1.378 . S
C348 C349 1.367 . S
C349 C348 1.367 . S
C349 C351 1.433 . S
C350 C346 1.350 . S
C350 C347 1.463 . S
C350 N354 1.427 . S
C351 H341 0.929 . S
C351 C349 1.433 . S
C351 N354 1.384 . S
C352 H343 0.929 . S
C352 C344 1.378 1_556 S
C352 C347 1.350 . S
C353 H340 0.929 1_556 S
C353 C345 1.433 1_556 S
C353 N355 1.384 . S
N354 C350 1.427 . S
N354 C351 1.384 . S
N355 C347 1.427 . S
N355 C353 1.384 . S
H356 C362 0.930 . S
H357 C366 0.930 . S
H358 C371 0.929 . S
H359 C369 0.929 . S
H360 C364 0.929 . S
H361 C370 0.929 . S
C362 H356 0.930 . S
C362 C363 1.367 . S
C362 C370 1.378 . S
C363 C362 1.367 . S
C363 C371 1.433 . S
C364 H360 0.929 . S
C364 C366 1.378 1_554 S
C364 C368 1.350 . S
C365 C368 1.463 . S
C365 C370 1.350 . S
C365 N373 1.427 . S
C366 H357 0.930 . S
C366 C364 1.378 1_556 S
C366 C367 1.367 . S
C367 C366 1.367 . S
C367 C369 1.433 . S
C368 C364 1.350 . S
C368 C365 1.463 . S
C368 N372 1.427 . S
C369 H359 0.929 . S
C369 C367 1.433 . S
C369 N372 1.384 1_556 S
C370 H361 0.929 . S
C370 C362 1.378 . S
C370 C365 1.350 . S
C371 H358 0.929 . S
C371 C363 1.433 . S
C371 N373 1.384 . S
N372 C368 1.427 . S
N372 C369 1.384 1_554 S
N373 C365 1.427 . S
N373 C371 1.384 . S
H374 C380 0.930 . S
H375 C384 0.930 . S
H376 C389 0.929 . S
H377 C387 0.929 . S
H378 C382 0.929 . S
H379 C388 0.929 . S
C380 H374 0.930 . S
C380 C381 1.367 . S
C380 C388 1.378 . S
C381 C380 1.367 . S
C381 C389 1.433 . S
C382 H378 0.929 . S
C382 C384 1.378 . S
C382 C386 1.350 . S
C383 C386 1.463 . S
C383 C388 1.350 . S
C383 N391 1.427 . S
C384 H375 0.930 . S
C384 C382 1.378 . S
C384 C385 1.367 . S
C385 C384 1.367 . S
C385 C387 1.433 . S
C386 C382 1.350 . S
C386 C383 1.463 . S
C386 N390 1.427 . S
C387 H377 0.929 . S
C387 C385 1.433 . S
C387 N390 1.384 . S
C388 H379 0.929 . S
C388 C380 1.378 . S
C388 C383 1.350 . S
C389 H376 0.929 . S
C389 C381 1.433 . S
C389 N391 1.384 . S
N390 C386 1.427 . S
N390 C387 1.384 . S
N391 C383 1.427 . S
N391 C389 1.384 . S
H392 C398 0.930 . S
H393 C402 0.930 . S
H394 C407 0.929 . S
H395 C405 0.929 . S
H396 C400 0.929 . S
H397 C406 0.929 . S
C398 H392 0.930 . S
C398 C399 1.367 . S
C398 C406 1.378 . S
C399 C398 1.367 . S
C399 C407 1.433 . S
C400 H396 0.929 . S
C400 C402 1.378 . S
C400 C404 1.350 . S
C401 C404 1.463 . S
C401 C406 1.350 . S
C401 N409 1.427 . S
C402 H393 0.930 . S
C402 C400 1.378 . S
C402 C403 1.367 . S
C403 C402 1.367 . S
C403 C405 1.433 . S
C404 C400 1.350 . S
C404 C401 1.463 . S
C404 N408 1.427 . S
C405 H395 0.929 . S
C405 C403 1.433 . S
C405 N408 1.384 . S
C406 H397 0.929 . S
C406 C398 1.378 . S
C406 C401 1.350 . S
C407 H394 0.929 . S
C407 C399 1.433 . S
C407 N409 1.384 . S
N408 C404 1.427 . S
N408 C405 1.384 . S
N409 C401 1.427 . S
N409 C407 1.384 . S
H410 C416 0.930 . S
H411 C420 0.930 . S
H412 C425 0.929 . S
H413 C423 0.929 . S
H414 C418 0.929 . S
H415 C424 0.929 . S
C416 H410 0.930 . S
C416 C417 1.367 . S
C416 C424 1.378 . S
C417 C416 1.367 . S
C417 C425 1.433 . S
C418 H414 0.929 . S
C418 C420 1.378 . S
C418 C422 1.350 . S
C419 C422 1.463 . S
C419 C424 1.350 . S
C419 N427 1.427 . S
C420 H411 0.930 . S
C420 C418 1.378 . S
C420 C421 1.367 . S
C421 C420 1.367 . S
C421 C423 1.433 . S
C422 C418 1.350 . S
C422 C419 1.463 . S
C422 N426 1.427 . S
C423 H413 0.929 . S
C423 C421 1.433 . S
C423 N426 1.384 . S
C424 H415 0.929 . S
C424 C416 1.378 . S
C424 C419 1.350 . S
C425 H412 0.929 . S
C425 C417 1.433 . S
C425 N427 1.384 . S
N426 C422 1.427 . S
N426 C423 1.384 . S
N427 C419 1.427 . S
N427 C425 1.384 . S
H428 C434 0.930 . S
H429 C438 0.930 . S
H430 C443 0.929 . S
H431 C441 0.929 . S
H432 C436 0.929 . S
H433 C442 0.929 . S
C434 H428 0.930 . S
C434 C435 1.367 . S
C434 C442 1.378 . S
C435 C434 1.367 . S
C435 C443 1.433 . S
C436 H432 0.929 . S
C436 C438 1.378 1_556 S
C436 C440 1.350 . S
C437 C440 1.463 . S
C437 C442 1.350 . S
C437 N445 1.427 . S
C438 H429 0.930 . S
C438 C436 1.378 1_554 S
C438 C439 1.367 . S
C439 C438 1.367 . S
C439 C441 1.433 . S
C440 C436 1.350 . S
C440 C437 1.463 . S
C440 N444 1.427 . S
C441 H431 0.929 . S
C441 C439 1.433 . S
C441 N444 1.384 1_554 S
C442 H433 0.929 . S
C442 C434 1.378 . S
C442 C437 1.350 . S
C443 H430 0.929 . S
C443 C435 1.433 . S
C443 N445 1.384 . S
N444 C440 1.427 . S
N444 C441 1.384 1_556 S
N445 C437 1.427 . S
N445 C443 1.384 . S
H446 C452 0.930 . S
H447 C456 0.930 . S
H448 C461 0.929 . S
H449 C459 0.929 . S
H450 C454 0.929 . S
H451 C460 0.929 . S
C452 H446 0.930 . S
C452 C453 1.367 . S
C452 C460 1.378 1_556 S
C453 C452 1.367 . S
C453 C461 1.433 . S
C454 H450 0.929 . S
C454 C456 1.378 . S
C454 C458 1.350 . S
C455 C458 1.463 . S
C455 C460 1.350 . S
C455 N463 1.427 . S
C456 H447 0.930 . S
C456 C454 1.378 . S
C456 C457 1.367 . S
C457 C456 1.367 . S
C457 C459 1.433 . S
C458 C454 1.350 . S
C458 C455 1.463 . S
C458 N462 1.427 . S
C459 H449 0.929 . S
C459 C457 1.433 . S
C459 N462 1.384 . S
C460 H451 0.929 . S
C460 C452 1.378 1_554 S
C460 C455 1.350 . S
C461 H448 0.929 . S
C461 C453 1.433 . S
C461 N463 1.384 1_556 S
N462 C458 1.427 . S
N462 C459 1.384 . S
N463 C455 1.427 . S
N463 C461 1.384 1_554 S
H464 C470 0.930 . S
H465 C474 0.930 . S
H466 C479 0.929 . S
H467 C477 0.929 . S
H468 C472 0.929 . S
H469 C478 0.929 . S
C470 H464 0.930 . S
C470 C471 1.367 . S
C470 C478 1.378 . S
C471 C470 1.367 . S
C471 C479 1.433 . S
C472 H468 0.929 . S
C472 C474 1.378 . S
C472 C476 1.350 . S
C473 C476 1.463 . S
C473 C478 1.350 . S
C473 N481 1.427 . S
C474 H465 0.930 . S
C474 C472 1.378 . S
C474 C475 1.367 . S
C475 C474 1.367 . S
C475 C477 1.433 . S
C476 C472 1.350 . S
C476 C473 1.463 . S
C476 N480 1.427 . S
C477 H467 0.929 . S
C477 C475 1.433 . S
C477 N480 1.384 . S
C478 H469 0.929 . S
C478 C470 1.378 . S
C478 C473 1.350 . S
C479 H466 0.929 . S
C479 C471 1.433 . S
C479 N481 1.384 . S
N480 C476 1.427 . S
N480 C477 1.384 . S
N481 C473 1.427 . S
N481 C479 1.384 . S
H482 C488 0.930 . S
H483 C492 0.930 . S
H484 C497 0.929 . S
H485 C495 0.929 . S
H486 C490 0.929 . S
H487 C496 0.929 . S
C488 H482 0.930 . S
C488 C489 1.367 . S
C488 C496 1.378 . S
C489 C488 1.367 . S
C489 C497 1.433 . S
C490 H486 0.929 . S
C490 C492 1.378 1_554 S
C490 C494 1.350 . S
C491 C494 1.463 . S
C491 C496 1.350 . S
C491 N499 1.427 . S
C492 H483 0.930 . S
C492 C490 1.378 1_556 S
C492 C493 1.367 . S
C493 C492 1.367 . S
C493 C495 1.433 . S
C494 C490 1.350 . S
C494 C491 1.463 . S
C494 N498 1.427 . S
C495 H485 0.929 . S
C495 C493 1.433 . S
C495 N498 1.384 1_556 S
C496 H487 0.929 . S
C496 C488 1.378 . S
C496 C491 1.350 . S
C497 H484 0.929 . S
C497 C489 1.433 . S
C497 N499 1.384 . S
N498 C494 1.427 . S
N498 C495 1.384 1_554 S
N499 C491 1.427 . S
N499 C497 1.384 . S
H500 C506 0.930 . S
H501 C510 0.930 . S
H502 C515 0.929 . S
H503 C513 0.929 . S
H504 C508 0.929 . S
H505 C514 0.929 . S
C506 H500 0.930 . S
C506 C507 1.367 . S
C506 C514 1.378 1_554 S
C507 C506 1.367 . S
C507 C515 1.433 . S
C508 H504 0.929 . S
C508 C510 1.378 . S
C508 C512 1.350 . S
C509 C512 1.463 . S
C509 C514 1.350 . S
C509 N517 1.427 . S
C510 H501 0.930 . S
C510 C508 1.378 . S
C510 C511 1.367 . S
C511 C510 1.367 . S
C511 C513 1.433 . S
C512 C508 1.350 . S
C512 C509 1.463 . S
C512 N516 1.427 . S
C513 H503 0.929 . S
C513 C511 1.433 . S
C513 N516 1.384 . S
C514 H505 0.929 . S
C514 C506 1.378 1_556 S
C514 C509 1.350 . S
C515 H502 0.929 . S
C515 C507 1.433 . S
C515 N517 1.384 1_554 S
N516 C512 1.427 . S
N516 C513 1.384 . S
N517 C509 1.427 . S
N517 C515 1.384 1_556 S
H518 C524 0.930 . S
H519 C528 0.930 . S
H520 C533 0.929 . S
H521 C531 0.929 . S
H522 C526 0.929 . S
H523 C532 0.929 . S
C524 H518 0.930 . S
C524 C525 1.367 . S
C524 C532 1.378 . S
C525 C524 1.367 . S
C525 C533 1.433 . S
C526 H522 0.929 . S
C526 C528 1.378 . S
C526 C530 1.350 . S
C527 C530 1.463 . S
C527 C532 1.350 . S
C527 N535 1.427 . S
C528 H519 0.930 . S
C528 C526 1.378 . S
C528 C529 1.367 . S
C529 C528 1.367 . S
C529 C531 1.433 . S
C530 C526 1.350 . S
C530 C527 1.463 . S
C530 N534 1.427 . S
C531 H521 0.929 . S
C531 C529 1.433 . S
C531 N534 1.384 . S
C532 H523 0.929 . S
C532 C524 1.378 . S
C532 C527 1.350 . S
C533 H520 0.929 . S
C533 C525 1.433 . S
C533 N535 1.384 . S
N534 C530 1.427 . S
N534 C531 1.384 . S
N535 C527 1.427 . S
N535 C533 1.384 . S
H536 C542 0.930 . S
H537 C546 0.930 . S
H538 C551 0.929 . S
H539 C549 0.929 . S
H540 C544 0.929 . S
H541 C550 0.929 . S
C542 H536 0.930 . S
C542 C543 1.367 . S
C542 C550 1.378 . S
C543 C542 1.367 . S
C543 C551 1.433 . S
C544 H540 0.929 . S
C544 C546 1.378 . S
C544 C548 1.350 . S
C545 C548 1.463 . S
C545 C550 1.350 . S
C545 N553 1.427 . S
C546 H537 0.930 . S
C546 C544 1.378 . S
C546 C547 1.367 . S
C547 C546 1.367 . S
C547 C549 1.433 . S
C548 C544 1.350 . S
C548 C545 1.463 . S
C548 N552 1.427 . S
C549 H539 0.929 . S
C549 C547 1.433 . S
C549 N552 1.384 . S
C550 H541 0.929 . S
C550 C542 1.378 . S
C550 C545 1.350 . S
C551 H538 0.929 . S
C551 C543 1.433 . S
C551 N553 1.384 . S
N552 C548 1.427 . S
N552 C549 1.384 . S
N553 C545 1.427 . S
N553 C551 1.384 . S
H554 C560 0.930 . S
H555 C564 0.930 . S
H556 C569 0.929 . S
H557 C567 0.929 . S
H558 C562 0.929 . S
H559 C568 0.929 . S
C560 H554 0.930 . S
C560 C561 1.367 . S
C560 C568 1.378 . S
C561 C560 1.367 . S
C561 C569 1.433 . S
C562 H558 0.929 . S
C562 C564 1.378 . S
C562 C566 1.350 . S
C563 C566 1.463 . S
C563 C568 1.350 . S
C563 N571 1.427 . S
C564 H555 0.930 . S
C564 C562 1.378 . S
C564 C565 1.367 . S
C565 C564 1.367 . S
C565 C567 1.433 . S
C566 C562 1.350 . S
C566 C563 1.463 . S
C566 N570 1.427 . S
C567 H557 0.929 . S
C567 C565 1.433 . S
C567 N570 1.384 . S
C568 H559 0.929 . S
C568 C560 1.378 . S
C568 C563 1.350 . S
C569 H556 0.929 . S
C569 C561 1.433 . S
C569 N571 1.384 . S
N570 C566 1.427 . S
N570 C567 1.384 . S
N571 C563 1.427 . S
N571 C569 1.384 . S
H572 C578 0.930 . S
H573 C582 0.930 . S
H574 C587 0.929 . S
H575 C585 0.929 . S
H576 C580 0.929 . S
H577 C586 0.929 . S
C578 H572 0.930 . S
C578 C579 1.367 . S
C578 C586 1.378 . S
C579 C578 1.367 . S
C579 C587 1.433 . S
C580 H576 0.929 . S
C580 C582 1.378 1_554 S
C580 C584 1.350 . S
C581 C584 1.463 . S
C581 C586 1.350 . S
C581 N589 1.427 . S
C582 H573 0.930 . S
C582 C580 1.378 1_556 S
C582 C583 1.367 . S
C583 C582 1.367 . S
C583 C585 1.433 . S
C584 C580 1.350 . S
C584 C581 1.463 . S
C584 N588 1.427 . S
C585 H575 0.929 . S
C585 C583 1.433 . S
C585 N588 1.384 1_556 S
C586 H577 0.929 . S
C586 C578 1.378 . S
C586 C581 1.350 . S
C587 H574 0.929 . S
C587 C579 1.433 . S
C587 N589 1.384 . S
N588 C584 1.427 . S
N588 C585 1.384 1_554 S
N589 C581 1.427 . S
N589 C587 1.384 . S
H590 C596 0.930 . S
H591 C600 0.930 . S
H592 C605 0.929 1_554 S
H593 C603 0.929 . S
H594 C598 0.929 . S
H595 C604 0.929 . S
C596 H590 0.930 . S
C596 C597 1.367 . S
C596 C604 1.378 1_554 S
C597 C596 1.367 . S
C597 C605 1.433 1_554 S
C598 H594 0.929 . S
C598 C600 1.378 . S
C598 C602 1.350 . S
C599 C602 1.463 . S
C599 C604 1.350 . S
C599 N607 1.427 . S
C600 H591 0.930 . S
C600 C598 1.378 . S
C600 C601 1.367 . S
C601 C600 1.367 . S
C601 C603 1.433 . S
C602 C598 1.350 . S
C602 C599 1.463 . S
C602 N606 1.427 . S
C603 H593 0.929 . S
C603 C601 1.433 . S
C603 N606 1.384 . S
C604 H595 0.929 . S
C604 C596 1.378 1_556 S
C604 C599 1.350 . S
C605 H592 0.929 1_556 S
C605 C597 1.433 1_556 S
C605 N607 1.384 . S
N606 C602 1.427 . S
N606 C603 1.384 . S
N607 C599 1.427 . S
N607 C605 1.384 . S
H608 C614 0.930 . S
H609 C618 0.930 . S
H610 C623 0.929 . S
H611 C621 0.929 . S
H612 C616 0.929 . S
H613 C622 0.929 . S
C614 H608 0.930 . S
C614 C615 1.367 . S
C614 C622 1.378 . S
C615 C614 1.367 . S
C615 C623 1.433 . S
C616 H612 0.929 . S
C616 C618 1.378 . S
C616 C620 1.350 . S
C617 C620 1.463 . S
C617 C622 1.350 . S
C617 N625 1.427 . S
C618 H609 0.930 . S
C618 C616 1.378 . S
C618 C619 1.367 . S
C619 C618 1.367 . S
C619 C621 1.433 . S
C620 C616 1.350 . S
C620 C617 1.463 . S
C620 N624 1.427 . S
C621 H611 0.929 . S
C621 C619 1.433 . S
C621 N624 1.384 . S
C622 H613 0.929 . S
C622 C614 1.378 . S
C622 C617 1.350 . S
C623 H610 0.929 . S
C623 C615 1.433 . S
C623 N625 1.384 . S
N624 C620 1.427 . S
N624 C621 1.384 . S
N625 C617 1.427 . S
N625 C623 1.384 . S
H626 C632 0.930 . S
H627 C636 0.930 . S
H628 C641 0.929 . S
H629 C639 0.929 . S
H630 C634 0.929 . S
H631 C640 0.929 . S
C632 H626 0.930 . S
C632 C633 1.367 . S
C632 C640 1.378 . S
C633 C632 1.367 . S
C633 C641 1.433 . S
C634 H630 0.929 . S
C634 C636 1.378 . S
C634 C638 1.350 . S
C635 C638 1.463 . S
C635 C640 1.350 . S
C635 N643 1.427 . S
C636 H627 0.930 . S
C636 C634 1.378 . S
C636 C637 1.367 . S
C637 C636 1.367 . S
C637 C639 1.433 . S
C638 C634 1.350 . S
C638 C635 1.463 . S
C638 N642 1.427 . S
C639 H629 0.929 . S
C639 C637 1.433 . S
C639 N642 1.384 . S
C640 H631 0.929 . S
C640 C632 1.378 . S
C640 C635 1.350 . S
C641 H628 0.929 . S
C641 C633 1.433 . S
C641 N643 1.384 . S
N642 C638 1.427 . S
N642 C639 1.384 . S
N643 C635 1.427 . S
N643 C641 1.384 . S
H644 C650 0.930 . S
H645 C654 0.930 . S
H646 C659 0.929 . S
H647 C657 0.929 . S
H648 C652 0.929 . S
H649 C658 0.929 . S
C650 H644 0.930 . S
C650 C651 1.367 . S
C650 C658 1.378 . S
C651 C650 1.367 . S
C651 C659 1.433 . S
C652 H648 0.929 . S
C652 C654 1.378 . S
C652 C656 1.350 . S
C653 C656 1.463 . S
C653 C658 1.350 . S
C653 N661 1.427 . S
C654 H645 0.930 . S
C654 C652 1.378 . S
C654 C655 1.367 . S
C655 C654 1.367 . S
C655 C657 1.433 . S
C656 C652 1.350 . S
C656 C653 1.463 . S
C656 N660 1.427 . S
C657 H647 0.929 . S
C657 C655 1.433 . S
C657 N660 1.384 . S
C658 H649 0.929 . S
C658 C650 1.378 . S
C658 C653 1.350 . S
C659 H646 0.929 . S
C659 C651 1.433 . S
C659 N661 1.384 . S
N660 C656 1.427 . S
N660 C657 1.384 . S
N661 C653 1.427 . S
N661 C659 1.384 . S
H662 C668 0.930 . S
H663 C672 0.930 . S
H664 C677 0.929 . S
H665 C675 0.929 . S
H666 C670 0.929 . S
H667 C676 0.929 . S
C668 H662 0.930 . S
C668 C669 1.367 . S
C668 C676 1.378 . S
C669 C668 1.367 . S
C669 C677 1.433 . S
C670 H666 0.929 . S
C670 C672 1.378 . S
C670 C674 1.350 . S
C671 C674 1.463 1_655 S
C671 C676 1.350 . S
C671 N679 1.427 . S
C672 H663 0.930 . S
C672 C670 1.378 . S
C672 C673 1.367 . S
C673 C672 1.367 . S
C673 C675 1.433 . S
C674 C670 1.350 . S
C674 C671 1.463 1_455 S
C674 N678 1.427 . S
C675 H665 0.929 . S
C675 C673 1.433 . S
C675 N678 1.384 . S
C676 H667 0.929 . S
C676 C668 1.378 . S
C676 C671 1.350 . S
C677 H664 0.929 . S
C677 C669 1.433 . S
C677 N679 1.384 . S
N678 C674 1.427 . S
N678 C675 1.384 . S
N679 C671 1.427 . S
N679 C677 1.384 . S
H680 C686 0.930 . S
H681 C690 0.930 . S
H682 C695 0.929 . S
H683 C693 0.929 . S
H684 C688 0.929 . S
H685 C694 0.929 . S
C686 H680 0.930 . S
C686 C687 1.367 . S
C686 C694 1.378 . S
C687 C686 1.367 . S
C687 C695 1.433 . S
C688 H684 0.929 . S
C688 C690 1.378 . S
C688 C692 1.350 . S
C689 C692 1.463 . S
C689 C694 1.350 . S
C689 N697 1.427 . S
C690 H681 0.930 . S
C690 C688 1.378 . S
C690 C691 1.367 . S
C691 C690 1.367 . S
C691 C693 1.433 . S
C692 C688 1.350 . S
C692 C689 1.463 . S
C692 N696 1.427 . S
C693 H683 0.929 . S
C693 C691 1.433 . S
C693 N696 1.384 . S
C694 H685 0.929 . S
C694 C686 1.378 . S
C694 C689 1.350 . S
C695 H682 0.929 . S
C695 C687 1.433 . S
C695 N697 1.384 . S
N696 C692 1.427 . S
N696 C693 1.384 . S
N697 C689 1.427 . S
N697 C695 1.384 . S
H698 C704 0.930 . S
H699 C708 0.930 . S
H700 C713 0.929 . S
H701 C711 0.929 . S
H702 C706 0.929 . S
H703 C712 0.929 . S
C704 H698 0.930 . S
C704 C705 1.367 . S
C704 C712 1.378 . S
C705 C704 1.367 . S
C705 C713 1.433 . S
C706 H702 0.929 . S
C706 C708 1.378 . S
C706 C710 1.350 . S
C707 C710 1.463 1_455 S
C707 C712 1.350 . S
C707 N715 1.427 . S
C708 H699 0.930 . S
C708 C706 1.378 . S
C708 C709 1.367 . S
C709 C708 1.367 . S
C709 C711 1.433 . S
C710 C706 1.350 . S
C710 C707 1.463 1_655 S
C710 N714 1.427 . S
C711 H701 0.929 . S
C711 C709 1.433 . S
C711 N714 1.384 . S
C712 H703 0.929 . S
C712 C704 1.378 . S
C712 C707 1.350 . S
C713 H700 0.929 . S
C713 C705 1.433 . S
C713 N715 1.384 . S
N714 C710 1.427 . S
N714 C711 1.384 . S
N715 C707 1.427 . S
N715 C713 1.384 . S
H716 C722 0.930 . S
H717 C726 0.930 . S
H718 C731 0.929 . S
H719 C729 0.929 . S
H720 C724 0.929 . S
H721 C730 0.929 . S
C722 H716 0.930 . S
C722 C723 1.367 . S
C722 C730 1.378 . S
C723 C722 1.367 . S
C723 C731 1.433 . S
C724 H720 0.929 . S
C724 C726 1.378 . S
C724 C728 1.350 . S
C725 C728 1.463 . S
C725 C730 1.350 . S
C725 N733 1.427 . S
C726 H717 0.930 . S
C726 C724 1.378 . S
C726 C727 1.367 . S
C727 C726 1.367 . S
C727 C729 1.433 . S
C728 C724 1.350 . S
C728 C725 1.463 . S
C728 N732 1.427 . S
C729 H719 0.929 . S
C729 C727 1.433 . S
C729 N732 1.384 . S
C730 H721 0.929 . S
C730 C722 1.378 . S
C730 C725 1.350 . S
C731 H718 0.929 . S
C731 C723 1.433 . S
C731 N733 1.384 . S
N732 C728 1.427 . S
N732 C729 1.384 . S
N733 C725 1.427 . S
N733 C731 1.384 . S
H734 C740 0.930 . S
H735 C744 0.930 . S
H736 C749 0.929 . S
H737 C747 0.929 . S
H738 C742 0.929 . S
H739 C748 0.929 . S
C740 H734 0.930 . S
C740 C741 1.367 . S
C740 C748 1.378 . S
C741 C740 1.367 . S
C741 C749 1.433 . S
C742 H738 0.929 . S
C742 C744 1.378 . S
C742 C746 1.350 . S
C743 C746 1.463 . S
C743 C748 1.350 . S
C743 N751 1.427 . S
C744 H735 0.930 . S
C744 C742 1.378 . S
C744 C745 1.367 . S
C745 C744 1.367 . S
C745 C747 1.433 . S
C746 C742 1.350 . S
C746 C743 1.463 . S
C746 N750 1.427 . S
C747 H737 0.929 . S
C747 C745 1.433 . S
C747 N750 1.384 . S
C748 H739 0.929 . S
C748 C740 1.378 . S
C748 C743 1.350 . S
C749 H736 0.929 . S
C749 C741 1.433 . S
C749 N751 1.384 . S
N750 C746 1.427 . S
N750 C747 1.384 . S
N751 C743 1.427 . S
N751 C749 1.384 . S
H752 C758 0.930 . S
H753 C762 0.930 . S
H754 C767 0.929 . S
H755 C765 0.929 . S
H756 C760 0.929 . S
H757 C766 0.929 . S
C758 H752 0.930 . S
C758 C759 1.367 . S
C758 C766 1.378 . S
C759 C758 1.367 . S
C759 C767 1.433 . S
C760 H756 0.929 . S
C760 C762 1.378 . S
C760 C764 1.350 . S
C761 C764 1.463 . S
C761 C766 1.350 . S
C761 N769 1.427 . S
C762 H753 0.930 . S
C762 C760 1.378 . S
C762 C763 1.367 . S
C763 C762 1.367 . S
C763 C765 1.433 . S
C764 C760 1.350 . S
C764 C761 1.463 . S
C764 N768 1.427 . S
C765 H755 0.929 . S
C765 C763 1.433 . S
C765 N768 1.384 . S
C766 H757 0.929 . S
C766 C758 1.378 . S
C766 C761 1.350 . S
C767 H754 0.929 . S
C767 C759 1.433 . S
C767 N769 1.384 . S
N768 C764 1.427 . S
N768 C765 1.384 . S
N769 C761 1.427 . S
N769 C767 1.384 . S
H770 C776 0.930 . S
H771 C780 0.930 . S
H772 C785 0.929 . S
H773 C783 0.929 . S
H774 C778 0.929 . S
H775 C784 0.929 . S
C776 H770 0.930 . S
C776 C777 1.367 . S
C776 C784 1.378 . S
C777 C776 1.367 . S
C777 C785 1.433 . S
C778 H774 0.929 . S
C778 C780 1.378 . S
C778 C782 1.350 . S
C779 C782 1.463 . S
C779 C784 1.350 . S
C779 N787 1.427 . S
C780 H771 0.930 . S
C780 C778 1.378 . S
C780 C781 1.367 . S
C781 C780 1.367 . S
C781 C783 1.433 . S
C782 C778 1.350 . S
C782 C779 1.463 . S
C782 N786 1.427 . S
C783 H773 0.929 . S
C783 C781 1.433 . S
C783 N786 1.384 . S
C784 H775 0.929 . S
C784 C776 1.378 . S
C784 C779 1.350 . S
C785 H772 0.929 . S
C785 C777 1.433 . S
C785 N787 1.384 . S
N786 C782 1.427 . S
N786 C783 1.384 . S
N787 C779 1.427 . S
N787 C785 1.384 . S
H788 C794 0.930 . S
H789 C798 0.930 . S
H790 C803 0.929 . S
H791 C801 0.929 . S
H792 C796 0.929 . S
H793 C802 0.929 . S
C794 H788 0.930 . S
C794 C795 1.367 . S
C794 C802 1.378 . S
C795 C794 1.367 . S
C795 C803 1.433 . S
C796 H792 0.929 . S
C796 C798 1.378 . S
C796 C800 1.350 . S
C797 C800 1.463 . S
C797 C802 1.350 . S
C797 N805 1.427 . S
C798 H789 0.930 . S
C798 C796 1.378 . S
C798 C799 1.367 . S
C799 C798 1.367 . S
C799 C801 1.433 . S
C800 C796 1.350 . S
C800 C797 1.463 . S
C800 N804 1.427 . S
C801 H791 0.929 . S
C801 C799 1.433 . S
C801 N804 1.384 . S
C802 H793 0.929 . S
C802 C794 1.378 . S
C802 C797 1.350 . S
C803 H790 0.929 . S
C803 C795 1.433 . S
C803 N805 1.384 . S
N804 C800 1.427 . S
N804 C801 1.384 . S
N805 C797 1.427 . S
N805 C803 1.384 . S
H806 C812 0.930 . S
H807 C816 0.930 . S
H808 C821 0.929 . S
H809 C819 0.929 . S
H810 C814 0.929 . S
H811 C820 0.929 . S
C812 H806 0.930 . S
C812 C813 1.367 . S
C812 C820 1.378 . S
C813 C812 1.367 . S
C813 C821 1.433 . S
C814 H810 0.929 . S
C814 C816 1.378 . S
C814 C818 1.350 . S
C815 C818 1.463 . S
C815 C820 1.350 . S
C815 N823 1.427 . S
C816 H807 0.930 . S
C816 C814 1.378 . S
C816 C817 1.367 . S
C817 C816 1.367 . S
C817 C819 1.433 . S
C818 C814 1.350 . S
C818 C815 1.463 . S
C818 N822 1.427 . S
C819 H809 0.929 . S
C819 C817 1.433 . S
C819 N822 1.384 . S
C820 H811 0.929 . S
C820 C812 1.378 . S
C820 C815 1.350 . S
C821 H808 0.929 . S
C821 C813 1.433 . S
C821 N823 1.384 . S
N822 C818 1.427 . S
N822 C819 1.384 . S
N823 C815 1.427 . S
N823 C821 1.384 . S
H824 C830 0.930 1_554 S
H825 C834 0.930 . S
H826 C839 0.929 . S
H827 C837 0.929 1_554 S
H828 C832 0.929 . S
H829 C838 0.929 1_554 S
C830 H824 0.930 1_556 S
C830 C831 1.367 . S
C830 C838 1.378 . S
C831 C830 1.367 . S
C831 C839 1.433 . S
C832 H828 0.929 . S
C832 C834 1.378 . S
C832 C836 1.350 . S
C833 C836 1.463 1_655 S
C833 C838 1.350 . S
C833 N841 1.427 . S
C834 H825 0.930 . S
C834 C832 1.378 . S
C834 C835 1.367 . S
C835 C834 1.367 . S
C835 C837 1.433 . S
C836 C832 1.350 . S
C836 C833 1.463 1_455 S
C836 N840 1.427 . S
C837 H827 0.929 1_556 S
C837 C835 1.433 . S
C837 N840 1.384 . S
C838 H829 0.929 1_556 S
C838 C830 1.378 . S
C838 C833 1.350 . S
C839 H826 0.929 . S
C839 C831 1.433 . S
C839 N841 1.384 . S
N840 C836 1.427 . S
N840 C837 1.384 . S
N841 C833 1.427 . S
N841 C839 1.384 . S
H842 C848 0.930 . S
H843 C852 0.930 . S
H844 C857 0.929 . S
H845 C855 0.929 . S
H846 C850 0.929 . S
H847 C856 0.929 . S
C848 H842 0.930 . S
C848 C849 1.367 . S
C848 C856 1.378 . S
C849 C848 1.367 . S
C849 C857 1.433 . S
C850 H846 0.929 . S
C850 C852 1.378 . S
C850 C854 1.350 . S
C851 C854 1.463 . S
C851 C856 1.350 . S
C851 N859 1.427 . S
C852 H843 0.930 . S
C852 C850 1.378 . S
C852 C853 1.367 . S
C853 C852 1.367 . S
C853 C855 1.433 . S
C854 C850 1.350 . S
C854 C851 1.463 . S
C854 N858 1.427 . S
C855 H845 0.929 . S
C855 C853 1.433 . S
C855 N858 1.384 . S
C856 H847 0.929 . S
C856 C848 1.378 . S
C856 C851 1.350 . S
C857 H844 0.929 . S
C857 C849 1.433 . S
C857 N859 1.384 . S
N858 C854 1.427 . S
N858 C855 1.384 . S
N859 C851 1.427 . S
N859 C857 1.384 . S
H860 C866 0.930 . S
H861 C870 0.930 . S
H862 C875 0.929 . S
H863 C873 0.929 . S
H864 C868 0.929 . S
H865 C874 0.929 . S
C866 H860 0.930 . S
C866 C867 1.367 . S
C866 C874 1.378 . S
C867 C866 1.367 . S
C867 C875 1.433 . S
C868 H864 0.929 . S
C868 C870 1.378 . S
C868 C872 1.350 . S
C869 C872 1.463 . S
C869 C874 1.350 . S
C869 N877 1.427 . S
C870 H861 0.930 . S
C870 C868 1.378 . S
C870 C871 1.367 . S
C871 C870 1.367 . S
C871 C873 1.433 . S
C872 C868 1.350 . S
C872 C869 1.463 . S
C872 N876 1.427 . S
C873 H863 0.929 . S
C873 C871 1.433 . S
C873 N876 1.384 . S
C874 H865 0.929 . S
C874 C866 1.378 . S
C874 C869 1.350 . S
C875 H862 0.929 . S
C875 C867 1.433 . S
C875 N877 1.384 . S
N876 C872 1.427 . S
N876 C873 1.384 . S
N877 C869 1.427 . S
N877 C875 1.384 . S
H878 C884 0.930 . S
H879 C888 0.930 1_556 S
H880 C893 0.929 1_556 S
H881 C891 0.929 . S
H882 C886 0.929 1_556 S
H883 C892 0.929 . S
C884 H878 0.930 . S
C884 C885 1.367 . S
C884 C892 1.378 . S
C885 C884 1.367 . S
C885 C893 1.433 . S
C886 H882 0.929 1_554 S
C886 C888 1.378 . S
C886 C890 1.350 . S
C887 C890 1.463 1_455 S
C887 C892 1.350 . S
C887 N895 1.427 . S
C888 H879 0.930 1_554 S
C888 C886 1.378 . S
C888 C889 1.367 . S
C889 C888 1.367 . S
C889 C891 1.433 . S
C890 C886 1.350 . S
C890 C887 1.463 1_655 S
C890 N894 1.427 . S
C891 H881 0.929 . S
C891 C889 1.433 . S
C891 N894 1.384 . S
C892 H883 0.929 . S
C892 C884 1.378 . S
C892 C887 1.350 . S
C893 H880 0.929 1_554 S
C893 C885 1.433 . S
C893 N895 1.384 . S
N894 C890 1.427 . S
N894 C891 1.384 . S
N895 C887 1.427 . S
N895 C893 1.384 . S
H896 C902 0.930 . S
H897 C906 0.930 . S
H898 C911 0.929 . S
H899 C909 0.929 . S
H900 C904 0.929 . S
H901 C910 0.929 . S
C902 H896 0.930 . S
C902 C903 1.367 . S
C902 C910 1.378 . S
C903 C902 1.367 . S
C903 C911 1.433 . S
C904 H900 0.929 . S
C904 C906 1.378 . S
C904 C908 1.350 . S
C905 C908 1.463 1_554 S
C905 C910 1.350 . S
C905 N913 1.427 1_554 S
C906 H897 0.930 . S
C906 C904 1.378 . S
C906 C907 1.367 . S
C907 C906 1.367 . S
C907 C909 1.433 . S
C908 C904 1.350 . S
C908 C905 1.463 1_556 S
C908 N912 1.427 1_556 S
C909 H899 0.929 . S
C909 C907 1.433 . S
C909 N912 1.384 1_556 S
C910 H901 0.929 . S
C910 C902 1.378 . S
C910 C905 1.350 . S
C911 H898 0.929 . S
C911 C903 1.433 . S
C911 N913 1.384 1_554 S
N912 C908 1.427 1_554 S
N912 C909 1.384 1_554 S
N913 C905 1.427 1_556 S
N913 C911 1.384 1_556 S
H914 C920 0.930 . S
H915 C924 0.930 . S
H916 C929 0.929 . S
H917 C927 0.929 . S
H918 C922 0.929 . S
H919 C928 0.929 . S
C920 H914 0.930 . S
C920 C921 1.367 . S
C920 C928 1.378 . S
C921 C920 1.367 . S
C921 C929 1.433 . S
C922 H918 0.929 . S
C922 C924 1.378 . S
C922 C926 1.350 . S
C923 C926 1.463 . S
C923 C928 1.350 . S
C923 N931 1.427 . S
C924 H915 0.930 . S
C924 C922 1.378 . S
C924 C925 1.367 . S
C925 C924 1.367 . S
C925 C927 1.433 . S
C926 C922 1.350 . S
C926 C923 1.463 . S
C926 N930 1.427 . S
C927 H917 0.929 . S
C927 C925 1.433 . S
C927 N930 1.384 . S
C928 H919 0.929 . S
C928 C920 1.378 . S
C928 C923 1.350 . S
C929 H916 0.929 . S
C929 C921 1.433 . S
C929 N931 1.384 . S
N930 C926 1.427 . S
N930 C927 1.384 . S
N931 C923 1.427 . S
N931 C929 1.384 . S
H932 C938 0.930 . S
H933 C942 0.930 . S
H934 C947 0.929 . S
H935 C945 0.929 . S
H936 C940 0.929 . S
H937 C946 0.929 . S
C938 H932 0.930 . S
C938 C939 1.367 . S
C938 C946 1.378 . S
C939 C938 1.367 . S
C939 C947 1.433 . S
C940 H936 0.929 . S
C940 C942 1.378 . S
C940 C944 1.350 . S
C941 C944 1.463 . S
C941 C946 1.350 . S
C941 N949 1.427 . S
C942 H933 0.930 . S
C942 C940 1.378 . S
C942 C943 1.367 . S
C943 C942 1.367 . S
C943 C945 1.433 . S
C944 C940 1.350 . S
C944 C941 1.463 . S
C944 N948 1.427 . S
C945 H935 0.929 . S
C945 C943 1.433 . S
C945 N948 1.384 . S
C946 H937 0.929 . S
C946 C938 1.378 . S
C946 C941 1.350 . S
C947 H934 0.929 . S
C947 C939 1.433 . S
C947 N949 1.384 . S
N948 C944 1.427 . S
N948 C945 1.384 . S
N949 C941 1.427 . S
N949 C947 1.384 . S
H950 C956 0.930 . S
H951 C960 0.930 . S
H952 C965 0.929 . S
H953 C963 0.929 . S
H954 C958 0.929 . S
H955 C964 0.929 . S
C956 H950 0.930 . S
C956 C957 1.367 . S
C956 C964 1.378 . S
C957 C956 1.367 . S
C957 C965 1.433 . S
C958 H954 0.929 . S
C958 C960 1.378 . S
C958 C962 1.350 . S
C959 C962 1.463 . S
C959 C964 1.350 . S
C959 N967 1.427 . S
C960 H951 0.930 . S
C960 C958 1.378 . S
C960 C961 1.367 . S
C961 C960 1.367 . S
C961 C963 1.433 . S
C962 C958 1.350 . S
C962 C959 1.463 . S
C962 N966 1.427 . S
C963 H953 0.929 . S
C963 C961 1.433 . S
C963 N966 1.384 . S
C964 H955 0.929 . S
C964 C956 1.378 . S
C964 C959 1.350 . S
C965 H952 0.929 . S
C965 C957 1.433 . S
C965 N967 1.384 . S
N966 C962 1.427 . S
N966 C963 1.384 . S
N967 C959 1.427 . S
N967 C965 1.384 . S
H968 C974 0.942 . S
H969 C978 0.942 . S
H970 C983 0.929 . S
H971 C981 0.929 . S
H972 C976 0.929 . S
H973 C982 0.929 . S
C974 H968 0.942 . S
C974 C975 1.353 1_556 S
C974 C982 1.381 . S
C975 C974 1.353 1_554 S
C975 C983 1.433 . S
C976 H972 0.929 . S
C976 C978 1.381 . S
C976 C980 1.350 1_554 S
C977 C980 1.463 1_554 S
C977 C982 1.350 1_554 S
C977 N985 1.427 . S
C978 H969 0.942 . S
C978 C976 1.381 . S
C978 C979 1.353 1_554 S
C979 C978 1.353 1_556 S
C979 C981 1.433 . S
C980 C976 1.350 1_556 S
C980 C977 1.463 1_556 S
C980 N984 1.427 . S
C981 H971 0.929 . S
C981 C979 1.433 . S
C981 N984 1.384 . S
C982 H973 0.929 . S
C982 C974 1.381 . S
C982 C977 1.350 1_556 S
C983 H970 0.929 . S
C983 C975 1.433 . S
C983 N985 1.384 . S
N984 C980 1.427 . S
N984 C981 1.384 . S
N985 C977 1.427 . S
N985 C983 1.384 . S
H986 C992 0.930 . S
H987 C996 0.930 . S
H988 C1001 0.929 . S
H989 C999 0.929 . S
H990 C994 0.929 . S
H991 C1000 0.929 . S
C992 H986 0.930 . S
C992 C993 1.367 . S
C992 C1000 1.378 . S
C993 C992 1.367 . S
C993 C1001 1.433 . S
C994 H990 0.929 . S
C994 C996 1.378 . S
C994 C998 1.350 . S
C995 C998 1.463 . S
C995 C1000 1.350 . S
C995 N1003 1.427 . S
C996 H987 0.930 . S
C996 C994 1.378 . S
C996 C997 1.367 . S
C997 C996 1.367 . S
C997 C999 1.433 . S
C998 C994 1.350 . S
C998 C995 1.463 . S
C998 N1002 1.427 . S
C999 H989 0.929 . S
C999 C997 1.433 . S
C999 N1002 1.384 . S
C1000 H991 0.929 . S
C1000 C992 1.378 . S
C1000 C995 1.350 . S
C1001 H988 0.929 . S
C1001 C993 1.433 . S
C1001 N1003 1.384 . S
N1002 C998 1.427 . S
N1002 C999 1.384 . S
N1003 C995 1.427 . S
N1003 C1001 1.384 . S
H1004 C1010 0.930 . S
H1005 C1014 0.930 . S
H1006 C1019 0.929 . S
H1007 C1017 0.929 . S
H1008 C1012 0.929 . S
H1009 C1018 0.929 . S
C1010 H1004 0.930 . S
C1010 C1011 1.367 . S
C1010 C1018 1.378 . S
C1011 C1010 1.367 . S
C1011 C1019 1.433 . S
C1012 H1008 0.929 . S
C1012 C1014 1.378 . S
C1012 C1016 1.350 . S
C1013 C1016 1.463 . S
C1013 C1018 1.350 . S
C1013 N1021 1.427 . S
C1014 H1005 0.930 . S
C1014 C1012 1.378 . S
C1014 C1015 1.367 . S
C1015 C1014 1.367 . S
C1015 C1017 1.433 . S
C1016 C1012 1.350 . S
C1016 C1013 1.463 . S
C1016 N1020 1.427 . S
C1017 H1007 0.929 . S
C1017 C1015 1.433 . S
C1017 N1020 1.384 . S
C1018 H1009 0.929 . S
C1018 C1010 1.378 . S
C1018 C1013 1.350 . S
C1019 H1006 0.929 . S
C1019 C1011 1.433 . S
C1019 N1021 1.384 . S
N1020 C1016 1.427 . S
N1020 C1017 1.384 . S
N1021 C1013 1.427 . S
N1021 C1019 1.384 . S
H1022 C1028 0.930 . S
H1023 C1032 0.930 . S
H1024 C1037 0.929 . S
H1025 C1035 0.929 . S
H1026 C1030 0.929 . S
H1027 C1036 0.929 . S
C1028 H1022 0.930 . S
C1028 C1029 1.367 . S
C1028 C1036 1.378 . S
C1029 C1028 1.367 . S
C1029 C1037 1.433 . S
C1030 H1026 0.929 . S
C1030 C1032 1.378 . S
C1030 C1034 1.350 . S
C1031 C1034 1.463 . S
C1031 C1036 1.350 . S
C1031 N1039 1.427 . S
C1032 H1023 0.930 . S
C1032 C1030 1.378 . S
C1032 C1033 1.367 . S
C1033 C1032 1.367 . S
C1033 C1035 1.433 . S
C1034 C1030 1.350 . S
C1034 C1031 1.463 . S
C1034 N1038 1.427 . S
C1035 H1025 0.929 . S
C1035 C1033 1.433 . S
C1035 N1038 1.384 . S
C1036 H1027 0.929 . S
C1036 C1028 1.378 . S
C1036 C1031 1.350 . S
C1037 H1024 0.929 . S
C1037 C1029 1.433 . S
C1037 N1039 1.384 . S
N1038 C1034 1.427 . S
N1038 C1035 1.384 . S
N1039 C1031 1.427 . S
N1039 C1037 1.384 . S
H1040 C1046 0.930 . S
H1041 C1050 0.930 . S
H1042 C1055 0.929 . S
H1043 C1053 0.929 . S
H1044 C1048 0.929 . S
H1045 C1054 0.929 . S
C1046 H1040 0.930 . S
C1046 C1047 1.367 . S
C1046 C1054 1.378 . S
C1047 C1046 1.367 . S
C1047 C1055 1.433 . S
C1048 H1044 0.929 . S
C1048 C1050 1.378 . S
C1048 C1052 1.350 . S
C1049 C1052 1.463 1_565 S
C1049 C1054 1.350 . S
C1049 N1057 1.427 . S
C1050 H1041 0.930 . S
C1050 C1048 1.378 . S
C1050 C1051 1.367 . S
C1051 C1050 1.367 . S
C1051 C1053 1.433 . S
C1052 C1048 1.350 . S
C1052 C1049 1.463 1_545 S
C1052 N1056 1.427 . S
C1053 H1043 0.929 . S
C1053 C1051 1.433 . S
C1053 N1056 1.384 . S
C1054 H1045 0.929 . S
C1054 C1046 1.378 . S
C1054 C1049 1.350 . S
C1055 H1042 0.929 . S
C1055 C1047 1.433 . S
C1055 N1057 1.384 . S
N1056 C1052 1.427 . S
N1056 C1053 1.384 . S
N1057 C1049 1.427 . S
N1057 C1055 1.384 . S
H1058 C1064 0.930 . S
H1059 C1068 0.930 . S
H1060 C1073 0.929 . S
H1061 C1071 0.929 . S
H1062 C1066 0.929 . S
H1063 C1072 0.929 . S
C1064 H1058 0.930 . S
C1064 C1065 1.367 . S
C1064 C1072 1.378 . S
C1065 C1064 1.367 . S
C1065 C1073 1.433 . S
C1066 H1062 0.929 . S
C1066 C1068 1.378 . S
C1066 C1070 1.350 . S
C1067 C1070 1.463 . S
C1067 C1072 1.350 . S
C1067 N1075 1.427 . S
C1068 H1059 0.930 . S
C1068 C1066 1.378 . S
C1068 C1069 1.367 . S
C1069 C1068 1.367 . S
C1069 C1071 1.433 . S
C1070 C1066 1.350 . S
C1070 C1067 1.463 . S
C1070 N1074 1.427 . S
C1071 H1061 0.929 . S
C1071 C1069 1.433 . S
C1071 N1074 1.384 . S
C1072 H1063 0.929 . S
C1072 C1064 1.378 . S
C1072 C1067 1.350 . S
C1073 H1060 0.929 . S
C1073 C1065 1.433 . S
C1073 N1075 1.384 . S
N1074 C1070 1.427 . S
N1074 C1071 1.384 . S
N1075 C1067 1.427 . S
N1075 C1073 1.384 . S
H1076 C1082 0.930 . S
H1077 C1086 0.930 . S
H1078 C1091 0.929 . S
H1079 C1089 0.929 . S
H1080 C1084 0.929 . S
H1081 C1090 0.929 . S
C1082 H1076 0.930 . S
C1082 C1083 1.367 . S
C1082 C1090 1.378 . S
C1083 C1082 1.367 . S
C1083 C1091 1.433 . S
C1084 H1080 0.929 . S
C1084 C1086 1.378 . S
C1084 C1088 1.350 . S
C1085 C1088 1.463 1_564 S
C1085 C1090 1.350 . S
C1085 N1093 1.427 1_554 S
C1086 H1077 0.930 . S
C1086 C1084 1.378 . S
C1086 C1087 1.367 . S
C1087 C1086 1.367 . S
C1087 C1089 1.433 . S
C1088 C1084 1.350 . S
C1088 C1085 1.463 1_546 S
C1088 N1092 1.427 1_556 S
C1089 H1079 0.929 . S
C1089 C1087 1.433 . S
C1089 N1092 1.384 1_556 S
C1090 H1081 0.929 . S
C1090 C1082 1.378 . S
C1090 C1085 1.350 . S
C1091 H1078 0.929 . S
C1091 C1083 1.433 . S
C1091 N1093 1.384 1_554 S
N1092 C1088 1.427 1_554 S
N1092 C1089 1.384 1_554 S
N1093 C1085 1.427 1_556 S
N1093 C1091 1.384 1_556 S
H1094 C1100 0.930 . S
H1095 C1104 0.930 . S
H1096 C1109 0.929 . S
H1097 C1107 0.929 . S
H1098 C1102 0.929 . S
H1099 C1108 0.929 . S
C1100 H1094 0.930 . S
C1100 C1101 1.367 . S
C1100 C1108 1.378 . S
C1101 C1100 1.367 . S
C1101 C1109 1.433 . S
C1102 H1098 0.929 . S
C1102 C1104 1.378 . S
C1102 C1106 1.350 . S
C1103 C1106 1.463 . S
C1103 C1108 1.350 . S
C1103 N1111 1.427 . S
C1104 H1095 0.930 . S
C1104 C1102 1.378 . S
C1104 C1105 1.367 . S
C1105 C1104 1.367 . S
C1105 C1107 1.433 . S
C1106 C1102 1.350 . S
C1106 C1103 1.463 . S
C1106 N1110 1.427 . S
C1107 H1097 0.929 . S
C1107 C1105 1.433 . S
C1107 N1110 1.384 . S
C1108 H1099 0.929 . S
C1108 C1100 1.378 . S
C1108 C1103 1.350 . S
C1109 H1096 0.929 . S
C1109 C1101 1.433 . S
C1109 N1111 1.384 . S
N1110 C1106 1.427 . S
N1110 C1107 1.384 . S
N1111 C1103 1.427 . S
N1111 C1109 1.384 . S
H1112 C1118 0.930 . S
H1113 C1122 0.930 . S
H1114 C1127 0.929 . S
H1115 C1125 0.929 . S
H1116 C1120 0.929 . S
H1117 C1126 0.929 . S
C1118 H1112 0.930 . S
C1118 C1119 1.367 . S
C1118 C1126 1.378 . S
C1119 C1118 1.367 . S
C1119 C1127 1.433 . S
C1120 H1116 0.929 . S
C1120 C1122 1.378 . S
C1120 C1124 1.350 . S
C1121 C1124 1.463 1_565 S
C1121 C1126 1.350 . S
C1121 N1129 1.427 . S
C1122 H1113 0.930 . S
C1122 C1120 1.378 . S
C1122 C1123 1.367 . S
C1123 C1122 1.367 . S
C1123 C1125 1.433 . S
C1124 C1120 1.350 . S
C1124 C1121 1.463 1_545 S
C1124 N1128 1.427 . S
C1125 H1115 0.929 . S
C1125 C1123 1.433 . S
C1125 N1128 1.384 . S
C1126 H1117 0.929 . S
C1126 C1118 1.378 . S
C1126 C1121 1.350 . S
C1127 H1114 0.929 . S
C1127 C1119 1.433 . S
C1127 N1129 1.384 . S
N1128 C1124 1.427 . S
N1128 C1125 1.384 . S
N1129 C1121 1.427 . S
N1129 C1127 1.384 . S
H1130 C1136 0.930 . S
H1131 C1140 0.930 . S
H1132 C1145 0.929 . S
H1133 C1143 0.929 . S
H1134 C1138 0.929 . S
H1135 C1144 0.929 . S
C1136 H1130 0.930 . S
C1136 C1137 1.367 . S
C1136 C1144 1.378 . S
C1137 C1136 1.367 . S
C1137 C1145 1.433 . S
C1138 H1134 0.929 . S
C1138 C1140 1.378 . S
C1138 C1142 1.350 . S
C1139 C1142 1.463 . S
C1139 C1144 1.350 . S
C1139 N1147 1.427 . S
C1140 H1131 0.930 . S
C1140 C1138 1.378 . S
C1140 C1141 1.367 . S
C1141 C1140 1.367 . S
C1141 C1143 1.433 . S
C1142 C1138 1.350 . S
C1142 C1139 1.463 . S
C1142 N1146 1.427 . S
C1143 H1133 0.929 . S
C1143 C1141 1.433 . S
C1143 N1146 1.384 . S
C1144 H1135 0.929 . S
C1144 C1136 1.378 . S
C1144 C1139 1.350 . S
C1145 H1132 0.929 . S
C1145 C1137 1.433 . S
C1145 N1147 1.384 . S
N1146 C1142 1.427 . S
N1146 C1143 1.384 . S
N1147 C1139 1.427 . S
N1147 C1145 1.384 . S
H1148 C1154 0.930 . S
H1149 C1158 0.930 . S
H1150 C1163 0.929 . S
H1151 C1161 0.929 . S
H1152 C1156 0.929 . S
H1153 C1162 0.929 . S
C1154 H1148 0.930 . S
C1154 C1155 1.367 1_554 S
C1154 C1162 1.378 . S
C1155 C1154 1.367 1_556 S
C1155 C1163 1.433 . S
C1156 H1152 0.929 . S
C1156 C1158 1.378 . S
C1156 C1160 1.350 1_556 S
C1157 C1160 1.463 1_546 S
C1157 C1162 1.350 1_556 S
C1157 N1165 1.427 . S
C1158 H1149 0.930 . S
C1158 C1156 1.378 . S
C1158 C1159 1.367 1_556 S
C1159 C1158 1.367 1_554 S
C1159 C1161 1.433 . S
C1160 C1156 1.350 1_554 S
C1160 C1157 1.463 1_564 S
C1160 N1164 1.427 . S
C1161 H1151 0.929 . S
C1161 C1159 1.433 . S
C1161 N1164 1.384 . S
C1162 H1153 0.929 . S
C1162 C1154 1.378 . S
C1162 C1157 1.350 1_554 S
C1163 H1150 0.929 . S
C1163 C1155 1.433 . S
C1163 N1165 1.384 . S
N1164 C1160 1.427 . S
N1164 C1161 1.384 . S
N1165 C1157 1.427 . S
N1165 C1163 1.384 . S
H1166 C1172 0.930 . S
H1167 C1176 0.930 . S
H1168 C1181 0.929 . S
H1169 C1179 0.929 . S
H1170 C1174 0.929 . S
H1171 C1180 0.929 . S
C1172 H1166 0.930 . S
C1172 C1173 1.367 . S
C1172 C1180 1.378 . S
C1173 C1172 1.367 . S
C1173 C1181 1.433 . S
C1174 H1170 0.929 . S
C1174 C1176 1.378 . S
C1174 C1178 1.350 . S
C1175 C1178 1.463 . S
C1175 C1180 1.350 . S
C1175 N1183 1.427 . S
C1176 H1167 0.930 . S
C1176 C1174 1.378 . S
C1176 C1177 1.367 . S
C1177 C1176 1.367 . S
C1177 C1179 1.433 . S
C1178 C1174 1.350 . S
C1178 C1175 1.463 . S
C1178 N1182 1.427 . S
C1179 H1169 0.929 . S
C1179 C1177 1.433 . S
C1179 N1182 1.384 . S
C1180 H1171 0.929 . S
C1180 C1172 1.378 . S
C1180 C1175 1.350 . S
C1181 H1168 0.929 . S
C1181 C1173 1.433 . S
C1181 N1183 1.384 . S
N1182 C1178 1.427 . S
N1182 C1179 1.384 . S
N1183 C1175 1.427 . S
N1183 C1181 1.384 . S
C327 C2 1.559 . S
C331 C1 1.559 . S
C345 C21 1.557 . S
C349 C22 1.557 . S
C363 C41 1.469 . S
C367 C42 1.469 . S
C381 C62 1.479 . S
C385 C61 1.479 . S
C399 C82 1.575 . S
C403 C81 1.575 . S
C417 C101 1.469 . S
C421 C102 1.469 . S
C435 C121 1.478 . S
C439 C122 1.478 . S
C453 C141 1.569 . S
C457 C142 1.569 . S
C471 C161 1.567 . S
C475 C162 1.567 . S
C489 C181 1.568 . S
C493 C182 1.568 . S
C507 C201 1.468 . S
C511 C202 1.468 . S
C525 C221 1.479 . S
C529 C222 1.479 . S
C543 C241 1.558 . S
C547 C242 1.558 . S
C561 C261 1.468 . S
C565 C262 1.468 . S
C579 C282 1.480 . S
C583 C281 1.480 . S
C597 C302 1.559 . S
C601 C301 1.559 . S
C615 C8 1.558 . S
C619 C239 1.610 . S
C633 C38 1.602 . S
C637 C319 1.593 . S
C651 C58 1.610 . S
C655 C189 1.562 . S
C669 C68 1.628 . S
C673 C269 1.619 . S
C687 C88 1.550 . S
C691 C279 1.619 . S
C705 C229 1.621 . S
C709 C108 1.626 . S
C723 C138 1.610 . S
C727 C309 1.562 . S
C741 C158 1.599 . S
C745 C199 1.596 . S
C759 C78 1.619 . S
C763 C169 1.550 . S
C777 C28 1.549 . S
C781 C219 1.619 . S
C795 C249 1.548 . S
C799 C118 1.617 . S
C813 C148 1.557 . S
C817 C299 1.617 . S
C831 C179 1.600 . S
C835 C98 1.595 . S
C849 C128 1.620 . S
C853 C209 1.627 . S
C867 C48 1.627 . S
C871 C289 1.620 . S
C885 C18 1.595 . S
C889 C259 1.600 . S
C903 C9 1.340 . S
C907 C89 1.343 . S
C921 C39 1.590 . S
C925 C109 1.585 . S
C939 C59 1.800 . S
C943 C139 1.797 . S
C957 C69 1.585 . S
C961 C159 1.591 . S
C975 C248 1.348 . S
C979 C168 1.348 . S
C993 C268 1.585 . S
C997 C198 1.590 . S
C1011 C218 1.800 . S
C1015 C298 1.797 . S
C1029 C318 1.595 . S
C1033 C228 1.592 . S
C1047 C29 1.349 . S
C1051 C149 1.347 . S
C1065 C99 1.594 . S
C1069 C49 1.589 . S
C1083 C119 1.801 . S
C1087 C79 1.797 . S
C1101 C19 1.592 . S
C1105 C129 1.590 . S
C1119 C308 1.340 . S
C1123 C188 1.341 . S
C1137 C258 1.590 . S
C1141 C208 1.587 . S
C1155 C278 1.800 . S
C1159 C238 1.797 . S
C1173 C288 1.589 . S
C1177 C178 1.592 . S
