# Generated by pormake.
# Topology ske, (6)-cn, num edge types: 1
# Building blocks:
#     Node 0, Type 0, BuildingBlock: MIDCAF_clean_sbu_0, # of connection points: 6
#     Node 1, Type 0, BuildingBlock: MIDCAF_clean_sbu_0, # of connection points: 6
#     Node 2, Type 0, BuildingBlock: MIDCAF_clean_sbu_0, # of connection points: 6
#     Node 3, Type 0, BuildingBlock: MIDCAF_clean_sbu_0, # of connection points: 6
#     Node 4, Type 0, BuildingBlock: MIDCAF_clean_sbu_0, # of connection points: 6
#     Node 5, Type 0, BuildingBlock: MIDCAF_clean_sbu_0, # of connection points: 6
#     Node 6, Type 0, BuildingBlock: MIDCAF_clean_sbu_0, # of connection points: 6
#     Node 7, Type 0, BuildingBlock: MIDCAF_clean_sbu_0, # of connection points: 6
#     Edge 8, Type (0, 0), BuildingBlock: ZUJKAS_clean_linker_0, # of connection points: 2
#     Edge 9, Type (0, 0), BuildingBlock: ZUJKAS_clean_linker_0, # of connection points: 2
#     Edge 10, Type (0, 0), BuildingBlock: ZUJKAS_clean_linker_0, # of connection points: 2
#     Edge 11, Type (0, 0), BuildingBlock: ZUJKAS_clean_linker_0, # of connection points: 2
#     Edge 12, Type (0, 0), BuildingBlock: ZUJKAS_clean_linker_0, # of connection points: 2
#     Edge 13, Type (0, 0), BuildingBlock: ZUJKAS_clean_linker_0, # of connection points: 2
#     Edge 14, Type (0, 0), BuildingBlock: ZUJKAS_clean_linker_0, # of connection points: 2
#     Edge 15, Type (0, 0), BuildingBlock: ZUJKAS_clean_linker_0, # of connection points: 2
#     Edge 16, Type (0, 0), BuildingBlock: ZUJKAS_clean_linker_0, # of connection points: 2
#     Edge 17, Type (0, 0), BuildingBlock: ZUJKAS_clean_linker_0, # of connection points: 2
#     Edge 18, Type (0, 0), BuildingBlock: ZUJKAS_clean_linker_0, # of connection points: 2
#     Edge 19, Type (0, 0), BuildingBlock: ZUJKAS_clean_linker_0, # of connection points: 2
#     Edge 20, Type (0, 0), BuildingBlock: ZUJKAS_clean_linker_0, # of connection points: 2
#     Edge 21, Type (0, 0), BuildingBlock: ZUJKAS_clean_linker_0, # of connection points: 2
#     Edge 22, Type (0, 0), BuildingBlock: ZUJKAS_clean_linker_0, # of connection points: 2
#     Edge 23, Type (0, 0), BuildingBlock: ZUJKAS_clean_linker_0, # of connection points: 2
#     Edge 24, Type (0, 0), BuildingBlock: ZUJKAS_clean_linker_0, # of connection points: 2
#     Edge 25, Type (0, 0), BuildingBlock: ZUJKAS_clean_linker_0, # of connection points: 2
#     Edge 26, Type (0, 0), BuildingBlock: ZUJKAS_clean_linker_0, # of connection points: 2
#     Edge 27, Type (0, 0), BuildingBlock: ZUJKAS_clean_linker_0, # of connection points: 2
#     Edge 28, Type (0, 0), BuildingBlock: ZUJKAS_clean_linker_0, # of connection points: 2
#     Edge 29, Type (0, 0), BuildingBlock: ZUJKAS_clean_linker_0, # of connection points: 2
#     Edge 30, Type (0, 0), BuildingBlock: ZUJKAS_clean_linker_0, # of connection points: 2
#     Edge 31, Type (0, 0), BuildingBlock: ZUJKAS_clean_linker_0, # of connection points: 2
# Relax obj value: 0.101
# Max RMSD: 0.160
# Mean RMSD: 0.160
data_MOF--net-ske--node1-MIDCAF_clean_sbu_0--edge1-ZUJKAS_clean_linker_0
_symmetry_space_group_name_H-M    P1
_symmetry_Int_Tables_number       1
_symmetry_cell_setting            triclinic
loop_
_symmetry_equiv_pos_as_xyz
'x, y, z'
_cell_length_a     77.695249
_cell_length_b     38.921415
_cell_length_c     19.515718
_cell_angle_alpha  90.004918
_cell_angle_beta   90.050239
_cell_angle_gamma 90.047268
loop_
_atom_site_label
_atom_site_type_symbol
_atom_site_fract_x
_atom_site_fract_y
_atom_site_fract_z
_atom_type_partial_charge
Zn0 Zn 0.15097 0.20871 0.49635 0.0
Zn1 Zn 0.10995 0.28435 0.63587 0.0
Zn2 Zn 0.13114 0.25099 0.56118 0.0
C3 C 0.08931 0.2392 0.57125 0.0
C4 C 0.12473 0.33025 0.53907 0.0
O5 O 0.15352 0.23811 0.62783 0.0
O6 O 0.16825 0.19986 0.56805 0.0
C7 C 0.11971 0.17596 0.49785 0.0
O8 O 0.1043 0.22995 0.54942 0.0
O9 O 0.08791 0.26356 0.61327 0.0
O10 O 0.11511 0.32901 0.59117 0.0
O11 O 0.13176 0.3027 0.5157 0.0
O12 O 0.13457 0.17175 0.47337 0.0
O13 O 0.11607 0.20365 0.53144 0.0
O14 O 0.14029 0.27991 0.4702 0.0
O15 O 0.15758 0.24136 0.4234 0.0
C16 C 0.15083 0.27084 0.42257 0.0
O17 O 0.14128 0.25532 0.66887 0.0
O18 O 0.11929 0.2762 0.72756 0.0
C19 C 0.16665 0.2181 0.62107 0.0
C20 C 0.1344 0.26454 0.72619 0.0
Zn21 Zn 0.85296 0.29661 0.51992 0.0
Zn22 Zn 0.89687 0.23439 0.64742 0.0
Zn23 Zn 0.87565 0.26046 0.57756 0.0
C24 C 0.91631 0.27195 0.56373 0.0
C25 C 0.88083 0.18175 0.57409 0.0
O26 O 0.85351 0.26835 0.6496 0.0
O27 O 0.83448 0.29688 0.58746 0.0
C28 C 0.8818 0.3386 0.52445 0.0
O29 O 0.90126 0.28551 0.55592 0.0
O30 O 0.91806 0.24559 0.60028 0.0
O31 O 0.88847 0.18719 0.63022 0.0
O32 O 0.87607 0.20747 0.53712 0.0
O33 O 0.86595 0.33968 0.51062 0.0
O34 O 0.88857 0.31018 0.54572 0.0
O35 O 0.86759 0.22891 0.489 0.0
O36 O 0.84991 0.26605 0.44002 0.0
C37 C 0.85746 0.23733 0.43955 0.0
O38 O 0.86767 0.25651 0.68814 0.0
O39 O 0.89296 0.25383 0.73921 0.0
C40 C 0.83849 0.28208 0.64254 0.0
C41 C 0.87684 0.25653 0.74341 0.0
Zn42 Zn 0.11333 0.71343 0.38167 0.0
Zn43 Zn 0.1516 0.80363 0.49365 0.0
Zn44 Zn 0.13212 0.75753 0.43925 0.0
C45 C 0.15243 0.74782 0.58243 0.0
C46 C 0.11943 0.83386 0.48663 0.0
O47 O 0.14304 0.74582 0.33572 0.0
O48 O 0.12701 0.70253 0.29995 0.0
C49 C 0.1241 0.6816 0.49898 0.0
O50 O 0.14158 0.73621 0.53807 0.0
O51 O 0.15943 0.77673 0.57338 0.0
O52 O 0.13427 0.83947 0.51039 0.0
O53 O 0.11606 0.80493 0.45699 0.0
O54 O 0.11279 0.67794 0.45322 0.0
O55 O 0.13295 0.70961 0.50194 0.0
O56 O 0.10521 0.77839 0.43207 0.0
O57 O 0.09223 0.73969 0.36716 0.0
C58 C 0.09171 0.76751 0.40006 0.0
O59 O 0.15453 0.76768 0.37083 0.0
O60 O 0.16849 0.81072 0.41969 0.0
C61 C 0.13944 0.72276 0.29035 0.0
C62 C 0.16724 0.78906 0.37188 0.0
Zn63 Zn 0.89088 0.79604 0.34795 0.0
Zn64 Zn 0.86018 0.70937 0.47348 0.0
Zn65 Zn 0.87426 0.75201 0.41344 0.0
C66 C 0.86823 0.7538 0.57151 0.0
C67 C 0.88529 0.67328 0.41825 0.0
O68 O 0.86028 0.76045 0.31475 0.0
O69 O 0.87587 0.80192 0.26828 0.0
C70 C 0.88108 0.82949 0.46575 0.0
O71 O 0.86817 0.77213 0.5166 0.0
O72 O 0.86834 0.72148 0.56665 0.0
O73 O 0.86954 0.66793 0.42951 0.0
O74 O 0.89098 0.70446 0.41931 0.0
O75 O 0.89061 0.83395 0.41428 0.0
O76 O 0.87368 0.80024 0.47545 0.0
O77 O 0.90143 0.73303 0.40105 0.0
O78 O 0.91294 0.77285 0.3346 0.0
C79 C 0.9145 0.74546 0.36844 0.0
O80 O 0.84932 0.742 0.35948 0.0
O81 O 0.83629 0.72197 0.45112 0.0
C82 C 0.86313 0.78194 0.26571 0.0
C83 C 0.83533 0.73355 0.39094 0.0
Zn84 Zn 0.60603 0.77148 0.17013 0.0
Zn85 Zn 0.64164 0.71617 0.01229 0.0
Zn86 Zn 0.62522 0.74906 0.08645 0.0
C87 C 0.63116 0.76919 0.93393 0.0
C88 C 0.61841 0.66994 0.0524 0.0
O89 O 0.63789 0.75121 0.19048 0.0
O90 O 0.6147 0.75108 0.25549 0.0
C91 C 0.61928 0.8267 0.09088 0.0
O92 O 0.62989 0.78177 0.99477 0.0
O93 O 0.63338 0.73733 0.92619 0.0
O94 O 0.63405 0.66923 0.03542 0.0
O95 O 0.61128 0.69925 0.06474 0.0
O96 O 0.61306 0.81971 0.1491 0.0
O97 O 0.62333 0.80204 0.05008 0.0
O98 O 0.59903 0.72452 0.07503 0.0
O99 O 0.58306 0.75825 0.14002 0.0
C100 C 0.5841 0.73474 0.09597 0.0
O101 O 0.65008 0.73981 0.14022 0.0
O102 O 0.66456 0.7304 0.04534 0.0
C103 C 0.63084 0.74947 0.25029 0.0
C104 C 0.66458 0.73659 0.10877 0.0
Zn105 Zn 0.35303 0.79756 -0.00071 0.0
Zn106 Zn 0.39451 0.72495 0.14313 0.0
Zn107 Zn 0.37315 0.75708 0.06588 0.0
C108 C 0.41459 0.77293 0.08383 0.0
C109 C 0.38125 0.67823 0.04357 0.0
O110 O 0.35043 0.76929 0.13128 0.0
O111 O 0.33543 0.80632 0.06958 0.0
C112 C 0.3837 0.8325 0.0019 0.0
O113 O 0.39968 0.78009 0.05812 0.0
O114 O 0.41611 0.7491 0.12702 0.0
O115 O 0.39105 0.6805 0.09508 0.0
O116 O 0.37343 0.70507 0.0208 0.0
O117 O 0.36888 0.83533 0.97614 0.0
O118 O 0.38765 0.80529 0.03653 0.0
O119 O 0.36488 0.72745 0.97383 0.0
O120 O 0.34697 0.76463 0.92627 0.0
C121 C 0.35432 0.73573 0.92561 0.0
O122 O 0.36244 0.7519 0.17263 0.0
O123 O 0.38381 0.72986 0.23343 0.0
C124 C 0.33713 0.78874 0.12343 0.0
C125 C 0.36873 0.74157 0.23033 0.0
Zn126 Zn 0.61376 0.22287 0.85655 0.0
Zn127 Zn 0.65052 0.30468 0.97128 0.0
Zn128 Zn 0.63101 0.25985 0.91848 0.0
C129 C 0.64931 0.24804 0.06106 0.0
C130 C 0.61911 0.33744 0.95527 0.0
O131 O 0.64048 0.25392 0.81193 0.0
O132 O 0.61539 0.24327 0.76383 0.0
C133 C 0.63286 0.18119 0.93633 0.0
O134 O 0.63982 0.23538 0.01335 0.0
O135 O 0.65512 0.27825 0.05617 0.0
O136 O 0.63451 0.34369 0.97157 0.0
O137 O 0.61464 0.30676 0.9374 0.0
O138 O 0.62776 0.1813 0.87495 0.0
O139 O 0.6326 0.2094 0.97088 0.0
O140 O 0.6039 0.27897 0.9237 0.0
O141 O 0.59208 0.22808 0.90781 0.0
C142 C 0.59065 0.25898 0.92602 0.0
O143 O 0.65398 0.26833 0.85045 0.0
O144 O 0.66954 0.30688 0.90609 0.0
C145 C 0.63113 0.25054 0.75775 0.0
C146 C 0.66777 0.28667 0.85617 0.0
Zn147 Zn 0.39017 0.29661 0.87316 0.0
Zn148 Zn 0.35355 0.20142 0.98158 0.0
Zn149 Zn 0.37227 0.25066 0.93061 0.0
C150 C 0.35251 0.25645 0.07456 0.0
C151 C 0.38614 0.17365 0.96927 0.0
O152 O 0.36122 0.26216 0.82721 0.0
O153 O 0.37662 0.30618 0.79051 0.0
C154 C 0.37869 0.32689 0.99175 0.0
O155 O 0.36248 0.27027 0.02958 0.0
O156 O 0.34668 0.22653 0.06523 0.0
O157 O 0.37125 0.16553 0.98915 0.0
O158 O 0.38918 0.20418 0.94624 0.0
O159 O 0.38952 0.33202 0.94482 0.0
O160 O 0.3706 0.29798 0.99516 0.0
O161 O 0.39957 0.23203 0.92414 0.0
O162 O 0.41192 0.27219 0.86097 0.0
C163 C 0.41297 0.24432 0.89356 0.0
O164 O 0.34989 0.23995 0.86191 0.0
O165 O 0.33599 0.19653 0.90964 0.0
C166 C 0.36447 0.2852 0.78141 0.0
C167 C 0.33716 0.2186 0.8626 0.0
H168 H 0.18751 0.16619 0.66189 0.0
H169 H 0.21691 0.17228 0.70489 0.0
H170 H 0.20991 0.28196 0.71982 0.0
H171 H 0.18039 0.2758 0.67745 0.0
H172 H 0.24025 0.20929 0.62799 0.0
H173 H 0.23727 0.26071 0.89361 0.0
H174 H 0.21908 0.2402 0.85289 0.0
H175 H 0.22472 0.2836 0.83116 0.0
C176 C 0.19201 0.1914 0.67722 0.0
C177 C 0.18162 0.22048 0.6673 0.0
C178 C 0.20885 0.19491 0.70121 0.0
C179 C 0.21564 0.22757 0.71536 0.0
C180 C 0.20487 0.25645 0.71035 0.0
H181 H 0.3232 0.27827 0.81447 0.0
H182 H 0.29413 0.28494 0.76659 0.0
C183 C 0.18793 0.25289 0.68677 0.0
C184 C 0.23445 0.23145 0.72656 0.0
H185 H 0.26482 0.25665 0.84273 0.0
C186 C 0.24561 0.21974 0.67493 0.0
C187 C 0.24142 0.24563 0.78722 0.0
C188 C 0.23005 0.25805 0.84473 0.0
C189 C 0.26354 0.2209 0.68316 0.0
C190 C 0.2705 0.23385 0.74479 0.0
C191 C 0.2594 0.24687 0.79534 0.0
C192 C 0.28903 0.23036 0.76126 0.0
C193 C 0.27492 0.20783 0.62629 0.0
C194 C 0.29593 0.1975 0.77172 0.0
C195 C 0.31241 0.19366 0.79907 0.0
C196 C 0.32233 0.22262 0.81605 0.0
C197 C 0.31593 0.25552 0.8008 0.0
C198 C 0.29929 0.25937 0.77415 0.0
H199 H 0.2681 0.20772 0.57623 0.0
H200 H 0.28675 0.22373 0.62163 0.0
H201 H 0.27888 0.18107 0.63797 0.0
H202 H 0.28817 0.1748 0.76279 0.0
H203 H 0.317 0.16805 0.81084 0.0
H204 H 0.68896 0.33486 0.8029 0.0
H205 H 0.71889 0.32579 0.76892 0.0
H206 H 0.71183 0.21623 0.78608 0.0
H207 H 0.68178 0.22529 0.8201 0.0
H208 H 0.74072 0.29101 0.86692 0.0
H209 H 0.7418 0.22888 0.60975 0.0
H210 H 0.72376 0.2543 0.63872 0.0
H211 H 0.72708 0.21199 0.67254 0.0
C212 C 0.69358 0.30881 0.79633 0.0
C213 C 0.68301 0.28075 0.81299 0.0
C214 C 0.71071 0.30366 0.77757 0.0
C215 C 0.71759 0.27037 0.77526 0.0
C216 C 0.70671 0.24211 0.78669 0.0
H217 H 0.82558 0.22174 0.68918 0.0
H218 H 0.79665 0.21379 0.7372 0.0
C219 C 0.6895 0.24728 0.80539 0.0
C220 C 0.73648 0.26593 0.76991 0.0
H221 H 0.76849 0.23848 0.66374 0.0
C222 C 0.74681 0.27929 0.8227 0.0
C223 C 0.74434 0.2501 0.71289 0.0
C224 C 0.73376 0.23559 0.65486 0.0
C225 C 0.76483 0.27833 0.81886 0.0
C226 C 0.77273 0.26413 0.76018 0.0
C227 C 0.7624 0.2493 0.70883 0.0
C228 C 0.79142 0.26818 0.74685 0.0
C229 C 0.77525 0.29297 0.87724 0.0
C230 C 0.79832 0.30129 0.73911 0.0
C231 C 0.81481 0.30579 0.71227 0.0
C232 C 0.82473 0.27727 0.69318 0.0
C233 C 0.81839 0.24408 0.70574 0.0
C234 C 0.80178 0.23955 0.73216 0.0
H235 H 0.76798 0.29195 0.9262 0.0
H236 H 0.78759 0.27894 0.8838 0.0
H237 H 0.77822 0.32032 0.86632 0.0
H238 H 0.79047 0.32377 0.74871 0.0
H239 H 0.81927 0.3316 0.70131 0.0
H240 H 0.31588 0.84081 0.15915 0.0
H241 H 0.28673 0.83496 0.20424 0.0
H242 H 0.29479 0.72617 0.23163 0.0
H243 H 0.3242 0.73216 0.18788 0.0
H244 H 0.26352 0.79601 0.13315 0.0
H245 H 0.2676 0.75077 0.40295 0.0
H246 H 0.28563 0.77022 0.35933 0.0
H247 H 0.2799 0.72634 0.3422 0.0
C248 C 0.31167 0.81591 0.17749 0.0
C249 C 0.32229 0.78696 0.17035 0.0
C250 C 0.29497 0.81253 0.20272 0.0
C251 C 0.28851 0.78011 0.22084 0.0
C252 C 0.29955 0.75152 0.21885 0.0
H253 H 0.18102 0.7296 0.32221 0.0
H254 H 0.21006 0.72289 0.27435 0.0
C255 C 0.31641 0.75499 0.19423 0.0
C256 C 0.26976 0.77603 0.23321 0.0
H257 H 0.23985 0.75317 0.35299 0.0
C258 C 0.25837 0.78652 0.18121 0.0
C259 C 0.26304 0.76318 0.29544 0.0
C260 C 0.27463 0.75221 0.35349 0.0
C261 C 0.24048 0.78552 0.19055 0.0
C262 C 0.23379 0.77382 0.25351 0.0
C263 C 0.24509 0.76198 0.30456 0.0
C264 C 0.21531 0.77743 0.27045 0.0
C265 C 0.22883 0.79752 0.13354 0.0
C266 C 0.20851 0.81031 0.28164 0.0
C267 C 0.19205 0.81418 0.30907 0.0
C268 C 0.18204 0.78523 0.32523 0.0
C269 C 0.18835 0.75235 0.30918 0.0
C270 C 0.20498 0.74847 0.28257 0.0
H271 H 0.23556 0.79786 0.08335 0.0
H272 H 0.21729 0.78076 0.12947 0.0
H273 H 0.22438 0.82401 0.14485 0.0
H274 H 0.21634 0.83296 0.27307 0.0
H275 H 0.18754 0.83977 0.32146 0.0
H276 H 0.69537 0.74835 0.0484 0.0
H277 H 0.72364 0.75105 0.10114 0.0
H278 H 0.70073 0.73725 0.30052 0.0
H279 H 0.67212 0.73306 0.24712 0.0
H280 H 0.73753 0.79451 0.19499 0.0
H281 H 0.73632 0.66065 0.29433 0.0
H282 H 0.72052 0.67651 0.23439 0.0
H283 H 0.71903 0.68748 0.32366 0.0
C284 C 0.69624 0.74581 0.10357 0.0
C285 C 0.68143 0.7404 0.14366 0.0
C286 C 0.71247 0.74757 0.13365 0.0
C287 C 0.71436 0.74395 0.20461 0.0
C288 C 0.69959 0.73956 0.24542 0.0
H289 H 0.805 0.7359 0.45891 0.0
H290 H 0.7761 0.74029 0.41206 0.0
C291 C 0.68323 0.73763 0.21507 0.0
C292 C 0.73195 0.744 0.23438 0.0
H293 H 0.76099 0.69374 0.3192 0.0
C294 C 0.74266 0.77251 0.22232 0.0
C295 C 0.73868 0.71512 0.26932 0.0
C296 C 0.72813 0.68305 0.28079 0.0
C297 C 0.75984 0.77304 0.24478 0.0
C298 C 0.76653 0.74417 0.27963 0.0
C299 C 0.75582 0.71579 0.29216 0.0
C300 C 0.78437 0.74333 0.30654 0.0
C301 C 0.77064 0.80462 0.23204 0.0
C302 C 0.79871 0.74366 0.26258 0.0
C303 C 0.81543 0.74103 0.28938 0.0
C304 C 0.818 0.73795 0.36035 0.0
C305 C 0.80354 0.73802 0.40386 0.0
C306 C 0.78696 0.74061 0.37727 0.0
H307 H 0.76267 0.82704 0.21679 0.0
H308 H 0.77815 0.81148 0.27851 0.0
H309 H 0.7799 0.79926 0.19011 0.0
H310 H 0.79695 0.74515 0.2076 0.0
H311 H 0.82622 0.74035 0.25466 0.0
H312 H 0.09888 0.85787 0.38281 0.0
H313 H 0.08755 0.9168 0.37505 0.0
H314 H 0.102 0.93483 0.58531 0.0
H315 H 0.11336 0.87652 0.59298 0.0
H316 H 0.07046 0.97182 0.53721 0.0
H317 H 0.12865 0.98749 0.37312 0.0
H318 H 0.1132 0.9553 0.34866 0.0
H319 H 0.12547 0.94999 0.42588 0.0
C320 C 0.09888 0.87392 0.42816 0.0
C321 C 0.1071 0.86278 0.48834 0.0
C322 C 0.09254 0.90767 0.42358 0.0
C323 C 0.0942 0.9304 0.47935 0.0
C324 C 0.10059 0.91785 0.54166 0.0
H325 H 0.10524 0.13901 0.60096 0.0
H326 H 0.09449 0.08011 0.59098 0.0
C327 C 0.10707 0.88445 0.546 0.0
C328 C 0.09242 0.96822 0.47047 0.0
H329 H 0.11447 0.03711 0.40738 0.0
C330 C 0.07985 0.98619 0.50774 0.0
C331 C 0.10475 0.98698 0.43242 0.0
C332 C 0.11888 0.96917 0.39294 0.0
C333 C 0.07947 0.02244 0.50883 0.0
C334 C 0.09235 0.04121 0.47346 0.0
C335 C 0.10451 0.02303 0.43432 0.0
C336 C 0.0946 0.07929 0.47986 0.0
C337 C 0.0653 0.04008 0.54804 0.0
C338 C 0.09791 0.09917 0.42112 0.0
C339 C 0.10449 0.13251 0.42704 0.0
C340 C 0.10749 0.14707 0.49176 0.0
C341 C 0.10264 0.12864 0.55047 0.0
C342 C 0.09645 0.09487 0.54465 0.0
H343 H 0.05341 0.02421 0.54842 0.0
H344 H 0.06941 0.04358 0.60206 0.0
H345 H 0.06221 0.06564 0.52596 0.0
H346 H 0.09659 0.08801 0.37053 0.0
H347 H 0.10837 0.14604 0.38105 0.0
H348 H 0.86946 0.4017 0.54976 0.0
H349 H 0.88307 0.4569 0.53067 0.0
H350 H 0.92992 0.40614 0.46905 0.0
H351 H 0.91589 0.3498 0.48674 0.0
H352 H 0.91213 0.48751 0.58566 0.0
H353 H 0.91868 0.46814 0.30391 0.0
H354 H 0.90568 0.43972 0.35544 0.0
H355 H 0.92871 0.43795 0.36126 0.0
C356 C 0.88271 0.40207 0.53251 0.0
C357 C 0.89159 0.37129 0.51954 0.0
C358 C 0.89054 0.43379 0.52197 0.0
C359 C 0.90749 0.43588 0.49786 0.0
C360 C 0.91675 0.40522 0.48703 0.0
H361 H 0.9179 0.66147 0.46993 0.0
H362 H 0.93134 0.60449 0.48345 0.0
C363 C 0.90883 0.37306 0.49793 0.0
C364 C 0.91445 0.47063 0.48126 0.0
H365 H 0.91947 0.52455 0.34458 0.0
C366 C 0.91429 0.49563 0.5332 0.0
C367 C 0.91732 0.48113 0.4128 0.0
C368 C 0.91759 0.45552 0.35478 0.0
C369 C 0.91495 0.53093 0.51795 0.0
C370 C 0.9163 0.54162 0.44868 0.0
C371 C 0.9184 0.51645 0.39758 0.0
C372 C 0.9115 0.57721 0.42727 0.0
C373 C 0.9124 0.55631 0.57557 0.0
C374 C 0.89677 0.58134 0.38645 0.0
C375 C 0.88935 0.61363 0.37786 0.0
C376 C 0.89644 0.64275 0.40973 0.0
C377 C 0.91218 0.63946 0.44468 0.0
C378 C 0.91971 0.60681 0.45326 0.0
H379 H 0.90948 0.54348 0.62507 0.0
H380 H 0.92429 0.57171 0.58245 0.0
H381 H 0.90169 0.57418 0.56339 0.0
H382 H 0.89018 0.55917 0.36537 0.0
H383 H 0.87727 0.61541 0.35026 0.0
H384 H 0.84919 0.852 0.5024 0.0
H385 H 0.84187 0.91231 0.52654 0.0
H386 H 0.89586 0.93731 0.53711 0.0
H387 H 0.90318 0.8775 0.51279 0.0
H388 H 0.85819 0.96858 0.63759 0.0
H389 H 0.86945 0.98573 0.35832 0.0
H390 H 0.86266 0.9453 0.39512 0.0
H391 H 0.88463 0.95898 0.40325 0.0
C392 C 0.85944 0.87005 0.5135 0.0
C393 C 0.87674 0.86019 0.50619 0.0
C394 C 0.85525 0.90451 0.52637 0.0
C395 C 0.86836 0.92917 0.53244 0.0
C396 C 0.88559 0.91861 0.53215 0.0
H397 H 0.89785 0.126 0.61997 0.0
H398 H 0.8904 0.06596 0.60524 0.0
C399 C 0.88976 0.88442 0.51892 0.0
C400 C 0.86451 0.96635 0.53044 0.0
H401 H 0.87006 0.03634 0.42715 0.0
C402 C 0.86033 0.98341 0.59131 0.0
C403 C 0.86709 0.98552 0.46969 0.0
C404 C 0.87109 0.96806 0.40256 0.0
C405 C 0.85994 0.01946 0.59404 0.0
C406 C 0.86413 0.03872 0.5347 0.0
C407 C 0.86692 0.02157 0.47258 0.0
C408 C 0.86857 0.07568 0.5393 0.0
C409 C 0.85587 0.03671 0.6613 0.0
C410 C 0.8593 0.10116 0.50386 0.0
C411 C 0.86363 0.13605 0.51188 0.0
C412 C 0.87732 0.14558 0.55516 0.0
C413 C 0.88704 0.11966 0.58718 0.0
C414 C 0.88274 0.08524 0.57923 0.0
H415 H 0.84764 0.02011 0.694 0.0
H416 H 0.86805 0.04161 0.68947 0.0
H417 H 0.84927 0.06168 0.65315 0.0
H418 H 0.84848 0.09413 0.47172 0.0
H419 H 0.85592 0.15544 0.48658 0.0
H420 H 0.10297 0.6343 0.55568 0.0
H421 H 0.10995 0.57342 0.56709 0.0
H422 H 0.16347 0.59597 0.53041 0.0
H423 H 0.15654 0.65731 0.5199 0.0
H424 H 0.12876 0.54887 0.43294 0.0
H425 H 0.15898 0.51177 0.68133 0.0
H426 H 0.14306 0.54557 0.67824 0.0
H427 H 0.16385 0.55248 0.64124 0.0
C428 C 0.11635 0.62655 0.55396 0.0
C429 C 0.1292 0.65041 0.53664 0.0
C430 C 0.12032 0.59173 0.5599 0.0
C431 C 0.13718 0.58024 0.54871 0.0
C432 C 0.15039 0.60442 0.53949 0.0
H433 H 0.15634 0.3572 0.50934 0.0
H434 H 0.16298 0.41894 0.49907 0.0
C435 C 0.14643 0.63949 0.53418 0.0
C436 C 0.13999 0.54343 0.53331 0.0
H437 H 0.15137 0.4669 0.60537 0.0
C438 C 0.13399 0.53097 0.47013 0.0
C439 C 0.14701 0.52037 0.5815 0.0
C440 C 0.15365 0.53294 0.64958 0.0
C441 C 0.13395 0.49571 0.45538 0.0
C442 C 0.13986 0.47231 0.50542 0.0
C443 C 0.14688 0.48493 0.56695 0.0
C444 C 0.13632 0.43498 0.49947 0.0
C445 C 0.12697 0.48367 0.38733 0.0
C446 C 0.11919 0.42365 0.50087 0.0
C447 C 0.11543 0.38877 0.50701 0.0
C448 C 0.12873 0.36448 0.51124 0.0
C449 C 0.14588 0.37545 0.5048 0.0
C450 C 0.14968 0.41064 0.49976 0.0
H451 H 0.12806 0.50404 0.34767 0.0
H452 H 0.13385 0.46037 0.36923 0.0
H453 H 0.11314 0.47719 0.39312 0.0
H454 H 0.1087 0.44197 0.50162 0.0
H455 H 0.10213 0.38094 0.51283 0.0
H456 H 0.63219 0.60778 0.07779 0.0
H457 H 0.61873 0.55178 0.06832 0.0
H458 H 0.56983 0.5997 0.02578 0.0
H459 H 0.58354 0.65678 0.03417 0.0
H460 H 0.59152 0.51985 0.13544 0.0
H461 H 0.57763 0.53791 0.85742 0.0
H462 H 0.59151 0.5672 0.90315 0.0
H463 H 0.56874 0.56773 0.91832 0.0
C464 C 0.61852 0.60662 0.06702 0.0
C465 C 0.60898 0.6368 0.05599 0.0
C466 C 0.6108 0.57446 0.06199 0.0
C467 C 0.5933 0.57135 0.04555 0.0
C468 C 0.58341 0.60142 0.03767 0.0
H469 H 0.58727 0.34504 0.01688 0.0
H470 H 0.57259 0.40042 0.03708 0.0
C471 C 0.59121 0.63401 0.04307 0.0
C472 C 0.58641 0.53623 0.03227 0.0
H473 H 0.57919 0.48164 0.89825 0.0
C474 C 0.58823 0.51144 0.08407 0.0
C475 C 0.58203 0.52537 0.96528 0.0
C476 C 0.57987 0.55075 0.90749 0.0
C477 C 0.58785 0.47608 0.06923 0.0
C478 C 0.58517 0.46518 0.00074 0.0
C479 C 0.58129 0.48998 0.95063 0.0
C480 C 0.59072 0.43041 0.97745 0.0
C481 C 0.59216 0.45096 0.12561 0.0
C482 C 0.60496 0.42845 0.93353 0.0
C483 C 0.61312 0.3972 0.92172 0.0
C484 C 0.60721 0.36697 0.95306 0.0
C485 C 0.59201 0.36803 0.99196 0.0
C486 C 0.58378 0.3997 0.00411 0.0
H487 H 0.59538 0.46401 0.1746 0.0
H488 H 0.58098 0.43384 0.13483 0.0
H489 H 0.60326 0.43471 0.11043 0.0
H490 H 0.6106 0.45156 0.91215 0.0
H491 H 0.62481 0.39703 0.89142 0.0
H492 H 0.38729 0.87464 0.89264 0.0
H493 H 0.39947 0.93233 0.8923 0.0
H494 H 0.41771 0.91759 0.09895 0.0
H495 H 0.40554 0.85916 0.09917 0.0
H496 H 0.39525 0.97304 0.08295 0.0
H497 H 0.4461 0.98078 0.88613 0.0
H498 H 0.4272 0.95923 0.8552 0.0
H499 H 0.43943 0.94057 0.92419 0.0
C500 C 0.39449 0.88315 0.93711 0.0
C501 C 0.39544 0.8624 0.99596 0.0
C502 C 0.40153 0.91618 0.93676 0.0
C503 C 0.40963 0.9294 0.9954 0.0
C504 C 0.41165 0.90787 0.05285 0.0
H505 H 0.40717 0.15226 0.0724 0.0
H506 H 0.41856 0.0937 0.08389 0.0
C507 C 0.40478 0.87442 0.05285 0.0
C508 C 0.41308 0.96705 -0.00031 0.0
H509 H 0.43102 0.03388 0.91105 0.0
C510 C 0.40344 0.98637 0.04666 0.0
C511 C 0.42362 0.98447 0.95184 0.0
C512 C 0.43481 0.96515 0.90191 0.0
C513 C 0.40302 0.02247 0.04388 0.0
C514 C 0.41299 0.04001 0.99394 0.0
C515 C 0.42341 0.02066 0.94942 0.0
C516 C 0.41099 0.07773 0.98192 0.0
C517 C 0.39083 0.04121 0.09114 0.0
C518 C 0.40456 0.08934 0.9187 0.0
C519 C 0.3986 0.1231 0.9115 0.0
C520 C 0.39899 0.14586 0.96726 0.0
C521 C 0.40702 0.13538 0.02826 0.0
C522 C 0.41322 0.1017 0.0352 0.0
H523 H 0.38148 0.02353 0.11592 0.0
H524 H 0.3983 0.05404 0.1323 0.0
H525 H 0.38348 0.06115 0.06284 0.0
H526 H 0.40276 0.07153 0.87663 0.0
H527 H 0.3921 0.13031 0.86449 0.0
H528 H 0.39972 0.3716 0.0564 0.0
H529 H 0.39307 0.43182 0.07785 0.0
H530 H 0.33965 0.41259 0.0313 0.0
H531 H 0.34634 0.35179 0.0104 0.0
H532 H 0.3552 0.46117 0.94528 0.0
H533 H 0.36869 0.49342 0.21557 0.0
H534 H 0.38559 0.46795 0.17907 0.0
H535 H 0.36432 0.44999 0.18766 0.0
C536 C 0.3864 0.37981 0.05456 0.0
C537 C 0.37353 0.35708 0.03227 0.0
C538 C 0.3826 0.41433 0.0665 0.0
C539 C 0.36585 0.42682 0.05607 0.0
C540 C 0.35264 0.40348 0.0399 0.0
H541 H 0.35013 0.65143 0.00404 0.0
H542 H 0.34296 0.58979 0.00115 0.0
C543 C 0.35643 0.36867 0.02887 0.0
C544 C 0.36312 0.46452 0.05094 0.0
H545 H 0.37268 0.5395 0.13318 0.0
C546 C 0.35853 0.4784 0.98689 0.0
C547 C 0.3675 0.48698 0.10511 0.0
C548 C 0.37163 0.4738 0.1759 0.0
C549 C 0.35952 0.51396 0.97427 0.0
C550 C 0.36512 0.53607 0.02715 0.0
C551 C 0.36857 0.52242 0.09239 0.0
C552 C 0.36926 0.57279 0.01484 0.0
C553 C 0.3557 0.5275 0.90351 0.0
C554 C 0.38643 0.5835 0.02034 0.0
C555 C 0.3905 0.61837 0.02185 0.0
C556 C 0.37749 0.64333 0.01787 0.0
C557 C 0.36043 0.63272 0.00618 0.0
C558 C 0.35631 0.59755 0.00512 0.0
H559 H 0.35275 0.50659 0.86655 0.0
H560 H 0.3445 0.54515 0.90582 0.0
H561 H 0.36686 0.54246 0.88413 0.0
H562 H 0.39662 0.56482 0.02743 0.0
H563 H 0.40374 0.62584 0.0311 0.0
H564 H 0.62653 0.15696 0.06586 0.0
H565 H 0.62826 0.09644 0.10179 0.0
H566 H 0.65141 0.07018 0.90794 0.0
H567 H 0.64974 0.13004 0.8723 0.0
H568 H 0.61003 0.04737 0.0231 0.0
H569 H 0.67885 0.01106 0.04269 0.0
H570 H 0.67161 0.05512 0.04757 0.0
H571 H 0.67359 0.03416 0.96585 0.0
C572 C 0.63261 0.13843 0.03231 0.0
C573 C 0.63794 0.14799 0.96634 0.0
C574 C 0.6335 0.1039 0.05258 0.0
C575 C 0.64005 0.07886 0.00759 0.0
C576 C 0.6466 0.08905 0.94393 0.0
H577 H 0.63413 0.85461 0.97446 0.0
H578 H 0.63932 0.91595 0.9512 0.0
C579 C 0.64554 0.12327 0.9235 0.0
C580 C 0.63759 0.04177 0.02157 0.0
H581 H 0.65865 0.96489 0.03194 0.0
C582 C 0.62067 0.02939 0.02595 0.0
C583 C 0.65148 0.01831 0.02354 0.0
C584 C 0.66992 0.03031 0.02025 0.0
C585 C 0.61722 0.99414 0.03136 0.0
C586 C 0.63109 0.97065 0.03394 0.0
C587 C 0.64804 0.98295 0.02945 0.0
C588 C 0.62817 0.93358 0.04656 0.0
C589 C 0.59871 0.98231 0.03294 0.0
C590 C 0.62038 0.92333 0.10784 0.0
C591 C 0.61733 0.88874 0.12092 0.0
C592 C 0.62216 0.86332 0.07332 0.0
C593 C 0.63014 0.87351 0.0119 0.0
C594 C 0.63318 0.90847 0.99873 0.0
H595 H 0.58994 1.00173 0.01012 0.0
H596 H 0.59707 0.95768 0.00495 0.0
H597 H 0.59473 0.97827 0.08694 0.0
H598 H 0.61673 0.94219 0.14598 0.0
H599 H 0.61128 0.88201 0.16906 0.0
H600 H 0.12623 0.29927 0.34147 0.0
H601 H 0.12959 0.30839 0.21791 0.0
H602 H 0.18451 0.29591 0.2378 0.0
H603 H 0.1811 0.28554 0.36065 0.0
H604 H 0.14886 0.34658 0.1196 0.0
H605 H 0.16911 0.20965 0.1336 0.0
H606 H 0.16011 0.23207 0.20597 0.0
H607 H 0.18215 0.23915 0.18174 0.0
C608 C 0.13908 0.30023 0.31997 0.0
C609 C 0.15339 0.29141 0.36016 0.0
C610 C 0.14099 0.30515 0.24925 0.0
C611 C 0.15725 0.3017 0.21846 0.0
C612 C 0.17181 0.29785 0.26031 0.0
H613 H 0.16235 0.30205 0.76523 0.0
H614 H 0.17192 0.31151 0.88396 0.0
C615 C 0.16987 0.29235 0.33059 0.0
C616 C 0.15856 0.29624 0.14332 0.0
H617 H 0.16682 0.23394 0.02427 0.0
C618 C 0.15303 0.32218 0.09855 0.0
C619 C 0.16376 0.26409 0.11612 0.0
C620 C 0.16899 0.23449 0.16166 0.0
C621 C 0.1522 0.31658 0.02738 0.0
C622 C 0.15723 0.28431 0.00042 0.0
C623 C 0.16321 0.25877 0.04505 0.0
C624 C 0.15406 0.27491 0.9278 0.0
C625 C 0.14506 0.34454 0.98198 0.0
C626 C 0.14167 0.24974 0.9129 0.0
C627 C 0.13645 0.24398 0.84545 0.0
C628 C 0.14372 0.26289 0.7916 0.0
C629 C 0.15698 0.28638 0.80576 0.0
C630 C 0.16219 0.29227 0.87359 0.0
H631 H 0.1393 0.36586 0.01203 0.0
H632 H 0.15559 0.35529 0.95008 0.0
H633 H 0.13511 0.33398 0.94696 0.0
H634 H 0.13525 0.236 0.95388 0.0
H635 H 0.12596 0.22627 0.83573 0.0
H636 H 0.88349 0.21138 0.36247 0.0
H637 H 0.88159 0.20293 0.23817 0.0
H638 H 0.82632 0.21105 0.24887 0.0
H639 H 0.82823 0.22037 0.37253 0.0
H640 H 0.86187 0.16374 0.13253 0.0
H641 H 0.84393 0.30174 0.15731 0.0
H642 H 0.85272 0.27743 0.22778 0.0
H643 H 0.83064 0.27164 0.20288 0.0
C644 C 0.87091 0.20944 0.33877 0.0
C645 C 0.85602 0.21684 0.37656 0.0
C646 C 0.86983 0.20486 0.2677 0.0
C647 C 0.85383 0.20727 0.23435 0.0
C648 C 0.83879 0.20961 0.27362 0.0
H649 H 0.84787 0.22203 0.78247 0.0
H650 H 0.83889 0.20945 0.90064 0.0
C651 C 0.83988 0.21465 0.34428 0.0
C652 C 0.85321 0.21437 0.15984 0.0
H653 H 0.84698 0.27998 0.04614 0.0
C654 C 0.85837 0.18894 0.11334 0.0
C655 C 0.84883 0.24752 0.1353 0.0
C656 C 0.84384 0.27632 0.18321 0.0
C657 C 0.85958 0.19602 0.04282 0.0
C658 C 0.85546 0.2293 0.01864 0.0
C659 C 0.8499 0.25441 0.06495 0.0
C660 C 0.85906 0.2399 0.94726 0.0
C661 C 0.86604 0.16846 0.99499 0.0
C662 C 0.87279 0.26241 0.93471 0.0
C663 C 0.87778 0.26981 0.86772 0.0
C664 C 0.86898 0.2552 0.81203 0.0
C665 C 0.85455 0.23433 0.82448 0.0
C666 C 0.84962 0.22666 0.89183 0.0
H667 H 0.87043 0.1452 0.02293 0.0
H668 H 0.85556 0.16088 0.95938 0.0
H669 H 0.87687 0.17843 0.96365 0.0
H670 H 0.88018 0.273 0.97686 0.0
H671 H 0.88902 0.28578 0.85944 0.0
H672 H 0.14431 0.66608 0.21243 0.0
H673 H 0.15245 0.66431 0.09196 0.0
H674 H 0.16267 0.77323 0.09622 0.0
H675 H 0.15421 0.77524 0.21732 0.0
H676 H 0.1382 0.75391 0.00079 0.0
H677 H 0.1958 0.67116 0.97506 0.0
H678 H 0.17918 0.65231 0.02675 0.0
H679 H 0.18969 0.69096 0.05519 0.0
C680 C 0.14879 0.6895 0.18829 0.0
C681 C 0.14856 0.72085 0.22411 0.0
C682 C 0.15357 0.68838 0.11948 0.0
C683 C 0.15825 0.71857 0.08513 0.0
C684 C 0.15919 0.74958 0.122 0.0
H685 H 0.18117 0.75163 0.66079 0.0
H686 H 0.18331 0.73833 0.78262 0.0
C687 C 0.15446 0.75069 0.19123 0.0
C688 C 0.15935 0.71848 0.00929 0.0
H689 H 0.17921 0.6803 0.87289 0.0
C690 C 0.14727 0.73804 0.97285 0.0
C691 C 0.17113 0.69761 0.97298 0.0
C692 C 0.1848 0.67705 0.00945 0.0
C693 C 0.14647 0.73703 0.90114 0.0
C694 C 0.15787 0.71534 0.86481 0.0
C695 C 0.17021 0.69624 0.90103 0.0
C696 C 0.15808 0.71506 0.78891 0.0
C697 C 0.13361 0.75969 0.86477 0.0
C698 C 0.14361 0.70436 0.75117 0.0
C699 C 0.14236 0.71187 0.68111 0.0
C700 C 0.15555 0.7303 0.6484 0.0
C701 C 0.17072 0.73772 0.68493 0.0
C702 C 0.17199 0.73009 0.75455 0.0
H703 H 0.12817 0.77961 0.89928 0.0
H704 H 0.13965 0.77268 0.82019 0.0
H705 H 0.12283 0.74366 0.84548 0.0
H706 H 0.13283 0.69228 0.77681 0.0
H707 H 0.13052 0.7059 0.65431 0.0
H708 H 0.88185 0.72911 0.68864 0.0
H709 H 0.87476 0.74642 0.80541 0.0
H710 H 0.84333 0.82889 0.72748 0.0
H711 H 0.85053 0.81168 0.60932 0.0
H712 H 0.87549 0.82472 0.8678 0.0
H713 H 0.81419 0.75046 0.85519 0.0
H714 H 0.83236 0.73729 0.80394 0.0
H715 H 0.82142 0.77656 0.78421 0.0
C716 C 0.87374 0.75142 0.6963 0.0
C717 C 0.86672 0.76911 0.64018 0.0
C718 C 0.86968 0.76119 0.7629 0.0
C719 C 0.8584 0.78858 0.77461 0.0
C720 C 0.85203 0.80759 0.719 0.0
H721 H 0.84767 0.83697 0.20847 0.0
H722 H 0.84083 0.84306 0.08658 0.0
C723 C 0.85627 0.79798 0.65184 0.0
C724 C 0.85279 0.79527 0.84547 0.0
H725 H 0.8245 0.76533 0.96528 0.0
C726 C 0.86408 0.81273 0.88915 0.0
C727 C 0.83803 0.77899 0.8726 0.0
C728 C 0.82569 0.75974 0.82689 0.0
C729 C 0.86152 0.81274 0.96024 0.0
C730 C 0.84715 0.79508 0.98793 0.0
C731 C 0.83539 0.77903 0.94378 0.0
C732 C 0.84558 0.78966 0.06267 0.0
C733 C 0.87489 0.82957 0.00544 0.0
C734 C 0.84906 0.75704 0.09021 0.0
C735 C 0.85269 0.75341 0.16005 0.0
C736 C 0.85286 0.78241 0.20265 0.0
C737 C 0.84749 0.81424 0.17639 0.0
C738 C 0.8437 0.81779 0.10685 0.0
H739 H 0.88654 0.83734 0.97631 0.0
H740 H 0.86932 0.85293 0.02927 0.0
H741 H 0.87886 0.8119 0.04722 0.0
H742 H 0.85054 0.73501 0.05678 0.0
H743 H 0.85704 0.72876 0.17914 0.0
H744 H 0.62738 0.70934 0.36213 0.0
H745 H 0.63509 0.72564 0.47911 0.0
H746 H 0.66273 0.81362 0.40208 0.0
H747 H 0.65513 0.797 0.28421 0.0
H748 H 0.667 0.74492 0.55409 0.0
H749 H 0.62001 0.85131 0.51415 0.0
H750 H 0.62103 0.81496 0.45688 0.0
H751 H 0.63768 0.84687 0.45512 0.0
C752 C 0.63579 0.73121 0.36998 0.0
C753 C 0.64078 0.75176 0.31436 0.0
C754 C 0.64009 0.74067 0.43682 0.0
C755 C 0.64923 0.77114 0.44926 0.0
C756 C 0.65556 0.79013 0.39348 0.0
H757 H 0.65745 0.81012 0.89288 0.0
H758 H 0.66432 0.82175 0.77217 0.0
C759 C 0.65141 0.7804 0.32624 0.0
C760 C 0.64984 0.78472 0.52027 0.0
H761 H 0.62823 0.83933 0.62713 0.0
C762 C 0.65895 0.76621 0.57008 0.0
C763 C 0.63911 0.81226 0.54082 0.0
C764 C 0.6288 0.83257 0.48931 0.0
C765 C 0.65691 0.77328 0.64023 0.0
C766 C 0.6455 0.79969 0.66099 0.0
C767 C 0.63709 0.81939 0.611 0.0
C768 C 0.63998 0.80284 0.73354 0.0
C769 C 0.66599 0.75078 0.69182 0.0
C770 C 0.62358 0.7909 0.75195 0.0
C771 C 0.61964 0.78451 0.82059 0.0
C772 C 0.63194 0.79044 0.87188 0.0
C773 C 0.64761 0.80612 0.85429 0.0
C774 C 0.65164 0.81227 0.78533 0.0
H775 H 0.67297 0.72915 0.66721 0.0
H776 H 0.67545 0.7664 0.72095 0.0
H777 H 0.6566 0.74005 0.72901 0.0
H778 H 0.6144 0.78345 0.71283 0.0
H779 H 0.60763 0.7717 0.83283 0.0
H780 H 0.32436 0.71887 0.86379 0.0
H781 H 0.32094 0.70717 0.74157 0.0
H782 H 0.37607 0.69903 0.72094 0.0
H783 H 0.37941 0.7095 0.8439 0.0
H784 H 0.3326 0.75391 0.65619 0.0
H785 H 0.36087 0.62921 0.58181 0.0
H786 H 0.35529 0.63918 0.66942 0.0
H787 H 0.37543 0.65363 0.63393 0.0
C788 C 0.33566 0.71262 0.83378 0.0
C789 C 0.35214 0.71491 0.86314 0.0
C790 C 0.33372 0.70629 0.76376 0.0
C791 C 0.34822 0.70246 0.72162 0.0
C792 C 0.36463 0.7013 0.75226 0.0
H793 H 0.37247 0.7857 0.33559 0.0
H794 H 0.36345 0.7756 0.45397 0.0
C795 C 0.36656 0.70715 0.82277 0.0
C796 C 0.34642 0.70609 0.64595 0.0
H797 H 0.35958 0.67267 0.49291 0.0
C798 C 0.33821 0.7357 0.62055 0.0
C799 C 0.35357 0.68238 0.59904 0.0
C800 C 0.36162 0.64915 0.62246 0.0
C801 C 0.33777 0.74309 0.55017 0.0
C802 C 0.34599 0.72063 0.50378 0.0
C803 C 0.35337 0.69008 0.52858 0.0
C804 C 0.34861 0.72995 0.43069 0.0
C805 C 0.32876 0.77525 0.52622 0.0
C806 C 0.34291 0.70819 0.37786 0.0
C807 C 0.34792 0.71427 0.30995 0.0
C808 C 0.35874 0.74206 0.29416 0.0
C809 C 0.36368 0.76476 0.34638 0.0
C810 C 0.3586 0.75886 0.41403 0.0
H811 H 0.31871 0.78348 0.56319 0.0
H812 H 0.33831 0.79637 0.5219 0.0
H813 H 0.3227 0.77142 0.47523 0.0
H814 H 0.33531 0.68561 0.38964 0.0
H815 H 0.34442 0.69584 0.27071 0.0
H816 H 0.62603 0.21497 0.14145 0.0
H817 H 0.62972 0.20454 0.26454 0.0
H818 H 0.68361 0.22984 0.24799 0.0
H819 H 0.67983 0.24136 0.12571 0.0
H820 H 0.65232 0.16934 0.36219 0.0
H821 H 0.66133 0.31134 0.35189 0.0
H822 H 0.6539 0.28693 0.27913 0.0
H823 H 0.67626 0.28621 0.30277 0.0
C824 C 0.63879 0.21673 0.16363 0.0
C825 C 0.65261 0.22939 0.12497 0.0
C826 C 0.64089 0.21087 0.23385 0.0
C827 C 0.65685 0.21731 0.26531 0.0
C828 C 0.67116 0.22532 0.22467 0.0
H829 H 0.66257 0.22676 0.71786 0.0
H830 H 0.67259 0.21848 0.59954 0.0
C831 C 0.669 0.23175 0.15495 0.0
C832 C 0.65764 0.22246 0.34021 0.0
H833 H 0.65977 0.28612 0.46037 0.0
C834 C 0.65427 0.19469 0.38395 0.0
C835 C 0.65998 0.25578 0.36805 0.0
C836 C 0.66294 0.28689 0.32324 0.0
C837 C 0.6527 0.1996 0.45498 0.0
C838 C 0.65458 0.23304 0.48228 0.0
C839 C 0.65856 0.26052 0.4389 0.0
C840 C 0.64987 0.24091 0.55367 0.0
C841 C 0.64809 0.16951 0.50009 0.0
C842 C 0.63416 0.25735 0.56639 0.0
C843 C 0.62854 0.26227 0.63338 0.0
C844 C 0.63865 0.25121 0.68872 0.0
C845 C 0.6548 0.23631 0.67605 0.0
C846 C 0.66038 0.23109 0.6087 0.0
H847 H 0.64618 0.14549 0.47029 0.0
H848 H 0.65852 0.16521 0.53805 0.0
H849 H 0.63612 0.17519 0.52901 0.0
H850 H 0.62593 0.26519 0.52433 0.0
H851 H 0.616 0.27368 0.64192 0.0
H852 H 0.37283 0.30159 0.14627 0.0
H853 H 0.36993 0.31557 0.26842 0.0
H854 H 0.32147 0.26159 0.27494 0.0
H855 H 0.32419 0.24784 0.15349 0.0
H856 H 0.32354 0.32203 0.3633 0.0
H857 H 0.37742 0.22901 0.39308 0.0
H858 H 0.3815 0.26501 0.33769 0.0
H859 H 0.36562 0.23364 0.31396 0.0
C860 C 0.36127 0.29387 0.17316 0.0
C861 C 0.34886 0.2732 0.1408 0.0
C862 C 0.35968 0.30164 0.24296 0.0
C863 C 0.34564 0.28898 0.28075 0.0
C864 C 0.33243 0.27142 0.24674 0.0
H865 H 0.35051 0.23149 0.70959 0.0
H866 H 0.34186 0.23241 0.58864 0.0
C867 C 0.33405 0.2635 0.1774 0.0
C868 C 0.3458 0.28931 0.35654 0.0
H869 H 0.36639 0.25377 0.49372 0.0
C870 C 0.33293 0.30729 0.39202 0.0
C871 C 0.35777 0.26916 0.39355 0.0
C872 C 0.3713 0.24783 0.35789 0.0
C873 C 0.332 0.30628 0.46396 0.0
C874 C 0.34429 0.2869 0.50091 0.0
C875 C 0.35693 0.26847 0.46521 0.0
C876 C 0.34531 0.28729 0.57667 0.0
C877 C 0.31782 0.32563 0.49982 0.0
C878 C 0.34949 0.31795 0.61042 0.0
C879 C 0.35439 0.31745 0.67913 0.0
C880 C 0.35524 0.28627 0.71536 0.0
C881 C 0.34979 0.25591 0.68312 0.0
C882 C 0.34495 0.2564 0.61401 0.0
H883 H 0.30679 0.33064 0.46496 0.0
H884 H 0.31312 0.31125 0.54526 0.0
H885 H 0.32287 0.35079 0.51758 0.0
H886 H 0.35015 0.34195 0.58245 0.0
H887 H 0.35851 0.34126 0.70284 0.0
H888 H 0.07794 0.26184 0.45003 0.0
H889 H 0.04754 0.27017 0.42354 0.0
H890 H 0.03382 0.20219 0.58945 0.0
H891 H 0.06433 0.19637 0.61957 0.0
H892 H 0.01861 0.24326 0.39325 0.0
H893 H 0.01396 0.2883 0.66108 0.0
H894 H 0.03408 0.27537 0.62359 0.0
H895 H 0.0195 0.2437 0.65822 0.0
C896 C 0.06845 0.24739 0.4788 0.0
C897 C 0.0734 0.22849 0.53682 0.0
C898 C 0.05102 0.25249 0.46412 0.0
C899 C 0.03831 0.23817 0.50656 0.0
C900 C 0.04337 0.21484 0.55791 0.0
H901 H 0.92988 0.23818 0.45833 0.0
H902 H 0.96031 0.23669 0.43182 0.0
C903 C 0.06081 0.21075 0.57413 0.0
C904 C 0.02022 0.25088 0.50246 0.0
H905 H 0.98761 0.28257 0.60076 0.0
C906 C 0.01186 0.25207 0.43858 0.0
C907 C 0.01159 0.26414 0.56076 0.0
C908 C 0.02032 0.26824 0.6295 0.0
C909 C 0.99494 0.2646 0.43207 0.0
C910 C 0.98576 0.27469 0.49156 0.0
C911 C 0.99441 0.27473 0.55484 0.0
C912 C 0.96685 0.28179 0.49168 0.0
C913 C 0.98732 0.26739 0.36118 0.0
C914 C 0.95992 0.30825 0.53269 0.0
C915 C 0.94239 0.30836 0.5498 0.0
C916 C 0.93148 0.28265 0.52438 0.0
C917 C 0.93798 0.25884 0.47706 0.0
C918 C 0.9555 0.25803 0.46169 0.0
H919 H 0.9974 0.27421 0.32318 0.0
H920 H 0.98197 0.24208 0.34583 0.0
H921 H 0.97696 0.28698 0.35865 0.0
H922 H 0.96832 0.32705 0.55637 0.0
H923 H 0.93775 0.32645 0.58771 0.0
H924 H 0.9393 0.73782 0.2727 0.0
H925 H 0.97016 0.74226 0.29477 0.0
H926 H 0.96075 0.73409 0.51188 0.0
H927 H 0.92977 0.72893 0.48965 0.0
H928 H 0.98043 0.80026 0.37214 0.0
H929 H 0.00587 0.67912 0.48501 0.0
H930 H 0.98639 0.68021 0.43443 0.0
H931 H 0.98627 0.69586 0.52088 0.0
C932 C 0.9439 0.7351 0.32487 0.0
C933 C 0.93218 0.7329 0.37944 0.0
C934 C 0.96152 0.73807 0.33752 0.0
C935 C 0.96776 0.73894 0.40498 0.0
C936 C 0.95626 0.73318 0.45938 0.0
H937 H 0.07512 0.78066 0.51967 0.0
H938 H 0.04365 0.78105 0.53228 0.0
C939 C 0.93855 0.7299 0.44661 0.0
C940 C 0.98565 0.7509 0.41768 0.0
H941 H 0.02514 0.72568 0.47548 0.0
C942 C 0.99018 0.784 0.39516 0.0
C943 C 0.99827 0.72999 0.44888 0.0
C944 C 0.99409 0.69421 0.47345 0.0
C945 C 0.00712 0.79626 0.40063 0.0
C946 C 0.01995 0.77473 0.4286 0.0
C947 C 0.01527 0.74225 0.45423 0.0
C948 C 0.03855 0.78329 0.42334 0.0
C949 C 0.01119 0.83198 0.37535 0.0
C950 C 0.04609 0.78624 0.35828 0.0
C951 C 0.06396 0.78608 0.35115 0.0
C952 C 0.07463 0.78313 0.40893 0.0
C953 C 0.06717 0.78376 0.47445 0.0
C954 C 0.0492 0.78345 0.48161 0.0
H955 H 0.99966 0.84882 0.37747 0.0
H956 H 0.02166 0.84394 0.4059 0.0
H957 H 0.01543 0.83055 0.32114 0.0
H958 H 0.03819 0.78562 0.31253 0.0
H959 H 0.06941 0.78492 0.3001 0.0
H960 H 0.55604 0.70772 0.15745 0.0
H961 H 0.52657 0.71347 0.11499 0.0
H962 H 0.5459 0.7488 0.92034 0.0
H963 H 0.57553 0.74205 0.96237 0.0
H964 H 0.52469 0.79724 0.00245 0.0
H965 H 0.49337 0.67036 0.96685 0.0
H966 H 0.50661 0.67373 0.04222 0.0
H967 H 0.51637 0.67657 0.95899 0.0
C968 C 0.554 0.7147 0.10431 0.0
C969 C 0.56799 0.72397 0.06281 0.0
C970 C 0.53716 0.71824 0.08019 0.0
C971 C 0.53406 0.73164 0.01457 0.0
C972 C 0.54804 0.73817 0.97094 0.0
H973 H 0.42434 0.77234 0.95069 0.0
H974 H 0.45441 0.7689 0.91278 0.0
C975 C 0.56494 0.73391 0.99467 0.0
C976 C 0.51657 0.74433 0.99763 0.0
H977 H 0.47471 0.71821 0.9898 0.0
C978 C 0.51378 0.78001 0.99772 0.0
C979 C 0.50238 0.72187 0.99148 0.0
C980 C 0.50478 0.68346 0.98926 0.0
C981 C 0.49704 0.79368 0.99704 0.0
C982 C 0.48281 0.7711 0.99597 0.0
C983 C 0.48565 0.73554 0.99055 0.0
C984 C 0.46509 0.78301 0.01122 0.0
C985 C 0.49465 0.83206 0.00077 0.0
C986 C 0.46116 0.79387 0.07797 0.0
C987 C 0.44406 0.79554 0.09973 0.0
C988 C 0.43063 0.78679 0.05484 0.0
C989 C 0.43446 0.77991 0.98585 0.0
C990 C 0.45163 0.77753 0.96437 0.0
H991 H 0.50626 0.84597 0.98248 0.0
H992 H 0.48336 0.84026 0.9699 0.0
H993 H 0.49231 0.83958 0.05483 0.0
H994 H 0.47132 0.79781 0.11519 0.0
H995 H 0.44142 0.8003 0.15342 0.0
H996 H 0.43833 0.24009 0.79956 0.0
H997 H 0.4691 0.24027 0.82495 0.0
H998 H 0.45822 0.22083 0.03796 0.0
H999 H 0.42718 0.22043 0.01258 0.0
H1000 H 0.47888 0.29417 0.93872 0.0
H1001 H 0.50334 0.16068 0.97351 0.0
H1002 H 0.48577 0.16956 0.91539 0.0
H1003 H 0.48244 0.17279 0.00593 0.0
C1004 C 0.44251 0.23423 0.85125 0.0
C1005 C 0.4304 0.23033 0.90415 0.0
C1006 C 0.46008 0.23465 0.86577 0.0
C1007 C 0.46587 0.23104 0.93336 0.0
C1008 C 0.45395 0.22361 0.9854 0.0
H1009 H 0.57434 0.244 0.04391 0.0
H1010 H 0.54307 0.2428 0.05926 0.0
C1011 C 0.43625 0.22301 0.97075 0.0
C1012 C 0.48394 0.24006 0.94964 0.0
H1013 H 0.52369 0.20549 0.97551 0.0
C1014 C 0.48869 0.27487 0.94765 0.0
C1015 C 0.49658 0.21486 0.96187 0.0
C1016 C 0.49193 0.17728 0.96441 0.0
C1017 C 0.50592 0.2851 0.9556 0.0
C1018 C 0.51878 0.25977 0.96418 0.0
C1019 C 0.51386 0.22499 0.96892 0.0
C1020 C 0.53747 0.26817 0.96313 0.0
C1021 C 0.51013 0.32294 0.95436 0.0
C1022 C 0.5448 0.28449 0.90578 0.0
C1023 C 0.5627 0.28588 0.89785 0.0
C1024 C 0.57349 0.27068 0.94679 0.0
C1025 C 0.56624 0.25667 0.00641 0.0
C1026 C 0.54838 0.25556 0.0147 0.0
H1027 H 0.49903 0.33857 0.97202 0.0
H1028 H 0.52145 0.32893 0.98707 0.0
H1029 H 0.5131 0.33077 0.90098 0.0
H1030 H 0.53672 0.2937 0.86446 0.0
H1031 H 0.56801 0.29578 0.85045 0.0
loop_
_geom_bond_atom_site_label_1
_geom_bond_atom_site_label_2
_geom_bond_distance
_geom_bond_site_symmetry_2
_ccdc_geom_bond_type
Zn0 O6 1.920 . S
Zn0 O12 1.898 . S
Zn0 O15 1.905 . S
Zn1 O9 1.905 . S
Zn1 O10 1.898 . S
Zn1 O18 1.920 . S
Zn2 O5 2.080 . S
Zn2 O8 2.114 . S
Zn2 O11 2.120 . S
Zn2 O13 2.120 . S
Zn2 O14 2.114 . S
Zn2 O17 2.080 . S
C3 O8 1.166 . S
C3 O9 1.182 . S
C4 O10 1.167 . S
C4 O11 1.299 . S
O5 Zn2 2.080 . S
O5 C19 1.305 . S
O6 Zn0 1.920 . S
O6 C19 1.234 . S
C7 O12 1.167 . S
C7 O13 1.299 . S
O8 Zn2 2.114 . S
O8 C3 1.166 . S
O9 Zn1 1.905 . S
O9 C3 1.182 . S
O10 Zn1 1.898 . S
O10 C4 1.167 . S
O11 Zn2 2.120 . S
O11 C4 1.299 . S
O12 Zn0 1.898 . S
O12 C7 1.167 . S
O13 Zn2 2.120 . S
O13 C7 1.299 . S
O14 Zn2 2.114 . S
O14 C16 1.166 . S
O15 Zn0 1.905 . S
O15 C16 1.182 . S
C16 O14 1.166 . S
C16 O15 1.182 . S
O17 Zn2 2.080 . S
O17 C20 1.305 . S
O18 Zn1 1.920 . S
O18 C20 1.234 . S
C19 O5 1.305 . S
C19 O6 1.234 . S
C20 O17 1.305 . S
C20 O18 1.234 . S
Zn21 O27 1.920 . S
Zn21 O33 1.898 . S
Zn21 O36 1.905 . S
Zn22 O30 1.905 . S
Zn22 O31 1.898 . S
Zn22 O39 1.920 . S
Zn23 O26 2.080 . S
Zn23 O29 2.114 . S
Zn23 O32 2.120 . S
Zn23 O34 2.120 . S
Zn23 O35 2.114 . S
Zn23 O38 2.080 . S
C24 O29 1.166 . S
C24 O30 1.182 . S
C25 O31 1.167 . S
C25 O32 1.299 . S
O26 Zn23 2.080 . S
O26 C40 1.305 . S
O27 Zn21 1.920 . S
O27 C40 1.234 . S
C28 O33 1.167 . S
C28 O34 1.299 . S
O29 Zn23 2.114 . S
O29 C24 1.166 . S
O30 Zn22 1.905 . S
O30 C24 1.182 . S
O31 Zn22 1.898 . S
O31 C25 1.167 . S
O32 Zn23 2.120 . S
O32 C25 1.299 . S
O33 Zn21 1.898 . S
O33 C28 1.167 . S
O34 Zn23 2.120 . S
O34 C28 1.299 . S
O35 Zn23 2.114 . S
O35 C37 1.166 . S
O36 Zn21 1.905 . S
O36 C37 1.182 . S
C37 O35 1.166 . S
C37 O36 1.182 . S
O38 Zn23 2.080 . S
O38 C41 1.305 . S
O39 Zn22 1.920 . S
O39 C41 1.234 . S
C40 O26 1.305 . S
C40 O27 1.234 . S
C41 O38 1.305 . S
C41 O39 1.234 . S
Zn42 O48 1.920 . S
Zn42 O54 1.898 . S
Zn42 O57 1.905 . S
Zn43 O51 1.905 . S
Zn43 O52 1.898 . S
Zn43 O60 1.920 . S
Zn44 O47 2.080 . S
Zn44 O50 2.114 . S
Zn44 O53 2.120 . S
Zn44 O55 2.120 . S
Zn44 O56 2.114 . S
Zn44 O59 2.080 . S
C45 O50 1.166 . S
C45 O51 1.182 . S
C46 O52 1.167 . S
C46 O53 1.299 . S
O47 Zn44 2.080 . S
O47 C61 1.305 . S
O48 Zn42 1.920 . S
O48 C61 1.234 . S
C49 O54 1.167 . S
C49 O55 1.299 . S
O50 Zn44 2.114 . S
O50 C45 1.166 . S
O51 Zn43 1.905 . S
O51 C45 1.182 . S
O52 Zn43 1.898 . S
O52 C46 1.167 . S
O53 Zn44 2.120 . S
O53 C46 1.299 . S
O54 Zn42 1.898 . S
O54 C49 1.167 . S
O55 Zn44 2.120 . S
O55 C49 1.299 . S
O56 Zn44 2.114 . S
O56 C58 1.166 . S
O57 Zn42 1.905 . S
O57 C58 1.182 . S
C58 O56 1.166 . S
C58 O57 1.182 . S
O59 Zn44 2.080 . S
O59 C62 1.305 . S
O60 Zn43 1.920 . S
O60 C62 1.234 . S
C61 O47 1.305 . S
C61 O48 1.234 . S
C62 O59 1.305 . S
C62 O60 1.234 . S
Zn63 O69 1.920 . S
Zn63 O75 1.898 . S
Zn63 O78 1.905 . S
Zn64 O72 1.905 . S
Zn64 O73 1.898 . S
Zn64 O81 1.920 . S
Zn65 O68 2.080 . S
Zn65 O71 2.114 . S
Zn65 O74 2.120 . S
Zn65 O76 2.120 . S
Zn65 O77 2.114 . S
Zn65 O80 2.080 . S
C66 O71 1.166 . S
C66 O72 1.182 . S
C67 O73 1.167 . S
C67 O74 1.299 . S
O68 Zn65 2.080 . S
O68 C82 1.305 . S
O69 Zn63 1.920 . S
O69 C82 1.234 . S
C70 O75 1.167 . S
C70 O76 1.299 . S
O71 Zn65 2.114 . S
O71 C66 1.166 . S
O72 Zn64 1.905 . S
O72 C66 1.182 . S
O73 Zn64 1.898 . S
O73 C67 1.167 . S
O74 Zn65 2.120 . S
O74 C67 1.299 . S
O75 Zn63 1.898 . S
O75 C70 1.167 . S
O76 Zn65 2.120 . S
O76 C70 1.299 . S
O77 Zn65 2.114 . S
O77 C79 1.166 . S
O78 Zn63 1.905 . S
O78 C79 1.182 . S
C79 O77 1.166 . S
C79 O78 1.182 . S
O80 Zn65 2.080 . S
O80 C83 1.305 . S
O81 Zn64 1.920 . S
O81 C83 1.234 . S
C82 O68 1.305 . S
C82 O69 1.234 . S
C83 O80 1.305 . S
C83 O81 1.234 . S
Zn84 O90 1.920 . S
Zn84 O96 1.898 . S
Zn84 O99 1.905 . S
Zn85 O93 1.905 1_554 S
Zn85 O94 1.898 . S
Zn85 O102 1.920 . S
Zn86 O89 2.080 . S
Zn86 O92 2.114 1_554 S
Zn86 O95 2.120 . S
Zn86 O97 2.120 . S
Zn86 O98 2.114 . S
Zn86 O101 2.080 . S
C87 O92 1.166 . S
C87 O93 1.182 . S
C88 O94 1.167 . S
C88 O95 1.299 . S
O89 Zn86 2.080 . S
O89 C103 1.305 . S
O90 Zn84 1.920 . S
O90 C103 1.234 . S
C91 O96 1.167 . S
C91 O97 1.299 . S
O92 Zn86 2.114 1_556 S
O92 C87 1.166 . S
O93 Zn85 1.905 1_556 S
O93 C87 1.182 . S
O94 Zn85 1.898 . S
O94 C88 1.167 . S
O95 Zn86 2.120 . S
O95 C88 1.299 . S
O96 Zn84 1.898 . S
O96 C91 1.167 . S
O97 Zn86 2.120 . S
O97 C91 1.299 . S
O98 Zn86 2.114 . S
O98 C100 1.166 . S
O99 Zn84 1.905 . S
O99 C100 1.182 . S
C100 O98 1.166 . S
C100 O99 1.182 . S
O101 Zn86 2.080 . S
O101 C104 1.305 . S
O102 Zn85 1.920 . S
O102 C104 1.234 . S
C103 O89 1.305 . S
C103 O90 1.234 . S
C104 O101 1.305 . S
C104 O102 1.234 . S
Zn105 O111 1.920 . S
Zn105 O117 1.898 . S
Zn105 O120 1.905 1_554 S
Zn106 O114 1.905 . S
Zn106 O115 1.898 . S
Zn106 O123 1.920 . S
Zn107 O110 2.080 . S
Zn107 O113 2.114 . S
Zn107 O116 2.120 . S
Zn107 O118 2.120 . S
Zn107 O119 2.114 1_554 S
Zn107 O122 2.080 . S
C108 O113 1.166 . S
C108 O114 1.182 . S
C109 O115 1.167 . S
C109 O116 1.299 . S
O110 Zn107 2.080 . S
O110 C124 1.305 . S
O111 Zn105 1.920 . S
O111 C124 1.234 . S
C112 O117 1.167 . S
C112 O118 1.299 . S
O113 Zn107 2.114 . S
O113 C108 1.166 . S
O114 Zn106 1.905 . S
O114 C108 1.182 . S
O115 Zn106 1.898 . S
O115 C109 1.167 . S
O116 Zn107 2.120 . S
O116 C109 1.299 . S
O117 Zn105 1.898 . S
O117 C112 1.167 . S
O118 Zn107 2.120 . S
O118 C112 1.299 . S
O119 Zn107 2.114 1_556 S
O119 C121 1.166 . S
O120 Zn105 1.905 1_556 S
O120 C121 1.182 . S
C121 O119 1.166 . S
C121 O120 1.182 . S
O122 Zn107 2.080 . S
O122 C125 1.305 . S
O123 Zn106 1.920 . S
O123 C125 1.234 . S
C124 O110 1.305 . S
C124 O111 1.234 . S
C125 O122 1.305 . S
C125 O123 1.234 . S
Zn126 O132 1.920 . S
Zn126 O138 1.898 . S
Zn126 O141 1.905 . S
Zn127 O135 1.905 1_556 S
Zn127 O136 1.898 . S
Zn127 O144 1.920 . S
Zn128 O131 2.080 . S
Zn128 O134 2.114 1_556 S
Zn128 O137 2.120 . S
Zn128 O139 2.120 . S
Zn128 O140 2.114 . S
Zn128 O143 2.080 . S
C129 O134 1.166 . S
C129 O135 1.182 . S
C130 O136 1.167 . S
C130 O137 1.299 . S
O131 Zn128 2.080 . S
O131 C145 1.305 . S
O132 Zn126 1.920 . S
O132 C145 1.234 . S
C133 O138 1.167 . S
C133 O139 1.299 . S
O134 Zn128 2.114 1_554 S
O134 C129 1.166 . S
O135 Zn127 1.905 1_554 S
O135 C129 1.182 . S
O136 Zn127 1.898 . S
O136 C130 1.167 . S
O137 Zn128 2.120 . S
O137 C130 1.299 . S
O138 Zn126 1.898 . S
O138 C133 1.167 . S
O139 Zn128 2.120 . S
O139 C133 1.299 . S
O140 Zn128 2.114 . S
O140 C142 1.166 . S
O141 Zn126 1.905 . S
O141 C142 1.182 . S
C142 O140 1.166 . S
C142 O141 1.182 . S
O143 Zn128 2.080 . S
O143 C146 1.305 . S
O144 Zn127 1.920 . S
O144 C146 1.234 . S
C145 O131 1.305 . S
C145 O132 1.234 . S
C146 O143 1.305 . S
C146 O144 1.234 . S
Zn147 O153 1.920 . S
Zn147 O159 1.898 . S
Zn147 O162 1.905 . S
Zn148 O156 1.905 1_556 S
Zn148 O157 1.898 . S
Zn148 O165 1.920 . S
Zn149 O152 2.080 . S
Zn149 O155 2.114 1_556 S
Zn149 O158 2.120 . S
Zn149 O160 2.120 . S
Zn149 O161 2.114 . S
Zn149 O164 2.080 . S
C150 O155 1.166 . S
C150 O156 1.182 . S
C151 O157 1.167 . S
C151 O158 1.299 . S
O152 Zn149 2.080 . S
O152 C166 1.305 . S
O153 Zn147 1.920 . S
O153 C166 1.234 . S
C154 O159 1.167 . S
C154 O160 1.299 . S
O155 Zn149 2.114 1_554 S
O155 C150 1.166 . S
O156 Zn148 1.905 1_554 S
O156 C150 1.182 . S
O157 Zn148 1.898 . S
O157 C151 1.167 . S
O158 Zn149 2.120 . S
O158 C151 1.299 . S
O159 Zn147 1.898 . S
O159 C154 1.167 . S
O160 Zn149 2.120 . S
O160 C154 1.299 . S
O161 Zn149 2.114 . S
O161 C163 1.166 . S
O162 Zn147 1.905 . S
O162 C163 1.182 . S
C163 O161 1.166 . S
C163 O162 1.182 . S
O164 Zn149 2.080 . S
O164 C167 1.305 . S
O165 Zn148 1.920 . S
O165 C167 1.234 . S
C166 O152 1.305 . S
C166 O153 1.234 . S
C167 O164 1.305 . S
C167 O165 1.234 . S
H168 C176 0.929 . S
H169 C178 0.930 . S
H170 C180 0.930 . S
H171 C183 0.929 . S
H172 C186 0.930 . S
H173 C188 0.960 . S
H174 C188 0.960 . S
H175 C188 0.960 . S
C176 H168 0.929 . S
C176 C177 1.377 . S
C176 C178 1.384 . S
C177 C176 1.377 . S
C177 C183 1.390 . S
C178 H169 0.930 . S
C178 C176 1.384 . S
C178 C179 1.372 . S
C179 C178 1.372 . S
C179 C180 1.400 . S
C179 C184 1.490 . S
C180 H170 0.930 . S
C180 C179 1.400 . S
C180 C183 1.386 . S
H181 C197 0.930 . S
H182 C198 0.931 . S
C183 H171 0.929 . S
C183 C177 1.390 . S
C183 C180 1.386 . S
C184 C179 1.490 . S
C184 C186 1.395 . S
C184 C187 1.403 . S
H185 C191 0.930 . S
C186 H172 0.930 . S
C186 C184 1.395 . S
C186 C189 1.403 . S
C187 C184 1.403 . S
C187 C188 1.524 . S
C187 C191 1.400 . S
C188 H173 0.960 . S
C188 H174 0.960 . S
C188 H175 0.960 . S
C188 C187 1.524 . S
C189 C186 1.403 . S
C189 C190 1.392 . S
C189 C193 1.495 . S
C190 C189 1.392 . S
C190 C191 1.385 . S
C190 C192 1.478 . S
C191 H185 0.930 . S
C191 C187 1.400 . S
C191 C190 1.385 . S
C192 C190 1.478 . S
C192 C194 1.381 . S
C192 C198 1.383 . S
C193 C189 1.495 . S
C193 H199 0.959 . S
C193 H200 0.961 . S
C193 H201 0.960 . S
C194 C192 1.381 . S
C194 C195 1.394 . S
C194 H202 0.930 . S
C195 C194 1.394 . S
C195 C196 1.383 . S
C195 H203 0.929 . S
C196 C195 1.383 . S
C196 C197 1.377 . S
C197 H181 0.930 . S
C197 C196 1.377 . S
C197 C198 1.379 . S
C198 H182 0.931 . S
C198 C192 1.383 . S
C198 C197 1.379 . S
H199 C193 0.959 . S
H200 C193 0.961 . S
H201 C193 0.960 . S
H202 C194 0.930 . S
H203 C195 0.929 . S
H204 C212 0.929 . S
H205 C214 0.930 . S
H206 C216 0.930 . S
H207 C219 0.929 . S
H208 C222 0.930 . S
H209 C224 0.960 . S
H210 C224 0.960 . S
H211 C224 0.960 . S
C212 H204 0.929 . S
C212 C213 1.377 . S
C212 C214 1.384 . S
C213 C212 1.377 . S
C213 C219 1.390 . S
C214 H205 0.930 . S
C214 C212 1.384 . S
C214 C215 1.372 . S
C215 C214 1.372 . S
C215 C216 1.400 . S
C215 C220 1.490 . S
C216 H206 0.930 . S
C216 C215 1.400 . S
C216 C219 1.386 . S
H217 C233 0.930 . S
H218 C234 0.931 . S
C219 H207 0.929 . S
C219 C213 1.390 . S
C219 C216 1.386 . S
C220 C215 1.490 . S
C220 C222 1.395 . S
C220 C223 1.403 . S
H221 C227 0.930 . S
C222 H208 0.930 . S
C222 C220 1.395 . S
C222 C225 1.403 . S
C223 C220 1.403 . S
C223 C224 1.524 . S
C223 C227 1.400 . S
C224 H209 0.960 . S
C224 H210 0.960 . S
C224 H211 0.960 . S
C224 C223 1.524 . S
C225 C222 1.403 . S
C225 C226 1.392 . S
C225 C229 1.495 . S
C226 C225 1.392 . S
C226 C227 1.385 . S
C226 C228 1.478 . S
C227 H221 0.930 . S
C227 C223 1.400 . S
C227 C226 1.385 . S
C228 C226 1.478 . S
C228 C230 1.381 . S
C228 C234 1.383 . S
C229 C225 1.495 . S
C229 H235 0.959 . S
C229 H236 0.961 . S
C229 H237 0.960 . S
C230 C228 1.381 . S
C230 C231 1.394 . S
C230 H238 0.930 . S
C231 C230 1.394 . S
C231 C232 1.383 . S
C231 H239 0.929 . S
C232 C231 1.383 . S
C232 C233 1.377 . S
C233 H217 0.930 . S
C233 C232 1.377 . S
C233 C234 1.379 . S
C234 H218 0.931 . S
C234 C228 1.383 . S
C234 C233 1.379 . S
H235 C229 0.959 . S
H236 C229 0.961 . S
H237 C229 0.960 . S
H238 C230 0.930 . S
H239 C231 0.929 . S
H240 C248 0.929 . S
H241 C250 0.930 . S
H242 C252 0.930 . S
H243 C255 0.929 . S
H244 C258 0.930 . S
H245 C260 0.960 . S
H246 C260 0.960 . S
H247 C260 0.960 . S
C248 H240 0.929 . S
C248 C249 1.377 . S
C248 C250 1.384 . S
C249 C248 1.377 . S
C249 C255 1.390 . S
C250 H241 0.930 . S
C250 C248 1.384 . S
C250 C251 1.372 . S
C251 C250 1.372 . S
C251 C252 1.400 . S
C251 C256 1.490 . S
C252 H242 0.930 . S
C252 C251 1.400 . S
C252 C255 1.386 . S
H253 C269 0.930 . S
H254 C270 0.931 . S
C255 H243 0.929 . S
C255 C249 1.390 . S
C255 C252 1.386 . S
C256 C251 1.490 . S
C256 C258 1.395 . S
C256 C259 1.403 . S
H257 C263 0.930 . S
C258 H244 0.930 . S
C258 C256 1.395 . S
C258 C261 1.403 . S
C259 C256 1.403 . S
C259 C260 1.524 . S
C259 C263 1.400 . S
C260 H245 0.960 . S
C260 H246 0.960 . S
C260 H247 0.960 . S
C260 C259 1.524 . S
C261 C258 1.403 . S
C261 C262 1.392 . S
C261 C265 1.495 . S
C262 C261 1.392 . S
C262 C263 1.385 . S
C262 C264 1.478 . S
C263 H257 0.930 . S
C263 C259 1.400 . S
C263 C262 1.385 . S
C264 C262 1.478 . S
C264 C266 1.381 . S
C264 C270 1.383 . S
C265 C261 1.495 . S
C265 H271 0.959 . S
C265 H272 0.961 . S
C265 H273 0.960 . S
C266 C264 1.381 . S
C266 C267 1.394 . S
C266 H274 0.930 . S
C267 C266 1.394 . S
C267 C268 1.383 . S
C267 H275 0.929 . S
C268 C267 1.383 . S
C268 C269 1.377 . S
C269 H253 0.930 . S
C269 C268 1.377 . S
C269 C270 1.379 . S
C270 H254 0.931 . S
C270 C264 1.383 . S
C270 C269 1.379 . S
H271 C265 0.959 . S
H272 C265 0.961 . S
H273 C265 0.960 . S
H274 C266 0.930 . S
H275 C267 0.929 . S
H276 C284 0.929 . S
H277 C286 0.930 . S
H278 C288 0.930 . S
H279 C291 0.929 . S
H280 C294 0.930 . S
H281 C296 0.960 . S
H282 C296 0.960 . S
H283 C296 0.960 . S
C284 H276 0.929 . S
C284 C285 1.377 . S
C284 C286 1.384 . S
C285 C284 1.377 . S
C285 C291 1.390 . S
C286 H277 0.930 . S
C286 C284 1.384 . S
C286 C287 1.372 . S
C287 C286 1.372 . S
C287 C288 1.400 . S
C287 C292 1.490 . S
C288 H278 0.930 . S
C288 C287 1.400 . S
C288 C291 1.386 . S
H289 C305 0.930 . S
H290 C306 0.931 . S
C291 H279 0.929 . S
C291 C285 1.390 . S
C291 C288 1.386 . S
C292 C287 1.490 . S
C292 C294 1.395 . S
C292 C295 1.403 . S
H293 C299 0.930 . S
C294 H280 0.930 . S
C294 C292 1.395 . S
C294 C297 1.403 . S
C295 C292 1.403 . S
C295 C296 1.524 . S
C295 C299 1.400 . S
C296 H281 0.960 . S
C296 H282 0.960 . S
C296 H283 0.960 . S
C296 C295 1.524 . S
C297 C294 1.403 . S
C297 C298 1.392 . S
C297 C301 1.495 . S
C298 C297 1.392 . S
C298 C299 1.385 . S
C298 C300 1.478 . S
C299 H293 0.930 . S
C299 C295 1.400 . S
C299 C298 1.385 . S
C300 C298 1.478 . S
C300 C302 1.381 . S
C300 C306 1.383 . S
C301 C297 1.495 . S
C301 H307 0.959 . S
C301 H308 0.961 . S
C301 H309 0.960 . S
C302 C300 1.381 . S
C302 C303 1.394 . S
C302 H310 0.930 . S
C303 C302 1.394 . S
C303 C304 1.383 . S
C303 H311 0.929 . S
C304 C303 1.383 . S
C304 C305 1.377 . S
C305 H289 0.930 . S
C305 C304 1.377 . S
C305 C306 1.379 . S
C306 H290 0.931 . S
C306 C300 1.383 . S
C306 C305 1.379 . S
H307 C301 0.959 . S
H308 C301 0.961 . S
H309 C301 0.960 . S
H310 C302 0.930 . S
H311 C303 0.929 . S
H312 C320 0.929 . S
H313 C322 0.930 . S
H314 C324 0.930 . S
H315 C327 0.929 . S
H316 C330 0.930 . S
H317 C332 0.960 1_545 S
H318 C332 0.960 . S
H319 C332 0.960 . S
C320 H312 0.929 . S
C320 C321 1.377 . S
C320 C322 1.384 . S
C321 C320 1.377 . S
C321 C327 1.390 . S
C322 H313 0.930 . S
C322 C320 1.384 . S
C322 C323 1.372 . S
C323 C322 1.372 . S
C323 C324 1.400 . S
C323 C328 1.490 . S
C324 H314 0.930 . S
C324 C323 1.400 . S
C324 C327 1.386 . S
H325 C341 0.930 . S
H326 C342 0.931 . S
C327 H315 0.929 . S
C327 C321 1.390 . S
C327 C324 1.386 . S
C328 C323 1.490 . S
C328 C330 1.395 . S
C328 C331 1.403 . S
H329 C335 0.930 . S
C330 H316 0.930 . S
C330 C328 1.395 . S
C330 C333 1.403 1_565 S
C331 C328 1.403 . S
C331 C332 1.524 . S
C331 C335 1.400 1_565 S
C332 H317 0.960 1_565 S
C332 H318 0.960 . S
C332 H319 0.960 . S
C332 C331 1.524 . S
C333 C330 1.403 1_545 S
C333 C334 1.392 . S
C333 C337 1.495 . S
C334 C333 1.392 . S
C334 C335 1.385 . S
C334 C336 1.478 . S
C335 H329 0.930 . S
C335 C331 1.400 1_545 S
C335 C334 1.385 . S
C336 C334 1.478 . S
C336 C338 1.381 . S
C336 C342 1.383 . S
C337 C333 1.495 . S
C337 H343 0.959 1_545 S
C337 H344 0.961 . S
C337 H345 0.960 . S
C338 C336 1.381 . S
C338 C339 1.394 . S
C338 H346 0.930 . S
C339 C338 1.394 . S
C339 C340 1.383 . S
C339 H347 0.929 . S
C340 C339 1.383 . S
C340 C341 1.377 . S
C341 H325 0.930 . S
C341 C340 1.377 . S
C341 C342 1.379 . S
C342 H326 0.931 . S
C342 C336 1.383 . S
C342 C341 1.379 . S
H343 C337 0.959 1_565 S
H344 C337 0.961 . S
H345 C337 0.960 . S
H346 C338 0.930 . S
H347 C339 0.929 . S
H348 C356 0.929 . S
H349 C358 0.930 . S
H350 C360 0.930 . S
H351 C363 0.929 . S
H352 C366 0.930 . S
H353 C368 0.960 . S
H354 C368 0.960 . S
H355 C368 0.960 . S
C356 H348 0.929 . S
C356 C357 1.377 . S
C356 C358 1.384 . S
C357 C356 1.377 . S
C357 C363 1.390 . S
C358 H349 0.930 . S
C358 C356 1.384 . S
C358 C359 1.372 . S
C359 C358 1.372 . S
C359 C360 1.400 . S
C359 C364 1.490 . S
C360 H350 0.930 . S
C360 C359 1.400 . S
C360 C363 1.386 . S
H361 C377 0.930 . S
H362 C378 0.931 . S
C363 H351 0.929 . S
C363 C357 1.390 . S
C363 C360 1.386 . S
C364 C359 1.490 . S
C364 C366 1.395 . S
C364 C367 1.403 . S
H365 C371 0.930 . S
C366 H352 0.930 . S
C366 C364 1.395 . S
C366 C369 1.403 . S
C367 C364 1.403 . S
C367 C368 1.524 . S
C367 C371 1.400 . S
C368 H353 0.960 . S
C368 H354 0.960 . S
C368 H355 0.960 . S
C368 C367 1.524 . S
C369 C366 1.403 . S
C369 C370 1.392 . S
C369 C373 1.495 . S
C370 C369 1.392 . S
C370 C371 1.385 . S
C370 C372 1.478 . S
C371 H365 0.930 . S
C371 C367 1.400 . S
C371 C370 1.385 . S
C372 C370 1.478 . S
C372 C374 1.381 . S
C372 C378 1.383 . S
C373 C369 1.495 . S
C373 H379 0.959 . S
C373 H380 0.961 . S
C373 H381 0.960 . S
C374 C372 1.381 . S
C374 C375 1.394 . S
C374 H382 0.930 . S
C375 C374 1.394 . S
C375 C376 1.383 . S
C375 H383 0.929 . S
C376 C375 1.383 . S
C376 C377 1.377 . S
C377 H361 0.930 . S
C377 C376 1.377 . S
C377 C378 1.379 . S
C378 H362 0.931 . S
C378 C372 1.383 . S
C378 C377 1.379 . S
H379 C373 0.959 . S
H380 C373 0.961 . S
H381 C373 0.960 . S
H382 C374 0.930 . S
H383 C375 0.929 . S
H384 C392 0.929 . S
H385 C394 0.930 . S
H386 C396 0.930 . S
H387 C399 0.929 . S
H388 C402 0.930 . S
H389 C404 0.960 1_545 S
H390 C404 0.960 . S
H391 C404 0.960 . S
C392 H384 0.929 . S
C392 C393 1.377 . S
C392 C394 1.384 . S
C393 C392 1.377 . S
C393 C399 1.390 . S
C394 H385 0.930 . S
C394 C392 1.384 . S
C394 C395 1.372 . S
C395 C394 1.372 . S
C395 C396 1.400 . S
C395 C400 1.490 . S
C396 H386 0.930 . S
C396 C395 1.400 . S
C396 C399 1.386 . S
H397 C413 0.930 . S
H398 C414 0.931 . S
C399 H387 0.929 . S
C399 C393 1.390 . S
C399 C396 1.386 . S
C400 C395 1.490 . S
C400 C402 1.395 . S
C400 C403 1.403 . S
H401 C407 0.930 . S
C402 H388 0.930 . S
C402 C400 1.395 . S
C402 C405 1.403 1_565 S
C403 C400 1.403 . S
C403 C404 1.524 . S
C403 C407 1.400 1_565 S
C404 H389 0.960 1_565 S
C404 H390 0.960 . S
C404 H391 0.960 . S
C404 C403 1.524 . S
C405 C402 1.403 1_545 S
C405 C406 1.392 . S
C405 C409 1.495 . S
C406 C405 1.392 . S
C406 C407 1.385 . S
C406 C408 1.478 . S
C407 H401 0.930 . S
C407 C403 1.400 1_545 S
C407 C406 1.385 . S
C408 C406 1.478 . S
C408 C410 1.381 . S
C408 C414 1.383 . S
C409 C405 1.495 . S
C409 H415 0.959 1_545 S
C409 H416 0.961 . S
C409 H417 0.960 . S
C410 C408 1.381 . S
C410 C411 1.394 . S
C410 H418 0.930 . S
C411 C410 1.394 . S
C411 C412 1.383 . S
C411 H419 0.929 . S
C412 C411 1.383 . S
C412 C413 1.377 . S
C413 H397 0.930 . S
C413 C412 1.377 . S
C413 C414 1.379 . S
C414 H398 0.931 . S
C414 C408 1.383 . S
C414 C413 1.379 . S
H415 C409 0.959 1_565 S
H416 C409 0.961 . S
H417 C409 0.960 . S
H418 C410 0.930 . S
H419 C411 0.929 . S
H420 C428 0.929 . S
H421 C430 0.930 . S
H422 C432 0.930 . S
H423 C435 0.929 . S
H424 C438 0.930 . S
H425 C440 0.960 . S
H426 C440 0.960 . S
H427 C440 0.960 . S
C428 H420 0.929 . S
C428 C429 1.377 . S
C428 C430 1.384 . S
C429 C428 1.377 . S
C429 C435 1.390 . S
C430 H421 0.930 . S
C430 C428 1.384 . S
C430 C431 1.372 . S
C431 C430 1.372 . S
C431 C432 1.400 . S
C431 C436 1.490 . S
C432 H422 0.930 . S
C432 C431 1.400 . S
C432 C435 1.386 . S
H433 C449 0.930 . S
H434 C450 0.931 . S
C435 H423 0.929 . S
C435 C429 1.390 . S
C435 C432 1.386 . S
C436 C431 1.490 . S
C436 C438 1.395 . S
C436 C439 1.403 . S
H437 C443 0.930 . S
C438 H424 0.930 . S
C438 C436 1.395 . S
C438 C441 1.403 . S
C439 C436 1.403 . S
C439 C440 1.524 . S
C439 C443 1.400 . S
C440 H425 0.960 . S
C440 H426 0.960 . S
C440 H427 0.960 . S
C440 C439 1.524 . S
C441 C438 1.403 . S
C441 C442 1.392 . S
C441 C445 1.495 . S
C442 C441 1.392 . S
C442 C443 1.385 . S
C442 C444 1.478 . S
C443 H437 0.930 . S
C443 C439 1.400 . S
C443 C442 1.385 . S
C444 C442 1.478 . S
C444 C446 1.381 . S
C444 C450 1.383 . S
C445 C441 1.495 . S
C445 H451 0.959 . S
C445 H452 0.961 . S
C445 H453 0.960 . S
C446 C444 1.381 . S
C446 C447 1.394 . S
C446 H454 0.930 . S
C447 C446 1.394 . S
C447 C448 1.383 . S
C447 H455 0.929 . S
C448 C447 1.383 . S
C448 C449 1.377 . S
C449 H433 0.930 . S
C449 C448 1.377 . S
C449 C450 1.379 . S
C450 H434 0.931 . S
C450 C444 1.383 . S
C450 C449 1.379 . S
H451 C445 0.959 . S
H452 C445 0.961 . S
H453 C445 0.960 . S
H454 C446 0.930 . S
H455 C447 0.929 . S
H456 C464 0.929 . S
H457 C466 0.930 . S
H458 C468 0.930 . S
H459 C471 0.929 . S
H460 C474 0.930 . S
H461 C476 0.960 . S
H462 C476 0.960 . S
H463 C476 0.960 . S
C464 H456 0.929 . S
C464 C465 1.377 . S
C464 C466 1.384 . S
C465 C464 1.377 . S
C465 C471 1.390 . S
C466 H457 0.930 . S
C466 C464 1.384 . S
C466 C467 1.372 . S
C467 C466 1.372 . S
C467 C468 1.400 . S
C467 C472 1.490 . S
C468 H458 0.930 . S
C468 C467 1.400 . S
C468 C471 1.386 . S
H469 C485 0.930 . S
H470 C486 0.931 . S
C471 H459 0.929 . S
C471 C465 1.390 . S
C471 C468 1.386 . S
C472 C467 1.490 . S
C472 C474 1.395 . S
C472 C475 1.403 1_554 S
H473 C479 0.930 . S
C474 H460 0.930 . S
C474 C472 1.395 . S
C474 C477 1.403 . S
C475 C472 1.403 1_556 S
C475 C476 1.524 . S
C475 C479 1.400 . S
C476 H461 0.960 . S
C476 H462 0.960 . S
C476 H463 0.960 . S
C476 C475 1.524 . S
C477 C474 1.403 . S
C477 C478 1.392 1_554 S
C477 C481 1.495 . S
C478 C477 1.392 1_556 S
C478 C479 1.385 . S
C478 C480 1.478 . S
C479 H473 0.930 . S
C479 C475 1.400 . S
C479 C478 1.385 . S
C480 C478 1.478 . S
C480 C482 1.381 . S
C480 C486 1.383 . S
C481 C477 1.495 . S
C481 H487 0.959 . S
C481 H488 0.961 . S
C481 H489 0.960 . S
C482 C480 1.381 . S
C482 C483 1.394 . S
C482 H490 0.930 . S
C483 C482 1.394 . S
C483 C484 1.383 . S
C483 H491 0.929 . S
C484 C483 1.383 . S
C484 C485 1.377 . S
C485 H469 0.930 . S
C485 C484 1.377 . S
C485 C486 1.379 . S
C486 H470 0.931 . S
C486 C480 1.383 . S
C486 C485 1.379 . S
H487 C481 0.959 . S
H488 C481 0.961 . S
H489 C481 0.960 . S
H490 C482 0.930 . S
H491 C483 0.929 . S
H492 C500 0.929 . S
H493 C502 0.930 1_556 S
H494 C504 0.930 . S
H495 C507 0.929 . S
H496 C510 0.930 . S
H497 C512 0.960 . S
H498 C512 0.960 . S
H499 C512 0.960 . S
C500 H492 0.929 . S
C500 C501 1.377 . S
C500 C502 1.384 . S
C501 C500 1.377 . S
C501 C507 1.390 . S
C502 H493 0.930 1_554 S
C502 C500 1.384 . S
C502 C503 1.372 . S
C503 C502 1.372 . S
C503 C504 1.400 . S
C503 C508 1.490 . S
C504 H494 0.930 . S
C504 C503 1.400 . S
C504 C507 1.386 . S
H505 C521 0.930 . S
H506 C522 0.931 1_554 S
C507 H495 0.929 . S
C507 C501 1.390 . S
C507 C504 1.386 . S
C508 C503 1.490 . S
C508 C510 1.395 . S
C508 C511 1.403 1_554 S
H509 C515 0.930 . S
C510 H496 0.930 . S
C510 C508 1.395 . S
C510 C513 1.403 1_565 S
C511 C508 1.403 1_556 S
C511 C512 1.524 . S
C511 C515 1.400 1_565 S
C512 H497 0.960 . S
C512 H498 0.960 . S
C512 H499 0.960 . S
C512 C511 1.524 . S
C513 C510 1.403 1_545 S
C513 C514 1.392 1_554 S
C513 C517 1.495 . S
C514 C513 1.392 1_556 S
C514 C515 1.385 . S
C514 C516 1.478 . S
C515 H509 0.930 . S
C515 C511 1.400 1_545 S
C515 C514 1.385 . S
C516 C514 1.478 . S
C516 C518 1.381 . S
C516 C522 1.383 . S
C517 C513 1.495 . S
C517 H523 0.959 . S
C517 H524 0.961 . S
C517 H525 0.960 . S
C518 C516 1.381 . S
C518 C519 1.394 . S
C518 H526 0.930 . S
C519 C518 1.394 . S
C519 C520 1.383 . S
C519 H527 0.929 . S
C520 C519 1.383 . S
C520 C521 1.377 . S
C521 H505 0.930 . S
C521 C520 1.377 . S
C521 C522 1.379 . S
C522 H506 0.931 1_556 S
C522 C516 1.383 . S
C522 C521 1.379 . S
H523 C517 0.959 . S
H524 C517 0.961 . S
H525 C517 0.960 . S
H526 C518 0.930 . S
H527 C519 0.929 . S
H528 C536 0.929 . S
H529 C538 0.930 . S
H530 C540 0.930 . S
H531 C543 0.929 1_554 S
H532 C546 0.930 . S
H533 C548 0.960 . S
H534 C548 0.960 . S
H535 C548 0.960 . S
C536 H528 0.929 . S
C536 C537 1.377 . S
C536 C538 1.384 . S
C537 C536 1.377 . S
C537 C543 1.390 . S
C538 H529 0.930 . S
C538 C536 1.384 . S
C538 C539 1.372 . S
C539 C538 1.372 . S
C539 C540 1.400 1_556 S
C539 C544 1.490 . S
C540 H530 0.930 . S
C540 C539 1.400 1_554 S
C540 C543 1.386 1_554 S
H541 C557 0.930 . S
H542 C558 0.931 . S
C543 H531 0.929 1_556 S
C543 C537 1.390 . S
C543 C540 1.386 1_556 S
C544 C539 1.490 . S
C544 C546 1.395 . S
C544 C547 1.403 1_556 S
H545 C551 0.930 . S
C546 H532 0.930 . S
C546 C544 1.395 . S
C546 C549 1.403 . S
C547 C544 1.403 1_554 S
C547 C548 1.524 . S
C547 C551 1.400 . S
C548 H533 0.960 . S
C548 H534 0.960 . S
C548 H535 0.960 . S
C548 C547 1.524 . S
C549 C546 1.403 . S
C549 C550 1.392 1_556 S
C549 C553 1.495 . S
C550 C549 1.392 1_554 S
C550 C551 1.385 . S
C550 C552 1.478 . S
C551 H545 0.930 . S
C551 C547 1.400 . S
C551 C550 1.385 . S
C552 C550 1.478 . S
C552 C554 1.381 1_554 S
C552 C558 1.383 . S
C553 C549 1.495 . S
C553 H559 0.959 . S
C553 H560 0.961 . S
C553 H561 0.960 . S
C554 C552 1.381 1_556 S
C554 C555 1.394 1_556 S
C554 H562 0.930 . S
C555 C554 1.394 1_554 S
C555 C556 1.383 . S
C555 H563 0.929 1_554 S
C556 C555 1.383 . S
C556 C557 1.377 . S
C557 H541 0.930 . S
C557 C556 1.377 . S
C557 C558 1.379 . S
C558 H542 0.931 . S
C558 C552 1.383 . S
C558 C557 1.379 . S
H559 C553 0.959 . S
H560 C553 0.961 . S
H561 C553 0.960 . S
H562 C554 0.930 . S
H563 C555 0.929 1_556 S
H564 C572 0.929 . S
H565 C574 0.930 . S
H566 C576 0.930 . S
H567 C579 0.929 . S
H568 C582 0.930 . S
H569 C584 0.960 . S
H570 C584 0.960 . S
H571 C584 0.960 . S
C572 H564 0.929 . S
C572 C573 1.378 1_554 S
C572 C574 1.384 . S
C573 C572 1.378 1_556 S
C573 C579 1.390 . S
C574 H565 0.930 . S
C574 C572 1.384 . S
C574 C575 1.372 1_554 S
C575 C574 1.372 1_556 S
C575 C576 1.400 . S
C575 C580 1.490 . S
C576 H566 0.930 . S
C576 C575 1.400 . S
C576 C579 1.386 . S
H577 C593 0.930 1_556 S
H578 C594 0.931 . S
C579 H567 0.929 . S
C579 C573 1.390 . S
C579 C576 1.386 . S
C580 C575 1.490 . S
C580 C582 1.395 1_556 S
C580 C583 1.403 . S
H581 C587 0.930 . S
C582 H568 0.930 . S
C582 C580 1.395 1_554 S
C582 C585 1.403 1_545 S
C583 C580 1.403 . S
C583 C584 1.524 . S
C583 C587 1.400 1_545 S
C584 H569 0.960 . S
C584 H570 0.960 . S
C584 H571 0.960 . S
C584 C583 1.524 . S
C585 C582 1.403 1_565 S
C585 C586 1.392 . S
C585 C589 1.495 . S
C586 C585 1.392 . S
C586 C587 1.385 1_554 S
C586 C588 1.478 . S
C587 H581 0.930 . S
C587 C583 1.400 1_565 S
C587 C586 1.385 1_556 S
C588 C586 1.478 . S
C588 C590 1.381 . S
C588 C594 1.383 1_554 S
C589 C585 1.495 . S
C589 H595 0.959 . S
C589 H596 0.961 . S
C589 H597 0.960 . S
C590 C588 1.381 . S
C590 C591 1.394 . S
C590 H598 0.930 . S
C591 C590 1.394 . S
C591 C592 1.383 . S
C591 H599 0.929 . S
C592 C591 1.383 . S
C592 C593 1.377 . S
C593 H577 0.930 1_554 S
C593 C592 1.377 . S
C593 C594 1.379 1_554 S
C594 H578 0.931 . S
C594 C588 1.383 1_556 S
C594 C593 1.379 1_556 S
H595 C589 0.959 . S
H596 C589 0.961 . S
H597 C589 0.960 . S
H598 C590 0.930 . S
H599 C591 0.929 . S
H600 C608 0.929 . S
H601 C610 0.930 . S
H602 C612 0.930 . S
H603 C615 0.929 . S
H604 C618 0.930 . S
H605 C620 0.960 . S
H606 C620 0.960 . S
H607 C620 0.960 . S
C608 H600 0.929 . S
C608 C609 1.377 . S
C608 C610 1.384 . S
C609 C608 1.377 . S
C609 C615 1.390 . S
C610 H601 0.930 . S
C610 C608 1.384 . S
C610 C611 1.372 . S
C611 C610 1.372 . S
C611 C612 1.400 . S
C611 C616 1.490 . S
C612 H602 0.930 . S
C612 C611 1.400 . S
C612 C615 1.386 . S
H613 C629 0.930 . S
H614 C630 0.931 . S
C615 H603 0.929 . S
C615 C609 1.390 . S
C615 C612 1.386 . S
C616 C611 1.490 . S
C616 C618 1.395 . S
C616 C619 1.403 . S
H617 C623 0.930 . S
C618 H604 0.930 . S
C618 C616 1.395 . S
C618 C621 1.403 . S
C619 C616 1.403 . S
C619 C620 1.524 . S
C619 C623 1.400 . S
C620 H605 0.960 . S
C620 H606 0.960 . S
C620 H607 0.960 . S
C620 C619 1.524 . S
C621 C618 1.403 . S
C621 C622 1.392 . S
C621 C625 1.495 . S
C622 C621 1.392 . S
C622 C623 1.385 . S
C622 C624 1.478 1_554 S
C623 H617 0.930 . S
C623 C619 1.400 . S
C623 C622 1.385 . S
C624 C622 1.478 1_556 S
C624 C626 1.381 . S
C624 C630 1.383 . S
C625 C621 1.495 . S
C625 H631 0.959 . S
C625 H632 0.961 . S
C625 H633 0.960 . S
C626 C624 1.381 . S
C626 C627 1.394 . S
C626 H634 0.930 . S
C627 C626 1.394 . S
C627 C628 1.383 . S
C627 H635 0.929 . S
C628 C627 1.383 . S
C628 C629 1.377 . S
C629 H613 0.930 . S
C629 C628 1.377 . S
C629 C630 1.379 . S
C630 H614 0.931 . S
C630 C624 1.383 . S
C630 C629 1.379 . S
H631 C625 0.959 . S
H632 C625 0.961 . S
H633 C625 0.960 . S
H634 C626 0.930 . S
H635 C627 0.929 . S
H636 C644 0.929 . S
H637 C646 0.930 . S
H638 C648 0.930 . S
H639 C651 0.929 . S
H640 C654 0.930 . S
H641 C656 0.960 . S
H642 C656 0.960 . S
H643 C656 0.960 . S
C644 H636 0.929 . S
C644 C645 1.377 . S
C644 C646 1.384 . S
C645 C644 1.377 . S
C645 C651 1.390 . S
C646 H637 0.930 . S
C646 C644 1.384 . S
C646 C647 1.372 . S
C647 C646 1.372 . S
C647 C648 1.400 . S
C647 C652 1.490 . S
C648 H638 0.930 . S
C648 C647 1.400 . S
C648 C651 1.386 . S
H649 C665 0.930 . S
H650 C666 0.931 . S
C651 H639 0.929 . S
C651 C645 1.390 . S
C651 C648 1.386 . S
C652 C647 1.490 . S
C652 C654 1.395 . S
C652 C655 1.403 . S
H653 C659 0.930 . S
C654 H640 0.930 . S
C654 C652 1.395 . S
C654 C657 1.403 . S
C655 C652 1.403 . S
C655 C656 1.524 . S
C655 C659 1.400 . S
C656 H641 0.960 . S
C656 H642 0.960 . S
C656 H643 0.960 . S
C656 C655 1.524 . S
C657 C654 1.403 . S
C657 C658 1.392 . S
C657 C661 1.495 . S
C658 C657 1.392 . S
C658 C659 1.385 . S
C658 C660 1.478 1_554 S
C659 H653 0.930 . S
C659 C655 1.400 . S
C659 C658 1.385 . S
C660 C658 1.478 1_556 S
C660 C662 1.381 . S
C660 C666 1.383 . S
C661 C657 1.495 . S
C661 H667 0.959 . S
C661 H668 0.961 . S
C661 H669 0.960 . S
C662 C660 1.381 . S
C662 C663 1.394 . S
C662 H670 0.930 . S
C663 C662 1.394 . S
C663 C664 1.383 . S
C663 H671 0.929 . S
C664 C663 1.383 . S
C664 C665 1.377 . S
C665 H649 0.930 . S
C665 C664 1.377 . S
C665 C666 1.379 . S
C666 H650 0.931 . S
C666 C660 1.383 . S
C666 C665 1.379 . S
H667 C661 0.959 . S
H668 C661 0.961 . S
H669 C661 0.960 . S
H670 C662 0.930 . S
H671 C663 0.929 . S
H672 C680 0.929 . S
H673 C682 0.930 . S
H674 C684 0.930 . S
H675 C687 0.929 . S
H676 C690 0.930 . S
H677 C692 0.960 . S
H678 C692 0.960 . S
H679 C692 0.960 . S
C680 H672 0.929 . S
C680 C681 1.377 . S
C680 C682 1.384 . S
C681 C680 1.377 . S
C681 C687 1.390 . S
C682 H673 0.930 . S
C682 C680 1.384 . S
C682 C683 1.372 . S
C683 C682 1.372 . S
C683 C684 1.400 . S
C683 C688 1.490 1_554 S
C684 H674 0.930 . S
C684 C683 1.400 . S
C684 C687 1.386 . S
H685 C701 0.930 . S
H686 C702 0.931 . S
C687 H675 0.929 . S
C687 C681 1.390 . S
C687 C684 1.386 . S
C688 C683 1.490 1_556 S
C688 C690 1.395 . S
C688 C691 1.403 . S
H689 C695 0.930 . S
C690 H676 0.930 . S
C690 C688 1.395 . S
C690 C693 1.403 . S
C691 C688 1.403 . S
C691 C692 1.524 . S
C691 C695 1.400 . S
C692 H677 0.960 . S
C692 H678 0.960 . S
C692 H679 0.960 . S
C692 C691 1.524 . S
C693 C690 1.403 . S
C693 C694 1.392 . S
C693 C697 1.495 . S
C694 C693 1.392 . S
C694 C695 1.385 . S
C694 C696 1.478 . S
C695 H689 0.930 . S
C695 C691 1.400 . S
C695 C694 1.385 . S
C696 C694 1.478 . S
C696 C698 1.381 . S
C696 C702 1.383 . S
C697 C693 1.495 . S
C697 H703 0.959 . S
C697 H704 0.961 . S
C697 H705 0.960 . S
C698 C696 1.381 . S
C698 C699 1.394 . S
C698 H706 0.930 . S
C699 C698 1.394 . S
C699 C700 1.383 . S
C699 H707 0.929 . S
C700 C699 1.383 . S
C700 C701 1.377 . S
C701 H685 0.930 . S
C701 C700 1.377 . S
C701 C702 1.379 . S
C702 H686 0.931 . S
C702 C696 1.383 . S
C702 C701 1.379 . S
H703 C697 0.959 . S
H704 C697 0.961 . S
H705 C697 0.960 . S
H706 C698 0.930 . S
H707 C699 0.929 . S
H708 C716 0.929 . S
H709 C718 0.930 . S
H710 C720 0.930 . S
H711 C723 0.929 . S
H712 C726 0.930 . S
H713 C728 0.960 . S
H714 C728 0.960 . S
H715 C728 0.960 . S
C716 H708 0.929 . S
C716 C717 1.377 . S
C716 C718 1.384 . S
C717 C716 1.377 . S
C717 C723 1.390 . S
C718 H709 0.930 . S
C718 C716 1.384 . S
C718 C719 1.372 . S
C719 C718 1.372 . S
C719 C720 1.400 . S
C719 C724 1.490 . S
C720 H710 0.930 . S
C720 C719 1.400 . S
C720 C723 1.386 . S
H721 C737 0.930 . S
H722 C738 0.931 . S
C723 H711 0.929 . S
C723 C717 1.390 . S
C723 C720 1.386 . S
C724 C719 1.490 . S
C724 C726 1.395 . S
C724 C727 1.403 . S
H725 C731 0.930 . S
C726 H712 0.930 . S
C726 C724 1.395 . S
C726 C729 1.403 . S
C727 C724 1.403 . S
C727 C728 1.524 . S
C727 C731 1.400 . S
C728 H713 0.960 . S
C728 H714 0.960 . S
C728 H715 0.960 . S
C728 C727 1.524 . S
C729 C726 1.403 . S
C729 C730 1.392 . S
C729 C733 1.495 . S
C730 C729 1.392 . S
C730 C731 1.385 . S
C730 C732 1.478 1_556 S
C731 H725 0.930 . S
C731 C727 1.400 . S
C731 C730 1.385 . S
C732 C730 1.478 1_554 S
C732 C734 1.381 . S
C732 C738 1.383 . S
C733 C729 1.495 . S
C733 H739 0.959 . S
C733 H740 0.961 . S
C733 H741 0.960 . S
C734 C732 1.381 . S
C734 C735 1.394 . S
C734 H742 0.930 . S
C735 C734 1.394 . S
C735 C736 1.383 . S
C735 H743 0.929 . S
C736 C735 1.383 . S
C736 C737 1.377 . S
C737 H721 0.930 . S
C737 C736 1.377 . S
C737 C738 1.379 . S
C738 H722 0.931 . S
C738 C732 1.383 . S
C738 C737 1.379 . S
H739 C733 0.959 . S
H740 C733 0.961 . S
H741 C733 0.960 . S
H742 C734 0.930 . S
H743 C735 0.929 . S
H744 C752 0.929 . S
H745 C754 0.930 . S
H746 C756 0.930 . S
H747 C759 0.929 . S
H748 C762 0.930 . S
H749 C764 0.960 . S
H750 C764 0.960 . S
H751 C764 0.960 . S
C752 H744 0.929 . S
C752 C753 1.377 . S
C752 C754 1.384 . S
C753 C752 1.377 . S
C753 C759 1.390 . S
C754 H745 0.930 . S
C754 C752 1.384 . S
C754 C755 1.372 . S
C755 C754 1.372 . S
C755 C756 1.400 . S
C755 C760 1.490 . S
C756 H746 0.930 . S
C756 C755 1.400 . S
C756 C759 1.386 . S
H757 C773 0.930 . S
H758 C774 0.931 . S
C759 H747 0.929 . S
C759 C753 1.390 . S
C759 C756 1.386 . S
C760 C755 1.490 . S
C760 C762 1.395 . S
C760 C763 1.403 . S
H761 C767 0.930 . S
C762 H748 0.930 . S
C762 C760 1.395 . S
C762 C765 1.403 . S
C763 C760 1.403 . S
C763 C764 1.524 . S
C763 C767 1.400 . S
C764 H749 0.960 . S
C764 H750 0.960 . S
C764 H751 0.960 . S
C764 C763 1.524 . S
C765 C762 1.403 . S
C765 C766 1.392 . S
C765 C769 1.495 . S
C766 C765 1.392 . S
C766 C767 1.385 . S
C766 C768 1.478 . S
C767 H761 0.930 . S
C767 C763 1.400 . S
C767 C766 1.385 . S
C768 C766 1.478 . S
C768 C770 1.381 . S
C768 C774 1.383 . S
C769 C765 1.495 . S
C769 H775 0.959 . S
C769 H776 0.961 . S
C769 H777 0.960 . S
C770 C768 1.381 . S
C770 C771 1.394 . S
C770 H778 0.930 . S
C771 C770 1.394 . S
C771 C772 1.383 . S
C771 H779 0.929 . S
C772 C771 1.383 . S
C772 C773 1.377 . S
C773 H757 0.930 . S
C773 C772 1.377 . S
C773 C774 1.379 . S
C774 H758 0.931 . S
C774 C768 1.383 . S
C774 C773 1.379 . S
H775 C769 0.959 . S
H776 C769 0.961 . S
H777 C769 0.960 . S
H778 C770 0.930 . S
H779 C771 0.929 . S
H780 C788 0.929 . S
H781 C790 0.930 . S
H782 C792 0.930 . S
H783 C795 0.929 . S
H784 C798 0.930 . S
H785 C800 0.960 . S
H786 C800 0.960 . S
H787 C800 0.960 . S
C788 H780 0.929 . S
C788 C789 1.377 . S
C788 C790 1.384 . S
C789 C788 1.377 . S
C789 C795 1.390 . S
C790 H781 0.930 . S
C790 C788 1.384 . S
C790 C791 1.372 . S
C791 C790 1.372 . S
C791 C792 1.400 . S
C791 C796 1.490 . S
C792 H782 0.930 . S
C792 C791 1.400 . S
C792 C795 1.386 . S
H793 C809 0.930 . S
H794 C810 0.931 . S
C795 H783 0.929 . S
C795 C789 1.390 . S
C795 C792 1.386 . S
C796 C791 1.490 . S
C796 C798 1.395 . S
C796 C799 1.403 . S
H797 C803 0.930 . S
C798 H784 0.930 . S
C798 C796 1.395 . S
C798 C801 1.403 . S
C799 C796 1.403 . S
C799 C800 1.524 . S
C799 C803 1.400 . S
C800 H785 0.960 . S
C800 H786 0.960 . S
C800 H787 0.960 . S
C800 C799 1.524 . S
C801 C798 1.403 . S
C801 C802 1.392 . S
C801 C805 1.495 . S
C802 C801 1.392 . S
C802 C803 1.385 . S
C802 C804 1.478 . S
C803 H797 0.930 . S
C803 C799 1.400 . S
C803 C802 1.385 . S
C804 C802 1.478 . S
C804 C806 1.381 . S
C804 C810 1.383 . S
C805 C801 1.495 . S
C805 H811 0.959 . S
C805 H812 0.961 . S
C805 H813 0.960 . S
C806 C804 1.381 . S
C806 C807 1.394 . S
C806 H814 0.930 . S
C807 C806 1.394 . S
C807 C808 1.383 . S
C807 H815 0.929 . S
C808 C807 1.383 . S
C808 C809 1.377 . S
C809 H793 0.930 . S
C809 C808 1.377 . S
C809 C810 1.379 . S
C810 H794 0.931 . S
C810 C804 1.383 . S
C810 C809 1.379 . S
H811 C805 0.959 . S
H812 C805 0.961 . S
H813 C805 0.960 . S
H814 C806 0.930 . S
H815 C807 0.929 . S
H816 C824 0.929 . S
H817 C826 0.930 . S
H818 C828 0.930 . S
H819 C831 0.929 . S
H820 C834 0.930 . S
H821 C836 0.960 . S
H822 C836 0.960 . S
H823 C836 0.960 . S
C824 H816 0.929 . S
C824 C825 1.377 . S
C824 C826 1.384 . S
C825 C824 1.377 . S
C825 C831 1.390 . S
C826 H817 0.930 . S
C826 C824 1.384 . S
C826 C827 1.372 . S
C827 C826 1.372 . S
C827 C828 1.400 . S
C827 C832 1.490 . S
C828 H818 0.930 . S
C828 C827 1.400 . S
C828 C831 1.386 . S
H829 C845 0.930 . S
H830 C846 0.931 . S
C831 H819 0.929 . S
C831 C825 1.390 . S
C831 C828 1.386 . S
C832 C827 1.490 . S
C832 C834 1.395 . S
C832 C835 1.403 . S
H833 C839 0.930 . S
C834 H820 0.930 . S
C834 C832 1.395 . S
C834 C837 1.403 . S
C835 C832 1.403 . S
C835 C836 1.524 . S
C835 C839 1.400 . S
C836 H821 0.960 . S
C836 H822 0.960 . S
C836 H823 0.960 . S
C836 C835 1.524 . S
C837 C834 1.403 . S
C837 C838 1.392 . S
C837 C841 1.495 . S
C838 C837 1.392 . S
C838 C839 1.385 . S
C838 C840 1.478 . S
C839 H833 0.930 . S
C839 C835 1.400 . S
C839 C838 1.385 . S
C840 C838 1.478 . S
C840 C842 1.381 . S
C840 C846 1.383 . S
C841 C837 1.495 . S
C841 H847 0.959 . S
C841 H848 0.961 . S
C841 H849 0.960 . S
C842 C840 1.381 . S
C842 C843 1.394 . S
C842 H850 0.930 . S
C843 C842 1.394 . S
C843 C844 1.383 . S
C843 H851 0.929 . S
C844 C843 1.383 . S
C844 C845 1.377 . S
C845 H829 0.930 . S
C845 C844 1.377 . S
C845 C846 1.379 . S
C846 H830 0.931 . S
C846 C840 1.383 . S
C846 C845 1.379 . S
H847 C841 0.959 . S
H848 C841 0.961 . S
H849 C841 0.960 . S
H850 C842 0.930 . S
H851 C843 0.929 . S
H852 C860 0.929 . S
H853 C862 0.930 . S
H854 C864 0.930 . S
H855 C867 0.929 . S
H856 C870 0.930 . S
H857 C872 0.960 . S
H858 C872 0.960 . S
H859 C872 0.960 . S
C860 H852 0.929 . S
C860 C861 1.377 . S
C860 C862 1.384 . S
C861 C860 1.377 . S
C861 C867 1.390 . S
C862 H853 0.930 . S
C862 C860 1.384 . S
C862 C863 1.372 . S
C863 C862 1.372 . S
C863 C864 1.400 . S
C863 C868 1.490 . S
C864 H854 0.930 . S
C864 C863 1.400 . S
C864 C867 1.386 . S
H865 C881 0.930 . S
H866 C882 0.931 . S
C867 H855 0.929 . S
C867 C861 1.390 . S
C867 C864 1.386 . S
C868 C863 1.490 . S
C868 C870 1.395 . S
C868 C871 1.403 . S
H869 C875 0.930 . S
C870 H856 0.930 . S
C870 C868 1.395 . S
C870 C873 1.403 . S
C871 C868 1.403 . S
C871 C872 1.524 . S
C871 C875 1.400 . S
C872 H857 0.960 . S
C872 H858 0.960 . S
C872 H859 0.960 . S
C872 C871 1.524 . S
C873 C870 1.403 . S
C873 C874 1.392 . S
C873 C877 1.495 . S
C874 C873 1.392 . S
C874 C875 1.385 . S
C874 C876 1.478 . S
C875 H869 0.930 . S
C875 C871 1.400 . S
C875 C874 1.385 . S
C876 C874 1.478 . S
C876 C878 1.381 . S
C876 C882 1.383 . S
C877 C873 1.495 . S
C877 H883 0.959 . S
C877 H884 0.961 . S
C877 H885 0.960 . S
C878 C876 1.381 . S
C878 C879 1.394 . S
C878 H886 0.930 . S
C879 C878 1.394 . S
C879 C880 1.383 . S
C879 H887 0.929 . S
C880 C879 1.383 . S
C880 C881 1.377 . S
C881 H865 0.930 . S
C881 C880 1.377 . S
C881 C882 1.379 . S
C882 H866 0.931 . S
C882 C876 1.383 . S
C882 C881 1.379 . S
H883 C877 0.959 . S
H884 C877 0.961 . S
H885 C877 0.960 . S
H886 C878 0.930 . S
H887 C879 0.929 . S
H888 C896 0.929 . S
H889 C898 0.930 . S
H890 C900 0.930 . S
H891 C903 0.929 . S
H892 C906 0.930 . S
H893 C908 0.960 . S
H894 C908 0.960 . S
H895 C908 0.960 . S
C896 H888 0.929 . S
C896 C897 1.377 . S
C896 C898 1.384 . S
C897 C896 1.377 . S
C897 C903 1.390 . S
C898 H889 0.930 . S
C898 C896 1.384 . S
C898 C899 1.372 . S
C899 C898 1.372 . S
C899 C900 1.400 . S
C899 C904 1.490 . S
C900 H890 0.930 . S
C900 C899 1.400 . S
C900 C903 1.386 . S
H901 C917 0.930 . S
H902 C918 0.931 . S
C903 H891 0.929 . S
C903 C897 1.390 . S
C903 C900 1.386 . S
C904 C899 1.490 . S
C904 C906 1.395 . S
C904 C907 1.403 . S
H905 C911 0.930 . S
C906 H892 0.930 . S
C906 C904 1.395 . S
C906 C909 1.403 1_455 S
C907 C904 1.403 . S
C907 C908 1.524 . S
C907 C911 1.400 1_455 S
C908 H893 0.960 . S
C908 H894 0.960 . S
C908 H895 0.960 . S
C908 C907 1.524 . S
C909 C906 1.403 1_655 S
C909 C910 1.392 . S
C909 C913 1.495 . S
C910 C909 1.392 . S
C910 C911 1.385 . S
C910 C912 1.478 . S
C911 H905 0.930 . S
C911 C907 1.400 1_655 S
C911 C910 1.385 . S
C912 C910 1.478 . S
C912 C914 1.381 . S
C912 C918 1.383 . S
C913 C909 1.495 . S
C913 H919 0.959 . S
C913 H920 0.961 . S
C913 H921 0.960 . S
C914 C912 1.381 . S
C914 C915 1.394 . S
C914 H922 0.930 . S
C915 C914 1.394 . S
C915 C916 1.383 . S
C915 H923 0.929 . S
C916 C915 1.383 . S
C916 C917 1.377 . S
C917 H901 0.930 . S
C917 C916 1.377 . S
C917 C918 1.379 . S
C918 H902 0.931 . S
C918 C912 1.383 . S
C918 C917 1.379 . S
H919 C913 0.959 . S
H920 C913 0.961 . S
H921 C913 0.960 . S
H922 C914 0.930 . S
H923 C915 0.929 . S
H924 C932 0.929 . S
H925 C934 0.930 . S
H926 C936 0.930 . S
H927 C939 0.929 . S
H928 C942 0.930 . S
H929 C944 0.960 . S
H930 C944 0.960 . S
H931 C944 0.960 . S
C932 H924 0.929 . S
C932 C933 1.377 . S
C932 C934 1.384 . S
C933 C932 1.377 . S
C933 C939 1.390 . S
C934 H925 0.930 . S
C934 C932 1.384 . S
C934 C935 1.372 . S
C935 C934 1.372 . S
C935 C936 1.400 . S
C935 C940 1.490 . S
C936 H926 0.930 . S
C936 C935 1.400 . S
C936 C939 1.386 . S
H937 C953 0.930 . S
H938 C954 0.931 . S
C939 H927 0.929 . S
C939 C933 1.390 . S
C939 C936 1.386 . S
C940 C935 1.490 . S
C940 C942 1.395 . S
C940 C943 1.403 . S
H941 C947 0.930 . S
C942 H928 0.930 . S
C942 C940 1.395 . S
C942 C945 1.403 1_655 S
C943 C940 1.403 . S
C943 C944 1.524 . S
C943 C947 1.400 1_655 S
C944 H929 0.960 . S
C944 H930 0.960 . S
C944 H931 0.960 . S
C944 C943 1.524 . S
C945 C942 1.403 1_455 S
C945 C946 1.392 . S
C945 C949 1.495 . S
C946 C945 1.392 . S
C946 C947 1.385 . S
C946 C948 1.478 . S
C947 H941 0.930 . S
C947 C943 1.400 1_455 S
C947 C946 1.385 . S
C948 C946 1.478 . S
C948 C950 1.381 . S
C948 C954 1.383 . S
C949 C945 1.495 . S
C949 H955 0.959 . S
C949 H956 0.961 . S
C949 H957 0.960 . S
C950 C948 1.381 . S
C950 C951 1.394 . S
C950 H958 0.930 . S
C951 C950 1.394 . S
C951 C952 1.383 . S
C951 H959 0.929 . S
C952 C951 1.383 . S
C952 C953 1.377 . S
C953 H937 0.930 . S
C953 C952 1.377 . S
C953 C954 1.379 . S
C954 H938 0.931 . S
C954 C948 1.383 . S
C954 C953 1.379 . S
H955 C949 0.959 . S
H956 C949 0.961 . S
H957 C949 0.960 . S
H958 C950 0.930 . S
H959 C951 0.929 . S
H960 C968 0.929 . S
H961 C970 0.930 . S
H962 C972 0.930 . S
H963 C975 0.929 . S
H964 C978 0.930 . S
H965 C980 0.960 . S
H966 C980 0.960 . S
H967 C980 0.960 . S
C968 H960 0.929 . S
C968 C969 1.377 . S
C968 C970 1.384 . S
C969 C968 1.377 . S
C969 C975 1.390 . S
C970 H961 0.930 . S
C970 C968 1.384 . S
C970 C971 1.372 . S
C971 C970 1.372 . S
C971 C972 1.400 . S
C971 C976 1.490 . S
C972 H962 0.930 . S
C972 C971 1.400 . S
C972 C975 1.386 . S
H973 C989 0.930 . S
H974 C990 0.931 . S
C975 H963 0.929 . S
C975 C969 1.390 . S
C975 C972 1.386 . S
C976 C971 1.490 . S
C976 C978 1.395 . S
C976 C979 1.403 . S
H977 C983 0.930 . S
C978 H964 0.930 . S
C978 C976 1.395 . S
C978 C981 1.403 . S
C979 C976 1.403 . S
C979 C980 1.524 . S
C979 C983 1.400 . S
C980 H965 0.960 . S
C980 H966 0.960 . S
C980 H967 0.960 . S
C980 C979 1.524 . S
C981 C978 1.403 . S
C981 C982 1.392 . S
C981 C985 1.495 . S
C982 C981 1.392 . S
C982 C983 1.385 . S
C982 C984 1.478 . S
C983 H977 0.930 . S
C983 C979 1.400 . S
C983 C982 1.385 . S
C984 C982 1.478 . S
C984 C986 1.381 . S
C984 C990 1.383 . S
C985 C981 1.495 . S
C985 H991 0.959 . S
C985 H992 0.961 . S
C985 H993 0.960 . S
C986 C984 1.381 . S
C986 C987 1.394 . S
C986 H994 0.930 . S
C987 C986 1.394 . S
C987 C988 1.383 . S
C987 H995 0.929 . S
C988 C987 1.383 . S
C988 C989 1.377 . S
C989 H973 0.930 . S
C989 C988 1.377 . S
C989 C990 1.379 . S
C990 H974 0.931 . S
C990 C984 1.383 . S
C990 C989 1.379 . S
H991 C985 0.959 . S
H992 C985 0.961 . S
H993 C985 0.960 . S
H994 C986 0.930 . S
H995 C987 0.929 . S
H996 C1004 0.929 . S
H997 C1006 0.930 . S
H998 C1008 0.930 . S
H999 C1011 0.929 . S
H1000 C1014 0.930 . S
H1001 C1016 0.960 . S
H1002 C1016 0.960 1_556 S
H1003 C1016 0.960 . S
C1004 H996 0.929 . S
C1004 C1005 1.377 . S
C1004 C1006 1.384 . S
C1005 C1004 1.377 . S
C1005 C1011 1.390 . S
C1006 H997 0.930 . S
C1006 C1004 1.384 . S
C1006 C1007 1.372 . S
C1007 C1006 1.372 . S
C1007 C1008 1.400 . S
C1007 C1012 1.490 . S
C1008 H998 0.930 . S
C1008 C1007 1.400 . S
C1008 C1011 1.386 . S
H1009 C1025 0.930 . S
H1010 C1026 0.931 . S
C1011 H999 0.929 . S
C1011 C1005 1.390 . S
C1011 C1008 1.386 . S
C1012 C1007 1.490 . S
C1012 C1014 1.395 . S
C1012 C1015 1.403 . S
H1013 C1019 0.930 . S
C1014 H1000 0.930 . S
C1014 C1012 1.395 . S
C1014 C1017 1.403 . S
C1015 C1012 1.403 . S
C1015 C1016 1.524 1_556 S
C1015 C1019 1.400 . S
C1016 H1001 0.960 . S
C1016 H1002 0.960 1_554 S
C1016 H1003 0.960 . S
C1016 C1015 1.524 1_554 S
C1017 C1014 1.403 . S
C1017 C1018 1.392 . S
C1017 C1021 1.495 . S
C1018 C1017 1.392 . S
C1018 C1019 1.385 . S
C1018 C1020 1.478 . S
C1019 H1013 0.930 . S
C1019 C1015 1.400 . S
C1019 C1018 1.385 . S
C1020 C1018 1.478 . S
C1020 C1022 1.381 . S
C1020 C1026 1.383 . S
C1021 C1017 1.495 . S
C1021 H1027 0.959 . S
C1021 H1028 0.961 . S
C1021 H1029 0.960 . S
C1022 C1020 1.381 . S
C1022 C1023 1.394 . S
C1022 H1030 0.930 . S
C1023 C1022 1.394 . S
C1023 C1024 1.383 . S
C1023 H1031 0.929 . S
C1024 C1023 1.383 . S
C1024 C1025 1.377 . S
C1025 H1009 0.930 . S
C1025 C1024 1.377 . S
C1025 C1026 1.379 . S
C1026 H1010 0.931 . S
C1026 C1020 1.383 . S
C1026 C1025 1.379 . S
H1027 C1021 0.959 . S
H1028 C1021 0.961 . S
H1029 C1021 0.960 . S
H1030 C1022 0.930 . S
H1031 C1023 0.929 . S
C177 C19 1.374 . S
C196 C167 1.403 . S
C213 C146 1.374 . S
C232 C40 1.401 . S
C249 C124 1.376 . S
C268 C62 1.395 . S
C285 C104 1.367 . S
C304 C83 1.401 . S
C321 C46 1.647 . S
C340 C7 1.671 . S
C357 C28 1.632 . S
C376 C67 1.614 . S
C393 C70 1.126 . S
C412 C25 1.078 . S
C429 C49 1.131 . S
C448 C4 1.112 . S
C465 C88 1.632 . S
C484 C130 1.615 . S
C501 C112 1.635 . S
C520 C151 1.597 . S
C537 C154 1.115 . S
C556 C109 1.165 . S
C573 C133 1.132 . S
C592 C91 1.088 . S
C609 C16 1.189 . S
C628 C20 1.169 . S
C645 C37 1.187 . S
C664 C41 1.164 . S
C681 C61 1.204 . S
C700 C45 1.195 . S
C717 C66 1.185 . S
C736 C82 1.159 . S
C753 C103 1.197 . S
C772 C87 1.153 . S
C789 C121 1.198 . S
C808 C125 1.233 . S
C825 C129 1.188 . S
C844 C145 1.167 . S
C861 C150 1.196 . S
C880 C166 1.198 . S
C897 C3 1.306 . S
C916 C24 1.338 . S
C933 C79 1.320 . S
C952 C58 1.341 . S
C969 C100 1.316 . S
C988 C108 1.354 . S
C1005 C163 1.325 . S
C1024 C142 1.312 . S
