# Generated by pormake.
# Topology smu, (6)-cn, num edge types: 1
# Building blocks:
#     Node 0, Type 0, BuildingBlock: GEDQOX_clean_sbu_0, # of connection points: 6
#     Node 1, Type 0, BuildingBlock: GEDQOX_clean_sbu_0, # of connection points: 6
#     Node 2, Type 0, BuildingBlock: GEDQOX_clean_sbu_0, # of connection points: 6
#     Node 3, Type 0, BuildingBlock: GEDQOX_clean_sbu_0, # of connection points: 6
#     Node 4, Type 0, BuildingBlock: GEDQOX_clean_sbu_0, # of connection points: 6
#     Node 5, Type 0, BuildingBlock: GEDQOX_clean_sbu_0, # of connection points: 6
#     Edge 6, Type (0, 0), BuildingBlock: TEMPAE_clean_linker_10, # of connection points: 2
#     Edge 7, Type (0, 0), BuildingBlock: TEMPAE_clean_linker_10, # of connection points: 2
#     Edge 8, Type (0, 0), BuildingBlock: TEMPAE_clean_linker_10, # of connection points: 2
#     Edge 9, Type (0, 0), BuildingBlock: TEMPAE_clean_linker_10, # of connection points: 2
#     Edge 10, Type (0, 0), BuildingBlock: TEMPAE_clean_linker_10, # of connection points: 2
#     Edge 11, Type (0, 0), BuildingBlock: TEMPAE_clean_linker_10, # of connection points: 2
#     Edge 12, Type (0, 0), BuildingBlock: TEMPAE_clean_linker_10, # of connection points: 2
#     Edge 13, Type (0, 0), BuildingBlock: TEMPAE_clean_linker_10, # of connection points: 2
#     Edge 14, Type (0, 0), BuildingBlock: TEMPAE_clean_linker_10, # of connection points: 2
#     Edge 15, Type (0, 0), BuildingBlock: TEMPAE_clean_linker_10, # of connection points: 2
#     Edge 16, Type (0, 0), BuildingBlock: TEMPAE_clean_linker_10, # of connection points: 2
#     Edge 17, Type (0, 0), BuildingBlock: TEMPAE_clean_linker_10, # of connection points: 2
#     Edge 18, Type (0, 0), BuildingBlock: TEMPAE_clean_linker_10, # of connection points: 2
#     Edge 19, Type (0, 0), BuildingBlock: TEMPAE_clean_linker_10, # of connection points: 2
#     Edge 20, Type (0, 0), BuildingBlock: TEMPAE_clean_linker_10, # of connection points: 2
#     Edge 21, Type (0, 0), BuildingBlock: TEMPAE_clean_linker_10, # of connection points: 2
#     Edge 22, Type (0, 0), BuildingBlock: TEMPAE_clean_linker_10, # of connection points: 2
#     Edge 23, Type (0, 0), BuildingBlock: TEMPAE_clean_linker_10, # of connection points: 2
# Relax obj value: 0.216
# Max RMSD: 0.314
# Mean RMSD: 0.314
data_MOF--net-smu--node1-GEDQOX_clean_sbu_0--edge1-TEMPAE_clean_linker_10
_symmetry_space_group_name_H-M    P1
_symmetry_Int_Tables_number       1
_symmetry_cell_setting            triclinic
loop_
_symmetry_equiv_pos_as_xyz
'x, y, z'
_cell_length_a     39.821917
_cell_length_b     39.792988
_cell_length_c     27.694148
_cell_angle_alpha  90.004474
_cell_angle_beta   89.901499
_cell_angle_gamma 120.08204
loop_
_atom_site_label
_atom_site_type_symbol
_atom_site_fract_x
_atom_site_fract_y
_atom_site_fract_z
_atom_type_partial_charge
Nd0 Nd 0.37149 0.13774 0.26811 0.0
Nd1 Nd 0.31866 0.05421 0.27076 0.0
C2 C 0.40838 0.21462 0.25611 0.0
C3 C 0.44089 0.2552 0.26283 0.0
C4 C 0.45957 0.27775 0.22187 0.0
C5 C 0.48646 0.31753 0.22594 0.0
C6 C 0.49559 0.33613 0.27125 0.0
C7 C 0.47749 0.31325 0.3125 0.0
C8 C 0.4504 0.27335 0.30834 0.0
C9 C 0.3542 0.10462 0.36065 0.0
C10 C 0.41552 0.09034 0.26687 0.0
C11 C 0.26892 0.9798 0.28654 0.0
C12 C 0.22594 0.95885 0.29045 0.0
C13 C 0.2068 0.97353 0.3188 0.0
C14 C 0.16622 0.95568 0.3184 0.0
C15 C 0.14386 0.92317 0.28898 0.0
C16 C 0.16303 0.90835 0.26096 0.0
C17 C 0.20358 0.92591 0.26184 0.0
C18 C 0.32945 0.08023 0.17678 0.0
C19 C 0.28106 0.10862 0.2594 0.0
O20 O 0.41252 0.19115 0.22688 0.0
O21 O 0.38464 0.19651 0.29186 0.0
O22 O 0.38905 0.12972 0.34636 0.0
O23 O 0.33076 0.09836 0.3269 0.0
O24 O 0.4185 0.1237 0.25564 0.0
O25 O 0.38112 0.05996 0.27936 0.0
O26 O 0.28867 1.00412 0.32108 0.0
O27 O 0.28289 0.99373 0.24387 0.0
O28 O 0.29612 0.05873 0.19715 0.0
O29 O 0.35635 0.09122 0.20829 0.0
O30 O 0.27572 0.07703 0.28184 0.0
O31 O 0.31513 0.1324 0.24059 0.0
H32 H 0.45236 0.26484 0.18622 0.0
H33 H 0.49909 0.33395 0.19318 0.0
H34 H 0.48407 0.32618 0.34811 0.0
H35 H 0.43634 0.25695 0.34067 0.0
H36 H 0.22318 0.9994 0.34043 0.0
H37 H 0.15238 0.968 0.34005 0.0
H38 H 0.14662 0.8831 0.2383 0.0
H39 H 0.21758 0.91425 0.23928 0.0
Nd40 Nd 0.79509 0.66895 0.28006 0.0
Nd41 Nd 0.75815 0.714 0.28094 0.0
C42 C 0.82541 0.62294 0.27417 0.0
C43 C 0.8432 0.59767 0.27189 0.0
C44 C 0.82981 0.56668 0.23899 0.0
C45 C 0.84701 0.5433 0.23675 0.0
C46 C 0.87801 0.55015 0.2675 0.0
C47 C 0.89132 0.58121 0.30041 0.0
C48 C 0.87425 0.60465 0.30248 0.0
C49 C 0.7828 0.69065 0.3726 0.0
C50 C 0.70074 0.62066 0.28288 0.0
C51 C 0.74431 0.77151 0.29783 0.0
C52 C 0.76996 0.81441 0.30124 0.0
C53 C 0.79472 0.83182 0.34105 0.0
C54 C 0.81997 0.87212 0.34259 0.0
C55 C 0.82125 0.896 0.30433 0.0
C56 C 0.79626 0.87857 0.2648 0.0
C57 C 0.77089 0.83837 0.26337 0.0
C58 C 0.7583 0.69091 0.18793 0.0
C59 C 0.85304 0.75516 0.26861 0.0
O60 O 0.79535 0.61706 0.24848 0.0
O61 O 0.83875 0.65296 0.30287 0.0
O62 O 0.81592 0.6956 0.35808 0.0
O63 O 0.75911 0.67633 0.33877 0.0
O64 O 0.73237 0.61988 0.27104 0.0
O65 O 0.70234 0.65397 0.29375 0.0
O66 O 0.74698 0.75038 0.33208 0.0
O67 O 0.74101 0.75617 0.25517 0.0
O68 O 0.72823 0.68744 0.21062 0.0
O69 O 0.78756 0.70327 0.21644 0.0
O70 O 0.82511 0.75758 0.29133 0.0
O71 O 0.84444 0.7226 0.24746 0.0
H72 H 0.80597 0.56042 0.21491 0.0
H73 H 0.83554 0.51938 0.21141 0.0
H74 H 0.91532 0.58773 0.32433 0.0
H75 H 0.88547 0.62835 0.32816 0.0
H76 H 0.7949 0.81434 0.37092 0.0
H77 H 0.83887 0.88452 0.37351 0.0
H78 H 0.79587 0.89611 0.23513 0.0
H79 H 0.75209 0.82596 0.23234 0.0
Nd80 Nd 0.89963 0.24136 0.27719 0.0
Nd81 Nd 0.97801 0.27676 0.27166 0.0
C82 C 0.82278 0.21071 0.27507 0.0
C83 C 0.77959 0.19335 0.27548 0.0
C84 C 0.75867 0.18801 0.2325 0.0
C85 C 0.71795 0.17079 0.23319 0.0
C86 C 0.69699 0.1588 0.27695 0.0
C87 C 0.71806 0.16439 0.3199 0.0
C88 C 0.75865 0.18117 0.31914 0.0
C89 C 0.93737 0.26165 0.36804 0.0
C90 C 0.94386 0.33515 0.2632 0.0
C91 C 0.05227 0.29672 0.27004 0.0
C92 C 0.07324 0.27449 0.26768 0.0
C93 C 0.08052 0.25998 0.3104 0.0
C94 C 0.09913 0.23814 0.30902 0.0
C95 C 0.11132 0.23026 0.26495 0.0
C96 C 0.10436 0.24495 0.22214 0.0
C97 C 0.08576 0.26703 0.22357 0.0
C98 C 0.94013 0.2688 0.17049 0.0
C99 C 0.92923 0.18299 0.28312 0.0
O100 O 0.84504 0.22956 0.23842 0.0
O101 O 0.84158 0.20864 0.31235 0.0
O102 O 0.90924 0.22735 0.35702 0.0
O103 O 0.94538 0.28313 0.3318 0.0
O104 O 0.91082 0.30217 0.26172 0.0
O105 O 0.97691 0.335 0.26897 0.0
O106 O 0.03231 0.29172 0.30947 0.0
O107 O 0.03413 0.29857 0.2316 0.0
O108 O 0.93828 0.24838 0.20788 0.0
O109 O 0.93874 0.24889 0.20836 0.0
O110 O 0.96052 0.21422 0.29971 0.0
O111 O 0.90253 0.18743 0.2618 0.0
H112 H 0.77376 0.19694 0.19822 0.0
H113 H 0.70291 0.16743 0.19943 0.0
H114 H 0.70308 0.15531 0.35424 0.0
H115 H 0.77368 0.18468 0.35296 0.0
H116 H 0.07165 0.26529 0.34523 0.0
H117 H 0.10364 0.22707 0.34264 0.0
H118 H 0.1139 0.23995 0.18761 0.0
H119 H 0.08126 0.27837 0.19027 0.0
Nd120 Nd 0.06133 0.31466 0.77555 0.0
Nd121 Nd 0.14368 0.36627 0.77679 0.0
C122 C 0.98752 0.26426 0.7939 0.0
C123 C 0.96439 0.22106 0.79125 0.0
C124 C 0.95565 0.19898 0.83388 0.0
C125 C 0.93728 0.15841 0.83217 0.0
C126 C 0.92657 0.13866 0.78776 0.0
C127 C 0.93414 0.16061 0.74512 0.0
C128 C 0.95299 0.20133 0.74679 0.0
C129 C 0.08815 0.32107 0.68231 0.0
C130 C 0.11856 0.27946 0.76576 0.0
C131 C 0.21976 0.41623 0.77049 0.0
C132 C 0.26281 0.44328 0.76816 0.0
C133 C 0.27911 0.47786 0.74104 0.0
C134 C 0.31965 0.50279 0.73888 0.0
C135 C 0.34518 0.4938 0.76355 0.0
C136 C 0.32868 0.45915 0.79064 0.0
C137 C 0.28825 0.43439 0.79296 0.0
C138 C 0.10913 0.33887 0.86805 0.0
C139 C 0.09348 0.40923 0.77616 0.0
O140 O 1.01444 0.27833 0.82705 0.0
O141 O 0.99914 0.28384 0.75339 0.0
O142 O 0.06597 0.28873 0.70443 0.0
O143 O 0.10013 0.34931 0.71219 0.0
O144 O 0.08828 0.27516 0.79073 0.0
O145 O 0.14094 0.31278 0.74459 0.0
O146 O 0.19435 0.42016 0.74494 0.0
O147 O 0.20441 0.38617 0.79914 0.0
O148 O 0.13951 0.33798 0.85324 0.0
O149 O 0.09801 0.35247 0.83519 0.0
O150 O 0.1282 0.41376 0.78245 0.0
O151 O 0.06235 0.37416 0.77062 0.0
H152 H 0.96366 0.21321 0.8687 0.0
H153 H 0.93127 0.14245 0.86577 0.0
H154 H 0.92634 0.14634 0.7103 0.0
H155 H 0.95921 0.21729 0.71318 0.0
H156 H 0.26053 0.48567 0.72137 0.0
H157 H 0.33101 0.5289 0.71721 0.0
H158 H 0.34702 0.45129 0.81076 0.0
H159 H 0.27691 0.40808 0.81426 0.0
Nd160 Nd 0.28362 0.97266 0.76501 0.0
Nd161 Nd 0.25237 0.89565 0.7696 0.0
C162 C 0.30167 0.04651 0.76152 0.0
C163 C 0.2805 0.06736 0.75098 0.0
C164 C 0.23978 0.04709 0.74808 0.0
C165 C 0.2192 0.06717 0.74784 0.0
C166 C 0.23889 0.10804 0.75032 0.0
C167 C 0.27982 0.12818 0.7507 0.0
C168 C 0.30034 0.10805 0.7513 0.0
C169 C 0.28256 0.93642 0.66462 0.0
C170 C 0.19052 0.92082 0.76909 0.0
C171 C 0.22482 0.81928 0.76743 0.0
C172 C 0.20862 0.77626 0.76716 0.0
C173 C 0.22352 0.75889 0.73611 0.0
C174 C 0.20771 0.71834 0.73563 0.0
C175 C 0.1765 0.69391 0.76622 0.0
C176 C 0.16176 0.7115 0.79734 0.0
C177 C 0.17754 0.75197 0.79777 0.0
C178 C 0.27119 0.93261 0.86119 0.0
C179 C 0.34574 0.94377 0.75725 0.0
O180 O 0.28981 0.02505 0.80038 0.0
O181 O 0.30905 0.02951 0.72594 0.0
O182 O 0.25967 0.93357 0.69962 0.0
O183 O 0.26014 0.93401 0.70012 0.0
O184 O 0.21965 0.95155 0.78984 0.0
O185 O 0.19782 0.89582 0.74813 0.0
O186 O 0.25373 0.84358 0.74028 0.0
O187 O 0.21109 0.83582 0.79558 0.0
O188 O 0.23752 0.90372 0.84993 0.0
O189 O 0.29264 0.94166 0.82498 0.0
O190 O 0.31407 0.9099 0.75198 0.0
O191 O 0.34323 0.97497 0.7677 0.0
H192 H 0.22378 1.01565 0.74823 0.0
H193 H 0.18779 0.05051 0.74788 0.0
H194 H 0.29612 0.15961 0.75148 0.0
H195 H 0.33171 0.12428 0.75388 0.0
H196 H 0.24732 0.77661 0.7119 0.0
H197 H 0.21968 0.70613 0.71068 0.0
H198 H 0.13826 0.69404 0.82203 0.0
H199 H 0.16531 0.76423 0.82228 0.0
Nd200 Nd 0.72395 0.75662 0.75906 0.0
Nd201 Nd 0.67231 0.78726 0.78345 0.0
C202 C 0.7788 0.74233 0.72925 0.0
C203 C 0.82074 0.76052 0.7404 0.0
C204 C 0.83462 0.76896 0.78813 0.0
C205 C 0.87464 0.79066 0.79732 0.0
C206 C 0.90153 0.80492 0.759 0.0
C207 C 0.8875 0.79582 0.7114 0.0
C208 C 0.84763 0.7738 0.70226 0.0
C209 C 0.69642 0.78379 0.66361 0.0
C210 C 0.76332 0.84788 0.78428 0.0
C211 C 0.62368 0.81441 0.78473 0.0
C212 C 0.59664 0.83006 0.78359 0.0
C213 C 0.59164 0.84603 0.74077 0.0
C214 C 0.56788 0.8627 0.73976 0.0
C215 C 0.54864 0.86432 0.78169 0.0
C216 C 0.55346 0.84797 0.82451 0.0
C217 C 0.57703 0.83095 0.82538 0.0
C218 C 0.70776 0.77507 0.86466 0.0
C219 C 0.63152 0.69345 0.76266 0.0
O220 O 0.75375 0.72191 0.76314 0.0
O221 O 0.76927 0.7649 0.7063 0.0
O222 O 0.69344 0.77746 0.70951 0.0
O223 O 0.69414 0.77698 0.70996 0.0
O224 O 0.76788 0.81736 0.7899 0.0
O225 O 0.72933 0.84365 0.77351 0.0
O226 O 0.6496 0.82275 0.75083 0.0
O227 O 0.62301 0.7907 0.81808 0.0
O228 O 0.70067 0.80346 0.86009 0.0
O229 O 0.69413 0.75276 0.8289 0.0
O230 O 0.6269 0.72386 0.76787 0.0
O231 O 0.66654 0.69678 0.76088 0.0
H232 H 0.81459 0.75971 0.8183 0.0
H233 H 0.88449 0.79727 0.83436 0.0
H234 H 0.90743 0.80583 0.6811 0.0
H235 H 0.83769 0.76803 0.66517 0.0
H236 H 0.60617 0.84568 0.70783 0.0
H237 H 0.56437 0.87403 0.70578 0.0
H238 H 0.53962 0.84894 0.85774 0.0
H239 H 0.58053 0.81921 0.85905 0.0
C240 C 0.25788 0.94402 0.94758 0.0
C241 C 0.28247 0.95562 0.90714 0.0
C242 C 0.26876 0.96646 0.99042 0.0
C243 C 0.30491 1.00177 0.99296 0.0
C244 C 0.3297 1.01355 0.95206 0.0
C245 C 0.31836 0.99035 0.91007 0.0
C246 C 0.24147 0.95236 0.03309 0.0
C247 C 0.36812 0.05104 0.95239 0.0
C248 C 0.31222 0.07456 0.08929 0.0
C249 C 0.33266 0.06876 0.12651 0.0
C250 C 0.30467 0.05445 0.04498 0.0
C251 C 0.31651 0.02656 0.03802 0.0
C252 C 0.33831 0.02154 0.075 0.0
C253 C 0.34636 0.04286 0.11847 0.0
C254 C 0.28236 0.06179 1.00645 0.0
C255 C 0.35104 0.99182 0.06995 0.0
H256 H 0.23015 0.91733 0.94578 0.0
H257 H 0.3376 0.9998 0.87905 0.0
H258 H 0.25658 0.94976 0.06529 0.0
H259 H 0.2323 0.97376 0.04193 0.0
H260 H 0.21514 0.92378 0.02621 0.0
H261 H 0.38411 0.05625 0.91775 0.0
H262 H 0.36334 0.07579 0.95931 0.0
H263 H 0.38662 0.05062 0.98202 0.0
H264 H 0.30059 0.09366 0.09571 0.0
H265 H 0.3609 0.0371 0.14765 0.0
H266 H 0.25316 0.03577 1.00239 0.0
H267 H 0.29736 0.06706 0.9711 0.0
H268 H 0.27878 0.08707 1.01517 0.0
H269 H 0.32511 0.9623 0.06867 0.0
H270 H 0.36975 0.99301 0.10038 0.0
H271 H 0.36715 0.99626 0.03564 0.0
C272 C 0.73361 0.79347 0.5879 0.0
C273 C 0.71616 0.77048 0.62888 0.0
C274 C 0.74751 0.7805 0.54945 0.0
C275 C 0.74362 0.74309 0.55126 0.0
C276 C 0.72668 0.71991 0.59316 0.0
C277 C 0.71265 0.73357 0.63106 0.0
C278 C 0.76477 0.8063 0.50574 0.0
C279 C 0.72192 0.67996 0.59713 0.0
C280 C 0.73557 0.69547 0.42824 0.0
C281 C 0.77342 0.70257 0.41992 0.0
C282 C 0.72547 0.70753 0.47103 0.0
C283 C 0.75373 0.72721 0.50734 0.0
C284 C 0.79188 0.73372 0.49975 0.0
C285 C 0.8013 0.72146 0.45619 0.0
C286 C 0.68455 0.70002 0.47674 0.0
C287 C 0.82294 0.75425 0.53738 0.0
H288 H 0.73548 0.82156 0.58529 0.0
H289 H 0.69796 0.71495 0.66169 0.0
H290 H 0.79352 0.80973 0.497 0.0
H291 H 0.74576 0.79266 0.47398 0.0
H292 H 0.7683 0.83556 0.51116 0.0
H293 H 0.71297 0.66765 0.63402 0.0
H294 H 0.69954 0.66015 0.57115 0.0
H295 H 0.74945 0.68087 0.58766 0.0
H296 H 0.71365 0.68083 0.4007 0.0
H297 H 0.83058 0.72706 0.45034 0.0
H298 H 0.68491 0.72804 0.47895 0.0
H299 H 0.67166 0.68405 0.51084 0.0
H300 H 0.66551 0.68296 0.44626 0.0
H301 H 0.82906 0.78453 0.54169 0.0
H302 H 0.85039 0.75498 0.52776 0.0
H303 H 0.8127 0.73966 0.57289 0.0
C304 C 0.99567 0.26547 0.12735 0.0
C305 C 0.96591 0.27481 0.12764 0.0
C306 C 1.02063 0.27404 0.08687 0.0
C307 C 1.01534 0.29144 0.04484 0.0
C308 C 0.98419 0.29917 0.04442 0.0
C309 C 0.96058 0.29149 0.08581 0.0
C310 C 0.05351 0.26561 0.09006 0.0
C311 C 0.97562 0.31556 1.00001 0.0
C312 C 0.09605 0.35224 0.95289 0.0
C313 C 0.0891 0.32546 0.91587 0.0
C314 C 0.07372 0.34109 0.99589 0.0
C315 C 0.04246 0.30243 1.00166 0.0
C316 C 0.03597 0.27509 0.9646 0.0
C317 C 0.05958 0.2868 0.92265 0.0
C318 C 0.08316 0.371 0.03485 0.0
C319 C 1.00291 0.23378 0.96814 0.0
H320 H 0.99998 0.2521 0.15898 0.0
H321 H 0.9375 0.29843 0.08532 0.0
H322 H 0.05917 0.25599 0.05495 0.0
H323 H 0.08035 0.29264 0.10053 0.0
H324 H 0.04756 0.24293 0.11752 0.0
H325 H 0.94841 0.31667 1.00373 0.0
H326 H 0.99988 0.34539 0.993 0.0
H327 H 0.97305 0.29766 0.96797 0.0
H328 H 0.11865 0.38222 0.94787 0.0
H329 H 0.05399 0.2659 0.89426 0.0
H330 H 0.08557 0.35935 0.07029 0.0
H331 H 0.05938 0.37775 0.03785 0.0
H332 H 0.11067 0.39843 0.02745 0.0
H333 H 1.00262 0.22119 1.00396 0.0
H334 H 1.00455 0.21494 0.93974 0.0
H335 H 0.975 0.23344 0.96427 0.0
C336 C 0.37041 0.09127 0.44466 0.0
C337 C 0.34314 0.083 0.40784 0.0
C338 C 0.35999 0.06969 0.48827 0.0
C339 C 0.32163 0.03806 0.49496 0.0
C340 C 0.29398 0.02994 0.45797 0.0
C341 C 0.3048 0.05297 0.41574 0.0
C342 C 0.3902 0.08057 0.52714 0.0
C343 C 0.25319 0.99591 0.46208 0.0
C344 C 0.30879 0.95701 0.58151 0.0
C345 C 0.29054 0.96238 0.62172 0.0
C346 C 0.31825 0.98076 0.54008 0.0
C347 C 0.31095 1.01219 0.53913 0.0
C348 C 0.29286 0.01812 0.58004 0.0
C349 C 0.28196 0.99262 0.62017 0.0
C350 C 0.33581 0.97188 0.49703 0.0
C351 C 0.28557 0.05182 0.5818 0.0
H352 H 0.39999 0.11464 0.4394 0.0
H353 H 0.28319 0.04679 0.38822 0.0
H354 H 0.37866 0.08371 0.56232 0.0
H355 H 0.39739 0.05718 0.53134 0.0
H356 H 0.41734 0.10811 0.51881 0.0
H357 H 0.23488 0.99376 0.43071 0.0
H358 H 0.25412 0.96855 0.46466 0.0
H359 H 0.23911 0.99827 0.49545 0.0
H360 H 0.31534 0.93364 0.58223 0.0
H361 H 0.26739 0.99686 0.6506 0.0
H362 H 0.36546 0.99647 0.49012 0.0
H363 H 0.31827 0.96824 0.46427 0.0
H364 H 0.33756 0.94513 0.50227 0.0
H365 H 0.31279 0.07931 0.57372 0.0
H366 H 0.27448 0.05455 0.61758 0.0
H367 H 0.26411 0.04818 0.55384 0.0
C368 C 0.71857 0.77913 0.95503 0.0
C369 C 0.72176 0.76511 0.90976 0.0
C370 C 0.72893 0.76735 0.99805 0.0
C371 C 0.74405 0.74171 0.99606 0.0
C372 C 0.74905 0.729 0.95008 0.0
C373 C 0.73734 0.7403 0.9078 0.0
C374 C 0.72224 0.78122 0.04589 0.0
C375 C 0.76603 0.70272 0.94553 0.0
C376 C 0.79085 0.73229 0.11366 0.0
C377 C 0.75989 0.6991 0.13488 0.0
C378 C 0.78693 0.7456 0.06755 0.0
C379 C 0.75113 0.72558 0.04211 0.0
C380 C 0.72076 0.69086 0.0624 0.0
C381 C 0.72557 0.67815 0.10804 0.0
C382 C 0.82046 0.78227 0.04725 0.0
C383 C 0.68205 0.66828 0.03734 0.0
H384 H 0.70657 0.79825 0.95705 0.0
H385 H 0.74036 0.72961 0.87299 0.0
H386 H 0.70046 0.75601 0.06716 0.0
H387 H 0.74947 0.79528 0.06716 0.0
H388 H 0.71174 0.80217 0.0415 0.0
H389 H 0.77262 0.69938 0.90741 0.0
H390 H 0.79308 0.71428 0.96702 0.0
H391 H 0.74524 0.67357 0.96013 0.0
H392 H 0.81722 0.74923 0.13426 0.0
H393 H 0.70131 0.65273 0.12423 0.0
H394 H 0.8137 0.80611 0.04918 0.0
H395 H 0.82517 0.77827 1.00866 0.0
H396 H 0.84776 0.79132 0.06744 0.0
H397 H 0.66803 0.68632 0.03519 0.0
H398 H 0.66207 0.64083 0.05646 0.0
H399 H 0.6861 0.66118 0.99984 0.0
C400 C 0.94898 0.24957 0.45485 0.0
C401 C 0.96133 0.27299 0.41333 0.0
C402 C 0.97188 0.2604 0.49731 0.0
C403 C 1.00866 0.29509 0.49829 0.0
C404 C 1.02135 0.31854 0.45616 0.0
C405 C 0.99746 0.30754 0.41474 0.0
C406 C 0.95656 0.23471 0.54134 0.0
C407 C 0.06053 0.3551 0.45455 0.0
C408 C 0.05301 0.33934 0.62195 0.0
C409 C 0.07639 0.32293 0.63157 0.0
C410 C 0.03153 0.33123 0.57858 0.0
C411 C 0.03383 0.30662 0.54314 0.0
C412 C 0.05921 0.29185 0.55162 0.0
C413 C 0.07943 0.29951 0.59589 0.0
C414 C 1.00444 0.34709 0.5721 0.0
C415 C 0.06378 0.26652 0.51474 0.0
H416 H 0.92118 0.22289 0.45432 0.0
H417 H 1.0075 0.32588 0.38293 0.0
H418 H 0.97612 0.22341 0.55085 0.0
H419 H 0.95598 0.25182 0.57265 0.0
H420 H 0.92687 0.20968 0.53569 0.0
H421 H 0.06666 0.36976 0.41884 0.0
H422 H 0.06214 0.37573 0.48264 0.0
H423 H 0.08364 0.3481 0.46259 0.0
H424 H 0.0493 0.35631 0.64989 0.0
H425 H 0.09654 0.28584 0.60346 0.0
H426 H 0.974 0.32271 0.57157 0.0
H427 H 1.00999 0.36243 0.53701 0.0
H428 H 1.00744 0.36744 0.60145 0.0
H429 H 0.03645 0.23819 0.51227 0.0
H430 H 0.08773 0.26101 0.52407 0.0
H431 H 0.06957 0.28024 0.4785 0.0
C432 C 0.48381 0.1189 0.23804 0.0
C433 C 0.45302 0.08988 0.26536 0.0
C434 C 0.5218 0.12543 0.241 0.0
C435 C 0.52993 0.10175 0.27119 0.0
C436 C 0.4987 0.07069 0.29674 0.0
C437 C 0.46063 0.06525 0.29384 0.0
C438 C 0.55365 0.15911 0.21327 0.0
C439 C 0.50577 0.04405 0.32836 0.0
C440 C 0.6297 0.11368 0.24352 0.0
C441 C 0.65354 0.14133 0.27797 0.0
C442 C 0.5891 0.09841 0.24299 0.0
C443 C 0.57156 0.1115 0.27714 0.0
C444 C 0.59536 0.13855 0.31286 0.0
C445 C 0.63575 0.15284 0.31303 0.0
C446 C 0.56511 0.06921 0.20473 0.0
C447 C 0.57846 0.15409 0.34946 0.0
H448 H 0.47855 0.13786 0.21511 0.0
H449 H 0.43735 0.04281 0.31517 0.0
H450 H 0.56893 0.14878 0.18932 0.0
H451 H 0.54247 0.17451 0.19083 0.0
H452 H 0.5754 0.18028 0.23884 0.0
H453 H 0.47822 0.01845 0.34057 0.0
H454 H 0.52329 0.03381 0.30875 0.0
H455 H 0.52257 0.06016 0.36066 0.0
H456 H 0.64285 0.104 0.21671 0.0
H457 H 0.6537 0.17432 0.33966 0.0
H458 H 0.55515 0.08301 0.17791 0.0
H459 H 0.53886 0.04451 0.22106 0.0
H460 H 0.58177 0.05779 0.18541 0.0
H461 H 0.56824 0.17201 0.33083 0.0
H462 H 0.59993 0.17224 0.3774 0.0
H463 H 0.55298 0.12986 0.36761 0.0
C464 C 0.66679 0.55421 0.31729 0.0
C465 C 0.66492 0.58236 0.28877 0.0
C466 C 0.63691 0.51519 0.31696 0.0
C467 C 0.60436 0.50349 0.28651 0.0
C468 C 0.60155 0.53214 0.25896 0.0
C469 C 0.63182 0.57135 0.26059 0.0
C470 C 0.64121 0.48612 0.34748 0.0
C471 C 0.56762 0.52103 0.22572 0.0
C472 C 0.55578 0.39782 0.24455 0.0
C473 C 0.52319 0.37921 0.27503 0.0
C474 C 0.58157 0.43819 0.247 0.0
C475 C 0.57516 0.46099 0.2811 0.0
C476 C 0.54232 0.44255 0.31189 0.0
C477 C 0.51679 0.40209 0.30843 0.0
C478 C 0.61619 0.45637 0.21351 0.0
C479 C 0.53442 0.46552 0.349 0.0
H480 H 0.69253 0.5626 0.33883 0.0
H481 H 0.63063 0.59285 0.23776 0.0
H482 H 0.61452 0.46836 0.36904 0.0
H483 H 0.64533 0.466 0.32375 0.0
H484 H 0.66633 0.50034 0.37247 0.0
H485 H 0.5677 0.54685 0.21034 0.0
H486 H 0.56869 0.50323 0.19554 0.0
H487 H 0.53986 0.50302 0.2452 0.0
H488 H 0.56161 0.3807 0.21908 0.0
H489 H 0.4915 0.38845 0.33169 0.0
H490 H 0.64335 0.46844 0.23485 0.0
H491 H 0.61691 0.48083 0.19339 0.0
H492 H 0.6159 0.43522 0.1871 0.0
H493 H 0.55871 0.47878 0.3752 0.0
H494 H 0.50701 0.44727 0.36915 0.0
H495 H 0.53272 0.4896 0.33123 0.0
C496 C 0.97338 0.40904 0.26117 0.0
C497 C 0.94101 0.37136 0.26188 0.0
C498 C 0.96868 0.44215 0.26119 0.0
C499 C 0.93083 0.43745 0.26257 0.0
C500 C 0.89832 0.39952 0.2634 0.0
C501 C 0.90377 0.36737 0.26276 0.0
C502 C 1.00412 0.48211 0.25984 0.0
C503 C 0.85738 0.39266 0.26543 0.0
C504 C 0.90546 0.51243 0.30878 0.0
C505 C 0.89576 0.52455 0.26595 0.0
C506 C 0.91947 0.48615 0.30807 0.0
C507 C 0.92417 0.47149 0.26344 0.0
C508 C 0.91627 0.48508 0.21999 0.0
C509 C 0.90207 0.51119 0.22175 0.0
C510 C 0.92697 0.47228 0.35539 0.0
C511 C 0.92097 0.47054 0.17154 0.0
H512 H 1.00222 0.41268 0.26057 0.0
H513 H 0.87821 0.3387 0.2636 0.0
H514 H 1.0027 0.49839 0.22813 0.0
H515 H 1.00493 0.49861 0.29254 0.0
H516 H 0.03145 0.48106 0.25791 0.0
H517 H 0.83515 0.3613 0.26642 0.0
H518 H 0.85367 0.40673 0.29798 0.0
H519 H 0.85175 0.4059 0.23347 0.0
H520 H 0.90053 0.5222 0.3432 0.0
H521 H 0.89547 0.52084 0.18835 0.0
H522 H 0.95524 0.47315 0.35435 0.0
H523 H 0.90411 0.44165 0.36165 0.0
H524 H 0.92697 0.48999 0.38641 0.0
H525 H 0.94936 0.47173 0.16939 0.0
H526 H 0.91885 0.48763 0.14117 0.0
H527 H 0.898 0.43974 0.16699 0.0
C528 C 0.08988 0.46205 0.73165 0.0
C529 C 0.09138 0.44543 0.77565 0.0
C530 C 0.09995 0.50149 0.72882 0.0
C531 C 0.11175 0.52492 0.77103 0.0
C532 C 0.11103 0.50744 0.81595 0.0
C533 C 0.10136 0.46819 0.81756 0.0
C534 C 0.10049 0.51871 0.6801 0.0
C535 C 0.12283 0.5308 0.86204 0.0
C536 C 0.1836 0.63416 0.76059 0.0
C537 C 0.1596 0.65046 0.76605 0.0
C538 C 0.16833 0.5936 0.76135 0.0
C539 C 0.12791 0.56818 0.76791 0.0
C540 C 0.10344 0.58433 0.77303 0.0
C541 C 0.11947 0.62504 0.77196 0.0
C542 C 0.1957 0.57793 0.75581 0.0
C543 C 0.06027 0.55856 0.78012 0.0
H544 H 0.08343 0.44496 0.69892 0.0
H545 H 0.10355 0.45574 0.85143 0.0
H546 H 0.08534 0.53567 0.68183 0.0
H547 H 0.13097 0.53902 0.66928 0.0
H548 H 0.08666 0.49609 0.65176 0.0
H549 H 0.11669 0.51217 0.89449 0.0
H550 H 0.15439 0.55215 0.86097 0.0
H551 H 0.1074 0.54739 0.86572 0.0
H552 H 0.21463 0.65318 0.7567 0.0
H553 H 0.10036 0.63694 0.77545 0.0
H554 H 0.18629 0.55706 0.72534 0.0
H555 H 0.195 0.56192 0.78894 0.0
H556 H 0.2261 0.60129 0.74921 0.0
H557 H 0.04775 0.5378 0.74967 0.0
H558 H 0.045 0.57542 0.78273 0.0
H559 H 0.05455 0.54117 0.81359 0.0
C560 C 0.38559 0.91703 0.72447 0.0
C561 C 0.38308 0.9438 0.75513 0.0
C562 C 0.41581 0.90872 0.72859 0.0
C563 C 0.44452 0.92746 0.76455 0.0
C564 C 0.44354 0.95631 0.79382 0.0
C565 C 0.41282 0.96423 0.7887 0.0
C566 C 0.41563 0.8781 0.69615 0.0
C567 C 0.47359 0.97712 0.83246 0.0
C568 C 0.48887 0.86692 0.80721 0.0
C569 C 0.52348 0.8826 0.78034 0.0
C570 C 0.464 0.88249 0.80421 0.0
C571 C 0.47351 0.91445 0.77325 0.0
C572 C 0.50889 0.93119 0.74716 0.0
C573 C 0.53341 0.91526 0.75115 0.0
C574 C 0.42667 0.86366 0.83284 0.0
C575 C 0.52025 0.96517 0.71368 0.0
H576 H 0.36271 0.90114 0.69838 0.0
H577 H 0.41078 0.98451 0.81298 0.0
H578 H 0.44438 0.88928 0.67869 0.0
H579 H 0.40995 0.8524 0.71802 0.0
H580 H 0.39315 0.86851 0.66755 0.0
H581 H 0.47179 1.00193 0.84792 0.0
H582 H 0.46925 0.95649 0.86202 0.0
H583 H 0.50321 0.98798 0.81778 0.0
H584 H 0.48044 0.84155 0.82952 0.0
H585 H 0.56038 0.92836 0.731 0.0
H586 H 0.40162 0.84952 0.80782 0.0
H587 H 0.42369 0.88592 0.8535 0.0
H588 H 0.42506 0.84141 0.85846 0.0
H589 H 0.49968 0.95593 0.68294 0.0
H590 H 0.55008 0.977 0.69908 0.0
H591 H 0.51847 0.98873 0.73278 0.0
C592 C 0.41392 0.50526 0.75888 0.0
C593 C 0.38867 0.52037 0.76142 0.0
C594 C 0.45469 0.52976 0.75781 0.0
C595 C 0.47115 0.57066 0.75946 0.0
C596 C 0.44586 0.58612 0.76177 0.0
C597 C 0.40522 0.56097 0.76261 0.0
C598 C 0.48021 0.51181 0.75501 0.0
C599 C 0.46179 0.62941 0.76393 0.0
C600 C 0.57498 0.63848 0.80385 0.0
C601 C 0.59498 0.65526 0.76076 0.0
C602 C 0.5353 0.60966 0.80383 0.0
C603 C 0.51466 0.59741 0.75959 0.0
C604 C 0.53531 0.61301 0.71578 0.0
C605 C 0.57502 0.64189 0.71693 0.0
C606 C 0.5149 0.59416 0.85149 0.0
C607 C 0.51491 0.60097 0.66771 0.0
H608 H 0.4018 0.47409 0.75721 0.0
H609 H 0.38636 0.57322 0.76522 0.0
H610 H 0.49911 0.52274 0.7226 0.0
H611 H 0.49951 0.52043 0.78699 0.0
H612 H 0.46312 0.47959 0.75334 0.0
H613 H 0.43847 0.63699 0.76501 0.0
H614 H 0.48018 0.64159 0.7965 0.0
H615 H 0.48048 0.64366 0.73203 0.0
H616 H 0.58985 0.64963 0.83792 0.0
H617 H 0.5899 0.65568 0.68361 0.0
H618 H 0.498 0.56196 0.8509 0.0
H619 H 0.49407 0.60453 0.85778 0.0
H620 H 0.53553 0.60363 0.88225 0.0
H621 H 0.49766 0.56885 0.66505 0.0
H622 H 0.53559 0.61235 0.63691 0.0
H623 H 0.4944 0.61205 0.66444 0.0
C624 C 0.2577 0.15246 0.22946 0.0
C625 C 0.25047 0.11965 0.25662 0.0
C626 C 0.232 0.16687 0.22994 0.0
C627 C 0.19772 0.14796 0.258 0.0
C628 C 0.1892 0.11376 0.28387 0.0
C629 C 0.21574 0.10002 0.28298 0.0
C630 C 0.24246 0.20341 0.20185 0.0
C631 C 0.15275 0.09251 0.31381 0.0
C632 C 0.16049 0.21472 0.29887 0.0
C633 C 0.13199 0.2076 0.2642 0.0
C634 C 0.18086 0.19434 0.29843 0.0
C635 C 0.17263 0.16593 0.26245 0.0
C636 C 0.14322 0.15787 0.22804 0.0
C637 C 0.12339 0.17889 0.22918 0.0
C638 C 0.21226 0.20429 0.33548 0.0
C639 C 0.13336 0.12769 0.18928 0.0
H640 H 0.28422 0.1678 0.20856 0.0
H641 H 0.20982 0.07464 0.304 0.0
H642 H 0.21835 0.19848 0.17747 0.0
H643 H 0.24711 0.22697 0.22717 0.0
H644 H 0.26919 0.21351 0.17986 0.0
H645 H 0.14827 0.06432 0.32759 0.0
H646 H 0.15448 0.11074 0.34507 0.0
H647 H 0.12706 0.08708 0.29224 0.0
H648 H 0.1677 0.23711 0.32576 0.0
H649 H 0.10104 0.17276 0.20269 0.0
H650 H 0.24092 0.21742 0.31724 0.0
H651 H 0.20765 0.1776 0.35405 0.0
H652 H 0.21324 0.22503 0.36308 0.0
H653 H 0.15831 0.13741 0.16423 0.0
H654 H 0.10749 0.1223 0.16803 0.0
H655 H 0.12784 0.0999 0.2056 0.0
C656 C 0.90837 0.82449 0.27716 0.0
C657 C 0.89479 0.78454 0.27409 0.0
C658 C 0.9486 0.85142 0.28023 0.0
C659 C 0.97552 0.83786 0.28165 0.0
C660 C 0.96155 0.79744 0.2802 0.0
C661 C 0.92166 0.77152 0.27591 0.0
C662 C 0.96237 0.89429 0.2808 0.0
C663 C 0.9888 0.78138 0.2828 0.0
C664 C 0.08131 0.89502 0.24261 0.0
C665 C 0.10072 0.90487 0.2871 0.0
C666 C 0.04054 0.87566 0.24026 0.0
C667 C 1.01844 0.86523 0.28347 0.0
C668 C 0.03794 0.8764 0.32847 0.0
C669 C 0.0788 0.8963 0.32972 0.0
C670 C 1.02111 0.86484 0.19148 0.0
C671 C 1.01567 0.86532 0.37545 0.0
H672 H 0.88772 0.83467 0.27582 0.0
H673 H 0.91139 0.74063 0.27447 0.0
H674 H 0.98095 0.90816 0.31281 0.0
H675 H 0.98042 0.90826 0.24834 0.0
H676 H 0.93788 0.90016 0.28133 0.0
H677 H 0.97309 0.74913 0.28383 0.0
H678 H 1.00839 0.79118 0.25096 0.0
H679 H 1.00727 0.7925 0.31546 0.0
H680 H 0.09807 0.90215 0.20949 0.0
H681 H 0.09357 0.90372 0.36424 0.0
H682 H 0.99803 0.87264 0.18928 0.0
H683 H 1.00709 0.83297 0.18632 0.0
H684 H 0.04204 0.87939 0.16148 0.0
H685 H 0.99236 0.87284 0.37465 0.0
H686 H 0.03474 0.87987 0.40695 0.0
H687 H 1.00153 0.83343 0.38064 0.0
C688 C 0.88275 0.11196 0.28188 0.0
C689 C 0.92074 0.14238 0.29072 0.0
C690 C 0.87243 0.073 0.28693 0.0
C691 C 0.90071 0.06349 0.30123 0.0
C692 C 0.93919 0.09383 0.3107 0.0
C693 C 0.94879 0.13308 0.30553 0.0
C694 C 0.831 0.04194 0.27654 0.0
C695 C 0.97017 0.08478 0.32579 0.0
C696 C 0.85078 0.95997 0.34829 0.0
C697 C 0.84745 0.93907 0.30599 0.0
C698 C 0.87125 1.00086 0.34852 0.0
C699 C 0.88894 0.02149 0.30545 0.0
C700 C 0.88814 1.00052 0.26367 0.0
C701 C 0.86735 0.95967 0.26441 0.0
C702 C 0.87115 0.02186 0.39384 0.0
C703 C 0.90669 0.02113 0.21701 0.0
H704 H 0.86051 0.11846 0.27089 0.0
H705 H 0.97816 0.15629 0.31238 0.0
H706 H 0.83037 0.02312 0.24659 0.0
H707 H 0.81809 0.02318 0.30874 0.0
H708 H 0.81239 0.05429 0.26641 0.0
H709 H 0.99848 0.11149 0.33249 0.0
H710 H 0.96104 0.06686 0.3591 0.0
H711 H 0.97415 0.06749 0.29728 0.0
H712 H 0.83551 0.94443 0.38061 0.0
H713 H 0.86572 0.9438 0.23184 0.0
H714 H 0.85052 0.03271 0.38942 0.0
H715 H 0.90028 0.04737 0.40049 0.0
H716 H 0.86222 1.00259 0.42603 0.0
H717 H 0.88867 0.03213 0.20047 0.0
H718 H 0.90942 1.00157 0.19067 0.0
H719 H 0.93589 0.04651 0.22373 0.0
C720 C 0.15666 0.25241 0.72744 0.0
C721 C 0.12943 0.24876 0.76241 0.0
C722 C 0.17117 0.22676 0.72589 0.0
C723 C 0.15829 0.19642 0.76021 0.0
C724 C 0.1297 0.19159 0.79462 0.0
C725 C 0.1155 0.21778 0.79526 0.0
C726 C 0.20139 0.23306 0.68837 0.0
C727 C 0.11511 0.15956 0.83175 0.0
C728 C 0.18222 0.11725 0.72892 0.0
C729 C 0.21697 0.12951 0.75439 0.0
C730 C 0.16186 0.13768 0.73211 0.0
C731 C 0.1766 0.17145 0.76118 0.0
C732 C 0.21112 0.18344 0.78784 0.0
C733 C 0.2307 0.16233 0.78429 0.0
C734 C 0.12518 0.12381 0.70314 0.0
C735 C 0.22803 0.21928 0.81918 0.0
H736 H 0.16738 0.27598 0.70152 0.0
H737 H 0.09456 0.21479 0.82244 0.0
H738 H 0.22912 0.24052 0.70643 0.0
H739 H 0.1921 0.206 0.66754 0.0
H740 H 0.20685 0.25673 0.66269 0.0
H741 H 0.09069 0.15765 0.85338 0.0
H742 H 0.10538 0.13119 0.81391 0.0
H743 H 0.13905 0.16477 0.85663 0.0
H744 H 0.17133 0.09216 0.70546 0.0
H745 H 0.25689 0.17163 0.80515 0.0
H746 H 0.13014 0.14517 0.67431 0.0
H747 H 0.10149 0.12159 0.72652 0.0
H748 H 0.11545 0.09511 0.68608 0.0
H749 H 0.23697 0.24533 0.79631 0.0
H750 H 0.25368 0.22342 0.83994 0.0
H751 H 0.20583 0.21752 0.84494 0.0
C752 C 0.12271 0.88233 0.73943 0.0
C753 C 0.14942 0.91182 0.76998 0.0
C754 C 0.08296 0.86941 0.74147 0.0
C755 C 0.06895 0.88648 0.77472 0.0
C756 C 0.09574 0.91734 0.80461 0.0
C757 C 0.13579 0.9297 0.80193 0.0
C758 C 0.0558 0.83664 0.7086 0.0
C759 C 0.08197 0.93658 0.84012 0.0
C760 C 0.96699 0.86273 0.7407 0.0
C761 C 0.9441 0.82915 0.76817 0.0
C762 C 1.00763 0.88378 0.74548 0.0
C763 C 0.02606 0.87072 0.77806 0.0
C764 C 1.00292 0.83811 0.80785 0.0
C765 C 0.96226 0.81786 0.80272 0.0
C766 C 0.03095 0.91862 0.71344 0.0
C767 C 1.02121 0.8229 0.84279 0.0
H768 H 0.13279 0.86857 0.71403 0.0
H769 H 0.15616 0.95251 0.82559 0.0
H770 H 0.03471 0.81148 0.7305 0.0
H771 H 0.03897 0.84595 0.68597 0.0
H772 H 0.07144 0.82681 0.68436 0.0
H773 H 0.10649 0.96225 0.85764 0.0
H774 H 0.06321 0.94587 0.82175 0.0
H775 H 0.06415 0.91547 0.86857 0.0
H776 H 0.95312 0.87213 0.71461 0.0
H777 H 0.94483 0.79197 0.82408 0.0
H778 H 0.04523 0.91087 0.68456 0.0
H779 H 0.05416 0.9429 0.73438 0.0
H780 H 1.01251 0.92882 0.69614 0.0
H781 H 0.03545 0.80947 0.82231 0.0
H782 H 0.99951 0.80075 0.8677 0.0
H783 H 0.04394 0.84697 0.86447 0.0
C784 C 0.92119 0.0757 0.815 0.0
C785 C 0.90746 0.09535 0.78624 0.0
C786 C 0.90243 0.03484 0.81562 0.0
C787 C 0.86885 1.0129 0.78711 0.0
C788 C 0.85542 0.03261 0.75713 0.0
C789 C 0.87492 0.07348 0.75692 0.0
C790 C 0.91795 1.01513 0.84777 0.0
C791 C 0.81961 1.01048 0.72637 0.0
C792 C 0.82734 0.90483 0.76043 0.0
C793 C 0.7954 0.88804 0.79176 0.0
C794 C 0.8526 0.94544 0.75966 0.0
C795 C 0.84586 0.96953 0.79134 0.0
C796 C 0.81497 0.95214 0.82506 0.0
C797 C 0.78991 0.91175 0.82441 0.0
C798 C 0.88495 0.96269 0.72291 0.0
C799 C 0.80695 0.97639 0.86007 0.0
H800 H 0.94668 0.09234 0.8372 0.0
H801 H 0.86392 0.08834 0.73487 0.0
H802 H 0.89654 0.99873 0.87661 0.0
H803 H 0.92227 0.99388 0.82669 0.0
H804 H 0.94591 0.03619 0.86494 0.0
H805 H 0.81433 0.02995 0.7028 0.0
H806 H 0.82234 0.98916 0.70334 0.0
H807 H 0.79386 0.99391 0.74992 0.0
H808 H 0.83107 0.88657 0.73446 0.0
H809 H 0.7649 0.89874 0.84826 0.0
H810 H 0.91261 0.98413 0.7402 0.0
H811 H 0.87814 0.97839 0.695 0.0
H812 H 0.88913 0.94015 0.70478 0.0
H813 H 0.83379 0.99672 0.8798 0.0
H814 H 0.78415 0.95827 0.88682 0.0
H815 H 0.79729 0.99414 0.83992 0.0
loop_
_geom_bond_atom_site_label_1
_geom_bond_atom_site_label_2
_geom_bond_distance
_geom_bond_site_symmetry_2
_ccdc_geom_bond_type
Nd0 C2 2.836 . S
Nd0 O20 2.500 . S
Nd0 O21 2.492 . S
Nd0 O22 2.487 . S
Nd0 O23 2.682 . S
Nd0 O24 2.410 . S
Nd0 O29 2.414 . S
Nd0 O31 2.424 . S
Nd1 C11 2.836 1_545 S
Nd1 O23 2.414 . S
Nd1 O25 2.424 . S
Nd1 O26 2.500 . S
Nd1 O27 2.492 1_545 S
Nd1 O28 2.487 . S
Nd1 O29 2.682 . S
Nd1 O30 2.410 . S
C2 Nd0 2.836 . S
C2 C3 1.498 . S
C2 O20 1.258 . S
C2 O21 1.239 . S
C3 C2 1.498 . S
C3 C4 1.366 . S
C3 C8 1.407 . S
C4 C3 1.366 . S
C4 C5 1.392 . S
C4 H32 0.930 . S
C5 C4 1.392 . S
C5 C6 1.398 . S
C5 H33 0.929 . S
C6 C5 1.398 . S
C6 C7 1.352 . S
C7 C6 1.352 . S
C7 C8 1.384 . S
C7 H34 0.930 . S
C8 C3 1.407 . S
C8 C7 1.384 . S
C8 H35 0.929 . S
C9 O22 1.241 . S
C9 O23 1.273 . S
C10 O24 1.251 . S
C10 O25 1.268 . S
C11 Nd1 2.836 1_565 S
C11 C12 1.498 . S
C11 O26 1.258 1_565 S
C11 O27 1.239 . S
C12 C11 1.498 . S
C12 C13 1.366 . S
C12 C17 1.407 . S
C13 C12 1.366 . S
C13 C14 1.392 . S
C13 H36 0.930 . S
C14 C13 1.392 . S
C14 C15 1.398 . S
C14 H37 0.929 . S
C15 C14 1.398 . S
C15 C16 1.352 . S
C16 C15 1.352 . S
C16 C17 1.384 . S
C16 H38 0.930 . S
C17 C12 1.407 . S
C17 C16 1.384 . S
C17 H39 0.929 . S
C18 O28 1.241 . S
C18 O29 1.273 . S
C19 O30 1.251 . S
C19 O31 1.268 . S
O20 Nd0 2.500 . S
O20 C2 1.258 . S
O21 Nd0 2.492 . S
O21 C2 1.239 . S
O22 Nd0 2.487 . S
O22 C9 1.241 . S
O23 Nd0 2.682 . S
O23 Nd1 2.414 . S
O23 C9 1.273 . S
O24 Nd0 2.410 . S
O24 C10 1.251 . S
O25 Nd1 2.424 . S
O25 C10 1.268 . S
O26 Nd1 2.500 . S
O26 C11 1.258 1_545 S
O27 Nd1 2.492 1_565 S
O27 C11 1.239 . S
O28 Nd1 2.487 . S
O28 C18 1.241 . S
O29 Nd0 2.414 . S
O29 Nd1 2.682 . S
O29 C18 1.273 . S
O30 Nd1 2.410 . S
O30 C19 1.251 . S
O31 Nd0 2.424 . S
O31 C19 1.268 . S
H32 C4 0.930 . S
H33 C5 0.929 . S
H34 C7 0.930 . S
H35 C8 0.929 . S
H36 C13 0.930 . S
H37 C14 0.929 . S
H38 C16 0.930 . S
H39 C17 0.929 . S
Nd40 C42 2.836 . S
Nd40 O60 2.500 . S
Nd40 O61 2.492 . S
Nd40 O62 2.487 . S
Nd40 O63 2.682 . S
Nd40 O64 2.410 . S
Nd40 O69 2.414 . S
Nd40 O71 2.424 . S
Nd41 C51 2.836 . S
Nd41 O63 2.414 . S
Nd41 O65 2.424 . S
Nd41 O66 2.500 . S
Nd41 O67 2.492 . S
Nd41 O68 2.487 . S
Nd41 O69 2.682 . S
Nd41 O70 2.410 . S
C42 Nd40 2.836 . S
C42 C43 1.498 . S
C42 O60 1.258 . S
C42 O61 1.239 . S
C43 C42 1.498 . S
C43 C44 1.366 . S
C43 C48 1.407 . S
C44 C43 1.366 . S
C44 C45 1.392 . S
C44 H72 0.930 . S
C45 C44 1.392 . S
C45 C46 1.398 . S
C45 H73 0.929 . S
C46 C45 1.398 . S
C46 C47 1.352 . S
C47 C46 1.352 . S
C47 C48 1.384 . S
C47 H74 0.930 . S
C48 C43 1.407 . S
C48 C47 1.384 . S
C48 H75 0.929 . S
C49 O62 1.241 . S
C49 O63 1.273 . S
C50 O64 1.251 . S
C50 O65 1.268 . S
C51 Nd41 2.836 . S
C51 C52 1.498 . S
C51 O66 1.258 . S
C51 O67 1.239 . S
C52 C51 1.498 . S
C52 C53 1.366 . S
C52 C57 1.407 . S
C53 C52 1.366 . S
C53 C54 1.392 . S
C53 H76 0.930 . S
C54 C53 1.392 . S
C54 C55 1.398 . S
C54 H77 0.929 . S
C55 C54 1.398 . S
C55 C56 1.352 . S
C56 C55 1.352 . S
C56 C57 1.384 . S
C56 H78 0.930 . S
C57 C52 1.407 . S
C57 C56 1.384 . S
C57 H79 0.929 . S
C58 O68 1.241 . S
C58 O69 1.273 . S
C59 O70 1.251 . S
C59 O71 1.268 . S
O60 Nd40 2.500 . S
O60 C42 1.258 . S
O61 Nd40 2.492 . S
O61 C42 1.239 . S
O62 Nd40 2.487 . S
O62 C49 1.241 . S
O63 Nd40 2.682 . S
O63 Nd41 2.414 . S
O63 C49 1.273 . S
O64 Nd40 2.410 . S
O64 C50 1.251 . S
O65 Nd41 2.424 . S
O65 C50 1.268 . S
O66 Nd41 2.500 . S
O66 C51 1.258 . S
O67 Nd41 2.492 . S
O67 C51 1.239 . S
O68 Nd41 2.487 . S
O68 C58 1.241 . S
O69 Nd40 2.414 . S
O69 Nd41 2.682 . S
O69 C58 1.273 . S
O70 Nd41 2.410 . S
O70 C59 1.251 . S
O71 Nd40 2.424 . S
O71 C59 1.268 . S
H72 C44 0.930 . S
H73 C45 0.929 . S
H74 C47 0.930 . S
H75 C48 0.929 . S
H76 C53 0.930 . S
H77 C54 0.929 . S
H78 C56 0.930 . S
H79 C57 0.929 . S
Nd80 C82 2.836 . S
Nd80 O100 2.500 . S
Nd80 O101 2.492 . S
Nd80 O102 2.487 . S
Nd80 O103 2.682 . S
Nd80 O104 2.410 . S
Nd80 O109 2.414 . S
Nd80 O111 2.424 . S
Nd81 C91 2.836 1_655 S
Nd81 O103 2.414 . S
Nd81 O105 2.424 . S
Nd81 O106 2.500 . S
Nd81 O107 2.492 1_655 S
Nd81 O108 2.487 . S
Nd81 O109 2.682 . S
Nd81 O110 2.410 . S
C82 Nd80 2.836 . S
C82 C83 1.498 . S
C82 O100 1.258 . S
C82 O101 1.239 . S
C83 C82 1.498 . S
C83 C84 1.366 . S
C83 C88 1.407 . S
C84 C83 1.366 . S
C84 C85 1.392 . S
C84 H112 0.930 . S
C85 C84 1.392 . S
C85 C86 1.398 . S
C85 H113 0.929 . S
C86 C85 1.398 . S
C86 C87 1.352 . S
C87 C86 1.352 . S
C87 C88 1.384 . S
C87 H114 0.930 . S
C88 C83 1.407 . S
C88 C87 1.384 . S
C88 H115 0.929 . S
C89 O102 1.241 . S
C89 O103 1.273 . S
C90 O104 1.251 . S
C90 O105 1.268 . S
C91 Nd81 2.836 1_455 S
C91 C92 1.498 . S
C91 O106 1.258 1_455 S
C91 O107 1.239 . S
C92 C91 1.498 . S
C92 C93 1.366 . S
C92 C97 1.407 . S
C93 C92 1.366 . S
C93 C94 1.392 . S
C93 H116 0.930 . S
C94 C93 1.392 . S
C94 C95 1.398 . S
C94 H117 0.929 . S
C95 C94 1.398 . S
C95 C96 1.352 . S
C96 C95 1.352 . S
C96 C97 1.384 . S
C96 H118 0.930 . S
C97 C92 1.407 . S
C97 C96 1.384 . S
C97 H119 0.929 . S
C98 O108 1.241 . S
C98 O109 1.273 . S
C99 O110 1.251 . S
C99 O111 1.268 . S
O100 Nd80 2.500 . S
O100 C82 1.258 . S
O101 Nd80 2.492 . S
O101 C82 1.239 . S
O102 Nd80 2.487 . S
O102 C89 1.241 . S
O103 Nd80 2.682 . S
O103 Nd81 2.414 . S
O103 C89 1.273 . S
O104 Nd80 2.410 . S
O104 C90 1.251 . S
O105 Nd81 2.424 . S
O105 C90 1.268 . S
O106 Nd81 2.500 . S
O106 C91 1.258 1_655 S
O107 Nd81 2.492 1_455 S
O107 C91 1.239 . S
O108 Nd81 2.487 . S
O108 C98 1.241 . S
O109 Nd80 2.414 . S
O109 Nd81 2.682 . S
O109 C98 1.273 . S
O110 Nd81 2.410 . S
O110 C99 1.251 . S
O111 Nd80 2.424 . S
O111 C99 1.268 . S
H112 C84 0.930 . S
H113 C85 0.929 . S
H114 C87 0.930 . S
H115 C88 0.929 . S
H116 C93 0.930 . S
H117 C94 0.929 . S
H118 C96 0.930 . S
H119 C97 0.929 . S
Nd120 C122 2.836 1_455 S
Nd120 O140 2.500 . S
Nd120 O141 2.492 1_455 S
Nd120 O142 2.487 . S
Nd120 O143 2.682 . S
Nd120 O144 2.410 . S
Nd120 O149 2.414 . S
Nd120 O151 2.424 . S
Nd121 C131 2.836 . S
Nd121 O143 2.414 . S
Nd121 O145 2.424 . S
Nd121 O146 2.500 . S
Nd121 O147 2.492 . S
Nd121 O148 2.487 . S
Nd121 O149 2.682 . S
Nd121 O150 2.410 . S
C122 Nd120 2.836 1_655 S
C122 C123 1.498 . S
C122 O140 1.258 1_655 S
C122 O141 1.239 . S
C123 C122 1.498 . S
C123 C124 1.366 . S
C123 C128 1.407 . S
C124 C123 1.366 . S
C124 C125 1.392 . S
C124 H152 0.930 . S
C125 C124 1.392 . S
C125 C126 1.398 . S
C125 H153 0.929 . S
C126 C125 1.398 . S
C126 C127 1.352 . S
C127 C126 1.352 . S
C127 C128 1.384 . S
C127 H154 0.930 . S
C128 C123 1.407 . S
C128 C127 1.384 . S
C128 H155 0.929 . S
C129 O142 1.241 . S
C129 O143 1.273 . S
C130 O144 1.251 . S
C130 O145 1.268 . S
C131 Nd121 2.836 . S
C131 C132 1.498 . S
C131 O146 1.258 . S
C131 O147 1.239 . S
C132 C131 1.498 . S
C132 C133 1.366 . S
C132 C137 1.407 . S
C133 C132 1.366 . S
C133 C134 1.392 . S
C133 H156 0.930 . S
C134 C133 1.392 . S
C134 C135 1.398 . S
C134 H157 0.929 . S
C135 C134 1.398 . S
C135 C136 1.352 . S
C136 C135 1.352 . S
C136 C137 1.384 . S
C136 H158 0.930 . S
C137 C132 1.407 . S
C137 C136 1.384 . S
C137 H159 0.929 . S
C138 O148 1.241 . S
C138 O149 1.273 . S
C139 O150 1.251 . S
C139 O151 1.268 . S
O140 Nd120 2.500 . S
O140 C122 1.258 1_455 S
O141 Nd120 2.492 1_655 S
O141 C122 1.239 . S
O142 Nd120 2.487 . S
O142 C129 1.241 . S
O143 Nd120 2.682 . S
O143 Nd121 2.414 . S
O143 C129 1.273 . S
O144 Nd120 2.410 . S
O144 C130 1.251 . S
O145 Nd121 2.424 . S
O145 C130 1.268 . S
O146 Nd121 2.500 . S
O146 C131 1.258 . S
O147 Nd121 2.492 . S
O147 C131 1.239 . S
O148 Nd121 2.487 . S
O148 C138 1.241 . S
O149 Nd120 2.414 . S
O149 Nd121 2.682 . S
O149 C138 1.273 . S
O150 Nd121 2.410 . S
O150 C139 1.251 . S
O151 Nd120 2.424 . S
O151 C139 1.268 . S
H152 C124 0.930 . S
H153 C125 0.929 . S
H154 C127 0.930 . S
H155 C128 0.929 . S
H156 C133 0.930 . S
H157 C134 0.929 . S
H158 C136 0.930 . S
H159 C137 0.929 . S
Nd160 C162 2.836 1_565 S
Nd160 O180 2.500 . S
Nd160 O181 2.492 1_565 S
Nd160 O182 2.487 . S
Nd160 O183 2.682 . S
Nd160 O184 2.410 . S
Nd160 O189 2.414 . S
Nd160 O191 2.424 . S
Nd161 C171 2.836 . S
Nd161 O183 2.414 . S
Nd161 O185 2.424 . S
Nd161 O186 2.500 . S
Nd161 O187 2.492 . S
Nd161 O188 2.487 . S
Nd161 O189 2.682 . S
Nd161 O190 2.410 . S
C162 Nd160 2.836 1_545 S
C162 C163 1.498 . S
C162 O180 1.258 1_545 S
C162 O181 1.239 . S
C163 C162 1.498 . S
C163 C164 1.366 . S
C163 C168 1.407 . S
C164 C163 1.366 . S
C164 C165 1.392 . S
C164 H192 0.930 . S
C165 C164 1.392 . S
C165 C166 1.398 . S
C165 H193 0.929 . S
C166 C165 1.398 . S
C166 C167 1.352 . S
C167 C166 1.352 . S
C167 C168 1.384 . S
C167 H194 0.930 . S
C168 C163 1.407 . S
C168 C167 1.384 . S
C168 H195 0.929 . S
C169 O182 1.241 . S
C169 O183 1.273 . S
C170 O184 1.251 . S
C170 O185 1.268 . S
C171 Nd161 2.836 . S
C171 C172 1.498 . S
C171 O186 1.258 . S
C171 O187 1.239 . S
C172 C171 1.498 . S
C172 C173 1.366 . S
C172 C177 1.407 . S
C173 C172 1.366 . S
C173 C174 1.392 . S
C173 H196 0.930 . S
C174 C173 1.392 . S
C174 C175 1.398 . S
C174 H197 0.929 . S
C175 C174 1.398 . S
C175 C176 1.352 . S
C176 C175 1.352 . S
C176 C177 1.384 . S
C176 H198 0.930 . S
C177 C172 1.407 . S
C177 C176 1.384 . S
C177 H199 0.929 . S
C178 O188 1.241 . S
C178 O189 1.273 . S
C179 O190 1.251 . S
C179 O191 1.268 . S
O180 Nd160 2.500 . S
O180 C162 1.258 1_565 S
O181 Nd160 2.492 1_545 S
O181 C162 1.239 . S
O182 Nd160 2.487 . S
O182 C169 1.241 . S
O183 Nd160 2.682 . S
O183 Nd161 2.414 . S
O183 C169 1.273 . S
O184 Nd160 2.410 . S
O184 C170 1.251 . S
O185 Nd161 2.424 . S
O185 C170 1.268 . S
O186 Nd161 2.500 . S
O186 C171 1.258 . S
O187 Nd161 2.492 . S
O187 C171 1.239 . S
O188 Nd161 2.487 . S
O188 C178 1.241 . S
O189 Nd160 2.414 . S
O189 Nd161 2.682 . S
O189 C178 1.273 . S
O190 Nd161 2.410 . S
O190 C179 1.251 . S
O191 Nd160 2.424 . S
O191 C179 1.268 . S
H192 C164 0.930 . S
H193 C165 0.929 . S
H194 C167 0.930 . S
H195 C168 0.929 . S
H196 C173 0.930 . S
H197 C174 0.929 . S
H198 C176 0.930 . S
H199 C177 0.929 . S
Nd200 C202 2.836 . S
Nd200 O220 2.500 . S
Nd200 O221 2.492 . S
Nd200 O222 2.487 . S
Nd200 O223 2.682 . S
Nd200 O224 2.410 . S
Nd200 O229 2.414 . S
Nd200 O231 2.424 . S
Nd201 C211 2.836 . S
Nd201 O223 2.414 . S
Nd201 O225 2.424 . S
Nd201 O226 2.500 . S
Nd201 O227 2.492 . S
Nd201 O228 2.487 . S
Nd201 O229 2.682 . S
Nd201 O230 2.410 . S
C202 Nd200 2.836 . S
C202 C203 1.498 . S
C202 O220 1.258 . S
C202 O221 1.239 . S
C203 C202 1.498 . S
C203 C204 1.366 . S
C203 C208 1.407 . S
C204 C203 1.366 . S
C204 C205 1.392 . S
C204 H232 0.930 . S
C205 C204 1.392 . S
C205 C206 1.398 . S
C205 H233 0.929 . S
C206 C205 1.398 . S
C206 C207 1.352 . S
C207 C206 1.352 . S
C207 C208 1.384 . S
C207 H234 0.930 . S
C208 C203 1.407 . S
C208 C207 1.384 . S
C208 H235 0.929 . S
C209 O222 1.241 . S
C209 O223 1.273 . S
C210 O224 1.251 . S
C210 O225 1.268 . S
C211 Nd201 2.836 . S
C211 C212 1.498 . S
C211 O226 1.258 . S
C211 O227 1.239 . S
C212 C211 1.498 . S
C212 C213 1.366 . S
C212 C217 1.407 . S
C213 C212 1.366 . S
C213 C214 1.392 . S
C213 H236 0.930 . S
C214 C213 1.392 . S
C214 C215 1.398 . S
C214 H237 0.929 . S
C215 C214 1.398 . S
C215 C216 1.352 . S
C216 C215 1.352 . S
C216 C217 1.384 . S
C216 H238 0.930 . S
C217 C212 1.407 . S
C217 C216 1.384 . S
C217 H239 0.929 . S
C218 O228 1.241 . S
C218 O229 1.273 . S
C219 O230 1.251 . S
C219 O231 1.268 . S
O220 Nd200 2.500 . S
O220 C202 1.258 . S
O221 Nd200 2.492 . S
O221 C202 1.239 . S
O222 Nd200 2.487 . S
O222 C209 1.241 . S
O223 Nd200 2.682 . S
O223 Nd201 2.414 . S
O223 C209 1.273 . S
O224 Nd200 2.410 . S
O224 C210 1.251 . S
O225 Nd201 2.424 . S
O225 C210 1.268 . S
O226 Nd201 2.500 . S
O226 C211 1.258 . S
O227 Nd201 2.492 . S
O227 C211 1.239 . S
O228 Nd201 2.487 . S
O228 C218 1.241 . S
O229 Nd200 2.414 . S
O229 Nd201 2.682 . S
O229 C218 1.273 . S
O230 Nd201 2.410 . S
O230 C219 1.251 . S
O231 Nd200 2.424 . S
O231 C219 1.268 . S
H232 C204 0.930 . S
H233 C205 0.929 . S
H234 C207 0.930 . S
H235 C208 0.929 . S
H236 C213 0.930 . S
H237 C214 0.929 . S
H238 C216 0.930 . S
H239 C217 0.929 . S
C240 C241 1.391 . S
C240 C242 1.394 . S
C240 H256 0.931 . S
C241 C240 1.391 . S
C241 C245 1.376 . S
C242 C240 1.394 . S
C242 C243 1.369 . S
C242 C246 1.531 1_556 S
C243 C242 1.369 . S
C243 C244 1.410 . S
C243 C251 1.503 1_566 S
C244 C243 1.410 . S
C244 C245 1.392 . S
C244 C247 1.511 . S
C245 C241 1.376 . S
C245 C244 1.392 . S
C245 H257 0.929 . S
C246 C242 1.531 1_554 S
C246 H258 0.960 . S
C246 H259 0.962 1_554 S
C246 H260 0.960 . S
C247 C244 1.511 . S
C247 H261 0.961 . S
C247 H262 0.961 1_565 S
C247 H263 0.961 . S
C248 C249 1.370 . S
C248 C250 1.363 . S
C248 H264 0.931 . S
C249 C248 1.370 . S
C249 C253 1.408 . S
C250 C248 1.363 . S
C250 C251 1.370 . S
C250 C254 1.524 1_554 S
C251 C243 1.503 1_544 S
C251 C250 1.370 . S
C251 C252 1.403 . S
C252 C251 1.403 . S
C252 C253 1.404 . S
C252 C255 1.539 1_545 S
C253 C249 1.408 . S
C253 C252 1.404 . S
C253 H265 0.930 . S
C254 C250 1.524 1_556 S
C254 H266 0.956 . S
C254 H267 0.961 . S
C254 H268 0.961 . S
C255 C252 1.539 1_565 S
C255 H269 0.958 . S
C255 H270 0.961 . S
C255 H271 0.960 . S
H256 C240 0.931 . S
H257 C245 0.929 . S
H258 C246 0.960 . S
H259 C246 0.962 1_556 S
H260 C246 0.960 . S
H261 C247 0.961 . S
H262 C247 0.961 1_545 S
H263 C247 0.961 . S
H264 C248 0.931 . S
H265 C253 0.930 . S
H266 C254 0.956 . S
H267 C254 0.961 . S
H268 C254 0.961 . S
H269 C255 0.958 . S
H270 C255 0.961 . S
H271 C255 0.960 . S
C272 C273 1.391 . S
C272 C274 1.394 . S
C272 H288 0.931 . S
C273 C272 1.391 . S
C273 C277 1.376 . S
C274 C272 1.394 . S
C274 C275 1.369 . S
C274 C278 1.531 . S
C275 C274 1.369 . S
C275 C276 1.410 . S
C275 C283 1.503 . S
C276 C275 1.410 . S
C276 C277 1.392 . S
C276 C279 1.511 . S
C277 C273 1.376 . S
C277 C276 1.392 . S
C277 H289 0.929 . S
C278 C274 1.531 . S
C278 H290 0.960 . S
C278 H291 0.962 . S
C278 H292 0.960 . S
C279 C276 1.511 . S
C279 H293 0.961 . S
C279 H294 0.961 . S
C279 H295 0.961 . S
C280 C281 1.370 . S
C280 C282 1.363 . S
C280 H296 0.931 . S
C281 C280 1.370 . S
C281 C285 1.408 . S
C282 C280 1.363 . S
C282 C283 1.370 . S
C282 C286 1.524 . S
C283 C275 1.503 . S
C283 C282 1.370 . S
C283 C284 1.403 . S
C284 C283 1.403 . S
C284 C285 1.404 . S
C284 C287 1.539 . S
C285 C281 1.408 . S
C285 C284 1.404 . S
C285 H297 0.930 . S
C286 C282 1.524 . S
C286 H298 0.956 . S
C286 H299 0.961 . S
C286 H300 0.961 . S
C287 C284 1.539 . S
C287 H301 0.958 . S
C287 H302 0.961 . S
C287 H303 0.960 . S
H288 C272 0.931 . S
H289 C277 0.929 . S
H290 C278 0.960 . S
H291 C278 0.962 . S
H292 C278 0.960 . S
H293 C279 0.961 . S
H294 C279 0.961 . S
H295 C279 0.961 . S
H296 C280 0.931 . S
H297 C285 0.930 . S
H298 C286 0.956 . S
H299 C286 0.961 . S
H300 C286 0.961 . S
H301 C287 0.958 . S
H302 C287 0.961 . S
H303 C287 0.960 . S
C304 C305 1.391 . S
C304 C306 1.394 . S
C304 H320 0.931 . S
C305 C304 1.391 . S
C305 C309 1.376 . S
C306 C304 1.394 . S
C306 C307 1.369 . S
C306 C310 1.531 1_655 S
C307 C306 1.369 . S
C307 C308 1.410 . S
C307 C315 1.503 1_654 S
C308 C307 1.410 . S
C308 C309 1.392 . S
C308 C311 1.511 1_554 S
C309 C305 1.376 . S
C309 C308 1.392 . S
C309 H321 0.929 . S
C310 C306 1.531 1_455 S
C310 H322 0.960 . S
C310 H323 0.962 . S
C310 H324 0.960 . S
C311 C308 1.511 1_556 S
C311 H325 0.961 . S
C311 H326 0.961 . S
C311 H327 0.961 . S
C312 C313 1.370 . S
C312 C314 1.363 . S
C312 H328 0.931 . S
C313 C312 1.370 . S
C313 C317 1.408 . S
C314 C312 1.363 . S
C314 C315 1.370 . S
C314 C318 1.524 . S
C315 C307 1.503 1_456 S
C315 C314 1.370 . S
C315 C316 1.403 . S
C316 C315 1.403 . S
C316 C317 1.404 . S
C316 C319 1.540 1_455 S
C317 C313 1.408 . S
C317 C316 1.404 . S
C317 H329 0.930 . S
C318 C314 1.524 . S
C318 H330 0.956 1_556 S
C318 H331 0.961 1_455 S
C318 H332 0.961 . S
C319 C316 1.540 1_655 S
C319 H333 0.947 1_655 S
C319 H334 0.958 . S
C319 H335 0.973 . S
H320 C304 0.931 . S
H321 C309 0.929 . S
H322 C310 0.960 . S
H323 C310 0.962 . S
H324 C310 0.960 . S
H325 C311 0.961 . S
H326 C311 0.961 . S
H327 C311 0.961 . S
H328 C312 0.931 . S
H329 C317 0.930 . S
H330 C318 0.956 1_554 S
H331 C318 0.961 1_655 S
H332 C318 0.961 . S
H333 C319 0.947 1_455 S
H334 C319 0.958 . S
H335 C319 0.973 . S
C336 C337 1.391 . S
C336 C338 1.394 . S
C336 H352 0.931 . S
C337 C336 1.391 . S
C337 C341 1.376 . S
C338 C336 1.394 . S
C338 C339 1.369 . S
C338 C342 1.531 . S
C339 C338 1.369 . S
C339 C340 1.410 . S
C339 C347 1.503 1_545 S
C340 C339 1.410 . S
C340 C341 1.392 . S
C340 C343 1.511 . S
C341 C337 1.376 . S
C341 C340 1.392 . S
C341 H353 0.929 . S
C342 C338 1.531 . S
C342 H354 0.960 . S
C342 H355 0.962 . S
C342 H356 0.960 . S
C343 C340 1.511 . S
C343 H357 0.961 . S
C343 H358 0.961 1_545 S
C343 H359 0.961 . S
C344 C345 1.370 . S
C344 C346 1.363 . S
C344 H360 0.931 . S
C345 C344 1.370 . S
C345 C349 1.408 . S
C346 C344 1.363 . S
C346 C347 1.370 . S
C346 C350 1.524 . S
C347 C339 1.503 1_565 S
C347 C346 1.370 . S
C347 C348 1.403 . S
C348 C347 1.403 . S
C348 C349 1.404 . S
C348 C351 1.539 1_565 S
C349 C345 1.408 . S
C349 C348 1.404 . S
C349 H361 0.930 . S
C350 C346 1.524 . S
C350 H362 0.956 . S
C350 H363 0.961 . S
C350 H364 0.961 . S
C351 C348 1.539 1_545 S
C351 H365 0.958 . S
C351 H366 0.961 . S
C351 H367 0.960 . S
H352 C336 0.931 . S
H353 C341 0.929 . S
H354 C342 0.960 . S
H355 C342 0.962 . S
H356 C342 0.960 . S
H357 C343 0.961 . S
H358 C343 0.961 1_565 S
H359 C343 0.961 . S
H360 C344 0.931 . S
H361 C349 0.930 . S
H362 C350 0.956 . S
H363 C350 0.961 . S
H364 C350 0.961 . S
H365 C351 0.958 . S
H366 C351 0.961 . S
H367 C351 0.960 . S
C368 C369 1.391 . S
C368 C370 1.394 . S
C368 H384 0.931 . S
C369 C368 1.391 . S
C369 C373 1.376 . S
C370 C368 1.394 . S
C370 C371 1.369 . S
C370 C374 1.531 1_556 S
C371 C370 1.369 . S
C371 C372 1.410 . S
C371 C379 1.503 1_556 S
C372 C371 1.410 . S
C372 C373 1.392 . S
C372 C375 1.511 . S
C373 C369 1.376 . S
C373 C372 1.392 . S
C373 H385 0.929 . S
C374 C370 1.531 1_554 S
C374 H386 0.960 . S
C374 H387 0.962 . S
C374 H388 0.960 . S
C375 C372 1.511 . S
C375 H389 0.961 . S
C375 H390 0.961 . S
C375 H391 0.961 . S
C376 C377 1.370 . S
C376 C378 1.363 . S
C376 H392 0.931 . S
C377 C376 1.370 . S
C377 C381 1.408 . S
C378 C376 1.363 . S
C378 C379 1.370 . S
C378 C382 1.524 . S
C379 C371 1.503 1_554 S
C379 C378 1.370 . S
C379 C380 1.403 . S
C380 C379 1.403 . S
C380 C381 1.404 . S
C380 C383 1.539 1_554 S
C381 C377 1.408 . S
C381 C380 1.404 . S
C381 H393 0.930 . S
C382 C378 1.524 . S
C382 H394 0.956 . S
C382 H395 0.961 . S
C382 H396 0.961 . S
C383 C380 1.539 1_556 S
C383 H397 0.958 . S
C383 H398 0.961 . S
C383 H399 0.960 . S
H384 C368 0.931 . S
H385 C373 0.929 . S
H386 C374 0.960 . S
H387 C374 0.962 . S
H388 C374 0.960 . S
H389 C375 0.961 . S
H390 C375 0.961 . S
H391 C375 0.961 . S
H392 C376 0.931 . S
H393 C381 0.930 . S
H394 C382 0.956 . S
H395 C382 0.961 . S
H396 C382 0.961 . S
H397 C383 0.958 . S
H398 C383 0.961 . S
H399 C383 0.960 . S
C400 C401 1.391 . S
C400 C402 1.394 . S
C400 H416 0.931 . S
C401 C400 1.391 . S
C401 C405 1.376 . S
C402 C400 1.394 . S
C402 C403 1.369 . S
C402 C406 1.531 . S
C403 C402 1.369 . S
C403 C404 1.410 . S
C403 C411 1.503 1_655 S
C404 C403 1.410 . S
C404 C405 1.392 . S
C404 C407 1.511 1_655 S
C405 C401 1.376 . S
C405 C404 1.392 . S
C405 H417 0.929 . S
C406 C402 1.531 . S
C406 H418 0.960 . S
C406 H419 0.962 . S
C406 H420 0.960 . S
C407 C404 1.511 1_455 S
C407 H421 0.961 . S
C407 H422 0.961 . S
C407 H423 0.961 . S
C408 C409 1.370 . S
C408 C410 1.363 . S
C408 H424 0.931 . S
C409 C408 1.370 . S
C409 C413 1.408 . S
C410 C408 1.363 . S
C410 C411 1.370 . S
C410 C414 1.524 1_455 S
C411 C403 1.503 1_455 S
C411 C410 1.370 . S
C411 C412 1.403 . S
C412 C411 1.403 . S
C412 C413 1.404 . S
C412 C415 1.539 . S
C413 C409 1.408 . S
C413 C412 1.404 . S
C413 H425 0.930 . S
C414 C410 1.524 1_655 S
C414 H426 0.956 . S
C414 H427 0.961 . S
C414 H428 0.961 . S
C415 C412 1.539 . S
C415 H429 0.958 . S
C415 H430 0.961 . S
C415 H431 0.960 . S
H416 C400 0.931 . S
H417 C405 0.929 . S
H418 C406 0.960 . S
H419 C406 0.962 . S
H420 C406 0.960 . S
H421 C407 0.961 . S
H422 C407 0.961 . S
H423 C407 0.961 . S
H424 C408 0.931 . S
H425 C413 0.930 . S
H426 C414 0.956 . S
H427 C414 0.961 . S
H428 C414 0.961 . S
H429 C415 0.958 . S
H430 C415 0.961 . S
H431 C415 0.960 . S
C432 C433 1.391 . S
C432 C434 1.394 . S
C432 H448 0.931 . S
C433 C432 1.391 . S
C433 C437 1.376 . S
C434 C432 1.394 . S
C434 C435 1.369 . S
C434 C438 1.531 . S
C435 C434 1.369 . S
C435 C436 1.410 . S
C435 C443 1.503 . S
C436 C435 1.410 . S
C436 C437 1.392 . S
C436 C439 1.511 . S
C437 C433 1.376 . S
C437 C436 1.392 . S
C437 H449 0.929 . S
C438 C434 1.531 . S
C438 H450 0.960 . S
C438 H451 0.962 . S
C438 H452 0.960 . S
C439 C436 1.511 . S
C439 H453 0.961 . S
C439 H454 0.961 . S
C439 H455 0.961 . S
C440 C441 1.370 . S
C440 C442 1.363 . S
C440 H456 0.931 . S
C441 C440 1.370 . S
C441 C445 1.408 . S
C442 C440 1.363 . S
C442 C443 1.370 . S
C442 C446 1.524 . S
C443 C435 1.503 . S
C443 C442 1.370 . S
C443 C444 1.403 . S
C444 C443 1.403 . S
C444 C445 1.404 . S
C444 C447 1.539 . S
C445 C441 1.408 . S
C445 C444 1.404 . S
C445 H457 0.930 . S
C446 C442 1.524 . S
C446 H458 0.956 . S
C446 H459 0.961 . S
C446 H460 0.961 . S
C447 C444 1.539 . S
C447 H461 0.958 . S
C447 H462 0.961 . S
C447 H463 0.960 . S
H448 C432 0.931 . S
H449 C437 0.929 . S
H450 C438 0.960 . S
H451 C438 0.962 . S
H452 C438 0.960 . S
H453 C439 0.961 . S
H454 C439 0.961 . S
H455 C439 0.961 . S
H456 C440 0.931 . S
H457 C445 0.930 . S
H458 C446 0.956 . S
H459 C446 0.961 . S
H460 C446 0.961 . S
H461 C447 0.958 . S
H462 C447 0.961 . S
H463 C447 0.960 . S
C464 C465 1.391 . S
C464 C466 1.394 . S
C464 H480 0.931 . S
C465 C464 1.391 . S
C465 C469 1.376 . S
C466 C464 1.394 . S
C466 C467 1.369 . S
C466 C470 1.531 . S
C467 C466 1.369 . S
C467 C468 1.410 . S
C467 C475 1.503 . S
C468 C467 1.410 . S
C468 C469 1.392 . S
C468 C471 1.511 . S
C469 C465 1.376 . S
C469 C468 1.392 . S
C469 H481 0.929 . S
C470 C466 1.531 . S
C470 H482 0.960 . S
C470 H483 0.962 . S
C470 H484 0.960 . S
C471 C468 1.511 . S
C471 H485 0.961 . S
C471 H486 0.961 . S
C471 H487 0.961 . S
C472 C473 1.370 . S
C472 C474 1.363 . S
C472 H488 0.931 . S
C473 C472 1.370 . S
C473 C477 1.408 . S
C474 C472 1.363 . S
C474 C475 1.370 . S
C474 C478 1.524 . S
C475 C467 1.503 . S
C475 C474 1.370 . S
C475 C476 1.403 . S
C476 C475 1.403 . S
C476 C477 1.404 . S
C476 C479 1.539 . S
C477 C473 1.408 . S
C477 C476 1.404 . S
C477 H489 0.930 . S
C478 C474 1.524 . S
C478 H490 0.956 . S
C478 H491 0.961 . S
C478 H492 0.961 . S
C479 C476 1.539 . S
C479 H493 0.958 . S
C479 H494 0.961 . S
C479 H495 0.960 . S
H480 C464 0.931 . S
H481 C469 0.929 . S
H482 C470 0.960 . S
H483 C470 0.962 . S
H484 C470 0.960 . S
H485 C471 0.961 . S
H486 C471 0.961 . S
H487 C471 0.961 . S
H488 C472 0.931 . S
H489 C477 0.930 . S
H490 C478 0.956 . S
H491 C478 0.961 . S
H492 C478 0.961 . S
H493 C479 0.958 . S
H494 C479 0.961 . S
H495 C479 0.960 . S
C496 C497 1.391 . S
C496 C498 1.394 . S
C496 H512 0.931 . S
C497 C496 1.391 . S
C497 C501 1.376 . S
C498 C496 1.394 . S
C498 C499 1.369 . S
C498 C502 1.531 . S
C499 C498 1.369 . S
C499 C500 1.410 . S
C499 C507 1.503 . S
C500 C499 1.410 . S
C500 C501 1.392 . S
C500 C503 1.511 . S
C501 C497 1.376 . S
C501 C500 1.392 . S
C501 H513 0.929 . S
C502 C498 1.531 . S
C502 H514 0.960 . S
C502 H515 0.962 . S
C502 H516 0.960 . S
C503 C500 1.511 . S
C503 H517 0.961 . S
C503 H518 0.961 . S
C503 H519 0.961 . S
C504 C505 1.370 . S
C504 C506 1.363 . S
C504 H520 0.931 . S
C505 C504 1.370 . S
C505 C509 1.408 . S
C506 C504 1.363 . S
C506 C507 1.370 . S
C506 C510 1.524 . S
C507 C499 1.503 . S
C507 C506 1.370 . S
C507 C508 1.403 . S
C508 C507 1.403 . S
C508 C509 1.404 . S
C508 C511 1.539 . S
C509 C505 1.408 . S
C509 C508 1.404 . S
C509 H521 0.930 . S
C510 C506 1.524 . S
C510 H522 0.956 . S
C510 H523 0.961 . S
C510 H524 0.961 . S
C511 C508 1.539 . S
C511 H525 0.958 . S
C511 H526 0.961 . S
C511 H527 0.960 . S
H512 C496 0.931 . S
H513 C501 0.929 . S
H514 C502 0.960 . S
H515 C502 0.962 . S
H516 C502 0.960 . S
H517 C503 0.961 . S
H518 C503 0.961 . S
H519 C503 0.961 . S
H520 C504 0.931 . S
H521 C509 0.930 . S
H522 C510 0.956 . S
H523 C510 0.961 . S
H524 C510 0.961 . S
H525 C511 0.958 . S
H526 C511 0.961 . S
H527 C511 0.960 . S
C528 C529 1.391 . S
C528 C530 1.394 . S
C528 H544 0.931 . S
C529 C528 1.391 . S
C529 C533 1.376 . S
C530 C528 1.394 . S
C530 C531 1.369 . S
C530 C534 1.531 . S
C531 C530 1.369 . S
C531 C532 1.410 . S
C531 C539 1.503 . S
C532 C531 1.410 . S
C532 C533 1.392 . S
C532 C535 1.511 . S
C533 C529 1.376 . S
C533 C532 1.392 . S
C533 H545 0.929 . S
C534 C530 1.531 . S
C534 H546 0.960 . S
C534 H547 0.962 . S
C534 H548 0.960 . S
C535 C532 1.511 . S
C535 H549 0.961 . S
C535 H550 0.961 . S
C535 H551 0.961 . S
C536 C537 1.370 . S
C536 C538 1.363 . S
C536 H552 0.931 . S
C537 C536 1.370 . S
C537 C541 1.408 . S
C538 C536 1.363 . S
C538 C539 1.370 . S
C538 C542 1.524 . S
C539 C531 1.503 . S
C539 C538 1.370 . S
C539 C540 1.403 . S
C540 C539 1.403 . S
C540 C541 1.404 . S
C540 C543 1.539 . S
C541 C537 1.408 . S
C541 C540 1.404 . S
C541 H553 0.930 . S
C542 C538 1.524 . S
C542 H554 0.956 . S
C542 H555 0.961 . S
C542 H556 0.961 . S
C543 C540 1.539 . S
C543 H557 0.958 . S
C543 H558 0.961 . S
C543 H559 0.960 . S
H544 C528 0.931 . S
H545 C533 0.929 . S
H546 C534 0.960 . S
H547 C534 0.962 . S
H548 C534 0.960 . S
H549 C535 0.961 . S
H550 C535 0.961 . S
H551 C535 0.961 . S
H552 C536 0.931 . S
H553 C541 0.930 . S
H554 C542 0.956 . S
H555 C542 0.961 . S
H556 C542 0.961 . S
H557 C543 0.958 . S
H558 C543 0.961 . S
H559 C543 0.960 . S
C560 C561 1.391 . S
C560 C562 1.394 . S
C560 H576 0.931 . S
C561 C560 1.391 . S
C561 C565 1.376 . S
C562 C560 1.394 . S
C562 C563 1.369 . S
C562 C566 1.531 . S
C563 C562 1.369 . S
C563 C564 1.410 . S
C563 C571 1.503 . S
C564 C563 1.410 . S
C564 C565 1.392 . S
C564 C567 1.511 . S
C565 C561 1.376 . S
C565 C564 1.392 . S
C565 H577 0.929 . S
C566 C562 1.531 . S
C566 H578 0.960 . S
C566 H579 0.962 . S
C566 H580 0.960 . S
C567 C564 1.511 . S
C567 H581 0.961 . S
C567 H582 0.961 . S
C567 H583 0.961 . S
C568 C569 1.370 . S
C568 C570 1.363 . S
C568 H584 0.931 . S
C569 C568 1.370 . S
C569 C573 1.408 . S
C570 C568 1.363 . S
C570 C571 1.370 . S
C570 C574 1.524 . S
C571 C563 1.503 . S
C571 C570 1.370 . S
C571 C572 1.403 . S
C572 C571 1.403 . S
C572 C573 1.404 . S
C572 C575 1.539 . S
C573 C569 1.408 . S
C573 C572 1.404 . S
C573 H585 0.930 . S
C574 C570 1.524 . S
C574 H586 0.956 . S
C574 H587 0.961 . S
C574 H588 0.961 . S
C575 C572 1.539 . S
C575 H589 0.958 . S
C575 H590 0.961 . S
C575 H591 0.960 . S
H576 C560 0.931 . S
H577 C565 0.929 . S
H578 C566 0.960 . S
H579 C566 0.962 . S
H580 C566 0.960 . S
H581 C567 0.961 . S
H582 C567 0.961 . S
H583 C567 0.961 . S
H584 C568 0.931 . S
H585 C573 0.930 . S
H586 C574 0.956 . S
H587 C574 0.961 . S
H588 C574 0.961 . S
H589 C575 0.958 . S
H590 C575 0.961 . S
H591 C575 0.960 . S
C592 C593 1.391 . S
C592 C594 1.394 . S
C592 H608 0.931 . S
C593 C592 1.391 . S
C593 C597 1.376 . S
C594 C592 1.394 . S
C594 C595 1.369 . S
C594 C598 1.531 . S
C595 C594 1.369 . S
C595 C596 1.410 . S
C595 C603 1.503 . S
C596 C595 1.410 . S
C596 C597 1.392 . S
C596 C599 1.511 . S
C597 C593 1.376 . S
C597 C596 1.392 . S
C597 H609 0.929 . S
C598 C594 1.531 . S
C598 H610 0.960 . S
C598 H611 0.962 . S
C598 H612 0.960 . S
C599 C596 1.511 . S
C599 H613 0.961 . S
C599 H614 0.961 . S
C599 H615 0.961 . S
C600 C601 1.370 . S
C600 C602 1.363 . S
C600 H616 0.931 . S
C601 C600 1.370 . S
C601 C605 1.408 . S
C602 C600 1.363 . S
C602 C603 1.370 . S
C602 C606 1.524 . S
C603 C595 1.503 . S
C603 C602 1.370 . S
C603 C604 1.403 . S
C604 C603 1.403 . S
C604 C605 1.404 . S
C604 C607 1.539 . S
C605 C601 1.408 . S
C605 C604 1.404 . S
C605 H617 0.930 . S
C606 C602 1.524 . S
C606 H618 0.956 . S
C606 H619 0.961 . S
C606 H620 0.961 . S
C607 C604 1.539 . S
C607 H621 0.958 . S
C607 H622 0.961 . S
C607 H623 0.960 . S
H608 C592 0.931 . S
H609 C597 0.929 . S
H610 C598 0.960 . S
H611 C598 0.962 . S
H612 C598 0.960 . S
H613 C599 0.961 . S
H614 C599 0.961 . S
H615 C599 0.961 . S
H616 C600 0.931 . S
H617 C605 0.930 . S
H618 C606 0.956 . S
H619 C606 0.961 . S
H620 C606 0.961 . S
H621 C607 0.958 . S
H622 C607 0.961 . S
H623 C607 0.960 . S
C624 C625 1.391 . S
C624 C626 1.394 . S
C624 H640 0.931 . S
C625 C624 1.391 . S
C625 C629 1.376 . S
C626 C624 1.394 . S
C626 C627 1.369 . S
C626 C630 1.531 . S
C627 C626 1.369 . S
C627 C628 1.410 . S
C627 C635 1.503 . S
C628 C627 1.410 . S
C628 C629 1.392 . S
C628 C631 1.511 . S
C629 C625 1.376 . S
C629 C628 1.392 . S
C629 H641 0.929 . S
C630 C626 1.531 . S
C630 H642 0.960 . S
C630 H643 0.962 . S
C630 H644 0.960 . S
C631 C628 1.511 . S
C631 H645 0.961 . S
C631 H646 0.961 . S
C631 H647 0.961 . S
C632 C633 1.370 . S
C632 C634 1.363 . S
C632 H648 0.931 . S
C633 C632 1.370 . S
C633 C637 1.408 . S
C634 C632 1.363 . S
C634 C635 1.370 . S
C634 C638 1.524 . S
C635 C627 1.503 . S
C635 C634 1.370 . S
C635 C636 1.403 . S
C636 C635 1.403 . S
C636 C637 1.404 . S
C636 C639 1.539 . S
C637 C633 1.408 . S
C637 C636 1.404 . S
C637 H649 0.930 . S
C638 C634 1.524 . S
C638 H650 0.956 . S
C638 H651 0.961 . S
C638 H652 0.961 . S
C639 C636 1.539 . S
C639 H653 0.958 . S
C639 H654 0.961 . S
C639 H655 0.960 . S
H640 C624 0.931 . S
H641 C629 0.929 . S
H642 C630 0.960 . S
H643 C630 0.962 . S
H644 C630 0.960 . S
H645 C631 0.961 . S
H646 C631 0.961 . S
H647 C631 0.961 . S
H648 C632 0.931 . S
H649 C637 0.930 . S
H650 C638 0.956 . S
H651 C638 0.961 . S
H652 C638 0.961 . S
H653 C639 0.958 . S
H654 C639 0.961 . S
H655 C639 0.960 . S
C656 C657 1.391 . S
C656 C658 1.394 . S
C656 H672 0.931 . S
C657 C656 1.391 . S
C657 C661 1.376 . S
C658 C656 1.394 . S
C658 C659 1.369 . S
C658 C662 1.531 . S
C659 C658 1.369 . S
C659 C660 1.410 . S
C659 C667 1.503 . S
C660 C659 1.410 . S
C660 C661 1.392 . S
C660 C663 1.511 . S
C661 C657 1.376 . S
C661 C660 1.392 . S
C661 H673 0.929 . S
C662 C658 1.531 . S
C662 H674 0.960 . S
C662 H675 0.962 . S
C662 H676 0.960 . S
C663 C660 1.511 . S
C663 H677 0.961 . S
C663 H678 0.961 . S
C663 H679 0.961 . S
C664 C665 1.370 . S
C664 C666 1.363 . S
C664 H680 0.931 . S
C665 C664 1.370 . S
C665 C669 1.408 . S
C666 C664 1.363 . S
C666 C667 1.370 1_455 S
C666 C670 1.524 1_455 S
C667 C659 1.503 . S
C667 C666 1.370 1_655 S
C667 C668 1.403 1_655 S
C668 C667 1.403 1_455 S
C668 C669 1.404 . S
C668 C671 1.539 1_455 S
C669 C665 1.408 . S
C669 C668 1.404 . S
C669 H681 0.930 . S
C670 C666 1.524 1_655 S
C670 H682 0.956 . S
C670 H683 0.961 . S
C670 H684 0.961 1_655 S
C671 C668 1.539 1_655 S
C671 H685 0.958 . S
C671 H686 0.961 1_655 S
C671 H687 0.960 . S
H672 C656 0.931 . S
H673 C661 0.929 . S
H674 C662 0.960 . S
H675 C662 0.962 . S
H676 C662 0.960 . S
H677 C663 0.961 . S
H678 C663 0.961 . S
H679 C663 0.961 . S
H680 C664 0.931 . S
H681 C669 0.930 . S
H682 C670 0.956 . S
H683 C670 0.961 . S
H684 C670 0.961 1_455 S
H685 C671 0.958 . S
H686 C671 0.961 1_455 S
H687 C671 0.960 . S
C688 C689 1.391 . S
C688 C690 1.394 . S
C688 H704 0.931 . S
C689 C688 1.391 . S
C689 C693 1.376 . S
C690 C688 1.394 . S
C690 C691 1.369 . S
C690 C694 1.531 . S
C691 C690 1.369 . S
C691 C692 1.410 . S
C691 C699 1.503 . S
C692 C691 1.410 . S
C692 C693 1.392 . S
C692 C695 1.511 . S
C693 C689 1.376 . S
C693 C692 1.392 . S
C693 H705 0.929 . S
C694 C690 1.531 . S
C694 H706 0.960 . S
C694 H707 0.962 . S
C694 H708 0.960 . S
C695 C692 1.511 . S
C695 H709 0.961 . S
C695 H710 0.961 . S
C695 H711 0.961 . S
C696 C697 1.370 . S
C696 C698 1.363 . S
C696 H712 0.931 . S
C697 C696 1.370 . S
C697 C701 1.408 . S
C698 C696 1.363 . S
C698 C699 1.370 1_565 S
C698 C702 1.524 1_565 S
C699 C691 1.503 . S
C699 C698 1.370 1_545 S
C699 C700 1.403 1_545 S
C700 C699 1.403 1_565 S
C700 C701 1.404 . S
C700 C703 1.531 1_565 S
C701 C697 1.408 . S
C701 C700 1.404 . S
C701 H713 0.930 . S
C702 C698 1.524 1_545 S
C702 H714 0.956 . S
C702 H715 0.961 . S
C702 H716 0.961 1_545 S
C703 C700 1.531 1_545 S
C703 H717 0.975 . S
C703 H718 0.934 1_545 S
C703 H719 0.979 . S
H704 C688 0.931 . S
H705 C693 0.929 . S
H706 C694 0.960 . S
H707 C694 0.962 . S
H708 C694 0.960 . S
H709 C695 0.961 . S
H710 C695 0.961 . S
H711 C695 0.961 . S
H712 C696 0.931 . S
H713 C701 0.930 . S
H714 C702 0.956 . S
H715 C702 0.961 . S
H716 C702 0.961 1_565 S
H717 C703 0.975 . S
H718 C703 0.934 1_565 S
H719 C703 0.979 . S
C720 C721 1.391 . S
C720 C722 1.394 . S
C720 H736 0.931 . S
C721 C720 1.391 . S
C721 C725 1.376 . S
C722 C720 1.394 . S
C722 C723 1.369 . S
C722 C726 1.531 . S
C723 C722 1.369 . S
C723 C724 1.410 . S
C723 C731 1.503 . S
C724 C723 1.410 . S
C724 C725 1.392 . S
C724 C727 1.511 . S
C725 C721 1.376 . S
C725 C724 1.392 . S
C725 H737 0.929 . S
C726 C722 1.531 . S
C726 H738 0.960 . S
C726 H739 0.962 . S
C726 H740 0.960 . S
C727 C724 1.511 . S
C727 H741 0.961 . S
C727 H742 0.961 . S
C727 H743 0.961 . S
C728 C729 1.370 . S
C728 C730 1.363 . S
C728 H744 0.931 . S
C729 C728 1.370 . S
C729 C733 1.408 . S
C730 C728 1.363 . S
C730 C731 1.370 . S
C730 C734 1.524 . S
C731 C723 1.503 . S
C731 C730 1.370 . S
C731 C732 1.403 . S
C732 C731 1.403 . S
C732 C733 1.404 . S
C732 C735 1.539 . S
C733 C729 1.408 . S
C733 C732 1.404 . S
C733 H745 0.930 . S
C734 C730 1.524 . S
C734 H746 0.956 . S
C734 H747 0.961 . S
C734 H748 0.961 . S
C735 C732 1.539 . S
C735 H749 0.958 . S
C735 H750 0.961 . S
C735 H751 0.960 . S
H736 C720 0.931 . S
H737 C725 0.929 . S
H738 C726 0.960 . S
H739 C726 0.962 . S
H740 C726 0.960 . S
H741 C727 0.961 . S
H742 C727 0.961 . S
H743 C727 0.961 . S
H744 C728 0.931 . S
H745 C733 0.930 . S
H746 C734 0.956 . S
H747 C734 0.961 . S
H748 C734 0.961 . S
H749 C735 0.958 . S
H750 C735 0.961 . S
H751 C735 0.960 . S
C752 C753 1.391 . S
C752 C754 1.394 . S
C752 H768 0.931 . S
C753 C752 1.391 . S
C753 C757 1.376 . S
C754 C752 1.394 . S
C754 C755 1.369 . S
C754 C758 1.531 . S
C755 C754 1.369 . S
C755 C756 1.410 . S
C755 C763 1.503 . S
C756 C755 1.410 . S
C756 C757 1.392 . S
C756 C759 1.511 . S
C757 C753 1.376 . S
C757 C756 1.392 . S
C757 H769 0.929 . S
C758 C754 1.531 . S
C758 H770 0.960 . S
C758 H771 0.962 . S
C758 H772 0.960 . S
C759 C756 1.511 . S
C759 H773 0.961 . S
C759 H774 0.961 . S
C759 H775 0.961 . S
C760 C761 1.370 . S
C760 C762 1.363 . S
C760 H776 0.931 . S
C761 C760 1.370 . S
C761 C765 1.408 . S
C762 C760 1.363 . S
C762 C763 1.370 1_655 S
C762 C766 1.524 1_655 S
C763 C755 1.503 . S
C763 C762 1.370 1_455 S
C763 C764 1.403 1_455 S
C764 C763 1.403 1_655 S
C764 C765 1.404 . S
C764 C767 1.534 1_655 S
C765 C761 1.408 . S
C765 C764 1.404 . S
C765 H777 0.930 . S
C766 C762 1.524 1_455 S
C766 H778 0.956 . S
C766 H779 0.961 . S
C766 H780 0.961 1_455 S
C767 C764 1.534 1_455 S
C767 H781 0.962 . S
C767 H782 0.958 1_455 S
C767 H783 0.965 . S
H768 C752 0.931 . S
H769 C757 0.929 . S
H770 C758 0.960 . S
H771 C758 0.962 . S
H772 C758 0.960 . S
H773 C759 0.961 . S
H774 C759 0.961 . S
H775 C759 0.961 . S
H776 C760 0.931 . S
H777 C765 0.930 . S
H778 C766 0.956 . S
H779 C766 0.961 . S
H780 C766 0.961 1_655 S
H781 C767 0.962 . S
H782 C767 0.958 1_655 S
H783 C767 0.965 . S
C784 C785 1.391 . S
C784 C786 1.394 . S
C784 H800 0.931 . S
C785 C784 1.391 . S
C785 C789 1.376 . S
C786 C784 1.394 . S
C786 C787 1.369 1_545 S
C786 C790 1.531 1_545 S
C787 C786 1.369 1_565 S
C787 C788 1.410 1_565 S
C787 C795 1.503 . S
C788 C787 1.410 1_545 S
C788 C789 1.392 . S
C788 C791 1.511 1_545 S
C789 C785 1.376 . S
C789 C788 1.392 . S
C789 H801 0.929 . S
C790 C786 1.531 1_565 S
C790 H802 0.960 . S
C790 H803 0.962 . S
C790 H804 0.960 1_565 S
C791 C788 1.511 1_565 S
C791 H805 0.961 1_565 S
C791 H806 0.961 . S
C791 H807 0.961 . S
C792 C793 1.370 . S
C792 C794 1.363 . S
C792 H808 0.931 . S
C793 C792 1.370 . S
C793 C797 1.408 . S
C794 C792 1.363 . S
C794 C795 1.370 . S
C794 C798 1.524 . S
C795 C787 1.503 . S
C795 C794 1.370 . S
C795 C796 1.403 . S
C796 C795 1.403 . S
C796 C797 1.404 . S
C796 C799 1.539 . S
C797 C793 1.408 . S
C797 C796 1.404 . S
C797 H809 0.930 . S
C798 C794 1.524 . S
C798 H810 0.956 . S
C798 H811 0.961 . S
C798 H812 0.961 . S
C799 C796 1.539 . S
C799 H813 0.958 . S
C799 H814 0.961 . S
C799 H815 0.960 . S
H800 C784 0.931 . S
H801 C789 0.929 . S
H802 C790 0.960 . S
H803 C790 0.962 . S
H804 C790 0.960 1_545 S
H805 C791 0.961 1_545 S
H806 C791 0.961 . S
H807 C791 0.961 . S
H808 C792 0.931 . S
H809 C797 0.930 . S
H810 C798 0.956 . S
H811 C798 0.961 . S
H812 C798 0.961 . S
H813 C799 0.958 . S
H814 C799 0.961 . S
H815 C799 0.960 . S
C241 C178 2.613 . S
C249 C18 2.198 . S
C273 C209 2.200 . S
C281 C49 2.616 . S
C305 C98 2.210 . S
C313 C138 2.615 . S
C337 C9 2.616 . S
C345 C169 2.196 . S
C369 C218 2.600 . S
C377 C58 2.224 . S
C401 C89 2.607 . S
C409 C129 2.224 . S
C433 C10 2.035 . S
C441 C86 1.985 . S
C465 C50 2.051 . S
C473 C6 1.975 . S
C497 C90 2.052 . S
C505 C46 1.991 . S
C529 C139 2.061 . S
C537 C175 1.974 . S
C561 C179 2.059 . S
C569 C215 1.983 . S
C593 C135 1.987 . S
C601 C219 2.054 . S
C625 C19 1.079 . S
C633 C95 1.096 . S
C657 C59 1.096 . S
C665 C15 1.106 . S
C689 C99 1.054 . S
C697 C55 1.099 . S
C721 C130 1.028 . S
C729 C166 1.115 . S
C753 C170 1.037 . S
C761 C206 1.114 . S
C785 C126 1.119 . S
C793 C210 1.060 . S
