# Generated by pormake.
# Topology ukc, (4)-cn, num edge types: 1
# Building blocks:
#     Node 0, Type 0, BuildingBlock: ICAMEG_clean_sbu_1, # of connection points: 4
#     Node 1, Type 0, BuildingBlock: ICAMEG_clean_sbu_1, # of connection points: 4
#     Node 2, Type 0, BuildingBlock: ICAMEG_clean_sbu_1, # of connection points: 4
#     Node 3, Type 0, BuildingBlock: ICAMEG_clean_sbu_1, # of connection points: 4
#     Node 4, Type 0, BuildingBlock: ICAMEG_clean_sbu_1, # of connection points: 4
#     Node 5, Type 0, BuildingBlock: ICAMEG_clean_sbu_1, # of connection points: 4
#     Node 6, Type 0, BuildingBlock: ICAMEG_clean_sbu_1, # of connection points: 4
#     Node 7, Type 0, BuildingBlock: ICAMEG_clean_sbu_1, # of connection points: 4
#     Node 8, Type 0, BuildingBlock: ICAMEG_clean_sbu_1, # of connection points: 4
#     Node 9, Type 0, BuildingBlock: ICAMEG_clean_sbu_1, # of connection points: 4
#     Node 10, Type 0, BuildingBlock: ICAMEG_clean_sbu_1, # of connection points: 4
#     Node 11, Type 0, BuildingBlock: ICAMEG_clean_sbu_1, # of connection points: 4
#     Node 12, Type 0, BuildingBlock: ICAMEG_clean_sbu_1, # of connection points: 4
#     Node 13, Type 0, BuildingBlock: ICAMEG_clean_sbu_1, # of connection points: 4
#     Node 14, Type 0, BuildingBlock: ICAMEG_clean_sbu_1, # of connection points: 4
#     Node 15, Type 0, BuildingBlock: ICAMEG_clean_sbu_1, # of connection points: 4
#     Node 16, Type 0, BuildingBlock: ICAMEG_clean_sbu_1, # of connection points: 4
#     Node 17, Type 0, BuildingBlock: ICAMEG_clean_sbu_1, # of connection points: 4
#     Node 18, Type 0, BuildingBlock: ICAMEG_clean_sbu_1, # of connection points: 4
#     Node 19, Type 0, BuildingBlock: ICAMEG_clean_sbu_1, # of connection points: 4
#     Node 20, Type 0, BuildingBlock: ICAMEG_clean_sbu_1, # of connection points: 4
#     Node 21, Type 0, BuildingBlock: ICAMEG_clean_sbu_1, # of connection points: 4
#     Node 22, Type 0, BuildingBlock: ICAMEG_clean_sbu_1, # of connection points: 4
#     Node 23, Type 0, BuildingBlock: ICAMEG_clean_sbu_1, # of connection points: 4
#     Node 24, Type 0, BuildingBlock: ICAMEG_clean_sbu_1, # of connection points: 4
#     Node 25, Type 0, BuildingBlock: ICAMEG_clean_sbu_1, # of connection points: 4
#     Node 26, Type 0, BuildingBlock: ICAMEG_clean_sbu_1, # of connection points: 4
#     Node 27, Type 0, BuildingBlock: ICAMEG_clean_sbu_1, # of connection points: 4
#     Node 28, Type 0, BuildingBlock: ICAMEG_clean_sbu_1, # of connection points: 4
#     Node 29, Type 0, BuildingBlock: ICAMEG_clean_sbu_1, # of connection points: 4
#     Node 30, Type 0, BuildingBlock: ICAMEG_clean_sbu_1, # of connection points: 4
#     Node 31, Type 0, BuildingBlock: ICAMEG_clean_sbu_1, # of connection points: 4
#     Edge 32, Type (0, 0), BuildingBlock: UVAHIK_clean_linker_0, # of connection points: 2
#     Edge 33, Type (0, 0), BuildingBlock: UVAHIK_clean_linker_0, # of connection points: 2
#     Edge 34, Type (0, 0), BuildingBlock: UVAHIK_clean_linker_0, # of connection points: 2
#     Edge 35, Type (0, 0), BuildingBlock: UVAHIK_clean_linker_0, # of connection points: 2
#     Edge 36, Type (0, 0), BuildingBlock: UVAHIK_clean_linker_0, # of connection points: 2
#     Edge 37, Type (0, 0), BuildingBlock: UVAHIK_clean_linker_0, # of connection points: 2
#     Edge 38, Type (0, 0), BuildingBlock: UVAHIK_clean_linker_0, # of connection points: 2
#     Edge 39, Type (0, 0), BuildingBlock: UVAHIK_clean_linker_0, # of connection points: 2
#     Edge 40, Type (0, 0), BuildingBlock: UVAHIK_clean_linker_0, # of connection points: 2
#     Edge 41, Type (0, 0), BuildingBlock: UVAHIK_clean_linker_0, # of connection points: 2
#     Edge 42, Type (0, 0), BuildingBlock: UVAHIK_clean_linker_0, # of connection points: 2
#     Edge 43, Type (0, 0), BuildingBlock: UVAHIK_clean_linker_0, # of connection points: 2
#     Edge 44, Type (0, 0), BuildingBlock: UVAHIK_clean_linker_0, # of connection points: 2
#     Edge 45, Type (0, 0), BuildingBlock: UVAHIK_clean_linker_0, # of connection points: 2
#     Edge 46, Type (0, 0), BuildingBlock: UVAHIK_clean_linker_0, # of connection points: 2
#     Edge 47, Type (0, 0), BuildingBlock: UVAHIK_clean_linker_0, # of connection points: 2
#     Edge 48, Type (0, 0), BuildingBlock: UVAHIK_clean_linker_0, # of connection points: 2
#     Edge 49, Type (0, 0), BuildingBlock: UVAHIK_clean_linker_0, # of connection points: 2
#     Edge 50, Type (0, 0), BuildingBlock: UVAHIK_clean_linker_0, # of connection points: 2
#     Edge 51, Type (0, 0), BuildingBlock: UVAHIK_clean_linker_0, # of connection points: 2
#     Edge 52, Type (0, 0), BuildingBlock: UVAHIK_clean_linker_0, # of connection points: 2
#     Edge 53, Type (0, 0), BuildingBlock: UVAHIK_clean_linker_0, # of connection points: 2
#     Edge 54, Type (0, 0), BuildingBlock: UVAHIK_clean_linker_0, # of connection points: 2
#     Edge 55, Type (0, 0), BuildingBlock: UVAHIK_clean_linker_0, # of connection points: 2
#     Edge 56, Type (0, 0), BuildingBlock: UVAHIK_clean_linker_0, # of connection points: 2
#     Edge 57, Type (0, 0), BuildingBlock: UVAHIK_clean_linker_0, # of connection points: 2
#     Edge 58, Type (0, 0), BuildingBlock: UVAHIK_clean_linker_0, # of connection points: 2
#     Edge 59, Type (0, 0), BuildingBlock: UVAHIK_clean_linker_0, # of connection points: 2
#     Edge 60, Type (0, 0), BuildingBlock: UVAHIK_clean_linker_0, # of connection points: 2
#     Edge 61, Type (0, 0), BuildingBlock: UVAHIK_clean_linker_0, # of connection points: 2
#     Edge 62, Type (0, 0), BuildingBlock: UVAHIK_clean_linker_0, # of connection points: 2
#     Edge 63, Type (0, 0), BuildingBlock: UVAHIK_clean_linker_0, # of connection points: 2
#     Edge 64, Type (0, 0), BuildingBlock: UVAHIK_clean_linker_0, # of connection points: 2
#     Edge 65, Type (0, 0), BuildingBlock: UVAHIK_clean_linker_0, # of connection points: 2
#     Edge 66, Type (0, 0), BuildingBlock: UVAHIK_clean_linker_0, # of connection points: 2
#     Edge 67, Type (0, 0), BuildingBlock: UVAHIK_clean_linker_0, # of connection points: 2
#     Edge 68, Type (0, 0), BuildingBlock: UVAHIK_clean_linker_0, # of connection points: 2
#     Edge 69, Type (0, 0), BuildingBlock: UVAHIK_clean_linker_0, # of connection points: 2
#     Edge 70, Type (0, 0), BuildingBlock: UVAHIK_clean_linker_0, # of connection points: 2
#     Edge 71, Type (0, 0), BuildingBlock: UVAHIK_clean_linker_0, # of connection points: 2
#     Edge 72, Type (0, 0), BuildingBlock: UVAHIK_clean_linker_0, # of connection points: 2
#     Edge 73, Type (0, 0), BuildingBlock: UVAHIK_clean_linker_0, # of connection points: 2
#     Edge 74, Type (0, 0), BuildingBlock: UVAHIK_clean_linker_0, # of connection points: 2
#     Edge 75, Type (0, 0), BuildingBlock: UVAHIK_clean_linker_0, # of connection points: 2
#     Edge 76, Type (0, 0), BuildingBlock: UVAHIK_clean_linker_0, # of connection points: 2
#     Edge 77, Type (0, 0), BuildingBlock: UVAHIK_clean_linker_0, # of connection points: 2
#     Edge 78, Type (0, 0), BuildingBlock: UVAHIK_clean_linker_0, # of connection points: 2
#     Edge 79, Type (0, 0), BuildingBlock: UVAHIK_clean_linker_0, # of connection points: 2
#     Edge 80, Type (0, 0), BuildingBlock: UVAHIK_clean_linker_0, # of connection points: 2
#     Edge 81, Type (0, 0), BuildingBlock: UVAHIK_clean_linker_0, # of connection points: 2
#     Edge 82, Type (0, 0), BuildingBlock: UVAHIK_clean_linker_0, # of connection points: 2
#     Edge 83, Type (0, 0), BuildingBlock: UVAHIK_clean_linker_0, # of connection points: 2
#     Edge 84, Type (0, 0), BuildingBlock: UVAHIK_clean_linker_0, # of connection points: 2
#     Edge 85, Type (0, 0), BuildingBlock: UVAHIK_clean_linker_0, # of connection points: 2
#     Edge 86, Type (0, 0), BuildingBlock: UVAHIK_clean_linker_0, # of connection points: 2
#     Edge 87, Type (0, 0), BuildingBlock: UVAHIK_clean_linker_0, # of connection points: 2
#     Edge 88, Type (0, 0), BuildingBlock: UVAHIK_clean_linker_0, # of connection points: 2
#     Edge 89, Type (0, 0), BuildingBlock: UVAHIK_clean_linker_0, # of connection points: 2
#     Edge 90, Type (0, 0), BuildingBlock: UVAHIK_clean_linker_0, # of connection points: 2
#     Edge 91, Type (0, 0), BuildingBlock: UVAHIK_clean_linker_0, # of connection points: 2
#     Edge 92, Type (0, 0), BuildingBlock: UVAHIK_clean_linker_0, # of connection points: 2
#     Edge 93, Type (0, 0), BuildingBlock: UVAHIK_clean_linker_0, # of connection points: 2
#     Edge 94, Type (0, 0), BuildingBlock: UVAHIK_clean_linker_0, # of connection points: 2
#     Edge 95, Type (0, 0), BuildingBlock: UVAHIK_clean_linker_0, # of connection points: 2
# Relax obj value: 0.063
# Max RMSD: 0.143
# Mean RMSD: 0.143
data_MOF--net-ukc--node1-ICAMEG_clean_sbu_1--edge1-UVAHIK_clean_linker_0
_symmetry_space_group_name_H-M    P1
_symmetry_Int_Tables_number       1
_symmetry_cell_setting            triclinic
loop_
_symmetry_equiv_pos_as_xyz
'x, y, z'
_cell_length_a     61.455989
_cell_length_b     61.45082
_cell_length_c     115.42884
_cell_angle_alpha  90.031884
_cell_angle_beta   89.946548
_cell_angle_gamma 89.956511
loop_
_atom_site_label
_atom_site_type_symbol
_atom_site_fract_x
_atom_site_fract_y
_atom_site_fract_z
_atom_type_partial_charge
Co0 Co 0.0741 0.40011 0.05105 0.0
Co1 Co 0.11781 0.367 0.04521 0.0
O2 O 0.10014 0.39309 0.04175 0.0
C3 C 0.06268 0.41612 0.02674 0.0
O4 O 0.08076 0.40869 0.02214 0.0
C5 C 0.15056 0.40103 0.0369 0.0
O6 O 0.1357 0.41634 0.03654 0.0
O7 O 0.122 0.37722 0.06151 0.0
O8 O 0.08803 0.38819 0.06535 0.0
H9 H 0.14009 0.30279 0.06941 0.0
H10 H 0.09653 0.43486 0.03741 0.0
O11 O 0.05841 0.41291 0.0374 0.0
H12 H 0.0944 0.46217 0.0775 0.0
H13 H 0.01037 0.44574 0.06407 0.0
H14 H 0.04915 0.37606 0.06891 0.0
H15 H 0.07837 0.42668 0.0726 0.0
H16 H 0.04341 0.43785 0.0527 0.0
O17 O 0.14572 0.38196 0.04044 0.0
H18 H 0.11818 0.3351 0.06448 0.0
H19 H 0.15504 0.3442 0.0337 0.0
H20 H 0.01629 0.38339 0.08054 0.0
H21 H 0.11237 0.47058 0.04185 0.0
H22 H 0.99665 0.41845 0.07816 0.0
H23 H 0.11148 0.4845 0.06205 0.0
O24 O 0.06163 0.37099 0.04733 0.0
H25 H 0.11438 0.37524 1.00181 0.0
H26 H 0.10565 0.32451 0.03453 0.0
H27 H 0.09948 0.31143 0.01464 0.0
H28 H 0.10394 0.33683 0.99808 0.0
H29 H 0.12007 0.38769 0.02182 0.0
H30 H 0.17746 0.3121 0.03837 0.0
H31 H 0.16998 0.29109 0.05631 0.0
O32 O 0.09117 0.35025 0.04995 0.0
C33 C 0.10707 0.38276 0.06862 0.0
C34 C 0.14347 0.31178 0.06156 0.0
C35 C 0.16446 0.31702 0.04414 0.0
N36 N 0.13523 0.34149 0.04879 0.0
C37 C 0.13109 0.33007 0.0587 0.0
C38 C 0.15175 0.33523 0.04157 0.0
C39 C 0.16025 0.30524 0.05421 0.0
C40 C 0.0958 0.44075 0.04618 0.0
N41 N 0.08642 0.42851 0.05471 0.0
C42 C 0.10493 0.46103 0.04867 0.0
C43 C 0.10447 0.46882 0.06 0.0
C44 C 0.09492 0.45629 0.06867 0.0
C45 C 0.08597 0.43609 0.06585 0.0
C46 C 0.0188 0.43041 0.0652 0.0
C47 C 0.04077 0.3914 0.06786 0.0
C48 C 0.03748 0.42581 0.05875 0.0
N49 N 0.0483 0.40653 0.06017 0.0
C50 C 0.02213 0.39544 0.07445 0.0
C51 C 0.01111 0.4151 0.0731 0.0
C52 C 0.07063 0.35247 0.04878 0.0
C53 C 0.11249 0.36397 0.00894 0.0
C54 C 0.10755 0.33573 0.0274 0.0
C55 C 0.10408 0.32819 0.01614 0.0
C56 C 0.1066 0.34244 0.00686 0.0
N57 N 0.11347 0.35686 0.0294 0.0
C58 C 0.11583 0.37093 0.02033 0.0
Co59 Co 0.86243 0.82553 0.30219 0.0
Co60 Co 0.89875 0.86554 0.29543 0.0
O61 O 0.87174 0.84955 0.29211 0.0
C62 C 0.84702 0.81236 0.27808 0.0
O63 O 0.85619 0.82919 0.27308 0.0
C64 C 0.86779 0.90238 0.28973 0.0
O65 O 0.85306 0.8948 0.29692 0.0
O66 O 0.8875 0.87322 0.31119 0.0
O67 O 0.8747 0.84045 0.31615 0.0
H68 H 0.96237 0.8877 0.32006 0.0
H69 H 0.83104 0.84995 0.28735 0.0
O70 O 0.8491 0.80917 0.28892 0.0
H71 H 0.80068 0.85366 0.3268 0.0
H72 H 0.81169 0.7671 0.31668 0.0
H73 H 0.88372 0.80132 0.32127 0.0
H74 H 0.8349 0.83406 0.32307 0.0
H75 H 0.82251 0.79793 0.3043 0.0
O76 O 0.88601 0.89274 0.2886 0.0
H77 H 0.92895 0.86732 0.31542 0.0
H78 H 0.92514 0.89868 0.2827 0.0
H79 H 0.87345 0.77068 0.33392 0.0
H80 H 0.79663 0.86938 0.29065 0.0
H81 H 0.83721 0.75334 0.33166 0.0
H82 H 0.78118 0.87141 0.31051 0.0
O83 O 0.89072 0.81052 0.2993 0.0
H84 H 0.8932 0.8569 0.25224 0.0
H85 H 0.94075 0.84783 0.28626 0.0
H86 H 0.9543 0.83735 0.26695 0.0
H87 H 0.93047 0.84192 0.24975 0.0
H88 H 0.88023 0.86691 0.27175 0.0
H89 H 0.95841 0.91952 0.28703 0.0
H90 H 0.97732 0.91402 0.30581 0.0
O91 O 0.91311 0.83878 0.30191 0.0
C92 C 0.88068 0.85969 0.31877 0.0
C93 C 0.9543 0.89021 0.31184 0.0
C94 C 0.95206 0.90809 0.29331 0.0
N95 N 0.92513 0.88172 0.29878 0.0
C96 C 0.93539 0.87869 0.30915 0.0
C97 C 0.93318 0.89629 0.29092 0.0
C98 C 0.96267 0.90499 0.30384 0.0
C99 C 0.82436 0.85037 0.29598 0.0
N100 N 0.83495 0.84049 0.30496 0.0
C101 C 0.80488 0.86158 0.29781 0.0
C102 C 0.79625 0.86276 0.30896 0.0
C103 C 0.80718 0.85282 0.3181 0.0
C104 C 0.82663 0.84177 0.31593 0.0
C105 C 0.82752 0.77454 0.31776 0.0
C106 C 0.86787 0.79395 0.32027 0.0
C107 C 0.83378 0.79196 0.31074 0.0
N108 N 0.8537 0.80152 0.3121 0.0
C109 C 0.86217 0.77657 0.32745 0.0
C110 C 0.84184 0.76683 0.32617 0.0
C111 C 0.90971 0.81837 0.3009 0.0
C112 C 0.90373 0.85479 0.25967 0.0
C113 C 0.93018 0.84962 0.27886 0.0
C114 C 0.938 0.84378 0.26793 0.0
C115 C 0.92463 0.84638 0.25828 0.0
N116 N 0.90963 0.85778 0.28017 0.0
C117 C 0.89648 0.86045 0.27074 0.0
Co118 Co 0.43079 0.60938 0.55197 0.0
Co119 Co 0.38999 0.64155 0.54195 0.0
O120 O 0.40601 0.61392 0.54147 0.0
C121 C 0.44885 0.59125 0.52973 0.0
O122 O 0.44409 0.60935 0.52425 0.0
C123 C 0.35592 0.60744 0.53544 0.0
O124 O 0.3699 0.59136 0.53625 0.0
O125 O 0.38371 0.63646 0.55874 0.0
O126 O 0.41778 0.62874 0.56412 0.0
H127 H 0.37027 0.71377 0.55949 0.0
H128 H 0.40789 0.5709 0.54246 0.0
O129 O 0.44457 0.58925 0.54046 0.0
H130 H 0.40194 0.56392 0.5849 0.0
H131 H 0.48943 0.56518 0.57137 0.0
H132 H 0.45752 0.63832 0.56684 0.0
H133 H 0.4217 0.59473 0.5762 0.0
H134 H 0.45763 0.57088 0.55873 0.0
O135 O 0.36164 0.62691 0.53779 0.0
H136 H 0.39033 0.6791 0.55805 0.0
H137 H 0.35512 0.6624 0.52767 0.0
H138 H 0.48921 0.6333 0.57963 0.0
H139 H 0.38819 0.53965 0.5508 0.0
H140 H 0.50539 0.59652 0.58197 0.0
H141 H 0.38505 0.53605 0.57217 0.0
O142 O 0.44571 0.63507 0.54505 0.0
H143 H 0.39876 0.61895 0.50022 0.0
H144 H 0.40481 0.6796 0.52797 0.0
H145 H 0.41385 0.68576 0.50746 0.0
H146 H 0.41074 0.65534 0.49338 0.0
H147 H 0.39017 0.61344 0.5208 0.0
H148 H 0.33451 0.69676 0.52886 0.0
H149 H 0.34212 0.72279 0.54482 0.0
O150 O 0.41742 0.65799 0.54584 0.0
C151 C 0.39823 0.63398 0.56651 0.0
C152 C 0.36684 0.70259 0.55248 0.0
C153 C 0.34675 0.69303 0.5353 0.0
N154 N 0.374 0.66878 0.54276 0.0
C155 C 0.37818 0.68295 0.55161 0.0
C156 C 0.35842 0.67355 0.5347 0.0
C157 C 0.35104 0.70763 0.54425 0.0
C158 C 0.40666 0.5694 0.55176 0.0
N159 N 0.41584 0.5847 0.55882 0.0
C160 C 0.39546 0.55169 0.55643 0.0
C161 C 0.3937 0.54969 0.56842 0.0
C162 C 0.40316 0.56531 0.57557 0.0
C163 C 0.41425 0.58279 0.57059 0.0
C164 C 0.48252 0.58128 0.57043 0.0
C165 C 0.4644 0.62224 0.56783 0.0
C166 C 0.46454 0.58463 0.56325 0.0
N167 N 0.45565 0.60491 0.56207 0.0
C168 C 0.48238 0.61951 0.57508 0.0
C169 C 0.49146 0.59887 0.57638 0.0
C170 C 0.43783 0.65431 0.54488 0.0
C171 C 0.39998 0.6324 0.50624 0.0
C172 C 0.40332 0.66626 0.52193 0.0
C173 C 0.40849 0.66987 0.5103 0.0
C174 C 0.40675 0.6528 0.50242 0.0
N175 N 0.39642 0.64627 0.52562 0.0
C176 C 0.39493 0.62941 0.51793 0.0
Co177 Co 0.64393 0.18239 0.80507 0.0
Co178 Co 0.6126 0.14201 0.79371 0.0
O179 O 0.63996 0.15858 0.79379 0.0
C180 C 0.66308 0.20026 0.78309 0.0
O181 O 0.64768 0.19096 0.77697 0.0
C182 C 0.64742 0.10886 0.78677 0.0
O183 O 0.66336 0.12281 0.78815 0.0
O184 O 0.61768 0.13413 0.81026 0.0
O185 O 0.62502 0.16755 0.81683 0.0
H186 H 0.54066 0.1193 0.81049 0.0
H187 H 0.6829 0.16158 0.79477 0.0
O188 O 0.66343 0.19829 0.79405 0.0
H189 H 0.69043 0.15111 0.83693 0.0
H190 H 0.68655 0.23986 0.82635 0.0
H191 H 0.61426 0.20677 0.82069 0.0
H192 H 0.659 0.17098 0.82895 0.0
H193 H 0.68173 0.2093 0.81276 0.0
O194 O 0.62779 0.11436 0.78888 0.0
H195 H 0.57496 0.14007 0.80972 0.0
H196 H 0.59251 0.10829 0.77838 0.0
H197 H 0.6184 0.2372 0.83443 0.0
H198 H 0.71477 0.14182 0.8024 0.0
H199 H 0.65475 0.25398 0.83734 0.0
H200 H 0.71864 0.13641 0.82362 0.0
O201 O 0.61797 0.19741 0.7986 0.0
H202 H 0.63512 0.1532 0.75216 0.0
H203 H 0.57463 0.15819 0.7801 0.0
H204 H 0.56849 0.16861 0.75977 0.0
H205 H 0.59884 0.16603 0.74561 0.0
H206 H 0.64063 0.14334 0.77259 0.0
H207 H 0.55852 0.08703 0.77888 0.0
H208 H 0.53227 0.09254 0.79499 0.0
O209 O 0.59556 0.16873 0.79833 0.0
C210 C 0.62011 0.14768 0.81851 0.0
C211 C 0.55195 0.11679 0.80341 0.0
C212 C 0.56198 0.09865 0.78568 0.0
N213 N 0.58567 0.12551 0.79399 0.0
C214 C 0.57137 0.12854 0.80292 0.0
C215 C 0.58124 0.1107 0.78546 0.0
C216 C 0.54726 0.10177 0.79472 0.0
C217 C 0.68453 0.15938 0.80402 0.0
N218 N 0.66906 0.16736 0.81138 0.0
C219 C 0.70259 0.14815 0.80829 0.0
C220 C 0.70474 0.14511 0.82019 0.0
C221 C 0.68892 0.15334 0.82766 0.0
C222 C 0.67111 0.16451 0.82308 0.0
C223 C 0.67063 0.23268 0.82517 0.0
C224 C 0.63016 0.21391 0.82193 0.0
C225 C 0.66778 0.2154 0.81746 0.0
N226 N 0.64774 0.20618 0.81595 0.0
C227 C 0.63239 0.23117 0.82972 0.0
C228 C 0.65278 0.24059 0.83133 0.0
C229 C 0.59891 0.18926 0.79804 0.0
C230 C 0.62172 0.15424 0.75823 0.0
C231 C 0.58797 0.15706 0.77403 0.0
C232 C 0.58436 0.16295 0.7625 0.0
C233 C 0.60138 0.16149 0.75456 0.0
N234 N 0.60793 0.1498 0.77756 0.0
C235 C 0.62471 0.14848 0.76983 0.0
Co236 Co 0.08253 0.61507 0.45558 0.0
Co237 Co 0.12158 0.65128 0.46503 0.0
O238 O 0.10489 0.6241 0.46678 0.0
C239 C 0.06475 0.6008 0.479 0.0
O240 O 0.08102 0.6096 0.48466 0.0
C241 C 0.15795 0.61943 0.46999 0.0
O242 O 0.1513 0.60643 0.46168 0.0
O243 O 0.13101 0.64254 0.4491 0.0
O244 O 0.10085 0.62595 0.44247 0.0
H245 H 0.14643 0.71876 0.4443 0.0
H246 H 0.10444 0.58445 0.47201 0.0
O247 O 0.0632 0.60291 0.46806 0.0
H248 H 0.11099 0.55006 0.43362 0.0
H249 H 0.02461 0.56624 0.43876 0.0
H250 H 0.06356 0.63598 0.43483 0.0
H251 H 0.09208 0.58514 0.43584 0.0
H252 H 0.05335 0.57634 0.45262 0.0
O253 O 0.14787 0.63712 0.47207 0.0
H254 H 0.12535 0.68495 0.44674 0.0
H255 H 0.15368 0.6749 0.47985 0.0
H256 H 0.03511 0.62636 0.42067 0.0
H257 H 0.12315 0.54929 0.47022 0.0
H258 H 0.0154 0.59127 0.4226 0.0
H259 H 0.12662 0.5318 0.45091 0.0
O260 O 0.06766 0.64391 0.45719 0.0
H261 H 0.10905 0.63994 0.50764 0.0
H262 H 0.10231 0.69169 0.47522 0.0
H263 H 0.08993 0.70257 0.49469 0.0
H264 H 0.09333 0.67663 0.51108 0.0
H265 H 0.12095 0.62962 0.48798 0.0
H266 H 0.17517 0.70852 0.47774 0.0
H267 H 0.17157 0.73075 0.45988 0.0
O268 O 0.09591 0.66678 0.45832 0.0
C269 C 0.11971 0.63418 0.44095 0.0
C270 C 0.14816 0.7092 0.45212 0.0
C271 C 0.1643 0.70344 0.47088 0.0
N272 N 0.13832 0.67789 0.46339 0.0
C273 C 0.13627 0.69003 0.45354 0.0
C274 C 0.15215 0.68436 0.472 0.0
C275 C 0.16226 0.71592 0.46086 0.0
C276 C 0.10556 0.57698 0.46359 0.0
N277 N 0.09691 0.58694 0.45406 0.0
C278 C 0.11632 0.55703 0.46262 0.0
C279 C 0.11831 0.54725 0.45179 0.0
C280 C 0.10955 0.55748 0.44209 0.0
C281 C 0.09891 0.57742 0.4434 0.0
C282 C 0.0331 0.58157 0.43782 0.0
C283 C 0.05518 0.62061 0.43567 0.0
C284 C 0.04933 0.58743 0.44568 0.0
N285 N 0.06025 0.6067 0.4445 0.0
C286 C 0.03903 0.61528 0.42765 0.0
C287 C 0.02795 0.59561 0.42875 0.0
C288 C 0.07566 0.66307 0.45704 0.0
C289 C 0.10747 0.65139 0.50056 0.0
C290 C 0.10361 0.6802 0.48226 0.0
C291 C 0.09669 0.68651 0.49329 0.0
C292 C 0.09863 0.67196 0.50249 0.0
N293 N 0.11219 0.65996 0.48043 0.0
C294 C 0.11422 0.64565 0.48942 0.0
Co295 Co 0.64834 0.83618 0.70923 0.0
Co296 Co 0.60919 0.87445 0.71551 0.0
O297 O 0.63669 0.85963 0.7189 0.0
C298 C 0.65874 0.80131 0.72606 0.0
O299 O 0.64573 0.78856 0.72011 0.0
C300 C 0.63961 0.91196 0.7202 0.0
O301 O 0.65423 0.90375 0.71314 0.0
O302 O 0.61923 0.88134 0.69942 0.0
O303 O 0.6379 0.85098 0.69478 0.0
H304 H 0.54267 0.89175 0.69192 0.0
H305 H 0.676 0.85996 0.72601 0.0
O306 O 0.65991 0.82149 0.72353 0.0
H307 H 0.71317 0.86776 0.68837 0.0
H308 H 0.70458 0.78124 0.69636 0.0
H309 H 0.63114 0.81089 0.68948 0.0
H310 H 0.67941 0.84632 0.69003 0.0
H311 H 0.69035 0.81113 0.70844 0.0
O312 O 0.6214 0.90246 0.72163 0.0
H313 H 0.57711 0.87291 0.69634 0.0
H314 H 0.58278 0.9081 0.72785 0.0
H315 H 0.64479 0.78105 0.67715 0.0
H316 H 0.70996 0.88118 0.72483 0.0
H317 H 0.68176 0.76601 0.68057 0.0
H318 H 0.72872 0.88532 0.70589 0.0
O319 O 0.62012 0.81988 0.71062 0.0
H320 H 0.61708 0.86834 0.75872 0.0
H321 H 0.56836 0.85581 0.72547 0.0
H322 H 0.556 0.84614 0.74513 0.0
H323 H 0.58041 0.85248 0.76193 0.0
H324 H 0.62889 0.87756 0.7389 0.0
H325 H 0.54849 0.92743 0.72375 0.0
H326 H 0.52814 0.91925 0.70568 0.0
O327 O 0.59577 0.84697 0.70974 0.0
C328 C 0.6288 0.869 0.69208 0.0
C329 C 0.55141 0.8955 0.69981 0.0
C330 C 0.55469 0.91554 0.71766 0.0
N331 N 0.58206 0.88949 0.71229 0.0
C332 C 0.57095 0.8849 0.70234 0.0
C333 C 0.57417 0.90462 0.71991 0.0
C334 C 0.54327 0.91093 0.70753 0.0
C335 C 0.68408 0.86164 0.71774 0.0
N336 N 0.6755 0.85222 0.70803 0.0
C337 C 0.70331 0.87369 0.71713 0.0
C338 C 0.71381 0.87603 0.7065 0.0
C339 C 0.70507 0.86623 0.69666 0.0
C340 C 0.68581 0.85431 0.69761 0.0
C341 C 0.68845 0.78765 0.69478 0.0
C342 C 0.64725 0.80445 0.69101 0.0
C343 C 0.68028 0.80456 0.70161 0.0
N344 N 0.65989 0.81275 0.69968 0.0
C345 C 0.65489 0.78755 0.68401 0.0
C346 C 0.67563 0.77912 0.68593 0.0
C347 C 0.6006 0.82681 0.70959 0.0
C348 C 0.60628 0.86555 0.75147 0.0
C349 C 0.57913 0.85851 0.73272 0.0
C350 C 0.57202 0.85306 0.74384 0.0
C351 C 0.58571 0.85663 0.75327 0.0
N352 N 0.59931 0.86732 0.73103 0.0
C353 C 0.61286 0.87079 0.74023 0.0
Co354 Co 0.42559 0.39594 0.95668 0.0
Co355 Co 0.38783 0.36007 0.96762 0.0
O356 O 0.40365 0.38794 0.96836 0.0
C357 C 0.44329 0.41395 0.97937 0.0
O358 O 0.42767 0.40501 0.98547 0.0
C359 C 0.35006 0.39068 0.97193 0.0
O360 O 0.35546 0.40262 0.96294 0.0
O361 O 0.37753 0.36695 0.95162 0.0
O362 O 0.40772 0.38221 0.94416 0.0
H363 H 0.36415 0.28998 0.94907 0.0
H364 H 0.40366 0.42885 0.97175 0.0
O365 O 0.44449 0.41085 0.96848 0.0
H366 H 0.39351 0.45517 0.93182 0.0
H367 H 0.48108 0.44427 0.93733 0.0
H368 H 0.44552 0.37236 0.93698 0.0
H369 H 0.41352 0.42116 0.93557 0.0
H370 H 0.45286 0.43528 0.95174 0.0
O371 O 0.36135 0.37406 0.97463 0.0
H372 H 0.38423 0.32462 0.95029 0.0
H373 H 0.35724 0.3369 0.98354 0.0
H374 H 0.47349 0.38079 0.92232 0.0
H375 H 0.38373 0.46296 0.96841 0.0
H376 H 0.49149 0.41696 0.92245 0.0
H377 H 0.37849 0.4764 0.94831 0.0
O378 O 0.44148 0.36809 0.95959 0.0
H379 H 0.40176 0.37606 0.00967 0.0
H380 H 0.40881 0.32134 0.97865 0.0
H381 H 0.42234 0.31283 0.99821 0.0
H382 H 0.41881 0.34028 0.01391 0.0
H383 H 0.38871 0.38401 0.98993 0.0
H384 H 0.33675 0.30248 0.98265 0.0
H385 H 0.34019 0.2787 0.96533 0.0
O386 O 0.41375 0.34466 0.961 0.0
C387 C 0.38876 0.374 0.9431 0.0
C388 C 0.36251 0.3002 0.95666 0.0
C389 C 0.34712 0.30723 0.97549 0.0
N390 N 0.3719 0.33282 0.96695 0.0
C391 C 0.37384 0.31984 0.9574 0.0
C392 C 0.3587 0.32676 0.97593 0.0
C393 C 0.34906 0.29389 0.96578 0.0
C394 C 0.40176 0.43461 0.963 0.0
N395 N 0.41013 0.42309 0.95389 0.0
C396 C 0.39032 0.45395 0.96115 0.0
C397 C 0.38735 0.46146 0.94987 0.0
C398 C 0.39578 0.44957 0.94062 0.0
C399 C 0.40712 0.4303 0.94281 0.0
C400 C 0.47334 0.42846 0.93718 0.0
C401 C 0.45317 0.38819 0.93704 0.0
C402 C 0.4574 0.42323 0.94535 0.0
N403 N 0.44744 0.40333 0.94516 0.0
C404 C 0.46905 0.39285 0.92874 0.0
C405 C 0.47916 0.41314 0.92883 0.0
C406 C 0.43398 0.34874 0.95987 0.0
C407 C 0.40342 0.36397 1.00291 0.0
C408 C 0.40743 0.33349 0.98538 0.0
C409 C 0.41502 0.32852 0.99647 0.0
C410 C 0.413 0.34391 0.00527 0.0
N411 N 0.39813 0.35324 0.98311 0.0
C412 C 0.39602 0.36837 0.99171 0.0
Co413 Co 0.85996 0.17504 0.20923 0.0
Co414 Co 0.89382 0.13208 0.21446 0.0
O415 O 0.86738 0.14873 0.21802 0.0
C416 C 0.84742 0.20656 0.22748 0.0
O417 O 0.86261 0.21943 0.22334 0.0
C418 C 0.86014 0.09831 0.22176 0.0
O419 O 0.84444 0.11276 0.22166 0.0
O420 O 0.88397 0.12885 0.19801 0.0
O421 O 0.87381 0.16333 0.19481 0.0
H422 H 0.95928 0.11321 0.19033 0.0
H423 H 0.82445 0.15277 0.22199 0.0
O424 O 0.84543 0.18731 0.22345 0.0
H425 H 0.80211 0.1513 0.18099 0.0
H426 H 0.81086 0.23607 0.1961 0.0
H427 H 0.88414 0.20381 0.19313 0.0
H428 H 0.83655 0.16866 0.18676 0.0
H429 H 0.82003 0.20272 0.20691 0.0
O430 O 0.87938 0.1036 0.21867 0.0
H431 H 0.92627 0.13392 0.19547 0.0
H432 H 0.91719 0.09458 0.22534 0.0
H433 H 0.87564 0.23715 0.18217 0.0
H434 H 0.78969 0.13554 0.21661 0.0
H435 H 0.83877 0.25352 0.18362 0.0
H436 H 0.77835 0.13465 0.19597 0.0
O437 O 0.88839 0.18821 0.21376 0.0
H438 H 0.8837 0.1336 0.25776 0.0
H439 H 0.93589 0.14375 0.22578 0.0
H440 H 0.9481 0.14893 0.2459 0.0
H441 H 0.92196 0.14372 0.26209 0.0
H442 H 0.87211 0.12891 0.23752 0.0
H443 H 0.94997 0.07331 0.22044 0.0
H444 H 0.97132 0.08265 0.20286 0.0
O445 O 0.91 0.15952 0.21042 0.0
C446 C 0.87927 0.14449 0.19117 0.0
C447 C 0.95014 0.10901 0.19803 0.0
C448 C 0.94489 0.08659 0.21492 0.0
N449 N 0.91984 0.11554 0.21071 0.0
C450 C 0.93145 0.1207 0.20099 0.0
C451 C 0.92629 0.09865 0.21761 0.0
C452 C 0.95687 0.09185 0.20505 0.0
C453 C 0.81958 0.1526 0.213 0.0
N454 N 0.8326 0.16167 0.20472 0.0
C455 C 0.7999 0.14275 0.21 0.0
C456 C 0.79356 0.14223 0.19842 0.0
C457 C 0.8069 0.15154 0.19001 0.0
C458 C 0.82646 0.16124 0.19333 0.0
C459 C 0.82698 0.22909 0.19539 0.0
C460 C 0.86805 0.21081 0.19381 0.0
C461 C 0.83227 0.21019 0.20149 0.0
N462 N 0.85262 0.20129 0.20066 0.0
C463 C 0.86334 0.2297 0.18758 0.0
C464 C 0.84265 0.23887 0.18839 0.0
C465 C 0.90719 0.17988 0.21213 0.0
C466 C 0.89529 0.13576 0.25079 0.0
C467 C 0.92437 0.14147 0.23274 0.0
C468 C 0.93141 0.14441 0.24414 0.0
C469 C 0.91674 0.14148 0.25321 0.0
N470 N 0.90336 0.13562 0.23042 0.0
C471 C 0.88884 0.13298 0.23928 0.0
Co472 Co 0.9299 0.61394 0.95753 0.0
Co473 Co 0.88927 0.65005 0.96385 0.0
O474 O 0.90554 0.62323 0.96739 0.0
C475 C 0.94277 0.59852 0.98174 0.0
O476 O 0.92529 0.60661 0.98668 0.0
C477 C 0.85233 0.61896 0.96913 0.0
O478 O 0.85992 0.60455 0.96176 0.0
O479 O 0.88215 0.63871 0.94804 0.0
O480 O 0.91501 0.62552 0.94342 0.0
H481 H 0.86696 0.71333 0.93898 0.0
H482 H 0.90471 0.58311 0.97242 0.0
O483 O 0.94631 0.60128 0.97098 0.0
H484 H 0.90412 0.55047 0.93346 0.0
H485 H 0.98973 0.56387 0.94386 0.0
H486 H 0.95393 0.63494 0.93829 0.0
H487 H 0.92312 0.58503 0.937 0.0
H488 H 0.95845 0.57449 0.95599 0.0
O489 O 0.86207 0.63705 0.97055 0.0
H490 H 0.88764 0.68017 0.9438 0.0
H491 H 0.85549 0.67612 0.97633 0.0
H492 H 0.985 0.62482 0.92587 0.0
H493 H 0.88589 0.54838 0.96933 0.0
H494 H 1.00314 0.58906 0.92862 0.0
H495 H 0.88541 0.53176 0.94972 0.0
O496 O 0.94445 0.64255 0.96023 0.0
H497 H 0.89707 0.64494 0.0071 0.0
H498 H 0.90639 0.69226 0.97299 0.0
H499 H 0.9163 0.70607 0.99232 0.0
H500 H 0.9116 0.68236 0.00956 0.0
H501 H 0.8876 0.6317 0.98757 0.0
H502 H 0.83435 0.70915 0.97182 0.0
H503 H 0.84009 0.72804 0.95304 0.0
O504 O 0.91596 0.66462 0.95749 0.0
C505 C 0.89593 0.63176 0.94061 0.0
C506 C 0.86434 0.70527 0.9472 0.0
C507 C 0.84602 0.7029 0.96562 0.0
N508 N 0.87285 0.67623 0.96035 0.0
C509 C 0.87603 0.68649 0.94999 0.0
C510 C 0.85799 0.68415 0.96811 0.0
C511 C 0.84925 0.7135 0.95509 0.0
C512 C 0.905 0.57596 0.96391 0.0
N513 N 0.91543 0.58612 0.95496 0.0
C514 C 0.89411 0.55628 0.96219 0.0
C515 C 0.8938 0.54699 0.95118 0.0
C516 C 0.90428 0.55748 0.94206 0.0
C517 C 0.91498 0.57715 0.94412 0.0
C518 C 0.98195 0.57949 0.94257 0.0
C519 C 0.96164 0.61929 0.9395 0.0
C520 C 0.96427 0.58564 0.94944 0.0
N521 N 0.95426 0.60529 0.94781 0.0
C522 C 0.97927 0.61368 0.93246 0.0
C523 C 0.98945 0.59362 0.93402 0.0
C524 C 0.93639 0.66143 0.95852 0.0
C525 C 0.89921 0.65542 0.99965 0.0
C526 C 0.90451 0.68176 0.98041 0.0
C527 C 0.91004 0.68971 0.99136 0.0
C528 C 0.90738 0.67641 1.00103 0.0
N529 N 0.89656 0.66112 0.97913 0.0
C530 C 0.89386 0.64802 0.98857 0.0
Co531 Co 0.14762 0.17525 0.70875 0.0
Co532 Co 0.11441 0.13226 0.71471 0.0
O533 O 0.14082 0.14916 0.71784 0.0
C534 C 0.16087 0.20699 0.72672 0.0
O535 O 0.14552 0.21986 0.72274 0.0
C536 C 0.14863 0.09913 0.72208 0.0
O537 O 0.16397 0.11395 0.72214 0.0
O538 O 0.12381 0.12862 0.69822 0.0
O539 O 0.13299 0.16324 0.69462 0.0
H540 H 0.04818 0.11245 0.69151 0.0
H541 H 0.18398 0.15334 0.72101 0.0
O542 O 0.16283 0.18777 0.72266 0.0
H543 H 0.20389 0.15107 0.67964 0.0
H544 H 0.19564 0.23624 0.69456 0.0
H545 H 0.12248 0.20352 0.69282 0.0
H546 H 0.16977 0.16854 0.68592 0.0
H547 H 0.18721 0.20308 0.7057 0.0
O548 O 0.12932 0.10399 0.71894 0.0
H549 H 0.0812 0.1335 0.69612 0.0
H550 H 0.09191 0.09472 0.72604 0.0
H551 H 0.13023 0.23667 0.68154 0.0
H552 H 0.21843 0.13601 0.71511 0.0
H553 H 0.16704 0.25326 0.68236 0.0
H554 H 0.22855 0.13471 0.69428 0.0
O555 O 0.11944 0.18836 0.71368 0.0
H556 H 0.12582 0.13529 0.75791 0.0
H557 H 0.0726 0.14388 0.72633 0.0
H558 H 0.0609 0.14955 0.74652 0.0
H559 H 0.08757 0.14512 0.7625 0.0
H560 H 0.13688 0.13009 0.73762 0.0
H561 H 0.05915 0.07311 0.72167 0.0
H562 H 0.03696 0.082 0.70433 0.0
O563 O 0.09785 0.15956 0.71067 0.0
C564 C 0.12793 0.14416 0.69122 0.0
C565 C 0.05769 0.10845 0.6991 0.0
C566 C 0.06386 0.08635 0.71602 0.0
N567 N 0.08843 0.11543 0.71137 0.0
C568 C 0.07638 0.12034 0.70177 0.0
C569 C 0.08245 0.0986 0.71842 0.0
C570 C 0.05141 0.09135 0.70629 0.0
C571 C 0.18831 0.15298 0.71194 0.0
N572 N 0.17478 0.16188 0.70384 0.0
C573 C 0.20782 0.14308 0.70865 0.0
C574 C 0.21348 0.14233 0.69696 0.0
C575 C 0.19964 0.15148 0.68874 0.0
C576 C 0.18026 0.16125 0.69235 0.0
C577 C 0.17954 0.22916 0.69412 0.0
C578 C 0.13854 0.21063 0.69323 0.0
C579 C 0.17467 0.21038 0.70041 0.0
N580 N 0.15435 0.20135 0.69992 0.0
C581 C 0.14283 0.22941 0.68682 0.0
C582 C 0.16349 0.23871 0.68728 0.0
C583 C 0.10062 0.17995 0.71232 0.0
C584 C 0.114 0.13709 0.75103 0.0
C585 C 0.08433 0.1419 0.73321 0.0
C586 C 0.07759 0.14513 0.74464 0.0
C587 C 0.09255 0.14265 0.7536 0.0
N588 N 0.10535 0.13618 0.73074 0.0
C589 C 0.12015 0.13399 0.73949 0.0
Co590 Co 0.58522 0.39703 0.45323 0.0
Co591 Co 0.62262 0.36317 0.46527 0.0
O592 O 0.60694 0.39097 0.46526 0.0
C593 C 0.56184 0.4122 0.47469 0.0
O594 O 0.5663 0.3938 0.47996 0.0
C595 C 0.66064 0.39343 0.46956 0.0
O596 O 0.6562 0.40468 0.46019 0.0
O597 O 0.63368 0.36952 0.44932 0.0
O598 O 0.60191 0.37976 0.44146 0.0
H599 H 0.64759 0.29253 0.44779 0.0
H600 H 0.60604 0.43306 0.46616 0.0
O601 O 0.56814 0.41536 0.46433 0.0
H602 H 0.62119 0.44817 0.42499 0.0
H603 H 0.53174 0.44373 0.43139 0.0
H604 H 0.56338 0.37034 0.43528 0.0
H605 H 0.59972 0.41602 0.43066 0.0
H606 H 0.5599 0.43635 0.44607 0.0
O607 O 0.6487 0.37741 0.47248 0.0
H608 H 0.62751 0.32726 0.44831 0.0
H609 H 0.65209 0.34049 0.48196 0.0
H610 H 0.5354 0.37707 0.42041 0.0
H611 H 0.62748 0.46549 0.46087 0.0
H612 H 0.51937 0.41398 0.4184 0.0
H613 H 0.63521 0.4732 0.44014 0.0
O614 O 0.56872 0.37038 0.45785 0.0
H615 H 0.60444 0.38248 0.50644 0.0
H616 H 0.60209 0.3247 0.47682 0.0
H617 H 0.58709 0.31757 0.49626 0.0
H618 H 0.58826 0.34657 0.51125 0.0
H619 H 0.61905 0.38899 0.48683 0.0
H620 H 0.67261 0.30601 0.48175 0.0
H621 H 0.67036 0.2817 0.4646 0.0
O622 O 0.59691 0.34739 0.45855 0.0
C623 C 0.62172 0.37385 0.44058 0.0
C624 C 0.64869 0.30296 0.45532 0.0
C625 C 0.66275 0.31055 0.47438 0.0
N626 N 0.63856 0.33588 0.46516 0.0
C627 C 0.63732 0.32265 0.45567 0.0
C628 C 0.65116 0.3301 0.47442 0.0
C629 C 0.66147 0.29691 0.46475 0.0
C630 C 0.60925 0.43637 0.45713 0.0
N631 N 0.60159 0.42269 0.44874 0.0
C632 C 0.62143 0.45473 0.45418 0.0
C633 C 0.62577 0.45904 0.44255 0.0
C634 C 0.6179 0.44501 0.43404 0.0
C635 C 0.60579 0.42681 0.43732 0.0
C636 C 0.5386 0.42758 0.43218 0.0
C637 C 0.55656 0.38647 0.43443 0.0
C638 C 0.5545 0.42327 0.44051 0.0
N639 N 0.56334 0.40294 0.44152 0.0
C640 C 0.54068 0.39017 0.42601 0.0
C641 C 0.53168 0.41088 0.42489 0.0
C642 C 0.57648 0.35109 0.45808 0.0
C643 C 0.60387 0.3697 0.49999 0.0
C644 C 0.60254 0.33745 0.48326 0.0
C645 C 0.59409 0.33329 0.49427 0.0
C646 C 0.59477 0.34956 0.50268 0.0
N647 N 0.61144 0.35725 0.48069 0.0
C648 C 0.61216 0.37327 0.48889 0.0
Co649 Co 0.36008 0.83494 0.20975 0.0
Co650 Co 0.39678 0.87638 0.21364 0.0
O651 O 0.37029 0.86067 0.21823 0.0
C652 C 0.3506 0.80275 0.22813 0.0
O653 O 0.36451 0.78971 0.22296 0.0
C654 C 0.36431 0.91161 0.22006 0.0
O655 O 0.3479 0.89872 0.21775 0.0
O656 O 0.38523 0.88003 0.19756 0.0
O657 O 0.37064 0.84704 0.19466 0.0
H658 H 0.45967 0.89326 0.18729 0.0
H659 H 0.32893 0.85775 0.2252 0.0
O660 O 0.34866 0.82237 0.22465 0.0
H661 H 0.296 0.86127 0.18632 0.0
H662 H 0.30641 0.77604 0.19917 0.0
H663 H 0.37936 0.8064 0.19179 0.0
H664 H 0.33113 0.84284 0.1893 0.0
H665 H 0.319 0.80854 0.20972 0.0
O666 O 0.3838 0.90515 0.21845 0.0
H667 H 0.42668 0.87366 0.19352 0.0
H668 H 0.42275 0.91282 0.2238 0.0
H669 H 0.36738 0.77388 0.18103 0.0
H670 H 0.29346 0.87586 0.22266 0.0
H671 H 0.33067 0.75847 0.1847 0.0
H672 H 0.27681 0.87785 0.20309 0.0
O673 O 0.38891 0.82051 0.2122 0.0
H674 H 0.39172 0.8768 0.25711 0.0
H675 H 0.43936 0.86221 0.22361 0.0
H676 H 0.45347 0.85666 0.24337 0.0
H677 H 0.42961 0.86407 0.2603 0.0
H678 H 0.37819 0.88187 0.2372 0.0
H679 H 0.45558 0.93296 0.21784 0.0
H680 H 0.47433 0.92316 0.19949 0.0
O681 O 0.41141 0.84854 0.20899 0.0
C682 C 0.37759 0.86528 0.1909 0.0
C683 C 0.45167 0.89766 0.19532 0.0
C684 C 0.44935 0.91996 0.21245 0.0
N685 N 0.42283 0.89201 0.20903 0.0
C686 C 0.433 0.88659 0.1989 0.0
C687 C 0.43072 0.90853 0.21576 0.0
C688 C 0.45987 0.91444 0.20216 0.0
C689 C 0.3217 0.85831 0.21667 0.0
N690 N 0.33223 0.84931 0.2074 0.0
C691 C 0.30165 0.8687 0.21528 0.0
C692 C 0.29234 0.86984 0.2043 0.0
C693 C 0.30312 0.8606 0.19488 0.0
C694 C 0.32314 0.85034 0.1966 0.0
C695 C 0.32244 0.7826 0.19749 0.0
C696 C 0.36336 0.7998 0.19344 0.0
C697 C 0.32967 0.80101 0.20344 0.0
N698 N 0.34994 0.80937 0.20139 0.0
C699 C 0.35667 0.78138 0.18731 0.0
C700 C 0.33606 0.77275 0.18938 0.0
C701 C 0.40786 0.82822 0.21026 0.0
C702 C 0.4023 0.87359 0.24981 0.0
C703 C 0.42883 0.86536 0.23092 0.0
C704 C 0.43694 0.86225 0.24209 0.0
C705 C 0.42355 0.86642 0.25159 0.0
N706 N 0.408 0.87251 0.22923 0.0
C707 C 0.39475 0.87651 0.2385 0.0
Co708 Co 0.93525 0.40235 0.54913 0.0
Co709 Co 0.89294 0.36765 0.54278 0.0
O710 O 0.90978 0.39441 0.53964 0.0
C711 C 0.94717 0.41778 0.5248 0.0
O712 O 0.92982 0.40911 0.52007 0.0
C713 C 0.85929 0.40122 0.53512 0.0
O714 O 0.87365 0.41697 0.53538 0.0
O715 O 0.8882 0.37694 0.55919 0.0
O716 O 0.92124 0.3901 0.56333 0.0
H717 H 0.87266 0.30166 0.5661 0.0
H718 H 0.91271 0.43633 0.53507 0.0
O719 O 0.95094 0.41549 0.53557 0.0
H720 H 0.91158 0.46399 0.57511 0.0
H721 H 0.99676 0.45031 0.56263 0.0
H722 H 0.9604 0.37934 0.56728 0.0
H723 H 0.92894 0.42892 0.57055 0.0
H724 H 0.96449 0.44115 0.55095 0.0
O725 O 0.86461 0.38195 0.53812 0.0
H726 H 0.8935 0.33488 0.56162 0.0
H727 H 0.85661 0.3442 0.53091 0.0
H728 H 0.99251 0.38795 0.57923 0.0
H729 H 0.8956 0.47167 0.53916 0.0
H730 H 0.01093 0.42366 0.57694 0.0
H731 H 0.89482 0.48574 0.55933 0.0
O732 O 0.94894 0.37365 0.54562 0.0
H733 H 0.89587 0.3778 0.49949 0.0
H734 H 0.907 0.32617 0.5316 0.0
H735 H 0.9137 0.31419 0.51156 0.0
H736 H 0.90802 0.34005 0.4953 0.0
H737 H 0.8897 0.38918 0.51965 0.0
H738 H 0.83526 0.31119 0.53512 0.0
H739 H 0.84329 0.28961 0.55279 0.0
O740 O 0.92011 0.35162 0.54737 0.0
C741 C 0.90256 0.38325 0.56643 0.0
C742 C 0.86904 0.31089 0.55835 0.0
C743 C 0.84803 0.31626 0.54097 0.0
N744 N 0.87637 0.34143 0.54599 0.0
C745 C 0.88082 0.3297 0.55576 0.0
C746 C 0.86014 0.33498 0.53866 0.0
C747 C 0.85255 0.30415 0.55089 0.0
C748 C 0.91271 0.44232 0.54384 0.0
N749 N 0.92185 0.43037 0.55255 0.0
C750 C 0.90286 0.46236 0.54612 0.0
C751 C 0.90239 0.47023 0.55744 0.0
C752 C 0.91175 0.45802 0.56629 0.0
C753 C 0.92144 0.43805 0.56367 0.0
C754 C 0.98886 0.43471 0.56372 0.0
C755 C 0.96825 0.39496 0.56627 0.0
C756 C 0.97062 0.42939 0.5571 0.0
N757 N 0.96048 0.40975 0.55847 0.0
C758 C 0.98646 0.39972 0.57304 0.0
C759 C 0.9968 0.41975 0.57175 0.0
C760 C 0.9406 0.35474 0.54665 0.0
C761 C 0.8983 0.36634 0.50649 0.0
C762 C 0.9046 0.3376 0.52461 0.0
C763 C 0.90836 0.33067 0.51326 0.0
C764 C 0.90516 0.34518 0.50415 0.0
N765 N 0.89775 0.35836 0.52686 0.0
C766 C 0.8947 0.37268 0.51795 0.0
Co767 Co 0.36213 0.18276 0.30208 0.0
Co768 Co 0.39878 0.14291 0.29532 0.0
O769 O 0.37172 0.15887 0.29196 0.0
C770 C 0.34695 0.19622 0.27797 0.0
O771 O 0.35606 0.17938 0.27291 0.0
C772 C 0.36797 0.10618 0.28922 0.0
O773 O 0.35281 0.11397 0.2961 0.0
O774 O 0.38743 0.13506 0.31101 0.0
O775 O 0.37412 0.16764 0.31604 0.0
H776 H 0.46218 0.12069 0.32011 0.0
H777 H 0.33119 0.15836 0.28695 0.0
O778 O 0.34906 0.19932 0.28882 0.0
H779 H 0.29976 0.15447 0.32616 0.0
H780 H 0.311 0.24102 0.31651 0.0
H781 H 0.38294 0.20666 0.32143 0.0
H782 H 0.33404 0.1741 0.32272 0.0
H783 H 0.32212 0.21036 0.30406 0.0
O784 O 0.38629 0.1157 0.28839 0.0
H785 H 0.42873 0.141 0.31542 0.0
H786 H 0.42559 0.11011 0.28254 0.0
H787 H 0.37235 0.23712 0.33415 0.0
H788 H 0.29673 0.13893 0.28995 0.0
H789 H 0.33615 0.25453 0.33173 0.0
H790 H 0.28074 0.1368 0.30968 0.0
O791 O 0.39046 0.19787 0.29944 0.0
H792 H 0.39359 0.15196 0.25215 0.0
H793 H 0.44078 0.16086 0.28632 0.0
H794 H 0.45445 0.17158 0.26708 0.0
H795 H 0.4308 0.1671 0.24981 0.0
H796 H 0.38049 0.14171 0.27159 0.0
H797 H 0.45891 0.08934 0.28691 0.0
H798 H 0.4775 0.09463 0.3058 0.0
O799 O 0.41293 0.16962 0.30193 0.0
C800 C 0.38038 0.14846 0.31861 0.0
C801 C 0.45425 0.11827 0.31184 0.0
C802 C 0.45239 0.10065 0.29322 0.0
N803 N 0.42522 0.12681 0.2987 0.0
C804 C 0.43531 0.12975 0.30913 0.0
C805 C 0.43348 0.1124 0.29081 0.0
C806 C 0.46283 0.10364 0.30382 0.0
C807 C 0.32428 0.15791 0.29553 0.0
N808 N 0.33462 0.16775 0.30461 0.0
C809 C 0.30477 0.14669 0.29719 0.0
C810 C 0.29584 0.14545 0.30826 0.0
C811 C 0.30651 0.15535 0.31751 0.0
C812 C 0.32599 0.16641 0.31551 0.0
C813 C 0.32681 0.23355 0.31766 0.0
C814 C 0.36711 0.21406 0.32036 0.0
C815 C 0.33324 0.21623 0.31061 0.0
N816 N 0.35314 0.20662 0.31205 0.0
C817 C 0.36122 0.23134 0.32757 0.0
C818 C 0.34092 0.24112 0.3262 0.0
C819 C 0.40945 0.19003 0.30108 0.0
C820 C 0.40404 0.15403 0.25961 0.0
C821 C 0.43029 0.15911 0.27889 0.0
C822 C 0.43817 0.16509 0.26799 0.0
C823 C 0.42491 0.16254 0.2583 0.0
N824 N 0.40977 0.15086 0.28011 0.0
C825 C 0.39671 0.14824 0.27064 0.0
Co826 Co 0.57674 0.61043 0.04837 0.0
Co827 Co 0.61941 0.64501 0.04223 0.0
O828 O 0.60229 0.61847 0.03892 0.0
C829 C 0.56434 0.59601 0.0239 0.0
O830 O 0.58189 0.60432 0.01917 0.0
C831 C 0.65308 0.61132 0.03455 0.0
O832 O 0.63882 0.59548 0.03485 0.0
O833 O 0.62396 0.63545 0.05863 0.0
O834 O 0.59105 0.62178 0.06266 0.0
H835 H 0.64017 0.71041 0.06591 0.0
H836 H 0.59899 0.57697 0.03377 0.0
O837 O 0.56071 0.59816 0.0347 0.0
H838 H 0.59961 0.54712 0.07334 0.0
H839 H 0.51466 0.56269 0.0614 0.0
H840 H 0.5521 0.63286 0.06696 0.0
H841 H 0.5827 0.58263 0.06935 0.0
H842 H 0.54698 0.57195 0.04975 0.0
O843 O 0.64764 0.63057 0.03753 0.0
H844 H 0.61908 0.67744 0.06126 0.0
H845 H 0.65594 0.6684 0.03047 0.0
H846 H 0.51997 0.62413 0.07888 0.0
H847 H 0.61563 0.54122 0.03728 0.0
H848 H 0.501 0.58883 0.07613 0.0
H849 H 0.61615 0.52603 0.05721 0.0
O850 O 0.56334 0.63947 0.04536 0.0
H851 H 0.61667 0.63524 0.99893 0.0
H852 H 0.60594 0.68677 0.03116 0.0
H853 H 0.59948 0.69897 0.01114 0.0
H854 H 0.60496 0.67315 0.99483 0.0
H855 H 0.62259 0.62366 0.01907 0.0
H856 H 0.67755 0.70115 0.03486 0.0
H857 H 0.66966 0.72247 0.05267 0.0
O858 O 0.59242 0.66122 0.04687 0.0
C859 C 0.60966 0.62872 0.06581 0.0
C860 C 0.64374 0.70129 0.05812 0.0
C861 C 0.66473 0.69608 0.0407 0.0
N862 N 0.63619 0.67103 0.04558 0.0
C863 C 0.63182 0.68262 0.05542 0.0
C864 C 0.65248 0.67749 0.03828 0.0
C865 C 0.66029 0.70803 0.05068 0.0
C866 C 0.59885 0.5705 0.04243 0.0
N867 N 0.58982 0.58207 0.05133 0.0
C868 C 0.60844 0.55022 0.04439 0.0
C869 C 0.60877 0.54173 0.05557 0.0
C870 C 0.59954 0.55356 0.06462 0.0
C871 C 0.59011 0.57379 0.06232 0.0
C872 C 0.5228 0.57812 0.06268 0.0
C873 C 0.54402 0.61742 0.06575 0.0
C874 C 0.54107 0.5835 0.05608 0.0
N875 N 0.55151 0.60291 0.0577 0.0
C876 C 0.52579 0.61259 0.07251 0.0
C877 C 0.51515 0.59278 0.07095 0.0
C878 C 0.57189 0.65829 0.04641 0.0
C879 C 0.61432 0.64668 0.00595 0.0
C880 C 0.60822 0.67537 0.02414 0.0
C881 C 0.60462 0.68241 0.0128 0.0
C882 C 0.60771 0.66793 1.00366 0.0
N883 N 0.61481 0.65451 0.02634 0.0
C884 C 0.61778 0.64023 0.01741 0.0
Co885 Co 0.14356 0.82363 0.80245 0.0
Co886 Co 0.11079 0.86213 0.79071 0.0
O887 O 0.13839 0.8461 0.79065 0.0
C888 C 0.16124 0.80322 0.78067 0.0
O889 O 0.14445 0.81033 0.77475 0.0
C890 C 0.14136 0.90027 0.78713 0.0
O891 O 0.15224 0.89571 0.79661 0.0
O892 O 0.11705 0.87224 0.80685 0.0
O893 O 0.12537 0.83953 0.81413 0.0
H894 H 0.04016 0.8869 0.80828 0.0
H895 H 0.18067 0.84496 0.79066 0.0
O896 O 0.16268 0.80703 0.79148 0.0
H897 H 0.19205 0.85857 0.83232 0.0
H898 H 0.18866 0.76909 0.82448 0.0
H899 H 0.11548 0.8006 0.81938 0.0
H900 H 0.1606 0.83713 0.82563 0.0
H901 H 0.18235 0.79808 0.81012 0.0
O902 O 0.12547 0.88839 0.78398 0.0
H903 H 0.07463 0.86639 0.80756 0.0
H904 H 0.08879 0.89296 0.77444 0.0
H905 H 0.12112 0.77178 0.83392 0.0
H906 H 0.21249 0.86631 0.79699 0.0
H907 H 0.15793 0.7558 0.83654 0.0
H908 H 0.21831 0.87329 0.81796 0.0
O909 O 0.11721 0.80763 0.79698 0.0
H910 H 0.13041 0.84675 0.74926 0.0
H911 H 0.07228 0.84277 0.77864 0.0
H912 H 0.06521 0.82934 0.75888 0.0
H913 H 0.09438 0.83135 0.74401 0.0
H914 H 0.13687 0.85973 0.76918 0.0
H915 H 0.05459 0.91393 0.77486 0.0
H916 H 0.02995 0.9109 0.79185 0.0
O917 O 0.09456 0.83615 0.79689 0.0
C918 C 0.12032 0.85949 0.81539 0.0
C919 C 0.05074 0.88834 0.80082 0.0
C920 C 0.05886 0.90353 0.78207 0.0
N921 N 0.0837 0.87841 0.79095 0.0
C922 C 0.07027 0.87673 0.80035 0.0
C923 C 0.07825 0.89167 0.7819 0.0
C924 C 0.04503 0.90181 0.7916 0.0
C925 C 0.18319 0.84778 0.7998 0.0
N926 N 0.16885 0.83971 0.80776 0.0
C927 C 0.2012 0.85993 0.80333 0.0
C928 C 0.20445 0.86386 0.8151 0.0
C929 C 0.18973 0.8556 0.82317 0.0
C930 C 0.17192 0.8435 0.81932 0.0
C931 C 0.17255 0.77592 0.82342 0.0
C932 C 0.13156 0.7938 0.82049 0.0
C933 C 0.16885 0.79229 0.81526 0.0
N934 N 0.14856 0.80107 0.81391 0.0
C935 C 0.13465 0.77745 0.82872 0.0
C936 C 0.1553 0.76848 0.83019 0.0
C937 C 0.09801 0.81563 0.79682 0.0
C938 C 0.11756 0.8458 0.75565 0.0
C939 C 0.08512 0.84352 0.77226 0.0
C940 C 0.08099 0.83598 0.76106 0.0
C941 C 0.09736 0.83714 0.75272 0.0
N942 N 0.105 0.85198 0.77508 0.0
C943 C 0.1211 0.85319 0.76694 0.0
Co944 Co 0.57749 0.89316 0.55118 0.0
Co945 Co 0.6211 0.86155 0.54401 0.0
O946 O 0.6038 0.88827 0.54173 0.0
C947 C 0.56732 0.91502 0.52806 0.0
O948 O 0.58516 0.90776 0.52313 0.0
C949 C 0.65431 0.89632 0.53713 0.0
O950 O 0.63966 0.91185 0.5374 0.0
O951 O 0.62523 0.86953 0.56069 0.0
O952 O 0.59047 0.87714 0.56458 0.0
H953 H 0.64238 0.79365 0.56545 0.0
H954 H 0.60059 0.93102 0.54067 0.0
O955 O 0.56269 0.90987 0.53846 0.0
H956 H 0.5981 0.94637 0.58254 0.0
H957 H 0.51404 0.93604 0.56694 0.0
H958 H 0.55114 0.86487 0.56657 0.0
H959 H 0.58166 0.91294 0.5747 0.0
H960 H 0.54746 0.93067 0.55546 0.0
O961 O 0.64921 0.87688 0.53992 0.0
H962 H 0.62093 0.8269 0.56186 0.0
H963 H 0.6582 0.84011 0.53166 0.0
H964 H 0.51786 0.8696 0.57823 0.0
H965 H 0.61693 0.96477 0.5481 0.0
H966 H 0.49907 0.9054 0.57847 0.0
H967 H 0.61582 0.97265 0.5692 0.0
O968 O 0.56502 0.86556 0.5451 0.0
H969 H 0.61779 0.87641 0.50112 0.0
H970 H 0.60885 0.82084 0.53151 0.0
H971 H 0.60266 0.81088 0.51112 0.0
H972 H 0.60723 0.83874 0.49573 0.0
H973 H 0.62351 0.88571 0.5216 0.0
H974 H 0.68018 0.80714 0.535 0.0
H975 H 0.67226 0.78359 0.55196 0.0
O976 O 0.59411 0.84434 0.54792 0.0
C977 C 0.6098 0.87298 0.56788 0.0
C978 C 0.64596 0.80376 0.55802 0.0
C979 C 0.6672 0.81135 0.54093 0.0
N980 N 0.63822 0.8354 0.54654 0.0
C981 C 0.63384 0.82259 0.55593 0.0
C982 C 0.65473 0.83005 0.53912 0.0
C983 C 0.66274 0.79813 0.55045 0.0
C984 C 0.59979 0.93435 0.54982 0.0
N985 N 0.59001 0.91998 0.55719 0.0
C986 C 0.60918 0.95349 0.554 0.0
C987 C 0.60859 0.95789 0.56584 0.0
C988 C 0.59866 0.94315 0.57332 0.0
C989 C 0.58944 0.92418 0.56883 0.0
C990 C 0.52209 0.92037 0.56691 0.0
C991 C 0.54312 0.88052 0.56665 0.0
C992 C 0.54099 0.9172 0.5604 0.0
N993 N 0.55133 0.89749 0.56037 0.0
C994 C 0.52425 0.88309 0.57326 0.0
C995 C 0.5137 0.90317 0.57339 0.0
C996 C 0.57376 0.8468 0.54605 0.0
C997 C 0.61586 0.86409 0.50773 0.0
C998 C 0.61082 0.83311 0.5249 0.0
C999 C 0.60733 0.82734 0.51335 0.0
C1000 C 0.6099 0.84297 0.50472 0.0
N1001 N 0.6168 0.85384 0.52781 0.0
C1002 C 0.61922 0.86925 0.51938 0.0
Co1003 Co 0.36051 0.33231 0.80027 0.0
Co1004 Co 0.39476 0.37539 0.79633 0.0
O1005 O 0.36845 0.35913 0.7921 0.0
C1006 C 0.34888 0.30217 0.78126 0.0
O1007 O 0.36387 0.28897 0.78533 0.0
C1008 C 0.36134 0.40951 0.78929 0.0
O1009 O 0.34573 0.39499 0.78912 0.0
O1010 O 0.38408 0.37757 0.81268 0.0
O1011 O 0.37362 0.34298 0.8151 0.0
H1012 H 0.45905 0.39236 0.82163 0.0
H1013 H 0.32561 0.35551 0.7875 0.0
O1014 O 0.34668 0.32111 0.78565 0.0
H1015 H 0.30128 0.35425 0.82821 0.0
H1016 H 0.31069 0.2706 0.81157 0.0
H1017 H 0.38384 0.30238 0.8161 0.0
H1018 H 0.33597 0.33719 0.82255 0.0
H1019 H 0.32043 0.30463 0.80153 0.0
O1020 O 0.38052 0.40418 0.79245 0.0
H1021 H 0.42627 0.37213 0.81568 0.0
H1022 H 0.41863 0.41357 0.78651 0.0
H1023 H 0.37477 0.26834 0.8263 0.0
H1024 H 0.29059 0.37244 0.79276 0.0
H1025 H 0.33796 0.25222 0.82407 0.0
H1026 H 0.27826 0.37197 0.81326 0.0
O1027 O 0.38906 0.31937 0.79582 0.0
H1028 H 0.3869 0.37689 0.75291 0.0
H1029 H 0.43733 0.36417 0.78538 0.0
H1030 H 0.45057 0.36028 0.76535 0.0
H1031 H 0.42532 0.3668 0.74892 0.0
H1032 H 0.37427 0.38028 0.77305 0.0
H1033 H 0.45119 0.43437 0.79222 0.0
H1034 H 0.47171 0.42373 0.80986 0.0
O1035 O 0.41068 0.34759 0.80006 0.0
C1036 C 0.37881 0.36158 0.81917 0.0
C1037 C 0.45027 0.39712 0.81391 0.0
C1038 C 0.44585 0.42072 0.79741 0.0
N1039 N 0.42059 0.39157 0.80073 0.0
C1040 C 0.43172 0.3857 0.81048 0.0
C1041 C 0.42737 0.40892 0.79425 0.0
C1042 C 0.45736 0.41474 0.80731 0.0
C1043 C 0.3203 0.3551 0.79642 0.0
N1044 N 0.33293 0.34546 0.80469 0.0
C1045 C 0.30048 0.36478 0.79936 0.0
C1046 C 0.29358 0.36453 0.81086 0.0
C1047 C 0.30651 0.35463 0.81925 0.0
C1048 C 0.32623 0.34511 0.816 0.0
C1049 C 0.32678 0.27747 0.81262 0.0
C1050 C 0.36779 0.29548 0.81508 0.0
C1051 C 0.33239 0.29675 0.80696 0.0
N1052 N 0.3527 0.30552 0.80823 0.0
C1053 C 0.36274 0.2762 0.82088 0.0
C1054 C 0.34209 0.26717 0.81963 0.0
C1055 C 0.40783 0.32743 0.79779 0.0
C1056 C 0.39811 0.37417 0.75999 0.0
C1057 C 0.4262 0.36702 0.77831 0.0
C1058 C 0.43382 0.36481 0.76696 0.0
C1059 C 0.41965 0.36847 0.75776 0.0
N1060 N 0.4051 0.37286 0.78045 0.0
C1061 C 0.39107 0.37622 0.77145 0.0
Co1062 Co 0.9295 0.11159 0.05476 0.0
Co1063 Co 0.89208 0.14545 0.04272 0.0
O1064 O 0.90781 0.11767 0.04271 0.0
C1065 C 0.95241 0.09648 0.03316 0.0
O1066 O 0.94722 0.11464 0.02783 0.0
C1067 C 0.85399 0.11534 0.03834 0.0
O1068 O 0.85807 0.10423 0.04781 0.0
O1069 O 0.88093 0.13899 0.05862 0.0
O1070 O 0.91262 0.12867 0.06656 0.0
H1071 H 0.86674 0.21592 0.06026 0.0
H1072 H 0.90884 0.07564 0.0417 0.0
O1073 O 0.94675 0.09344 0.04363 0.0
H1074 H 0.89376 0.05994 0.08282 0.0
H1075 H 0.98309 0.06497 0.07658 0.0
H1076 H 0.95111 0.13825 0.0728 0.0
H1077 H 0.91506 0.09228 0.07726 0.0
H1078 H 0.95498 0.07234 0.06187 0.0
O1079 O 0.86613 0.1312 0.03543 0.0
H1080 H 0.88694 0.18125 0.05973 0.0
H1081 H 0.86269 0.16815 0.026 0.0
H1082 H 0.97905 0.13154 0.08769 0.0
H1083 H 0.88755 0.04304 0.04688 0.0
H1084 H 0.99524 0.09468 0.08966 0.0
H1085 H 0.87987 0.03504 0.06757 0.0
O1086 O 0.94593 0.13835 0.0502 0.0
H1087 H 0.9104 0.1266 1.0015 0.0
H1088 H 0.91271 0.18402 0.03132 0.0
H1089 H 0.92778 0.19137 0.01192 0.0
H1090 H 0.92662 0.16255 0.99684 0.0
H1091 H 0.89574 0.11986 0.02108 0.0
H1092 H 0.84206 0.20257 0.02621 0.0
H1093 H 0.84409 0.22678 0.04342 0.0
O1094 O 0.91765 0.16122 0.04955 0.0
C1095 C 0.89279 0.13462 0.06739 0.0
C1096 C 0.86575 0.20552 0.05271 0.0
C1097 C 0.85187 0.19802 0.03361 0.0
N1098 N 0.87606 0.1727 0.04284 0.0
C1099 C 0.87718 0.18588 0.05235 0.0
C1100 C 0.86353 0.1785 0.03356 0.0
C1101 C 0.85303 0.2116 0.04326 0.0
C1102 C 0.90565 0.07221 0.05072 0.0
N1103 N 0.91324 0.08582 0.05916 0.0
C1104 C 0.89355 0.05375 0.0536 0.0
C1105 C 0.88923 0.04927 0.06522 0.0
C1106 C 0.89703 0.06323 0.07377 0.0
C1107 C 0.90905 0.08154 0.07057 0.0
C1108 C 0.97615 0.0811 0.07581 0.0
C1109 C 0.95801 0.12214 0.07362 0.0
C1110 C 0.96028 0.0854 0.06746 0.0
N1111 N 0.95135 0.1057 0.06649 0.0
C1112 C 0.97386 0.11845 0.08206 0.0
C1113 C 0.98295 0.09777 0.08315 0.0
C1114 C 0.93809 0.15761 0.04997 0.0
C1115 C 0.91096 0.1393 0.008 0.0
C1116 C 0.91228 0.17134 0.02484 0.0
C1117 C 0.92076 0.17563 0.01385 0.0
C1118 C 0.92009 0.15946 0.00539 0.0
N1119 N 0.90336 0.15151 0.02734 0.0
C1120 C 0.90264 0.1356 0.01908 0.0
Co1121 Co 0.14891 0.67641 0.29808 0.0
Co1122 Co 0.11432 0.63339 0.29435 0.0
O1123 O 0.14047 0.64973 0.28987 0.0
C1124 C 0.15969 0.7072 0.27924 0.0
O1125 O 0.14494 0.72029 0.28366 0.0
C1126 C 0.14764 0.59914 0.28727 0.0
O1127 O 0.16344 0.61344 0.28739 0.0
O1128 O 0.12544 0.63107 0.3106 0.0
O1129 O 0.1368 0.66537 0.31303 0.0
H1130 H 0.05091 0.61611 0.32026 0.0
H1131 H 0.18289 0.65353 0.28441 0.0
O1132 O 0.1618 0.688 0.28329 0.0
H1133 H 0.21005 0.65377 0.32459 0.0
H1134 H 0.19952 0.73773 0.309 0.0
H1135 H 0.12662 0.70594 0.31457 0.0
H1136 H 0.17499 0.67095 0.31978 0.0
H1137 H 0.18914 0.70399 0.29887 0.0
O1138 O 0.1284 0.60465 0.29025 0.0
H1139 H 0.08349 0.6364 0.31404 0.0
H1140 H 0.09004 0.59539 0.2846 0.0
H1141 H 0.13635 0.7397 0.32487 0.0
H1142 H 0.21827 0.63654 0.2888 0.0
H1143 H 0.17303 0.75583 0.32211 0.0
H1144 H 0.23203 0.63648 0.30903 0.0
O1145 O 0.12005 0.68955 0.29432 0.0
H1146 H 0.12112 0.63186 0.25089 0.0
H1147 H 0.07147 0.6447 0.28374 0.0
H1148 H 0.05779 0.64869 0.26381 0.0
H1149 H 0.08266 0.64212 0.24719 0.0
H1150 H 0.13419 0.62837 0.27095 0.0
H1151 H 0.05767 0.57454 0.29056 0.0
H1152 H 0.03779 0.58493 0.30848 0.0
O1153 O 0.09854 0.66109 0.29831 0.0
C1154 C 0.13141 0.64684 0.31708 0.0
C1155 C 0.0594 0.61145 0.31242 0.0
C1156 C 0.06321 0.5881 0.29576 0.0
N1157 N 0.08862 0.61717 0.29894 0.0
C1158 C 0.07784 0.62291 0.30884 0.0
C1159 C 0.08159 0.59993 0.29245 0.0
C1160 C 0.05206 0.59395 0.30581 0.0
C1161 C 0.18882 0.65374 0.29322 0.0
N1162 N 0.17676 0.66314 0.30182 0.0
C1163 C 0.20884 0.64402 0.29566 0.0
C1164 C 0.21654 0.64396 0.30701 0.0
C1165 C 0.2042 0.65362 0.31575 0.0
C1166 C 0.18425 0.66319 0.31298 0.0
C1167 C 0.18349 0.73086 0.31027 0.0
C1168 C 0.14261 0.71285 0.31331 0.0
C1169 C 0.17751 0.71174 0.30456 0.0
N1170 N 0.15725 0.70298 0.3061 0.0
C1171 C 0.14803 0.73197 0.31917 0.0
C1172 C 0.16862 0.74101 0.31762 0.0
C1173 C 0.10135 0.68138 0.29641 0.0
C1174 C 0.11009 0.63464 0.25805 0.0
C1175 C 0.08243 0.64188 0.27658 0.0
C1176 C 0.07457 0.64412 0.2653 0.0
C1177 C 0.08852 0.64043 0.25598 0.0
N1178 N 0.10357 0.636 0.27856 0.0
C1179 C 0.11738 0.63256 0.26946 0.0
Co1180 Co 0.57982 0.11265 0.95942 0.0
Co1181 Co 0.62239 0.1462 0.96562 0.0
O1182 O 0.60572 0.1196 0.96862 0.0
C1183 C 0.54803 0.09846 0.9772 0.0
O1184 O 0.53482 0.11347 0.97318 0.0
C1185 C 0.65574 0.11204 0.97272 0.0
O1186 O 0.64108 0.09657 0.9724 0.0
O1187 O 0.62631 0.13703 0.94912 0.0
O1188 O 0.59181 0.12762 0.94539 0.0
H1189 H 0.64184 0.21288 0.94267 0.0
H1190 H 0.60189 0.07626 0.9716 0.0
O1191 O 0.56738 0.09708 0.97325 0.0
H1192 H 0.60499 0.05712 0.93015 0.0
H1193 H 0.51962 0.06411 0.94479 0.0
H1194 H 0.55141 0.13772 0.94353 0.0
H1195 H 0.58711 0.09096 0.93652 0.0
H1196 H 0.55253 0.07275 0.95609 0.0
O1197 O 0.65075 0.1315 0.96988 0.0
H1198 H 0.62105 0.17961 0.94713 0.0
H1199 H 0.65957 0.16893 0.97714 0.0
H1200 H 0.5185 0.12976 0.93211 0.0
H1201 H 0.6196 0.04206 0.96561 0.0
H1202 H 0.50237 0.09273 0.93269 0.0
H1203 H 0.62133 0.03233 0.94474 0.0
O1204 O 0.56633 0.14064 0.96442 0.0
H1205 H 0.61944 0.13426 0.00877 0.0
H1206 H 0.61 0.18769 0.97734 0.0
H1207 H 0.60408 0.19906 0.99756 0.0
H1208 H 0.60893 0.17229 0.01347 0.0
H1209 H 0.62489 0.12352 0.98844 0.0
H1210 H 0.68092 0.20195 0.97293 0.0
H1211 H 0.67204 0.22424 0.95562 0.0
O1212 O 0.59498 0.16252 0.96154 0.0
C1213 C 0.61088 0.1329 0.94207 0.0
C1214 C 0.64584 0.20332 0.95026 0.0
C1215 C 0.6678 0.19718 0.96723 0.0
N1216 N 0.639 0.17238 0.96241 0.0
C1217 C 0.63409 0.18449 0.95284 0.0
C1218 C 0.65569 0.17844 0.96954 0.0
C1219 C 0.66279 0.20968 0.95752 0.0
C1220 C 0.60243 0.0721 0.96251 0.0
N1221 N 0.59355 0.0857 0.95444 0.0
C1222 C 0.61254 0.05272 0.95917 0.0
C1223 C 0.61353 0.04729 0.94746 0.0
C1224 C 0.6044 0.0612 0.93927 0.0
C1225 C 0.59441 0.08043 0.94293 0.0
C1226 C 0.52649 0.0803 0.94446 0.0
C1227 C 0.54451 0.12156 0.94384 0.0
C1228 C 0.54513 0.0853 0.95084 0.0
N1229 N 0.55391 0.10574 0.95048 0.0
C1230 C 0.52586 0.11715 0.93735 0.0
C1231 C 0.51682 0.09637 0.93768 0.0
C1232 C 0.57458 0.15955 0.96309 0.0
C1233 C 0.61744 0.14612 1.00192 0.0
C1234 C 0.61216 0.17592 0.98419 0.0
C1235 C 0.60879 0.18247 0.99564 0.0
C1236 C 0.61151 0.16745 0.00455 0.0
N1237 N 0.61824 0.15502 0.98166 0.0
C1238 C 0.62067 0.14016 0.99037 0.0
Co1239 Co 0.14614 0.32443 0.20827 0.0
Co1240 Co 0.10939 0.36386 0.2157 0.0
O1241 O 0.13661 0.34793 0.21865 0.0
C1242 C 0.16167 0.31028 0.23219 0.0
O1243 O 0.15251 0.32691 0.23741 0.0
C1244 C 0.14007 0.40093 0.22116 0.0
O1245 O 0.15432 0.3938 0.21357 0.0
O1246 O 0.11999 0.37213 0.19993 0.0
O1247 O 0.13392 0.34001 0.19451 0.0
H1248 H 0.04478 0.38638 0.19189 0.0
H1249 H 0.17696 0.34873 0.22351 0.0
O1250 O 0.15946 0.30748 0.22133 0.0
H1251 H 0.20828 0.3536 0.18431 0.0
H1252 H 0.19725 0.2668 0.19312 0.0
H1253 H 0.1252 0.30119 0.18875 0.0
H1254 H 0.1742 0.33361 0.18767 0.0
H1255 H 0.18619 0.29698 0.2059 0.0
O1256 O 0.12216 0.39092 0.22265 0.0
H1257 H 0.07849 0.36606 0.19602 0.0
H1258 H 0.08318 0.39641 0.22899 0.0
H1259 H 0.13573 0.27121 0.17568 0.0
H1260 H 0.21123 0.36853 0.2206 0.0
H1261 H 0.17198 0.25379 0.17783 0.0
H1262 H 0.22717 0.37116 0.20087 0.0
O1263 O 0.11791 0.30908 0.21086 0.0
H1264 H 0.1162 0.35407 0.25876 0.0
H1265 H 0.06791 0.34532 0.22501 0.0
H1266 H 0.05502 0.33413 0.24433 0.0
H1267 H 0.07922 0.33854 0.26139 0.0
H1268 H 0.12853 0.36479 0.23925 0.0
H1269 H 0.04961 0.41718 0.22518 0.0
H1270 H 0.03012 0.41216 0.20653 0.0
O1271 O 0.0951 0.33727 0.20907 0.0
C1272 C 0.12711 0.35912 0.19217 0.0
C1273 C 0.0531 0.38868 0.20006 0.0
C1274 C 0.05583 0.40599 0.21873 0.0
N1275 N 0.08277 0.37997 0.21275 0.0
C1276 C 0.07219 0.37719 0.20245 0.0
C1277 C 0.07488 0.39423 0.22083 0.0
C1278 C 0.0449 0.40315 0.20827 0.0
C1279 C 0.18383 0.34941 0.21493 0.0
N1280 N 0.17356 0.33966 0.20581 0.0
C1281 C 0.20324 0.36083 0.21332 0.0
C1282 C 0.21215 0.36235 0.20225 0.0
C1283 C 0.20156 0.35252 0.19296 0.0
C1284 C 0.18217 0.34126 0.19491 0.0
C1285 C 0.18142 0.27427 0.19208 0.0
C1286 C 0.14106 0.29378 0.18969 0.0
C1287 C 0.17502 0.29133 0.19933 0.0
N1288 N 0.15509 0.30095 0.19804 0.0
C1289 C 0.14691 0.27677 0.18229 0.0
C1290 C 0.16724 0.26699 0.1835 0.0
C1291 C 0.09879 0.31685 0.20956 0.0
C1292 C 0.10551 0.35203 0.2514 0.0
C1293 C 0.07864 0.34705 0.23235 0.0
C1294 C 0.0712 0.3408 0.24329 0.0
C1295 C 0.08477 0.34331 0.25286 0.0
N1296 N 0.09905 0.35552 0.23097 0.0
C1297 C 0.1124 0.3581 0.24032 0.0
Co1298 Co 0.93086 0.90176 0.45926 0.0
Co1299 Co 0.89097 0.86448 0.46528 0.0
O1300 O 0.90715 0.89116 0.4692 0.0
C1301 C 0.9453 0.91436 0.48373 0.0
O1302 O 0.92838 0.90534 0.48873 0.0
C1303 C 0.8536 0.8947 0.47133 0.0
O1304 O 0.86058 0.90949 0.46401 0.0
O1305 O 0.88316 0.87666 0.44973 0.0
O1306 O 0.91521 0.89167 0.44508 0.0
H1307 H 0.86857 0.80247 0.43953 0.0
H1308 H 0.90636 0.93046 0.47562 0.0
O1309 O 0.94798 0.91304 0.47281 0.0
H1310 H 0.90298 0.96775 0.43792 0.0
H1311 H 0.9893 0.95391 0.44621 0.0
H1312 H 0.95389 0.88322 0.43897 0.0
H1313 H 0.92264 0.93308 0.43992 0.0
H1314 H 0.95887 0.94164 0.4585 0.0
O1315 O 0.86384 0.8768 0.47249 0.0
H1316 H 0.88906 0.83551 0.44475 0.0
H1317 H 0.85784 0.83738 0.47758 0.0
H1318 H 0.98408 0.89502 0.42638 0.0
H1319 H 0.8869 0.96524 0.47407 0.0
H1320 H 1.00202 0.93059 0.42998 0.0
H1321 H 0.88501 0.98418 0.45511 0.0
O1322 O 0.94591 0.87303 0.46072 0.0
H1323 H 0.89995 0.86678 0.50854 0.0
H1324 H 0.90904 0.82196 0.47343 0.0
H1325 H 0.91969 0.80697 0.49239 0.0
H1326 H 0.9151 0.82941 0.51013 0.0
H1327 H 0.88975 0.88122 0.48937 0.0
H1328 H 0.83689 0.80445 0.47268 0.0
H1329 H 0.84225 0.78671 0.45355 0.0
O1330 O 0.91755 0.85062 0.45839 0.0
C1331 C 0.89635 0.88476 0.44233 0.0
C1332 C 0.86611 0.81003 0.4479 0.0
C1333 C 0.84831 0.81117 0.4665 0.0
N1334 N 0.8747 0.83837 0.46147 0.0
C1335 C 0.87769 0.82874 0.45091 0.0
C1336 C 0.86017 0.82986 0.46921 0.0
C1337 C 0.85133 0.80121 0.45576 0.0
C1338 C 0.90599 0.93861 0.46737 0.0
N1339 N 0.91596 0.92967 0.4579 0.0
C1340 C 0.89477 0.95832 0.46653 0.0
C1341 C 0.89366 0.96891 0.45589 0.0
C1342 C 0.90372 0.95969 0.44625 0.0
C1343 C 0.91478 0.93995 0.44742 0.0
C1344 C 0.9816 0.93838 0.44455 0.0
C1345 C 0.96151 0.89878 0.44055 0.0
C1346 C 0.96441 0.93129 0.45151 0.0
N1347 N 0.95451 0.91175 0.44943 0.0
C1348 C 0.97864 0.90535 0.43341 0.0
C1349 C 0.98872 0.9253 0.43544 0.0
C1350 C 0.93799 0.85415 0.45882 0.0
C1351 C 0.90204 0.85684 0.50087 0.0
C1352 C 0.9072 0.83192 0.48108 0.0
C1353 C 0.91315 0.8233 0.49181 0.0
C1354 C 0.91056 0.83589 0.50176 0.0
N1355 N 0.8989 0.85251 0.48027 0.0
C1356 C 0.89627 0.86492 0.48999 0.0
Co1357 Co 0.36526 0.68152 0.70431 0.0
Co1358 Co 0.39647 0.64025 0.71468 0.0
O1359 O 0.36933 0.65715 0.71518 0.0
C1360 C 0.34675 0.69918 0.72661 0.0
O1361 O 0.36321 0.69122 0.73249 0.0
C1362 C 0.36169 0.60752 0.7221 0.0
O1363 O 0.34599 0.62194 0.72141 0.0
O1364 O 0.39061 0.63325 0.69806 0.0
O1365 O 0.38388 0.66724 0.69222 0.0
H1366 H 0.46743 0.61747 0.69672 0.0
H1367 H 0.32643 0.66027 0.71446 0.0
O1368 O 0.34584 0.69677 0.71567 0.0
H1369 H 0.31799 0.65235 0.67219 0.0
H1370 H 0.32249 0.74025 0.68406 0.0
H1371 H 0.39477 0.70661 0.68894 0.0
H1372 H 0.34966 0.67158 0.68033 0.0
H1373 H 0.32742 0.70896 0.69716 0.0
O1374 O 0.38117 0.61256 0.71938 0.0
H1375 H 0.43346 0.63866 0.69822 0.0
H1376 H 0.41676 0.60544 0.72924 0.0
H1377 H 0.39052 0.73775 0.67569 0.0
H1378 H 0.29435 0.64112 0.70669 0.0
H1379 H 0.35418 0.75481 0.67318 0.0
H1380 H 0.29 0.63701 0.6854 0.0
O1381 O 0.39155 0.69597 0.71084 0.0
H1382 H 0.37593 0.6511 0.75659 0.0
H1383 H 0.43541 0.65477 0.72801 0.0
H1384 H 0.44271 0.66438 0.74834 0.0
H1385 H 0.41288 0.66245 0.76283 0.0
H1386 H 0.36928 0.642 0.73618 0.0
H1387 H 0.45043 0.58373 0.728 0.0
H1388 H 0.4761 0.58977 0.71168 0.0
O1389 O 0.41359 0.66697 0.71023 0.0
C1390 C 0.38837 0.64741 0.69009 0.0
C1391 C 0.4564 0.61473 0.70389 0.0
C1392 C 0.44685 0.59577 0.72143 0.0
N1393 N 0.42318 0.6234 0.71383 0.0
C1394 C 0.43716 0.62672 0.70479 0.0
C1395 C 0.42776 0.60807 0.72206 0.0
C1396 C 0.46125 0.59917 0.71228 0.0
C1397 C 0.32461 0.65862 0.70519 0.0
N1398 N 0.33995 0.66697 0.69788 0.0
C1399 C 0.30642 0.64773 0.70084 0.0
C1400 C 0.304 0.64542 0.6889 0.0
C1401 C 0.3197 0.65402 0.68148 0.0
C1402 C 0.33765 0.66482 0.68615 0.0
C1403 C 0.33841 0.73296 0.68508 0.0
C1404 C 0.37888 0.71388 0.68788 0.0
C1405 C 0.34132 0.71528 0.69253 0.0
N1406 N 0.36136 0.70592 0.69382 0.0
C1407 C 0.37659 0.73154 0.68037 0.0
C1408 C 0.35619 0.74111 0.67898 0.0
C1409 C 0.41056 0.68753 0.71092 0.0
C1410 C 0.38912 0.6518 0.75038 0.0
C1411 C 0.42231 0.65384 0.73423 0.0
C1412 C 0.42657 0.65931 0.74575 0.0
C1413 C 0.40983 0.65822 0.75387 0.0
N1414 N 0.402 0.6473 0.73087 0.0
C1415 C 0.38548 0.64644 0.73878 0.0
Co1416 Co 0.43385 0.11146 0.45935 0.0
Co1417 Co 0.39289 0.14765 0.46514 0.0
O1418 O 0.4095 0.12126 0.46908 0.0
C1419 C 0.4472 0.09807 0.48383 0.0
O1420 O 0.42965 0.10623 0.48865 0.0
C1421 C 0.35603 0.11657 0.47064 0.0
O1422 O 0.36352 0.10211 0.46326 0.0
O1423 O 0.3859 0.13545 0.44949 0.0
O1424 O 0.41863 0.12169 0.44506 0.0
H1425 H 0.36982 0.20939 0.43939 0.0
H1426 H 0.40899 0.08171 0.47502 0.0
O1427 O 0.45058 0.10011 0.473 0.0
H1428 H 0.40857 0.0457 0.43692 0.0
H1429 H 0.4941 0.06101 0.44663 0.0
H1430 H 0.45734 0.13109 0.43952 0.0
H1431 H 0.4273 0.08069 0.43958 0.0
H1432 H 0.46286 0.07226 0.45862 0.0
O1433 O 0.36585 0.13463 0.47202 0.0
H1434 H 0.39093 0.17675 0.44468 0.0
H1435 H 0.35874 0.17387 0.47723 0.0
H1436 H 0.48836 0.12031 0.42722 0.0
H1437 H 0.39044 0.0466 0.47282 0.0
H1438 H 0.50697 0.08505 0.43075 0.0
H1439 H 0.39005 0.02829 0.45364 0.0
O1440 O 0.44815 0.14043 0.46129 0.0
H1441 H 0.40055 0.14491 0.50846 0.0
H1442 H 0.40958 0.19049 0.47365 0.0
H1443 H 0.41923 0.20543 0.49278 0.0
H1444 H 0.41468 0.1826 0.51037 0.0
H1445 H 0.39133 0.13053 0.48913 0.0
H1446 H 0.33717 0.20638 0.47224 0.0
H1447 H 0.34271 0.22442 0.45322 0.0
O1448 O 0.4194 0.16221 0.45857 0.0
C1449 C 0.39959 0.12791 0.44217 0.0
C1450 C 0.36729 0.2017 0.44771 0.0
C1451 C 0.34894 0.19999 0.46614 0.0
N1452 N 0.37614 0.17343 0.46127 0.0
C1453 C 0.37922 0.18322 0.45077 0.0
C1454 C 0.36116 0.18153 0.4689 0.0
C1455 C 0.35207 0.21011 0.45547 0.0
C1456 C 0.40932 0.07384 0.4667 0.0
N1457 N 0.41964 0.0833 0.45749 0.0
C1458 C 0.39859 0.05394 0.46548 0.0
C1459 C 0.39832 0.0437 0.45471 0.0
C1460 C 0.40869 0.05346 0.44533 0.0
C1461 C 0.41924 0.07337 0.44689 0.0
C1462 C 0.4861 0.0764 0.445 0.0
C1463 C 0.46525 0.11566 0.44107 0.0
C1464 C 0.46845 0.08292 0.45179 0.0
N1465 N 0.45816 0.10229 0.44974 0.0
C1466 C 0.48286 0.10967 0.43409 0.0
C1467 C 0.49331 0.08989 0.43609 0.0
C1468 C 0.43989 0.15915 0.45936 0.0
C1469 C 0.40263 0.15501 0.50086 0.0
C1470 C 0.40776 0.18036 0.48123 0.0
C1471 C 0.41315 0.18896 0.49206 0.0
C1472 C 0.41057 0.17616 0.50192 0.0
N1473 N 0.40002 0.15959 0.48025 0.0
C1474 C 0.39741 0.14697 0.48989 0.0
Co1475 Co 0.64725 0.68596 0.20648 0.0
Co1476 Co 0.61304 0.64372 0.21349 0.0
O1477 O 0.63979 0.66073 0.21628 0.0
C1478 C 0.66315 0.69857 0.23058 0.0
O1479 O 0.6543 0.68146 0.23547 0.0
C1480 C 0.64682 0.61012 0.22107 0.0
O1481 O 0.66283 0.6241 0.22011 0.0
O1482 O 0.62223 0.63831 0.19713 0.0
O1483 O 0.63459 0.67145 0.19252 0.0
H1484 H 0.54694 0.62213 0.19063 0.0
H1485 H 0.68181 0.66398 0.22038 0.0
O1486 O 0.66081 0.70207 0.21978 0.0
H1487 H 0.70798 0.66171 0.18006 0.0
H1488 H 0.69441 0.74732 0.19201 0.0
H1489 H 0.62349 0.71047 0.18835 0.0
H1490 H 0.67299 0.67902 0.18483 0.0
H1491 H 0.68583 0.71532 0.20403 0.0
O1492 O 0.62742 0.61567 0.21846 0.0
H1493 H 0.58018 0.64321 0.19471 0.0
H1494 H 0.58966 0.60805 0.22598 0.0
H1495 H 0.63151 0.7423 0.17608 0.0
H1496 H 0.71708 0.64692 0.21606 0.0
H1497 H 0.66719 0.76096 0.17787 0.0
H1498 H 0.73041 0.64558 0.19576 0.0
O1499 O 0.61861 0.69961 0.21017 0.0
H1500 H 0.62402 0.64814 0.25665 0.0
H1501 H 0.57173 0.65822 0.22476 0.0
H1502 H 0.56021 0.66572 0.24481 0.0
H1503 H 0.58641 0.66059 0.26095 0.0
H1504 H 0.63494 0.64117 0.23647 0.0
H1505 H 0.55663 0.58646 0.22218 0.0
H1506 H 0.53497 0.59351 0.20441 0.0
O1507 O 0.59682 0.67059 0.20863 0.0
C1508 C 0.62822 0.65245 0.18968 0.0
C1509 C 0.55622 0.61893 0.19841 0.0
C1510 C 0.56167 0.5989 0.21611 0.0
N1511 N 0.58682 0.62695 0.2106 0.0
C1512 C 0.57504 0.63085 0.20078 0.0
C1513 C 0.58041 0.61114 0.21819 0.0
C1514 C 0.54952 0.60287 0.20614 0.0
C1515 C 0.68749 0.66375 0.21155 0.0
N1516 N 0.6752 0.67258 0.20289 0.0
C1517 C 0.70749 0.65393 0.20914 0.0
C1518 C 0.71494 0.65314 0.19775 0.0
C1519 C 0.70236 0.66215 0.18894 0.0
C1520 C 0.68244 0.67183 0.19169 0.0
C1521 C 0.67882 0.73931 0.19114 0.0
C1522 C 0.6391 0.71843 0.18915 0.0
C1523 C 0.67382 0.72122 0.19795 0.0
N1524 N 0.6542 0.71094 0.19686 0.0
C1525 C 0.64353 0.73648 0.18219 0.0
C1526 C 0.66354 0.74695 0.1832 0.0
C1527 C 0.59976 0.69112 0.20925 0.0
C1528 C 0.61243 0.65037 0.2497 0.0
C1529 C 0.58331 0.6561 0.2317 0.0
C1530 C 0.57664 0.66029 0.24305 0.0
C1531 C 0.59134 0.65739 0.2521 0.0
N1532 N 0.60401 0.64916 0.2294 0.0
C1533 C 0.6185 0.64633 0.23824 0.0
Co1534 Co 0.07857 0.89945 0.95339 0.0
Co1535 Co 0.11946 0.86714 0.96327 0.0
O1536 O 0.10336 0.89473 0.96387 0.0
C1537 C 0.0609 0.91704 0.97585 0.0
O1538 O 0.06648 0.8991 0.98127 0.0
C1539 C 0.15361 0.90111 0.96992 0.0
O1540 O 0.13981 0.91733 0.96902 0.0
O1541 O 0.12576 0.87243 0.94649 0.0
O1542 O 0.09179 0.8806 0.94108 0.0
H1543 H 0.13948 0.79524 0.94543 0.0
H1544 H 0.10115 0.93775 0.96333 0.0
O1545 O 0.06456 0.91911 0.96506 0.0
H1546 H 0.10739 0.94623 0.92098 0.0
H1547 H 0.01986 0.94397 0.93425 0.0
H1548 H 0.0521 0.87086 0.93821 0.0
H1549 H 0.08784 0.91494 0.92932 0.0
H1550 H 0.0516 0.93804 0.94691 0.0
O1551 O 0.14773 0.88172 0.96754 0.0
H1552 H 0.11936 0.82986 0.94697 0.0
H1553 H 0.15417 0.84606 0.97756 0.0
H1554 H 0.02048 0.87611 0.9254 0.0
H1555 H 0.12065 0.96945 0.95534 0.0
H1556 H 1.00413 0.91289 0.92335 0.0
H1557 H 0.12392 0.9738 0.93402 0.0
O1558 O 0.0637 0.87343 0.96002 0.0
H1559 H 0.11073 0.88921 0.00507 0.0
H1560 H 0.10458 0.82891 0.97711 0.0
H1561 H 0.09549 0.82252 0.9976 0.0
H1562 H 0.09866 0.85277 0.01177 0.0
H1563 H 0.11934 0.89495 0.9845 0.0
H1564 H 0.17482 0.81174 0.97627 0.0
H1565 H 0.16744 0.786 0.96015 0.0
O1566 O 0.09215 0.85072 0.95925 0.0
C1567 C 0.11127 0.87508 0.9387 0.0
C1568 C 0.14281 0.80631 0.95251 0.0
C1569 C 0.16266 0.81558 0.96981 0.0
N1570 N 0.13549 0.83995 0.96236 0.0
C1571 C 0.13144 0.82592 0.95344 0.0
C1572 C 0.15097 0.83504 0.97046 0.0
C1573 C 0.15851 0.80114 0.96077 0.0
C1574 C 0.10243 0.93958 0.95404 0.0
N1575 N 0.09343 0.92446 0.94682 0.0
C1576 C 0.11352 0.95754 0.94957 0.0
C1577 C 0.11536 0.95997 0.9376 0.0
C1578 C 0.1061 0.9445 0.93028 0.0
C1579 C 0.09512 0.92676 0.93507 0.0
C1580 C 0.02684 0.92787 0.93507 0.0
C1581 C 0.04515 0.88693 0.93735 0.0
C1582 C 0.04478 0.92439 0.94225 0.0
N1583 N 0.05376 0.90412 0.94328 0.0
C1584 C 0.02721 0.8898 0.93009 0.0
C1585 C 0.01803 0.91043 0.92895 0.0
C1586 C 0.07171 0.85424 0.96008 0.0
C1587 C 0.10948 0.87584 0.999 0.0
C1588 C 0.10605 0.84218 0.98319 0.0
C1589 C 0.10087 0.83845 0.9948 0.0
C1590 C 0.10265 0.85541 1.00275 0.0
N1591 N 0.11298 0.86221 0.97957 0.0
C1592 C 0.11453 0.87896 0.98732 0.0
Co1593 Co 0.86118 0.32221 0.70642 0.0
Co1594 Co 0.89538 0.36408 0.71399 0.0
O1595 O 0.86851 0.34711 0.71648 0.0
C1596 C 0.84662 0.3078 0.73043 0.0
O1597 O 0.85895 0.32218 0.73565 0.0
C1598 C 0.86145 0.39717 0.72183 0.0
O1599 O 0.84592 0.38257 0.72152 0.0
O1600 O 0.88681 0.36969 0.69758 0.0
O1601 O 0.87472 0.33665 0.69268 0.0
H1602 H 0.96249 0.38535 0.69183 0.0
H1603 H 0.82619 0.34311 0.72025 0.0
O1604 O 0.84663 0.30623 0.71944 0.0
H1605 H 0.80206 0.3489 0.67967 0.0
H1606 H 0.81354 0.26228 0.69076 0.0
H1607 H 0.88556 0.29737 0.68863 0.0
H1608 H 0.83665 0.33083 0.6845 0.0
H1609 H 0.82207 0.2939 0.70309 0.0
O1610 O 0.88081 0.3922 0.71882 0.0
H1611 H 0.92908 0.36431 0.6956 0.0
H1612 H 0.91816 0.39997 0.72662 0.0
H1613 H 0.87762 0.26591 0.67606 0.0
H1614 H 0.79128 0.36098 0.71585 0.0
H1615 H 0.84139 0.24813 0.67708 0.0
H1616 H 0.77902 0.36407 0.69542 0.0
O1617 O 0.88945 0.30819 0.71039 0.0
H1618 H 0.88329 0.3591 0.75711 0.0
H1619 H 0.93637 0.34969 0.72548 0.0
H1620 H 0.94752 0.34219 0.74556 0.0
H1621 H 0.92093 0.34701 0.76158 0.0
H1622 H 0.87273 0.36599 0.73691 0.0
H1623 H 0.95135 0.42151 0.72312 0.0
H1624 H 0.97382 0.41419 0.70565 0.0
O1625 O 0.91162 0.33706 0.70925 0.0
C1626 C 0.8812 0.35567 0.69 0.0
C1627 C 0.95286 0.38865 0.69949 0.0
C1628 C 0.94659 0.40897 0.71704 0.0
N1629 N 0.92173 0.3808 0.71135 0.0
C1630 C 0.93395 0.37676 0.70169 0.0
C1631 C 0.92778 0.39675 0.71896 0.0
C1632 C 0.9592 0.40485 0.70724 0.0
C1633 C 0.82096 0.34426 0.71135 0.0
N1634 N 0.83362 0.33607 0.70264 0.0
C1635 C 0.80117 0.35446 0.7089 0.0
C1636 C 0.79432 0.35622 0.69744 0.0
C1637 C 0.80725 0.34775 0.6886 0.0
C1638 C 0.82694 0.33767 0.69138 0.0
C1639 C 0.82938 0.26989 0.69023 0.0
C1640 C 0.86973 0.28978 0.6891 0.0
C1641 C 0.83434 0.28776 0.69722 0.0
N1642 N 0.85429 0.29753 0.69657 0.0
C1643 C 0.86534 0.27195 0.68197 0.0
C1644 C 0.84501 0.26197 0.68255 0.0
C1645 C 0.90843 0.31654 0.70978 0.0
C1646 C 0.89507 0.35706 0.75022 0.0
C1647 C 0.92463 0.35171 0.73236 0.0
C1648 C 0.93108 0.3475 0.74374 0.0
C1649 C 0.91617 0.35023 0.75272 0.0
N1650 N 0.90392 0.35854 0.72996 0.0
C1651 C 0.88921 0.36112 0.73873 0.0
Co1652 Co 0.42452 0.89629 0.04827 0.0
Co1653 Co 0.38534 0.85794 0.04358 0.0
O1654 O 0.40031 0.88478 0.03917 0.0
C1655 C 0.4577 0.9069 0.03054 0.0
O1656 O 0.47096 0.89375 0.03609 0.0
C1657 C 0.3483 0.88847 0.03829 0.0
O1658 O 0.35711 0.90357 0.04482 0.0
O1659 O 0.3792 0.87009 0.05932 0.0
O1660 O 0.41153 0.8854 0.0631 0.0
H1661 H 0.36741 0.79558 0.07005 0.0
H1662 H 0.40038 0.92512 0.03223 0.0
O1663 O 0.4378 0.90815 0.03365 0.0
H1664 H 0.39302 0.95945 0.07065 0.0
H1665 H 0.47983 0.95285 0.05998 0.0
H1666 H 0.45221 0.87871 0.06704 0.0
H1667 H 0.41411 0.92564 0.06827 0.0
H1668 H 0.44895 0.93852 0.04869 0.0
O1669 O 0.35726 0.86985 0.03737 0.0
H1670 H 0.38659 0.82899 0.06411 0.0
H1671 H 0.35117 0.83029 0.03253 0.0
H1672 H 0.48309 0.89243 0.07855 0.0
H1673 H 0.37943 0.95915 0.03418 0.0
H1674 H 0.49711 0.92975 0.07504 0.0
H1675 H 0.37556 0.97651 0.05351 0.0
O1676 O 0.44043 0.86805 0.04629 0.0
H1677 H 0.39003 0.86072 1.00014 0.0
H1678 H 0.40261 0.81554 0.03477 0.0
H1679 H 0.41128 0.80073 0.01547 0.0
H1680 H 0.40491 0.82335 0.99796 0.0
H1681 H 0.38184 0.875 0.01964 0.0
H1682 H 0.33149 0.79699 0.03818 0.0
H1683 H 0.33963 0.77935 0.05704 0.0
O1684 O 0.41305 0.84472 0.04946 0.0
C1685 C 0.39304 0.8782 0.06637 0.0
C1686 C 0.36375 0.80309 0.0618 0.0
C1687 C 0.34357 0.8039 0.04392 0.0
N1688 N 0.37008 0.83155 0.04797 0.0
C1689 C 0.37459 0.82199 0.05838 0.0
C1690 C 0.35472 0.8228 0.04079 0.0
C1691 C 0.34815 0.794 0.0545 0.0
C1692 C 0.39896 0.93267 0.04066 0.0
N1693 N 0.4085 0.92336 0.05013 0.0
C1694 C 0.38699 0.9519 0.04171 0.0
C1695 C 0.3848 0.96161 0.05256 0.0
C1696 C 0.39456 0.95203 0.06218 0.0
C1697 C 0.40639 0.93279 0.0608 0.0
C1698 C 0.47386 0.93656 0.06159 0.0
C1699 C 0.4582 0.89497 0.06547 0.0
C1700 C 0.45638 0.92835 0.05523 0.0
N1701 N 0.44877 0.90777 0.0572 0.0
C1702 C 0.4757 0.90265 0.07201 0.0
C1703 C 0.48355 0.92359 0.07004 0.0
C1704 C 0.43329 0.8489 0.04835 0.0
C1705 C 0.39285 0.8507 0.0077 0.0
C1706 C 0.39994 0.82555 0.02722 0.0
C1707 C 0.40481 0.81704 0.0163 0.0
C1708 C 0.40122 0.82973 0.00648 0.0
N1709 N 0.3917 0.84611 0.02834 0.0
C1710 C 0.3882 0.85867 0.01876 0.0
Co1711 Co 0.85745 0.67418 0.79753 0.0
Co1712 Co 0.89312 0.63176 0.79354 0.0
O1713 O 0.86701 0.64818 0.78904 0.0
C1714 C 0.84818 0.70631 0.77906 0.0
O1715 O 0.86209 0.71934 0.78421 0.0
C1716 C 0.86019 0.59784 0.78584 0.0
O1717 O 0.84449 0.61228 0.78595 0.0
O1718 O 0.88167 0.62864 0.80965 0.0
O1719 O 0.868 0.66203 0.81262 0.0
H1720 H 0.95594 0.6138 0.81968 0.0
H1721 H 0.82532 0.6522 0.78233 0.0
O1722 O 0.84607 0.68677 0.78263 0.0
H1723 H 0.79338 0.6494 0.82149 0.0
H1724 H 0.80513 0.73431 0.80825 0.0
H1725 H 0.87763 0.70252 0.81527 0.0
H1726 H 0.82881 0.66703 0.8182 0.0
H1727 H 0.81691 0.70145 0.79771 0.0
O1728 O 0.87936 0.60309 0.789 0.0
H1729 H 0.92341 0.63418 0.81346 0.0
H1730 H 0.91791 0.59427 0.78354 0.0
H1731 H 0.86647 0.73539 0.826 0.0
H1732 H 0.78958 0.63487 0.78517 0.0
H1733 H 0.82999 0.75152 0.82252 0.0
H1734 H 0.77342 0.63325 0.80488 0.0
O1735 O 0.88653 0.68789 0.79486 0.0
H1736 H 0.88788 0.63192 0.75001 0.0
H1737 H 0.93611 0.64415 0.78348 0.0
H1738 H 0.95045 0.64912 0.76372 0.0
H1739 H 0.92631 0.64286 0.7468 0.0
H1740 H 0.87413 0.62743 0.7699 0.0
H1741 H 0.95026 0.57335 0.7895 0.0
H1742 H 0.96957 0.58314 0.80766 0.0
O1743 O 0.90847 0.65934 0.79798 0.0
C1744 C 0.87451 0.6436 0.81634 0.0
C1745 C 0.9477 0.60941 0.81173 0.0
C1746 C 0.94449 0.58669 0.7948 0.0
N1747 N 0.91882 0.61551 0.79812 0.0
C1748 C 0.92929 0.62092 0.80815 0.0
C1749 C 0.92613 0.59856 0.7915 0.0
C1750 C 0.95532 0.5922 0.80499 0.0
C1751 C 0.81835 0.65174 0.79092 0.0
N1752 N 0.82933 0.66046 0.8001 0.0
C1753 C 0.79812 0.64182 0.79248 0.0
C1754 C 0.78908 0.64088 0.80354 0.0
C1755 C 0.8003 0.64989 0.81286 0.0
C1756 C 0.82049 0.65968 0.81097 0.0
C1757 C 0.82107 0.72744 0.80985 0.0
C1758 C 0.86173 0.70943 0.8137 0.0
C1759 C 0.82784 0.70882 0.80391 0.0
N1760 N 0.84798 0.70005 0.80585 0.0
C1761 C 0.8555 0.72805 0.81981 0.0
C1762 C 0.83503 0.73708 0.81785 0.0
C1763 C 0.90535 0.67973 0.79668 0.0
C1764 C 0.8986 0.63455 0.75731 0.0
C1765 C 0.92546 0.64143 0.77618 0.0
C1766 C 0.9337 0.64424 0.765 0.0
C1767 C 0.92015 0.64073 0.75551 0.0
N1768 N 0.90435 0.63515 0.77789 0.0
C1769 C 0.89093 0.6319 0.76862 0.0
Co1770 Co 0.08172 0.11594 0.55313 0.0
Co1771 Co 0.12327 0.1472 0.54286 0.0
O1772 O 0.10607 0.12018 0.54216 0.0
C1773 C 0.06663 0.09447 0.53081 0.0
O1774 O 0.08108 0.10502 0.52461 0.0
C1775 C 0.15606 0.11231 0.5354 0.0
O1776 O 0.14181 0.09652 0.53636 0.0
O1777 O 0.13053 0.14061 0.55934 0.0
O1778 O 0.09671 0.13358 0.56539 0.0
H1779 H 0.14694 0.21718 0.5615 0.0
H1780 H 0.10251 0.07733 0.54231 0.0
O1781 O 0.06519 0.09766 0.54169 0.0
H1782 H 0.11034 0.06641 0.5844 0.0
H1783 H 0.02251 0.07356 0.57322 0.0
H1784 H 0.05771 0.14523 0.56912 0.0
H1785 H 0.09161 0.09885 0.5768 0.0
H1786 H 0.05357 0.07839 0.55995 0.0
O1787 O 0.15081 0.13186 0.53789 0.0
H1788 H 0.12553 0.18341 0.55977 0.0
H1789 H 0.1578 0.16788 0.52827 0.0
H1790 H 0.02679 0.14106 0.58256 0.0
H1791 H 0.12111 0.04451 0.54954 0.0
H1792 H 0.00896 0.10502 0.58467 0.0
H1793 H 0.12518 0.0389 0.57073 0.0
O1794 O 0.06759 0.14273 0.54705 0.0
H1795 H 0.11352 0.12868 0.50066 0.0
H1796 H 0.108 0.18655 0.53008 0.0
H1797 H 0.09836 0.19466 0.50985 0.0
H1798 H 0.1012 0.16564 0.49494 0.0
H1799 H 0.12262 0.1212 0.52101 0.0
H1800 H 0.1797 0.20136 0.52973 0.0
H1801 H 0.17426 0.22634 0.54641 0.0
O1802 O 0.09677 0.16444 0.54767 0.0
C1803 C 0.1166 0.13791 0.56739 0.0
C1804 C 0.14942 0.20645 0.55418 0.0
C1805 C 0.16783 0.19756 0.53635 0.0
N1806 N 0.14031 0.17373 0.54391 0.0
C1807 C 0.13732 0.18732 0.55314 0.0
C1808 C 0.15542 0.17858 0.5356 0.0
C1809 C 0.16476 0.21157 0.54571 0.0
C1810 C 0.10404 0.07494 0.55153 0.0
N1811 N 0.0959 0.08999 0.55909 0.0
C1812 C 0.11466 0.05634 0.55558 0.0
C1813 C 0.11696 0.05322 0.56747 0.0
C1814 C 0.10865 0.06865 0.57514 0.0
C1815 C 0.09811 0.08703 0.57078 0.0
C1816 C 0.03015 0.08935 0.57238 0.0
C1817 C 0.05011 0.12947 0.57002 0.0
C1818 C 0.04772 0.0922 0.56485 0.0
N1819 N 0.05752 0.11207 0.56378 0.0
C1820 C 0.03257 0.12722 0.57763 0.0
C1821 C 0.02257 0.107 0.57881 0.0
C1822 C 0.07618 0.16163 0.54705 0.0
C1823 C 0.11232 0.1415 0.50706 0.0
C1824 C 0.10918 0.17377 0.52369 0.0
C1825 C 0.10376 0.17849 0.51222 0.0
C1826 C 0.10537 0.16222 0.50386 0.0
N1827 N 0.1161 0.15342 0.52678 0.0
C1828 C 0.11761 0.13738 0.51862 0.0
Co1829 Co 0.64666 0.33619 0.2988 0.0
Co1830 Co 0.61013 0.37677 0.29397 0.0
O1831 O 0.63698 0.36142 0.2898 0.0
C1832 C 0.65881 0.30406 0.28082 0.0
O1833 O 0.64447 0.29095 0.28556 0.0
C1834 C 0.64126 0.41374 0.28873 0.0
O1835 O 0.6569 0.40451 0.29472 0.0
O1836 O 0.62185 0.38206 0.30993 0.0
O1837 O 0.63378 0.34823 0.31339 0.0
H1838 H 0.54696 0.39479 0.31994 0.0
H1839 H 0.67875 0.36032 0.28459 0.0
O1840 O 0.66037 0.32365 0.28441 0.0
H1841 H 0.70629 0.36473 0.32463 0.0
H1842 H 0.70022 0.27869 0.3115 0.0
H1843 H 0.62576 0.30739 0.31613 0.0
H1844 H 0.67242 0.34489 0.32031 0.0
H1845 H 0.68818 0.31076 0.30039 0.0
O1846 O 0.62254 0.40494 0.28817 0.0
H1847 H 0.58038 0.37536 0.31419 0.0
H1848 H 0.58327 0.41164 0.28292 0.0
H1849 H 0.63715 0.27531 0.32742 0.0
H1850 H 0.71289 0.38005 0.28852 0.0
H1851 H 0.67462 0.26074 0.32514 0.0
H1852 H 0.72683 0.38241 0.30867 0.0
O1853 O 0.61846 0.3213 0.2954 0.0
H1854 H 0.61515 0.37328 0.25056 0.0
H1855 H 0.56773 0.36101 0.28439 0.0
H1856 H 0.55378 0.35331 0.26481 0.0
H1857 H 0.57753 0.35953 0.24771 0.0
H1858 H 0.62853 0.3805 0.27033 0.0
H1859 H 0.55001 0.4316 0.28838 0.0
H1860 H 0.53155 0.42315 0.30699 0.0
O1861 O 0.59606 0.34906 0.29939 0.0
C1862 C 0.62786 0.36703 0.31688 0.0
C1863 C 0.55484 0.39861 0.3118 0.0
C1864 C 0.55657 0.41929 0.2941 0.0
N1865 N 0.58378 0.39231 0.29822 0.0
C1866 C 0.57376 0.38764 0.30849 0.0
C1867 C 0.57547 0.40799 0.29107 0.0
C1868 C 0.54621 0.41453 0.30454 0.0
C1869 C 0.68484 0.36106 0.29336 0.0
N1870 N 0.67366 0.35132 0.30218 0.0
C1871 C 0.70413 0.37234 0.29554 0.0
C1872 C 0.71192 0.37369 0.30685 0.0
C1873 C 0.70039 0.3638 0.31581 0.0
C1874 C 0.68117 0.35265 0.31331 0.0
C1875 C 0.68385 0.28489 0.31258 0.0
C1876 C 0.6421 0.30117 0.31509 0.0
C1877 C 0.67694 0.30305 0.30632 0.0
N1878 N 0.65627 0.31098 0.30761 0.0
C1879 C 0.64846 0.28299 0.32151 0.0
C1880 C 0.66948 0.27483 0.32023 0.0
C1881 C 0.59952 0.32882 0.29763 0.0
C1882 C 0.60463 0.37052 0.25794 0.0
C1883 C 0.57823 0.36358 0.27702 0.0
C1884 C 0.57021 0.35928 0.26594 0.0
C1885 C 0.58354 0.36279 0.25635 0.0
N1886 N 0.59893 0.37119 0.27852 0.0
C1887 C 0.6121 0.37462 0.26916 0.0
C1888 C 0.97686 0.57644 0.98307 0.0
C1889 C 0.95671 0.58252 0.98789 0.0
C1890 C 0.98857 0.55886 0.98752 0.0
C1891 C 0.98022 0.50777 1.00354 0.0
H1892 H 0.04323 0.50714 0.0052 0.0
C1893 C 0.02853 0.43801 0.02506 0.0
C1894 C 0.04894 0.43214 0.02047 0.0
C1895 C 0.01694 0.45563 0.02055 0.0
C1896 C 0.02565 0.50691 0.00462 0.0
H1897 H 0.93358 0.5754 1.00155 0.0
H1898 H 0.95423 0.54472 0.00945 0.0
H1899 H 0.0244 0.54038 0.99948 0.0
H1900 H 0.07263 0.43962 0.00715 0.0
H1901 H 0.05214 0.47026 0.9991 0.0
H1902 H 0.98144 0.4743 0.00863 0.0
C1903 C 0.96078 0.55347 1.00209 0.0
C1904 C 0.01483 0.52604 1.0014 0.0
C1905 C 0.94907 0.57121 0.99766 0.0
C1906 C 0.05695 0.44366 0.01086 0.0
C1907 C 0.04532 0.46139 0.00635 0.0
C1908 C 0.99103 0.48864 0.00674 0.0
C1909 C 0.98045 0.54679 0.99691 0.0
C1910 C 0.99197 0.52673 1.00082 0.0
C1911 C 0.02539 0.4679 0.01132 0.0
C1912 C 0.01389 0.48795 0.00734 0.0
H1913 H 0.98327 0.58481 0.97554 0.0
H1914 H 1.00355 0.55413 0.98325 0.0
H1915 H 0.96263 0.50757 1.00296 0.0
H1916 H 0.02181 0.42947 0.03245 0.0
H1917 H 1.00177 0.46019 0.02467 0.0
C1918 C 0.687 0.7314 0.23187 0.0
C1919 C 0.67948 0.71189 0.23684 0.0
C1920 C 0.70475 0.74245 0.23659 0.0
C1921 C 0.75367 0.73265 0.25426 0.0
H1922 H 0.75734 0.79564 0.25459 0.0
C1923 C 0.82317 0.77952 0.27687 0.0
C1924 C 0.83078 0.79892 0.27183 0.0
C1925 C 0.80548 0.76839 0.27214 0.0
C1926 C 0.75671 0.77803 0.25439 0.0
H1927 H 0.68417 0.68927 0.25102 0.0
H1928 H 0.71508 0.70881 0.2594 0.0
H1929 H 0.72382 0.77806 0.24829 0.0
H1930 H 0.82631 0.82129 0.25751 0.0
H1931 H 0.79545 0.80165 0.24913 0.0
H1932 H 0.78655 0.73263 0.26038 0.0
C1933 C 0.70738 0.71533 0.25171 0.0
C1934 C 0.73744 0.76794 0.25083 0.0
C1935 C 0.68951 0.70426 0.24699 0.0
C1936 C 0.8209 0.80637 0.26159 0.0
C1937 C 0.80306 0.79525 0.25687 0.0
C1938 C 0.77294 0.74274 0.25782 0.0
C1939 C 0.7155 0.73432 0.24641 0.0
C1940 C 0.73566 0.74511 0.25071 0.0
C1941 C 0.79486 0.77637 0.26224 0.0
C1942 C 0.77471 0.76557 0.25794 0.0
H1943 H 0.67962 0.73781 0.22406 0.0
H1944 H 0.7106 0.75689 0.23221 0.0
H1945 H 0.75305 0.71504 0.25406 0.0
H1946 H 0.83043 0.77325 0.28474 0.0
H1947 H 0.79955 0.75403 0.27656 0.0
C1948 C 0.54545 0.44951 0.4747 0.0
C1949 C 0.54958 0.42989 0.48061 0.0
C1950 C 0.53404 0.46642 0.48002 0.0
C1951 C 0.51836 0.48831 0.50862 0.0
H1952 H 0.47678 0.52174 0.49066 0.0
C1953 C 0.46311 0.55308 0.52969 0.0
C1954 C 0.45956 0.57271 0.5237 0.0
C1955 C 0.47365 0.5356 0.52436 0.0
C1956 C 0.48852 0.51276 0.49576 0.0
H1957 H 0.54489 0.41284 0.49685 0.0
H1958 H 0.52474 0.44249 0.50618 0.0
H1959 H 0.4955 0.49097 0.48177 0.0
H1960 H 0.46414 0.58915 0.50727 0.0
H1961 H 0.48277 0.55856 0.49793 0.0
H1962 H 0.51144 0.51015 0.5226 0.0
C1963 C 0.53055 0.44474 0.4974 0.0
C1964 C 0.49924 0.49505 0.49067 0.0
C1965 C 0.54201 0.42769 0.49204 0.0
C1966 C 0.46659 0.57429 0.51214 0.0
C1967 C 0.47719 0.55671 0.50678 0.0
C1968 C 0.50764 0.50602 0.51371 0.0
C1969 C 0.52638 0.4643 0.49143 0.0
C1970 C 0.51436 0.48264 0.49702 0.0
C1971 C 0.48099 0.53719 0.51286 0.0
C1972 C 0.49258 0.5185 0.50735 0.0
H1973 H 0.55114 0.45195 0.46592 0.0
H1974 H 0.53152 0.48135 0.47522 0.0
H1975 H 0.53014 0.47937 0.51371 0.0
H1976 H 0.45776 0.5511 0.53857 0.0
H1977 H 0.47586 0.52073 0.52925 0.0
C1978 C 0.8186 0.2784 0.73121 0.0
C1979 C 0.83022 0.29493 0.73694 0.0
C1980 C 0.80132 0.26779 0.73664 0.0
C1981 C 0.76126 0.27497 0.76028 0.0
H1982 H 0.74873 0.21427 0.7539 0.0
C1983 C 0.69419 0.22636 0.78406 0.0
C1984 C 0.68106 0.21235 0.77743 0.0
C1985 C 0.71214 0.23676 0.77914 0.0
C1986 C 0.75188 0.2313 0.75565 0.0
H1987 H 0.83328 0.31259 0.75311 0.0
H1988 H 0.80328 0.29362 0.76275 0.0
H1989 H 0.78172 0.23073 0.74612 0.0
H1990 H 0.67634 0.19855 0.76034 0.0
H1991 H 0.70797 0.21668 0.7517 0.0
H1992 H 0.73149 0.27534 0.76997 0.0
C1993 C 0.80731 0.28923 0.75392 0.0
C1994 C 0.77082 0.24076 0.75121 0.0
C1995 C 0.82467 0.29995 0.74845 0.0
C1996 C 0.68609 0.20928 0.76567 0.0
C1997 C 0.70428 0.21953 0.76075 0.0
C1998 C 0.7424 0.26544 0.7648 0.0
C1999 C 0.79519 0.27323 0.748 0.0
C2000 C 0.77571 0.26279 0.75338 0.0
C2001 C 0.71759 0.23327 0.76747 0.0
C2002 C 0.73743 0.24353 0.76248 0.0
H2003 H 0.82246 0.27394 0.72237 0.0
H2004 H 0.79229 0.2558 0.73172 0.0
H2005 H 0.76422 0.29205 0.76197 0.0
H2006 H 0.69074 0.22918 0.79315 0.0
H2007 H 0.72212 0.24709 0.78457 0.0
C2008 C 0.98021 0.44125 0.52328 0.0
C2009 C 0.9606 0.43386 0.5184 0.0
C2010 C 0.9914 0.45882 0.51848 0.0
C2011 C 0.98227 0.50747 0.50035 0.0
H2012 H 0.04526 0.51094 0.50109 0.0
C2013 C 0.03164 0.57709 0.47895 0.0
C2014 C 0.05035 0.58465 0.48471 0.0
C2015 C 0.01992 0.55936 0.48324 0.0
C2016 C 0.02764 0.51034 0.50096 0.0
H2017 H 0.93795 0.43855 0.50423 0.0
H2018 H 0.95781 0.46908 0.49564 0.0
H2019 H 0.02723 0.47749 0.50708 0.0
H2020 H 0.07079 0.58005 0.49981 0.0
H2021 H 0.05017 0.54913 0.50736 0.0
H2022 H 0.98279 0.54033 0.49414 0.0
C2023 C 0.96427 0.46147 0.50337 0.0
C2024 C 0.01728 0.49112 0.50436 0.0
C2025 C 0.95302 0.4438 0.50821 0.0
C2026 C 0.05644 0.5747 0.49517 0.0
C2027 C 0.04476 0.55682 0.49943 0.0
C2028 C 0.99266 0.52668 0.49689 0.0
C2029 C 0.98338 0.46948 0.5086 0.0
C2030 C 0.99444 0.48946 0.50419 0.0
C2031 C 0.02665 0.54864 0.49337 0.0
C2032 C 0.01547 0.5284 0.49724 0.0
H2033 H 0.98661 0.43394 0.53111 0.0
H2034 H 0.00589 0.46458 0.52283 0.0
H2035 H 0.96466 0.50694 0.50029 0.0
H2036 H 0.02645 0.58441 0.47087 0.0
H2037 H 0.00613 0.55345 0.47832 0.0
C2038 C 0.678 0.76886 0.73445 0.0
C2039 C 0.67613 0.79159 0.73335 0.0
C2040 C 0.69645 0.75954 0.73955 0.0
C2041 C 0.75437 0.77173 0.74512 0.0
H2042 H 0.75184 0.72064 0.76474 0.0
C2043 C 0.82923 0.73822 0.76995 0.0
C2044 C 0.83097 0.71559 0.77149 0.0
C2045 C 0.81085 0.74729 0.76466 0.0
C2046 C 0.75288 0.73472 0.75913 0.0
H2047 H 0.69182 0.82233 0.73735 0.0
H2048 H 0.72374 0.80609 0.74637 0.0
H2049 H 0.7182 0.73697 0.7577 0.0
H2050 H 0.81523 0.68467 0.76799 0.0
H2051 H 0.78348 0.70043 0.75857 0.0
H2052 H 0.78905 0.76947 0.74652 0.0
C2053 C 0.71113 0.79545 0.74308 0.0
C2054 C 0.73355 0.74413 0.75512 0.0
C2055 C 0.69268 0.80477 0.73801 0.0
C2056 C 0.81443 0.70218 0.76702 0.0
C2057 C 0.79608 0.71124 0.76172 0.0
C2058 C 0.77371 0.7623 0.7491 0.0
C2059 C 0.7135 0.77271 0.74366 0.0
C2060 C 0.73404 0.7628 0.74809 0.0
C2061 C 0.79376 0.73394 0.76074 0.0
C2062 C 0.77323 0.74367 0.75617 0.0
H2063 H 0.66565 0.75819 0.73092 0.0
H2064 H 0.69777 0.74197 0.7398 0.0
H2065 H 0.75539 0.78585 0.73953 0.0
H2066 H 0.84158 0.74907 0.77333 0.0
H2067 H 0.80961 0.76484 0.76413 0.0
C2068 C 0.4521 0.44097 0.99507 0.0
C2069 C 0.45761 0.43079 0.98456 0.0
C2070 C 0.46394 0.45899 0.99901 0.0
C2071 C 0.51608 0.48862 0.99567 0.0
H2072 H 0.48264 0.53819 0.00643 0.0
C2073 C 0.55764 0.57047 0.00717 0.0
C2074 C 0.55043 0.58042 0.01745 0.0
C2075 C 0.5459 0.55315 1.00229 0.0
C2076 C 0.49228 0.52446 1.00355 0.0
H2077 H 0.48056 0.43096 0.97025 0.0
H2078 H 0.5012 0.46215 0.97718 0.0
H2079 H 0.46389 0.50505 1.00056 0.0
H2080 H 0.52457 0.58073 0.03027 0.0
H2081 H 0.50449 0.55068 0.02194 0.0
H2082 H 0.5445 0.50786 0.99883 0.0
C2083 C 0.48773 0.45629 0.98236 0.0
C2084 C 0.4815 0.50542 1.00021 0.0
C2085 C 0.47582 0.43843 0.97837 0.0
C2086 C 0.53069 0.57341 0.02238 0.0
C2087 C 0.51904 0.55618 0.01753 0.0
C2088 C 0.52688 0.50763 0.99908 0.0
C2089 C 0.48167 0.46709 0.9926 0.0
C2090 C 0.49326 0.48722 0.99629 0.0
C2091 C 0.52669 0.54548 0.00756 0.0
C2092 C 0.51514 0.52577 1.00314 0.0
H2093 H 0.43815 0.43556 1.00003 0.0
H2094 H 0.45904 0.46677 0.00702 0.0
H2095 H 0.52563 0.47484 0.99276 0.0
H2096 H 0.57278 0.57543 1.00316 0.0
H2097 H 0.55209 0.54553 0.99449 0.0
C2098 C 0.82923 0.23815 0.23738 0.0
C2099 C 0.82958 0.21583 0.23466 0.0
C2100 C 0.81089 0.2476 0.24255 0.0
C2101 C 0.7516 0.23874 0.24582 0.0
H2102 H 0.75588 0.28482 0.26864 0.0
C2103 C 0.67696 0.27251 0.27087 0.0
C2104 C 0.6765 0.29486 0.2735 0.0
C2105 C 0.69524 0.26313 0.26561 0.0
C2106 C 0.75438 0.27218 0.26215 0.0
H2107 H 0.81117 0.18578 0.23581 0.0
H2108 H 0.77944 0.20216 0.245 0.0
H2109 H 0.7889 0.26754 0.26137 0.0
H2110 H 0.69466 0.32503 0.27214 0.0
H2111 H 0.72633 0.30874 0.26282 0.0
H2112 H 0.71707 0.24335 0.24662 0.0
C2113 C 0.79317 0.21248 0.24291 0.0
C2114 C 0.77335 0.26221 0.258 0.0
C2115 C 0.8115 0.20303 0.23773 0.0
C2116 C 0.69441 0.30776 0.27026 0.0
C2117 C 0.7127 0.29838 0.26503 0.0
C2118 C 0.73263 0.24869 0.24998 0.0
C2119 C 0.79243 0.23497 0.24516 0.0
C2120 C 0.77222 0.24534 0.24978 0.0
C2121 C 0.71356 0.27586 0.26286 0.0
C2122 C 0.73376 0.26555 0.2582 0.0
H2123 H 0.84279 0.24855 0.2351 0.0
H2124 H 0.81088 0.26499 0.24408 0.0
H2125 H 0.75009 0.2261 0.23933 0.0
H2126 H 0.66352 0.26204 0.27327 0.0
H2127 H 0.69535 0.24573 0.26414 0.0
C2128 C 0.33103 0.2713 0.77064 0.0
C2129 C 0.33133 0.29344 0.77374 0.0
C2130 C 0.31281 0.26225 0.76519 0.0
C2131 C 0.25366 0.2714 0.76197 0.0
H2132 H 0.25811 0.22669 0.7384 0.0
C2133 C 0.17901 0.2384 0.73676 0.0
C2134 C 0.17873 0.21616 0.73388 0.0
C2135 C 0.19731 0.24772 0.742 0.0
C2136 C 0.25657 0.23896 0.74509 0.0
H2137 H 0.31304 0.32363 0.77297 0.0
H2138 H 0.28151 0.30792 0.76331 0.0
H2139 H 0.29107 0.24362 0.74591 0.0
H2140 H 0.19723 0.1861 0.73477 0.0
H2141 H 0.22892 0.20228 0.74404 0.0
H2142 H 0.21915 0.26672 0.76115 0.0
C2143 C 0.29518 0.29745 0.76531 0.0
C2144 C 0.2755 0.24872 0.74937 0.0
C2145 C 0.31339 0.30651 0.77075 0.0
C2146 C 0.19685 0.20329 0.73682 0.0
C2147 C 0.21515 0.21262 0.74204 0.0
C2148 C 0.23473 0.26165 0.75768 0.0
C2149 C 0.29444 0.2751 0.76271 0.0
C2150 C 0.27429 0.26506 0.75788 0.0
C2151 C 0.2158 0.23504 0.74448 0.0
C2152 C 0.23594 0.24526 0.7492 0.0
H2153 H 0.3445 0.26072 0.77284 0.0
H2154 H 0.31279 0.24495 0.76338 0.0
H2155 H 0.25211 0.28364 0.76868 0.0
H2156 H 0.1654 0.24883 0.73459 0.0
H2157 H 0.19727 0.26506 0.74368 0.0
C2158 C 0.19499 0.70305 0.26849 0.0
C2159 C 0.17748 0.71629 0.27199 0.0
C2160 C 0.21361 0.71221 0.2635 0.0
C2161 C 0.23546 0.76258 0.24993 0.0
H2162 H 0.29086 0.74037 0.26087 0.0
C2163 C 0.31585 0.80653 0.2394 0.0
C2164 C 0.33316 0.7934 0.23553 0.0
C2165 C 0.29736 0.79721 0.24443 0.0
C2166 C 0.27554 0.74665 0.25765 0.0
H2167 H 0.16553 0.74951 0.27245 0.0
H2168 H 0.19795 0.76544 0.2638 0.0
H2169 H 0.25712 0.72362 0.26751 0.0
H2170 H 0.345 0.76018 0.23455 0.0
H2171 H 0.31281 0.74396 0.24336 0.0
H2172 H 0.2539 0.78566 0.24011 0.0
C2173 C 0.19727 0.74794 0.26484 0.0
C2174 C 0.25617 0.737 0.26142 0.0
C2175 C 0.17862 0.73878 0.26982 0.0
C2176 C 0.33203 0.77082 0.23744 0.0
C2177 C 0.31354 0.7615 0.2425 0.0
C2178 C 0.25483 0.77226 0.24618 0.0
C2179 C 0.21523 0.73484 0.26188 0.0
C2180 C 0.23586 0.74482 0.25761 0.0
C2181 C 0.29572 0.77452 0.24576 0.0
C2182 C 0.27513 0.76444 0.25 0.0
H2183 H 0.19468 0.68566 0.26998 0.0
H2184 H 0.22692 0.70156 0.2611 0.0
H2185 H 0.22017 0.76886 0.24669 0.0
H2186 H 0.31614 0.82399 0.23812 0.0
H2187 H 0.28413 0.80777 0.24707 0.0
C2188 C 0.32066 0.20233 0.26157 0.0
C2189 C 0.33065 0.20972 0.27179 0.0
C2190 C 0.3027 0.21345 0.25696 0.0
C2191 C 0.27217 0.26581 0.25838 0.0
H2192 H 0.22325 0.23041 0.24871 0.0
C2193 C 0.18814 0.3039 0.24847 0.0
C2194 C 0.17811 0.29671 0.23823 0.0
C2195 C 0.20618 0.29276 0.25297 0.0
C2196 C 0.23681 0.24055 0.2513 0.0
H2197 H 0.33039 0.23527 0.28478 0.0
H2198 H 0.29929 0.25445 0.27682 0.0
H2199 H 0.25702 0.2129 0.25472 0.0
H2200 H 0.17841 0.27149 0.22505 0.0
H2201 H 0.20965 0.25223 0.23285 0.0
H2202 H 0.25194 0.29347 0.25499 0.0
C2203 C 0.30522 0.24016 0.27231 0.0
C2204 C 0.25623 0.23051 0.25469 0.0
C2205 C 0.32304 0.22906 0.27692 0.0
C2206 C 0.18578 0.27754 0.23295 0.0
C2207 C 0.20368 0.2664 0.23745 0.0
C2208 C 0.25274 0.27586 0.255 0.0
C2209 C 0.29447 0.23224 0.26243 0.0
C2210 C 0.27417 0.243 0.25828 0.0
C2211 C 0.21445 0.27413 0.24736 0.0
C2212 C 0.2348 0.26336 0.25143 0.0
H2213 H 0.32606 0.18747 0.25742 0.0
H2214 H 0.29501 0.2071 0.24923 0.0
H2215 H 0.28572 0.27596 0.26096 0.0
H2216 H 0.18269 0.31863 0.25274 0.0
H2217 H 0.2139 0.29896 0.26073 0.0
C2218 C 0.1808 0.78981 0.76277 0.0
C2219 C 0.17943 0.79145 0.7749 0.0
C2220 C 0.19873 0.77959 0.75752 0.0
C2221 C 0.24437 0.74139 0.76359 0.0
H2222 H 0.27074 0.76799 0.73659 0.0
C2223 C 0.32698 0.7117 0.74465 0.0
C2224 C 0.32838 0.71046 0.73251 0.0
C2225 C 0.30903 0.72175 0.74998 0.0
C2226 C 0.26347 0.7602 0.74406 0.0
H2227 H 0.19579 0.78324 0.79099 0.0
H2228 H 0.22677 0.76569 0.7819 0.0
H2229 H 0.2384 0.78436 0.74521 0.0
H2230 H 0.31194 0.71904 0.71649 0.0
H2231 H 0.28095 0.73621 0.72571 0.0
H2232 H 0.26944 0.71721 0.76244 0.0
C2233 C 0.214 0.77208 0.77641 0.0
C2234 C 0.24486 0.76958 0.74899 0.0
C2235 C 0.19622 0.78232 0.78163 0.0
C2236 C 0.31154 0.71969 0.72586 0.0
C2237 C 0.29373 0.72972 0.73116 0.0
C2238 C 0.26298 0.73199 0.75866 0.0
C2239 C 0.2156 0.77067 0.76429 0.0
C2240 C 0.23506 0.76031 0.75882 0.0
C2241 C 0.29216 0.73086 0.74329 0.0
C2242 C 0.27276 0.74125 0.74881 0.0
H2243 H 0.1682 0.79667 0.75732 0.0
H2244 H 0.19933 0.7786 0.74816 0.0
H2245 H 0.23711 0.73363 0.77108 0.0
H2246 H 0.33962 0.70476 0.75004 0.0
H2247 H 0.30845 0.72251 0.75935 0.0
C2248 C 0.56179 0.94406 0.51292 0.0
C2249 C 0.55399 0.93224 0.52248 0.0
C2250 C 0.55031 0.96221 0.50878 0.0
C2251 C 0.49629 0.98973 0.50991 0.0
H2252 H 0.52952 0.04128 0.5021 0.0
C2253 C 0.45392 0.07177 0.50017 0.0
C2254 C 0.46138 0.08265 0.49022 0.0
C2255 C 0.46582 0.05435 0.50482 0.0
C2256 C 0.51998 0.02699 0.50418 0.0
H2257 H 0.52745 0.92972 0.53484 0.0
H2258 H 0.50772 0.96119 0.52774 0.0
H2259 H 0.54847 0.0081 0.50783 0.0
H2260 H 0.48785 0.08461 0.47781 0.0
H2261 H 0.50844 0.05448 0.48587 0.0
H2262 H 0.46781 0.00859 0.50624 0.0
C2263 C 0.52259 0.9565 0.52336 0.0
C2264 C 0.53087 0.00791 0.50741 0.0
C2265 C 0.53403 0.93846 0.52748 0.0
C2266 C 0.48157 0.07655 0.48546 0.0
C2267 C 0.49347 0.05929 0.49012 0.0
C2268 C 0.48541 0.00881 0.50669 0.0
C2269 C 0.53074 0.96887 0.51409 0.0
C2270 C 0.51917 0.989 0.5103 0.0
C2271 C 0.4855 0.04758 0.49968 0.0
C2272 C 0.49711 0.02768 0.50375 0.0
H2273 H 0.5771 0.93976 0.50887 0.0
H2274 H 0.55689 0.97117 0.50151 0.0
H2275 H 0.48674 0.97542 0.51193 0.0
H2276 H 0.4384 0.07599 0.50402 0.0
H2277 H 0.45938 0.04589 0.5123 0.0
C2278 C 0.04478 0.93404 0.99388 0.0
C2279 C 0.05027 0.9354 0.98207 0.0
C2280 C 0.03455 0.95158 0.99948 0.0
C2281 C 1.00241 1.00163 0.99336 0.0
H2282 H 0.01903 0.01807 0.02453 0.0
C2283 C 0.97041 0.08053 0.01537 0.0
C2284 C 0.96446 0.07881 0.0271 0.0
C2285 C 0.98135 0.06338 0.0098 0.0
C2286 C 0.01404 0.01359 0.01586 0.0
H2287 H 0.04956 0.95656 0.96699 0.0
H2288 H 0.03207 0.98683 0.97672 0.0
H2289 H 0.03671 0.9871 0.01523 0.0
H2290 H 0.96542 0.05755 0.04213 0.0
H2291 H 0.98414 0.02794 0.03247 0.0
H2292 H 0.97972 0.02808 0.994 0.0
C2293 C 0.03525 0.97217 0.98164 0.0
C2294 C 0.02416 0.99577 0.01053 0.0
C2295 C 0.04543 0.95475 0.97606 0.0
C2296 C 0.9698 0.0596 0.03311 0.0
C2297 C 0.98071 0.04257 0.02758 0.0
C2298 C 0.9923 0.01944 0.99868 0.0
C2299 C 0.02955 0.97083 0.9934 0.0
C2300 C 0.0185 0.98955 0.99921 0.0
C2301 C 0.98663 0.04417 0.01586 0.0
C2302 C 0.99793 0.02565 0.01001 0.0
H2303 H 0.04826 0.91942 0.99877 0.0
H2304 H 0.03024 0.94992 0.00854 0.0
H2305 H 0.99737 0.99712 0.9847 0.0
H2306 H 0.96656 0.09506 0.01047 0.0
H2307 H 0.98583 0.06525 1.00078 0.0
C2308 C 0.55289 0.06298 0.98768 0.0
C2309 C 0.53925 0.08018 0.98421 0.0
C2310 C 0.5442 0.04422 0.99275 0.0
C2311 C 0.49311 0.01276 0.99414 0.0
H2312 H 0.5218 0.98237 0.01927 0.0
C2313 C 0.45332 0.94103 0.01882 0.0
C2314 C 0.46677 0.92419 0.02295 0.0
C2315 C 0.46228 0.95934 0.01344 0.0
C2316 C 0.51374 0.99045 0.01213 0.0
H2317 H 0.50578 0.09142 0.98383 0.0
H2318 H 0.49068 0.05882 0.9928 0.0
H2319 H 0.53704 0.01637 0.01203 0.0
H2320 H 0.50018 0.91297 0.02403 0.0
H2321 H 0.51575 0.94468 0.01441 0.0
H2322 H 0.46984 0.98684 0.9942 0.0
C2323 C 0.50809 0.05971 0.99142 0.0
C2324 C 0.52245 0.01002 0.00801 0.0
C2325 C 0.51679 0.07852 0.98638 0.0
C2326 C 0.48932 0.92563 0.021 0.0
C2327 C 0.49828 0.94394 0.01559 0.0
C2328 C 0.48443 0.99316 0.99823 0.0
C2329 C 0.52163 0.04215 0.99445 0.0
C2330 C 0.51222 0.02146 0.99898 0.0
C2331 C 0.48493 0.96129 0.012 0.0
C2332 C 0.4946 0.98175 0.0073 0.0
H2333 H 0.57026 0.06364 0.98612 0.0
H2334 H 0.5551 0.03098 0.99491 0.0
H2335 H 0.48502 0.02091 0.98702 0.0
H2336 H 0.43589 0.94056 0.0202 0.0
H2337 H 0.45148 0.9724 0.01087 0.0
C2338 C 0.03574 0.06799 0.5319 0.0
C2339 C 0.05323 0.07689 0.52561 0.0
C2340 C 0.02416 0.05015 0.52763 0.0
C2341 C 0.02964 1.00333 0.50792 0.0
H2342 H 0.96685 1.00003 0.51077 0.0
C2343 C 0.9788 0.93733 0.4849 0.0
C2344 C 0.95968 0.92953 0.49019 0.0
C2345 C 0.9908 0.95415 0.48992 0.0
C2346 C 0.98442 1.00048 0.51008 0.0
H2347 H 0.07192 0.07421 0.50974 0.0
H2348 H 0.05159 0.04297 0.50224 0.0
H2349 H 0.98595 0.03242 0.5175 0.0
H2350 H 0.93884 0.93269 0.50525 0.0
H2351 H 0.96012 0.96187 0.51419 0.0
H2352 H 0.02819 0.97138 0.50057 0.0
C2353 C 0.04699 0.04978 0.51055 0.0
C2354 C 0.99537 0.01914 0.51389 0.0
C2355 C 0.05852 0.0678 0.51479 0.0
C2356 C 0.95348 0.93828 0.50095 0.0
C2357 C 0.96555 0.95519 0.506 0.0
C2358 C 0.01872 0.98463 0.50417 0.0
C2359 C 0.02981 0.04061 0.51698 0.0
C2360 C 0.01811 0.02085 0.51279 0.0
C2361 C 0.98412 0.96366 0.50042 0.0
C2362 C 0.99593 0.98299 0.50512 0.0
H2363 H 0.03115 0.0746 0.54025 0.0
H2364 H 0.01115 0.04343 0.53285 0.0
H2365 H 0.0472 1.00393 0.50715 0.0
H2366 H 0.98416 0.93094 0.47663 0.0
H2367 H 0.00483 0.96029 0.48529 0.0
C2368 C 0.97553 0.17487 0.05065 0.0
C2369 C 0.95272 0.17692 0.05043 0.0
C2370 C 0.98885 0.19346 0.05066 0.0
C2371 C 0.98787 0.25196 0.04277 0.0
H2372 H 0.03789 0.25684 0.063 0.0
C2373 C 0.0342 0.33341 0.04837 0.0
C2374 C 0.057 0.33244 0.04931 0.0
C2375 C 0.02169 0.31432 0.04867 0.0
C2376 C 0.02414 0.25568 0.05718 0.0
H2377 H 0.9262 0.20039 0.05038 0.0
H2378 H 0.94922 0.2323 0.05036 0.0
H2379 H 0.01645 0.22341 0.06297 0.0
H2380 H 0.08437 0.31039 0.05145 0.0
H2381 H 0.06275 0.27743 0.05169 0.0
H2382 H 0.99555 0.28406 0.03688 0.0
C2383 C 0.95689 0.21643 0.05034 0.0
C2384 C 0.01185 0.23647 0.05717 0.0
C2385 C 0.94366 0.19799 0.05041 0.0
C2386 C 0.06688 0.3119 0.05066 0.0
C2387 C 0.05442 0.29289 0.0509 0.0
C2388 C 1.0002 0.2711 0.04273 0.0
C2389 C 0.97964 0.21447 0.05036 0.0
C2390 C 0.99345 0.23443 0.05003 0.0
C2391 C 0.03165 0.29377 0.04989 0.0
C2392 C 0.01846 0.27331 0.04997 0.0
H2393 H 0.98309 0.15894 0.0507 0.0
H2394 H 0.00635 0.19139 0.05064 0.0
H2395 H 0.97401 0.25082 0.03701 0.0
H2396 H 0.02599 0.3489 0.0474 0.0
H2397 H 1.00417 0.31572 0.04804 0.0
C2398 C 0.08377 0.7186 0.2966 0.0
C2399 C 0.08188 0.69579 0.29701 0.0
C2400 C 0.0652 0.73186 0.2973 0.0
C2401 C 0.00593 0.73145 0.29238 0.0
H2402 H 0.00473 0.78059 0.31341 0.0
C2403 C 0.92682 0.78095 0.30015 0.0
C2404 C 0.92891 0.80359 0.30154 0.0
C2405 C 0.94529 0.76749 0.30006 0.0
C2406 C 0.00481 0.76714 0.30736 0.0
H2407 H 0.05875 0.66921 0.29864 0.0
H2408 H 0.02668 0.69222 0.29959 0.0
H2409 H 0.03761 0.75858 0.3118 0.0
H2410 H 0.95228 0.82963 0.30426 0.0
H2411 H 0.98411 0.80653 0.30366 0.0
H2412 H 0.97341 0.74017 0.28769 0.0
C2413 C 0.04247 0.69985 0.29868 0.0
C2414 C 0.02371 0.75449 0.30646 0.0
C2415 C 0.06096 0.68665 0.29814 0.0
C2416 C 0.94989 0.81231 0.30308 0.0
C2417 C 0.96829 0.79895 0.30286 0.0
C2418 C 0.98712 0.74424 0.29316 0.0
C2419 C 0.04433 0.7226 0.29828 0.0
C2420 C 0.02448 0.73647 0.29899 0.0
C2421 C 0.96634 0.77634 0.30128 0.0
C2422 C 0.98624 0.76229 0.30067 0.0
H2423 H 0.09958 0.72624 0.2958 0.0
H2424 H 0.06713 0.74937 0.29694 0.0
H2425 H 0.00608 0.71777 0.28646 0.0
H2426 H 0.91094 0.77362 0.29901 0.0
H2427 H 0.94303 0.75013 0.29903 0.0
C2428 C 0.44389 0.69463 0.54381 0.0
C2429 C 0.45265 0.67346 0.54435 0.0
C2430 C 0.45743 0.71288 0.54357 0.0
C2431 C 0.51251 0.73168 0.55128 0.0
H2432 H 0.49814 0.78034 0.5313 0.0
C2433 C 0.56936 0.80615 0.54655 0.0
C2434 C 0.55987 0.82695 0.54562 0.0
C2435 C 0.55657 0.78736 0.54616 0.0
C2436 C 0.50226 0.76704 0.53705 0.0
H2437 H 0.48275 0.65509 0.5451 0.0
H2438 H 0.50647 0.68709 0.54467 0.0
H2439 H 0.47584 0.74757 0.53083 0.0
H2440 H 0.52924 0.8441 0.54366 0.0
H2441 H 0.50686 0.8113 0.54315 0.0
H2442 H 0.53876 0.75122 0.5576 0.0
C2443 C 0.48901 0.68945 0.54447 0.0
C2444 C 0.48949 0.74819 0.53675 0.0
C2445 C 0.47542 0.67109 0.54464 0.0
C2446 C 0.53716 0.8284 0.54433 0.0
C2447 C 0.52432 0.80954 0.54398 0.0
C2448 C 0.52524 0.75058 0.55161 0.0
C2449 C 0.48016 0.71059 0.54392 0.0
C2450 C 0.49438 0.73029 0.5439 0.0
C2451 C 0.53386 0.78874 0.54488 0.0
C2452 C 0.52027 0.76857 0.54452 0.0
H2453 H 0.42647 0.69724 0.54367 0.0
H2454 H 0.45 0.72886 0.54333 0.0
H2455 H 0.51656 0.71836 0.55702 0.0
H2456 H 0.58677 0.80428 0.54757 0.0
H2457 H 0.56458 0.7717 0.54671 0.0
C2458 C 0.58179 0.22665 0.79852 0.0
C2459 C 0.57959 0.2039 0.79774 0.0
C2460 C 0.56337 0.24016 0.79841 0.0
C2461 C 0.50523 0.24121 0.78983 0.0
H2462 H 0.50116 0.28919 0.81152 0.0
C2463 C 0.4254 0.29039 0.79608 0.0
C2464 C 0.42729 0.31297 0.79781 0.0
C2465 C 0.44392 0.27703 0.79607 0.0
C2466 C 0.5021 0.27604 0.80529 0.0
H2467 H 0.55606 0.17765 0.79631 0.0
H2468 H 0.52426 0.2011 0.79607 0.0
H2469 H 0.53377 0.26659 0.81122 0.0
H2470 H 0.45038 0.33908 0.80094 0.0
H2471 H 0.48241 0.31603 0.80063 0.0
H2472 H 0.47367 0.2507 0.78383 0.0
C2473 C 0.5402 0.20854 0.79664 0.0
C2474 C 0.52085 0.26307 0.80513 0.0
C2475 C 0.55852 0.19507 0.79683 0.0
C2476 C 0.44817 0.32179 0.79956 0.0
C2477 C 0.46663 0.30849 0.79949 0.0
C2478 C 0.48653 0.25424 0.78995 0.0
C2479 C 0.54234 0.23125 0.79745 0.0
C2480 C 0.52264 0.24545 0.79742 0.0
C2481 C 0.46482 0.28592 0.79776 0.0
C2482 C 0.48467 0.27183 0.79769 0.0
H2483 H 0.59772 0.23405 0.79926 0.0
H2484 H 0.56562 0.2576 0.79897 0.0
H2485 H 0.50618 0.22794 0.78367 0.0
H2486 H 0.4096 0.28297 0.79478 0.0
H2487 H 0.44182 0.25968 0.79487 0.0
C2488 C 0.97543 0.83692 0.45827 0.0
C2489 C 0.9527 0.83507 0.45721 0.0
C2490 C 0.98879 0.81841 0.45742 0.0
C2491 C 0.98691 0.75858 0.46091 0.0
H2492 H 0.04115 0.75902 0.44378 0.0
C2493 C 0.03835 0.68009 0.45489 0.0
C2494 C 0.06107 0.68232 0.4557 0.0
C2495 C 0.0249 0.69855 0.45431 0.0
C2496 C 0.02617 0.75863 0.44872 0.0
H2497 H 0.9264 0.81217 0.45402 0.0
H2498 H 0.94953 0.78031 0.45263 0.0
H2499 H 0.01881 0.79183 0.44451 0.0
H2500 H 0.08736 0.70597 0.45625 0.0
H2501 H 0.06412 0.7377 0.45555 0.0
H2502 H 0.99435 0.72558 0.46533 0.0
C2503 C 0.95706 0.79595 0.45427 0.0
C2504 C 0.01336 0.77749 0.44912 0.0
C2505 C 0.94378 0.81435 0.45503 0.0
C2506 C 0.06995 0.70345 0.45568 0.0
C2507 C 0.05656 0.7218 0.45517 0.0
C2508 C 0.99978 0.73977 0.46058 0.0
C2509 C 0.9797 0.79765 0.45558 0.0
C2510 C 0.99356 0.77771 0.45522 0.0
C2511 C 0.03383 0.71969 0.45456 0.0
C2512 C 0.01964 0.73951 0.4545 0.0
H2513 H 0.98289 0.85257 0.45993 0.0
H2514 H 0.00619 0.82028 0.45851 0.0
H2515 H 0.97189 0.75824 0.46582 0.0
H2516 H 0.03091 0.66412 0.45482 0.0
H2517 H 0.00748 0.69623 0.45367 0.0
C2518 C 0.58492 0.78863 0.71001 0.0
C2519 C 0.5821 0.81121 0.70866 0.0
C2520 C 0.56684 0.7746 0.71007 0.0
C2521 C 0.5074 0.77525 0.71563 0.0
H2522 H 0.50689 0.7201 0.69936 0.0
C2523 C 0.42838 0.72459 0.71035 0.0
C2524 C 0.43015 0.7018 0.71097 0.0
C2525 C 0.44708 0.73768 0.71008 0.0
C2526 C 0.50681 0.73533 0.70408 0.0
H2527 H 0.55785 0.83647 0.70582 0.0
H2528 H 0.52685 0.81226 0.70591 0.0
H2529 H 0.53954 0.74271 0.6989 0.0
H2530 H 0.45325 0.67504 0.71186 0.0
H2531 H 0.48548 0.69773 0.71169 0.0
H2532 H 0.47482 0.76791 0.7209 0.0
C2533 C 0.54291 0.80535 0.70714 0.0
C2534 C 0.52557 0.74829 0.70381 0.0
C2535 C 0.56083 0.81925 0.70702 0.0
C2536 C 0.45111 0.69251 0.71139 0.0
C2537 C 0.46972 0.70556 0.71118 0.0
C2538 C 0.4887 0.76227 0.71595 0.0
C2539 C 0.54557 0.7829 0.70884 0.0
C2540 C 0.52604 0.7685 0.7095 0.0
C2541 C 0.46804 0.72833 0.71046 0.0
C2542 C 0.48807 0.74216 0.71014 0.0
H2543 H 0.60101 0.78183 0.71128 0.0
H2544 H 0.56946 0.75736 0.71141 0.0
H2545 H 0.5073 0.79056 0.72028 0.0
H2546 H 0.41256 0.73233 0.70993 0.0
H2547 H 0.44509 0.75514 0.70937 0.0
C2548 C 0.56905 0.19997 0.96164 0.0
C2549 C 0.56008 0.17897 0.9627 0.0
C2550 C 0.55568 0.21836 0.96111 0.0
C2551 C 0.49971 0.23594 0.95409 0.0
H2552 H 0.51565 0.28811 0.97097 0.0
C2553 C 0.44075 0.30847 0.95915 0.0
C2554 C 0.44911 0.32981 0.95912 0.0
C2555 C 0.45461 0.29045 0.95912 0.0
C2556 C 0.5111 0.27382 0.96605 0.0
H2557 H 0.52978 0.16104 0.96395 0.0
H2558 H 0.50641 0.19322 0.96302 0.0
H2559 H 0.53874 0.2559 0.97213 0.0
H2560 H 0.47887 0.34872 0.95877 0.0
H2561 H 0.50316 0.31716 0.95854 0.0
H2562 H 0.47214 0.25382 0.94796 0.0
C2563 C 0.52388 0.19536 0.96256 0.0
C2564 C 0.52433 0.25528 0.96675 0.0
C2565 C 0.53729 0.17691 0.96317 0.0
C2566 C 0.47182 0.33257 0.95883 0.0
C2567 C 0.48576 0.31444 0.95878 0.0
C2568 C 0.48653 0.25449 0.95335 0.0
C2569 C 0.53292 0.21634 0.96153 0.0
C2570 C 0.51876 0.23606 0.96082 0.0
C2571 C 0.47732 0.29312 0.95901 0.0
C2572 C 0.49196 0.27367 0.95938 0.0
H2573 H 0.58649 0.2023 0.96117 0.0
H2574 H 0.56321 0.23418 0.96015 0.0
H2575 H 0.49512 0.22157 0.94923 0.0
H2576 H 0.42337 0.30555 0.95936 0.0
H2577 H 0.44745 0.27437 0.95947 0.0
C2578 C 0.08191 0.27929 0.20987 0.0
C2579 C 0.07969 0.30199 0.20878 0.0
C2580 C 0.06348 0.26578 0.20988 0.0
C2581 C 0.0046 0.26708 0.21614 0.0
H2582 H 1.00215 0.21375 0.19829 0.0
C2583 C 0.92493 0.21698 0.21208 0.0
C2584 C 0.92674 0.19417 0.21173 0.0
C2585 C 0.94356 0.23014 0.21154 0.0
C2586 C 1.00261 0.22842 0.20347 0.0
H2587 H 0.05616 0.32806 0.20638 0.0
H2588 H 0.0244 0.30466 0.20655 0.0
H2589 H 0.035 0.23599 0.19781 0.0
H2590 H 0.94982 0.16745 0.21053 0.0
H2591 H 0.98196 0.19015 0.21004 0.0
H2592 H 0.97246 0.25945 0.22201 0.0
C2593 C 0.04032 0.2973 0.20754 0.0
C2594 C 0.02148 0.24119 0.20316 0.0
C2595 C 0.05864 0.31072 0.20741 0.0
C2596 C 0.94765 0.18492 0.21086 0.0
C2597 C 0.96621 0.19802 0.21044 0.0
C2598 C 0.98581 0.25422 0.21655 0.0
C2599 C 0.04244 0.27471 0.20891 0.0
C2600 C 0.02266 0.26072 0.20945 0.0
C2601 C 0.9645 0.22083 0.21072 0.0
C2602 C 0.98449 0.23471 0.2102 0.0
H2603 H 0.09783 0.27197 0.21091 0.0
H2604 H 0.06565 0.24841 0.21096 0.0
H2605 H 0.00509 0.28191 0.22121 0.0
H2606 H 0.90912 0.2247 0.21265 0.0
H2607 H 0.94149 0.24764 0.21159 0.0
C2608 C 0.94195 0.70153 0.95565 0.0
C2609 C 0.9509 0.6808 0.95778 0.0
C2610 C 0.95499 0.72014 0.95572 0.0
C2611 C 0.00805 0.74079 0.96642 0.0
H2612 H 0.99594 0.78865 0.94548 0.0
C2613 C 0.0661 0.81387 0.96109 0.0
C2614 C 0.05709 0.83491 0.9603 0.0
C2615 C 0.05286 0.79543 0.96097 0.0
C2616 C 0.99937 0.77554 0.95148 0.0
H2617 H 0.98094 0.66352 0.9613 0.0
H2618 H 1.00387 0.69602 0.96116 0.0
H2619 H 0.97433 0.75545 0.94432 0.0
H2620 H 0.02684 0.85283 0.95869 0.0
H2621 H 1.00361 0.82042 0.95842 0.0
H2622 H 0.0333 0.76084 0.97345 0.0
C2623 C 0.98657 0.69788 0.95969 0.0
C2624 C 0.98698 0.75645 0.95082 0.0
C2625 C 0.97345 0.67918 0.95968 0.0
C2626 C 0.03435 0.83694 0.95937 0.0
C2627 C 0.02105 0.81836 0.95915 0.0
C2628 C 0.02051 0.75983 0.96703 0.0
C2629 C 0.97747 0.71866 0.95782 0.0
C2630 C 0.99112 0.73879 0.95829 0.0
C2631 C 0.03018 0.79737 0.95996 0.0
C2632 C 0.01634 0.77744 0.95956 0.0
H2633 H 0.92469 0.70355 0.95412 0.0
H2634 H 0.94727 0.73578 0.95441 0.0
H2635 H 0.01148 0.72779 0.97247 0.0
H2636 H 0.08352 0.81151 0.96169 0.0
H2637 H 0.06048 0.77955 0.96143 0.0
C2638 C 0.92591 0.27929 0.70999 0.0
C2639 C 0.92791 0.30208 0.70959 0.0
C2640 C 0.94446 0.26597 0.71009 0.0
C2641 C 1.00411 0.26666 0.70375 0.0
H2642 H 0.0048 0.21498 0.72297 0.0
C2643 C 0.08291 0.21706 0.71264 0.0
C2644 C 0.08105 0.19426 0.71211 0.0
C2645 C 0.06431 0.23029 0.7123 0.0
C2646 C 0.00482 0.22927 0.71748 0.0
H2647 H 0.95126 0.32859 0.70882 0.0
H2648 H 0.98325 0.30558 0.70929 0.0
H2649 H 0.97214 0.2375 0.72223 0.0
H2650 H 0.05795 0.16763 0.71072 0.0
H2651 H 0.02579 0.1906 0.71023 0.0
H2652 H 0.03691 0.25851 0.69913 0.0
C2653 C 0.96742 0.29787 0.70934 0.0
C2654 C 0.98603 0.24216 0.71702 0.0
C2655 C 0.94894 0.31114 0.70917 0.0
C2656 C 0.06012 0.18508 0.71125 0.0
C2657 C 0.04158 0.19827 0.71101 0.0
C2658 C 0.02293 0.25384 0.70427 0.0
C2659 C 0.9655 0.27509 0.70981 0.0
C2660 C 0.98539 0.26106 0.71014 0.0
C2661 C 0.0434 0.22104 0.71151 0.0
C2662 C 0.02352 0.23496 0.71113 0.0
H2663 H 0.91001 0.27171 0.71025 0.0
H2664 H 0.94229 0.24849 0.71029 0.0
H2665 H 1.00417 0.28085 0.69819 0.0
H2666 H 0.09873 0.22473 0.71326 0.0
H2667 H 0.06628 0.24778 0.71278 0.0
C2668 C 0.57054 0.31073 0.45775 0.0
C2669 C 0.56173 0.33189 0.45741 0.0
C2670 C 0.55713 0.29242 0.45739 0.0
C2671 C 0.50019 0.2744 0.4622 0.0
H2672 H 0.5201 0.22251 0.44621 0.0
C2673 C 0.44511 0.19917 0.45595 0.0
C2674 C 0.45428 0.17853 0.45808 0.0
C2675 C 0.45812 0.21778 0.45544 0.0
C2676 C 0.51439 0.23679 0.45081 0.0
H2677 H 0.53163 0.35017 0.45623 0.0
H2678 H 0.50811 0.31806 0.45537 0.0
H2679 H 0.54225 0.25539 0.44579 0.0
H2680 H 0.48466 0.16141 0.46098 0.0
H2681 H 0.50747 0.19402 0.45999 0.0
H2682 H 0.47221 0.25576 0.46712 0.0
C2683 C 0.52551 0.31572 0.45614 0.0
C2684 C 0.5271 0.25569 0.45058 0.0
C2685 C 0.53901 0.33417 0.45656 0.0
C2686 C 0.477 0.17699 0.45935 0.0
C2687 C 0.49009 0.19568 0.45875 0.0
C2688 C 0.48741 0.25552 0.46236 0.0
C2689 C 0.53442 0.29457 0.45657 0.0
C2690 C 0.52028 0.27474 0.45635 0.0
C2691 C 0.48075 0.21635 0.45694 0.0
C2692 C 0.49439 0.23644 0.45671 0.0
H2693 H 0.58793 0.30816 0.45839 0.0
H2694 H 0.56465 0.27651 0.45797 0.0
H2695 H 0.49452 0.28856 0.46691 0.0
H2696 H 0.42773 0.20111 0.45479 0.0
H2697 H 0.45042 0.23334 0.45382 0.0
C2698 C 0.42477 0.79063 0.21051 0.0
C2699 C 0.42697 0.81333 0.20947 0.0
C2700 C 0.44314 0.77703 0.21006 0.0
C2701 C 0.50183 0.77673 0.20118 0.0
H2702 H 0.50508 0.72635 0.22128 0.0
C2703 C 0.58186 0.72819 0.20891 0.0
C2704 C 0.58013 0.70536 0.20881 0.0
C2705 C 0.56314 0.74129 0.2087 0.0
C2706 C 0.50436 0.74028 0.21555 0.0
H2707 H 0.45046 0.83935 0.20698 0.0
H2708 H 0.48208 0.81599 0.20657 0.0
H2709 H 0.47234 0.74881 0.22131 0.0
H2710 H 0.55708 0.67855 0.20818 0.0
H2711 H 0.52477 0.7013 0.20799 0.0
H2712 H 0.53407 0.76836 0.19561 0.0
C2713 C 0.46624 0.80849 0.2075 0.0
C2714 C 0.48551 0.75313 0.21552 0.0
C2715 C 0.44797 0.82199 0.20786 0.0
C2716 C 0.5592 0.69604 0.20841 0.0
C2717 C 0.54057 0.70909 0.20833 0.0
C2718 C 0.52074 0.764 0.2013 0.0
C2719 C 0.46417 0.7858 0.20859 0.0
C2720 C 0.48397 0.77159 0.20835 0.0
C2721 C 0.54226 0.73187 0.20851 0.0
C2722 C 0.52225 0.74562 0.20849 0.0
H2723 H 0.40888 0.78334 0.21169 0.0
H2724 H 0.44081 0.75962 0.21076 0.0
H2725 H 0.50117 0.79052 0.19536 0.0
H2726 H 0.59766 0.73597 0.20917 0.0
H2727 H 0.565 0.75881 0.2089 0.0
C2728 C 0.94594 0.31429 0.54808 0.0
C2729 C 0.95503 0.33524 0.5471 0.0
C2730 C 0.95915 0.29577 0.54824 0.0
C2731 C 0.01438 0.27617 0.54036 0.0
H2732 H 0.99881 0.22729 0.55993 0.0
C2733 C 0.07135 0.20224 0.54688 0.0
C2734 C 0.062 0.18131 0.547 0.0
C2735 C 0.05831 0.22088 0.54688 0.0
C2736 C 1.00326 0.24069 0.55431 0.0
H2737 H 0.98542 0.35297 0.54571 0.0
H2738 H 0.00855 0.32061 0.54616 0.0
H2739 H 0.97665 0.2602 0.56028 0.0
H2740 H 0.03137 0.1638 0.54733 0.0
H2741 H 0.00857 0.19644 0.54733 0.0
H2742 H 0.04109 0.25665 0.53447 0.0
C2743 C 0.99108 0.31853 0.5466 0.0
C2744 C 0.99054 0.25961 0.55451 0.0
C2745 C 0.97781 0.33713 0.54641 0.0
C2746 C 0.03917 0.1796 0.5472 0.0
C2747 C 0.02609 0.19833 0.54727 0.0
C2748 C 0.02714 0.25727 0.5402 0.0
C2749 C 0.98191 0.29757 0.54749 0.0
C2750 C 0.99587 0.27761 0.54751 0.0
C2751 C 0.03551 0.21922 0.54708 0.0
C2752 C 0.02173 0.23926 0.54716 0.0
H2753 H 0.92849 0.31206 0.54866 0.0
H2754 H 0.95142 0.27997 0.54875 0.0
H2755 H 0.01881 0.2895 0.5347 0.0
H2756 H 0.08885 0.20432 0.54683 0.0
H2757 H 0.06615 0.23666 0.54692 0.0
C2758 C 0.42647 0.22749 0.30078 0.0
C2759 C 0.4286 0.20481 0.30191 0.0
C2760 C 0.44492 0.24095 0.30087 0.0
C2761 C 0.50453 0.24098 0.30809 0.0
H2762 H 0.50538 0.29142 0.28797 0.0
C2763 C 0.58286 0.29114 0.29764 0.0
C2764 C 0.58053 0.31387 0.29853 0.0
C2765 C 0.56458 0.27749 0.29831 0.0
C2766 C 0.50535 0.27742 0.29367 0.0
H2767 H 0.45202 0.17868 0.30437 0.0
H2768 H 0.4838 0.20178 0.30404 0.0
H2769 H 0.47286 0.26883 0.28889 0.0
H2770 H 0.55695 0.33985 0.30112 0.0
H2771 H 0.52543 0.31621 0.30198 0.0
H2772 H 0.53734 0.24945 0.3126 0.0
C2773 C 0.46797 0.2094 0.30332 0.0
C2774 C 0.48662 0.26453 0.29428 0.0
C2775 C 0.4496 0.19604 0.30338 0.0
C2776 C 0.55951 0.3225 0.30021 0.0
C2777 C 0.54132 0.30894 0.3007 0.0
C2778 C 0.52337 0.25373 0.30735 0.0
C2779 C 0.46599 0.23205 0.30199 0.0
C2780 C 0.48587 0.24612 0.30153 0.0
C2781 C 0.54358 0.28631 0.29972 0.0
C2782 C 0.52395 0.27216 0.30017 0.0
H2783 H 0.41058 0.23486 0.29972 0.0
H2784 H 0.44262 0.25835 0.30006 0.0
H2785 H 0.50456 0.22723 0.31395 0.0
H2786 H 0.59877 0.2839 0.29641 0.0
H2787 H 0.5668 0.26006 0.29753 0.0
C2788 C 0.47125 0.83279 0.04776 0.0
C2789 C 0.4487 0.83023 0.04934 0.0
C2790 C 0.48521 0.81467 0.04808 0.0
C2791 C 0.48718 0.75607 0.05718 0.0
H2792 H 0.53534 0.75304 0.03555 0.0
C2793 C 0.53487 0.67617 0.04766 0.0
C2794 C 0.55768 0.67791 0.04719 0.0
C2795 C 0.5218 0.69489 0.0483 0.0
C2796 C 0.52204 0.7537 0.0417 0.0
H2797 H 0.42337 0.8064 0.05279 0.0
H2798 H 0.44729 0.77524 0.05298 0.0
H2799 H 0.51275 0.78567 0.03623 0.0
H2800 H 0.58451 0.70098 0.04726 0.0
H2801 H 0.5618 0.73327 0.04817 0.0
H2802 H 0.49625 0.72384 0.06242 0.0
C2803 C 0.45443 0.79116 0.05171 0.0
C2804 C 0.50913 0.77249 0.04215 0.0
C2805 C 0.4406 0.80917 0.05148 0.0
C2806 C 0.56703 0.69885 0.04746 0.0
C2807 C 0.554 0.71748 0.04795 0.0
C2808 C 0.49994 0.73721 0.05664 0.0
C2809 C 0.47694 0.79355 0.04997 0.0
C2810 C 0.49143 0.77394 0.04986 0.0
C2811 C 0.53124 0.71577 0.04836 0.0
C2812 C 0.51751 0.73577 0.04888 0.0
H2813 H 0.47811 0.84874 0.04615 0.0
H2814 H 0.50248 0.81726 0.04687 0.0
H2815 H 0.47402 0.75665 0.06341 0.0
H2816 H 0.52708 0.66037 0.04753 0.0
H2817 H 0.50428 0.69303 0.04856 0.0
C2818 C 0.92308 0.71687 0.79596 0.0
C2819 C 0.9248 0.69418 0.79728 0.0
C2820 C 0.94174 0.73005 0.7962 0.0
C2821 C 1.00031 0.72979 0.80507 0.0
H2822 H 1.00447 0.77868 0.78401 0.0
C2823 C 0.08067 0.77826 0.79762 0.0
C2824 C 0.07864 0.80105 0.7971 0.0
C2825 C 0.06208 0.76496 0.79777 0.0
C2826 C 1.00352 0.76518 0.79001 0.0
H2827 H 0.94772 0.66774 0.80009 0.0
H2828 H 0.97987 0.69044 0.80021 0.0
H2829 H 0.97154 0.75661 0.78426 0.0
H2830 H 0.0552 0.82757 0.79655 0.0
H2831 H 0.02324 0.80454 0.79674 0.0
H2832 H 0.03246 0.73829 0.81071 0.0
C2833 C 0.96417 0.69822 0.79917 0.0
C2834 C 0.98455 0.75255 0.79019 0.0
C2835 C 0.94561 0.68511 0.79899 0.0
C2836 C 0.05757 0.81012 0.79683 0.0
C2837 C 0.03912 0.79688 0.79688 0.0
C2838 C 0.01933 0.74234 0.80483 0.0
C2839 C 0.96258 0.72087 0.79775 0.0
C2840 C 0.98264 0.73467 0.79773 0.0
C2841 C 0.04108 0.77414 0.79732 0.0
C2842 C 0.02115 0.76025 0.79733 0.0
H2843 H 0.90736 0.72447 0.79469 0.0
H2844 H 0.93979 0.74747 0.79524 0.0
H2845 H 0.99938 0.71639 0.81114 0.0
H2846 H 0.09658 0.7707 0.79788 0.0
H2847 H 0.06416 0.74746 0.79806 0.0
C2848 C 0.3255 0.3829 0.98876 0.0
C2849 C 0.3304 0.39576 0.97902 0.0
C2850 C 0.30683 0.38676 0.99536 0.0
C2851 C 0.25226 0.41243 0.99422 0.0
H2852 H 0.25403 0.402 0.02734 0.0
C2853 C 0.17608 0.42208 0.02395 0.0
C2854 C 0.17232 0.40457 0.03155 0.0
C2855 C 0.19588 0.42386 0.01794 0.0
C2856 C 0.25322 0.40492 0.0181 0.0
H2857 H 0.3194 0.42311 0.96871 0.0
H2858 H 0.28675 0.43008 0.98037 0.0
H2859 H 0.28751 0.40036 0.01608 0.0
H2860 H 0.18681 0.37563 0.03905 0.0
H2861 H 0.22123 0.3789 0.02874 0.0
H2862 H 0.21783 0.41688 0.99632 0.0
C2863 C 0.29735 0.41676 0.98279 0.0
C2864 C 0.27244 0.40392 0.01161 0.0
C2865 C 0.31615 0.41285 0.97614 0.0
C2866 C 0.18911 0.38934 0.03328 0.0
C2867 C 0.20893 0.39127 0.02739 0.0
C2868 C 0.233 0.41357 1.00075 0.0
C2869 C 0.29242 0.40371 0.9925 0.0
C2870 C 0.2722 0.40715 0.99953 0.0
C2871 C 0.21248 0.40836 0.01952 0.0
C2872 C 0.23318 0.40937 0.01274 0.0
H2873 H 0.336 0.36957 0.9913 0.0
H2874 H 0.30348 0.37606 1.00259 0.0
H2875 H 0.25134 0.41483 0.98494 0.0
H2876 H 0.16348 0.43404 0.02236 0.0
H2877 H 0.19815 0.43732 0.01201 0.0
C2878 C 0.83796 0.07222 0.23382 0.0
C2879 C 0.85667 0.0766 0.22717 0.0
C2880 C 0.83602 0.05263 0.24 0.0
C2881 C 0.85875 0.99659 0.24201 0.0
H2882 H 0.84004 0.99923 0.27408 0.0
C2883 C 0.879 0.92834 0.27411 0.0
C2884 C 0.86355 0.92198 0.28246 0.0
C2885 C 0.87551 0.94652 0.26711 0.0
C2886 C 0.84497 0.99812 0.26509 0.0
H2887 H 0.88764 0.06335 0.22152 0.0
H2888 H 0.88424 0.02941 0.23218 0.0
H2889 H 0.83849 0.03195 0.26205 0.0
H2890 H 0.83217 0.92999 0.28992 0.0
H2891 H 0.82603 0.96197 0.2776 0.0
H2892 H 0.86556 0.96293 0.24505 0.0
C2893 C 0.871 0.04101 0.23263 0.0
C2894 C 0.84408 0.0169 0.25818 0.0
C2895 C 0.873 0.06059 0.22654 0.0
C2896 C 0.84443 0.93442 0.28361 0.0
C2897 C 0.84095 0.95279 0.27657 0.0
C2898 C 0.85961 0.97787 0.24889 0.0
C2899 C 0.85263 0.03686 0.23957 0.0
C2900 C 0.8514 0.01648 0.24662 0.0
C2901 C 0.85644 0.95899 0.26818 0.0
C2902 C 0.85321 0.97846 0.2606 0.0
H2903 H 0.82509 0.08419 0.23455 0.0
H2904 H 0.82156 0.04989 0.24516 0.0
H2905 H 0.86407 0.99551 0.23308 0.0
H2906 H 0.89394 0.91925 0.27293 0.0
H2907 H 0.888 0.95096 0.26093 0.0
C2908 C 0.18327 0.62793 0.48636 0.0
C2909 C 0.17738 0.61408 0.47717 0.0
C2910 C 0.20161 0.62366 0.4931 0.0
C2911 C 0.2542 0.59432 0.49314 0.0
H2912 H 0.25264 0.60909 0.5258 0.0
C2913 C 0.3296 0.58537 0.52348 0.0
C2914 C 0.33406 0.60388 0.53025 0.0
C2915 C 0.30978 0.58348 0.51751 0.0
C2916 C 0.25338 0.60492 0.51669 0.0
H2917 H 0.18631 0.58462 0.46798 0.0
H2918 H 0.21848 0.57701 0.4799 0.0
H2919 H 0.21942 0.61112 0.51437 0.0
H2920 H 0.32083 0.63456 0.53635 0.0
H2921 H 0.28637 0.63111 0.52615 0.0
H2922 H 0.28832 0.58832 0.49553 0.0
C2923 C 0.20886 0.59136 0.48177 0.0
C2924 C 0.23432 0.60613 0.51011 0.0
C2925 C 0.19036 0.59565 0.47497 0.0
C2926 C 0.31796 0.62006 0.53123 0.0
C2927 C 0.29812 0.61804 0.52541 0.0
C2928 C 0.27329 0.59298 0.49977 0.0
C2929 C 0.21471 0.60533 0.49095 0.0
C2930 C 0.23455 0.60142 0.49817 0.0
C2931 C 0.29387 0.5999 0.51834 0.0
C2932 C 0.27321 0.59878 0.51157 0.0
H2933 H 0.17376 0.64229 0.48836 0.0
H2934 H 0.20574 0.63507 0.49991 0.0
H2935 H 0.25506 0.5907 0.48397 0.0
H2936 H 0.34169 0.57267 0.52247 0.0
H2937 H 0.30695 0.56923 0.51219 0.0
C2938 C 0.67053 0.08289 0.77506 0.0
C2939 C 0.65139 0.08726 0.78136 0.0
C2940 C 0.67291 0.06322 0.76897 0.0
C2941 C 0.65074 0.0071 0.76705 0.0
H2942 H 0.66907 0.00907 0.73491 0.0
C2943 C 0.6288 0.93902 0.73536 0.0
C2944 C 0.64414 0.93191 0.72713 0.0
C2945 C 0.63274 0.95732 0.7422 0.0
C2946 C 0.66426 0.00816 0.74392 0.0
H2947 H 0.62009 0.07403 0.78645 0.0
H2948 H 0.6243 0.03999 0.776 0.0
H2949 H 0.67087 0.04204 0.7468 0.0
H2950 H 0.67573 0.93881 0.71961 0.0
H2951 H 0.68262 0.97111 0.73162 0.0
H2952 H 0.64372 0.97345 0.76419 0.0
C2953 C 0.63752 0.05162 0.77575 0.0
C2954 C 0.6653 0.02706 0.75075 0.0
C2955 C 0.63506 0.07125 0.78171 0.0
C2956 C 0.66355 0.94382 0.72586 0.0
C2957 C 0.66747 0.96235 0.73271 0.0
C2958 C 0.64973 0.98828 0.76027 0.0
C2959 C 0.65634 0.04741 0.76918 0.0
C2960 C 0.658 0.02688 0.76231 0.0
C2961 C 0.65215 0.96919 0.74104 0.0
C2962 C 0.65591 0.98867 0.74853 0.0
H2963 H 0.68338 0.0949 0.77455 0.0
H2964 H 0.68767 0.06043 0.76405 0.0
H2965 H 0.64543 0.00625 0.77599 0.0
H2966 H 0.61365 0.93036 0.73663 0.0
H2967 H 0.62036 0.96231 0.74834 0.0
C2968 C 0.67948 0.58922 0.02257 0.0
C2969 C 0.67489 0.60789 0.02921 0.0
C2970 C 0.69931 0.58726 0.01659 0.0
C2971 C 0.75554 0.60951 0.01545 0.0
H2972 H 0.75457 0.59162 0.98324 0.0
C2973 C 0.82586 0.6298 0.98461 0.0
C2974 C 0.83243 0.61462 0.97616 0.0
C2975 C 0.80729 0.6263 0.99132 0.0
C2976 C 0.75522 0.59631 0.99227 0.0
H2977 H 0.68795 0.63881 0.03503 0.0
H2978 H 0.72231 0.63534 0.02475 0.0
H2979 H 0.72117 0.59008 0.99476 0.0
H2980 H 0.82439 0.58368 0.96823 0.0
H2981 H 0.79175 0.57748 0.98006 0.0
H2982 H 0.78942 0.61602 0.013 0.0
C2983 C 0.71069 0.62215 0.02414 0.0
C2984 C 0.73605 0.59544 0.99889 0.0
C2985 C 0.69087 0.62419 0.03001 0.0
C2986 C 0.81982 0.59573 0.97463 0.0
C2987 C 0.80106 0.59223 0.98138 0.0
C2988 C 0.77465 0.61033 0.00887 0.0
C2989 C 0.71511 0.6038 0.01724 0.0
C2990 C 0.73587 0.60249 0.0105 0.0
C2991 C 0.79462 0.60746 0.98986 0.0
C2992 C 0.77468 0.60424 0.99711 0.0
H2993 H 0.66752 0.57639 0.02171 0.0
H2994 H 0.70225 0.57283 0.01144 0.0
H2995 H 0.75614 0.61463 0.02443 0.0
H2996 H 0.83506 0.64457 0.98608 0.0
H2997 H 0.80269 0.63862 0.99758 0.0
C2998 C 0.16288 0.9347 0.78321 0.0
C2999 C 0.14657 0.91982 0.78 0.0
C3000 C 0.16673 0.95345 0.77652 0.0
C3001 C 0.1549 0.9775 0.74733 0.0
H3002 H 0.16517 0.03266 0.76267 0.0
C3003 C 0.13761 0.06043 0.72576 0.0
C3004 C 0.15262 0.07743 0.72737 0.0
C3005 C 0.14004 0.04067 0.73164 0.0
C3006 C 0.1626 0.01733 0.75824 0.0
H3007 H 0.12175 0.91303 0.7671 0.0
H3008 H 0.12799 0.94549 0.75582 0.0
H3009 H 0.16378 0.99921 0.7741 0.0
H3010 H 0.18216 0.08678 0.73635 0.0
H3011 H 0.18622 0.05227 0.74673 0.0
H3012 H 0.15288 0.99575 0.73155 0.0
C3013 C 0.13821 0.94267 0.76331 0.0
C3014 C 0.16185 0.99811 0.76479 0.0
C3015 C 0.13446 0.92403 0.76991 0.0
C3016 C 0.17037 0.074 0.73485 0.0
C3017 C 0.17262 0.0543 0.74087 0.0
C3018 C 0.15542 0.99669 0.74083 0.0
C3019 C 0.15436 0.95772 0.76649 0.0
C3020 C 0.15754 0.97796 0.75946 0.0
C3021 C 0.15737 0.03746 0.73941 0.0
C3022 C 0.15889 0.01689 0.74621 0.0
H3023 H 0.17255 0.93197 0.79091 0.0
H3024 H 0.17944 0.96455 0.7792 0.0
H3025 H 0.15213 0.96228 0.74284 0.0
H3026 H 0.12372 0.06251 0.7201 0.0
H3027 H 0.12789 0.02812 0.73039 0.0
C3028 C 0.82101 0.38924 0.53108 0.0
C3029 C 0.83761 0.40478 0.52972 0.0
C3030 C 0.80126 0.39137 0.52516 0.0
C3031 C 0.7774 0.41471 0.49885 0.0
H3032 H 0.72261 0.40194 0.51402 0.0
C3033 C 0.6948 0.41506 0.47388 0.0
C3034 C 0.68013 0.39835 0.47678 0.0
C3035 C 0.71351 0.4187 0.48063 0.0
C3036 C 0.73776 0.40535 0.50959 0.0
H3037 H 0.84624 0.43496 0.52114 0.0
H3038 H 0.81173 0.43853 0.51069 0.0
H3039 H 0.75603 0.40283 0.52534 0.0
H3040 H 0.6737 0.37258 0.4892 0.0
H3041 H 0.70609 0.37851 0.5006 0.0
H3042 H 0.75928 0.41644 0.48301 0.0
C3043 C 0.81408 0.42472 0.51638 0.0
C3044 C 0.75693 0.40594 0.51611 0.0
C3045 C 0.83377 0.42275 0.52244 0.0
C3046 C 0.68452 0.38562 0.48664 0.0
C3047 C 0.70313 0.38918 0.4933 0.0
C3048 C 0.75821 0.4139 0.49227 0.0
C3049 C 0.79764 0.40896 0.51761 0.0
C3050 C 0.77704 0.41028 0.5108 0.0
C3051 C 0.71796 0.40573 0.49043 0.0
C3052 C 0.73815 0.40879 0.49752 0.0
H3053 H 0.8234 0.37517 0.53659 0.0
H3054 H 0.78904 0.37884 0.52623 0.0
H3055 H 0.79266 0.41795 0.49447 0.0
H3056 H 0.69194 0.42521 0.46637 0.0
H3057 H 0.72442 0.43175 0.47819 0.0
C3058 C 0.38042 0.07955 0.27419 0.0
C3059 C 0.36411 0.08655 0.28192 0.0
C3060 C 0.37726 0.06147 0.26708 0.0
C3061 C 0.3452 0.0111 0.26364 0.0
H3062 H 0.36919 0.01333 0.23257 0.0
C3063 C 0.3409 0.93798 0.23131 0.0
C3064 C 0.36071 0.93301 0.22578 0.0
C3065 C 0.3385 0.9574 0.23762 0.0
C3066 C 0.36245 0.01238 0.24123 0.0
H3067 H 0.33157 0.07968 0.28819 0.0
H3068 H 0.326 0.04786 0.27564 0.0
H3069 H 0.36982 0.04576 0.24468 0.0
H3070 H 0.39329 0.94491 0.2223 0.0
H3071 H 0.38905 0.9786 0.23312 0.0
H3072 H 0.33809 0.97752 0.26015 0.0
C3073 C 0.34133 0.05649 0.2752 0.0
C3074 C 0.36284 0.03099 0.2482 0.0
C3075 C 0.34449 0.07476 0.28236 0.0
C3076 C 0.3778 0.94817 0.22643 0.0
C3077 C 0.37533 0.96759 0.23261 0.0
C3078 C 0.34474 0.99243 0.25662 0.0
C3079 C 0.35766 0.04973 0.26739 0.0
C3080 C 0.35475 0.03049 0.25961 0.0
C3081 C 0.35575 0.97239 0.23839 0.0
C3082 C 0.35385 0.99272 0.24542 0.0
H3083 H 0.39578 0.08809 0.27357 0.0
H3084 H 0.3904 0.05656 0.26139 0.0
H3085 H 0.33892 0.01007 0.27239 0.0
H3086 H 0.32744 0.92662 0.23104 0.0
H3087 H 0.32316 0.96066 0.24192 0.0
C3088 C 0.82768 0.8827 0.48684 0.0
C3089 C 0.83373 0.89831 0.47852 0.0
C3090 C 0.80907 0.88548 0.49363 0.0
C3091 C 0.75617 0.91421 0.49497 0.0
H3092 H 0.75756 0.89464 0.5269 0.0
C3093 C 0.68041 0.91915 0.52538 0.0
C3094 C 0.67613 0.90027 0.53189 0.0
C3095 C 0.7002 0.92156 0.51941 0.0
C3096 C 0.75682 0.90008 0.51799 0.0
H3097 H 0.82471 0.92928 0.47092 0.0
H3098 H 0.79205 0.93421 0.48289 0.0
H3099 H 0.7908 0.89424 0.51541 0.0
H3100 H 0.68974 0.86944 0.53749 0.0
H3101 H 0.72403 0.87366 0.52722 0.0
H3102 H 0.72203 0.91981 0.49757 0.0
C3103 C 0.80177 0.91968 0.48405 0.0
C3104 C 0.77592 0.89984 0.51137 0.0
C3105 C 0.82056 0.91691 0.47722 0.0
C3106 C 0.69241 0.88422 0.53258 0.0
C3107 C 0.71219 0.88669 0.52672 0.0
C3108 C 0.73701 0.91451 0.50162 0.0
C3109 C 0.79582 0.90399 0.49239 0.0
C3110 C 0.77581 0.90644 0.49969 0.0
C3111 C 0.71629 0.90525 0.51992 0.0
C3112 C 0.737 0.90702 0.51315 0.0
H3113 H 0.83731 0.86814 0.48813 0.0
H3114 H 0.80487 0.87283 0.49977 0.0
H3115 H 0.75538 0.91928 0.486 0.0
H3116 H 0.66823 0.93182 0.5246 0.0
H3117 H 0.70288 0.93615 0.51435 0.0
C3118 C 0.34073 0.58322 0.73569 0.0
C3119 C 0.35797 0.58619 0.72783 0.0
C3120 C 0.33928 0.56413 0.74234 0.0
C3121 C 0.37428 0.51837 0.75266 0.0
H3122 H 0.31953 0.49363 0.76282 0.0
C3123 C 0.37328 0.4479 0.78549 0.0
C3124 C 0.35796 0.43121 0.78388 0.0
C3125 C 0.37172 0.4674 0.77928 0.0
C3126 C 0.335 0.50017 0.75999 0.0
H3127 H 0.38645 0.57088 0.72031 0.0
H3128 H 0.38344 0.53744 0.73141 0.0
H3129 H 0.31949 0.52513 0.74999 0.0
H3130 H 0.32857 0.42225 0.77467 0.0
H3131 H 0.32616 0.45592 0.7636 0.0
H3132 H 0.38985 0.49302 0.76219 0.0
C3133 C 0.37145 0.55008 0.73285 0.0
C3134 C 0.33497 0.51849 0.75272 0.0
C3135 C 0.37306 0.56922 0.72636 0.0
C3136 C 0.34058 0.43482 0.77619 0.0
C3137 C 0.33918 0.45423 0.76985 0.0
C3138 C 0.37431 0.50001 0.75981 0.0
C3139 C 0.35491 0.54745 0.74119 0.0
C3140 C 0.35464 0.52784 0.74891 0.0
C3141 C 0.35499 0.47067 0.77112 0.0
C3142 C 0.35469 0.4906 0.76363 0.0
H3143 H 0.32893 0.59604 0.73711 0.0
H3144 H 0.32639 0.56289 0.7487 0.0
H3145 H 0.38981 0.52524 0.75016 0.0
H3146 H 0.38678 0.44576 0.79141 0.0
H3147 H 0.38388 0.47981 0.78079 0.0
C3148 C 0.81952 0.09425 0.03398 0.0
C3149 C 0.83459 0.11056 0.03104 0.0
C3150 C 0.80084 0.09086 0.02718 0.0
C3151 C 0.77716 0.10437 0.9981 0.0
H3152 H 0.72186 0.09356 0.01319 0.0
C3153 C 0.69432 0.12307 0.97673 0.0
C3154 C 0.67738 0.10789 0.97803 0.0
C3155 C 0.71404 0.12034 0.9826 0.0
C3156 C 0.73723 0.0963 0.00883 0.0
H3157 H 0.8418 0.13586 0.01847 0.0
H3158 H 0.80946 0.13042 0.00698 0.0
H3159 H 0.75522 0.0942 0.02469 0.0
H3160 H 0.66807 0.07775 0.98645 0.0
H3161 H 0.70251 0.07318 0.99684 0.0
H3162 H 0.75901 0.10733 0.98233 0.0
C3163 C 0.81208 0.11985 0.01435 0.0
C3164 C 0.7564 0.09661 0.01542 0.0
C3165 C 0.83066 0.12313 0.02106 0.0
C3166 C 0.68082 0.08968 0.98519 0.0
C3167 C 0.70047 0.08714 0.99122 0.0
C3168 C 0.758 0.1043 0.99156 0.0
C3169 C 0.79682 0.10372 0.01728 0.0
C3170 C 0.77662 0.10107 0.01018 0.0
C3171 C 0.71725 0.10254 0.99006 0.0
C3172 C 0.73776 0.10063 0.99687 0.0
H3173 H 0.82203 0.08423 0.04158 0.0
H3174 H 0.7896 0.07814 0.02966 0.0
H3175 H 0.79241 0.10728 0.99366 0.0
H3176 H 0.69222 0.13729 0.9713 0.0
H3177 H 0.72656 0.13259 0.98159 0.0
C3178 C 0.16977 0.57267 0.2754 0.0
C3179 C 0.15109 0.57726 0.28203 0.0
C3180 C 0.17172 0.55287 0.26941 0.0
C3181 C 0.14945 0.49671 0.26806 0.0
H3182 H 0.16718 0.49832 0.23582 0.0
C3183 C 0.12927 0.42691 0.23687 0.0
C3184 C 0.14439 0.42064 0.22833 0.0
C3185 C 0.13276 0.44532 0.24371 0.0
C3186 C 0.16254 0.49748 0.24486 0.0
H3187 H 0.12017 0.56421 0.28786 0.0
H3188 H 0.12363 0.52985 0.27754 0.0
H3189 H 0.16871 0.5315 0.2475 0.0
H3190 H 0.1752 0.42903 0.22035 0.0
H3191 H 0.18138 0.46137 0.2324 0.0
H3192 H 0.14302 0.46286 0.26545 0.0
C3193 C 0.13682 0.54148 0.27695 0.0
C3194 C 0.1634 0.51653 0.25157 0.0
C3195 C 0.13479 0.56128 0.28284 0.0
C3196 C 0.16321 0.43338 0.22683 0.0
C3197 C 0.16669 0.45197 0.2337 0.0
C3198 C 0.14865 0.47771 0.26139 0.0
C3199 C 0.15516 0.5371 0.27002 0.0
C3200 C 0.15642 0.51647 0.26319 0.0
C3201 C 0.15151 0.45812 0.24227 0.0
C3202 C 0.1547 0.47792 0.24962 0.0
H3203 H 0.18261 0.58462 0.27454 0.0
H3204 H 0.18615 0.54995 0.26424 0.0
H3205 H 0.14438 0.49594 0.27704 0.0
H3206 H 0.11457 0.4176 0.23832 0.0
H3207 H 0.12048 0.44971 0.25003 0.0
C3208 C 0.18215 0.08938 0.52363 0.0
C3209 C 0.17778 0.10835 0.53007 0.0
C3210 C 0.20201 0.08693 0.51771 0.0
C3211 C 0.25858 0.10822 0.51664 0.0
H3212 H 0.25789 0.09008 0.48446 0.0
C3213 C 0.32957 0.12759 0.48609 0.0
C3214 C 0.33608 0.11236 0.47765 0.0
C3215 C 0.31088 0.12427 0.49274 0.0
C3216 C 0.25846 0.09484 0.49349 0.0
H3217 H 0.19123 0.13932 0.53556 0.0
H3218 H 0.2256 0.13499 0.52541 0.0
H3219 H 0.22427 0.08906 0.49585 0.0
H3220 H 0.3278 0.08152 0.46968 0.0
H3221 H 0.29496 0.07565 0.4814 0.0
H3222 H 0.29257 0.11427 0.51433 0.0
C3223 C 0.2138 0.12194 0.52491 0.0
C3224 C 0.23916 0.09426 0.50002 0.0
C3225 C 0.19397 0.12447 0.53071 0.0
C3226 C 0.32329 0.0936 0.47609 0.0
C3227 C 0.30441 0.09029 0.48277 0.0
C3228 C 0.2778 0.10873 0.51015 0.0
C3229 C 0.21804 0.10327 0.51823 0.0
C3230 C 0.23889 0.10144 0.51161 0.0
C3231 C 0.29802 0.10558 0.49123 0.0
C3232 C 0.27794 0.10258 0.4984 0.0
H3233 H 0.17002 0.07668 0.5229 0.0
H3234 H 0.20479 0.07228 0.51271 0.0
H3235 H 0.25909 0.11343 0.5256 0.0
H3236 H 0.33891 0.14226 0.48759 0.0
H3237 H 0.30634 0.13664 0.49898 0.0
C3238 C 0.66511 0.4451 0.28215 0.0
C3239 C 0.64517 0.43386 0.28182 0.0
C3240 C 0.66843 0.46364 0.27521 0.0
C3241 C 0.64723 0.49019 0.24862 0.0
H3242 H 0.67208 0.54331 0.26094 0.0
C3243 C 0.63357 0.57304 0.22675 0.0
C3244 C 0.65037 0.58858 0.22667 0.0
C3245 C 0.63583 0.55353 0.23285 0.0
C3246 C 0.66544 0.52851 0.2573 0.0
H3247 H 0.61309 0.43359 0.27391 0.0
H3248 H 0.61883 0.4655 0.26205 0.0
H3249 H 0.67092 0.51054 0.27299 0.0
H3250 H 0.68297 0.59544 0.23283 0.0
H3251 H 0.68696 0.56117 0.24348 0.0
H3252 H 0.64141 0.50805 0.23302 0.0
C3253 C 0.63203 0.45999 0.26753 0.0
C3254 C 0.66476 0.50972 0.26422 0.0
C3255 C 0.62868 0.4417 0.27446 0.0
C3256 C 0.66973 0.58382 0.23267 0.0
C3257 C 0.67195 0.56426 0.23885 0.0
C3258 C 0.64793 0.50888 0.24172 0.0
C3259 C 0.65197 0.47114 0.26772 0.0
C3260 C 0.65514 0.49047 0.26005 0.0
C3261 C 0.65493 0.54892 0.23909 0.0
C3262 C 0.65655 0.52846 0.24605 0.0
H3263 H 0.67817 0.43953 0.2877 0.0
H3264 H 0.68401 0.47185 0.27555 0.0
H3265 H 0.64017 0.47552 0.24502 0.0
H3266 H 0.61842 0.57609 0.22225 0.0
H3267 H 0.62225 0.54231 0.23294 0.0
C3268 C 0.18026 0.9233 0.98167 0.0
C3269 C 0.17533 0.90435 0.97534 0.0
C3270 C 0.19983 0.92491 0.9879 0.0
C3271 C 0.25484 0.89985 0.9906 0.0
H3272 H 0.25256 0.92043 0.02234 0.0
C3273 C 0.32077 0.87713 0.02349 0.0
C3274 C 0.32849 0.893 0.03126 0.0
C3275 C 0.30276 0.88121 0.01646 0.0
C3276 C 0.25356 0.91493 0.01344 0.0
H3277 H 0.18756 0.87258 0.97031 0.0
H3278 H 0.22134 0.87538 0.98106 0.0
H3279 H 0.22021 0.92313 0.01007 0.0
H3280 H 0.32295 0.92565 0.03777 0.0
H3281 H 0.29117 0.93274 0.02545 0.0
H3282 H 0.28795 0.89118 0.994 0.0
C3283 C 0.21026 0.88909 0.98121 0.0
C3284 C 0.23502 0.91651 0.00639 0.0
C3285 C 0.19075 0.88743 0.97507 0.0
C3286 C 0.31744 0.91305 0.0319 0.0
C3287 C 0.29921 0.91709 0.02487 0.0
C3288 C 0.27329 0.89824 0.99763 0.0
C3289 C 0.21499 0.90771 0.98784 0.0
C3290 C 0.23528 0.90851 0.99495 0.0
C3291 C 0.29181 0.90127 0.01696 0.0
C3292 C 0.27277 0.90528 0.00922 0.0
H3293 H 0.16872 0.9366 0.98212 0.0
H3294 H 0.20302 0.93957 0.99282 0.0
H3295 H 0.25583 0.89398 0.98176 0.0
H3296 H 0.32875 0.86148 0.02273 0.0
H3297 H 0.2973 0.86849 0.01066 0.0
C3298 C 0.87185 0.43608 0.72541 0.0
C3299 C 0.85761 0.41858 0.72745 0.0
C3300 C 0.8696 0.45564 0.73153 0.0
C3301 C 0.852 0.47695 0.7593 0.0
H3302 H 0.85158 0.53338 0.74425 0.0
C3303 C 0.87127 0.55904 0.78231 0.0
C3304 C 0.85671 0.5763 0.78029 0.0
C3305 C 0.86927 0.5394 0.77623 0.0
C3306 C 0.85157 0.51773 0.74857 0.0
H3307 H 0.82973 0.40801 0.7375 0.0
H3308 H 0.82618 0.44204 0.74842 0.0
H3309 H 0.85194 0.50013 0.73249 0.0
H3310 H 0.8285 0.58633 0.77035 0.0
H3311 H 0.82539 0.55218 0.75954 0.0
H3312 H 0.85243 0.49456 0.77538 0.0
C3313 C 0.83891 0.44063 0.74196 0.0
C3314 C 0.85189 0.49874 0.74184 0.0
C3315 C 0.84085 0.42122 0.73564 0.0
C3316 C 0.83988 0.57332 0.77219 0.0
C3317 C 0.83818 0.55384 0.76593 0.0
C3318 C 0.85216 0.49595 0.76603 0.0
C3319 C 0.85336 0.45798 0.74003 0.0
C3320 C 0.85213 0.47815 0.74714 0.0
C3321 C 0.85296 0.53674 0.76782 0.0
C3322 C 0.85197 0.51654 0.76073 0.0
H3323 H 0.88497 0.43455 0.71918 0.0
H3324 H 0.88104 0.46869 0.72991 0.0
H3325 H 0.85235 0.4613 0.76361 0.0
H3326 H 0.88444 0.56083 0.78847 0.0
H3327 H 0.88095 0.52654 0.77783 0.0
C3328 C 0.09552 0.3916 0.08887 0.0
C3329 C 0.11115 0.3826 0.08134 0.0
C3330 C 0.09857 0.39155 0.10081 0.0
C3331 C 0.13989 0.38168 0.12402 0.0
H3332 H 0.0881 0.37637 0.14307 0.0
C3333 C 0.13836 0.35279 0.1716 0.0
C3334 C 0.12689 0.36551 0.17974 0.0
C3335 C 0.13776 0.35771 0.15982 0.0
C3336 C 0.10266 0.37821 0.13787 0.0
H3337 H 0.14225 0.36602 0.08066 0.0
H3338 H 0.14712 0.36479 0.10169 0.0
H3339 H 0.08462 0.37769 0.12212 0.0
H3340 H 0.10552 0.39337 0.1817 0.0
H3341 H 0.10373 0.40142 0.16084 0.0
H3342 H 0.15785 0.38068 0.13996 0.0
C3343 C 0.13279 0.37274 0.09826 0.0
C3344 C 0.10074 0.37902 0.12581 0.0
C3345 C 0.12996 0.37328 0.08617 0.0
C3346 C 0.1147 0.38336 0.17571 0.0
C3347 C 0.11365 0.38795 0.1638 0.0
C3348 C 0.1418 0.38039 0.13609 0.0
C3349 C 0.11703 0.38181 0.10576 0.0
C3350 C 0.11932 0.38083 0.11867 0.0
C3351 C 0.12521 0.37512 0.15577 0.0
C3352 C 0.12319 0.37864 0.14311 0.0
H3353 H 0.08064 0.3987 0.08559 0.0
H3354 H 0.08628 0.39924 0.10615 0.0
H3355 H 0.15456 0.38342 0.11891 0.0
H3356 H 0.14756 0.33865 0.17424 0.0
H3357 H 0.14651 0.34735 0.15381 0.0
C3358 C 0.90286 0.89884 0.42234 0.0
C3359 C 0.8907 0.88543 0.4298 0.0
C3360 C 0.89957 0.89848 0.41041 0.0
C3361 C 0.86289 0.87824 0.38698 0.0
H3362 H 0.91516 0.88511 0.36843 0.0
C3363 C 0.87037 0.85133 0.33927 0.0
C3364 C 0.88021 0.86561 0.33127 0.0
C3365 C 0.86997 0.85609 0.35107 0.0
C3366 C 0.90037 0.8835 0.37347 0.0
H3367 H 0.86512 0.86121 0.4304 0.0
H3368 H 0.85996 0.85978 0.40936 0.0
H3369 H 0.91738 0.88778 0.38939 0.0
H3370 H 0.89764 0.89611 0.32962 0.0
H3371 H 0.89753 0.90412 0.35049 0.0
H3372 H 0.84623 0.87279 0.37091 0.0
C3373 C 0.87171 0.87113 0.41286 0.0
C3374 C 0.90157 0.88507 0.38554 0.0
C3375 C 0.87469 0.87187 0.42494 0.0
C3376 C 0.8898 0.88483 0.33549 0.0
C3377 C 0.88977 0.88939 0.34742 0.0
C3378 C 0.86178 0.87633 0.3749 0.0
C3379 C 0.88444 0.88419 0.40541 0.0
C3380 C 0.88286 0.8825 0.3925 0.0
C3381 C 0.87979 0.87504 0.35532 0.0
C3382 C 0.88053 0.8789 0.36802 0.0
H3383 H 0.91541 0.90943 0.42564 0.0
H3384 H 0.90925 0.9093 0.4051 0.0
H3385 H 0.84808 0.87646 0.39198 0.0
H3386 H 0.86314 0.83617 0.33648 0.0
H3387 H 0.86253 0.84452 0.35695 0.0
C3388 C 0.38061 0.62382 0.67285 0.0
C3389 C 0.39165 0.6415 0.67783 0.0
C3390 C 0.38068 0.6209 0.66078 0.0
C3391 C 0.41091 0.63415 0.63434 0.0
H3392 H 0.35539 0.63364 0.61839 0.0
C3393 C 0.40775 0.6496 0.58562 0.0
C3394 C 0.39316 0.63755 0.57884 0.0
C3395 C 0.40613 0.64952 0.59767 0.0
C3396 C 0.37104 0.63343 0.62268 0.0
H3397 H 0.4119 0.66954 0.67427 0.0
H3398 H 0.41285 0.66391 0.65334 0.0
H3399 H 0.35641 0.63222 0.63959 0.0
H3400 H 0.36514 0.61631 0.57926 0.0
H3401 H 0.36249 0.61567 0.60046 0.0
H3402 H 0.42573 0.63501 0.61763 0.0
C3403 C 0.40397 0.65244 0.65868 0.0
C3404 C 0.3716 0.6326 0.63483 0.0
C3405 C 0.40347 0.65563 0.67064 0.0
C3406 C 0.37631 0.62608 0.58432 0.0
C3407 C 0.3749 0.62565 0.59646 0.0
C3408 C 0.41039 0.63466 0.62225 0.0
C3409 C 0.39223 0.63533 0.65359 0.0
C3410 C 0.39154 0.63341 0.64077 0.0
C3411 C 0.39023 0.63689 0.60331 0.0
C3412 C 0.39046 0.63487 0.61623 0.0
H3413 H 0.37104 0.61298 0.67822 0.0
H3414 H 0.37152 0.60757 0.65706 0.0
H3415 H 0.42651 0.63454 0.6387 0.0
H3416 H 0.42092 0.65854 0.58158 0.0
H3417 H 0.41779 0.65898 0.60258 0.0
C3418 C 0.60326 0.15316 0.83782 0.0
C3419 C 0.6169 0.14084 0.8306 0.0
C3420 C 0.60278 0.14934 0.84974 0.0
C3421 C 0.63676 0.1339 0.87356 0.0
H3422 H 0.58282 0.12521 0.89033 0.0
C3423 C 0.63309 0.12687 0.92402 0.0
C3424 C 0.61428 0.13492 0.92944 0.0
C3425 C 0.6344 0.12606 0.91187 0.0
C3426 C 0.59804 0.12799 0.88584 0.0
H3427 H 0.6409 0.11507 0.83005 0.0
H3428 H 0.64051 0.10872 0.85112 0.0
H3429 H 0.58255 0.12569 0.86925 0.0
H3430 H 0.58273 0.14963 0.92654 0.0
H3431 H 0.58541 0.14944 0.90559 0.0
H3432 H 0.65215 0.13738 0.89011 0.0
C3433 C 0.62985 0.12096 0.84747 0.0
C3434 C 0.59785 0.12799 0.87375 0.0
C3435 C 0.62989 0.1244 0.83546 0.0
C3436 C 0.59734 0.14312 0.92257 0.0
C3437 C 0.59879 0.14273 0.91052 0.0
C3438 C 0.63691 0.1343 0.88571 0.0
C3439 C 0.61641 0.13356 0.85471 0.0
C3440 C 0.61714 0.13121 0.86749 0.0
C3441 C 0.61703 0.1336 0.90496 0.0
C3442 C 0.61745 0.13175 0.89203 0.0
H3443 H 0.59339 0.16616 0.83426 0.0
H3444 H 0.59242 0.15938 0.85515 0.0
H3445 H 0.65183 0.13661 0.86891 0.0
H3446 H 0.64629 0.12026 0.92915 0.0
H3447 H 0.64867 0.11884 0.90794 0.0
C3448 C 0.12695 0.62455 0.3354 0.0
C3449 C 0.13187 0.64437 0.32991 0.0
C3450 C 0.12779 0.62283 0.34753 0.0
C3451 C 0.12632 0.65696 0.3741 0.0
H3452 H 0.15095 0.60623 0.38911 0.0
C3453 C 0.13592 0.65351 0.42381 0.0
C3454 C 0.12799 0.63436 0.42891 0.0
C3455 C 0.1394 0.6545 0.4118 0.0
C3456 C 0.14395 0.62049 0.38505 0.0
H3457 H 0.14156 0.67793 0.33301 0.0
H3458 H 0.14322 0.6748 0.35383 0.0
H3459 H 0.1495 0.60787 0.36796 0.0
H3460 H 0.11951 0.60077 0.42562 0.0
H3461 H 0.12534 0.6024 0.40487 0.0
H3462 H 0.12053 0.66951 0.39112 0.0
C3463 C 0.13843 0.66064 0.34887 0.0
C3464 C 0.14302 0.62137 0.37293 0.0
C3465 C 0.1376 0.66235 0.33684 0.0
C3466 C 0.12514 0.61586 0.42193 0.0
C3467 C 0.12876 0.61675 0.41001 0.0
C3468 C 0.12726 0.65609 0.38619 0.0
C3469 C 0.13347 0.64093 0.3544 0.0
C3470 C 0.13415 0.63961 0.3673 0.0
C3471 C 0.13526 0.63626 0.40472 0.0
C3472 C 0.136 0.63782 0.39183 0.0
H3473 H 0.12245 0.61039 0.33035 0.0
H3474 H 0.12369 0.60744 0.35154 0.0
H3475 H 0.11905 0.67113 0.37007 0.0
H3476 H 0.13827 0.66803 0.42896 0.0
H3477 H 0.14475 0.6697 0.40801 0.0
C3478 C 0.6469 0.87058 0.67269 0.0
C3479 C 0.62853 0.87477 0.6796 0.0
C3480 C 0.64591 0.87242 0.66065 0.0
C3481 C 0.60717 0.86606 0.63719 0.0
H3482 H 0.65175 0.89197 0.6178 0.0
C3483 C 0.59562 0.87395 0.58816 0.0
C3484 C 0.61353 0.87186 0.58061 0.0
C3485 C 0.59844 0.87443 0.60011 0.0
C3486 C 0.63934 0.88434 0.62308 0.0
H3487 H 0.59493 0.88537 0.67927 0.0
H3488 H 0.59296 0.88813 0.65811 0.0
H3489 H 0.65448 0.8947 0.63891 0.0
H3490 H 0.64857 0.86811 0.57991 0.0
H3491 H 0.65351 0.86836 0.60102 0.0
H3492 H 0.59231 0.85506 0.62154 0.0
C3493 C 0.6082 0.88341 0.66209 0.0
C3494 C 0.64082 0.88609 0.63517 0.0
C3495 C 0.60935 0.88196 0.67421 0.0
C3496 C 0.63442 0.86975 0.58545 0.0
C3497 C 0.63725 0.87009 0.59754 0.0
C3498 C 0.60583 0.86407 0.62515 0.0
C3499 C 0.62637 0.87818 0.65518 0.0
C3500 C 0.62462 0.87713 0.64234 0.0
C3501 C 0.61924 0.87251 0.60503 0.0
C3502 C 0.62174 0.8734 0.6179 0.0
H3503 H 0.662 0.86539 0.67655 0.0
H3504 H 0.66018 0.86829 0.65558 0.0
H3505 H 0.59473 0.85851 0.64249 0.0
H3506 H 0.57922 0.8756 0.58486 0.0
H3507 H 0.58419 0.87677 0.6055 0.0
C3508 C 0.38064 0.38426 0.83747 0.0
C3509 C 0.37907 0.36385 0.832 0.0
C3510 C 0.37999 0.38583 0.84961 0.0
C3511 C 0.38915 0.35323 0.87611 0.0
H3512 H 0.35287 0.39624 0.89132 0.0
C3513 C 0.37861 0.35216 0.92566 0.0
C3514 C 0.38026 0.37241 0.93119 0.0
C3515 C 0.37583 0.35103 0.91362 0.0
C3516 C 0.36322 0.38422 0.88722 0.0
H3517 H 0.37586 0.3291 0.83512 0.0
H3518 H 0.37485 0.33192 0.85603 0.0
H3519 H 0.35495 0.39543 0.87017 0.0
H3520 H 0.37873 0.40723 0.9287 0.0
H3521 H 0.37432 0.40543 0.90777 0.0
H3522 H 0.39778 0.34219 0.89305 0.0
C3523 C 0.37665 0.3467 0.85101 0.0
C3524 C 0.36445 0.38382 0.8751 0.0
C3525 C 0.37712 0.34514 0.83896 0.0
C3526 C 0.37774 0.39143 0.92461 0.0
C3527 C 0.37501 0.39035 0.91261 0.0
C3528 C 0.38803 0.3537 0.8882 0.0
C3529 C 0.37803 0.36702 0.85651 0.0
C3530 C 0.37737 0.36825 0.8694 0.0
C3531 C 0.37475 0.37015 0.90688 0.0
C3532 C 0.375 0.36914 0.89395 0.0
H3533 H 0.38212 0.39899 0.83238 0.0
H3534 H 0.38123 0.40173 0.85361 0.0
H3535 H 0.39951 0.34122 0.872 0.0
H3536 H 0.38074 0.33725 0.93052 0.0
H3537 H 0.37526 0.33516 0.90954 0.0
C3538 C 0.87825 0.12122 0.17309 0.0
C3539 C 0.88087 0.14163 0.17843 0.0
C3540 C 0.8783 0.11945 0.16095 0.0
C3541 C 0.89773 0.14733 0.13471 0.0
H3542 H 0.85046 0.11862 0.1186 0.0
C3543 C 0.88989 0.15608 0.0855 0.0
C3544 C 0.88429 0.13744 0.07919 0.0
C3545 C 0.88731 0.15656 0.09754 0.0
C3546 C 0.86393 0.1265 0.12294 0.0
H3547 H 0.88621 0.17603 0.17519 0.0
H3548 H 0.88672 0.17283 0.15424 0.0
H3549 H 0.85181 0.11783 0.13979 0.0
H3550 H 0.87105 0.10493 0.08031 0.0
H3551 H 0.86694 0.10543 0.10137 0.0
H3552 H 0.91021 0.15571 0.11805 0.0
C3553 C 0.88446 0.15823 0.15936 0.0
C3554 C 0.86469 0.12599 0.13509 0.0
C3555 C 0.88406 0.16005 0.17139 0.0
C3556 C 0.87513 0.11963 0.08502 0.0
C3557 C 0.87282 0.11995 0.09709 0.0
C3558 C 0.89711 0.14765 0.12262 0.0
C3559 C 0.88144 0.13799 0.15397 0.0
C3560 C 0.88146 0.13667 0.1411 0.0
C3561 C 0.87957 0.13817 0.10357 0.0
C3562 C 0.88004 0.13753 0.11653 0.0
H3563 H 0.87565 0.10677 0.17828 0.0
H3564 H 0.87603 0.10362 0.15701 0.0
H3565 H 0.91102 0.15546 0.1391 0.0
H3566 H 0.89734 0.16985 0.08119 0.0
H3567 H 0.89216 0.17111 0.10216 0.0
C3568 C 0.86344 0.65509 0.83637 0.0
C3569 C 0.87431 0.64016 0.8291 0.0
C3570 C 0.86376 0.65267 0.84839 0.0
C3571 C 0.89774 0.63314 0.87153 0.0
H3572 H 0.84591 0.63498 0.89072 0.0
C3573 C 0.90446 0.62019 0.92037 0.0
C3574 C 0.89065 0.6315 0.92802 0.0
C3575 C 0.90083 0.62033 0.90848 0.0
C3576 C 0.86057 0.63478 0.88553 0.0
H3577 H 0.8942 0.61099 0.82895 0.0
H3578 H 0.89537 0.60724 0.85009 0.0
H3579 H 0.84255 0.6363 0.8696 0.0
H3580 H 0.86202 0.65202 0.92897 0.0
H3581 H 0.85619 0.65321 0.90796 0.0
H3582 H 0.91598 0.63281 0.88721 0.0
C3583 C 0.88625 0.62057 0.84633 0.0
C3584 C 0.85861 0.63533 0.87342 0.0
C3585 C 0.88553 0.6227 0.83424 0.0
C3586 C 0.87289 0.64298 0.92336 0.0
C3587 C 0.86952 0.64356 0.9113 0.0
C3588 C 0.89975 0.63303 0.88358 0.0
C3589 C 0.87538 0.63558 0.85351 0.0
C3590 C 0.87719 0.63431 0.86632 0.0
C3591 C 0.88367 0.63241 0.90368 0.0
C3592 C 0.8812 0.63355 0.89079 0.0
H3593 H 0.8549 0.66896 0.83281 0.0
H3594 H 0.85551 0.66464 0.85372 0.0
H3595 H 0.91235 0.63284 0.86626 0.0
H3596 H 0.91845 0.61131 0.9235 0.0
H3597 H 0.91173 0.61095 0.90305 0.0
C3598 C 0.11014 0.15379 0.58686 0.0
C3599 C 0.1229 0.14058 0.57962 0.0
C3600 C 0.11355 0.15392 0.59881 0.0
C3601 C 0.12904 0.11959 0.62255 0.0
H3602 H 0.1359 0.17336 0.63971 0.0
C3603 C 0.13473 0.12238 0.6731 0.0
C3604 C 0.12613 0.14089 0.67858 0.0
C3605 C 0.13581 0.12132 0.66095 0.0
C3606 C 0.13363 0.15817 0.63511 0.0
H3607 H 0.14904 0.117 0.57909 0.0
H3608 H 0.15469 0.11678 0.60023 0.0
H3609 H 0.13601 0.17408 0.61863 0.0
H3610 H 0.11073 0.17214 0.67575 0.0
H3611 H 0.1114 0.16984 0.65478 0.0
H3612 H 0.12551 0.10375 0.63898 0.0
C3613 C 0.14239 0.12736 0.59656 0.0
C3614 C 0.13396 0.15862 0.62301 0.0
C3615 C 0.13935 0.12766 0.58451 0.0
C3616 C 0.11766 0.15775 0.67174 0.0
C3617 C 0.11832 0.15653 0.65969 0.0
C3618 C 0.12831 0.11916 0.6347 0.0
C3619 C 0.12937 0.14038 0.60381 0.0
C3620 C 0.1314 0.1394 0.61661 0.0
C3621 C 0.12801 0.13863 0.65408 0.0
C3622 C 0.1302 0.13853 0.64115 0.0
H3623 H 0.09715 0.16363 0.58327 0.0
H3624 H 0.10318 0.16398 0.60422 0.0
H3625 H 0.12684 0.10456 0.61779 0.0
H3626 H 0.14158 0.10926 0.6782 0.0
H3627 H 0.14347 0.1073 0.65699 0.0
C3628 C 0.63975 0.38878 0.42305 0.0
C3629 C 0.63004 0.3711 0.42874 0.0
C3630 C 0.64133 0.38907 0.41094 0.0
C3631 C 0.61355 0.36446 0.3856 0.0
H3632 H 0.6593 0.39207 0.36773 0.0
C3633 C 0.62279 0.35206 0.3367 0.0
C3634 C 0.62671 0.37023 0.32959 0.0
C3635 C 0.62309 0.35393 0.34872 0.0
C3636 C 0.64628 0.38457 0.37264 0.0
H3637 H 0.61535 0.33947 0.42644 0.0
H3638 H 0.61923 0.33923 0.40539 0.0
H3639 H 0.66222 0.39032 0.38888 0.0
H3640 H 0.63392 0.40471 0.32958 0.0
H3641 H 0.6348 0.40796 0.35088 0.0
H3642 H 0.59789 0.35825 0.36938 0.0
C3643 C 0.62509 0.35323 0.41016 0.0
C3644 C 0.64796 0.3835 0.38475 0.0
C3645 C 0.62325 0.3531 0.42223 0.0
C3646 C 0.63071 0.39048 0.33484 0.0
C3647 C 0.63138 0.39229 0.34699 0.0
C3648 C 0.61199 0.36537 0.37354 0.0
C3649 C 0.63326 0.37161 0.4043 0.0
C3650 C 0.63173 0.37313 0.39139 0.0
C3651 C 0.62758 0.37396 0.35404 0.0
C3652 C 0.62843 0.37518 0.3669 0.0
H3653 H 0.64468 0.40303 0.42791 0.0
H3654 H 0.64761 0.40355 0.40678 0.0
H3655 H 0.60035 0.357 0.39037 0.0
H3656 H 0.61956 0.33622 0.33295 0.0
H3657 H 0.62028 0.33948 0.35389 0.0
C3658 C 0.37113 0.86659 0.08386 0.0
C3659 C 0.38833 0.87866 0.07902 0.0
C3660 C 0.36798 0.86617 0.09591 0.0
C3661 C 0.3796 0.89602 0.12289 0.0
H3662 H 0.3777 0.83956 0.13774 0.0
C3663 C 0.38828 0.88599 0.17281 0.0
C3664 C 0.37714 0.86867 0.17812 0.0
C3665 C 0.38848 0.88807 0.16069 0.0
C3666 C 0.37775 0.85553 0.13379 0.0
H3667 H 0.41555 0.89986 0.08318 0.0
H3668 H 0.40951 0.89966 0.10394 0.0
H3669 H 0.37843 0.84183 0.11671 0.0
H3670 H 0.35727 0.84013 0.1747 0.0
H3671 H 0.35655 0.84448 0.15397 0.0
H3672 H 0.37858 0.90984 0.13991 0.0
C3673 C 0.3985 0.89054 0.09845 0.0
C3674 C 0.37823 0.85676 0.1217 0.0
C3675 C 0.40193 0.89062 0.0865 0.0
C3676 C 0.36594 0.8538 0.17102 0.0
C3677 C 0.3658 0.85611 0.15901 0.0
C3678 C 0.37876 0.89482 0.135 0.0
C3679 C 0.38168 0.87815 0.10331 0.0
C3680 C 0.37935 0.877 0.11612 0.0
C3681 C 0.37733 0.87304 0.1536 0.0
C3682 C 0.37796 0.87454 0.14066 0.0
H3683 H 0.36044 0.85708 0.07839 0.0
H3684 H 0.35487 0.85646 0.09945 0.0
H3685 H 0.38039 0.91186 0.1188 0.0
H3686 H 0.39724 0.89764 0.17798 0.0
H3687 H 0.39782 0.90118 0.15689 0.0
C3688 C 0.87342 0.34654 0.66926 0.0
C3689 C 0.88235 0.36104 0.67744 0.0
C3690 C 0.87415 0.35112 0.65744 0.0
C3691 C 0.9066 0.37608 0.63558 0.0
H3692 H 0.8546 0.37586 0.61654 0.0
C3693 C 0.91256 0.39269 0.58682 0.0
C3694 C 0.89819 0.38231 0.57911 0.0
C3695 C 0.90939 0.39168 0.59875 0.0
C3696 C 0.86934 0.37565 0.62167 0.0
H3697 H 0.89966 0.39156 0.67943 0.0
H3698 H 0.90176 0.39909 0.65853 0.0
H3699 H 0.8515 0.37177 0.63754 0.0
H3700 H 0.86924 0.36231 0.57808 0.0
H3701 H 0.8643 0.35945 0.59906 0.0
H3702 H 0.92471 0.37849 0.61989 0.0
C3703 C 0.89366 0.38445 0.66147 0.0
C3704 C 0.8675 0.37356 0.63371 0.0
C3705 C 0.89244 0.38014 0.6734 0.0
C3706 C 0.88051 0.37069 0.58374 0.0
C3707 C 0.87763 0.36919 0.5958 0.0
C3708 C 0.90851 0.37767 0.62355 0.0
C3709 C 0.88436 0.37001 0.65341 0.0
C3710 C 0.88612 0.37381 0.64077 0.0
C3711 C 0.89216 0.37959 0.60349 0.0
C3712 C 0.88991 0.3776 0.61637 0.0
H3713 H 0.86594 0.33142 0.67192 0.0
H3714 H 0.86721 0.33955 0.65139 0.0
H3715 H 0.92122 0.37587 0.64082 0.0
H3716 H 0.92655 0.40158 0.5837 0.0
H3717 H 0.92064 0.40046 0.60424 0.0
C3718 C 0.36947 0.1563 0.33908 0.0
C3719 C 0.38007 0.1425 0.33111 0.0
C3720 C 0.36949 0.15171 0.3509 0.0
C3721 C 0.40232 0.12748 0.37318 0.0
H3722 H 0.35018 0.13081 0.3921 0.0
C3723 C 0.40755 0.11457 0.42217 0.0
C3724 C 0.39422 0.12691 0.42961 0.0
C3725 C 0.40404 0.11428 0.41027 0.0
C3726 C 0.36494 0.1301 0.38699 0.0
H3727 H 0.39927 0.11304 0.32948 0.0
H3728 H 0.39996 0.10541 0.35039 0.0
H3729 H 0.34738 0.13339 0.37101 0.0
H3730 H 0.3665 0.14868 0.4302 0.0
H3731 H 0.36093 0.1491 0.40918 0.0
H3732 H 0.42014 0.12549 0.38897 0.0
C3733 C 0.39123 0.11957 0.34729 0.0
C3734 C 0.36329 0.13136 0.3749 0.0
C3735 C 0.3908 0.12391 0.33534 0.0
C3736 C 0.37699 0.13886 0.42475 0.0
C3737 C 0.37376 0.139 0.41268 0.0
C3738 C 0.40403 0.12661 0.38524 0.0
C3739 C 0.38055 0.13348 0.35517 0.0
C3740 C 0.38198 0.1301 0.36788 0.0
C3741 C 0.3875 0.12691 0.40526 0.0
C3742 C 0.38537 0.12787 0.39235 0.0
H3743 H 0.36137 0.171 0.33627 0.0
H3744 H 0.36148 0.16293 0.35676 0.0
H3745 H 0.41702 0.12695 0.368 0.0
H3746 H 0.42111 0.10526 0.42547 0.0
H3747 H 0.4146 0.10423 0.40499 0.0
C3748 C 0.63696 0.66192 0.1691 0.0
C3749 C 0.62761 0.6473 0.17709 0.0
C3750 C 0.63662 0.65764 0.15724 0.0
C3751 C 0.60462 0.63321 0.13497 0.0
H3752 H 0.65698 0.6348 0.11617 0.0
C3753 C 0.59977 0.61818 0.08606 0.0
C3754 C 0.614 0.62914 0.0785 0.0
C3755 C 0.60279 0.61878 0.098 0.0
C3756 C 0.64214 0.63462 0.12123 0.0
H3757 H 0.61002 0.61686 0.17868 0.0
H3758 H 0.60863 0.60985 0.15772 0.0
H3759 H 0.65962 0.63812 0.13723 0.0
H3760 H 0.6426 0.6497 0.07776 0.0
H3761 H 0.64728 0.65179 0.09879 0.0
H3762 H 0.58686 0.63115 0.11917 0.0
C3763 C 0.61674 0.62435 0.16084 0.0
C3764 C 0.64372 0.63628 0.13331 0.0
C3765 C 0.61755 0.62837 0.17282 0.0
C3766 C 0.63144 0.64088 0.0833 0.0
C3767 C 0.63417 0.64195 0.09539 0.0
C3768 C 0.60297 0.63204 0.12291 0.0
C3769 C 0.6264 0.63894 0.15297 0.0
C3770 C 0.62496 0.63554 0.14028 0.0
C3771 C 0.61972 0.63102 0.10292 0.0
C3772 C 0.62171 0.63261 0.11583 0.0
H3773 H 0.64444 0.67692 0.17194 0.0
H3774 H 0.64383 0.66933 0.15135 0.0
H3775 H 0.58989 0.63306 0.14013 0.0
H3776 H 0.58597 0.60917 0.08282 0.0
H3777 H 0.59165 0.60959 0.10337 0.0
C3778 C 0.10178 0.85631 0.83431 0.0
C3779 C 0.11715 0.86698 0.82738 0.0
C3780 C 0.10226 0.85853 0.84634 0.0
C3781 C 0.12662 0.88932 0.87098 0.0
H3782 H 0.11461 0.83546 0.88728 0.0
C3783 C 0.13522 0.87935 0.92117 0.0
C3784 C 0.11627 0.87109 0.92637 0.0
C3785 C 0.13772 0.87867 0.90907 0.0
C3786 C 0.11803 0.85062 0.88286 0.0
H3787 H 0.14485 0.88864 0.82744 0.0
H3788 H 0.14596 0.89244 0.84859 0.0
H3789 H 0.11321 0.83621 0.86623 0.0
H3790 H 0.08552 0.85499 0.92312 0.0
H3791 H 0.09017 0.85315 0.9022 0.0
H3792 H 0.13155 0.90357 0.88778 0.0
C3793 C 0.13316 0.88275 0.84474 0.0
C3794 C 0.11703 0.85114 0.87078 0.0
C3795 C 0.13246 0.88074 0.83263 0.0
C3796 C 0.10037 0.86134 0.91935 0.0
C3797 C 0.10303 0.86029 0.90736 0.0
C3798 C 0.1278 0.88874 0.88312 0.0
C3799 C 0.11851 0.87104 0.85177 0.0
C3800 C 0.1208 0.8706 0.86466 0.0
C3801 C 0.12151 0.86929 0.90205 0.0
C3802 C 0.12307 0.86947 0.88919 0.0
H3803 H 0.09001 0.84538 0.83043 0.0
H3804 H 0.09033 0.84974 0.85142 0.0
H3805 H 0.12961 0.90459 0.86658 0.0
H3806 H 0.14755 0.88724 0.92639 0.0
H3807 H 0.15216 0.88567 0.9052 0.0
loop_
_geom_bond_atom_site_label_1
_geom_bond_atom_site_label_2
_geom_bond_distance
_geom_bond_site_symmetry_2
_ccdc_geom_bond_type
Co0 O2 2.143 . S
Co0 O8 2.074 . S
Co0 O11 2.093 . S
Co0 O24 2.097 . S
Co0 N41 2.151 . S
Co0 N49 2.214 . S
Co1 O2 2.160 . S
Co1 O7 2.058 . S
Co1 O17 2.057 . S
Co1 O32 2.037 . S
Co1 N36 2.145 . S
Co1 N57 2.257 . S
O2 Co0 2.143 . S
O2 Co1 2.160 . S
C3 O4 1.278 . S
C3 O11 1.224 . S
O4 C3 1.278 . S
C5 O6 1.245 . S
C5 O17 1.232 . S
O6 C5 1.245 . S
O7 Co1 2.058 . S
O7 C33 1.269 . S
O8 Co0 2.074 . S
O8 C33 1.257 . S
H9 C34 0.930 . S
H10 C40 0.930 . S
O11 Co0 2.093 . S
O11 C3 1.224 . S
H12 C44 0.929 . S
H13 C46 0.930 . S
H14 C47 0.930 . S
H15 C45 0.929 . S
H16 C48 0.928 . S
O17 Co1 2.057 . S
O17 C5 1.232 . S
H18 C37 0.929 . S
H19 C38 0.929 . S
H20 C50 0.931 . S
H21 C42 0.929 . S
H22 C51 0.929 1_655 S
H23 C43 0.931 . S
O24 Co0 2.097 . S
O24 C52 1.214 . S
H25 C53 0.929 1_556 S
H26 C54 0.929 . S
H27 C55 0.930 . S
H28 C56 1.025 . S
H29 C58 0.930 . S
H30 C35 0.930 . S
H31 C39 0.930 . S
O32 Co1 2.037 . S
O32 C52 1.234 . S
C33 O7 1.269 . S
C33 O8 1.257 . S
C34 H9 0.930 . S
C34 C37 1.388 . S
C34 C39 1.418 . S
C35 H30 0.930 . S
C35 C38 1.404 . S
C35 C39 1.353 . S
N36 Co1 2.145 . S
N36 C37 1.397 . S
N36 C38 1.334 . S
C37 H18 0.929 . S
C37 C34 1.388 . S
C37 N36 1.397 . S
C38 H19 0.929 . S
C38 C35 1.404 . S
C38 N36 1.334 . S
C39 H31 0.930 . S
C39 C34 1.418 . S
C39 C35 1.353 . S
C40 H10 0.930 . S
C40 N41 1.330 . S
C40 C42 1.446 . S
N41 Co0 2.151 . S
N41 C40 1.330 . S
N41 C45 1.418 . S
C42 H21 0.929 . S
C42 C40 1.446 . S
C42 C43 1.332 . S
C43 H23 0.931 . S
C43 C42 1.332 . S
C43 C44 1.267 . S
C44 H12 0.929 . S
C44 C43 1.267 . S
C44 C45 1.251 . S
C45 H15 0.929 . S
C45 N41 1.418 . S
C45 C44 1.251 . S
C46 H13 0.930 . S
C46 C48 1.406 . S
C46 C51 1.261 . S
C47 H14 0.930 . S
C47 N49 1.325 . S
C47 C50 1.357 . S
C48 H16 0.928 . S
C48 C46 1.406 . S
C48 N49 1.261 . S
N49 Co0 2.214 . S
N49 C47 1.325 . S
N49 C48 1.261 . S
C50 H20 0.931 . S
C50 C47 1.357 . S
C50 C51 1.312 . S
C51 H22 0.929 1_455 S
C51 C46 1.261 . S
C51 C50 1.312 . S
C52 O24 1.214 . S
C52 O32 1.234 . S
C53 H25 0.929 1_554 S
C53 C56 1.371 1_554 S
C53 C58 1.391 . S
C54 H26 0.929 . S
C54 C55 1.390 . S
C54 N57 1.391 . S
C55 H27 0.930 . S
C55 C54 1.390 . S
C55 C56 1.322 1_554 S
C56 H28 1.025 . S
C56 C53 1.371 1_556 S
C56 C55 1.322 1_556 S
N57 Co1 2.257 . S
N57 C54 1.391 . S
N57 C58 1.388 . S
C58 H29 0.930 . S
C58 C53 1.391 . S
C58 N57 1.388 . S
Co59 O61 2.143 . S
Co59 O67 2.074 . S
Co59 O70 2.093 . S
Co59 O83 2.097 . S
Co59 N100 2.151 . S
Co59 N108 2.214 . S
Co60 O61 2.160 . S
Co60 O66 2.058 . S
Co60 O76 2.057 . S
Co60 O91 2.037 . S
Co60 N95 2.145 . S
Co60 N116 2.257 . S
O61 Co59 2.143 . S
O61 Co60 2.160 . S
C62 O63 1.278 . S
C62 O70 1.224 . S
O63 C62 1.278 . S
C64 O65 1.245 . S
C64 O76 1.232 . S
O65 C64 1.245 . S
O66 Co60 2.058 . S
O66 C92 1.269 . S
O67 Co59 2.074 . S
O67 C92 1.257 . S
H68 C93 0.930 . S
H69 C99 0.930 . S
O70 Co59 2.093 . S
O70 C62 1.224 . S
H71 C103 0.929 . S
H72 C105 0.930 . S
H73 C106 0.930 . S
H74 C104 0.929 . S
H75 C107 0.928 . S
O76 Co60 2.057 . S
O76 C64 1.232 . S
H77 C96 0.929 . S
H78 C97 0.929 . S
H79 C109 0.931 . S
H80 C101 0.929 . S
H81 C110 0.930 . S
H82 C102 0.931 . S
O83 Co59 2.097 . S
O83 C111 1.214 . S
H84 C112 0.929 . S
H85 C113 0.929 . S
H86 C114 0.930 . S
H87 C115 0.929 . S
H88 C117 0.930 . S
H89 C94 0.930 . S
H90 C98 0.930 . S
O91 Co60 2.037 . S
O91 C111 1.234 . S
C92 O66 1.269 . S
C92 O67 1.257 . S
C93 H68 0.930 . S
C93 C96 1.388 . S
C93 C98 1.418 . S
C94 H89 0.930 . S
C94 C97 1.404 . S
C94 C98 1.353 . S
N95 Co60 2.145 . S
N95 C96 1.397 . S
N95 C97 1.334 . S
C96 H77 0.929 . S
C96 C93 1.388 . S
C96 N95 1.397 . S
C97 H78 0.929 . S
C97 C94 1.404 . S
C97 N95 1.334 . S
C98 H90 0.930 . S
C98 C93 1.418 . S
C98 C94 1.353 . S
C99 H69 0.930 . S
C99 N100 1.330 . S
C99 C101 1.446 . S
N100 Co59 2.151 . S
N100 C99 1.330 . S
N100 C104 1.418 . S
C101 H80 0.929 . S
C101 C99 1.446 . S
C101 C102 1.332 . S
C102 H82 0.931 . S
C102 C101 1.332 . S
C102 C103 1.267 . S
C103 H71 0.929 . S
C103 C102 1.267 . S
C103 C104 1.251 . S
C104 H74 0.929 . S
C104 N100 1.418 . S
C104 C103 1.251 . S
C105 H72 0.930 . S
C105 C107 1.406 . S
C105 C110 1.261 . S
C106 H73 0.930 . S
C106 N108 1.325 . S
C106 C109 1.357 . S
C107 H75 0.928 . S
C107 C105 1.406 . S
C107 N108 1.261 . S
N108 Co59 2.214 . S
N108 C106 1.325 . S
N108 C107 1.261 . S
C109 H79 0.931 . S
C109 C106 1.357 . S
C109 C110 1.312 . S
C110 H81 0.930 . S
C110 C105 1.261 . S
C110 C109 1.312 . S
C111 O83 1.214 . S
C111 O91 1.234 . S
C112 H84 0.929 . S
C112 C115 1.391 . S
C112 C117 1.391 . S
C113 H85 0.929 . S
C113 C114 1.390 . S
C113 N116 1.391 . S
C114 H86 0.930 . S
C114 C113 1.390 . S
C114 C115 1.392 . S
C115 H87 0.929 . S
C115 C112 1.391 . S
C115 C114 1.392 . S
N116 Co60 2.257 . S
N116 C113 1.391 . S
N116 C117 1.388 . S
C117 H88 0.930 . S
C117 C112 1.391 . S
C117 N116 1.388 . S
Co118 O120 2.143 . S
Co118 O126 2.074 . S
Co118 O129 2.093 . S
Co118 O142 2.097 . S
Co118 N159 2.151 . S
Co118 N167 2.214 . S
Co119 O120 2.160 . S
Co119 O125 2.058 . S
Co119 O135 2.057 . S
Co119 O150 2.037 . S
Co119 N154 2.145 . S
Co119 N175 2.257 . S
O120 Co118 2.143 . S
O120 Co119 2.160 . S
C121 O122 1.278 . S
C121 O129 1.224 . S
O122 C121 1.278 . S
C123 O124 1.245 . S
C123 O135 1.232 . S
O124 C123 1.245 . S
O125 Co119 2.058 . S
O125 C151 1.269 . S
O126 Co118 2.074 . S
O126 C151 1.257 . S
H127 C152 0.930 . S
H128 C158 0.930 . S
O129 Co118 2.093 . S
O129 C121 1.224 . S
H130 C162 0.929 . S
H131 C164 0.930 . S
H132 C165 0.930 . S
H133 C163 0.929 . S
H134 C166 0.928 . S
O135 Co119 2.057 . S
O135 C123 1.232 . S
H136 C155 0.929 . S
H137 C156 0.929 . S
H138 C168 0.931 . S
H139 C160 0.929 . S
H140 C169 0.930 . S
H141 C161 0.931 . S
O142 Co118 2.097 . S
O142 C170 1.214 . S
H143 C171 0.929 . S
H144 C172 0.929 . S
H145 C173 0.930 . S
H146 C174 0.929 . S
H147 C176 0.930 . S
H148 C153 0.930 . S
H149 C157 0.930 . S
O150 Co119 2.037 . S
O150 C170 1.234 . S
C151 O125 1.269 . S
C151 O126 1.257 . S
C152 H127 0.930 . S
C152 C155 1.388 . S
C152 C157 1.418 . S
C153 H148 0.930 . S
C153 C156 1.404 . S
C153 C157 1.353 . S
N154 Co119 2.145 . S
N154 C155 1.397 . S
N154 C156 1.334 . S
C155 H136 0.929 . S
C155 C152 1.388 . S
C155 N154 1.397 . S
C156 H137 0.929 . S
C156 C153 1.404 . S
C156 N154 1.334 . S
C157 H149 0.930 . S
C157 C152 1.418 . S
C157 C153 1.353 . S
C158 H128 0.930 . S
C158 N159 1.330 . S
C158 C160 1.446 . S
N159 Co118 2.151 . S
N159 C158 1.330 . S
N159 C163 1.418 . S
C160 H139 0.929 . S
C160 C158 1.446 . S
C160 C161 1.332 . S
C161 H141 0.931 . S
C161 C160 1.332 . S
C161 C162 1.267 . S
C162 H130 0.929 . S
C162 C161 1.267 . S
C162 C163 1.251 . S
C163 H133 0.929 . S
C163 N159 1.418 . S
C163 C162 1.251 . S
C164 H131 0.930 . S
C164 C166 1.406 . S
C164 C169 1.261 . S
C165 H132 0.930 . S
C165 N167 1.325 . S
C165 C168 1.357 . S
C166 H134 0.928 . S
C166 C164 1.406 . S
C166 N167 1.261 . S
N167 Co118 2.214 . S
N167 C165 1.325 . S
N167 C166 1.261 . S
C168 H138 0.931 . S
C168 C165 1.357 . S
C168 C169 1.312 . S
C169 H140 0.930 . S
C169 C164 1.261 . S
C169 C168 1.312 . S
C170 O142 1.214 . S
C170 O150 1.234 . S
C171 H143 0.929 . S
C171 C174 1.391 . S
C171 C176 1.391 . S
C172 H144 0.929 . S
C172 C173 1.390 . S
C172 N175 1.391 . S
C173 H145 0.930 . S
C173 C172 1.390 . S
C173 C174 1.392 . S
C174 H146 0.929 . S
C174 C171 1.391 . S
C174 C173 1.392 . S
N175 Co119 2.257 . S
N175 C172 1.391 . S
N175 C176 1.388 . S
C176 H147 0.930 . S
C176 C171 1.391 . S
C176 N175 1.388 . S
Co177 O179 2.143 . S
Co177 O185 2.074 . S
Co177 O188 2.093 . S
Co177 O201 2.097 . S
Co177 N218 2.151 . S
Co177 N226 2.214 . S
Co178 O179 2.160 . S
Co178 O184 2.058 . S
Co178 O194 2.057 . S
Co178 O209 2.037 . S
Co178 N213 2.145 . S
Co178 N234 2.257 . S
O179 Co177 2.143 . S
O179 Co178 2.160 . S
C180 O181 1.278 . S
C180 O188 1.224 . S
O181 C180 1.278 . S
C182 O183 1.245 . S
C182 O194 1.232 . S
O183 C182 1.245 . S
O184 Co178 2.058 . S
O184 C210 1.269 . S
O185 Co177 2.074 . S
O185 C210 1.257 . S
H186 C211 0.930 . S
H187 C217 0.930 . S
O188 Co177 2.093 . S
O188 C180 1.224 . S
H189 C221 0.929 . S
H190 C223 0.930 . S
H191 C224 0.930 . S
H192 C222 0.929 . S
H193 C225 0.928 . S
O194 Co178 2.057 . S
O194 C182 1.232 . S
H195 C214 0.929 . S
H196 C215 0.929 . S
H197 C227 0.931 . S
H198 C219 0.929 . S
H199 C228 0.930 . S
H200 C220 0.931 . S
O201 Co177 2.097 . S
O201 C229 1.214 . S
H202 C230 0.929 . S
H203 C231 0.929 . S
H204 C232 0.930 . S
H205 C233 0.929 . S
H206 C235 0.930 . S
H207 C212 0.930 . S
H208 C216 0.930 . S
O209 Co178 2.037 . S
O209 C229 1.234 . S
C210 O184 1.269 . S
C210 O185 1.257 . S
C211 H186 0.930 . S
C211 C214 1.388 . S
C211 C216 1.418 . S
C212 H207 0.930 . S
C212 C215 1.404 . S
C212 C216 1.353 . S
N213 Co178 2.145 . S
N213 C214 1.397 . S
N213 C215 1.334 . S
C214 H195 0.929 . S
C214 C211 1.388 . S
C214 N213 1.397 . S
C215 H196 0.929 . S
C215 C212 1.404 . S
C215 N213 1.334 . S
C216 H208 0.930 . S
C216 C211 1.418 . S
C216 C212 1.353 . S
C217 H187 0.930 . S
C217 N218 1.330 . S
C217 C219 1.446 . S
N218 Co177 2.151 . S
N218 C217 1.330 . S
N218 C222 1.418 . S
C219 H198 0.929 . S
C219 C217 1.446 . S
C219 C220 1.332 . S
C220 H200 0.931 . S
C220 C219 1.332 . S
C220 C221 1.267 . S
C221 H189 0.929 . S
C221 C220 1.267 . S
C221 C222 1.251 . S
C222 H192 0.929 . S
C222 N218 1.418 . S
C222 C221 1.251 . S
C223 H190 0.930 . S
C223 C225 1.406 . S
C223 C228 1.261 . S
C224 H191 0.930 . S
C224 N226 1.325 . S
C224 C227 1.357 . S
C225 H193 0.928 . S
C225 C223 1.406 . S
C225 N226 1.261 . S
N226 Co177 2.214 . S
N226 C224 1.325 . S
N226 C225 1.261 . S
C227 H197 0.931 . S
C227 C224 1.357 . S
C227 C228 1.312 . S
C228 H199 0.930 . S
C228 C223 1.261 . S
C228 C227 1.312 . S
C229 O201 1.214 . S
C229 O209 1.234 . S
C230 H202 0.929 . S
C230 C233 1.391 . S
C230 C235 1.391 . S
C231 H203 0.929 . S
C231 C232 1.390 . S
C231 N234 1.391 . S
C232 H204 0.930 . S
C232 C231 1.390 . S
C232 C233 1.392 . S
C233 H205 0.929 . S
C233 C230 1.391 . S
C233 C232 1.392 . S
N234 Co178 2.257 . S
N234 C231 1.391 . S
N234 C235 1.388 . S
C235 H206 0.930 . S
C235 C230 1.391 . S
C235 N234 1.388 . S
Co236 O238 2.143 . S
Co236 O244 2.074 . S
Co236 O247 2.093 . S
Co236 O260 2.097 . S
Co236 N277 2.151 . S
Co236 N285 2.214 . S
Co237 O238 2.160 . S
Co237 O243 2.058 . S
Co237 O253 2.057 . S
Co237 O268 2.037 . S
Co237 N272 2.145 . S
Co237 N293 2.257 . S
O238 Co236 2.143 . S
O238 Co237 2.160 . S
C239 O240 1.278 . S
C239 O247 1.224 . S
O240 C239 1.278 . S
C241 O242 1.245 . S
C241 O253 1.232 . S
O242 C241 1.245 . S
O243 Co237 2.058 . S
O243 C269 1.269 . S
O244 Co236 2.074 . S
O244 C269 1.257 . S
H245 C270 0.930 . S
H246 C276 0.930 . S
O247 Co236 2.093 . S
O247 C239 1.224 . S
H248 C280 0.929 . S
H249 C282 0.930 . S
H250 C283 0.930 . S
H251 C281 0.929 . S
H252 C284 0.928 . S
O253 Co237 2.057 . S
O253 C241 1.232 . S
H254 C273 0.929 . S
H255 C274 0.929 . S
H256 C286 0.931 . S
H257 C278 0.929 . S
H258 C287 0.929 1_655 S
H259 C279 0.931 . S
O260 Co236 2.097 . S
O260 C288 1.214 . S
H261 C289 0.929 . S
H262 C290 0.929 . S
H263 C291 0.930 . S
H264 C292 0.929 . S
H265 C294 0.930 . S
H266 C271 0.930 . S
H267 C275 0.930 . S
O268 Co237 2.037 . S
O268 C288 1.234 . S
C269 O243 1.269 . S
C269 O244 1.257 . S
C270 H245 0.930 . S
C270 C273 1.388 . S
C270 C275 1.418 . S
C271 H266 0.930 . S
C271 C274 1.404 . S
C271 C275 1.353 . S
N272 Co237 2.145 . S
N272 C273 1.397 . S
N272 C274 1.334 . S
C273 H254 0.929 . S
C273 C270 1.388 . S
C273 N272 1.397 . S
C274 H255 0.929 . S
C274 C271 1.404 . S
C274 N272 1.334 . S
C275 H267 0.930 . S
C275 C270 1.418 . S
C275 C271 1.353 . S
C276 H246 0.930 . S
C276 N277 1.330 . S
C276 C278 1.446 . S
N277 Co236 2.151 . S
N277 C276 1.330 . S
N277 C281 1.418 . S
C278 H257 0.929 . S
C278 C276 1.446 . S
C278 C279 1.332 . S
C279 H259 0.931 . S
C279 C278 1.332 . S
C279 C280 1.267 . S
C280 H248 0.929 . S
C280 C279 1.267 . S
C280 C281 1.251 . S
C281 H251 0.929 . S
C281 N277 1.418 . S
C281 C280 1.251 . S
C282 H249 0.930 . S
C282 C284 1.406 . S
C282 C287 1.261 . S
C283 H250 0.930 . S
C283 N285 1.325 . S
C283 C286 1.357 . S
C284 H252 0.928 . S
C284 C282 1.406 . S
C284 N285 1.261 . S
N285 Co236 2.214 . S
N285 C283 1.325 . S
N285 C284 1.261 . S
C286 H256 0.931 . S
C286 C283 1.357 . S
C286 C287 1.312 . S
C287 H258 0.929 1_455 S
C287 C282 1.261 . S
C287 C286 1.312 . S
C288 O260 1.214 . S
C288 O268 1.234 . S
C289 H261 0.929 . S
C289 C292 1.391 . S
C289 C294 1.391 . S
C290 H262 0.929 . S
C290 C291 1.390 . S
C290 N293 1.391 . S
C291 H263 0.930 . S
C291 C290 1.390 . S
C291 C292 1.392 . S
C292 H264 0.929 . S
C292 C289 1.391 . S
C292 C291 1.392 . S
N293 Co237 2.257 . S
N293 C290 1.391 . S
N293 C294 1.388 . S
C294 H265 0.930 . S
C294 C289 1.391 . S
C294 N293 1.388 . S
Co295 O297 2.143 . S
Co295 O303 2.074 . S
Co295 O306 2.093 . S
Co295 O319 2.097 . S
Co295 N336 2.151 . S
Co295 N344 2.214 . S
Co296 O297 2.160 . S
Co296 O302 2.058 . S
Co296 O312 2.057 . S
Co296 O327 2.037 . S
Co296 N331 2.145 . S
Co296 N352 2.257 . S
O297 Co295 2.143 . S
O297 Co296 2.160 . S
C298 O299 1.278 . S
C298 O306 1.224 . S
O299 C298 1.278 . S
C300 O301 1.245 . S
C300 O312 1.232 . S
O301 C300 1.245 . S
O302 Co296 2.058 . S
O302 C328 1.269 . S
O303 Co295 2.074 . S
O303 C328 1.257 . S
H304 C329 0.930 . S
H305 C335 0.930 . S
O306 Co295 2.093 . S
O306 C298 1.224 . S
H307 C339 0.929 . S
H308 C341 0.930 . S
H309 C342 0.930 . S
H310 C340 0.929 . S
H311 C343 0.928 . S
O312 Co296 2.057 . S
O312 C300 1.232 . S
H313 C332 0.929 . S
H314 C333 0.929 . S
H315 C345 0.931 . S
H316 C337 0.929 . S
H317 C346 0.930 . S
H318 C338 0.931 . S
O319 Co295 2.097 . S
O319 C347 1.214 . S
H320 C348 0.929 . S
H321 C349 0.929 . S
H322 C350 0.930 . S
H323 C351 0.929 . S
H324 C353 0.930 . S
H325 C330 0.930 . S
H326 C334 0.930 . S
O327 Co296 2.037 . S
O327 C347 1.234 . S
C328 O302 1.269 . S
C328 O303 1.257 . S
C329 H304 0.930 . S
C329 C332 1.388 . S
C329 C334 1.418 . S
C330 H325 0.930 . S
C330 C333 1.404 . S
C330 C334 1.353 . S
N331 Co296 2.145 . S
N331 C332 1.397 . S
N331 C333 1.334 . S
C332 H313 0.929 . S
C332 C329 1.388 . S
C332 N331 1.397 . S
C333 H314 0.929 . S
C333 C330 1.404 . S
C333 N331 1.334 . S
C334 H326 0.930 . S
C334 C329 1.418 . S
C334 C330 1.353 . S
C335 H305 0.930 . S
C335 N336 1.330 . S
C335 C337 1.446 . S
N336 Co295 2.151 . S
N336 C335 1.330 . S
N336 C340 1.418 . S
C337 H316 0.929 . S
C337 C335 1.446 . S
C337 C338 1.332 . S
C338 H318 0.931 . S
C338 C337 1.332 . S
C338 C339 1.267 . S
C339 H307 0.929 . S
C339 C338 1.267 . S
C339 C340 1.251 . S
C340 H310 0.929 . S
C340 N336 1.418 . S
C340 C339 1.251 . S
C341 H308 0.930 . S
C341 C343 1.406 . S
C341 C346 1.261 . S
C342 H309 0.930 . S
C342 N344 1.325 . S
C342 C345 1.357 . S
C343 H311 0.928 . S
C343 C341 1.406 . S
C343 N344 1.261 . S
N344 Co295 2.214 . S
N344 C342 1.325 . S
N344 C343 1.261 . S
C345 H315 0.931 . S
C345 C342 1.357 . S
C345 C346 1.312 . S
C346 H317 0.930 . S
C346 C341 1.261 . S
C346 C345 1.312 . S
C347 O319 1.214 . S
C347 O327 1.234 . S
C348 H320 0.929 . S
C348 C351 1.391 . S
C348 C353 1.391 . S
C349 H321 0.929 . S
C349 C350 1.390 . S
C349 N352 1.391 . S
C350 H322 0.930 . S
C350 C349 1.390 . S
C350 C351 1.392 . S
C351 H323 0.929 . S
C351 C348 1.391 . S
C351 C350 1.392 . S
N352 Co296 2.257 . S
N352 C349 1.391 . S
N352 C353 1.388 . S
C353 H324 0.930 . S
C353 C348 1.391 . S
C353 N352 1.388 . S
Co354 O356 2.143 . S
Co354 O362 2.074 . S
Co354 O365 2.093 . S
Co354 O378 2.097 . S
Co354 N395 2.151 . S
Co354 N403 2.214 . S
Co355 O356 2.160 . S
Co355 O361 2.058 . S
Co355 O371 2.057 . S
Co355 O386 2.037 . S
Co355 N390 2.145 . S
Co355 N411 2.257 . S
O356 Co354 2.143 . S
O356 Co355 2.160 . S
C357 O358 1.278 . S
C357 O365 1.224 . S
O358 C357 1.278 . S
C359 O360 1.245 . S
C359 O371 1.232 . S
O360 C359 1.245 . S
O361 Co355 2.058 . S
O361 C387 1.269 . S
O362 Co354 2.074 . S
O362 C387 1.257 . S
H363 C388 0.930 . S
H364 C394 0.930 . S
O365 Co354 2.093 . S
O365 C357 1.224 . S
H366 C398 0.929 . S
H367 C400 0.930 . S
H368 C401 0.930 . S
H369 C399 0.929 . S
H370 C402 0.928 . S
O371 Co355 2.057 . S
O371 C359 1.232 . S
H372 C391 0.929 . S
H373 C392 0.929 . S
H374 C404 0.931 . S
H375 C396 0.929 . S
H376 C405 0.930 . S
H377 C397 0.931 . S
O378 Co354 2.097 . S
O378 C406 1.214 . S
H379 C407 0.929 1_554 S
H380 C408 0.929 . S
H381 C409 0.930 . S
H382 C410 1.025 . S
H383 C412 0.930 . S
H384 C389 0.930 . S
H385 C393 0.930 . S
O386 Co355 2.037 . S
O386 C406 1.234 . S
C387 O361 1.269 . S
C387 O362 1.257 . S
C388 H363 0.930 . S
C388 C391 1.388 . S
C388 C393 1.418 . S
C389 H384 0.930 . S
C389 C392 1.404 . S
C389 C393 1.353 . S
N390 Co355 2.145 . S
N390 C391 1.397 . S
N390 C392 1.334 . S
C391 H372 0.929 . S
C391 C388 1.388 . S
C391 N390 1.397 . S
C392 H373 0.929 . S
C392 C389 1.404 . S
C392 N390 1.334 . S
C393 H385 0.930 . S
C393 C388 1.418 . S
C393 C389 1.353 . S
C394 H364 0.930 . S
C394 N395 1.330 . S
C394 C396 1.446 . S
N395 Co354 2.151 . S
N395 C394 1.330 . S
N395 C399 1.418 . S
C396 H375 0.929 . S
C396 C394 1.446 . S
C396 C397 1.332 . S
C397 H377 0.931 . S
C397 C396 1.332 . S
C397 C398 1.267 . S
C398 H366 0.929 . S
C398 C397 1.267 . S
C398 C399 1.251 . S
C399 H369 0.929 . S
C399 N395 1.418 . S
C399 C398 1.251 . S
C400 H367 0.930 . S
C400 C402 1.406 . S
C400 C405 1.261 . S
C401 H368 0.930 . S
C401 N403 1.325 . S
C401 C404 1.357 . S
C402 H370 0.928 . S
C402 C400 1.406 . S
C402 N403 1.261 . S
N403 Co354 2.214 . S
N403 C401 1.325 . S
N403 C402 1.261 . S
C404 H374 0.931 . S
C404 C401 1.357 . S
C404 C405 1.312 . S
C405 H376 0.930 . S
C405 C400 1.261 . S
C405 C404 1.312 . S
C406 O378 1.214 . S
C406 O386 1.234 . S
C407 H379 0.929 1_556 S
C407 C410 1.371 1_556 S
C407 C412 1.391 . S
C408 H380 0.929 . S
C408 C409 1.390 . S
C408 N411 1.391 . S
C409 H381 0.930 . S
C409 C408 1.390 . S
C409 C410 1.322 1_556 S
C410 H382 1.025 . S
C410 C407 1.371 1_554 S
C410 C409 1.322 1_554 S
N411 Co355 2.257 . S
N411 C408 1.391 . S
N411 C412 1.388 . S
C412 H383 0.930 . S
C412 C407 1.391 . S
C412 N411 1.388 . S
Co413 O415 2.143 . S
Co413 O421 2.074 . S
Co413 O424 2.093 . S
Co413 O437 2.097 . S
Co413 N454 2.151 . S
Co413 N462 2.214 . S
Co414 O415 2.160 . S
Co414 O420 2.058 . S
Co414 O430 2.057 . S
Co414 O445 2.037 . S
Co414 N449 2.145 . S
Co414 N470 2.257 . S
O415 Co413 2.143 . S
O415 Co414 2.160 . S
C416 O417 1.278 . S
C416 O424 1.224 . S
O417 C416 1.278 . S
C418 O419 1.245 . S
C418 O430 1.232 . S
O419 C418 1.245 . S
O420 Co414 2.058 . S
O420 C446 1.269 . S
O421 Co413 2.074 . S
O421 C446 1.257 . S
H422 C447 0.930 . S
H423 C453 0.930 . S
O424 Co413 2.093 . S
O424 C416 1.224 . S
H425 C457 0.929 . S
H426 C459 0.930 . S
H427 C460 0.930 . S
H428 C458 0.929 . S
H429 C461 0.928 . S
O430 Co414 2.057 . S
O430 C418 1.232 . S
H431 C450 0.929 . S
H432 C451 0.929 . S
H433 C463 0.931 . S
H434 C455 0.929 . S
H435 C464 0.930 . S
H436 C456 0.931 . S
O437 Co413 2.097 . S
O437 C465 1.214 . S
H438 C466 0.929 . S
H439 C467 0.929 . S
H440 C468 0.930 . S
H441 C469 0.929 . S
H442 C471 0.930 . S
H443 C448 0.930 . S
H444 C452 0.930 . S
O445 Co414 2.037 . S
O445 C465 1.234 . S
C446 O420 1.269 . S
C446 O421 1.257 . S
C447 H422 0.930 . S
C447 C450 1.388 . S
C447 C452 1.418 . S
C448 H443 0.930 . S
C448 C451 1.404 . S
C448 C452 1.353 . S
N449 Co414 2.145 . S
N449 C450 1.397 . S
N449 C451 1.334 . S
C450 H431 0.929 . S
C450 C447 1.388 . S
C450 N449 1.397 . S
C451 H432 0.929 . S
C451 C448 1.404 . S
C451 N449 1.334 . S
C452 H444 0.930 . S
C452 C447 1.418 . S
C452 C448 1.353 . S
C453 H423 0.930 . S
C453 N454 1.330 . S
C453 C455 1.446 . S
N454 Co413 2.151 . S
N454 C453 1.330 . S
N454 C458 1.418 . S
C455 H434 0.929 . S
C455 C453 1.446 . S
C455 C456 1.332 . S
C456 H436 0.931 . S
C456 C455 1.332 . S
C456 C457 1.267 . S
C457 H425 0.929 . S
C457 C456 1.267 . S
C457 C458 1.251 . S
C458 H428 0.929 . S
C458 N454 1.418 . S
C458 C457 1.251 . S
C459 H426 0.930 . S
C459 C461 1.406 . S
C459 C464 1.261 . S
C460 H427 0.930 . S
C460 N462 1.325 . S
C460 C463 1.357 . S
C461 H429 0.928 . S
C461 C459 1.406 . S
C461 N462 1.261 . S
N462 Co413 2.214 . S
N462 C460 1.325 . S
N462 C461 1.261 . S
C463 H433 0.931 . S
C463 C460 1.357 . S
C463 C464 1.312 . S
C464 H435 0.930 . S
C464 C459 1.261 . S
C464 C463 1.312 . S
C465 O437 1.214 . S
C465 O445 1.234 . S
C466 H438 0.929 . S
C466 C469 1.391 . S
C466 C471 1.391 . S
C467 H439 0.929 . S
C467 C468 1.390 . S
C467 N470 1.391 . S
C468 H440 0.930 . S
C468 C467 1.390 . S
C468 C469 1.392 . S
C469 H441 0.929 . S
C469 C466 1.391 . S
C469 C468 1.392 . S
N470 Co414 2.257 . S
N470 C467 1.391 . S
N470 C471 1.388 . S
C471 H442 0.930 . S
C471 C466 1.391 . S
C471 N470 1.388 . S
Co472 O474 2.143 . S
Co472 O480 2.074 . S
Co472 O483 2.093 . S
Co472 O496 2.097 . S
Co472 N513 2.151 . S
Co472 N521 2.214 . S
Co473 O474 2.160 . S
Co473 O479 2.058 . S
Co473 O489 2.057 . S
Co473 O504 2.037 . S
Co473 N508 2.145 . S
Co473 N529 2.257 . S
O474 Co472 2.143 . S
O474 Co473 2.160 . S
C475 O476 1.278 . S
C475 O483 1.224 . S
O476 C475 1.278 . S
C477 O478 1.245 . S
C477 O489 1.232 . S
O478 C477 1.245 . S
O479 Co473 2.058 . S
O479 C505 1.269 . S
O480 Co472 2.074 . S
O480 C505 1.257 . S
H481 C506 0.930 . S
H482 C512 0.930 . S
O483 Co472 2.093 . S
O483 C475 1.224 . S
H484 C516 0.929 . S
H485 C518 0.930 . S
H486 C519 0.930 . S
H487 C517 0.929 . S
H488 C520 0.928 . S
O489 Co473 2.057 . S
O489 C477 1.232 . S
H490 C509 0.929 . S
H491 C510 0.929 . S
H492 C522 0.931 . S
H493 C514 0.929 . S
H494 C523 0.929 1_455 S
H495 C515 0.931 . S
O496 Co472 2.097 . S
O496 C524 1.214 . S
H497 C525 0.929 1_554 S
H498 C526 0.929 . S
H499 C527 0.930 . S
H500 C528 1.025 . S
H501 C530 0.930 . S
H502 C507 0.930 . S
H503 C511 0.930 . S
O504 Co473 2.037 . S
O504 C524 1.234 . S
C505 O479 1.269 . S
C505 O480 1.257 . S
C506 H481 0.930 . S
C506 C509 1.388 . S
C506 C511 1.418 . S
C507 H502 0.930 . S
C507 C510 1.404 . S
C507 C511 1.353 . S
N508 Co473 2.145 . S
N508 C509 1.397 . S
N508 C510 1.334 . S
C509 H490 0.929 . S
C509 C506 1.388 . S
C509 N508 1.397 . S
C510 H491 0.929 . S
C510 C507 1.404 . S
C510 N508 1.334 . S
C511 H503 0.930 . S
C511 C506 1.418 . S
C511 C507 1.353 . S
C512 H482 0.930 . S
C512 N513 1.330 . S
C512 C514 1.446 . S
N513 Co472 2.151 . S
N513 C512 1.330 . S
N513 C517 1.418 . S
C514 H493 0.929 . S
C514 C512 1.446 . S
C514 C515 1.332 . S
C515 H495 0.931 . S
C515 C514 1.332 . S
C515 C516 1.267 . S
C516 H484 0.929 . S
C516 C515 1.267 . S
C516 C517 1.251 . S
C517 H487 0.929 . S
C517 N513 1.418 . S
C517 C516 1.251 . S
C518 H485 0.930 . S
C518 C520 1.406 . S
C518 C523 1.261 . S
C519 H486 0.930 . S
C519 N521 1.325 . S
C519 C522 1.357 . S
C520 H488 0.928 . S
C520 C518 1.406 . S
C520 N521 1.261 . S
N521 Co472 2.214 . S
N521 C519 1.325 . S
N521 C520 1.261 . S
C522 H492 0.931 . S
C522 C519 1.357 . S
C522 C523 1.312 . S
C523 H494 0.929 1_655 S
C523 C518 1.261 . S
C523 C522 1.312 . S
C524 O496 1.214 . S
C524 O504 1.234 . S
C525 H497 0.929 1_556 S
C525 C528 1.371 1_556 S
C525 C530 1.391 . S
C526 H498 0.929 . S
C526 C527 1.390 . S
C526 N529 1.391 . S
C527 H499 0.930 . S
C527 C526 1.390 . S
C527 C528 1.322 1_556 S
C528 H500 1.025 . S
C528 C525 1.371 1_554 S
C528 C527 1.322 1_554 S
N529 Co473 2.257 . S
N529 C526 1.391 . S
N529 C530 1.388 . S
C530 H501 0.930 . S
C530 C525 1.391 . S
C530 N529 1.388 . S
Co531 O533 2.143 . S
Co531 O539 2.074 . S
Co531 O542 2.093 . S
Co531 O555 2.097 . S
Co531 N572 2.151 . S
Co531 N580 2.214 . S
Co532 O533 2.160 . S
Co532 O538 2.058 . S
Co532 O548 2.057 . S
Co532 O563 2.037 . S
Co532 N567 2.145 . S
Co532 N588 2.257 . S
O533 Co531 2.143 . S
O533 Co532 2.160 . S
C534 O535 1.278 . S
C534 O542 1.224 . S
O535 C534 1.278 . S
C536 O537 1.245 . S
C536 O548 1.232 . S
O537 C536 1.245 . S
O538 Co532 2.058 . S
O538 C564 1.269 . S
O539 Co531 2.074 . S
O539 C564 1.257 . S
H540 C565 0.930 . S
H541 C571 0.930 . S
O542 Co531 2.093 . S
O542 C534 1.224 . S
H543 C575 0.929 . S
H544 C577 0.930 . S
H545 C578 0.930 . S
H546 C576 0.929 . S
H547 C579 0.928 . S
O548 Co532 2.057 . S
O548 C536 1.232 . S
H549 C568 0.929 . S
H550 C569 0.929 . S
H551 C581 0.931 . S
H552 C573 0.929 . S
H553 C582 0.930 . S
H554 C574 0.931 . S
O555 Co531 2.097 . S
O555 C583 1.214 . S
H556 C584 0.929 . S
H557 C585 0.929 . S
H558 C586 0.930 . S
H559 C587 0.929 . S
H560 C589 0.930 . S
H561 C566 0.930 . S
H562 C570 0.930 . S
O563 Co532 2.037 . S
O563 C583 1.234 . S
C564 O538 1.269 . S
C564 O539 1.257 . S
C565 H540 0.930 . S
C565 C568 1.388 . S
C565 C570 1.418 . S
C566 H561 0.930 . S
C566 C569 1.404 . S
C566 C570 1.353 . S
N567 Co532 2.145 . S
N567 C568 1.397 . S
N567 C569 1.334 . S
C568 H549 0.929 . S
C568 C565 1.388 . S
C568 N567 1.397 . S
C569 H550 0.929 . S
C569 C566 1.404 . S
C569 N567 1.334 . S
C570 H562 0.930 . S
C570 C565 1.418 . S
C570 C566 1.353 . S
C571 H541 0.930 . S
C571 N572 1.330 . S
C571 C573 1.446 . S
N572 Co531 2.151 . S
N572 C571 1.330 . S
N572 C576 1.418 . S
C573 H552 0.929 . S
C573 C571 1.446 . S
C573 C574 1.332 . S
C574 H554 0.931 . S
C574 C573 1.332 . S
C574 C575 1.267 . S
C575 H543 0.929 . S
C575 C574 1.267 . S
C575 C576 1.251 . S
C576 H546 0.929 . S
C576 N572 1.418 . S
C576 C575 1.251 . S
C577 H544 0.930 . S
C577 C579 1.406 . S
C577 C582 1.261 . S
C578 H545 0.930 . S
C578 N580 1.325 . S
C578 C581 1.357 . S
C579 H547 0.928 . S
C579 C577 1.406 . S
C579 N580 1.261 . S
N580 Co531 2.214 . S
N580 C578 1.325 . S
N580 C579 1.261 . S
C581 H551 0.931 . S
C581 C578 1.357 . S
C581 C582 1.312 . S
C582 H553 0.930 . S
C582 C577 1.261 . S
C582 C581 1.312 . S
C583 O555 1.214 . S
C583 O563 1.234 . S
C584 H556 0.929 . S
C584 C587 1.391 . S
C584 C589 1.391 . S
C585 H557 0.929 . S
C585 C586 1.390 . S
C585 N588 1.391 . S
C586 H558 0.930 . S
C586 C585 1.390 . S
C586 C587 1.392 . S
C587 H559 0.929 . S
C587 C584 1.391 . S
C587 C586 1.392 . S
N588 Co532 2.257 . S
N588 C585 1.391 . S
N588 C589 1.388 . S
C589 H560 0.930 . S
C589 C584 1.391 . S
C589 N588 1.388 . S
Co590 O592 2.143 . S
Co590 O598 2.074 . S
Co590 O601 2.093 . S
Co590 O614 2.097 . S
Co590 N631 2.151 . S
Co590 N639 2.214 . S
Co591 O592 2.160 . S
Co591 O597 2.058 . S
Co591 O607 2.057 . S
Co591 O622 2.037 . S
Co591 N626 2.145 . S
Co591 N647 2.257 . S
O592 Co590 2.143 . S
O592 Co591 2.160 . S
C593 O594 1.278 . S
C593 O601 1.224 . S
O594 C593 1.278 . S
C595 O596 1.245 . S
C595 O607 1.232 . S
O596 C595 1.245 . S
O597 Co591 2.058 . S
O597 C623 1.269 . S
O598 Co590 2.074 . S
O598 C623 1.257 . S
H599 C624 0.930 . S
H600 C630 0.930 . S
O601 Co590 2.093 . S
O601 C593 1.224 . S
H602 C634 0.929 . S
H603 C636 0.930 . S
H604 C637 0.930 . S
H605 C635 0.929 . S
H606 C638 0.928 . S
O607 Co591 2.057 . S
O607 C595 1.232 . S
H608 C627 0.929 . S
H609 C628 0.929 . S
H610 C640 0.931 . S
H611 C632 0.929 . S
H612 C641 0.930 . S
H613 C633 0.931 . S
O614 Co590 2.097 . S
O614 C642 1.214 . S
H615 C643 0.929 . S
H616 C644 0.929 . S
H617 C645 0.930 . S
H618 C646 0.929 . S
H619 C648 0.930 . S
H620 C625 0.930 . S
H621 C629 0.930 . S
O622 Co591 2.037 . S
O622 C642 1.234 . S
C623 O597 1.269 . S
C623 O598 1.257 . S
C624 H599 0.930 . S
C624 C627 1.388 . S
C624 C629 1.418 . S
C625 H620 0.930 . S
C625 C628 1.404 . S
C625 C629 1.353 . S
N626 Co591 2.145 . S
N626 C627 1.397 . S
N626 C628 1.334 . S
C627 H608 0.929 . S
C627 C624 1.388 . S
C627 N626 1.397 . S
C628 H609 0.929 . S
C628 C625 1.404 . S
C628 N626 1.334 . S
C629 H621 0.930 . S
C629 C624 1.418 . S
C629 C625 1.353 . S
C630 H600 0.930 . S
C630 N631 1.330 . S
C630 C632 1.446 . S
N631 Co590 2.151 . S
N631 C630 1.330 . S
N631 C635 1.418 . S
C632 H611 0.929 . S
C632 C630 1.446 . S
C632 C633 1.332 . S
C633 H613 0.931 . S
C633 C632 1.332 . S
C633 C634 1.267 . S
C634 H602 0.929 . S
C634 C633 1.267 . S
C634 C635 1.251 . S
C635 H605 0.929 . S
C635 N631 1.418 . S
C635 C634 1.251 . S
C636 H603 0.930 . S
C636 C638 1.406 . S
C636 C641 1.261 . S
C637 H604 0.930 . S
C637 N639 1.325 . S
C637 C640 1.357 . S
C638 H606 0.928 . S
C638 C636 1.406 . S
C638 N639 1.261 . S
N639 Co590 2.214 . S
N639 C637 1.325 . S
N639 C638 1.261 . S
C640 H610 0.931 . S
C640 C637 1.357 . S
C640 C641 1.312 . S
C641 H612 0.930 . S
C641 C636 1.261 . S
C641 C640 1.312 . S
C642 O614 1.214 . S
C642 O622 1.234 . S
C643 H615 0.929 . S
C643 C646 1.391 . S
C643 C648 1.391 . S
C644 H616 0.929 . S
C644 C645 1.390 . S
C644 N647 1.391 . S
C645 H617 0.930 . S
C645 C644 1.390 . S
C645 C646 1.392 . S
C646 H618 0.929 . S
C646 C643 1.391 . S
C646 C645 1.392 . S
N647 Co591 2.257 . S
N647 C644 1.391 . S
N647 C648 1.388 . S
C648 H619 0.930 . S
C648 C643 1.391 . S
C648 N647 1.388 . S
Co649 O651 2.143 . S
Co649 O657 2.074 . S
Co649 O660 2.093 . S
Co649 O673 2.097 . S
Co649 N690 2.151 . S
Co649 N698 2.214 . S
Co650 O651 2.160 . S
Co650 O656 2.058 . S
Co650 O666 2.057 . S
Co650 O681 2.037 . S
Co650 N685 2.145 . S
Co650 N706 2.257 . S
O651 Co649 2.143 . S
O651 Co650 2.160 . S
C652 O653 1.278 . S
C652 O660 1.224 . S
O653 C652 1.278 . S
C654 O655 1.245 . S
C654 O666 1.232 . S
O655 C654 1.245 . S
O656 Co650 2.058 . S
O656 C682 1.269 . S
O657 Co649 2.074 . S
O657 C682 1.257 . S
H658 C683 0.930 . S
H659 C689 0.930 . S
O660 Co649 2.093 . S
O660 C652 1.224 . S
H661 C693 0.929 . S
H662 C695 0.930 . S
H663 C696 0.930 . S
H664 C694 0.929 . S
H665 C697 0.928 . S
O666 Co650 2.057 . S
O666 C654 1.232 . S
H667 C686 0.929 . S
H668 C687 0.929 . S
H669 C699 0.931 . S
H670 C691 0.929 . S
H671 C700 0.930 . S
H672 C692 0.931 . S
O673 Co649 2.097 . S
O673 C701 1.214 . S
H674 C702 0.929 . S
H675 C703 0.929 . S
H676 C704 0.930 . S
H677 C705 0.929 . S
H678 C707 0.930 . S
H679 C684 0.930 . S
H680 C688 0.930 . S
O681 Co650 2.037 . S
O681 C701 1.234 . S
C682 O656 1.269 . S
C682 O657 1.257 . S
C683 H658 0.930 . S
C683 C686 1.388 . S
C683 C688 1.418 . S
C684 H679 0.930 . S
C684 C687 1.404 . S
C684 C688 1.353 . S
N685 Co650 2.145 . S
N685 C686 1.397 . S
N685 C687 1.334 . S
C686 H667 0.929 . S
C686 C683 1.388 . S
C686 N685 1.397 . S
C687 H668 0.929 . S
C687 C684 1.404 . S
C687 N685 1.334 . S
C688 H680 0.930 . S
C688 C683 1.418 . S
C688 C684 1.353 . S
C689 H659 0.930 . S
C689 N690 1.330 . S
C689 C691 1.446 . S
N690 Co649 2.151 . S
N690 C689 1.330 . S
N690 C694 1.418 . S
C691 H670 0.929 . S
C691 C689 1.446 . S
C691 C692 1.332 . S
C692 H672 0.931 . S
C692 C691 1.332 . S
C692 C693 1.267 . S
C693 H661 0.929 . S
C693 C692 1.267 . S
C693 C694 1.251 . S
C694 H664 0.929 . S
C694 N690 1.418 . S
C694 C693 1.251 . S
C695 H662 0.930 . S
C695 C697 1.406 . S
C695 C700 1.261 . S
C696 H663 0.930 . S
C696 N698 1.325 . S
C696 C699 1.357 . S
C697 H665 0.928 . S
C697 C695 1.406 . S
C697 N698 1.261 . S
N698 Co649 2.214 . S
N698 C696 1.325 . S
N698 C697 1.261 . S
C699 H669 0.931 . S
C699 C696 1.357 . S
C699 C700 1.312 . S
C700 H671 0.930 . S
C700 C695 1.261 . S
C700 C699 1.312 . S
C701 O673 1.214 . S
C701 O681 1.234 . S
C702 H674 0.929 . S
C702 C705 1.391 . S
C702 C707 1.391 . S
C703 H675 0.929 . S
C703 C704 1.390 . S
C703 N706 1.391 . S
C704 H676 0.930 . S
C704 C703 1.390 . S
C704 C705 1.392 . S
C705 H677 0.929 . S
C705 C702 1.391 . S
C705 C704 1.392 . S
N706 Co650 2.257 . S
N706 C703 1.391 . S
N706 C707 1.388 . S
C707 H678 0.930 . S
C707 C702 1.391 . S
C707 N706 1.388 . S
Co708 O710 2.143 . S
Co708 O716 2.074 . S
Co708 O719 2.093 . S
Co708 O732 2.097 . S
Co708 N749 2.151 . S
Co708 N757 2.214 . S
Co709 O710 2.160 . S
Co709 O715 2.058 . S
Co709 O725 2.057 . S
Co709 O740 2.037 . S
Co709 N744 2.145 . S
Co709 N765 2.257 . S
O710 Co708 2.143 . S
O710 Co709 2.160 . S
C711 O712 1.278 . S
C711 O719 1.224 . S
O712 C711 1.278 . S
C713 O714 1.245 . S
C713 O725 1.232 . S
O714 C713 1.245 . S
O715 Co709 2.058 . S
O715 C741 1.269 . S
O716 Co708 2.074 . S
O716 C741 1.257 . S
H717 C742 0.930 . S
H718 C748 0.930 . S
O719 Co708 2.093 . S
O719 C711 1.224 . S
H720 C752 0.929 . S
H721 C754 0.930 . S
H722 C755 0.930 . S
H723 C753 0.929 . S
H724 C756 0.928 . S
O725 Co709 2.057 . S
O725 C713 1.232 . S
H726 C745 0.929 . S
H727 C746 0.929 . S
H728 C758 0.931 . S
H729 C750 0.929 . S
H730 C759 0.929 1_455 S
H731 C751 0.931 . S
O732 Co708 2.097 . S
O732 C760 1.214 . S
H733 C761 0.929 . S
H734 C762 0.929 . S
H735 C763 0.930 . S
H736 C764 0.929 . S
H737 C766 0.930 . S
H738 C743 0.930 . S
H739 C747 0.930 . S
O740 Co709 2.037 . S
O740 C760 1.234 . S
C741 O715 1.269 . S
C741 O716 1.257 . S
C742 H717 0.930 . S
C742 C745 1.388 . S
C742 C747 1.418 . S
C743 H738 0.930 . S
C743 C746 1.404 . S
C743 C747 1.353 . S
N744 Co709 2.145 . S
N744 C745 1.397 . S
N744 C746 1.334 . S
C745 H726 0.929 . S
C745 C742 1.388 . S
C745 N744 1.397 . S
C746 H727 0.929 . S
C746 C743 1.404 . S
C746 N744 1.334 . S
C747 H739 0.930 . S
C747 C742 1.418 . S
C747 C743 1.353 . S
C748 H718 0.930 . S
C748 N749 1.330 . S
C748 C750 1.446 . S
N749 Co708 2.151 . S
N749 C748 1.330 . S
N749 C753 1.418 . S
C750 H729 0.929 . S
C750 C748 1.446 . S
C750 C751 1.332 . S
C751 H731 0.931 . S
C751 C750 1.332 . S
C751 C752 1.267 . S
C752 H720 0.929 . S
C752 C751 1.267 . S
C752 C753 1.251 . S
C753 H723 0.929 . S
C753 N749 1.418 . S
C753 C752 1.251 . S
C754 H721 0.930 . S
C754 C756 1.406 . S
C754 C759 1.261 . S
C755 H722 0.930 . S
C755 N757 1.325 . S
C755 C758 1.357 . S
C756 H724 0.928 . S
C756 C754 1.406 . S
C756 N757 1.261 . S
N757 Co708 2.214 . S
N757 C755 1.325 . S
N757 C756 1.261 . S
C758 H728 0.931 . S
C758 C755 1.357 . S
C758 C759 1.312 . S
C759 H730 0.929 1_655 S
C759 C754 1.261 . S
C759 C758 1.312 . S
C760 O732 1.214 . S
C760 O740 1.234 . S
C761 H733 0.929 . S
C761 C764 1.391 . S
C761 C766 1.391 . S
C762 H734 0.929 . S
C762 C763 1.390 . S
C762 N765 1.391 . S
C763 H735 0.930 . S
C763 C762 1.390 . S
C763 C764 1.392 . S
C764 H736 0.929 . S
C764 C761 1.391 . S
C764 C763 1.392 . S
N765 Co709 2.257 . S
N765 C762 1.391 . S
N765 C766 1.388 . S
C766 H737 0.930 . S
C766 C761 1.391 . S
C766 N765 1.388 . S
Co767 O769 2.143 . S
Co767 O775 2.074 . S
Co767 O778 2.093 . S
Co767 O791 2.097 . S
Co767 N808 2.151 . S
Co767 N816 2.214 . S
Co768 O769 2.160 . S
Co768 O774 2.058 . S
Co768 O784 2.057 . S
Co768 O799 2.037 . S
Co768 N803 2.145 . S
Co768 N824 2.257 . S
O769 Co767 2.143 . S
O769 Co768 2.160 . S
C770 O771 1.278 . S
C770 O778 1.224 . S
O771 C770 1.278 . S
C772 O773 1.245 . S
C772 O784 1.232 . S
O773 C772 1.245 . S
O774 Co768 2.058 . S
O774 C800 1.269 . S
O775 Co767 2.074 . S
O775 C800 1.257 . S
H776 C801 0.930 . S
H777 C807 0.930 . S
O778 Co767 2.093 . S
O778 C770 1.224 . S
H779 C811 0.929 . S
H780 C813 0.930 . S
H781 C814 0.930 . S
H782 C812 0.929 . S
H783 C815 0.928 . S
O784 Co768 2.057 . S
O784 C772 1.232 . S
H785 C804 0.929 . S
H786 C805 0.929 . S
H787 C817 0.931 . S
H788 C809 0.929 . S
H789 C818 0.930 . S
H790 C810 0.931 . S
O791 Co767 2.097 . S
O791 C819 1.214 . S
H792 C820 0.929 . S
H793 C821 0.929 . S
H794 C822 0.930 . S
H795 C823 0.929 . S
H796 C825 0.930 . S
H797 C802 0.930 . S
H798 C806 0.930 . S
O799 Co768 2.037 . S
O799 C819 1.234 . S
C800 O774 1.269 . S
C800 O775 1.257 . S
C801 H776 0.930 . S
C801 C804 1.388 . S
C801 C806 1.418 . S
C802 H797 0.930 . S
C802 C805 1.404 . S
C802 C806 1.353 . S
N803 Co768 2.145 . S
N803 C804 1.397 . S
N803 C805 1.334 . S
C804 H785 0.929 . S
C804 C801 1.388 . S
C804 N803 1.397 . S
C805 H786 0.929 . S
C805 C802 1.404 . S
C805 N803 1.334 . S
C806 H798 0.930 . S
C806 C801 1.418 . S
C806 C802 1.353 . S
C807 H777 0.930 . S
C807 N808 1.330 . S
C807 C809 1.446 . S
N808 Co767 2.151 . S
N808 C807 1.330 . S
N808 C812 1.418 . S
C809 H788 0.929 . S
C809 C807 1.446 . S
C809 C810 1.332 . S
C810 H790 0.931 . S
C810 C809 1.332 . S
C810 C811 1.267 . S
C811 H779 0.929 . S
C811 C810 1.267 . S
C811 C812 1.251 . S
C812 H782 0.929 . S
C812 N808 1.418 . S
C812 C811 1.251 . S
C813 H780 0.930 . S
C813 C815 1.406 . S
C813 C818 1.261 . S
C814 H781 0.930 . S
C814 N816 1.325 . S
C814 C817 1.357 . S
C815 H783 0.928 . S
C815 C813 1.406 . S
C815 N816 1.261 . S
N816 Co767 2.214 . S
N816 C814 1.325 . S
N816 C815 1.261 . S
C817 H787 0.931 . S
C817 C814 1.357 . S
C817 C818 1.312 . S
C818 H789 0.930 . S
C818 C813 1.261 . S
C818 C817 1.312 . S
C819 O791 1.214 . S
C819 O799 1.234 . S
C820 H792 0.929 . S
C820 C823 1.391 . S
C820 C825 1.391 . S
C821 H793 0.929 . S
C821 C822 1.390 . S
C821 N824 1.391 . S
C822 H794 0.930 . S
C822 C821 1.390 . S
C822 C823 1.392 . S
C823 H795 0.929 . S
C823 C820 1.391 . S
C823 C822 1.392 . S
N824 Co768 2.257 . S
N824 C821 1.391 . S
N824 C825 1.388 . S
C825 H796 0.930 . S
C825 C820 1.391 . S
C825 N824 1.388 . S
Co826 O828 2.143 . S
Co826 O834 2.074 . S
Co826 O837 2.093 . S
Co826 O850 2.097 . S
Co826 N867 2.151 . S
Co826 N875 2.214 . S
Co827 O828 2.160 . S
Co827 O833 2.058 . S
Co827 O843 2.057 . S
Co827 O858 2.037 . S
Co827 N862 2.145 . S
Co827 N883 2.257 . S
O828 Co826 2.143 . S
O828 Co827 2.160 . S
C829 O830 1.278 . S
C829 O837 1.224 . S
O830 C829 1.278 . S
C831 O832 1.245 . S
C831 O843 1.232 . S
O832 C831 1.245 . S
O833 Co827 2.058 . S
O833 C859 1.269 . S
O834 Co826 2.074 . S
O834 C859 1.257 . S
H835 C860 0.930 . S
H836 C866 0.930 . S
O837 Co826 2.093 . S
O837 C829 1.224 . S
H838 C870 0.929 . S
H839 C872 0.930 . S
H840 C873 0.930 . S
H841 C871 0.929 . S
H842 C874 0.928 . S
O843 Co827 2.057 . S
O843 C831 1.232 . S
H844 C863 0.929 . S
H845 C864 0.929 . S
H846 C876 0.931 . S
H847 C868 0.929 . S
H848 C877 0.930 . S
H849 C869 0.931 . S
O850 Co826 2.097 . S
O850 C878 1.214 . S
H851 C879 0.929 1_556 S
H852 C880 0.929 . S
H853 C881 0.930 . S
H854 C882 1.025 . S
H855 C884 0.930 . S
H856 C861 0.930 . S
H857 C865 0.930 . S
O858 Co827 2.037 . S
O858 C878 1.234 . S
C859 O833 1.269 . S
C859 O834 1.257 . S
C860 H835 0.930 . S
C860 C863 1.388 . S
C860 C865 1.418 . S
C861 H856 0.930 . S
C861 C864 1.404 . S
C861 C865 1.353 . S
N862 Co827 2.145 . S
N862 C863 1.397 . S
N862 C864 1.334 . S
C863 H844 0.929 . S
C863 C860 1.388 . S
C863 N862 1.397 . S
C864 H845 0.929 . S
C864 C861 1.404 . S
C864 N862 1.334 . S
C865 H857 0.930 . S
C865 C860 1.418 . S
C865 C861 1.353 . S
C866 H836 0.930 . S
C866 N867 1.330 . S
C866 C868 1.446 . S
N867 Co826 2.151 . S
N867 C866 1.330 . S
N867 C871 1.418 . S
C868 H847 0.929 . S
C868 C866 1.446 . S
C868 C869 1.332 . S
C869 H849 0.931 . S
C869 C868 1.332 . S
C869 C870 1.267 . S
C870 H838 0.929 . S
C870 C869 1.267 . S
C870 C871 1.251 . S
C871 H841 0.929 . S
C871 N867 1.418 . S
C871 C870 1.251 . S
C872 H839 0.930 . S
C872 C874 1.406 . S
C872 C877 1.261 . S
C873 H840 0.930 . S
C873 N875 1.325 . S
C873 C876 1.357 . S
C874 H842 0.928 . S
C874 C872 1.406 . S
C874 N875 1.261 . S
N875 Co826 2.214 . S
N875 C873 1.325 . S
N875 C874 1.261 . S
C876 H846 0.931 . S
C876 C873 1.357 . S
C876 C877 1.312 . S
C877 H848 0.930 . S
C877 C872 1.261 . S
C877 C876 1.312 . S
C878 O850 1.214 . S
C878 O858 1.234 . S
C879 H851 0.929 1_554 S
C879 C882 1.371 1_554 S
C879 C884 1.391 . S
C880 H852 0.929 . S
C880 C881 1.390 . S
C880 N883 1.391 . S
C881 H853 0.930 . S
C881 C880 1.390 . S
C881 C882 1.322 1_554 S
C882 H854 1.025 . S
C882 C879 1.371 1_556 S
C882 C881 1.322 1_556 S
N883 Co827 2.257 . S
N883 C880 1.391 . S
N883 C884 1.388 . S
C884 H855 0.930 . S
C884 C879 1.391 . S
C884 N883 1.388 . S
Co885 O887 2.143 . S
Co885 O893 2.074 . S
Co885 O896 2.093 . S
Co885 O909 2.097 . S
Co885 N926 2.151 . S
Co885 N934 2.214 . S
Co886 O887 2.160 . S
Co886 O892 2.058 . S
Co886 O902 2.057 . S
Co886 O917 2.037 . S
Co886 N921 2.145 . S
Co886 N942 2.257 . S
O887 Co885 2.143 . S
O887 Co886 2.160 . S
C888 O889 1.278 . S
C888 O896 1.224 . S
O889 C888 1.278 . S
C890 O891 1.245 . S
C890 O902 1.232 . S
O891 C890 1.245 . S
O892 Co886 2.058 . S
O892 C918 1.269 . S
O893 Co885 2.074 . S
O893 C918 1.257 . S
H894 C919 0.930 . S
H895 C925 0.930 . S
O896 Co885 2.093 . S
O896 C888 1.224 . S
H897 C929 0.929 . S
H898 C931 0.930 . S
H899 C932 0.930 . S
H900 C930 0.929 . S
H901 C933 0.928 . S
O902 Co886 2.057 . S
O902 C890 1.232 . S
H903 C922 0.929 . S
H904 C923 0.929 . S
H905 C935 0.931 . S
H906 C927 0.929 . S
H907 C936 0.930 . S
H908 C928 0.931 . S
O909 Co885 2.097 . S
O909 C937 1.214 . S
H910 C938 0.929 . S
H911 C939 0.929 . S
H912 C940 0.930 . S
H913 C941 0.929 . S
H914 C943 0.930 . S
H915 C920 0.930 . S
H916 C924 0.930 . S
O917 Co886 2.037 . S
O917 C937 1.234 . S
C918 O892 1.269 . S
C918 O893 1.257 . S
C919 H894 0.930 . S
C919 C922 1.388 . S
C919 C924 1.418 . S
C920 H915 0.930 . S
C920 C923 1.404 . S
C920 C924 1.353 . S
N921 Co886 2.145 . S
N921 C922 1.397 . S
N921 C923 1.334 . S
C922 H903 0.929 . S
C922 C919 1.388 . S
C922 N921 1.397 . S
C923 H904 0.929 . S
C923 C920 1.404 . S
C923 N921 1.334 . S
C924 H916 0.930 . S
C924 C919 1.418 . S
C924 C920 1.353 . S
C925 H895 0.930 . S
C925 N926 1.330 . S
C925 C927 1.446 . S
N926 Co885 2.151 . S
N926 C925 1.330 . S
N926 C930 1.418 . S
C927 H906 0.929 . S
C927 C925 1.446 . S
C927 C928 1.332 . S
C928 H908 0.931 . S
C928 C927 1.332 . S
C928 C929 1.267 . S
C929 H897 0.929 . S
C929 C928 1.267 . S
C929 C930 1.251 . S
C930 H900 0.929 . S
C930 N926 1.418 . S
C930 C929 1.251 . S
C931 H898 0.930 . S
C931 C933 1.406 . S
C931 C936 1.261 . S
C932 H899 0.930 . S
C932 N934 1.325 . S
C932 C935 1.357 . S
C933 H901 0.928 . S
C933 C931 1.406 . S
C933 N934 1.261 . S
N934 Co885 2.214 . S
N934 C932 1.325 . S
N934 C933 1.261 . S
C935 H905 0.931 . S
C935 C932 1.357 . S
C935 C936 1.312 . S
C936 H907 0.930 . S
C936 C931 1.261 . S
C936 C935 1.312 . S
C937 O909 1.214 . S
C937 O917 1.234 . S
C938 H910 0.929 . S
C938 C941 1.391 . S
C938 C943 1.391 . S
C939 H911 0.929 . S
C939 C940 1.390 . S
C939 N942 1.391 . S
C940 H912 0.930 . S
C940 C939 1.390 . S
C940 C941 1.392 . S
C941 H913 0.929 . S
C941 C938 1.391 . S
C941 C940 1.392 . S
N942 Co886 2.257 . S
N942 C939 1.391 . S
N942 C943 1.388 . S
C943 H914 0.930 . S
C943 C938 1.391 . S
C943 N942 1.388 . S
Co944 O946 2.143 . S
Co944 O952 2.074 . S
Co944 O955 2.093 . S
Co944 O968 2.097 . S
Co944 N985 2.151 . S
Co944 N993 2.214 . S
Co945 O946 2.160 . S
Co945 O951 2.058 . S
Co945 O961 2.057 . S
Co945 O976 2.037 . S
Co945 N980 2.145 . S
Co945 N1001 2.257 . S
O946 Co944 2.143 . S
O946 Co945 2.160 . S
C947 O948 1.278 . S
C947 O955 1.224 . S
O948 C947 1.278 . S
C949 O950 1.245 . S
C949 O961 1.232 . S
O950 C949 1.245 . S
O951 Co945 2.058 . S
O951 C977 1.269 . S
O952 Co944 2.074 . S
O952 C977 1.257 . S
H953 C978 0.930 . S
H954 C984 0.930 . S
O955 Co944 2.093 . S
O955 C947 1.224 . S
H956 C988 0.929 . S
H957 C990 0.930 . S
H958 C991 0.930 . S
H959 C989 0.929 . S
H960 C992 0.928 . S
O961 Co945 2.057 . S
O961 C949 1.232 . S
H962 C981 0.929 . S
H963 C982 0.929 . S
H964 C994 0.931 . S
H965 C986 0.929 . S
H966 C995 0.930 . S
H967 C987 0.931 . S
O968 Co944 2.097 . S
O968 C996 1.214 . S
H969 C997 0.929 . S
H970 C998 0.929 . S
H971 C999 0.930 . S
H972 C1000 0.929 . S
H973 C1002 0.930 . S
H974 C979 0.930 . S
H975 C983 0.930 . S
O976 Co945 2.037 . S
O976 C996 1.234 . S
C977 O951 1.269 . S
C977 O952 1.257 . S
C978 H953 0.930 . S
C978 C981 1.388 . S
C978 C983 1.418 . S
C979 H974 0.930 . S
C979 C982 1.404 . S
C979 C983 1.353 . S
N980 Co945 2.145 . S
N980 C981 1.397 . S
N980 C982 1.334 . S
C981 H962 0.929 . S
C981 C978 1.388 . S
C981 N980 1.397 . S
C982 H963 0.929 . S
C982 C979 1.404 . S
C982 N980 1.334 . S
C983 H975 0.930 . S
C983 C978 1.418 . S
C983 C979 1.353 . S
C984 H954 0.930 . S
C984 N985 1.330 . S
C984 C986 1.446 . S
N985 Co944 2.151 . S
N985 C984 1.330 . S
N985 C989 1.418 . S
C986 H965 0.929 . S
C986 C984 1.446 . S
C986 C987 1.332 . S
C987 H967 0.931 . S
C987 C986 1.332 . S
C987 C988 1.267 . S
C988 H956 0.929 . S
C988 C987 1.267 . S
C988 C989 1.251 . S
C989 H959 0.929 . S
C989 N985 1.418 . S
C989 C988 1.251 . S
C990 H957 0.930 . S
C990 C992 1.406 . S
C990 C995 1.261 . S
C991 H958 0.930 . S
C991 N993 1.325 . S
C991 C994 1.357 . S
C992 H960 0.928 . S
C992 C990 1.406 . S
C992 N993 1.261 . S
N993 Co944 2.214 . S
N993 C991 1.325 . S
N993 C992 1.261 . S
C994 H964 0.931 . S
C994 C991 1.357 . S
C994 C995 1.312 . S
C995 H966 0.930 . S
C995 C990 1.261 . S
C995 C994 1.312 . S
C996 O968 1.214 . S
C996 O976 1.234 . S
C997 H969 0.929 . S
C997 C1000 1.391 . S
C997 C1002 1.391 . S
C998 H970 0.929 . S
C998 C999 1.390 . S
C998 N1001 1.391 . S
C999 H971 0.930 . S
C999 C998 1.390 . S
C999 C1000 1.392 . S
C1000 H972 0.929 . S
C1000 C997 1.391 . S
C1000 C999 1.392 . S
N1001 Co945 2.257 . S
N1001 C998 1.391 . S
N1001 C1002 1.388 . S
C1002 H973 0.930 . S
C1002 C997 1.391 . S
C1002 N1001 1.388 . S
Co1003 O1005 2.143 . S
Co1003 O1011 2.074 . S
Co1003 O1014 2.093 . S
Co1003 O1027 2.097 . S
Co1003 N1044 2.151 . S
Co1003 N1052 2.214 . S
Co1004 O1005 2.160 . S
Co1004 O1010 2.058 . S
Co1004 O1020 2.057 . S
Co1004 O1035 2.037 . S
Co1004 N1039 2.145 . S
Co1004 N1060 2.257 . S
O1005 Co1003 2.143 . S
O1005 Co1004 2.160 . S
C1006 O1007 1.278 . S
C1006 O1014 1.224 . S
O1007 C1006 1.278 . S
C1008 O1009 1.245 . S
C1008 O1020 1.232 . S
O1009 C1008 1.245 . S
O1010 Co1004 2.058 . S
O1010 C1036 1.269 . S
O1011 Co1003 2.074 . S
O1011 C1036 1.257 . S
H1012 C1037 0.930 . S
H1013 C1043 0.930 . S
O1014 Co1003 2.093 . S
O1014 C1006 1.224 . S
H1015 C1047 0.929 . S
H1016 C1049 0.930 . S
H1017 C1050 0.930 . S
H1018 C1048 0.929 . S
H1019 C1051 0.928 . S
O1020 Co1004 2.057 . S
O1020 C1008 1.232 . S
H1021 C1040 0.929 . S
H1022 C1041 0.929 . S
H1023 C1053 0.931 . S
H1024 C1045 0.929 . S
H1025 C1054 0.930 . S
H1026 C1046 0.931 . S
O1027 Co1003 2.097 . S
O1027 C1055 1.214 . S
H1028 C1056 0.929 . S
H1029 C1057 0.929 . S
H1030 C1058 0.930 . S
H1031 C1059 0.929 . S
H1032 C1061 0.930 . S
H1033 C1038 0.930 . S
H1034 C1042 0.930 . S
O1035 Co1004 2.037 . S
O1035 C1055 1.234 . S
C1036 O1010 1.269 . S
C1036 O1011 1.257 . S
C1037 H1012 0.930 . S
C1037 C1040 1.388 . S
C1037 C1042 1.418 . S
C1038 H1033 0.930 . S
C1038 C1041 1.404 . S
C1038 C1042 1.353 . S
N1039 Co1004 2.145 . S
N1039 C1040 1.397 . S
N1039 C1041 1.334 . S
C1040 H1021 0.929 . S
C1040 C1037 1.388 . S
C1040 N1039 1.397 . S
C1041 H1022 0.929 . S
C1041 C1038 1.404 . S
C1041 N1039 1.334 . S
C1042 H1034 0.930 . S
C1042 C1037 1.418 . S
C1042 C1038 1.353 . S
C1043 H1013 0.930 . S
C1043 N1044 1.330 . S
C1043 C1045 1.446 . S
N1044 Co1003 2.151 . S
N1044 C1043 1.330 . S
N1044 C1048 1.418 . S
C1045 H1024 0.929 . S
C1045 C1043 1.446 . S
C1045 C1046 1.332 . S
C1046 H1026 0.931 . S
C1046 C1045 1.332 . S
C1046 C1047 1.267 . S
C1047 H1015 0.929 . S
C1047 C1046 1.267 . S
C1047 C1048 1.251 . S
C1048 H1018 0.929 . S
C1048 N1044 1.418 . S
C1048 C1047 1.251 . S
C1049 H1016 0.930 . S
C1049 C1051 1.406 . S
C1049 C1054 1.261 . S
C1050 H1017 0.930 . S
C1050 N1052 1.325 . S
C1050 C1053 1.357 . S
C1051 H1019 0.928 . S
C1051 C1049 1.406 . S
C1051 N1052 1.261 . S
N1052 Co1003 2.214 . S
N1052 C1050 1.325 . S
N1052 C1051 1.261 . S
C1053 H1023 0.931 . S
C1053 C1050 1.357 . S
C1053 C1054 1.312 . S
C1054 H1025 0.930 . S
C1054 C1049 1.261 . S
C1054 C1053 1.312 . S
C1055 O1027 1.214 . S
C1055 O1035 1.234 . S
C1056 H1028 0.929 . S
C1056 C1059 1.391 . S
C1056 C1061 1.391 . S
C1057 H1029 0.929 . S
C1057 C1058 1.390 . S
C1057 N1060 1.391 . S
C1058 H1030 0.930 . S
C1058 C1057 1.390 . S
C1058 C1059 1.392 . S
C1059 H1031 0.929 . S
C1059 C1056 1.391 . S
C1059 C1058 1.392 . S
N1060 Co1004 2.257 . S
N1060 C1057 1.391 . S
N1060 C1061 1.388 . S
C1061 H1032 0.930 . S
C1061 C1056 1.391 . S
C1061 N1060 1.388 . S
Co1062 O1064 2.143 . S
Co1062 O1070 2.074 . S
Co1062 O1073 2.093 . S
Co1062 O1086 2.097 . S
Co1062 N1103 2.151 . S
Co1062 N1111 2.214 . S
Co1063 O1064 2.160 . S
Co1063 O1069 2.058 . S
Co1063 O1079 2.057 . S
Co1063 O1094 2.037 . S
Co1063 N1098 2.145 . S
Co1063 N1119 2.257 . S
O1064 Co1062 2.143 . S
O1064 Co1063 2.160 . S
C1065 O1066 1.278 . S
C1065 O1073 1.224 . S
O1066 C1065 1.278 . S
C1067 O1068 1.245 . S
C1067 O1079 1.232 . S
O1068 C1067 1.245 . S
O1069 Co1063 2.058 . S
O1069 C1095 1.269 . S
O1070 Co1062 2.074 . S
O1070 C1095 1.257 . S
H1071 C1096 0.930 . S
H1072 C1102 0.930 . S
O1073 Co1062 2.093 . S
O1073 C1065 1.224 . S
H1074 C1106 0.929 . S
H1075 C1108 0.930 . S
H1076 C1109 0.930 . S
H1077 C1107 0.929 . S
H1078 C1110 0.928 . S
O1079 Co1063 2.057 . S
O1079 C1067 1.232 . S
H1080 C1099 0.929 . S
H1081 C1100 0.929 . S
H1082 C1112 0.931 . S
H1083 C1104 0.929 . S
H1084 C1113 0.929 1_455 S
H1085 C1105 0.931 . S
O1086 Co1062 2.097 . S
O1086 C1114 1.214 . S
H1087 C1115 0.929 1_556 S
H1088 C1116 0.929 . S
H1089 C1117 0.930 . S
H1090 C1118 1.025 . S
H1091 C1120 0.930 . S
H1092 C1097 0.930 . S
H1093 C1101 0.930 . S
O1094 Co1063 2.037 . S
O1094 C1114 1.234 . S
C1095 O1069 1.269 . S
C1095 O1070 1.257 . S
C1096 H1071 0.930 . S
C1096 C1099 1.388 . S
C1096 C1101 1.418 . S
C1097 H1092 0.930 . S
C1097 C1100 1.404 . S
C1097 C1101 1.353 . S
N1098 Co1063 2.145 . S
N1098 C1099 1.397 . S
N1098 C1100 1.334 . S
C1099 H1080 0.929 . S
C1099 C1096 1.388 . S
C1099 N1098 1.397 . S
C1100 H1081 0.929 . S
C1100 C1097 1.404 . S
C1100 N1098 1.334 . S
C1101 H1093 0.930 . S
C1101 C1096 1.418 . S
C1101 C1097 1.353 . S
C1102 H1072 0.930 . S
C1102 N1103 1.330 . S
C1102 C1104 1.446 . S
N1103 Co1062 2.151 . S
N1103 C1102 1.330 . S
N1103 C1107 1.418 . S
C1104 H1083 0.929 . S
C1104 C1102 1.446 . S
C1104 C1105 1.332 . S
C1105 H1085 0.931 . S
C1105 C1104 1.332 . S
C1105 C1106 1.267 . S
C1106 H1074 0.929 . S
C1106 C1105 1.267 . S
C1106 C1107 1.251 . S
C1107 H1077 0.929 . S
C1107 N1103 1.418 . S
C1107 C1106 1.251 . S
C1108 H1075 0.930 . S
C1108 C1110 1.406 . S
C1108 C1113 1.261 . S
C1109 H1076 0.930 . S
C1109 N1111 1.325 . S
C1109 C1112 1.357 . S
C1110 H1078 0.928 . S
C1110 C1108 1.406 . S
C1110 N1111 1.261 . S
N1111 Co1062 2.214 . S
N1111 C1109 1.325 . S
N1111 C1110 1.261 . S
C1112 H1082 0.931 . S
C1112 C1109 1.357 . S
C1112 C1113 1.312 . S
C1113 H1084 0.929 1_655 S
C1113 C1108 1.261 . S
C1113 C1112 1.312 . S
C1114 O1086 1.214 . S
C1114 O1094 1.234 . S
C1115 H1087 0.929 1_554 S
C1115 C1118 1.371 1_554 S
C1115 C1120 1.391 . S
C1116 H1088 0.929 . S
C1116 C1117 1.390 . S
C1116 N1119 1.391 . S
C1117 H1089 0.930 . S
C1117 C1116 1.390 . S
C1117 C1118 1.322 1_554 S
C1118 H1090 1.025 . S
C1118 C1115 1.371 1_556 S
C1118 C1117 1.322 1_556 S
N1119 Co1063 2.257 . S
N1119 C1116 1.391 . S
N1119 C1120 1.388 . S
C1120 H1091 0.930 . S
C1120 C1115 1.391 . S
C1120 N1119 1.388 . S
Co1121 O1123 2.143 . S
Co1121 O1129 2.074 . S
Co1121 O1132 2.093 . S
Co1121 O1145 2.097 . S
Co1121 N1162 2.151 . S
Co1121 N1170 2.214 . S
Co1122 O1123 2.160 . S
Co1122 O1128 2.058 . S
Co1122 O1138 2.057 . S
Co1122 O1153 2.037 . S
Co1122 N1157 2.145 . S
Co1122 N1178 2.257 . S
O1123 Co1121 2.143 . S
O1123 Co1122 2.160 . S
C1124 O1125 1.278 . S
C1124 O1132 1.224 . S
O1125 C1124 1.278 . S
C1126 O1127 1.245 . S
C1126 O1138 1.232 . S
O1127 C1126 1.245 . S
O1128 Co1122 2.058 . S
O1128 C1154 1.269 . S
O1129 Co1121 2.074 . S
O1129 C1154 1.257 . S
H1130 C1155 0.930 . S
H1131 C1161 0.930 . S
O1132 Co1121 2.093 . S
O1132 C1124 1.224 . S
H1133 C1165 0.929 . S
H1134 C1167 0.930 . S
H1135 C1168 0.930 . S
H1136 C1166 0.929 . S
H1137 C1169 0.928 . S
O1138 Co1122 2.057 . S
O1138 C1126 1.232 . S
H1139 C1158 0.929 . S
H1140 C1159 0.929 . S
H1141 C1171 0.931 . S
H1142 C1163 0.929 . S
H1143 C1172 0.930 . S
H1144 C1164 0.931 . S
O1145 Co1121 2.097 . S
O1145 C1173 1.214 . S
H1146 C1174 0.929 . S
H1147 C1175 0.929 . S
H1148 C1176 0.930 . S
H1149 C1177 0.929 . S
H1150 C1179 0.930 . S
H1151 C1156 0.930 . S
H1152 C1160 0.930 . S
O1153 Co1122 2.037 . S
O1153 C1173 1.234 . S
C1154 O1128 1.269 . S
C1154 O1129 1.257 . S
C1155 H1130 0.930 . S
C1155 C1158 1.388 . S
C1155 C1160 1.418 . S
C1156 H1151 0.930 . S
C1156 C1159 1.404 . S
C1156 C1160 1.353 . S
N1157 Co1122 2.145 . S
N1157 C1158 1.397 . S
N1157 C1159 1.334 . S
C1158 H1139 0.929 . S
C1158 C1155 1.388 . S
C1158 N1157 1.397 . S
C1159 H1140 0.929 . S
C1159 C1156 1.404 . S
C1159 N1157 1.334 . S
C1160 H1152 0.930 . S
C1160 C1155 1.418 . S
C1160 C1156 1.353 . S
C1161 H1131 0.930 . S
C1161 N1162 1.330 . S
C1161 C1163 1.446 . S
N1162 Co1121 2.151 . S
N1162 C1161 1.330 . S
N1162 C1166 1.418 . S
C1163 H1142 0.929 . S
C1163 C1161 1.446 . S
C1163 C1164 1.332 . S
C1164 H1144 0.931 . S
C1164 C1163 1.332 . S
C1164 C1165 1.267 . S
C1165 H1133 0.929 . S
C1165 C1164 1.267 . S
C1165 C1166 1.251 . S
C1166 H1136 0.929 . S
C1166 N1162 1.418 . S
C1166 C1165 1.251 . S
C1167 H1134 0.930 . S
C1167 C1169 1.406 . S
C1167 C1172 1.261 . S
C1168 H1135 0.930 . S
C1168 N1170 1.325 . S
C1168 C1171 1.357 . S
C1169 H1137 0.928 . S
C1169 C1167 1.406 . S
C1169 N1170 1.261 . S
N1170 Co1121 2.214 . S
N1170 C1168 1.325 . S
N1170 C1169 1.261 . S
C1171 H1141 0.931 . S
C1171 C1168 1.357 . S
C1171 C1172 1.312 . S
C1172 H1143 0.930 . S
C1172 C1167 1.261 . S
C1172 C1171 1.312 . S
C1173 O1145 1.214 . S
C1173 O1153 1.234 . S
C1174 H1146 0.929 . S
C1174 C1177 1.391 . S
C1174 C1179 1.391 . S
C1175 H1147 0.929 . S
C1175 C1176 1.390 . S
C1175 N1178 1.391 . S
C1176 H1148 0.930 . S
C1176 C1175 1.390 . S
C1176 C1177 1.392 . S
C1177 H1149 0.929 . S
C1177 C1174 1.391 . S
C1177 C1176 1.392 . S
N1178 Co1122 2.257 . S
N1178 C1175 1.391 . S
N1178 C1179 1.388 . S
C1179 H1150 0.930 . S
C1179 C1174 1.391 . S
C1179 N1178 1.388 . S
Co1180 O1182 2.143 . S
Co1180 O1188 2.074 . S
Co1180 O1191 2.093 . S
Co1180 O1204 2.097 . S
Co1180 N1221 2.151 . S
Co1180 N1229 2.214 . S
Co1181 O1182 2.160 . S
Co1181 O1187 2.058 . S
Co1181 O1197 2.057 . S
Co1181 O1212 2.037 . S
Co1181 N1216 2.145 . S
Co1181 N1237 2.257 . S
O1182 Co1180 2.143 . S
O1182 Co1181 2.160 . S
C1183 O1184 1.278 . S
C1183 O1191 1.224 . S
O1184 C1183 1.278 . S
C1185 O1186 1.245 . S
C1185 O1197 1.232 . S
O1186 C1185 1.245 . S
O1187 Co1181 2.058 . S
O1187 C1213 1.269 . S
O1188 Co1180 2.074 . S
O1188 C1213 1.257 . S
H1189 C1214 0.930 . S
H1190 C1220 0.930 . S
O1191 Co1180 2.093 . S
O1191 C1183 1.224 . S
H1192 C1224 0.929 . S
H1193 C1226 0.930 . S
H1194 C1227 0.930 . S
H1195 C1225 0.929 . S
H1196 C1228 0.928 . S
O1197 Co1181 2.057 . S
O1197 C1185 1.232 . S
H1198 C1217 0.929 . S
H1199 C1218 0.929 . S
H1200 C1230 0.931 . S
H1201 C1222 0.929 . S
H1202 C1231 0.930 . S
H1203 C1223 0.931 . S
O1204 Co1180 2.097 . S
O1204 C1232 1.214 . S
H1205 C1233 0.929 1_554 S
H1206 C1234 0.929 . S
H1207 C1235 0.930 . S
H1208 C1236 1.025 . S
H1209 C1238 0.930 . S
H1210 C1215 0.930 . S
H1211 C1219 0.930 . S
O1212 Co1181 2.037 . S
O1212 C1232 1.234 . S
C1213 O1187 1.269 . S
C1213 O1188 1.257 . S
C1214 H1189 0.930 . S
C1214 C1217 1.388 . S
C1214 C1219 1.418 . S
C1215 H1210 0.930 . S
C1215 C1218 1.404 . S
C1215 C1219 1.353 . S
N1216 Co1181 2.145 . S
N1216 C1217 1.397 . S
N1216 C1218 1.334 . S
C1217 H1198 0.929 . S
C1217 C1214 1.388 . S
C1217 N1216 1.397 . S
C1218 H1199 0.929 . S
C1218 C1215 1.404 . S
C1218 N1216 1.334 . S
C1219 H1211 0.930 . S
C1219 C1214 1.418 . S
C1219 C1215 1.353 . S
C1220 H1190 0.930 . S
C1220 N1221 1.330 . S
C1220 C1222 1.446 . S
N1221 Co1180 2.151 . S
N1221 C1220 1.330 . S
N1221 C1225 1.418 . S
C1222 H1201 0.929 . S
C1222 C1220 1.446 . S
C1222 C1223 1.332 . S
C1223 H1203 0.931 . S
C1223 C1222 1.332 . S
C1223 C1224 1.267 . S
C1224 H1192 0.929 . S
C1224 C1223 1.267 . S
C1224 C1225 1.251 . S
C1225 H1195 0.929 . S
C1225 N1221 1.418 . S
C1225 C1224 1.251 . S
C1226 H1193 0.930 . S
C1226 C1228 1.406 . S
C1226 C1231 1.261 . S
C1227 H1194 0.930 . S
C1227 N1229 1.325 . S
C1227 C1230 1.357 . S
C1228 H1196 0.928 . S
C1228 C1226 1.406 . S
C1228 N1229 1.261 . S
N1229 Co1180 2.214 . S
N1229 C1227 1.325 . S
N1229 C1228 1.261 . S
C1230 H1200 0.931 . S
C1230 C1227 1.357 . S
C1230 C1231 1.312 . S
C1231 H1202 0.930 . S
C1231 C1226 1.261 . S
C1231 C1230 1.312 . S
C1232 O1204 1.214 . S
C1232 O1212 1.234 . S
C1233 H1205 0.929 1_556 S
C1233 C1236 1.371 1_556 S
C1233 C1238 1.391 . S
C1234 H1206 0.929 . S
C1234 C1235 1.390 . S
C1234 N1237 1.391 . S
C1235 H1207 0.930 . S
C1235 C1234 1.390 . S
C1235 C1236 1.322 1_556 S
C1236 H1208 1.025 . S
C1236 C1233 1.371 1_554 S
C1236 C1235 1.322 1_554 S
N1237 Co1181 2.257 . S
N1237 C1234 1.391 . S
N1237 C1238 1.388 . S
C1238 H1209 0.930 . S
C1238 C1233 1.391 . S
C1238 N1237 1.388 . S
Co1239 O1241 2.143 . S
Co1239 O1247 2.074 . S
Co1239 O1250 2.093 . S
Co1239 O1263 2.097 . S
Co1239 N1280 2.151 . S
Co1239 N1288 2.214 . S
Co1240 O1241 2.160 . S
Co1240 O1246 2.058 . S
Co1240 O1256 2.057 . S
Co1240 O1271 2.037 . S
Co1240 N1275 2.145 . S
Co1240 N1296 2.257 . S
O1241 Co1239 2.143 . S
O1241 Co1240 2.160 . S
C1242 O1243 1.278 . S
C1242 O1250 1.224 . S
O1243 C1242 1.278 . S
C1244 O1245 1.245 . S
C1244 O1256 1.232 . S
O1245 C1244 1.245 . S
O1246 Co1240 2.058 . S
O1246 C1272 1.269 . S
O1247 Co1239 2.074 . S
O1247 C1272 1.257 . S
H1248 C1273 0.930 . S
H1249 C1279 0.930 . S
O1250 Co1239 2.093 . S
O1250 C1242 1.224 . S
H1251 C1283 0.929 . S
H1252 C1285 0.930 . S
H1253 C1286 0.930 . S
H1254 C1284 0.929 . S
H1255 C1287 0.928 . S
O1256 Co1240 2.057 . S
O1256 C1244 1.232 . S
H1257 C1276 0.929 . S
H1258 C1277 0.929 . S
H1259 C1289 0.931 . S
H1260 C1281 0.929 . S
H1261 C1290 0.930 . S
H1262 C1282 0.931 . S
O1263 Co1239 2.097 . S
O1263 C1291 1.214 . S
H1264 C1292 0.929 . S
H1265 C1293 0.929 . S
H1266 C1294 0.930 . S
H1267 C1295 0.929 . S
H1268 C1297 0.930 . S
H1269 C1274 0.930 . S
H1270 C1278 0.930 . S
O1271 Co1240 2.037 . S
O1271 C1291 1.234 . S
C1272 O1246 1.269 . S
C1272 O1247 1.257 . S
C1273 H1248 0.930 . S
C1273 C1276 1.388 . S
C1273 C1278 1.418 . S
C1274 H1269 0.930 . S
C1274 C1277 1.404 . S
C1274 C1278 1.353 . S
N1275 Co1240 2.145 . S
N1275 C1276 1.397 . S
N1275 C1277 1.334 . S
C1276 H1257 0.929 . S
C1276 C1273 1.388 . S
C1276 N1275 1.397 . S
C1277 H1258 0.929 . S
C1277 C1274 1.404 . S
C1277 N1275 1.334 . S
C1278 H1270 0.930 . S
C1278 C1273 1.418 . S
C1278 C1274 1.353 . S
C1279 H1249 0.930 . S
C1279 N1280 1.330 . S
C1279 C1281 1.446 . S
N1280 Co1239 2.151 . S
N1280 C1279 1.330 . S
N1280 C1284 1.418 . S
C1281 H1260 0.929 . S
C1281 C1279 1.446 . S
C1281 C1282 1.332 . S
C1282 H1262 0.931 . S
C1282 C1281 1.332 . S
C1282 C1283 1.267 . S
C1283 H1251 0.929 . S
C1283 C1282 1.267 . S
C1283 C1284 1.251 . S
C1284 H1254 0.929 . S
C1284 N1280 1.418 . S
C1284 C1283 1.251 . S
C1285 H1252 0.930 . S
C1285 C1287 1.406 . S
C1285 C1290 1.261 . S
C1286 H1253 0.930 . S
C1286 N1288 1.325 . S
C1286 C1289 1.357 . S
C1287 H1255 0.928 . S
C1287 C1285 1.406 . S
C1287 N1288 1.261 . S
N1288 Co1239 2.214 . S
N1288 C1286 1.325 . S
N1288 C1287 1.261 . S
C1289 H1259 0.931 . S
C1289 C1286 1.357 . S
C1289 C1290 1.312 . S
C1290 H1261 0.930 . S
C1290 C1285 1.261 . S
C1290 C1289 1.312 . S
C1291 O1263 1.214 . S
C1291 O1271 1.234 . S
C1292 H1264 0.929 . S
C1292 C1295 1.391 . S
C1292 C1297 1.391 . S
C1293 H1265 0.929 . S
C1293 C1294 1.390 . S
C1293 N1296 1.391 . S
C1294 H1266 0.930 . S
C1294 C1293 1.390 . S
C1294 C1295 1.392 . S
C1295 H1267 0.929 . S
C1295 C1292 1.391 . S
C1295 C1294 1.392 . S
N1296 Co1240 2.257 . S
N1296 C1293 1.391 . S
N1296 C1297 1.388 . S
C1297 H1268 0.930 . S
C1297 C1292 1.391 . S
C1297 N1296 1.388 . S
Co1298 O1300 2.143 . S
Co1298 O1306 2.074 . S
Co1298 O1309 2.093 . S
Co1298 O1322 2.097 . S
Co1298 N1339 2.151 . S
Co1298 N1347 2.214 . S
Co1299 O1300 2.160 . S
Co1299 O1305 2.058 . S
Co1299 O1315 2.057 . S
Co1299 O1330 2.037 . S
Co1299 N1334 2.145 . S
Co1299 N1355 2.257 . S
O1300 Co1298 2.143 . S
O1300 Co1299 2.160 . S
C1301 O1302 1.278 . S
C1301 O1309 1.224 . S
O1302 C1301 1.278 . S
C1303 O1304 1.245 . S
C1303 O1315 1.232 . S
O1304 C1303 1.245 . S
O1305 Co1299 2.058 . S
O1305 C1331 1.269 . S
O1306 Co1298 2.074 . S
O1306 C1331 1.257 . S
H1307 C1332 0.930 . S
H1308 C1338 0.930 . S
O1309 Co1298 2.093 . S
O1309 C1301 1.224 . S
H1310 C1342 0.929 . S
H1311 C1344 0.930 . S
H1312 C1345 0.930 . S
H1313 C1343 0.929 . S
H1314 C1346 0.928 . S
O1315 Co1299 2.057 . S
O1315 C1303 1.232 . S
H1316 C1335 0.929 . S
H1317 C1336 0.929 . S
H1318 C1348 0.931 . S
H1319 C1340 0.929 . S
H1320 C1349 0.929 1_455 S
H1321 C1341 0.931 . S
O1322 Co1298 2.097 . S
O1322 C1350 1.214 . S
H1323 C1351 0.929 . S
H1324 C1352 0.929 . S
H1325 C1353 0.930 . S
H1326 C1354 0.929 . S
H1327 C1356 0.930 . S
H1328 C1333 0.930 . S
H1329 C1337 0.930 . S
O1330 Co1299 2.037 . S
O1330 C1350 1.234 . S
C1331 O1305 1.269 . S
C1331 O1306 1.257 . S
C1332 H1307 0.930 . S
C1332 C1335 1.388 . S
C1332 C1337 1.418 . S
C1333 H1328 0.930 . S
C1333 C1336 1.404 . S
C1333 C1337 1.353 . S
N1334 Co1299 2.145 . S
N1334 C1335 1.397 . S
N1334 C1336 1.334 . S
C1335 H1316 0.929 . S
C1335 C1332 1.388 . S
C1335 N1334 1.397 . S
C1336 H1317 0.929 . S
C1336 C1333 1.404 . S
C1336 N1334 1.334 . S
C1337 H1329 0.930 . S
C1337 C1332 1.418 . S
C1337 C1333 1.353 . S
C1338 H1308 0.930 . S
C1338 N1339 1.330 . S
C1338 C1340 1.446 . S
N1339 Co1298 2.151 . S
N1339 C1338 1.330 . S
N1339 C1343 1.418 . S
C1340 H1319 0.929 . S
C1340 C1338 1.446 . S
C1340 C1341 1.332 . S
C1341 H1321 0.931 . S
C1341 C1340 1.332 . S
C1341 C1342 1.267 . S
C1342 H1310 0.929 . S
C1342 C1341 1.267 . S
C1342 C1343 1.251 . S
C1343 H1313 0.929 . S
C1343 N1339 1.418 . S
C1343 C1342 1.251 . S
C1344 H1311 0.930 . S
C1344 C1346 1.406 . S
C1344 C1349 1.261 . S
C1345 H1312 0.930 . S
C1345 N1347 1.325 . S
C1345 C1348 1.357 . S
C1346 H1314 0.928 . S
C1346 C1344 1.406 . S
C1346 N1347 1.261 . S
N1347 Co1298 2.214 . S
N1347 C1345 1.325 . S
N1347 C1346 1.261 . S
C1348 H1318 0.931 . S
C1348 C1345 1.357 . S
C1348 C1349 1.312 . S
C1349 H1320 0.929 1_655 S
C1349 C1344 1.261 . S
C1349 C1348 1.312 . S
C1350 O1322 1.214 . S
C1350 O1330 1.234 . S
C1351 H1323 0.929 . S
C1351 C1354 1.391 . S
C1351 C1356 1.391 . S
C1352 H1324 0.929 . S
C1352 C1353 1.390 . S
C1352 N1355 1.391 . S
C1353 H1325 0.930 . S
C1353 C1352 1.390 . S
C1353 C1354 1.392 . S
C1354 H1326 0.929 . S
C1354 C1351 1.391 . S
C1354 C1353 1.392 . S
N1355 Co1299 2.257 . S
N1355 C1352 1.391 . S
N1355 C1356 1.388 . S
C1356 H1327 0.930 . S
C1356 C1351 1.391 . S
C1356 N1355 1.388 . S
Co1357 O1359 2.143 . S
Co1357 O1365 2.074 . S
Co1357 O1368 2.093 . S
Co1357 O1381 2.097 . S
Co1357 N1398 2.151 . S
Co1357 N1406 2.214 . S
Co1358 O1359 2.160 . S
Co1358 O1364 2.058 . S
Co1358 O1374 2.057 . S
Co1358 O1389 2.037 . S
Co1358 N1393 2.145 . S
Co1358 N1414 2.257 . S
O1359 Co1357 2.143 . S
O1359 Co1358 2.160 . S
C1360 O1361 1.278 . S
C1360 O1368 1.224 . S
O1361 C1360 1.278 . S
C1362 O1363 1.245 . S
C1362 O1374 1.232 . S
O1363 C1362 1.245 . S
O1364 Co1358 2.058 . S
O1364 C1390 1.269 . S
O1365 Co1357 2.074 . S
O1365 C1390 1.257 . S
H1366 C1391 0.930 . S
H1367 C1397 0.930 . S
O1368 Co1357 2.093 . S
O1368 C1360 1.224 . S
H1369 C1401 0.929 . S
H1370 C1403 0.930 . S
H1371 C1404 0.930 . S
H1372 C1402 0.929 . S
H1373 C1405 0.928 . S
O1374 Co1358 2.057 . S
O1374 C1362 1.232 . S
H1375 C1394 0.929 . S
H1376 C1395 0.929 . S
H1377 C1407 0.931 . S
H1378 C1399 0.929 . S
H1379 C1408 0.930 . S
H1380 C1400 0.931 . S
O1381 Co1357 2.097 . S
O1381 C1409 1.214 . S
H1382 C1410 0.929 . S
H1383 C1411 0.929 . S
H1384 C1412 0.930 . S
H1385 C1413 0.929 . S
H1386 C1415 0.930 . S
H1387 C1392 0.930 . S
H1388 C1396 0.930 . S
O1389 Co1358 2.037 . S
O1389 C1409 1.234 . S
C1390 O1364 1.269 . S
C1390 O1365 1.257 . S
C1391 H1366 0.930 . S
C1391 C1394 1.388 . S
C1391 C1396 1.418 . S
C1392 H1387 0.930 . S
C1392 C1395 1.404 . S
C1392 C1396 1.353 . S
N1393 Co1358 2.145 . S
N1393 C1394 1.397 . S
N1393 C1395 1.334 . S
C1394 H1375 0.929 . S
C1394 C1391 1.388 . S
C1394 N1393 1.397 . S
C1395 H1376 0.929 . S
C1395 C1392 1.404 . S
C1395 N1393 1.334 . S
C1396 H1388 0.930 . S
C1396 C1391 1.418 . S
C1396 C1392 1.353 . S
C1397 H1367 0.930 . S
C1397 N1398 1.330 . S
C1397 C1399 1.446 . S
N1398 Co1357 2.151 . S
N1398 C1397 1.330 . S
N1398 C1402 1.418 . S
C1399 H1378 0.929 . S
C1399 C1397 1.446 . S
C1399 C1400 1.332 . S
C1400 H1380 0.931 . S
C1400 C1399 1.332 . S
C1400 C1401 1.267 . S
C1401 H1369 0.929 . S
C1401 C1400 1.267 . S
C1401 C1402 1.251 . S
C1402 H1372 0.929 . S
C1402 N1398 1.418 . S
C1402 C1401 1.251 . S
C1403 H1370 0.930 . S
C1403 C1405 1.406 . S
C1403 C1408 1.261 . S
C1404 H1371 0.930 . S
C1404 N1406 1.325 . S
C1404 C1407 1.357 . S
C1405 H1373 0.928 . S
C1405 C1403 1.406 . S
C1405 N1406 1.261 . S
N1406 Co1357 2.214 . S
N1406 C1404 1.325 . S
N1406 C1405 1.261 . S
C1407 H1377 0.931 . S
C1407 C1404 1.357 . S
C1407 C1408 1.312 . S
C1408 H1379 0.930 . S
C1408 C1403 1.261 . S
C1408 C1407 1.312 . S
C1409 O1381 1.214 . S
C1409 O1389 1.234 . S
C1410 H1382 0.929 . S
C1410 C1413 1.391 . S
C1410 C1415 1.391 . S
C1411 H1383 0.929 . S
C1411 C1412 1.390 . S
C1411 N1414 1.391 . S
C1412 H1384 0.930 . S
C1412 C1411 1.390 . S
C1412 C1413 1.392 . S
C1413 H1385 0.929 . S
C1413 C1410 1.391 . S
C1413 C1412 1.392 . S
N1414 Co1358 2.257 . S
N1414 C1411 1.391 . S
N1414 C1415 1.388 . S
C1415 H1386 0.930 . S
C1415 C1410 1.391 . S
C1415 N1414 1.388 . S
Co1416 O1418 2.143 . S
Co1416 O1424 2.074 . S
Co1416 O1427 2.093 . S
Co1416 O1440 2.097 . S
Co1416 N1457 2.151 . S
Co1416 N1465 2.214 . S
Co1417 O1418 2.160 . S
Co1417 O1423 2.058 . S
Co1417 O1433 2.057 . S
Co1417 O1448 2.037 . S
Co1417 N1452 2.145 . S
Co1417 N1473 2.257 . S
O1418 Co1416 2.143 . S
O1418 Co1417 2.160 . S
C1419 O1420 1.278 . S
C1419 O1427 1.224 . S
O1420 C1419 1.278 . S
C1421 O1422 1.245 . S
C1421 O1433 1.232 . S
O1422 C1421 1.245 . S
O1423 Co1417 2.058 . S
O1423 C1449 1.269 . S
O1424 Co1416 2.074 . S
O1424 C1449 1.257 . S
H1425 C1450 0.930 . S
H1426 C1456 0.930 . S
O1427 Co1416 2.093 . S
O1427 C1419 1.224 . S
H1428 C1460 0.929 . S
H1429 C1462 0.930 . S
H1430 C1463 0.930 . S
H1431 C1461 0.929 . S
H1432 C1464 0.928 . S
O1433 Co1417 2.057 . S
O1433 C1421 1.232 . S
H1434 C1453 0.929 . S
H1435 C1454 0.929 . S
H1436 C1466 0.931 . S
H1437 C1458 0.929 . S
H1438 C1467 0.930 . S
H1439 C1459 0.931 . S
O1440 Co1416 2.097 . S
O1440 C1468 1.214 . S
H1441 C1469 0.929 . S
H1442 C1470 0.929 . S
H1443 C1471 0.930 . S
H1444 C1472 0.929 . S
H1445 C1474 0.930 . S
H1446 C1451 0.930 . S
H1447 C1455 0.930 . S
O1448 Co1417 2.037 . S
O1448 C1468 1.234 . S
C1449 O1423 1.269 . S
C1449 O1424 1.257 . S
C1450 H1425 0.930 . S
C1450 C1453 1.388 . S
C1450 C1455 1.418 . S
C1451 H1446 0.930 . S
C1451 C1454 1.404 . S
C1451 C1455 1.353 . S
N1452 Co1417 2.145 . S
N1452 C1453 1.397 . S
N1452 C1454 1.334 . S
C1453 H1434 0.929 . S
C1453 C1450 1.388 . S
C1453 N1452 1.397 . S
C1454 H1435 0.929 . S
C1454 C1451 1.404 . S
C1454 N1452 1.334 . S
C1455 H1447 0.930 . S
C1455 C1450 1.418 . S
C1455 C1451 1.353 . S
C1456 H1426 0.930 . S
C1456 N1457 1.330 . S
C1456 C1458 1.446 . S
N1457 Co1416 2.151 . S
N1457 C1456 1.330 . S
N1457 C1461 1.418 . S
C1458 H1437 0.929 . S
C1458 C1456 1.446 . S
C1458 C1459 1.332 . S
C1459 H1439 0.931 . S
C1459 C1458 1.332 . S
C1459 C1460 1.267 . S
C1460 H1428 0.929 . S
C1460 C1459 1.267 . S
C1460 C1461 1.251 . S
C1461 H1431 0.929 . S
C1461 N1457 1.418 . S
C1461 C1460 1.251 . S
C1462 H1429 0.930 . S
C1462 C1464 1.406 . S
C1462 C1467 1.261 . S
C1463 H1430 0.930 . S
C1463 N1465 1.325 . S
C1463 C1466 1.357 . S
C1464 H1432 0.928 . S
C1464 C1462 1.406 . S
C1464 N1465 1.261 . S
N1465 Co1416 2.214 . S
N1465 C1463 1.325 . S
N1465 C1464 1.261 . S
C1466 H1436 0.931 . S
C1466 C1463 1.357 . S
C1466 C1467 1.312 . S
C1467 H1438 0.930 . S
C1467 C1462 1.261 . S
C1467 C1466 1.312 . S
C1468 O1440 1.214 . S
C1468 O1448 1.234 . S
C1469 H1441 0.929 . S
C1469 C1472 1.391 . S
C1469 C1474 1.391 . S
C1470 H1442 0.929 . S
C1470 C1471 1.390 . S
C1470 N1473 1.391 . S
C1471 H1443 0.930 . S
C1471 C1470 1.390 . S
C1471 C1472 1.392 . S
C1472 H1444 0.929 . S
C1472 C1469 1.391 . S
C1472 C1471 1.392 . S
N1473 Co1417 2.257 . S
N1473 C1470 1.391 . S
N1473 C1474 1.388 . S
C1474 H1445 0.930 . S
C1474 C1469 1.391 . S
C1474 N1473 1.388 . S
Co1475 O1477 2.143 . S
Co1475 O1483 2.074 . S
Co1475 O1486 2.093 . S
Co1475 O1499 2.097 . S
Co1475 N1516 2.151 . S
Co1475 N1524 2.214 . S
Co1476 O1477 2.160 . S
Co1476 O1482 2.058 . S
Co1476 O1492 2.057 . S
Co1476 O1507 2.037 . S
Co1476 N1511 2.145 . S
Co1476 N1532 2.257 . S
O1477 Co1475 2.143 . S
O1477 Co1476 2.160 . S
C1478 O1479 1.278 . S
C1478 O1486 1.224 . S
O1479 C1478 1.278 . S
C1480 O1481 1.245 . S
C1480 O1492 1.232 . S
O1481 C1480 1.245 . S
O1482 Co1476 2.058 . S
O1482 C1508 1.269 . S
O1483 Co1475 2.074 . S
O1483 C1508 1.257 . S
H1484 C1509 0.930 . S
H1485 C1515 0.930 . S
O1486 Co1475 2.093 . S
O1486 C1478 1.224 . S
H1487 C1519 0.929 . S
H1488 C1521 0.930 . S
H1489 C1522 0.930 . S
H1490 C1520 0.929 . S
H1491 C1523 0.928 . S
O1492 Co1476 2.057 . S
O1492 C1480 1.232 . S
H1493 C1512 0.929 . S
H1494 C1513 0.929 . S
H1495 C1525 0.931 . S
H1496 C1517 0.929 . S
H1497 C1526 0.930 . S
H1498 C1518 0.931 . S
O1499 Co1475 2.097 . S
O1499 C1527 1.214 . S
H1500 C1528 0.929 . S
H1501 C1529 0.929 . S
H1502 C1530 0.930 . S
H1503 C1531 0.929 . S
H1504 C1533 0.930 . S
H1505 C1510 0.930 . S
H1506 C1514 0.930 . S
O1507 Co1476 2.037 . S
O1507 C1527 1.234 . S
C1508 O1482 1.269 . S
C1508 O1483 1.257 . S
C1509 H1484 0.930 . S
C1509 C1512 1.388 . S
C1509 C1514 1.418 . S
C1510 H1505 0.930 . S
C1510 C1513 1.404 . S
C1510 C1514 1.353 . S
N1511 Co1476 2.145 . S
N1511 C1512 1.397 . S
N1511 C1513 1.334 . S
C1512 H1493 0.929 . S
C1512 C1509 1.388 . S
C1512 N1511 1.397 . S
C1513 H1494 0.929 . S
C1513 C1510 1.404 . S
C1513 N1511 1.334 . S
C1514 H1506 0.930 . S
C1514 C1509 1.418 . S
C1514 C1510 1.353 . S
C1515 H1485 0.930 . S
C1515 N1516 1.330 . S
C1515 C1517 1.446 . S
N1516 Co1475 2.151 . S
N1516 C1515 1.330 . S
N1516 C1520 1.418 . S
C1517 H1496 0.929 . S
C1517 C1515 1.446 . S
C1517 C1518 1.332 . S
C1518 H1498 0.931 . S
C1518 C1517 1.332 . S
C1518 C1519 1.267 . S
C1519 H1487 0.929 . S
C1519 C1518 1.267 . S
C1519 C1520 1.251 . S
C1520 H1490 0.929 . S
C1520 N1516 1.418 . S
C1520 C1519 1.251 . S
C1521 H1488 0.930 . S
C1521 C1523 1.406 . S
C1521 C1526 1.261 . S
C1522 H1489 0.930 . S
C1522 N1524 1.325 . S
C1522 C1525 1.357 . S
C1523 H1491 0.928 . S
C1523 C1521 1.406 . S
C1523 N1524 1.261 . S
N1524 Co1475 2.214 . S
N1524 C1522 1.325 . S
N1524 C1523 1.261 . S
C1525 H1495 0.931 . S
C1525 C1522 1.357 . S
C1525 C1526 1.312 . S
C1526 H1497 0.930 . S
C1526 C1521 1.261 . S
C1526 C1525 1.312 . S
C1527 O1499 1.214 . S
C1527 O1507 1.234 . S
C1528 H1500 0.929 . S
C1528 C1531 1.391 . S
C1528 C1533 1.391 . S
C1529 H1501 0.929 . S
C1529 C1530 1.390 . S
C1529 N1532 1.391 . S
C1530 H1502 0.930 . S
C1530 C1529 1.390 . S
C1530 C1531 1.392 . S
C1531 H1503 0.929 . S
C1531 C1528 1.391 . S
C1531 C1530 1.392 . S
N1532 Co1476 2.257 . S
N1532 C1529 1.391 . S
N1532 C1533 1.388 . S
C1533 H1504 0.930 . S
C1533 C1528 1.391 . S
C1533 N1532 1.388 . S
Co1534 O1536 2.143 . S
Co1534 O1542 2.074 . S
Co1534 O1545 2.093 . S
Co1534 O1558 2.097 . S
Co1534 N1575 2.151 . S
Co1534 N1583 2.214 . S
Co1535 O1536 2.160 . S
Co1535 O1541 2.058 . S
Co1535 O1551 2.057 . S
Co1535 O1566 2.037 . S
Co1535 N1570 2.145 . S
Co1535 N1591 2.257 . S
O1536 Co1534 2.143 . S
O1536 Co1535 2.160 . S
C1537 O1538 1.278 . S
C1537 O1545 1.224 . S
O1538 C1537 1.278 . S
C1539 O1540 1.245 . S
C1539 O1551 1.232 . S
O1540 C1539 1.245 . S
O1541 Co1535 2.058 . S
O1541 C1567 1.269 . S
O1542 Co1534 2.074 . S
O1542 C1567 1.257 . S
H1543 C1568 0.930 . S
H1544 C1574 0.930 . S
O1545 Co1534 2.093 . S
O1545 C1537 1.224 . S
H1546 C1578 0.929 . S
H1547 C1580 0.930 . S
H1548 C1581 0.930 . S
H1549 C1579 0.929 . S
H1550 C1582 0.928 . S
O1551 Co1535 2.057 . S
O1551 C1539 1.232 . S
H1552 C1571 0.929 . S
H1553 C1572 0.929 . S
H1554 C1584 0.931 . S
H1555 C1576 0.929 . S
H1556 C1585 0.929 1_655 S
H1557 C1577 0.931 . S
O1558 Co1534 2.097 . S
O1558 C1586 1.214 . S
H1559 C1587 0.929 1_554 S
H1560 C1588 0.929 . S
H1561 C1589 0.930 . S
H1562 C1590 1.025 . S
H1563 C1592 0.930 . S
H1564 C1569 0.930 . S
H1565 C1573 0.930 . S
O1566 Co1535 2.037 . S
O1566 C1586 1.234 . S
C1567 O1541 1.269 . S
C1567 O1542 1.257 . S
C1568 H1543 0.930 . S
C1568 C1571 1.388 . S
C1568 C1573 1.418 . S
C1569 H1564 0.930 . S
C1569 C1572 1.404 . S
C1569 C1573 1.353 . S
N1570 Co1535 2.145 . S
N1570 C1571 1.397 . S
N1570 C1572 1.334 . S
C1571 H1552 0.929 . S
C1571 C1568 1.388 . S
C1571 N1570 1.397 . S
C1572 H1553 0.929 . S
C1572 C1569 1.404 . S
C1572 N1570 1.334 . S
C1573 H1565 0.930 . S
C1573 C1568 1.418 . S
C1573 C1569 1.353 . S
C1574 H1544 0.930 . S
C1574 N1575 1.330 . S
C1574 C1576 1.446 . S
N1575 Co1534 2.151 . S
N1575 C1574 1.330 . S
N1575 C1579 1.418 . S
C1576 H1555 0.929 . S
C1576 C1574 1.446 . S
C1576 C1577 1.332 . S
C1577 H1557 0.931 . S
C1577 C1576 1.332 . S
C1577 C1578 1.267 . S
C1578 H1546 0.929 . S
C1578 C1577 1.267 . S
C1578 C1579 1.251 . S
C1579 H1549 0.929 . S
C1579 N1575 1.418 . S
C1579 C1578 1.251 . S
C1580 H1547 0.930 . S
C1580 C1582 1.406 . S
C1580 C1585 1.261 . S
C1581 H1548 0.930 . S
C1581 N1583 1.325 . S
C1581 C1584 1.357 . S
C1582 H1550 0.928 . S
C1582 C1580 1.406 . S
C1582 N1583 1.261 . S
N1583 Co1534 2.214 . S
N1583 C1581 1.325 . S
N1583 C1582 1.261 . S
C1584 H1554 0.931 . S
C1584 C1581 1.357 . S
C1584 C1585 1.312 . S
C1585 H1556 0.929 1_455 S
C1585 C1580 1.261 . S
C1585 C1584 1.312 . S
C1586 O1558 1.214 . S
C1586 O1566 1.234 . S
C1587 H1559 0.929 1_556 S
C1587 C1590 1.371 1_556 S
C1587 C1592 1.391 . S
C1588 H1560 0.929 . S
C1588 C1589 1.390 . S
C1588 N1591 1.391 . S
C1589 H1561 0.930 . S
C1589 C1588 1.390 . S
C1589 C1590 1.322 1_556 S
C1590 H1562 1.025 . S
C1590 C1587 1.371 1_554 S
C1590 C1589 1.322 1_554 S
N1591 Co1535 2.257 . S
N1591 C1588 1.391 . S
N1591 C1592 1.388 . S
C1592 H1563 0.930 . S
C1592 C1587 1.391 . S
C1592 N1591 1.388 . S
Co1593 O1595 2.143 . S
Co1593 O1601 2.074 . S
Co1593 O1604 2.093 . S
Co1593 O1617 2.097 . S
Co1593 N1634 2.151 . S
Co1593 N1642 2.214 . S
Co1594 O1595 2.160 . S
Co1594 O1600 2.058 . S
Co1594 O1610 2.057 . S
Co1594 O1625 2.037 . S
Co1594 N1629 2.145 . S
Co1594 N1650 2.257 . S
O1595 Co1593 2.143 . S
O1595 Co1594 2.160 . S
C1596 O1597 1.278 . S
C1596 O1604 1.224 . S
O1597 C1596 1.278 . S
C1598 O1599 1.245 . S
C1598 O1610 1.232 . S
O1599 C1598 1.245 . S
O1600 Co1594 2.058 . S
O1600 C1626 1.269 . S
O1601 Co1593 2.074 . S
O1601 C1626 1.257 . S
H1602 C1627 0.930 . S
H1603 C1633 0.930 . S
O1604 Co1593 2.093 . S
O1604 C1596 1.224 . S
H1605 C1637 0.929 . S
H1606 C1639 0.930 . S
H1607 C1640 0.930 . S
H1608 C1638 0.929 . S
H1609 C1641 0.928 . S
O1610 Co1594 2.057 . S
O1610 C1598 1.232 . S
H1611 C1630 0.929 . S
H1612 C1631 0.929 . S
H1613 C1643 0.931 . S
H1614 C1635 0.929 . S
H1615 C1644 0.930 . S
H1616 C1636 0.931 . S
O1617 Co1593 2.097 . S
O1617 C1645 1.214 . S
H1618 C1646 0.929 . S
H1619 C1647 0.929 . S
H1620 C1648 0.930 . S
H1621 C1649 0.929 . S
H1622 C1651 0.930 . S
H1623 C1628 0.930 . S
H1624 C1632 0.930 . S
O1625 Co1594 2.037 . S
O1625 C1645 1.234 . S
C1626 O1600 1.269 . S
C1626 O1601 1.257 . S
C1627 H1602 0.930 . S
C1627 C1630 1.388 . S
C1627 C1632 1.418 . S
C1628 H1623 0.930 . S
C1628 C1631 1.404 . S
C1628 C1632 1.353 . S
N1629 Co1594 2.145 . S
N1629 C1630 1.397 . S
N1629 C1631 1.334 . S
C1630 H1611 0.929 . S
C1630 C1627 1.388 . S
C1630 N1629 1.397 . S
C1631 H1612 0.929 . S
C1631 C1628 1.404 . S
C1631 N1629 1.334 . S
C1632 H1624 0.930 . S
C1632 C1627 1.418 . S
C1632 C1628 1.353 . S
C1633 H1603 0.930 . S
C1633 N1634 1.330 . S
C1633 C1635 1.446 . S
N1634 Co1593 2.151 . S
N1634 C1633 1.330 . S
N1634 C1638 1.418 . S
C1635 H1614 0.929 . S
C1635 C1633 1.446 . S
C1635 C1636 1.332 . S
C1636 H1616 0.931 . S
C1636 C1635 1.332 . S
C1636 C1637 1.267 . S
C1637 H1605 0.929 . S
C1637 C1636 1.267 . S
C1637 C1638 1.251 . S
C1638 H1608 0.929 . S
C1638 N1634 1.418 . S
C1638 C1637 1.251 . S
C1639 H1606 0.930 . S
C1639 C1641 1.406 . S
C1639 C1644 1.261 . S
C1640 H1607 0.930 . S
C1640 N1642 1.325 . S
C1640 C1643 1.357 . S
C1641 H1609 0.928 . S
C1641 C1639 1.406 . S
C1641 N1642 1.261 . S
N1642 Co1593 2.214 . S
N1642 C1640 1.325 . S
N1642 C1641 1.261 . S
C1643 H1613 0.931 . S
C1643 C1640 1.357 . S
C1643 C1644 1.312 . S
C1644 H1615 0.930 . S
C1644 C1639 1.261 . S
C1644 C1643 1.312 . S
C1645 O1617 1.214 . S
C1645 O1625 1.234 . S
C1646 H1618 0.929 . S
C1646 C1649 1.391 . S
C1646 C1651 1.391 . S
C1647 H1619 0.929 . S
C1647 C1648 1.390 . S
C1647 N1650 1.391 . S
C1648 H1620 0.930 . S
C1648 C1647 1.390 . S
C1648 C1649 1.392 . S
C1649 H1621 0.929 . S
C1649 C1646 1.391 . S
C1649 C1648 1.392 . S
N1650 Co1594 2.257 . S
N1650 C1647 1.391 . S
N1650 C1651 1.388 . S
C1651 H1622 0.930 . S
C1651 C1646 1.391 . S
C1651 N1650 1.388 . S
Co1652 O1654 2.143 . S
Co1652 O1660 2.074 . S
Co1652 O1663 2.093 . S
Co1652 O1676 2.097 . S
Co1652 N1693 2.151 . S
Co1652 N1701 2.214 . S
Co1653 O1654 2.160 . S
Co1653 O1659 2.058 . S
Co1653 O1669 2.057 . S
Co1653 O1684 2.037 . S
Co1653 N1688 2.145 . S
Co1653 N1709 2.257 . S
O1654 Co1652 2.143 . S
O1654 Co1653 2.160 . S
C1655 O1656 1.278 . S
C1655 O1663 1.224 . S
O1656 C1655 1.278 . S
C1657 O1658 1.245 . S
C1657 O1669 1.232 . S
O1658 C1657 1.245 . S
O1659 Co1653 2.058 . S
O1659 C1685 1.269 . S
O1660 Co1652 2.074 . S
O1660 C1685 1.257 . S
H1661 C1686 0.930 . S
H1662 C1692 0.930 . S
O1663 Co1652 2.093 . S
O1663 C1655 1.224 . S
H1664 C1696 0.929 . S
H1665 C1698 0.930 . S
H1666 C1699 0.930 . S
H1667 C1697 0.929 . S
H1668 C1700 0.928 . S
O1669 Co1653 2.057 . S
O1669 C1657 1.232 . S
H1670 C1689 0.929 . S
H1671 C1690 0.929 . S
H1672 C1702 0.931 . S
H1673 C1694 0.929 . S
H1674 C1703 0.930 . S
H1675 C1695 0.931 . S
O1676 Co1652 2.097 . S
O1676 C1704 1.214 . S
H1677 C1705 0.929 1_556 S
H1678 C1706 0.929 . S
H1679 C1707 0.930 . S
H1680 C1708 1.025 . S
H1681 C1710 0.930 . S
H1682 C1687 0.930 . S
H1683 C1691 0.930 . S
O1684 Co1653 2.037 . S
O1684 C1704 1.234 . S
C1685 O1659 1.269 . S
C1685 O1660 1.257 . S
C1686 H1661 0.930 . S
C1686 C1689 1.388 . S
C1686 C1691 1.418 . S
C1687 H1682 0.930 . S
C1687 C1690 1.404 . S
C1687 C1691 1.353 . S
N1688 Co1653 2.145 . S
N1688 C1689 1.397 . S
N1688 C1690 1.334 . S
C1689 H1670 0.929 . S
C1689 C1686 1.388 . S
C1689 N1688 1.397 . S
C1690 H1671 0.929 . S
C1690 C1687 1.404 . S
C1690 N1688 1.334 . S
C1691 H1683 0.930 . S
C1691 C1686 1.418 . S
C1691 C1687 1.353 . S
C1692 H1662 0.930 . S
C1692 N1693 1.330 . S
C1692 C1694 1.446 . S
N1693 Co1652 2.151 . S
N1693 C1692 1.330 . S
N1693 C1697 1.418 . S
C1694 H1673 0.929 . S
C1694 C1692 1.446 . S
C1694 C1695 1.332 . S
C1695 H1675 0.931 . S
C1695 C1694 1.332 . S
C1695 C1696 1.267 . S
C1696 H1664 0.929 . S
C1696 C1695 1.267 . S
C1696 C1697 1.251 . S
C1697 H1667 0.929 . S
C1697 N1693 1.418 . S
C1697 C1696 1.251 . S
C1698 H1665 0.930 . S
C1698 C1700 1.406 . S
C1698 C1703 1.261 . S
C1699 H1666 0.930 . S
C1699 N1701 1.325 . S
C1699 C1702 1.357 . S
C1700 H1668 0.928 . S
C1700 C1698 1.406 . S
C1700 N1701 1.261 . S
N1701 Co1652 2.214 . S
N1701 C1699 1.325 . S
N1701 C1700 1.261 . S
C1702 H1672 0.931 . S
C1702 C1699 1.357 . S
C1702 C1703 1.312 . S
C1703 H1674 0.930 . S
C1703 C1698 1.261 . S
C1703 C1702 1.312 . S
C1704 O1676 1.214 . S
C1704 O1684 1.234 . S
C1705 H1677 0.929 1_554 S
C1705 C1708 1.371 1_554 S
C1705 C1710 1.391 . S
C1706 H1678 0.929 . S
C1706 C1707 1.390 . S
C1706 N1709 1.391 . S
C1707 H1679 0.930 . S
C1707 C1706 1.390 . S
C1707 C1708 1.322 1_554 S
C1708 H1680 1.025 . S
C1708 C1705 1.371 1_556 S
C1708 C1707 1.322 1_556 S
N1709 Co1653 2.257 . S
N1709 C1706 1.391 . S
N1709 C1710 1.388 . S
C1710 H1681 0.930 . S
C1710 C1705 1.391 . S
C1710 N1709 1.388 . S
Co1711 O1713 2.143 . S
Co1711 O1719 2.074 . S
Co1711 O1722 2.093 . S
Co1711 O1735 2.097 . S
Co1711 N1752 2.151 . S
Co1711 N1760 2.214 . S
Co1712 O1713 2.160 . S
Co1712 O1718 2.058 . S
Co1712 O1728 2.057 . S
Co1712 O1743 2.037 . S
Co1712 N1747 2.145 . S
Co1712 N1768 2.257 . S
O1713 Co1711 2.143 . S
O1713 Co1712 2.160 . S
C1714 O1715 1.278 . S
C1714 O1722 1.224 . S
O1715 C1714 1.278 . S
C1716 O1717 1.245 . S
C1716 O1728 1.232 . S
O1717 C1716 1.245 . S
O1718 Co1712 2.058 . S
O1718 C1744 1.269 . S
O1719 Co1711 2.074 . S
O1719 C1744 1.257 . S
H1720 C1745 0.930 . S
H1721 C1751 0.930 . S
O1722 Co1711 2.093 . S
O1722 C1714 1.224 . S
H1723 C1755 0.929 . S
H1724 C1757 0.930 . S
H1725 C1758 0.930 . S
H1726 C1756 0.929 . S
H1727 C1759 0.928 . S
O1728 Co1712 2.057 . S
O1728 C1716 1.232 . S
H1729 C1748 0.929 . S
H1730 C1749 0.929 . S
H1731 C1761 0.931 . S
H1732 C1753 0.929 . S
H1733 C1762 0.930 . S
H1734 C1754 0.931 . S
O1735 Co1711 2.097 . S
O1735 C1763 1.214 . S
H1736 C1764 0.929 . S
H1737 C1765 0.929 . S
H1738 C1766 0.930 . S
H1739 C1767 0.929 . S
H1740 C1769 0.930 . S
H1741 C1746 0.930 . S
H1742 C1750 0.930 . S
O1743 Co1712 2.037 . S
O1743 C1763 1.234 . S
C1744 O1718 1.269 . S
C1744 O1719 1.257 . S
C1745 H1720 0.930 . S
C1745 C1748 1.388 . S
C1745 C1750 1.418 . S
C1746 H1741 0.930 . S
C1746 C1749 1.404 . S
C1746 C1750 1.353 . S
N1747 Co1712 2.145 . S
N1747 C1748 1.397 . S
N1747 C1749 1.334 . S
C1748 H1729 0.929 . S
C1748 C1745 1.388 . S
C1748 N1747 1.397 . S
C1749 H1730 0.929 . S
C1749 C1746 1.404 . S
C1749 N1747 1.334 . S
C1750 H1742 0.930 . S
C1750 C1745 1.418 . S
C1750 C1746 1.353 . S
C1751 H1721 0.930 . S
C1751 N1752 1.330 . S
C1751 C1753 1.446 . S
N1752 Co1711 2.151 . S
N1752 C1751 1.330 . S
N1752 C1756 1.418 . S
C1753 H1732 0.929 . S
C1753 C1751 1.446 . S
C1753 C1754 1.332 . S
C1754 H1734 0.931 . S
C1754 C1753 1.332 . S
C1754 C1755 1.267 . S
C1755 H1723 0.929 . S
C1755 C1754 1.267 . S
C1755 C1756 1.251 . S
C1756 H1726 0.929 . S
C1756 N1752 1.418 . S
C1756 C1755 1.251 . S
C1757 H1724 0.930 . S
C1757 C1759 1.406 . S
C1757 C1762 1.261 . S
C1758 H1725 0.930 . S
C1758 N1760 1.325 . S
C1758 C1761 1.357 . S
C1759 H1727 0.928 . S
C1759 C1757 1.406 . S
C1759 N1760 1.261 . S
N1760 Co1711 2.214 . S
N1760 C1758 1.325 . S
N1760 C1759 1.261 . S
C1761 H1731 0.931 . S
C1761 C1758 1.357 . S
C1761 C1762 1.312 . S
C1762 H1733 0.930 . S
C1762 C1757 1.261 . S
C1762 C1761 1.312 . S
C1763 O1735 1.214 . S
C1763 O1743 1.234 . S
C1764 H1736 0.929 . S
C1764 C1767 1.391 . S
C1764 C1769 1.391 . S
C1765 H1737 0.929 . S
C1765 C1766 1.390 . S
C1765 N1768 1.391 . S
C1766 H1738 0.930 . S
C1766 C1765 1.390 . S
C1766 C1767 1.392 . S
C1767 H1739 0.929 . S
C1767 C1764 1.391 . S
C1767 C1766 1.392 . S
N1768 Co1712 2.257 . S
N1768 C1765 1.391 . S
N1768 C1769 1.388 . S
C1769 H1740 0.930 . S
C1769 C1764 1.391 . S
C1769 N1768 1.388 . S
Co1770 O1772 2.143 . S
Co1770 O1778 2.074 . S
Co1770 O1781 2.093 . S
Co1770 O1794 2.097 . S
Co1770 N1811 2.151 . S
Co1770 N1819 2.214 . S
Co1771 O1772 2.160 . S
Co1771 O1777 2.058 . S
Co1771 O1787 2.057 . S
Co1771 O1802 2.037 . S
Co1771 N1806 2.145 . S
Co1771 N1827 2.257 . S
O1772 Co1770 2.143 . S
O1772 Co1771 2.160 . S
C1773 O1774 1.278 . S
C1773 O1781 1.224 . S
O1774 C1773 1.278 . S
C1775 O1776 1.245 . S
C1775 O1787 1.232 . S
O1776 C1775 1.245 . S
O1777 Co1771 2.058 . S
O1777 C1803 1.269 . S
O1778 Co1770 2.074 . S
O1778 C1803 1.257 . S
H1779 C1804 0.930 . S
H1780 C1810 0.930 . S
O1781 Co1770 2.093 . S
O1781 C1773 1.224 . S
H1782 C1814 0.929 . S
H1783 C1816 0.930 . S
H1784 C1817 0.930 . S
H1785 C1815 0.929 . S
H1786 C1818 0.928 . S
O1787 Co1771 2.057 . S
O1787 C1775 1.232 . S
H1788 C1807 0.929 . S
H1789 C1808 0.929 . S
H1790 C1820 0.931 . S
H1791 C1812 0.929 . S
H1792 C1821 0.929 1_655 S
H1793 C1813 0.931 . S
O1794 Co1770 2.097 . S
O1794 C1822 1.214 . S
H1795 C1823 0.929 . S
H1796 C1824 0.929 . S
H1797 C1825 0.930 . S
H1798 C1826 0.929 . S
H1799 C1828 0.930 . S
H1800 C1805 0.930 . S
H1801 C1809 0.930 . S
O1802 Co1771 2.037 . S
O1802 C1822 1.234 . S
C1803 O1777 1.269 . S
C1803 O1778 1.257 . S
C1804 H1779 0.930 . S
C1804 C1807 1.388 . S
C1804 C1809 1.418 . S
C1805 H1800 0.930 . S
C1805 C1808 1.404 . S
C1805 C1809 1.353 . S
N1806 Co1771 2.145 . S
N1806 C1807 1.397 . S
N1806 C1808 1.334 . S
C1807 H1788 0.929 . S
C1807 C1804 1.388 . S
C1807 N1806 1.397 . S
C1808 H1789 0.929 . S
C1808 C1805 1.404 . S
C1808 N1806 1.334 . S
C1809 H1801 0.930 . S
C1809 C1804 1.418 . S
C1809 C1805 1.353 . S
C1810 H1780 0.930 . S
C1810 N1811 1.330 . S
C1810 C1812 1.446 . S
N1811 Co1770 2.151 . S
N1811 C1810 1.330 . S
N1811 C1815 1.418 . S
C1812 H1791 0.929 . S
C1812 C1810 1.446 . S
C1812 C1813 1.332 . S
C1813 H1793 0.931 . S
C1813 C1812 1.332 . S
C1813 C1814 1.267 . S
C1814 H1782 0.929 . S
C1814 C1813 1.267 . S
C1814 C1815 1.251 . S
C1815 H1785 0.929 . S
C1815 N1811 1.418 . S
C1815 C1814 1.251 . S
C1816 H1783 0.930 . S
C1816 C1818 1.406 . S
C1816 C1821 1.261 . S
C1817 H1784 0.930 . S
C1817 N1819 1.325 . S
C1817 C1820 1.357 . S
C1818 H1786 0.928 . S
C1818 C1816 1.406 . S
C1818 N1819 1.261 . S
N1819 Co1770 2.214 . S
N1819 C1817 1.325 . S
N1819 C1818 1.261 . S
C1820 H1790 0.931 . S
C1820 C1817 1.357 . S
C1820 C1821 1.312 . S
C1821 H1792 0.929 1_455 S
C1821 C1816 1.261 . S
C1821 C1820 1.312 . S
C1822 O1794 1.214 . S
C1822 O1802 1.234 . S
C1823 H1795 0.929 . S
C1823 C1826 1.391 . S
C1823 C1828 1.391 . S
C1824 H1796 0.929 . S
C1824 C1825 1.390 . S
C1824 N1827 1.391 . S
C1825 H1797 0.930 . S
C1825 C1824 1.390 . S
C1825 C1826 1.392 . S
C1826 H1798 0.929 . S
C1826 C1823 1.391 . S
C1826 C1825 1.392 . S
N1827 Co1771 2.257 . S
N1827 C1824 1.391 . S
N1827 C1828 1.388 . S
C1828 H1799 0.930 . S
C1828 C1823 1.391 . S
C1828 N1827 1.388 . S
Co1829 O1831 2.143 . S
Co1829 O1837 2.074 . S
Co1829 O1840 2.093 . S
Co1829 O1853 2.097 . S
Co1829 N1870 2.151 . S
Co1829 N1878 2.214 . S
Co1830 O1831 2.160 . S
Co1830 O1836 2.058 . S
Co1830 O1846 2.057 . S
Co1830 O1861 2.037 . S
Co1830 N1865 2.145 . S
Co1830 N1886 2.257 . S
O1831 Co1829 2.143 . S
O1831 Co1830 2.160 . S
C1832 O1833 1.278 . S
C1832 O1840 1.224 . S
O1833 C1832 1.278 . S
C1834 O1835 1.245 . S
C1834 O1846 1.232 . S
O1835 C1834 1.245 . S
O1836 Co1830 2.058 . S
O1836 C1862 1.269 . S
O1837 Co1829 2.074 . S
O1837 C1862 1.257 . S
H1838 C1863 0.930 . S
H1839 C1869 0.930 . S
O1840 Co1829 2.093 . S
O1840 C1832 1.224 . S
H1841 C1873 0.929 . S
H1842 C1875 0.930 . S
H1843 C1876 0.930 . S
H1844 C1874 0.929 . S
H1845 C1877 0.928 . S
O1846 Co1830 2.057 . S
O1846 C1834 1.232 . S
H1847 C1866 0.929 . S
H1848 C1867 0.929 . S
H1849 C1879 0.931 . S
H1850 C1871 0.929 . S
H1851 C1880 0.930 . S
H1852 C1872 0.931 . S
O1853 Co1829 2.097 . S
O1853 C1881 1.214 . S
H1854 C1882 0.929 . S
H1855 C1883 0.929 . S
H1856 C1884 0.930 . S
H1857 C1885 0.929 . S
H1858 C1887 0.930 . S
H1859 C1864 0.930 . S
H1860 C1868 0.930 . S
O1861 Co1830 2.037 . S
O1861 C1881 1.234 . S
C1862 O1836 1.269 . S
C1862 O1837 1.257 . S
C1863 H1838 0.930 . S
C1863 C1866 1.388 . S
C1863 C1868 1.418 . S
C1864 H1859 0.930 . S
C1864 C1867 1.404 . S
C1864 C1868 1.353 . S
N1865 Co1830 2.145 . S
N1865 C1866 1.397 . S
N1865 C1867 1.334 . S
C1866 H1847 0.929 . S
C1866 C1863 1.388 . S
C1866 N1865 1.397 . S
C1867 H1848 0.929 . S
C1867 C1864 1.404 . S
C1867 N1865 1.334 . S
C1868 H1860 0.930 . S
C1868 C1863 1.418 . S
C1868 C1864 1.353 . S
C1869 H1839 0.930 . S
C1869 N1870 1.330 . S
C1869 C1871 1.446 . S
N1870 Co1829 2.151 . S
N1870 C1869 1.330 . S
N1870 C1874 1.418 . S
C1871 H1850 0.929 . S
C1871 C1869 1.446 . S
C1871 C1872 1.332 . S
C1872 H1852 0.931 . S
C1872 C1871 1.332 . S
C1872 C1873 1.267 . S
C1873 H1841 0.929 . S
C1873 C1872 1.267 . S
C1873 C1874 1.251 . S
C1874 H1844 0.929 . S
C1874 N1870 1.418 . S
C1874 C1873 1.251 . S
C1875 H1842 0.930 . S
C1875 C1877 1.406 . S
C1875 C1880 1.261 . S
C1876 H1843 0.930 . S
C1876 N1878 1.325 . S
C1876 C1879 1.357 . S
C1877 H1845 0.928 . S
C1877 C1875 1.406 . S
C1877 N1878 1.261 . S
N1878 Co1829 2.214 . S
N1878 C1876 1.325 . S
N1878 C1877 1.261 . S
C1879 H1849 0.931 . S
C1879 C1876 1.357 . S
C1879 C1880 1.312 . S
C1880 H1851 0.930 . S
C1880 C1875 1.261 . S
C1880 C1879 1.312 . S
C1881 O1853 1.214 . S
C1881 O1861 1.234 . S
C1882 H1854 0.929 . S
C1882 C1885 1.391 . S
C1882 C1887 1.391 . S
C1883 H1855 0.929 . S
C1883 C1884 1.390 . S
C1883 N1886 1.391 . S
C1884 H1856 0.930 . S
C1884 C1883 1.390 . S
C1884 C1885 1.392 . S
C1885 H1857 0.929 . S
C1885 C1882 1.391 . S
C1885 C1884 1.392 . S
N1886 Co1830 2.257 . S
N1886 C1883 1.391 . S
N1886 C1887 1.388 . S
C1887 H1858 0.930 . S
C1887 C1882 1.391 . S
C1887 N1886 1.388 . S
C1888 C1889 1.349 . S
C1888 C1890 1.327 . S
C1888 H1913 0.950 . S
C1889 C1888 1.349 . S
C1889 C1905 1.349 . S
C1890 C1888 1.327 . S
C1890 C1909 1.429 . S
C1890 H1914 0.950 . S
C1891 C1908 1.574 1_556 S
C1891 C1910 1.368 . S
C1891 H1915 0.949 . S
H1892 C1896 0.949 . S
C1893 C1894 1.349 . S
C1893 C1895 1.327 . S
C1893 H1916 0.950 . S
C1894 C1893 1.349 . S
C1894 C1906 1.349 . S
C1895 C1893 1.327 . S
C1895 C1911 1.429 . S
C1895 H1917 0.950 . S
C1896 H1892 0.949 . S
C1896 C1904 1.574 1_554 S
C1896 C1912 1.368 . S
H1897 C1905 0.950 . S
H1898 C1903 0.950 . S
H1899 C1904 0.949 . S
H1900 C1906 0.950 . S
H1901 C1907 0.950 . S
H1902 C1908 0.949 . S
C1903 H1898 0.950 . S
C1903 C1905 1.327 . S
C1903 C1909 1.429 . S
C1904 C1896 1.574 1_556 S
C1904 H1899 0.949 . S
C1904 C1910 1.368 1_455 S
C1905 C1889 1.349 . S
C1905 H1897 0.950 . S
C1905 C1903 1.327 . S
C1906 C1894 1.349 . S
C1906 H1900 0.950 . S
C1906 C1907 1.327 . S
C1907 H1901 0.950 . S
C1907 C1906 1.327 . S
C1907 C1911 1.429 . S
C1908 C1891 1.574 1_554 S
C1908 H1902 0.949 . S
C1908 C1912 1.368 1_655 S
C1909 C1890 1.429 . S
C1909 C1903 1.429 . S
C1909 C1910 1.523 . S
C1910 C1891 1.368 . S
C1910 C1904 1.368 1_655 S
C1910 C1909 1.523 . S
C1911 C1895 1.429 . S
C1911 C1907 1.429 . S
C1911 C1912 1.523 . S
C1912 C1896 1.368 . S
C1912 C1908 1.368 1_455 S
C1912 C1911 1.523 . S
H1913 C1888 0.950 . S
H1914 C1890 0.950 . S
H1915 C1891 0.949 . S
H1916 C1893 0.950 . S
H1917 C1895 0.950 . S
C1918 C1919 1.349 . S
C1918 C1920 1.327 . S
C1918 H1943 0.950 . S
C1919 C1918 1.349 . S
C1919 C1935 1.349 . S
C1920 C1918 1.327 . S
C1920 C1939 1.429 . S
C1920 H1944 0.950 . S
C1921 C1938 1.574 . S
C1921 C1940 1.368 . S
C1921 H1945 0.949 . S
H1922 C1926 0.949 . S
C1923 C1924 1.349 . S
C1923 C1925 1.327 . S
C1923 H1946 0.950 . S
C1924 C1923 1.349 . S
C1924 C1936 1.349 . S
C1925 C1923 1.327 . S
C1925 C1941 1.429 . S
C1925 H1947 0.950 . S
C1926 H1922 0.949 . S
C1926 C1934 1.574 . S
C1926 C1942 1.368 . S
H1927 C1935 0.950 . S
H1928 C1933 0.950 . S
H1929 C1934 0.949 . S
H1930 C1936 0.950 . S
H1931 C1937 0.950 . S
H1932 C1938 0.949 . S
C1933 H1928 0.950 . S
C1933 C1935 1.327 . S
C1933 C1939 1.429 . S
C1934 C1926 1.574 . S
C1934 H1929 0.949 . S
C1934 C1940 1.368 . S
C1935 C1919 1.349 . S
C1935 H1927 0.950 . S
C1935 C1933 1.327 . S
C1936 C1924 1.349 . S
C1936 H1930 0.950 . S
C1936 C1937 1.327 . S
C1937 H1931 0.950 . S
C1937 C1936 1.327 . S
C1937 C1941 1.429 . S
C1938 C1921 1.574 . S
C1938 H1932 0.949 . S
C1938 C1942 1.368 . S
C1939 C1920 1.429 . S
C1939 C1933 1.429 . S
C1939 C1940 1.523 . S
C1940 C1921 1.368 . S
C1940 C1934 1.368 . S
C1940 C1939 1.523 . S
C1941 C1925 1.429 . S
C1941 C1937 1.429 . S
C1941 C1942 1.523 . S
C1942 C1926 1.368 . S
C1942 C1938 1.368 . S
C1942 C1941 1.523 . S
H1943 C1918 0.950 . S
H1944 C1920 0.950 . S
H1945 C1921 0.949 . S
H1946 C1923 0.950 . S
H1947 C1925 0.950 . S
C1948 C1949 1.349 . S
C1948 C1950 1.327 . S
C1948 H1973 0.950 . S
C1949 C1948 1.349 . S
C1949 C1965 1.349 . S
C1950 C1948 1.327 . S
C1950 C1969 1.429 . S
C1950 H1974 0.950 . S
C1951 C1968 1.574 . S
C1951 C1970 1.368 . S
C1951 H1975 0.949 . S
H1952 C1956 0.949 . S
C1953 C1954 1.349 . S
C1953 C1955 1.327 . S
C1953 H1976 0.950 . S
C1954 C1953 1.349 . S
C1954 C1966 1.349 . S
C1955 C1953 1.327 . S
C1955 C1971 1.429 . S
C1955 H1977 0.950 . S
C1956 H1952 0.949 . S
C1956 C1964 1.574 . S
C1956 C1972 1.368 . S
H1957 C1965 0.950 . S
H1958 C1963 0.950 . S
H1959 C1964 0.949 . S
H1960 C1966 0.950 . S
H1961 C1967 0.950 . S
H1962 C1968 0.949 . S
C1963 H1958 0.950 . S
C1963 C1965 1.327 . S
C1963 C1969 1.429 . S
C1964 C1956 1.574 . S
C1964 H1959 0.949 . S
C1964 C1970 1.368 . S
C1965 C1949 1.349 . S
C1965 H1957 0.950 . S
C1965 C1963 1.327 . S
C1966 C1954 1.349 . S
C1966 H1960 0.950 . S
C1966 C1967 1.327 . S
C1967 H1961 0.950 . S
C1967 C1966 1.327 . S
C1967 C1971 1.429 . S
C1968 C1951 1.574 . S
C1968 H1962 0.949 . S
C1968 C1972 1.368 . S
C1969 C1950 1.429 . S
C1969 C1963 1.429 . S
C1969 C1970 1.523 . S
C1970 C1951 1.368 . S
C1970 C1964 1.368 . S
C1970 C1969 1.523 . S
C1971 C1955 1.429 . S
C1971 C1967 1.429 . S
C1971 C1972 1.523 . S
C1972 C1956 1.368 . S
C1972 C1968 1.368 . S
C1972 C1971 1.523 . S
H1973 C1948 0.950 . S
H1974 C1950 0.950 . S
H1975 C1951 0.949 . S
H1976 C1953 0.950 . S
H1977 C1955 0.950 . S
C1978 C1979 1.349 . S
C1978 C1980 1.327 . S
C1978 H2003 0.950 . S
C1979 C1978 1.349 . S
C1979 C1995 1.349 . S
C1980 C1978 1.327 . S
C1980 C1999 1.429 . S
C1980 H2004 0.950 . S
C1981 C1998 1.574 . S
C1981 C2000 1.368 . S
C1981 H2005 0.949 . S
H1982 C1986 0.949 . S
C1983 C1984 1.349 . S
C1983 C1985 1.327 . S
C1983 H2006 0.950 . S
C1984 C1983 1.349 . S
C1984 C1996 1.349 . S
C1985 C1983 1.327 . S
C1985 C2001 1.429 . S
C1985 H2007 0.950 . S
C1986 H1982 0.949 . S
C1986 C1994 1.574 . S
C1986 C2002 1.368 . S
H1987 C1995 0.950 . S
H1988 C1993 0.950 . S
H1989 C1994 0.949 . S
H1990 C1996 0.950 . S
H1991 C1997 0.950 . S
H1992 C1998 0.949 . S
C1993 H1988 0.950 . S
C1993 C1995 1.327 . S
C1993 C1999 1.429 . S
C1994 C1986 1.574 . S
C1994 H1989 0.949 . S
C1994 C2000 1.368 . S
C1995 C1979 1.349 . S
C1995 H1987 0.950 . S
C1995 C1993 1.327 . S
C1996 C1984 1.349 . S
C1996 H1990 0.950 . S
C1996 C1997 1.327 . S
C1997 H1991 0.950 . S
C1997 C1996 1.327 . S
C1997 C2001 1.429 . S
C1998 C1981 1.574 . S
C1998 H1992 0.949 . S
C1998 C2002 1.368 . S
C1999 C1980 1.429 . S
C1999 C1993 1.429 . S
C1999 C2000 1.523 . S
C2000 C1981 1.368 . S
C2000 C1994 1.368 . S
C2000 C1999 1.523 . S
C2001 C1985 1.429 . S
C2001 C1997 1.429 . S
C2001 C2002 1.523 . S
C2002 C1986 1.368 . S
C2002 C1998 1.368 . S
C2002 C2001 1.523 . S
H2003 C1978 0.950 . S
H2004 C1980 0.950 . S
H2005 C1981 0.949 . S
H2006 C1983 0.950 . S
H2007 C1985 0.950 . S
C2008 C2009 1.349 . S
C2008 C2010 1.327 . S
C2008 H2033 0.950 . S
C2009 C2008 1.349 . S
C2009 C2025 1.349 . S
C2010 C2008 1.327 . S
C2010 C2029 1.429 . S
C2010 H2034 0.950 . S
C2011 C2028 1.574 . S
C2011 C2030 1.368 . S
C2011 H2035 0.949 . S
H2012 C2016 0.949 . S
C2013 C2014 1.349 . S
C2013 C2015 1.327 . S
C2013 H2036 0.950 . S
C2014 C2013 1.349 . S
C2014 C2026 1.349 . S
C2015 C2013 1.327 . S
C2015 C2031 1.429 . S
C2015 H2037 0.950 . S
C2016 H2012 0.949 . S
C2016 C2024 1.574 . S
C2016 C2032 1.368 . S
H2017 C2025 0.950 . S
H2018 C2023 0.950 . S
H2019 C2024 0.949 . S
H2020 C2026 0.950 . S
H2021 C2027 0.950 . S
H2022 C2028 0.949 . S
C2023 H2018 0.950 . S
C2023 C2025 1.327 . S
C2023 C2029 1.429 . S
C2024 C2016 1.574 . S
C2024 H2019 0.949 . S
C2024 C2030 1.368 1_455 S
C2025 C2009 1.349 . S
C2025 H2017 0.950 . S
C2025 C2023 1.327 . S
C2026 C2014 1.349 . S
C2026 H2020 0.950 . S
C2026 C2027 1.327 . S
C2027 H2021 0.950 . S
C2027 C2026 1.327 . S
C2027 C2031 1.429 . S
C2028 C2011 1.574 . S
C2028 H2022 0.949 . S
C2028 C2032 1.368 1_655 S
C2029 C2010 1.429 . S
C2029 C2023 1.429 . S
C2029 C2030 1.523 . S
C2030 C2011 1.368 . S
C2030 C2024 1.368 1_655 S
C2030 C2029 1.523 . S
C2031 C2015 1.429 . S
C2031 C2027 1.429 . S
C2031 C2032 1.523 . S
C2032 C2016 1.368 . S
C2032 C2028 1.368 1_455 S
C2032 C2031 1.523 . S
H2033 C2008 0.950 . S
H2034 C2010 0.950 . S
H2035 C2011 0.949 . S
H2036 C2013 0.950 . S
H2037 C2015 0.950 . S
C2038 C2039 1.349 . S
C2038 C2040 1.327 . S
C2038 H2063 0.950 . S
C2039 C2038 1.349 . S
C2039 C2055 1.349 . S
C2040 C2038 1.327 . S
C2040 C2059 1.429 . S
C2040 H2064 0.950 . S
C2041 C2058 1.574 . S
C2041 C2060 1.368 . S
C2041 H2065 0.949 . S
H2042 C2046 0.949 . S
C2043 C2044 1.349 . S
C2043 C2045 1.327 . S
C2043 H2066 0.950 . S
C2044 C2043 1.349 . S
C2044 C2056 1.349 . S
C2045 C2043 1.327 . S
C2045 C2061 1.429 . S
C2045 H2067 0.950 . S
C2046 H2042 0.949 . S
C2046 C2054 1.574 . S
C2046 C2062 1.368 . S
H2047 C2055 0.950 . S
H2048 C2053 0.950 . S
H2049 C2054 0.949 . S
H2050 C2056 0.950 . S
H2051 C2057 0.950 . S
H2052 C2058 0.949 . S
C2053 H2048 0.950 . S
C2053 C2055 1.327 . S
C2053 C2059 1.429 . S
C2054 C2046 1.574 . S
C2054 H2049 0.949 . S
C2054 C2060 1.368 . S
C2055 C2039 1.349 . S
C2055 H2047 0.950 . S
C2055 C2053 1.327 . S
C2056 C2044 1.349 . S
C2056 H2050 0.950 . S
C2056 C2057 1.327 . S
C2057 H2051 0.950 . S
C2057 C2056 1.327 . S
C2057 C2061 1.429 . S
C2058 C2041 1.574 . S
C2058 H2052 0.949 . S
C2058 C2062 1.368 . S
C2059 C2040 1.429 . S
C2059 C2053 1.429 . S
C2059 C2060 1.523 . S
C2060 C2041 1.368 . S
C2060 C2054 1.368 . S
C2060 C2059 1.523 . S
C2061 C2045 1.429 . S
C2061 C2057 1.429 . S
C2061 C2062 1.523 . S
C2062 C2046 1.368 . S
C2062 C2058 1.368 . S
C2062 C2061 1.523 . S
H2063 C2038 0.950 . S
H2064 C2040 0.950 . S
H2065 C2041 0.949 . S
H2066 C2043 0.950 . S
H2067 C2045 0.950 . S
C2068 C2069 1.349 . S
C2068 C2070 1.327 . S
C2068 H2093 0.950 . S
C2069 C2068 1.349 . S
C2069 C2085 1.349 . S
C2070 C2068 1.327 . S
C2070 C2089 1.429 . S
C2070 H2094 0.950 . S
C2071 C2088 1.574 1_556 S
C2071 C2090 1.368 . S
C2071 H2095 0.949 . S
H2072 C2076 0.949 . S
C2073 C2074 1.349 . S
C2073 C2075 1.327 . S
C2073 H2096 0.950 . S
C2074 C2073 1.349 . S
C2074 C2086 1.349 . S
C2075 C2073 1.327 . S
C2075 C2091 1.429 . S
C2075 H2097 0.950 . S
C2076 H2072 0.949 . S
C2076 C2084 1.574 1_554 S
C2076 C2092 1.368 . S
H2077 C2085 0.950 . S
H2078 C2083 0.950 . S
H2079 C2084 0.949 . S
H2080 C2086 0.950 . S
H2081 C2087 0.950 . S
H2082 C2088 0.949 . S
C2083 H2078 0.950 . S
C2083 C2085 1.327 . S
C2083 C2089 1.429 . S
C2084 C2076 1.574 1_556 S
C2084 H2079 0.949 . S
C2084 C2090 1.368 . S
C2085 C2069 1.349 . S
C2085 H2077 0.950 . S
C2085 C2083 1.327 . S
C2086 C2074 1.349 . S
C2086 H2080 0.950 . S
C2086 C2087 1.327 . S
C2087 H2081 0.950 . S
C2087 C2086 1.327 . S
C2087 C2091 1.429 . S
C2088 C2071 1.574 1_554 S
C2088 H2082 0.949 . S
C2088 C2092 1.368 . S
C2089 C2070 1.429 . S
C2089 C2083 1.429 . S
C2089 C2090 1.523 . S
C2090 C2071 1.368 . S
C2090 C2084 1.368 . S
C2090 C2089 1.523 . S
C2091 C2075 1.429 . S
C2091 C2087 1.429 . S
C2091 C2092 1.523 . S
C2092 C2076 1.368 . S
C2092 C2088 1.368 . S
C2092 C2091 1.523 . S
H2093 C2068 0.950 . S
H2094 C2070 0.950 . S
H2095 C2071 0.949 . S
H2096 C2073 0.950 . S
H2097 C2075 0.950 . S
C2098 C2099 1.349 . S
C2098 C2100 1.327 . S
C2098 H2123 0.950 . S
C2099 C2098 1.349 . S
C2099 C2115 1.349 . S
C2100 C2098 1.327 . S
C2100 C2119 1.429 . S
C2100 H2124 0.950 . S
C2101 C2118 1.574 . S
C2101 C2120 1.368 . S
C2101 H2125 0.949 . S
H2102 C2106 0.949 . S
C2103 C2104 1.349 . S
C2103 C2105 1.327 . S
C2103 H2126 0.950 . S
C2104 C2103 1.349 . S
C2104 C2116 1.349 . S
C2105 C2103 1.327 . S
C2105 C2121 1.429 . S
C2105 H2127 0.950 . S
C2106 H2102 0.949 . S
C2106 C2114 1.574 . S
C2106 C2122 1.368 . S
H2107 C2115 0.950 . S
H2108 C2113 0.950 . S
H2109 C2114 0.949 . S
H2110 C2116 0.950 . S
H2111 C2117 0.950 . S
H2112 C2118 0.949 . S
C2113 H2108 0.950 . S
C2113 C2115 1.327 . S
C2113 C2119 1.429 . S
C2114 C2106 1.574 . S
C2114 H2109 0.949 . S
C2114 C2120 1.368 . S
C2115 C2099 1.349 . S
C2115 H2107 0.950 . S
C2115 C2113 1.327 . S
C2116 C2104 1.349 . S
C2116 H2110 0.950 . S
C2116 C2117 1.327 . S
C2117 H2111 0.950 . S
C2117 C2116 1.327 . S
C2117 C2121 1.429 . S
C2118 C2101 1.574 . S
C2118 H2112 0.949 . S
C2118 C2122 1.368 . S
C2119 C2100 1.429 . S
C2119 C2113 1.429 . S
C2119 C2120 1.523 . S
C2120 C2101 1.368 . S
C2120 C2114 1.368 . S
C2120 C2119 1.523 . S
C2121 C2105 1.429 . S
C2121 C2117 1.429 . S
C2121 C2122 1.523 . S
C2122 C2106 1.368 . S
C2122 C2118 1.368 . S
C2122 C2121 1.523 . S
H2123 C2098 0.950 . S
H2124 C2100 0.950 . S
H2125 C2101 0.949 . S
H2126 C2103 0.950 . S
H2127 C2105 0.950 . S
C2128 C2129 1.349 . S
C2128 C2130 1.327 . S
C2128 H2153 0.950 . S
C2129 C2128 1.349 . S
C2129 C2145 1.349 . S
C2130 C2128 1.327 . S
C2130 C2149 1.429 . S
C2130 H2154 0.950 . S
C2131 C2148 1.574 . S
C2131 C2150 1.368 . S
C2131 H2155 0.949 . S
H2132 C2136 0.949 . S
C2133 C2134 1.349 . S
C2133 C2135 1.327 . S
C2133 H2156 0.950 . S
C2134 C2133 1.349 . S
C2134 C2146 1.349 . S
C2135 C2133 1.327 . S
C2135 C2151 1.429 . S
C2135 H2157 0.950 . S
C2136 H2132 0.949 . S
C2136 C2144 1.574 . S
C2136 C2152 1.368 . S
H2137 C2145 0.950 . S
H2138 C2143 0.950 . S
H2139 C2144 0.949 . S
H2140 C2146 0.950 . S
H2141 C2147 0.950 . S
H2142 C2148 0.949 . S
C2143 H2138 0.950 . S
C2143 C2145 1.327 . S
C2143 C2149 1.429 . S
C2144 C2136 1.574 . S
C2144 H2139 0.949 . S
C2144 C2150 1.368 . S
C2145 C2129 1.349 . S
C2145 H2137 0.950 . S
C2145 C2143 1.327 . S
C2146 C2134 1.349 . S
C2146 H2140 0.950 . S
C2146 C2147 1.327 . S
C2147 H2141 0.950 . S
C2147 C2146 1.327 . S
C2147 C2151 1.429 . S
C2148 C2131 1.574 . S
C2148 H2142 0.949 . S
C2148 C2152 1.368 . S
C2149 C2130 1.429 . S
C2149 C2143 1.429 . S
C2149 C2150 1.523 . S
C2150 C2131 1.368 . S
C2150 C2144 1.368 . S
C2150 C2149 1.523 . S
C2151 C2135 1.429 . S
C2151 C2147 1.429 . S
C2151 C2152 1.523 . S
C2152 C2136 1.368 . S
C2152 C2148 1.368 . S
C2152 C2151 1.523 . S
H2153 C2128 0.950 . S
H2154 C2130 0.950 . S
H2155 C2131 0.949 . S
H2156 C2133 0.950 . S
H2157 C2135 0.950 . S
C2158 C2159 1.349 . S
C2158 C2160 1.327 . S
C2158 H2183 0.950 . S
C2159 C2158 1.349 . S
C2159 C2175 1.349 . S
C2160 C2158 1.327 . S
C2160 C2179 1.429 . S
C2160 H2184 0.950 . S
C2161 C2178 1.574 . S
C2161 C2180 1.368 . S
C2161 H2185 0.949 . S
H2162 C2166 0.949 . S
C2163 C2164 1.349 . S
C2163 C2165 1.327 . S
C2163 H2186 0.950 . S
C2164 C2163 1.349 . S
C2164 C2176 1.349 . S
C2165 C2163 1.327 . S
C2165 C2181 1.429 . S
C2165 H2187 0.950 . S
C2166 H2162 0.949 . S
C2166 C2174 1.574 . S
C2166 C2182 1.368 . S
H2167 C2175 0.950 . S
H2168 C2173 0.950 . S
H2169 C2174 0.949 . S
H2170 C2176 0.950 . S
H2171 C2177 0.950 . S
H2172 C2178 0.949 . S
C2173 H2168 0.950 . S
C2173 C2175 1.327 . S
C2173 C2179 1.429 . S
C2174 C2166 1.574 . S
C2174 H2169 0.949 . S
C2174 C2180 1.368 . S
C2175 C2159 1.349 . S
C2175 H2167 0.950 . S
C2175 C2173 1.327 . S
C2176 C2164 1.349 . S
C2176 H2170 0.950 . S
C2176 C2177 1.327 . S
C2177 H2171 0.950 . S
C2177 C2176 1.327 . S
C2177 C2181 1.429 . S
C2178 C2161 1.574 . S
C2178 H2172 0.949 . S
C2178 C2182 1.368 . S
C2179 C2160 1.429 . S
C2179 C2173 1.429 . S
C2179 C2180 1.523 . S
C2180 C2161 1.368 . S
C2180 C2174 1.368 . S
C2180 C2179 1.523 . S
C2181 C2165 1.429 . S
C2181 C2177 1.429 . S
C2181 C2182 1.523 . S
C2182 C2166 1.368 . S
C2182 C2178 1.368 . S
C2182 C2181 1.523 . S
H2183 C2158 0.950 . S
H2184 C2160 0.950 . S
H2185 C2161 0.949 . S
H2186 C2163 0.950 . S
H2187 C2165 0.950 . S
C2188 C2189 1.349 . S
C2188 C2190 1.327 . S
C2188 H2213 0.950 . S
C2189 C2188 1.349 . S
C2189 C2205 1.349 . S
C2190 C2188 1.327 . S
C2190 C2209 1.429 . S
C2190 H2214 0.950 . S
C2191 C2208 1.574 . S
C2191 C2210 1.368 . S
C2191 H2215 0.949 . S
H2192 C2196 0.949 . S
C2193 C2194 1.349 . S
C2193 C2195 1.327 . S
C2193 H2216 0.950 . S
C2194 C2193 1.349 . S
C2194 C2206 1.349 . S
C2195 C2193 1.327 . S
C2195 C2211 1.429 . S
C2195 H2217 0.950 . S
C2196 H2192 0.949 . S
C2196 C2204 1.574 . S
C2196 C2212 1.368 . S
H2197 C2205 0.950 . S
H2198 C2203 0.950 . S
H2199 C2204 0.949 . S
H2200 C2206 0.950 . S
H2201 C2207 0.950 . S
H2202 C2208 0.949 . S
C2203 H2198 0.950 . S
C2203 C2205 1.327 . S
C2203 C2209 1.429 . S
C2204 C2196 1.574 . S
C2204 H2199 0.949 . S
C2204 C2210 1.368 . S
C2205 C2189 1.349 . S
C2205 H2197 0.950 . S
C2205 C2203 1.327 . S
C2206 C2194 1.349 . S
C2206 H2200 0.950 . S
C2206 C2207 1.327 . S
C2207 H2201 0.950 . S
C2207 C2206 1.327 . S
C2207 C2211 1.429 . S
C2208 C2191 1.574 . S
C2208 H2202 0.949 . S
C2208 C2212 1.368 . S
C2209 C2190 1.429 . S
C2209 C2203 1.429 . S
C2209 C2210 1.523 . S
C2210 C2191 1.368 . S
C2210 C2204 1.368 . S
C2210 C2209 1.523 . S
C2211 C2195 1.429 . S
C2211 C2207 1.429 . S
C2211 C2212 1.523 . S
C2212 C2196 1.368 . S
C2212 C2208 1.368 . S
C2212 C2211 1.523 . S
H2213 C2188 0.950 . S
H2214 C2190 0.950 . S
H2215 C2191 0.949 . S
H2216 C2193 0.950 . S
H2217 C2195 0.950 . S
C2218 C2219 1.349 . S
C2218 C2220 1.327 . S
C2218 H2243 0.950 . S
C2219 C2218 1.349 . S
C2219 C2235 1.349 . S
C2220 C2218 1.327 . S
C2220 C2239 1.429 . S
C2220 H2244 0.950 . S
C2221 C2238 1.574 . S
C2221 C2240 1.368 . S
C2221 H2245 0.949 . S
H2222 C2226 0.949 . S
C2223 C2224 1.349 . S
C2223 C2225 1.327 . S
C2223 H2246 0.950 . S
C2224 C2223 1.349 . S
C2224 C2236 1.349 . S
C2225 C2223 1.327 . S
C2225 C2241 1.429 . S
C2225 H2247 0.950 . S
C2226 H2222 0.949 . S
C2226 C2234 1.574 . S
C2226 C2242 1.368 . S
H2227 C2235 0.950 . S
H2228 C2233 0.950 . S
H2229 C2234 0.949 . S
H2230 C2236 0.950 . S
H2231 C2237 0.950 . S
H2232 C2238 0.949 . S
C2233 H2228 0.950 . S
C2233 C2235 1.327 . S
C2233 C2239 1.429 . S
C2234 C2226 1.574 . S
C2234 H2229 0.949 . S
C2234 C2240 1.368 . S
C2235 C2219 1.349 . S
C2235 H2227 0.950 . S
C2235 C2233 1.327 . S
C2236 C2224 1.349 . S
C2236 H2230 0.950 . S
C2236 C2237 1.327 . S
C2237 H2231 0.950 . S
C2237 C2236 1.327 . S
C2237 C2241 1.429 . S
C2238 C2221 1.574 . S
C2238 H2232 0.949 . S
C2238 C2242 1.368 . S
C2239 C2220 1.429 . S
C2239 C2233 1.429 . S
C2239 C2240 1.523 . S
C2240 C2221 1.368 . S
C2240 C2234 1.368 . S
C2240 C2239 1.523 . S
C2241 C2225 1.429 . S
C2241 C2237 1.429 . S
C2241 C2242 1.523 . S
C2242 C2226 1.368 . S
C2242 C2238 1.368 . S
C2242 C2241 1.523 . S
H2243 C2218 0.950 . S
H2244 C2220 0.950 . S
H2245 C2221 0.949 . S
H2246 C2223 0.950 . S
H2247 C2225 0.950 . S
C2248 C2249 1.349 . S
C2248 C2250 1.327 . S
C2248 H2273 0.950 . S
C2249 C2248 1.349 . S
C2249 C2265 1.349 . S
C2250 C2248 1.327 . S
C2250 C2269 1.429 . S
C2250 H2274 0.950 . S
C2251 C2268 1.574 . S
C2251 C2270 1.368 . S
C2251 H2275 0.949 . S
H2252 C2256 0.949 . S
C2253 C2254 1.349 . S
C2253 C2255 1.327 . S
C2253 H2276 0.950 . S
C2254 C2253 1.349 . S
C2254 C2266 1.349 . S
C2255 C2253 1.327 . S
C2255 C2271 1.429 . S
C2255 H2277 0.950 . S
C2256 H2252 0.949 . S
C2256 C2264 1.574 . S
C2256 C2272 1.368 . S
H2257 C2265 0.950 . S
H2258 C2263 0.950 . S
H2259 C2264 0.949 . S
H2260 C2266 0.950 . S
H2261 C2267 0.950 . S
H2262 C2268 0.949 . S
C2263 H2258 0.950 . S
C2263 C2265 1.327 . S
C2263 C2269 1.429 . S
C2264 C2256 1.574 . S
C2264 H2259 0.949 . S
C2264 C2270 1.368 1_545 S
C2265 C2249 1.349 . S
C2265 H2257 0.950 . S
C2265 C2263 1.327 . S
C2266 C2254 1.349 . S
C2266 H2260 0.950 . S
C2266 C2267 1.327 . S
C2267 H2261 0.950 . S
C2267 C2266 1.327 . S
C2267 C2271 1.429 . S
C2268 C2251 1.574 . S
C2268 H2262 0.949 . S
C2268 C2272 1.368 1_565 S
C2269 C2250 1.429 . S
C2269 C2263 1.429 . S
C2269 C2270 1.523 . S
C2270 C2251 1.368 . S
C2270 C2264 1.368 1_565 S
C2270 C2269 1.523 . S
C2271 C2255 1.429 . S
C2271 C2267 1.429 . S
C2271 C2272 1.523 . S
C2272 C2256 1.368 . S
C2272 C2268 1.368 1_545 S
C2272 C2271 1.523 . S
H2273 C2248 0.950 . S
H2274 C2250 0.950 . S
H2275 C2251 0.949 . S
H2276 C2253 0.950 . S
H2277 C2255 0.950 . S
C2278 C2279 1.349 . S
C2278 C2280 1.327 . S
C2278 H2303 0.950 . S
C2279 C2278 1.349 . S
C2279 C2295 1.349 . S
C2280 C2278 1.327 . S
C2280 C2299 1.429 . S
C2280 H2304 0.950 1_556 S
C2281 C2298 1.586 1_455 S
C2281 C2300 1.357 1_545 S
C2281 H2305 0.949 . S
H2282 C2286 0.949 . S
C2283 C2284 1.349 . S
C2283 C2285 1.327 . S
C2283 H2306 0.950 . S
C2284 C2283 1.349 . S
C2284 C2296 1.349 . S
C2285 C2283 1.327 . S
C2285 C2301 1.429 . S
C2285 H2307 0.950 1_554 S
C2286 H2282 0.949 . S
C2286 C2294 1.586 1_655 S
C2286 C2302 1.357 1_565 S
H2287 C2295 0.950 . S
H2288 C2293 0.950 . S
H2289 C2294 0.949 . S
H2290 C2296 0.950 . S
H2291 C2297 0.950 . S
H2292 C2298 0.949 . S
C2293 H2288 0.950 . S
C2293 C2295 1.327 . S
C2293 C2299 1.429 . S
C2294 C2286 1.586 1_455 S
C2294 H2289 0.949 . S
C2294 C2300 1.368 1_554 S
C2295 C2279 1.349 . S
C2295 H2287 0.950 . S
C2295 C2293 1.327 . S
C2296 C2284 1.349 . S
C2296 H2290 0.950 . S
C2296 C2297 1.327 . S
C2297 H2291 0.950 . S
C2297 C2296 1.327 . S
C2297 C2301 1.429 . S
C2298 C2281 1.586 1_655 S
C2298 H2292 0.949 . S
C2298 C2302 1.368 1_556 S
C2299 C2280 1.429 . S
C2299 C2293 1.429 . S
C2299 C2300 1.523 . S
C2300 C2281 1.357 1_565 S
C2300 C2294 1.368 1_556 S
C2300 C2299 1.523 . S
C2301 C2285 1.429 . S
C2301 C2297 1.429 . S
C2301 C2302 1.523 . S
C2302 C2286 1.357 1_545 S
C2302 C2298 1.368 1_554 S
C2302 C2301 1.523 . S
H2303 C2278 0.950 . S
H2304 C2280 0.950 1_554 S
H2305 C2281 0.949 . S
H2306 C2283 0.950 . S
H2307 C2285 0.950 1_556 S
C2308 C2309 1.349 . S
C2308 C2310 1.327 . S
C2308 H2333 0.950 . S
C2309 C2308 1.349 . S
C2309 C2325 1.349 . S
C2310 C2308 1.327 . S
C2310 C2329 1.429 . S
C2310 H2334 0.950 . S
C2311 C2328 1.574 . S
C2311 C2330 1.368 1_554 S
C2311 H2335 0.949 . S
H2312 C2316 0.949 . S
C2313 C2314 1.349 . S
C2313 C2315 1.327 . S
C2313 H2336 0.950 . S
C2314 C2313 1.349 . S
C2314 C2326 1.349 . S
C2315 C2313 1.327 . S
C2315 C2331 1.429 . S
C2315 H2337 0.950 . S
C2316 H2312 0.949 . S
C2316 C2324 1.574 . S
C2316 C2332 1.368 1_556 S
H2317 C2325 0.950 . S
H2318 C2323 0.950 . S
H2319 C2324 0.949 . S
H2320 C2326 0.950 . S
H2321 C2327 0.950 . S
H2322 C2328 0.949 . S
C2323 H2318 0.950 . S
C2323 C2325 1.327 . S
C2323 C2329 1.429 . S
C2324 C2316 1.574 . S
C2324 H2319 0.949 . S
C2324 C2330 1.368 1_565 S
C2325 C2309 1.349 . S
C2325 H2317 0.950 . S
C2325 C2323 1.327 . S
C2326 C2314 1.349 . S
C2326 H2320 0.950 . S
C2326 C2327 1.327 . S
C2327 H2321 0.950 . S
C2327 C2326 1.327 . S
C2327 C2331 1.429 . S
C2328 C2311 1.574 . S
C2328 H2322 0.949 . S
C2328 C2332 1.368 1_545 S
C2329 C2310 1.429 . S
C2329 C2323 1.429 . S
C2329 C2330 1.523 . S
C2330 C2311 1.368 1_556 S
C2330 C2324 1.368 1_545 S
C2330 C2329 1.523 . S
C2331 C2315 1.429 . S
C2331 C2327 1.429 . S
C2331 C2332 1.523 . S
C2332 C2316 1.368 1_554 S
C2332 C2328 1.368 1_565 S
C2332 C2331 1.523 . S
H2333 C2308 0.950 . S
H2334 C2310 0.950 . S
H2335 C2311 0.949 . S
H2336 C2313 0.950 . S
H2337 C2315 0.950 . S
C2338 C2339 1.349 . S
C2338 C2340 1.327 . S
C2338 H2363 0.950 . S
C2339 C2338 1.349 . S
C2339 C2355 1.349 . S
C2340 C2338 1.327 . S
C2340 C2359 1.429 . S
C2340 H2364 0.950 . S
C2341 C2358 1.574 . S
C2341 C2360 1.368 1_565 S
C2341 H2365 0.949 . S
H2342 C2346 0.949 . S
C2343 C2344 1.349 . S
C2343 C2345 1.327 . S
C2343 H2366 0.950 . S
C2344 C2343 1.349 . S
C2344 C2356 1.349 . S
C2345 C2343 1.327 . S
C2345 C2361 1.429 . S
C2345 H2367 0.950 . S
C2346 H2342 0.949 . S
C2346 C2354 1.574 . S
C2346 C2362 1.368 1_545 S
H2347 C2355 0.950 . S
H2348 C2353 0.950 . S
H2349 C2354 0.949 . S
H2350 C2356 0.950 . S
H2351 C2357 0.950 . S
H2352 C2358 0.949 . S
C2353 H2348 0.950 . S
C2353 C2355 1.327 . S
C2353 C2359 1.429 . S
C2354 C2346 1.574 . S
C2354 H2349 0.949 . S
C2354 C2360 1.368 1_655 S
C2355 C2339 1.349 . S
C2355 H2347 0.950 . S
C2355 C2353 1.327 . S
C2356 C2344 1.349 . S
C2356 H2350 0.950 . S
C2356 C2357 1.327 . S
C2357 H2351 0.950 . S
C2357 C2356 1.327 . S
C2357 C2361 1.429 . S
C2358 C2341 1.574 . S
C2358 H2352 0.949 . S
C2358 C2362 1.368 1_455 S
C2359 C2340 1.429 . S
C2359 C2353 1.429 . S
C2359 C2360 1.523 . S
C2360 C2341 1.368 1_545 S
C2360 C2354 1.368 1_455 S
C2360 C2359 1.523 . S
C2361 C2345 1.429 . S
C2361 C2357 1.429 . S
C2361 C2362 1.523 . S
C2362 C2346 1.368 1_565 S
C2362 C2358 1.368 1_655 S
C2362 C2361 1.523 . S
H2363 C2338 0.950 . S
H2364 C2340 0.950 . S
H2365 C2341 0.949 . S
H2366 C2343 0.950 . S
H2367 C2345 0.950 . S
C2368 C2369 1.349 . S
C2368 C2370 1.327 . S
C2368 H2393 0.950 . S
C2369 C2368 1.349 . S
C2369 C2385 1.349 . S
C2370 C2368 1.327 . S
C2370 C2389 1.429 . S
C2370 H2394 0.950 . S
C2371 C2388 1.574 . S
C2371 C2390 1.368 . S
C2371 H2395 0.949 . S
H2372 C2376 0.949 . S
C2373 C2374 1.349 . S
C2373 C2375 1.327 . S
C2373 H2396 0.950 . S
C2374 C2373 1.349 . S
C2374 C2386 1.349 . S
C2375 C2373 1.327 . S
C2375 C2391 1.429 . S
C2375 H2397 0.950 . S
C2376 H2372 0.949 . S
C2376 C2384 1.574 . S
C2376 C2392 1.368 . S
H2377 C2385 0.950 . S
H2378 C2383 0.950 . S
H2379 C2384 0.949 . S
H2380 C2386 0.950 . S
H2381 C2387 0.950 . S
H2382 C2388 0.949 . S
C2383 H2378 0.950 . S
C2383 C2385 1.327 . S
C2383 C2389 1.429 . S
C2384 C2376 1.574 . S
C2384 H2379 0.949 . S
C2384 C2390 1.368 1_455 S
C2385 C2369 1.349 . S
C2385 H2377 0.950 . S
C2385 C2383 1.327 . S
C2386 C2374 1.349 . S
C2386 H2380 0.950 . S
C2386 C2387 1.327 . S
C2387 H2381 0.950 . S
C2387 C2386 1.327 . S
C2387 C2391 1.429 . S
C2388 C2371 1.574 . S
C2388 H2382 0.949 . S
C2388 C2392 1.368 1_655 S
C2389 C2370 1.429 . S
C2389 C2383 1.429 . S
C2389 C2390 1.523 . S
C2390 C2371 1.368 . S
C2390 C2384 1.368 1_655 S
C2390 C2389 1.523 . S
C2391 C2375 1.429 . S
C2391 C2387 1.429 . S
C2391 C2392 1.523 . S
C2392 C2376 1.368 . S
C2392 C2388 1.368 1_455 S
C2392 C2391 1.523 . S
H2393 C2368 0.950 . S
H2394 C2370 0.950 . S
H2395 C2371 0.949 . S
H2396 C2373 0.950 . S
H2397 C2375 0.950 . S
C2398 C2399 1.349 . S
C2398 C2400 1.327 . S
C2398 H2423 0.950 . S
C2399 C2398 1.349 . S
C2399 C2415 1.349 . S
C2400 C2398 1.327 . S
C2400 C2419 1.429 . S
C2400 H2424 0.950 . S
C2401 C2418 1.574 1_455 S
C2401 C2420 1.368 . S
C2401 H2425 0.949 . S
H2402 C2406 0.949 . S
C2403 C2404 1.349 . S
C2403 C2405 1.327 . S
C2403 H2426 0.950 . S
C2404 C2403 1.349 . S
C2404 C2416 1.349 . S
C2405 C2403 1.327 . S
C2405 C2421 1.429 . S
C2405 H2427 0.950 . S
C2406 H2402 0.949 . S
C2406 C2414 1.574 1_655 S
C2406 C2422 1.368 . S
H2407 C2415 0.950 . S
H2408 C2413 0.950 . S
H2409 C2414 0.949 . S
H2410 C2416 0.950 . S
H2411 C2417 0.950 . S
H2412 C2418 0.949 . S
C2413 H2408 0.950 . S
C2413 C2415 1.327 . S
C2413 C2419 1.429 . S
C2414 C2406 1.574 1_455 S
C2414 H2409 0.949 . S
C2414 C2420 1.368 . S
C2415 C2399 1.349 . S
C2415 H2407 0.950 . S
C2415 C2413 1.327 . S
C2416 C2404 1.349 . S
C2416 H2410 0.950 . S
C2416 C2417 1.327 . S
C2417 H2411 0.950 . S
C2417 C2416 1.327 . S
C2417 C2421 1.429 . S
C2418 C2401 1.574 1_655 S
C2418 H2412 0.949 . S
C2418 C2422 1.368 . S
C2419 C2400 1.429 . S
C2419 C2413 1.429 . S
C2419 C2420 1.523 . S
C2420 C2401 1.368 . S
C2420 C2414 1.368 . S
C2420 C2419 1.523 . S
C2421 C2405 1.429 . S
C2421 C2417 1.429 . S
C2421 C2422 1.523 . S
C2422 C2406 1.368 . S
C2422 C2418 1.368 . S
C2422 C2421 1.523 . S
H2423 C2398 0.950 . S
H2424 C2400 0.950 . S
H2425 C2401 0.949 . S
H2426 C2403 0.950 . S
H2427 C2405 0.950 . S
C2428 C2429 1.349 . S
C2428 C2430 1.327 . S
C2428 H2453 0.950 . S
C2429 C2428 1.349 . S
C2429 C2445 1.349 . S
C2430 C2428 1.327 . S
C2430 C2449 1.429 . S
C2430 H2454 0.950 . S
C2431 C2448 1.574 . S
C2431 C2450 1.368 . S
C2431 H2455 0.949 . S
H2432 C2436 0.949 . S
C2433 C2434 1.349 . S
C2433 C2435 1.327 . S
C2433 H2456 0.950 . S
C2434 C2433 1.349 . S
C2434 C2446 1.349 . S
C2435 C2433 1.327 . S
C2435 C2451 1.429 . S
C2435 H2457 0.950 . S
C2436 H2432 0.949 . S
C2436 C2444 1.574 . S
C2436 C2452 1.368 . S
H2437 C2445 0.950 . S
H2438 C2443 0.950 . S
H2439 C2444 0.949 . S
H2440 C2446 0.950 . S
H2441 C2447 0.950 . S
H2442 C2448 0.949 . S
C2443 H2438 0.950 . S
C2443 C2445 1.327 . S
C2443 C2449 1.429 . S
C2444 C2436 1.574 . S
C2444 H2439 0.949 . S
C2444 C2450 1.368 . S
C2445 C2429 1.349 . S
C2445 H2437 0.950 . S
C2445 C2443 1.327 . S
C2446 C2434 1.349 . S
C2446 H2440 0.950 . S
C2446 C2447 1.327 . S
C2447 H2441 0.950 . S
C2447 C2446 1.327 . S
C2447 C2451 1.429 . S
C2448 C2431 1.574 . S
C2448 H2442 0.949 . S
C2448 C2452 1.368 . S
C2449 C2430 1.429 . S
C2449 C2443 1.429 . S
C2449 C2450 1.523 . S
C2450 C2431 1.368 . S
C2450 C2444 1.368 . S
C2450 C2449 1.523 . S
C2451 C2435 1.429 . S
C2451 C2447 1.429 . S
C2451 C2452 1.523 . S
C2452 C2436 1.368 . S
C2452 C2448 1.368 . S
C2452 C2451 1.523 . S
H2453 C2428 0.950 . S
H2454 C2430 0.950 . S
H2455 C2431 0.949 . S
H2456 C2433 0.950 . S
H2457 C2435 0.950 . S
C2458 C2459 1.349 . S
C2458 C2460 1.327 . S
C2458 H2483 0.950 . S
C2459 C2458 1.349 . S
C2459 C2475 1.349 . S
C2460 C2458 1.327 . S
C2460 C2479 1.429 . S
C2460 H2484 0.950 . S
C2461 C2478 1.574 . S
C2461 C2480 1.368 . S
C2461 H2485 0.949 . S
H2462 C2466 0.949 . S
C2463 C2464 1.349 . S
C2463 C2465 1.327 . S
C2463 H2486 0.950 . S
C2464 C2463 1.349 . S
C2464 C2476 1.349 . S
C2465 C2463 1.327 . S
C2465 C2481 1.429 . S
C2465 H2487 0.950 . S
C2466 H2462 0.949 . S
C2466 C2474 1.574 . S
C2466 C2482 1.368 . S
H2467 C2475 0.950 . S
H2468 C2473 0.950 . S
H2469 C2474 0.949 . S
H2470 C2476 0.950 . S
H2471 C2477 0.950 . S
H2472 C2478 0.949 . S
C2473 H2468 0.950 . S
C2473 C2475 1.327 . S
C2473 C2479 1.429 . S
C2474 C2466 1.574 . S
C2474 H2469 0.949 . S
C2474 C2480 1.368 . S
C2475 C2459 1.349 . S
C2475 H2467 0.950 . S
C2475 C2473 1.327 . S
C2476 C2464 1.349 . S
C2476 H2470 0.950 . S
C2476 C2477 1.327 . S
C2477 H2471 0.950 . S
C2477 C2476 1.327 . S
C2477 C2481 1.429 . S
C2478 C2461 1.574 . S
C2478 H2472 0.949 . S
C2478 C2482 1.368 . S
C2479 C2460 1.429 . S
C2479 C2473 1.429 . S
C2479 C2480 1.523 . S
C2480 C2461 1.368 . S
C2480 C2474 1.368 . S
C2480 C2479 1.523 . S
C2481 C2465 1.429 . S
C2481 C2477 1.429 . S
C2481 C2482 1.523 . S
C2482 C2466 1.368 . S
C2482 C2478 1.368 . S
C2482 C2481 1.523 . S
H2483 C2458 0.950 . S
H2484 C2460 0.950 . S
H2485 C2461 0.949 . S
H2486 C2463 0.950 . S
H2487 C2465 0.950 . S
C2488 C2489 1.349 . S
C2488 C2490 1.327 . S
C2488 H2513 0.950 . S
C2489 C2488 1.349 . S
C2489 C2505 1.349 . S
C2490 C2488 1.327 . S
C2490 C2509 1.429 . S
C2490 H2514 0.950 . S
C2491 C2508 1.574 . S
C2491 C2510 1.368 . S
C2491 H2515 0.949 . S
H2492 C2496 0.949 . S
C2493 C2494 1.349 . S
C2493 C2495 1.327 . S
C2493 H2516 0.950 . S
C2494 C2493 1.349 . S
C2494 C2506 1.349 . S
C2495 C2493 1.327 . S
C2495 C2511 1.429 . S
C2495 H2517 0.950 . S
C2496 H2492 0.949 . S
C2496 C2504 1.574 . S
C2496 C2512 1.368 . S
H2497 C2505 0.950 . S
H2498 C2503 0.950 . S
H2499 C2504 0.949 . S
H2500 C2506 0.950 . S
H2501 C2507 0.950 . S
H2502 C2508 0.949 . S
C2503 H2498 0.950 . S
C2503 C2505 1.327 . S
C2503 C2509 1.429 . S
C2504 C2496 1.574 . S
C2504 H2499 0.949 . S
C2504 C2510 1.368 1_455 S
C2505 C2489 1.349 . S
C2505 H2497 0.950 . S
C2505 C2503 1.327 . S
C2506 C2494 1.349 . S
C2506 H2500 0.950 . S
C2506 C2507 1.327 . S
C2507 H2501 0.950 . S
C2507 C2506 1.327 . S
C2507 C2511 1.429 . S
C2508 C2491 1.574 . S
C2508 H2502 0.949 . S
C2508 C2512 1.368 1_655 S
C2509 C2490 1.429 . S
C2509 C2503 1.429 . S
C2509 C2510 1.523 . S
C2510 C2491 1.368 . S
C2510 C2504 1.368 1_655 S
C2510 C2509 1.523 . S
C2511 C2495 1.429 . S
C2511 C2507 1.429 . S
C2511 C2512 1.523 . S
C2512 C2496 1.368 . S
C2512 C2508 1.368 1_455 S
C2512 C2511 1.523 . S
H2513 C2488 0.950 . S
H2514 C2490 0.950 . S
H2515 C2491 0.949 . S
H2516 C2493 0.950 . S
H2517 C2495 0.950 . S
C2518 C2519 1.349 . S
C2518 C2520 1.327 . S
C2518 H2543 0.950 . S
C2519 C2518 1.349 . S
C2519 C2535 1.349 . S
C2520 C2518 1.327 . S
C2520 C2539 1.429 . S
C2520 H2544 0.950 . S
C2521 C2538 1.574 . S
C2521 C2540 1.368 . S
C2521 H2545 0.949 . S
H2522 C2526 0.949 . S
C2523 C2524 1.349 . S
C2523 C2525 1.327 . S
C2523 H2546 0.950 . S
C2524 C2523 1.349 . S
C2524 C2536 1.349 . S
C2525 C2523 1.327 . S
C2525 C2541 1.429 . S
C2525 H2547 0.950 . S
C2526 H2522 0.949 . S
C2526 C2534 1.574 . S
C2526 C2542 1.368 . S
H2527 C2535 0.950 . S
H2528 C2533 0.950 . S
H2529 C2534 0.949 . S
H2530 C2536 0.950 . S
H2531 C2537 0.950 . S
H2532 C2538 0.949 . S
C2533 H2528 0.950 . S
C2533 C2535 1.327 . S
C2533 C2539 1.429 . S
C2534 C2526 1.574 . S
C2534 H2529 0.949 . S
C2534 C2540 1.368 . S
C2535 C2519 1.349 . S
C2535 H2527 0.950 . S
C2535 C2533 1.327 . S
C2536 C2524 1.349 . S
C2536 H2530 0.950 . S
C2536 C2537 1.327 . S
C2537 H2531 0.950 . S
C2537 C2536 1.327 . S
C2537 C2541 1.429 . S
C2538 C2521 1.574 . S
C2538 H2532 0.949 . S
C2538 C2542 1.368 . S
C2539 C2520 1.429 . S
C2539 C2533 1.429 . S
C2539 C2540 1.523 . S
C2540 C2521 1.368 . S
C2540 C2534 1.368 . S
C2540 C2539 1.523 . S
C2541 C2525 1.429 . S
C2541 C2537 1.429 . S
C2541 C2542 1.523 . S
C2542 C2526 1.368 . S
C2542 C2538 1.368 . S
C2542 C2541 1.523 . S
H2543 C2518 0.950 . S
H2544 C2520 0.950 . S
H2545 C2521 0.949 . S
H2546 C2523 0.950 . S
H2547 C2525 0.950 . S
C2548 C2549 1.349 . S
C2548 C2550 1.327 . S
C2548 H2573 0.950 . S
C2549 C2548 1.349 . S
C2549 C2565 1.349 . S
C2550 C2548 1.327 . S
C2550 C2569 1.429 . S
C2550 H2574 0.950 . S
C2551 C2568 1.574 . S
C2551 C2570 1.368 . S
C2551 H2575 0.949 . S
H2552 C2556 0.949 . S
C2553 C2554 1.349 . S
C2553 C2555 1.327 . S
C2553 H2576 0.950 . S
C2554 C2553 1.349 . S
C2554 C2566 1.349 . S
C2555 C2553 1.327 . S
C2555 C2571 1.429 . S
C2555 H2577 0.950 . S
C2556 H2552 0.949 . S
C2556 C2564 1.574 . S
C2556 C2572 1.368 . S
H2557 C2565 0.950 . S
H2558 C2563 0.950 . S
H2559 C2564 0.949 . S
H2560 C2566 0.950 . S
H2561 C2567 0.950 . S
H2562 C2568 0.949 . S
C2563 H2558 0.950 . S
C2563 C2565 1.327 . S
C2563 C2569 1.429 . S
C2564 C2556 1.574 . S
C2564 H2559 0.949 . S
C2564 C2570 1.368 . S
C2565 C2549 1.349 . S
C2565 H2557 0.950 . S
C2565 C2563 1.327 . S
C2566 C2554 1.349 . S
C2566 H2560 0.950 . S
C2566 C2567 1.327 . S
C2567 H2561 0.950 . S
C2567 C2566 1.327 . S
C2567 C2571 1.429 . S
C2568 C2551 1.574 . S
C2568 H2562 0.949 . S
C2568 C2572 1.368 . S
C2569 C2550 1.429 . S
C2569 C2563 1.429 . S
C2569 C2570 1.523 . S
C2570 C2551 1.368 . S
C2570 C2564 1.368 . S
C2570 C2569 1.523 . S
C2571 C2555 1.429 . S
C2571 C2567 1.429 . S
C2571 C2572 1.523 . S
C2572 C2556 1.368 . S
C2572 C2568 1.368 . S
C2572 C2571 1.523 . S
H2573 C2548 0.950 . S
H2574 C2550 0.950 . S
H2575 C2551 0.949 . S
H2576 C2553 0.950 . S
H2577 C2555 0.950 . S
C2578 C2579 1.349 . S
C2578 C2580 1.327 . S
C2578 H2603 0.950 . S
C2579 C2578 1.349 . S
C2579 C2595 1.349 . S
C2580 C2578 1.327 . S
C2580 C2599 1.429 . S
C2580 H2604 0.950 . S
C2581 C2598 1.574 1_455 S
C2581 C2600 1.368 . S
C2581 H2605 0.949 . S
H2582 C2586 0.949 . S
C2583 C2584 1.349 . S
C2583 C2585 1.327 . S
C2583 H2606 0.950 . S
C2584 C2583 1.349 . S
C2584 C2596 1.349 . S
C2585 C2583 1.327 . S
C2585 C2601 1.429 . S
C2585 H2607 0.950 . S
C2586 H2582 0.949 . S
C2586 C2594 1.574 1_655 S
C2586 C2602 1.368 . S
H2587 C2595 0.950 . S
H2588 C2593 0.950 . S
H2589 C2594 0.949 . S
H2590 C2596 0.950 . S
H2591 C2597 0.950 . S
H2592 C2598 0.949 . S
C2593 H2588 0.950 . S
C2593 C2595 1.327 . S
C2593 C2599 1.429 . S
C2594 C2586 1.574 1_455 S
C2594 H2589 0.949 . S
C2594 C2600 1.368 . S
C2595 C2579 1.349 . S
C2595 H2587 0.950 . S
C2595 C2593 1.327 . S
C2596 C2584 1.349 . S
C2596 H2590 0.950 . S
C2596 C2597 1.327 . S
C2597 H2591 0.950 . S
C2597 C2596 1.327 . S
C2597 C2601 1.429 . S
C2598 C2581 1.574 1_655 S
C2598 H2592 0.949 . S
C2598 C2602 1.368 . S
C2599 C2580 1.429 . S
C2599 C2593 1.429 . S
C2599 C2600 1.523 . S
C2600 C2581 1.368 . S
C2600 C2594 1.368 . S
C2600 C2599 1.523 . S
C2601 C2585 1.429 . S
C2601 C2597 1.429 . S
C2601 C2602 1.523 . S
C2602 C2586 1.368 . S
C2602 C2598 1.368 . S
C2602 C2601 1.523 . S
H2603 C2578 0.950 . S
H2604 C2580 0.950 . S
H2605 C2581 0.949 . S
H2606 C2583 0.950 . S
H2607 C2585 0.950 . S
C2608 C2609 1.349 . S
C2608 C2610 1.327 . S
C2608 H2633 0.950 . S
C2609 C2608 1.349 . S
C2609 C2625 1.349 . S
C2610 C2608 1.327 . S
C2610 C2629 1.429 . S
C2610 H2634 0.950 . S
C2611 C2628 1.574 . S
C2611 C2630 1.368 1_455 S
C2611 H2635 0.949 . S
H2612 C2616 0.949 . S
C2613 C2614 1.349 . S
C2613 C2615 1.327 . S
C2613 H2636 0.950 . S
C2614 C2613 1.349 . S
C2614 C2626 1.349 . S
C2615 C2613 1.327 . S
C2615 C2631 1.429 . S
C2615 H2637 0.950 . S
C2616 H2612 0.949 . S
C2616 C2624 1.574 . S
C2616 C2632 1.368 1_655 S
H2617 C2625 0.950 . S
H2618 C2623 0.950 . S
H2619 C2624 0.949 . S
H2620 C2626 0.950 . S
H2621 C2627 0.950 . S
H2622 C2628 0.949 . S
C2623 H2618 0.950 . S
C2623 C2625 1.327 . S
C2623 C2629 1.429 . S
C2624 C2616 1.574 . S
C2624 H2619 0.949 . S
C2624 C2630 1.368 . S
C2625 C2609 1.349 . S
C2625 H2617 0.950 . S
C2625 C2623 1.327 . S
C2626 C2614 1.349 . S
C2626 H2620 0.950 . S
C2626 C2627 1.327 . S
C2627 H2621 0.950 . S
C2627 C2626 1.327 . S
C2627 C2631 1.429 . S
C2628 C2611 1.574 . S
C2628 H2622 0.949 . S
C2628 C2632 1.368 . S
C2629 C2610 1.429 . S
C2629 C2623 1.429 . S
C2629 C2630 1.523 . S
C2630 C2611 1.368 1_655 S
C2630 C2624 1.368 . S
C2630 C2629 1.523 . S
C2631 C2615 1.429 . S
C2631 C2627 1.429 . S
C2631 C2632 1.523 . S
C2632 C2616 1.368 1_455 S
C2632 C2628 1.368 . S
C2632 C2631 1.523 . S
H2633 C2608 0.950 . S
H2634 C2610 0.950 . S
H2635 C2611 0.949 . S
H2636 C2613 0.950 . S
H2637 C2615 0.950 . S
C2638 C2639 1.349 . S
C2638 C2640 1.327 . S
C2638 H2663 0.950 . S
C2639 C2638 1.349 . S
C2639 C2655 1.349 . S
C2640 C2638 1.327 . S
C2640 C2659 1.429 . S
C2640 H2664 0.950 . S
C2641 C2658 1.574 1_655 S
C2641 C2660 1.368 . S
C2641 H2665 0.949 . S
H2642 C2646 0.949 . S
C2643 C2644 1.349 . S
C2643 C2645 1.327 . S
C2643 H2666 0.950 . S
C2644 C2643 1.349 . S
C2644 C2656 1.349 . S
C2645 C2643 1.327 . S
C2645 C2661 1.429 . S
C2645 H2667 0.950 . S
C2646 H2642 0.949 . S
C2646 C2654 1.574 1_455 S
C2646 C2662 1.368 . S
H2647 C2655 0.950 . S
H2648 C2653 0.950 . S
H2649 C2654 0.949 . S
H2650 C2656 0.950 . S
H2651 C2657 0.950 . S
H2652 C2658 0.949 . S
C2653 H2648 0.950 . S
C2653 C2655 1.327 . S
C2653 C2659 1.429 . S
C2654 C2646 1.574 1_655 S
C2654 H2649 0.949 . S
C2654 C2660 1.368 . S
C2655 C2639 1.349 . S
C2655 H2647 0.950 . S
C2655 C2653 1.327 . S
C2656 C2644 1.349 . S
C2656 H2650 0.950 . S
C2656 C2657 1.327 . S
C2657 H2651 0.950 . S
C2657 C2656 1.327 . S
C2657 C2661 1.429 . S
C2658 C2641 1.574 1_455 S
C2658 H2652 0.949 . S
C2658 C2662 1.368 . S
C2659 C2640 1.429 . S
C2659 C2653 1.429 . S
C2659 C2660 1.523 . S
C2660 C2641 1.368 . S
C2660 C2654 1.368 . S
C2660 C2659 1.523 . S
C2661 C2645 1.429 . S
C2661 C2657 1.429 . S
C2661 C2662 1.523 . S
C2662 C2646 1.368 . S
C2662 C2658 1.368 . S
C2662 C2661 1.523 . S
H2663 C2638 0.950 . S
H2664 C2640 0.950 . S
H2665 C2641 0.949 . S
H2666 C2643 0.950 . S
H2667 C2645 0.950 . S
C2668 C2669 1.349 . S
C2668 C2670 1.327 . S
C2668 H2693 0.950 . S
C2669 C2668 1.349 . S
C2669 C2685 1.349 . S
C2670 C2668 1.327 . S
C2670 C2689 1.429 . S
C2670 H2694 0.950 . S
C2671 C2688 1.574 . S
C2671 C2690 1.368 . S
C2671 H2695 0.949 . S
H2672 C2676 0.949 . S
C2673 C2674 1.349 . S
C2673 C2675 1.327 . S
C2673 H2696 0.950 . S
C2674 C2673 1.349 . S
C2674 C2686 1.349 . S
C2675 C2673 1.327 . S
C2675 C2691 1.429 . S
C2675 H2697 0.950 . S
C2676 H2672 0.949 . S
C2676 C2684 1.574 . S
C2676 C2692 1.368 . S
H2677 C2685 0.950 . S
H2678 C2683 0.950 . S
H2679 C2684 0.949 . S
H2680 C2686 0.950 . S
H2681 C2687 0.950 . S
H2682 C2688 0.949 . S
C2683 H2678 0.950 . S
C2683 C2685 1.327 . S
C2683 C2689 1.429 . S
C2684 C2676 1.574 . S
C2684 H2679 0.949 . S
C2684 C2690 1.368 . S
C2685 C2669 1.349 . S
C2685 H2677 0.950 . S
C2685 C2683 1.327 . S
C2686 C2674 1.349 . S
C2686 H2680 0.950 . S
C2686 C2687 1.327 . S
C2687 H2681 0.950 . S
C2687 C2686 1.327 . S
C2687 C2691 1.429 . S
C2688 C2671 1.574 . S
C2688 H2682 0.949 . S
C2688 C2692 1.368 . S
C2689 C2670 1.429 . S
C2689 C2683 1.429 . S
C2689 C2690 1.523 . S
C2690 C2671 1.368 . S
C2690 C2684 1.368 . S
C2690 C2689 1.523 . S
C2691 C2675 1.429 . S
C2691 C2687 1.429 . S
C2691 C2692 1.523 . S
C2692 C2676 1.368 . S
C2692 C2688 1.368 . S
C2692 C2691 1.523 . S
H2693 C2668 0.950 . S
H2694 C2670 0.950 . S
H2695 C2671 0.949 . S
H2696 C2673 0.950 . S
H2697 C2675 0.950 . S
C2698 C2699 1.349 . S
C2698 C2700 1.327 . S
C2698 H2723 0.950 . S
C2699 C2698 1.349 . S
C2699 C2715 1.349 . S
C2700 C2698 1.327 . S
C2700 C2719 1.429 . S
C2700 H2724 0.950 . S
C2701 C2718 1.574 . S
C2701 C2720 1.368 . S
C2701 H2725 0.949 . S
H2702 C2706 0.949 . S
C2703 C2704 1.349 . S
C2703 C2705 1.327 . S
C2703 H2726 0.950 . S
C2704 C2703 1.349 . S
C2704 C2716 1.349 . S
C2705 C2703 1.327 . S
C2705 C2721 1.429 . S
C2705 H2727 0.950 . S
C2706 H2702 0.949 . S
C2706 C2714 1.574 . S
C2706 C2722 1.368 . S
H2707 C2715 0.950 . S
H2708 C2713 0.950 . S
H2709 C2714 0.949 . S
H2710 C2716 0.950 . S
H2711 C2717 0.950 . S
H2712 C2718 0.949 . S
C2713 H2708 0.950 . S
C2713 C2715 1.327 . S
C2713 C2719 1.429 . S
C2714 C2706 1.574 . S
C2714 H2709 0.949 . S
C2714 C2720 1.368 . S
C2715 C2699 1.349 . S
C2715 H2707 0.950 . S
C2715 C2713 1.327 . S
C2716 C2704 1.349 . S
C2716 H2710 0.950 . S
C2716 C2717 1.327 . S
C2717 H2711 0.950 . S
C2717 C2716 1.327 . S
C2717 C2721 1.429 . S
C2718 C2701 1.574 . S
C2718 H2712 0.949 . S
C2718 C2722 1.368 . S
C2719 C2700 1.429 . S
C2719 C2713 1.429 . S
C2719 C2720 1.523 . S
C2720 C2701 1.368 . S
C2720 C2714 1.368 . S
C2720 C2719 1.523 . S
C2721 C2705 1.429 . S
C2721 C2717 1.429 . S
C2721 C2722 1.523 . S
C2722 C2706 1.368 . S
C2722 C2718 1.368 . S
C2722 C2721 1.523 . S
H2723 C2698 0.950 . S
H2724 C2700 0.950 . S
H2725 C2701 0.949 . S
H2726 C2703 0.950 . S
H2727 C2705 0.950 . S
C2728 C2729 1.349 . S
C2728 C2730 1.327 . S
C2728 H2753 0.950 . S
C2729 C2728 1.349 . S
C2729 C2745 1.349 . S
C2730 C2728 1.327 . S
C2730 C2749 1.429 . S
C2730 H2754 0.950 . S
C2731 C2748 1.574 . S
C2731 C2750 1.368 1_455 S
C2731 H2755 0.949 . S
H2732 C2736 0.949 . S
C2733 C2734 1.349 . S
C2733 C2735 1.327 . S
C2733 H2756 0.950 . S
C2734 C2733 1.349 . S
C2734 C2746 1.349 . S
C2735 C2733 1.327 . S
C2735 C2751 1.429 . S
C2735 H2757 0.950 . S
C2736 H2732 0.949 . S
C2736 C2744 1.574 . S
C2736 C2752 1.368 1_655 S
H2737 C2745 0.950 . S
H2738 C2743 0.950 . S
H2739 C2744 0.949 . S
H2740 C2746 0.950 . S
H2741 C2747 0.950 . S
H2742 C2748 0.949 . S
C2743 H2738 0.950 . S
C2743 C2745 1.327 . S
C2743 C2749 1.429 . S
C2744 C2736 1.574 . S
C2744 H2739 0.949 . S
C2744 C2750 1.368 . S
C2745 C2729 1.349 . S
C2745 H2737 0.950 . S
C2745 C2743 1.327 . S
C2746 C2734 1.349 . S
C2746 H2740 0.950 . S
C2746 C2747 1.327 . S
C2747 H2741 0.950 . S
C2747 C2746 1.327 . S
C2747 C2751 1.429 . S
C2748 C2731 1.574 . S
C2748 H2742 0.949 . S
C2748 C2752 1.368 . S
C2749 C2730 1.429 . S
C2749 C2743 1.429 . S
C2749 C2750 1.523 . S
C2750 C2731 1.368 1_655 S
C2750 C2744 1.368 . S
C2750 C2749 1.523 . S
C2751 C2735 1.429 . S
C2751 C2747 1.429 . S
C2751 C2752 1.523 . S
C2752 C2736 1.368 1_455 S
C2752 C2748 1.368 . S
C2752 C2751 1.523 . S
H2753 C2728 0.950 . S
H2754 C2730 0.950 . S
H2755 C2731 0.949 . S
H2756 C2733 0.950 . S
H2757 C2735 0.950 . S
C2758 C2759 1.349 . S
C2758 C2760 1.327 . S
C2758 H2783 0.950 . S
C2759 C2758 1.349 . S
C2759 C2775 1.349 . S
C2760 C2758 1.327 . S
C2760 C2779 1.429 . S
C2760 H2784 0.950 . S
C2761 C2778 1.574 . S
C2761 C2780 1.368 . S
C2761 H2785 0.949 . S
H2762 C2766 0.949 . S
C2763 C2764 1.349 . S
C2763 C2765 1.327 . S
C2763 H2786 0.950 . S
C2764 C2763 1.349 . S
C2764 C2776 1.349 . S
C2765 C2763 1.327 . S
C2765 C2781 1.429 . S
C2765 H2787 0.950 . S
C2766 H2762 0.949 . S
C2766 C2774 1.574 . S
C2766 C2782 1.368 . S
H2767 C2775 0.950 . S
H2768 C2773 0.950 . S
H2769 C2774 0.949 . S
H2770 C2776 0.950 . S
H2771 C2777 0.950 . S
H2772 C2778 0.949 . S
C2773 H2768 0.950 . S
C2773 C2775 1.327 . S
C2773 C2779 1.429 . S
C2774 C2766 1.574 . S
C2774 H2769 0.949 . S
C2774 C2780 1.368 . S
C2775 C2759 1.349 . S
C2775 H2767 0.950 . S
C2775 C2773 1.327 . S
C2776 C2764 1.349 . S
C2776 H2770 0.950 . S
C2776 C2777 1.327 . S
C2777 H2771 0.950 . S
C2777 C2776 1.327 . S
C2777 C2781 1.429 . S
C2778 C2761 1.574 . S
C2778 H2772 0.949 . S
C2778 C2782 1.368 . S
C2779 C2760 1.429 . S
C2779 C2773 1.429 . S
C2779 C2780 1.523 . S
C2780 C2761 1.368 . S
C2780 C2774 1.368 . S
C2780 C2779 1.523 . S
C2781 C2765 1.429 . S
C2781 C2777 1.429 . S
C2781 C2782 1.523 . S
C2782 C2766 1.368 . S
C2782 C2778 1.368 . S
C2782 C2781 1.523 . S
H2783 C2758 0.950 . S
H2784 C2760 0.950 . S
H2785 C2761 0.949 . S
H2786 C2763 0.950 . S
H2787 C2765 0.950 . S
C2788 C2789 1.349 . S
C2788 C2790 1.327 . S
C2788 H2813 0.950 . S
C2789 C2788 1.349 . S
C2789 C2805 1.349 . S
C2790 C2788 1.327 . S
C2790 C2809 1.429 . S
C2790 H2814 0.950 . S
C2791 C2808 1.574 . S
C2791 C2810 1.368 . S
C2791 H2815 0.949 . S
H2792 C2796 0.949 . S
C2793 C2794 1.349 . S
C2793 C2795 1.327 . S
C2793 H2816 0.950 . S
C2794 C2793 1.349 . S
C2794 C2806 1.349 . S
C2795 C2793 1.327 . S
C2795 C2811 1.429 . S
C2795 H2817 0.950 . S
C2796 H2792 0.949 . S
C2796 C2804 1.574 . S
C2796 C2812 1.368 . S
H2797 C2805 0.950 . S
H2798 C2803 0.950 . S
H2799 C2804 0.949 . S
H2800 C2806 0.950 . S
H2801 C2807 0.950 . S
H2802 C2808 0.949 . S
C2803 H2798 0.950 . S
C2803 C2805 1.327 . S
C2803 C2809 1.429 . S
C2804 C2796 1.574 . S
C2804 H2799 0.949 . S
C2804 C2810 1.368 . S
C2805 C2789 1.349 . S
C2805 H2797 0.950 . S
C2805 C2803 1.327 . S
C2806 C2794 1.349 . S
C2806 H2800 0.950 . S
C2806 C2807 1.327 . S
C2807 H2801 0.950 . S
C2807 C2806 1.327 . S
C2807 C2811 1.429 . S
C2808 C2791 1.574 . S
C2808 H2802 0.949 . S
C2808 C2812 1.368 . S
C2809 C2790 1.429 . S
C2809 C2803 1.429 . S
C2809 C2810 1.523 . S
C2810 C2791 1.368 . S
C2810 C2804 1.368 . S
C2810 C2809 1.523 . S
C2811 C2795 1.429 . S
C2811 C2807 1.429 . S
C2811 C2812 1.523 . S
C2812 C2796 1.368 . S
C2812 C2808 1.368 . S
C2812 C2811 1.523 . S
H2813 C2788 0.950 . S
H2814 C2790 0.950 . S
H2815 C2791 0.949 . S
H2816 C2793 0.950 . S
H2817 C2795 0.950 . S
C2818 C2819 1.349 . S
C2818 C2820 1.327 . S
C2818 H2843 0.950 . S
C2819 C2818 1.349 . S
C2819 C2835 1.349 . S
C2820 C2818 1.327 . S
C2820 C2839 1.429 . S
C2820 H2844 0.950 . S
C2821 C2838 1.574 1_655 S
C2821 C2840 1.368 . S
C2821 H2845 0.949 . S
H2822 C2826 0.949 . S
C2823 C2824 1.349 . S
C2823 C2825 1.327 . S
C2823 H2846 0.950 . S
C2824 C2823 1.349 . S
C2824 C2836 1.349 . S
C2825 C2823 1.327 . S
C2825 C2841 1.429 . S
C2825 H2847 0.950 . S
C2826 H2822 0.949 . S
C2826 C2834 1.574 1_455 S
C2826 C2842 1.368 . S
H2827 C2835 0.950 . S
H2828 C2833 0.950 . S
H2829 C2834 0.949 . S
H2830 C2836 0.950 . S
H2831 C2837 0.950 . S
H2832 C2838 0.949 . S
C2833 H2828 0.950 . S
C2833 C2835 1.327 . S
C2833 C2839 1.429 . S
C2834 C2826 1.574 1_655 S
C2834 H2829 0.949 . S
C2834 C2840 1.368 . S
C2835 C2819 1.349 . S
C2835 H2827 0.950 . S
C2835 C2833 1.327 . S
C2836 C2824 1.349 . S
C2836 H2830 0.950 . S
C2836 C2837 1.327 . S
C2837 H2831 0.950 . S
C2837 C2836 1.327 . S
C2837 C2841 1.429 . S
C2838 C2821 1.574 1_455 S
C2838 H2832 0.949 . S
C2838 C2842 1.368 . S
C2839 C2820 1.429 . S
C2839 C2833 1.429 . S
C2839 C2840 1.523 . S
C2840 C2821 1.368 . S
C2840 C2834 1.368 . S
C2840 C2839 1.523 . S
C2841 C2825 1.429 . S
C2841 C2837 1.429 . S
C2841 C2842 1.523 . S
C2842 C2826 1.368 . S
C2842 C2838 1.368 . S
C2842 C2841 1.523 . S
H2843 C2818 0.950 . S
H2844 C2820 0.950 . S
H2845 C2821 0.949 . S
H2846 C2823 0.950 . S
H2847 C2825 0.950 . S
C2848 C2849 1.349 . S
C2848 C2850 1.327 . S
C2848 H2873 0.950 . S
C2849 C2848 1.349 . S
C2849 C2865 1.349 . S
C2850 C2848 1.327 . S
C2850 C2869 1.429 . S
C2850 H2874 0.950 . S
C2851 C2868 1.574 . S
C2851 C2870 1.368 . S
C2851 H2875 0.949 . S
H2852 C2856 0.949 . S
C2853 C2854 1.349 . S
C2853 C2855 1.327 . S
C2853 H2876 0.950 . S
C2854 C2853 1.349 . S
C2854 C2866 1.349 . S
C2855 C2853 1.327 . S
C2855 C2871 1.429 . S
C2855 H2877 0.950 . S
C2856 H2852 0.949 . S
C2856 C2864 1.574 . S
C2856 C2872 1.368 . S
H2857 C2865 0.950 . S
H2858 C2863 0.950 . S
H2859 C2864 0.949 . S
H2860 C2866 0.950 . S
H2861 C2867 0.950 . S
H2862 C2868 0.949 . S
C2863 H2858 0.950 . S
C2863 C2865 1.327 . S
C2863 C2869 1.429 . S
C2864 C2856 1.574 . S
C2864 H2859 0.949 . S
C2864 C2870 1.368 1_554 S
C2865 C2849 1.349 . S
C2865 H2857 0.950 . S
C2865 C2863 1.327 . S
C2866 C2854 1.349 . S
C2866 H2860 0.950 . S
C2866 C2867 1.327 . S
C2867 H2861 0.950 . S
C2867 C2866 1.327 . S
C2867 C2871 1.429 . S
C2868 C2851 1.574 . S
C2868 H2862 0.949 . S
C2868 C2872 1.368 1_556 S
C2869 C2850 1.429 . S
C2869 C2863 1.429 . S
C2869 C2870 1.523 . S
C2870 C2851 1.368 . S
C2870 C2864 1.368 1_556 S
C2870 C2869 1.523 . S
C2871 C2855 1.429 . S
C2871 C2867 1.429 . S
C2871 C2872 1.523 . S
C2872 C2856 1.368 . S
C2872 C2868 1.368 1_554 S
C2872 C2871 1.523 . S
H2873 C2848 0.950 . S
H2874 C2850 0.950 . S
H2875 C2851 0.949 . S
H2876 C2853 0.950 . S
H2877 C2855 0.950 . S
C2878 C2879 1.349 . S
C2878 C2880 1.327 . S
C2878 H2903 0.950 . S
C2879 C2878 1.349 . S
C2879 C2895 1.349 . S
C2880 C2878 1.327 . S
C2880 C2899 1.429 . S
C2880 H2904 0.950 . S
C2881 C2898 1.574 1_545 S
C2881 C2900 1.368 . S
C2881 H2905 0.949 . S
H2882 C2886 0.949 . S
C2883 C2884 1.349 . S
C2883 C2885 1.327 . S
C2883 H2906 0.950 . S
C2884 C2883 1.349 . S
C2884 C2896 1.349 . S
C2885 C2883 1.327 . S
C2885 C2901 1.429 . S
C2885 H2907 0.950 . S
C2886 H2882 0.949 . S
C2886 C2894 1.574 1_565 S
C2886 C2902 1.368 . S
H2887 C2895 0.950 . S
H2888 C2893 0.950 . S
H2889 C2894 0.949 . S
H2890 C2896 0.950 . S
H2891 C2897 0.950 . S
H2892 C2898 0.949 . S
C2893 H2888 0.950 . S
C2893 C2895 1.327 . S
C2893 C2899 1.429 . S
C2894 C2886 1.574 1_545 S
C2894 H2889 0.949 . S
C2894 C2900 1.368 . S
C2895 C2879 1.349 . S
C2895 H2887 0.950 . S
C2895 C2893 1.327 . S
C2896 C2884 1.349 . S
C2896 H2890 0.950 . S
C2896 C2897 1.327 . S
C2897 H2891 0.950 . S
C2897 C2896 1.327 . S
C2897 C2901 1.429 . S
C2898 C2881 1.574 1_565 S
C2898 H2892 0.949 . S
C2898 C2902 1.368 . S
C2899 C2880 1.429 . S
C2899 C2893 1.429 . S
C2899 C2900 1.523 . S
C2900 C2881 1.368 . S
C2900 C2894 1.368 . S
C2900 C2899 1.523 . S
C2901 C2885 1.429 . S
C2901 C2897 1.429 . S
C2901 C2902 1.523 . S
C2902 C2886 1.368 . S
C2902 C2898 1.368 . S
C2902 C2901 1.523 . S
H2903 C2878 0.950 . S
H2904 C2880 0.950 . S
H2905 C2881 0.949 . S
H2906 C2883 0.950 . S
H2907 C2885 0.950 . S
C2908 C2909 1.349 . S
C2908 C2910 1.327 . S
C2908 H2933 0.950 . S
C2909 C2908 1.349 . S
C2909 C2925 1.349 . S
C2910 C2908 1.327 . S
C2910 C2929 1.429 . S
C2910 H2934 0.950 . S
C2911 C2928 1.574 . S
C2911 C2930 1.368 . S
C2911 H2935 0.949 . S
H2912 C2916 0.949 . S
C2913 C2914 1.349 . S
C2913 C2915 1.327 . S
C2913 H2936 0.950 . S
C2914 C2913 1.349 . S
C2914 C2926 1.349 . S
C2915 C2913 1.327 . S
C2915 C2931 1.429 . S
C2915 H2937 0.950 . S
C2916 H2912 0.949 . S
C2916 C2924 1.574 . S
C2916 C2932 1.368 . S
H2917 C2925 0.950 . S
H2918 C2923 0.950 . S
H2919 C2924 0.949 . S
H2920 C2926 0.950 . S
H2921 C2927 0.950 . S
H2922 C2928 0.949 . S
C2923 H2918 0.950 . S
C2923 C2925 1.327 . S
C2923 C2929 1.429 . S
C2924 C2916 1.574 . S
C2924 H2919 0.949 . S
C2924 C2930 1.368 . S
C2925 C2909 1.349 . S
C2925 H2917 0.950 . S
C2925 C2923 1.327 . S
C2926 C2914 1.349 . S
C2926 H2920 0.950 . S
C2926 C2927 1.327 . S
C2927 H2921 0.950 . S
C2927 C2926 1.327 . S
C2927 C2931 1.429 . S
C2928 C2911 1.574 . S
C2928 H2922 0.949 . S
C2928 C2932 1.368 . S
C2929 C2910 1.429 . S
C2929 C2923 1.429 . S
C2929 C2930 1.523 . S
C2930 C2911 1.368 . S
C2930 C2924 1.368 . S
C2930 C2929 1.523 . S
C2931 C2915 1.429 . S
C2931 C2927 1.429 . S
C2931 C2932 1.523 . S
C2932 C2916 1.368 . S
C2932 C2928 1.368 . S
C2932 C2931 1.523 . S
H2933 C2908 0.950 . S
H2934 C2910 0.950 . S
H2935 C2911 0.949 . S
H2936 C2913 0.950 . S
H2937 C2915 0.950 . S
C2938 C2939 1.349 . S
C2938 C2940 1.327 . S
C2938 H2963 0.950 . S
C2939 C2938 1.349 . S
C2939 C2955 1.349 . S
C2940 C2938 1.327 . S
C2940 C2959 1.429 . S
C2940 H2964 0.950 . S
C2941 C2958 1.574 1_545 S
C2941 C2960 1.368 . S
C2941 H2965 0.949 . S
H2942 C2946 0.949 . S
C2943 C2944 1.349 . S
C2943 C2945 1.327 . S
C2943 H2966 0.950 . S
C2944 C2943 1.349 . S
C2944 C2956 1.349 . S
C2945 C2943 1.327 . S
C2945 C2961 1.429 . S
C2945 H2967 0.950 . S
C2946 H2942 0.949 . S
C2946 C2954 1.574 1_565 S
C2946 C2962 1.368 . S
H2947 C2955 0.950 . S
H2948 C2953 0.950 . S
H2949 C2954 0.949 . S
H2950 C2956 0.950 . S
H2951 C2957 0.950 . S
H2952 C2958 0.949 . S
C2953 H2948 0.950 . S
C2953 C2955 1.327 . S
C2953 C2959 1.429 . S
C2954 C2946 1.574 1_545 S
C2954 H2949 0.949 . S
C2954 C2960 1.368 . S
C2955 C2939 1.349 . S
C2955 H2947 0.950 . S
C2955 C2953 1.327 . S
C2956 C2944 1.349 . S
C2956 H2950 0.950 . S
C2956 C2957 1.327 . S
C2957 H2951 0.950 . S
C2957 C2956 1.327 . S
C2957 C2961 1.429 . S
C2958 C2941 1.574 1_565 S
C2958 H2952 0.949 . S
C2958 C2962 1.368 . S
C2959 C2940 1.429 . S
C2959 C2953 1.429 . S
C2959 C2960 1.523 . S
C2960 C2941 1.368 . S
C2960 C2954 1.368 . S
C2960 C2959 1.523 . S
C2961 C2945 1.429 . S
C2961 C2957 1.429 . S
C2961 C2962 1.523 . S
C2962 C2946 1.368 . S
C2962 C2958 1.368 . S
C2962 C2961 1.523 . S
H2963 C2938 0.950 . S
H2964 C2940 0.950 . S
H2965 C2941 0.949 . S
H2966 C2943 0.950 . S
H2967 C2945 0.950 . S
C2968 C2969 1.349 . S
C2968 C2970 1.327 . S
C2968 H2993 0.950 . S
C2969 C2968 1.349 . S
C2969 C2985 1.349 . S
C2970 C2968 1.327 . S
C2970 C2989 1.429 . S
C2970 H2994 0.950 . S
C2971 C2988 1.574 . S
C2971 C2990 1.368 . S
C2971 H2995 0.949 . S
H2972 C2976 0.949 . S
C2973 C2974 1.349 . S
C2973 C2975 1.327 . S
C2973 H2996 0.950 . S
C2974 C2973 1.349 . S
C2974 C2986 1.349 . S
C2975 C2973 1.327 . S
C2975 C2991 1.429 . S
C2975 H2997 0.950 . S
C2976 H2972 0.949 . S
C2976 C2984 1.574 . S
C2976 C2992 1.368 . S
H2977 C2985 0.950 . S
H2978 C2983 0.950 . S
H2979 C2984 0.949 . S
H2980 C2986 0.950 . S
H2981 C2987 0.950 . S
H2982 C2988 0.949 . S
C2983 H2978 0.950 . S
C2983 C2985 1.327 . S
C2983 C2989 1.429 . S
C2984 C2976 1.574 . S
C2984 H2979 0.949 . S
C2984 C2990 1.368 1_556 S
C2985 C2969 1.349 . S
C2985 H2977 0.950 . S
C2985 C2983 1.327 . S
C2986 C2974 1.349 . S
C2986 H2980 0.950 . S
C2986 C2987 1.327 . S
C2987 H2981 0.950 . S
C2987 C2986 1.327 . S
C2987 C2991 1.429 . S
C2988 C2971 1.574 . S
C2988 H2982 0.949 . S
C2988 C2992 1.368 1_554 S
C2989 C2970 1.429 . S
C2989 C2983 1.429 . S
C2989 C2990 1.523 . S
C2990 C2971 1.368 . S
C2990 C2984 1.368 1_554 S
C2990 C2989 1.523 . S
C2991 C2975 1.429 . S
C2991 C2987 1.429 . S
C2991 C2992 1.523 . S
C2992 C2976 1.368 . S
C2992 C2988 1.368 1_556 S
C2992 C2991 1.523 . S
H2993 C2968 0.950 . S
H2994 C2970 0.950 . S
H2995 C2971 0.949 . S
H2996 C2973 0.950 . S
H2997 C2975 0.950 . S
C2998 C2999 1.349 . S
C2998 C3000 1.327 . S
C2998 H3023 0.950 . S
C2999 C2998 1.349 . S
C2999 C3015 1.349 . S
C3000 C2998 1.327 . S
C3000 C3019 1.429 . S
C3000 H3024 0.950 . S
C3001 C3018 1.574 1_565 S
C3001 C3020 1.368 . S
C3001 H3025 0.949 . S
H3002 C3006 0.949 . S
C3003 C3004 1.349 . S
C3003 C3005 1.327 . S
C3003 H3026 0.950 . S
C3004 C3003 1.349 . S
C3004 C3016 1.349 . S
C3005 C3003 1.327 . S
C3005 C3021 1.429 . S
C3005 H3027 0.950 . S
C3006 H3002 0.949 . S
C3006 C3014 1.574 1_545 S
C3006 C3022 1.368 . S
H3007 C3015 0.950 . S
H3008 C3013 0.950 . S
H3009 C3014 0.949 . S
H3010 C3016 0.950 . S
H3011 C3017 0.950 . S
H3012 C3018 0.949 . S
C3013 H3008 0.950 . S
C3013 C3015 1.327 . S
C3013 C3019 1.429 . S
C3014 C3006 1.574 1_565 S
C3014 H3009 0.949 . S
C3014 C3020 1.368 . S
C3015 C2999 1.349 . S
C3015 H3007 0.950 . S
C3015 C3013 1.327 . S
C3016 C3004 1.349 . S
C3016 H3010 0.950 . S
C3016 C3017 1.327 . S
C3017 H3011 0.950 . S
C3017 C3016 1.327 . S
C3017 C3021 1.429 . S
C3018 C3001 1.574 1_545 S
C3018 H3012 0.949 . S
C3018 C3022 1.368 . S
C3019 C3000 1.429 . S
C3019 C3013 1.429 . S
C3019 C3020 1.523 . S
C3020 C3001 1.368 . S
C3020 C3014 1.368 . S
C3020 C3019 1.523 . S
C3021 C3005 1.429 . S
C3021 C3017 1.429 . S
C3021 C3022 1.523 . S
C3022 C3006 1.368 . S
C3022 C3018 1.368 . S
C3022 C3021 1.523 . S
H3023 C2998 0.950 . S
H3024 C3000 0.950 . S
H3025 C3001 0.949 . S
H3026 C3003 0.950 . S
H3027 C3005 0.950 . S
C3028 C3029 1.349 . S
C3028 C3030 1.327 . S
C3028 H3053 0.950 . S
C3029 C3028 1.349 . S
C3029 C3045 1.349 . S
C3030 C3028 1.327 . S
C3030 C3049 1.429 . S
C3030 H3054 0.950 . S
C3031 C3048 1.574 . S
C3031 C3050 1.368 . S
C3031 H3055 0.949 . S
H3032 C3036 0.949 . S
C3033 C3034 1.349 . S
C3033 C3035 1.327 . S
C3033 H3056 0.950 . S
C3034 C3033 1.349 . S
C3034 C3046 1.349 . S
C3035 C3033 1.327 . S
C3035 C3051 1.429 . S
C3035 H3057 0.950 . S
C3036 H3032 0.949 . S
C3036 C3044 1.574 . S
C3036 C3052 1.368 . S
H3037 C3045 0.950 . S
H3038 C3043 0.950 . S
H3039 C3044 0.949 . S
H3040 C3046 0.950 . S
H3041 C3047 0.950 . S
H3042 C3048 0.949 . S
C3043 H3038 0.950 . S
C3043 C3045 1.327 . S
C3043 C3049 1.429 . S
C3044 C3036 1.574 . S
C3044 H3039 0.949 . S
C3044 C3050 1.368 . S
C3045 C3029 1.349 . S
C3045 H3037 0.950 . S
C3045 C3043 1.327 . S
C3046 C3034 1.349 . S
C3046 H3040 0.950 . S
C3046 C3047 1.327 . S
C3047 H3041 0.950 . S
C3047 C3046 1.327 . S
C3047 C3051 1.429 . S
C3048 C3031 1.574 . S
C3048 H3042 0.949 . S
C3048 C3052 1.368 . S
C3049 C3030 1.429 . S
C3049 C3043 1.429 . S
C3049 C3050 1.523 . S
C3050 C3031 1.368 . S
C3050 C3044 1.368 . S
C3050 C3049 1.523 . S
C3051 C3035 1.429 . S
C3051 C3047 1.429 . S
C3051 C3052 1.523 . S
C3052 C3036 1.368 . S
C3052 C3048 1.368 . S
C3052 C3051 1.523 . S
H3053 C3028 0.950 . S
H3054 C3030 0.950 . S
H3055 C3031 0.949 . S
H3056 C3033 0.950 . S
H3057 C3035 0.950 . S
C3058 C3059 1.349 . S
C3058 C3060 1.327 . S
C3058 H3083 0.950 . S
C3059 C3058 1.349 . S
C3059 C3075 1.349 . S
C3060 C3058 1.327 . S
C3060 C3079 1.429 . S
C3060 H3084 0.950 . S
C3061 C3078 1.574 1_545 S
C3061 C3080 1.368 . S
C3061 H3085 0.949 . S
H3062 C3066 0.949 . S
C3063 C3064 1.349 . S
C3063 C3065 1.327 . S
C3063 H3086 0.950 . S
C3064 C3063 1.349 . S
C3064 C3076 1.349 . S
C3065 C3063 1.327 . S
C3065 C3081 1.429 . S
C3065 H3087 0.950 . S
C3066 H3062 0.949 . S
C3066 C3074 1.574 1_565 S
C3066 C3082 1.368 . S
H3067 C3075 0.950 . S
H3068 C3073 0.950 . S
H3069 C3074 0.949 . S
H3070 C3076 0.950 . S
H3071 C3077 0.950 . S
H3072 C3078 0.949 . S
C3073 H3068 0.950 . S
C3073 C3075 1.327 . S
C3073 C3079 1.429 . S
C3074 C3066 1.574 1_545 S
C3074 H3069 0.949 . S
C3074 C3080 1.368 . S
C3075 C3059 1.349 . S
C3075 H3067 0.950 . S
C3075 C3073 1.327 . S
C3076 C3064 1.349 . S
C3076 H3070 0.950 . S
C3076 C3077 1.327 . S
C3077 H3071 0.950 . S
C3077 C3076 1.327 . S
C3077 C3081 1.429 . S
C3078 C3061 1.574 1_565 S
C3078 H3072 0.949 . S
C3078 C3082 1.368 . S
C3079 C3060 1.429 . S
C3079 C3073 1.429 . S
C3079 C3080 1.523 . S
C3080 C3061 1.368 . S
C3080 C3074 1.368 . S
C3080 C3079 1.523 . S
C3081 C3065 1.429 . S
C3081 C3077 1.429 . S
C3081 C3082 1.523 . S
C3082 C3066 1.368 . S
C3082 C3078 1.368 . S
C3082 C3081 1.523 . S
H3083 C3058 0.950 . S
H3084 C3060 0.950 . S
H3085 C3061 0.949 . S
H3086 C3063 0.950 . S
H3087 C3065 0.950 . S
C3088 C3089 1.349 . S
C3088 C3090 1.327 . S
C3088 H3113 0.950 . S
C3089 C3088 1.349 . S
C3089 C3105 1.349 . S
C3090 C3088 1.327 . S
C3090 C3109 1.429 . S
C3090 H3114 0.950 . S
C3091 C3108 1.574 . S
C3091 C3110 1.368 . S
C3091 H3115 0.949 . S
H3092 C3096 0.949 . S
C3093 C3094 1.349 . S
C3093 C3095 1.327 . S
C3093 H3116 0.950 . S
C3094 C3093 1.349 . S
C3094 C3106 1.349 . S
C3095 C3093 1.327 . S
C3095 C3111 1.429 . S
C3095 H3117 0.950 . S
C3096 H3092 0.949 . S
C3096 C3104 1.574 . S
C3096 C3112 1.368 . S
H3097 C3105 0.950 . S
H3098 C3103 0.950 . S
H3099 C3104 0.949 . S
H3100 C3106 0.950 . S
H3101 C3107 0.950 . S
H3102 C3108 0.949 . S
C3103 H3098 0.950 . S
C3103 C3105 1.327 . S
C3103 C3109 1.429 . S
C3104 C3096 1.574 . S
C3104 H3099 0.949 . S
C3104 C3110 1.368 . S
C3105 C3089 1.349 . S
C3105 H3097 0.950 . S
C3105 C3103 1.327 . S
C3106 C3094 1.349 . S
C3106 H3100 0.950 . S
C3106 C3107 1.327 . S
C3107 H3101 0.950 . S
C3107 C3106 1.327 . S
C3107 C3111 1.429 . S
C3108 C3091 1.574 . S
C3108 H3102 0.949 . S
C3108 C3112 1.368 . S
C3109 C3090 1.429 . S
C3109 C3103 1.429 . S
C3109 C3110 1.523 . S
C3110 C3091 1.368 . S
C3110 C3104 1.368 . S
C3110 C3109 1.523 . S
C3111 C3095 1.429 . S
C3111 C3107 1.429 . S
C3111 C3112 1.523 . S
C3112 C3096 1.368 . S
C3112 C3108 1.368 . S
C3112 C3111 1.523 . S
H3113 C3088 0.950 . S
H3114 C3090 0.950 . S
H3115 C3091 0.949 . S
H3116 C3093 0.950 . S
H3117 C3095 0.950 . S
C3118 C3119 1.349 . S
C3118 C3120 1.327 . S
C3118 H3143 0.950 . S
C3119 C3118 1.349 . S
C3119 C3135 1.349 . S
C3120 C3118 1.327 . S
C3120 C3139 1.429 . S
C3120 H3144 0.950 . S
C3121 C3138 1.574 . S
C3121 C3140 1.368 . S
C3121 H3145 0.949 . S
H3122 C3126 0.949 . S
C3123 C3124 1.349 . S
C3123 C3125 1.327 . S
C3123 H3146 0.950 . S
C3124 C3123 1.349 . S
C3124 C3136 1.349 . S
C3125 C3123 1.327 . S
C3125 C3141 1.429 . S
C3125 H3147 0.950 . S
C3126 H3122 0.949 . S
C3126 C3134 1.574 . S
C3126 C3142 1.368 . S
H3127 C3135 0.950 . S
H3128 C3133 0.950 . S
H3129 C3134 0.949 . S
H3130 C3136 0.950 . S
H3131 C3137 0.950 . S
H3132 C3138 0.949 . S
C3133 H3128 0.950 . S
C3133 C3135 1.327 . S
C3133 C3139 1.429 . S
C3134 C3126 1.574 . S
C3134 H3129 0.949 . S
C3134 C3140 1.368 . S
C3135 C3119 1.349 . S
C3135 H3127 0.950 . S
C3135 C3133 1.327 . S
C3136 C3124 1.349 . S
C3136 H3130 0.950 . S
C3136 C3137 1.327 . S
C3137 H3131 0.950 . S
C3137 C3136 1.327 . S
C3137 C3141 1.429 . S
C3138 C3121 1.574 . S
C3138 H3132 0.949 . S
C3138 C3142 1.368 . S
C3139 C3120 1.429 . S
C3139 C3133 1.429 . S
C3139 C3140 1.523 . S
C3140 C3121 1.368 . S
C3140 C3134 1.368 . S
C3140 C3139 1.523 . S
C3141 C3125 1.429 . S
C3141 C3137 1.429 . S
C3141 C3142 1.523 . S
C3142 C3126 1.368 . S
C3142 C3138 1.368 . S
C3142 C3141 1.523 . S
H3143 C3118 0.950 . S
H3144 C3120 0.950 . S
H3145 C3121 0.949 . S
H3146 C3123 0.950 . S
H3147 C3125 0.950 . S
C3148 C3149 1.349 . S
C3148 C3150 1.327 . S
C3148 H3173 0.950 . S
C3149 C3148 1.349 . S
C3149 C3165 1.349 . S
C3150 C3148 1.327 . S
C3150 C3169 1.429 . S
C3150 H3174 0.950 . S
C3151 C3168 1.574 . S
C3151 C3170 1.368 1_556 S
C3151 H3175 0.949 . S
H3152 C3156 0.949 . S
C3153 C3154 1.349 . S
C3153 C3155 1.327 . S
C3153 H3176 0.950 . S
C3154 C3153 1.349 . S
C3154 C3166 1.349 . S
C3155 C3153 1.327 . S
C3155 C3171 1.429 . S
C3155 H3177 0.950 . S
C3156 H3152 0.949 . S
C3156 C3164 1.574 . S
C3156 C3172 1.368 1_554 S
H3157 C3165 0.950 . S
H3158 C3163 0.950 . S
H3159 C3164 0.949 . S
H3160 C3166 0.950 . S
H3161 C3167 0.950 . S
H3162 C3168 0.949 . S
C3163 H3158 0.950 . S
C3163 C3165 1.327 . S
C3163 C3169 1.429 . S
C3164 C3156 1.574 . S
C3164 H3159 0.949 . S
C3164 C3170 1.368 . S
C3165 C3149 1.349 . S
C3165 H3157 0.950 . S
C3165 C3163 1.327 . S
C3166 C3154 1.349 . S
C3166 H3160 0.950 . S
C3166 C3167 1.327 . S
C3167 H3161 0.950 . S
C3167 C3166 1.327 . S
C3167 C3171 1.429 . S
C3168 C3151 1.574 . S
C3168 H3162 0.949 . S
C3168 C3172 1.368 . S
C3169 C3150 1.429 . S
C3169 C3163 1.429 . S
C3169 C3170 1.523 . S
C3170 C3151 1.368 1_554 S
C3170 C3164 1.368 . S
C3170 C3169 1.523 . S
C3171 C3155 1.429 . S
C3171 C3167 1.429 . S
C3171 C3172 1.523 . S
C3172 C3156 1.368 1_556 S
C3172 C3168 1.368 . S
C3172 C3171 1.523 . S
H3173 C3148 0.950 . S
H3174 C3150 0.950 . S
H3175 C3151 0.949 . S
H3176 C3153 0.950 . S
H3177 C3155 0.950 . S
C3178 C3179 1.349 . S
C3178 C3180 1.327 . S
C3178 H3203 0.950 . S
C3179 C3178 1.349 . S
C3179 C3195 1.349 . S
C3180 C3178 1.327 . S
C3180 C3199 1.429 . S
C3180 H3204 0.950 . S
C3181 C3198 1.574 . S
C3181 C3200 1.368 . S
C3181 H3205 0.949 . S
H3182 C3186 0.949 . S
C3183 C3184 1.349 . S
C3183 C3185 1.327 . S
C3183 H3206 0.950 . S
C3184 C3183 1.349 . S
C3184 C3196 1.349 . S
C3185 C3183 1.327 . S
C3185 C3201 1.429 . S
C3185 H3207 0.950 . S
C3186 H3182 0.949 . S
C3186 C3194 1.574 . S
C3186 C3202 1.368 . S
H3187 C3195 0.950 . S
H3188 C3193 0.950 . S
H3189 C3194 0.949 . S
H3190 C3196 0.950 . S
H3191 C3197 0.950 . S
H3192 C3198 0.949 . S
C3193 H3188 0.950 . S
C3193 C3195 1.327 . S
C3193 C3199 1.429 . S
C3194 C3186 1.574 . S
C3194 H3189 0.949 . S
C3194 C3200 1.368 . S
C3195 C3179 1.349 . S
C3195 H3187 0.950 . S
C3195 C3193 1.327 . S
C3196 C3184 1.349 . S
C3196 H3190 0.950 . S
C3196 C3197 1.327 . S
C3197 H3191 0.950 . S
C3197 C3196 1.327 . S
C3197 C3201 1.429 . S
C3198 C3181 1.574 . S
C3198 H3192 0.949 . S
C3198 C3202 1.368 . S
C3199 C3180 1.429 . S
C3199 C3193 1.429 . S
C3199 C3200 1.523 . S
C3200 C3181 1.368 . S
C3200 C3194 1.368 . S
C3200 C3199 1.523 . S
C3201 C3185 1.429 . S
C3201 C3197 1.429 . S
C3201 C3202 1.523 . S
C3202 C3186 1.368 . S
C3202 C3198 1.368 . S
C3202 C3201 1.523 . S
H3203 C3178 0.950 . S
H3204 C3180 0.950 . S
H3205 C3181 0.949 . S
H3206 C3183 0.950 . S
H3207 C3185 0.950 . S
C3208 C3209 1.349 . S
C3208 C3210 1.327 . S
C3208 H3233 0.950 . S
C3209 C3208 1.349 . S
C3209 C3225 1.349 . S
C3210 C3208 1.327 . S
C3210 C3229 1.429 . S
C3210 H3234 0.950 . S
C3211 C3228 1.574 . S
C3211 C3230 1.368 . S
C3211 H3235 0.949 . S
H3212 C3216 0.949 . S
C3213 C3214 1.349 . S
C3213 C3215 1.327 . S
C3213 H3236 0.950 . S
C3214 C3213 1.349 . S
C3214 C3226 1.349 . S
C3215 C3213 1.327 . S
C3215 C3231 1.429 . S
C3215 H3237 0.950 . S
C3216 H3212 0.949 . S
C3216 C3224 1.574 . S
C3216 C3232 1.368 . S
H3217 C3225 0.950 . S
H3218 C3223 0.950 . S
H3219 C3224 0.949 . S
H3220 C3226 0.950 . S
H3221 C3227 0.950 . S
H3222 C3228 0.949 . S
C3223 H3218 0.950 . S
C3223 C3225 1.327 . S
C3223 C3229 1.429 . S
C3224 C3216 1.574 . S
C3224 H3219 0.949 . S
C3224 C3230 1.368 . S
C3225 C3209 1.349 . S
C3225 H3217 0.950 . S
C3225 C3223 1.327 . S
C3226 C3214 1.349 . S
C3226 H3220 0.950 . S
C3226 C3227 1.327 . S
C3227 H3221 0.950 . S
C3227 C3226 1.327 . S
C3227 C3231 1.429 . S
C3228 C3211 1.574 . S
C3228 H3222 0.949 . S
C3228 C3232 1.368 . S
C3229 C3210 1.429 . S
C3229 C3223 1.429 . S
C3229 C3230 1.523 . S
C3230 C3211 1.368 . S
C3230 C3224 1.368 . S
C3230 C3229 1.523 . S
C3231 C3215 1.429 . S
C3231 C3227 1.429 . S
C3231 C3232 1.523 . S
C3232 C3216 1.368 . S
C3232 C3228 1.368 . S
C3232 C3231 1.523 . S
H3233 C3208 0.950 . S
H3234 C3210 0.950 . S
H3235 C3211 0.949 . S
H3236 C3213 0.950 . S
H3237 C3215 0.950 . S
C3238 C3239 1.349 . S
C3238 C3240 1.327 . S
C3238 H3263 0.950 . S
C3239 C3238 1.349 . S
C3239 C3255 1.349 . S
C3240 C3238 1.327 . S
C3240 C3259 1.429 . S
C3240 H3264 0.950 . S
C3241 C3258 1.574 . S
C3241 C3260 1.368 . S
C3241 H3265 0.949 . S
H3242 C3246 0.949 . S
C3243 C3244 1.349 . S
C3243 C3245 1.327 . S
C3243 H3266 0.950 . S
C3244 C3243 1.349 . S
C3244 C3256 1.349 . S
C3245 C3243 1.327 . S
C3245 C3261 1.429 . S
C3245 H3267 0.950 . S
C3246 H3242 0.949 . S
C3246 C3254 1.574 . S
C3246 C3262 1.368 . S
H3247 C3255 0.950 . S
H3248 C3253 0.950 . S
H3249 C3254 0.949 . S
H3250 C3256 0.950 . S
H3251 C3257 0.950 . S
H3252 C3258 0.949 . S
C3253 H3248 0.950 . S
C3253 C3255 1.327 . S
C3253 C3259 1.429 . S
C3254 C3246 1.574 . S
C3254 H3249 0.949 . S
C3254 C3260 1.368 . S
C3255 C3239 1.349 . S
C3255 H3247 0.950 . S
C3255 C3253 1.327 . S
C3256 C3244 1.349 . S
C3256 H3250 0.950 . S
C3256 C3257 1.327 . S
C3257 H3251 0.950 . S
C3257 C3256 1.327 . S
C3257 C3261 1.429 . S
C3258 C3241 1.574 . S
C3258 H3252 0.949 . S
C3258 C3262 1.368 . S
C3259 C3240 1.429 . S
C3259 C3253 1.429 . S
C3259 C3260 1.523 . S
C3260 C3241 1.368 . S
C3260 C3254 1.368 . S
C3260 C3259 1.523 . S
C3261 C3245 1.429 . S
C3261 C3257 1.429 . S
C3261 C3262 1.523 . S
C3262 C3246 1.368 . S
C3262 C3258 1.368 . S
C3262 C3261 1.523 . S
H3263 C3238 0.950 . S
H3264 C3240 0.950 . S
H3265 C3241 0.949 . S
H3266 C3243 0.950 . S
H3267 C3245 0.950 . S
C3268 C3269 1.349 . S
C3268 C3270 1.327 . S
C3268 H3293 0.950 . S
C3269 C3268 1.349 . S
C3269 C3285 1.349 . S
C3270 C3268 1.327 . S
C3270 C3289 1.429 . S
C3270 H3294 0.950 . S
C3271 C3288 1.574 . S
C3271 C3290 1.368 . S
C3271 H3295 0.949 . S
H3272 C3276 0.949 . S
C3273 C3274 1.349 . S
C3273 C3275 1.327 . S
C3273 H3296 0.950 . S
C3274 C3273 1.349 . S
C3274 C3286 1.349 . S
C3275 C3273 1.327 . S
C3275 C3291 1.429 . S
C3275 H3297 0.950 . S
C3276 H3272 0.949 . S
C3276 C3284 1.574 . S
C3276 C3292 1.368 . S
H3277 C3285 0.950 . S
H3278 C3283 0.950 . S
H3279 C3284 0.949 . S
H3280 C3286 0.950 . S
H3281 C3287 0.950 . S
H3282 C3288 0.949 . S
C3283 H3278 0.950 . S
C3283 C3285 1.327 . S
C3283 C3289 1.429 . S
C3284 C3276 1.574 . S
C3284 H3279 0.949 . S
C3284 C3290 1.368 1_554 S
C3285 C3269 1.349 . S
C3285 H3277 0.950 . S
C3285 C3283 1.327 . S
C3286 C3274 1.349 . S
C3286 H3280 0.950 . S
C3286 C3287 1.327 . S
C3287 H3281 0.950 . S
C3287 C3286 1.327 . S
C3287 C3291 1.429 . S
C3288 C3271 1.574 . S
C3288 H3282 0.949 . S
C3288 C3292 1.368 1_556 S
C3289 C3270 1.429 . S
C3289 C3283 1.429 . S
C3289 C3290 1.523 . S
C3290 C3271 1.368 . S
C3290 C3284 1.368 1_556 S
C3290 C3289 1.523 . S
C3291 C3275 1.429 . S
C3291 C3287 1.429 . S
C3291 C3292 1.523 . S
C3292 C3276 1.368 . S
C3292 C3288 1.368 1_554 S
C3292 C3291 1.523 . S
H3293 C3268 0.950 . S
H3294 C3270 0.950 . S
H3295 C3271 0.949 . S
H3296 C3273 0.950 . S
H3297 C3275 0.950 . S
C3298 C3299 1.349 . S
C3298 C3300 1.327 . S
C3298 H3323 0.950 . S
C3299 C3298 1.349 . S
C3299 C3315 1.349 . S
C3300 C3298 1.327 . S
C3300 C3319 1.429 . S
C3300 H3324 0.950 . S
C3301 C3318 1.574 . S
C3301 C3320 1.368 . S
C3301 H3325 0.949 . S
H3302 C3306 0.949 . S
C3303 C3304 1.349 . S
C3303 C3305 1.327 . S
C3303 H3326 0.950 . S
C3304 C3303 1.349 . S
C3304 C3316 1.349 . S
C3305 C3303 1.327 . S
C3305 C3321 1.429 . S
C3305 H3327 0.950 . S
C3306 H3302 0.949 . S
C3306 C3314 1.574 . S
C3306 C3322 1.368 . S
H3307 C3315 0.950 . S
H3308 C3313 0.950 . S
H3309 C3314 0.949 . S
H3310 C3316 0.950 . S
H3311 C3317 0.950 . S
H3312 C3318 0.949 . S
C3313 H3308 0.950 . S
C3313 C3315 1.327 . S
C3313 C3319 1.429 . S
C3314 C3306 1.574 . S
C3314 H3309 0.949 . S
C3314 C3320 1.368 . S
C3315 C3299 1.349 . S
C3315 H3307 0.950 . S
C3315 C3313 1.327 . S
C3316 C3304 1.349 . S
C3316 H3310 0.950 . S
C3316 C3317 1.327 . S
C3317 H3311 0.950 . S
C3317 C3316 1.327 . S
C3317 C3321 1.429 . S
C3318 C3301 1.574 . S
C3318 H3312 0.949 . S
C3318 C3322 1.368 . S
C3319 C3300 1.429 . S
C3319 C3313 1.429 . S
C3319 C3320 1.523 . S
C3320 C3301 1.368 . S
C3320 C3314 1.368 . S
C3320 C3319 1.523 . S
C3321 C3305 1.429 . S
C3321 C3317 1.429 . S
C3321 C3322 1.523 . S
C3322 C3306 1.368 . S
C3322 C3318 1.368 . S
C3322 C3321 1.523 . S
H3323 C3298 0.950 . S
H3324 C3300 0.950 . S
H3325 C3301 0.949 . S
H3326 C3303 0.950 . S
H3327 C3305 0.950 . S
C3328 C3329 1.349 . S
C3328 C3330 1.327 . S
C3328 H3353 0.950 . S
C3329 C3328 1.349 . S
C3329 C3345 1.349 . S
C3330 C3328 1.327 . S
C3330 C3349 1.429 . S
C3330 H3354 0.950 . S
C3331 C3348 1.574 . S
C3331 C3350 1.368 . S
C3331 H3355 0.949 . S
H3332 C3336 0.949 . S
C3333 C3334 1.349 . S
C3333 C3335 1.327 . S
C3333 H3356 0.950 . S
C3334 C3333 1.349 . S
C3334 C3346 1.349 . S
C3335 C3333 1.327 . S
C3335 C3351 1.429 . S
C3335 H3357 0.950 . S
C3336 H3332 0.949 . S
C3336 C3344 1.574 . S
C3336 C3352 1.368 . S
H3337 C3345 0.950 . S
H3338 C3343 0.950 . S
H3339 C3344 0.949 . S
H3340 C3346 0.950 . S
H3341 C3347 0.950 . S
H3342 C3348 0.949 . S
C3343 H3338 0.950 . S
C3343 C3345 1.327 . S
C3343 C3349 1.429 . S
C3344 C3336 1.574 . S
C3344 H3339 0.949 . S
C3344 C3350 1.368 . S
C3345 C3329 1.349 . S
C3345 H3337 0.950 . S
C3345 C3343 1.327 . S
C3346 C3334 1.349 . S
C3346 H3340 0.950 . S
C3346 C3347 1.327 . S
C3347 H3341 0.950 . S
C3347 C3346 1.327 . S
C3347 C3351 1.429 . S
C3348 C3331 1.574 . S
C3348 H3342 0.949 . S
C3348 C3352 1.368 . S
C3349 C3330 1.429 . S
C3349 C3343 1.429 . S
C3349 C3350 1.523 . S
C3350 C3331 1.368 . S
C3350 C3344 1.368 . S
C3350 C3349 1.523 . S
C3351 C3335 1.429 . S
C3351 C3347 1.429 . S
C3351 C3352 1.523 . S
C3352 C3336 1.368 . S
C3352 C3348 1.368 . S
C3352 C3351 1.523 . S
H3353 C3328 0.950 . S
H3354 C3330 0.950 . S
H3355 C3331 0.949 . S
H3356 C3333 0.950 . S
H3357 C3335 0.950 . S
C3358 C3359 1.349 . S
C3358 C3360 1.327 . S
C3358 H3383 0.950 . S
C3359 C3358 1.349 . S
C3359 C3375 1.349 . S
C3360 C3358 1.327 . S
C3360 C3379 1.429 . S
C3360 H3384 0.950 . S
C3361 C3378 1.574 . S
C3361 C3380 1.368 . S
C3361 H3385 0.949 . S
H3362 C3366 0.949 . S
C3363 C3364 1.349 . S
C3363 C3365 1.327 . S
C3363 H3386 0.950 . S
C3364 C3363 1.349 . S
C3364 C3376 1.349 . S
C3365 C3363 1.327 . S
C3365 C3381 1.429 . S
C3365 H3387 0.950 . S
C3366 H3362 0.949 . S
C3366 C3374 1.574 . S
C3366 C3382 1.368 . S
H3367 C3375 0.950 . S
H3368 C3373 0.950 . S
H3369 C3374 0.949 . S
H3370 C3376 0.950 . S
H3371 C3377 0.950 . S
H3372 C3378 0.949 . S
C3373 H3368 0.950 . S
C3373 C3375 1.327 . S
C3373 C3379 1.429 . S
C3374 C3366 1.574 . S
C3374 H3369 0.949 . S
C3374 C3380 1.368 . S
C3375 C3359 1.349 . S
C3375 H3367 0.950 . S
C3375 C3373 1.327 . S
C3376 C3364 1.349 . S
C3376 H3370 0.950 . S
C3376 C3377 1.327 . S
C3377 H3371 0.950 . S
C3377 C3376 1.327 . S
C3377 C3381 1.429 . S
C3378 C3361 1.574 . S
C3378 H3372 0.949 . S
C3378 C3382 1.368 . S
C3379 C3360 1.429 . S
C3379 C3373 1.429 . S
C3379 C3380 1.523 . S
C3380 C3361 1.368 . S
C3380 C3374 1.368 . S
C3380 C3379 1.523 . S
C3381 C3365 1.429 . S
C3381 C3377 1.429 . S
C3381 C3382 1.523 . S
C3382 C3366 1.368 . S
C3382 C3378 1.368 . S
C3382 C3381 1.523 . S
H3383 C3358 0.950 . S
H3384 C3360 0.950 . S
H3385 C3361 0.949 . S
H3386 C3363 0.950 . S
H3387 C3365 0.950 . S
C3388 C3389 1.349 . S
C3388 C3390 1.327 . S
C3388 H3413 0.950 . S
C3389 C3388 1.349 . S
C3389 C3405 1.349 . S
C3390 C3388 1.327 . S
C3390 C3409 1.429 . S
C3390 H3414 0.950 . S
C3391 C3408 1.574 . S
C3391 C3410 1.368 . S
C3391 H3415 0.949 . S
H3392 C3396 0.949 . S
C3393 C3394 1.349 . S
C3393 C3395 1.327 . S
C3393 H3416 0.950 . S
C3394 C3393 1.349 . S
C3394 C3406 1.349 . S
C3395 C3393 1.327 . S
C3395 C3411 1.429 . S
C3395 H3417 0.950 . S
C3396 H3392 0.949 . S
C3396 C3404 1.574 . S
C3396 C3412 1.368 . S
H3397 C3405 0.950 . S
H3398 C3403 0.950 . S
H3399 C3404 0.949 . S
H3400 C3406 0.950 . S
H3401 C3407 0.950 . S
H3402 C3408 0.949 . S
C3403 H3398 0.950 . S
C3403 C3405 1.327 . S
C3403 C3409 1.429 . S
C3404 C3396 1.574 . S
C3404 H3399 0.949 . S
C3404 C3410 1.368 . S
C3405 C3389 1.349 . S
C3405 H3397 0.950 . S
C3405 C3403 1.327 . S
C3406 C3394 1.349 . S
C3406 H3400 0.950 . S
C3406 C3407 1.327 . S
C3407 H3401 0.950 . S
C3407 C3406 1.327 . S
C3407 C3411 1.429 . S
C3408 C3391 1.574 . S
C3408 H3402 0.949 . S
C3408 C3412 1.368 . S
C3409 C3390 1.429 . S
C3409 C3403 1.429 . S
C3409 C3410 1.523 . S
C3410 C3391 1.368 . S
C3410 C3404 1.368 . S
C3410 C3409 1.523 . S
C3411 C3395 1.429 . S
C3411 C3407 1.429 . S
C3411 C3412 1.523 . S
C3412 C3396 1.368 . S
C3412 C3408 1.368 . S
C3412 C3411 1.523 . S
H3413 C3388 0.950 . S
H3414 C3390 0.950 . S
H3415 C3391 0.949 . S
H3416 C3393 0.950 . S
H3417 C3395 0.950 . S
C3418 C3419 1.349 . S
C3418 C3420 1.327 . S
C3418 H3443 0.950 . S
C3419 C3418 1.349 . S
C3419 C3435 1.349 . S
C3420 C3418 1.327 . S
C3420 C3439 1.429 . S
C3420 H3444 0.950 . S
C3421 C3438 1.574 . S
C3421 C3440 1.368 . S
C3421 H3445 0.949 . S
H3422 C3426 0.949 . S
C3423 C3424 1.349 . S
C3423 C3425 1.327 . S
C3423 H3446 0.950 . S
C3424 C3423 1.349 . S
C3424 C3436 1.349 . S
C3425 C3423 1.327 . S
C3425 C3441 1.429 . S
C3425 H3447 0.950 . S
C3426 H3422 0.949 . S
C3426 C3434 1.574 . S
C3426 C3442 1.368 . S
H3427 C3435 0.950 . S
H3428 C3433 0.950 . S
H3429 C3434 0.949 . S
H3430 C3436 0.950 . S
H3431 C3437 0.950 . S
H3432 C3438 0.949 . S
C3433 H3428 0.950 . S
C3433 C3435 1.327 . S
C3433 C3439 1.429 . S
C3434 C3426 1.574 . S
C3434 H3429 0.949 . S
C3434 C3440 1.368 . S
C3435 C3419 1.349 . S
C3435 H3427 0.950 . S
C3435 C3433 1.327 . S
C3436 C3424 1.349 . S
C3436 H3430 0.950 . S
C3436 C3437 1.327 . S
C3437 H3431 0.950 . S
C3437 C3436 1.327 . S
C3437 C3441 1.429 . S
C3438 C3421 1.574 . S
C3438 H3432 0.949 . S
C3438 C3442 1.368 . S
C3439 C3420 1.429 . S
C3439 C3433 1.429 . S
C3439 C3440 1.523 . S
C3440 C3421 1.368 . S
C3440 C3434 1.368 . S
C3440 C3439 1.523 . S
C3441 C3425 1.429 . S
C3441 C3437 1.429 . S
C3441 C3442 1.523 . S
C3442 C3426 1.368 . S
C3442 C3438 1.368 . S
C3442 C3441 1.523 . S
H3443 C3418 0.950 . S
H3444 C3420 0.950 . S
H3445 C3421 0.949 . S
H3446 C3423 0.950 . S
H3447 C3425 0.950 . S
C3448 C3449 1.349 . S
C3448 C3450 1.327 . S
C3448 H3473 0.950 . S
C3449 C3448 1.349 . S
C3449 C3465 1.349 . S
C3450 C3448 1.327 . S
C3450 C3469 1.429 . S
C3450 H3474 0.950 . S
C3451 C3468 1.574 . S
C3451 C3470 1.368 . S
C3451 H3475 0.949 . S
H3452 C3456 0.949 . S
C3453 C3454 1.349 . S
C3453 C3455 1.327 . S
C3453 H3476 0.950 . S
C3454 C3453 1.349 . S
C3454 C3466 1.349 . S
C3455 C3453 1.327 . S
C3455 C3471 1.429 . S
C3455 H3477 0.950 . S
C3456 H3452 0.949 . S
C3456 C3464 1.574 . S
C3456 C3472 1.368 . S
H3457 C3465 0.950 . S
H3458 C3463 0.950 . S
H3459 C3464 0.949 . S
H3460 C3466 0.950 . S
H3461 C3467 0.950 . S
H3462 C3468 0.949 . S
C3463 H3458 0.950 . S
C3463 C3465 1.327 . S
C3463 C3469 1.429 . S
C3464 C3456 1.574 . S
C3464 H3459 0.949 . S
C3464 C3470 1.368 . S
C3465 C3449 1.349 . S
C3465 H3457 0.950 . S
C3465 C3463 1.327 . S
C3466 C3454 1.349 . S
C3466 H3460 0.950 . S
C3466 C3467 1.327 . S
C3467 H3461 0.950 . S
C3467 C3466 1.327 . S
C3467 C3471 1.429 . S
C3468 C3451 1.574 . S
C3468 H3462 0.949 . S
C3468 C3472 1.368 . S
C3469 C3450 1.429 . S
C3469 C3463 1.429 . S
C3469 C3470 1.523 . S
C3470 C3451 1.368 . S
C3470 C3464 1.368 . S
C3470 C3469 1.523 . S
C3471 C3455 1.429 . S
C3471 C3467 1.429 . S
C3471 C3472 1.523 . S
C3472 C3456 1.368 . S
C3472 C3468 1.368 . S
C3472 C3471 1.523 . S
H3473 C3448 0.950 . S
H3474 C3450 0.950 . S
H3475 C3451 0.949 . S
H3476 C3453 0.950 . S
H3477 C3455 0.950 . S
C3478 C3479 1.349 . S
C3478 C3480 1.327 . S
C3478 H3503 0.950 . S
C3479 C3478 1.349 . S
C3479 C3495 1.349 . S
C3480 C3478 1.327 . S
C3480 C3499 1.429 . S
C3480 H3504 0.950 . S
C3481 C3498 1.574 . S
C3481 C3500 1.368 . S
C3481 H3505 0.949 . S
H3482 C3486 0.949 . S
C3483 C3484 1.349 . S
C3483 C3485 1.327 . S
C3483 H3506 0.950 . S
C3484 C3483 1.349 . S
C3484 C3496 1.349 . S
C3485 C3483 1.327 . S
C3485 C3501 1.429 . S
C3485 H3507 0.950 . S
C3486 H3482 0.949 . S
C3486 C3494 1.574 . S
C3486 C3502 1.368 . S
H3487 C3495 0.950 . S
H3488 C3493 0.950 . S
H3489 C3494 0.949 . S
H3490 C3496 0.950 . S
H3491 C3497 0.950 . S
H3492 C3498 0.949 . S
C3493 H3488 0.950 . S
C3493 C3495 1.327 . S
C3493 C3499 1.429 . S
C3494 C3486 1.574 . S
C3494 H3489 0.949 . S
C3494 C3500 1.368 . S
C3495 C3479 1.349 . S
C3495 H3487 0.950 . S
C3495 C3493 1.327 . S
C3496 C3484 1.349 . S
C3496 H3490 0.950 . S
C3496 C3497 1.327 . S
C3497 H3491 0.950 . S
C3497 C3496 1.327 . S
C3497 C3501 1.429 . S
C3498 C3481 1.574 . S
C3498 H3492 0.949 . S
C3498 C3502 1.368 . S
C3499 C3480 1.429 . S
C3499 C3493 1.429 . S
C3499 C3500 1.523 . S
C3500 C3481 1.368 . S
C3500 C3494 1.368 . S
C3500 C3499 1.523 . S
C3501 C3485 1.429 . S
C3501 C3497 1.429 . S
C3501 C3502 1.523 . S
C3502 C3486 1.368 . S
C3502 C3498 1.368 . S
C3502 C3501 1.523 . S
H3503 C3478 0.950 . S
H3504 C3480 0.950 . S
H3505 C3481 0.949 . S
H3506 C3483 0.950 . S
H3507 C3485 0.950 . S
C3508 C3509 1.349 . S
C3508 C3510 1.327 . S
C3508 H3533 0.950 . S
C3509 C3508 1.349 . S
C3509 C3525 1.349 . S
C3510 C3508 1.327 . S
C3510 C3529 1.429 . S
C3510 H3534 0.950 . S
C3511 C3528 1.574 . S
C3511 C3530 1.368 . S
C3511 H3535 0.949 . S
H3512 C3516 0.949 . S
C3513 C3514 1.349 . S
C3513 C3515 1.327 . S
C3513 H3536 0.950 . S
C3514 C3513 1.349 . S
C3514 C3526 1.349 . S
C3515 C3513 1.327 . S
C3515 C3531 1.429 . S
C3515 H3537 0.950 . S
C3516 H3512 0.949 . S
C3516 C3524 1.574 . S
C3516 C3532 1.368 . S
H3517 C3525 0.950 . S
H3518 C3523 0.950 . S
H3519 C3524 0.949 . S
H3520 C3526 0.950 . S
H3521 C3527 0.950 . S
H3522 C3528 0.949 . S
C3523 H3518 0.950 . S
C3523 C3525 1.327 . S
C3523 C3529 1.429 . S
C3524 C3516 1.574 . S
C3524 H3519 0.949 . S
C3524 C3530 1.368 . S
C3525 C3509 1.349 . S
C3525 H3517 0.950 . S
C3525 C3523 1.327 . S
C3526 C3514 1.349 . S
C3526 H3520 0.950 . S
C3526 C3527 1.327 . S
C3527 H3521 0.950 . S
C3527 C3526 1.327 . S
C3527 C3531 1.429 . S
C3528 C3511 1.574 . S
C3528 H3522 0.949 . S
C3528 C3532 1.368 . S
C3529 C3510 1.429 . S
C3529 C3523 1.429 . S
C3529 C3530 1.523 . S
C3530 C3511 1.368 . S
C3530 C3524 1.368 . S
C3530 C3529 1.523 . S
C3531 C3515 1.429 . S
C3531 C3527 1.429 . S
C3531 C3532 1.523 . S
C3532 C3516 1.368 . S
C3532 C3528 1.368 . S
C3532 C3531 1.523 . S
H3533 C3508 0.950 . S
H3534 C3510 0.950 . S
H3535 C3511 0.949 . S
H3536 C3513 0.950 . S
H3537 C3515 0.950 . S
C3538 C3539 1.349 . S
C3538 C3540 1.327 . S
C3538 H3563 0.950 . S
C3539 C3538 1.349 . S
C3539 C3555 1.349 . S
C3540 C3538 1.327 . S
C3540 C3559 1.429 . S
C3540 H3564 0.950 . S
C3541 C3558 1.574 . S
C3541 C3560 1.368 . S
C3541 H3565 0.949 . S
H3542 C3546 0.949 . S
C3543 C3544 1.349 . S
C3543 C3545 1.327 . S
C3543 H3566 0.950 . S
C3544 C3543 1.349 . S
C3544 C3556 1.349 . S
C3545 C3543 1.327 . S
C3545 C3561 1.429 . S
C3545 H3567 0.950 . S
C3546 H3542 0.949 . S
C3546 C3554 1.574 . S
C3546 C3562 1.368 . S
H3547 C3555 0.950 . S
H3548 C3553 0.950 . S
H3549 C3554 0.949 . S
H3550 C3556 0.950 . S
H3551 C3557 0.950 . S
H3552 C3558 0.949 . S
C3553 H3548 0.950 . S
C3553 C3555 1.327 . S
C3553 C3559 1.429 . S
C3554 C3546 1.574 . S
C3554 H3549 0.949 . S
C3554 C3560 1.368 . S
C3555 C3539 1.349 . S
C3555 H3547 0.950 . S
C3555 C3553 1.327 . S
C3556 C3544 1.349 . S
C3556 H3550 0.950 . S
C3556 C3557 1.327 . S
C3557 H3551 0.950 . S
C3557 C3556 1.327 . S
C3557 C3561 1.429 . S
C3558 C3541 1.574 . S
C3558 H3552 0.949 . S
C3558 C3562 1.368 . S
C3559 C3540 1.429 . S
C3559 C3553 1.429 . S
C3559 C3560 1.523 . S
C3560 C3541 1.368 . S
C3560 C3554 1.368 . S
C3560 C3559 1.523 . S
C3561 C3545 1.429 . S
C3561 C3557 1.429 . S
C3561 C3562 1.523 . S
C3562 C3546 1.368 . S
C3562 C3558 1.368 . S
C3562 C3561 1.523 . S
H3563 C3538 0.950 . S
H3564 C3540 0.950 . S
H3565 C3541 0.949 . S
H3566 C3543 0.950 . S
H3567 C3545 0.950 . S
C3568 C3569 1.349 . S
C3568 C3570 1.327 . S
C3568 H3593 0.950 . S
C3569 C3568 1.349 . S
C3569 C3585 1.349 . S
C3570 C3568 1.327 . S
C3570 C3589 1.429 . S
C3570 H3594 0.950 . S
C3571 C3588 1.574 . S
C3571 C3590 1.368 . S
C3571 H3595 0.949 . S
H3572 C3576 0.949 . S
C3573 C3574 1.349 . S
C3573 C3575 1.327 . S
C3573 H3596 0.950 . S
C3574 C3573 1.349 . S
C3574 C3586 1.349 . S
C3575 C3573 1.327 . S
C3575 C3591 1.429 . S
C3575 H3597 0.950 . S
C3576 H3572 0.949 . S
C3576 C3584 1.574 . S
C3576 C3592 1.368 . S
H3577 C3585 0.950 . S
H3578 C3583 0.950 . S
H3579 C3584 0.949 . S
H3580 C3586 0.950 . S
H3581 C3587 0.950 . S
H3582 C3588 0.949 . S
C3583 H3578 0.950 . S
C3583 C3585 1.327 . S
C3583 C3589 1.429 . S
C3584 C3576 1.574 . S
C3584 H3579 0.949 . S
C3584 C3590 1.368 . S
C3585 C3569 1.349 . S
C3585 H3577 0.950 . S
C3585 C3583 1.327 . S
C3586 C3574 1.349 . S
C3586 H3580 0.950 . S
C3586 C3587 1.327 . S
C3587 H3581 0.950 . S
C3587 C3586 1.327 . S
C3587 C3591 1.429 . S
C3588 C3571 1.574 . S
C3588 H3582 0.949 . S
C3588 C3592 1.368 . S
C3589 C3570 1.429 . S
C3589 C3583 1.429 . S
C3589 C3590 1.523 . S
C3590 C3571 1.368 . S
C3590 C3584 1.368 . S
C3590 C3589 1.523 . S
C3591 C3575 1.429 . S
C3591 C3587 1.429 . S
C3591 C3592 1.523 . S
C3592 C3576 1.368 . S
C3592 C3588 1.368 . S
C3592 C3591 1.523 . S
H3593 C3568 0.950 . S
H3594 C3570 0.950 . S
H3595 C3571 0.949 . S
H3596 C3573 0.950 . S
H3597 C3575 0.950 . S
C3598 C3599 1.349 . S
C3598 C3600 1.327 . S
C3598 H3623 0.950 . S
C3599 C3598 1.349 . S
C3599 C3615 1.349 . S
C3600 C3598 1.327 . S
C3600 C3619 1.429 . S
C3600 H3624 0.950 . S
C3601 C3618 1.574 . S
C3601 C3620 1.368 . S
C3601 H3625 0.949 . S
H3602 C3606 0.949 . S
C3603 C3604 1.349 . S
C3603 C3605 1.327 . S
C3603 H3626 0.950 . S
C3604 C3603 1.349 . S
C3604 C3616 1.349 . S
C3605 C3603 1.327 . S
C3605 C3621 1.429 . S
C3605 H3627 0.950 . S
C3606 H3602 0.949 . S
C3606 C3614 1.574 . S
C3606 C3622 1.368 . S
H3607 C3615 0.950 . S
H3608 C3613 0.950 . S
H3609 C3614 0.949 . S
H3610 C3616 0.950 . S
H3611 C3617 0.950 . S
H3612 C3618 0.949 . S
C3613 H3608 0.950 . S
C3613 C3615 1.327 . S
C3613 C3619 1.429 . S
C3614 C3606 1.574 . S
C3614 H3609 0.949 . S
C3614 C3620 1.368 . S
C3615 C3599 1.349 . S
C3615 H3607 0.950 . S
C3615 C3613 1.327 . S
C3616 C3604 1.349 . S
C3616 H3610 0.950 . S
C3616 C3617 1.327 . S
C3617 H3611 0.950 . S
C3617 C3616 1.327 . S
C3617 C3621 1.429 . S
C3618 C3601 1.574 . S
C3618 H3612 0.949 . S
C3618 C3622 1.368 . S
C3619 C3600 1.429 . S
C3619 C3613 1.429 . S
C3619 C3620 1.523 . S
C3620 C3601 1.368 . S
C3620 C3614 1.368 . S
C3620 C3619 1.523 . S
C3621 C3605 1.429 . S
C3621 C3617 1.429 . S
C3621 C3622 1.523 . S
C3622 C3606 1.368 . S
C3622 C3618 1.368 . S
C3622 C3621 1.523 . S
H3623 C3598 0.950 . S
H3624 C3600 0.950 . S
H3625 C3601 0.949 . S
H3626 C3603 0.950 . S
H3627 C3605 0.950 . S
C3628 C3629 1.349 . S
C3628 C3630 1.327 . S
C3628 H3653 0.950 . S
C3629 C3628 1.349 . S
C3629 C3645 1.349 . S
C3630 C3628 1.327 . S
C3630 C3649 1.429 . S
C3630 H3654 0.950 . S
C3631 C3648 1.574 . S
C3631 C3650 1.368 . S
C3631 H3655 0.949 . S
H3632 C3636 0.949 . S
C3633 C3634 1.349 . S
C3633 C3635 1.327 . S
C3633 H3656 0.950 . S
C3634 C3633 1.349 . S
C3634 C3646 1.349 . S
C3635 C3633 1.327 . S
C3635 C3651 1.429 . S
C3635 H3657 0.950 . S
C3636 H3632 0.949 . S
C3636 C3644 1.574 . S
C3636 C3652 1.368 . S
H3637 C3645 0.950 . S
H3638 C3643 0.950 . S
H3639 C3644 0.949 . S
H3640 C3646 0.950 . S
H3641 C3647 0.950 . S
H3642 C3648 0.949 . S
C3643 H3638 0.950 . S
C3643 C3645 1.327 . S
C3643 C3649 1.429 . S
C3644 C3636 1.574 . S
C3644 H3639 0.949 . S
C3644 C3650 1.368 . S
C3645 C3629 1.349 . S
C3645 H3637 0.950 . S
C3645 C3643 1.327 . S
C3646 C3634 1.349 . S
C3646 H3640 0.950 . S
C3646 C3647 1.327 . S
C3647 H3641 0.950 . S
C3647 C3646 1.327 . S
C3647 C3651 1.429 . S
C3648 C3631 1.574 . S
C3648 H3642 0.949 . S
C3648 C3652 1.368 . S
C3649 C3630 1.429 . S
C3649 C3643 1.429 . S
C3649 C3650 1.523 . S
C3650 C3631 1.368 . S
C3650 C3644 1.368 . S
C3650 C3649 1.523 . S
C3651 C3635 1.429 . S
C3651 C3647 1.429 . S
C3651 C3652 1.523 . S
C3652 C3636 1.368 . S
C3652 C3648 1.368 . S
C3652 C3651 1.523 . S
H3653 C3628 0.950 . S
H3654 C3630 0.950 . S
H3655 C3631 0.949 . S
H3656 C3633 0.950 . S
H3657 C3635 0.950 . S
C3658 C3659 1.349 . S
C3658 C3660 1.327 . S
C3658 H3683 0.950 . S
C3659 C3658 1.349 . S
C3659 C3675 1.349 . S
C3660 C3658 1.327 . S
C3660 C3679 1.429 . S
C3660 H3684 0.950 . S
C3661 C3678 1.574 . S
C3661 C3680 1.368 . S
C3661 H3685 0.949 . S
H3662 C3666 0.949 . S
C3663 C3664 1.349 . S
C3663 C3665 1.327 . S
C3663 H3686 0.950 . S
C3664 C3663 1.349 . S
C3664 C3676 1.349 . S
C3665 C3663 1.327 . S
C3665 C3681 1.429 . S
C3665 H3687 0.950 . S
C3666 H3662 0.949 . S
C3666 C3674 1.574 . S
C3666 C3682 1.368 . S
H3667 C3675 0.950 . S
H3668 C3673 0.950 . S
H3669 C3674 0.949 . S
H3670 C3676 0.950 . S
H3671 C3677 0.950 . S
H3672 C3678 0.949 . S
C3673 H3668 0.950 . S
C3673 C3675 1.327 . S
C3673 C3679 1.429 . S
C3674 C3666 1.574 . S
C3674 H3669 0.949 . S
C3674 C3680 1.368 . S
C3675 C3659 1.349 . S
C3675 H3667 0.950 . S
C3675 C3673 1.327 . S
C3676 C3664 1.349 . S
C3676 H3670 0.950 . S
C3676 C3677 1.327 . S
C3677 H3671 0.950 . S
C3677 C3676 1.327 . S
C3677 C3681 1.429 . S
C3678 C3661 1.574 . S
C3678 H3672 0.949 . S
C3678 C3682 1.368 . S
C3679 C3660 1.429 . S
C3679 C3673 1.429 . S
C3679 C3680 1.523 . S
C3680 C3661 1.368 . S
C3680 C3674 1.368 . S
C3680 C3679 1.523 . S
C3681 C3665 1.429 . S
C3681 C3677 1.429 . S
C3681 C3682 1.523 . S
C3682 C3666 1.368 . S
C3682 C3678 1.368 . S
C3682 C3681 1.523 . S
H3683 C3658 0.950 . S
H3684 C3660 0.950 . S
H3685 C3661 0.949 . S
H3686 C3663 0.950 . S
H3687 C3665 0.950 . S
C3688 C3689 1.349 . S
C3688 C3690 1.327 . S
C3688 H3713 0.950 . S
C3689 C3688 1.349 . S
C3689 C3705 1.349 . S
C3690 C3688 1.327 . S
C3690 C3709 1.429 . S
C3690 H3714 0.950 . S
C3691 C3708 1.574 . S
C3691 C3710 1.368 . S
C3691 H3715 0.949 . S
H3692 C3696 0.949 . S
C3693 C3694 1.349 . S
C3693 C3695 1.327 . S
C3693 H3716 0.950 . S
C3694 C3693 1.349 . S
C3694 C3706 1.349 . S
C3695 C3693 1.327 . S
C3695 C3711 1.429 . S
C3695 H3717 0.950 . S
C3696 H3692 0.949 . S
C3696 C3704 1.574 . S
C3696 C3712 1.368 . S
H3697 C3705 0.950 . S
H3698 C3703 0.950 . S
H3699 C3704 0.949 . S
H3700 C3706 0.950 . S
H3701 C3707 0.950 . S
H3702 C3708 0.949 . S
C3703 H3698 0.950 . S
C3703 C3705 1.327 . S
C3703 C3709 1.429 . S
C3704 C3696 1.574 . S
C3704 H3699 0.949 . S
C3704 C3710 1.368 . S
C3705 C3689 1.349 . S
C3705 H3697 0.950 . S
C3705 C3703 1.327 . S
C3706 C3694 1.349 . S
C3706 H3700 0.950 . S
C3706 C3707 1.327 . S
C3707 H3701 0.950 . S
C3707 C3706 1.327 . S
C3707 C3711 1.429 . S
C3708 C3691 1.574 . S
C3708 H3702 0.949 . S
C3708 C3712 1.368 . S
C3709 C3690 1.429 . S
C3709 C3703 1.429 . S
C3709 C3710 1.523 . S
C3710 C3691 1.368 . S
C3710 C3704 1.368 . S
C3710 C3709 1.523 . S
C3711 C3695 1.429 . S
C3711 C3707 1.429 . S
C3711 C3712 1.523 . S
C3712 C3696 1.368 . S
C3712 C3708 1.368 . S
C3712 C3711 1.523 . S
H3713 C3688 0.950 . S
H3714 C3690 0.950 . S
H3715 C3691 0.949 . S
H3716 C3693 0.950 . S
H3717 C3695 0.950 . S
C3718 C3719 1.349 . S
C3718 C3720 1.327 . S
C3718 H3743 0.950 . S
C3719 C3718 1.349 . S
C3719 C3735 1.349 . S
C3720 C3718 1.327 . S
C3720 C3739 1.429 . S
C3720 H3744 0.950 . S
C3721 C3738 1.574 . S
C3721 C3740 1.368 . S
C3721 H3745 0.949 . S
H3722 C3726 0.949 . S
C3723 C3724 1.349 . S
C3723 C3725 1.327 . S
C3723 H3746 0.950 . S
C3724 C3723 1.349 . S
C3724 C3736 1.349 . S
C3725 C3723 1.327 . S
C3725 C3741 1.429 . S
C3725 H3747 0.950 . S
C3726 H3722 0.949 . S
C3726 C3734 1.574 . S
C3726 C3742 1.368 . S
H3727 C3735 0.950 . S
H3728 C3733 0.950 . S
H3729 C3734 0.949 . S
H3730 C3736 0.950 . S
H3731 C3737 0.950 . S
H3732 C3738 0.949 . S
C3733 H3728 0.950 . S
C3733 C3735 1.327 . S
C3733 C3739 1.429 . S
C3734 C3726 1.574 . S
C3734 H3729 0.949 . S
C3734 C3740 1.368 . S
C3735 C3719 1.349 . S
C3735 H3727 0.950 . S
C3735 C3733 1.327 . S
C3736 C3724 1.349 . S
C3736 H3730 0.950 . S
C3736 C3737 1.327 . S
C3737 H3731 0.950 . S
C3737 C3736 1.327 . S
C3737 C3741 1.429 . S
C3738 C3721 1.574 . S
C3738 H3732 0.949 . S
C3738 C3742 1.368 . S
C3739 C3720 1.429 . S
C3739 C3733 1.429 . S
C3739 C3740 1.523 . S
C3740 C3721 1.368 . S
C3740 C3734 1.368 . S
C3740 C3739 1.523 . S
C3741 C3725 1.429 . S
C3741 C3737 1.429 . S
C3741 C3742 1.523 . S
C3742 C3726 1.368 . S
C3742 C3738 1.368 . S
C3742 C3741 1.523 . S
H3743 C3718 0.950 . S
H3744 C3720 0.950 . S
H3745 C3721 0.949 . S
H3746 C3723 0.950 . S
H3747 C3725 0.950 . S
C3748 C3749 1.349 . S
C3748 C3750 1.327 . S
C3748 H3773 0.950 . S
C3749 C3748 1.349 . S
C3749 C3765 1.349 . S
C3750 C3748 1.327 . S
C3750 C3769 1.429 . S
C3750 H3774 0.950 . S
C3751 C3768 1.574 . S
C3751 C3770 1.368 . S
C3751 H3775 0.949 . S
H3752 C3756 0.949 . S
C3753 C3754 1.349 . S
C3753 C3755 1.327 . S
C3753 H3776 0.950 . S
C3754 C3753 1.349 . S
C3754 C3766 1.349 . S
C3755 C3753 1.327 . S
C3755 C3771 1.429 . S
C3755 H3777 0.950 . S
C3756 H3752 0.949 . S
C3756 C3764 1.574 . S
C3756 C3772 1.368 . S
H3757 C3765 0.950 . S
H3758 C3763 0.950 . S
H3759 C3764 0.949 . S
H3760 C3766 0.950 . S
H3761 C3767 0.950 . S
H3762 C3768 0.949 . S
C3763 H3758 0.950 . S
C3763 C3765 1.327 . S
C3763 C3769 1.429 . S
C3764 C3756 1.574 . S
C3764 H3759 0.949 . S
C3764 C3770 1.368 . S
C3765 C3749 1.349 . S
C3765 H3757 0.950 . S
C3765 C3763 1.327 . S
C3766 C3754 1.349 . S
C3766 H3760 0.950 . S
C3766 C3767 1.327 . S
C3767 H3761 0.950 . S
C3767 C3766 1.327 . S
C3767 C3771 1.429 . S
C3768 C3751 1.574 . S
C3768 H3762 0.949 . S
C3768 C3772 1.368 . S
C3769 C3750 1.429 . S
C3769 C3763 1.429 . S
C3769 C3770 1.523 . S
C3770 C3751 1.368 . S
C3770 C3764 1.368 . S
C3770 C3769 1.523 . S
C3771 C3755 1.429 . S
C3771 C3767 1.429 . S
C3771 C3772 1.523 . S
C3772 C3756 1.368 . S
C3772 C3768 1.368 . S
C3772 C3771 1.523 . S
H3773 C3748 0.950 . S
H3774 C3750 0.950 . S
H3775 C3751 0.949 . S
H3776 C3753 0.950 . S
H3777 C3755 0.950 . S
C3778 C3779 1.349 . S
C3778 C3780 1.327 . S
C3778 H3803 0.950 . S
C3779 C3778 1.349 . S
C3779 C3795 1.349 . S
C3780 C3778 1.327 . S
C3780 C3799 1.429 . S
C3780 H3804 0.950 . S
C3781 C3798 1.574 . S
C3781 C3800 1.368 . S
C3781 H3805 0.949 . S
H3782 C3786 0.949 . S
C3783 C3784 1.349 . S
C3783 C3785 1.327 . S
C3783 H3806 0.950 . S
C3784 C3783 1.349 . S
C3784 C3796 1.349 . S
C3785 C3783 1.327 . S
C3785 C3801 1.429 . S
C3785 H3807 0.950 . S
C3786 H3782 0.949 . S
C3786 C3794 1.574 . S
C3786 C3802 1.368 . S
H3787 C3795 0.950 . S
H3788 C3793 0.950 . S
H3789 C3794 0.949 . S
H3790 C3796 0.950 . S
H3791 C3797 0.950 . S
H3792 C3798 0.949 . S
C3793 H3788 0.950 . S
C3793 C3795 1.327 . S
C3793 C3799 1.429 . S
C3794 C3786 1.574 . S
C3794 H3789 0.949 . S
C3794 C3800 1.368 . S
C3795 C3779 1.349 . S
C3795 H3787 0.950 . S
C3795 C3793 1.327 . S
C3796 C3784 1.349 . S
C3796 H3790 0.950 . S
C3796 C3797 1.327 . S
C3797 H3791 0.950 . S
C3797 C3796 1.327 . S
C3797 C3801 1.429 . S
C3798 C3781 1.574 . S
C3798 H3792 0.949 . S
C3798 C3802 1.368 . S
C3799 C3780 1.429 . S
C3799 C3793 1.429 . S
C3799 C3800 1.523 . S
C3800 C3781 1.368 . S
C3800 C3794 1.368 . S
C3800 C3799 1.523 . S
C3801 C3785 1.429 . S
C3801 C3797 1.429 . S
C3801 C3802 1.523 . S
C3802 C3786 1.368 . S
C3802 C3798 1.368 . S
C3802 C3801 1.523 . S
H3803 C3778 0.950 . S
H3804 C3780 0.950 . S
H3805 C3781 0.949 . S
H3806 C3783 0.950 . S
H3807 C3785 0.950 . S
C1889 C475 1.358 . S
C1894 C3 1.358 . S
C1919 C1478 1.358 . S
C1924 C62 1.358 . S
C1949 C593 1.358 . S
C1954 C121 1.358 . S
C1979 C1596 1.358 . S
C1984 C180 1.358 . S
C2009 C711 1.358 . S
C2014 C239 1.358 . S
C2039 C298 1.358 . S
C2044 C1714 1.358 . S
C2069 C357 1.358 . S
C2074 C829 1.358 . S
C2099 C416 1.358 . S
C2104 C1832 1.358 . S
C2129 C1006 1.358 . S
C2134 C534 1.358 . S
C2159 C1124 1.358 . S
C2164 C652 1.358 . S
C2189 C770 1.358 . S
C2194 C1242 1.358 . S
C2219 C888 1.358 . S
C2224 C1360 1.358 . S
C2249 C947 1.358 . S
C2254 C1419 1.358 . S
C2279 C1537 1.358 . S
C2284 C1065 1.358 . S
C2309 C1183 1.358 . S
C2314 C1655 1.358 . S
C2339 C1773 1.358 . S
C2344 C1301 1.358 . S
C2369 C1114 2.029 . S
C2374 C52 2.029 . S
C2399 C1173 2.029 . S
C2404 C111 2.029 . S
C2429 C170 2.029 . S
C2434 C996 2.029 . S
C2459 C229 2.029 . S
C2464 C1055 2.029 . S
C2489 C1350 2.029 . S
C2494 C288 2.029 . S
C2519 C347 2.029 . S
C2524 C1409 2.029 . S
C2549 C1232 2.029 . S
C2554 C406 2.029 . S
C2579 C1291 2.029 . S
C2584 C465 2.029 . S
C2609 C524 2.029 . S
C2614 C1586 2.029 . S
C2639 C1645 2.029 . S
C2644 C583 2.029 . S
C2669 C642 2.029 . S
C2674 C1468 2.029 . S
C2699 C701 2.029 . S
C2704 C1527 2.029 . S
C2729 C760 2.029 . S
C2734 C1822 2.029 . S
C2759 C819 2.029 . S
C2764 C1881 2.029 . S
C2789 C1704 2.029 . S
C2794 C878 2.029 . S
C2819 C1763 2.029 . S
C2824 C937 2.029 . S
C2849 C359 1.839 . S
C2854 C5 1.839 . S
C2879 C418 1.839 . S
C2884 C64 1.839 . S
C2909 C241 1.839 . S
C2914 C123 1.839 . S
C2939 C182 1.839 . S
C2944 C300 1.839 . S
C2969 C831 1.839 . S
C2974 C477 1.839 . S
C2999 C890 1.839 . S
C3004 C536 1.839 . S
C3029 C713 1.839 . S
C3034 C595 1.839 . S
C3059 C772 1.839 . S
C3064 C654 1.839 . S
C3089 C1303 1.839 . S
C3094 C949 1.839 . S
C3119 C1362 1.839 . S
C3124 C1008 1.839 . S
C3149 C1067 1.839 . S
C3154 C1185 1.839 . S
C3179 C1126 1.839 . S
C3184 C1244 1.839 . S
C3209 C1775 1.839 . S
C3214 C1421 1.839 . S
C3239 C1834 1.839 . S
C3244 C1480 1.839 . S
C3269 C1539 1.839 . S
C3274 C1657 1.839 . S
C3299 C1598 1.839 . S
C3304 C1716 1.839 . S
C3329 C33 1.480 . S
C3334 C1272 1.480 . S
C3359 C1331 1.480 . S
C3364 C92 1.480 . S
C3389 C1390 1.480 . S
C3394 C151 1.480 . S
C3419 C210 1.480 . S
C3424 C1213 1.480 . S
C3449 C1154 1.480 . S
C3454 C269 1.480 . S
C3479 C328 1.480 . S
C3484 C977 1.480 . S
C3509 C1036 1.480 . S
C3514 C387 1.480 . S
C3539 C446 1.480 . S
C3544 C1095 1.480 . S
C3569 C1744 1.480 . S
C3574 C505 1.480 . S
C3599 C1803 1.480 . S
C3604 C564 1.480 . S
C3629 C623 1.480 . S
C3634 C1862 1.480 . S
C3659 C1685 1.480 . S
C3664 C682 1.480 . S
C3689 C1626 1.480 . S
C3694 C741 1.480 . S
C3719 C800 1.480 . S
C3724 C1449 1.480 . S
C3749 C1508 1.480 . S
C3754 C859 1.480 . S
C3779 C918 1.480 . S
C3784 C1567 1.480 . S
