# Generated by pormake.
# Topology ukt, (4)-cn, num edge types: 1
# Building blocks:
#     Node 0, Type 0, BuildingBlock: GALJAG_clean_sbu_0, # of connection points: 4
#     Node 1, Type 0, BuildingBlock: GALJAG_clean_sbu_0, # of connection points: 4
#     Node 2, Type 0, BuildingBlock: GALJAG_clean_sbu_0, # of connection points: 4
#     Node 3, Type 0, BuildingBlock: GALJAG_clean_sbu_0, # of connection points: 4
#     Node 4, Type 0, BuildingBlock: GALJAG_clean_sbu_0, # of connection points: 4
#     Node 5, Type 0, BuildingBlock: GALJAG_clean_sbu_0, # of connection points: 4
#     Node 6, Type 0, BuildingBlock: GALJAG_clean_sbu_0, # of connection points: 4
#     Node 7, Type 0, BuildingBlock: GALJAG_clean_sbu_0, # of connection points: 4
#     Node 8, Type 0, BuildingBlock: GALJAG_clean_sbu_0, # of connection points: 4
#     Node 9, Type 0, BuildingBlock: GALJAG_clean_sbu_0, # of connection points: 4
#     Node 10, Type 0, BuildingBlock: GALJAG_clean_sbu_0, # of connection points: 4
#     Node 11, Type 0, BuildingBlock: GALJAG_clean_sbu_0, # of connection points: 4
#     Node 12, Type 0, BuildingBlock: GALJAG_clean_sbu_0, # of connection points: 4
#     Node 13, Type 0, BuildingBlock: GALJAG_clean_sbu_0, # of connection points: 4
#     Node 14, Type 0, BuildingBlock: GALJAG_clean_sbu_0, # of connection points: 4
#     Node 15, Type 0, BuildingBlock: GALJAG_clean_sbu_0, # of connection points: 4
#     Edge 16, Type (0, 0), BuildingBlock: AJUNOK_clean_linker_0, # of connection points: 2
#     Edge 17, Type (0, 0), BuildingBlock: AJUNOK_clean_linker_0, # of connection points: 2
#     Edge 18, Type (0, 0), BuildingBlock: AJUNOK_clean_linker_0, # of connection points: 2
#     Edge 19, Type (0, 0), BuildingBlock: AJUNOK_clean_linker_0, # of connection points: 2
#     Edge 20, Type (0, 0), BuildingBlock: AJUNOK_clean_linker_0, # of connection points: 2
#     Edge 21, Type (0, 0), BuildingBlock: AJUNOK_clean_linker_0, # of connection points: 2
#     Edge 22, Type (0, 0), BuildingBlock: AJUNOK_clean_linker_0, # of connection points: 2
#     Edge 23, Type (0, 0), BuildingBlock: AJUNOK_clean_linker_0, # of connection points: 2
#     Edge 24, Type (0, 0), BuildingBlock: AJUNOK_clean_linker_0, # of connection points: 2
#     Edge 25, Type (0, 0), BuildingBlock: AJUNOK_clean_linker_0, # of connection points: 2
#     Edge 26, Type (0, 0), BuildingBlock: AJUNOK_clean_linker_0, # of connection points: 2
#     Edge 27, Type (0, 0), BuildingBlock: AJUNOK_clean_linker_0, # of connection points: 2
#     Edge 28, Type (0, 0), BuildingBlock: AJUNOK_clean_linker_0, # of connection points: 2
#     Edge 29, Type (0, 0), BuildingBlock: AJUNOK_clean_linker_0, # of connection points: 2
#     Edge 30, Type (0, 0), BuildingBlock: AJUNOK_clean_linker_0, # of connection points: 2
#     Edge 31, Type (0, 0), BuildingBlock: AJUNOK_clean_linker_0, # of connection points: 2
#     Edge 32, Type (0, 0), BuildingBlock: AJUNOK_clean_linker_0, # of connection points: 2
#     Edge 33, Type (0, 0), BuildingBlock: AJUNOK_clean_linker_0, # of connection points: 2
#     Edge 34, Type (0, 0), BuildingBlock: AJUNOK_clean_linker_0, # of connection points: 2
#     Edge 35, Type (0, 0), BuildingBlock: AJUNOK_clean_linker_0, # of connection points: 2
#     Edge 36, Type (0, 0), BuildingBlock: AJUNOK_clean_linker_0, # of connection points: 2
#     Edge 37, Type (0, 0), BuildingBlock: AJUNOK_clean_linker_0, # of connection points: 2
#     Edge 38, Type (0, 0), BuildingBlock: AJUNOK_clean_linker_0, # of connection points: 2
#     Edge 39, Type (0, 0), BuildingBlock: AJUNOK_clean_linker_0, # of connection points: 2
#     Edge 40, Type (0, 0), BuildingBlock: AJUNOK_clean_linker_0, # of connection points: 2
#     Edge 41, Type (0, 0), BuildingBlock: AJUNOK_clean_linker_0, # of connection points: 2
#     Edge 42, Type (0, 0), BuildingBlock: AJUNOK_clean_linker_0, # of connection points: 2
#     Edge 43, Type (0, 0), BuildingBlock: AJUNOK_clean_linker_0, # of connection points: 2
#     Edge 44, Type (0, 0), BuildingBlock: AJUNOK_clean_linker_0, # of connection points: 2
#     Edge 45, Type (0, 0), BuildingBlock: AJUNOK_clean_linker_0, # of connection points: 2
#     Edge 46, Type (0, 0), BuildingBlock: AJUNOK_clean_linker_0, # of connection points: 2
#     Edge 47, Type (0, 0), BuildingBlock: AJUNOK_clean_linker_0, # of connection points: 2
# Relax obj value: 0.210
# Max RMSD: 0.110
# Mean RMSD: 0.110
data_MOF--net-ukt--node1-GALJAG_clean_sbu_0--edge1-AJUNOK_clean_linker_0
_symmetry_space_group_name_H-M    P1
_symmetry_Int_Tables_number       1
_symmetry_cell_setting            triclinic
loop_
_symmetry_equiv_pos_as_xyz
'x, y, z'
_cell_length_a     31.615542
_cell_length_b     31.571554
_cell_length_c     25.402978
_cell_angle_alpha  90.116123
_cell_angle_beta   89.970652
_cell_angle_gamma 89.902916
loop_
_atom_site_label
_atom_site_type_symbol
_atom_site_fract_x
_atom_site_fract_y
_atom_site_fract_z
_atom_type_partial_charge
In0 In 0.55479 0.14912 0.05458 0.0
O1 O 0.61667 0.11243 0.06691 0.0
O2 O 0.59779 0.12917 0.98918 0.0
C3 C 0.55931 0.18125 0.1535 0.0
C4 C 0.50371 0.0843 0.02747 0.0
C5 C 0.55009 0.22213 1.00033 0.0
O6 O 0.59119 0.17249 0.12577 0.0
O7 O 0.52436 0.17202 0.13222 0.0
O8 O 0.51941 0.20891 0.02761 0.0
O9 O 0.58217 0.19853 1.00061 0.0
C10 C 0.6247 0.11114 0.01814 0.0
O11 O 0.50144 0.1203 0.00639 0.0
O12 O 0.52815 0.08259 0.06665 0.0
In13 In 0.33738 0.58561 0.08832 0.0
O14 O 0.31609 0.65288 0.07225 0.0
O15 O 0.38004 0.64329 0.09489 0.0
C16 C 0.30591 0.56897 0.1852 0.0
C17 C 0.41075 0.55319 0.05175 0.0
C18 C 0.27369 0.56714 0.0221 0.0
O19 O 0.31295 0.60583 0.16846 0.0
O20 O 0.31693 0.53979 0.15401 0.0
O21 O 0.28265 0.544 0.06104 0.0
O22 O 0.29815 0.59816 0.01557 0.0
C23 C 0.35204 0.66907 0.07978 0.0
O24 O 0.37758 0.55505 0.02448 0.0
O25 O 0.40591 0.56407 0.09919 0.0
In26 In 0.91626 0.32952 0.05412 0.0
O27 O 0.8448 0.33442 0.05772 0.0
O28 O 0.88072 0.38452 0.09167 0.0
C29 C 0.93062 0.28221 0.14081 0.0
C30 C 0.95434 0.40024 0.02012 0.0
C31 C 0.91598 0.27552 0.97201 0.0
O32 O 0.89469 0.28974 0.12175 0.0
O33 O 0.96112 0.29828 0.11547 0.0
O34 O 0.94814 0.28008 1.0011 0.0
O35 O 0.88473 0.29829 0.98455 0.0
C36 C 0.84473 0.36986 0.0809 0.0
O37 O 0.93367 0.37628 0.98997 0.0
O38 O 0.95958 0.38622 0.06628 0.0
In39 In 0.14157 0.9374 0.04402 0.0
O40 O 0.11023 0.98919 0.99627 0.0
O41 O 0.07892 0.96895 0.06559 0.0
C42 C 0.1915 0.92987 0.95858 0.0
C43 C 0.09537 0.86684 0.0576 0.0
C44 C 0.19842 0.9491 0.12241 0.0
O45 O 0.18717 0.96441 0.98326 0.0
O46 O 0.1701 0.89951 0.97678 0.0
O47 O 0.2003 0.91966 0.08906 0.0
O48 O 0.16715 0.97377 0.11669 0.0
C49 C 0.07697 0.99028 0.0237 0.0
O50 O 0.12017 0.88015 0.09279 0.0
O51 O 0.09524 0.88812 0.01577 0.0
In52 In 0.5781 0.31388 0.44627 0.0
O53 O 0.63733 0.35476 0.44052 0.0
O54 O 0.64152 0.29597 0.48061 0.0
C55 C 0.57237 0.27593 0.35055 0.0
C56 C 0.54514 0.39078 0.46945 0.0
C57 C 0.55096 0.2539 0.51374 0.0
O58 O 0.60643 0.27954 0.37586 0.0
O59 O 0.54081 0.29292 0.37273 0.0
O60 O 0.53158 0.26214 0.47144 0.0
O61 O 0.58208 0.27767 0.52285 0.0
C62 C 0.65965 0.32994 0.46778 0.0
O63 O 0.54351 0.35984 0.50061 0.0
O64 O 0.55966 0.38181 0.42457 0.0
In65 In 0.16512 0.55155 0.47023 0.0
O66 O 0.12035 0.6077 0.46001 0.0
O67 O 0.17524 0.61542 0.50732 0.0
C68 C 0.20623 0.55183 0.37665 0.0
C69 C 0.09276 0.51228 0.49706 0.0
C70 C 0.22531 0.52924 0.53924 0.0
O71 O 0.20287 0.5835 0.40643 0.0
O72 O 0.18714 0.51918 0.39292 0.0
O73 O 0.21944 0.50897 0.49684 0.0
O74 O 0.1994 0.55896 0.54728 0.0
C75 C 0.14177 0.63168 0.4895 0.0
O76 O 0.12651 0.50872 0.52295 0.0
O77 O 0.09671 0.53172 0.45402 0.0
In78 In 0.92143 0.14709 0.42989 0.0
O79 O 0.96257 0.11026 0.48678 0.0
O80 O 0.93755 0.07659 0.42173 0.0
C81 C 0.93672 0.20185 0.50856 0.0
C82 C 0.83984 0.12385 0.42898 0.0
C83 C 0.93317 0.18823 0.33753 0.0
O84 O 0.96125 0.19841 0.46934 0.0
O85 O 0.90501 0.17766 0.50762 0.0
O86 O 0.90102 0.19157 0.36629 0.0
O87 O 0.96116 0.16331 0.35515 0.0
C88 C 0.95709 0.07488 0.46495 0.0
O89 O 0.86844 0.10177 0.40772 0.0
O90 O 0.85249 0.15778 0.44996 0.0
In91 In 0.3313 0.89917 0.39798 0.0
O92 O 0.37039 0.84102 0.37647 0.0
O93 O 0.31472 0.83149 0.42128 0.0
C94 C 0.30637 0.93037 0.30398 0.0
C95 C 0.40393 0.92542 0.44235 0.0
C96 C 0.26413 0.91876 0.4575 0.0
O97 O 0.31971 0.89306 0.31017 0.0
O98 O 0.30835 0.95329 0.34468 0.0
O99 O 0.30059 0.93238 0.46839 0.0
O100 O 0.2618 0.89535 0.41729 0.0
C101 C 0.34729 0.81522 0.4009 0.0
O102 O 0.37414 0.90895 0.46794 0.0
O103 O 0.39627 0.93117 0.39401 0.0
In104 In 0.42185 0.86093 0.87365 0.0
O105 O 0.37412 0.91411 0.86198 0.0
O106 O 0.35333 0.85134 0.84823 0.0
C107 C 0.46299 0.81393 0.79887 0.0
C108 C 0.45959 0.92952 0.91646 0.0
C109 C 0.39913 0.81121 0.95469 0.0
O110 O 0.44092 0.84589 0.7875 0.0
O111 O 0.46625 0.80755 0.84745 0.0
O112 O 0.37364 0.82329 0.9197 0.0
O113 O 0.43678 0.8236 0.94844 0.0
C114 C 0.34344 0.89004 0.85163 0.0
O115 O 0.45314 0.89587 0.94166 0.0
O116 O 0.45061 0.92736 0.86809 0.0
In117 In 0.63986 0.46089 0.95248 0.0
O118 O 0.61748 0.40171 0.90781 0.0
O119 O 0.59201 0.41447 0.98358 0.0
C120 C 0.70043 0.46865 0.87792 0.0
C121 C 0.57701 0.51659 0.9667 0.0
C122 C 0.69122 0.45051 0.03548 0.0
O123 O 0.69743 0.43767 0.90871 0.0
O124 O 0.67104 0.49576 0.8822 0.0
O125 O 0.69106 0.48431 0.00888 0.0
O126 O 0.66316 0.42423 0.02244 0.0
C127 C 0.59276 0.39028 0.94421 0.0
O128 O 0.60765 0.51342 0.99834 0.0
O129 O 0.5814 0.49585 0.92448 0.0
In130 In 0.03387 0.64313 0.94823 0.0
O131 O 0.09552 0.6194 0.91077 0.0
O132 O 0.08288 0.60486 0.99108 0.0
C133 C 0.02647 0.69907 0.86875 0.0
C134 C 0.9852 0.57443 0.96016 0.0
C135 C 0.03099 0.70326 0.02289 0.0
O136 O 0.05943 0.69478 0.89604 0.0
O137 O -0.00243 0.67246 0.87843 0.0
O138 O -0.00065 0.69444 0.9946 0.0
O139 O 0.06227 0.67899 0.01657 0.0
C140 C 0.10754 0.60113 0.95241 0.0
O141 O 0.98627 0.6042 0.99335 0.0
O142 O 0.0046 0.58193 0.9177 0.0
In143 In 0.85061 0.04698 0.86293 0.0
O144 O 0.88329 0.02906 0.93963 0.0
O145 O 0.91602 0.01763 0.86768 0.0
C146 C 0.77951 0.05789 0.91797 0.0
C147 C 0.87845 0.12767 0.85356 0.0
C148 C 0.81952 0.00029 0.78246 0.0
O149 O 0.80972 0.03599 0.93619 0.0
O150 O 0.78592 0.07401 0.87328 0.0
O151 O 0.84025 0.0339 0.77525 0.0
O152 O 0.81849 0.98805 0.82961 0.0
C153 C 0.91726 0.0178 0.91743 0.0
O154 O 0.90219 0.09625 0.84577 0.0
O155 O 0.84035 0.11823 0.86119 0.0
In156 In 0.45532 0.62126 0.57575 0.0
O157 O 0.49572 0.58848 0.51389 0.0
O158 O 0.50158 0.56746 0.59275 0.0
C159 C 0.41753 0.66971 0.50223 0.0
C160 C 0.38948 0.57019 0.59768 0.0
C161 C 0.48345 0.67922 0.64671 0.0
O162 O 0.45671 0.66176 0.50134 0.0
O163 O 0.39777 0.6531 0.53998 0.0
O164 O 0.46876 0.6437 0.66019 0.0
O165 O 0.48729 0.68379 0.59772 0.0
C166 C 0.51051 0.56109 0.5449 0.0
O167 O 0.39727 0.60294 0.62471 0.0
O168 O 0.4151 0.56358 0.56064 0.0
In169 In 0.87107 0.42525 0.63356 0.0
O170 O 0.8989 0.47125 0.57447 0.0
O171 O 0.93322 0.45939 0.64506 0.0
C172 C 0.80688 0.39431 0.57633 0.0
C173 C 0.91632 0.35361 0.62294 0.0
C174 C 0.83051 0.45766 0.7183 0.0
O175 O 0.82347 0.42974 0.56574 0.0
O176 O 0.82203 0.376 0.61602 0.0
O177 O 0.86013 0.43088 0.72213 0.0
O178 O 0.82357 0.47022 0.67197 0.0
C179 C 0.93291 0.47618 0.59989 0.0
O180 O 0.89472 0.36091 0.66397 0.0
O181 O 0.91597 0.38292 0.58948 0.0
In182 In 0.0468 0.86136 0.61341 0.0
O183 O -0.00572 0.88526 0.56052 0.0
O184 O 0.01532 0.92492 0.62335 0.0
C185 C 0.07567 0.78987 0.57049 0.0
C186 C 0.113 0.90428 0.57575 0.0
C187 C 0.02369 0.82701 0.70571 0.0
O188 O 0.03961 0.80451 0.55821 0.0
O189 O 0.09553 0.81092 0.60461 0.0
O190 O 0.05298 0.85421 0.70225 0.0
O191 O 0.0038 0.82035 0.66336 0.0
C192 C -0.00663 0.92151 0.58192 0.0
O193 O 0.10962 0.89696 0.62473 0.0
O194 O 0.08321 0.8903 0.5478 0.0
In195 In 0.62797 0.01765 0.56477 0.0
O196 O 0.6056 0.07552 0.61228 0.0
O197 O 0.57615 0.06208 0.53898 0.0
C198 C 0.68385 0.98503 0.63439 0.0
C199 C 0.56764 0.9639 0.53272 0.0
C200 C 0.68305 0.0548 0.49932 0.0
O201 O 0.65047 0.00379 0.64904 0.0
O202 O 0.6868 0.97969 0.58542 0.0
O203 O 0.67145 0.01684 0.49291 0.0
O204 O 0.66649 0.07353 0.53801 0.0
C205 C 0.5785 0.08644 0.57818 0.0
O206 O 0.59631 0.9774 0.50257 0.0
O207 O 0.5723 0.97389 0.58056 0.0
C208 C 0.58284 0.27222 0.93719 0.0
C209 C 0.55159 0.26419 0.97539 0.0
C210 C 0.59304 0.31365 0.92251 0.0
C211 C 0.57271 0.34831 0.94625 0.0
H212 H 0.60149 0.24646 0.92103 0.0
H213 H 0.61949 0.31852 0.89608 0.0
S214 S 0.48314 0.34408 0.04038 0.0
N215 N 0.49594 0.29397 0.03029 0.0
N216 N 0.51561 0.37208 0.00331 0.0
C217 C 0.53852 0.34061 0.98033 0.0
C218 C 0.52776 0.29838 0.99476 0.0
C219 C 0.1846 0.60034 0.93346 0.0
C220 C 0.14968 0.58214 0.95885 0.0
C221 C 0.22575 0.59178 0.95083 0.0
C222 C 0.2331 0.56446 0.99365 0.0
H223 H 0.18004 0.6242 0.90338 0.0
H224 H 0.25163 0.60925 0.93328 0.0
S225 S 0.15228 0.50119 0.06426 0.0
N226 N 0.125 0.53016 0.02216 0.0
N227 N 0.20241 0.51342 0.05434 0.0
C228 C 0.19867 0.54205 0.01472 0.0
C229 C 0.1568 0.55119 0.99747 0.0
C230 C 0.86577 0.20381 0.8712 0.0
C231 C 0.89451 0.16992 0.86823 0.0
C232 C 0.87468 0.23967 0.90158 0.0
C233 C 0.91255 0.24281 0.93042 0.0
H234 H 0.83478 0.20123 0.85327 0.0
H235 H 0.85036 0.26371 0.90529 0.0
S236 S 0.00161 0.16616 0.92774 0.0
N237 N 0.96499 0.1444 0.89013 0.0
N238 N 0.9817 0.21186 0.94764 0.0
C239 C 0.94347 0.21123 0.92324 0.0
C240 C 0.93446 0.17474 0.89188 0.0
C241 C 0.26827 0.87256 0.87002 0.0
C242 C 0.29928 0.90363 0.86096 0.0
C243 C 0.23126 0.88226 0.89782 0.0
C244 C 0.22391 0.92337 0.9173 0.0
H245 H 0.27426 0.83971 0.86006 0.0
H246 H 0.20998 0.85657 0.90756 0.0
S247 S 0.28981 0.01823 0.89138 0.0
N248 N 0.3162 0.97872 0.86407 0.0
N249 N 0.24651 -0.00298 0.9163 0.0
C250 C 0.25194 0.95577 0.90243 0.0
C251 C 0.28967 0.94586 0.87409 0.0
C252 C 0.57295 0.2047 0.58511 0.0
C253 C 0.54532 0.21386 0.54311 0.0
C254 C 0.57982 0.16292 0.60155 0.0
C255 C 0.55931 0.12907 0.57638 0.0
H256 H 0.59246 0.22938 0.6021 0.0
H257 H 0.60451 0.15697 0.63016 0.0
S258 S 0.47497 0.13726 0.47547 0.0
N259 N 0.49055 0.18658 0.48503 0.0
N260 N 0.50353 0.10801 0.51594 0.0
C261 C 0.5272 0.13837 0.53986 0.0
C262 C 0.52012 0.1809 0.52319 0.0
C263 C 0.31386 0.56787 0.62365 0.0
C264 C 0.34861 0.5479 0.59969 0.0
C265 C 0.27258 0.55731 0.60892 0.0
C266 C 0.26499 0.52666 0.56969 0.0
H267 H 0.31844 0.59483 0.64947 0.0
H268 H 0.24692 0.57652 0.62427 0.0
S269 S 0.34491 0.45559 0.50927 0.0
N270 N 0.37265 0.48872 0.54586 0.0
N271 N 0.29489 0.46914 0.51771 0.0
C272 C 0.2991 0.50178 0.55226 0.0
C273 C 0.34113 0.51243 0.56742 0.0
C274 C 0.96165 0.30852 0.5665 0.0
C275 C 0.93221 0.31141 0.60792 0.0
C276 C 0.96615 0.27114 0.53735 0.0
C277 C 0.94101 0.23563 0.54845 0.0
H278 H 0.97871 0.33638 0.5536 0.0
H279 H 0.98667 0.27143 0.5032 0.0
S280 S 0.86658 0.22406 0.66055 0.0
N281 N 0.88323 0.27351 0.6645 0.0
N282 N 0.89151 0.20308 0.60962 0.0
C283 C 0.9153 0.23652 0.59373 0.0
C284 C 0.91102 0.27454 0.62369 0.0
C285 C 0.19124 0.91531 0.57458 0.0
C286 C 0.15156 0.92075 0.55046 0.0
C287 C 0.22864 0.91847 0.54499 0.0
C288 C 0.22704 0.92672 0.49068 0.0
H289 H 0.19331 0.90517 0.61521 0.0
H290 H 0.25852 0.91097 0.56368 0.0
S291 S 0.1321 0.95288 0.41204 0.0
N292 N 0.1137 0.9425 0.47148 0.0
N293 N 0.1839 0.94695 0.41593 0.0
C294 C 0.18808 0.93633 0.46752 0.0
C295 C 0.15026 0.93385 0.49755 0.0
C296 C 0.41716 0.75728 0.02254 0.0
C297 C 0.38639 0.7815 0.9964 0.0
C298 C 0.40553 0.72293 0.05411 0.0
C299 C 0.36274 0.71179 0.06052 0.0
H300 H 0.45051 0.76304 0.01583 0.0
H301 H 0.43038 0.70324 0.07034 0.0
S302 S 0.26997 0.77138 0.01015 0.0
N303 N 0.31134 0.79667 0.98612 0.0
N304 N 0.28943 0.73208 0.04549 0.0
C305 C 0.33163 0.73854 0.03912 0.0
C306 C 0.34348 0.77342 0.0069 0.0
C307 C 0.72895 0.39436 0.08447 0.0
C308 C 0.72814 0.43655 0.0665 0.0
C309 C 0.76725 0.37359 0.09368 0.0
C310 C 0.8058 0.39473 0.08699 0.0
H311 H 0.70017 0.37582 0.08612 0.0
H312 H 0.76677 0.34 0.10241 0.0
S313 S 0.82064 0.50794 0.05356 0.0
N314 N 0.76892 0.50078 0.05162 0.0
N315 N 0.84104 0.46184 0.07078 0.0
C316 C 0.80531 0.4384 0.07647 0.0
C317 C 0.76628 0.45943 0.06601 0.0
C318 C 0.07192 0.75174 0.08055 0.0
C319 C 0.03684 0.74521 0.04737 0.0
C320 C 0.08867 0.79235 0.08814 0.0
C321 C 0.07113 0.82736 0.06209 0.0
H322 H 0.08876 0.72494 0.09701 0.0
H323 H 0.11767 0.79567 0.11048 0.0
S324 S 0.97403 0.82865 0.98051 0.0
N325 N 0.98086 0.77833 0.99599 0.0
N326 N 0.013 0.85445 0.00946 0.0
C327 C 0.0334 0.82199 0.0338 0.0
C328 C 0.0159 0.78086 0.02682 0.0
C329 C 0.66655 0.08987 0.94024 0.0
C330 C 0.66324 0.0922 0.99533 0.0
C331 C 0.70392 0.07695 0.91604 0.0
C332 C 0.73947 0.06553 0.94589 0.0
H333 H 0.64042 0.09928 0.91522 0.0
H334 H 0.7052 0.07689 0.87341 0.0
S335 S 0.74643 0.06258 0.09147 0.0
N336 N 0.69787 0.07941 0.07939 0.0
N337 N 0.76862 0.0546 0.03337 0.0
C338 C 0.73616 0.06541 1.00103 0.0
C339 C 0.69788 0.07892 0.02593 0.0
C340 C 0.42273 0.72724 0.43549 0.0
C341 C 0.39737 0.70053 0.4664 0.0
C342 C 0.40537 0.76249 0.41001 0.0
C343 C 0.36209 0.77229 0.41479 0.0
H344 H 0.45666 0.72257 0.43364 0.0
H345 H 0.42664 0.78382 0.38975 0.0
S346 S 0.28069 0.70673 0.48078 0.0
N347 N 0.32571 0.68196 0.49267 0.0
N348 N 0.29317 0.74855 0.44512 0.0
C349 C 0.33575 0.74346 0.44108 0.0
C350 C 0.35339 0.70746 0.46688 0.0
C351 C 0.75389 0.39792 0.50339 0.0
C352 C 0.77201 0.37555 0.54552 0.0
C353 C 0.71878 0.38183 0.47633 0.0
C354 C 0.70068 0.34276 0.49043 0.0
H355 H 0.76614 0.42863 0.49209 0.0
H356 H 0.70489 0.40082 0.44536 0.0
S357 S 0.73822 0.27043 0.59575 0.0
N358 N 0.77091 0.31104 0.59799 0.0
N359 N 0.70476 0.28121 0.54779 0.0
C360 C 0.71965 0.31927 0.53107 0.0
C361 C 0.75534 0.33558 0.55852 0.0
C362 C 0.08646 0.68822 0.49195 0.0
C363 C 0.12705 0.67393 0.50619 0.0
C364 C 0.07014 0.72621 0.51216 0.0
C365 C 0.09389 0.75109 0.54722 0.0
H366 H 0.06667 0.66942 0.46615 0.0
H367 H 0.03842 0.73566 0.50104 0.0
S368 S 0.20317 0.72907 0.59387 0.0
N369 N 0.19142 0.68865 0.55539 0.0
N370 N 0.16108 0.75997 0.59297 0.0
C371 C 0.13513 0.73784 0.56029 0.0
C372 C 0.15163 0.69926 0.53983 0.0
C373 C 0.74901 0.04802 0.44655 0.0
C374 C 0.71807 0.07402 0.46977 0.0
C375 C 0.78756 0.06499 0.42965 0.0
C376 C 0.79623 0.10844 0.43552 0.0
H377 H 0.74471 0.014 0.44479 0.0
H378 H 0.81166 0.04348 0.4152 0.0
S379 S 0.72171 0.19092 0.48293 0.0
N380 N 0.69569 0.14599 0.48981 0.0
N381 N 0.76823 0.17796 0.45807 0.0
C382 C 0.76396 0.13524 0.45398 0.0
C383 C 0.72478 0.11798 0.47112 0.0
C384 C 0.48856 0.96824 0.99426 0.0
C385 C 0.47065 0.9695 0.94362 0.0
C386 C 0.49708 0.00552 0.02236 0.0
C387 C 0.48751 0.04558 1.0012 0.0
H388 H 0.49654 0.93815 0.0122 0.0
H389 H 0.51225 0.00288 0.06043 0.0
S390 S 0.4362 0.06594 0.87212 0.0
N391 N 0.44093 0.01391 0.87483 0.0
N392 N 0.45649 0.084 0.92765 0.0
C393 C 0.46808 0.04719 0.95134 0.0
C394 C 0.45988 0.0092 0.92247 0.0
C395 C 0.48945 0.55048 0.0589 0.0
C396 C 0.45283 0.54473 0.02834 0.0
C397 C 0.5298 0.54449 0.03735 0.0
C398 C 0.5352 0.53233 0.98442 0.0
H399 H 0.48703 0.55944 0.09996 0.0
H400 H 0.55691 0.54784 0.06312 0.0
S401 S 0.44956 0.51613 0.8865 0.0
N402 N 0.42457 0.52851 0.94149 0.0
N403 N 0.50041 0.51708 0.9011 0.0
C404 C 0.49888 0.52802 0.95284 0.0
C405 C 0.45774 0.53412 0.97483 0.0
C406 C 0.97439 0.49805 0.93762 0.0
C407 C 0.97207 0.53104 0.97491 0.0
C408 C 0.96937 0.45562 0.95263 0.0
C409 C 0.96296 0.4446 0.00562 0.0
H410 H 0.98098 0.50494 0.89668 0.0
H411 H 0.97104 0.43121 0.92264 0.0
S412 S 0.95029 0.51888 0.11786 0.0
N413 N 0.9595 0.54968 0.06672 0.0
N414 N 0.95122 0.46999 0.09481 0.0
C415 C 0.95946 0.47721 0.04306 0.0
C416 C 0.96361 0.52041 0.0277 0.0
C417 C 0.03449 0.0136 0.94664 0.0
C418 C 0.03614 0.00396 1.00067 0.0
C419 C -0.00412 0.0172 0.92017 0.0
C420 C 0.95724 0.01196 0.94673 0.0
H421 H 0.0633 0.0166 0.92382 0.0
H422 H -0.00358 0.02416 0.87844 0.0
S423 S 0.94375 0.99001 0.08914 0.0
N424 N -0.00449 0.99148 0.08051 0.0
N425 N 0.92273 -0.00064 0.03079 0.0
C426 C 0.95821 0.00429 1.00122 0.0
C427 C -0.00232 0.0001 0.0282 0.0
C428 C 0.52484 0.4844 0.55984 0.0
C429 C 0.52544 0.51934 0.52555 0.0
C430 C 0.53028 0.44303 0.54099 0.0
C431 C 0.53691 0.43482 0.48714 0.0
H432 H 0.5185 0.48877 0.6014 0.0
H433 H 0.52923 0.41726 0.56908 0.0
S434 S 0.54391 0.51537 0.38128 0.0
N435 N 0.53491 0.54314 0.43529 0.0
N436 N 0.54572 0.46534 0.39999 0.0
C437 C 0.5389 0.46952 0.45256 0.0
C438 C 0.53312 0.51173 0.47176 0.0
C439 C 0.04978 0.48808 0.57329 0.0
C440 C 0.05125 0.50207 0.52079 0.0
C441 C 0.01131 0.48234 0.59942 0.0
C442 C 0.97252 0.48999 0.57404 0.0
H443 H 0.07869 0.48181 0.59487 0.0
H444 H 0.0121 0.47068 0.63947 0.0
S445 S 0.95872 0.52813 0.43694 0.0
N446 N 0.01047 0.52456 0.44458 0.0
N447 N 0.93788 0.5131 0.49351 0.0
C448 C 0.9734 0.50445 0.52166 0.0
C449 C 0.01276 0.51052 0.49502 0.0
C450 C 0.98742 -0.00021 0.5745 0.0
C451 C 0.97825 0.95956 0.55356 0.0
C452 C 0.98161 0.03655 0.54479 0.0
C453 C 0.96608 0.0348 0.49296 0.0
H454 H 0.00055 0.00299 0.61366 0.0
H455 H 0.98935 0.06666 0.56291 0.0
S456 S 0.93459 0.93761 0.42061 0.0
N457 N 0.95118 0.92023 0.47829 0.0
N458 N 0.93967 0.98963 0.42263 0.0
C459 C 0.95557 -0.00506 0.47188 0.0
C460 C 0.96165 0.95732 0.5022 0.0
C461 C 0.52138 0.94602 0.45649 0.0
C462 C 0.5272 0.94771 0.51143 0.0
C463 C 0.48135 0.93929 0.43449 0.0
C464 C 0.44562 0.93361 0.46657 0.0
H465 H 0.54769 0.95149 0.43002 0.0
H466 H 0.4784 0.93869 0.39202 0.0
S467 S 0.44384 0.93334 0.61276 0.0
N468 N 0.49388 0.94168 0.59745 0.0
N469 N 0.4187 0.92861 0.55613 0.0
C470 C 0.45113 0.93376 0.52157 0.0
C471 C 0.4919 0.94079 0.54401 0.0
C472 C 0.53003 0.24368 0.27691 0.0
C473 C 0.56958 0.25185 0.3003 0.0
C474 C 0.52678 0.21996 0.23015 0.0
C475 C 0.56296 0.20362 0.20488 0.0
H476 H 0.50129 0.2556 0.29487 0.0
H477 H 0.4957 0.21492 0.21336 0.0
S478 S 0.67401 0.21549 0.25038 0.0
N479 N 0.64569 0.24116 0.29475 0.0
N480 N 0.63963 0.19688 0.20734 0.0
C481 C 0.60266 0.21132 0.22811 0.0
C482 C 0.60595 0.23534 0.27564 0.0
C483 C 0.2525 0.59201 0.31534 0.0
C484 C 0.23214 0.55372 0.32797 0.0
C485 C 0.27726 0.59592 0.27005 0.0
C486 C 0.28303 0.56171 0.23532 0.0
H487 H 0.24911 0.61958 0.34044 0.0
H488 H 0.2916 0.62638 0.26193 0.0
S489 S 0.23763 0.45406 0.2506 0.0
N490 N 0.22016 0.48042 0.30252 0.0
N491 N 0.26691 0.48781 0.21693 0.0
C492 C 0.26362 0.52286 0.24777 0.0
C493 C 0.2381 0.51889 0.29413 0.0
C494 C 0.89875 0.25625 0.22338 0.0
C495 C 0.93458 0.2585 0.1908 0.0
C496 C 0.89931 0.23363 0.27034 0.0
C497 C 0.93564 0.2117 0.28708 0.0
H498 H 0.86968 0.27232 0.2127 0.0
H499 H 0.87054 0.23322 0.29353 0.0
S500 S 0.03814 0.20714 0.21608 0.0
N501 N 0.0078 0.23705 0.17831 0.0
N502 N 0.00878 0.19362 0.26722 0.0
C503 C 0.97198 0.21356 0.25509 0.0
C504 C 0.97151 0.23724 0.2069 0.0
C505 C 0.29121 0.91987 0.20892 0.0
C506 C 0.28391 0.94298 0.25533 0.0
C507 C 0.26466 0.92414 0.16525 0.0
C508 C 0.22936 0.95144 0.16624 0.0
H509 H 0.31663 0.89683 0.20706 0.0
H510 H 0.27092 0.9044 0.1312 0.0
S511 S 0.19842 0.02186 0.27683 0.0
N512 N 0.24073 -0.00339 0.29856 0.0
N513 N 0.19045 0.00445 0.21628 0.0
C514 C 0.22315 0.97675 0.21121 0.0
C515 C 0.25052 0.97258 0.25582 0.0
C516 C 0.48374 0.73986 0.77557 0.0
C517 C 0.47691 0.78201 0.75943 0.0
C518 C 0.48853 0.70698 0.73879 0.0
C519 C 0.48762 0.71501 0.68441 0.0
H520 H 0.48276 0.73167 0.81694 0.0
H521 H 0.49111 0.67477 0.75312 0.0
S522 S 0.47673 0.82068 0.62169 0.0
N523 N 0.47354 0.83053 0.68545 0.0
N524 N 0.48377 0.76902 0.61627 0.0
C525 C 0.4842 0.75748 0.66777 0.0
C526 C 0.47848 0.79089 0.70529 0.0
C527 C 0.76277 0.4887 0.7526 0.0
C528 C 0.80128 0.46748 0.76252 0.0
C529 C 0.7308 0.49107 0.791 0.0
C530 C 0.73613 0.47196 0.84042 0.0
H531 H 0.75636 0.50179 0.71404 0.0
H532 H 0.70099 0.50596 0.78095 0.0
S533 S 0.83357 0.41947 0.88966 0.0
N534 N 0.84475 0.4321 0.82816 0.0
N535 N 0.78475 0.43624 0.89987 0.0
C536 C 0.77552 0.45337 0.85214 0.0
C537 C 0.80811 0.45125 0.81332 0.0
C538 C -0.006 0.76187 0.74788 0.0
C539 C 0.01886 0.79881 0.75204 0.0
C540 C -0.00461 0.73018 0.7866 0.0
C541 C 0.02198 0.73414 0.83056 0.0
H542 H 0.97474 0.75638 0.7133 0.0
H543 H 0.97691 0.70167 0.78091 0.0
S544 S 0.08749 0.82774 0.86502 0.0
N545 N 0.06662 0.83967 0.80733 0.0
N546 N 0.06932 0.78023 0.87979 0.0
C547 C 0.04477 0.7721 0.83701 0.0
C548 C 0.04315 0.80442 0.79786 0.0
C549 C 0.71371 0.9722 0.72414 0.0
C550 C 0.72032 0.97847 0.67004 0.0
C551 C 0.74738 0.97479 0.76 0.0
C552 C 0.78857 0.98509 0.74315 0.0
H553 H 0.68202 0.96725 0.73912 0.0
H554 H 0.74033 0.97219 0.80161 0.0
S555 S 0.82333 0.00072 0.60531 0.0
N556 N 0.77207 0.99135 0.60081 0.0
N557 N 0.83474 -0.00183 0.66868 0.0
C558 C 0.79606 0.98898 0.68897 0.0
C559 C 0.76205 0.98514 0.65227 0.0
loop_
_geom_bond_atom_site_label_1
_geom_bond_atom_site_label_2
_geom_bond_distance
_geom_bond_site_symmetry_2
_ccdc_geom_bond_type
In0 O1 2.294 . S
In0 O2 2.326 1_554 S
In0 O6 2.266 . S
In0 O7 2.326 . S
In0 O8 2.266 . S
In0 O9 2.326 . S
In0 O11 2.294 . S
In0 O12 2.326 . S
O1 In0 2.294 . S
O1 C10 1.240 . S
O2 In0 2.326 1_556 S
O2 C10 1.252 1_556 S
C3 O6 1.252 . S
C3 O7 1.260 . S
C4 O11 1.240 . S
C4 O12 1.252 . S
C5 O8 1.252 . S
C5 O9 1.260 . S
O6 In0 2.266 . S
O6 C3 1.252 . S
O7 In0 2.326 . S
O7 C3 1.260 . S
O8 In0 2.266 . S
O8 C5 1.252 . S
O9 In0 2.326 . S
O9 C5 1.260 . S
C10 O1 1.240 . S
C10 O2 1.252 1_554 S
O11 In0 2.294 . S
O11 C4 1.240 . S
O12 In0 2.326 . S
O12 C4 1.252 . S
In13 O14 2.294 . S
In13 O15 2.326 1_554 S
In13 O19 2.266 . S
In13 O20 2.326 . S
In13 O21 2.266 . S
In13 O22 2.326 . S
In13 O24 2.294 . S
In13 O25 2.326 . S
O14 In13 2.294 . S
O14 C23 1.240 . S
O15 In13 2.326 1_556 S
O15 C23 1.252 1_556 S
C16 O19 1.252 . S
C16 O20 1.260 . S
C17 O24 1.240 . S
C17 O25 1.252 . S
C18 O21 1.252 . S
C18 O22 1.260 . S
O19 In13 2.266 . S
O19 C16 1.252 . S
O20 In13 2.326 . S
O20 C16 1.260 . S
O21 In13 2.266 . S
O21 C18 1.252 . S
O22 In13 2.326 . S
O22 C18 1.260 . S
C23 O14 1.240 . S
C23 O15 1.252 1_554 S
O24 In13 2.294 . S
O24 C17 1.240 . S
O25 In13 2.326 . S
O25 C17 1.252 . S
In26 O27 2.294 . S
In26 O28 2.326 1_554 S
In26 O32 2.266 . S
In26 O33 2.326 1_655 S
In26 O34 2.266 . S
In26 O35 2.326 . S
In26 O37 2.294 1_655 S
In26 O38 2.326 . S
O27 In26 2.294 . S
O27 C36 1.240 . S
O28 In26 2.326 1_556 S
O28 C36 1.252 1_556 S
C29 O32 1.252 . S
C29 O33 1.260 1_655 S
C30 O37 1.240 . S
C30 O38 1.252 1_455 S
C31 O34 1.252 . S
C31 O35 1.260 . S
O32 In26 2.266 . S
O32 C29 1.252 . S
O33 In26 2.326 1_455 S
O33 C29 1.260 1_455 S
O34 In26 2.266 . S
O34 C31 1.252 . S
O35 In26 2.326 . S
O35 C31 1.260 . S
C36 O27 1.240 . S
C36 O28 1.252 1_554 S
O37 In26 2.294 1_455 S
O37 C30 1.240 . S
O38 In26 2.326 . S
O38 C30 1.252 1_655 S
In39 O40 2.294 1_565 S
In39 O41 2.326 . S
In39 O45 2.266 . S
In39 O46 2.326 . S
In39 O47 2.266 . S
In39 O48 2.326 1_565 S
In39 O50 2.294 . S
In39 O51 2.326 1_554 S
O40 In39 2.294 1_545 S
O40 C49 1.240 . S
O41 In39 2.326 . S
O41 C49 1.252 1_565 S
C42 O45 1.252 . S
C42 O46 1.260 . S
C43 O50 1.240 . S
C43 O51 1.252 1_554 S
C44 O47 1.252 . S
C44 O48 1.260 1_565 S
O45 In39 2.266 . S
O45 C42 1.252 . S
O46 In39 2.326 . S
O46 C42 1.260 . S
O47 In39 2.266 . S
O47 C44 1.252 . S
O48 In39 2.326 1_545 S
O48 C44 1.260 1_545 S
C49 O40 1.240 . S
C49 O41 1.252 1_545 S
O50 In39 2.294 . S
O50 C43 1.240 . S
O51 In39 2.326 1_556 S
O51 C43 1.252 1_556 S
In52 O53 2.294 . S
In52 O54 2.326 . S
In52 O58 2.266 . S
In52 O59 2.326 . S
In52 O60 2.266 . S
In52 O61 2.326 . S
In52 O63 2.294 . S
In52 O64 2.326 . S
O53 In52 2.294 . S
O53 C62 1.240 . S
O54 In52 2.326 . S
O54 C62 1.252 . S
C55 O58 1.252 . S
C55 O59 1.260 . S
C56 O63 1.240 . S
C56 O64 1.252 . S
C57 O60 1.252 . S
C57 O61 1.260 . S
O58 In52 2.266 . S
O58 C55 1.252 . S
O59 In52 2.326 . S
O59 C55 1.260 . S
O60 In52 2.266 . S
O60 C57 1.252 . S
O61 In52 2.326 . S
O61 C57 1.260 . S
C62 O53 1.240 . S
C62 O54 1.252 . S
O63 In52 2.294 . S
O63 C56 1.240 . S
O64 In52 2.326 . S
O64 C56 1.252 . S
In65 O66 2.294 . S
In65 O67 2.326 . S
In65 O71 2.266 . S
In65 O72 2.326 . S
In65 O73 2.266 . S
In65 O74 2.326 . S
In65 O76 2.294 . S
In65 O77 2.326 . S
O66 In65 2.294 . S
O66 C75 1.240 . S
O67 In65 2.326 . S
O67 C75 1.252 . S
C68 O71 1.252 . S
C68 O72 1.260 . S
C69 O76 1.240 . S
C69 O77 1.252 . S
C70 O73 1.252 . S
C70 O74 1.260 . S
O71 In65 2.266 . S
O71 C68 1.252 . S
O72 In65 2.326 . S
O72 C68 1.260 . S
O73 In65 2.266 . S
O73 C70 1.252 . S
O74 In65 2.326 . S
O74 C70 1.260 . S
C75 O66 1.240 . S
C75 O67 1.252 . S
O76 In65 2.294 . S
O76 C69 1.240 . S
O77 In65 2.326 . S
O77 C69 1.252 . S
In78 O79 2.294 1_655 S
In78 O80 2.326 . S
In78 O84 2.266 . S
In78 O85 2.326 . S
In78 O86 2.266 . S
In78 O87 2.326 1_655 S
In78 O89 2.294 . S
In78 O90 2.326 . S
O79 In78 2.294 1_455 S
O79 C88 1.240 . S
O80 In78 2.326 . S
O80 C88 1.252 1_655 S
C81 O84 1.252 . S
C81 O85 1.260 . S
C82 O89 1.240 . S
C82 O90 1.252 . S
C83 O86 1.252 . S
C83 O87 1.260 1_655 S
O84 In78 2.266 . S
O84 C81 1.252 . S
O85 In78 2.326 . S
O85 C81 1.260 . S
O86 In78 2.266 . S
O86 C83 1.252 . S
O87 In78 2.326 1_455 S
O87 C83 1.260 1_455 S
C88 O79 1.240 . S
C88 O80 1.252 1_455 S
O89 In78 2.294 . S
O89 C82 1.240 . S
O90 In78 2.326 . S
O90 C82 1.252 . S
In91 O92 2.294 . S
In91 O93 2.326 . S
In91 O97 2.266 . S
In91 O98 2.326 1_565 S
In91 O99 2.266 . S
In91 O100 2.326 . S
In91 O102 2.294 1_565 S
In91 O103 2.326 . S
O92 In91 2.294 . S
O92 C101 1.240 . S
O93 In91 2.326 . S
O93 C101 1.252 . S
C94 O97 1.252 . S
C94 O98 1.260 1_565 S
C95 O102 1.240 . S
C95 O103 1.252 1_545 S
C96 O99 1.252 . S
C96 O100 1.260 . S
O97 In91 2.266 . S
O97 C94 1.252 . S
O98 In91 2.326 1_545 S
O98 C94 1.260 1_545 S
O99 In91 2.266 . S
O99 C96 1.252 . S
O100 In91 2.326 . S
O100 C96 1.260 . S
C101 O92 1.240 . S
C101 O93 1.252 . S
O102 In91 2.294 1_545 S
O102 C95 1.240 . S
O103 In91 2.326 . S
O103 C95 1.252 1_565 S
In104 O105 2.294 . S
In104 O106 2.326 1_556 S
In104 O110 2.266 . S
In104 O111 2.326 . S
In104 O112 2.266 . S
In104 O113 2.326 . S
In104 O115 2.294 . S
In104 O116 2.326 . S
O105 In104 2.294 . S
O105 C114 1.240 . S
O106 In104 2.326 1_554 S
O106 C114 1.252 1_554 S
C107 O110 1.252 . S
C107 O111 1.260 . S
C108 O115 1.240 . S
C108 O116 1.252 . S
C109 O112 1.252 . S
C109 O113 1.260 . S
O110 In104 2.266 . S
O110 C107 1.252 . S
O111 In104 2.326 . S
O111 C107 1.260 . S
O112 In104 2.266 . S
O112 C109 1.252 . S
O113 In104 2.326 . S
O113 C109 1.260 . S
C114 O105 1.240 . S
C114 O106 1.252 1_556 S
O115 In104 2.294 . S
O115 C108 1.240 . S
O116 In104 2.326 . S
O116 C108 1.252 . S
In117 O118 2.294 . S
In117 O119 2.326 1_556 S
In117 O123 2.266 . S
In117 O124 2.326 . S
In117 O125 2.266 . S
In117 O126 2.326 . S
In117 O128 2.294 . S
In117 O129 2.326 . S
O118 In117 2.294 . S
O118 C127 1.240 . S
O119 In117 2.326 1_554 S
O119 C127 1.252 1_554 S
C120 O123 1.252 . S
C120 O124 1.260 . S
C121 O128 1.240 . S
C121 O129 1.252 . S
C122 O125 1.252 . S
C122 O126 1.260 . S
O123 In117 2.266 . S
O123 C120 1.252 . S
O124 In117 2.326 . S
O124 C120 1.260 . S
O125 In117 2.266 . S
O125 C122 1.252 . S
O126 In117 2.326 . S
O126 C122 1.260 . S
C127 O118 1.240 . S
C127 O119 1.252 1_556 S
O128 In117 2.294 . S
O128 C121 1.240 . S
O129 In117 2.326 . S
O129 C121 1.252 . S
In130 O131 2.294 . S
In130 O132 2.326 1_556 S
In130 O136 2.266 . S
In130 O137 2.326 1_455 S
In130 O138 2.266 . S
In130 O139 2.326 . S
In130 O141 2.294 1_455 S
In130 O142 2.326 . S
O131 In130 2.294 . S
O131 C140 1.240 . S
O132 In130 2.326 1_554 S
O132 C140 1.252 1_554 S
C133 O136 1.252 . S
C133 O137 1.260 1_455 S
C134 O141 1.240 . S
C134 O142 1.252 1_655 S
C135 O138 1.252 . S
C135 O139 1.260 . S
O136 In130 2.266 . S
O136 C133 1.252 . S
O137 In130 2.326 1_655 S
O137 C133 1.260 1_655 S
O138 In130 2.266 . S
O138 C135 1.252 . S
O139 In130 2.326 . S
O139 C135 1.260 . S
C140 O131 1.240 . S
C140 O132 1.252 1_556 S
O141 In130 2.294 1_655 S
O141 C134 1.240 . S
O142 In130 2.326 . S
O142 C134 1.252 1_455 S
In143 O144 2.294 1_545 S
In143 O145 2.326 . S
In143 O149 2.266 . S
In143 O150 2.326 . S
In143 O151 2.266 . S
In143 O152 2.326 1_545 S
In143 O154 2.294 . S
In143 O155 2.326 1_556 S
O144 In143 2.294 1_565 S
O144 C153 1.240 . S
O145 In143 2.326 . S
O145 C153 1.252 1_545 S
C146 O149 1.252 . S
C146 O150 1.260 . S
C147 O154 1.240 . S
C147 O155 1.252 1_556 S
C148 O151 1.252 . S
C148 O152 1.260 1_545 S
O149 In143 2.266 . S
O149 C146 1.252 . S
O150 In143 2.326 . S
O150 C146 1.260 . S
O151 In143 2.266 . S
O151 C148 1.252 . S
O152 In143 2.326 1_565 S
O152 C148 1.260 1_565 S
C153 O144 1.240 . S
C153 O145 1.252 1_565 S
O154 In143 2.294 . S
O154 C147 1.240 . S
O155 In143 2.326 1_554 S
O155 C147 1.252 1_554 S
In156 O157 2.294 . S
In156 O158 2.326 . S
In156 O162 2.266 . S
In156 O163 2.326 . S
In156 O164 2.266 . S
In156 O165 2.326 . S
In156 O167 2.294 . S
In156 O168 2.326 . S
O157 In156 2.294 . S
O157 C166 1.240 . S
O158 In156 2.326 . S
O158 C166 1.252 . S
C159 O162 1.252 . S
C159 O163 1.260 . S
C160 O167 1.240 . S
C160 O168 1.252 . S
C161 O164 1.252 . S
C161 O165 1.260 . S
O162 In156 2.266 . S
O162 C159 1.252 . S
O163 In156 2.326 . S
O163 C159 1.260 . S
O164 In156 2.266 . S
O164 C161 1.252 . S
O165 In156 2.326 . S
O165 C161 1.260 . S
C166 O157 1.240 . S
C166 O158 1.252 . S
O167 In156 2.294 . S
O167 C160 1.240 . S
O168 In156 2.326 . S
O168 C160 1.252 . S
In169 O170 2.294 . S
In169 O171 2.326 . S
In169 O175 2.266 . S
In169 O176 2.326 . S
In169 O177 2.266 . S
In169 O178 2.326 . S
In169 O180 2.294 . S
In169 O181 2.326 . S
O170 In169 2.294 . S
O170 C179 1.240 . S
O171 In169 2.326 . S
O171 C179 1.252 . S
C172 O175 1.252 . S
C172 O176 1.260 . S
C173 O180 1.240 . S
C173 O181 1.252 . S
C174 O177 1.252 . S
C174 O178 1.260 . S
O175 In169 2.266 . S
O175 C172 1.252 . S
O176 In169 2.326 . S
O176 C172 1.260 . S
O177 In169 2.266 . S
O177 C174 1.252 . S
O178 In169 2.326 . S
O178 C174 1.260 . S
C179 O170 1.240 . S
C179 O171 1.252 . S
O180 In169 2.294 . S
O180 C173 1.240 . S
O181 In169 2.326 . S
O181 C173 1.252 . S
In182 O183 2.294 1_455 S
In182 O184 2.326 . S
In182 O188 2.266 . S
In182 O189 2.326 . S
In182 O190 2.266 . S
In182 O191 2.326 1_455 S
In182 O193 2.294 . S
In182 O194 2.326 . S
O183 In182 2.294 1_655 S
O183 C192 1.240 . S
O184 In182 2.326 . S
O184 C192 1.252 1_455 S
C185 O188 1.252 . S
C185 O189 1.260 . S
C186 O193 1.240 . S
C186 O194 1.252 . S
C187 O190 1.252 . S
C187 O191 1.260 1_455 S
O188 In182 2.266 . S
O188 C185 1.252 . S
O189 In182 2.326 . S
O189 C185 1.260 . S
O190 In182 2.266 . S
O190 C187 1.252 . S
O191 In182 2.326 1_655 S
O191 C187 1.260 1_655 S
C192 O183 1.240 . S
C192 O184 1.252 1_655 S
O193 In182 2.294 . S
O193 C186 1.240 . S
O194 In182 2.326 . S
O194 C186 1.252 . S
In195 O196 2.294 . S
In195 O197 2.326 . S
In195 O201 2.266 . S
In195 O202 2.326 1_545 S
In195 O203 2.266 . S
In195 O204 2.326 . S
In195 O206 2.294 1_545 S
In195 O207 2.326 . S
O196 In195 2.294 . S
O196 C205 1.240 . S
O197 In195 2.326 . S
O197 C205 1.252 . S
C198 O201 1.252 . S
C198 O202 1.260 1_545 S
C199 O206 1.240 . S
C199 O207 1.252 1_565 S
C200 O203 1.252 . S
C200 O204 1.260 . S
O201 In195 2.266 . S
O201 C198 1.252 . S
O202 In195 2.326 1_565 S
O202 C198 1.260 1_565 S
O203 In195 2.266 . S
O203 C200 1.252 . S
O204 In195 2.326 . S
O204 C200 1.260 . S
C205 O196 1.240 . S
C205 O197 1.252 . S
O206 In195 2.294 1_565 S
O206 C199 1.240 . S
O207 In195 2.326 . S
O207 C199 1.252 1_545 S
C208 C209 1.369 1_556 S
C208 C210 1.419 . S
C208 H212 0.930 . S
C209 C208 1.369 1_554 S
C209 C218 1.429 . S
C210 C208 1.419 . S
C210 C211 1.363 . S
C210 H213 0.929 . S
C211 C210 1.363 . S
C211 C217 1.428 1_556 S
H212 C208 0.930 . S
H213 C210 0.929 . S
S214 N215 1.613 . S
S214 N216 1.610 . S
N215 S214 1.613 . S
N215 C218 1.350 . S
N216 S214 1.610 . S
N216 C217 1.351 . S
C217 C211 1.428 1_554 S
C217 N216 1.351 . S
C217 C218 1.434 . S
C218 C209 1.429 . S
C218 N215 1.350 . S
C218 C217 1.434 . S
C219 C220 1.369 . S
C219 C221 1.419 . S
C219 H223 0.930 . S
C220 C219 1.369 . S
C220 C229 1.429 1_556 S
C221 C219 1.419 . S
C221 C222 1.363 1_556 S
C221 H224 0.929 . S
C222 C221 1.363 1_554 S
C222 C228 1.428 . S
H223 C219 0.930 . S
H224 C221 0.929 . S
S225 N226 1.613 . S
S225 N227 1.610 . S
N226 S225 1.613 . S
N226 C229 1.350 . S
N227 S225 1.610 . S
N227 C228 1.351 . S
C228 C222 1.428 . S
C228 N227 1.351 . S
C228 C229 1.434 . S
C229 C220 1.429 1_554 S
C229 N226 1.350 . S
C229 C228 1.434 . S
C230 C231 1.369 1_554 S
C230 C232 1.419 . S
C230 H234 0.930 . S
C231 C230 1.369 1_556 S
C231 C240 1.429 . S
C232 C230 1.419 . S
C232 C233 1.363 . S
C232 H235 0.929 . S
C233 C232 1.363 . S
C233 C239 1.428 1_554 S
H234 C230 0.930 . S
H235 C232 0.929 . S
S236 N237 1.613 1_455 S
S236 N238 1.610 . S
N237 S236 1.613 1_655 S
N237 C240 1.350 . S
N238 S236 1.610 . S
N238 C239 1.351 1_455 S
C239 C233 1.428 1_556 S
C239 N238 1.351 1_655 S
C239 C240 1.434 . S
C240 C231 1.429 . S
C240 N237 1.350 . S
C240 C239 1.434 . S
C241 C242 1.369 1_554 S
C241 C243 1.419 . S
C241 H245 0.930 . S
C242 C241 1.369 1_556 S
C242 C251 1.429 . S
C243 C241 1.419 . S
C243 C244 1.363 . S
C243 H246 0.929 . S
C244 C243 1.363 . S
C244 C250 1.428 1_554 S
H245 C241 0.930 . S
H246 C243 0.929 . S
S247 N248 1.613 1_545 S
S247 N249 1.610 . S
N248 S247 1.613 1_565 S
N248 C251 1.350 . S
N249 S247 1.610 . S
N249 C250 1.351 1_545 S
C250 C244 1.428 1_556 S
C250 N249 1.351 1_565 S
C250 C251 1.434 . S
C251 C242 1.429 . S
C251 N248 1.350 . S
C251 C250 1.434 . S
C252 C253 1.369 . S
C252 C254 1.419 . S
C252 H256 0.930 . S
C253 C252 1.369 . S
C253 C262 1.429 . S
C254 C252 1.419 . S
C254 C255 1.363 . S
C254 H257 0.929 . S
C255 C254 1.363 . S
C255 C261 1.428 . S
H256 C252 0.930 . S
H257 C254 0.929 . S
S258 N259 1.613 . S
S258 N260 1.610 . S
N259 S258 1.613 . S
N259 C262 1.350 . S
N260 S258 1.610 . S
N260 C261 1.351 . S
C261 C255 1.428 . S
C261 N260 1.351 . S
C261 C262 1.434 . S
C262 C253 1.429 . S
C262 N259 1.350 . S
C262 C261 1.434 . S
C263 C264 1.369 . S
C263 C265 1.419 . S
C263 H267 0.930 . S
C264 C263 1.369 . S
C264 C273 1.429 . S
C265 C263 1.419 . S
C265 C266 1.363 . S
C265 H268 0.929 . S
C266 C265 1.363 . S
C266 C272 1.428 . S
H267 C263 0.930 . S
H268 C265 0.929 . S
S269 N270 1.613 . S
S269 N271 1.610 . S
N270 S269 1.613 . S
N270 C273 1.350 . S
N271 S269 1.610 . S
N271 C272 1.351 . S
C272 C266 1.428 . S
C272 N271 1.351 . S
C272 C273 1.434 . S
C273 C264 1.429 . S
C273 N270 1.350 . S
C273 C272 1.434 . S
C274 C275 1.369 . S
C274 C276 1.419 . S
C274 H278 0.930 . S
C275 C274 1.369 . S
C275 C284 1.429 . S
C276 C274 1.419 . S
C276 C277 1.363 . S
C276 H279 0.929 . S
C277 C276 1.363 . S
C277 C283 1.428 . S
H278 C274 0.930 . S
H279 C276 0.929 . S
S280 N281 1.613 . S
S280 N282 1.610 . S
N281 S280 1.613 . S
N281 C284 1.350 . S
N282 S280 1.610 . S
N282 C283 1.351 . S
C283 C277 1.428 . S
C283 N282 1.351 . S
C283 C284 1.434 . S
C284 C275 1.429 . S
C284 N281 1.350 . S
C284 C283 1.434 . S
C285 C286 1.369 . S
C285 C287 1.419 . S
C285 H289 0.930 . S
C286 C285 1.369 . S
C286 C295 1.429 . S
C287 C285 1.419 . S
C287 C288 1.363 . S
C287 H290 0.929 . S
C288 C287 1.363 . S
C288 C294 1.428 . S
H289 C285 0.930 . S
H290 C287 0.929 . S
S291 N292 1.613 . S
S291 N293 1.610 . S
N292 S291 1.613 . S
N292 C295 1.350 . S
N293 S291 1.610 . S
N293 C294 1.351 . S
C294 C288 1.428 . S
C294 N293 1.351 . S
C294 C295 1.434 . S
C295 C286 1.429 . S
C295 N292 1.350 . S
C295 C294 1.434 . S
C296 C297 1.369 . S
C296 C298 1.419 . S
C296 H300 0.930 . S
C297 C296 1.369 . S
C297 C306 1.429 1_556 S
C298 C296 1.419 . S
C298 C299 1.363 1_556 S
C298 H301 0.929 . S
C299 C298 1.363 1_554 S
C299 C305 1.428 . S
H300 C296 0.930 . S
H301 C298 0.929 . S
S302 N303 1.613 . S
S302 N304 1.610 . S
N303 S302 1.613 . S
N303 C306 1.350 . S
N304 S302 1.610 . S
N304 C305 1.351 . S
C305 C299 1.428 . S
C305 N304 1.351 . S
C305 C306 1.434 . S
C306 C297 1.429 1_554 S
C306 N303 1.350 . S
C306 C305 1.434 . S
C307 C308 1.369 1_554 S
C307 C309 1.419 . S
C307 H311 0.930 . S
C308 C307 1.369 1_556 S
C308 C317 1.429 . S
C309 C307 1.419 . S
C309 C310 1.363 . S
C309 H312 0.929 . S
C310 C309 1.363 . S
C310 C316 1.428 1_554 S
H311 C307 0.930 . S
H312 C309 0.929 . S
S313 N314 1.613 . S
S313 N315 1.610 . S
N314 S313 1.613 . S
N314 C317 1.350 . S
N315 S313 1.610 . S
N315 C316 1.351 . S
C316 C310 1.428 1_556 S
C316 N315 1.351 . S
C316 C317 1.434 . S
C317 C308 1.429 . S
C317 N314 1.350 . S
C317 C316 1.434 . S
C318 C319 1.369 1_554 S
C318 C320 1.419 . S
C318 H322 0.930 . S
C319 C318 1.369 1_556 S
C319 C328 1.429 . S
C320 C318 1.419 . S
C320 C321 1.363 . S
C320 H323 0.929 . S
C321 C320 1.363 . S
C321 C327 1.428 1_554 S
H322 C318 0.930 . S
H323 C320 0.929 . S
S324 N325 1.613 . S
S324 N326 1.610 1_655 S
N325 S324 1.613 . S
N325 C328 1.350 1_655 S
N326 S324 1.610 1_455 S
N326 C327 1.351 . S
C327 C321 1.428 1_556 S
C327 N326 1.351 . S
C327 C328 1.434 . S
C328 C319 1.429 . S
C328 N325 1.350 1_455 S
C328 C327 1.434 . S
C329 C330 1.369 1_556 S
C329 C331 1.419 . S
C329 H333 0.930 . S
C330 C329 1.369 1_554 S
C330 C339 1.429 . S
C331 C329 1.419 . S
C331 C332 1.363 . S
C331 H334 0.929 . S
C332 C331 1.363 . S
C332 C338 1.428 1_556 S
H333 C329 0.930 . S
H334 C331 0.929 . S
S335 N336 1.613 . S
S335 N337 1.610 . S
N336 S335 1.613 . S
N336 C339 1.350 . S
N337 S335 1.610 . S
N337 C338 1.351 . S
C338 C332 1.428 1_554 S
C338 N337 1.351 . S
C338 C339 1.434 . S
C339 C330 1.429 . S
C339 N336 1.350 . S
C339 C338 1.434 . S
C340 C341 1.369 . S
C340 C342 1.419 . S
C340 H344 0.930 . S
C341 C340 1.369 . S
C341 C350 1.429 . S
C342 C340 1.419 . S
C342 C343 1.363 . S
C342 H345 0.929 . S
C343 C342 1.363 . S
C343 C349 1.428 . S
H344 C340 0.930 . S
H345 C342 0.929 . S
S346 N347 1.613 . S
S346 N348 1.610 . S
N347 S346 1.613 . S
N347 C350 1.350 . S
N348 S346 1.610 . S
N348 C349 1.351 . S
C349 C343 1.428 . S
C349 N348 1.351 . S
C349 C350 1.434 . S
C350 C341 1.429 . S
C350 N347 1.350 . S
C350 C349 1.434 . S
C351 C352 1.369 . S
C351 C353 1.419 . S
C351 H355 0.930 . S
C352 C351 1.369 . S
C352 C361 1.429 . S
C353 C351 1.419 . S
C353 C354 1.363 . S
C353 H356 0.929 . S
C354 C353 1.363 . S
C354 C360 1.428 . S
H355 C351 0.930 . S
H356 C353 0.929 . S
S357 N358 1.613 . S
S357 N359 1.610 . S
N358 S357 1.613 . S
N358 C361 1.350 . S
N359 S357 1.610 . S
N359 C360 1.351 . S
C360 C354 1.428 . S
C360 N359 1.351 . S
C360 C361 1.434 . S
C361 C352 1.429 . S
C361 N358 1.350 . S
C361 C360 1.434 . S
C362 C363 1.369 . S
C362 C364 1.419 . S
C362 H366 0.930 . S
C363 C362 1.369 . S
C363 C372 1.429 . S
C364 C362 1.419 . S
C364 C365 1.363 . S
C364 H367 0.929 . S
C365 C364 1.363 . S
C365 C371 1.428 . S
H366 C362 0.930 . S
H367 C364 0.929 . S
S368 N369 1.613 . S
S368 N370 1.610 . S
N369 S368 1.613 . S
N369 C372 1.350 . S
N370 S368 1.610 . S
N370 C371 1.351 . S
C371 C365 1.428 . S
C371 N370 1.351 . S
C371 C372 1.434 . S
C372 C363 1.429 . S
C372 N369 1.350 . S
C372 C371 1.434 . S
C373 C374 1.369 . S
C373 C375 1.419 . S
C373 H377 0.930 . S
C374 C373 1.369 . S
C374 C383 1.429 . S
C375 C373 1.419 . S
C375 C376 1.363 . S
C375 H378 0.929 . S
C376 C375 1.363 . S
C376 C382 1.428 . S
H377 C373 0.930 . S
H378 C375 0.929 . S
S379 N380 1.613 . S
S379 N381 1.610 . S
N380 S379 1.613 . S
N380 C383 1.350 . S
N381 S379 1.610 . S
N381 C382 1.351 . S
C382 C376 1.428 . S
C382 N381 1.351 . S
C382 C383 1.434 . S
C383 C374 1.429 . S
C383 N380 1.350 . S
C383 C382 1.434 . S
C384 C385 1.369 1_554 S
C384 C386 1.419 1_565 S
C384 H388 0.930 . S
C385 C384 1.369 1_556 S
C385 C394 1.429 . S
C386 C384 1.419 1_545 S
C386 C387 1.363 . S
C386 H389 0.929 . S
C387 C386 1.363 . S
C387 C393 1.428 1_554 S
H388 C384 0.930 . S
H389 C386 0.929 . S
S390 N391 1.613 1_545 S
S390 N392 1.610 . S
N391 S390 1.613 1_565 S
N391 C394 1.350 . S
N392 S390 1.610 . S
N392 C393 1.351 . S
C393 C387 1.428 1_556 S
C393 N392 1.351 . S
C393 C394 1.434 1_545 S
C394 C385 1.429 . S
C394 N391 1.350 . S
C394 C393 1.434 1_565 S
C395 C396 1.369 . S
C395 C397 1.419 . S
C395 H399 0.930 . S
C396 C395 1.369 . S
C396 C405 1.429 1_554 S
C397 C395 1.419 . S
C397 C398 1.363 1_554 S
C397 H400 0.929 . S
C398 C397 1.363 1_556 S
C398 C404 1.428 . S
H399 C395 0.930 . S
H400 C397 0.929 . S
S401 N402 1.613 . S
S401 N403 1.610 . S
N402 S401 1.613 . S
N402 C405 1.350 . S
N403 S401 1.610 . S
N403 C404 1.351 . S
C404 C398 1.428 . S
C404 N403 1.351 . S
C404 C405 1.434 . S
C405 C396 1.429 1_556 S
C405 N402 1.350 . S
C405 C404 1.434 . S
C406 C407 1.369 1_455 S
C406 C408 1.419 1_556 S
C406 H410 0.930 . S
C407 C406 1.369 1_655 S
C407 C416 1.429 . S
C408 C406 1.419 1_554 S
C408 C409 1.363 . S
C408 H411 0.929 . S
C409 C408 1.363 . S
C409 C415 1.428 1_455 S
H410 C406 0.930 . S
H411 C408 0.929 . S
S412 N413 1.613 . S
S412 N414 1.610 1_556 S
N413 S412 1.613 . S
N413 C416 1.350 . S
N414 S412 1.610 1_554 S
N414 C415 1.351 . S
C415 C409 1.428 1_655 S
C415 N414 1.351 . S
C415 C416 1.434 1_554 S
C416 C407 1.429 . S
C416 N413 1.350 . S
C416 C415 1.434 1_556 S
C417 C418 1.369 . S
C417 C419 1.419 1_454 S
C417 H421 0.930 . S
C418 C417 1.369 . S
C418 C427 1.429 1_545 S
C419 C417 1.419 1_656 S
C419 C420 1.363 1_545 S
C419 H422 0.929 . S
C420 C419 1.363 1_565 S
C420 C426 1.428 . S
H421 C417 0.930 . S
H422 C419 0.929 . S
S423 N424 1.613 1_556 S
S423 N425 1.610 1_455 S
N424 S423 1.613 1_554 S
N424 C427 1.350 . S
N425 S423 1.610 1_655 S
N425 C426 1.351 . S
C426 C420 1.428 . S
C426 N425 1.351 . S
C426 C427 1.434 1_656 S
C427 C418 1.429 1_565 S
C427 N424 1.350 . S
C427 C426 1.434 1_454 S
C428 C429 1.369 . S
C428 C430 1.419 . S
C428 H432 0.930 . S
C429 C428 1.369 . S
C429 C438 1.429 . S
C430 C428 1.419 . S
C430 C431 1.363 . S
C430 H433 0.929 . S
C431 C430 1.363 . S
C431 C437 1.428 . S
H432 C428 0.930 . S
H433 C430 0.929 . S
S434 N435 1.613 . S
S434 N436 1.610 . S
N435 S434 1.613 . S
N435 C438 1.350 . S
N436 S434 1.610 . S
N436 C437 1.351 . S
C437 C431 1.428 . S
C437 N436 1.351 . S
C437 C438 1.434 . S
C438 C429 1.429 . S
C438 N435 1.350 . S
C438 C437 1.434 . S
C439 C440 1.369 . S
C439 C441 1.419 1_455 S
C439 H443 0.930 . S
C440 C439 1.369 . S
C440 C449 1.429 . S
C441 C439 1.419 1_655 S
C441 C442 1.363 . S
C441 H444 0.929 . S
C442 C441 1.363 . S
C442 C448 1.428 . S
H443 C439 0.930 . S
H444 C441 0.929 . S
S445 N446 1.613 . S
S445 N447 1.610 1_455 S
N446 S445 1.613 . S
N446 C449 1.350 . S
N447 S445 1.610 1_655 S
N447 C448 1.351 . S
C448 C442 1.428 . S
C448 N447 1.351 . S
C448 C449 1.434 1_655 S
C449 C440 1.429 . S
C449 N446 1.350 . S
C449 C448 1.434 1_455 S
C450 C451 1.369 . S
C450 C452 1.419 1_665 S
C450 H454 0.930 . S
C451 C450 1.369 . S
C451 C460 1.429 . S
C452 C450 1.419 1_445 S
C452 C453 1.363 . S
C452 H455 0.929 . S
C453 C452 1.363 . S
C453 C459 1.428 . S
H454 C450 0.930 . S
H455 C452 0.929 . S
S456 N457 1.613 1_455 S
S456 N458 1.610 1_565 S
N457 S456 1.613 1_655 S
N457 C460 1.350 . S
N458 S456 1.610 1_545 S
N458 C459 1.351 . S
C459 C453 1.428 . S
C459 N458 1.351 . S
C459 C460 1.434 1_445 S
C460 C451 1.429 . S
C460 N457 1.350 . S
C460 C459 1.434 1_665 S
C461 C462 1.369 1_545 S
C461 C463 1.419 . S
C461 H465 0.930 . S
C462 C461 1.369 1_565 S
C462 C471 1.429 . S
C463 C461 1.419 . S
C463 C464 1.363 . S
C463 H466 0.929 . S
C464 C463 1.363 . S
C464 C470 1.428 1_545 S
H465 C461 0.930 . S
H466 C463 0.929 . S
S467 N468 1.613 . S
S467 N469 1.610 . S
N468 S467 1.613 . S
N468 C471 1.350 . S
N469 S467 1.610 . S
N469 C470 1.351 . S
C470 C464 1.428 1_565 S
C470 N469 1.351 . S
C470 C471 1.434 . S
C471 C462 1.429 . S
C471 N468 1.350 . S
C471 C470 1.434 . S
C472 C473 1.369 . S
C472 C474 1.419 . S
C472 H476 0.930 . S
C473 C472 1.369 . S
C473 C482 1.429 . S
C474 C472 1.419 . S
C474 C475 1.363 . S
C474 H477 0.929 . S
C475 C474 1.363 . S
C475 C481 1.428 . S
H476 C472 0.930 . S
H477 C474 0.929 . S
S478 N479 1.613 . S
S478 N480 1.610 . S
N479 S478 1.613 . S
N479 C482 1.350 . S
N480 S478 1.610 . S
N480 C481 1.351 . S
C481 C475 1.428 . S
C481 N480 1.351 . S
C481 C482 1.434 . S
C482 C473 1.429 . S
C482 N479 1.350 . S
C482 C481 1.434 . S
C483 C484 1.369 . S
C483 C485 1.419 . S
C483 H487 0.930 . S
C484 C483 1.369 . S
C484 C493 1.429 . S
C485 C483 1.419 . S
C485 C486 1.363 . S
C485 H488 0.929 . S
C486 C485 1.363 . S
C486 C492 1.428 . S
H487 C483 0.930 . S
H488 C485 0.929 . S
S489 N490 1.613 . S
S489 N491 1.610 . S
N490 S489 1.613 . S
N490 C493 1.350 . S
N491 S489 1.610 . S
N491 C492 1.351 . S
C492 C486 1.428 . S
C492 N491 1.351 . S
C492 C493 1.434 . S
C493 C484 1.429 . S
C493 N490 1.350 . S
C493 C492 1.434 . S
C494 C495 1.369 1_655 S
C494 C496 1.419 . S
C494 H498 0.930 . S
C495 C494 1.369 1_455 S
C495 C504 1.429 . S
C496 C494 1.419 . S
C496 C497 1.363 1_655 S
C496 H499 0.929 . S
C497 C496 1.363 1_455 S
C497 C503 1.428 . S
H498 C494 0.930 . S
H499 C496 0.929 . S
S500 N501 1.613 . S
S500 N502 1.610 . S
N501 S500 1.613 . S
N501 C504 1.350 . S
N502 S500 1.610 . S
N502 C503 1.351 . S
C503 C497 1.428 . S
C503 N502 1.351 . S
C503 C504 1.434 . S
C504 C495 1.429 . S
C504 N501 1.350 . S
C504 C503 1.434 . S
C505 C506 1.369 1_565 S
C505 C507 1.419 . S
C505 H509 0.930 . S
C506 C505 1.369 1_545 S
C506 C515 1.429 . S
C507 C505 1.419 . S
C507 C508 1.363 1_565 S
C507 H510 0.929 . S
C508 C507 1.363 1_545 S
C508 C514 1.428 . S
H509 C505 0.930 . S
H510 C507 0.929 . S
S511 N512 1.613 . S
S511 N513 1.610 . S
N512 S511 1.613 . S
N512 C515 1.350 . S
N513 S511 1.610 . S
N513 C514 1.351 . S
C514 C508 1.428 . S
C514 N513 1.351 . S
C514 C515 1.434 . S
C515 C506 1.429 . S
C515 N512 1.350 . S
C515 C514 1.434 . S
C516 C517 1.369 . S
C516 C518 1.419 . S
C516 H520 0.930 . S
C517 C516 1.369 . S
C517 C526 1.429 . S
C518 C516 1.419 . S
C518 C519 1.363 . S
C518 H521 0.929 . S
C519 C518 1.363 . S
C519 C525 1.428 . S
H520 C516 0.930 . S
H521 C518 0.929 . S
S522 N523 1.613 . S
S522 N524 1.610 . S
N523 S522 1.613 . S
N523 C526 1.350 . S
N524 S522 1.610 . S
N524 C525 1.351 . S
C525 C519 1.428 . S
C525 N524 1.351 . S
C525 C526 1.434 . S
C526 C517 1.429 . S
C526 N523 1.350 . S
C526 C525 1.434 . S
C527 C528 1.369 . S
C527 C529 1.419 . S
C527 H531 0.930 . S
C528 C527 1.369 . S
C528 C537 1.429 . S
C529 C527 1.419 . S
C529 C530 1.363 . S
C529 H532 0.929 . S
C530 C529 1.363 . S
C530 C536 1.428 . S
H531 C527 0.930 . S
H532 C529 0.929 . S
S533 N534 1.613 . S
S533 N535 1.610 . S
N534 S533 1.613 . S
N534 C537 1.350 . S
N535 S533 1.610 . S
N535 C536 1.351 . S
C536 C530 1.428 . S
C536 N535 1.351 . S
C536 C537 1.434 . S
C537 C528 1.429 . S
C537 N534 1.350 . S
C537 C536 1.434 . S
C538 C539 1.369 . S
C538 C540 1.419 . S
C538 H542 0.930 . S
C539 C538 1.369 . S
C539 C548 1.429 1_655 S
C540 C538 1.419 . S
C540 C541 1.363 . S
C540 H543 0.929 . S
C541 C540 1.363 . S
C541 C547 1.428 1_655 S
H542 C538 0.930 . S
H543 C540 0.929 . S
S544 N545 1.613 . S
S544 N546 1.610 . S
N545 S544 1.613 . S
N545 C548 1.350 . S
N546 S544 1.610 . S
N546 C547 1.351 . S
C547 C541 1.428 1_455 S
C547 N546 1.351 . S
C547 C548 1.434 . S
C548 C539 1.429 1_455 S
C548 N545 1.350 . S
C548 C547 1.434 . S
C549 C550 1.368 1_545 S
C549 C551 1.418 . S
C549 H553 0.931 . S
C550 C549 1.368 1_565 S
C550 C559 1.429 . S
C551 C549 1.418 . S
C551 C552 1.363 1_545 S
C551 H554 0.929 . S
C552 C551 1.363 1_565 S
C552 C558 1.428 . S
H553 C549 0.931 . S
H554 C551 0.929 . S
S555 N556 1.613 . S
S555 N557 1.610 . S
N556 S555 1.613 . S
N556 C559 1.350 . S
N557 S555 1.610 . S
N557 C558 1.351 . S
C558 C552 1.428 . S
C558 N557 1.351 . S
C558 C559 1.434 . S
C559 C550 1.429 . S
C559 N556 1.350 . S
C559 C558 1.434 . S
C209 C5 1.314 . S
C211 C127 1.370 . S
C220 C140 1.371 . S
C222 C18 1.309 . S
C231 C147 1.368 . S
C233 C31 1.317 . S
C242 C114 1.367 . S
C244 C42 1.317 . S
C253 C57 1.315 . S
C255 C205 1.369 . S
C264 C160 1.370 . S
C266 C70 1.312 . S
C275 C173 1.368 . S
C277 C81 1.311 . S
C286 C186 1.371 . S
C288 C96 1.310 . S
C297 C109 1.310 . S
C299 C23 1.369 . S
C308 C122 1.315 . S
C310 C36 1.369 . S
C319 C135 1.315 . S
C321 C43 1.369 . S
C330 C10 1.366 . S
C332 C146 1.315 . S
C341 C159 1.307 . S
C343 C101 1.370 . S
C352 C172 1.307 . S
C354 C62 1.371 . S
C363 C75 1.371 . S
C365 C185 1.310 . S
C374 C200 1.307 . S
C376 C82 1.371 . S
C385 C108 1.759 . S
C387 C4 1.760 . S
C396 C17 1.765 . S
C398 C121 1.754 . S
C407 C134 1.765 . S
C409 C30 1.754 . S
C418 C49 1.753 . S
C420 C153 1.763 . S
C429 C166 1.764 . S
C431 C56 1.755 . S
C440 C69 1.753 . S
C442 C179 1.764 . S
C451 C192 1.756 . S
C453 C88 1.761 . S
C462 C199 1.765 . S
C464 C95 1.754 . S
C473 C55 1.708 . S
C475 C3 1.707 . S
C484 C68 1.710 . S
C486 C16 1.710 . S
C495 C29 1.708 1_455 S
C497 C83 1.710 1_455 S
C506 C94 1.708 1_545 S
C508 C44 1.710 1_545 S
C517 C107 1.710 . S
C519 C161 1.708 . S
C528 C174 1.706 . S
C530 C120 1.707 . S
C539 C187 1.706 1_655 S
C541 C133 1.706 1_655 S
C550 C198 1.708 1_565 S
C552 C148 1.710 1_565 S
