# Generated by pormake.
# Topology snl, (6)-cn, num edge types: 1
# Building blocks:
#     Node 0, Type 0, BuildingBlock: BETFAJ_clean_sbu_0, # of connection points: 6
#     Node 1, Type 0, BuildingBlock: BETFAJ_clean_sbu_0, # of connection points: 6
#     Node 2, Type 0, BuildingBlock: BETFAJ_clean_sbu_0, # of connection points: 6
#     Node 3, Type 0, BuildingBlock: BETFAJ_clean_sbu_0, # of connection points: 6
#     Node 4, Type 0, BuildingBlock: BETFAJ_clean_sbu_0, # of connection points: 6
#     Node 5, Type 0, BuildingBlock: BETFAJ_clean_sbu_0, # of connection points: 6
#     Node 6, Type 0, BuildingBlock: BETFAJ_clean_sbu_0, # of connection points: 6
#     Node 7, Type 0, BuildingBlock: BETFAJ_clean_sbu_0, # of connection points: 6
#     Node 8, Type 0, BuildingBlock: BETFAJ_clean_sbu_0, # of connection points: 6
#     Node 9, Type 0, BuildingBlock: BETFAJ_clean_sbu_0, # of connection points: 6
#     Node 10, Type 0, BuildingBlock: BETFAJ_clean_sbu_0, # of connection points: 6
#     Node 11, Type 0, BuildingBlock: BETFAJ_clean_sbu_0, # of connection points: 6
#     Node 12, Type 0, BuildingBlock: BETFAJ_clean_sbu_0, # of connection points: 6
#     Node 13, Type 0, BuildingBlock: BETFAJ_clean_sbu_0, # of connection points: 6
#     Node 14, Type 0, BuildingBlock: BETFAJ_clean_sbu_0, # of connection points: 6
#     Node 15, Type 0, BuildingBlock: BETFAJ_clean_sbu_0, # of connection points: 6
#     Edge 16, Type (0, 0), None
#     Edge 17, Type (0, 0), None
#     Edge 18, Type (0, 0), None
#     Edge 19, Type (0, 0), None
#     Edge 20, Type (0, 0), None
#     Edge 21, Type (0, 0), None
#     Edge 22, Type (0, 0), None
#     Edge 23, Type (0, 0), None
#     Edge 24, Type (0, 0), None
#     Edge 25, Type (0, 0), None
#     Edge 26, Type (0, 0), None
#     Edge 27, Type (0, 0), None
#     Edge 28, Type (0, 0), None
#     Edge 29, Type (0, 0), None
#     Edge 30, Type (0, 0), None
#     Edge 31, Type (0, 0), None
#     Edge 32, Type (0, 0), None
#     Edge 33, Type (0, 0), None
#     Edge 34, Type (0, 0), None
#     Edge 35, Type (0, 0), None
#     Edge 36, Type (0, 0), None
#     Edge 37, Type (0, 0), None
#     Edge 38, Type (0, 0), None
#     Edge 39, Type (0, 0), None
#     Edge 40, Type (0, 0), None
#     Edge 41, Type (0, 0), None
#     Edge 42, Type (0, 0), None
#     Edge 43, Type (0, 0), None
#     Edge 44, Type (0, 0), None
#     Edge 45, Type (0, 0), None
#     Edge 46, Type (0, 0), None
#     Edge 47, Type (0, 0), None
#     Edge 48, Type (0, 0), None
#     Edge 49, Type (0, 0), None
#     Edge 50, Type (0, 0), None
#     Edge 51, Type (0, 0), None
#     Edge 52, Type (0, 0), None
#     Edge 53, Type (0, 0), None
#     Edge 54, Type (0, 0), None
#     Edge 55, Type (0, 0), None
#     Edge 56, Type (0, 0), None
#     Edge 57, Type (0, 0), None
#     Edge 58, Type (0, 0), None
#     Edge 59, Type (0, 0), None
#     Edge 60, Type (0, 0), None
#     Edge 61, Type (0, 0), None
#     Edge 62, Type (0, 0), None
#     Edge 63, Type (0, 0), None
# Relax obj value: 0.231
# Max RMSD: 0.312
# Mean RMSD: 0.301
data_MOF--net-snl--node1-BETFAJ_clean_sbu_0--edge1-none
_symmetry_space_group_name_H-M    P1
_symmetry_Int_Tables_number       1
_symmetry_cell_setting            triclinic
loop_
_symmetry_equiv_pos_as_xyz
'x, y, z'
_cell_length_a     24.643446
_cell_length_b     24.353755
_cell_length_c     15.852392
_cell_angle_alpha  99.558286
_cell_angle_beta   90.922836
_cell_angle_gamma 90.35951
loop_
_atom_site_label
_atom_site_type_symbol
_atom_site_fract_x
_atom_site_fract_y
_atom_site_fract_z
_atom_type_partial_charge
Sm0 Sm 0.16564 0.65925 0.16409 0.0
Sm1 Sm 0.1145 0.60813 0.26918 0.0
C2 C 0.21283 0.68361 1.02504 0.0
C3 C 0.20695 0.66485 0.93225 0.0
C4 C 0.19022 0.61047 0.89831 0.0
C5 C 0.17762 0.59619 0.81108 0.0
C6 C 0.17975 0.63652 0.75685 0.0
C7 C 0.20074 0.6896 0.79048 0.0
C8 C 0.21448 0.70317 0.87706 0.0
C9 C 0.12751 0.7438 0.28113 0.0
C10 C 0.0303 0.63206 0.13726 0.0
C11 C 0.07705 0.60032 0.42129 0.0
C12 C 0.10449 0.60891 0.50559 0.0
C13 C 0.14901 0.64537 0.52328 0.0
C14 C 0.17499 0.65273 0.60337 0.0
C15 C 0.15596 0.62497 0.66849 0.0
C16 C 0.11072 0.58913 0.65019 0.0
C17 C 0.08592 0.58105 0.5694 0.0
C18 C 0.13193 0.53203 0.12053 0.0
C19 C 0.23337 0.64142 0.33666 0.0
O20 O 0.23204 0.64771 0.06998 0.0
O21 O 0.17206 0.71117 1.06166 0.0
O22 O 0.1013 0.69981 0.24878 0.0
O23 O 0.17901 0.73528 0.26859 0.0
O24 O 0.07213 0.66291 0.11899 0.0
O25 O 0.03909 0.59648 0.18856 0.0
O26 O 0.07169 0.64504 0.38634 0.0
O27 O 0.09162 0.55681 0.36681 0.0
O28 O 0.16734 0.56639 0.15838 0.0
O29 O 0.08808 0.53447 0.16562 0.0
O30 O 0.19778 0.60142 0.33318 0.0
O31 O 0.23022 0.67374 0.27759 0.0
H32 H 0.1856 0.57953 0.93938 0.0
H33 H 0.16489 0.55396 0.7867 0.0
H34 H 0.20413 0.72191 0.75155 0.0
H35 H 0.22983 0.74434 0.90157 0.0
H36 H 0.16325 0.6688 0.47564 0.0
H37 H 0.20946 0.68073 0.61397 0.0
H38 H 0.09313 0.56848 0.6987 0.0
H39 H 0.05167 0.55365 0.55667 0.0
Sm40 Sm 0.66391 0.87187 0.4784 0.0
Sm41 Sm 0.61043 0.92 0.36943 0.0
C42 C 0.70569 0.85252 0.62544 0.0
C43 C 0.68556 0.85838 0.71264 0.0
C44 C 0.72121 0.87609 0.78117 0.0
C45 C 0.70258 0.88444 0.86462 0.0
C46 C 0.64716 0.87758 0.88103 0.0
C47 C 0.61124 0.86076 0.81139 0.0
C48 C 0.63036 0.85097 0.72797 0.0
C49 C 0.63171 0.78545 0.35939 0.0
C50 C 0.52953 0.89562 0.50072 0.0
C51 C 0.56503 0.93324 0.22352 0.0
C52 C 0.58535 0.91978 0.13579 0.0
C53 C 0.5601 0.87774 0.07673 0.0
C54 C 0.5806 0.86314 0.99458 0.0
C55 C 0.6266 0.89067 0.96968 0.0
C56 C 0.65232 0.9319 1.02999 0.0
C57 C 0.6322 0.94597 0.11206 0.0
C58 C 0.6339 0.99926 0.51376 0.0
C59 C 0.72997 0.8872 0.30566 0.0
O60 O 0.71279 0.89915 0.59687 0.0
O61 O 0.68308 0.81401 0.56882 0.0
O62 O 0.60193 0.82706 0.38887 0.0
O63 O 0.68263 0.79766 0.37649 0.0
O64 O 0.57007 0.86186 0.51306 0.0
O65 O 0.54024 0.93497 0.45762 0.0
O66 O 0.55414 0.89037 0.26066 0.0
O67 O 0.58995 0.97368 0.2744 0.0
O68 O 0.66724 0.96379 0.47647 0.0
O69 O 0.58866 0.99539 0.47013 0.0
O70 O 0.68939 0.9195 0.29588 0.0
O71 O 0.73213 0.86282 0.37436 0.0
H72 H 0.76326 0.88489 0.7701 0.0
H73 H 0.73184 0.89701 0.91579 0.0
H74 H 0.56808 0.8567 0.8206 0.0
H75 H 0.60179 0.83891 0.67543 0.0
H76 H 0.5246 0.85599 0.0943 0.0
H77 H 0.56058 0.8299 0.95118 0.0
H78 H 0.68755 0.95448 1.01394 0.0
H79 H 0.6536 0.97747 0.15678 0.0
Sm80 Sm 0.38154 0.43226 0.76476 0.0
Sm81 Sm 0.34847 0.36287 0.61686 0.0
C82 C 0.40377 0.47075 0.9271 0.0
C83 C 0.3971 0.44285 1.00205 0.0
C84 C 0.35317 0.4066 1.00631 0.0
C85 C 0.34871 0.3777 0.07503 0.0
C86 C 0.38754 0.38507 0.14213 0.0
C87 C 0.43298 0.41939 0.135 0.0
C88 C 0.43751 0.44784 1.06579 0.0
C89 C 0.46703 0.41829 0.65477 0.0
C90 C 0.38019 0.2959 0.75535 0.0
C91 C 0.33189 0.31039 0.45737 0.0
C92 C 0.35075 0.32441 0.37583 0.0
C93 C 0.3854 0.3703 0.37665 0.0
C94 C 0.3982 0.38901 0.30101 0.0
C95 C 0.37856 0.36076 0.22159 0.0
C96 C 0.34746 0.31165 0.22061 0.0
C97 C 0.33341 0.29391 0.29725 0.0
C98 C 0.26848 0.38176 0.74463 0.0
C99 C 0.35758 0.49435 0.60236 0.0
O100 O 0.3593 0.48336 0.88847 0.0
O101 O 0.44042 0.44884 0.87371 0.0
O102 O 0.43619 0.37891 0.66924 0.0
O103 O 0.44818 0.46574 0.69091 0.0
O104 O 0.3666 0.34338 0.80282 0.0
O105 O 0.39033 0.29615 0.67521 0.0
O106 O 0.37003 0.29728 0.50802 0.0
O107 O 0.29714 0.3448 0.49831 0.0
O108 O 0.29701 0.41793 0.71777 0.0
O109 O 0.27851 0.33333 0.69986 0.0
O110 O 0.36015 0.44334 0.56121 0.0
O111 O 0.3589 0.50348 0.68749 0.0
H112 H 0.32232 0.40037 0.95626 0.0
H113 H 0.31415 0.35045 0.07585 0.0
H114 H 0.46532 0.42455 0.18269 0.0
H115 H 0.47276 0.47357 1.06183 0.0
H116 H 0.40194 0.39262 0.43603 0.0
H117 H 0.42187 0.427 0.306 0.0
H118 H 0.33303 0.28729 0.16105 0.0
H119 H 0.30814 0.25717 0.29517 0.0
Sm120 Sm 0.87348 0.09662 0.88012 0.0
Sm121 Sm 0.85298 0.17243 1.03123 0.0
C122 C 0.88049 0.05406 0.71734 0.0
C123 C 0.87723 0.08405 0.64374 0.0
C124 C 0.83936 0.0674 0.57739 0.0
C125 C 0.83624 0.09579 0.50774 0.0
C126 C 0.87009 0.14189 0.50441 0.0
C127 C 0.90622 0.16027 0.57231 0.0
C128 C 0.90967 0.13169 0.64163 0.0
C129 C 0.96445 0.10804 0.98446 0.0
C130 C 0.88287 0.23279 0.88251 0.0
C131 C 0.84728 0.22729 0.1903 0.0
C132 C 0.8592 0.20992 0.27316 0.0
C133 C 0.88624 0.15961 0.27541 0.0
C134 C 0.89076 0.13829 0.35143 0.0
C135 C 0.87004 0.16796 0.42711 0.0
C136 C 0.8473 0.22067 0.4269 0.0
C137 C 0.84141 0.24137 0.3498 0.0
C138 C 0.76756 0.158 0.90942 0.0
C139 C 0.84925 0.04008 1.04678 0.0
O140 O 0.83563 0.05139 0.75949 0.0
O141 O 0.92315 0.06497 0.76746 0.0
O142 O 0.93538 0.14843 0.96935 0.0
O143 O 0.94169 0.06113 0.95116 0.0
O144 O 0.86538 0.18503 0.83832 0.0
O145 O 0.89529 0.23463 0.96324 0.0
O146 O 0.88905 0.2299 0.14161 0.0
O147 O 0.80536 0.20315 0.14771 0.0
O148 O 0.79438 0.12026 0.93557 0.0
O149 O 0.7814 0.20587 0.9539 0.0
O150 O 0.85795 0.0909 0.08705 0.0
O151 O 0.84673 0.03009 0.96181 0.0
H152 H 0.81271 0.03203 0.57888 0.0
H153 H 0.80768 0.08154 0.45594 0.0
H154 H 0.93263 0.19581 0.57069 0.0
H155 H 0.93828 0.14663 0.69302 0.0
H156 H 0.903 0.13611 0.21816 0.0
H157 H 0.9097 0.09819 0.35098 0.0
H158 H 0.83149 0.24429 0.48517 0.0
H159 H 0.82083 0.28046 0.34949 0.0
Sm160 Sm 0.16279 0.37844 0.98895 0.0
Sm161 Sm 0.11063 0.42734 0.88002 0.0
C162 C 0.20922 0.36174 0.13485 0.0
C163 C 0.19887 0.37764 0.22671 0.0
C164 C 0.18113 0.43106 0.26171 0.0
C165 C 0.16531 0.44243 0.34703 0.0
C166 C 0.16517 0.40042 0.39773 0.0
C167 C 0.18734 0.34866 0.36445 0.0
C168 C 0.20444 0.33768 0.27978 0.0
C169 C 0.1282 0.29147 0.8699 0.0
C170 C 0.02754 0.40078 1.00805 0.0
C171 C 0.06791 0.43871 0.73037 0.0
C172 C 0.09049 0.42614 0.64437 0.0
C173 C 0.13747 0.39406 0.63044 0.0
C174 C 0.16219 0.38632 0.55102 0.0
C175 C 0.13968 0.40957 0.48314 0.0
C176 C 0.09065 0.43898 0.49611 0.0
C177 C 0.06618 0.44677 0.57618 0.0
C178 C 0.13087 0.50492 1.02785 0.0
C179 C 0.22971 0.39349 0.81754 0.0
O180 O 0.22335 0.40161 0.0939 0.0
O181 O 0.17463 0.32702 0.0913 0.0
O182 O 0.1002 0.33447 0.89876 0.0
O183 O 0.17926 0.30171 0.88923 0.0
O184 O 0.06899 0.36922 1.02511 0.0
O185 O 0.03754 0.4393 0.96267 0.0
O186 O 0.059 0.39527 0.76699 0.0
O187 O 0.09108 0.47997 0.78201 0.0
O188 O 0.16524 0.47085 0.99011 0.0
O189 O 0.08578 0.50068 0.98356 0.0
O190 O 0.19302 0.4315 0.81554 0.0
O191 O 0.22822 0.36404 0.88041 0.0
H192 H 0.17866 0.46359 0.22312 0.0
H193 H 0.1529 0.48379 0.37362 0.0
H194 H 0.18965 0.31629 0.40322 0.0
H195 H 0.2208 0.29757 0.25425 0.0
H196 H 0.15496 0.37465 0.68082 0.0
H197 H 0.19901 0.36235 0.54332 0.0
H198 H 0.07089 0.45551 0.4443 0.0
H199 H 0.02853 0.4692 0.58542 0.0
Sm200 Sm 0.88064 0.93371 0.26021 0.0
Sm201 Sm 0.85186 0.86178 0.11123 0.0
C202 C 0.90128 0.97594 0.42185 0.0
C203 C 0.89496 0.95008 0.49873 0.0
C204 C 0.85105 0.91421 0.50482 0.0
C205 C 0.84681 0.88665 0.57482 0.0
C206 C 0.88646 0.89399 0.64073 0.0
C207 C 0.93139 0.92892 0.63279 0.0
C208 C 0.93526 0.95691 0.56284 0.0
C209 C 0.96726 0.92345 0.15296 0.0
C210 C 0.88474 0.79695 0.25229 0.0
C211 C 0.83932 0.80913 0.95148 0.0
C212 C 0.85527 0.82662 0.87086 0.0
C213 C 0.88914 0.87332 0.87313 0.0
C214 C 0.90008 0.89441 0.79865 0.0
C215 C 0.87925 0.86788 0.71897 0.0
C216 C 0.84852 0.81839 0.71644 0.0
C217 C 0.83594 0.79849 0.79189 0.0
C218 C 0.77045 0.87693 0.23579 0.0
C219 C 0.85049 0.99352 0.09734 0.0
O220 O 0.85662 0.98623 0.38164 0.0
O221 O 0.93857 0.95361 0.37001 0.0
O222 O 0.938 0.88292 0.16721 0.0
O223 O 0.94536 0.97013 0.18563 0.0
O224 O 0.86886 0.84414 0.2987 0.0
O225 O 0.89601 0.79751 0.17256 0.0
O226 O 0.8796 0.80027 1.00159 0.0
O227 O 0.80081 0.83792 0.99321 0.0
O228 O 0.79759 0.91443 0.20999 0.0
O229 O 0.78243 0.82897 0.19125 0.0
O230 O 0.85699 0.94302 1.05581 0.0
O231 O 0.85228 1.0026 0.1824 0.0
H232 H 0.82 0.90723 0.45515 0.0
H233 H 0.81188 0.86015 0.57709 0.0
H234 H 0.96391 0.93474 0.68016 0.0
H235 H 0.97002 0.98349 0.55832 0.0
H236 H 0.90646 0.8944 0.93292 0.0
H237 H 0.92333 0.93273 0.80482 0.0
H238 H 0.83234 0.79592 0.65674 0.0
H239 H 0.80992 0.76221 0.78869 0.0
Sm240 Sm 0.38099 0.5961 0.38198 0.0
Sm241 Sm 0.35645 0.67249 0.53406 0.0
C242 C 0.38951 0.54883 0.22073 0.0
C243 C 0.38881 0.57392 0.14198 0.0
C244 C 0.34418 0.56489 0.08501 0.0
C245 C 0.34191 0.59105 1.01298 0.0
C246 C 0.38443 0.62602 0.99643 0.0
C247 C 0.42899 0.63524 1.05285 0.0
C248 C 0.43097 0.60981 0.12552 0.0
C249 C 0.47353 0.6238 0.48191 0.0
C250 C 0.38192 0.7336 0.38265 0.0
C251 C 0.35361 0.72393 0.69429 0.0
C252 C 0.36681 0.7027 0.77392 0.0
C253 C 0.40289 0.65811 0.77394 0.0
C254 C 0.40996 0.63385 0.84736 0.0
C255 C 0.38126 0.65417 0.92149 0.0
C256 C 0.34767 0.70041 0.92289 0.0
C257 C 0.3407 0.72443 0.84948 0.0
C258 C 0.27184 0.65271 0.41213 0.0
C259 C 0.35938 0.54048 0.55089 0.0
O260 O 0.34382 0.54999 0.26166 0.0
O261 O 0.43144 0.56068 0.27203 0.0
O262 O 0.43664 0.65663 0.46606 0.0
O263 O 0.4576 0.57316 0.45299 0.0
O264 O 0.36826 0.68424 0.33792 0.0
O265 O 0.39317 0.73703 0.46425 0.0
O266 O 0.39447 0.72817 0.64435 0.0
O267 O 0.31027 0.70258 0.65226 0.0
O268 O 0.3008 0.61642 0.43879 0.0
O269 O 0.28355 0.70159 0.4557 0.0
O270 O 0.36652 0.59165 0.59059 0.0
O271 O 0.35759 0.52985 0.46601 0.0
H272 H 0.31095 0.53786 0.09644 0.0
H273 H 0.30717 0.58368 0.96973 0.0
H274 H 0.46173 0.66283 1.04144 0.0
H275 H 0.46538 0.61878 0.16908 0.0
H276 H 0.42472 0.64125 0.7169 0.0
H277 H 0.43658 0.59844 0.84566 0.0
H278 H 0.32585 0.71706 0.98015 0.0
H279 H 0.31335 0.75862 0.85076 0.0
Sm280 Sm 0.66228 0.14715 0.65693 0.0
Sm281 Sm 0.61479 0.09332 0.76369 0.0
C282 C 0.69931 0.17082 0.5106 0.0
C283 C 0.67986 0.1552 0.42198 0.0
C284 C 0.63337 0.12177 0.40266 0.0
C285 C 0.61715 0.104 0.31756 0.0
C286 C 0.64756 0.11881 0.25007 0.0
C287 C 0.69253 0.15484 0.27088 0.0
C288 C 0.70853 0.1724 0.3559 0.0
C289 C 0.62984 0.23336 0.77416 0.0
C290 C 0.52447 0.12935 0.64979 0.0
C291 C 0.59529 0.04042 0.89273 0.0
C292 C 0.60944 0.05454 0.98467 0.0
C293 C 0.66313 0.06787 1.01178 0.0
C294 C 0.67532 0.08746 0.09767 0.0
C295 C 0.63396 0.09581 0.15875 0.0
C296 C 0.58031 0.08082 0.13157 0.0
C297 C 0.5685 0.0595 1.04568 0.0
C298 C 0.63303 0.02312 0.60733 0.0
C299 C 0.72523 0.14797 0.83973 0.0
O300 O 0.71729 0.12994 0.54629 0.0
O301 O 0.66813 0.20371 0.56102 0.0
O302 O 0.60179 0.18827 0.75191 0.0
O303 O 0.68022 0.22502 0.75316 0.0
O304 O 0.56778 0.14858 0.61373 0.0
O305 O 0.53192 0.10386 0.71502 0.0
O306 O 0.56022 0.07341 0.86447 0.0
O307 O 0.63564 0.02772 0.84045 0.0
O308 O 0.6678 0.05527 0.65019 0.0
O309 O 0.58762 0.02855 0.6469 0.0
O310 O 0.67572 0.13936 0.86078 0.0
O311 O 0.73499 0.14685 0.7573 0.0
H312 H 0.61012 0.10874 0.45335 0.0
H313 H 0.58152 0.0777 0.30539 0.0
H314 H 0.71553 0.16984 0.22171 0.0
H315 H 0.74319 0.1996 0.37022 0.0
H316 H 0.69598 0.06326 0.96672 0.0
H317 H 0.71749 0.09573 0.11573 0.0
H318 H 0.54706 0.08635 0.17581 0.0
H319 H 0.52715 0.04798 1.02642 0.0
Sm320 Sm 0.8904 0.42024 0.87057 0.0
Sm321 Sm 0.83788 0.37625 0.98121 0.0
C322 C 0.92334 0.46442 0.73976 0.0
C323 C 0.90874 0.44956 0.64819 0.0
C324 C 0.86658 0.47798 0.61377 0.0
C325 C 0.85078 0.46334 0.5284 0.0
C326 C 0.87538 0.41852 0.476 0.0
C327 C 0.91704 0.38942 0.51065 0.0
C328 C 0.93368 0.40491 0.59588 0.0
C329 C 0.88208 0.49701 1.02484 0.0
C330 C 0.77122 0.38158 0.8021 0.0
C331 C 0.80049 0.3536 0.12706 0.0
C332 C 0.82007 0.36922 0.21596 0.0
C333 C 0.87538 0.36578 0.23727 0.0
C334 C 0.89353 0.382 0.32158 0.0
C335 C 0.85663 0.40163 0.38617 0.0
C336 C 0.80144 0.4054 0.36424 0.0
C337 C 0.78371 0.39039 0.2798 0.0
C338 C 0.86485 0.28632 0.86063 0.0
C339 C 0.97239 0.37729 0.98754 0.0
O340 O 0.95221 0.4287 0.77371 0.0
O341 O 0.88413 0.48543 0.78902 0.0
O342 O 0.84313 0.46842 0.986 0.0
O343 O 0.92596 0.48559 0.98208 0.0
O344 O 0.82061 0.38748 0.77752 0.0
O345 O 0.76363 0.3827 0.88523 0.0
O346 O 0.78215 0.39423 0.0909 0.0
O347 O 0.83088 0.31966 0.07638 0.0
O348 O 0.8952 0.32803 0.88677 0.0
O349 O 0.81563 0.29865 0.88348 0.0
O350 O 0.92965 0.39031 1.03674 0.0
O351 O 0.96181 0.36985 0.90553 0.0
H352 H 0.84605 0.51218 0.65265 0.0
H353 H 0.8194 0.48753 0.5036 0.0
H354 H 0.93608 0.35392 0.4726 0.0
H355 H 0.9655 0.38137 0.62092 0.0
H356 H 0.90474 0.35097 0.18884 0.0
H357 H 0.9365 0.37976 0.33579 0.0
H358 H 0.77164 0.41971 0.41222 0.0
H359 H 0.74158 0.396 0.26475 0.0
Sm360 Sm 0.39406 0.11137 0.77247 0.0
Sm361 Sm 0.33787 0.14868 0.65308 0.0
C362 C 0.44112 0.08104 0.90742 0.0
C363 C 0.4232 0.09237 0.99663 0.0
C364 C 0.4493 0.13338 1.05641 0.0
C365 C 0.4288 0.14792 0.13858 0.0
C366 C 0.38213 0.12112 0.16298 0.0
C367 C 0.35625 0.08029 0.1023 0.0
C368 C 0.37615 0.06654 1.02028 0.0
C369 C 0.38362 0.02966 0.62213 0.0
C370 C 0.27031 0.13835 0.8264 0.0
C371 C 0.29848 0.16656 0.50443 0.0
C372 C 0.31998 0.15706 0.41793 0.0
C373 C 0.28587 0.13514 0.34947 0.0
C374 C 0.30524 0.12618 0.26656 0.0
C375 C 0.36055 0.13493 0.25099 0.0
C376 C 0.39528 0.15478 0.321 0.0
C377 C 0.37501 0.16645 0.40351 0.0
C378 C 0.36266 0.24148 0.77438 0.0
C379 C 0.47011 0.15512 0.6515 0.0
O380 O 0.45744 0.12413 0.87554 0.0
O381 O 0.41007 0.04789 0.85413 0.0
O382 O 0.34539 0.05815 0.65963 0.0
O383 O 0.42839 0.04385 0.66434 0.0
O384 O 0.31931 0.13358 0.8564 0.0
O385 O 0.26391 0.13871 0.74313 0.0
O386 O 0.28772 0.12173 0.53613 0.0
O387 O 0.32276 0.20491 0.55936 0.0
O388 O 0.39391 0.20148 0.74872 0.0
O389 O 0.31388 0.2267 0.74789 0.0
O390 O 0.4291 0.1345 0.60093 0.0
O391 O 0.45536 0.17129 0.72994 0.0
H392 H 0.48494 0.15499 1.03905 0.0
H393 H 0.44912 0.18095 0.18191 0.0
H394 H 0.32062 0.05806 0.11745 0.0
H395 H 0.35389 0.03607 0.97508 0.0
H396 H 0.24425 0.12429 0.36013 0.0
H397 H 0.27641 0.11206 0.21534 0.0
H398 H 0.43836 0.16032 0.31302 0.0
H399 H 0.40264 0.1817 0.45613 0.0
Sm400 Sm 0.65338 0.65912 0.51655 0.0
Sm401 Sm 0.61475 0.595 0.36319 0.0
C402 C 0.66932 0.70853 0.6768 0.0
C403 C 0.65185 0.69121 0.75692 0.0
C404 C 0.61693 0.64509 0.75357 0.0
C405 C 0.60399 0.62455 0.82796 0.0
C406 C 0.62496 0.65032 0.90786 0.0
C407 C 0.65738 0.69875 0.91146 0.0
C408 C 0.67095 0.71881 0.83649 0.0
C409 C 0.72924 0.64949 0.38205 0.0
C410 C 0.63907 0.52907 0.53112 0.0
C411 C 0.59821 0.54269 0.20563 0.0
C412 C 0.605 0.56795 0.12736 0.0
C413 C 0.65341 0.59587 0.11481 0.0
C414 C 0.65891 0.62391 1.04552 0.0
C415 C 0.6165 0.62415 0.98548 0.0
C416 C 0.56766 0.59646 0.99813 0.0
C417 C 0.562 0.56905 1.06872 0.0
C418 C 0.52935 0.63744 0.46153 0.0
C419 C 0.61677 0.72978 0.37795 0.0
O420 O 0.62996 0.72171 0.62777 0.0
O421 O 0.70568 0.67689 0.63387 0.0
O422 O 0.70093 0.61096 0.40323 0.0
O423 O 0.72287 0.69377 0.43894 0.0
O424 O 0.6579 0.57728 0.56918 0.0
O425 O 0.61967 0.52367 0.45057 0.0
O426 O 0.64243 0.53644 0.24963 0.0
O427 O 0.55835 0.56203 0.25458 0.0
O428 O 0.57064 0.61433 0.4887 0.0
O429 O 0.53665 0.64454 0.38347 0.0
O430 O 0.63088 0.68363 0.32698 0.0
O431 O 0.6093 0.72706 0.4588 0.0
H432 H 0.60051 0.62402 0.69299 0.0
H433 H 0.57928 0.58714 0.82213 0.0
H434 H 0.67333 0.72052 0.97199 0.0
H435 H 0.69747 0.75482 0.84048 0.0
H436 H 0.68714 0.5963 0.15895 0.0
H437 H 0.69685 0.64476 1.03845 0.0
H438 H 0.53369 0.59613 0.95388 0.0
H439 H 0.52404 0.54892 0.07768 0.0
Sm440 Sm 0.14101 0.86234 0.11835 0.0
Sm441 Sm 0.11679 0.9352 0.26205 0.0
C442 C 0.15623 0.81421 0.95941 0.0
C443 C 0.15205 0.83707 0.87913 0.0
C444 C 0.12425 0.80734 0.80804 0.0
C445 C 0.11795 0.83019 0.73319 0.0
C446 C 0.13836 0.88382 0.72879 0.0
C447 C 0.16616 0.91338 0.80044 0.0
C448 C 0.17308 0.89021 0.8745 0.0
C449 C 0.22506 0.87694 0.24405 0.0
C450 C 0.13895 0.99093 0.09207 0.0
C451 C 0.10632 0.98198 0.42307 0.0
C452 C 0.11394 0.9582 0.50245 0.0
C453 C 0.16258 0.96725 0.55016 0.0
C454 C 0.1703 0.9436 0.62384 0.0
C455 C 0.1301 0.90924 0.6505 0.0
C456 C 0.08159 0.89994 0.60229 0.0
C457 C 0.07371 0.92395 0.52909 0.0
C458 C 0.02712 0.92361 0.15618 0.0
C459 C 0.10869 0.79726 0.2583 0.0
O460 O 0.11076 0.80922 0.99859 0.0
O461 O 0.19615 0.83313 1.01167 0.0
O462 O 0.19915 0.91503 0.2167 0.0
O463 O 0.21094 0.82936 0.19914 0.0
O464 O 0.13085 0.93978 1.05443 0.0
O465 O 0.14161 1.00166 0.17713 0.0
O466 O 0.14995 0.98832 0.37971 0.0
O467 O 0.06517 0.96262 0.37398 0.0
O468 O 0.05584 0.88322 0.17244 0.0
O469 O 0.0497 0.97064 0.18888 0.0
O470 O 0.12398 0.84575 0.30398 0.0
O471 O 0.09904 0.79556 0.17684 0.0
H472 H 0.10723 0.76652 0.81051 0.0
H473 H 0.09715 0.80571 0.67883 0.0
H474 H 0.18209 0.95485 0.80016 0.0
H475 H 0.19496 0.91416 0.92815 0.0
H476 H 0.19465 0.99289 0.53082 0.0
H477 H 0.20799 0.9522 0.65965 0.0
H478 H 0.0493 0.87455 0.62144 0.0
H479 H 0.03621 0.91499 0.49283 0.0
Sm480 Sm 0.89613 0.61026 0.26564 0.0
Sm481 Sm 0.84171 0.6506 0.14592 0.0
C482 C 0.93565 0.575 0.40273 0.0
C483 C 0.93062 0.59967 0.49302 0.0
C484 C 0.90366 0.65049 0.51554 0.0
C485 C 0.88822 0.66814 0.59994 0.0
C486 C 0.90273 0.63709 0.66355 0.0
C487 C 0.93483 0.5897 0.64242 0.0
C488 C 0.94616 0.56954 0.55684 0.0
C489 C 0.88329 0.53004 0.11464 0.0
C490 C 0.77461 0.64127 0.3192 0.0
C491 C 0.80596 0.67065 0.99535 0.0
C492 C 0.83078 0.66479 0.91064 0.0
C493 C 0.88705 0.67215 0.90282 0.0
C494 C 0.91065 0.6641 0.82222 0.0
C495 C 0.87822 0.64916 0.74854 0.0
C496 C 0.82208 0.64168 0.75628 0.0
C497 C 0.7986 0.649 0.83691 0.0
C498 C 0.86659 0.74205 0.26949 0.0
C499 C 0.97503 0.65486 0.14893 0.0
O500 O 0.96427 0.60325 0.35595 0.0
O501 O 0.88993 0.55669 0.36549 0.0
O502 O 0.84605 0.55984 0.15209 0.0
O503 O 0.92821 0.54193 0.15733 0.0
O504 O 0.82385 0.64056 0.34923 0.0
O505 O 0.76779 0.63859 0.2353 0.0
O506 O 0.79602 0.62429 1.02337 0.0
O507 O 0.82692 0.70869 1.05448 0.0
O508 O 0.89767 0.70152 0.24466 0.0
O509 O 0.81792 0.72821 0.24112 0.0
O510 O 0.9334 0.6367 0.09775 0.0
O511 O 0.96283 0.66649 0.22962 0.0
H512 H 0.89184 0.67489 0.46727 0.0
H513 H 0.86347 0.70481 0.61502 0.0
H514 H 0.94694 0.56576 0.6911 0.0
H515 H 0.9645 0.52911 0.53982 0.0
H516 H 0.91283 0.68365 0.95897 0.0
H517 H 0.95413 0.66926 0.81733 0.0
H518 H 0.79669 0.62871 0.69998 0.0
H519 H 0.75557 0.64135 0.84176 0.0
Sm520 Sm 0.14375 0.16421 1.01729 0.0
Sm521 Sm 0.10918 0.09827 0.87559 0.0
C522 C 0.16516 0.2081 0.17822 0.0
C523 C 0.14576 0.1921 0.25833 0.0
C524 C 0.09907 0.15869 0.25923 0.0
C525 C 0.08443 0.13904 0.33409 0.0
C526 C 0.11512 0.15428 0.41026 0.0
C527 C 0.15916 0.19139 0.40979 0.0
C528 C 0.17572 0.2076 0.33396 0.0
C529 C 0.2244 0.14828 0.88864 0.0
C530 C 0.13753 0.03657 1.03926 0.0
C531 C 0.0808 0.05723 0.71554 0.0
C532 C 0.0893 0.07892 0.63515 0.0
C533 C 0.14107 0.09605 0.61477 0.0
C534 C 0.14875 0.11937 0.54155 0.0
C535 C 0.10491 0.12848 0.48785 0.0
C536 C 0.05269 0.11154 0.50857 0.0
C537 C 0.04514 0.08672 0.58139 0.0
C538 C 0.02447 0.10817 0.98577 0.0
C539 C 0.1096 0.23658 0.88829 0.0
O540 O 0.12887 0.2283 0.13127 0.0
O541 O 0.19734 0.17276 0.13318 0.0
O542 O 0.19581 0.11081 0.91244 0.0
O543 O 0.21467 0.1952 0.93798 0.0
O544 O 0.13133 0.08709 0.07908 0.0
O545 O 0.136 0.02765 0.95397 0.0
O546 O 0.12379 0.04102 0.75386 0.0
O547 O 0.04836 0.08667 0.76883 0.0
O548 O 0.05402 0.14876 0.97196 0.0
O549 O 0.04577 0.06154 0.95191 0.0
O550 O 0.12282 0.18896 0.83963 0.0
O551 O 0.10194 0.23527 0.96884 0.0
H552 H 0.07503 0.14612 0.2014 0.0
H553 H 0.05037 0.11047 0.33111 0.0
H554 H 0.18297 0.206 0.46716 0.0
H555 H 0.21342 0.23041 0.33432 0.0
H556 H 0.176 0.09091 0.6549 0.0
H557 H 0.18952 0.12976 0.52677 0.0
H558 H 0.01759 0.11804 0.46961 0.0
H559 H 0.00474 0.0745 0.59665 0.0
Sm560 Sm 0.64118 0.35365 0.60932 0.0
Sm561 Sm 0.61746 0.42487 0.75332 0.0
C562 C 0.65728 0.30313 0.44999 0.0
C563 C 0.64244 0.31845 0.36634 0.0
C564 C 0.59767 0.35295 0.35839 0.0
C565 C 0.58764 0.3731 0.28193 0.0
C566 C 0.62211 0.35887 0.21228 0.0
C567 C 0.66469 0.32164 0.21841 0.0
C568 C 0.67536 0.30236 0.29534 0.0
C569 C 0.72675 0.3708 0.73462 0.0
C570 C 0.63765 0.48235 0.58329 0.0
C571 C 0.60537 0.46824 0.91564 0.0
C572 C 0.60853 0.44118 0.99282 0.0
C573 C 0.6546 0.44904 1.04678 0.0
C574 C 0.6585 0.42243 0.11819 0.0
C575 C 0.61698 0.38677 0.13654 0.0
C576 C 0.5708 0.37882 0.08314 0.0
C577 C 0.56674 0.40548 1.01158 0.0
C578 C 0.52686 0.4158 0.6508 0.0
C579 C 0.60979 0.28653 0.75001 0.0
O580 O 0.61713 0.2908 0.4964 0.0
O581 O 0.69373 0.33494 0.49505 0.0
O582 O 0.6997 0.40763 0.70652 0.0
O583 O 0.71246 0.32271 0.69155 0.0
O584 O 0.62644 0.43152 0.5457 0.0
O585 O 0.64377 0.49169 0.66833 0.0
O586 O 0.65068 0.47291 0.87552 0.0
O587 O 0.5645 0.45359 0.86334 0.0
O588 O 0.55538 0.3743 0.66382 0.0
O589 O 0.55116 0.46213 0.68217 0.0
O590 O 0.62482 0.33526 0.79511 0.0
O591 O 0.60098 0.2849 0.66819 0.0
H592 H 0.57159 0.366 0.41225 0.0
H593 H 0.55446 0.40167 0.27842 0.0
H594 H 0.69156 0.30995 0.16512 0.0
H595 H 0.71075 0.277 0.30027 0.0
H596 H 0.68741 0.47625 1.03431 0.0
H597 H 0.69346 0.43083 0.16034 0.0
H598 H 0.53825 0.35149 0.09619 0.0
H599 H 0.53098 0.39766 0.97067 0.0
Sm600 Sm 0.38969 0.92271 0.37322 0.0
Sm601 Sm 0.33907 0.87518 0.48344 0.0
C602 C 0.41797 0.97227 0.24398 0.0
C603 C 0.40188 0.95889 0.15267 0.0
C604 C 0.34714 0.94876 0.12861 0.0
C605 C 0.33219 0.93109 1.04335 0.0
C606 C 0.37166 0.92182 0.97952 0.0
C607 C 0.42651 0.93327 1.00358 0.0
C608 C 0.44116 0.95261 0.0891 0.0
C609 C 0.38289 0.99559 0.53258 0.0
C610 C 0.2702 0.88577 0.30969 0.0
C611 C 0.30339 0.84855 0.62835 0.0
C612 C 0.32071 0.86711 0.71728 0.0
C613 C 0.36737 0.90039 0.73613 0.0
C614 C 0.38461 0.91729 0.82079 0.0
C615 C 0.35492 0.90209 0.88856 0.0
C616 C 0.30818 0.86848 0.86854 0.0
C617 C 0.2913 0.85118 0.78369 0.0
C618 C 0.36318 0.78662 0.35864 0.0
C619 C 0.47354 0.87478 0.48117 0.0
O620 O 0.44856 0.93584 0.27324 0.0
O621 O 0.37926 0.99032 0.29641 0.0
O622 O 0.34377 0.96778 0.49296 0.0
O623 O 0.42644 0.98517 0.48837 0.0
O624 O 0.31935 0.8892 0.28321 0.0
O625 O 0.26363 0.88631 0.39274 0.0
O626 O 0.28109 0.88644 0.59044 0.0
O627 O 0.33876 0.81934 0.58051 0.0
O628 O 0.3938 0.82864 0.38296 0.0
O629 O 0.31451 0.79899 0.38434 0.0
O630 O 0.43209 0.88704 0.53339 0.0
O631 O 0.46154 0.87062 0.3999 0.0
H632 H 0.31534 0.95537 0.17534 0.0
H633 H 0.28936 0.92567 1.02787 0.0
H634 H 0.45842 0.92685 0.95699 0.0
H635 H 0.48319 0.96219 0.1058 0.0
H636 H 0.39054 0.91333 0.68535 0.0
H637 H 0.42083 0.94279 0.83253 0.0
H638 H 0.28523 0.85393 0.91816 0.0
H639 H 0.25579 0.82453 0.76987 0.0
loop_
_geom_bond_atom_site_label_1
_geom_bond_atom_site_label_2
_geom_bond_distance
_geom_bond_site_symmetry_2
_ccdc_geom_bond_type
Sm0 C2 2.846 1_554 S
Sm0 O20 2.543 1_554 S
Sm0 O21 2.450 1_554 S
Sm0 O22 2.681 . S
Sm0 O23 2.464 . S
Sm0 O24 2.396 . S
Sm0 O28 2.386 . S
Sm0 O31 2.408 . S
Sm1 C11 2.846 . S
Sm1 O22 2.386 . S
Sm1 O25 2.408 . S
Sm1 O26 2.543 . S
Sm1 O27 2.450 . S
Sm1 O28 2.681 . S
Sm1 O29 2.464 . S
Sm1 O30 2.396 . S
C2 Sm0 2.846 1_556 S
C2 C3 1.506 . S
C2 O20 1.261 . S
C2 O21 1.242 . S
C3 C2 1.506 . S
C3 C4 1.358 . S
C3 C8 1.382 . S
C4 C3 1.358 . S
C4 C5 1.385 . S
C4 H32 0.930 . S
C5 C4 1.385 . S
C5 C6 1.395 . S
C5 H33 0.929 . S
C6 C5 1.395 . S
C6 C7 1.335 . S
C7 C6 1.335 . S
C7 C8 1.398 . S
C7 H34 0.930 . S
C8 C3 1.382 . S
C8 C7 1.398 . S
C8 H35 0.929 . S
C9 O22 1.271 . S
C9 O23 1.251 . S
C10 O24 1.252 . S
C10 O25 1.272 . S
C11 Sm1 2.846 . S
C11 C12 1.506 . S
C11 O26 1.261 . S
C11 O27 1.242 . S
C12 C11 1.506 . S
C12 C13 1.358 . S
C12 C17 1.382 . S
C13 C12 1.358 . S
C13 C14 1.385 . S
C13 H36 0.930 . S
C14 C13 1.385 . S
C14 C15 1.395 . S
C14 H37 0.929 . S
C15 C14 1.395 . S
C15 C16 1.335 . S
C16 C15 1.335 . S
C16 C17 1.398 . S
C16 H38 0.930 . S
C17 C12 1.382 . S
C17 C16 1.398 . S
C17 H39 0.929 . S
C18 O28 1.271 . S
C18 O29 1.251 . S
C19 O30 1.252 . S
C19 O31 1.272 . S
O20 Sm0 2.543 1_556 S
O20 C2 1.261 . S
O21 Sm0 2.450 1_556 S
O21 C2 1.242 . S
O22 Sm0 2.681 . S
O22 Sm1 2.386 . S
O22 C9 1.271 . S
O23 Sm0 2.464 . S
O23 C9 1.251 . S
O24 Sm0 2.396 . S
O24 C10 1.252 . S
O25 Sm1 2.408 . S
O25 C10 1.272 . S
O26 Sm1 2.543 . S
O26 C11 1.261 . S
O27 Sm1 2.450 . S
O27 C11 1.242 . S
O28 Sm0 2.386 . S
O28 Sm1 2.681 . S
O28 C18 1.271 . S
O29 Sm1 2.464 . S
O29 C18 1.251 . S
O30 Sm1 2.396 . S
O30 C19 1.252 . S
O31 Sm0 2.408 . S
O31 C19 1.272 . S
H32 C4 0.930 . S
H33 C5 0.929 . S
H34 C7 0.930 . S
H35 C8 0.929 . S
H36 C13 0.930 . S
H37 C14 0.929 . S
H38 C16 0.930 . S
H39 C17 0.929 . S
Sm40 C42 2.846 . S
Sm40 O60 2.543 . S
Sm40 O61 2.450 . S
Sm40 O62 2.681 . S
Sm40 O63 2.464 . S
Sm40 O64 2.396 . S
Sm40 O68 2.386 . S
Sm40 O71 2.408 . S
Sm41 C51 2.846 . S
Sm41 O62 2.386 . S
Sm41 O65 2.408 . S
Sm41 O66 2.543 . S
Sm41 O67 2.450 . S
Sm41 O68 2.681 . S
Sm41 O69 2.464 . S
Sm41 O70 2.396 . S
C42 Sm40 2.846 . S
C42 C43 1.506 . S
C42 O60 1.261 . S
C42 O61 1.242 . S
C43 C42 1.506 . S
C43 C44 1.358 . S
C43 C48 1.382 . S
C44 C43 1.358 . S
C44 C45 1.385 . S
C44 H72 0.930 . S
C45 C44 1.385 . S
C45 C46 1.395 . S
C45 H73 0.929 . S
C46 C45 1.395 . S
C46 C47 1.335 . S
C47 C46 1.335 . S
C47 C48 1.398 . S
C47 H74 0.930 . S
C48 C43 1.382 . S
C48 C47 1.398 . S
C48 H75 0.929 . S
C49 O62 1.271 . S
C49 O63 1.251 . S
C50 O64 1.252 . S
C50 O65 1.272 . S
C51 Sm41 2.846 . S
C51 C52 1.506 . S
C51 O66 1.261 . S
C51 O67 1.242 . S
C52 C51 1.506 . S
C52 C53 1.358 . S
C52 C57 1.382 . S
C53 C52 1.358 . S
C53 C54 1.385 1_554 S
C53 H76 0.930 . S
C54 C53 1.385 1_556 S
C54 C55 1.395 . S
C54 H77 0.929 . S
C55 C54 1.395 . S
C55 C56 1.335 . S
C56 C55 1.335 . S
C56 C57 1.398 1_556 S
C56 H78 0.930 . S
C57 C52 1.382 . S
C57 C56 1.398 1_554 S
C57 H79 0.929 . S
C58 O68 1.271 . S
C58 O69 1.251 . S
C59 O70 1.252 . S
C59 O71 1.272 . S
O60 Sm40 2.543 . S
O60 C42 1.261 . S
O61 Sm40 2.450 . S
O61 C42 1.242 . S
O62 Sm40 2.681 . S
O62 Sm41 2.386 . S
O62 C49 1.271 . S
O63 Sm40 2.464 . S
O63 C49 1.251 . S
O64 Sm40 2.396 . S
O64 C50 1.252 . S
O65 Sm41 2.408 . S
O65 C50 1.272 . S
O66 Sm41 2.543 . S
O66 C51 1.261 . S
O67 Sm41 2.450 . S
O67 C51 1.242 . S
O68 Sm40 2.386 . S
O68 Sm41 2.681 . S
O68 C58 1.271 . S
O69 Sm41 2.464 . S
O69 C58 1.251 . S
O70 Sm41 2.396 . S
O70 C59 1.252 . S
O71 Sm40 2.408 . S
O71 C59 1.272 . S
H72 C44 0.930 . S
H73 C45 0.929 . S
H74 C47 0.930 . S
H75 C48 0.929 . S
H76 C53 0.930 . S
H77 C54 0.929 . S
H78 C56 0.930 . S
H79 C57 0.929 . S
Sm80 C82 2.846 . S
Sm80 O100 2.543 . S
Sm80 O101 2.450 . S
Sm80 O102 2.681 . S
Sm80 O103 2.464 . S
Sm80 O104 2.396 . S
Sm80 O108 2.386 . S
Sm80 O111 2.408 . S
Sm81 C91 2.846 . S
Sm81 O102 2.386 . S
Sm81 O105 2.408 . S
Sm81 O106 2.543 . S
Sm81 O107 2.450 . S
Sm81 O108 2.681 . S
Sm81 O109 2.464 . S
Sm81 O110 2.396 . S
C82 Sm80 2.846 . S
C82 C83 1.506 . S
C82 O100 1.261 . S
C82 O101 1.242 . S
C83 C82 1.506 . S
C83 C84 1.358 . S
C83 C88 1.382 . S
C84 C83 1.358 . S
C84 C85 1.385 1_556 S
C84 H112 0.930 . S
C85 C84 1.385 1_554 S
C85 C86 1.395 . S
C85 H113 0.929 . S
C86 C85 1.395 . S
C86 C87 1.335 . S
C87 C86 1.335 . S
C87 C88 1.398 1_554 S
C87 H114 0.930 . S
C88 C83 1.382 . S
C88 C87 1.398 1_556 S
C88 H115 0.929 . S
C89 O102 1.271 . S
C89 O103 1.251 . S
C90 O104 1.252 . S
C90 O105 1.272 . S
C91 Sm81 2.846 . S
C91 C92 1.506 . S
C91 O106 1.261 . S
C91 O107 1.242 . S
C92 C91 1.506 . S
C92 C93 1.358 . S
C92 C97 1.382 . S
C93 C92 1.358 . S
C93 C94 1.385 . S
C93 H116 0.930 . S
C94 C93 1.385 . S
C94 C95 1.395 . S
C94 H117 0.929 . S
C95 C94 1.395 . S
C95 C96 1.335 . S
C96 C95 1.335 . S
C96 C97 1.398 . S
C96 H118 0.930 . S
C97 C92 1.382 . S
C97 C96 1.398 . S
C97 H119 0.929 . S
C98 O108 1.271 . S
C98 O109 1.251 . S
C99 O110 1.252 . S
C99 O111 1.272 . S
O100 Sm80 2.543 . S
O100 C82 1.261 . S
O101 Sm80 2.450 . S
O101 C82 1.242 . S
O102 Sm80 2.681 . S
O102 Sm81 2.386 . S
O102 C89 1.271 . S
O103 Sm80 2.464 . S
O103 C89 1.251 . S
O104 Sm80 2.396 . S
O104 C90 1.252 . S
O105 Sm81 2.408 . S
O105 C90 1.272 . S
O106 Sm81 2.543 . S
O106 C91 1.261 . S
O107 Sm81 2.450 . S
O107 C91 1.242 . S
O108 Sm80 2.386 . S
O108 Sm81 2.681 . S
O108 C98 1.271 . S
O109 Sm81 2.464 . S
O109 C98 1.251 . S
O110 Sm81 2.396 . S
O110 C99 1.252 . S
O111 Sm80 2.408 . S
O111 C99 1.272 . S
H112 C84 0.930 . S
H113 C85 0.929 . S
H114 C87 0.930 . S
H115 C88 0.929 . S
H116 C93 0.930 . S
H117 C94 0.929 . S
H118 C96 0.930 . S
H119 C97 0.929 . S
Sm120 C122 2.846 . S
Sm120 O140 2.543 . S
Sm120 O141 2.450 . S
Sm120 O142 2.681 . S
Sm120 O143 2.464 . S
Sm120 O144 2.396 . S
Sm120 O148 2.386 . S
Sm120 O151 2.408 1_545 S
Sm121 C131 2.846 1_556 S
Sm121 O142 2.386 . S
Sm121 O145 2.408 . S
Sm121 O146 2.543 1_556 S
Sm121 O147 2.450 1_556 S
Sm121 O148 2.681 . S
Sm121 O149 2.464 . S
Sm121 O150 2.396 . S
C122 Sm120 2.846 . S
C122 C123 1.506 . S
C122 O140 1.261 . S
C122 O141 1.242 . S
C123 C122 1.506 . S
C123 C124 1.358 . S
C123 C128 1.382 . S
C124 C123 1.358 . S
C124 C125 1.385 . S
C124 H152 0.930 . S
C125 C124 1.385 . S
C125 C126 1.395 . S
C125 H153 0.929 . S
C126 C125 1.395 . S
C126 C127 1.335 . S
C127 C126 1.335 . S
C127 C128 1.398 . S
C127 H154 0.930 . S
C128 C123 1.382 . S
C128 C127 1.398 . S
C128 H155 0.929 . S
C129 O142 1.271 . S
C129 O143 1.251 . S
C130 O144 1.252 . S
C130 O145 1.272 . S
C131 Sm121 2.846 1_554 S
C131 C132 1.506 . S
C131 O146 1.261 . S
C131 O147 1.242 . S
C132 C131 1.506 . S
C132 C133 1.358 . S
C132 C137 1.382 . S
C133 C132 1.358 . S
C133 C134 1.385 . S
C133 H156 0.930 . S
C134 C133 1.385 . S
C134 C135 1.395 . S
C134 H157 0.929 . S
C135 C134 1.395 . S
C135 C136 1.335 . S
C136 C135 1.335 . S
C136 C137 1.398 . S
C136 H158 0.930 . S
C137 C132 1.382 . S
C137 C136 1.398 . S
C137 H159 0.929 . S
C138 O148 1.271 . S
C138 O149 1.251 . S
C139 O150 1.252 . S
C139 O151 1.272 1_545 S
O140 Sm120 2.543 . S
O140 C122 1.261 . S
O141 Sm120 2.450 . S
O141 C122 1.242 . S
O142 Sm120 2.681 . S
O142 Sm121 2.386 . S
O142 C129 1.271 . S
O143 Sm120 2.464 . S
O143 C129 1.251 . S
O144 Sm120 2.396 . S
O144 C130 1.252 . S
O145 Sm121 2.408 . S
O145 C130 1.272 . S
O146 Sm121 2.543 1_554 S
O146 C131 1.261 . S
O147 Sm121 2.450 1_554 S
O147 C131 1.242 . S
O148 Sm120 2.386 . S
O148 Sm121 2.681 . S
O148 C138 1.271 . S
O149 Sm121 2.464 . S
O149 C138 1.251 . S
O150 Sm121 2.396 . S
O150 C139 1.252 . S
O151 Sm120 2.408 1_565 S
O151 C139 1.272 1_565 S
H152 C124 0.930 . S
H153 C125 0.929 . S
H154 C127 0.930 . S
H155 C128 0.929 . S
H156 C133 0.930 . S
H157 C134 0.929 . S
H158 C136 0.930 . S
H159 C137 0.929 . S
Sm160 C162 2.846 1_556 S
Sm160 O180 2.543 1_556 S
Sm160 O181 2.450 1_556 S
Sm160 O182 2.681 . S
Sm160 O183 2.464 . S
Sm160 O184 2.396 . S
Sm160 O188 2.386 . S
Sm160 O191 2.408 . S
Sm161 C171 2.846 . S
Sm161 O182 2.386 . S
Sm161 O185 2.408 . S
Sm161 O186 2.543 . S
Sm161 O187 2.450 . S
Sm161 O188 2.681 . S
Sm161 O189 2.464 . S
Sm161 O190 2.396 . S
C162 Sm160 2.846 1_554 S
C162 C163 1.506 . S
C162 O180 1.261 . S
C162 O181 1.242 . S
C163 C162 1.506 . S
C163 C164 1.358 . S
C163 C168 1.382 . S
C164 C163 1.358 . S
C164 C165 1.385 . S
C164 H192 0.930 . S
C165 C164 1.385 . S
C165 C166 1.395 . S
C165 H193 0.929 . S
C166 C165 1.395 . S
C166 C167 1.335 . S
C167 C166 1.335 . S
C167 C168 1.398 . S
C167 H194 0.930 . S
C168 C163 1.382 . S
C168 C167 1.398 . S
C168 H195 0.929 . S
C169 O182 1.271 . S
C169 O183 1.251 . S
C170 O184 1.252 . S
C170 O185 1.272 . S
C171 Sm161 2.846 . S
C171 C172 1.506 . S
C171 O186 1.261 . S
C171 O187 1.242 . S
C172 C171 1.506 . S
C172 C173 1.358 . S
C172 C177 1.382 . S
C173 C172 1.358 . S
C173 C174 1.385 . S
C173 H196 0.930 . S
C174 C173 1.385 . S
C174 C175 1.395 . S
C174 H197 0.929 . S
C175 C174 1.395 . S
C175 C176 1.335 . S
C176 C175 1.335 . S
C176 C177 1.398 . S
C176 H198 0.930 . S
C177 C172 1.382 . S
C177 C176 1.398 . S
C177 H199 0.929 . S
C178 O188 1.271 . S
C178 O189 1.251 . S
C179 O190 1.252 . S
C179 O191 1.272 . S
O180 Sm160 2.543 1_554 S
O180 C162 1.261 . S
O181 Sm160 2.450 1_554 S
O181 C162 1.242 . S
O182 Sm160 2.681 . S
O182 Sm161 2.386 . S
O182 C169 1.271 . S
O183 Sm160 2.464 . S
O183 C169 1.251 . S
O184 Sm160 2.396 . S
O184 C170 1.252 . S
O185 Sm161 2.408 . S
O185 C170 1.272 . S
O186 Sm161 2.543 . S
O186 C171 1.261 . S
O187 Sm161 2.450 . S
O187 C171 1.242 . S
O188 Sm160 2.386 . S
O188 Sm161 2.681 . S
O188 C178 1.271 . S
O189 Sm161 2.464 . S
O189 C178 1.251 . S
O190 Sm161 2.396 . S
O190 C179 1.252 . S
O191 Sm160 2.408 . S
O191 C179 1.272 . S
H192 C164 0.930 . S
H193 C165 0.929 . S
H194 C167 0.930 . S
H195 C168 0.929 . S
H196 C173 0.930 . S
H197 C174 0.929 . S
H198 C176 0.930 . S
H199 C177 0.929 . S
Sm200 C202 2.846 . S
Sm200 O220 2.543 . S
Sm200 O221 2.450 . S
Sm200 O222 2.681 . S
Sm200 O223 2.464 . S
Sm200 O224 2.396 . S
Sm200 O228 2.386 . S
Sm200 O231 2.408 1_565 S
Sm201 C211 2.846 1_554 S
Sm201 O222 2.386 . S
Sm201 O225 2.408 . S
Sm201 O226 2.543 1_554 S
Sm201 O227 2.450 1_554 S
Sm201 O228 2.681 . S
Sm201 O229 2.464 . S
Sm201 O230 2.396 . S
C202 Sm200 2.846 . S
C202 C203 1.506 . S
C202 O220 1.261 . S
C202 O221 1.242 . S
C203 C202 1.506 . S
C203 C204 1.358 . S
C203 C208 1.382 . S
C204 C203 1.358 . S
C204 C205 1.385 . S
C204 H232 0.930 . S
C205 C204 1.385 . S
C205 C206 1.395 . S
C205 H233 0.929 . S
C206 C205 1.395 . S
C206 C207 1.335 . S
C207 C206 1.335 . S
C207 C208 1.398 . S
C207 H234 0.930 . S
C208 C203 1.382 . S
C208 C207 1.398 . S
C208 H235 0.929 . S
C209 O222 1.271 . S
C209 O223 1.251 . S
C210 O224 1.252 . S
C210 O225 1.272 . S
C211 Sm201 2.846 1_556 S
C211 C212 1.506 . S
C211 O226 1.261 . S
C211 O227 1.242 . S
C212 C211 1.506 . S
C212 C213 1.358 . S
C212 C217 1.382 . S
C213 C212 1.358 . S
C213 C214 1.385 . S
C213 H236 0.930 . S
C214 C213 1.385 . S
C214 C215 1.395 . S
C214 H237 0.929 . S
C215 C214 1.395 . S
C215 C216 1.335 . S
C216 C215 1.335 . S
C216 C217 1.398 . S
C216 H238 0.930 . S
C217 C212 1.382 . S
C217 C216 1.398 . S
C217 H239 0.929 . S
C218 O228 1.271 . S
C218 O229 1.251 . S
C219 O230 1.252 . S
C219 O231 1.272 1_565 S
O220 Sm200 2.543 . S
O220 C202 1.261 . S
O221 Sm200 2.450 . S
O221 C202 1.242 . S
O222 Sm200 2.681 . S
O222 Sm201 2.386 . S
O222 C209 1.271 . S
O223 Sm200 2.464 . S
O223 C209 1.251 . S
O224 Sm200 2.396 . S
O224 C210 1.252 . S
O225 Sm201 2.408 . S
O225 C210 1.272 . S
O226 Sm201 2.543 1_556 S
O226 C211 1.261 . S
O227 Sm201 2.450 1_556 S
O227 C211 1.242 . S
O228 Sm200 2.386 . S
O228 Sm201 2.681 . S
O228 C218 1.271 . S
O229 Sm201 2.464 . S
O229 C218 1.251 . S
O230 Sm201 2.396 . S
O230 C219 1.252 . S
O231 Sm200 2.408 1_545 S
O231 C219 1.272 1_545 S
H232 C204 0.930 . S
H233 C205 0.929 . S
H234 C207 0.930 . S
H235 C208 0.929 . S
H236 C213 0.930 . S
H237 C214 0.929 . S
H238 C216 0.930 . S
H239 C217 0.929 . S
Sm240 C242 2.846 . S
Sm240 O260 2.543 . S
Sm240 O261 2.450 . S
Sm240 O262 2.681 . S
Sm240 O263 2.464 . S
Sm240 O264 2.396 . S
Sm240 O268 2.386 . S
Sm240 O271 2.408 . S
Sm241 C251 2.846 . S
Sm241 O262 2.386 . S
Sm241 O265 2.408 . S
Sm241 O266 2.543 . S
Sm241 O267 2.450 . S
Sm241 O268 2.681 . S
Sm241 O269 2.464 . S
Sm241 O270 2.396 . S
C242 Sm240 2.846 . S
C242 C243 1.506 . S
C242 O260 1.261 . S
C242 O261 1.242 . S
C243 C242 1.506 . S
C243 C244 1.358 . S
C243 C248 1.382 . S
C244 C243 1.358 . S
C244 C245 1.385 1_554 S
C244 H272 0.930 . S
C245 C244 1.385 1_556 S
C245 C246 1.395 . S
C245 H273 0.929 . S
C246 C245 1.395 . S
C246 C247 1.335 . S
C247 C246 1.335 . S
C247 C248 1.398 1_556 S
C247 H274 0.930 . S
C248 C243 1.382 . S
C248 C247 1.398 1_554 S
C248 H275 0.929 . S
C249 O262 1.271 . S
C249 O263 1.251 . S
C250 O264 1.252 . S
C250 O265 1.272 . S
C251 Sm241 2.846 . S
C251 C252 1.506 . S
C251 O266 1.261 . S
C251 O267 1.242 . S
C252 C251 1.506 . S
C252 C253 1.358 . S
C252 C257 1.382 . S
C253 C252 1.358 . S
C253 C254 1.385 . S
C253 H276 0.930 . S
C254 C253 1.385 . S
C254 C255 1.395 . S
C254 H277 0.929 . S
C255 C254 1.395 . S
C255 C256 1.335 . S
C256 C255 1.335 . S
C256 C257 1.398 . S
C256 H278 0.930 . S
C257 C252 1.382 . S
C257 C256 1.398 . S
C257 H279 0.929 . S
C258 O268 1.271 . S
C258 O269 1.251 . S
C259 O270 1.252 . S
C259 O271 1.272 . S
O260 Sm240 2.543 . S
O260 C242 1.261 . S
O261 Sm240 2.450 . S
O261 C242 1.242 . S
O262 Sm240 2.681 . S
O262 Sm241 2.386 . S
O262 C249 1.271 . S
O263 Sm240 2.464 . S
O263 C249 1.251 . S
O264 Sm240 2.396 . S
O264 C250 1.252 . S
O265 Sm241 2.408 . S
O265 C250 1.272 . S
O266 Sm241 2.543 . S
O266 C251 1.261 . S
O267 Sm241 2.450 . S
O267 C251 1.242 . S
O268 Sm240 2.386 . S
O268 Sm241 2.681 . S
O268 C258 1.271 . S
O269 Sm241 2.464 . S
O269 C258 1.251 . S
O270 Sm241 2.396 . S
O270 C259 1.252 . S
O271 Sm240 2.408 . S
O271 C259 1.272 . S
H272 C244 0.930 . S
H273 C245 0.929 . S
H274 C247 0.930 . S
H275 C248 0.929 . S
H276 C253 0.930 . S
H277 C254 0.929 . S
H278 C256 0.930 . S
H279 C257 0.929 . S
Sm280 C282 2.846 . S
Sm280 O300 2.543 . S
Sm280 O301 2.450 . S
Sm280 O302 2.681 . S
Sm280 O303 2.464 . S
Sm280 O304 2.396 . S
Sm280 O308 2.386 . S
Sm280 O311 2.408 . S
Sm281 C291 2.846 . S
Sm281 O302 2.386 . S
Sm281 O305 2.408 . S
Sm281 O306 2.543 . S
Sm281 O307 2.450 . S
Sm281 O308 2.681 . S
Sm281 O309 2.464 . S
Sm281 O310 2.396 . S
C282 Sm280 2.846 . S
C282 C283 1.506 . S
C282 O300 1.261 . S
C282 O301 1.242 . S
C283 C282 1.506 . S
C283 C284 1.358 . S
C283 C288 1.382 . S
C284 C283 1.358 . S
C284 C285 1.385 . S
C284 H312 0.930 . S
C285 C284 1.385 . S
C285 C286 1.395 . S
C285 H313 0.929 . S
C286 C285 1.395 . S
C286 C287 1.335 . S
C287 C286 1.335 . S
C287 C288 1.398 . S
C287 H314 0.930 . S
C288 C283 1.382 . S
C288 C287 1.398 . S
C288 H315 0.929 . S
C289 O302 1.271 . S
C289 O303 1.251 . S
C290 O304 1.252 . S
C290 O305 1.272 . S
C291 Sm281 2.846 . S
C291 C292 1.506 . S
C291 O306 1.261 . S
C291 O307 1.242 . S
C292 C291 1.506 . S
C292 C293 1.358 . S
C292 C297 1.382 . S
C293 C292 1.358 . S
C293 C294 1.385 1_556 S
C293 H316 0.930 . S
C294 C293 1.385 1_554 S
C294 C295 1.395 . S
C294 H317 0.929 . S
C295 C294 1.395 . S
C295 C296 1.335 . S
C296 C295 1.335 . S
C296 C297 1.398 1_554 S
C296 H318 0.930 . S
C297 C292 1.382 . S
C297 C296 1.398 1_556 S
C297 H319 0.929 . S
C298 O308 1.271 . S
C298 O309 1.251 . S
C299 O310 1.252 . S
C299 O311 1.272 . S
O300 Sm280 2.543 . S
O300 C282 1.261 . S
O301 Sm280 2.450 . S
O301 C282 1.242 . S
O302 Sm280 2.681 . S
O302 Sm281 2.386 . S
O302 C289 1.271 . S
O303 Sm280 2.464 . S
O303 C289 1.251 . S
O304 Sm280 2.396 . S
O304 C290 1.252 . S
O305 Sm281 2.408 . S
O305 C290 1.272 . S
O306 Sm281 2.543 . S
O306 C291 1.261 . S
O307 Sm281 2.450 . S
O307 C291 1.242 . S
O308 Sm280 2.386 . S
O308 Sm281 2.681 . S
O308 C298 1.271 . S
O309 Sm281 2.464 . S
O309 C298 1.251 . S
O310 Sm281 2.396 . S
O310 C299 1.252 . S
O311 Sm280 2.408 . S
O311 C299 1.272 . S
H312 C284 0.930 . S
H313 C285 0.929 . S
H314 C287 0.930 . S
H315 C288 0.929 . S
H316 C293 0.930 . S
H317 C294 0.929 . S
H318 C296 0.930 . S
H319 C297 0.929 . S
Sm320 C322 2.846 . S
Sm320 O340 2.543 . S
Sm320 O341 2.450 . S
Sm320 O342 2.681 . S
Sm320 O343 2.464 . S
Sm320 O344 2.396 . S
Sm320 O348 2.386 . S
Sm320 O351 2.408 . S
Sm321 C331 2.846 1_556 S
Sm321 O342 2.386 . S
Sm321 O345 2.408 . S
Sm321 O346 2.543 1_556 S
Sm321 O347 2.450 1_556 S
Sm321 O348 2.681 . S
Sm321 O349 2.464 . S
Sm321 O350 2.396 . S
C322 Sm320 2.846 . S
C322 C323 1.506 . S
C322 O340 1.261 . S
C322 O341 1.242 . S
C323 C322 1.506 . S
C323 C324 1.358 . S
C323 C328 1.382 . S
C324 C323 1.358 . S
C324 C325 1.385 . S
C324 H352 0.930 . S
C325 C324 1.385 . S
C325 C326 1.395 . S
C325 H353 0.929 . S
C326 C325 1.395 . S
C326 C327 1.335 . S
C327 C326 1.335 . S
C327 C328 1.398 . S
C327 H354 0.930 . S
C328 C323 1.382 . S
C328 C327 1.398 . S
C328 H355 0.929 . S
C329 O342 1.271 . S
C329 O343 1.251 . S
C330 O344 1.252 . S
C330 O345 1.272 . S
C331 Sm321 2.846 1_554 S
C331 C332 1.506 . S
C331 O346 1.261 . S
C331 O347 1.242 . S
C332 C331 1.506 . S
C332 C333 1.358 . S
C332 C337 1.382 . S
C333 C332 1.358 . S
C333 C334 1.385 . S
C333 H356 0.930 . S
C334 C333 1.385 . S
C334 C335 1.395 . S
C334 H357 0.929 . S
C335 C334 1.395 . S
C335 C336 1.335 . S
C336 C335 1.335 . S
C336 C337 1.398 . S
C336 H358 0.930 . S
C337 C332 1.382 . S
C337 C336 1.398 . S
C337 H359 0.929 . S
C338 O348 1.271 . S
C338 O349 1.251 . S
C339 O350 1.252 . S
C339 O351 1.272 . S
O340 Sm320 2.543 . S
O340 C322 1.261 . S
O341 Sm320 2.450 . S
O341 C322 1.242 . S
O342 Sm320 2.681 . S
O342 Sm321 2.386 . S
O342 C329 1.271 . S
O343 Sm320 2.464 . S
O343 C329 1.251 . S
O344 Sm320 2.396 . S
O344 C330 1.252 . S
O345 Sm321 2.408 . S
O345 C330 1.272 . S
O346 Sm321 2.543 1_554 S
O346 C331 1.261 . S
O347 Sm321 2.450 1_554 S
O347 C331 1.242 . S
O348 Sm320 2.386 . S
O348 Sm321 2.681 . S
O348 C338 1.271 . S
O349 Sm321 2.464 . S
O349 C338 1.251 . S
O350 Sm321 2.396 . S
O350 C339 1.252 . S
O351 Sm320 2.408 . S
O351 C339 1.272 . S
H352 C324 0.930 . S
H353 C325 0.929 . S
H354 C327 0.930 . S
H355 C328 0.929 . S
H356 C333 0.930 . S
H357 C334 0.929 . S
H358 C336 0.930 . S
H359 C337 0.929 . S
Sm360 C362 2.846 . S
Sm360 O380 2.543 . S
Sm360 O381 2.450 . S
Sm360 O382 2.681 . S
Sm360 O383 2.464 . S
Sm360 O384 2.396 . S
Sm360 O388 2.386 . S
Sm360 O391 2.408 . S
Sm361 C371 2.846 . S
Sm361 O382 2.386 . S
Sm361 O385 2.408 . S
Sm361 O386 2.543 . S
Sm361 O387 2.450 . S
Sm361 O388 2.681 . S
Sm361 O389 2.464 . S
Sm361 O390 2.396 . S
C362 Sm360 2.846 . S
C362 C363 1.506 . S
C362 O380 1.261 . S
C362 O381 1.242 . S
C363 C362 1.506 . S
C363 C364 1.358 . S
C363 C368 1.382 . S
C364 C363 1.358 . S
C364 C365 1.385 1_556 S
C364 H392 0.930 . S
C365 C364 1.385 1_554 S
C365 C366 1.395 . S
C365 H393 0.929 . S
C366 C365 1.395 . S
C366 C367 1.335 . S
C367 C366 1.335 . S
C367 C368 1.398 1_554 S
C367 H394 0.930 . S
C368 C363 1.382 . S
C368 C367 1.398 1_556 S
C368 H395 0.929 . S
C369 O382 1.271 . S
C369 O383 1.251 . S
C370 O384 1.252 . S
C370 O385 1.272 . S
C371 Sm361 2.846 . S
C371 C372 1.506 . S
C371 O386 1.261 . S
C371 O387 1.242 . S
C372 C371 1.506 . S
C372 C373 1.358 . S
C372 C377 1.382 . S
C373 C372 1.358 . S
C373 C374 1.385 . S
C373 H396 0.930 . S
C374 C373 1.385 . S
C374 C375 1.395 . S
C374 H397 0.929 . S
C375 C374 1.395 . S
C375 C376 1.335 . S
C376 C375 1.335 . S
C376 C377 1.398 . S
C376 H398 0.930 . S
C377 C372 1.382 . S
C377 C376 1.398 . S
C377 H399 0.929 . S
C378 O388 1.271 . S
C378 O389 1.251 . S
C379 O390 1.252 . S
C379 O391 1.272 . S
O380 Sm360 2.543 . S
O380 C362 1.261 . S
O381 Sm360 2.450 . S
O381 C362 1.242 . S
O382 Sm360 2.681 . S
O382 Sm361 2.386 . S
O382 C369 1.271 . S
O383 Sm360 2.464 . S
O383 C369 1.251 . S
O384 Sm360 2.396 . S
O384 C370 1.252 . S
O385 Sm361 2.408 . S
O385 C370 1.272 . S
O386 Sm361 2.543 . S
O386 C371 1.261 . S
O387 Sm361 2.450 . S
O387 C371 1.242 . S
O388 Sm360 2.386 . S
O388 Sm361 2.681 . S
O388 C378 1.271 . S
O389 Sm361 2.464 . S
O389 C378 1.251 . S
O390 Sm361 2.396 . S
O390 C379 1.252 . S
O391 Sm360 2.408 . S
O391 C379 1.272 . S
H392 C364 0.930 . S
H393 C365 0.929 . S
H394 C367 0.930 . S
H395 C368 0.929 . S
H396 C373 0.930 . S
H397 C374 0.929 . S
H398 C376 0.930 . S
H399 C377 0.929 . S
Sm400 C402 2.846 . S
Sm400 O420 2.543 . S
Sm400 O421 2.450 . S
Sm400 O422 2.681 . S
Sm400 O423 2.464 . S
Sm400 O424 2.396 . S
Sm400 O428 2.386 . S
Sm400 O431 2.408 . S
Sm401 C411 2.846 . S
Sm401 O422 2.386 . S
Sm401 O425 2.408 . S
Sm401 O426 2.543 . S
Sm401 O427 2.450 . S
Sm401 O428 2.681 . S
Sm401 O429 2.464 . S
Sm401 O430 2.396 . S
C402 Sm400 2.846 . S
C402 C403 1.506 . S
C402 O420 1.261 . S
C402 O421 1.242 . S
C403 C402 1.506 . S
C403 C404 1.358 . S
C403 C408 1.382 . S
C404 C403 1.358 . S
C404 C405 1.385 . S
C404 H432 0.930 . S
C405 C404 1.385 . S
C405 C406 1.395 . S
C405 H433 0.929 . S
C406 C405 1.395 . S
C406 C407 1.335 . S
C407 C406 1.335 . S
C407 C408 1.398 . S
C407 H434 0.930 . S
C408 C403 1.382 . S
C408 C407 1.398 . S
C408 H435 0.929 . S
C409 O422 1.271 . S
C409 O423 1.251 . S
C410 O424 1.252 . S
C410 O425 1.272 . S
C411 Sm401 2.846 . S
C411 C412 1.506 . S
C411 O426 1.261 . S
C411 O427 1.242 . S
C412 C411 1.506 . S
C412 C413 1.358 . S
C412 C417 1.382 . S
C413 C412 1.358 . S
C413 C414 1.385 1_554 S
C413 H436 0.930 . S
C414 C413 1.385 1_556 S
C414 C415 1.395 . S
C414 H437 0.929 . S
C415 C414 1.395 . S
C415 C416 1.335 . S
C416 C415 1.335 . S
C416 C417 1.398 1_556 S
C416 H438 0.930 . S
C417 C412 1.382 . S
C417 C416 1.398 1_554 S
C417 H439 0.929 . S
C418 O428 1.271 . S
C418 O429 1.251 . S
C419 O430 1.252 . S
C419 O431 1.272 . S
O420 Sm400 2.543 . S
O420 C402 1.261 . S
O421 Sm400 2.450 . S
O421 C402 1.242 . S
O422 Sm400 2.681 . S
O422 Sm401 2.386 . S
O422 C409 1.271 . S
O423 Sm400 2.464 . S
O423 C409 1.251 . S
O424 Sm400 2.396 . S
O424 C410 1.252 . S
O425 Sm401 2.408 . S
O425 C410 1.272 . S
O426 Sm401 2.543 . S
O426 C411 1.261 . S
O427 Sm401 2.450 . S
O427 C411 1.242 . S
O428 Sm400 2.386 . S
O428 Sm401 2.681 . S
O428 C418 1.271 . S
O429 Sm401 2.464 . S
O429 C418 1.251 . S
O430 Sm401 2.396 . S
O430 C419 1.252 . S
O431 Sm400 2.408 . S
O431 C419 1.272 . S
H432 C404 0.930 . S
H433 C405 0.929 . S
H434 C407 0.930 . S
H435 C408 0.929 . S
H436 C413 0.930 . S
H437 C414 0.929 . S
H438 C416 0.930 . S
H439 C417 0.929 . S
Sm440 C442 2.846 1_554 S
Sm440 O460 2.543 1_554 S
Sm440 O461 2.450 1_554 S
Sm440 O462 2.681 . S
Sm440 O463 2.464 . S
Sm440 O464 2.396 . S
Sm440 O468 2.386 . S
Sm440 O471 2.408 . S
Sm441 C451 2.846 . S
Sm441 O462 2.386 . S
Sm441 O465 2.408 1_565 S
Sm441 O466 2.543 . S
Sm441 O467 2.450 . S
Sm441 O468 2.681 . S
Sm441 O469 2.464 . S
Sm441 O470 2.396 . S
C442 Sm440 2.846 1_556 S
C442 C443 1.506 . S
C442 O460 1.261 . S
C442 O461 1.242 . S
C443 C442 1.506 . S
C443 C444 1.358 . S
C443 C448 1.382 . S
C444 C443 1.358 . S
C444 C445 1.385 . S
C444 H472 0.930 . S
C445 C444 1.385 . S
C445 C446 1.395 . S
C445 H473 0.929 . S
C446 C445 1.395 . S
C446 C447 1.335 . S
C447 C446 1.335 . S
C447 C448 1.398 . S
C447 H474 0.930 . S
C448 C443 1.382 . S
C448 C447 1.398 . S
C448 H475 0.929 . S
C449 O462 1.271 . S
C449 O463 1.251 . S
C450 O464 1.252 . S
C450 O465 1.272 1_565 S
C451 Sm441 2.846 . S
C451 C452 1.506 . S
C451 O466 1.261 . S
C451 O467 1.242 . S
C452 C451 1.506 . S
C452 C453 1.358 . S
C452 C457 1.382 . S
C453 C452 1.358 . S
C453 C454 1.385 . S
C453 H476 0.930 . S
C454 C453 1.385 . S
C454 C455 1.395 . S
C454 H477 0.929 . S
C455 C454 1.395 . S
C455 C456 1.335 . S
C456 C455 1.335 . S
C456 C457 1.398 . S
C456 H478 0.930 . S
C457 C452 1.382 . S
C457 C456 1.398 . S
C457 H479 0.929 . S
C458 O468 1.271 . S
C458 O469 1.251 . S
C459 O470 1.252 . S
C459 O471 1.272 . S
O460 Sm440 2.543 1_556 S
O460 C442 1.261 . S
O461 Sm440 2.450 1_556 S
O461 C442 1.242 . S
O462 Sm440 2.681 . S
O462 Sm441 2.386 . S
O462 C449 1.271 . S
O463 Sm440 2.464 . S
O463 C449 1.251 . S
O464 Sm440 2.396 . S
O464 C450 1.252 . S
O465 Sm441 2.408 1_545 S
O465 C450 1.272 1_545 S
O466 Sm441 2.543 . S
O466 C451 1.261 . S
O467 Sm441 2.450 . S
O467 C451 1.242 . S
O468 Sm440 2.386 . S
O468 Sm441 2.681 . S
O468 C458 1.271 . S
O469 Sm441 2.464 . S
O469 C458 1.251 . S
O470 Sm441 2.396 . S
O470 C459 1.252 . S
O471 Sm440 2.408 . S
O471 C459 1.272 . S
H472 C444 0.930 . S
H473 C445 0.929 . S
H474 C447 0.930 . S
H475 C448 0.929 . S
H476 C453 0.930 . S
H477 C454 0.929 . S
H478 C456 0.930 . S
H479 C457 0.929 . S
Sm480 C482 2.846 . S
Sm480 O500 2.543 . S
Sm480 O501 2.450 . S
Sm480 O502 2.681 . S
Sm480 O503 2.464 . S
Sm480 O504 2.396 . S
Sm480 O508 2.386 . S
Sm480 O511 2.408 . S
Sm481 C491 2.846 1_554 S
Sm481 O502 2.386 . S
Sm481 O505 2.408 . S
Sm481 O506 2.543 1_554 S
Sm481 O507 2.450 1_554 S
Sm481 O508 2.681 . S
Sm481 O509 2.464 . S
Sm481 O510 2.396 . S
C482 Sm480 2.846 . S
C482 C483 1.506 . S
C482 O500 1.261 . S
C482 O501 1.242 . S
C483 C482 1.506 . S
C483 C484 1.358 . S
C483 C488 1.382 . S
C484 C483 1.358 . S
C484 C485 1.385 . S
C484 H512 0.930 . S
C485 C484 1.385 . S
C485 C486 1.395 . S
C485 H513 0.929 . S
C486 C485 1.395 . S
C486 C487 1.335 . S
C487 C486 1.335 . S
C487 C488 1.398 . S
C487 H514 0.930 . S
C488 C483 1.382 . S
C488 C487 1.398 . S
C488 H515 0.929 . S
C489 O502 1.271 . S
C489 O503 1.251 . S
C490 O504 1.252 . S
C490 O505 1.272 . S
C491 Sm481 2.846 1_556 S
C491 C492 1.506 . S
C491 O506 1.261 . S
C491 O507 1.242 . S
C492 C491 1.506 . S
C492 C493 1.358 . S
C492 C497 1.382 . S
C493 C492 1.358 . S
C493 C494 1.385 . S
C493 H516 0.930 . S
C494 C493 1.385 . S
C494 C495 1.395 . S
C494 H517 0.929 . S
C495 C494 1.395 . S
C495 C496 1.335 . S
C496 C495 1.335 . S
C496 C497 1.398 . S
C496 H518 0.930 . S
C497 C492 1.382 . S
C497 C496 1.398 . S
C497 H519 0.929 . S
C498 O508 1.271 . S
C498 O509 1.251 . S
C499 O510 1.252 . S
C499 O511 1.272 . S
O500 Sm480 2.543 . S
O500 C482 1.261 . S
O501 Sm480 2.450 . S
O501 C482 1.242 . S
O502 Sm480 2.681 . S
O502 Sm481 2.386 . S
O502 C489 1.271 . S
O503 Sm480 2.464 . S
O503 C489 1.251 . S
O504 Sm480 2.396 . S
O504 C490 1.252 . S
O505 Sm481 2.408 . S
O505 C490 1.272 . S
O506 Sm481 2.543 1_556 S
O506 C491 1.261 . S
O507 Sm481 2.450 1_556 S
O507 C491 1.242 . S
O508 Sm480 2.386 . S
O508 Sm481 2.681 . S
O508 C498 1.271 . S
O509 Sm481 2.464 . S
O509 C498 1.251 . S
O510 Sm481 2.396 . S
O510 C499 1.252 . S
O511 Sm480 2.408 . S
O511 C499 1.272 . S
H512 C484 0.930 . S
H513 C485 0.929 . S
H514 C487 0.930 . S
H515 C488 0.929 . S
H516 C493 0.930 . S
H517 C494 0.929 . S
H518 C496 0.930 . S
H519 C497 0.929 . S
Sm520 C522 2.846 1_556 S
Sm520 O540 2.543 1_556 S
Sm520 O541 2.450 1_556 S
Sm520 O542 2.681 . S
Sm520 O543 2.464 . S
Sm520 O544 2.396 . S
Sm520 O548 2.386 . S
Sm520 O551 2.408 . S
Sm521 C531 2.846 . S
Sm521 O542 2.386 . S
Sm521 O545 2.408 1_545 S
Sm521 O546 2.543 . S
Sm521 O547 2.450 . S
Sm521 O548 2.681 . S
Sm521 O549 2.464 . S
Sm521 O550 2.396 . S
C522 Sm520 2.846 1_554 S
C522 C523 1.506 . S
C522 O540 1.261 . S
C522 O541 1.242 . S
C523 C522 1.506 . S
C523 C524 1.358 . S
C523 C528 1.382 . S
C524 C523 1.358 . S
C524 C525 1.385 . S
C524 H552 0.930 . S
C525 C524 1.385 . S
C525 C526 1.395 . S
C525 H553 0.929 . S
C526 C525 1.395 . S
C526 C527 1.335 . S
C527 C526 1.335 . S
C527 C528 1.398 . S
C527 H554 0.930 . S
C528 C523 1.382 . S
C528 C527 1.398 . S
C528 H555 0.929 . S
C529 O542 1.271 . S
C529 O543 1.251 . S
C530 O544 1.252 . S
C530 O545 1.272 1_545 S
C531 Sm521 2.846 . S
C531 C532 1.506 . S
C531 O546 1.261 . S
C531 O547 1.242 . S
C532 C531 1.506 . S
C532 C533 1.358 . S
C532 C537 1.382 . S
C533 C532 1.358 . S
C533 C534 1.385 . S
C533 H556 0.930 . S
C534 C533 1.385 . S
C534 C535 1.395 . S
C534 H557 0.929 . S
C535 C534 1.395 . S
C535 C536 1.335 . S
C536 C535 1.335 . S
C536 C537 1.398 . S
C536 H558 0.930 . S
C537 C532 1.382 . S
C537 C536 1.398 . S
C537 H559 0.929 . S
C538 O548 1.271 . S
C538 O549 1.251 . S
C539 O550 1.252 . S
C539 O551 1.272 . S
O540 Sm520 2.543 1_554 S
O540 C522 1.261 . S
O541 Sm520 2.450 1_554 S
O541 C522 1.242 . S
O542 Sm520 2.681 . S
O542 Sm521 2.386 . S
O542 C529 1.271 . S
O543 Sm520 2.464 . S
O543 C529 1.251 . S
O544 Sm520 2.396 . S
O544 C530 1.252 . S
O545 Sm521 2.408 1_565 S
O545 C530 1.272 1_565 S
O546 Sm521 2.543 . S
O546 C531 1.261 . S
O547 Sm521 2.450 . S
O547 C531 1.242 . S
O548 Sm520 2.386 . S
O548 Sm521 2.681 . S
O548 C538 1.271 . S
O549 Sm521 2.464 . S
O549 C538 1.251 . S
O550 Sm521 2.396 . S
O550 C539 1.252 . S
O551 Sm520 2.408 . S
O551 C539 1.272 . S
H552 C524 0.930 . S
H553 C525 0.929 . S
H554 C527 0.930 . S
H555 C528 0.929 . S
H556 C533 0.930 . S
H557 C534 0.929 . S
H558 C536 0.930 . S
H559 C537 0.929 . S
Sm560 C562 2.846 . S
Sm560 O580 2.543 . S
Sm560 O581 2.450 . S
Sm560 O582 2.681 . S
Sm560 O583 2.464 . S
Sm560 O584 2.396 . S
Sm560 O588 2.386 . S
Sm560 O591 2.408 . S
Sm561 C571 2.846 . S
Sm561 O582 2.386 . S
Sm561 O585 2.408 . S
Sm561 O586 2.543 . S
Sm561 O587 2.450 . S
Sm561 O588 2.681 . S
Sm561 O589 2.464 . S
Sm561 O590 2.396 . S
C562 Sm560 2.846 . S
C562 C563 1.506 . S
C562 O580 1.261 . S
C562 O581 1.242 . S
C563 C562 1.506 . S
C563 C564 1.358 . S
C563 C568 1.382 . S
C564 C563 1.358 . S
C564 C565 1.385 . S
C564 H592 0.930 . S
C565 C564 1.385 . S
C565 C566 1.395 . S
C565 H593 0.929 . S
C566 C565 1.395 . S
C566 C567 1.335 . S
C567 C566 1.335 . S
C567 C568 1.398 . S
C567 H594 0.930 . S
C568 C563 1.382 . S
C568 C567 1.398 . S
C568 H595 0.929 . S
C569 O582 1.271 . S
C569 O583 1.251 . S
C570 O584 1.252 . S
C570 O585 1.272 . S
C571 Sm561 2.846 . S
C571 C572 1.506 . S
C571 O586 1.261 . S
C571 O587 1.242 . S
C572 C571 1.506 . S
C572 C573 1.358 . S
C572 C577 1.382 . S
C573 C572 1.358 . S
C573 C574 1.385 1_556 S
C573 H596 0.930 . S
C574 C573 1.385 1_554 S
C574 C575 1.395 . S
C574 H597 0.929 . S
C575 C574 1.395 . S
C575 C576 1.335 . S
C576 C575 1.335 . S
C576 C577 1.398 1_554 S
C576 H598 0.930 . S
C577 C572 1.382 . S
C577 C576 1.398 1_556 S
C577 H599 0.929 . S
C578 O588 1.271 . S
C578 O589 1.251 . S
C579 O590 1.252 . S
C579 O591 1.272 . S
O580 Sm560 2.543 . S
O580 C562 1.261 . S
O581 Sm560 2.450 . S
O581 C562 1.242 . S
O582 Sm560 2.681 . S
O582 Sm561 2.386 . S
O582 C569 1.271 . S
O583 Sm560 2.464 . S
O583 C569 1.251 . S
O584 Sm560 2.396 . S
O584 C570 1.252 . S
O585 Sm561 2.408 . S
O585 C570 1.272 . S
O586 Sm561 2.543 . S
O586 C571 1.261 . S
O587 Sm561 2.450 . S
O587 C571 1.242 . S
O588 Sm560 2.386 . S
O588 Sm561 2.681 . S
O588 C578 1.271 . S
O589 Sm561 2.464 . S
O589 C578 1.251 . S
O590 Sm561 2.396 . S
O590 C579 1.252 . S
O591 Sm560 2.408 . S
O591 C579 1.272 . S
H592 C564 0.930 . S
H593 C565 0.929 . S
H594 C567 0.930 . S
H595 C568 0.929 . S
H596 C573 0.930 . S
H597 C574 0.929 . S
H598 C576 0.930 . S
H599 C577 0.929 . S
Sm600 C602 2.846 . S
Sm600 O620 2.543 . S
Sm600 O621 2.450 . S
Sm600 O622 2.681 . S
Sm600 O623 2.464 . S
Sm600 O624 2.396 . S
Sm600 O628 2.386 . S
Sm600 O631 2.408 . S
Sm601 C611 2.846 . S
Sm601 O622 2.386 . S
Sm601 O625 2.408 . S
Sm601 O626 2.543 . S
Sm601 O627 2.450 . S
Sm601 O628 2.681 . S
Sm601 O629 2.464 . S
Sm601 O630 2.396 . S
C602 Sm600 2.846 . S
C602 C603 1.506 . S
C602 O620 1.261 . S
C602 O621 1.242 . S
C603 C602 1.506 . S
C603 C604 1.358 . S
C603 C608 1.382 . S
C604 C603 1.358 . S
C604 C605 1.385 1_554 S
C604 H632 0.930 . S
C605 C604 1.385 1_556 S
C605 C606 1.395 . S
C605 H633 0.929 . S
C606 C605 1.395 . S
C606 C607 1.335 . S
C607 C606 1.335 . S
C607 C608 1.398 1_556 S
C607 H634 0.930 . S
C608 C603 1.382 . S
C608 C607 1.398 1_554 S
C608 H635 0.929 . S
C609 O622 1.271 . S
C609 O623 1.251 . S
C610 O624 1.252 . S
C610 O625 1.272 . S
C611 Sm601 2.846 . S
C611 C612 1.506 . S
C611 O626 1.261 . S
C611 O627 1.242 . S
C612 C611 1.506 . S
C612 C613 1.358 . S
C612 C617 1.382 . S
C613 C612 1.358 . S
C613 C614 1.385 . S
C613 H636 0.930 . S
C614 C613 1.385 . S
C614 C615 1.395 . S
C614 H637 0.929 . S
C615 C614 1.395 . S
C615 C616 1.335 . S
C616 C615 1.335 . S
C616 C617 1.398 . S
C616 H638 0.930 . S
C617 C612 1.382 . S
C617 C616 1.398 . S
C617 H639 0.929 . S
C618 O628 1.271 . S
C618 O629 1.251 . S
C619 O630 1.252 . S
C619 O631 1.272 . S
O620 Sm600 2.543 . S
O620 C602 1.261 . S
O621 Sm600 2.450 . S
O621 C602 1.242 . S
O622 Sm600 2.681 . S
O622 Sm601 2.386 . S
O622 C609 1.271 . S
O623 Sm600 2.464 . S
O623 C609 1.251 . S
O624 Sm600 2.396 . S
O624 C610 1.252 . S
O625 Sm601 2.408 . S
O625 C610 1.272 . S
O626 Sm601 2.543 . S
O626 C611 1.261 . S
O627 Sm601 2.450 . S
O627 C611 1.242 . S
O628 Sm600 2.386 . S
O628 Sm601 2.681 . S
O628 C618 1.271 . S
O629 Sm601 2.464 . S
O629 C618 1.251 . S
O630 Sm601 2.396 . S
O630 C619 1.252 . S
O631 Sm600 2.408 . S
O631 C619 1.272 . S
H632 C604 0.930 . S
H633 C605 0.929 . S
H634 C607 0.930 . S
H635 C608 0.929 . S
H636 C613 0.930 . S
H637 C614 0.929 . S
H638 C616 0.930 . S
H639 C617 0.929 . S
C6 C15 2.681 . S
C55 C46 2.681 . S
C95 C86 2.338 . S
C126 C135 2.338 . S
C166 C175 2.681 . S
C215 C206 2.338 . S
C255 C246 2.338 . S
C295 C286 2.681 . S
C335 C326 2.681 . S
C375 C366 2.681 . S
C415 C406 2.338 . S
C455 C446 2.338 . S
C495 C486 2.681 . S
C535 C526 2.338 . S
C566 C575 2.338 . S
C606 C615 2.681 . S
C9 C459 1.878 . S
C50 C619 2.023 . S
C90 C378 1.878 . S
C129 C538 1.759 1_655 S
C169 C539 1.878 . S
C458 C209 1.759 1_455 S
C250 C618 1.878 . S
C290 C379 2.023 . S
C130 C338 1.878 . S
C49 C419 1.878 . S
C498 C210 1.878 . S
C289 C579 1.878 . S
C339 C170 2.023 1_655 S
C249 C418 1.759 . S
C89 C578 1.759 . S
C10 C499 2.023 1_455 S
C18 C178 3.095 1_554 S
C59 C218 3.149 . S
C99 C259 3.326 . S
C138 C299 3.149 . S
C489 C329 3.095 1_554 S
C529 C370 3.149 . S
C410 C570 3.326 . S
C610 C449 3.149 . S
C58 C298 3.095 1_565 S
C179 C98 3.149 . S
C219 C139 3.326 1_564 S
C19 C258 3.149 . S
C609 C369 3.095 1_565 S
C490 C409 3.149 . S
C530 C450 3.326 1_546 S
C569 C330 3.149 . S
