# Generated by pormake.
# Topology smk, (6)-cn, num edge types: 1
# Building blocks:
#     Node 0, Type 0, BuildingBlock: VOLQOD_clean_sbu_1, # of connection points: 6
#     Node 1, Type 0, BuildingBlock: VOLQOD_clean_sbu_1, # of connection points: 6
#     Node 2, Type 0, BuildingBlock: VOLQOD_clean_sbu_1, # of connection points: 6
#     Node 3, Type 0, BuildingBlock: VOLQOD_clean_sbu_1, # of connection points: 6
#     Node 4, Type 0, BuildingBlock: VOLQOD_clean_sbu_1, # of connection points: 6
#     Node 5, Type 0, BuildingBlock: VOLQOD_clean_sbu_1, # of connection points: 6
#     Edge 6, Type (0, 0), BuildingBlock: UVAHIK_clean_linker_0, # of connection points: 2
#     Edge 7, Type (0, 0), BuildingBlock: UVAHIK_clean_linker_0, # of connection points: 2
#     Edge 8, Type (0, 0), BuildingBlock: UVAHIK_clean_linker_0, # of connection points: 2
#     Edge 9, Type (0, 0), BuildingBlock: UVAHIK_clean_linker_0, # of connection points: 2
#     Edge 10, Type (0, 0), BuildingBlock: UVAHIK_clean_linker_0, # of connection points: 2
#     Edge 11, Type (0, 0), BuildingBlock: UVAHIK_clean_linker_0, # of connection points: 2
#     Edge 12, Type (0, 0), BuildingBlock: UVAHIK_clean_linker_0, # of connection points: 2
#     Edge 13, Type (0, 0), BuildingBlock: UVAHIK_clean_linker_0, # of connection points: 2
#     Edge 14, Type (0, 0), BuildingBlock: UVAHIK_clean_linker_0, # of connection points: 2
#     Edge 15, Type (0, 0), BuildingBlock: UVAHIK_clean_linker_0, # of connection points: 2
#     Edge 16, Type (0, 0), BuildingBlock: UVAHIK_clean_linker_0, # of connection points: 2
#     Edge 17, Type (0, 0), BuildingBlock: UVAHIK_clean_linker_0, # of connection points: 2
#     Edge 18, Type (0, 0), BuildingBlock: UVAHIK_clean_linker_0, # of connection points: 2
#     Edge 19, Type (0, 0), BuildingBlock: UVAHIK_clean_linker_0, # of connection points: 2
#     Edge 20, Type (0, 0), BuildingBlock: UVAHIK_clean_linker_0, # of connection points: 2
#     Edge 21, Type (0, 0), BuildingBlock: UVAHIK_clean_linker_0, # of connection points: 2
#     Edge 22, Type (0, 0), BuildingBlock: UVAHIK_clean_linker_0, # of connection points: 2
#     Edge 23, Type (0, 0), BuildingBlock: UVAHIK_clean_linker_0, # of connection points: 2
# Relax obj value: 0.161
# Max RMSD: 0.170
# Mean RMSD: 0.170
data_MOF--net-smk--node1-VOLQOD_clean_sbu_1--edge1-UVAHIK_clean_linker_0
_symmetry_space_group_name_H-M    P1
_symmetry_Int_Tables_number       1
_symmetry_cell_setting            triclinic
loop_
_symmetry_equiv_pos_as_xyz
'x, y, z'
_cell_length_a     55.992664
_cell_length_b     56.002345
_cell_length_c     21.564282
_cell_angle_alpha  89.976432
_cell_angle_beta   89.90801
_cell_angle_gamma 119.97748
loop_
_atom_site_label
_atom_site_type_symbol
_atom_site_fract_x
_atom_site_fract_y
_atom_site_fract_z
_atom_type_partial_charge
O0 O 0.43435 0.23824 0.70487 0.0
Zn1 Zn 0.43129 0.24384 0.61357 0.0
O2 O 0.42272 0.21084 0.56741 0.0
Zn3 Zn 0.45426 0.21811 0.51686 0.0
Zn4 Zn 0.41536 0.18167 0.6252 0.0
Zn5 Zn 0.39009 0.19944 0.51671 0.0
O6 O 0.44306 0.2093 0.42784 0.0
O7 O 0.40101 0.20438 0.42721 0.0
O8 O 0.4655 0.27744 0.58136 0.0
O9 O 0.48207 0.25839 0.5168 0.0
O10 O 0.47378 0.19878 0.54998 0.0
O11 O 0.44774 0.17554 0.63042 0.0
O12 O 0.38197 0.14614 0.60087 0.0
O13 O 0.40013 0.25123 0.6056 0.0
O14 O 0.36324 0.1589 0.52675 0.0
O15 O 0.37079 0.22082 0.53813 0.0
C16 C 0.42171 0.21598 0.73607 0.0
C17 C 0.42193 0.20639 0.39891 0.0
C18 C 0.46918 0.18332 0.59712 0.0
C19 C 0.48376 0.2795 0.54305 0.0
C20 C 0.36303 0.14033 0.56121 0.0
C21 C 0.3777 0.24095 0.5752 0.0
O22 O 0.41026 0.19242 0.71017 0.0
O23 O 0.1909 0.44232 0.86253 0.0
Zn24 Zn 0.182 0.4371 0.77089 0.0
O25 O 0.20715 0.42856 0.72731 0.0
Zn26 Zn 0.23176 0.45939 0.67607 0.0
Zn27 Zn 0.22815 0.42181 0.78798 0.0
Zn28 Zn 0.18718 0.39593 0.67648 0.0
O29 O 0.2306 0.44763 0.58758 0.0
O30 O 0.19192 0.40683 0.58671 0.0
O31 O 0.18152 0.47014 0.73298 0.0
O32 O 0.21765 0.48559 0.67013 0.0
O33 O 0.27023 0.4801 0.71195 0.0
O34 O 0.26626 0.45452 0.79422 0.0
O35 O 0.2319 0.3892 0.76479 0.0
O36 O 0.14398 0.40423 0.76575 0.0
O37 O 0.20315 0.37092 0.68559 0.0
O38 O 0.14694 0.37501 0.70071 0.0
C39 C 0.19958 0.4294 0.89581 0.0
C40 C 0.21154 0.42719 0.5584 0.0
C41 C 0.28036 0.4758 0.76078 0.0
C42 C 0.19767 0.48744 0.69285 0.0
C43 C 0.22087 0.371 0.72261 0.0
C44 C 0.13299 0.38121 0.73741 0.0
O45 O 0.21108 0.41687 0.87189 0.0
O46 O 0.74994 0.19341 0.03434 0.0
Zn47 Zn 0.74517 0.18455 0.9427 0.0
O48 O 0.77881 0.20921 0.89782 0.0
Zn49 Zn 0.77261 0.23372 0.84643 0.0
Zn50 Zn 0.80724 0.23058 0.95688 0.0
Zn51 Zn 0.79094 0.18869 0.84719 0.0
O52 O 0.78297 0.23225 0.75801 0.0
O53 O 0.78532 0.19368 0.75746 0.0
O54 O 0.71163 0.18505 0.90763 0.0
O55 O 0.73239 0.22008 0.84199 0.0
O56 O 0.7906 0.27227 0.88158 0.0
O57 O 0.81285 0.2688 0.96304 0.0
O58 O 0.84331 0.23367 0.9332 0.0
O59 O 0.73897 0.1461 0.93663 0.0
O60 O 0.83173 0.20356 0.85646 0.0
O61 O 0.7708 0.14849 0.8711 0.0
C62 C 0.77193 0.20222 0.06617 0.0
C63 C 0.7846 0.21327 0.72905 0.0
C64 C 0.80536 0.28268 0.9298 0.0
C65 C 0.71056 0.20095 0.86674 0.0
C66 C 0.84983 0.22158 0.89218 0.0
C67 C 0.75058 0.13476 0.90779 0.0
O68 O 0.79568 0.21385 0.04093 0.0
O69 O 0.55341 0.7517 0.19892 0.0
Zn70 Zn 0.55799 0.74718 0.10739 0.0
O71 O 0.56756 0.78107 0.06278 0.0
Zn72 Zn 0.53826 0.77579 0.00716 0.0
Zn73 Zn 0.57348 0.80969 0.1203 0.0
Zn74 Zn 0.60084 0.79261 0.01473 0.0
O75 O 0.55267 0.78753 0.92058 0.0
O76 O 0.59133 0.78548 0.92458 0.0
O77 O 0.52407 0.71442 0.06989 0.0
O78 O 0.51169 0.73547 0.00036 0.0
O79 O 0.51699 0.79407 0.03761 0.0
O80 O 0.54208 0.81698 0.11897 0.0
O81 O 0.60803 0.84507 0.10064 0.0
O82 O 0.58972 0.74005 0.10341 0.0
O83 O 0.62657 0.83351 0.02357 0.0
O84 O 0.6207 0.77275 0.042 0.0
C85 C 0.56286 0.77363 0.23126 0.0
C86 C 0.57264 0.78686 0.89386 0.0
C87 C 0.52122 0.80961 0.08433 0.0
C88 C 0.50818 0.71355 0.02647 0.0
C89 C 0.62683 0.85152 0.06005 0.0
C90 C 0.61331 0.75198 0.07734 0.0
O91 O 0.57359 0.79742 0.20652 0.0
O92 O 0.79659 0.5516 0.37469 0.0
Zn93 Zn 0.80504 0.55556 0.28264 0.0
O94 O 0.78103 0.56529 0.2382 0.0
Zn95 Zn 0.75553 0.53454 0.18783 0.0
Zn96 Zn 0.76105 0.57329 0.29885 0.0
Zn97 Zn 0.80182 0.59781 0.1873 0.0
O98 O 0.75647 0.54651 0.0995 0.0
O99 O 0.79571 0.58687 0.09773 0.0
O100 O 0.80377 0.52144 0.24668 0.0
O101 O 0.76876 0.50749 0.18127 0.0
O102 O 0.71725 0.51459 0.22603 0.0
O103 O 0.72322 0.54081 0.30833 0.0
O104 O 0.75765 0.60598 0.27479 0.0
O105 O 0.84367 0.587 0.27494 0.0
O106 O 0.78774 0.62443 0.19776 0.0
O107 O 0.84236 0.6169 0.20911 0.0
C108 C 0.78931 0.56602 0.4068 0.0
C109 C 0.7756 0.56684 0.06994 0.0
C110 C 0.70827 0.51938 0.27619 0.0
C111 C 0.78788 0.50467 0.20561 0.0
C112 C 0.76977 0.62458 0.23377 0.0
C113 C 0.85565 0.60977 0.24548 0.0
O114 O 0.77886 0.57927 0.38175 0.0
O115 O 0.24341 0.80178 0.52455 0.0
Zn116 Zn 0.24714 0.81086 0.43314 0.0
O117 O 0.21385 0.78485 0.38939 0.0
Zn118 Zn 0.22115 0.76119 0.33684 0.0
Zn119 Zn 0.18536 0.76199 0.4475 0.0
Zn120 Zn 0.20113 0.80507 0.33918 0.0
O121 O 0.21121 0.76369 0.24857 0.0
O122 O 0.20938 0.80253 0.24977 0.0
O123 O 0.28104 0.81206 0.39566 0.0
O124 O 0.26166 0.77513 0.33473 0.0
O125 O 0.20262 0.72176 0.36716 0.0
O126 O 0.17756 0.7231 0.44521 0.0
O127 O 0.14983 0.76089 0.42889 0.0
O128 O 0.25165 0.84855 0.42901 0.0
O129 O 0.1599 0.78818 0.34675 0.0
O130 O 0.21889 0.84494 0.36534 0.0
C131 C 0.22182 0.78814 0.55758 0.0
C132 C 0.21034 0.78327 0.22046 0.0
C133 C 0.18582 0.70996 0.41176 0.0
C134 C 0.28294 0.79556 0.35787 0.0
C135 C 0.14251 0.77142 0.38583 0.0
C136 C 0.23897 0.85912 0.40178 0.0
O137 O 0.19798 0.7741 0.53369 0.0
C138 C 0.39718 0.19341 0.29782 0.0
C139 C 0.42211 0.20655 0.33078 0.0
C140 C 0.39727 0.19458 0.23325 0.0
C141 C 0.43389 0.2371 0.10386 0.0
H142 H 0.40103 0.17002 0.00638 0.0
C143 C 0.44268 0.23826 0.83702 0.0
C144 C 0.42077 0.21714 0.80397 0.0
C145 C 0.44272 0.23774 0.90175 0.0
C146 C 0.40982 0.18897 0.03279 0.0
H147 H 0.46661 0.23128 0.3226 0.0
H148 H 0.46661 0.2339 0.20923 0.0
H149 H 0.40116 0.16718 0.11906 0.0
H150 H 0.381 0.17989 0.8118 0.0
H151 H 0.38027 0.17971 0.92446 0.0
H152 H 0.44167 0.25901 0.01826 0.0
C153 C 0.44716 0.22249 0.23364 0.0
C154 C 0.41007 0.18726 0.09719 0.0
C155 C 0.44713 0.22082 0.29818 0.0
C156 C 0.39834 0.1962 0.83639 0.0
C157 C 0.39807 0.196 0.90094 0.0
C158 C 0.43315 0.23884 0.03941 0.0
C159 C 0.42223 0.20939 0.20092 0.0
C160 C 0.42218 0.2113 0.13301 0.0
C161 C 0.42054 0.21639 0.93446 0.0
C162 C 0.42113 0.21477 0.00307 0.0
H163 H 0.37763 0.18223 0.32194 0.0
H164 H 0.37784 0.1844 0.20857 0.0
H165 H 0.44312 0.25587 0.13104 0.0
H166 H 0.46028 0.25455 0.81288 0.0
H167 H 0.46053 0.2536 0.92593 0.0
C168 C 0.19746 0.4035 0.45593 0.0
C169 C 0.21105 0.42801 0.49017 0.0
C170 C 0.1954 0.40434 0.39157 0.0
C171 C 0.22411 0.45157 0.2557 0.0
H172 H 0.15837 0.39418 0.17575 0.0
C173 C 0.19849 0.45194 -0.005 0.0
C174 C 0.19698 0.42924 0.96372 0.0
C175 C 0.19844 0.45254 0.05982 0.0
C176 C 0.17674 0.41036 0.19774 0.0
H177 H 0.23303 0.47262 0.48436 0.0
H178 H 0.22849 0.47418 0.37252 0.0
H179 H 0.16238 0.39415 0.28836 0.0
H180 H 0.193 0.38892 0.97498 0.0
H181 H 0.19198 0.38963 0.08824 0.0
H182 H 0.23794 0.46801 0.16448 0.0
C183 C 0.22019 0.45425 0.39472 0.0
C184 C 0.17924 0.41024 0.26209 0.0
C185 C 0.22274 0.45339 0.45894 0.0
C186 C 0.19433 0.40673 -0.00193 0.0
C187 C 0.19362 0.40705 0.06264 0.0
C188 C 0.2213 0.45198 0.19146 0.0
C189 C 0.20635 0.42973 0.36018 0.0
C190 C 0.20317 0.43058 0.29187 0.0
C191 C 0.19614 0.43013 0.09393 0.0
C192 C 0.19779 0.43117 0.16207 0.0
H193 H 0.18842 0.38365 0.4789 0.0
H194 H 0.18523 0.38502 0.36654 0.0
H195 H 0.24302 0.46732 0.27664 0.0
H196 H 0.20066 0.46959 0.96947 0.0
H197 H 0.2004 0.47052 0.08334 0.0
C198 C 0.75024 0.20226 0.16741 0.0
C199 C 0.77035 0.19969 0.13403 0.0
C200 C 0.75087 0.20282 0.2322 0.0
C201 C 0.79937 0.21559 0.36207 0.0
H202 H 0.73321 0.1871 0.46263 0.0
C203 C 0.79564 0.19976 0.62746 0.0
C204 C 0.78411 0.21308 0.66085 0.0
C205 C 0.79395 0.1984 0.56292 0.0
C206 C 0.75179 0.19521 0.43481 0.0
H207 H 0.80569 0.19386 0.14127 0.0
H208 H 0.80592 0.19324 0.25389 0.0
H209 H 0.72919 0.18216 0.34995 0.0
H210 H 0.76165 0.23524 0.65341 0.0
H211 H 0.75812 0.23218 0.5402 0.0
H212 H 0.82178 0.22764 0.44754 0.0
C213 C 0.79045 0.19619 0.23068 0.0
C214 C 0.74956 0.19253 0.37039 0.0
C215 C 0.7902 0.1963 0.16614 0.0
C216 C 0.7709 0.22505 0.62867 0.0
C217 C 0.76869 0.22315 0.56421 0.0
C218 C 0.80153 0.21773 0.42642 0.0
C219 C 0.77128 0.20022 0.26459 0.0
C220 C 0.77335 0.2027 0.3332 0.0
C221 C 0.78019 0.20979 0.53103 0.0
C222 C 0.77778 0.20763 0.46312 0.0
H223 H 0.73481 0.20505 0.14348 0.0
H224 H 0.73594 0.20623 0.25665 0.0
H225 H 0.81819 0.22435 0.33505 0.0
H226 H 0.80596 0.1904 0.65121 0.0
H227 H 0.8029 0.18797 0.53795 0.0
C228 C 0.55739 0.7912 0.33246 0.0
C229 C 0.56133 0.77195 0.29919 0.0
C230 C 0.55814 0.79152 0.39691 0.0
C231 C 0.55707 0.75144 0.53518 0.0
H232 H 0.59002 0.82361 0.61233 0.0
C233 C 0.58642 0.77361 0.79543 0.0
C234 C 0.57329 0.78616 0.82572 0.0
C235 C 0.58553 0.77133 0.73094 0.0
C236 C 0.58077 0.80337 0.59121 0.0
H237 H 0.56854 0.7375 0.30646 0.0
H238 H 0.5711 0.73872 0.41975 0.0
H239 H 0.58725 0.81995 0.4998 0.0
H240 H 0.54956 0.80674 0.81266 0.0
H241 H 0.54887 0.80356 0.69945 0.0
H242 H 0.55158 0.7352 0.62752 0.0
C243 C 0.5667 0.75316 0.39616 0.0
C244 C 0.57893 0.80117 0.52687 0.0
C245 C 0.56532 0.75246 0.33138 0.0
C246 C 0.5598 0.79694 0.79043 0.0
C247 C 0.55944 0.79518 0.72591 0.0
C248 C 0.55942 0.75373 0.59966 0.0
C249 C 0.56356 0.77303 0.42959 0.0
C250 C 0.56661 0.77516 0.49804 0.0
C251 C 0.57204 0.78211 0.69589 0.0
C252 C 0.57093 0.77969 0.62796 0.0
H253 H 0.55383 0.80617 0.30853 0.0
H254 H 0.55469 0.80649 0.42103 0.0
H255 H 0.54722 0.73109 0.51468 0.0
H256 H 0.59679 0.76495 0.82162 0.0
H257 H 0.59547 0.76129 0.7084 0.0
C258 C 0.78768 0.54347 0.50795 0.0
C259 C 0.79178 0.56676 0.47472 0.0
C260 C 0.78669 0.54335 0.57275 0.0
C261 C 0.77534 0.58036 0.70236 0.0
H262 H 0.7996 0.53936 0.8039 0.0
C263 C 0.78932 0.59127 0.96814 0.0
C264 C 0.77544 0.56648 0.00167 0.0
C265 C 0.79071 0.59088 0.90358 0.0
C266 C 0.79263 0.55074 0.77582 0.0
H267 H 0.79993 0.60875 0.48238 0.0
H268 H 0.79979 0.60918 0.59503 0.0
H269 H 0.80544 0.54043 0.69143 0.0
H270 H 0.75217 0.52189 -0.00568 0.0
H271 H 0.75523 0.52129 0.88108 0.0
H272 H 0.76353 0.59144 0.78736 0.0
C273 C 0.79598 0.5905 0.57165 0.0
C274 C 0.79585 0.5513 0.71149 0.0
C275 C 0.79634 0.59038 0.50708 0.0
C276 C 0.76281 0.5413 0.96952 0.0
C277 C 0.76471 0.54092 0.905 0.0
C278 C 0.77264 0.58022 0.76663 0.0
C279 C 0.79034 0.56673 0.60536 0.0
C280 C 0.78725 0.56615 0.67391 0.0
C281 C 0.77874 0.5657 0.8717 0.0
C282 C 0.78122 0.5654 0.80375 0.0
H283 H 0.78395 0.52495 0.48387 0.0
H284 H 0.78205 0.52458 0.597 0.0
H285 H 0.76777 0.59141 0.67503 0.0
H286 H 0.79921 0.61095 -0.00817 0.0
H287 H 0.80168 0.61022 0.87862 0.0
C288 C 0.22256 0.80966 0.12116 0.0
C289 C 0.2117 0.78428 0.15233 0.0
C290 C 0.22509 0.8108 0.05671 0.0
C291 C 0.19472 0.7722 0.91869 0.0
H292 H 0.26607 0.81564 0.83952 0.0
C293 C 0.20629 0.76392 0.65828 0.0
C294 C 0.22405 0.78795 0.62532 0.0
C295 C 0.20653 0.76382 0.72275 0.0
C296 C 0.24594 0.80376 0.86078 0.0
H297 H 0.19454 0.74022 0.1409 0.0
H298 H 0.1981 0.7422 0.02768 0.0
H299 H 0.26245 0.8155 0.95258 0.0
H300 H 0.25645 0.83054 0.63305 0.0
H301 H 0.25606 0.83089 0.74645 0.0
H302 H 0.17776 0.7612 0.82792 0.0
C303 C 0.205 0.76113 0.05346 0.0
C304 C 0.24395 0.8036 0.92537 0.0
C305 C 0.20301 0.76004 0.11797 0.0
C306 C 0.24264 0.81175 0.65774 0.0
C307 C 0.24244 0.81186 0.72258 0.0
C308 C 0.19657 0.77277 0.85427 0.0
C309 C 0.21624 0.78653 0.02256 0.0
C310 C 0.21837 0.78757 0.95458 0.0
C311 C 0.22403 0.78797 0.75581 0.0
C312 C 0.22225 0.78823 0.82446 0.0
H313 H 0.2296 0.82868 0.14664 0.0
H314 H 0.23368 0.83056 0.03346 0.0
H315 H 0.17474 0.75999 0.94054 0.0
H316 H 0.19208 0.74517 0.63409 0.0
H317 H 0.19274 0.74479 0.74661 0.0
C318 C 0.32247 0.10366 0.50307 0.0
C319 C 0.34176 0.11115 0.5514 0.0
C320 C 0.30478 0.0759 0.48889 0.0
C321 C 0.27883 0.00464 0.54761 0.0
H322 H 0.27756 0.9866 0.3735 0.0
C323 C 0.26469 0.90151 0.46602 0.0
C324 C 0.24678 0.88792 0.4163 0.0
C325 C 0.27118 0.92812 0.48249 0.0
C326 C 0.27729 0.99132 0.42213 0.0
H327 H 0.35649 0.0953 0.62486 0.0
H328 H 0.32605 0.04715 0.59969 0.0
H329 H 0.29713 0.03467 0.40467 0.0
H330 H 0.22191 0.89185 0.34431 0.0
H331 H 0.23381 0.93889 0.37269 0.0
H332 H 0.2602 0.96135 0.56516 0.0
C333 C 0.32432 0.06261 0.57304 0.0
C334 C 0.28842 0.01883 0.44004 0.0
C335 C 0.34197 0.0903 0.58721 0.0
C336 C 0.23578 0.90177 0.38282 0.0
C337 C 0.24256 0.92864 0.39898 0.0
C338 C 0.26788 0.9772 0.52973 0.0
C339 C 0.30597 0.0551 0.52283 0.0
C340 C 0.29007 0.02583 0.50317 0.0
C341 C 0.26011 0.94191 0.44939 0.0
C342 C 0.26777 0.97038 0.46703 0.0
H343 H 0.32164 0.11921 0.47478 0.0
H344 H 0.2906 0.07074 0.45047 0.0
H345 H 0.27927 0.00932 0.59647 0.0
H346 H 0.27351 0.89149 0.49296 0.0
H347 H 0.28516 0.93806 0.52085 0.0
C348 C 0.36634 0.2733 0.62953 0.0
C349 C 0.35925 0.25242 0.58523 0.0
C350 C 0.34912 0.28407 0.6408 0.0
C351 C 0.27776 0.26972 0.62581 0.0
H352 H 0.31242 0.34823 0.65758 0.0
C353 C 0.22102 0.33256 0.66296 0.0
C354 C 0.23128 0.35171 0.71195 0.0
C355 C 0.23398 0.31761 0.64677 0.0
C356 C 0.30248 0.32625 0.64919 0.0
H357 H 0.32832 0.22645 0.518 0.0
H358 H 0.29821 0.24577 0.53726 0.0
H359 H 0.3406 0.32856 0.62575 0.0
H360 H 0.26199 0.36865 0.78503 0.0
H361 H 0.28452 0.3427 0.75646 0.0
H362 H 0.23947 0.26778 0.64891 0.0
C363 C 0.31709 0.25349 0.56361 0.0
C364 C 0.31859 0.31496 0.63099 0.0
C365 C 0.33439 0.24256 0.55236 0.0
C366 C 0.25366 0.35429 0.74672 0.0
C367 C 0.26668 0.33954 0.73024 0.0
C368 C 0.26152 0.28113 0.64357 0.0
C369 C 0.32439 0.27446 0.60783 0.0
C370 C 0.30655 0.28649 0.62054 0.0
C371 C 0.2575 0.32174 0.679 0.0
C372 C 0.2739 0.3094 0.65677 0.0
H373 H 0.38517 0.28127 0.6562 0.0
H374 H 0.35509 0.29977 0.67616 0.0
H375 H 0.26791 0.24769 0.61834 0.0
H376 H 0.20372 0.32997 0.63543 0.0
H377 H 0.22652 0.30394 0.60712 0.0
C378 C 0.88745 0.21945 0.83344 0.0
C379 C 0.87927 0.23042 0.88233 0.0
C380 C 0.91538 0.23036 0.8194 0.0
C381 C 0.98608 0.27653 0.8797 0.0
H382 H 0.00492 0.29386 0.70595 0.0
C383 C 0.09017 0.36525 0.80026 0.0
C384 C 0.10386 0.36072 0.75092 0.0
C385 C 0.06329 0.34546 0.81599 0.0
C386 C -2e-05 0.28876 0.75449 0.0
H387 H 0.89412 0.2605 0.95678 0.0
H388 H 0.94256 0.27967 0.93186 0.0
H389 H 0.95673 0.26496 0.73625 0.0
H390 H 0.09979 0.33195 0.67867 0.0
H391 H 0.05233 0.29741 0.70581 0.0
H392 H 0.02926 0.30137 0.89803 0.0
C393 C 0.9275 0.26247 0.90466 0.0
C394 C 0.9724 0.27214 0.77191 0.0
C395 C 0.89965 0.25158 0.91872 0.0
C396 C 0.08981 0.33606 0.71693 0.0
C397 C 0.06269 0.31631 0.73236 0.0
C398 C 0.01358 0.29326 0.86232 0.0
C399 C 0.93568 0.25241 0.85402 0.0
C400 C 0.96509 0.26647 0.83489 0.0
C401 C 0.04933 0.32075 0.78252 0.0
C402 C 0.0207 0.30012 0.79974 0.0
H403 H 0.87228 0.20303 0.80468 0.0
H404 H 0.92105 0.2219 0.78065 0.0
H405 H 0.98118 0.27207 0.92845 0.0
H406 H 0.10032 0.38396 0.82754 0.0
H407 H 0.0533 0.34962 0.85418 0.0
C408 C 0.66702 0.88921 0.00254 0.0
C409 C 0.64775 0.88092 0.05127 0.0
C410 C 0.68408 0.91718 -0.01102 0.0
C411 C 0.70805 0.98781 0.04966 0.0
H412 H 0.70944 0.00649 0.87591 0.0
C413 C 0.72317 0.09186 0.97008 0.0
C414 C 0.74153 0.10552 0.92089 0.0
C415 C 0.71595 0.06494 -0.01425 0.0
C416 C 0.70962 0.0016 0.92445 0.0
H417 H 0.6325 0.89559 0.12621 0.0
H418 H 0.6618 0.94406 0.10209 0.0
H419 H 0.69059 0.95839 0.90619 0.0
H420 H 0.76624 0.1013 0.84873 0.0
H421 H 0.75312 0.05382 0.87576 0.0
H422 H 0.72595 0.03095 0.06797 0.0
C423 C 0.66401 0.92909 0.07462 0.0
C424 C 0.69893 0.97407 0.94186 0.0
C425 C 0.64702 0.90121 0.08822 0.0
C426 C 0.75205 0.09136 0.88687 0.0
C427 C 0.74457 0.06422 0.90225 0.0
C428 C 0.71853 0.01526 0.03228 0.0
C429 C 0.68225 0.93739 0.02391 0.0
C430 C 0.69737 0.9668 0.00483 0.0
C431 C 0.72672 0.05092 0.95236 0.0
C432 C 0.71876 0.02233 0.96969 0.0
H433 H 0.66826 0.87412 0.9734 0.0
H434 H 0.69824 0.92294 0.95022 0.0
H435 H 0.70766 0.98296 0.0984 0.0
H436 H 0.71468 0.1021 -0.00264 0.0
H437 H 0.70176 0.05499 0.0239 0.0
C438 C 0.73953 0.64415 0.26044 0.0
C439 C 0.76092 0.64519 0.22425 0.0
C440 C 0.72856 0.66105 0.24659 0.0
C441 C 0.71967 0.69712 0.11441 0.0
H442 H 0.68919 0.72361 0.24062 0.0
C443 C 0.65806 0.75282 0.0591 0.0
C444 C 0.63302 0.74243 0.09168 0.0
C445 C 0.67709 0.7446 0.0751 0.0
C446 C 0.69762 0.71632 0.20491 0.0
H447 H 0.78868 0.66605 0.14725 0.0
H448 H 0.76975 0.69592 0.12369 0.0
H449 H 0.7181 0.70443 0.27122 0.0
H450 H 0.60833 0.71519 0.16641 0.0
H451 H 0.64149 0.70101 0.19411 0.0
H452 H 0.69879 0.70875 0.04823 0.0
C453 C 0.76112 0.68158 0.16205 0.0
C454 C 0.71413 0.70532 0.22237 0.0
C455 C 0.77207 0.66458 0.17583 0.0
C456 C 0.62737 0.72357 0.14023 0.0
C457 C 0.64647 0.71562 0.15654 0.0
C458 C 0.7033 0.70834 0.09693 0.0
C459 C 0.73881 0.67954 0.19639 0.0
C460 C 0.72473 0.69489 0.17746 0.0
C461 C 0.67157 0.72615 0.12442 0.0
C462 C 0.69153 0.71735 0.14214 0.0
H463 H 0.73045 0.6295 0.29814 0.0
H464 H 0.71117 0.65867 0.27358 0.0
H465 H 0.72722 0.68899 0.07865 0.0
H466 H 0.66303 0.76739 0.02148 0.0
H467 H 0.69632 0.75302 0.04963 0.0
C468 C 0.89881 0.62271 0.3039 0.0
C469 C 0.8854 0.62861 0.25637 0.0
C470 C 0.92661 0.64048 0.31611 0.0
C471 C 0.98355 0.7118 0.29341 0.0
H472 H 0.02766 0.67884 0.33919 0.0
C473 C 0.10336 0.76956 0.3251 0.0
C474 C 0.11276 0.76128 0.37683 0.0
C475 C 0.07524 0.75625 0.31092 0.0
C476 C 0.01553 0.68833 0.32696 0.0
H477 H 0.89077 0.65795 0.18431 0.0
H478 H 0.93982 0.68886 0.20486 0.0
H479 H 0.97987 0.64937 0.30909 0.0
H480 H 0.09975 0.73408 0.45695 0.0
H481 H 0.05092 0.71094 0.43188 0.0
H482 H 0.01986 0.75092 0.31044 0.0
C483 C 0.92855 0.67059 0.23323 0.0
C484 C 0.98814 0.67147 0.30978 0.0
C485 C 0.90052 0.6528 0.22121 0.0
C486 C 0.09332 0.74079 0.41635 0.0
C487 C 0.06534 0.72743 0.40195 0.0
C488 C 0.01121 0.72876 0.31006 0.0
C489 C 0.9419 0.66453 0.28074 0.0
C490 C 0.97164 0.68292 0.29398 0.0
C491 C 0.05616 0.73439 0.34804 0.0
C492 C 0.02723 0.71707 0.3281 0.0
H493 H 0.88778 0.60446 0.33249 0.0
H494 H 0.93604 0.63548 0.35398 0.0
H495 H 0.97134 0.72125 0.28182 0.0
H496 H 0.11779 0.78538 0.29388 0.0
H497 H 0.0686 0.76199 0.26912 0.0
C498 C 0.5027 0.32983 0.52308 0.0
C499 C 0.50655 0.30689 0.52503 0.0
C500 C 0.52328 0.35494 0.49876 0.0
C501 C 0.59667 0.39653 0.47213 0.0
H502 H 0.57945 0.4259 0.32657 0.0
C503 C 0.67475 0.50027 0.36405 0.0
C504 C 0.6813 0.49835 0.30188 0.0
C505 C 0.65148 0.4787 0.39196 0.0
C506 C 0.58441 0.41794 0.36735 0.0
H507 H 0.53519 0.29242 0.50563 0.0
H508 H 0.57153 0.3366 0.46545 0.0
H509 H 0.54281 0.38475 0.37859 0.0
H510 H 0.66751 0.47292 0.21924 0.0
H511 H 0.62628 0.43531 0.26815 0.0
H512 H 0.63818 0.4296 0.4612 0.0
C513 C 0.55246 0.33499 0.48175 0.0
C514 C 0.56353 0.39462 0.39721 0.0
C515 C 0.5317 0.30978 0.50462 0.0
C516 C 0.66309 0.475 0.26722 0.0
C517 C 0.6395 0.45354 0.29506 0.0
C518 C 0.61737 0.42012 0.44314 0.0
C519 C 0.54822 0.3576 0.47759 0.0
C520 C 0.56962 0.38357 0.4493 0.0
C521 C 0.634 0.45493 0.35813 0.0
C522 C 0.61149 0.43083 0.39012 0.0
H523 H 0.4834 0.32807 0.53803 0.0
H524 H 0.51969 0.37221 0.4961 0.0
H525 H 0.60179 0.38829 0.51218 0.0
H526 H 0.68825 0.51793 0.39223 0.0
H527 H 0.64751 0.48028 0.44055 0.0
C528 C 0.20832 0.52529 0.61753 0.0
C529 C 0.19212 0.50873 0.6671 0.0
C530 C 0.20205 0.54366 0.58846 0.0
C531 C 0.1692 0.58484 0.60936 0.0
H532 H 0.17144 0.58744 0.42946 0.0
C533 C 0.15819 0.6678 0.47663 0.0
C534 C 0.1781 0.68151 0.43008 0.0
C535 C 0.15405 0.64299 0.50154 0.0
C536 C 0.17082 0.58705 0.47966 0.0
H537 H 0.15703 0.49921 0.72608 0.0
H538 H 0.14639 0.53207 0.67548 0.0
H539 H 0.17581 0.55161 0.48378 0.0
H540 H 0.20809 0.67905 0.3707 0.0
H541 H 0.2012 0.63605 0.4147 0.0
H542 H 0.16545 0.62097 0.60556 0.0
C543 C 0.1638 0.53039 0.65916 0.0
C544 C 0.17324 0.5665 0.51073 0.0
C545 C 0.16992 0.51166 0.6881 0.0
C546 C 0.19257 0.66902 0.40642 0.0
C547 C 0.18853 0.64427 0.43159 0.0
C548 C 0.16696 0.60555 0.57828 0.0
C549 C 0.17956 0.54618 0.60834 0.0
C550 C 0.17317 0.56563 0.57588 0.0
C551 C 0.16978 0.63137 0.48066 0.0
C552 C 0.16842 0.60729 0.51308 0.0
H553 H 0.22564 0.52374 0.60004 0.0
H554 H 0.2149 0.55599 0.55027 0.0
H555 H 0.16926 0.58473 0.65959 0.0
H556 H 0.14645 0.67671 0.49547 0.0
H557 H 0.13904 0.6333 0.53837 0.0
C558 C 0.6585 0.17684 0.87031 0.0
C559 C 0.68372 0.19666 0.84398 0.0
C560 C 0.63348 0.17277 0.84615 0.0
C561 C 0.60581 0.20775 0.74757 0.0
H562 H 0.54301 0.13451 0.7239 0.0
C563 C 0.51712 0.19096 0.5907 0.0
C564 C 0.49091 0.17753 0.61861 0.0
C565 C 0.53917 0.18997 0.61804 0.0
C566 C 0.5604 0.15505 0.73056 0.0
H567 H 0.70226 0.22738 0.77091 0.0
H568 H 0.65922 0.21996 0.72877 0.0
H569 H 0.58441 0.14006 0.77605 0.0
H570 H 0.46685 0.1506 0.69437 0.0
H571 H 0.50552 0.14871 0.74164 0.0
H572 H 0.58223 0.22272 0.70101 0.0
C573 C 0.65853 0.208 0.76893 0.0
C574 C 0.58399 0.15827 0.76071 0.0
C575 C 0.68333 0.21216 0.79307 0.0
C576 C 0.48681 0.16134 0.67186 0.0
C577 C 0.5089 0.16017 0.69892 0.0
C578 C 0.58249 0.20451 0.71699 0.0
C579 C 0.63328 0.18843 0.79524 0.0
C580 C 0.60715 0.18467 0.76859 0.0
C581 C 0.53547 0.17533 0.67349 0.0
C582 C 0.55973 0.17815 0.70731 0.0
H583 H 0.65809 0.16449 0.90941 0.0
H584 H 0.61435 0.15761 0.86767 0.0
H585 H 0.62293 0.22843 0.75434 0.0
H586 H 0.52102 0.20347 0.54953 0.0
H587 H 0.55941 0.20148 0.59699 0.0
C588 C 0.47172 0.68619 0.94851 0.0
C589 C 0.48619 0.68674 0.00227 0.0
C590 C 0.4521 0.66126 0.9226 0.0
C591 C 0.40434 0.5891 0.95739 0.0
H592 H 0.4038 0.58111 0.77856 0.0
C593 C 0.31982 0.49209 0.83514 0.0
C594 C 0.30806 0.49698 0.78249 0.0
C595 C 0.34428 0.51313 0.86044 0.0
C596 C 0.40357 0.58305 0.8285 0.0
H597 H 0.49089 0.6613 0.07157 0.0
H598 H 0.45598 0.6174 0.02634 0.0
H599 H 0.4411 0.62188 0.82775 0.0
H600 H 0.31347 0.52759 0.71371 0.0
H601 H 0.35585 0.56433 0.75823 0.0
H602 H 0.36629 0.55079 0.95809 0.0
C603 C 0.46015 0.63651 0.00438 0.0
C604 C 0.42496 0.60636 0.85666 0.0
C605 C 0.48012 0.6616 0.03018 0.0
C606 C 0.32197 0.52307 0.75417 0.0
C607 C 0.34638 0.54414 0.77962 0.0
C608 C 0.38281 0.56582 0.92917 0.0
C609 C 0.44622 0.63615 0.94986 0.0
C610 C 0.42526 0.60991 0.92123 0.0
C611 C 0.35753 0.53958 0.83379 0.0
C612 C 0.38188 0.56279 0.86424 0.0
H613 H 0.47576 0.70507 0.92561 0.0
H614 H 0.44133 0.66165 0.88125 0.0
H615 H 0.40394 0.59141 0.00719 0.0
H616 H 0.30977 0.47217 0.85791 0.0
H617 H 0.35257 0.50879 0.9015 0.0
C618 C 0.81321 0.47799 0.20675 0.0
C619 C 0.79286 0.48278 0.18124 0.0
C620 C 0.81894 0.45861 0.17985 0.0
C621 C 0.81357 0.4241 0.03138 0.0
H622 H 0.81536 0.36702 0.12948 0.0
C623 C 0.79831 0.32344 0.92458 0.0
C624 C 0.81151 0.31027 0.95154 0.0
C625 C 0.8009 0.34742 0.95086 0.0
C626 C 0.81551 0.38314 0.10143 0.0
H627 H 0.76228 0.47052 0.10806 0.0
H628 H 0.77237 0.43709 0.06165 0.0
H629 H 0.81049 0.40314 0.18109 0.0
H630 H 0.83921 0.31298 0.02503 0.0
H631 H 0.84418 0.35512 0.06997 0.0
H632 H 0.81834 0.40414 0.95169 0.0
C633 C 0.78404 0.44843 0.10199 0.0
C634 C 0.81264 0.40377 0.13109 0.0
C635 C 0.77812 0.46746 0.12906 0.0
C636 C 0.82856 0.32246 0.00337 0.0
C637 C 0.83126 0.34653 0.02945 0.0
C638 C 0.81666 0.40364 0.00177 0.0
C639 C 0.80469 0.44401 0.12658 0.0
C640 C 0.81096 0.42403 0.09621 0.0
C641 C 0.8169 0.35891 0.00446 0.0
C642 C 0.817 0.38252 0.03628 0.0
H643 H 0.82494 0.48944 0.24687 0.0
H644 H 0.83495 0.45553 0.19975 0.0
H645 H 0.81282 0.43979 0.00345 0.0
H646 H 0.78496 0.31459 0.88479 0.0
H647 H 0.78929 0.35619 0.93071 0.0
C648 C 0.50103 0.82698 0.16349 0.0
C649 C 0.50009 0.81667 0.10355 0.0
C650 C 0.47918 0.82973 0.18609 0.0
C651 C 0.43358 0.84055 0.22323 0.0
H652 H 0.36128 0.78129 0.17673 0.0
C653 C 0.33209 0.82801 0.32815 0.0
C654 C 0.31016 0.80095 0.33587 0.0
C655 C 0.35629 0.8329 0.2979 0.0
C656 C 0.38132 0.79783 0.19088 0.0
H657 H 0.47636 0.80318 0.0186 0.0
H658 H 0.43862 0.80908 0.0571 0.0
H659 H 0.40167 0.78572 0.12505 0.0
H660 H 0.29688 0.75778 0.32194 0.0
H661 H 0.33935 0.7661 0.27249 0.0
H662 H 0.41315 0.85145 0.29206 0.0
C663 C 0.45584 0.81407 0.08757 0.0
C664 C 0.40457 0.80075 0.16013 0.0
C665 C 0.47757 0.81089 0.06523 0.0
C666 C 0.31338 0.77888 0.31598 0.0
C667 C 0.33764 0.7837 0.2869 0.0
C668 C 0.4103 0.83735 0.25473 0.0
C669 C 0.45595 0.82267 0.14905 0.0
C670 C 0.4311 0.82184 0.17659 0.0
C671 C 0.3591 0.81077 0.27568 0.0
C672 C 0.38389 0.81558 0.23981 0.0
H673 H 0.51801 0.8316 0.19445 0.0
H674 H 0.48001 0.83603 0.23385 0.0
H675 H 0.4536 0.85741 0.23641 0.0
H676 H 0.33002 0.84541 0.34259 0.0
H677 H 0.3723 0.85402 0.2899 0.0
loop_
_geom_bond_atom_site_label_1
_geom_bond_atom_site_label_2
_geom_bond_distance
_geom_bond_site_symmetry_2
_ccdc_geom_bond_type
O0 Zn1 1.953 . S
O0 C16 1.225 . S
Zn1 O0 1.953 . S
Zn1 O2 1.949 . S
Zn1 O8 1.919 . S
Zn1 O13 1.924 . S
O2 Zn1 1.949 . S
O2 Zn3 1.923 . S
O2 Zn4 1.950 . S
O2 Zn5 1.945 . S
Zn3 O2 1.923 . S
Zn3 O6 1.933 . S
Zn3 O9 1.941 . S
Zn3 O10 1.965 . S
Zn4 O2 1.950 . S
Zn4 O11 1.938 . S
Zn4 O12 1.906 . S
Zn4 O22 1.953 . S
Zn5 O2 1.945 . S
Zn5 O7 1.932 . S
Zn5 O14 1.977 . S
Zn5 O15 1.910 . S
O6 Zn3 1.933 . S
O6 C17 1.226 . S
O7 Zn5 1.932 . S
O7 C17 1.307 . S
O8 Zn1 1.919 . S
O8 C19 1.253 . S
O9 Zn3 1.941 . S
O9 C19 1.283 . S
O10 Zn3 1.965 . S
O10 C18 1.303 . S
O11 Zn4 1.938 . S
O11 C18 1.247 . S
O12 Zn4 1.906 . S
O12 C20 1.304 . S
O13 Zn1 1.924 . S
O13 C21 1.311 . S
O14 Zn5 1.977 . S
O14 C20 1.272 . S
O15 Zn5 1.910 . S
O15 C21 1.231 . S
C16 O0 1.225 . S
C16 O22 1.298 . S
C17 O6 1.226 . S
C17 O7 1.307 . S
C18 O10 1.303 . S
C18 O11 1.247 . S
C19 O8 1.253 . S
C19 O9 1.283 . S
C20 O12 1.304 . S
C20 O14 1.272 . S
C21 O13 1.311 . S
C21 O15 1.231 . S
O22 Zn4 1.953 . S
O22 C16 1.298 . S
O23 Zn24 1.953 . S
O23 C39 1.225 . S
Zn24 O23 1.953 . S
Zn24 O25 1.949 . S
Zn24 O31 1.919 . S
Zn24 O36 1.924 . S
O25 Zn24 1.949 . S
O25 Zn26 1.923 . S
O25 Zn27 1.950 . S
O25 Zn28 1.945 . S
Zn26 O25 1.923 . S
Zn26 O29 1.933 . S
Zn26 O32 1.941 . S
Zn26 O33 1.965 . S
Zn27 O25 1.950 . S
Zn27 O34 1.938 . S
Zn27 O35 1.906 . S
Zn27 O45 1.953 . S
Zn28 O25 1.945 . S
Zn28 O30 1.932 . S
Zn28 O37 1.977 . S
Zn28 O38 1.910 . S
O29 Zn26 1.933 . S
O29 C40 1.226 . S
O30 Zn28 1.932 . S
O30 C40 1.307 . S
O31 Zn24 1.919 . S
O31 C42 1.253 . S
O32 Zn26 1.941 . S
O32 C42 1.283 . S
O33 Zn26 1.965 . S
O33 C41 1.303 . S
O34 Zn27 1.938 . S
O34 C41 1.247 . S
O35 Zn27 1.906 . S
O35 C43 1.304 . S
O36 Zn24 1.924 . S
O36 C44 1.311 . S
O37 Zn28 1.977 . S
O37 C43 1.272 . S
O38 Zn28 1.910 . S
O38 C44 1.231 . S
C39 O23 1.225 . S
C39 O45 1.298 . S
C40 O29 1.226 . S
C40 O30 1.307 . S
C41 O33 1.303 . S
C41 O34 1.247 . S
C42 O31 1.253 . S
C42 O32 1.283 . S
C43 O35 1.304 . S
C43 O37 1.272 . S
C44 O36 1.311 . S
C44 O38 1.231 . S
O45 Zn27 1.953 . S
O45 C39 1.298 . S
O46 Zn47 1.953 1_554 S
O46 C62 1.225 . S
Zn47 O46 1.953 1_556 S
Zn47 O48 1.949 . S
Zn47 O54 1.919 . S
Zn47 O59 1.924 . S
O48 Zn47 1.949 . S
O48 Zn49 1.923 . S
O48 Zn50 1.950 . S
O48 Zn51 1.945 . S
Zn49 O48 1.923 . S
Zn49 O52 1.933 . S
Zn49 O55 1.941 . S
Zn49 O56 1.965 . S
Zn50 O48 1.950 . S
Zn50 O57 1.938 . S
Zn50 O58 1.906 . S
Zn50 O68 1.953 1_556 S
Zn51 O48 1.945 . S
Zn51 O53 1.932 . S
Zn51 O60 1.977 . S
Zn51 O61 1.910 . S
O52 Zn49 1.933 . S
O52 C63 1.226 . S
O53 Zn51 1.932 . S
O53 C63 1.307 . S
O54 Zn47 1.919 . S
O54 C65 1.253 . S
O55 Zn49 1.941 . S
O55 C65 1.283 . S
O56 Zn49 1.965 . S
O56 C64 1.303 . S
O57 Zn50 1.938 . S
O57 C64 1.247 . S
O58 Zn50 1.906 . S
O58 C66 1.304 . S
O59 Zn47 1.924 . S
O59 C67 1.311 . S
O60 Zn51 1.977 . S
O60 C66 1.272 . S
O61 Zn51 1.910 . S
O61 C67 1.231 . S
C62 O46 1.225 . S
C62 O68 1.298 . S
C63 O52 1.226 . S
C63 O53 1.307 . S
C64 O56 1.303 . S
C64 O57 1.247 . S
C65 O54 1.253 . S
C65 O55 1.283 . S
C66 O58 1.304 . S
C66 O60 1.272 . S
C67 O59 1.311 . S
C67 O61 1.231 . S
O68 Zn50 1.953 1_554 S
O68 C62 1.298 . S
O69 Zn70 1.953 . S
O69 C85 1.225 . S
Zn70 O69 1.953 . S
Zn70 O71 1.949 . S
Zn70 O77 1.919 . S
Zn70 O82 1.924 . S
O71 Zn70 1.949 . S
O71 Zn72 1.923 . S
O71 Zn73 1.950 . S
O71 Zn74 1.945 . S
Zn72 O71 1.923 . S
Zn72 O75 1.933 1_554 S
Zn72 O78 1.941 . S
Zn72 O79 1.965 . S
Zn73 O71 1.950 . S
Zn73 O80 1.938 . S
Zn73 O81 1.906 . S
Zn73 O91 1.953 . S
Zn74 O71 1.945 . S
Zn74 O76 1.932 1_554 S
Zn74 O83 1.977 . S
Zn74 O84 1.910 . S
O75 Zn72 1.933 1_556 S
O75 C86 1.226 . S
O76 Zn74 1.932 1_556 S
O76 C86 1.307 . S
O77 Zn70 1.919 . S
O77 C88 1.253 . S
O78 Zn72 1.941 . S
O78 C88 1.283 . S
O79 Zn72 1.965 . S
O79 C87 1.303 . S
O80 Zn73 1.938 . S
O80 C87 1.247 . S
O81 Zn73 1.906 . S
O81 C89 1.304 . S
O82 Zn70 1.924 . S
O82 C90 1.311 . S
O83 Zn74 1.977 . S
O83 C89 1.272 . S
O84 Zn74 1.910 . S
O84 C90 1.231 . S
C85 O69 1.225 . S
C85 O91 1.298 . S
C86 O75 1.226 . S
C86 O76 1.307 . S
C87 O79 1.303 . S
C87 O80 1.247 . S
C88 O77 1.253 . S
C88 O78 1.283 . S
C89 O81 1.304 . S
C89 O83 1.272 . S
C90 O82 1.311 . S
C90 O84 1.231 . S
O91 Zn73 1.953 . S
O91 C85 1.298 . S
O92 Zn93 1.953 . S
O92 C108 1.225 . S
Zn93 O92 1.953 . S
Zn93 O94 1.949 . S
Zn93 O100 1.919 . S
Zn93 O105 1.924 . S
O94 Zn93 1.949 . S
O94 Zn95 1.923 . S
O94 Zn96 1.950 . S
O94 Zn97 1.945 . S
Zn95 O94 1.923 . S
Zn95 O98 1.933 . S
Zn95 O101 1.941 . S
Zn95 O102 1.965 . S
Zn96 O94 1.950 . S
Zn96 O103 1.938 . S
Zn96 O104 1.906 . S
Zn96 O114 1.953 . S
Zn97 O94 1.945 . S
Zn97 O99 1.932 . S
Zn97 O106 1.977 . S
Zn97 O107 1.910 . S
O98 Zn95 1.933 . S
O98 C109 1.226 . S
O99 Zn97 1.932 . S
O99 C109 1.307 . S
O100 Zn93 1.919 . S
O100 C111 1.253 . S
O101 Zn95 1.941 . S
O101 C111 1.283 . S
O102 Zn95 1.965 . S
O102 C110 1.303 . S
O103 Zn96 1.938 . S
O103 C110 1.247 . S
O104 Zn96 1.906 . S
O104 C112 1.304 . S
O105 Zn93 1.924 . S
O105 C113 1.311 . S
O106 Zn97 1.977 . S
O106 C112 1.272 . S
O107 Zn97 1.910 . S
O107 C113 1.231 . S
C108 O92 1.225 . S
C108 O114 1.298 . S
C109 O98 1.226 . S
C109 O99 1.307 . S
C110 O102 1.303 . S
C110 O103 1.247 . S
C111 O100 1.253 . S
C111 O101 1.283 . S
C112 O104 1.304 . S
C112 O106 1.272 . S
C113 O105 1.311 . S
C113 O107 1.231 . S
O114 Zn96 1.953 . S
O114 C108 1.298 . S
O115 Zn116 1.953 . S
O115 C131 1.225 . S
Zn116 O115 1.953 . S
Zn116 O117 1.949 . S
Zn116 O123 1.919 . S
Zn116 O128 1.924 . S
O117 Zn116 1.949 . S
O117 Zn118 1.923 . S
O117 Zn119 1.950 . S
O117 Zn120 1.945 . S
Zn118 O117 1.923 . S
Zn118 O121 1.933 . S
Zn118 O124 1.941 . S
Zn118 O125 1.965 . S
Zn119 O117 1.950 . S
Zn119 O126 1.938 . S
Zn119 O127 1.906 . S
Zn119 O137 1.953 . S
Zn120 O117 1.945 . S
Zn120 O122 1.932 . S
Zn120 O129 1.977 . S
Zn120 O130 1.910 . S
O121 Zn118 1.933 . S
O121 C132 1.226 . S
O122 Zn120 1.932 . S
O122 C132 1.307 . S
O123 Zn116 1.919 . S
O123 C134 1.253 . S
O124 Zn118 1.941 . S
O124 C134 1.283 . S
O125 Zn118 1.965 . S
O125 C133 1.303 . S
O126 Zn119 1.938 . S
O126 C133 1.247 . S
O127 Zn119 1.906 . S
O127 C135 1.304 . S
O128 Zn116 1.924 . S
O128 C136 1.311 . S
O129 Zn120 1.977 . S
O129 C135 1.272 . S
O130 Zn120 1.910 . S
O130 C136 1.231 . S
C131 O115 1.225 . S
C131 O137 1.298 . S
C132 O121 1.226 . S
C132 O122 1.307 . S
C133 O125 1.303 . S
C133 O126 1.247 . S
C134 O123 1.253 . S
C134 O124 1.283 . S
C135 O127 1.304 . S
C135 O129 1.272 . S
C136 O128 1.311 . S
C136 O130 1.231 . S
O137 Zn119 1.953 . S
O137 C131 1.298 . S
C138 C139 1.349 . S
C138 C140 1.327 . S
C138 H163 0.950 . S
C139 C138 1.349 . S
C139 C155 1.349 . S
C140 C138 1.327 . S
C140 C159 1.429 . S
C140 H164 0.950 . S
C141 C158 1.574 . S
C141 C160 1.368 . S
C141 H165 0.949 . S
H142 C146 0.949 . S
C143 C144 1.349 . S
C143 C145 1.327 . S
C143 H166 0.950 . S
C144 C143 1.349 . S
C144 C156 1.349 . S
C145 C143 1.327 . S
C145 C161 1.429 . S
C145 H167 0.950 . S
C146 H142 0.949 . S
C146 C154 1.574 . S
C146 C162 1.368 . S
H147 C155 0.950 . S
H148 C153 0.950 . S
H149 C154 0.949 . S
H150 C156 0.950 . S
H151 C157 0.950 . S
H152 C158 0.949 . S
C153 H148 0.950 . S
C153 C155 1.327 . S
C153 C159 1.429 . S
C154 C146 1.574 . S
C154 H149 0.949 . S
C154 C160 1.368 . S
C155 C139 1.349 . S
C155 H147 0.950 . S
C155 C153 1.327 . S
C156 C144 1.349 . S
C156 H150 0.950 . S
C156 C157 1.327 . S
C157 H151 0.950 . S
C157 C156 1.327 . S
C157 C161 1.429 . S
C158 C141 1.574 . S
C158 H152 0.949 . S
C158 C162 1.368 . S
C159 C140 1.429 . S
C159 C153 1.429 . S
C159 C160 1.523 . S
C160 C141 1.368 . S
C160 C154 1.368 . S
C160 C159 1.523 . S
C161 C145 1.429 . S
C161 C157 1.429 . S
C161 C162 1.523 1_556 S
C162 C146 1.368 . S
C162 C158 1.368 . S
C162 C161 1.523 1_554 S
H163 C138 0.950 . S
H164 C140 0.950 . S
H165 C141 0.949 . S
H166 C143 0.950 . S
H167 C145 0.950 . S
C168 C169 1.349 . S
C168 C170 1.327 . S
C168 H193 0.950 . S
C169 C168 1.349 . S
C169 C185 1.349 . S
C170 C168 1.327 . S
C170 C189 1.429 . S
C170 H194 0.950 . S
C171 C188 1.574 . S
C171 C190 1.368 . S
C171 H195 0.949 . S
H172 C176 0.949 . S
C173 C174 1.349 1_554 S
C173 C175 1.327 . S
C173 H196 0.950 1_554 S
C174 C173 1.349 1_556 S
C174 C186 1.349 1_556 S
C175 C173 1.327 . S
C175 C191 1.429 . S
C175 H197 0.950 . S
C176 H172 0.949 . S
C176 C184 1.574 . S
C176 C192 1.368 . S
H177 C185 0.950 . S
H178 C183 0.950 . S
H179 C184 0.949 . S
H180 C186 0.950 1_556 S
H181 C187 0.950 . S
H182 C188 0.949 . S
C183 H178 0.950 . S
C183 C185 1.327 . S
C183 C189 1.429 . S
C184 C176 1.574 . S
C184 H179 0.949 . S
C184 C190 1.368 . S
C185 C169 1.349 . S
C185 H177 0.950 . S
C185 C183 1.327 . S
C186 C174 1.349 1_554 S
C186 H180 0.950 1_554 S
C186 C187 1.327 . S
C187 H181 0.950 . S
C187 C186 1.327 . S
C187 C191 1.429 . S
C188 C171 1.574 . S
C188 H182 0.949 . S
C188 C192 1.368 . S
C189 C170 1.429 . S
C189 C183 1.429 . S
C189 C190 1.523 . S
C190 C171 1.368 . S
C190 C184 1.368 . S
C190 C189 1.523 . S
C191 C175 1.429 . S
C191 C187 1.429 . S
C191 C192 1.523 . S
C192 C176 1.368 . S
C192 C188 1.368 . S
C192 C191 1.523 . S
H193 C168 0.950 . S
H194 C170 0.950 . S
H195 C171 0.949 . S
H196 C173 0.950 1_556 S
H197 C175 0.950 . S
C198 C199 1.349 . S
C198 C200 1.327 . S
C198 H223 0.950 . S
C199 C198 1.349 . S
C199 C215 1.349 . S
C200 C198 1.327 . S
C200 C219 1.429 . S
C200 H224 0.950 . S
C201 C218 1.574 . S
C201 C220 1.368 . S
C201 H225 0.949 . S
H202 C206 0.949 . S
C203 C204 1.349 . S
C203 C205 1.327 . S
C203 H226 0.950 . S
C204 C203 1.349 . S
C204 C216 1.349 . S
C205 C203 1.327 . S
C205 C221 1.429 . S
C205 H227 0.950 . S
C206 H202 0.949 . S
C206 C214 1.574 . S
C206 C222 1.368 . S
H207 C215 0.950 . S
H208 C213 0.950 . S
H209 C214 0.949 . S
H210 C216 0.950 . S
H211 C217 0.950 . S
H212 C218 0.949 . S
C213 H208 0.950 . S
C213 C215 1.327 . S
C213 C219 1.429 . S
C214 C206 1.574 . S
C214 H209 0.949 . S
C214 C220 1.368 . S
C215 C199 1.349 . S
C215 H207 0.950 . S
C215 C213 1.327 . S
C216 C204 1.349 . S
C216 H210 0.950 . S
C216 C217 1.327 . S
C217 H211 0.950 . S
C217 C216 1.327 . S
C217 C221 1.429 . S
C218 C201 1.574 . S
C218 H212 0.949 . S
C218 C222 1.368 . S
C219 C200 1.429 . S
C219 C213 1.429 . S
C219 C220 1.523 . S
C220 C201 1.368 . S
C220 C214 1.368 . S
C220 C219 1.523 . S
C221 C205 1.429 . S
C221 C217 1.429 . S
C221 C222 1.523 . S
C222 C206 1.368 . S
C222 C218 1.368 . S
C222 C221 1.523 . S
H223 C198 0.950 . S
H224 C200 0.950 . S
H225 C201 0.949 . S
H226 C203 0.950 . S
H227 C205 0.950 . S
C228 C229 1.349 . S
C228 C230 1.327 . S
C228 H253 0.950 . S
C229 C228 1.349 . S
C229 C245 1.349 . S
C230 C228 1.327 . S
C230 C249 1.429 . S
C230 H254 0.950 . S
C231 C248 1.574 . S
C231 C250 1.368 . S
C231 H255 0.949 . S
H232 C236 0.949 . S
C233 C234 1.349 . S
C233 C235 1.327 . S
C233 H256 0.950 . S
C234 C233 1.349 . S
C234 C246 1.349 . S
C235 C233 1.327 . S
C235 C251 1.429 . S
C235 H257 0.950 . S
C236 H232 0.949 . S
C236 C244 1.574 . S
C236 C252 1.368 . S
H237 C245 0.950 . S
H238 C243 0.950 . S
H239 C244 0.949 . S
H240 C246 0.950 . S
H241 C247 0.950 . S
H242 C248 0.949 . S
C243 H238 0.950 . S
C243 C245 1.327 . S
C243 C249 1.429 . S
C244 C236 1.574 . S
C244 H239 0.949 . S
C244 C250 1.368 . S
C245 C229 1.349 . S
C245 H237 0.950 . S
C245 C243 1.327 . S
C246 C234 1.349 . S
C246 H240 0.950 . S
C246 C247 1.327 . S
C247 H241 0.950 . S
C247 C246 1.327 . S
C247 C251 1.429 . S
C248 C231 1.574 . S
C248 H242 0.949 . S
C248 C252 1.368 . S
C249 C230 1.429 . S
C249 C243 1.429 . S
C249 C250 1.523 . S
C250 C231 1.368 . S
C250 C244 1.368 . S
C250 C249 1.523 . S
C251 C235 1.429 . S
C251 C247 1.429 . S
C251 C252 1.523 . S
C252 C236 1.368 . S
C252 C248 1.368 . S
C252 C251 1.523 . S
H253 C228 0.950 . S
H254 C230 0.950 . S
H255 C231 0.949 . S
H256 C233 0.950 . S
H257 C235 0.950 . S
C258 C259 1.349 . S
C258 C260 1.327 . S
C258 H283 0.950 . S
C259 C258 1.349 . S
C259 C275 1.349 . S
C260 C258 1.327 . S
C260 C279 1.429 . S
C260 H284 0.950 . S
C261 C278 1.574 . S
C261 C280 1.368 . S
C261 H285 0.949 . S
H262 C266 0.949 . S
C263 C264 1.349 1_556 S
C263 C265 1.327 . S
C263 H286 0.950 1_556 S
C264 C263 1.349 1_554 S
C264 C276 1.349 1_554 S
C265 C263 1.327 . S
C265 C281 1.429 . S
C265 H287 0.950 . S
C266 H262 0.949 . S
C266 C274 1.574 . S
C266 C282 1.368 . S
H267 C275 0.950 . S
H268 C273 0.950 . S
H269 C274 0.949 . S
H270 C276 0.950 1_554 S
H271 C277 0.950 . S
H272 C278 0.949 . S
C273 H268 0.950 . S
C273 C275 1.327 . S
C273 C279 1.429 . S
C274 C266 1.574 . S
C274 H269 0.949 . S
C274 C280 1.368 . S
C275 C259 1.349 . S
C275 H267 0.950 . S
C275 C273 1.327 . S
C276 C264 1.349 1_556 S
C276 H270 0.950 1_556 S
C276 C277 1.327 . S
C277 H271 0.950 . S
C277 C276 1.327 . S
C277 C281 1.429 . S
C278 C261 1.574 . S
C278 H272 0.949 . S
C278 C282 1.368 . S
C279 C260 1.429 . S
C279 C273 1.429 . S
C279 C280 1.523 . S
C280 C261 1.368 . S
C280 C274 1.368 . S
C280 C279 1.523 . S
C281 C265 1.429 . S
C281 C277 1.429 . S
C281 C282 1.523 . S
C282 C266 1.368 . S
C282 C278 1.368 . S
C282 C281 1.523 . S
H283 C258 0.950 . S
H284 C260 0.950 . S
H285 C261 0.949 . S
H286 C263 0.950 1_554 S
H287 C265 0.950 . S
C288 C289 1.349 . S
C288 C290 1.327 . S
C288 H313 0.950 . S
C289 C288 1.349 . S
C289 C305 1.349 . S
C290 C288 1.327 . S
C290 C309 1.429 . S
C290 H314 0.950 . S
C291 C308 1.574 . S
C291 C310 1.368 . S
C291 H315 0.949 . S
H292 C296 0.949 . S
C293 C294 1.349 . S
C293 C295 1.327 . S
C293 H316 0.950 . S
C294 C293 1.349 . S
C294 C306 1.349 . S
C295 C293 1.327 . S
C295 C311 1.429 . S
C295 H317 0.950 . S
C296 H292 0.949 . S
C296 C304 1.574 . S
C296 C312 1.368 . S
H297 C305 0.950 . S
H298 C303 0.950 . S
H299 C304 0.949 . S
H300 C306 0.950 . S
H301 C307 0.950 . S
H302 C308 0.949 . S
C303 H298 0.950 . S
C303 C305 1.327 . S
C303 C309 1.429 . S
C304 C296 1.574 . S
C304 H299 0.949 . S
C304 C310 1.368 . S
C305 C289 1.349 . S
C305 H297 0.950 . S
C305 C303 1.327 . S
C306 C294 1.349 . S
C306 H300 0.950 . S
C306 C307 1.327 . S
C307 H301 0.950 . S
C307 C306 1.327 . S
C307 C311 1.429 . S
C308 C291 1.574 . S
C308 H302 0.949 . S
C308 C312 1.368 . S
C309 C290 1.429 . S
C309 C303 1.429 . S
C309 C310 1.523 1_554 S
C310 C291 1.368 . S
C310 C304 1.368 . S
C310 C309 1.523 1_556 S
C311 C295 1.429 . S
C311 C307 1.429 . S
C311 C312 1.523 . S
C312 C296 1.368 . S
C312 C308 1.368 . S
C312 C311 1.523 . S
H313 C288 0.950 . S
H314 C290 0.950 . S
H315 C291 0.949 . S
H316 C293 0.950 . S
H317 C295 0.950 . S
C318 C319 1.349 . S
C318 C320 1.327 . S
C318 H343 0.950 . S
C319 C318 1.349 . S
C319 C335 1.349 . S
C320 C318 1.327 . S
C320 C339 1.429 . S
C320 H344 0.950 . S
C321 C338 1.574 1_545 S
C321 C340 1.368 . S
C321 H345 0.949 . S
H322 C326 0.949 . S
C323 C324 1.349 . S
C323 C325 1.327 . S
C323 H346 0.950 . S
C324 C323 1.349 . S
C324 C336 1.349 . S
C325 C323 1.327 . S
C325 C341 1.429 . S
C325 H347 0.950 . S
C326 H322 0.949 . S
C326 C334 1.574 1_565 S
C326 C342 1.368 . S
H327 C335 0.950 . S
H328 C333 0.950 . S
H329 C334 0.949 . S
H330 C336 0.950 . S
H331 C337 0.950 . S
H332 C338 0.949 . S
C333 H328 0.950 . S
C333 C335 1.327 . S
C333 C339 1.429 . S
C334 C326 1.574 1_545 S
C334 H329 0.949 . S
C334 C340 1.368 . S
C335 C319 1.349 . S
C335 H327 0.950 . S
C335 C333 1.327 . S
C336 C324 1.349 . S
C336 H330 0.950 . S
C336 C337 1.327 . S
C337 H331 0.950 . S
C337 C336 1.327 . S
C337 C341 1.429 . S
C338 C321 1.574 1_565 S
C338 H332 0.949 . S
C338 C342 1.368 . S
C339 C320 1.429 . S
C339 C333 1.429 . S
C339 C340 1.523 . S
C340 C321 1.368 . S
C340 C334 1.368 . S
C340 C339 1.523 . S
C341 C325 1.429 . S
C341 C337 1.429 . S
C341 C342 1.523 . S
C342 C326 1.368 . S
C342 C338 1.368 . S
C342 C341 1.523 . S
H343 C318 0.950 . S
H344 C320 0.950 . S
H345 C321 0.949 . S
H346 C323 0.950 . S
H347 C325 0.950 . S
C348 C349 1.349 . S
C348 C350 1.327 . S
C348 H373 0.950 . S
C349 C348 1.349 . S
C349 C365 1.349 . S
C350 C348 1.327 . S
C350 C369 1.429 . S
C350 H374 0.950 . S
C351 C368 1.574 . S
C351 C370 1.368 . S
C351 H375 0.949 . S
H352 C356 0.949 . S
C353 C354 1.349 . S
C353 C355 1.327 . S
C353 H376 0.950 . S
C354 C353 1.349 . S
C354 C366 1.349 . S
C355 C353 1.327 . S
C355 C371 1.429 . S
C355 H377 0.950 . S
C356 H352 0.949 . S
C356 C364 1.574 . S
C356 C372 1.368 . S
H357 C365 0.950 . S
H358 C363 0.950 . S
H359 C364 0.949 . S
H360 C366 0.950 . S
H361 C367 0.950 . S
H362 C368 0.949 . S
C363 H358 0.950 . S
C363 C365 1.327 . S
C363 C369 1.429 . S
C364 C356 1.574 . S
C364 H359 0.949 . S
C364 C370 1.368 . S
C365 C349 1.349 . S
C365 H357 0.950 . S
C365 C363 1.327 . S
C366 C354 1.349 . S
C366 H360 0.950 . S
C366 C367 1.327 . S
C367 H361 0.950 . S
C367 C366 1.327 . S
C367 C371 1.429 . S
C368 C351 1.574 . S
C368 H362 0.949 . S
C368 C372 1.368 . S
C369 C350 1.429 . S
C369 C363 1.429 . S
C369 C370 1.523 . S
C370 C351 1.368 . S
C370 C364 1.368 . S
C370 C369 1.523 . S
C371 C355 1.429 . S
C371 C367 1.429 . S
C371 C372 1.523 . S
C372 C356 1.368 . S
C372 C368 1.368 . S
C372 C371 1.523 . S
H373 C348 0.950 . S
H374 C350 0.950 . S
H375 C351 0.949 . S
H376 C353 0.950 . S
H377 C355 0.950 . S
C378 C379 1.349 . S
C378 C380 1.327 . S
C378 H403 0.950 . S
C379 C378 1.349 . S
C379 C395 1.349 . S
C380 C378 1.327 . S
C380 C399 1.429 . S
C380 H404 0.950 . S
C381 C398 1.574 1_655 S
C381 C400 1.368 . S
C381 H405 0.949 . S
H382 C386 0.949 . S
C383 C384 1.349 . S
C383 C385 1.327 . S
C383 H406 0.950 . S
C384 C383 1.349 . S
C384 C396 1.349 . S
C385 C383 1.327 . S
C385 C401 1.429 . S
C385 H407 0.950 . S
C386 H382 0.949 . S
C386 C394 1.574 1_455 S
C386 C402 1.368 . S
H387 C395 0.950 . S
H388 C393 0.950 . S
H389 C394 0.949 . S
H390 C396 0.950 . S
H391 C397 0.950 . S
H392 C398 0.949 . S
C393 H388 0.950 . S
C393 C395 1.327 . S
C393 C399 1.429 . S
C394 C386 1.574 1_655 S
C394 H389 0.949 . S
C394 C400 1.368 . S
C395 C379 1.349 . S
C395 H387 0.950 . S
C395 C393 1.327 . S
C396 C384 1.349 . S
C396 H390 0.950 . S
C396 C397 1.327 . S
C397 H391 0.950 . S
C397 C396 1.327 . S
C397 C401 1.429 . S
C398 C381 1.574 1_455 S
C398 H392 0.949 . S
C398 C402 1.368 . S
C399 C380 1.429 . S
C399 C393 1.429 . S
C399 C400 1.523 . S
C400 C381 1.368 . S
C400 C394 1.368 . S
C400 C399 1.523 . S
C401 C385 1.429 . S
C401 C397 1.429 . S
C401 C402 1.523 . S
C402 C386 1.368 . S
C402 C398 1.368 . S
C402 C401 1.523 . S
H403 C378 0.950 . S
H404 C380 0.950 . S
H405 C381 0.949 . S
H406 C383 0.950 . S
H407 C385 0.950 . S
C408 C409 1.349 . S
C408 C410 1.327 . S
C408 H433 0.950 . S
C409 C408 1.349 . S
C409 C425 1.349 . S
C410 C408 1.327 . S
C410 C429 1.429 . S
C410 H434 0.950 . S
C411 C428 1.574 1_565 S
C411 C430 1.368 1_556 S
C411 H435 0.949 . S
H412 C416 0.949 . S
C413 C414 1.349 . S
C413 C415 1.327 . S
C413 H436 0.950 . S
C414 C413 1.349 . S
C414 C426 1.349 . S
C415 C413 1.327 . S
C415 C431 1.429 . S
C415 H437 0.950 . S
C416 H412 0.949 . S
C416 C424 1.574 1_545 S
C416 C432 1.368 1_554 S
H417 C425 0.950 . S
H418 C423 0.950 1_556 S
H419 C424 0.949 . S
H420 C426 0.950 . S
H421 C427 0.950 1_554 S
H422 C428 0.949 . S
C423 H418 0.950 1_554 S
C423 C425 1.327 . S
C423 C429 1.429 . S
C424 C416 1.574 1_565 S
C424 H419 0.949 . S
C424 C430 1.368 . S
C425 C409 1.349 . S
C425 H417 0.950 . S
C425 C423 1.327 . S
C426 C414 1.349 . S
C426 H420 0.950 . S
C426 C427 1.327 . S
C427 H421 0.950 1_556 S
C427 C426 1.327 . S
C427 C431 1.429 . S
C428 C411 1.574 1_545 S
C428 H422 0.949 . S
C428 C432 1.368 . S
C429 C410 1.429 . S
C429 C423 1.429 . S
C429 C430 1.523 . S
C430 C411 1.368 1_554 S
C430 C424 1.368 . S
C430 C429 1.523 . S
C431 C415 1.429 . S
C431 C427 1.429 . S
C431 C432 1.523 . S
C432 C416 1.368 1_556 S
C432 C428 1.368 . S
C432 C431 1.523 . S
H433 C408 0.950 . S
H434 C410 0.950 . S
H435 C411 0.949 . S
H436 C413 0.950 . S
H437 C415 0.950 . S
C438 C439 1.349 . S
C438 C440 1.327 . S
C438 H463 0.950 . S
C439 C438 1.349 . S
C439 C455 1.349 . S
C440 C438 1.327 . S
C440 C459 1.429 . S
C440 H464 0.950 . S
C441 C458 1.574 . S
C441 C460 1.368 . S
C441 H465 0.949 . S
H442 C446 0.949 . S
C443 C444 1.349 . S
C443 C445 1.327 . S
C443 H466 0.950 . S
C444 C443 1.349 . S
C444 C456 1.349 . S
C445 C443 1.327 . S
C445 C461 1.429 . S
C445 H467 0.950 . S
C446 H442 0.949 . S
C446 C454 1.574 . S
C446 C462 1.368 . S
H447 C455 0.950 . S
H448 C453 0.950 . S
H449 C454 0.949 . S
H450 C456 0.950 . S
H451 C457 0.950 . S
H452 C458 0.949 . S
C453 H448 0.950 . S
C453 C455 1.327 . S
C453 C459 1.429 . S
C454 C446 1.574 . S
C454 H449 0.949 . S
C454 C460 1.368 . S
C455 C439 1.349 . S
C455 H447 0.950 . S
C455 C453 1.327 . S
C456 C444 1.349 . S
C456 H450 0.950 . S
C456 C457 1.327 . S
C457 H451 0.950 . S
C457 C456 1.327 . S
C457 C461 1.429 . S
C458 C441 1.574 . S
C458 H452 0.949 . S
C458 C462 1.368 . S
C459 C440 1.429 . S
C459 C453 1.429 . S
C459 C460 1.523 . S
C460 C441 1.368 . S
C460 C454 1.368 . S
C460 C459 1.523 . S
C461 C445 1.429 . S
C461 C457 1.429 . S
C461 C462 1.523 . S
C462 C446 1.368 . S
C462 C458 1.368 . S
C462 C461 1.523 . S
H463 C438 0.950 . S
H464 C440 0.950 . S
H465 C441 0.949 . S
H466 C443 0.950 . S
H467 C445 0.950 . S
C468 C469 1.349 . S
C468 C470 1.327 . S
C468 H493 0.950 . S
C469 C468 1.349 . S
C469 C485 1.349 . S
C470 C468 1.327 . S
C470 C489 1.429 . S
C470 H494 0.950 . S
C471 C488 1.574 1_655 S
C471 C490 1.368 . S
C471 H495 0.949 . S
H472 C476 0.949 . S
C473 C474 1.349 . S
C473 C475 1.327 . S
C473 H496 0.950 . S
C474 C473 1.349 . S
C474 C486 1.349 . S
C475 C473 1.327 . S
C475 C491 1.429 . S
C475 H497 0.950 . S
C476 H472 0.949 . S
C476 C484 1.574 1_455 S
C476 C492 1.368 . S
H477 C485 0.950 . S
H478 C483 0.950 . S
H479 C484 0.949 . S
H480 C486 0.950 . S
H481 C487 0.950 . S
H482 C488 0.949 . S
C483 H478 0.950 . S
C483 C485 1.327 . S
C483 C489 1.429 . S
C484 C476 1.574 1_655 S
C484 H479 0.949 . S
C484 C490 1.368 . S
C485 C469 1.349 . S
C485 H477 0.950 . S
C485 C483 1.327 . S
C486 C474 1.349 . S
C486 H480 0.950 . S
C486 C487 1.327 . S
C487 H481 0.950 . S
C487 C486 1.327 . S
C487 C491 1.429 . S
C488 C471 1.574 1_455 S
C488 H482 0.949 . S
C488 C492 1.368 . S
C489 C470 1.429 . S
C489 C483 1.429 . S
C489 C490 1.523 . S
C490 C471 1.368 . S
C490 C484 1.368 . S
C490 C489 1.523 . S
C491 C475 1.429 . S
C491 C487 1.429 . S
C491 C492 1.523 . S
C492 C476 1.368 . S
C492 C488 1.368 . S
C492 C491 1.523 . S
H493 C468 0.950 . S
H494 C470 0.950 . S
H495 C471 0.949 . S
H496 C473 0.950 . S
H497 C475 0.950 . S
C498 C499 1.349 . S
C498 C500 1.327 . S
C498 H523 0.950 . S
C499 C498 1.349 . S
C499 C515 1.349 . S
C500 C498 1.327 . S
C500 C519 1.429 . S
C500 H524 0.950 . S
C501 C518 1.574 . S
C501 C520 1.368 . S
C501 H525 0.949 . S
H502 C506 0.949 . S
C503 C504 1.349 . S
C503 C505 1.327 . S
C503 H526 0.950 . S
C504 C503 1.349 . S
C504 C516 1.349 . S
C505 C503 1.327 . S
C505 C521 1.429 . S
C505 H527 0.950 . S
C506 H502 0.949 . S
C506 C514 1.574 . S
C506 C522 1.368 . S
H507 C515 0.950 . S
H508 C513 0.950 . S
H509 C514 0.949 . S
H510 C516 0.950 . S
H511 C517 0.950 . S
H512 C518 0.949 . S
C513 H508 0.950 . S
C513 C515 1.327 . S
C513 C519 1.429 . S
C514 C506 1.574 . S
C514 H509 0.949 . S
C514 C520 1.368 . S
C515 C499 1.349 . S
C515 H507 0.950 . S
C515 C513 1.327 . S
C516 C504 1.349 . S
C516 H510 0.950 . S
C516 C517 1.327 . S
C517 H511 0.950 . S
C517 C516 1.327 . S
C517 C521 1.429 . S
C518 C501 1.574 . S
C518 H512 0.949 . S
C518 C522 1.368 . S
C519 C500 1.429 . S
C519 C513 1.429 . S
C519 C520 1.523 . S
C520 C501 1.368 . S
C520 C514 1.368 . S
C520 C519 1.523 . S
C521 C505 1.429 . S
C521 C517 1.429 . S
C521 C522 1.523 . S
C522 C506 1.368 . S
C522 C518 1.368 . S
C522 C521 1.523 . S
H523 C498 0.950 . S
H524 C500 0.950 . S
H525 C501 0.949 . S
H526 C503 0.950 . S
H527 C505 0.950 . S
C528 C529 1.349 . S
C528 C530 1.327 . S
C528 H553 0.950 . S
C529 C528 1.349 . S
C529 C545 1.349 . S
C530 C528 1.327 . S
C530 C549 1.429 . S
C530 H554 0.950 . S
C531 C548 1.574 . S
C531 C550 1.368 . S
C531 H555 0.949 . S
H532 C536 0.949 . S
C533 C534 1.349 . S
C533 C535 1.327 . S
C533 H556 0.950 . S
C534 C533 1.349 . S
C534 C546 1.349 . S
C535 C533 1.327 . S
C535 C551 1.429 . S
C535 H557 0.950 . S
C536 H532 0.949 . S
C536 C544 1.574 . S
C536 C552 1.368 . S
H537 C545 0.950 . S
H538 C543 0.950 . S
H539 C544 0.949 . S
H540 C546 0.950 . S
H541 C547 0.950 . S
H542 C548 0.949 . S
C543 H538 0.950 . S
C543 C545 1.327 . S
C543 C549 1.429 . S
C544 C536 1.574 . S
C544 H539 0.949 . S
C544 C550 1.368 . S
C545 C529 1.349 . S
C545 H537 0.950 . S
C545 C543 1.327 . S
C546 C534 1.349 . S
C546 H540 0.950 . S
C546 C547 1.327 . S
C547 H541 0.950 . S
C547 C546 1.327 . S
C547 C551 1.429 . S
C548 C531 1.574 . S
C548 H542 0.949 . S
C548 C552 1.368 . S
C549 C530 1.429 . S
C549 C543 1.429 . S
C549 C550 1.523 . S
C550 C531 1.368 . S
C550 C544 1.368 . S
C550 C549 1.523 . S
C551 C535 1.429 . S
C551 C547 1.429 . S
C551 C552 1.523 . S
C552 C536 1.368 . S
C552 C548 1.368 . S
C552 C551 1.523 . S
H553 C528 0.950 . S
H554 C530 0.950 . S
H555 C531 0.949 . S
H556 C533 0.950 . S
H557 C535 0.950 . S
C558 C559 1.349 . S
C558 C560 1.327 . S
C558 H583 0.950 . S
C559 C558 1.349 . S
C559 C575 1.349 . S
C560 C558 1.327 . S
C560 C579 1.429 . S
C560 H584 0.950 . S
C561 C578 1.574 . S
C561 C580 1.368 . S
C561 H585 0.949 . S
H562 C566 0.949 . S
C563 C564 1.349 . S
C563 C565 1.327 . S
C563 H586 0.950 . S
C564 C563 1.349 . S
C564 C576 1.349 . S
C565 C563 1.327 . S
C565 C581 1.429 . S
C565 H587 0.950 . S
C566 H562 0.949 . S
C566 C574 1.574 . S
C566 C582 1.368 . S
H567 C575 0.950 . S
H568 C573 0.950 . S
H569 C574 0.949 . S
H570 C576 0.950 . S
H571 C577 0.950 . S
H572 C578 0.949 . S
C573 H568 0.950 . S
C573 C575 1.327 . S
C573 C579 1.429 . S
C574 C566 1.574 . S
C574 H569 0.949 . S
C574 C580 1.368 . S
C575 C559 1.349 . S
C575 H567 0.950 . S
C575 C573 1.327 . S
C576 C564 1.349 . S
C576 H570 0.950 . S
C576 C577 1.327 . S
C577 H571 0.950 . S
C577 C576 1.327 . S
C577 C581 1.429 . S
C578 C561 1.574 . S
C578 H572 0.949 . S
C578 C582 1.368 . S
C579 C560 1.429 . S
C579 C573 1.429 . S
C579 C580 1.523 . S
C580 C561 1.368 . S
C580 C574 1.368 . S
C580 C579 1.523 . S
C581 C565 1.429 . S
C581 C577 1.429 . S
C581 C582 1.523 . S
C582 C566 1.368 . S
C582 C578 1.368 . S
C582 C581 1.523 . S
H583 C558 0.950 . S
H584 C560 0.950 . S
H585 C561 0.949 . S
H586 C563 0.950 . S
H587 C565 0.950 . S
C588 C589 1.349 1_556 S
C588 C590 1.327 . S
C588 H613 0.950 . S
C589 C588 1.349 1_554 S
C589 C605 1.349 . S
C590 C588 1.327 . S
C590 C609 1.429 . S
C590 H614 0.950 . S
C591 C608 1.574 . S
C591 C610 1.368 . S
C591 H615 0.949 1_556 S
H592 C596 0.949 . S
C593 C594 1.349 . S
C593 C595 1.327 . S
C593 H616 0.950 . S
C594 C593 1.349 . S
C594 C606 1.349 . S
C595 C593 1.327 . S
C595 C611 1.429 . S
C595 H617 0.950 . S
C596 H592 0.949 . S
C596 C604 1.574 . S
C596 C612 1.368 . S
H597 C605 0.950 . S
H598 C603 0.950 . S
H599 C604 0.949 . S
H600 C606 0.950 . S
H601 C607 0.950 . S
H602 C608 0.949 . S
C603 H598 0.950 . S
C603 C605 1.327 . S
C603 C609 1.429 1_554 S
C604 C596 1.574 . S
C604 H599 0.949 . S
C604 C610 1.368 . S
C605 C589 1.349 . S
C605 H597 0.950 . S
C605 C603 1.327 . S
C606 C594 1.349 . S
C606 H600 0.950 . S
C606 C607 1.327 . S
C607 H601 0.950 . S
C607 C606 1.327 . S
C607 C611 1.429 . S
C608 C591 1.574 . S
C608 H602 0.949 . S
C608 C612 1.368 . S
C609 C590 1.429 . S
C609 C603 1.429 1_556 S
C609 C610 1.523 . S
C610 C591 1.368 . S
C610 C604 1.368 . S
C610 C609 1.523 . S
C611 C595 1.429 . S
C611 C607 1.429 . S
C611 C612 1.523 . S
C612 C596 1.368 . S
C612 C608 1.368 . S
C612 C611 1.523 . S
H613 C588 0.950 . S
H614 C590 0.950 . S
H615 C591 0.949 1_554 S
H616 C593 0.950 . S
H617 C595 0.950 . S
C618 C619 1.349 . S
C618 C620 1.327 . S
C618 H643 0.950 . S
C619 C618 1.349 . S
C619 C635 1.349 . S
C620 C618 1.327 . S
C620 C639 1.429 . S
C620 H644 0.950 . S
C621 C638 1.574 . S
C621 C640 1.368 . S
C621 H645 0.949 . S
H622 C626 0.949 . S
C623 C624 1.349 . S
C623 C625 1.327 . S
C623 H646 0.950 . S
C624 C623 1.349 . S
C624 C636 1.349 1_556 S
C625 C623 1.327 . S
C625 C641 1.429 1_556 S
C625 H647 0.950 . S
C626 H622 0.949 . S
C626 C634 1.574 . S
C626 C642 1.368 . S
H627 C635 0.950 . S
H628 C633 0.950 . S
H629 C634 0.949 . S
H630 C636 0.950 . S
H631 C637 0.950 . S
H632 C638 0.949 1_556 S
C633 H628 0.950 . S
C633 C635 1.327 . S
C633 C639 1.429 . S
C634 C626 1.574 . S
C634 H629 0.949 . S
C634 C640 1.368 . S
C635 C619 1.349 . S
C635 H627 0.950 . S
C635 C633 1.327 . S
C636 C624 1.349 1_554 S
C636 H630 0.950 . S
C636 C637 1.327 . S
C637 H631 0.950 . S
C637 C636 1.327 . S
C637 C641 1.429 . S
C638 C621 1.574 . S
C638 H632 0.949 1_554 S
C638 C642 1.368 . S
C639 C620 1.429 . S
C639 C633 1.429 . S
C639 C640 1.523 . S
C640 C621 1.368 . S
C640 C634 1.368 . S
C640 C639 1.523 . S
C641 C625 1.429 1_554 S
C641 C637 1.429 . S
C641 C642 1.523 . S
C642 C626 1.368 . S
C642 C638 1.368 . S
C642 C641 1.523 . S
H643 C618 0.950 . S
H644 C620 0.950 . S
H645 C621 0.949 . S
H646 C623 0.950 . S
H647 C625 0.950 . S
C648 C649 1.349 . S
C648 C650 1.327 . S
C648 H673 0.950 . S
C649 C648 1.349 . S
C649 C665 1.349 . S
C650 C648 1.327 . S
C650 C669 1.429 . S
C650 H674 0.950 . S
C651 C668 1.574 . S
C651 C670 1.368 . S
C651 H675 0.949 . S
H652 C656 0.949 . S
C653 C654 1.349 . S
C653 C655 1.327 . S
C653 H676 0.950 . S
C654 C653 1.349 . S
C654 C666 1.349 . S
C655 C653 1.327 . S
C655 C671 1.429 . S
C655 H677 0.950 . S
C656 H652 0.949 . S
C656 C664 1.574 . S
C656 C672 1.368 . S
H657 C665 0.950 . S
H658 C663 0.950 . S
H659 C664 0.949 . S
H660 C666 0.950 . S
H661 C667 0.950 . S
H662 C668 0.949 . S
C663 H658 0.950 . S
C663 C665 1.327 . S
C663 C669 1.429 . S
C664 C656 1.574 . S
C664 H659 0.949 . S
C664 C670 1.368 . S
C665 C649 1.349 . S
C665 H657 0.950 . S
C665 C663 1.327 . S
C666 C654 1.349 . S
C666 H660 0.950 . S
C666 C667 1.327 . S
C667 H661 0.950 . S
C667 C666 1.327 . S
C667 C671 1.429 . S
C668 C651 1.574 . S
C668 H662 0.949 . S
C668 C672 1.368 . S
C669 C650 1.429 . S
C669 C663 1.429 . S
C669 C670 1.523 . S
C670 C651 1.368 . S
C670 C664 1.368 . S
C670 C669 1.523 . S
C671 C655 1.429 . S
C671 C667 1.429 . S
C671 C672 1.523 . S
C672 C656 1.368 . S
C672 C668 1.368 . S
C672 C671 1.523 . S
H673 C648 0.950 . S
H674 C650 0.950 . S
H675 C651 0.949 . S
H676 C653 0.950 . S
H677 C655 0.950 . S
C139 C17 1.212 . S
C144 C16 1.211 . S
C169 C40 1.212 . S
C174 C39 1.211 . S
C199 C62 1.211 . S
C204 C63 1.212 . S
C229 C85 1.211 . S
C234 C86 1.212 . S
C259 C108 1.211 . S
C264 C109 1.212 . S
C289 C132 1.212 . S
C294 C131 1.211 . S
C319 C20 1.453 . S
C324 C136 1.425 . S
C349 C21 1.426 . S
C354 C43 1.453 . S
C379 C66 1.453 . S
C384 C44 1.425 . S
C409 C89 1.453 . S
C414 C67 1.425 . S
C439 C112 1.453 . S
C444 C90 1.426 . S
C469 C113 1.425 . S
C474 C135 1.453 . S
C499 C19 1.635 . S
C504 C110 1.661 . S
C529 C42 1.635 . S
C534 C133 1.661 . S
C559 C65 1.635 . S
C564 C18 1.661 . S
C589 C88 1.635 . S
C594 C41 1.661 . S
C619 C111 1.635 . S
C624 C64 1.661 . S
C649 C87 1.661 . S
C654 C134 1.635 . S
