# Generated by pormake.
# Topology wke, (5)-cn, num edge types: 1
# Building blocks:
#     Node 0, Type 0, BuildingBlock: BEQFEK_clean_sbu_0, # of connection points: 5
#     Node 1, Type 0, BuildingBlock: BEQFEK_clean_sbu_0, # of connection points: 5
#     Node 2, Type 0, BuildingBlock: BEQFEK_clean_sbu_0, # of connection points: 5
#     Node 3, Type 0, BuildingBlock: BEQFEK_clean_sbu_0, # of connection points: 5
#     Node 4, Type 0, BuildingBlock: BEQFEK_clean_sbu_0, # of connection points: 5
#     Node 5, Type 0, BuildingBlock: BEQFEK_clean_sbu_0, # of connection points: 5
#     Node 6, Type 0, BuildingBlock: BEQFEK_clean_sbu_0, # of connection points: 5
#     Node 7, Type 0, BuildingBlock: BEQFEK_clean_sbu_0, # of connection points: 5
#     Node 8, Type 0, BuildingBlock: BEQFEK_clean_sbu_0, # of connection points: 5
#     Node 9, Type 0, BuildingBlock: BEQFEK_clean_sbu_0, # of connection points: 5
#     Node 10, Type 0, BuildingBlock: BEQFEK_clean_sbu_0, # of connection points: 5
#     Node 11, Type 0, BuildingBlock: BEQFEK_clean_sbu_0, # of connection points: 5
#     Edge 12, Type (0, 0), BuildingBlock: TEMPAE_clean_linker_10, # of connection points: 2
#     Edge 13, Type (0, 0), BuildingBlock: TEMPAE_clean_linker_10, # of connection points: 2
#     Edge 14, Type (0, 0), BuildingBlock: TEMPAE_clean_linker_10, # of connection points: 2
#     Edge 15, Type (0, 0), BuildingBlock: TEMPAE_clean_linker_10, # of connection points: 2
#     Edge 16, Type (0, 0), BuildingBlock: TEMPAE_clean_linker_10, # of connection points: 2
#     Edge 17, Type (0, 0), BuildingBlock: TEMPAE_clean_linker_10, # of connection points: 2
#     Edge 18, Type (0, 0), BuildingBlock: TEMPAE_clean_linker_10, # of connection points: 2
#     Edge 19, Type (0, 0), BuildingBlock: TEMPAE_clean_linker_10, # of connection points: 2
#     Edge 20, Type (0, 0), BuildingBlock: TEMPAE_clean_linker_10, # of connection points: 2
#     Edge 21, Type (0, 0), BuildingBlock: TEMPAE_clean_linker_10, # of connection points: 2
#     Edge 22, Type (0, 0), BuildingBlock: TEMPAE_clean_linker_10, # of connection points: 2
#     Edge 23, Type (0, 0), BuildingBlock: TEMPAE_clean_linker_10, # of connection points: 2
#     Edge 24, Type (0, 0), BuildingBlock: TEMPAE_clean_linker_10, # of connection points: 2
#     Edge 25, Type (0, 0), BuildingBlock: TEMPAE_clean_linker_10, # of connection points: 2
#     Edge 26, Type (0, 0), BuildingBlock: TEMPAE_clean_linker_10, # of connection points: 2
#     Edge 27, Type (0, 0), BuildingBlock: TEMPAE_clean_linker_10, # of connection points: 2
#     Edge 28, Type (0, 0), BuildingBlock: TEMPAE_clean_linker_10, # of connection points: 2
#     Edge 29, Type (0, 0), BuildingBlock: TEMPAE_clean_linker_10, # of connection points: 2
#     Edge 30, Type (0, 0), BuildingBlock: TEMPAE_clean_linker_10, # of connection points: 2
#     Edge 31, Type (0, 0), BuildingBlock: TEMPAE_clean_linker_10, # of connection points: 2
#     Edge 32, Type (0, 0), BuildingBlock: TEMPAE_clean_linker_10, # of connection points: 2
#     Edge 33, Type (0, 0), BuildingBlock: TEMPAE_clean_linker_10, # of connection points: 2
#     Edge 34, Type (0, 0), BuildingBlock: TEMPAE_clean_linker_10, # of connection points: 2
#     Edge 35, Type (0, 0), BuildingBlock: TEMPAE_clean_linker_10, # of connection points: 2
#     Edge 36, Type (0, 0), BuildingBlock: TEMPAE_clean_linker_10, # of connection points: 2
#     Edge 37, Type (0, 0), BuildingBlock: TEMPAE_clean_linker_10, # of connection points: 2
#     Edge 38, Type (0, 0), BuildingBlock: TEMPAE_clean_linker_10, # of connection points: 2
#     Edge 39, Type (0, 0), BuildingBlock: TEMPAE_clean_linker_10, # of connection points: 2
#     Edge 40, Type (0, 0), BuildingBlock: TEMPAE_clean_linker_10, # of connection points: 2
#     Edge 41, Type (0, 0), BuildingBlock: TEMPAE_clean_linker_10, # of connection points: 2
# Relax obj value: 0.218
# Max RMSD: 0.177
# Mean RMSD: 0.177
data_MOF--net-wke--node1-BEQFEK_clean_sbu_0--edge1-TEMPAE_clean_linker_10
_symmetry_space_group_name_H-M    P1
_symmetry_Int_Tables_number       1
_symmetry_cell_setting            triclinic
loop_
_symmetry_equiv_pos_as_xyz
'x, y, z'
_cell_length_a     72.935962
_cell_length_b     72.933945
_cell_length_c     18.918271
_cell_angle_alpha  90.084077
_cell_angle_beta   90.044826
_cell_angle_gamma 119.99571
loop_
_atom_site_label
_atom_site_type_symbol
_atom_site_fract_x
_atom_site_fract_y
_atom_site_fract_z
_atom_type_partial_charge
Co0 Co 0.10359 0.44954 0.27087 0.0
Co1 Co 0.12048 0.46331 0.42307 0.0
C2 C 0.075 0.43029 0.39073 0.0
O3 O 0.07788 0.42938 0.3248 0.0
O4 O 0.08995 0.44322 0.43038 0.0
C5 C 0.09294 0.42603 0.13831 0.0
O6 O 0.09016 0.40954 0.17487 0.0
C7 C 0.12219 0.45185 0.56689 0.0
C8 C 0.14484 0.48205 0.61805 0.0
C9 C 0.1308 0.46083 0.63179 0.0
N10 N 0.13043 0.46702 0.51745 0.0
N11 N 0.14414 0.48504 0.54801 0.0
C12 C 0.10709 0.429 0.55084 0.0
H13 H 0.10967 0.42511 0.49634 0.0
H14 H 0.10906 0.41859 0.58914 0.0
H15 H 0.0906 0.42591 0.55431 0.0
C16 C 0.14254 0.44573 0.26226 0.0
N17 N 0.12831 0.44872 0.2984 0.0
N18 N 0.1343 0.45277 0.36484 0.0
C19 C 0.15183 0.45128 0.3742 0.0
C20 C 0.15783 0.44693 0.30922 0.0
C21 C 0.14338 0.44516 0.18318 0.0
H22 H 0.13702 0.45477 0.15977 0.0
H23 H 0.13375 0.42857 0.16465 0.0
H24 H 0.15985 0.45154 0.16422 0.0
O25 O 0.1086 0.47864 0.28171 0.0
O26 O 0.12435 0.49054 0.38557 0.0
H27 H 0.17147 0.47072 0.45868 0.0
H28 H 0.17292 0.4469 0.44405 0.0
C29 C 0.1623 0.45368 0.44445 0.0
H30 H 0.15014 0.44539 0.48555 0.0
H31 H 0.15242 0.49948 0.52159 0.0
O32 O 0.09806 0.44331 0.16988 0.0
C33 C 0.11743 0.49344 0.32719 0.0
Co34 Co 0.65638 0.10157 0.75925 0.0
Co35 Co 0.65828 0.11843 0.91077 0.0
C36 C 0.6463 0.073 0.87951 0.0
O37 O 0.6506 0.07589 0.81391 0.0
O38 O 0.6479 0.08791 0.91843 0.0
C39 C 0.66987 0.09136 0.62638 0.0
O40 O 0.68397 0.089 0.6623 0.0
C41 C 0.67097 0.12022 0.05518 0.0
C42 C 0.66263 0.14234 0.10591 0.0
C43 C 0.67019 0.12862 0.12001 0.0
N44 N 0.66389 0.12826 0.0054 0.0
N45 N 0.6591 0.14165 0.03571 0.0
C46 C 0.67923 0.10553 0.03945 0.0
H47 H 0.68579 0.10826 0.98509 0.0
H48 H 0.69168 0.1078 0.07804 0.0
H49 H 0.66609 0.08891 0.04273 0.0
C50 C 0.69885 0.14087 0.75292 0.0
N51 N 0.68159 0.12639 0.78817 0.0
N52 N 0.68303 0.13239 0.85446 0.0
C53 C 0.70176 0.1502 0.86469 0.0
C54 C 0.71244 0.15635 0.8004 0.0
C55 C 0.70062 0.14178 0.67393 0.0
H56 H 0.68473 0.13515 0.64957 0.0
H57 H 0.70796 0.13243 0.65618 0.0
H58 H 0.71052 0.1583 0.65518 0.0
O59 O 0.63223 0.10654 0.76717 0.0
O60 O 0.63517 0.12227 0.87045 0.0
H61 H 0.70073 0.16957 0.94783 0.0
H62 H 0.7265 0.17197 0.93565 0.0
C63 C 0.70918 0.16087 0.935 0.0
H64 H 0.7055 0.14888 0.97654 0.0
H65 H 0.65277 0.14973 0.00898 0.0
O66 O 0.65752 0.09609 0.65847 0.0
C67 C 0.62587 0.11537 0.81118 0.0
Co68 Co 0.55637 0.65443 0.24894 0.0
Co69 Co 0.54448 0.65802 0.40341 0.0
C70 C 0.57806 0.64688 0.36741 0.0
O71 O 0.5764 0.64839 0.30107 0.0
O72 O 0.56648 0.64984 0.41062 0.0
C73 C 0.57992 0.66835 0.11828 0.0
O74 O 0.59597 0.68226 0.15631 0.0
C75 C 0.55534 0.67208 0.54712 0.0
C76 C 0.52463 0.66307 0.59691 0.0
C77 C 0.546 0.67138 0.61144 0.0
N78 N 0.54025 0.66423 0.49722 0.0
N79 N 0.52191 0.65908 0.52693 0.0
C80 C 0.57838 0.68078 0.53221 0.0
H81 H 0.58216 0.68689 0.47732 0.0
H82 H 0.58829 0.69363 0.57003 0.0
H83 H 0.58217 0.66792 0.53776 0.0
C84 C 0.55902 0.69671 0.24137 0.0
N85 N 0.55702 0.67987 0.27755 0.0
N86 N 0.55351 0.68195 0.34442 0.0
C87 C 0.55433 0.70067 0.35386 0.0
C88 C 0.55769 0.71066 0.28862 0.0
C89 C 0.5587 0.69777 0.1623 0.0
H90 H 0.54939 0.68166 0.1396 0.0
H91 H 0.57515 0.70526 0.14207 0.0
H92 H 0.55156 0.70729 0.14434 0.0
O93 O 0.52759 0.63045 0.25933 0.0
O94 O 0.51737 0.63359 0.36697 0.0
H95 H 0.53531 0.70024 0.44054 0.0
H96 H 0.55809 0.72605 0.42321 0.0
C97 C 0.55218 0.70879 0.42433 0.0
H98 H 0.56143 0.70583 0.46441 0.0
H99 H 0.50748 0.65214 0.50001 0.0
O100 O 0.56266 0.65554 0.14837 0.0
C101 C 0.51359 0.62411 0.30746 0.0
Co102 Co 0.90112 0.55741 0.76515 0.0
Co103 Co 0.88271 0.53983 0.91411 0.0
C104 C 0.92884 0.57369 0.88754 0.0
O105 O 0.92681 0.57618 0.82194 0.0
O106 O 0.91331 0.56 0.92342 0.0
C107 C 0.91391 0.58065 0.62821 0.0
O108 O 0.92103 0.59888 0.66089 0.0
C109 C 0.88023 0.55046 0.05844 0.0
C110 C 0.85973 0.51969 0.10968 0.0
C111 C 0.87258 0.54113 0.12353 0.0
N112 N 0.87266 0.53531 0.00866 0.0
N113 N 0.86017 0.51692 0.0393 0.0
C114 C 0.89436 0.57351 0.0431 0.0
H115 H 0.89122 0.57723 0.9891 0.0
H116 H 0.89192 0.58338 0.08254 0.0
H117 H 0.91113 0.57745 0.04569 0.0
C118 C 0.86337 0.56326 0.76199 0.0
N119 N 0.87676 0.55846 0.79549 0.0
N120 N 0.86917 0.55112 0.85874 0.0
C121 C 0.85089 0.55117 0.86784 0.0
C122 C 0.84659 0.55886 0.80679 0.0
C123 C 0.86617 0.57115 0.68759 0.0
H124 H 0.88112 0.58648 0.68394 0.0
H125 H 0.85301 0.57358 0.67031 0.0
H126 H 0.86725 0.5597 0.65161 0.0
O127 O 0.89531 0.52776 0.77056 0.0
O128 O 0.87887 0.51335 0.87134 0.0
H129 H 0.83471 0.52593 0.94185 0.0
H130 H 0.82103 0.5403 0.92222 0.0
C131 C 0.83677 0.54178 0.93063 0.0
H132 H 0.84441 0.55198 0.97745 0.0
H133 H 0.85272 0.50243 0.01273 0.0
O134 O 0.90594 0.56357 0.66337 0.0
C135 C 0.88614 0.51188 0.81169 0.0
Co136 Co 0.34626 0.90358 0.23915 0.0
Co137 Co 0.34642 0.88854 0.39128 0.0
C138 C 0.35768 0.93356 0.35742 0.0
O139 O 0.3541 0.93028 0.29148 0.0
O140 O 0.35575 0.91899 0.39866 0.0
C141 C 0.3461 0.92285 0.10175 0.0
O142 O 0.35731 0.94198 0.12837 0.0
C143 C 0.33518 0.8853 0.53773 0.0
C144 C 0.35104 0.86905 0.5837 0.0
C145 C 0.34024 0.87959 0.60151 0.0
N146 N 0.34291 0.87877 0.48523 0.0
N147 N 0.35198 0.86865 0.51273 0.0
C148 C 0.3248 0.89835 0.52621 0.0
H149 H 0.33325 0.91338 0.5565 0.0
H150 H 0.3241 0.9015 0.46942 0.0
H151 H 0.30818 0.88951 0.54464 0.0
C152 C 0.30378 0.86479 0.24104 0.0
N153 N 0.32148 0.87936 0.27417 0.0
N154 N 0.32082 0.87375 0.34039 0.0
C155 C 0.30214 0.85606 0.35281 0.0
C156 C 0.29064 0.84962 0.28987 0.0
C157 C 0.3016 0.86341 0.16232 0.0
H158 H 0.31685 0.86656 0.13909 0.0
H159 H 0.29791 0.87558 0.14327 0.0
H160 H 0.28922 0.84756 0.14392 0.0
O161 O 0.37026 0.8983 0.23937 0.0
O162 O 0.3691 0.88491 0.34566 0.0
H163 H 0.30411 0.83691 0.43464 0.0
H164 H 0.27827 0.83466 0.42653 0.0
C165 C 0.29559 0.84564 0.42363 0.0
H166 H 0.29985 0.85777 0.46512 0.0
H167 H 0.36006 0.86278 0.48342 0.0
O168 O 0.34088 0.90679 0.14035 0.0
C169 C 0.37726 0.89031 0.28425 0.0
Co170 Co 0.4455 0.34248 0.76182 0.0
Co171 Co 0.46587 0.34644 0.90844 0.0
C172 C 0.43092 0.35721 0.87971 0.0
O173 O 0.42743 0.35076 0.81584 0.0
O174 O 0.44542 0.3568 0.91596 0.0
C175 C 0.42766 0.34149 0.61947 0.0
O176 O 0.42013 0.35357 0.64094 0.0
C177 C 0.45907 0.33523 0.05526 0.0
C178 C 0.49128 0.35276 0.10046 0.0
C179 C 0.47007 0.3406 0.11877 0.0
N180 N 0.47308 0.34404 0.00249 0.0
N181 N 0.49235 0.35416 0.0295 0.0
C182 C 0.43557 0.32387 0.04445 0.0
H183 H 0.43149 0.32424 0.98831 0.0
H184 H 0.42877 0.307 0.0592 0.0
H185 H 0.42829 0.33095 0.07831 0.0
C186 C 0.43873 0.29899 0.77401 0.0
N187 N 0.44489 0.3183 0.80107 0.0
N188 N 0.45388 0.32 0.86276 0.0
C189 C 0.4539 0.3019 0.87681 0.0
C190 C 0.44429 0.28799 0.82086 0.0
C191 C 0.42868 0.29151 0.70299 0.0
H192 H 0.44105 0.29884 0.66176 0.0
H193 H 0.41669 0.29638 0.69403 0.0
H194 H 0.42102 0.27403 0.69831 0.0
O195 O 0.47511 0.36687 0.75676 0.0
O196 O 0.4911 0.3677 0.85748 0.0
H197 H 0.48048 0.31339 0.94704 0.0
H198 H 0.46717 0.28507 0.93129 0.0
C199 C 0.4649 0.29891 0.93876 0.0
H200 H 0.45523 0.29636 0.98687 0.0
H201 H 0.50608 0.36305 -9e-05 0.0
O202 O 0.43719 0.33587 0.66272 0.0
C203 C 0.49161 0.37478 0.79564 0.0
Co204 Co 0.55344 0.89886 0.21228 0.0
Co205 Co 0.53854 0.8824 0.06044 0.0
C206 C 0.57238 0.92761 0.093 0.0
O207 O 0.57373 0.92451 0.15848 0.0
O208 O 0.55895 0.9129 0.05367 0.0
C209 C 0.5771 0.90905 0.34511 0.0
O210 O 0.59366 0.91179 0.30899 0.0
C211 C 0.54963 0.88075 0.91624 0.0
C212 C 0.51925 0.85865 0.86495 0.0
C213 C 0.54056 0.87233 0.8513 0.0
N214 N 0.53444 0.87274 0.96567 0.0
N215 N 0.5163 0.85937 0.93503 0.0
C216 C 0.57257 0.89538 0.93244 0.0
H217 H 0.5763 0.89258 0.98688 0.0
H218 H 0.58278 0.8931 0.89409 0.0
H219 H 0.5761 0.91201 0.92921 0.0
C220 C 0.55669 0.85955 0.21758 0.0
N221 N 0.55363 0.87396 0.18297 0.0
N222 N 0.54895 0.86804 0.11665 0.0
C223 C 0.54997 0.8503 0.10583 0.0
C224 C 0.55478 0.84417 0.16969 0.0
C225 C 0.55813 0.85875 0.29642 0.0
H226 H 0.54878 0.86509 0.32186 0.0
H227 H 0.57492 0.86843 0.31295 0.0
H228 H 0.55201 0.84229 0.31514 0.0
O229 O 0.52448 0.89444 0.20347 0.0
O230 O 0.51168 0.87889 0.09993 0.0
H231 H 0.5296 0.83128 0.02202 0.0
H232 H 0.55278 0.82853 0.03435 0.0
C233 C 0.54672 0.83977 0.03525 0.0
H234 H 0.55521 0.85185 0.99411 0.0
H235 H 0.50185 0.85128 0.96147 0.0
O236 O 0.55992 0.90407 0.31319 0.0
C237 C 0.50936 0.8859 0.15904 0.0
Co238 Co 0.65381 0.55367 0.72794 0.0
Co239 Co 0.65762 0.54131 0.57337 0.0
C240 C 0.6473 0.57575 0.60889 0.0
O241 O 0.6482 0.57388 0.67545 0.0
O242 O 0.65041 0.56413 0.56604 0.0
C243 C 0.66493 0.5768 0.86135 0.0
O244 O 0.67657 0.59413 0.82484 0.0
C245 C 0.67324 0.55209 0.43098 0.0
C246 C 0.66133 0.52106 0.37916 0.0
C247 C 0.67152 0.54265 0.36595 0.0
N248 N 0.6641 0.5369 0.47998 0.0
N249 N 0.6573 0.51834 0.44906 0.0
C250 C 0.68337 0.57523 0.44686 0.0
H251 H 0.68936 0.57847 0.50205 0.0
H252 H 0.6965 0.58456 0.40943 0.0
H253 H 0.67137 0.58018 0.44111 0.0
C254 C 0.69685 0.55798 0.73582 0.0
N255 N 0.67941 0.55454 0.69987 0.0
N256 N 0.68098 0.5495 0.6342 0.0
C257 C 0.69953 0.54992 0.6259 0.0
C258 C 0.7102 0.55533 0.68998 0.0
C259 C 0.70056 0.56337 0.81283 0.0
H260 H 0.68641 0.55216 0.84353 0.0
H261 H 0.70328 0.57959 0.82089 0.0
H262 H 0.7146 0.56296 0.83312 0.0
O263 O 0.62954 0.5248 0.71523 0.0
O264 O 0.63265 0.51467 0.60739 0.0
H265 H 0.6929 0.52799 0.54119 0.0
H266 H 0.72043 0.54228 0.5675 0.0
C267 C 0.706 0.54349 0.55953 0.0
H268 H 0.70909 0.55534 0.51772 0.0
H269 H 0.64901 0.50382 0.47495 0.0
O270 O 0.65453 0.55917 0.82966 0.0
C271 C 0.62302 0.51092 0.66639 0.0
Co272 Co 0.10258 0.65818 0.23668 0.0
Co273 Co 0.11775 0.65575 0.08722 0.0
C274 C 0.07222 0.64317 0.12048 0.0
O275 O 0.07591 0.64997 0.18383 0.0
O276 O 0.08677 0.64373 0.0822 0.0
C277 C 0.08343 0.65776 0.37428 0.0
O278 O 0.0645 0.64499 0.34841 0.0
C279 C 0.11909 0.66553 0.94013 0.0
C280 C 0.13667 0.65118 0.89304 0.0
C281 C 0.12516 0.66103 0.87597 0.0
N282 N 0.1265 0.6585 0.99217 0.0
N283 N 0.1373 0.65024 0.96399 0.0
C284 C 0.10507 0.6748 0.95262 0.0
H285 H 0.10174 0.67505 0.00948 0.0
H286 H 0.1132 0.69151 0.93508 0.0
H287 H 0.09009 0.66585 0.92237 0.0
C288 C 0.14055 0.70096 0.22985 0.0
N289 N 0.12628 0.68263 0.19925 0.0
N290 N 0.13182 0.68236 0.13351 0.0
C291 C 0.14926 0.70103 0.11868 0.0
C292 C 0.15555 0.71353 0.17961 0.0
C293 C 0.14187 0.70434 0.30818 0.0
H294 H 0.13946 0.68974 0.33447 0.0
H295 H 0.12915 0.70748 0.32533 0.0
H296 H 0.15744 0.71749 0.32549 0.0
O297 O 0.10834 0.6343 0.2395 0.0
O298 O 0.12323 0.63496 0.13648 0.0
H299 H 0.16835 0.69789 0.03915 0.0
H300 H 0.17066 0.72384 0.04229 0.0
C301 C 0.15966 0.70659 0.04763 0.0
H302 H 0.1475 0.70176 0.0059 0.0
H303 H 0.14404 0.64292 0.99291 0.0
O304 O 0.09958 0.66429 0.335 0.0
C305 C 0.11724 0.62729 0.19821 0.0
Co306 Co 0.44619 0.09877 0.74283 0.0
Co307 Co 0.46053 0.11656 0.59063 0.0
C308 C 0.42701 0.0709 0.62042 0.0
O309 O 0.4273 0.07295 0.68728 0.0
O310 O 0.43911 0.08621 0.58057 0.0
C311 C 0.42306 0.08574 0.87783 0.0
O312 O 0.40524 0.07927 0.84318 0.0
C313 C 0.4498 0.12041 0.44732 0.0
C314 C 0.48072 0.14064 0.3966 0.0
C315 C 0.45925 0.12819 0.38247 0.0
N316 N 0.46491 0.12745 0.49718 0.0
N317 N 0.48338 0.13985 0.46687 0.0
C318 C 0.42673 0.10638 0.46211 0.0
H319 H 0.42299 0.10911 0.51663 0.0
H320 H 0.417 0.10925 0.42335 0.0
H321 H 0.42269 0.08963 0.45761 0.0
C322 C 0.4403 0.13649 0.75072 0.0
N323 N 0.44454 0.12305 0.71478 0.0
N324 N 0.45042 0.13033 0.65021 0.0
C325 C 0.44978 0.14836 0.64261 0.0
C326 C 0.44333 0.15284 0.70604 0.0
C327 C 0.43435 0.13427 0.82721 0.0
H328 H 0.41848 0.12013 0.83392 0.0
H329 H 0.43369 0.14821 0.84738 0.0
H330 H 0.44592 0.1321 0.85889 0.0
O331 O 0.47562 0.10482 0.73359 0.0
O332 O 0.48741 0.1196 0.62868 0.0
H333 H 0.45781 0.17736 0.58666 0.0
H334 H 0.44645 0.15355 0.53348 0.0
C335 C 0.45727 0.16204 0.57819 0.0
H336 H 0.47328 0.16507 0.56363 0.0
H337 H 0.49787 0.14686 0.49346 0.0
O338 O 0.44044 0.09358 0.84443 0.0
C339 C 0.49039 0.1133 0.68816 0.0
Co340 Co 0.34755 0.4464 0.22919 0.0
Co341 Co 0.34654 0.46242 0.07869 0.0
C342 C 0.35899 0.42921 0.1084 0.0
O343 O 0.35414 0.42713 0.17364 0.0
O344 O 0.35742 0.44271 0.07059 0.0
C345 C 0.33403 0.4225 0.36255 0.0
O346 O 0.31993 0.40581 0.3274 0.0
C347 C 0.33452 0.45181 0.93374 0.0
C348 C 0.34293 0.48229 0.88336 0.0
C349 C 0.33547 0.46104 0.86895 0.0
N350 N 0.34138 0.46687 0.9838 0.0
N351 N 0.34624 0.48507 0.95369 0.0
C352 C 0.32622 0.42884 0.94913 0.0
H353 H 0.31958 0.42498 0.00338 0.0
H354 H 0.31383 0.4187 0.9103 0.0
H355 H 0.33936 0.42536 0.94593 0.0
C356 C 0.30474 0.44256 0.2333 0.0
N357 N 0.32233 0.4458 0.19907 0.0
N358 N 0.32135 0.45093 0.13315 0.0
C359 C 0.30263 0.44995 0.12206 0.0
C360 C 0.29144 0.44478 0.18545 0.0
C361 C 0.30238 0.44102 0.3121 0.0
H362 H 0.31805 0.45026 0.33787 0.0
H363 H 0.29516 0.4242 0.32816 0.0
H364 H 0.29213 0.44723 0.33099 0.0
O365 O 0.3714 0.47575 0.22393 0.0
O366 O 0.36911 0.48928 0.12157 0.0
H367 H 0.30435 0.47107 0.04059 0.0
H368 H 0.27841 0.44772 0.05008 0.0
C369 C 0.29571 0.45383 0.05181 0.0
H370 H 0.29958 0.44577 0.00976 0.0
H371 H 0.35243 0.49945 0.98067 0.0
O372 O 0.34613 0.43951 0.32981 0.0
C373 C 0.37795 0.4913 0.18151 0.0
Co374 Co 0.90065 0.34826 0.72237 0.0
Co375 Co 0.88412 0.34672 0.57077 0.0
C376 C 0.92944 0.35854 0.60289 0.0
O377 O 0.92634 0.35395 0.66824 0.0
O378 O 0.9147 0.35722 0.56367 0.0
C379 C 0.91092 0.33478 0.85505 0.0
O380 O 0.91357 0.32088 0.81897 0.0
C381 C 0.88259 0.33419 0.42632 0.0
C382 C 0.8603 0.34226 0.37547 0.0
C383 C 0.87412 0.33482 0.36147 0.0
N384 N 0.87446 0.34121 0.476 0.0
N385 N 0.86098 0.34585 0.44562 0.0
C386 C 0.89736 0.32603 0.4422 0.0
H387 H 0.89463 0.3195 0.49658 0.0
H388 H 0.89517 0.31359 0.4037 0.0
H389 H 0.91395 0.33924 0.43896 0.0
C390 C 0.86158 0.30563 0.72739 0.0
N391 N 0.87594 0.3231 0.69281 0.0
N392 N 0.87004 0.32181 0.62647 0.0
C393 C 0.8524 0.30298 0.61555 0.0
C394 C 0.84627 0.29206 0.67942 0.0
C395 C 0.86064 0.30355 0.80629 0.0
H396 H 0.867 0.3193 0.83142 0.0
H397 H 0.87021 0.29639 0.82341 0.0
H398 H 0.84414 0.29333 0.82481 0.0
O399 O 0.89574 0.37247 0.71459 0.0
O400 O 0.88014 0.36972 0.61125 0.0
H401 H 0.83311 0.30398 0.53213 0.0
H402 H 0.83094 0.27829 0.54378 0.0
C403 C 0.8419 0.29564 0.54495 0.0
H404 H 0.85402 0.29951 0.50368 0.0
H405 H 0.85279 0.35208 0.47231 0.0
O406 O 0.90596 0.34698 0.82313 0.0
C407 C 0.88699 0.37893 0.67067 0.0
C408 C 0.04898 0.42378 0.486 0.0
C409 C 0.05384 0.41713 0.42263 0.0
C410 C 0.02879 0.41251 0.51603 0.0
C411 C 0.01315 0.39376 0.48293 0.0
C412 C 0.01818 0.3864 0.42056 0.0
C413 C 0.03842 0.39837 0.39045 0.0
C414 C 0.02397 0.42125 0.58145 0.0
C415 C 0.00206 0.36614 0.38499 0.0
C416 C 0.9648 0.36054 0.59738 0.0
C417 C 0.9506 0.36656 0.57128 0.0
C418 C 0.98491 0.3684 0.56667 0.0
C419 C 0.99111 0.38312 0.51039 0.0
C420 C 0.97673 0.38909 0.48376 0.0
C421 C 0.95657 0.3805 0.51381 0.0
C422 C 0.99962 0.36117 0.59491 0.0
C423 C 0.98288 0.40523 0.42534 0.0
H424 H 0.06079 0.43831 0.51112 0.0
H425 H 0.04218 0.39305 0.34192 0.0
H426 H 0.01149 0.42525 0.56929 0.0
H427 H 0.0178 0.40919 0.62394 0.0
H428 H 0.03812 0.43568 0.60189 0.0
H429 H 0.00917 0.36129 0.34214 0.0
H430 H 0.99467 0.35315 0.42427 0.0
H431 H 0.98923 0.36821 0.36191 0.0
H432 H 0.96011 0.34956 0.64122 0.0
H433 H 0.94565 0.38525 0.49362 0.0
H434 H 0.01335 0.37456 0.62149 0.0
H435 H 0.00591 0.35588 0.5508 0.0
H436 H 0.99163 0.34801 0.63338 0.0
H437 H 0.9965 0.42055 0.44269 0.0
H438 H 0.9697 0.4079 0.41 0.0
H439 H 0.98799 0.40003 0.37789 0.0
C440 C 0.6422 0.03665 0.88154 0.0
C441 C 0.63825 0.05189 0.91184 0.0
C442 C 0.63397 0.01648 0.91216 0.0
C443 C 0.62101 0.01132 0.97306 0.0
C444 C 0.61727 0.02678 0.00428 0.0
C445 C 0.62615 0.04691 0.97385 0.0
C446 C 0.63879 1.00057 0.87867 0.0
C447 C 0.60308 0.0218 0.06802 0.0
C448 C 0.57805 0.9545 0.00222 0.0
C449 C 0.58565 0.94876 0.06136 0.0
C450 C 0.58963 0.97465 0.97219 0.0
C451 C 0.60966 0.98929 0.00065 0.0
C452 C 0.61784 0.98334 0.0587 0.0
C453 C 0.60555 0.9632 0.08923 0.0
C454 C 0.58001 0.98053 0.91176 0.0
C455 C 0.63942 0.99833 0.08905 0.0
H456 H 0.65175 0.04051 0.83411 0.0
H457 H 0.62297 0.05858 -0.00248 0.0
H458 H 0.64425 0.99343 0.91942 0.0
H459 H 0.62421 0.98753 0.85457 0.0
H460 H 0.65109 0.00779 0.83697 0.0
H461 H 0.60233 0.03582 0.08715 0.0
H462 H 0.5868 0.00911 0.05446 0.0
H463 H 0.60875 0.01585 0.11191 0.0
H464 H 0.56262 0.94342 0.9806 0.0
H465 H 0.61157 0.95871 0.13443 0.0
H466 H 0.59077 0.98578 0.86552 0.0
H467 H 0.57785 0.99398 0.92774 0.0
H468 H 0.56442 0.96715 0.89505 0.0
H469 H 0.65139 0.00479 0.04622 0.0
H470 H 0.64444 0.99052 0.12884 0.0
H471 H 0.63924 0.01193 0.11467 0.0
C472 C 0.65165 0.60329 0.52227 0.0
C473 C 0.64078 0.59034 0.57977 0.0
C474 C 0.64379 0.61482 0.4868 0.0
C475 C 0.62441 0.61301 0.50884 0.0
C476 C 0.61384 0.6006 0.56889 0.0
C477 C 0.62231 0.58956 0.60416 0.0
C478 C 0.65585 0.62835 0.42435 0.0
C479 C 0.59301 0.59806 0.59357 0.0
C480 C 0.60637 0.65129 0.45066 0.0
C481 C 0.59235 0.63992 0.39578 0.0
C482 C 0.61771 0.64318 0.48599 0.0
C483 C 0.61449 0.62301 0.46685 0.0
C484 C 0.60085 0.61181 0.40964 0.0
C485 C 0.59011 0.62056 0.37417 0.0
C486 C 0.63256 0.65588 0.54523 0.0
C487 C 0.59674 0.59011 0.38833 0.0
H488 H 0.66621 0.60424 0.50463 0.0
H489 H 0.61386 0.5794 0.64842 0.0
H490 H 0.64675 0.62129 0.37508 0.0
H491 H 0.6579 0.64442 0.42969 0.0
H492 H 0.67169 0.62981 0.41869 0.0
H493 H 0.58723 0.5885 0.64264 0.0
H494 H 0.59458 0.61377 0.60348 0.0
H495 H 0.58088 0.59019 0.5516 0.0
H496 H 0.60826 0.66642 0.46648 0.0
H497 H 0.57905 0.61172 0.33213 0.0
H498 H 0.64814 0.65689 0.5381 0.0
H499 H 0.62602 0.64787 0.59641 0.0
H500 H 0.63503 0.67217 0.54833 0.0
H501 H 0.61186 0.59063 0.37609 0.0
H502 H 0.58616 0.58378 0.34151 0.0
H503 H 0.5893 0.57894 0.43296 0.0
C504 C 0.04487 0.61964 0.03377 0.0
C505 C 0.05084 0.63433 0.08922 0.0
C506 C 0.02495 0.61112 0.00173 0.0
C507 C 0.01075 0.61783 0.02439 0.0
C508 C 0.01678 0.63294 0.0796 0.0
C509 C 0.0367 0.64082 0.11215 0.0
C510 C 0.01895 0.5946 0.94448 0.0
C511 C 0.00223 0.6408 0.10402 0.0
C512 C 0.96601 0.60465 0.89416 0.0
C513 C 0.94955 0.58609 0.92372 0.0
C514 C 0.98577 0.61586 0.92831 0.0
C515 C 0.98922 0.60801 0.99249 0.0
C516 C 0.97251 0.58952 0.02312 0.0
C517 C 0.95288 0.57894 0.98877 0.0
C518 C 0.00309 0.63582 0.895 0.0
C519 C 0.97561 0.58032 0.09061 0.0
H520 H 0.05571 0.61449 0.01604 0.0
H521 H 0.04136 0.65235 0.15445 0.0
H522 H 0.0046 0.57971 0.96048 0.0
H523 H 0.01507 0.60004 0.89491 0.0
H524 H 0.03181 0.59106 0.93325 0.0
H525 H 0.00975 0.65348 0.14456 0.0
H526 H 0.99744 0.64701 0.05836 0.0
H527 H 0.98757 0.62754 0.12666 0.0
H528 H 0.96348 0.61039 0.84437 0.0
H529 H 0.94028 0.56459 0.01212 0.0
H530 H 0.0159 0.63309 0.87591 0.0
H531 H 0.01017 0.64876 0.93473 0.0
H532 H 0.99721 0.64111 0.84966 0.0
H533 H 0.98748 0.57528 0.08182 0.0
H534 H 0.96069 0.56645 0.10937 0.0
H535 H 0.98181 0.59245 0.13305 0.0
C536 C 0.39865 0.04796 0.5358 0.0
C537 C 0.41346 0.05019 0.58719 0.0
C538 C 0.38776 0.02926 0.49598 0.0
C539 C 0.39225 0.0127 0.50684 0.0
C540 C 0.40697 0.01481 0.55976 0.0
C541 C 0.41725 0.0335 0.59993 0.0
C542 C 0.37178 0.02741 0.44152 0.0
C543 C 0.41246 0.99766 0.57218 0.0
C544 C 0.35503 0.95599 0.4508 0.0
C545 C 0.36451 0.95455 0.38833 0.0
C546 C 0.36324 0.97513 0.48799 0.0
C547 C 0.38171 0.99315 0.46284 0.0
C548 C 0.39087 0.992 0.39804 0.0
C549 C 0.38198 0.97268 0.36099 0.0
C550 C 0.3526 0.97583 0.5556 0.0
C551 C 0.41076 0.01079 0.36998 0.0
H552 H 0.39574 0.06094 0.52643 0.0
H553 H 0.42899 0.03548 0.63902 0.0
H554 H 0.37743 0.02661 0.38781 0.0
H555 H 0.3565 0.01258 0.44973 0.0
H556 H 0.36895 0.04102 0.44348 0.0
H557 H 0.42439 0.00187 0.61486 0.0
H558 H 0.39804 0.98264 0.58654 0.0
H559 H 0.4188 0.9947 0.52282 0.0
H560 H 0.34133 0.94199 0.47125 0.0
H561 H 0.38939 0.97145 0.31294 0.0
H562 H 0.34992 0.98953 0.55509 0.0
H563 H 0.36303 0.97796 0.60131 0.0
H564 H 0.33719 0.96112 0.56388 0.0
H565 H 0.40867 0.02481 0.36606 0.0
H566 H 0.41524 0.00763 0.31715 0.0
H567 H 0.42403 0.01491 0.40724 0.0
C568 C 0.39842 0.36076 0.88794 0.0
C569 C 0.41844 0.36576 0.91349 0.0
C570 C 0.38672 0.36896 0.92078 0.0
C571 C 0.39554 0.38288 0.97924 0.0
C572 C 0.41569 0.38784 0.00534 0.0
C573 C 0.42676 0.37905 0.9727 0.0
C574 C 0.36507 0.36296 0.8925 0.0
C575 C 0.42594 0.40304 0.06631 0.0
C576 C 0.37955 0.42414 0.01316 0.0
C577 C 0.3674 0.41656 0.07494 0.0
C578 C 0.38839 0.41309 0.98082 0.0
C579 C 0.38463 0.39366 0.00994 0.0
C580 C 0.3718 0.38551 0.071 0.0
C581 C 0.36355 0.39723 0.10345 0.0
C582 C 0.4024 0.42263 0.91689 0.0
C583 C 0.36703 0.36458 0.10246 0.0
H584 H 0.39182 0.35032 0.84269 0.0
H585 H 0.44226 0.38306 0.99268 0.0
H586 H 0.35334 0.35722 0.9361 0.0
H587 H 0.36535 0.37707 0.86944 0.0
H588 H 0.35965 0.35047 0.85118 0.0
H589 H 0.44148 0.40484 0.08128 0.0
H590 H 0.42835 0.41884 0.05189 0.0
H591 H 0.41545 0.39753 0.11323 0.0
H592 H 0.38268 0.43912 0.99087 0.0
H593 H 0.35399 0.3912 0.15072 0.0
H594 H 0.39641 0.41134 0.87196 0.0
H595 H 0.41864 0.42586 0.92902 0.0
H596 H 0.40334 0.43765 0.8999 0.0
H597 H 0.36094 0.35213 0.06099 0.0
H598 H 0.35523 0.35952 0.14582 0.0
H599 H 0.38178 0.3658 0.12375 0.0
C600 C 0.1082 0.59704 0.27991 0.0
C601 C 0.11983 0.60935 0.22194 0.0
C602 C 0.10924 0.57911 0.30043 0.0
C603 C 0.1225 0.57351 0.26286 0.0
C604 C 0.13496 0.58635 0.20617 0.0
C605 C 0.13333 0.60401 0.18593 0.0
C606 C 0.09542 0.56564 0.36038 0.0
C607 C 0.14955 0.58108 0.16561 0.0
C608 C 0.13353 0.5326 0.34747 0.0
C609 C 0.11914 0.51413 0.31128 0.0
C610 C 0.13517 0.5522 0.33136 0.0
C611 C 0.12182 0.5532 0.27889 0.0
C612 C 0.10722 0.53458 0.24257 0.0
C613 C 0.10618 0.51535 0.25878 0.0
C614 C 0.15116 0.57182 0.37034 0.0
C615 C 0.09243 0.53487 0.18716 0.0
H616 H 0.09769 0.601 0.30802 0.0
H617 H 0.14252 0.61355 0.14153 0.0
H618 H 0.0835 0.54984 0.33982 0.0
H619 H 0.10507 0.56312 0.40034 0.0
H620 H 0.08696 0.57286 0.38693 0.0
H621 H 0.15974 0.59378 0.12787 0.0
H622 H 0.15984 0.57846 0.2026 0.0
H623 H 0.14007 0.56617 0.1355 0.0
H624 H 0.14367 0.53179 0.38776 0.0
H625 H 0.09491 0.50114 0.23085 0.0
H626 H 0.14294 0.57866 0.4004 0.0
H627 H 0.16183 0.584 0.33205 0.0
H628 H 0.1609 0.56851 0.40772 0.0
H629 H 0.08239 0.54074 0.21075 0.0
H630 H 0.08193 0.51896 0.16398 0.0
H631 H 0.10167 0.54587 0.1439 0.0
C632 C 0.51258 0.10323 0.76037 0.0
C633 C 0.51119 0.11548 0.70574 0.0
C634 C 0.5319 0.10464 0.778 0.0
C635 C 0.55043 0.11892 0.7409 0.0
C636 C 0.54928 0.13171 0.6867 0.0
C637 C 0.5296 0.12968 0.66923 0.0
C638 C 0.53235 0.09042 0.83517 0.0
C639 C 0.5688 0.14734 0.64677 0.0
C640 C 0.60219 0.13087 0.82899 0.0
C641 C 0.60708 0.11713 0.79236 0.0
C642 C 0.58421 0.13227 0.81105 0.0
C643 C 0.57065 0.11934 0.75617 0.0
C644 C 0.57564 0.10561 0.71868 0.0
C645 C 0.59383 0.10479 0.73686 0.0
C646 C 0.57954 0.14733 0.85145 0.0
C647 C 0.5614 0.09128 0.6607 0.0
H648 H 0.49842 0.09213 0.78869 0.0
H649 H 0.52866 0.13933 0.62741 0.0
H650 H 0.53761 0.07977 0.81251 0.0
H651 H 0.54389 0.10003 0.87688 0.0
H652 H 0.51661 0.08055 0.86014 0.0
H653 H 0.56551 0.15713 0.60962 0.0
H654 H 0.58133 0.15799 0.68436 0.0
H655 H 0.57518 0.13878 0.61623 0.0
H656 H 0.61244 0.14057 0.8715 0.0
H657 H 0.59741 0.09406 0.70835 0.0
H658 H 0.56468 0.13825 0.88191 0.0
H659 H 0.57712 0.15767 0.81421 0.0
H660 H 0.59247 0.15745 0.88876 0.0
H661 H 0.5456 0.08005 0.6828 0.0
H662 H 0.56791 0.08202 0.63514 0.0
H663 H 0.55903 0.10071 0.61957 0.0
C664 C 0.49123 0.5908 0.24053 0.0
C665 C 0.49275 0.60523 0.29259 0.0
C666 C 0.47178 0.57296 0.22371 0.0
C667 C 0.45324 0.56957 0.2589 0.0
C668 C 0.45457 0.58416 0.31107 0.0
C669 C 0.4744 0.60174 0.32793 0.0
C670 C 0.47116 0.55755 0.16894 0.0
C671 C 0.43506 0.5812 0.34886 0.0
C672 C 0.40213 0.5305 0.1658 0.0
C673 C 0.39646 0.51179 0.20298 0.0
C674 C 0.42005 0.54973 0.18553 0.0
C675 C 0.43274 0.55013 0.24294 0.0
C676 C 0.42684 0.53139 0.28144 0.0
C677 C 0.40874 0.51253 0.26132 0.0
C678 C 0.4257 0.56949 0.1439 0.0
C679 C 0.44013 0.53103 0.34219 0.0
H680 H 0.50537 0.59331 0.21332 0.0
H681 H 0.47548 0.61295 0.36775 0.0
H682 H 0.46493 0.54166 0.19296 0.0
H683 H 0.4603 0.55593 0.12523 0.0
H684 H 0.48702 0.56256 0.14629 0.0
H685 H 0.43862 0.59444 0.38576 0.0
H686 H 0.42312 0.57994 0.3098 0.0
H687 H 0.42777 0.5662 0.37927 0.0
H688 H 0.39263 0.53012 0.12113 0.0
H689 H 0.40454 0.49818 0.29048 0.0
H690 H 0.44063 0.57459 0.11451 0.0
H691 H 0.42843 0.5826 0.18017 0.0
H692 H 0.41314 0.56701 0.10543 0.0
H693 H 0.45591 0.53468 0.32238 0.0
H694 H 0.43271 0.51544 0.36919 0.0
H695 H 0.44272 0.54337 0.38165 0.0
C696 C 0.87011 0.47245 0.82208 0.0
C697 C 0.88435 0.49157 0.78913 0.0
C698 C 0.86865 0.45327 0.80099 0.0
C699 C 0.88204 0.45332 0.74665 0.0
C700 C 0.89626 0.47253 0.71277 0.0
C701 C 0.89712 0.49136 0.73402 0.0
C702 C 0.85307 0.43302 0.83758 0.0
C703 C 0.91108 0.47334 0.65553 0.0
C704 C 0.89718 0.41062 0.7465 0.0
C705 C 0.88516 0.39766 0.69001 0.0
C706 C 0.89607 0.42858 0.76587 0.0
C707 C 0.88237 0.43363 0.72853 0.0
C708 C 0.86989 0.42045 0.6722 0.0
C709 C 0.87156 0.40269 0.65317 0.0
C710 C 0.90992 0.4424 0.82546 0.0
C711 C 0.8549 0.42522 0.63183 0.0
H712 H 0.86005 0.47246 0.86424 0.0
H713 H 0.90823 0.50606 0.70836 0.0
H714 H 0.84304 0.42087 0.79796 0.0
H715 H 0.86172 0.42666 0.86762 0.0
H716 H 0.84264 0.4354 0.87474 0.0
H717 H 0.92062 0.48942 0.63262 0.0
H718 H 0.92205 0.46839 0.67751 0.0
H719 H 0.902 0.46212 0.61239 0.0
H720 H 0.90782 0.40695 0.77514 0.0
H721 H 0.86212 0.39268 0.60981 0.0
H722 H 0.90004 0.44388 0.86711 0.0
H723 H 0.92085 0.45857 0.80543 0.0
H724 H 0.91947 0.43607 0.84988 0.0
H725 H 0.84391 0.42666 0.66893 0.0
H726 H 0.84546 0.4128 0.59207 0.0
H727 H 0.86395 0.44061 0.60422 0.0
C728 C 0.47028 0.87101 0.14063 0.0
C729 C 0.489 0.88472 0.17691 0.0
C730 C 0.45107 0.87008 0.15781 0.0
C731 C 0.45072 0.88347 0.21148 0.0
C732 C 0.46956 0.89728 0.2483 0.0
C733 C 0.48839 0.8976 0.23099 0.0
C734 C 0.43119 0.8549 0.11825 0.0
C735 C 0.46997 0.91211 0.30497 0.0
C736 C 0.40865 0.89953 0.2082 0.0
C737 C 0.3955 0.88774 0.2644 0.0
C738 C 0.42641 0.89796 0.18961 0.0
C739 C 0.43096 0.88395 0.22722 0.0
C740 C 0.41742 0.87152 0.28269 0.0
C741 C 0.39996 0.87373 0.30117 0.0
C742 C 0.44069 0.91182 0.13112 0.0
C743 C 0.42157 0.85613 0.32315 0.0
H744 H 0.4706 0.8609 0.09916 0.0
H745 H 0.50279 0.90834 0.2591 0.0
H746 H 0.41859 0.84467 0.15611 0.0
H747 H 0.42525 0.86387 0.08783 0.0
H748 H 0.43385 0.84466 0.08106 0.0
H749 H 0.48589 0.92167 0.32924 0.0
H750 H 0.46513 0.92305 0.28209 0.0
H751 H 0.45848 0.90299 0.34727 0.0
H752 H 0.40537 0.91046 0.17969 0.0
H753 H 0.38975 0.86443 0.34421 0.0
H754 H 0.44251 0.90198 0.09008 0.0
H755 H 0.45669 0.92273 0.15272 0.0
H756 H 0.43456 0.9214 0.1056 0.0
H757 H 0.42341 0.84538 0.28598 0.0
H758 H 0.40864 0.84643 0.36086 0.0
H759 H 0.43659 0.8649 0.3532 0.0
C760 C 0.53087 0.39911 0.80248 0.0
C761 C 0.51145 0.39312 0.76939 0.0
C762 C 0.54952 0.41725 0.78084 0.0
C763 C 0.54866 0.42993 0.72572 0.0
C764 C 0.52922 0.42365 0.69085 0.0
C765 C 0.51089 0.40523 0.7127 0.0
C766 C 0.57003 0.42323 0.81849 0.0
C767 C 0.52758 0.4369 0.63263 0.0
C768 C 0.58962 0.48836 0.73267 0.0
C769 C 0.60381 0.49018 0.67942 0.0
C770 C 0.57152 0.46891 0.74743 0.0
C771 C 0.56765 0.45067 0.70887 0.0
C772 C 0.58188 0.45234 0.65496 0.0
C773 C 0.59972 0.47216 0.64036 0.0
C774 C 0.55655 0.46789 0.80446 0.0
C775 C 0.57842 0.43316 0.61354 0.0
H776 H 0.53147 0.38972 0.84584 0.0
H777 H 0.49595 0.40074 0.6869 0.0
H778 H 0.58266 0.42643 0.7796 0.0
H779 H 0.57524 0.43798 0.84932 0.0
H780 H 0.56846 0.41064 0.85519 0.0
H781 H 0.51165 0.42909 0.60761 0.0
H782 H 0.53086 0.45238 0.65451 0.0
H783 H 0.53958 0.44019 0.59119 0.0
H784 H 0.59257 0.50225 0.76269 0.0
H785 H 0.61069 0.47345 0.59942 0.0
H786 H 0.55566 0.45708 0.8472 0.0
H787 H 0.54036 0.46139 0.78241 0.0
H788 H 0.56152 0.48366 0.82802 0.0
H789 H 0.57816 0.42115 0.65006 0.0
H790 H 0.59093 0.43712 0.57329 0.0
H791 H 0.56283 0.42579 0.5865 0.0
C792 C 0.10299 0.43684 0.71717 0.0
C793 C 0.12434 0.45119 0.70258 0.0
C794 C 0.09633 0.42915 0.78564 0.0
C795 C 0.11131 0.43644 0.84118 0.0
C796 C 0.13299 0.45043 0.82654 0.0
C797 C 0.13924 0.45769 0.75727 0.0
C798 C 0.07307 0.41428 0.79914 0.0
C799 C 0.14941 0.45865 0.88465 0.0
C800 C 0.09419 0.44287 0.02331 0.0
C801 C 0.09427 0.42632 0.06052 0.0
C802 C 0.09903 0.44586 0.95131 0.0
C803 C 0.10401 0.43188 0.91551 0.0
C804 C 0.10298 0.4144 0.95168 0.0
C805 C 0.09809 0.4118 0.02411 0.0
C806 C 0.09977 0.4646 0.91446 0.0
C807 C 0.10796 0.39907 0.91471 0.0
H808 H 0.09119 0.43241 0.67608 0.0
H809 H 0.15573 0.46887 0.74615 0.0
H810 H 0.07077 0.40103 0.83376 0.0
H811 H 0.06627 0.42292 0.82687 0.0
H812 H 0.06406 0.40761 0.74931 0.0
H813 H 0.16579 0.4677 0.86359 0.0
H814 H 0.14671 0.4692 0.92013 0.0
H815 H 0.148 0.44537 0.91717 0.0
H816 H 0.09104 0.45402 0.05113 0.0
H817 H 0.09824 0.39902 0.05275 0.0
H818 H 0.0896 0.4593 0.86661 0.0
H819 H 0.11619 0.4757 0.89693 0.0
H820 H 0.09447 0.47335 0.94918 0.0
H821 H 0.09888 0.39344 0.86461 0.0
H822 H 0.1043 0.38514 0.94816 0.0
H823 H 0.12502 0.40721 0.90089 0.0
C824 C 0.65348 0.09195 0.51219 0.0
C825 C 0.67059 0.09268 0.54857 0.0
C826 C 0.6549 0.09679 0.44027 0.0
C827 C 0.67389 0.10242 0.40366 0.0
C828 C 0.69082 0.10205 0.43897 0.0
C829 C 0.68897 0.09715 0.51137 0.0
C830 C 0.6364 0.09683 0.40437 0.0
C831 C 0.71118 0.10772 0.40112 0.0
C832 C 0.66719 0.10114 0.20548 0.0
C833 C 0.67358 0.12236 0.19092 0.0
C834 C 0.66863 0.09465 0.27386 0.0
C835 C 0.67608 0.10965 0.32937 0.0
C836 C 0.68307 0.1312 0.31481 0.0
C837 C 0.68168 0.1373 0.24562 0.0
C838 C 0.66098 0.07152 0.28729 0.0
C839 C 0.69096 0.14763 0.37292 0.0
H840 H 0.63915 0.0883 0.54063 0.0
H841 H 0.70226 0.09781 0.53938 0.0
H842 H 0.64111 0.11313 0.38705 0.0
H843 H 0.63163 0.08668 0.35649 0.0
H844 H 0.62243 0.09111 0.43967 0.0
H845 H 0.72195 0.10459 0.434 0.0
H846 H 0.70782 0.09865 0.35105 0.0
H847 H 0.71951 0.12477 0.38714 0.0
H848 H 0.66004 0.0893 0.16442 0.0
H849 H 0.68651 0.15368 0.23453 0.0
H850 H 0.64566 0.06433 0.31583 0.0
H851 H 0.67238 0.06969 0.32116 0.0
H852 H 0.65866 0.06255 0.23739 0.0
H853 H 0.67769 0.14443 0.40898 0.0
H854 H 0.69767 0.16395 0.35192 0.0
H855 H 0.70326 0.14676 0.40484 0.0
C856 C 0.5706 0.66895 0.69785 0.0
C857 C 0.55559 0.67506 0.68253 0.0
C858 C 0.5783 0.67037 0.76654 0.0
C859 C 0.57029 0.67744 0.82162 0.0
C860 C 0.55563 0.68427 0.8063 0.0
C861 C 0.54841 0.68296 0.73673 0.0
C862 C 0.59391 0.66292 0.78076 0.0
C863 C 0.54662 0.69176 0.86399 0.0
C864 C 0.56396 0.65309 0.00197 0.0
C865 C 0.57996 0.66986 0.04067 0.0
C866 C 0.56109 0.65524 0.93013 0.0
C867 C 0.57465 0.67463 0.89602 0.0
C868 C 0.5916 0.69125 0.93368 0.0
C869 C 0.59408 0.68867 0.00598 0.0
C870 C 0.54291 0.63704 0.89159 0.0
C871 C 0.6065 0.71201 0.89843 0.0
H872 H 0.57553 0.6619 0.65725 0.0
H873 H 0.53672 0.68756 0.72502 0.0
H874 H 0.60671 0.67407 0.81663 0.0
H875 H 0.58568 0.64728 0.80731 0.0
H876 H 0.60118 0.66127 0.73129 0.0
H877 H 0.53723 0.69867 0.84244 0.0
H878 H 0.53619 0.67821 0.89848 0.0
H879 H 0.5595 0.70378 0.89765 0.0
H880 H 0.55313 0.63844 0.02852 0.0
H881 H 0.60642 0.7017 0.03584 0.0
H882 H 0.54879 0.63269 0.84403 0.0
H883 H 0.53149 0.64189 0.87341 0.0
H884 H 0.53434 0.62278 0.92537 0.0
H885 H 0.61267 0.7092 0.84843 0.0
H886 H 0.6201 0.72248 0.933 0.0
H887 H 0.59782 0.7204 0.88469 0.0
C888 C 0.9107 0.56135 0.51673 0.0
C889 C 0.91193 0.57903 0.55057 0.0
C890 C 0.90555 0.55745 0.44497 0.0
C891 C 0.90128 0.57147 0.40617 0.0
C892 C 0.90338 0.58987 0.43919 0.0
C893 C 0.90882 0.59353 0.51123 0.0
C894 C 0.90384 0.53782 0.41148 0.0
C895 C 0.89891 0.60513 0.39936 0.0
C896 C 0.90112 0.56474 0.20766 0.0
C897 C 0.87958 0.5508 0.19422 0.0
C898 C 0.90833 0.57254 0.27589 0.0
C899 C 0.89364 0.56608 0.33211 0.0
C900 C 0.87178 0.55248 0.31847 0.0
C901 C 0.86503 0.54485 0.24964 0.0
C902 C 0.93178 0.58675 0.28835 0.0
C903 C 0.85562 0.54528 0.37712 0.0
H904 H 0.91323 0.55019 0.54702 0.0
H905 H 0.90959 0.60711 0.53747 0.0
H906 H 0.88719 0.52683 0.39584 0.0
H907 H 0.91359 0.54204 0.36282 0.0
H908 H 0.90904 0.52933 0.44778 0.0
H909 H 0.90297 0.61955 0.43082 0.0
H910 H 0.90798 0.60996 0.34921 0.0
H911 H 0.88186 0.5972 0.38533 0.0
H912 H 0.91256 0.56876 0.16563 0.0
H913 H 0.8484 0.53398 0.23927 0.0
H914 H 0.93798 0.57803 0.31895 0.0
H915 H 0.9348 0.6008 0.32003 0.0
H916 H 0.94078 0.59221 0.23808 0.0
H917 H 0.85807 0.53485 0.41385 0.0
H918 H 0.83913 0.53644 0.35674 0.0
H919 H 0.85762 0.55909 0.40814 0.0
C920 C 0.35644 0.89306 0.71937 0.0
C921 C 0.33959 0.88763 0.67259 0.0
C922 C 0.3568 0.90151 0.78607 0.0
C923 C 0.34006 0.90498 0.80583 0.0
C924 C 0.32328 0.90007 0.7583 0.0
C925 C 0.32293 0.89084 0.69304 0.0
C926 C 0.37464 0.90591 0.83642 0.0
C927 C 0.30531 0.90382 0.77725 0.0
C928 C 0.32942 0.89849 0.00054 0.0
C929 C 0.34168 0.91932 0.02529 0.0
C930 C 0.32795 0.89376 0.92878 0.0
C931 C 0.33855 0.91041 0.87996 0.0
C932 C 0.34938 0.9317 0.90357 0.0
C933 C 0.35101 0.93595 0.97652 0.0
C934 C 0.3164 0.87078 0.906 0.0
C935 C 0.36013 0.94983 0.85221 0.0
H936 H 0.36941 0.89067 0.7039 0.0
H937 H 0.30931 0.88575 0.65918 0.0
H938 H 0.38221 0.92245 0.85591 0.0
H939 H 0.36825 0.89536 0.88308 0.0
H940 H 0.38697 0.90334 0.81149 0.0
H941 H 0.29603 0.90332 0.72993 0.0
H942 H 0.29445 0.89146 0.81464 0.0
H943 H 0.31139 0.91939 0.80378 0.0
H944 H 0.32178 0.88557 0.03739 0.0
H945 H 0.36028 0.95213 -0.0048 0.0
H946 H 0.32786 0.86662 0.88305 0.0
H947 H 0.30456 0.86804 0.86452 0.0
H948 H 0.30813 0.85984 0.95064 0.0
H949 H 0.37473 0.95056 0.83176 0.0
H950 H 0.36456 0.96527 0.87742 0.0
H951 H 0.34968 0.94741 0.80624 0.0
C952 C 0.42012 0.34453 0.49167 0.0
C953 C 0.42857 0.33715 0.54354 0.0
C954 C 0.42391 0.34305 0.41961 0.0
C955 C 0.43666 0.3343 0.39969 0.0
C956 C 0.44413 0.32572 0.45158 0.0
C957 C 0.43985 0.32711 0.52266 0.0
C958 C 0.41524 0.35183 0.36517 0.0
C959 C 0.45797 0.31644 0.4327 0.0
C960 C 0.44259 0.3204 0.21125 0.0
C961 C 0.46138 0.33851 0.19077 0.0
C962 C 0.43371 0.31917 0.27802 0.0
C963 C 0.44431 0.33616 0.32611 0.0
C964 C 0.46348 0.35433 0.30618 0.0
C965 C 0.47174 0.35531 0.23866 0.0
C966 C 0.41322 0.29956 0.29752 0.0
C967 C 0.4755 0.37261 0.35665 0.0
H968 H 0.41121 0.35212 0.50732 0.0
H969 H 0.44641 0.32126 0.56208 0.0
H970 H 0.42835 0.36675 0.34332 0.0
H971 H 0.408 0.34056 0.32049 0.0
H972 H 0.4032 0.35521 0.38794 0.0
H973 H 0.46089 0.30877 0.47865 0.0
H974 H 0.45064 0.30457 0.3898 0.0
H975 H 0.47346 0.32919 0.41297 0.0
H976 H 0.43495 0.307 0.17584 0.0
H977 H 0.48625 0.36937 0.2231 0.0
H978 H 0.40186 0.30398 0.31961 0.0
H979 H 0.41622 0.29066 0.33905 0.0
H980 H 0.40574 0.2889 0.25148 0.0
H981 H 0.46517 0.37876 0.37515 0.0
H982 H 0.48987 0.38583 0.33216 0.0
H983 H 0.48039 0.3671 0.40392 0.0
C984 C 0.59072 0.90349 0.45993 0.0
C985 C 0.57665 0.9078 0.4229 0.0
C986 C 0.58785 0.8987 0.53241 0.0
C987 C 0.57056 0.89827 0.56796 0.0
C988 C 0.55706 0.90375 0.53149 0.0
C989 C 0.5603 0.90848 0.45948 0.0
C990 C 0.60268 0.89317 0.5701 0.0
C991 C 0.53854 0.90367 0.56766 0.0
C992 C 0.54359 0.86351 0.72614 0.0
C993 C 0.55035 0.87851 0.78062 0.0
C994 C 0.55113 0.86954 0.65701 0.0
C995 C 0.56566 0.89109 0.6423 0.0
C996 C 0.57318 0.90614 0.69767 0.0
C997 C 0.56521 0.89971 0.766 0.0
C998 C 0.54265 0.85306 0.59908 0.0
C999 C 0.58863 0.92926 0.68409 0.0
H1000 H 0.60334 0.90288 0.43174 0.0
H1001 H 0.54951 0.91202 0.43115 0.0
H1002 H 0.60839 0.90225 0.62018 0.0
H1003 H 0.59409 0.87612 0.58405 0.0
H1004 H 0.61658 0.89641 0.53709 0.0
H1005 H 0.53018 0.90929 0.53244 0.0
H1006 H 0.52704 0.88738 0.58528 0.0
H1007 H 0.54398 0.91389 0.61538 0.0
H1008 H 0.53203 0.84714 0.7373 0.0
H1009 H 0.56986 0.91159 0.80692 0.0
H1010 H 0.55584 0.85401 0.5671 0.0
H1011 H 0.53246 0.85612 0.56306 0.0
H1012 H 0.53317 0.83674 0.62027 0.0
H1013 H 0.6018 0.9311 0.64994 0.0
H1014 H 0.59537 0.93824 0.73392 0.0
H1015 H 0.58044 0.93645 0.65581 0.0
C1016 C 0.66854 0.56732 0.28174 0.0
C1017 C 0.67488 0.5524 0.29535 0.0
C1018 C 0.66905 0.57475 0.21319 0.0
C1019 C 0.67571 0.56676 0.15675 0.0
C1020 C 0.68293 0.55233 0.17049 0.0
C1021 C 0.68228 0.54519 0.23978 0.0
C1022 C 0.66104 0.58999 0.20069 0.0
C1023 C 0.6902 0.54351 0.11152 0.0
C1024 C 0.65043 0.56006 0.9772 0.0
C1025 C 0.6667 0.57658 0.93882 0.0
C1026 C 0.65296 0.55722 0.04886 0.0
C1027 C 0.67234 0.57113 0.08279 0.0
C1028 C 0.68851 0.58843 0.04521 0.0
C1029 C 0.68545 0.59104 0.9734 0.0
C1030 C 0.63517 0.53877 0.08743 0.0
C1031 C 0.70935 0.60355 0.07988 0.0
H1032 H 0.66195 0.5723 0.32373 0.0
H1033 H 0.68703 0.53354 0.25026 0.0
H1034 H 0.67181 0.60294 0.16483 0.0
H1035 H 0.64529 0.5815 0.17477 0.0
H1036 H 0.65946 0.59706 0.25077 0.0
H1037 H 0.69761 0.53445 0.13181 0.0
H1038 H 0.67645 0.53282 0.078 0.0
H1039 H 0.70175 0.55648 0.07723 0.0
H1040 H 0.63588 0.54895 0.95051 0.0
H1041 H 0.69813 0.6037 0.94356 0.0
H1042 H 0.63105 0.54435 0.13625 0.0
H1043 H 0.64034 0.52743 0.10357 0.0
H1044 H 0.6207 0.5302 0.05438 0.0
H1045 H 0.70666 0.60955 0.13045 0.0
H1046 H 0.71951 0.61724 0.04541 0.0
H1047 H 0.71803 0.59507 0.09252 0.0
C1048 C 0.10766 0.67471 0.47587 0.0
C1049 C 0.08691 0.66199 0.4509 0.0
C1050 C 0.1124 0.67582 0.54764 0.0
C1051 C 0.09585 0.66443 0.59618 0.0
C1052 C 0.07459 0.65316 0.57241 0.0
C1053 C 0.07034 0.65186 0.49955 0.0
C1054 C 0.13535 0.68784 0.57061 0.0
C1055 C 0.05651 0.64156 0.62347 0.0
C1056 C 0.11312 0.64595 0.75584 0.0
C1057 C 0.11747 0.66209 0.80465 0.0
C1058 C 0.10526 0.64611 0.6885 0.0
C1059 C 0.10132 0.66263 0.67008 0.0
C1060 C 0.10527 0.67874 0.71947 0.0
C1061 C 0.11387 0.67859 0.7855 0.0
C1062 C 0.10185 0.62897 0.63631 0.0
C1063 C 0.10103 0.69648 0.70191 0.0
H1064 H 0.12054 0.68296 0.43906 0.0
H1065 H 0.05422 0.64225 0.48074 0.0
H1066 H 0.13763 0.69909 0.61372 0.0
H1067 H 0.14004 0.67656 0.59151 0.0
H1068 H 0.14617 0.69683 0.52651 0.0
H1069 H 0.04094 0.63662 0.59836 0.0
H1070 H 0.05645 0.6272 0.64301 0.0
H1071 H 0.05845 0.65166 0.67004 0.0
H1072 H 0.11588 0.63314 0.77025 0.0
H1073 H 0.1182 0.69172 0.82099 0.0
H1074 H 0.11251 0.63613 0.59028 0.0
H1075 H 0.08536 0.62098 0.61611 0.0
H1076 H 0.10495 0.61684 0.65991 0.0
H1077 H 0.11331 0.70772 0.66504 0.0
H1078 H 0.1012 0.70539 0.74985 0.0
H1079 H 0.08547 0.69021 0.67521 0.0
C1080 C 0.44143 0.08912 0.99148 0.0
C1081 C 0.42399 0.08774 0.95546 0.0
C1082 C 0.44479 0.09454 0.06314 0.0
C1083 C 0.43043 0.09886 0.09958 0.0
C1084 C 0.41224 0.09655 0.06442 0.0
C1085 C 0.40916 0.09088 0.99253 0.0
C1086 C 0.46422 0.0965 0.099 0.0
C1087 C 0.39661 0.10101 0.1018 0.0
C1088 C 0.43595 0.09951 0.29842 0.0
C1089 C 0.44974 0.1211 0.31168 0.0
C1090 C 0.42848 0.09215 0.23009 0.0
C1091 C 0.43522 0.10671 0.17349 0.0
C1092 C 0.44864 0.12862 0.18685 0.0
C1093 C 0.45589 0.13554 0.25589 0.0
C1094 C 0.41442 0.06865 0.218 0.0
C1095 C 0.45613 0.14463 0.12772 0.0
H1096 H 0.45285 0.08656 0.96294 0.0
H1097 H 0.39575 0.09001 0.96459 0.0
H1098 H 0.47499 0.11322 0.11454 0.0
H1099 H 0.4597 0.08688 0.14797 0.0
H1100 H 0.47307 0.09132 0.0643 0.0
H1101 H 0.38239 0.09673 0.06894 0.0
H1102 H 0.39149 0.09214 0.15226 0.0
H1103 H 0.40433 0.11811 0.11501 0.0
H1104 H 0.43183 0.08814 0.34066 0.0
H1105 H 0.46668 0.1522 0.26611 0.0
H1106 H 0.42349 0.06237 0.18994 0.0
H1107 H 0.40072 0.06549 0.18412 0.0
H1108 H 0.4084 0.05982 0.26837 0.0
H1109 H 0.46693 0.14223 0.09255 0.0
H1110 H 0.46469 0.16117 0.14776 0.0
H1111 H 0.44252 0.14242 0.09515 0.0
C1112 C 0.32391 0.45809 0.74339 0.0
C1113 C 0.33211 0.45137 0.79797 0.0
C1114 C 0.32234 0.45042 0.67429 0.0
C1115 C 0.32924 0.43578 0.6597 0.0
C1116 C 0.33688 0.42841 0.71509 0.0
C1117 C 0.33849 0.43652 0.78337 0.0
C1118 C 0.31427 0.45878 0.61632 0.0
C1119 C 0.34447 0.41287 0.70163 0.0
C1120 C 0.31545 0.40964 0.47862 0.0
C1121 C 0.33366 0.42338 0.44039 0.0
C1122 C 0.31396 0.41298 0.55108 0.0
C1123 C 0.33108 0.43041 0.5854 0.0
C1124 C 0.3499 0.44358 0.54773 0.0
C1125 C 0.35096 0.43986 0.47579 0.0
C1126 C 0.29377 0.39849 0.59006 0.0
C1127 C 0.3686 0.46224 0.58252 0.0
H1128 H 0.31909 0.46966 0.7545 0.0
H1129 H 0.34572 0.43192 0.82436 0.0
H1130 H 0.32739 0.46862 0.57952 0.0
H1131 H 0.30177 0.44549 0.58519 0.0
H1132 H 0.30773 0.46856 0.63736 0.0
H1133 H 0.34705 0.40646 0.75154 0.0
H1134 H 0.33288 0.39948 0.6686 0.0
H1135 H 0.35963 0.42085 0.67215 0.0
H1136 H 0.30202 0.39693 0.45138 0.0
H1137 H 0.36516 0.45041 0.44654 0.0
H1138 H 0.28555 0.40731 0.60432 0.0
H1139 H 0.29735 0.39296 0.64004 0.0
H1140 H 0.28283 0.38448 0.55786 0.0
H1141 H 0.36401 0.47394 0.59978 0.0
H1142 H 0.38241 0.47029 0.5465 0.0
H1143 H 0.37355 0.45704 0.63032 0.0
C1144 C 0.86533 0.32306 0.23615 0.0
C1145 C 0.88032 0.33129 0.29064 0.0
C1146 C 0.87136 0.32156 0.16697 0.0
C1147 C 0.89291 0.32856 0.15221 0.0
C1148 C 0.90796 0.33611 0.20754 0.0
C1149 C 0.90153 0.33766 0.27591 0.0
C1150 C 0.85488 0.31357 0.10905 0.0
C1151 C 0.93108 0.34376 0.1939 0.0
C1152 C 0.90529 0.31569 0.96995 0.0
C1153 C 0.90966 0.33405 0.93284 0.0
C1154 C 0.90048 0.31384 0.04241 0.0
C1155 C 0.90008 0.33075 0.07786 0.0
C1156 C 0.90562 0.34972 0.04131 0.0
C1157 C 0.91038 0.35114 0.96933 0.0
C1158 C 0.89489 0.2935 0.08021 0.0
C1159 C 0.90556 0.36821 0.07735 0.0
H1160 H 0.84896 0.31824 0.24737 0.0
H1161 H 0.91341 0.3449 0.3168 0.0
H1162 H 0.85799 0.32679 0.07297 0.0
H1163 H 0.85579 0.30128 0.07712 0.0
H1164 H 0.83857 0.30681 0.13025 0.0
H1165 H 0.94007 0.34606 0.24371 0.0
H1166 H 0.9329 0.33237 0.15987 0.0
H1167 H 0.93826 0.35909 0.16545 0.0
H1168 H 0.90465 0.30242 0.94183 0.0
H1169 H 0.91396 0.36545 0.94093 0.0
H1170 H 0.87785 0.28511 0.09424 0.0
H1171 H 0.90398 0.29689 0.13024 0.0
H1172 H 0.89807 0.28278 0.04724 0.0
H1173 H 0.88927 0.36345 0.09494 0.0
H1174 H 0.9112 0.38216 0.04205 0.0
H1175 H 0.91577 0.37302 0.12507 0.0
C1176 C 0.19655 0.45949 0.3239 0.0
C1177 C 0.17705 0.44565 0.29205 0.0
C1178 C 0.21474 0.45834 0.30828 0.0
C1179 C 0.21375 0.44398 0.25598 0.0
C1180 C 0.19425 0.43035 0.22213 0.0
C1181 C 0.17602 0.43093 0.24214 0.0
C1182 C 0.23502 0.47256 0.34772 0.0
C1183 C 0.19274 0.41555 0.16361 0.0
C1184 C 0.26656 0.45894 0.17154 0.0
C1185 C 0.27111 0.44403 0.20108 0.0
C1186 C 0.24749 0.45844 0.18636 0.0
C1187 C 0.23324 0.44359 0.23568 0.0
C1188 C 0.23794 0.4288 0.26701 0.0
C1189 C 0.25652 0.42881 0.2477 0.0
C1190 C 0.24268 0.47392 0.14949 0.0
C1191 C 0.22367 0.41337 0.32238 0.0
H1192 H 0.1977 0.4714 0.36074 0.0
H1193 H 0.16097 0.41999 0.21793 0.0
H1194 H 0.24205 0.4632 0.36835 0.0
H1195 H 0.24672 0.48465 0.31138 0.0
H1196 H 0.23247 0.48085 0.39268 0.0
H1197 H 0.17666 0.40691 0.13986 0.0
H1198 H 0.2043 0.42462 0.12137 0.0
H1199 H 0.19681 0.4038 0.1841 0.0
H1200 H 0.27801 0.47121 0.13733 0.0
H1201 H 0.2598 0.41709 0.27013 0.0
H1202 H 0.24347 0.48579 0.1879 0.0
H1203 H 0.22639 0.46554 0.12734 0.0
H1204 H 0.25399 0.48244 0.10598 0.0
H1205 H 0.22146 0.42211 0.36654 0.0
H1206 H 0.23014 0.40361 0.34409 0.0
H1207 H 0.20781 0.40263 0.29964 0.0
C1208 C 0.82785 0.25733 0.74282 0.0
C1209 C 0.82694 0.27153 0.69503 0.0
C1210 C 0.80952 0.23853 0.76191 0.0
C1211 C 0.79002 0.23319 0.72914 0.0
C1212 C 0.78914 0.24705 0.67873 0.0
C1213 C 0.80746 0.26637 0.66411 0.0
C1214 C 0.81093 0.22469 0.81845 0.0
C1215 C 0.76885 0.24155 0.64036 0.0
C1216 C 0.74688 0.1754 0.73538 0.0
C1217 C 0.73265 0.17596 0.78396 0.0
C1218 C 0.76539 0.19397 0.71579 0.0
C1219 C 0.77042 0.21336 0.74882 0.0
C1220 C 0.75651 0.2139 0.79984 0.0
C1221 C 0.73747 0.19534 0.81496 0.0
C1222 C 0.77926 0.19292 0.65861 0.0
C1223 C 0.7617 0.23408 0.83844 0.0
H1224 H 0.84289 0.26107 0.76625 0.0
H1225 H 0.80642 0.27751 0.62891 0.0
H1226 H 0.79957 0.22212 0.86153 0.0
H1227 H 0.80651 0.20893 0.79629 0.0
H1228 H 0.82707 0.23172 0.84152 0.0
H1229 H 0.77149 0.25269 0.5964 0.0
H1230 H 0.7615 0.22525 0.61854 0.0
H1231 H 0.75738 0.24199 0.67773 0.0
H1232 H 0.74339 0.16045 0.71181 0.0
H1233 H 0.72628 0.1961 0.85069 0.0
H1234 H 0.79512 0.19753 0.6803 0.0
H1235 H 0.78157 0.20429 0.61589 0.0
H1236 H 0.77241 0.17683 0.63518 0.0
H1237 H 0.77803 0.24166 0.86008 0.0
H1238 H 0.75054 0.23123 0.88258 0.0
H1239 H 0.76101 0.24545 0.80129 0.0
C1240 C 0.54136 0.80529 0.1549 0.0
C1241 C 0.55592 0.8248 0.18518 0.0
C1242 C 0.54236 0.78694 0.16908 0.0
C1243 C 0.55745 0.78784 0.21817 0.0
C1244 C 0.57186 0.80738 0.25031 0.0
C1245 C 0.57128 0.82571 0.23193 0.0
C1246 C 0.52722 0.76659 0.13159 0.0
C1247 C 0.58757 0.80883 0.30527 0.0
C1248 C 0.54364 0.73556 0.30444 0.0
C1249 C 0.55789 0.73065 0.27164 0.0
C1250 C 0.54388 0.75451 0.28945 0.0
C1251 C 0.55779 0.76824 0.23708 0.0
C1252 C 0.57178 0.76308 0.20217 0.0
C1253 C 0.57204 0.74463 0.22126 0.0
C1254 C 0.52926 0.7598 0.32981 0.0
C1255 C 0.58619 0.77682 0.14379 0.0
H1256 H 0.52902 0.80428 0.12046 0.0
H1257 H 0.58274 0.84077 0.25491 0.0
H1258 H 0.53601 0.75934 0.10778 0.0
H1259 H 0.51582 0.75508 0.16997 0.0
H1260 H 0.51815 0.76912 0.08925 0.0
H1261 H 0.59694 0.82502 0.32783 0.0
H1262 H 0.57911 0.79759 0.34893 0.0
H1263 H 0.59864 0.80428 0.28178 0.0
H1264 H 0.53216 0.72454 0.34167 0.0
H1265 H 0.58324 0.74104 0.1962 0.0
H1266 H 0.5171 0.75942 0.29371 0.0
H1267 H 0.5383 0.77606 0.35193 0.0
H1268 H 0.52109 0.74857 0.37382 0.0
H1269 H 0.57675 0.77907 0.10222 0.0
H1270 H 0.59517 0.76989 0.11908 0.0
H1271 H 0.59764 0.79271 0.1648 0.0
C1272 C 0.82064 0.57097 0.82912 0.0
C1273 C 0.8269 0.55889 0.78921 0.0
C1274 C 0.80182 0.57095 0.81311 0.0
C1275 C 0.78896 0.55833 0.75646 0.0
C1276 C 0.79525 0.54601 0.71632 0.0
C1277 C 0.81421 0.54649 0.73316 0.0
C1278 C 0.7957 0.58439 0.85676 0.0
C1279 C 0.78186 0.53217 0.65609 0.0
C1280 C 0.73075 0.54215 0.75655 0.0
C1281 C 0.73033 0.55617 0.70704 0.0
C1282 C 0.74976 0.54272 0.77331 0.0
C1283 C 0.76875 0.55773 0.73976 0.0
C1284 C 0.76834 0.57191 0.68954 0.0
C1285 C 0.74904 0.57086 0.67344 0.0
C1286 C 0.74951 0.52717 0.82647 0.0
C1287 C 0.78827 0.58819 0.65301 0.0
H1288 H 0.83054 0.5805 0.87256 0.0
H1289 H 0.81905 0.53697 0.70301 0.0
H1290 H 0.79375 0.59556 0.82205 0.0
H1291 H 0.78025 0.57421 0.88285 0.0
H1292 H 0.80766 0.59363 0.89804 0.0
H1293 H 0.78909 0.52367 0.62989 0.0
H1294 H 0.76596 0.52033 0.67591 0.0
H1295 H 0.77953 0.54191 0.61599 0.0
H1296 H 0.71613 0.53065 0.78177 0.0
H1297 H 0.74856 0.58164 0.63503 0.0
H1298 H 0.7603 0.5358 0.8711 0.0
H1299 H 0.75538 0.5173 0.80152 0.0
H1300 H 0.73342 0.51656 0.84791 0.0
H1301 H 0.80015 0.59852 0.69285 0.0
H1302 H 0.78529 0.59828 0.61619 0.0
H1303 H 0.79532 0.58021 0.62275 0.0
C1304 C 0.25556 0.83073 0.22801 0.0
C1305 C 0.27003 0.83013 0.27553 0.0
C1306 C 0.23694 0.81219 0.20861 0.0
C1307 C 0.23177 0.79286 0.24205 0.0
C1308 C 0.24574 0.79235 0.29304 0.0
C1309 C 0.26507 0.81079 0.30692 0.0
C1310 C 0.22324 0.8132 0.15059 0.0
C1311 C 0.24041 0.77234 0.33273 0.0
C1312 C 0.17405 0.7495 0.23552 0.0
C1313 C 0.17489 0.73444 0.1915 0.0
C1314 C 0.1925 0.76833 0.2539 0.0
C1315 C 0.21201 0.77306 0.22271 0.0
C1316 C 0.21274 0.75854 0.17464 0.0
C1317 C 0.19435 0.73905 0.16193 0.0
C1318 C 0.19122 0.78269 0.30889 0.0
C1319 C 0.23294 0.76337 0.13718 0.0
H1320 H 0.25908 0.84567 0.20438 0.0
H1321 H 0.27636 0.80992 0.3419 0.0
H1322 H 0.22036 0.80121 0.10931 0.0
H1323 H 0.20762 0.80946 0.17202 0.0
H1324 H 0.23057 0.82905 0.12535 0.0
H1325 H 0.2507 0.77562 0.37986 0.0
H1326 H 0.22364 0.76411 0.3502 0.0
H1327 H 0.24257 0.76139 0.29762 0.0
H1328 H 0.15901 0.74622 0.2576 0.0
H1329 H 0.19538 0.72735 0.12956 0.0
H1330 H 0.19552 0.79821 0.2853 0.0
H1331 H 0.20271 0.78567 0.35208 0.0
H1332 H 0.17514 0.77583 0.33216 0.0
H1333 H 0.24149 0.78002 0.11854 0.0
H1334 H 0.22984 0.75275 0.09109 0.0
H1335 H 0.24352 0.76125 0.17416 0.0
C1336 C 0.43214 0.25023 0.84885 0.0
C1337 C 0.44411 0.26804 0.80676 0.0
C1338 C 0.43136 0.23098 0.83385 0.0
C1339 C 0.44321 0.22982 0.77641 0.0
C1340 C 0.45563 0.24799 0.73464 0.0
C1341 C 0.45576 0.26686 0.75 0.0
C1342 C 0.41769 0.21184 0.87879 0.0
C1343 C 0.46881 0.24753 0.6739 0.0
C1344 C 0.45733 0.1863 0.77471 0.0
C1345 C 0.44298 0.17227 0.72487 0.0
C1346 C 0.45747 0.20505 0.79248 0.0
C1347 C 0.44276 0.20967 0.75992 0.0
C1348 C 0.42809 0.19536 0.70987 0.0
C1349 C 0.42851 0.17686 0.69246 0.0
C1350 C 0.47358 0.22006 0.84513 0.0
C1351 C 0.41205 0.19966 0.67458 0.0
H1352 H 0.42312 0.2513 0.89259 0.0
H1353 H 0.46511 0.2808 0.71794 0.0
H1354 H 0.40581 0.19884 0.84509 0.0
H1355 H 0.42754 0.206 0.90392 0.0
H1356 H 0.40924 0.21532 0.92088 0.0
H1357 H 0.47795 0.26317 0.64768 0.0
H1358 H 0.48007 0.24258 0.69311 0.0
H1359 H 0.45847 0.23572 0.63393 0.0
H1360 H 0.46861 0.18269 0.7991 0.0
H1361 H 0.41747 0.16589 0.65382 0.0
H1362 H 0.46548 0.22283 0.89001 0.0
H1363 H 0.48386 0.23561 0.81974 0.0
H1364 H 0.48373 0.21397 0.86627 0.0
H1365 H 0.40248 0.20208 0.71516 0.0
H1366 H 0.4012 0.18652 0.63907 0.0
H1367 H 0.42028 0.21442 0.64309 0.0
loop_
_geom_bond_atom_site_label_1
_geom_bond_atom_site_label_2
_geom_bond_distance
_geom_bond_site_symmetry_2
_ccdc_geom_bond_type
Co0 O3 1.970 . S
Co0 N17 1.989 . S
Co0 O25 1.967 . S
Co0 O32 1.920 . S
Co1 O4 1.966 . S
Co1 N10 2.022 . S
Co1 N18 1.993 . S
Co1 O26 1.941 . S
C2 O3 1.258 . S
C2 O4 1.263 . S
O3 Co0 1.970 . S
O3 C2 1.258 . S
O4 Co1 1.966 . S
O4 C2 1.263 . S
C5 O6 1.235 . S
C5 O32 1.289 . S
O6 C5 1.235 . S
C7 C9 1.400 . S
C7 N10 1.351 . S
C7 C12 1.501 . S
C8 C9 1.387 . S
C8 N11 1.341 . S
C9 C7 1.400 . S
C9 C8 1.387 . S
N10 Co1 2.022 . S
N10 C7 1.351 . S
N10 N11 1.365 . S
N11 C8 1.341 . S
N11 N10 1.365 . S
N11 H31 0.862 . S
C12 C7 1.501 . S
C12 H13 0.961 . S
C12 H14 0.961 . S
C12 H15 0.960 . S
H13 C12 0.961 . S
H14 C12 0.961 . S
H15 C12 0.960 . S
C16 N17 1.342 . S
C16 C20 1.401 . S
C16 C21 1.499 . S
N17 Co0 1.989 . S
N17 C16 1.342 . S
N17 N18 1.388 . S
N18 Co1 1.993 . S
N18 N17 1.388 . S
N18 C19 1.346 . S
C19 N18 1.346 . S
C19 C20 1.396 . S
C19 C29 1.510 . S
C20 C16 1.401 . S
C20 C19 1.396 . S
C21 C16 1.499 . S
C21 H22 0.959 . S
C21 H23 0.960 . S
C21 H24 0.961 . S
H22 C21 0.959 . S
H23 C21 0.960 . S
H24 C21 0.961 . S
O25 Co0 1.967 . S
O25 C33 1.258 . S
O26 Co1 1.941 . S
O26 C33 1.266 . S
H27 C29 0.959 . S
H28 C29 0.961 . S
C29 C19 1.510 . S
C29 H27 0.959 . S
C29 H28 0.961 . S
C29 H30 0.960 . S
H30 C29 0.960 . S
H31 N11 0.862 . S
O32 Co0 1.920 . S
O32 C5 1.289 . S
C33 O25 1.258 . S
C33 O26 1.266 . S
Co34 O37 1.970 . S
Co34 N51 1.989 . S
Co34 O59 1.967 . S
Co34 O66 1.920 . S
Co35 O38 1.966 . S
Co35 N44 2.022 1_556 S
Co35 N52 1.993 . S
Co35 O60 1.941 . S
C36 O37 1.258 . S
C36 O38 1.263 . S
O37 Co34 1.970 . S
O37 C36 1.258 . S
O38 Co35 1.966 . S
O38 C36 1.263 . S
C39 O40 1.235 . S
C39 O66 1.289 . S
O40 C39 1.235 . S
C41 C43 1.400 . S
C41 N44 1.351 . S
C41 C46 1.501 . S
C42 C43 1.387 . S
C42 N45 1.341 . S
C43 C41 1.400 . S
C43 C42 1.387 . S
N44 Co35 2.022 1_554 S
N44 C41 1.351 . S
N44 N45 1.365 . S
N45 C42 1.341 . S
N45 N44 1.365 . S
N45 H65 0.862 . S
C46 C41 1.501 . S
C46 H47 0.961 . S
C46 H48 0.961 . S
C46 H49 0.960 . S
H47 C46 0.961 . S
H48 C46 0.961 . S
H49 C46 0.960 . S
C50 N51 1.342 . S
C50 C54 1.401 . S
C50 C55 1.499 . S
N51 Co34 1.989 . S
N51 C50 1.342 . S
N51 N52 1.388 . S
N52 Co35 1.993 . S
N52 N51 1.388 . S
N52 C53 1.346 . S
C53 N52 1.346 . S
C53 C54 1.396 . S
C53 C63 1.510 . S
C54 C50 1.401 . S
C54 C53 1.396 . S
C55 C50 1.499 . S
C55 H56 0.959 . S
C55 H57 0.960 . S
C55 H58 0.961 . S
H56 C55 0.959 . S
H57 C55 0.960 . S
H58 C55 0.961 . S
O59 Co34 1.967 . S
O59 C67 1.258 . S
O60 Co35 1.941 . S
O60 C67 1.266 . S
H61 C63 0.959 . S
H62 C63 0.961 . S
C63 C53 1.510 . S
C63 H61 0.959 . S
C63 H62 0.961 . S
C63 H64 0.960 1_556 S
H64 C63 0.960 1_554 S
H65 N45 0.862 . S
O66 Co34 1.920 . S
O66 C39 1.289 . S
C67 O59 1.258 . S
C67 O60 1.266 . S
Co68 O71 1.970 . S
Co68 N85 1.989 . S
Co68 O93 1.967 . S
Co68 O100 1.920 . S
Co69 O72 1.966 . S
Co69 N78 2.022 . S
Co69 N86 1.993 . S
Co69 O94 1.941 . S
C70 O71 1.258 . S
C70 O72 1.263 . S
O71 Co68 1.970 . S
O71 C70 1.258 . S
O72 Co69 1.966 . S
O72 C70 1.263 . S
C73 O74 1.235 . S
C73 O100 1.289 . S
O74 C73 1.235 . S
C75 C77 1.400 . S
C75 N78 1.351 . S
C75 C80 1.501 . S
C76 C77 1.387 . S
C76 N79 1.341 . S
C77 C75 1.400 . S
C77 C76 1.387 . S
N78 Co69 2.022 . S
N78 C75 1.351 . S
N78 N79 1.365 . S
N79 C76 1.341 . S
N79 N78 1.365 . S
N79 H99 0.862 . S
C80 C75 1.501 . S
C80 H81 0.961 . S
C80 H82 0.961 . S
C80 H83 0.960 . S
H81 C80 0.961 . S
H82 C80 0.961 . S
H83 C80 0.960 . S
C84 N85 1.342 . S
C84 C88 1.401 . S
C84 C89 1.499 . S
N85 Co68 1.989 . S
N85 C84 1.342 . S
N85 N86 1.388 . S
N86 Co69 1.993 . S
N86 N85 1.388 . S
N86 C87 1.346 . S
C87 N86 1.346 . S
C87 C88 1.396 . S
C87 C97 1.510 . S
C88 C84 1.401 . S
C88 C87 1.396 . S
C89 C84 1.499 . S
C89 H90 0.959 . S
C89 H91 0.960 . S
C89 H92 0.961 . S
H90 C89 0.959 . S
H91 C89 0.960 . S
H92 C89 0.961 . S
O93 Co68 1.967 . S
O93 C101 1.258 . S
O94 Co69 1.941 . S
O94 C101 1.266 . S
H95 C97 0.959 . S
H96 C97 0.961 . S
C97 C87 1.510 . S
C97 H95 0.959 . S
C97 H96 0.961 . S
C97 H98 0.960 . S
H98 C97 0.960 . S
H99 N79 0.862 . S
O100 Co68 1.920 . S
O100 C73 1.289 . S
C101 O93 1.258 . S
C101 O94 1.266 . S
Co102 O105 1.970 . S
Co102 N119 1.989 . S
Co102 O127 1.967 . S
Co102 O134 1.920 . S
Co103 O106 1.966 . S
Co103 N112 2.022 1_556 S
Co103 N120 1.993 . S
Co103 O128 1.941 . S
C104 O105 1.258 . S
C104 O106 1.263 . S
O105 Co102 1.970 . S
O105 C104 1.258 . S
O106 Co103 1.966 . S
O106 C104 1.263 . S
C107 O108 1.235 . S
C107 O134 1.289 . S
O108 C107 1.235 . S
C109 C111 1.400 . S
C109 N112 1.351 . S
C109 C114 1.501 . S
C110 C111 1.387 . S
C110 N113 1.341 . S
C111 C109 1.400 . S
C111 C110 1.387 . S
N112 Co103 2.022 1_554 S
N112 C109 1.351 . S
N112 N113 1.365 . S
N113 C110 1.341 . S
N113 N112 1.365 . S
N113 H133 0.862 . S
C114 C109 1.501 . S
C114 H115 0.961 . S
C114 H116 0.961 . S
C114 H117 0.960 . S
H115 C114 0.961 . S
H116 C114 0.961 . S
H117 C114 0.960 . S
C118 N119 1.342 . S
C118 C122 1.401 . S
C118 C123 1.499 . S
N119 Co102 1.989 . S
N119 C118 1.342 . S
N119 N120 1.388 . S
N120 Co103 1.993 . S
N120 N119 1.388 . S
N120 C121 1.346 . S
C121 N120 1.346 . S
C121 C122 1.396 . S
C121 C131 1.510 . S
C122 C118 1.401 . S
C122 C121 1.396 . S
C123 C118 1.499 . S
C123 H124 0.959 . S
C123 H125 0.960 . S
C123 H126 0.961 . S
H124 C123 0.959 . S
H125 C123 0.960 . S
H126 C123 0.961 . S
O127 Co102 1.967 . S
O127 C135 1.258 . S
O128 Co103 1.941 . S
O128 C135 1.266 . S
H129 C131 0.959 . S
H130 C131 0.961 . S
C131 C121 1.510 . S
C131 H129 0.959 . S
C131 H130 0.961 . S
C131 H132 0.960 1_556 S
H132 C131 0.960 1_554 S
H133 N113 0.862 . S
O134 Co102 1.920 . S
O134 C107 1.289 . S
C135 O127 1.258 . S
C135 O128 1.266 . S
Co136 O139 1.970 . S
Co136 N153 1.989 . S
Co136 O161 1.967 . S
Co136 O168 1.920 . S
Co137 O140 1.966 . S
Co137 N146 2.022 . S
Co137 N154 1.993 . S
Co137 O162 1.941 . S
C138 O139 1.258 . S
C138 O140 1.263 . S
O139 Co136 1.970 . S
O139 C138 1.258 . S
O140 Co137 1.966 . S
O140 C138 1.263 . S
C141 O142 1.235 . S
C141 O168 1.289 . S
O142 C141 1.235 . S
C143 C145 1.400 . S
C143 N146 1.351 . S
C143 C148 1.501 . S
C144 C145 1.387 . S
C144 N147 1.341 . S
C145 C143 1.400 . S
C145 C144 1.387 . S
N146 Co137 2.022 . S
N146 C143 1.351 . S
N146 N147 1.365 . S
N147 C144 1.341 . S
N147 N146 1.365 . S
N147 H167 0.862 . S
C148 C143 1.501 . S
C148 H149 0.961 . S
C148 H150 0.961 . S
C148 H151 0.960 . S
H149 C148 0.961 . S
H150 C148 0.961 . S
H151 C148 0.960 . S
C152 N153 1.342 . S
C152 C156 1.401 . S
C152 C157 1.499 . S
N153 Co136 1.989 . S
N153 C152 1.342 . S
N153 N154 1.388 . S
N154 Co137 1.993 . S
N154 N153 1.388 . S
N154 C155 1.346 . S
C155 N154 1.346 . S
C155 C156 1.396 . S
C155 C165 1.510 . S
C156 C152 1.401 . S
C156 C155 1.396 . S
C157 C152 1.499 . S
C157 H158 0.959 . S
C157 H159 0.960 . S
C157 H160 0.961 . S
H158 C157 0.959 . S
H159 C157 0.960 . S
H160 C157 0.961 . S
O161 Co136 1.967 . S
O161 C169 1.258 . S
O162 Co137 1.941 . S
O162 C169 1.266 . S
H163 C165 0.959 . S
H164 C165 0.961 . S
C165 C155 1.510 . S
C165 H163 0.959 . S
C165 H164 0.961 . S
C165 H166 0.960 . S
H166 C165 0.960 . S
H167 N147 0.862 . S
O168 Co136 1.920 . S
O168 C141 1.289 . S
C169 O161 1.258 . S
C169 O162 1.266 . S
Co170 O173 1.970 . S
Co170 N187 1.989 . S
Co170 O195 1.967 . S
Co170 O202 1.920 . S
Co171 O174 1.966 . S
Co171 N180 2.022 1_556 S
Co171 N188 1.993 . S
Co171 O196 1.941 . S
C172 O173 1.258 . S
C172 O174 1.263 . S
O173 Co170 1.970 . S
O173 C172 1.258 . S
O174 Co171 1.966 . S
O174 C172 1.263 . S
C175 O176 1.235 . S
C175 O202 1.289 . S
O176 C175 1.235 . S
C177 C179 1.400 . S
C177 N180 1.351 . S
C177 C182 1.501 . S
C178 C179 1.387 . S
C178 N181 1.341 . S
C179 C177 1.400 . S
C179 C178 1.387 . S
N180 Co171 2.022 1_554 S
N180 C177 1.351 . S
N180 N181 1.365 . S
N181 C178 1.341 . S
N181 N180 1.365 . S
N181 H201 0.862 . S
C182 C177 1.501 . S
C182 H183 0.961 . S
C182 H184 0.961 . S
C182 H185 0.960 . S
H183 C182 0.961 . S
H184 C182 0.961 . S
H185 C182 0.960 . S
C186 N187 1.342 . S
C186 C190 1.401 . S
C186 C191 1.499 . S
N187 Co170 1.989 . S
N187 C186 1.342 . S
N187 N188 1.388 . S
N188 Co171 1.993 . S
N188 N187 1.388 . S
N188 C189 1.346 . S
C189 N188 1.346 . S
C189 C190 1.396 . S
C189 C199 1.510 . S
C190 C186 1.401 . S
C190 C189 1.396 . S
C191 C186 1.499 . S
C191 H192 0.959 . S
C191 H193 0.960 . S
C191 H194 0.961 . S
H192 C191 0.959 . S
H193 C191 0.960 . S
H194 C191 0.961 . S
O195 Co170 1.967 . S
O195 C203 1.258 . S
O196 Co171 1.941 . S
O196 C203 1.266 . S
H197 C199 0.959 . S
H198 C199 0.961 . S
C199 C189 1.510 . S
C199 H197 0.959 . S
C199 H198 0.961 . S
C199 H200 0.960 1_556 S
H200 C199 0.960 1_554 S
H201 N181 0.862 . S
O202 Co170 1.920 . S
O202 C175 1.289 . S
C203 O195 1.258 . S
C203 O196 1.266 . S
Co204 O207 1.970 . S
Co204 N221 1.989 . S
Co204 O229 1.967 . S
Co204 O236 1.920 . S
Co205 O208 1.966 . S
Co205 N214 2.022 1_554 S
Co205 N222 1.993 . S
Co205 O230 1.941 . S
C206 O207 1.258 . S
C206 O208 1.263 . S
O207 Co204 1.970 . S
O207 C206 1.258 . S
O208 Co205 1.966 . S
O208 C206 1.263 . S
C209 O210 1.235 . S
C209 O236 1.289 . S
O210 C209 1.235 . S
C211 C213 1.400 . S
C211 N214 1.351 . S
C211 C216 1.501 . S
C212 C213 1.387 . S
C212 N215 1.341 . S
C213 C211 1.400 . S
C213 C212 1.387 . S
N214 Co205 2.022 1_556 S
N214 C211 1.351 . S
N214 N215 1.365 . S
N215 C212 1.341 . S
N215 N214 1.365 . S
N215 H235 0.862 . S
C216 C211 1.501 . S
C216 H217 0.961 . S
C216 H218 0.961 . S
C216 H219 0.960 . S
H217 C216 0.961 . S
H218 C216 0.961 . S
H219 C216 0.960 . S
C220 N221 1.342 . S
C220 C224 1.401 . S
C220 C225 1.499 . S
N221 Co204 1.989 . S
N221 C220 1.342 . S
N221 N222 1.388 . S
N222 Co205 1.993 . S
N222 N221 1.388 . S
N222 C223 1.346 . S
C223 N222 1.346 . S
C223 C224 1.396 . S
C223 C233 1.510 . S
C224 C220 1.401 . S
C224 C223 1.396 . S
C225 C220 1.499 . S
C225 H226 0.959 . S
C225 H227 0.960 . S
C225 H228 0.961 . S
H226 C225 0.959 . S
H227 C225 0.960 . S
H228 C225 0.961 . S
O229 Co204 1.967 . S
O229 C237 1.258 . S
O230 Co205 1.941 . S
O230 C237 1.266 . S
H231 C233 0.959 . S
H232 C233 0.961 . S
C233 C223 1.510 . S
C233 H231 0.959 . S
C233 H232 0.961 . S
C233 H234 0.960 1_554 S
H234 C233 0.960 1_556 S
H235 N215 0.862 . S
O236 Co204 1.920 . S
O236 C209 1.289 . S
C237 O229 1.258 . S
C237 O230 1.266 . S
Co238 O241 1.970 . S
Co238 N255 1.989 . S
Co238 O263 1.967 . S
Co238 O270 1.920 . S
Co239 O242 1.966 . S
Co239 N248 2.022 . S
Co239 N256 1.993 . S
Co239 O264 1.941 . S
C240 O241 1.258 . S
C240 O242 1.263 . S
O241 Co238 1.970 . S
O241 C240 1.258 . S
O242 Co239 1.966 . S
O242 C240 1.263 . S
C243 O244 1.235 . S
C243 O270 1.289 . S
O244 C243 1.235 . S
C245 C247 1.400 . S
C245 N248 1.351 . S
C245 C250 1.501 . S
C246 C247 1.387 . S
C246 N249 1.341 . S
C247 C245 1.400 . S
C247 C246 1.387 . S
N248 Co239 2.022 . S
N248 C245 1.351 . S
N248 N249 1.365 . S
N249 C246 1.341 . S
N249 N248 1.365 . S
N249 H269 0.862 . S
C250 C245 1.501 . S
C250 H251 0.961 . S
C250 H252 0.961 . S
C250 H253 0.960 . S
H251 C250 0.961 . S
H252 C250 0.961 . S
H253 C250 0.960 . S
C254 N255 1.342 . S
C254 C258 1.401 . S
C254 C259 1.499 . S
N255 Co238 1.989 . S
N255 C254 1.342 . S
N255 N256 1.388 . S
N256 Co239 1.993 . S
N256 N255 1.388 . S
N256 C257 1.346 . S
C257 N256 1.346 . S
C257 C258 1.396 . S
C257 C267 1.510 . S
C258 C254 1.401 . S
C258 C257 1.396 . S
C259 C254 1.499 . S
C259 H260 0.959 . S
C259 H261 0.960 . S
C259 H262 0.961 . S
H260 C259 0.959 . S
H261 C259 0.960 . S
H262 C259 0.961 . S
O263 Co238 1.967 . S
O263 C271 1.258 . S
O264 Co239 1.941 . S
O264 C271 1.266 . S
H265 C267 0.959 . S
H266 C267 0.961 . S
C267 C257 1.510 . S
C267 H265 0.959 . S
C267 H266 0.961 . S
C267 H268 0.960 . S
H268 C267 0.960 . S
H269 N249 0.862 . S
O270 Co238 1.920 . S
O270 C243 1.289 . S
C271 O263 1.258 . S
C271 O264 1.266 . S
Co272 O275 1.970 . S
Co272 N289 1.989 . S
Co272 O297 1.967 . S
Co272 O304 1.920 . S
Co273 O276 1.966 . S
Co273 N282 2.022 1_554 S
Co273 N290 1.993 . S
Co273 O298 1.941 . S
C274 O275 1.258 . S
C274 O276 1.263 . S
O275 Co272 1.970 . S
O275 C274 1.258 . S
O276 Co273 1.966 . S
O276 C274 1.263 . S
C277 O278 1.235 . S
C277 O304 1.289 . S
O278 C277 1.235 . S
C279 C281 1.400 . S
C279 N282 1.351 . S
C279 C284 1.501 . S
C280 C281 1.387 . S
C280 N283 1.341 . S
C281 C279 1.400 . S
C281 C280 1.387 . S
N282 Co273 2.022 1_556 S
N282 C279 1.351 . S
N282 N283 1.365 . S
N283 C280 1.341 . S
N283 N282 1.365 . S
N283 H303 0.862 . S
C284 C279 1.501 . S
C284 H285 0.961 . S
C284 H286 0.961 . S
C284 H287 0.960 . S
H285 C284 0.961 . S
H286 C284 0.961 . S
H287 C284 0.960 . S
C288 N289 1.342 . S
C288 C292 1.401 . S
C288 C293 1.499 . S
N289 Co272 1.989 . S
N289 C288 1.342 . S
N289 N290 1.388 . S
N290 Co273 1.993 . S
N290 N289 1.388 . S
N290 C291 1.346 . S
C291 N290 1.346 . S
C291 C292 1.396 . S
C291 C301 1.510 . S
C292 C288 1.401 . S
C292 C291 1.396 . S
C293 C288 1.499 . S
C293 H294 0.959 . S
C293 H295 0.960 . S
C293 H296 0.961 . S
H294 C293 0.959 . S
H295 C293 0.960 . S
H296 C293 0.961 . S
O297 Co272 1.967 . S
O297 C305 1.258 . S
O298 Co273 1.941 . S
O298 C305 1.266 . S
H299 C301 0.959 . S
H300 C301 0.961 . S
C301 C291 1.510 . S
C301 H299 0.959 . S
C301 H300 0.961 . S
C301 H302 0.960 1_554 S
H302 C301 0.960 1_556 S
H303 N283 0.862 . S
O304 Co272 1.920 . S
O304 C277 1.289 . S
C305 O297 1.258 . S
C305 O298 1.266 . S
Co306 O309 1.970 . S
Co306 N323 1.989 . S
Co306 O331 1.967 . S
Co306 O338 1.920 . S
Co307 O310 1.966 . S
Co307 N316 2.022 . S
Co307 N324 1.993 . S
Co307 O332 1.941 . S
C308 O309 1.258 . S
C308 O310 1.263 . S
O309 Co306 1.970 . S
O309 C308 1.258 . S
O310 Co307 1.966 . S
O310 C308 1.263 . S
C311 O312 1.235 . S
C311 O338 1.289 . S
O312 C311 1.235 . S
C313 C315 1.400 . S
C313 N316 1.351 . S
C313 C318 1.501 . S
C314 C315 1.387 . S
C314 N317 1.341 . S
C315 C313 1.400 . S
C315 C314 1.387 . S
N316 Co307 2.022 . S
N316 C313 1.351 . S
N316 N317 1.365 . S
N317 C314 1.341 . S
N317 N316 1.365 . S
N317 H337 0.862 . S
C318 C313 1.501 . S
C318 H319 0.961 . S
C318 H320 0.961 . S
C318 H321 0.960 . S
H319 C318 0.961 . S
H320 C318 0.961 . S
H321 C318 0.960 . S
C322 N323 1.342 . S
C322 C326 1.401 . S
C322 C327 1.499 . S
N323 Co306 1.989 . S
N323 C322 1.342 . S
N323 N324 1.388 . S
N324 Co307 1.993 . S
N324 N323 1.388 . S
N324 C325 1.346 . S
C325 N324 1.346 . S
C325 C326 1.396 . S
C325 C335 1.510 . S
C326 C322 1.401 . S
C326 C325 1.396 . S
C327 C322 1.499 . S
C327 H328 0.959 . S
C327 H329 0.960 . S
C327 H330 0.961 . S
H328 C327 0.959 . S
H329 C327 0.960 . S
H330 C327 0.961 . S
O331 Co306 1.967 . S
O331 C339 1.258 . S
O332 Co307 1.941 . S
O332 C339 1.266 . S
H333 C335 0.959 . S
H334 C335 0.961 . S
C335 C325 1.510 . S
C335 H333 0.959 . S
C335 H334 0.961 . S
C335 H336 0.960 . S
H336 C335 0.960 . S
H337 N317 0.862 . S
O338 Co306 1.920 . S
O338 C311 1.289 . S
C339 O331 1.258 . S
C339 O332 1.266 . S
Co340 O343 1.970 . S
Co340 N357 1.989 . S
Co340 O365 1.967 . S
Co340 O372 1.920 . S
Co341 O344 1.966 . S
Co341 N350 2.022 1_554 S
Co341 N358 1.993 . S
Co341 O366 1.941 . S
C342 O343 1.258 . S
C342 O344 1.263 . S
O343 Co340 1.970 . S
O343 C342 1.258 . S
O344 Co341 1.966 . S
O344 C342 1.263 . S
C345 O346 1.235 . S
C345 O372 1.289 . S
O346 C345 1.235 . S
C347 C349 1.400 . S
C347 N350 1.351 . S
C347 C352 1.501 . S
C348 C349 1.387 . S
C348 N351 1.341 . S
C349 C347 1.400 . S
C349 C348 1.387 . S
N350 Co341 2.022 1_556 S
N350 C347 1.351 . S
N350 N351 1.365 . S
N351 C348 1.341 . S
N351 N350 1.365 . S
N351 H371 0.862 . S
C352 C347 1.501 . S
C352 H353 0.961 . S
C352 H354 0.961 . S
C352 H355 0.960 . S
H353 C352 0.961 . S
H354 C352 0.961 . S
H355 C352 0.960 . S
C356 N357 1.342 . S
C356 C360 1.401 . S
C356 C361 1.499 . S
N357 Co340 1.989 . S
N357 C356 1.342 . S
N357 N358 1.388 . S
N358 Co341 1.993 . S
N358 N357 1.388 . S
N358 C359 1.346 . S
C359 N358 1.346 . S
C359 C360 1.396 . S
C359 C369 1.510 . S
C360 C356 1.401 . S
C360 C359 1.396 . S
C361 C356 1.499 . S
C361 H362 0.959 . S
C361 H363 0.960 . S
C361 H364 0.961 . S
H362 C361 0.959 . S
H363 C361 0.960 . S
H364 C361 0.961 . S
O365 Co340 1.967 . S
O365 C373 1.258 . S
O366 Co341 1.941 . S
O366 C373 1.266 . S
H367 C369 0.959 . S
H368 C369 0.961 . S
C369 C359 1.510 . S
C369 H367 0.959 . S
C369 H368 0.961 . S
C369 H370 0.960 1_554 S
H370 C369 0.960 1_556 S
H371 N351 0.862 . S
O372 Co340 1.920 . S
O372 C345 1.289 . S
C373 O365 1.258 . S
C373 O366 1.266 . S
Co374 O377 1.970 . S
Co374 N391 1.989 . S
Co374 O399 1.967 . S
Co374 O406 1.920 . S
Co375 O378 1.966 . S
Co375 N384 2.022 . S
Co375 N392 1.993 . S
Co375 O400 1.941 . S
C376 O377 1.258 . S
C376 O378 1.263 . S
O377 Co374 1.970 . S
O377 C376 1.258 . S
O378 Co375 1.966 . S
O378 C376 1.263 . S
C379 O380 1.235 . S
C379 O406 1.289 . S
O380 C379 1.235 . S
C381 C383 1.400 . S
C381 N384 1.351 . S
C381 C386 1.501 . S
C382 C383 1.387 . S
C382 N385 1.341 . S
C383 C381 1.400 . S
C383 C382 1.387 . S
N384 Co375 2.022 . S
N384 C381 1.351 . S
N384 N385 1.365 . S
N385 C382 1.341 . S
N385 N384 1.365 . S
N385 H405 0.862 . S
C386 C381 1.501 . S
C386 H387 0.961 . S
C386 H388 0.961 . S
C386 H389 0.960 . S
H387 C386 0.961 . S
H388 C386 0.961 . S
H389 C386 0.960 . S
C390 N391 1.342 . S
C390 C394 1.401 . S
C390 C395 1.499 . S
N391 Co374 1.989 . S
N391 C390 1.342 . S
N391 N392 1.388 . S
N392 Co375 1.993 . S
N392 N391 1.388 . S
N392 C393 1.346 . S
C393 N392 1.346 . S
C393 C394 1.396 . S
C393 C403 1.510 . S
C394 C390 1.401 . S
C394 C393 1.396 . S
C395 C390 1.499 . S
C395 H396 0.959 . S
C395 H397 0.960 . S
C395 H398 0.961 . S
H396 C395 0.959 . S
H397 C395 0.960 . S
H398 C395 0.961 . S
O399 Co374 1.967 . S
O399 C407 1.258 . S
O400 Co375 1.941 . S
O400 C407 1.266 . S
H401 C403 0.959 . S
H402 C403 0.961 . S
C403 C393 1.510 . S
C403 H401 0.959 . S
C403 H402 0.961 . S
C403 H404 0.960 . S
H404 C403 0.960 . S
H405 N385 0.862 . S
O406 Co374 1.920 . S
O406 C379 1.289 . S
C407 O399 1.258 . S
C407 O400 1.266 . S
C408 C409 1.391 . S
C408 C410 1.394 . S
C408 H424 0.931 . S
C409 C408 1.391 . S
C409 C413 1.376 . S
C410 C408 1.394 . S
C410 C411 1.369 . S
C410 C414 1.531 . S
C411 C410 1.369 . S
C411 C412 1.410 . S
C411 C419 1.503 1_455 S
C412 C411 1.410 . S
C412 C413 1.392 . S
C412 C415 1.511 1_455 S
C413 C409 1.376 . S
C413 C412 1.392 . S
C413 H425 0.929 . S
C414 C410 1.531 . S
C414 H426 0.960 . S
C414 H427 0.962 . S
C414 H428 0.960 . S
C415 C412 1.511 1_655 S
C415 H429 0.961 . S
C415 H430 0.961 . S
C415 H431 0.961 . S
C416 C417 1.370 . S
C416 C418 1.363 . S
C416 H432 0.931 . S
C417 C416 1.370 . S
C417 C421 1.408 . S
C418 C416 1.363 . S
C418 C419 1.370 . S
C418 C422 1.524 . S
C419 C411 1.503 1_655 S
C419 C418 1.370 . S
C419 C420 1.403 . S
C420 C419 1.403 . S
C420 C421 1.404 . S
C420 C423 1.539 . S
C421 C417 1.408 . S
C421 C420 1.404 . S
C421 H433 0.930 . S
C422 C418 1.524 . S
C422 H434 0.956 1_655 S
C422 H435 0.961 . S
C422 H436 0.961 . S
C423 C420 1.539 . S
C423 H437 0.936 1_655 S
C423 H438 0.961 . S
C423 H439 0.968 . S
H424 C408 0.931 . S
H425 C413 0.929 . S
H426 C414 0.960 . S
H427 C414 0.962 . S
H428 C414 0.960 . S
H429 C415 0.961 . S
H430 C415 0.961 . S
H431 C415 0.961 . S
H432 C416 0.931 . S
H433 C421 0.930 . S
H434 C422 0.956 1_455 S
H435 C422 0.961 . S
H436 C422 0.961 . S
H437 C423 0.936 1_455 S
H438 C423 0.961 . S
H439 C423 0.968 . S
C440 C441 1.391 . S
C440 C442 1.394 . S
C440 H456 0.931 . S
C441 C440 1.391 . S
C441 C445 1.376 . S
C442 C440 1.394 . S
C442 C443 1.369 . S
C442 C446 1.531 1_545 S
C443 C442 1.369 . S
C443 C444 1.410 1_556 S
C443 C451 1.503 1_546 S
C444 C443 1.410 1_554 S
C444 C445 1.392 1_554 S
C444 C447 1.511 . S
C445 C441 1.376 . S
C445 C444 1.392 1_556 S
C445 H457 0.929 1_556 S
C446 C442 1.531 1_565 S
C446 H458 0.960 . S
C446 H459 0.962 . S
C446 H460 0.960 . S
C447 C444 1.511 . S
C447 H461 0.961 . S
C447 H462 0.961 . S
C447 H463 0.961 . S
C448 C449 1.370 . S
C448 C450 1.363 . S
C448 H464 0.931 . S
C449 C448 1.370 . S
C449 C453 1.408 . S
C450 C448 1.363 . S
C450 C451 1.370 . S
C450 C454 1.524 . S
C451 C443 1.503 1_564 S
C451 C450 1.370 . S
C451 C452 1.403 . S
C452 C451 1.403 . S
C452 C453 1.404 . S
C452 C455 1.539 . S
C453 C449 1.408 . S
C453 C452 1.404 . S
C453 H465 0.930 . S
C454 C450 1.524 . S
C454 H466 0.956 1_554 S
C454 H467 0.961 1_565 S
C454 H468 0.961 . S
C455 C452 1.539 . S
C455 H469 0.958 1_554 S
C455 H470 0.961 . S
C455 H471 0.960 1_565 S
H456 C440 0.931 . S
H457 C445 0.929 1_554 S
H458 C446 0.960 . S
H459 C446 0.962 . S
H460 C446 0.960 . S
H461 C447 0.961 . S
H462 C447 0.961 . S
H463 C447 0.961 . S
H464 C448 0.931 . S
H465 C453 0.930 . S
H466 C454 0.956 1_556 S
H467 C454 0.961 1_545 S
H468 C454 0.961 . S
H469 C455 0.958 1_556 S
H470 C455 0.961 . S
H471 C455 0.960 1_545 S
C472 C473 1.391 . S
C472 C474 1.394 . S
C472 H488 0.931 . S
C473 C472 1.391 . S
C473 C477 1.376 . S
C474 C472 1.394 . S
C474 C475 1.369 . S
C474 C478 1.531 . S
C475 C474 1.369 . S
C475 C476 1.410 . S
C475 C483 1.503 . S
C476 C475 1.410 . S
C476 C477 1.392 . S
C476 C479 1.511 . S
C477 C473 1.376 . S
C477 C476 1.392 . S
C477 H489 0.929 . S
C478 C474 1.531 . S
C478 H490 0.960 . S
C478 H491 0.962 . S
C478 H492 0.960 . S
C479 C476 1.511 . S
C479 H493 0.961 . S
C479 H494 0.961 . S
C479 H495 0.961 . S
C480 C481 1.370 . S
C480 C482 1.363 . S
C480 H496 0.931 . S
C481 C480 1.370 . S
C481 C485 1.408 . S
C482 C480 1.363 . S
C482 C483 1.370 . S
C482 C486 1.524 . S
C483 C475 1.503 . S
C483 C482 1.370 . S
C483 C484 1.403 . S
C484 C483 1.403 . S
C484 C485 1.404 . S
C484 C487 1.539 . S
C485 C481 1.408 . S
C485 C484 1.404 . S
C485 H497 0.930 . S
C486 C482 1.524 . S
C486 H498 0.956 . S
C486 H499 0.961 . S
C486 H500 0.961 . S
C487 C484 1.539 . S
C487 H501 0.958 . S
C487 H502 0.961 . S
C487 H503 0.960 . S
H488 C472 0.931 . S
H489 C477 0.929 . S
H490 C478 0.960 . S
H491 C478 0.962 . S
H492 C478 0.960 . S
H493 C479 0.961 . S
H494 C479 0.961 . S
H495 C479 0.961 . S
H496 C480 0.931 . S
H497 C485 0.930 . S
H498 C486 0.956 . S
H499 C486 0.961 . S
H500 C486 0.961 . S
H501 C487 0.958 . S
H502 C487 0.961 . S
H503 C487 0.960 . S
C504 C505 1.391 . S
C504 C506 1.394 1_554 S
C504 H520 0.931 . S
C505 C504 1.391 . S
C505 C509 1.376 . S
C506 C504 1.394 1_556 S
C506 C507 1.369 1_556 S
C506 C510 1.531 . S
C507 C506 1.369 1_554 S
C507 C508 1.410 . S
C507 C515 1.503 1_454 S
C508 C507 1.410 . S
C508 C509 1.392 . S
C508 C511 1.511 1_455 S
C509 C505 1.376 . S
C509 C508 1.392 . S
C509 H521 0.929 . S
C510 C506 1.531 . S
C510 H522 0.960 . S
C510 H523 0.962 . S
C510 H524 0.960 . S
C511 C508 1.511 1_655 S
C511 H525 0.961 . S
C511 H526 0.961 . S
C511 H527 0.961 . S
C512 C513 1.370 . S
C512 C514 1.363 . S
C512 H528 0.931 . S
C513 C512 1.370 . S
C513 C517 1.408 . S
C514 C512 1.363 . S
C514 C515 1.370 . S
C514 C518 1.524 1_655 S
C515 C507 1.503 1_656 S
C515 C514 1.370 . S
C515 C516 1.403 . S
C516 C515 1.403 . S
C516 C517 1.404 . S
C516 C519 1.539 1_556 S
C517 C513 1.408 . S
C517 C516 1.404 . S
C517 H529 0.930 . S
C518 C514 1.524 1_455 S
C518 H530 0.956 . S
C518 H531 0.961 . S
C518 H532 0.961 1_455 S
C519 C516 1.539 1_554 S
C519 H533 0.958 . S
C519 H534 0.961 . S
C519 H535 0.960 . S
H520 C504 0.931 . S
H521 C509 0.929 . S
H522 C510 0.960 . S
H523 C510 0.962 . S
H524 C510 0.960 . S
H525 C511 0.961 . S
H526 C511 0.961 . S
H527 C511 0.961 . S
H528 C512 0.931 . S
H529 C517 0.930 . S
H530 C518 0.956 . S
H531 C518 0.961 . S
H532 C518 0.961 1_655 S
H533 C519 0.958 . S
H534 C519 0.961 . S
H535 C519 0.960 . S
C536 C537 1.391 . S
C536 C538 1.394 . S
C536 H552 0.931 . S
C537 C536 1.391 . S
C537 C541 1.376 . S
C538 C536 1.394 . S
C538 C539 1.369 . S
C538 C542 1.531 . S
C539 C538 1.369 . S
C539 C540 1.410 . S
C539 C547 1.503 1_545 S
C540 C539 1.410 . S
C540 C541 1.392 . S
C540 C543 1.511 . S
C541 C537 1.376 . S
C541 C540 1.392 . S
C541 H553 0.929 . S
C542 C538 1.531 . S
C542 H554 0.960 . S
C542 H555 0.962 . S
C542 H556 0.960 . S
C543 C540 1.511 . S
C543 H557 0.961 . S
C543 H558 0.961 1_545 S
C543 H559 0.961 . S
C544 C545 1.370 . S
C544 C546 1.363 . S
C544 H560 0.931 . S
C545 C544 1.370 . S
C545 C549 1.408 . S
C546 C544 1.363 . S
C546 C547 1.370 . S
C546 C550 1.524 . S
C547 C539 1.503 1_565 S
C547 C546 1.370 . S
C547 C548 1.403 . S
C548 C547 1.403 . S
C548 C549 1.404 . S
C548 C551 1.539 1_565 S
C549 C545 1.408 . S
C549 C548 1.404 . S
C549 H561 0.930 . S
C550 C546 1.524 . S
C550 H562 0.956 . S
C550 H563 0.961 . S
C550 H564 0.961 . S
C551 C548 1.539 1_545 S
C551 H565 0.958 . S
C551 H566 0.961 . S
C551 H567 0.960 . S
H552 C536 0.931 . S
H553 C541 0.929 . S
H554 C542 0.960 . S
H555 C542 0.962 . S
H556 C542 0.960 . S
H557 C543 0.961 . S
H558 C543 0.961 1_565 S
H559 C543 0.961 . S
H560 C544 0.931 . S
H561 C549 0.930 . S
H562 C550 0.956 . S
H563 C550 0.961 . S
H564 C550 0.961 . S
H565 C551 0.958 . S
H566 C551 0.961 . S
H567 C551 0.960 . S
C568 C569 1.391 . S
C568 C570 1.394 . S
C568 H584 0.931 . S
C569 C568 1.391 . S
C569 C573 1.376 . S
C570 C568 1.394 . S
C570 C571 1.369 . S
C570 C574 1.531 . S
C571 C570 1.369 . S
C571 C572 1.410 1_556 S
C571 C579 1.503 1_556 S
C572 C571 1.410 1_554 S
C572 C573 1.392 1_554 S
C572 C575 1.511 . S
C573 C569 1.376 . S
C573 C572 1.392 1_556 S
C573 H585 0.929 1_556 S
C574 C570 1.531 . S
C574 H586 0.960 . S
C574 H587 0.962 . S
C574 H588 0.960 . S
C575 C572 1.511 . S
C575 H589 0.961 . S
C575 H590 0.961 . S
C575 H591 0.961 . S
C576 C577 1.370 . S
C576 C578 1.363 . S
C576 H592 0.931 . S
C577 C576 1.370 . S
C577 C581 1.408 . S
C578 C576 1.363 . S
C578 C579 1.370 . S
C578 C582 1.524 . S
C579 C571 1.503 1_554 S
C579 C578 1.370 . S
C579 C580 1.403 . S
C580 C579 1.403 . S
C580 C581 1.404 . S
C580 C583 1.539 . S
C581 C577 1.408 . S
C581 C580 1.404 . S
C581 H593 0.930 . S
C582 C578 1.524 . S
C582 H594 0.956 1_554 S
C582 H595 0.961 . S
C582 H596 0.961 . S
C583 C580 1.539 . S
C583 H597 0.956 1_554 S
C583 H598 0.961 . S
C583 H599 0.960 . S
H584 C568 0.931 . S
H585 C573 0.929 1_554 S
H586 C574 0.960 . S
H587 C574 0.962 . S
H588 C574 0.960 . S
H589 C575 0.961 . S
H590 C575 0.961 . S
H591 C575 0.961 . S
H592 C576 0.931 . S
H593 C581 0.930 . S
H594 C582 0.956 1_556 S
H595 C582 0.961 . S
H596 C582 0.961 . S
H597 C583 0.956 1_556 S
H598 C583 0.961 . S
H599 C583 0.960 . S
C600 C601 1.391 . S
C600 C602 1.394 . S
C600 H616 0.931 . S
C601 C600 1.391 . S
C601 C605 1.376 . S
C602 C600 1.394 . S
C602 C603 1.369 . S
C602 C606 1.531 . S
C603 C602 1.369 . S
C603 C604 1.410 . S
C603 C611 1.503 . S
C604 C603 1.410 . S
C604 C605 1.392 . S
C604 C607 1.511 . S
C605 C601 1.376 . S
C605 C604 1.392 . S
C605 H617 0.929 . S
C606 C602 1.531 . S
C606 H618 0.960 . S
C606 H619 0.962 . S
C606 H620 0.960 . S
C607 C604 1.511 . S
C607 H621 0.961 . S
C607 H622 0.961 . S
C607 H623 0.961 . S
C608 C609 1.370 . S
C608 C610 1.363 . S
C608 H624 0.931 . S
C609 C608 1.370 . S
C609 C613 1.408 . S
C610 C608 1.363 . S
C610 C611 1.370 . S
C610 C614 1.524 . S
C611 C603 1.503 . S
C611 C610 1.370 . S
C611 C612 1.403 . S
C612 C611 1.403 . S
C612 C613 1.404 . S
C612 C615 1.539 . S
C613 C609 1.408 . S
C613 C612 1.404 . S
C613 H625 0.930 . S
C614 C610 1.524 . S
C614 H626 0.956 . S
C614 H627 0.961 . S
C614 H628 0.961 . S
C615 C612 1.539 . S
C615 H629 0.958 . S
C615 H630 0.961 . S
C615 H631 0.960 . S
H616 C600 0.931 . S
H617 C605 0.929 . S
H618 C606 0.960 . S
H619 C606 0.962 . S
H620 C606 0.960 . S
H621 C607 0.961 . S
H622 C607 0.961 . S
H623 C607 0.961 . S
H624 C608 0.931 . S
H625 C613 0.930 . S
H626 C614 0.956 . S
H627 C614 0.961 . S
H628 C614 0.961 . S
H629 C615 0.958 . S
H630 C615 0.961 . S
H631 C615 0.960 . S
C632 C633 1.391 . S
C632 C634 1.394 . S
C632 H648 0.931 . S
C633 C632 1.391 . S
C633 C637 1.376 . S
C634 C632 1.394 . S
C634 C635 1.369 . S
C634 C638 1.531 . S
C635 C634 1.369 . S
C635 C636 1.410 . S
C635 C643 1.503 . S
C636 C635 1.410 . S
C636 C637 1.392 . S
C636 C639 1.511 . S
C637 C633 1.376 . S
C637 C636 1.392 . S
C637 H649 0.929 . S
C638 C634 1.531 . S
C638 H650 0.960 . S
C638 H651 0.962 . S
C638 H652 0.960 . S
C639 C636 1.511 . S
C639 H653 0.961 . S
C639 H654 0.961 . S
C639 H655 0.961 . S
C640 C641 1.370 . S
C640 C642 1.363 . S
C640 H656 0.931 . S
C641 C640 1.370 . S
C641 C645 1.408 . S
C642 C640 1.363 . S
C642 C643 1.370 . S
C642 C646 1.524 . S
C643 C635 1.503 . S
C643 C642 1.370 . S
C643 C644 1.403 . S
C644 C643 1.403 . S
C644 C645 1.404 . S
C644 C647 1.539 . S
C645 C641 1.408 . S
C645 C644 1.404 . S
C645 H657 0.930 . S
C646 C642 1.524 . S
C646 H658 0.956 . S
C646 H659 0.961 . S
C646 H660 0.961 . S
C647 C644 1.539 . S
C647 H661 0.958 . S
C647 H662 0.961 . S
C647 H663 0.960 . S
H648 C632 0.931 . S
H649 C637 0.929 . S
H650 C638 0.960 . S
H651 C638 0.962 . S
H652 C638 0.960 . S
H653 C639 0.961 . S
H654 C639 0.961 . S
H655 C639 0.961 . S
H656 C640 0.931 . S
H657 C645 0.930 . S
H658 C646 0.956 . S
H659 C646 0.961 . S
H660 C646 0.961 . S
H661 C647 0.958 . S
H662 C647 0.961 . S
H663 C647 0.960 . S
C664 C665 1.391 . S
C664 C666 1.394 . S
C664 H680 0.931 . S
C665 C664 1.391 . S
C665 C669 1.376 . S
C666 C664 1.394 . S
C666 C667 1.369 . S
C666 C670 1.531 . S
C667 C666 1.369 . S
C667 C668 1.410 . S
C667 C675 1.503 . S
C668 C667 1.410 . S
C668 C669 1.392 . S
C668 C671 1.511 . S
C669 C665 1.376 . S
C669 C668 1.392 . S
C669 H681 0.929 . S
C670 C666 1.531 . S
C670 H682 0.960 . S
C670 H683 0.962 . S
C670 H684 0.960 . S
C671 C668 1.511 . S
C671 H685 0.961 . S
C671 H686 0.961 . S
C671 H687 0.961 . S
C672 C673 1.370 . S
C672 C674 1.363 . S
C672 H688 0.931 . S
C673 C672 1.370 . S
C673 C677 1.408 . S
C674 C672 1.363 . S
C674 C675 1.370 . S
C674 C678 1.524 . S
C675 C667 1.503 . S
C675 C674 1.370 . S
C675 C676 1.403 . S
C676 C675 1.403 . S
C676 C677 1.404 . S
C676 C679 1.539 . S
C677 C673 1.408 . S
C677 C676 1.404 . S
C677 H689 0.930 . S
C678 C674 1.524 . S
C678 H690 0.956 . S
C678 H691 0.961 . S
C678 H692 0.961 . S
C679 C676 1.539 . S
C679 H693 0.958 . S
C679 H694 0.961 . S
C679 H695 0.960 . S
H680 C664 0.931 . S
H681 C669 0.929 . S
H682 C670 0.960 . S
H683 C670 0.962 . S
H684 C670 0.960 . S
H685 C671 0.961 . S
H686 C671 0.961 . S
H687 C671 0.961 . S
H688 C672 0.931 . S
H689 C677 0.930 . S
H690 C678 0.956 . S
H691 C678 0.961 . S
H692 C678 0.961 . S
H693 C679 0.958 . S
H694 C679 0.961 . S
H695 C679 0.960 . S
C696 C697 1.391 . S
C696 C698 1.394 . S
C696 H712 0.931 . S
C697 C696 1.391 . S
C697 C701 1.376 . S
C698 C696 1.394 . S
C698 C699 1.369 . S
C698 C702 1.531 . S
C699 C698 1.369 . S
C699 C700 1.410 . S
C699 C707 1.503 . S
C700 C699 1.410 . S
C700 C701 1.392 . S
C700 C703 1.511 . S
C701 C697 1.376 . S
C701 C700 1.392 . S
C701 H713 0.929 . S
C702 C698 1.531 . S
C702 H714 0.960 . S
C702 H715 0.962 . S
C702 H716 0.960 . S
C703 C700 1.511 . S
C703 H717 0.961 . S
C703 H718 0.961 . S
C703 H719 0.961 . S
C704 C705 1.370 . S
C704 C706 1.363 . S
C704 H720 0.931 . S
C705 C704 1.370 . S
C705 C709 1.408 . S
C706 C704 1.363 . S
C706 C707 1.370 . S
C706 C710 1.524 . S
C707 C699 1.503 . S
C707 C706 1.370 . S
C707 C708 1.403 . S
C708 C707 1.403 . S
C708 C709 1.404 . S
C708 C711 1.539 . S
C709 C705 1.408 . S
C709 C708 1.404 . S
C709 H721 0.930 . S
C710 C706 1.524 . S
C710 H722 0.956 . S
C710 H723 0.961 . S
C710 H724 0.961 . S
C711 C708 1.539 . S
C711 H725 0.958 . S
C711 H726 0.961 . S
C711 H727 0.960 . S
H712 C696 0.931 . S
H713 C701 0.929 . S
H714 C702 0.960 . S
H715 C702 0.962 . S
H716 C702 0.960 . S
H717 C703 0.961 . S
H718 C703 0.961 . S
H719 C703 0.961 . S
H720 C704 0.931 . S
H721 C709 0.930 . S
H722 C710 0.956 . S
H723 C710 0.961 . S
H724 C710 0.961 . S
H725 C711 0.958 . S
H726 C711 0.961 . S
H727 C711 0.960 . S
C728 C729 1.391 . S
C728 C730 1.394 . S
C728 H744 0.931 . S
C729 C728 1.391 . S
C729 C733 1.376 . S
C730 C728 1.394 . S
C730 C731 1.369 . S
C730 C734 1.531 . S
C731 C730 1.369 . S
C731 C732 1.410 . S
C731 C739 1.503 . S
C732 C731 1.410 . S
C732 C733 1.392 . S
C732 C735 1.511 . S
C733 C729 1.376 . S
C733 C732 1.392 . S
C733 H745 0.929 . S
C734 C730 1.531 . S
C734 H746 0.960 . S
C734 H747 0.962 . S
C734 H748 0.960 . S
C735 C732 1.511 . S
C735 H749 0.961 . S
C735 H750 0.961 . S
C735 H751 0.961 . S
C736 C737 1.370 . S
C736 C738 1.363 . S
C736 H752 0.931 . S
C737 C736 1.370 . S
C737 C741 1.408 . S
C738 C736 1.363 . S
C738 C739 1.370 . S
C738 C742 1.524 . S
C739 C731 1.503 . S
C739 C738 1.370 . S
C739 C740 1.403 . S
C740 C739 1.403 . S
C740 C741 1.404 . S
C740 C743 1.539 . S
C741 C737 1.408 . S
C741 C740 1.404 . S
C741 H753 0.930 . S
C742 C738 1.524 . S
C742 H754 0.956 . S
C742 H755 0.961 . S
C742 H756 0.961 . S
C743 C740 1.539 . S
C743 H757 0.958 . S
C743 H758 0.961 . S
C743 H759 0.960 . S
H744 C728 0.931 . S
H745 C733 0.929 . S
H746 C734 0.960 . S
H747 C734 0.962 . S
H748 C734 0.960 . S
H749 C735 0.961 . S
H750 C735 0.961 . S
H751 C735 0.961 . S
H752 C736 0.931 . S
H753 C741 0.930 . S
H754 C742 0.956 . S
H755 C742 0.961 . S
H756 C742 0.961 . S
H757 C743 0.958 . S
H758 C743 0.961 . S
H759 C743 0.960 . S
C760 C761 1.391 . S
C760 C762 1.394 . S
C760 H776 0.931 . S
C761 C760 1.391 . S
C761 C765 1.376 . S
C762 C760 1.394 . S
C762 C763 1.369 . S
C762 C766 1.531 . S
C763 C762 1.369 . S
C763 C764 1.410 . S
C763 C771 1.503 . S
C764 C763 1.410 . S
C764 C765 1.392 . S
C764 C767 1.511 . S
C765 C761 1.376 . S
C765 C764 1.392 . S
C765 H777 0.929 . S
C766 C762 1.531 . S
C766 H778 0.960 . S
C766 H779 0.962 . S
C766 H780 0.960 . S
C767 C764 1.511 . S
C767 H781 0.961 . S
C767 H782 0.961 . S
C767 H783 0.961 . S
C768 C769 1.370 . S
C768 C770 1.363 . S
C768 H784 0.931 . S
C769 C768 1.370 . S
C769 C773 1.408 . S
C770 C768 1.363 . S
C770 C771 1.370 . S
C770 C774 1.524 . S
C771 C763 1.503 . S
C771 C770 1.370 . S
C771 C772 1.403 . S
C772 C771 1.403 . S
C772 C773 1.404 . S
C772 C775 1.539 . S
C773 C769 1.408 . S
C773 C772 1.404 . S
C773 H785 0.930 . S
C774 C770 1.524 . S
C774 H786 0.956 . S
C774 H787 0.961 . S
C774 H788 0.961 . S
C775 C772 1.539 . S
C775 H789 0.958 . S
C775 H790 0.961 . S
C775 H791 0.960 . S
H776 C760 0.931 . S
H777 C765 0.929 . S
H778 C766 0.960 . S
H779 C766 0.962 . S
H780 C766 0.960 . S
H781 C767 0.961 . S
H782 C767 0.961 . S
H783 C767 0.961 . S
H784 C768 0.931 . S
H785 C773 0.930 . S
H786 C774 0.956 . S
H787 C774 0.961 . S
H788 C774 0.961 . S
H789 C775 0.958 . S
H790 C775 0.961 . S
H791 C775 0.960 . S
C792 C793 1.391 . S
C792 C794 1.394 . S
C792 H808 0.931 . S
C793 C792 1.391 . S
C793 C797 1.376 . S
C794 C792 1.394 . S
C794 C795 1.369 . S
C794 C798 1.531 . S
C795 C794 1.369 . S
C795 C796 1.410 . S
C795 C803 1.503 . S
C796 C795 1.410 . S
C796 C797 1.392 . S
C796 C799 1.511 . S
C797 C793 1.376 . S
C797 C796 1.392 . S
C797 H809 0.929 . S
C798 C794 1.531 . S
C798 H810 0.960 . S
C798 H811 0.962 . S
C798 H812 0.960 . S
C799 C796 1.511 . S
C799 H813 0.961 . S
C799 H814 0.961 . S
C799 H815 0.961 . S
C800 C801 1.370 . S
C800 C802 1.363 1_554 S
C800 H816 0.931 . S
C801 C800 1.370 . S
C801 C805 1.408 . S
C802 C800 1.363 1_556 S
C802 C803 1.370 . S
C802 C806 1.524 . S
C803 C795 1.503 . S
C803 C802 1.370 . S
C803 C804 1.403 . S
C804 C803 1.403 . S
C804 C805 1.404 1_556 S
C804 C807 1.539 . S
C805 C801 1.408 . S
C805 C804 1.404 1_554 S
C805 H817 0.930 . S
C806 C802 1.524 . S
C806 H818 0.956 . S
C806 H819 0.961 . S
C806 H820 0.961 . S
C807 C804 1.539 . S
C807 H821 0.958 . S
C807 H822 0.961 . S
C807 H823 0.960 . S
H808 C792 0.931 . S
H809 C797 0.929 . S
H810 C798 0.960 . S
H811 C798 0.962 . S
H812 C798 0.960 . S
H813 C799 0.961 . S
H814 C799 0.961 . S
H815 C799 0.961 . S
H816 C800 0.931 . S
H817 C805 0.930 . S
H818 C806 0.956 . S
H819 C806 0.961 . S
H820 C806 0.961 . S
H821 C807 0.958 . S
H822 C807 0.961 . S
H823 C807 0.960 . S
C824 C825 1.391 . S
C824 C826 1.394 . S
C824 H840 0.931 . S
C825 C824 1.391 . S
C825 C829 1.376 . S
C826 C824 1.394 . S
C826 C827 1.369 . S
C826 C830 1.531 . S
C827 C826 1.369 . S
C827 C828 1.410 . S
C827 C835 1.503 . S
C828 C827 1.410 . S
C828 C829 1.392 . S
C828 C831 1.511 . S
C829 C825 1.376 . S
C829 C828 1.392 . S
C829 H841 0.929 . S
C830 C826 1.531 . S
C830 H842 0.960 . S
C830 H843 0.962 . S
C830 H844 0.960 . S
C831 C828 1.511 . S
C831 H845 0.961 . S
C831 H846 0.961 . S
C831 H847 0.961 . S
C832 C833 1.370 . S
C832 C834 1.363 . S
C832 H848 0.931 . S
C833 C832 1.370 . S
C833 C837 1.408 . S
C834 C832 1.363 . S
C834 C835 1.370 . S
C834 C838 1.524 . S
C835 C827 1.503 . S
C835 C834 1.370 . S
C835 C836 1.403 . S
C836 C835 1.403 . S
C836 C837 1.404 . S
C836 C839 1.539 . S
C837 C833 1.408 . S
C837 C836 1.404 . S
C837 H849 0.930 . S
C838 C834 1.524 . S
C838 H850 0.956 . S
C838 H851 0.961 . S
C838 H852 0.961 . S
C839 C836 1.539 . S
C839 H853 0.958 . S
C839 H854 0.961 . S
C839 H855 0.960 . S
H840 C824 0.931 . S
H841 C829 0.929 . S
H842 C830 0.960 . S
H843 C830 0.962 . S
H844 C830 0.960 . S
H845 C831 0.961 . S
H846 C831 0.961 . S
H847 C831 0.961 . S
H848 C832 0.931 . S
H849 C837 0.930 . S
H850 C838 0.956 . S
H851 C838 0.961 . S
H852 C838 0.961 . S
H853 C839 0.958 . S
H854 C839 0.961 . S
H855 C839 0.960 . S
C856 C857 1.391 . S
C856 C858 1.394 . S
C856 H872 0.931 . S
C857 C856 1.391 . S
C857 C861 1.376 . S
C858 C856 1.394 . S
C858 C859 1.369 . S
C858 C862 1.531 . S
C859 C858 1.369 . S
C859 C860 1.410 . S
C859 C867 1.503 . S
C860 C859 1.410 . S
C860 C861 1.392 . S
C860 C863 1.511 . S
C861 C857 1.376 . S
C861 C860 1.392 . S
C861 H873 0.929 . S
C862 C858 1.531 . S
C862 H874 0.960 . S
C862 H875 0.962 . S
C862 H876 0.960 . S
C863 C860 1.511 . S
C863 H877 0.961 . S
C863 H878 0.961 . S
C863 H879 0.961 . S
C864 C865 1.370 . S
C864 C866 1.363 1_554 S
C864 H880 0.931 . S
C865 C864 1.370 . S
C865 C869 1.408 . S
C866 C864 1.363 1_556 S
C866 C867 1.370 . S
C866 C870 1.524 . S
C867 C859 1.503 . S
C867 C866 1.370 . S
C867 C868 1.403 . S
C868 C867 1.403 . S
C868 C869 1.404 1_556 S
C868 C871 1.539 . S
C869 C865 1.408 . S
C869 C868 1.404 1_554 S
C869 H881 0.930 . S
C870 C866 1.524 . S
C870 H882 0.956 . S
C870 H883 0.961 . S
C870 H884 0.961 . S
C871 C868 1.539 . S
C871 H885 0.958 . S
C871 H886 0.961 . S
C871 H887 0.960 . S
H872 C856 0.931 . S
H873 C861 0.929 . S
H874 C862 0.960 . S
H875 C862 0.962 . S
H876 C862 0.960 . S
H877 C863 0.961 . S
H878 C863 0.961 . S
H879 C863 0.961 . S
H880 C864 0.931 . S
H881 C869 0.930 . S
H882 C870 0.956 . S
H883 C870 0.961 . S
H884 C870 0.961 . S
H885 C871 0.958 . S
H886 C871 0.961 . S
H887 C871 0.960 . S
C888 C889 1.391 . S
C888 C890 1.394 . S
C888 H904 0.931 . S
C889 C888 1.391 . S
C889 C893 1.376 . S
C890 C888 1.394 . S
C890 C891 1.369 . S
C890 C894 1.531 . S
C891 C890 1.369 . S
C891 C892 1.410 . S
C891 C899 1.503 . S
C892 C891 1.410 . S
C892 C893 1.392 . S
C892 C895 1.511 . S
C893 C889 1.376 . S
C893 C892 1.392 . S
C893 H905 0.929 . S
C894 C890 1.531 . S
C894 H906 0.960 . S
C894 H907 0.962 . S
C894 H908 0.960 . S
C895 C892 1.511 . S
C895 H909 0.961 . S
C895 H910 0.961 . S
C895 H911 0.961 . S
C896 C897 1.370 . S
C896 C898 1.363 . S
C896 H912 0.931 . S
C897 C896 1.370 . S
C897 C901 1.408 . S
C898 C896 1.363 . S
C898 C899 1.370 . S
C898 C902 1.524 . S
C899 C891 1.503 . S
C899 C898 1.370 . S
C899 C900 1.403 . S
C900 C899 1.403 . S
C900 C901 1.404 . S
C900 C903 1.539 . S
C901 C897 1.408 . S
C901 C900 1.404 . S
C901 H913 0.930 . S
C902 C898 1.524 . S
C902 H914 0.956 . S
C902 H915 0.961 . S
C902 H916 0.961 . S
C903 C900 1.539 . S
C903 H917 0.958 . S
C903 H918 0.961 . S
C903 H919 0.960 . S
H904 C888 0.931 . S
H905 C893 0.929 . S
H906 C894 0.960 . S
H907 C894 0.962 . S
H908 C894 0.960 . S
H909 C895 0.961 . S
H910 C895 0.961 . S
H911 C895 0.961 . S
H912 C896 0.931 . S
H913 C901 0.930 . S
H914 C902 0.956 . S
H915 C902 0.961 . S
H916 C902 0.961 . S
H917 C903 0.958 . S
H918 C903 0.961 . S
H919 C903 0.960 . S
C920 C921 1.391 . S
C920 C922 1.394 . S
C920 H936 0.931 . S
C921 C920 1.391 . S
C921 C925 1.376 . S
C922 C920 1.394 . S
C922 C923 1.369 . S
C922 C926 1.531 . S
C923 C922 1.369 . S
C923 C924 1.410 . S
C923 C931 1.503 . S
C924 C923 1.410 . S
C924 C925 1.392 . S
C924 C927 1.511 . S
C925 C921 1.376 . S
C925 C924 1.392 . S
C925 H937 0.929 . S
C926 C922 1.531 . S
C926 H938 0.960 . S
C926 H939 0.962 . S
C926 H940 0.960 . S
C927 C924 1.511 . S
C927 H941 0.961 . S
C927 H942 0.961 . S
C927 H943 0.961 . S
C928 C929 1.370 . S
C928 C930 1.363 1_554 S
C928 H944 0.931 . S
C929 C928 1.370 . S
C929 C933 1.408 . S
C930 C928 1.363 1_556 S
C930 C931 1.370 . S
C930 C934 1.524 . S
C931 C923 1.503 . S
C931 C930 1.370 . S
C931 C932 1.403 . S
C932 C931 1.403 . S
C932 C933 1.404 1_556 S
C932 C935 1.539 . S
C933 C929 1.408 . S
C933 C932 1.404 1_554 S
C933 H945 0.930 . S
C934 C930 1.524 . S
C934 H946 0.956 . S
C934 H947 0.961 . S
C934 H948 0.961 . S
C935 C932 1.539 . S
C935 H949 0.958 . S
C935 H950 0.961 . S
C935 H951 0.960 . S
H936 C920 0.931 . S
H937 C925 0.929 . S
H938 C926 0.960 . S
H939 C926 0.962 . S
H940 C926 0.960 . S
H941 C927 0.961 . S
H942 C927 0.961 . S
H943 C927 0.961 . S
H944 C928 0.931 . S
H945 C933 0.930 . S
H946 C934 0.956 . S
H947 C934 0.961 . S
H948 C934 0.961 . S
H949 C935 0.958 . S
H950 C935 0.961 . S
H951 C935 0.960 . S
C952 C953 1.391 . S
C952 C954 1.394 . S
C952 H968 0.931 . S
C953 C952 1.391 . S
C953 C957 1.376 . S
C954 C952 1.394 . S
C954 C955 1.369 . S
C954 C958 1.531 . S
C955 C954 1.369 . S
C955 C956 1.410 . S
C955 C963 1.503 . S
C956 C955 1.410 . S
C956 C957 1.392 . S
C956 C959 1.511 . S
C957 C953 1.376 . S
C957 C956 1.392 . S
C957 H969 0.929 . S
C958 C954 1.531 . S
C958 H970 0.960 . S
C958 H971 0.962 . S
C958 H972 0.960 . S
C959 C956 1.511 . S
C959 H973 0.961 . S
C959 H974 0.961 . S
C959 H975 0.961 . S
C960 C961 1.370 . S
C960 C962 1.363 . S
C960 H976 0.931 . S
C961 C960 1.370 . S
C961 C965 1.408 . S
C962 C960 1.363 . S
C962 C963 1.370 . S
C962 C966 1.524 . S
C963 C955 1.503 . S
C963 C962 1.370 . S
C963 C964 1.403 . S
C964 C963 1.403 . S
C964 C965 1.404 . S
C964 C967 1.539 . S
C965 C961 1.408 . S
C965 C964 1.404 . S
C965 H977 0.930 . S
C966 C962 1.524 . S
C966 H978 0.956 . S
C966 H979 0.961 . S
C966 H980 0.961 . S
C967 C964 1.539 . S
C967 H981 0.958 . S
C967 H982 0.961 . S
C967 H983 0.960 . S
H968 C952 0.931 . S
H969 C957 0.929 . S
H970 C958 0.960 . S
H971 C958 0.962 . S
H972 C958 0.960 . S
H973 C959 0.961 . S
H974 C959 0.961 . S
H975 C959 0.961 . S
H976 C960 0.931 . S
H977 C965 0.930 . S
H978 C966 0.956 . S
H979 C966 0.961 . S
H980 C966 0.961 . S
H981 C967 0.958 . S
H982 C967 0.961 . S
H983 C967 0.960 . S
C984 C985 1.391 . S
C984 C986 1.394 . S
C984 H1000 0.931 . S
C985 C984 1.391 . S
C985 C989 1.376 . S
C986 C984 1.394 . S
C986 C987 1.369 . S
C986 C990 1.531 . S
C987 C986 1.369 . S
C987 C988 1.410 . S
C987 C995 1.503 . S
C988 C987 1.410 . S
C988 C989 1.392 . S
C988 C991 1.511 . S
C989 C985 1.376 . S
C989 C988 1.392 . S
C989 H1001 0.929 . S
C990 C986 1.531 . S
C990 H1002 0.960 . S
C990 H1003 0.962 . S
C990 H1004 0.960 . S
C991 C988 1.511 . S
C991 H1005 0.961 . S
C991 H1006 0.961 . S
C991 H1007 0.961 . S
C992 C993 1.370 . S
C992 C994 1.363 . S
C992 H1008 0.931 . S
C993 C992 1.370 . S
C993 C997 1.408 . S
C994 C992 1.363 . S
C994 C995 1.370 . S
C994 C998 1.524 . S
C995 C987 1.503 . S
C995 C994 1.370 . S
C995 C996 1.403 . S
C996 C995 1.403 . S
C996 C997 1.404 . S
C996 C999 1.539 . S
C997 C993 1.408 . S
C997 C996 1.404 . S
C997 H1009 0.930 . S
C998 C994 1.524 . S
C998 H1010 0.956 . S
C998 H1011 0.961 . S
C998 H1012 0.961 . S
C999 C996 1.539 . S
C999 H1013 0.958 . S
C999 H1014 0.961 . S
C999 H1015 0.960 . S
H1000 C984 0.931 . S
H1001 C989 0.929 . S
H1002 C990 0.960 . S
H1003 C990 0.962 . S
H1004 C990 0.960 . S
H1005 C991 0.961 . S
H1006 C991 0.961 . S
H1007 C991 0.961 . S
H1008 C992 0.931 . S
H1009 C997 0.930 . S
H1010 C998 0.956 . S
H1011 C998 0.961 . S
H1012 C998 0.961 . S
H1013 C999 0.958 . S
H1014 C999 0.961 . S
H1015 C999 0.960 . S
C1016 C1017 1.391 . S
C1016 C1018 1.394 . S
C1016 H1032 0.931 . S
C1017 C1016 1.391 . S
C1017 C1021 1.376 . S
C1018 C1016 1.394 . S
C1018 C1019 1.369 . S
C1018 C1022 1.531 . S
C1019 C1018 1.369 . S
C1019 C1020 1.410 . S
C1019 C1027 1.503 . S
C1020 C1019 1.410 . S
C1020 C1021 1.392 . S
C1020 C1023 1.511 . S
C1021 C1017 1.376 . S
C1021 C1020 1.392 . S
C1021 H1033 0.929 . S
C1022 C1018 1.531 . S
C1022 H1034 0.960 . S
C1022 H1035 0.962 . S
C1022 H1036 0.960 . S
C1023 C1020 1.511 . S
C1023 H1037 0.961 . S
C1023 H1038 0.961 . S
C1023 H1039 0.961 . S
C1024 C1025 1.370 . S
C1024 C1026 1.363 1_556 S
C1024 H1040 0.931 . S
C1025 C1024 1.370 . S
C1025 C1029 1.408 . S
C1026 C1024 1.363 1_554 S
C1026 C1027 1.370 . S
C1026 C1030 1.524 . S
C1027 C1019 1.503 . S
C1027 C1026 1.370 . S
C1027 C1028 1.403 . S
C1028 C1027 1.403 . S
C1028 C1029 1.404 1_554 S
C1028 C1031 1.539 . S
C1029 C1025 1.408 . S
C1029 C1028 1.404 1_556 S
C1029 H1041 0.930 . S
C1030 C1026 1.524 . S
C1030 H1042 0.956 . S
C1030 H1043 0.961 . S
C1030 H1044 0.961 . S
C1031 C1028 1.539 . S
C1031 H1045 0.958 . S
C1031 H1046 0.961 . S
C1031 H1047 0.960 . S
H1032 C1016 0.931 . S
H1033 C1021 0.929 . S
H1034 C1022 0.960 . S
H1035 C1022 0.962 . S
H1036 C1022 0.960 . S
H1037 C1023 0.961 . S
H1038 C1023 0.961 . S
H1039 C1023 0.961 . S
H1040 C1024 0.931 . S
H1041 C1029 0.930 . S
H1042 C1030 0.956 . S
H1043 C1030 0.961 . S
H1044 C1030 0.961 . S
H1045 C1031 0.958 . S
H1046 C1031 0.961 . S
H1047 C1031 0.960 . S
C1048 C1049 1.391 . S
C1048 C1050 1.394 . S
C1048 H1064 0.931 . S
C1049 C1048 1.391 . S
C1049 C1053 1.376 . S
C1050 C1048 1.394 . S
C1050 C1051 1.369 . S
C1050 C1054 1.531 . S
C1051 C1050 1.369 . S
C1051 C1052 1.410 . S
C1051 C1059 1.503 . S
C1052 C1051 1.410 . S
C1052 C1053 1.392 . S
C1052 C1055 1.511 . S
C1053 C1049 1.376 . S
C1053 C1052 1.392 . S
C1053 H1065 0.929 . S
C1054 C1050 1.531 . S
C1054 H1066 0.960 . S
C1054 H1067 0.962 . S
C1054 H1068 0.960 . S
C1055 C1052 1.511 . S
C1055 H1069 0.961 . S
C1055 H1070 0.961 . S
C1055 H1071 0.961 . S
C1056 C1057 1.370 . S
C1056 C1058 1.363 . S
C1056 H1072 0.931 . S
C1057 C1056 1.370 . S
C1057 C1061 1.408 . S
C1058 C1056 1.363 . S
C1058 C1059 1.370 . S
C1058 C1062 1.524 . S
C1059 C1051 1.503 . S
C1059 C1058 1.370 . S
C1059 C1060 1.403 . S
C1060 C1059 1.403 . S
C1060 C1061 1.404 . S
C1060 C1063 1.539 . S
C1061 C1057 1.408 . S
C1061 C1060 1.404 . S
C1061 H1073 0.930 . S
C1062 C1058 1.524 . S
C1062 H1074 0.956 . S
C1062 H1075 0.961 . S
C1062 H1076 0.961 . S
C1063 C1060 1.539 . S
C1063 H1077 0.958 . S
C1063 H1078 0.961 . S
C1063 H1079 0.960 . S
H1064 C1048 0.931 . S
H1065 C1053 0.929 . S
H1066 C1054 0.960 . S
H1067 C1054 0.962 . S
H1068 C1054 0.960 . S
H1069 C1055 0.961 . S
H1070 C1055 0.961 . S
H1071 C1055 0.961 . S
H1072 C1056 0.931 . S
H1073 C1061 0.930 . S
H1074 C1062 0.956 . S
H1075 C1062 0.961 . S
H1076 C1062 0.961 . S
H1077 C1063 0.958 . S
H1078 C1063 0.961 . S
H1079 C1063 0.960 . S
C1080 C1081 1.391 . S
C1080 C1082 1.394 1_556 S
C1080 H1096 0.931 . S
C1081 C1080 1.391 . S
C1081 C1085 1.376 . S
C1082 C1080 1.394 1_554 S
C1082 C1083 1.369 . S
C1082 C1086 1.531 . S
C1083 C1082 1.369 . S
C1083 C1084 1.410 . S
C1083 C1091 1.503 . S
C1084 C1083 1.410 . S
C1084 C1085 1.392 1_554 S
C1084 C1087 1.511 . S
C1085 C1081 1.376 . S
C1085 C1084 1.392 1_556 S
C1085 H1097 0.929 . S
C1086 C1082 1.531 . S
C1086 H1098 0.960 . S
C1086 H1099 0.962 . S
C1086 H1100 0.960 . S
C1087 C1084 1.511 . S
C1087 H1101 0.961 . S
C1087 H1102 0.961 . S
C1087 H1103 0.961 . S
C1088 C1089 1.370 . S
C1088 C1090 1.363 . S
C1088 H1104 0.931 . S
C1089 C1088 1.370 . S
C1089 C1093 1.408 . S
C1090 C1088 1.363 . S
C1090 C1091 1.370 . S
C1090 C1094 1.524 . S
C1091 C1083 1.503 . S
C1091 C1090 1.370 . S
C1091 C1092 1.403 . S
C1092 C1091 1.403 . S
C1092 C1093 1.404 . S
C1092 C1095 1.539 . S
C1093 C1089 1.408 . S
C1093 C1092 1.404 . S
C1093 H1105 0.930 . S
C1094 C1090 1.524 . S
C1094 H1106 0.956 . S
C1094 H1107 0.961 . S
C1094 H1108 0.961 . S
C1095 C1092 1.539 . S
C1095 H1109 0.958 . S
C1095 H1110 0.961 . S
C1095 H1111 0.960 . S
H1096 C1080 0.931 . S
H1097 C1085 0.929 . S
H1098 C1086 0.960 . S
H1099 C1086 0.962 . S
H1100 C1086 0.960 . S
H1101 C1087 0.961 . S
H1102 C1087 0.961 . S
H1103 C1087 0.961 . S
H1104 C1088 0.931 . S
H1105 C1093 0.930 . S
H1106 C1094 0.956 . S
H1107 C1094 0.961 . S
H1108 C1094 0.961 . S
H1109 C1095 0.958 . S
H1110 C1095 0.961 . S
H1111 C1095 0.960 . S
C1112 C1113 1.391 . S
C1112 C1114 1.394 . S
C1112 H1128 0.931 . S
C1113 C1112 1.391 . S
C1113 C1117 1.376 . S
C1114 C1112 1.394 . S
C1114 C1115 1.369 . S
C1114 C1118 1.531 . S
C1115 C1114 1.369 . S
C1115 C1116 1.410 . S
C1115 C1123 1.503 . S
C1116 C1115 1.410 . S
C1116 C1117 1.392 . S
C1116 C1119 1.511 . S
C1117 C1113 1.376 . S
C1117 C1116 1.392 . S
C1117 H1129 0.929 . S
C1118 C1114 1.531 . S
C1118 H1130 0.960 . S
C1118 H1131 0.962 . S
C1118 H1132 0.960 . S
C1119 C1116 1.511 . S
C1119 H1133 0.961 . S
C1119 H1134 0.961 . S
C1119 H1135 0.961 . S
C1120 C1121 1.370 . S
C1120 C1122 1.363 . S
C1120 H1136 0.931 . S
C1121 C1120 1.370 . S
C1121 C1125 1.408 . S
C1122 C1120 1.363 . S
C1122 C1123 1.370 . S
C1122 C1126 1.524 . S
C1123 C1115 1.503 . S
C1123 C1122 1.370 . S
C1123 C1124 1.403 . S
C1124 C1123 1.403 . S
C1124 C1125 1.404 . S
C1124 C1127 1.539 . S
C1125 C1121 1.408 . S
C1125 C1124 1.404 . S
C1125 H1137 0.930 . S
C1126 C1122 1.524 . S
C1126 H1138 0.956 . S
C1126 H1139 0.961 . S
C1126 H1140 0.961 . S
C1127 C1124 1.539 . S
C1127 H1141 0.958 . S
C1127 H1142 0.961 . S
C1127 H1143 0.960 . S
H1128 C1112 0.931 . S
H1129 C1117 0.929 . S
H1130 C1118 0.960 . S
H1131 C1118 0.962 . S
H1132 C1118 0.960 . S
H1133 C1119 0.961 . S
H1134 C1119 0.961 . S
H1135 C1119 0.961 . S
H1136 C1120 0.931 . S
H1137 C1125 0.930 . S
H1138 C1126 0.956 . S
H1139 C1126 0.961 . S
H1140 C1126 0.961 . S
H1141 C1127 0.958 . S
H1142 C1127 0.961 . S
H1143 C1127 0.960 . S
C1144 C1145 1.391 . S
C1144 C1146 1.394 . S
C1144 H1160 0.931 . S
C1145 C1144 1.391 . S
C1145 C1149 1.376 . S
C1146 C1144 1.394 . S
C1146 C1147 1.369 . S
C1146 C1150 1.531 . S
C1147 C1146 1.369 . S
C1147 C1148 1.410 . S
C1147 C1155 1.503 . S
C1148 C1147 1.410 . S
C1148 C1149 1.392 . S
C1148 C1151 1.511 . S
C1149 C1145 1.376 . S
C1149 C1148 1.392 . S
C1149 H1161 0.929 . S
C1150 C1146 1.531 . S
C1150 H1162 0.960 . S
C1150 H1163 0.962 . S
C1150 H1164 0.960 . S
C1151 C1148 1.511 . S
C1151 H1165 0.961 . S
C1151 H1166 0.961 . S
C1151 H1167 0.961 . S
C1152 C1153 1.370 . S
C1152 C1154 1.363 1_556 S
C1152 H1168 0.931 . S
C1153 C1152 1.370 . S
C1153 C1157 1.408 . S
C1154 C1152 1.363 1_554 S
C1154 C1155 1.370 . S
C1154 C1158 1.524 . S
C1155 C1147 1.503 . S
C1155 C1154 1.370 . S
C1155 C1156 1.403 . S
C1156 C1155 1.403 . S
C1156 C1157 1.404 1_554 S
C1156 C1159 1.539 . S
C1157 C1153 1.408 . S
C1157 C1156 1.404 1_556 S
C1157 H1169 0.930 . S
C1158 C1154 1.524 . S
C1158 H1170 0.956 . S
C1158 H1171 0.961 . S
C1158 H1172 0.961 . S
C1159 C1156 1.539 . S
C1159 H1173 0.958 . S
C1159 H1174 0.961 . S
C1159 H1175 0.960 . S
H1160 C1144 0.931 . S
H1161 C1149 0.929 . S
H1162 C1150 0.960 . S
H1163 C1150 0.962 . S
H1164 C1150 0.960 . S
H1165 C1151 0.961 . S
H1166 C1151 0.961 . S
H1167 C1151 0.961 . S
H1168 C1152 0.931 . S
H1169 C1157 0.930 . S
H1170 C1158 0.956 . S
H1171 C1158 0.961 . S
H1172 C1158 0.961 . S
H1173 C1159 0.958 . S
H1174 C1159 0.961 . S
H1175 C1159 0.960 . S
C1176 C1177 1.391 . S
C1176 C1178 1.394 . S
C1176 H1192 0.931 . S
C1177 C1176 1.391 . S
C1177 C1181 1.376 . S
C1178 C1176 1.394 . S
C1178 C1179 1.369 . S
C1178 C1182 1.531 . S
C1179 C1178 1.369 . S
C1179 C1180 1.410 . S
C1179 C1187 1.503 . S
C1180 C1179 1.410 . S
C1180 C1181 1.392 . S
C1180 C1183 1.511 . S
C1181 C1177 1.376 . S
C1181 C1180 1.392 . S
C1181 H1193 0.929 . S
C1182 C1178 1.531 . S
C1182 H1194 0.960 . S
C1182 H1195 0.962 . S
C1182 H1196 0.960 . S
C1183 C1180 1.511 . S
C1183 H1197 0.961 . S
C1183 H1198 0.961 . S
C1183 H1199 0.961 . S
C1184 C1185 1.370 . S
C1184 C1186 1.363 . S
C1184 H1200 0.931 . S
C1185 C1184 1.370 . S
C1185 C1189 1.408 . S
C1186 C1184 1.363 . S
C1186 C1187 1.370 . S
C1186 C1190 1.524 . S
C1187 C1179 1.503 . S
C1187 C1186 1.370 . S
C1187 C1188 1.403 . S
C1188 C1187 1.403 . S
C1188 C1189 1.404 . S
C1188 C1191 1.539 . S
C1189 C1185 1.408 . S
C1189 C1188 1.404 . S
C1189 H1201 0.930 . S
C1190 C1186 1.524 . S
C1190 H1202 0.956 . S
C1190 H1203 0.961 . S
C1190 H1204 0.961 . S
C1191 C1188 1.539 . S
C1191 H1205 0.958 . S
C1191 H1206 0.961 . S
C1191 H1207 0.960 . S
H1192 C1176 0.931 . S
H1193 C1181 0.929 . S
H1194 C1182 0.960 . S
H1195 C1182 0.962 . S
H1196 C1182 0.960 . S
H1197 C1183 0.961 . S
H1198 C1183 0.961 . S
H1199 C1183 0.961 . S
H1200 C1184 0.931 . S
H1201 C1189 0.930 . S
H1202 C1190 0.956 . S
H1203 C1190 0.961 . S
H1204 C1190 0.961 . S
H1205 C1191 0.958 . S
H1206 C1191 0.961 . S
H1207 C1191 0.960 . S
C1208 C1209 1.391 . S
C1208 C1210 1.394 . S
C1208 H1224 0.931 . S
C1209 C1208 1.391 . S
C1209 C1213 1.376 . S
C1210 C1208 1.394 . S
C1210 C1211 1.369 . S
C1210 C1214 1.531 . S
C1211 C1210 1.369 . S
C1211 C1212 1.410 . S
C1211 C1219 1.503 . S
C1212 C1211 1.410 . S
C1212 C1213 1.392 . S
C1212 C1215 1.511 . S
C1213 C1209 1.376 . S
C1213 C1212 1.392 . S
C1213 H1225 0.929 . S
C1214 C1210 1.531 . S
C1214 H1226 0.960 . S
C1214 H1227 0.962 . S
C1214 H1228 0.960 . S
C1215 C1212 1.511 . S
C1215 H1229 0.961 . S
C1215 H1230 0.961 . S
C1215 H1231 0.961 . S
C1216 C1217 1.370 . S
C1216 C1218 1.363 . S
C1216 H1232 0.931 . S
C1217 C1216 1.370 . S
C1217 C1221 1.408 . S
C1218 C1216 1.363 . S
C1218 C1219 1.370 . S
C1218 C1222 1.524 . S
C1219 C1211 1.503 . S
C1219 C1218 1.370 . S
C1219 C1220 1.403 . S
C1220 C1219 1.403 . S
C1220 C1221 1.404 . S
C1220 C1223 1.539 . S
C1221 C1217 1.408 . S
C1221 C1220 1.404 . S
C1221 H1233 0.930 . S
C1222 C1218 1.524 . S
C1222 H1234 0.956 . S
C1222 H1235 0.961 . S
C1222 H1236 0.961 . S
C1223 C1220 1.539 . S
C1223 H1237 0.958 . S
C1223 H1238 0.961 . S
C1223 H1239 0.960 . S
H1224 C1208 0.931 . S
H1225 C1213 0.929 . S
H1226 C1214 0.960 . S
H1227 C1214 0.962 . S
H1228 C1214 0.960 . S
H1229 C1215 0.961 . S
H1230 C1215 0.961 . S
H1231 C1215 0.961 . S
H1232 C1216 0.931 . S
H1233 C1221 0.930 . S
H1234 C1222 0.956 . S
H1235 C1222 0.961 . S
H1236 C1222 0.961 . S
H1237 C1223 0.958 . S
H1238 C1223 0.961 . S
H1239 C1223 0.960 . S
C1240 C1241 1.391 . S
C1240 C1242 1.394 . S
C1240 H1256 0.931 . S
C1241 C1240 1.391 . S
C1241 C1245 1.376 . S
C1242 C1240 1.394 . S
C1242 C1243 1.369 . S
C1242 C1246 1.531 . S
C1243 C1242 1.369 . S
C1243 C1244 1.410 . S
C1243 C1251 1.503 . S
C1244 C1243 1.410 . S
C1244 C1245 1.392 . S
C1244 C1247 1.511 . S
C1245 C1241 1.376 . S
C1245 C1244 1.392 . S
C1245 H1257 0.929 . S
C1246 C1242 1.531 . S
C1246 H1258 0.960 . S
C1246 H1259 0.962 . S
C1246 H1260 0.960 . S
C1247 C1244 1.511 . S
C1247 H1261 0.961 . S
C1247 H1262 0.961 . S
C1247 H1263 0.961 . S
C1248 C1249 1.370 . S
C1248 C1250 1.363 . S
C1248 H1264 0.931 . S
C1249 C1248 1.370 . S
C1249 C1253 1.408 . S
C1250 C1248 1.363 . S
C1250 C1251 1.370 . S
C1250 C1254 1.524 . S
C1251 C1243 1.503 . S
C1251 C1250 1.370 . S
C1251 C1252 1.403 . S
C1252 C1251 1.403 . S
C1252 C1253 1.404 . S
C1252 C1255 1.539 . S
C1253 C1249 1.408 . S
C1253 C1252 1.404 . S
C1253 H1265 0.930 . S
C1254 C1250 1.524 . S
C1254 H1266 0.956 . S
C1254 H1267 0.961 . S
C1254 H1268 0.961 . S
C1255 C1252 1.539 . S
C1255 H1269 0.958 . S
C1255 H1270 0.961 . S
C1255 H1271 0.960 . S
H1256 C1240 0.931 . S
H1257 C1245 0.929 . S
H1258 C1246 0.960 . S
H1259 C1246 0.962 . S
H1260 C1246 0.960 . S
H1261 C1247 0.961 . S
H1262 C1247 0.961 . S
H1263 C1247 0.961 . S
H1264 C1248 0.931 . S
H1265 C1253 0.930 . S
H1266 C1254 0.956 . S
H1267 C1254 0.961 . S
H1268 C1254 0.961 . S
H1269 C1255 0.958 . S
H1270 C1255 0.961 . S
H1271 C1255 0.960 . S
C1272 C1273 1.391 . S
C1272 C1274 1.394 . S
C1272 H1288 0.931 . S
C1273 C1272 1.391 . S
C1273 C1277 1.376 . S
C1274 C1272 1.394 . S
C1274 C1275 1.369 . S
C1274 C1278 1.531 . S
C1275 C1274 1.369 . S
C1275 C1276 1.410 . S
C1275 C1283 1.503 . S
C1276 C1275 1.410 . S
C1276 C1277 1.392 . S
C1276 C1279 1.511 . S
C1277 C1273 1.376 . S
C1277 C1276 1.392 . S
C1277 H1289 0.929 . S
C1278 C1274 1.531 . S
C1278 H1290 0.960 . S
C1278 H1291 0.962 . S
C1278 H1292 0.960 . S
C1279 C1276 1.511 . S
C1279 H1293 0.961 . S
C1279 H1294 0.961 . S
C1279 H1295 0.961 . S
C1280 C1281 1.370 . S
C1280 C1282 1.363 . S
C1280 H1296 0.931 . S
C1281 C1280 1.370 . S
C1281 C1285 1.408 . S
C1282 C1280 1.363 . S
C1282 C1283 1.370 . S
C1282 C1286 1.524 . S
C1283 C1275 1.503 . S
C1283 C1282 1.370 . S
C1283 C1284 1.403 . S
C1284 C1283 1.403 . S
C1284 C1285 1.404 . S
C1284 C1287 1.539 . S
C1285 C1281 1.408 . S
C1285 C1284 1.404 . S
C1285 H1297 0.930 . S
C1286 C1282 1.524 . S
C1286 H1298 0.956 . S
C1286 H1299 0.961 . S
C1286 H1300 0.961 . S
C1287 C1284 1.539 . S
C1287 H1301 0.958 . S
C1287 H1302 0.961 . S
C1287 H1303 0.960 . S
H1288 C1272 0.931 . S
H1289 C1277 0.929 . S
H1290 C1278 0.960 . S
H1291 C1278 0.962 . S
H1292 C1278 0.960 . S
H1293 C1279 0.961 . S
H1294 C1279 0.961 . S
H1295 C1279 0.961 . S
H1296 C1280 0.931 . S
H1297 C1285 0.930 . S
H1298 C1286 0.956 . S
H1299 C1286 0.961 . S
H1300 C1286 0.961 . S
H1301 C1287 0.958 . S
H1302 C1287 0.961 . S
H1303 C1287 0.960 . S
C1304 C1305 1.391 . S
C1304 C1306 1.394 . S
C1304 H1320 0.931 . S
C1305 C1304 1.391 . S
C1305 C1309 1.376 . S
C1306 C1304 1.394 . S
C1306 C1307 1.369 . S
C1306 C1310 1.531 . S
C1307 C1306 1.369 . S
C1307 C1308 1.410 . S
C1307 C1315 1.503 . S
C1308 C1307 1.410 . S
C1308 C1309 1.392 . S
C1308 C1311 1.511 . S
C1309 C1305 1.376 . S
C1309 C1308 1.392 . S
C1309 H1321 0.929 . S
C1310 C1306 1.531 . S
C1310 H1322 0.960 . S
C1310 H1323 0.962 . S
C1310 H1324 0.960 . S
C1311 C1308 1.511 . S
C1311 H1325 0.961 . S
C1311 H1326 0.961 . S
C1311 H1327 0.961 . S
C1312 C1313 1.370 . S
C1312 C1314 1.363 . S
C1312 H1328 0.931 . S
C1313 C1312 1.370 . S
C1313 C1317 1.408 . S
C1314 C1312 1.363 . S
C1314 C1315 1.370 . S
C1314 C1318 1.524 . S
C1315 C1307 1.503 . S
C1315 C1314 1.370 . S
C1315 C1316 1.403 . S
C1316 C1315 1.403 . S
C1316 C1317 1.404 . S
C1316 C1319 1.539 . S
C1317 C1313 1.408 . S
C1317 C1316 1.404 . S
C1317 H1329 0.930 . S
C1318 C1314 1.524 . S
C1318 H1330 0.956 . S
C1318 H1331 0.961 . S
C1318 H1332 0.961 . S
C1319 C1316 1.539 . S
C1319 H1333 0.958 . S
C1319 H1334 0.961 . S
C1319 H1335 0.960 . S
H1320 C1304 0.931 . S
H1321 C1309 0.929 . S
H1322 C1310 0.960 . S
H1323 C1310 0.962 . S
H1324 C1310 0.960 . S
H1325 C1311 0.961 . S
H1326 C1311 0.961 . S
H1327 C1311 0.961 . S
H1328 C1312 0.931 . S
H1329 C1317 0.930 . S
H1330 C1318 0.956 . S
H1331 C1318 0.961 . S
H1332 C1318 0.961 . S
H1333 C1319 0.958 . S
H1334 C1319 0.961 . S
H1335 C1319 0.960 . S
C1336 C1337 1.391 . S
C1336 C1338 1.394 . S
C1336 H1352 0.931 . S
C1337 C1336 1.391 . S
C1337 C1341 1.376 . S
C1338 C1336 1.394 . S
C1338 C1339 1.369 . S
C1338 C1342 1.531 . S
C1339 C1338 1.369 . S
C1339 C1340 1.410 . S
C1339 C1347 1.503 . S
C1340 C1339 1.410 . S
C1340 C1341 1.392 . S
C1340 C1343 1.511 . S
C1341 C1337 1.376 . S
C1341 C1340 1.392 . S
C1341 H1353 0.929 . S
C1342 C1338 1.531 . S
C1342 H1354 0.960 . S
C1342 H1355 0.962 . S
C1342 H1356 0.960 . S
C1343 C1340 1.511 . S
C1343 H1357 0.961 . S
C1343 H1358 0.961 . S
C1343 H1359 0.961 . S
C1344 C1345 1.370 . S
C1344 C1346 1.363 . S
C1344 H1360 0.931 . S
C1345 C1344 1.370 . S
C1345 C1349 1.408 . S
C1346 C1344 1.363 . S
C1346 C1347 1.370 . S
C1346 C1350 1.524 . S
C1347 C1339 1.503 . S
C1347 C1346 1.370 . S
C1347 C1348 1.403 . S
C1348 C1347 1.403 . S
C1348 C1349 1.404 . S
C1348 C1351 1.539 . S
C1349 C1345 1.408 . S
C1349 C1348 1.404 . S
C1349 H1361 0.930 . S
C1350 C1346 1.524 . S
C1350 H1362 0.956 . S
C1350 H1363 0.961 . S
C1350 H1364 0.961 . S
C1351 C1348 1.539 . S
C1351 H1365 0.958 . S
C1351 H1366 0.961 . S
C1351 H1367 0.960 . S
H1352 C1336 0.931 . S
H1353 C1341 0.929 . S
H1354 C1342 0.960 . S
H1355 C1342 0.962 . S
H1356 C1342 0.960 . S
H1357 C1343 0.961 . S
H1358 C1343 0.961 . S
H1359 C1343 0.961 . S
H1360 C1344 0.931 . S
H1361 C1349 0.930 . S
H1362 C1350 0.956 . S
H1363 C1350 0.961 . S
H1364 C1350 0.961 . S
H1365 C1351 0.958 . S
H1366 C1351 0.961 . S
H1367 C1351 0.960 . S
C409 C2 1.585 . S
C417 C376 1.595 . S
C441 C36 1.597 . S
C449 C206 1.600 . S
C473 C240 1.583 . S
C481 C70 1.596 . S
C505 C274 1.597 . S
C513 C104 1.591 . S
C537 C308 1.575 . S
C545 C138 1.602 . S
C569 C172 1.596 . S
C577 C342 1.601 . S
C601 C305 1.607 . S
C609 C33 1.602 . S
C633 C339 1.608 . S
C641 C67 1.603 . S
C665 C101 1.608 . S
C673 C373 1.603 . S
C697 C135 1.594 . S
C705 C407 1.607 . S
C729 C237 1.606 . S
C737 C169 1.606 . S
C761 C203 1.596 . S
C769 C271 1.608 . S
C793 C9 1.183 . S
C801 C5 1.168 . S
C825 C39 1.145 . S
C833 C43 1.150 . S
C857 C77 1.182 . S
C865 C73 1.164 . S
C889 C107 1.149 . S
C897 C111 1.144 . S
C921 C145 1.141 . S
C929 C141 1.180 . S
C953 C175 1.186 . S
C961 C179 1.132 . S
C985 C209 1.192 . S
C993 C213 1.140 . S
C1017 C247 1.183 . S
C1025 C243 1.167 . S
C1049 C277 1.162 . S
C1057 C281 1.163 . S
C1081 C311 1.146 . S
C1089 C315 1.159 . S
C1113 C349 1.105 . S
C1121 C345 1.175 . S
C1145 C383 1.105 . S
C1153 C379 1.177 . S
C1177 C20 1.559 . S
C1185 C360 1.561 . S
C1209 C394 1.551 . S
C1217 C54 1.567 . S
C1241 C224 1.568 . S
C1249 C88 1.558 . S
C1273 C122 1.548 . S
C1281 C258 1.566 . S
C1305 C156 1.549 . S
C1313 C292 1.567 . S
C1337 C190 1.542 . S
C1345 C326 1.569 . S
