# Generated by pormake.
# Topology whz, (6)-cn, num edge types: 1
# Building blocks:
#     Node 0, Type 0, BuildingBlock: CUKXOW_clean_sbu_0, # of connection points: 6
#     Node 1, Type 0, BuildingBlock: CUKXOW_clean_sbu_0, # of connection points: 6
#     Node 2, Type 0, BuildingBlock: CUKXOW_clean_sbu_0, # of connection points: 6
#     Node 3, Type 0, BuildingBlock: CUKXOW_clean_sbu_0, # of connection points: 6
#     Node 4, Type 0, BuildingBlock: CUKXOW_clean_sbu_0, # of connection points: 6
#     Node 5, Type 0, BuildingBlock: CUKXOW_clean_sbu_0, # of connection points: 6
#     Node 6, Type 0, BuildingBlock: CUKXOW_clean_sbu_0, # of connection points: 6
#     Node 7, Type 0, BuildingBlock: CUKXOW_clean_sbu_0, # of connection points: 6
#     Node 8, Type 0, BuildingBlock: CUKXOW_clean_sbu_0, # of connection points: 6
#     Node 9, Type 0, BuildingBlock: CUKXOW_clean_sbu_0, # of connection points: 6
#     Node 10, Type 0, BuildingBlock: CUKXOW_clean_sbu_0, # of connection points: 6
#     Node 11, Type 0, BuildingBlock: CUKXOW_clean_sbu_0, # of connection points: 6
#     Node 12, Type 0, BuildingBlock: CUKXOW_clean_sbu_0, # of connection points: 6
#     Node 13, Type 0, BuildingBlock: CUKXOW_clean_sbu_0, # of connection points: 6
#     Node 14, Type 0, BuildingBlock: CUKXOW_clean_sbu_0, # of connection points: 6
#     Node 15, Type 0, BuildingBlock: CUKXOW_clean_sbu_0, # of connection points: 6
#     Edge 16, Type (0, 0), BuildingBlock: KIFKEQ_clean_linker_1, # of connection points: 2
#     Edge 17, Type (0, 0), BuildingBlock: KIFKEQ_clean_linker_1, # of connection points: 2
#     Edge 18, Type (0, 0), BuildingBlock: KIFKEQ_clean_linker_1, # of connection points: 2
#     Edge 19, Type (0, 0), BuildingBlock: KIFKEQ_clean_linker_1, # of connection points: 2
#     Edge 20, Type (0, 0), BuildingBlock: KIFKEQ_clean_linker_1, # of connection points: 2
#     Edge 21, Type (0, 0), BuildingBlock: KIFKEQ_clean_linker_1, # of connection points: 2
#     Edge 22, Type (0, 0), BuildingBlock: KIFKEQ_clean_linker_1, # of connection points: 2
#     Edge 23, Type (0, 0), BuildingBlock: KIFKEQ_clean_linker_1, # of connection points: 2
#     Edge 24, Type (0, 0), BuildingBlock: KIFKEQ_clean_linker_1, # of connection points: 2
#     Edge 25, Type (0, 0), BuildingBlock: KIFKEQ_clean_linker_1, # of connection points: 2
#     Edge 26, Type (0, 0), BuildingBlock: KIFKEQ_clean_linker_1, # of connection points: 2
#     Edge 27, Type (0, 0), BuildingBlock: KIFKEQ_clean_linker_1, # of connection points: 2
#     Edge 28, Type (0, 0), BuildingBlock: KIFKEQ_clean_linker_1, # of connection points: 2
#     Edge 29, Type (0, 0), BuildingBlock: KIFKEQ_clean_linker_1, # of connection points: 2
#     Edge 30, Type (0, 0), BuildingBlock: KIFKEQ_clean_linker_1, # of connection points: 2
#     Edge 31, Type (0, 0), BuildingBlock: KIFKEQ_clean_linker_1, # of connection points: 2
#     Edge 32, Type (0, 0), BuildingBlock: KIFKEQ_clean_linker_1, # of connection points: 2
#     Edge 33, Type (0, 0), BuildingBlock: KIFKEQ_clean_linker_1, # of connection points: 2
#     Edge 34, Type (0, 0), BuildingBlock: KIFKEQ_clean_linker_1, # of connection points: 2
#     Edge 35, Type (0, 0), BuildingBlock: KIFKEQ_clean_linker_1, # of connection points: 2
#     Edge 36, Type (0, 0), BuildingBlock: KIFKEQ_clean_linker_1, # of connection points: 2
#     Edge 37, Type (0, 0), BuildingBlock: KIFKEQ_clean_linker_1, # of connection points: 2
#     Edge 38, Type (0, 0), BuildingBlock: KIFKEQ_clean_linker_1, # of connection points: 2
#     Edge 39, Type (0, 0), BuildingBlock: KIFKEQ_clean_linker_1, # of connection points: 2
#     Edge 40, Type (0, 0), BuildingBlock: KIFKEQ_clean_linker_1, # of connection points: 2
#     Edge 41, Type (0, 0), BuildingBlock: KIFKEQ_clean_linker_1, # of connection points: 2
#     Edge 42, Type (0, 0), BuildingBlock: KIFKEQ_clean_linker_1, # of connection points: 2
#     Edge 43, Type (0, 0), BuildingBlock: KIFKEQ_clean_linker_1, # of connection points: 2
#     Edge 44, Type (0, 0), BuildingBlock: KIFKEQ_clean_linker_1, # of connection points: 2
#     Edge 45, Type (0, 0), BuildingBlock: KIFKEQ_clean_linker_1, # of connection points: 2
#     Edge 46, Type (0, 0), BuildingBlock: KIFKEQ_clean_linker_1, # of connection points: 2
#     Edge 47, Type (0, 0), BuildingBlock: KIFKEQ_clean_linker_1, # of connection points: 2
#     Edge 48, Type (0, 0), BuildingBlock: KIFKEQ_clean_linker_1, # of connection points: 2
#     Edge 49, Type (0, 0), BuildingBlock: KIFKEQ_clean_linker_1, # of connection points: 2
#     Edge 50, Type (0, 0), BuildingBlock: KIFKEQ_clean_linker_1, # of connection points: 2
#     Edge 51, Type (0, 0), BuildingBlock: KIFKEQ_clean_linker_1, # of connection points: 2
#     Edge 52, Type (0, 0), BuildingBlock: KIFKEQ_clean_linker_1, # of connection points: 2
#     Edge 53, Type (0, 0), BuildingBlock: KIFKEQ_clean_linker_1, # of connection points: 2
#     Edge 54, Type (0, 0), BuildingBlock: KIFKEQ_clean_linker_1, # of connection points: 2
#     Edge 55, Type (0, 0), BuildingBlock: KIFKEQ_clean_linker_1, # of connection points: 2
#     Edge 56, Type (0, 0), BuildingBlock: KIFKEQ_clean_linker_1, # of connection points: 2
#     Edge 57, Type (0, 0), BuildingBlock: KIFKEQ_clean_linker_1, # of connection points: 2
#     Edge 58, Type (0, 0), BuildingBlock: KIFKEQ_clean_linker_1, # of connection points: 2
#     Edge 59, Type (0, 0), BuildingBlock: KIFKEQ_clean_linker_1, # of connection points: 2
#     Edge 60, Type (0, 0), BuildingBlock: KIFKEQ_clean_linker_1, # of connection points: 2
#     Edge 61, Type (0, 0), BuildingBlock: KIFKEQ_clean_linker_1, # of connection points: 2
#     Edge 62, Type (0, 0), BuildingBlock: KIFKEQ_clean_linker_1, # of connection points: 2
#     Edge 63, Type (0, 0), BuildingBlock: KIFKEQ_clean_linker_1, # of connection points: 2
# Relax obj value: 0.230
# Max RMSD: 0.249
# Mean RMSD: 0.249
data_MOF--net-whz--node1-CUKXOW_clean_sbu_0--edge1-KIFKEQ_clean_linker_1
_symmetry_space_group_name_H-M    P1
_symmetry_Int_Tables_number       1
_symmetry_cell_setting            triclinic
loop_
_symmetry_equiv_pos_as_xyz
'x, y, z'
_cell_length_a     37.923602
_cell_length_b     37.916767
_cell_length_c     50.981167
_cell_angle_alpha  90.212018
_cell_angle_beta   90.025642
_cell_angle_gamma 89.971738
loop_
_atom_site_label
_atom_site_type_symbol
_atom_site_fract_x
_atom_site_fract_y
_atom_site_fract_z
_atom_type_partial_charge
Tb0 Tb 0.33166 0.15378 0.16695 0.0
C1 C 0.26958 0.19744 0.14205 0.0
Tb2 Tb 0.25596 0.12505 0.17168 0.0
O3 O 0.33349 0.1435 0.12466 0.0
O4 O 0.30063 0.11352 0.14838 0.0
O5 O 0.30223 0.19816 0.15142 0.0
C6 C 0.19157 0.09729 0.16584 0.0
O7 O 0.24845 0.16962 0.14472 0.0
C8 C 0.27712 0.16408 0.21149 0.0
C9 C 0.31524 0.08988 0.20611 0.0
O10 O 0.19839 0.12998 0.17133 0.0
O11 O 0.22107 0.08022 0.1631 0.0
O12 O 0.25361 0.13934 0.21315 0.0
O13 O 0.28504 0.16745 0.18769 0.0
O14 O 0.28374 0.0857 0.19507 0.0
O15 O 0.3374 0.11533 0.19893 0.0
C16 C 0.39392 0.18698 0.17316 0.0
O17 O 0.38971 0.15541 0.16352 0.0
O18 O 0.36321 0.19927 0.1797 0.0
C19 C 0.30803 0.12069 0.12476 0.0
Tb20 Tb 0.61283 0.58172 0.41653 0.0
C21 C 0.56736 0.51845 0.39585 0.0
Tb22 Tb 0.64432 0.50784 0.41983 0.0
O23 O 0.61585 0.5811 0.37381 0.0
O24 O 0.6523 0.55232 0.39551 0.0
O25 O 0.56704 0.55108 0.40527 0.0
C26 C 0.66858 0.44208 0.41367 0.0
O27 O 0.59625 0.49842 0.39637 0.0
C28 C 0.61022 0.52847 0.46206 0.0
C29 C 0.68201 0.56829 0.45127 0.0
O30 O 0.64046 0.4512 0.42633 0.0
O31 O 0.68325 0.47018 0.40393 0.0
O32 O 0.63694 0.50711 0.46223 0.0
O33 O 0.60302 0.53545 0.43855 0.0
O34 O 0.68644 0.53708 0.43965 0.0
O35 O 0.65447 0.58892 0.44604 0.0
C36 C 0.58007 0.64399 0.42359 0.0
O37 O 0.61046 0.63959 0.41218 0.0
O38 O 0.56879 0.61352 0.43142 0.0
C39 C 0.64097 0.558 0.37254 0.0
Tb40 Tb 0.18246 0.8623 0.66622 0.0
C41 C 0.24263 0.81706 0.6398 0.0
Tb42 Tb 0.25923 0.88786 0.6692 0.0
O43 O 0.17918 0.87211 0.62377 0.0
O44 O 0.21443 0.90055 0.64646 0.0
O45 O 0.21149 0.81699 0.65159 0.0
C46 C 0.32123 0.92167 0.6708 0.0
O47 O 0.26375 0.84513 0.6402 0.0
C48 C 0.24468 0.83389 0.69874 0.0
C49 C 0.20066 0.92482 0.70585 0.0
O50 O 0.30874 0.90132 0.68884 0.0
O51 O 0.29851 0.92363 0.65179 0.0
O52 O 0.27501 0.83917 0.68774 0.0
O53 O 0.22448 0.85967 0.6941 0.0
O54 O 0.23367 0.92508 0.69675 0.0
O55 O 0.17621 0.90275 0.69669 0.0
C56 C 0.12069 0.82913 0.67375 0.0
O57 O 0.12425 0.86161 0.66579 0.0
O58 O 0.15182 0.81595 0.67788 0.0
C59 C 0.20569 0.89356 0.62304 0.0
Tb60 Tb 0.90174 0.43322 0.91559 0.0
C61 C 0.94746 0.49317 0.8899 0.0
Tb62 Tb 0.87663 0.5102 0.91927 0.0
O63 O 0.89153 0.43072 0.87306 0.0
O64 O 0.86358 0.46575 0.89624 0.0
O65 O 0.94721 0.46185 0.90131 0.0
C66 C 0.8426 0.57215 0.92034 0.0
O67 O 0.91972 0.51473 0.89061 0.0
C68 C 0.93071 0.49522 0.94864 0.0
C69 C 0.83944 0.45129 0.95522 0.0
O70 O 0.86239 0.5597 0.9388 0.0
O71 O 0.84135 0.54942 0.90125 0.0
O72 O 0.92527 0.52577 0.93805 0.0
O73 O 0.90491 0.475 0.94386 0.0
O74 O 0.83943 0.48449 0.94656 0.0
O75 O 0.86134 0.42682 0.94585 0.0
C76 C 0.93469 0.37114 0.92247 0.0
O77 O 0.90213 0.37497 0.91468 0.0
O78 O 0.94805 0.40215 0.92681 0.0
C79 C 0.87021 0.45738 0.87271 0.0
Tb80 Tb 0.7546 0.89278 0.88203 0.0
C81 C 0.69695 0.93133 0.84795 0.0
Tb82 Tb 0.68038 0.86311 0.88247 0.0
O83 O 0.75889 0.88655 0.84006 0.0
O84 O 0.72778 0.85199 0.86137 0.0
O85 O 0.72782 0.93482 0.86021 0.0
C86 C 0.61705 0.83206 0.87512 0.0
O87 O 0.67503 0.90482 0.85298 0.0
C88 C 0.70232 0.89067 0.92749 0.0
C89 C 0.74086 0.81591 0.90486 0.0
O90 O 0.62243 0.86194 0.88711 0.0
O91 O 0.64719 0.82041 0.86673 0.0
O92 O 0.67956 0.86538 0.92538 0.0
O93 O 0.70898 0.90201 0.90473 0.0
O94 O 0.70931 0.81636 0.89371 0.0
O95 O 0.7613 0.84447 0.90566 0.0
C96 C 0.82032 0.91609 0.89024 0.0
O97 O 0.8116 0.88708 0.87849 0.0
O98 O 0.79179 0.93207 0.8981 0.0
C99 C 0.73737 0.86011 0.83844 0.0
Tb100 Tb 0.37776 0.51123 0.63254 0.0
C101 C 0.33938 0.45209 0.5973 0.0
Tb102 Tb 0.4024 0.43436 0.63632 0.0
O103 O 0.42567 0.5264 0.61315 0.0
O104 O 0.40565 0.47543 0.60769 0.0
O105 O 0.34033 0.48552 0.60551 0.0
C106 C 0.43558 0.37236 0.62915 0.0
O107 O 0.36076 0.42739 0.60691 0.0
C108 C 0.37181 0.45948 0.67937 0.0
C109 C 0.44869 0.49474 0.66144 0.0
O110 O 0.40312 0.37607 0.63721 0.0
O111 O 0.44867 0.40341 0.62477 0.0
O112 O 0.39307 0.43275 0.67898 0.0
O113 O 0.36475 0.46731 0.65586 0.0
O114 O 0.44815 0.46327 0.65007 0.0
O115 O 0.42094 0.51627 0.66101 0.0
C116 C 0.34418 0.57336 0.63019 0.0
O117 O 0.36409 0.55997 0.61215 0.0
O118 O 0.34256 0.55149 0.64971 0.0
C119 C 0.43118 0.49581 0.60249 0.0
Tb120 Tb 0.75878 0.12105 0.37988 0.0
C121 C 0.81903 0.08467 0.3475 0.0
Tb122 Tb 0.83297 0.1519 0.3845 0.0
O123 O 0.75811 0.13134 0.33773 0.0
O124 O 0.78678 0.16316 0.3628 0.0
O125 O 0.7879 0.07977 0.35899 0.0
C126 C 0.89501 0.18528 0.37824 0.0
O127 O 0.83981 0.11183 0.35357 0.0
C128 C 0.80876 0.12212 0.42768 0.0
C129 C 0.7696 0.19682 0.40607 0.0
O130 O 0.89091 0.15429 0.38874 0.0
O131 O 0.86437 0.19682 0.37092 0.0
O132 O 0.83239 0.14679 0.42711 0.0
O133 O 0.80309 0.11192 0.40435 0.0
O134 O 0.8024 0.19727 0.39704 0.0
O135 O 0.74934 0.16816 0.40448 0.0
C136 C 0.69328 0.09601 0.38554 0.0
O137 O 0.70209 0.12433 0.37309 0.0
O138 O 0.72153 0.08159 0.39528 0.0
C139 C 0.7797 0.15782 0.33901 0.0
Tb140 Tb 0.14369 0.50481 0.13496 0.0
C141 C 0.17762 0.56602 0.10024 0.0
Tb142 Tb 0.11092 0.57872 0.13705 0.0
O143 O 0.09922 0.48285 0.11452 0.0
O144 O 0.11224 0.53615 0.10923 0.0
O145 O 0.18138 0.53401 0.11052 0.0
C146 C 0.07593 0.63952 0.1293 0.0
O147 O 0.15171 0.58775 0.10737 0.0
C148 C 0.14248 0.55844 0.1811 0.0
C149 C 0.06929 0.51536 0.16144 0.0
O150 O 0.10841 0.63685 0.13745 0.0
O151 O 0.06367 0.60801 0.1251 0.0
O152 O 0.11813 0.58227 0.17985 0.0
O153 O 0.15139 0.55067 0.15787 0.0
O154 O 0.06715 0.54662 0.15006 0.0
O155 O 0.09887 0.49641 0.16156 0.0
C156 C 0.18237 0.44574 0.13469 0.0
O157 O 0.17214 0.46262 0.15554 0.0
O158 O 0.17161 0.46262 0.11416 0.0
C159 C 0.08967 0.51242 0.10409 0.0
Tb160 Tb 0.83212 0.65304 0.66607 0.0
C161 C 0.77106 0.69893 0.64162 0.0
Tb162 Tb 0.75564 0.62621 0.66882 0.0
O163 O 0.83477 0.6447 0.6234 0.0
O164 O 0.8005 0.61474 0.64575 0.0
O165 O 0.80264 0.69846 0.65275 0.0
C166 C 0.69399 0.59201 0.67079 0.0
O167 O 0.75014 0.67063 0.64129 0.0
C168 C 0.7686 0.67994 0.69882 0.0
C169 C 0.81518 0.58849 0.70376 0.0
O170 O 0.70845 0.60938 0.68983 0.0
O171 O 0.71463 0.59311 0.65045 0.0
O172 O 0.73818 0.67343 0.68834 0.0
O173 O 0.79004 0.65509 0.69398 0.0
O174 O 0.78218 0.58803 0.69471 0.0
O175 O 0.83913 0.61152 0.69537 0.0
C176 C 0.894 0.68606 0.67383 0.0
O177 O 0.89031 0.65392 0.66504 0.0
O178 O 0.86294 0.69899 0.67868 0.0
C179 C 0.80877 0.62264 0.62245 0.0
Tb180 Tb 0.11052 0.08131 0.91697 0.0
C181 C 0.06581 0.01731 0.89556 0.0
Tb182 Tb 0.14004 1.00627 0.92369 0.0
O183 O 0.11955 0.08058 0.87449 0.0
O184 O 0.15067 0.04959 0.89887 0.0
O185 O 0.06551 0.05064 0.90365 0.0
C186 C 0.16507 0.94038 0.92071 0.0
O187 O 0.09411 0.99672 0.8981 0.0
C188 C 0.10218 0.03003 0.96333 0.0
C189 C 0.17615 0.06739 0.95536 0.0
O190 O 0.13505 0.9497 0.93061 0.0
O191 O 0.18116 0.96827 0.91197 0.0
O192 O 0.12806 0.00785 0.96558 0.0
O193 O 0.09797 0.03601 0.93929 0.0
O194 O 0.18097 0.03586 0.94439 0.0
O195 O 0.14949 0.08845 0.94864 0.0
C196 C 0.07718 0.14376 0.92228 0.0
O197 O 0.1085 0.13925 0.91233 0.0
O198 O 0.06523 0.11327 0.92952 0.0
C199 C 0.1427 0.05542 0.87515 0.0
Tb200 Tb 0.68412 0.36096 0.16625 0.0
C201 C 0.74682 0.31511 0.14457 0.0
Tb202 Tb 0.75918 0.3899 0.17134 0.0
O203 O 0.68402 0.36834 0.12353 0.0
O204 O 0.71531 0.40037 0.1471 0.0
O205 O 0.71393 0.31516 0.15342 0.0
C206 C 0.82511 0.41408 0.16697 0.0
O207 O 0.76755 0.34335 0.14624 0.0
C208 C 0.73679 0.35518 0.21261 0.0
C209 C 0.6992 0.42789 0.20312 0.0
O210 O 0.81595 0.38397 0.17672 0.0
O211 O 0.79701 0.43072 0.15915 0.0
O212 O 0.75928 0.38091 0.21331 0.0
O213 O 0.72971 0.34872 0.18889 0.0
O214 O 0.73077 0.43161 0.19211 0.0
O215 O 0.67749 0.40157 0.1968 0.0
C216 C 0.62137 0.32863 0.1724 0.0
O217 O 0.62606 0.35966 0.16213 0.0
O218 O 0.65183 0.31644 0.17951 0.0
C219 C 0.70896 0.39171 0.12359 0.0
Tb220 Tb 0.40285 0.9315 0.41666 0.0
C221 C 0.44827 0.99472 0.39561 0.0
Tb222 Tb 0.37248 1.00608 0.42148 0.0
O223 O 0.39794 0.93243 0.37403 0.0
O224 O 0.36316 0.96183 0.3969 0.0
O225 O 0.44845 0.9618 0.40438 0.0
C226 C 0.34768 0.07161 0.41575 0.0
O227 O 0.41979 0.01525 0.39726 0.0
C228 C 0.40861 0.98416 0.46244 0.0
C229 C 0.33478 0.94585 0.45265 0.0
O230 O 0.37541 0.06269 0.42894 0.0
O231 O 0.33374 0.04349 0.40536 0.0
O232 O 0.38242 1.00616 0.46376 0.0
O233 O 0.41407 0.97749 0.43862 0.0
O234 O 0.33054 0.97724 0.44149 0.0
O235 O 0.36185 0.9248 0.4468 0.0
C236 C 0.43567 0.86924 0.42323 0.0
O237 O 0.40522 0.87363 0.41188 0.0
O238 O 0.44698 0.89971 0.43121 0.0
C239 C 0.37335 0.95619 0.3736 0.0
Tb240 Tb 0.25638 0.39349 0.38178 0.0
C241 C 0.19584 0.43271 0.35185 0.0
Tb242 Tb 0.18252 0.36254 0.38522 0.0
O243 O 0.25691 0.38774 0.33938 0.0
O244 O 0.22823 0.35285 0.36217 0.0
O245 O 0.22719 0.43652 0.36327 0.0
C246 C 0.11992 0.33023 0.37843 0.0
O247 O 0.17514 0.4051 0.35661 0.0
C248 C 0.20706 0.39006 0.42935 0.0
C249 C 0.24562 0.31629 0.40476 0.0
O250 O 0.12466 0.36036 0.39024 0.0
O251 O 0.15021 0.31902 0.37009 0.0
O252 O 0.18411 0.3648 0.42811 0.0
O253 O 0.21221 0.40152 0.40641 0.0
O254 O 0.21302 0.31627 0.3954 0.0
O255 O 0.26568 0.34511 0.40463 0.0
C256 C 0.32224 0.41731 0.38796 0.0
O257 O 0.313 0.38946 0.37496 0.0
O258 O 0.29424 0.43192 0.39799 0.0
C259 C 0.23532 0.36122 0.33884 0.0
Tb260 Tb 0.87158 1.00402 0.13003 0.0
C261 C 0.83205 0.94481 0.09796 0.0
Tb262 Tb 0.89982 0.92853 0.13335 0.0
O263 O 0.87867 1.00519 0.08786 0.0
O264 O 0.91138 0.9743 0.11081 0.0
O265 O 0.82914 0.97635 0.10934 0.0
C266 C 0.93148 0.86541 0.12663 0.0
O267 O 0.85807 0.92253 0.10373 0.0
C268 C 0.8722 0.95364 0.17736 0.0
C269 C 0.94811 0.99054 0.15334 0.0
O270 O 0.90105 0.87052 0.13784 0.0
O271 O 0.94334 0.89565 0.11881 0.0
O272 O 0.89541 0.92858 0.17634 0.0
O273 O 0.86205 0.96003 0.15422 0.0
O274 O 0.9468 0.95793 0.14389 0.0
O275 O 0.91996 0.01159 0.1535 0.0
C276 C 0.84736 0.06979 0.13602 0.0
O277 O 0.87736 0.06098 0.1258 0.0
O278 O 0.83092 0.04144 0.14347 0.0
C279 C 0.904 0.98221 0.08742 0.0
Tb280 Tb 0.25357 0.62499 0.88451 0.0
C281 C 0.3141 0.59073 0.84868 0.0
Tb282 Tb 0.32889 0.65475 0.88791 0.0
O283 O 0.23444 0.67265 0.86686 0.0
O284 O 0.28663 0.65644 0.86007 0.0
O285 O 0.28133 0.58852 0.85794 0.0
C286 C 0.38996 0.68947 0.8805 0.0
O287 O 0.33707 0.61466 0.85736 0.0
C288 C 0.30718 0.62149 0.93074 0.0
C289 C 0.26634 0.6961 0.91476 0.0
O290 O 0.38708 0.65673 0.88794 0.0
O291 O 0.3585 0.70219 0.87692 0.0
O292 O 0.33241 0.64447 0.9303 0.0
O293 O 0.29899 0.61451 0.9072 0.0
O294 O 0.29763 0.69821 0.90324 0.0
O295 O 0.24671 0.66697 0.91383 0.0
C296 C 0.19284 0.58928 0.8808 0.0
O297 O 0.21351 0.58934 0.90114 0.0
O298 O 0.2068 0.6085 0.86267 0.0
C299 C 0.26427 0.68076 0.85614 0.0
Tb300 Tb 0.64062 0.00842 0.63215 0.0
C301 C 0.67767 0.06605 0.59709 0.0
Tb302 Tb 0.61145 0.08317 0.63375 0.0
O303 O 0.6312 1.00325 0.59037 0.0
O304 O 0.59942 0.03596 0.61281 0.0
O305 O 0.6813 0.035 0.60891 0.0
C306 C 0.57933 0.14594 0.62678 0.0
O307 O 0.65186 0.0884 0.6032 0.0
C308 C 0.64051 0.06078 0.67805 0.0
C309 C 0.56506 0.02257 0.65706 0.0
O310 O 0.6098 0.14122 0.63801 0.0
O311 O 0.56769 0.1155 0.61902 0.0
O312 O 0.6157 0.08419 0.67658 0.0
O313 O 0.65084 0.0539 0.65499 0.0
O314 O 0.56525 0.05419 0.64607 0.0
O315 O 0.59353 1.00195 0.65716 0.0
C316 C 0.66691 0.94386 0.64028 0.0
O317 O 0.63481 0.951 0.63345 0.0
O318 O 0.68417 0.97322 0.64327 0.0
C319 C 0.60594 0.02627 0.58962 0.0
H320 H 0.28117 0.23389 0.19989 0.0
H321 H 0.2696 0.16108 0.26418 0.0
H322 H 0.26752 0.28288 0.22901 0.0
H323 H 0.2582 0.21026 0.29397 0.0
H324 H 0.20248 0.29733 0.33623 0.0
H325 H 0.21359 0.25037 0.30453 0.0
H326 H 0.28603 0.31854 0.26314 0.0
H327 H 0.27295 0.36585 0.29371 0.0
C328 C 0.27682 0.22855 0.2205 0.0
C329 C 0.27645 0.19384 0.22993 0.0
C330 C 0.26891 0.25664 0.23724 0.0
C331 C 0.26122 0.25061 0.26386 0.0
C332 C 0.26288 0.21587 0.27346 0.0
C333 C 0.27002 0.18773 0.25657 0.0
C334 C 0.22003 0.30242 0.31994 0.0
C335 C 0.23693 0.3351 0.31747 0.0
C336 C 0.22693 0.27536 0.302 0.0
C337 C 0.25136 0.28031 0.28153 0.0
C338 C 0.26691 0.31369 0.27846 0.0
C339 C 0.25948 0.34088 0.29608 0.0
H340 H 0.4267 0.53975 0.56184 0.0
H341 H 0.48374 0.44924 0.5904 0.0
H342 H 0.46953 0.54744 0.52708 0.0
H343 H 0.52661 0.45592 0.55464 0.0
H344 H 0.6192 0.5103 0.51305 0.0
H345 H 0.57307 0.49769 0.54509 0.0
H346 H 0.49378 0.52551 0.48776 0.0
H347 H 0.53981 0.53957 0.45636 0.0
C348 C 0.44799 0.5208 0.56004 0.0
C349 C 0.45213 0.49387 0.57854 0.0
C350 C 0.4725 0.52513 0.5401 0.0
C351 C 0.50169 0.5025 0.53821 0.0
C352 C 0.50467 0.47413 0.55589 0.0
C353 C 0.47997 0.46987 0.57603 0.0
C354 C 0.59187 0.51426 0.50758 0.0
C355 C 0.58299 0.5261 0.4824 0.0
C356 C 0.56547 0.50646 0.52571 0.0
C357 C 0.52975 0.51009 0.51885 0.0
C358 C 0.52103 0.52268 0.49375 0.0
C359 C 0.54741 0.5309 0.47578 0.0
H360 H 0.21911 0.85096 0.7468 0.0
H361 H 0.26761 0.76713 0.70219 0.0
H362 H 0.22878 0.81803 0.78713 0.0
H363 H 0.27527 0.73279 0.74213 0.0
H364 H 0.31469 0.69048 0.8181 0.0
H365 H 0.30971 0.73006 0.78039 0.0
H366 H 0.21103 0.77001 0.81119 0.0
H367 H 0.2174 0.73266 0.8491 0.0
C368 C 0.23063 0.82483 0.74565 0.0
C369 C 0.24231 0.81116 0.72164 0.0
C370 C 0.23644 0.806 0.7687 0.0
C371 C 0.25328 0.77286 0.76798 0.0
C372 C 0.26324 0.75863 0.74357 0.0
C373 C 0.25819 0.77785 0.72065 0.0
C374 C 0.29258 0.70852 0.81696 0.0
C375 C 0.26616 0.70827 0.83612 0.0
C376 C 0.28935 0.73077 0.79526 0.0
C377 C 0.25949 0.75269 0.79242 0.0
C378 C 0.23444 0.75379 0.81264 0.0
C379 C 0.23796 0.7321 0.83434 0.0
H380 H 0.91719 0.46596 0.99618 0.0
H381 H 0.99688 0.51985 0.95124 0.0
H382 H 0.95223 0.47401 0.0359 0.0
H383 H 0.03316 0.5262 0.99045 0.0
H384 H 0.07667 0.56385 0.06733 0.0
H385 H 0.03623 0.5588 0.02995 0.0
H386 H 1.00268 0.45648 0.05783 0.0
H387 H 0.04099 0.46265 0.09539 0.0
C388 C 0.94285 0.47837 0.99475 0.0
C389 C 0.95471 0.49204 0.97088 0.0
C390 C 0.96288 0.48326 1.01747 0.0
C391 C 0.99538 0.50126 1.01648 0.0
C392 C 0.00784 0.51321 0.99213 0.0
C393 C 0.98749 0.50896 0.9696 0.0
C394 C 0.05994 0.54081 0.0656 0.0
C395 C 0.06219 0.51346 0.08388 0.0
C396 C 0.03717 0.53758 0.04409 0.0
C397 C 0.01664 0.50686 0.04059 0.0
C398 C 0.01776 0.48057 0.05985 0.0
C399 C 0.04002 0.484 0.08133 0.0
H400 H 0.68933 0.81992 0.81225 0.0
H401 H 0.80095 0.83938 0.82059 0.0
H402 H 0.70192 0.77665 0.77745 0.0
H403 H 0.81353 0.79606 0.78629 0.0
H404 H 0.81102 0.68384 0.74246 0.0
H405 H 0.80524 0.72805 0.77774 0.0
H406 H 0.72946 0.78528 0.73106 0.0
H407 H 0.73532 0.74174 0.69619 0.0
C408 C 0.71641 0.81473 0.80667 0.0
C409 C 0.74411 0.83314 0.81853 0.0
C410 C 0.72366 0.79021 0.78688 0.0
C411 C 0.75871 0.78342 0.77921 0.0
C412 C 0.7864 0.8009 0.79189 0.0
C413 C 0.77913 0.82579 0.81127 0.0
C414 C 0.79406 0.7065 0.7396 0.0
C415 C 0.7733 0.70945 0.71697 0.0
C416 C 0.79049 0.73149 0.75973 0.0
C417 C 0.76611 0.75929 0.75722 0.0
C418 C 0.74762 0.7635 0.73368 0.0
C419 C 0.75127 0.73883 0.71371 0.0
H420 H 0.70601 0.28981 0.21165 0.0
H421 H 0.7702 0.35894 0.25929 0.0
H422 H 0.71594 0.24201 0.2428 0.0
H423 H 0.78252 0.31115 0.28901 0.0
H424 H 0.77839 0.22764 0.35036 0.0
H425 H 0.76282 0.27531 0.32131 0.0
H426 H 0.75915 0.20205 0.25599 0.0
H427 H 0.77202 0.15358 0.28603 0.0
C428 C 0.7219 0.29482 0.22892 0.0
C429 C 0.73737 0.32797 0.23306 0.0
C430 C 0.72817 0.26732 0.24654 0.0
C431 C 0.7505 0.27239 0.26834 0.0
C432 C 0.76477 0.30611 0.2728 0.0
C433 C 0.75785 0.33364 0.2556 0.0
C434 C 0.77474 0.22175 0.32973 0.0
C435 C 0.77665 0.187 0.32032 0.0
C436 C 0.7658 0.2492 0.31296 0.0
C437 C 0.75964 0.24277 0.28615 0.0
C438 C 0.76287 0.20799 0.27659 0.0
C439 C 0.77086 0.18028 0.29362 0.0
H440 H 0.9692 0.95139 0.08677 0.0
H441 H 0.89919 0.01729 0.04149 0.0
H442 H 0.01682 0.96368 0.05596 0.0
H443 H 0.94688 0.03174 1.01201 0.0
H444 H 0.03262 0.03069 0.95094 0.0
H445 H 0.98404 0.01447 0.97916 0.0
H446 H 0.05548 0.00937 0.04533 0.0
H447 H 0.1047 0.02309 1.01623 0.0
C448 C 0.96393 0.96812 0.07005 0.0
C449 C 0.93065 0.98353 0.06656 0.0
C450 C 0.99133 0.97574 0.05265 0.0
C451 C 0.98601 0.99935 0.03173 0.0
C452 C 0.95208 0.01323 0.02765 0.0
C453 C 0.92464 1.00503 0.04466 0.0
C454 C 0.03784 0.0267 0.9716 0.0
C455 C 0.07232 0.02818 0.98152 0.0
C456 C 0.00993 0.01733 0.98786 0.0
C457 C 0.01573 0.01018 1.01458 0.0
C458 C 0.05011 0.01364 1.02473 0.0
C459 C 0.07822 0.02216 1.00825 0.0
H460 H 0.4038 0.99534 0.51506 0.0
H461 H 0.47857 0.9787 0.45238 0.0
H462 H 0.45239 1.00696 0.54539 0.0
H463 H 0.52662 0.99282 0.48169 0.0
H464 H 0.60832 0.98676 0.54545 0.0
H465 H 0.56034 0.97381 0.5158 0.0
H466 H 0.4945 0.0494 0.55669 0.0
H467 H 0.54229 0.06023 0.58782 0.0
C468 C 0.43067 0.99393 0.5079 0.0
C469 C 0.43751 0.98589 0.48154 0.0
C470 C 0.45848 1.00118 0.52509 0.0
C471 C 0.49357 1.00126 0.51601 0.0
C472 C 0.50016 0.99243 0.48964 0.0
C473 C 0.47251 0.98433 0.47272 0.0
C474 C 0.58371 1.0009 0.54798 0.0
C475 C 0.5789 0.02434 0.56902 0.0
C476 C 0.55611 0.99359 0.53083 0.0
C477 C 0.52326 0.01031 0.53385 0.0
C478 C 0.51911 0.03531 0.55414 0.0
C479 C 0.54662 0.04204 0.57172 0.0
H480 H 0.24034 0.04019 0.97057 0.0
H481 H 0.16052 0.11503 0.99425 0.0
H482 H 0.27219 0.05111 1.01162 0.0
H483 H 0.19209 0.12543 0.03534 0.0
H484 H 0.23791 0.10333 0.11821 0.0
H485 H 0.207 0.09068 0.07695 0.0
H486 H 0.30501 0.10113 0.03476 0.0
H487 H 0.33558 0.11404 0.07595 0.0
C488 C 0.22975 0.05925 0.98435 0.0
C489 C 0.19794 0.07693 0.97884 0.0
C490 C 0.248 0.06545 1.00794 0.0
C491 C 0.23457 0.08892 0.02695 0.0
C492 C 0.20299 0.10687 1.02133 0.0
C493 C 0.18511 0.1012 0.99754 0.0
C494 C 0.25291 0.10211 0.10026 0.0
C495 C 0.28928 0.10911 0.1005 0.0
C496 C 0.23516 0.09538 0.07651 0.0
C497 C 0.25349 0.0949 0.05244 0.0
C498 C 0.29006 0.101 0.05286 0.0
C499 C 0.30759 0.10842 0.07649 0.0
H500 H 0.69879 0.51541 0.36229 0.0
H501 H 0.60466 0.55788 0.32686 0.0
H502 H 0.71308 0.48526 0.32076 0.0
H503 H 0.6187 0.52807 0.28581 0.0
H504 H 0.63481 0.43626 0.22705 0.0
H505 H 0.62176 0.46705 0.26808 0.0
H506 H 0.73038 0.49996 0.27386 0.0
H507 H 0.7435 0.46931 0.23273 0.0
C508 C 0.68114 0.51819 0.34573 0.0
C509 C 0.65058 0.53899 0.34793 0.0
C510 C 0.6894 0.50116 0.32188 0.0
C511 C 0.66698 0.50416 0.29988 0.0
C512 C 0.63639 0.52482 0.30232 0.0
C513 C 0.62845 0.5421 0.32589 0.0
C514 C 0.65585 0.45046 0.23681 0.0
C515 C 0.69015 0.45046 0.22629 0.0
C516 C 0.64837 0.4681 0.26043 0.0
C517 C 0.67506 0.48586 0.27445 0.0
C518 C 0.70927 0.48624 0.26379 0.0
C519 C 0.71666 0.46902 0.23997 0.0
H520 H 0.17477 0.91058 0.57652 0.0
H521 H 0.27669 0.89841 0.61238 0.0
H522 H 0.20329 0.92285 0.53429 0.0
H523 H 0.30524 0.91112 0.57082 0.0
H524 H 0.3435 0.8914 0.48732 0.0
H525 H 0.31148 0.88042 0.52786 0.0
H526 H 0.24219 0.96778 0.51121 0.0
H527 H 0.27446 0.97909 0.47047 0.0
C528 C 0.2033 0.91124 0.57557 0.0
C529 C 0.22346 0.90465 0.59824 0.0
C530 C 0.21964 0.91828 0.55136 0.0
C531 C 0.25664 0.91798 0.54904 0.0
C532 C 0.27671 0.91151 0.57176 0.0
C533 C 0.26033 0.90501 0.59594 0.0
C534 C 0.32116 0.90808 0.49197 0.0
C535 C 0.31172 0.9362 0.47539 0.0
C536 C 0.30296 0.90195 0.51547 0.0
C537 C 0.27446 0.92346 0.52308 0.0
C538 C 0.26396 0.95064 0.506 0.0
C539 C 0.2825 0.9571 0.48258 0.0
H540 H 0.77818 0.53185 0.72364 0.0
H541 H 0.87258 0.59329 0.73631 0.0
H542 H 0.79013 0.49898 0.76401 0.0
H543 H 0.88412 0.56079 0.77658 0.0
H544 H 0.8686 0.52853 0.86208 0.0
H545 H 0.85498 0.55757 0.82093 0.0
H546 H 0.83526 0.45636 0.78493 0.0
H547 H 0.84874 0.42725 0.82675 0.0
C548 C 0.80168 0.53813 0.73479 0.0
C549 C 0.82438 0.56534 0.72652 0.0
C550 C 0.80852 0.51923 0.75796 0.0
C551 C 0.83788 0.52746 0.77375 0.0
C552 C 0.861 0.55404 0.76513 0.0
C553 C 0.8545 0.5725 0.74182 0.0
C554 C 0.86016 0.51245 0.84589 0.0
C555 C 0.85865 0.4756 0.84822 0.0
C556 C 0.85307 0.5291 0.82193 0.0
C557 C 0.84403 0.50938 0.79949 0.0
C558 C 0.84186 0.47245 0.80183 0.0
C559 C 0.84957 0.45578 0.8258 0.0
H560 H 0.79164 0.99033 0.06872 0.0
H561 H 0.8217 0.88072 0.07378 0.0
H562 H 0.76072 0.97821 0.02755 0.0
H563 H 0.79066 0.86867 0.03273 0.0
H564 H 0.70087 0.85388 0.97296 0.0
H565 H 0.73019 0.86696 1.01439 0.0
H566 H 0.77497 0.96107 0.98066 0.0
H567 H 0.74533 0.94777 0.93882 0.0
C568 C 0.79117 0.9635 0.06136 0.0
C569 C 0.80901 0.93645 0.07488 0.0
C570 C 0.7738 0.95667 0.0375 0.0
C571 C 0.77328 0.9225 0.02662 0.0
C572 C 0.79026 0.89528 0.04052 0.0
C573 C 0.80806 0.90219 0.06416 0.0
C574 C 0.71696 0.87742 0.97429 0.0
C575 C 0.7208 0.89973 0.95248 0.0
C576 C 0.73396 0.88481 0.99809 0.0
C577 C 0.75507 0.91505 1.00101 0.0
C578 C 0.75872 0.93767 0.97923 0.0
C579 C 0.74197 0.92996 0.95518 0.0
H580 H 0.37026 0.59885 0.81527 0.0
H581 H 0.27986 0.5322 0.82896 0.0
H582 H 0.38278 0.56661 0.77482 0.0
H583 H 0.2927 0.49974 0.78846 0.0
H584 H 0.35217 0.42981 0.72572 0.0
H585 H 0.33846 0.45938 0.76741 0.0
H586 H 0.35453 0.56039 0.73064 0.0
H587 H 0.36851 0.53078 0.68952 0.0
C588 C 0.35329 0.57702 0.80992 0.0
C589 C 0.32401 0.56824 0.82559 0.0
C590 C 0.36031 0.5587 0.7865 0.0
C591 C 0.33859 0.53071 0.77816 0.0
C592 C 0.31006 0.52106 0.79427 0.0
C593 C 0.30269 0.53974 0.81753 0.0
C594 C 0.35219 0.45836 0.72648 0.0
C595 C 0.3603 0.47795 0.70386 0.0
C596 C 0.34433 0.47532 0.75038 0.0
C597 C 0.34533 0.51235 0.75249 0.0
C598 C 0.35352 0.53185 0.72985 0.0
C599 C 0.36079 0.51488 0.70593 0.0
H600 H 0.76502 0.06466 0.43721 0.0
H601 H 0.80871 0.15771 0.47369 0.0
H602 H 0.73446 0.05041 0.47852 0.0
H603 H 0.77862 0.14371 0.51442 0.0
H604 H 0.68739 0.12988 0.57293 0.0
H605 H 0.71796 0.14197 0.53183 0.0
H606 H 0.74775 0.03243 0.52571 0.0
H607 H 0.71718 0.02025 0.56702 0.0
C608 C 0.76797 0.08211 0.45392 0.0
C609 C 0.78923 0.11238 0.45205 0.0
C610 C 0.75071 0.07385 0.47767 0.0
C611 C 0.75393 0.09598 0.49991 0.0
C612 C 0.77511 0.12624 0.49777 0.0
C613 C 0.79257 0.13416 0.47434 0.0
C614 C 0.70081 0.10838 0.56308 0.0
C615 C 0.70002 0.07414 0.57363 0.0
C616 C 0.71836 0.11532 0.5394 0.0
C617 C 0.73529 0.08817 0.52526 0.0
C618 C 0.73473 0.05393 0.53586 0.0
C619 C 0.71757 0.04706 0.55979 0.0
H620 H 0.13912 0.42719 0.31882 0.0
H621 H 0.23094 0.4917 0.33363 0.0
H622 H 0.12819 0.45924 0.27839 0.0
H623 H 0.21956 0.52411 0.29294 0.0
H624 H 0.16133 0.59154 0.22662 0.0
H625 H 0.1741 0.56471 0.26946 0.0
H626 H 0.1602 0.46139 0.23531 0.0
H627 H 0.14709 0.4882 0.19335 0.0
C628 C 0.15672 0.44859 0.31378 0.0
C629 C 0.18607 0.4566 0.32967 0.0
C630 C 0.15057 0.46682 0.29036 0.0
C631 C 0.17329 0.49392 0.28215 0.0
C632 C 0.20155 0.50336 0.29866 0.0
C633 C 0.20802 0.48476 0.32204 0.0
C634 C 0.16174 0.56306 0.22823 0.0
C635 C 0.15446 0.54193 0.2061 0.0
C636 C 0.16902 0.54771 0.25277 0.0
C637 C 0.16813 0.51084 0.25591 0.0
C638 C 0.16107 0.48986 0.23371 0.0
C639 C 0.15437 0.50522 0.20926 0.0
H640 H 0.73809 0.61801 0.61118 0.0
H641 H 0.84052 0.60428 0.57644 0.0
H642 H 0.71017 0.60452 0.56935 0.0
H643 H 0.81268 0.5912 0.534 0.0
H644 H 0.74166 0.5344 0.46971 0.0
H645 H 0.77347 0.54599 0.51073 0.0
H646 H 0.70546 0.63487 0.5262 0.0
H647 H 0.67397 0.62368 0.48543 0.0
C648 C 0.75465 0.61087 0.59492 0.0
C649 C 0.79147 0.61102 0.59757 0.0
C650 C 0.73867 0.60392 0.57061 0.0
C651 C 0.75911 0.59679 0.54815 0.0
C652 C 0.79606 0.59627 0.55087 0.0
C653 C 0.81201 0.60377 0.57519 0.0
C654 C 0.73385 0.55679 0.48161 0.0
C655 C 0.7051 0.57803 0.47404 0.0
C656 C 0.7521 0.56339 0.50519 0.0
C657 C 0.74174 0.59107 0.52202 0.0
C658 C 0.7138 0.61294 0.51401 0.0
C659 C 0.69592 0.60667 0.49037 0.0
H660 H 0.15501 0.98448 0.86797 0.0
H661 H 0.15749 0.08406 0.82769 0.0
H662 H 0.16988 0.9539 0.82695 0.0
H663 H 0.17278 0.05372 0.7867 0.0
H664 H 0.2348 0.98381 0.72507 0.0
H665 H 0.22324 0.0155 0.76626 0.0
H666 H 0.13691 0.94502 0.78272 0.0
H667 H 0.14779 0.91391 0.74148 0.0
C668 C 0.15979 0.99992 0.85059 0.0
C669 C 0.15584 0.03675 0.85128 0.0
C670 C 0.16777 0.98239 0.82693 0.0
C671 C 0.17259 1.00135 0.80346 0.0
C672 C 0.16958 0.0383 0.80439 0.0
C673 C 0.1608 0.05568 0.82788 0.0
C674 C 0.21308 0.97533 0.7373 0.0
C675 C 0.19207 0.94642 0.72968 0.0
C676 C 0.2065 0.99347 0.76096 0.0
C677 C 0.17933 0.98264 0.77796 0.0
C678 C 0.15828 0.95386 0.77028 0.0
C679 C 0.16432 0.93626 0.74641 0.0
H680 H 0.67978 0.40572 0.076 0.0
H681 H 0.77966 0.40355 0.11613 0.0
H682 H 0.70981 0.42132 0.03501 0.0
H683 H 0.80987 0.41872 0.07523 0.0
H684 H 0.84971 0.39742 0.98996 0.0
H685 H 0.81821 0.38565 0.03074 0.0
H686 H 0.74834 0.47288 1.01529 0.0
H687 H 0.78047 0.48537 0.97454 0.0
C688 C 0.70815 0.40911 0.07615 0.0
C689 C 0.72728 0.40424 0.09951 0.0
C690 C 0.72533 0.41807 0.05268 0.0
C691 C 0.76226 0.42133 0.05179 0.0
C692 C 0.78139 0.41646 0.0752 0.0
C693 C 0.76407 0.40831 0.09879 0.0
C694 C 0.82742 0.41398 0.995 0.0
C695 C 0.81759 0.44228 0.97872 0.0
C696 C 0.80958 0.40739 1.01859 0.0
C697 C 0.78088 0.42843 0.02641 0.0
C698 C 0.77031 0.45613 1.00983 0.0
C699 C 0.78871 0.46326 0.98645 0.0
H700 H 0.2709 0.04899 0.23586 0.0
H701 H 0.3795 0.08243 0.23055 0.0
H702 H 0.28411 0.01809 0.27669 0.0
H703 H 0.39264 0.05136 0.27131 0.0
H704 H 0.40993 0.95848 0.32809 0.0
H705 H 0.39599 0.98999 0.28788 0.0
H706 H 0.30144 0.0312 0.3238 0.0
H707 H 0.31561 0.99929 0.36446 0.0
C708 C 0.29772 0.04944 0.24316 0.0
C709 C 0.32419 0.06807 0.22961 0.0
C710 C 0.30517 0.03202 0.26681 0.0
C711 C 0.3394 0.03229 0.27745 0.0
C712 C 0.366 0.05037 0.26367 0.0
C713 C 0.35847 0.0682 0.24022 0.0
C714 C 0.38614 0.9743 0.32752 0.0
C715 C 0.36392 0.97642 0.34957 0.0
C716 C 0.37827 0.99257 0.30443 0.0
C717 C 0.34763 0.01326 0.30249 0.0
C718 C 0.32517 0.01533 0.32453 0.0
C719 C 0.33338 0.99731 0.3479 0.0
H720 H 0.32639 0.38673 0.57576 0.0
H721 H 0.30205 0.49709 0.56538 0.0
H722 H 0.29495 0.37281 0.5353 0.0
H723 H 0.27039 0.48304 0.52495 0.0
H724 H 0.25051 0.44744 0.43849 0.0
H725 H 0.28133 0.46263 0.47943 0.0
H726 H 0.23597 0.37118 0.51666 0.0
H727 H 0.2059 0.35598 0.47597 0.0
C728 C 0.31399 0.40803 0.56509 0.0
C729 C 0.31676 0.44306 0.57412 0.0
C730 C 0.29587 0.40002 0.54179 0.0
C731 C 0.28015 0.42679 0.52663 0.0
C732 C 0.2825 0.46176 0.53583 0.0
C733 C 0.30038 0.46975 0.55927 0.0
C734 C 0.24738 0.43055 0.4554 0.0
C735 C 0.22594 0.40039 0.45387 0.0
C736 C 0.26477 0.43938 0.47896 0.0
C737 C 0.26131 0.41808 0.50148 0.0
C738 C 0.23974 0.38799 0.49977 0.0
C739 C 0.22227 0.37939 0.47639 0.0
H740 H 0.86341 0.92459 0.22562 0.0
H741 H 0.85919 0.02413 0.18544 0.0
H742 H 0.85052 0.95447 0.26727 0.0
H743 H 0.84625 0.05421 0.22692 0.0
H744 H 0.86875 0.09828 0.30989 0.0
H745 H 0.87965 0.06648 0.26905 0.0
H746 H 0.80147 0.98918 0.29038 0.0
H747 H 0.79004 0.02135 0.33134 0.0
C748 C 0.85917 0.95285 0.22561 0.0
C749 C 0.86139 0.9719 0.20204 0.0
C750 C 0.85173 0.96996 0.24949 0.0
C751 C 0.84727 1.00679 0.25055 0.0
C752 C 0.84955 0.02583 0.2269 0.0
C753 C 0.85632 0.00856 0.20297 0.0
C754 C 0.8541 0.07426 0.30618 0.0
C755 C 0.82857 0.06241 0.32419 0.0
C756 C 0.86013 0.05622 0.28251 0.0
C757 C 0.84125 0.0254 0.27622 0.0
C758 C 0.81656 0.01279 0.29458 0.0
C759 C 0.81004 0.03123 0.31811 0.0
H760 H 0.16756 0.61986 0.06525 0.0
H761 H 0.2387 0.53412 0.08275 0.0
H762 H 0.19981 0.63149 1.02483 0.0
H763 H 0.27123 0.54616 0.04224 0.0
H764 H 0.33795 0.60679 0.97775 0.0
H765 H 0.30919 0.59367 1.01975 0.0
H766 H 0.20761 0.59917 0.9819 0.0
H767 H 0.2364 0.61246 0.94053 0.0
C768 C 0.19041 0.6038 0.06077 0.0
C769 C 0.20041 0.57601 0.07746 0.0
C770 C 0.20873 0.61029 0.03737 0.0
C771 C 0.23794 0.58954 0.03007 0.0
C772 C 0.24891 0.5627 0.04725 0.0
C773 C 0.23022 0.55581 0.07051 0.0
C774 C 0.30949 0.60454 0.97835 0.0
C775 C 0.28951 0.60962 0.95538 0.0
C776 C 0.29301 0.59704 1.00243 0.0
C777 C 0.25601 0.59541 1.00429 0.0
C778 C 0.23614 0.6003 0.98128 0.0
C779 C 0.25269 0.60717 0.95723 0.0
H780 H 0.60599 0.06391 0.72451 0.0
H781 H 0.69686 0.01602 0.68805 0.0
H782 H 0.62002 0.03474 0.76569 0.0
H783 H 0.71123 0.98666 0.72976 0.0
H784 H 0.74288 0.97038 0.81794 0.0
H785 H 0.73054 1.00118 0.77675 0.0
H786 H 0.62053 0.97389 0.78368 0.0
H787 H 0.63282 0.94296 0.8246 0.0
C788 C 0.6291 0.04713 0.72528 0.0
C789 C 0.65026 0.04231 0.70287 0.0
C790 C 0.63705 0.03023 0.74896 0.0
C791 C 0.66675 0.00823 0.7512 0.0
C792 C 0.68827 1.00361 0.72885 0.0
C793 C 0.67995 0.02023 0.70488 0.0
C794 C 0.71594 0.97144 0.81094 0.0
C795 C 0.68881 0.95439 0.8249 0.0
C796 C 0.70896 0.98872 0.78708 0.0
C797 C 0.67455 0.98996 0.7767 0.0
C798 C 0.64732 0.97373 0.79106 0.0
C799 C 0.65437 0.956 0.81463 0.0
H800 H 0.40308 0.25525 0.1887 0.0
H801 H 0.46056 0.16466 0.1603 0.0
H802 H 0.4575 0.28973 0.18931 0.0
H803 H 0.51514 0.19919 0.16069 0.0
H804 H 0.61165 0.26141 0.18958 0.0
H805 H 0.55715 0.22719 0.1906 0.0
H806 H 0.50021 0.31621 0.15919 0.0
H807 H 0.55495 0.35053 0.15837 0.0
C808 C 0.42742 0.24265 0.18266 0.0
C809 C 0.42751 0.20718 0.1745 0.0
C810 C 0.45861 0.26252 0.18282 0.0
C811 C 0.49085 0.24739 0.17498 0.0
C812 C 0.49094 0.21169 0.16712 0.0
C813 C 0.45964 0.19188 0.1668 0.0
C814 C 0.58746 0.27375 0.183 0.0
C815 C 0.58763 0.30873 0.17392 0.0
C816 C 0.55621 0.25401 0.1834 0.0
C817 C 0.52414 0.26876 0.17489 0.0
C818 C 0.52427 0.30401 0.16614 0.0
C819 C 0.55566 0.3237 0.16557 0.0
H820 H 0.60101 0.71051 0.40954 0.0
H821 H 0.51267 0.65272 0.44086 0.0
H822 H 0.56581 0.76474 0.41025 0.0
H823 H 0.47748 0.70675 0.44157 0.0
H824 H 0.41472 0.80257 0.40907 0.0
H825 H 0.44987 0.74829 0.41001 0.0
H826 H 0.53805 0.80659 0.44163 0.0
H827 H 0.50294 0.86062 0.44069 0.0
C828 C 0.57417 0.70946 0.41674 0.0
C829 C 0.55965 0.67738 0.42519 0.0
C830 C 0.55399 0.74053 0.41722 0.0
C831 C 0.51871 0.74014 0.42589 0.0
C832 C 0.50437 0.70798 0.43448 0.0
C833 C 0.52464 0.67706 0.43425 0.0
C834 C 0.44153 0.80367 0.41637 0.0
C835 C 0.45603 0.83584 0.42483 0.0
C836 C 0.46167 0.77259 0.41699 0.0
C837 C 0.49689 0.77304 0.42582 0.0
C838 C 0.51121 0.80529 0.43442 0.0
C839 C 0.49099 0.83623 0.43405 0.0
H840 H 0.9609 0.66417 0.66124 0.0
H841 H 0.90286 0.75388 0.69048 0.0
H842 H 0.01525 0.69895 0.66204 0.0
H843 H 0.95708 0.78853 0.69181 0.0
H844 H 0.05345 0.85149 0.66264 0.0
H845 H 0.99908 0.81673 0.66351 0.0
H846 H 0.058 0.72622 0.69033 0.0
H847 H 0.1122 0.76084 0.68894 0.0
C848 C 0.95983 0.69122 0.6681 0.0
C849 C 0.92757 0.70623 0.6758 0.0
C850 C 0.99103 0.7112 0.66867 0.0
C851 C 0.99077 0.74677 0.67693 0.0
C852 C 0.9584 0.7615 0.68494 0.0
C853 C 0.92729 0.74152 0.68439 0.0
C854 C 0.05467 0.82423 0.66886 0.0
C855 C 0.08714 0.80896 0.67572 0.0
C856 C 0.02347 0.80426 0.66947 0.0
C857 C 0.02393 0.76845 0.67692 0.0
C858 C 0.0565 0.75345 0.68409 0.0
C859 C 0.08762 0.77341 0.6835 0.0
H860 H 1.00366 0.36241 0.93594 0.0
H861 H 0.9115 0.30383 0.91217 0.0
H862 H 0.03809 0.30802 0.93673 0.0
H863 H 0.94604 0.24922 0.91257 0.0
H864 H 0.0102 0.15354 0.94027 0.0
H865 H 0.97565 0.20789 0.94126 0.0
H866 H 0.06342 0.26438 0.90756 0.0
H867 H 0.09809 0.20988 0.90695 0.0
C868 C 0.9907 0.33783 0.93093 0.0
C869 C 0.95479 0.33746 0.92403 0.0
C870 C 0.01056 0.30661 0.93118 0.0
C871 C 0.99505 0.27403 0.92459 0.0
C872 C 0.9589 0.27366 0.91803 0.0
C873 C 0.93905 0.30499 0.9177 0.0
C874 C 0.02218 0.17761 0.93318 0.0
C875 C 0.05695 0.17739 0.92358 0.0
C876 C 1.00224 0.20879 0.93356 0.0
C877 C 0.01654 0.24073 0.92442 0.0
C878 C 0.05155 0.24049 0.91505 0.0
C879 C 0.07145 0.2092 0.91458 0.0
H880 H 0.55205 0.85251 0.89326 0.0
H881 H 0.60557 0.76643 0.85466 0.0
H882 H 0.49746 0.81808 0.89376 0.0
H883 H 0.55106 0.73206 0.85487 0.0
H884 H 0.45799 0.66647 0.88736 0.0
H885 H 0.51232 0.70121 0.88509 0.0
H886 H 0.4514 0.79385 0.86588 0.0
H887 H 0.39725 0.75914 0.86844 0.0
C888 C 0.55205 0.82636 0.88464 0.0
C889 C 0.58315 0.81227 0.87388 0.0
C890 C 0.5207 0.80659 0.88484 0.0
C891 C 0.51967 0.77208 0.87443 0.0
C892 C 0.55082 0.75826 0.8634 0.0
C893 C 0.58206 0.7781 0.86308 0.0
C894 C 0.45627 0.69421 0.88254 0.0
C895 C 0.42329 0.71 0.87809 0.0
C896 C 0.48745 0.71417 0.88112 0.0
C897 C 0.48645 0.75052 0.87535 0.0
C898 C 0.45333 0.76613 0.87072 0.0
C899 C 0.42223 0.74614 0.87201 0.0
H900 H 0.50458 0.36433 0.61573 0.0
H901 H 0.41278 0.3047 0.63844 0.0
H902 H 0.53939 0.31021 0.61415 0.0
H903 H 0.44772 0.25029 0.63713 0.0
H904 H 0.51294 0.15582 0.60761 0.0
H905 H 0.47802 0.20998 0.60726 0.0
H906 H 0.56461 0.26616 0.64322 0.0
H907 H 0.59962 0.21186 0.64329 0.0
C908 C 0.49179 0.33958 0.62033 0.0
C909 C 0.45587 0.33883 0.62719 0.0
C910 C 0.51185 0.30851 0.61961 0.0
C911 C 0.49656 0.27571 0.62562 0.0
C912 C 0.4604 0.27495 0.63213 0.0
C913 C 0.44034 0.30614 0.63298 0.0
C914 C 0.52461 0.1798 0.61529 0.0
C915 C 0.55912 0.17955 0.62542 0.0
C916 C 0.50445 0.21085 0.61529 0.0
C917 C 0.5183 0.24261 0.62529 0.0
C918 C 0.5531 0.24238 0.63509 0.0
C919 C 0.5732 0.21123 0.63522 0.0
H920 H 0.11088 0.26342 0.35992 0.0
H921 H 0.05362 0.35072 0.39381 0.0
H922 H 0.05693 0.22822 0.35918 0.0
H923 H 0.99943 0.31548 0.39309 0.0
H924 H 0.90307 0.25334 0.36252 0.0
H925 H 0.95693 0.28866 0.36184 0.0
H926 H 0.01609 0.19942 0.39048 0.0
H927 H 0.96199 0.16405 0.39114 0.0
C928 C 0.08667 0.27516 0.3671 0.0
C929 C 0.08649 0.30989 0.37689 0.0
C930 C 0.05578 0.25487 0.36686 0.0
C931 C 0.02378 0.26888 0.37616 0.0
C932 C 0.02352 0.3039 0.38557 0.0
C933 C 0.05456 0.3241 0.38606 0.0
C934 C 0.92761 0.2412 0.36857 0.0
C935 C 0.92829 0.20587 0.37685 0.0
C936 C 0.95846 0.26155 0.36835 0.0
C937 C 0.99092 0.247 0.37618 0.0
C938 C 0.99164 0.21142 0.38411 0.0
C939 C 0.96065 0.19115 0.38457 0.0
H940 H 0.09796 0.70744 0.13798 0.0
H941 H 1.00649 0.64644 0.1162 0.0
H942 H 0.06262 0.76144 0.13652 0.0
H943 H 0.97115 0.70032 0.11446 0.0
H944 H 0.91103 0.79973 0.14338 0.0
H945 H 0.94587 0.74527 0.14318 0.0
H946 H 0.03213 0.80068 0.10651 0.0
H947 H 0.99744 0.85493 0.10699 0.0
C948 C 0.07036 0.70561 0.13267 0.0
C949 C 0.05507 0.67266 0.12718 0.0
C950 C 0.05006 0.73659 0.13174 0.0
C951 C 0.01386 0.73541 0.12541 0.0
C952 C 0.99874 0.70234 0.11974 0.0
C953 C 0.01909 0.67142 0.12054 0.0
C954 C 0.93734 0.80014 0.13513 0.0
C955 C 0.95144 0.83164 0.12519 0.0
C956 C 0.95733 0.7689 0.13492 0.0
C957 C 0.99201 0.76843 0.12492 0.0
C958 C 1.00581 0.8 0.11472 0.0
C959 C 0.98578 0.8311 0.1148 0.0
H960 H 0.20207 0.22036 0.14839 0.0
H961 H 0.30375 0.25197 0.11849 0.0
H962 H 0.18138 0.28131 0.1451 0.0
H963 H 0.2827 0.31279 0.1147 0.0
H964 H 0.21244 0.41215 0.09308 0.0
H965 H 0.23237 0.35066 0.09087 0.0
H966 H 0.20497 0.33701 0.17235 0.0
H967 H 0.18581 0.39865 0.17475 0.0
C968 C 0.21958 0.24005 0.14024 0.0
C969 C 0.25449 0.23144 0.13362 0.0
C970 C 0.20788 0.27496 0.13869 0.0
C971 C 0.23065 0.30167 0.12997 0.0
C972 C 0.26469 0.29264 0.12151 0.0
C973 C 0.27664 0.25787 0.12358 0.0
C974 C 0.21115 0.39608 0.11058 0.0
C975 C 0.19776 0.41006 0.13411 0.0
C976 C 0.22241 0.36098 0.10927 0.0
C977 C 0.21971 0.33911 0.13133 0.0
C978 C 0.20683 0.35327 0.15498 0.0
C979 C 0.19624 0.38855 0.15642 0.0
H980 H 0.38016 0.38905 0.36489 0.0
H981 H 0.34619 0.47679 0.41279 0.0
H982 H 0.43977 0.41293 0.36375 0.0
H983 H 0.40622 0.50044 0.41226 0.0
H984 H 0.50608 0.55277 0.38482 0.0
H985 H 0.44715 0.52774 0.38223 0.0
H986 H 0.49094 0.4232 0.39082 0.0
H987 H 0.55015 0.44828 0.39289 0.0
C988 C 0.38558 0.41334 0.37539 0.0
C989 C 0.35859 0.43115 0.3889 0.0
C990 C 0.41979 0.42695 0.37481 0.0
C991 C 0.42783 0.45871 0.38777 0.0
C992 C 0.40082 0.47624 0.40165 0.0
C993 C 0.36651 0.46261 0.40218 0.0
C994 C 0.50324 0.52437 0.38571 0.0
C995 C 0.53285 0.50253 0.38916 0.0
C996 C 0.46936 0.51006 0.38453 0.0
C997 C 0.46418 0.47352 0.38684 0.0
C998 C 0.49395 0.45147 0.38889 0.0
C999 C 0.52795 0.46582 0.38998 0.0
H1000 H 0.31046 0.79963 0.62531 0.0
H1001 H 0.20632 0.75533 0.63555 0.0
H1002 H 0.33461 0.74 0.62071 0.0
H1003 H 0.23058 0.69629 0.63134 0.0
H1004 H 0.29657 0.60268 0.66402 0.0
H1005 H 0.27142 0.66216 0.66221 0.0
H1006 H 0.33144 0.68355 0.59211 0.0
H1007 H 0.35626 0.62401 0.59376 0.0
C1008 C 0.29261 0.77737 0.62596 0.0
C1009 C 0.25651 0.78236 0.63107 0.0
C1010 C 0.30646 0.74323 0.62344 0.0
C1011 C 0.28451 0.71356 0.62621 0.0
C1012 C 0.2482 0.71866 0.62967 0.0
C1013 C 0.23433 0.7526 0.63188 0.0
C1014 C 0.30417 0.62005 0.64818 0.0
C1015 C 0.32819 0.60879 0.629 0.0
C1016 C 0.28974 0.65399 0.64706 0.0
C1017 C 0.29945 0.6774 0.62695 0.0
C1018 C 0.32364 0.66612 0.60786 0.0
C1019 C 0.33766 0.63203 0.60877 0.0
H1020 H 0.00812 0.45541 0.88463 0.0
H1021 H 0.96624 0.5609 0.87623 0.0
H1022 H 0.06765 0.47823 0.88045 0.0
H1023 H 0.02645 0.58357 0.87147 0.0
H1024 H 0.1432 0.60097 0.84345 0.0
H1025 H 0.08305 0.57769 0.84163 0.0
H1026 H 0.10228 0.51903 0.91262 0.0
H1027 H 0.16231 0.54283 0.91472 0.0
C1028 C 0.01147 0.48342 0.88136 0.0
C1029 C 0.98227 0.50641 0.8811 0.0
C1030 C 0.04569 0.49644 0.87912 0.0
C1031 C 0.05162 0.53266 0.87612 0.0
C1032 C 0.02251 0.55547 0.87385 0.0
C1033 C 0.98807 0.54247 0.87645 0.0
C1034 C 0.1346 0.58295 0.85859 0.0
C1035 C 0.15736 0.57353 0.8792 0.0
C1036 C 0.10017 0.56985 0.85759 0.0
C1037 C 0.08811 0.54657 0.87693 0.0
C1038 C 0.11108 0.53673 0.89733 0.0
C1039 C 0.14533 0.55033 0.89858 0.0
H1040 H 0.80842 0.79886 0.92031 0.0
H1041 H 0.70528 0.75362 0.90694 0.0
H1042 H 0.83266 0.73945 0.92614 0.0
H1043 H 0.72955 0.69488 0.91253 0.0
H1044 H 0.79641 0.59956 0.88486 0.0
H1045 H 0.77149 0.65911 0.88442 0.0
H1046 H 0.82855 0.68447 0.95534 0.0
H1047 H 0.85326 0.62479 0.95586 0.0
C1048 C 0.79082 0.77643 0.91908 0.0
C1049 C 0.75499 0.78108 0.91287 0.0
C1050 C 0.80471 0.74243 0.92238 0.0
C1051 C 0.78305 0.71256 0.91933 0.0
C1052 C 0.74698 0.71737 0.91447 0.0
C1053 C 0.73309 0.75116 0.91142 0.0
C1054 C 0.8034 0.61781 0.90042 0.0
C1055 C 0.82658 0.6076 0.92044 0.0
C1056 C 0.78911 0.65181 0.90023 0.0
C1057 C 0.79805 0.67639 0.9199 0.0
C1058 C 0.82137 0.66616 0.93987 0.0
C1059 C 0.8353 0.63199 0.94024 0.0
H1060 H 0.64464 0.60205 0.70861 0.0
H1061 H 0.66284 0.54788 0.63521 0.0
H1062 H 0.58454 0.57862 0.71001 0.0
H1063 H 0.60284 0.52389 0.63688 0.0
H1064 H 0.51007 0.45768 0.66434 0.0
H1065 H 0.56941 0.48109 0.66819 0.0
H1066 H 0.52721 0.58542 0.68097 0.0
H1067 H 0.46715 0.56218 0.67655 0.0
C1068 C 0.63582 0.58492 0.69287 0.0
C1069 C 0.65833 0.5766 0.67182 0.0
C1070 C 0.60143 0.57172 0.69364 0.0
C1071 C 0.58916 0.54944 0.67362 0.0
C1072 C 0.61182 0.54082 0.65269 0.0
C1073 C 0.64604 0.55454 0.65168 0.0
C1074 C 0.51316 0.48558 0.66836 0.0
C1075 C 0.48369 0.50814 0.66981 0.0
C1076 C 0.54728 0.49894 0.67039 0.0
C1077 C 0.55284 0.53508 0.67438 0.0
C1078 C 0.52354 0.5574 0.67778 0.0
C1079 C 0.48919 0.54407 0.67538 0.0
H1080 H 0.69946 0.21425 0.4082 0.0
H1081 H 0.80384 0.25781 0.41841 0.0
H1082 H 0.67453 0.27353 0.41022 0.0
H1083 H 0.77893 0.31685 0.42091 0.0
H1084 H 0.7288 0.41819 0.38982 0.0
H1085 H 0.75247 0.3581 0.39058 0.0
H1086 H 0.66371 0.32453 0.4374 0.0
H1087 H 0.63985 0.38414 0.43603 0.0
C1088 C 0.717 0.23634 0.4116 0.0
C1089 C 0.75365 0.23127 0.41303 0.0
C1090 C 0.70273 0.27039 0.41264 0.0
C1091 C 0.7248 0.30007 0.41525 0.0
C1092 C 0.76125 0.29471 0.4182 0.0
C1093 C 0.77548 0.26077 0.41707 0.0
C1094 C 0.71435 0.39784 0.4001 0.0
C1095 C 0.68254 0.40575 0.41283 0.0
C1096 C 0.728 0.36351 0.40077 0.0
C1097 C 0.7101 0.33648 0.41424 0.0
C1098 C 0.67802 0.34452 0.42666 0.0
C1099 C 0.66441 0.37874 0.42594 0.0
H1100 H 0.88314 0.38289 0.18769 0.0
H1101 H 0.84887 0.4765 0.14706 0.0
H1102 H 0.94279 0.40656 0.19053 0.0
H1103 H 0.90885 0.49991 0.14911 0.0
H1104 H 0.00936 0.54866 0.17697 0.0
H1105 H 0.95049 0.52345 0.17993 0.0
H1106 H 0.99356 0.41993 0.16434 0.0
H1107 H 0.05267 0.44517 0.1621 0.0
C1108 C 0.88851 0.40845 0.17914 0.0
C1109 C 0.86144 0.42794 0.16717 0.0
C1110 C 0.92273 0.42196 0.1807 0.0
C1111 C 0.93067 0.45525 0.17022 0.0
C1112 C 0.90355 0.47449 0.15789 0.0
C1113 C 0.86925 0.46101 0.15645 0.0
C1114 C 1.00634 0.52038 0.1748 0.0
C1115 C 0.03563 0.49889 0.16929 0.0
C1116 C 0.97252 0.50599 0.17615 0.0
C1117 C 0.96712 0.46977 0.17181 0.0
C1118 C 0.99673 0.44792 0.16789 0.0
C1119 C 0.03068 0.46234 0.16674 0.0
H1120 H 0.80422 0.76195 0.64754 0.0
H1121 H 0.70503 0.71685 0.62255 0.0
H1122 H 0.77886 0.81974 0.64706 0.0
H1123 H 0.6799 0.77615 0.61984 0.0
H1124 H 0.63325 0.88127 0.6477 0.0
H1125 H 0.65825 0.82207 0.64479 0.0
H1126 H 0.75971 0.86747 0.62551 0.0
H1127 H 0.73506 0.92618 0.63075 0.0
C1128 C 0.77711 0.76437 0.6411 0.0
C1129 C 0.75666 0.73437 0.63523 0.0
C1130 C 0.76247 0.79802 0.64063 0.0
C1131 C 0.72706 0.80323 0.63349 0.0
C1132 C 0.70703 0.77338 0.62608 0.0
C1133 C 0.72158 0.7393 0.62718 0.0
C1134 C 0.66104 0.87833 0.64327 0.0
C1135 C 0.68242 0.90817 0.63993 0.0
C1136 C 0.67535 0.84436 0.64116 0.0
C1137 C 0.71123 0.83945 0.6349 0.0
C1138 C 0.73228 0.8697 0.6311 0.0
C1139 C 0.71818 0.90357 0.63401 0.0
H1140 H 0.87888 0.88561 0.86987 0.0
H1141 H 0.84373 0.97798 0.91213 0.0
H1142 H 0.93834 0.90951 0.86788 0.0
H1143 H 0.90376 1.00168 0.91091 0.0
H1144 H 0.0482 0.94721 0.89506 0.0
H1145 H 0.989 0.92234 0.89393 0.0
H1146 H 0.9457 0.02621 0.88072 0.0
H1147 H 1.00477 0.05114 0.88249 0.0
C1148 C 0.88402 0.91092 0.87904 0.0
C1149 C 0.8567 0.92997 0.89118 0.0
C1150 C 0.91819 0.92458 0.87796 0.0
C1151 C 0.92596 0.95763 0.8891 0.0
C1152 C 0.89863 0.97643 0.90168 0.0
C1153 C 0.86431 0.96276 0.90265 0.0
C1154 C 0.02615 0.96464 0.8913 0.0
C1155 C 0.03129 1.0012 0.88894 0.0
C1156 C 0.99209 0.95039 0.89076 0.0
C1157 C 0.9624 0.97233 0.88769 0.0
C1158 C 0.96781 0.00862 0.88382 0.0
C1159 C 1.00178 0.02286 0.88449 0.0
H1160 H 0.78572 0.09309 0.15782 0.0
H1161 H 0.87721 0.12814 0.11492 0.0
H1162 H 0.76196 0.15302 0.15697 0.0
H1163 H 0.85313 0.18765 0.11317 0.0
H1164 H 0.81669 0.2972 0.14234 0.0
H1165 H 0.84127 0.23797 0.13965 0.0
H1166 H 0.73668 0.19545 0.12799 0.0
H1167 H 0.71205 0.25456 0.13149 0.0
C1168 C 0.80066 0.11364 0.14818 0.0
C1169 C 0.83328 0.10607 0.13652 0.0
C1170 C 0.78696 0.14791 0.14743 0.0
C1171 C 0.8055 0.17525 0.13482 0.0
C1172 C 0.83829 0.16748 0.1233 0.0
C1173 C 0.85205 0.13332 0.12423 0.0
C1174 C 0.79901 0.27532 0.13863 0.0
C1175 C 0.76239 0.28062 0.13728 0.0
C1176 C 0.81311 0.24125 0.13714 0.0
C1177 C 0.79092 0.21175 0.13405 0.0
C1178 C 0.75448 0.21739 0.1311 0.0
C1179 C 0.74039 0.25138 0.13279 0.0
H1180 H 0.46578 0.06476 0.39245 0.0
H1181 H 0.50928 0.96 0.38394 0.0
H1182 H 0.52498 0.08959 0.38965 0.0
H1183 H 0.56823 0.98481 0.38062 0.0
H1184 H 0.67006 0.03621 0.41002 0.0
H1185 H 0.61012 0.01232 0.40991 0.0
H1186 H 0.57541 0.09958 0.36206 0.0
H1187 H 0.63494 0.12371 0.36281 0.0
C1188 C 0.48783 0.04708 0.3893 0.0
C1189 C 0.48276 0.01038 0.38855 0.0
C1190 C 0.52184 0.06131 0.38778 0.0
C1191 C 0.5515 0.03915 0.38535 0.0
C1192 C 0.54613 1.0026 0.38316 0.0
C1193 C 0.51223 0.9884 0.38477 0.0
C1194 C 0.64951 0.05026 0.39962 0.0
C1195 C 0.65708 0.08177 0.38646 0.0
C1196 C 0.61524 0.03649 0.39934 0.0
C1197 C 0.58791 0.05392 0.38582 0.0
C1198 C 0.59563 0.08564 0.37288 0.0
C1199 C 0.6298 0.0994 0.37323 0.0
H1200 H 0.21097 0.25482 0.41453 0.0
H1201 H 0.31566 0.29916 0.40926 0.0
H1202 H 0.23607 0.19602 0.41803 0.0
H1203 H 0.34083 0.24005 0.41223 0.0
H1204 H 0.37408 0.12987 0.43969 0.0
H1205 H 0.34975 0.18938 0.43994 0.0
H1206 H 0.26524 0.15473 0.38911 0.0
H1207 H 0.28929 0.09485 0.38947 0.0
C1208 C 0.23941 0.25207 0.41439 0.0
C1209 C 0.26131 0.28172 0.41149 0.0
C1210 C 0.25378 0.21826 0.41613 0.0
C1211 C 0.29044 0.21318 0.41492 0.0
C1212 C 0.31247 0.24299 0.41332 0.0
C1213 C 0.29805 0.27693 0.41168 0.0
C1214 C 0.35034 0.13503 0.42851 0.0
C1215 C 0.33348 0.1078 0.41458 0.0
C1216 C 0.33648 0.16918 0.42858 0.0
C1217 C 0.30545 0.17688 0.41467 0.0
C1218 C 0.28885 0.1496 0.40043 0.0
C1219 C 0.30271 0.11537 0.40043 0.0
H1220 H 0.0114 0.96196 0.14035 0.0
H1221 H 0.96524 0.0528 0.17857 0.0
H1222 H 0.06908 0.98792 0.14411 0.0
H1223 H 0.0241 0.07833 0.18386 0.0
H1224 H 0.12866 0.13146 0.16141 0.0
H1225 H 0.06974 0.10561 0.16076 0.0
H1226 H 0.11573 1.00201 0.17061 0.0
H1227 H 0.17438 0.02792 0.16948 0.0
C1228 C 0.01362 0.98719 0.15025 0.0
C1229 C 0.98351 1.00522 0.15925 0.0
C1230 C 0.04704 1.00212 0.15254 0.0
C1231 C 0.05169 0.03533 0.16439 0.0
C1232 C 0.02165 0.05298 0.17419 0.0
C1233 C 0.98788 0.03821 0.17145 0.0
C1234 C 0.12599 0.10313 0.16322 0.0
C1235 C 0.15598 0.0816 0.16516 0.0
C1236 C 0.09218 0.08828 0.16318 0.0
C1237 C 0.08762 0.05156 0.16558 0.0
C1238 C 0.11793 0.03024 0.16806 0.0
C1239 C 0.15167 0.04505 0.16753 0.0
H1240 H 0.13477 0.88288 0.94282 0.0
H1241 H 0.22737 0.91626 0.90049 0.0
H1242 H 0.1587 0.82335 0.94602 0.0
H1243 H 0.25105 0.85638 0.90295 0.0
H1244 H 0.30028 0.75594 0.9301 0.0
H1245 H 0.27533 0.81494 0.93353 0.0
H1246 H 0.17129 0.77216 0.91993 0.0
H1247 H 0.19625 0.71299 0.91718 0.0
C1248 C 0.16018 0.87735 0.93401 0.0
C1249 C 0.17927 0.90413 0.9214 0.0
C1250 C 0.17385 0.8432 0.93578 0.0
C1251 C 0.20691 0.835 0.9249 0.0
C1252 C 0.22582 0.86187 0.91203 0.0
C1253 C 0.21217 0.8961 0.91037 0.0
C1254 C 0.27196 0.75903 0.9285 0.0
C1255 C 0.25025 0.72978 0.92333 0.0
C1256 C 0.2577 0.79294 0.93012 0.0
C1257 C 0.22138 0.79849 0.92642 0.0
C1258 C 0.19936 0.76892 0.92297 0.0
C1259 C 0.21364 0.7349 0.92153 0.0
H1260 H 0.37358 0.90948 0.70605 0.0
H1261 H 0.34901 0.96899 0.63635 0.0
H1262 H 0.43332 0.93391 0.70617 0.0
H1263 H 0.40866 0.99367 0.63659 0.0
H1264 H 0.50316 0.05858 0.66087 0.0
H1265 H 0.44432 0.03443 0.66604 0.0
H1266 H 0.48841 0.93051 0.6767 0.0
H1267 H 0.5479 0.95462 0.67124 0.0
C1268 C 0.38094 0.92796 0.69085 0.0
C1269 C 0.35672 0.93752 0.67123 0.0
C1270 C 0.41514 0.94174 0.69086 0.0
C1271 C 0.42557 0.96573 0.67146 0.0
C1272 C 0.40118 0.9755 0.65196 0.0
C1273 C 0.36713 0.96136 0.65176 0.0
C1274 C 0.50057 0.03061 0.66465 0.0
C1275 C 0.53037 0.00846 0.66534 0.0
C1276 C 0.46673 0.0168 0.66745 0.0
C1277 C 0.46177 0.98055 0.6713 0.0
C1278 C 0.49153 0.9586 0.6737 0.0
C1279 C 0.52557 0.97242 0.67065 0.0
loop_
_geom_bond_atom_site_label_1
_geom_bond_atom_site_label_2
_geom_bond_distance
_geom_bond_site_symmetry_2
_ccdc_geom_bond_type
Tb0 O3 2.453 . S
Tb0 O4 2.596 . S
Tb0 O5 2.374 . S
Tb0 O13 2.343 . S
Tb0 O15 2.353 . S
Tb0 O17 2.427 . S
Tb0 O18 2.513 . S
C1 O5 1.251 . S
C1 O7 1.263 . S
Tb2 O4 2.343 . S
Tb2 O7 2.353 . S
Tb2 O10 2.427 . S
Tb2 O11 2.513 . S
Tb2 O12 2.453 . S
Tb2 O13 2.596 . S
Tb2 O14 2.374 . S
O3 Tb0 2.453 . S
O3 C19 1.245 . S
O4 Tb0 2.596 . S
O4 Tb2 2.343 . S
O4 C19 1.259 . S
O5 Tb0 2.374 . S
O5 C1 1.251 . S
C6 O10 1.275 . S
C6 O11 1.246 . S
O7 C1 1.263 . S
O7 Tb2 2.353 . S
C8 O12 1.245 . S
C8 O13 1.259 . S
C9 O14 1.250 . S
C9 O15 1.263 . S
O10 Tb2 2.427 . S
O10 C6 1.275 . S
O11 Tb2 2.513 . S
O11 C6 1.246 . S
O12 Tb2 2.453 . S
O12 C8 1.245 . S
O13 Tb0 2.343 . S
O13 Tb2 2.596 . S
O13 C8 1.259 . S
O14 Tb2 2.374 . S
O14 C9 1.250 . S
O15 Tb0 2.353 . S
O15 C9 1.263 . S
C16 O17 1.275 . S
C16 O18 1.246 . S
O17 Tb0 2.427 . S
O17 C16 1.275 . S
O18 Tb0 2.513 . S
O18 C16 1.246 . S
C19 O3 1.245 . S
C19 O4 1.259 . S
Tb20 O23 2.453 . S
Tb20 O24 2.596 . S
Tb20 O25 2.374 . S
Tb20 O33 2.343 . S
Tb20 O35 2.353 . S
Tb20 O37 2.427 . S
Tb20 O38 2.513 . S
C21 O25 1.251 . S
C21 O27 1.263 . S
Tb22 O24 2.343 . S
Tb22 O27 2.353 . S
Tb22 O30 2.427 . S
Tb22 O31 2.513 . S
Tb22 O32 2.453 . S
Tb22 O33 2.596 . S
Tb22 O34 2.374 . S
O23 Tb20 2.453 . S
O23 C39 1.245 . S
O24 Tb20 2.596 . S
O24 Tb22 2.343 . S
O24 C39 1.259 . S
O25 Tb20 2.374 . S
O25 C21 1.251 . S
C26 O30 1.275 . S
C26 O31 1.246 . S
O27 C21 1.263 . S
O27 Tb22 2.353 . S
C28 O32 1.245 . S
C28 O33 1.259 . S
C29 O34 1.250 . S
C29 O35 1.263 . S
O30 Tb22 2.427 . S
O30 C26 1.275 . S
O31 Tb22 2.513 . S
O31 C26 1.246 . S
O32 Tb22 2.453 . S
O32 C28 1.245 . S
O33 Tb20 2.343 . S
O33 Tb22 2.596 . S
O33 C28 1.259 . S
O34 Tb22 2.374 . S
O34 C29 1.250 . S
O35 Tb20 2.353 . S
O35 C29 1.263 . S
C36 O37 1.275 . S
C36 O38 1.246 . S
O37 Tb20 2.427 . S
O37 C36 1.275 . S
O38 Tb20 2.513 . S
O38 C36 1.246 . S
C39 O23 1.245 . S
C39 O24 1.259 . S
Tb40 O43 2.453 . S
Tb40 O44 2.596 . S
Tb40 O45 2.374 . S
Tb40 O53 2.343 . S
Tb40 O55 2.353 . S
Tb40 O57 2.427 . S
Tb40 O58 2.513 . S
C41 O45 1.251 . S
C41 O47 1.263 . S
Tb42 O44 2.343 . S
Tb42 O47 2.353 . S
Tb42 O50 2.427 . S
Tb42 O51 2.513 . S
Tb42 O52 2.453 . S
Tb42 O53 2.596 . S
Tb42 O54 2.374 . S
O43 Tb40 2.453 . S
O43 C59 1.245 . S
O44 Tb40 2.596 . S
O44 Tb42 2.343 . S
O44 C59 1.259 . S
O45 Tb40 2.374 . S
O45 C41 1.251 . S
C46 O50 1.275 . S
C46 O51 1.246 . S
O47 C41 1.263 . S
O47 Tb42 2.353 . S
C48 O52 1.245 . S
C48 O53 1.259 . S
C49 O54 1.250 . S
C49 O55 1.263 . S
O50 Tb42 2.427 . S
O50 C46 1.275 . S
O51 Tb42 2.513 . S
O51 C46 1.246 . S
O52 Tb42 2.453 . S
O52 C48 1.245 . S
O53 Tb40 2.343 . S
O53 Tb42 2.596 . S
O53 C48 1.259 . S
O54 Tb42 2.374 . S
O54 C49 1.250 . S
O55 Tb40 2.353 . S
O55 C49 1.263 . S
C56 O57 1.275 . S
C56 O58 1.246 . S
O57 Tb40 2.427 . S
O57 C56 1.275 . S
O58 Tb40 2.513 . S
O58 C56 1.246 . S
C59 O43 1.245 . S
C59 O44 1.259 . S
Tb60 O63 2.453 . S
Tb60 O64 2.596 . S
Tb60 O65 2.374 . S
Tb60 O73 2.343 . S
Tb60 O75 2.353 . S
Tb60 O77 2.427 . S
Tb60 O78 2.513 . S
C61 O65 1.251 . S
C61 O67 1.263 . S
Tb62 O64 2.343 . S
Tb62 O67 2.353 . S
Tb62 O70 2.427 . S
Tb62 O71 2.513 . S
Tb62 O72 2.453 . S
Tb62 O73 2.596 . S
Tb62 O74 2.374 . S
O63 Tb60 2.453 . S
O63 C79 1.245 . S
O64 Tb60 2.596 . S
O64 Tb62 2.343 . S
O64 C79 1.259 . S
O65 Tb60 2.374 . S
O65 C61 1.251 . S
C66 O70 1.275 . S
C66 O71 1.246 . S
O67 C61 1.263 . S
O67 Tb62 2.353 . S
C68 O72 1.245 . S
C68 O73 1.259 . S
C69 O74 1.250 . S
C69 O75 1.263 . S
O70 Tb62 2.427 . S
O70 C66 1.275 . S
O71 Tb62 2.513 . S
O71 C66 1.246 . S
O72 Tb62 2.453 . S
O72 C68 1.245 . S
O73 Tb60 2.343 . S
O73 Tb62 2.596 . S
O73 C68 1.259 . S
O74 Tb62 2.374 . S
O74 C69 1.250 . S
O75 Tb60 2.353 . S
O75 C69 1.263 . S
C76 O77 1.275 . S
C76 O78 1.246 . S
O77 Tb60 2.427 . S
O77 C76 1.275 . S
O78 Tb60 2.513 . S
O78 C76 1.246 . S
C79 O63 1.245 . S
C79 O64 1.259 . S
Tb80 O83 2.453 . S
Tb80 O84 2.596 . S
Tb80 O85 2.374 . S
Tb80 O93 2.343 . S
Tb80 O95 2.353 . S
Tb80 O97 2.427 . S
Tb80 O98 2.513 . S
C81 O85 1.251 . S
C81 O87 1.263 . S
Tb82 O84 2.343 . S
Tb82 O87 2.353 . S
Tb82 O90 2.427 . S
Tb82 O91 2.513 . S
Tb82 O92 2.453 . S
Tb82 O93 2.596 . S
Tb82 O94 2.374 . S
O83 Tb80 2.453 . S
O83 C99 1.245 . S
O84 Tb80 2.596 . S
O84 Tb82 2.343 . S
O84 C99 1.259 . S
O85 Tb80 2.374 . S
O85 C81 1.251 . S
C86 O90 1.275 . S
C86 O91 1.246 . S
O87 C81 1.263 . S
O87 Tb82 2.353 . S
C88 O92 1.245 . S
C88 O93 1.259 . S
C89 O94 1.250 . S
C89 O95 1.263 . S
O90 Tb82 2.427 . S
O90 C86 1.275 . S
O91 Tb82 2.513 . S
O91 C86 1.246 . S
O92 Tb82 2.453 . S
O92 C88 1.245 . S
O93 Tb80 2.343 . S
O93 Tb82 2.596 . S
O93 C88 1.259 . S
O94 Tb82 2.374 . S
O94 C89 1.250 . S
O95 Tb80 2.353 . S
O95 C89 1.263 . S
C96 O97 1.275 . S
C96 O98 1.246 . S
O97 Tb80 2.427 . S
O97 C96 1.275 . S
O98 Tb80 2.513 . S
O98 C96 1.246 . S
C99 O83 1.245 . S
C99 O84 1.259 . S
Tb100 O103 2.453 . S
Tb100 O104 2.596 . S
Tb100 O105 2.374 . S
Tb100 O113 2.343 . S
Tb100 O115 2.353 . S
Tb100 O117 2.427 . S
Tb100 O118 2.513 . S
C101 O105 1.251 . S
C101 O107 1.263 . S
Tb102 O104 2.343 . S
Tb102 O107 2.353 . S
Tb102 O110 2.427 . S
Tb102 O111 2.513 . S
Tb102 O112 2.453 . S
Tb102 O113 2.596 . S
Tb102 O114 2.374 . S
O103 Tb100 2.453 . S
O103 C119 1.245 . S
O104 Tb100 2.596 . S
O104 Tb102 2.343 . S
O104 C119 1.259 . S
O105 Tb100 2.374 . S
O105 C101 1.251 . S
C106 O110 1.275 . S
C106 O111 1.246 . S
O107 C101 1.263 . S
O107 Tb102 2.353 . S
C108 O112 1.245 . S
C108 O113 1.259 . S
C109 O114 1.250 . S
C109 O115 1.263 . S
O110 Tb102 2.427 . S
O110 C106 1.275 . S
O111 Tb102 2.513 . S
O111 C106 1.246 . S
O112 Tb102 2.453 . S
O112 C108 1.245 . S
O113 Tb100 2.343 . S
O113 Tb102 2.596 . S
O113 C108 1.259 . S
O114 Tb102 2.374 . S
O114 C109 1.250 . S
O115 Tb100 2.353 . S
O115 C109 1.263 . S
C116 O117 1.275 . S
C116 O118 1.246 . S
O117 Tb100 2.427 . S
O117 C116 1.275 . S
O118 Tb100 2.513 . S
O118 C116 1.246 . S
C119 O103 1.245 . S
C119 O104 1.259 . S
Tb120 O123 2.453 . S
Tb120 O124 2.596 . S
Tb120 O125 2.374 . S
Tb120 O133 2.343 . S
Tb120 O135 2.353 . S
Tb120 O137 2.427 . S
Tb120 O138 2.513 . S
C121 O125 1.251 . S
C121 O127 1.263 . S
Tb122 O124 2.343 . S
Tb122 O127 2.353 . S
Tb122 O130 2.427 . S
Tb122 O131 2.513 . S
Tb122 O132 2.453 . S
Tb122 O133 2.596 . S
Tb122 O134 2.374 . S
O123 Tb120 2.453 . S
O123 C139 1.245 . S
O124 Tb120 2.596 . S
O124 Tb122 2.343 . S
O124 C139 1.259 . S
O125 Tb120 2.374 . S
O125 C121 1.251 . S
C126 O130 1.275 . S
C126 O131 1.246 . S
O127 C121 1.263 . S
O127 Tb122 2.353 . S
C128 O132 1.245 . S
C128 O133 1.259 . S
C129 O134 1.250 . S
C129 O135 1.263 . S
O130 Tb122 2.427 . S
O130 C126 1.275 . S
O131 Tb122 2.513 . S
O131 C126 1.246 . S
O132 Tb122 2.453 . S
O132 C128 1.245 . S
O133 Tb120 2.343 . S
O133 Tb122 2.596 . S
O133 C128 1.259 . S
O134 Tb122 2.374 . S
O134 C129 1.250 . S
O135 Tb120 2.353 . S
O135 C129 1.263 . S
C136 O137 1.275 . S
C136 O138 1.246 . S
O137 Tb120 2.427 . S
O137 C136 1.275 . S
O138 Tb120 2.513 . S
O138 C136 1.246 . S
C139 O123 1.245 . S
C139 O124 1.259 . S
Tb140 O143 2.453 . S
Tb140 O144 2.596 . S
Tb140 O145 2.374 . S
Tb140 O153 2.343 . S
Tb140 O155 2.353 . S
Tb140 O157 2.427 . S
Tb140 O158 2.513 . S
C141 O145 1.251 . S
C141 O147 1.263 . S
Tb142 O144 2.343 . S
Tb142 O147 2.353 . S
Tb142 O150 2.427 . S
Tb142 O151 2.513 . S
Tb142 O152 2.453 . S
Tb142 O153 2.596 . S
Tb142 O154 2.374 . S
O143 Tb140 2.453 . S
O143 C159 1.245 . S
O144 Tb140 2.596 . S
O144 Tb142 2.343 . S
O144 C159 1.259 . S
O145 Tb140 2.374 . S
O145 C141 1.251 . S
C146 O150 1.275 . S
C146 O151 1.246 . S
O147 C141 1.263 . S
O147 Tb142 2.353 . S
C148 O152 1.245 . S
C148 O153 1.259 . S
C149 O154 1.250 . S
C149 O155 1.263 . S
O150 Tb142 2.427 . S
O150 C146 1.275 . S
O151 Tb142 2.513 . S
O151 C146 1.246 . S
O152 Tb142 2.453 . S
O152 C148 1.245 . S
O153 Tb140 2.343 . S
O153 Tb142 2.596 . S
O153 C148 1.259 . S
O154 Tb142 2.374 . S
O154 C149 1.250 . S
O155 Tb140 2.353 . S
O155 C149 1.263 . S
C156 O157 1.275 . S
C156 O158 1.246 . S
O157 Tb140 2.427 . S
O157 C156 1.275 . S
O158 Tb140 2.513 . S
O158 C156 1.246 . S
C159 O143 1.245 . S
C159 O144 1.259 . S
Tb160 O163 2.453 . S
Tb160 O164 2.596 . S
Tb160 O165 2.374 . S
Tb160 O173 2.343 . S
Tb160 O175 2.353 . S
Tb160 O177 2.427 . S
Tb160 O178 2.513 . S
C161 O165 1.251 . S
C161 O167 1.263 . S
Tb162 O164 2.343 . S
Tb162 O167 2.353 . S
Tb162 O170 2.427 . S
Tb162 O171 2.513 . S
Tb162 O172 2.453 . S
Tb162 O173 2.596 . S
Tb162 O174 2.374 . S
O163 Tb160 2.453 . S
O163 C179 1.245 . S
O164 Tb160 2.596 . S
O164 Tb162 2.343 . S
O164 C179 1.259 . S
O165 Tb160 2.374 . S
O165 C161 1.251 . S
C166 O170 1.275 . S
C166 O171 1.246 . S
O167 C161 1.263 . S
O167 Tb162 2.353 . S
C168 O172 1.245 . S
C168 O173 1.259 . S
C169 O174 1.250 . S
C169 O175 1.263 . S
O170 Tb162 2.427 . S
O170 C166 1.275 . S
O171 Tb162 2.513 . S
O171 C166 1.246 . S
O172 Tb162 2.453 . S
O172 C168 1.245 . S
O173 Tb160 2.343 . S
O173 Tb162 2.596 . S
O173 C168 1.259 . S
O174 Tb162 2.374 . S
O174 C169 1.250 . S
O175 Tb160 2.353 . S
O175 C169 1.263 . S
C176 O177 1.275 . S
C176 O178 1.246 . S
O177 Tb160 2.427 . S
O177 C176 1.275 . S
O178 Tb160 2.513 . S
O178 C176 1.246 . S
C179 O163 1.245 . S
C179 O164 1.259 . S
Tb180 O183 2.453 . S
Tb180 O184 2.601 . S
Tb180 O185 2.374 . S
Tb180 O193 2.343 . S
Tb180 O195 2.353 . S
Tb180 O197 2.427 . S
Tb180 O198 2.513 . S
C181 O185 1.251 1_565 S
C181 O187 1.263 . S
Tb182 O184 2.340 1_565 S
Tb182 O187 2.353 . S
Tb182 O190 2.427 . S
Tb182 O191 2.513 . S
Tb182 O192 2.453 . S
Tb182 O193 2.596 1_565 S
Tb182 O194 2.374 1_565 S
O183 Tb180 2.453 . S
O183 C199 1.245 . S
O184 Tb180 2.601 . S
O184 Tb182 2.340 1_545 S
O184 C199 1.261 . S
O185 Tb180 2.374 . S
O185 C181 1.251 1_545 S
C186 O190 1.275 . S
C186 O191 1.246 . S
O187 C181 1.263 . S
O187 Tb182 2.353 . S
C188 O192 1.245 1_545 S
C188 O193 1.259 . S
C189 O194 1.250 . S
C189 O195 1.263 . S
O190 Tb182 2.427 . S
O190 C186 1.275 . S
O191 Tb182 2.513 . S
O191 C186 1.246 . S
O192 Tb182 2.453 . S
O192 C188 1.245 1_565 S
O193 Tb180 2.343 . S
O193 Tb182 2.596 1_545 S
O193 C188 1.259 . S
O194 Tb182 2.374 1_545 S
O194 C189 1.250 . S
O195 Tb180 2.353 . S
O195 C189 1.263 . S
C196 O197 1.275 . S
C196 O198 1.246 . S
O197 Tb180 2.427 . S
O197 C196 1.275 . S
O198 Tb180 2.513 . S
O198 C196 1.246 . S
C199 O183 1.245 . S
C199 O184 1.261 . S
Tb200 O203 2.453 . S
Tb200 O204 2.596 . S
Tb200 O205 2.374 . S
Tb200 O213 2.343 . S
Tb200 O215 2.353 . S
Tb200 O217 2.427 . S
Tb200 O218 2.513 . S
C201 O205 1.251 . S
C201 O207 1.263 . S
Tb202 O204 2.343 . S
Tb202 O207 2.353 . S
Tb202 O210 2.427 . S
Tb202 O211 2.513 . S
Tb202 O212 2.453 . S
Tb202 O213 2.596 . S
Tb202 O214 2.374 . S
O203 Tb200 2.453 . S
O203 C219 1.245 . S
O204 Tb200 2.596 . S
O204 Tb202 2.343 . S
O204 C219 1.259 . S
O205 Tb200 2.374 . S
O205 C201 1.251 . S
C206 O210 1.275 . S
C206 O211 1.246 . S
O207 C201 1.263 . S
O207 Tb202 2.353 . S
C208 O212 1.245 . S
C208 O213 1.259 . S
C209 O214 1.250 . S
C209 O215 1.263 . S
O210 Tb202 2.427 . S
O210 C206 1.275 . S
O211 Tb202 2.513 . S
O211 C206 1.246 . S
O212 Tb202 2.453 . S
O212 C208 1.245 . S
O213 Tb200 2.343 . S
O213 Tb202 2.596 . S
O213 C208 1.259 . S
O214 Tb202 2.374 . S
O214 C209 1.250 . S
O215 Tb200 2.353 . S
O215 C209 1.263 . S
C216 O217 1.275 . S
C216 O218 1.246 . S
O217 Tb200 2.427 . S
O217 C216 1.275 . S
O218 Tb200 2.513 . S
O218 C216 1.246 . S
C219 O203 1.245 . S
C219 O204 1.259 . S
Tb220 O223 2.453 . S
Tb220 O224 2.601 . S
Tb220 O225 2.374 . S
Tb220 O233 2.343 . S
Tb220 O235 2.353 . S
Tb220 O237 2.427 . S
Tb220 O238 2.513 . S
C221 O225 1.251 1_545 S
C221 O227 1.263 . S
Tb222 O224 2.340 1_545 S
Tb222 O227 2.353 . S
Tb222 O230 2.427 . S
Tb222 O231 2.513 . S
Tb222 O232 2.453 . S
Tb222 O233 2.596 1_545 S
Tb222 O234 2.374 1_545 S
O223 Tb220 2.453 . S
O223 C239 1.245 . S
O224 Tb220 2.601 . S
O224 Tb222 2.340 1_565 S
O224 C239 1.261 . S
O225 Tb220 2.374 . S
O225 C221 1.251 1_565 S
C226 O230 1.275 . S
C226 O231 1.246 . S
O227 C221 1.263 . S
O227 Tb222 2.353 . S
C228 O232 1.245 1_565 S
C228 O233 1.259 . S
C229 O234 1.250 . S
C229 O235 1.263 . S
O230 Tb222 2.427 . S
O230 C226 1.275 . S
O231 Tb222 2.513 . S
O231 C226 1.246 . S
O232 Tb222 2.453 . S
O232 C228 1.245 1_545 S
O233 Tb220 2.343 . S
O233 Tb222 2.596 1_565 S
O233 C228 1.259 . S
O234 Tb222 2.374 1_565 S
O234 C229 1.250 . S
O235 Tb220 2.353 . S
O235 C229 1.263 . S
C236 O237 1.275 . S
C236 O238 1.246 . S
O237 Tb220 2.427 . S
O237 C236 1.275 . S
O238 Tb220 2.513 . S
O238 C236 1.246 . S
C239 O223 1.245 . S
C239 O224 1.261 . S
Tb240 O243 2.453 . S
Tb240 O244 2.596 . S
Tb240 O245 2.374 . S
Tb240 O253 2.343 . S
Tb240 O255 2.353 . S
Tb240 O257 2.427 . S
Tb240 O258 2.513 . S
C241 O245 1.251 . S
C241 O247 1.263 . S
Tb242 O244 2.343 . S
Tb242 O247 2.353 . S
Tb242 O250 2.427 . S
Tb242 O251 2.513 . S
Tb242 O252 2.453 . S
Tb242 O253 2.596 . S
Tb242 O254 2.374 . S
O243 Tb240 2.453 . S
O243 C259 1.245 . S
O244 Tb240 2.596 . S
O244 Tb242 2.343 . S
O244 C259 1.259 . S
O245 Tb240 2.374 . S
O245 C241 1.251 . S
C246 O250 1.275 . S
C246 O251 1.246 . S
O247 C241 1.263 . S
O247 Tb242 2.353 . S
C248 O252 1.245 . S
C248 O253 1.259 . S
C249 O254 1.250 . S
C249 O255 1.263 . S
O250 Tb242 2.427 . S
O250 C246 1.275 . S
O251 Tb242 2.513 . S
O251 C246 1.246 . S
O252 Tb242 2.453 . S
O252 C248 1.245 . S
O253 Tb240 2.343 . S
O253 Tb242 2.596 . S
O253 C248 1.259 . S
O254 Tb242 2.374 . S
O254 C249 1.250 . S
O255 Tb240 2.353 . S
O255 C249 1.263 . S
C256 O257 1.275 . S
C256 O258 1.246 . S
O257 Tb240 2.427 . S
O257 C256 1.275 . S
O258 Tb240 2.513 . S
O258 C256 1.246 . S
C259 O243 1.245 . S
C259 O244 1.259 . S
Tb260 O263 2.453 . S
Tb260 O264 2.596 1_545 S
Tb260 O265 2.374 1_545 S
Tb260 O273 2.340 1_545 S
Tb260 O275 2.353 . S
Tb260 O277 2.427 . S
Tb260 O278 2.513 . S
C261 O265 1.251 . S
C261 O267 1.263 . S
Tb262 O264 2.343 . S
Tb262 O267 2.353 . S
Tb262 O270 2.427 . S
Tb262 O271 2.513 . S
Tb262 O272 2.453 . S
Tb262 O273 2.601 . S
Tb262 O274 2.374 . S
O263 Tb260 2.453 . S
O263 C279 1.245 1_545 S
O264 Tb260 2.596 1_565 S
O264 Tb262 2.343 . S
O264 C279 1.259 . S
O265 Tb260 2.374 1_565 S
O265 C261 1.251 . S
C266 O270 1.275 . S
C266 O271 1.246 . S
O267 C261 1.263 . S
O267 Tb262 2.353 . S
C268 O272 1.245 . S
C268 O273 1.261 . S
C269 O274 1.250 1_545 S
C269 O275 1.263 . S
O270 Tb262 2.427 . S
O270 C266 1.275 . S
O271 Tb262 2.513 . S
O271 C266 1.246 . S
O272 Tb262 2.453 . S
O272 C268 1.245 . S
O273 Tb260 2.340 1_565 S
O273 Tb262 2.601 . S
O273 C268 1.261 . S
O274 Tb262 2.374 . S
O274 C269 1.250 1_565 S
O275 Tb260 2.353 . S
O275 C269 1.263 . S
C276 O277 1.275 . S
C276 O278 1.246 . S
O277 Tb260 2.427 . S
O277 C276 1.275 . S
O278 Tb260 2.513 . S
O278 C276 1.246 . S
C279 O263 1.245 1_565 S
C279 O264 1.259 . S
Tb280 O283 2.453 . S
Tb280 O284 2.596 . S
Tb280 O285 2.374 . S
Tb280 O293 2.343 . S
Tb280 O295 2.353 . S
Tb280 O297 2.427 . S
Tb280 O298 2.513 . S
C281 O285 1.251 . S
C281 O287 1.263 . S
Tb282 O284 2.343 . S
Tb282 O287 2.353 . S
Tb282 O290 2.427 . S
Tb282 O291 2.513 . S
Tb282 O292 2.453 . S
Tb282 O293 2.596 . S
Tb282 O294 2.374 . S
O283 Tb280 2.453 . S
O283 C299 1.245 . S
O284 Tb280 2.596 . S
O284 Tb282 2.343 . S
O284 C299 1.259 . S
O285 Tb280 2.374 . S
O285 C281 1.251 . S
C286 O290 1.275 . S
C286 O291 1.246 . S
O287 C281 1.263 . S
O287 Tb282 2.353 . S
C288 O292 1.245 . S
C288 O293 1.259 . S
C289 O294 1.250 . S
C289 O295 1.263 . S
O290 Tb282 2.427 . S
O290 C286 1.275 . S
O291 Tb282 2.513 . S
O291 C286 1.246 . S
O292 Tb282 2.453 . S
O292 C288 1.245 . S
O293 Tb280 2.343 . S
O293 Tb282 2.596 . S
O293 C288 1.259 . S
O294 Tb282 2.374 . S
O294 C289 1.250 . S
O295 Tb280 2.353 . S
O295 C289 1.263 . S
C296 O297 1.275 . S
C296 O298 1.246 . S
O297 Tb280 2.427 . S
O297 C296 1.275 . S
O298 Tb280 2.513 . S
O298 C296 1.246 . S
C299 O283 1.245 . S
C299 O284 1.259 . S
Tb300 O303 2.453 . S
Tb300 O304 2.596 1_565 S
Tb300 O305 2.374 1_565 S
Tb300 O313 2.340 1_565 S
Tb300 O315 2.353 . S
Tb300 O317 2.427 . S
Tb300 O318 2.513 . S
C301 O305 1.251 . S
C301 O307 1.263 . S
Tb302 O304 2.343 . S
Tb302 O307 2.353 . S
Tb302 O310 2.427 . S
Tb302 O311 2.513 . S
Tb302 O312 2.453 . S
Tb302 O313 2.601 . S
Tb302 O314 2.374 . S
O303 Tb300 2.453 . S
O303 C319 1.245 1_565 S
O304 Tb300 2.596 1_545 S
O304 Tb302 2.343 . S
O304 C319 1.259 . S
O305 Tb300 2.374 1_545 S
O305 C301 1.251 . S
C306 O310 1.275 . S
C306 O311 1.246 . S
O307 C301 1.263 . S
O307 Tb302 2.353 . S
C308 O312 1.245 . S
C308 O313 1.261 . S
C309 O314 1.250 1_565 S
C309 O315 1.263 . S
O310 Tb302 2.427 . S
O310 C306 1.275 . S
O311 Tb302 2.513 . S
O311 C306 1.246 . S
O312 Tb302 2.453 . S
O312 C308 1.245 . S
O313 Tb300 2.340 1_545 S
O313 Tb302 2.601 . S
O313 C308 1.261 . S
O314 Tb302 2.374 . S
O314 C309 1.250 1_545 S
O315 Tb300 2.353 . S
O315 C309 1.263 . S
C316 O317 1.275 . S
C316 O318 1.246 . S
O317 Tb300 2.427 . S
O317 C316 1.275 . S
O318 Tb300 2.513 . S
O318 C316 1.246 . S
C319 O303 1.245 1_545 S
C319 O304 1.259 . S
H320 C328 0.950 . S
H321 C333 0.950 . S
H322 C330 0.950 . S
H323 C332 0.950 . S
H324 C334 0.950 . S
H325 C336 0.950 . S
H326 C338 0.950 . S
H327 C339 0.950 . S
C328 H320 0.950 . S
C328 C329 1.386 . S
C328 C330 1.391 . S
C329 C328 1.386 . S
C329 C333 1.393 . S
C330 H322 0.950 . S
C330 C328 1.391 . S
C330 C331 1.400 . S
C331 C330 1.400 . S
C331 C332 1.398 . S
C331 C337 1.491 . S
C332 H323 0.950 . S
C332 C331 1.398 . S
C332 C333 1.391 . S
C333 H321 0.950 . S
C333 C329 1.393 . S
C333 C332 1.391 . S
C334 H324 0.950 . S
C334 C335 1.386 . S
C334 C336 1.391 . S
C335 C334 1.386 . S
C335 C339 1.393 . S
C336 H325 0.950 . S
C336 C334 1.391 . S
C336 C337 1.400 . S
C337 C331 1.491 . S
C337 C336 1.400 . S
C337 C338 1.398 . S
C338 H326 0.950 . S
C338 C337 1.398 . S
C338 C339 1.391 . S
C339 H327 0.950 . S
C339 C335 1.393 . S
C339 C338 1.391 . S
H340 C348 0.950 . S
H341 C353 0.950 . S
H342 C350 0.950 . S
H343 C352 0.950 . S
H344 C354 0.950 . S
H345 C356 0.950 . S
H346 C358 0.950 . S
H347 C359 0.950 . S
C348 H340 0.950 . S
C348 C349 1.386 . S
C348 C350 1.391 . S
C349 C348 1.386 . S
C349 C353 1.393 . S
C350 H342 0.950 . S
C350 C348 1.391 . S
C350 C351 1.400 . S
C351 C350 1.400 . S
C351 C352 1.398 . S
C351 C357 1.491 . S
C352 H343 0.950 . S
C352 C351 1.398 . S
C352 C353 1.391 . S
C353 H341 0.950 . S
C353 C349 1.393 . S
C353 C352 1.391 . S
C354 H344 0.950 . S
C354 C355 1.386 . S
C354 C356 1.391 . S
C355 C354 1.386 . S
C355 C359 1.393 . S
C356 H345 0.950 . S
C356 C354 1.391 . S
C356 C357 1.400 . S
C357 C351 1.491 . S
C357 C356 1.400 . S
C357 C358 1.398 . S
C358 H346 0.950 . S
C358 C357 1.398 . S
C358 C359 1.391 . S
C359 H347 0.950 . S
C359 C355 1.393 . S
C359 C358 1.391 . S
H360 C368 0.950 . S
H361 C373 0.950 . S
H362 C370 0.950 . S
H363 C372 0.950 . S
H364 C374 0.950 . S
H365 C376 0.950 . S
H366 C378 0.950 . S
H367 C379 0.950 . S
C368 H360 0.950 . S
C368 C369 1.386 . S
C368 C370 1.391 . S
C369 C368 1.386 . S
C369 C373 1.393 . S
C370 H362 0.950 . S
C370 C368 1.391 . S
C370 C371 1.400 . S
C371 C370 1.400 . S
C371 C372 1.398 . S
C371 C377 1.491 . S
C372 H363 0.950 . S
C372 C371 1.398 . S
C372 C373 1.391 . S
C373 H361 0.950 . S
C373 C369 1.393 . S
C373 C372 1.391 . S
C374 H364 0.950 . S
C374 C375 1.386 . S
C374 C376 1.391 . S
C375 C374 1.386 . S
C375 C379 1.393 . S
C376 H365 0.950 . S
C376 C374 1.391 . S
C376 C377 1.400 . S
C377 C371 1.491 . S
C377 C376 1.400 . S
C377 C378 1.398 . S
C378 H366 0.950 . S
C378 C377 1.398 . S
C378 C379 1.391 . S
C379 H367 0.950 . S
C379 C375 1.393 . S
C379 C378 1.391 . S
H380 C388 0.950 . S
H381 C393 0.950 . S
H382 C390 0.950 . S
H383 C392 0.950 1_455 S
H384 C394 0.950 . S
H385 C396 0.950 . S
H386 C398 0.950 1_655 S
H387 C399 0.950 . S
C388 H380 0.950 . S
C388 C389 1.386 . S
C388 C390 1.391 . S
C389 C388 1.386 . S
C389 C393 1.393 . S
C390 H382 0.950 . S
C390 C388 1.391 . S
C390 C391 1.400 . S
C391 C390 1.400 . S
C391 C392 1.398 . S
C391 C397 1.491 1_656 S
C392 H383 0.950 1_655 S
C392 C391 1.398 . S
C392 C393 1.391 . S
C393 H381 0.950 . S
C393 C389 1.393 . S
C393 C392 1.391 . S
C394 H384 0.950 . S
C394 C395 1.386 . S
C394 C396 1.391 . S
C395 C394 1.386 . S
C395 C399 1.393 . S
C396 H385 0.950 . S
C396 C394 1.391 . S
C396 C397 1.400 . S
C397 C391 1.491 1_454 S
C397 C396 1.400 . S
C397 C398 1.398 . S
C398 H386 0.950 1_455 S
C398 C397 1.398 . S
C398 C399 1.391 . S
C399 H387 0.950 . S
C399 C395 1.393 . S
C399 C398 1.391 . S
H400 C408 0.950 . S
H401 C413 0.950 . S
H402 C410 0.950 . S
H403 C412 0.950 . S
H404 C414 0.950 . S
H405 C416 0.950 . S
H406 C418 0.950 . S
H407 C419 0.950 . S
C408 H400 0.950 . S
C408 C409 1.386 . S
C408 C410 1.391 . S
C409 C408 1.386 . S
C409 C413 1.393 . S
C410 H402 0.950 . S
C410 C408 1.391 . S
C410 C411 1.400 . S
C411 C410 1.400 . S
C411 C412 1.398 . S
C411 C417 1.491 . S
C412 H403 0.950 . S
C412 C411 1.398 . S
C412 C413 1.391 . S
C413 H401 0.950 . S
C413 C409 1.393 . S
C413 C412 1.391 . S
C414 H404 0.950 . S
C414 C415 1.386 . S
C414 C416 1.391 . S
C415 C414 1.386 . S
C415 C419 1.393 . S
C416 H405 0.950 . S
C416 C414 1.391 . S
C416 C417 1.400 . S
C417 C411 1.491 . S
C417 C416 1.400 . S
C417 C418 1.398 . S
C418 H406 0.950 . S
C418 C417 1.398 . S
C418 C419 1.391 . S
C419 H407 0.950 . S
C419 C415 1.393 . S
C419 C418 1.391 . S
H420 C428 0.950 . S
H421 C433 0.950 . S
H422 C430 0.950 . S
H423 C432 0.950 . S
H424 C434 0.950 . S
H425 C436 0.950 . S
H426 C438 0.950 . S
H427 C439 0.950 . S
C428 H420 0.950 . S
C428 C429 1.386 . S
C428 C430 1.391 . S
C429 C428 1.386 . S
C429 C433 1.393 . S
C430 H422 0.950 . S
C430 C428 1.391 . S
C430 C431 1.400 . S
C431 C430 1.400 . S
C431 C432 1.398 . S
C431 C437 1.491 . S
C432 H423 0.950 . S
C432 C431 1.398 . S
C432 C433 1.391 . S
C433 H421 0.950 . S
C433 C429 1.393 . S
C433 C432 1.391 . S
C434 H424 0.950 . S
C434 C435 1.386 . S
C434 C436 1.391 . S
C435 C434 1.386 . S
C435 C439 1.393 . S
C436 H425 0.950 . S
C436 C434 1.391 . S
C436 C437 1.400 . S
C437 C431 1.491 . S
C437 C436 1.400 . S
C437 C438 1.398 . S
C438 H426 0.950 . S
C438 C437 1.398 . S
C438 C439 1.391 . S
C439 H427 0.950 . S
C439 C435 1.393 . S
C439 C438 1.391 . S
H440 C448 0.950 . S
H441 C453 0.950 . S
H442 C450 0.950 1_455 S
H443 C452 0.950 . S
H444 C454 0.950 . S
H445 C456 0.950 1_655 S
H446 C458 0.950 . S
H447 C459 0.950 . S
C448 H440 0.950 . S
C448 C449 1.386 . S
C448 C450 1.391 . S
C449 C448 1.386 . S
C449 C453 1.393 . S
C450 H442 0.950 1_655 S
C450 C448 1.391 . S
C450 C451 1.400 . S
C451 C450 1.400 . S
C451 C452 1.398 1_554 S
C451 C457 1.491 1_664 S
C452 H443 0.950 . S
C452 C451 1.398 1_556 S
C452 C453 1.391 1_556 S
C453 H441 0.950 . S
C453 C449 1.393 . S
C453 C452 1.391 1_554 S
C454 H444 0.950 . S
C454 C455 1.386 . S
C454 C456 1.391 . S
C455 C454 1.386 . S
C455 C459 1.393 . S
C456 H445 0.950 1_455 S
C456 C454 1.391 . S
C456 C457 1.400 . S
C457 C451 1.491 1_446 S
C457 C456 1.400 . S
C457 C458 1.398 1_556 S
C458 H446 0.950 . S
C458 C457 1.398 1_554 S
C458 C459 1.391 1_554 S
C459 H447 0.950 . S
C459 C455 1.393 . S
C459 C458 1.391 1_556 S
H460 C468 0.950 . S
H461 C473 0.950 . S
H462 C470 0.950 . S
H463 C472 0.950 . S
H464 C474 0.950 . S
H465 C476 0.950 . S
H466 C478 0.950 . S
H467 C479 0.950 . S
C468 H460 0.950 . S
C468 C469 1.386 . S
C468 C470 1.391 . S
C469 C468 1.386 . S
C469 C473 1.393 . S
C470 H462 0.950 . S
C470 C468 1.391 . S
C470 C471 1.400 . S
C471 C470 1.400 . S
C471 C472 1.398 . S
C471 C477 1.491 1_565 S
C472 H463 0.950 . S
C472 C471 1.398 . S
C472 C473 1.391 . S
C473 H461 0.950 . S
C473 C469 1.393 . S
C473 C472 1.391 . S
C474 H464 0.950 . S
C474 C475 1.386 . S
C474 C476 1.391 . S
C475 C474 1.386 . S
C475 C479 1.393 . S
C476 H465 0.950 . S
C476 C474 1.391 . S
C476 C477 1.400 . S
C477 C471 1.491 1_545 S
C477 C476 1.400 . S
C477 C478 1.398 . S
C478 H466 0.950 . S
C478 C477 1.398 . S
C478 C479 1.391 . S
C479 H467 0.950 . S
C479 C475 1.393 . S
C479 C478 1.391 . S
H480 C488 0.950 . S
H481 C493 0.950 . S
H482 C490 0.950 . S
H483 C492 0.950 . S
H484 C494 0.950 . S
H485 C496 0.950 . S
H486 C498 0.950 . S
H487 C499 0.950 . S
C488 H480 0.950 . S
C488 C489 1.386 . S
C488 C490 1.391 1_556 S
C489 C488 1.386 . S
C489 C493 1.393 . S
C490 H482 0.950 . S
C490 C488 1.391 1_554 S
C490 C491 1.400 . S
C491 C490 1.400 . S
C491 C492 1.398 . S
C491 C497 1.491 . S
C492 H483 0.950 . S
C492 C491 1.398 . S
C492 C493 1.391 1_554 S
C493 H481 0.950 . S
C493 C489 1.393 . S
C493 C492 1.391 1_556 S
C494 H484 0.950 . S
C494 C495 1.386 . S
C494 C496 1.391 . S
C495 C494 1.386 . S
C495 C499 1.393 . S
C496 H485 0.950 . S
C496 C494 1.391 . S
C496 C497 1.400 . S
C497 C491 1.491 . S
C497 C496 1.400 . S
C497 C498 1.398 . S
C498 H486 0.950 . S
C498 C497 1.398 . S
C498 C499 1.391 . S
C499 H487 0.950 . S
C499 C495 1.393 . S
C499 C498 1.391 . S
H500 C508 0.950 . S
H501 C513 0.950 . S
H502 C510 0.950 . S
H503 C512 0.950 . S
H504 C514 0.950 . S
H505 C516 0.950 . S
H506 C518 0.950 . S
H507 C519 0.950 . S
C508 H500 0.950 . S
C508 C509 1.386 . S
C508 C510 1.391 . S
C509 C508 1.386 . S
C509 C513 1.393 . S
C510 H502 0.950 . S
C510 C508 1.391 . S
C510 C511 1.400 . S
C511 C510 1.400 . S
C511 C512 1.398 . S
C511 C517 1.491 . S
C512 H503 0.950 . S
C512 C511 1.398 . S
C512 C513 1.391 . S
C513 H501 0.950 . S
C513 C509 1.393 . S
C513 C512 1.391 . S
C514 H504 0.950 . S
C514 C515 1.386 . S
C514 C516 1.391 . S
C515 C514 1.386 . S
C515 C519 1.393 . S
C516 H505 0.950 . S
C516 C514 1.391 . S
C516 C517 1.400 . S
C517 C511 1.491 . S
C517 C516 1.400 . S
C517 C518 1.398 . S
C518 H506 0.950 . S
C518 C517 1.398 . S
C518 C519 1.391 . S
C519 H507 0.950 . S
C519 C515 1.393 . S
C519 C518 1.391 . S
H520 C528 0.950 . S
H521 C533 0.950 . S
H522 C530 0.950 . S
H523 C532 0.950 . S
H524 C534 0.950 . S
H525 C536 0.950 . S
H526 C538 0.950 . S
H527 C539 0.950 . S
C528 H520 0.950 . S
C528 C529 1.386 . S
C528 C530 1.391 . S
C529 C528 1.386 . S
C529 C533 1.393 . S
C530 H522 0.950 . S
C530 C528 1.391 . S
C530 C531 1.400 . S
C531 C530 1.400 . S
C531 C532 1.398 . S
C531 C537 1.491 . S
C532 H523 0.950 . S
C532 C531 1.398 . S
C532 C533 1.391 . S
C533 H521 0.950 . S
C533 C529 1.393 . S
C533 C532 1.391 . S
C534 H524 0.950 . S
C534 C535 1.386 . S
C534 C536 1.391 . S
C535 C534 1.386 . S
C535 C539 1.393 . S
C536 H525 0.950 . S
C536 C534 1.391 . S
C536 C537 1.400 . S
C537 C531 1.491 . S
C537 C536 1.400 . S
C537 C538 1.398 . S
C538 H526 0.950 . S
C538 C537 1.398 . S
C538 C539 1.391 . S
C539 H527 0.950 . S
C539 C535 1.393 . S
C539 C538 1.391 . S
H540 C548 0.950 . S
H541 C553 0.950 . S
H542 C550 0.950 . S
H543 C552 0.950 . S
H544 C554 0.950 . S
H545 C556 0.950 . S
H546 C558 0.950 . S
H547 C559 0.950 . S
C548 H540 0.950 . S
C548 C549 1.386 . S
C548 C550 1.391 . S
C549 C548 1.386 . S
C549 C553 1.393 . S
C550 H542 0.950 . S
C550 C548 1.391 . S
C550 C551 1.400 . S
C551 C550 1.400 . S
C551 C552 1.398 . S
C551 C557 1.491 . S
C552 H543 0.950 . S
C552 C551 1.398 . S
C552 C553 1.391 . S
C553 H541 0.950 . S
C553 C549 1.393 . S
C553 C552 1.391 . S
C554 H544 0.950 . S
C554 C555 1.386 . S
C554 C556 1.391 . S
C555 C554 1.386 . S
C555 C559 1.393 . S
C556 H545 0.950 . S
C556 C554 1.391 . S
C556 C557 1.400 . S
C557 C551 1.491 . S
C557 C556 1.400 . S
C557 C558 1.398 . S
C558 H546 0.950 . S
C558 C557 1.398 . S
C558 C559 1.391 . S
C559 H547 0.950 . S
C559 C555 1.393 . S
C559 C558 1.391 . S
H560 C568 0.950 . S
H561 C573 0.950 . S
H562 C570 0.950 . S
H563 C572 0.950 . S
H564 C574 0.950 . S
H565 C576 0.950 . S
H566 C578 0.950 . S
H567 C579 0.950 . S
C568 H560 0.950 . S
C568 C569 1.386 . S
C568 C570 1.391 1_554 S
C569 C568 1.386 . S
C569 C573 1.393 . S
C570 H562 0.950 . S
C570 C568 1.391 1_556 S
C570 C571 1.400 . S
C571 C570 1.400 . S
C571 C572 1.398 . S
C571 C577 1.491 . S
C572 H563 0.950 . S
C572 C571 1.398 . S
C572 C573 1.391 1_556 S
C573 H561 0.950 . S
C573 C569 1.393 . S
C573 C572 1.391 1_554 S
C574 H564 0.950 . S
C574 C575 1.386 . S
C574 C576 1.391 . S
C575 C574 1.386 . S
C575 C579 1.393 . S
C576 H565 0.950 . S
C576 C574 1.391 . S
C576 C577 1.400 . S
C577 C571 1.491 . S
C577 C576 1.400 . S
C577 C578 1.398 . S
C578 H566 0.950 . S
C578 C577 1.398 . S
C578 C579 1.391 . S
C579 H567 0.950 . S
C579 C575 1.393 . S
C579 C578 1.391 . S
H580 C588 0.950 . S
H581 C593 0.950 . S
H582 C590 0.950 . S
H583 C592 0.950 . S
H584 C594 0.950 . S
H585 C596 0.950 . S
H586 C598 0.950 . S
H587 C599 0.950 . S
C588 H580 0.950 . S
C588 C589 1.386 . S
C588 C590 1.391 . S
C589 C588 1.386 . S
C589 C593 1.393 . S
C590 H582 0.950 . S
C590 C588 1.391 . S
C590 C591 1.400 . S
C591 C590 1.400 . S
C591 C592 1.398 . S
C591 C597 1.491 . S
C592 H583 0.950 . S
C592 C591 1.398 . S
C592 C593 1.391 . S
C593 H581 0.950 . S
C593 C589 1.393 . S
C593 C592 1.391 . S
C594 H584 0.950 . S
C594 C595 1.386 . S
C594 C596 1.391 . S
C595 C594 1.386 . S
C595 C599 1.393 . S
C596 H585 0.950 . S
C596 C594 1.391 . S
C596 C597 1.400 . S
C597 C591 1.491 . S
C597 C596 1.400 . S
C597 C598 1.398 . S
C598 H586 0.950 . S
C598 C597 1.398 . S
C598 C599 1.391 . S
C599 H587 0.950 . S
C599 C595 1.393 . S
C599 C598 1.391 . S
H600 C608 0.950 . S
H601 C613 0.950 . S
H602 C610 0.950 . S
H603 C612 0.950 . S
H604 C614 0.950 . S
H605 C616 0.950 . S
H606 C618 0.950 . S
H607 C619 0.950 . S
C608 H600 0.950 . S
C608 C609 1.386 . S
C608 C610 1.391 . S
C609 C608 1.386 . S
C609 C613 1.393 . S
C610 H602 0.950 . S
C610 C608 1.391 . S
C610 C611 1.400 . S
C611 C610 1.400 . S
C611 C612 1.398 . S
C611 C617 1.491 . S
C612 H603 0.950 . S
C612 C611 1.398 . S
C612 C613 1.391 . S
C613 H601 0.950 . S
C613 C609 1.393 . S
C613 C612 1.391 . S
C614 H604 0.950 . S
C614 C615 1.386 . S
C614 C616 1.391 . S
C615 C614 1.386 . S
C615 C619 1.393 . S
C616 H605 0.950 . S
C616 C614 1.391 . S
C616 C617 1.400 . S
C617 C611 1.491 . S
C617 C616 1.400 . S
C617 C618 1.398 . S
C618 H606 0.950 . S
C618 C617 1.398 . S
C618 C619 1.391 . S
C619 H607 0.950 . S
C619 C615 1.393 . S
C619 C618 1.391 . S
H620 C628 0.950 . S
H621 C633 0.950 . S
H622 C630 0.950 . S
H623 C632 0.950 . S
H624 C634 0.950 . S
H625 C636 0.950 . S
H626 C638 0.950 . S
H627 C639 0.950 . S
C628 H620 0.950 . S
C628 C629 1.386 . S
C628 C630 1.391 . S
C629 C628 1.386 . S
C629 C633 1.393 . S
C630 H622 0.950 . S
C630 C628 1.391 . S
C630 C631 1.400 . S
C631 C630 1.400 . S
C631 C632 1.398 . S
C631 C637 1.491 . S
C632 H623 0.950 . S
C632 C631 1.398 . S
C632 C633 1.391 . S
C633 H621 0.950 . S
C633 C629 1.393 . S
C633 C632 1.391 . S
C634 H624 0.950 . S
C634 C635 1.386 . S
C634 C636 1.391 . S
C635 C634 1.386 . S
C635 C639 1.393 . S
C636 H625 0.950 . S
C636 C634 1.391 . S
C636 C637 1.400 . S
C637 C631 1.491 . S
C637 C636 1.400 . S
C637 C638 1.398 . S
C638 H626 0.950 . S
C638 C637 1.398 . S
C638 C639 1.391 . S
C639 H627 0.950 . S
C639 C635 1.393 . S
C639 C638 1.391 . S
H640 C648 0.950 . S
H641 C653 0.950 . S
H642 C650 0.950 . S
H643 C652 0.950 . S
H644 C654 0.950 . S
H645 C656 0.950 . S
H646 C658 0.950 . S
H647 C659 0.950 . S
C648 H640 0.950 . S
C648 C649 1.386 . S
C648 C650 1.391 . S
C649 C648 1.386 . S
C649 C653 1.393 . S
C650 H642 0.950 . S
C650 C648 1.391 . S
C650 C651 1.400 . S
C651 C650 1.400 . S
C651 C652 1.398 . S
C651 C657 1.491 . S
C652 H643 0.950 . S
C652 C651 1.398 . S
C652 C653 1.391 . S
C653 H641 0.950 . S
C653 C649 1.393 . S
C653 C652 1.391 . S
C654 H644 0.950 . S
C654 C655 1.386 . S
C654 C656 1.391 . S
C655 C654 1.386 . S
C655 C659 1.393 . S
C656 H645 0.950 . S
C656 C654 1.391 . S
C656 C657 1.400 . S
C657 C651 1.491 . S
C657 C656 1.400 . S
C657 C658 1.398 . S
C658 H646 0.950 . S
C658 C657 1.398 . S
C658 C659 1.391 . S
C659 H647 0.950 . S
C659 C655 1.393 . S
C659 C658 1.391 . S
H660 C668 0.950 . S
H661 C673 0.950 . S
H662 C670 0.950 . S
H663 C672 0.950 1_545 S
H664 C674 0.950 . S
H665 C676 0.950 . S
H666 C678 0.950 . S
H667 C679 0.950 . S
C668 H660 0.950 . S
C668 C669 1.386 . S
C668 C670 1.391 . S
C669 C668 1.386 . S
C669 C673 1.393 1_565 S
C670 H662 0.950 . S
C670 C668 1.391 . S
C670 C671 1.400 . S
C671 C670 1.400 . S
C671 C672 1.398 . S
C671 C677 1.491 . S
C672 H663 0.950 1_565 S
C672 C671 1.398 . S
C672 C673 1.391 1_565 S
C673 H661 0.950 . S
C673 C669 1.393 1_545 S
C673 C672 1.391 1_545 S
C674 H664 0.950 . S
C674 C675 1.386 . S
C674 C676 1.391 . S
C675 C674 1.386 . S
C675 C679 1.393 . S
C676 H665 0.950 . S
C676 C674 1.391 . S
C676 C677 1.400 . S
C677 C671 1.491 . S
C677 C676 1.400 . S
C677 C678 1.398 . S
C678 H666 0.950 . S
C678 C677 1.398 . S
C678 C679 1.391 . S
C679 H667 0.950 . S
C679 C675 1.393 . S
C679 C678 1.391 . S
H680 C688 0.950 . S
H681 C693 0.950 . S
H682 C690 0.950 . S
H683 C692 0.950 . S
H684 C694 0.950 . S
H685 C696 0.950 . S
H686 C698 0.948 1_554 S
H687 C699 0.950 . S
C688 H680 0.950 . S
C688 C689 1.386 . S
C688 C690 1.391 . S
C689 C688 1.386 . S
C689 C693 1.393 . S
C690 H682 0.950 . S
C690 C688 1.391 . S
C690 C691 1.400 . S
C691 C690 1.400 . S
C691 C692 1.398 . S
C691 C697 1.491 . S
C692 H683 0.950 . S
C692 C691 1.398 . S
C692 C693 1.391 . S
C693 H681 0.950 . S
C693 C689 1.393 . S
C693 C692 1.391 . S
C694 H684 0.950 . S
C694 C695 1.386 . S
C694 C696 1.391 1_556 S
C695 C694 1.386 . S
C695 C699 1.393 . S
C696 H685 0.950 . S
C696 C694 1.391 1_554 S
C696 C697 1.400 . S
C697 C691 1.491 . S
C697 C696 1.400 . S
C697 C698 1.385 1_554 S
C698 H686 0.948 1_556 S
C698 C697 1.385 1_556 S
C698 C699 1.407 . S
C699 H687 0.950 . S
C699 C695 1.393 . S
C699 C698 1.407 . S
H700 C708 0.950 . S
H701 C713 0.950 . S
H702 C710 0.950 . S
H703 C712 0.950 . S
H704 C714 0.950 . S
H705 C716 0.950 . S
H706 C718 0.950 . S
H707 C719 0.950 . S
C708 H700 0.950 . S
C708 C709 1.386 . S
C708 C710 1.391 . S
C709 C708 1.386 . S
C709 C713 1.393 . S
C710 H702 0.950 . S
C710 C708 1.391 . S
C710 C711 1.400 . S
C711 C710 1.400 . S
C711 C712 1.398 . S
C711 C717 1.491 . S
C712 H703 0.950 . S
C712 C711 1.398 . S
C712 C713 1.391 . S
C713 H701 0.950 . S
C713 C709 1.393 . S
C713 C712 1.391 . S
C714 H704 0.950 . S
C714 C715 1.386 . S
C714 C716 1.391 . S
C715 C714 1.386 . S
C715 C719 1.393 . S
C716 H705 0.950 . S
C716 C714 1.391 . S
C716 C717 1.400 . S
C717 C711 1.491 . S
C717 C716 1.400 . S
C717 C718 1.398 . S
C718 H706 0.950 . S
C718 C717 1.398 . S
C718 C719 1.391 . S
C719 H707 0.950 . S
C719 C715 1.393 . S
C719 C718 1.391 . S
H720 C728 0.950 . S
H721 C733 0.950 . S
H722 C730 0.950 . S
H723 C732 0.950 . S
H724 C734 0.950 . S
H725 C736 0.950 . S
H726 C738 0.950 . S
H727 C739 0.950 . S
C728 H720 0.950 . S
C728 C729 1.386 . S
C728 C730 1.391 . S
C729 C728 1.386 . S
C729 C733 1.393 . S
C730 H722 0.950 . S
C730 C728 1.391 . S
C730 C731 1.400 . S
C731 C730 1.400 . S
C731 C732 1.398 . S
C731 C737 1.491 . S
C732 H723 0.950 . S
C732 C731 1.398 . S
C732 C733 1.391 . S
C733 H721 0.950 . S
C733 C729 1.393 . S
C733 C732 1.391 . S
C734 H724 0.950 . S
C734 C735 1.386 . S
C734 C736 1.391 . S
C735 C734 1.386 . S
C735 C739 1.393 . S
C736 H725 0.950 . S
C736 C734 1.391 . S
C736 C737 1.400 . S
C737 C731 1.491 . S
C737 C736 1.400 . S
C737 C738 1.398 . S
C738 H726 0.950 . S
C738 C737 1.398 . S
C738 C739 1.391 . S
C739 H727 0.950 . S
C739 C735 1.393 . S
C739 C738 1.391 . S
H740 C748 0.950 . S
H741 C753 0.950 . S
H742 C750 0.950 1_565 S
H743 C752 0.950 . S
H744 C754 0.950 . S
H745 C756 0.950 . S
H746 C758 0.950 . S
H747 C759 0.950 . S
C748 H740 0.950 . S
C748 C749 1.386 1_565 S
C748 C750 1.391 1_565 S
C749 C748 1.386 1_545 S
C749 C753 1.393 . S
C750 H742 0.950 1_545 S
C750 C748 1.391 1_545 S
C750 C751 1.400 . S
C751 C750 1.400 . S
C751 C752 1.398 . S
C751 C757 1.491 . S
C752 H743 0.950 . S
C752 C751 1.398 . S
C752 C753 1.391 . S
C753 H741 0.950 . S
C753 C749 1.393 . S
C753 C752 1.391 . S
C754 H744 0.950 . S
C754 C755 1.386 . S
C754 C756 1.391 . S
C755 C754 1.386 . S
C755 C759 1.393 . S
C756 H745 0.950 . S
C756 C754 1.391 . S
C756 C757 1.400 . S
C757 C751 1.491 . S
C757 C756 1.400 . S
C757 C758 1.398 . S
C758 H746 0.950 . S
C758 C757 1.398 . S
C758 C759 1.391 . S
C759 H747 0.950 . S
C759 C755 1.393 . S
C759 C758 1.391 . S
H760 C768 0.950 . S
H761 C773 0.950 . S
H762 C770 0.950 . S
H763 C772 0.950 . S
H764 C774 0.950 . S
H765 C776 0.950 . S
H766 C778 0.950 . S
H767 C779 0.950 . S
C768 H760 0.950 . S
C768 C769 1.386 . S
C768 C770 1.391 1_554 S
C769 C768 1.386 . S
C769 C773 1.393 . S
C770 H762 0.950 . S
C770 C768 1.391 1_556 S
C770 C771 1.400 . S
C771 C770 1.400 . S
C771 C772 1.398 . S
C771 C777 1.491 . S
C772 H763 0.950 . S
C772 C771 1.398 . S
C772 C773 1.391 1_556 S
C773 H761 0.950 . S
C773 C769 1.393 . S
C773 C772 1.391 1_554 S
C774 H764 0.950 . S
C774 C775 1.386 . S
C774 C776 1.391 . S
C775 C774 1.386 . S
C775 C779 1.393 . S
C776 H765 0.950 . S
C776 C774 1.391 . S
C776 C777 1.400 . S
C777 C771 1.491 . S
C777 C776 1.400 . S
C777 C778 1.398 . S
C778 H766 0.950 . S
C778 C777 1.398 . S
C778 C779 1.391 . S
C779 H767 0.950 . S
C779 C775 1.393 . S
C779 C778 1.391 . S
H780 C788 0.950 1_545 S
H781 C793 0.950 . S
H782 C790 0.950 . S
H783 C792 0.950 . S
H784 C794 0.950 . S
H785 C796 0.950 . S
H786 C798 0.950 . S
H787 C799 0.950 . S
C788 H780 0.950 1_565 S
C788 C789 1.386 . S
C788 C790 1.391 . S
C789 C788 1.386 . S
C789 C793 1.393 . S
C790 H782 0.950 . S
C790 C788 1.391 . S
C790 C791 1.400 . S
C791 C790 1.400 . S
C791 C792 1.398 . S
C791 C797 1.491 . S
C792 H783 0.950 . S
C792 C791 1.398 . S
C792 C793 1.391 . S
C793 H781 0.950 . S
C793 C789 1.393 . S
C793 C792 1.391 . S
C794 H784 0.950 . S
C794 C795 1.386 . S
C794 C796 1.391 . S
C795 C794 1.386 . S
C795 C799 1.393 . S
C796 H785 0.950 . S
C796 C794 1.391 . S
C796 C797 1.400 . S
C797 C791 1.491 . S
C797 C796 1.400 . S
C797 C798 1.398 . S
C798 H786 0.950 . S
C798 C797 1.398 . S
C798 C799 1.391 . S
C799 H787 0.950 . S
C799 C795 1.393 . S
C799 C798 1.391 . S
H800 C808 0.950 . S
H801 C813 0.950 . S
H802 C810 0.950 . S
H803 C812 0.950 . S
H804 C814 0.950 . S
H805 C816 0.950 . S
H806 C818 0.950 . S
H807 C819 0.950 . S
C808 H800 0.950 . S
C808 C809 1.386 . S
C808 C810 1.391 . S
C809 C808 1.386 . S
C809 C813 1.393 . S
C810 H802 0.950 . S
C810 C808 1.391 . S
C810 C811 1.400 . S
C811 C810 1.400 . S
C811 C812 1.398 . S
C811 C817 1.491 . S
C812 H803 0.950 . S
C812 C811 1.398 . S
C812 C813 1.391 . S
C813 H801 0.950 . S
C813 C809 1.393 . S
C813 C812 1.391 . S
C814 H804 0.950 . S
C814 C815 1.386 . S
C814 C816 1.391 . S
C815 C814 1.386 . S
C815 C819 1.393 . S
C816 H805 0.950 . S
C816 C814 1.391 . S
C816 C817 1.400 . S
C817 C811 1.491 . S
C817 C816 1.400 . S
C817 C818 1.398 . S
C818 H806 0.950 . S
C818 C817 1.398 . S
C818 C819 1.391 . S
C819 H807 0.950 . S
C819 C815 1.393 . S
C819 C818 1.391 . S
H820 C828 0.950 . S
H821 C833 0.950 . S
H822 C830 0.950 . S
H823 C832 0.950 . S
H824 C834 0.950 . S
H825 C836 0.950 . S
H826 C838 0.950 . S
H827 C839 0.950 . S
C828 H820 0.950 . S
C828 C829 1.386 . S
C828 C830 1.391 . S
C829 C828 1.386 . S
C829 C833 1.393 . S
C830 H822 0.950 . S
C830 C828 1.391 . S
C830 C831 1.400 . S
C831 C830 1.400 . S
C831 C832 1.398 . S
C831 C837 1.491 . S
C832 H823 0.950 . S
C832 C831 1.398 . S
C832 C833 1.391 . S
C833 H821 0.950 . S
C833 C829 1.393 . S
C833 C832 1.391 . S
C834 H824 0.950 . S
C834 C835 1.386 . S
C834 C836 1.391 . S
C835 C834 1.386 . S
C835 C839 1.393 . S
C836 H825 0.950 . S
C836 C834 1.391 . S
C836 C837 1.400 . S
C837 C831 1.491 . S
C837 C836 1.400 . S
C837 C838 1.398 . S
C838 H826 0.950 . S
C838 C837 1.398 . S
C838 C839 1.391 . S
C839 H827 0.950 . S
C839 C835 1.393 . S
C839 C838 1.391 . S
H840 C848 0.950 . S
H841 C853 0.950 . S
H842 C850 0.950 . S
H843 C852 0.950 . S
H844 C854 0.950 . S
H845 C856 0.950 . S
H846 C858 0.950 . S
H847 C859 0.950 . S
C848 H840 0.950 . S
C848 C849 1.386 . S
C848 C850 1.391 . S
C849 C848 1.386 . S
C849 C853 1.393 . S
C850 H842 0.950 . S
C850 C848 1.391 . S
C850 C851 1.400 . S
C851 C850 1.400 . S
C851 C852 1.398 . S
C851 C857 1.491 1_655 S
C852 H843 0.950 . S
C852 C851 1.398 . S
C852 C853 1.391 . S
C853 H841 0.950 . S
C853 C849 1.393 . S
C853 C852 1.391 . S
C854 H844 0.950 . S
C854 C855 1.386 . S
C854 C856 1.391 . S
C855 C854 1.386 . S
C855 C859 1.393 . S
C856 H845 0.950 . S
C856 C854 1.391 . S
C856 C857 1.400 . S
C857 C851 1.491 1_455 S
C857 C856 1.400 . S
C857 C858 1.398 . S
C858 H846 0.950 . S
C858 C857 1.398 . S
C858 C859 1.391 . S
C859 H847 0.950 . S
C859 C855 1.393 . S
C859 C858 1.391 . S
H860 C868 0.959 . S
H861 C873 0.950 . S
H862 C870 0.950 . S
H863 C872 0.950 . S
H864 C874 0.959 . S
H865 C876 0.950 . S
H866 C878 0.950 . S
H867 C879 0.950 . S
C868 H860 0.959 . S
C868 C869 1.371 1_455 S
C868 C870 1.397 . S
C869 C868 1.371 1_655 S
C869 C873 1.393 . S
C870 H862 0.950 . S
C870 C868 1.397 . S
C870 C871 1.400 1_455 S
C871 C870 1.400 1_655 S
C871 C872 1.398 . S
C871 C877 1.491 1_655 S
C872 H863 0.950 . S
C872 C871 1.398 . S
C872 C873 1.391 . S
C873 H861 0.950 . S
C873 C869 1.393 . S
C873 C872 1.391 . S
C874 H864 0.959 . S
C874 C875 1.371 1_655 S
C874 C876 1.397 . S
C875 C874 1.371 1_455 S
C875 C879 1.393 . S
C876 H865 0.950 . S
C876 C874 1.397 . S
C876 C877 1.400 1_655 S
C877 C871 1.491 1_455 S
C877 C876 1.400 1_455 S
C877 C878 1.398 . S
C878 H866 0.950 . S
C878 C877 1.398 . S
C878 C879 1.391 . S
C879 H867 0.950 . S
C879 C875 1.393 . S
C879 C878 1.391 . S
H880 C888 0.950 . S
H881 C893 0.950 . S
H882 C890 0.950 . S
H883 C892 0.950 . S
H884 C894 0.950 . S
H885 C896 0.950 . S
H886 C898 0.950 . S
H887 C899 0.950 . S
C888 H880 0.950 . S
C888 C889 1.386 . S
C888 C890 1.391 . S
C889 C888 1.386 . S
C889 C893 1.393 . S
C890 H882 0.950 . S
C890 C888 1.391 . S
C890 C891 1.400 . S
C891 C890 1.400 . S
C891 C892 1.398 . S
C891 C897 1.491 . S
C892 H883 0.950 . S
C892 C891 1.398 . S
C892 C893 1.391 . S
C893 H881 0.950 . S
C893 C889 1.393 . S
C893 C892 1.391 . S
C894 H884 0.950 . S
C894 C895 1.386 . S
C894 C896 1.391 . S
C895 C894 1.386 . S
C895 C899 1.393 . S
C896 H885 0.950 . S
C896 C894 1.391 . S
C896 C897 1.400 . S
C897 C891 1.491 . S
C897 C896 1.400 . S
C897 C898 1.398 . S
C898 H886 0.950 . S
C898 C897 1.398 . S
C898 C899 1.391 . S
C899 H887 0.950 . S
C899 C895 1.393 . S
C899 C898 1.391 . S
H900 C908 0.950 . S
H901 C913 0.950 . S
H902 C910 0.950 . S
H903 C912 0.950 . S
H904 C914 0.950 . S
H905 C916 0.950 . S
H906 C918 0.950 . S
H907 C919 0.950 . S
C908 H900 0.950 . S
C908 C909 1.386 . S
C908 C910 1.391 . S
C909 C908 1.386 . S
C909 C913 1.393 . S
C910 H902 0.950 . S
C910 C908 1.391 . S
C910 C911 1.400 . S
C911 C910 1.400 . S
C911 C912 1.398 . S
C911 C917 1.491 . S
C912 H903 0.950 . S
C912 C911 1.398 . S
C912 C913 1.391 . S
C913 H901 0.950 . S
C913 C909 1.393 . S
C913 C912 1.391 . S
C914 H904 0.950 . S
C914 C915 1.386 . S
C914 C916 1.391 . S
C915 C914 1.386 . S
C915 C919 1.393 . S
C916 H905 0.950 . S
C916 C914 1.391 . S
C916 C917 1.400 . S
C917 C911 1.491 . S
C917 C916 1.400 . S
C917 C918 1.398 . S
C918 H906 0.950 . S
C918 C917 1.398 . S
C918 C919 1.391 . S
C919 H907 0.950 . S
C919 C915 1.393 . S
C919 C918 1.391 . S
H920 C928 0.950 . S
H921 C933 0.950 . S
H922 C930 0.950 . S
H923 C932 0.950 . S
H924 C934 0.950 . S
H925 C936 0.950 . S
H926 C938 0.950 . S
H927 C939 0.950 . S
C928 H920 0.950 . S
C928 C929 1.386 . S
C928 C930 1.391 . S
C929 C928 1.386 . S
C929 C933 1.393 . S
C930 H922 0.950 . S
C930 C928 1.391 . S
C930 C931 1.400 . S
C931 C930 1.400 . S
C931 C932 1.398 . S
C931 C937 1.491 1_455 S
C932 H923 0.950 . S
C932 C931 1.398 . S
C932 C933 1.391 . S
C933 H921 0.950 . S
C933 C929 1.393 . S
C933 C932 1.391 . S
C934 H924 0.950 . S
C934 C935 1.386 . S
C934 C936 1.391 . S
C935 C934 1.386 . S
C935 C939 1.393 . S
C936 H925 0.950 . S
C936 C934 1.391 . S
C936 C937 1.400 . S
C937 C931 1.491 1_655 S
C937 C936 1.400 . S
C937 C938 1.398 . S
C938 H926 0.950 . S
C938 C937 1.398 . S
C938 C939 1.391 . S
C939 H927 0.950 . S
C939 C935 1.393 . S
C939 C938 1.391 . S
H940 C948 0.950 . S
H941 C953 0.950 . S
H942 C950 0.950 . S
H943 C952 0.950 . S
H944 C954 0.950 . S
H945 C956 0.950 . S
H946 C958 0.950 . S
H947 C959 0.950 . S
C948 H940 0.950 . S
C948 C949 1.386 . S
C948 C950 1.391 . S
C949 C948 1.386 . S
C949 C953 1.393 . S
C950 H942 0.950 . S
C950 C948 1.391 . S
C950 C951 1.400 . S
C951 C950 1.400 . S
C951 C952 1.398 . S
C951 C957 1.491 1_455 S
C952 H943 0.950 . S
C952 C951 1.398 . S
C952 C953 1.391 . S
C953 H941 0.950 . S
C953 C949 1.393 . S
C953 C952 1.391 . S
C954 H944 0.950 . S
C954 C955 1.386 . S
C954 C956 1.391 . S
C955 C954 1.386 . S
C955 C959 1.393 . S
C956 H945 0.950 . S
C956 C954 1.391 . S
C956 C957 1.400 . S
C957 C951 1.491 1_655 S
C957 C956 1.400 . S
C957 C958 1.398 . S
C958 H946 0.950 . S
C958 C957 1.398 . S
C958 C959 1.391 . S
C959 H947 0.950 . S
C959 C955 1.393 . S
C959 C958 1.391 . S
H960 C968 0.950 . S
H961 C973 0.950 . S
H962 C970 0.950 . S
H963 C972 0.950 . S
H964 C974 0.950 . S
H965 C976 0.950 . S
H966 C978 0.950 . S
H967 C979 0.950 . S
C968 H960 0.950 . S
C968 C969 1.386 . S
C968 C970 1.391 . S
C969 C968 1.386 . S
C969 C973 1.393 . S
C970 H962 0.950 . S
C970 C968 1.391 . S
C970 C971 1.400 . S
C971 C970 1.400 . S
C971 C972 1.398 . S
C971 C977 1.491 . S
C972 H963 0.950 . S
C972 C971 1.398 . S
C972 C973 1.391 . S
C973 H961 0.950 . S
C973 C969 1.393 . S
C973 C972 1.391 . S
C974 H964 0.950 . S
C974 C975 1.386 . S
C974 C976 1.391 . S
C975 C974 1.386 . S
C975 C979 1.393 . S
C976 H965 0.950 . S
C976 C974 1.391 . S
C976 C977 1.400 . S
C977 C971 1.491 . S
C977 C976 1.400 . S
C977 C978 1.398 . S
C978 H966 0.950 . S
C978 C977 1.398 . S
C978 C979 1.391 . S
C979 H967 0.950 . S
C979 C975 1.393 . S
C979 C978 1.391 . S
H980 C988 0.950 . S
H981 C993 0.950 . S
H982 C990 0.950 . S
H983 C992 0.950 . S
H984 C994 0.950 . S
H985 C996 0.950 . S
H986 C998 0.950 . S
H987 C999 0.950 . S
C988 H980 0.950 . S
C988 C989 1.386 . S
C988 C990 1.391 . S
C989 C988 1.386 . S
C989 C993 1.393 . S
C990 H982 0.950 . S
C990 C988 1.391 . S
C990 C991 1.400 . S
C991 C990 1.400 . S
C991 C992 1.398 . S
C991 C997 1.491 . S
C992 H983 0.950 . S
C992 C991 1.398 . S
C992 C993 1.391 . S
C993 H981 0.950 . S
C993 C989 1.393 . S
C993 C992 1.391 . S
C994 H984 0.950 . S
C994 C995 1.386 . S
C994 C996 1.391 . S
C995 C994 1.386 . S
C995 C999 1.393 . S
C996 H985 0.950 . S
C996 C994 1.391 . S
C996 C997 1.400 . S
C997 C991 1.491 . S
C997 C996 1.400 . S
C997 C998 1.398 . S
C998 H986 0.950 . S
C998 C997 1.398 . S
C998 C999 1.391 . S
C999 H987 0.950 . S
C999 C995 1.393 . S
C999 C998 1.391 . S
H1000 C1008 0.950 . S
H1001 C1013 0.950 . S
H1002 C1010 0.950 . S
H1003 C1012 0.950 . S
H1004 C1014 0.950 . S
H1005 C1016 0.950 . S
H1006 C1018 0.950 . S
H1007 C1019 0.950 . S
C1008 H1000 0.950 . S
C1008 C1009 1.386 . S
C1008 C1010 1.391 . S
C1009 C1008 1.386 . S
C1009 C1013 1.393 . S
C1010 H1002 0.950 . S
C1010 C1008 1.391 . S
C1010 C1011 1.400 . S
C1011 C1010 1.400 . S
C1011 C1012 1.398 . S
C1011 C1017 1.491 . S
C1012 H1003 0.950 . S
C1012 C1011 1.398 . S
C1012 C1013 1.391 . S
C1013 H1001 0.950 . S
C1013 C1009 1.393 . S
C1013 C1012 1.391 . S
C1014 H1004 0.950 . S
C1014 C1015 1.386 . S
C1014 C1016 1.391 . S
C1015 C1014 1.386 . S
C1015 C1019 1.393 . S
C1016 H1005 0.950 . S
C1016 C1014 1.391 . S
C1016 C1017 1.400 . S
C1017 C1011 1.491 . S
C1017 C1016 1.400 . S
C1017 C1018 1.398 . S
C1018 H1006 0.950 . S
C1018 C1017 1.398 . S
C1018 C1019 1.391 . S
C1019 H1007 0.950 . S
C1019 C1015 1.393 . S
C1019 C1018 1.391 . S
H1020 C1028 0.950 . S
H1021 C1033 0.950 . S
H1022 C1030 0.950 . S
H1023 C1032 0.950 . S
H1024 C1034 0.950 . S
H1025 C1036 0.950 . S
H1026 C1038 0.950 . S
H1027 C1039 0.950 . S
C1028 H1020 0.950 . S
C1028 C1029 1.386 . S
C1028 C1030 1.391 1_655 S
C1029 C1028 1.386 . S
C1029 C1033 1.393 . S
C1030 H1022 0.950 . S
C1030 C1028 1.391 1_455 S
C1030 C1031 1.400 . S
C1031 C1030 1.400 . S
C1031 C1032 1.398 . S
C1031 C1037 1.491 . S
C1032 H1023 0.950 . S
C1032 C1031 1.398 . S
C1032 C1033 1.391 1_455 S
C1033 H1021 0.950 . S
C1033 C1029 1.393 . S
C1033 C1032 1.391 1_655 S
C1034 H1024 0.950 . S
C1034 C1035 1.386 . S
C1034 C1036 1.391 . S
C1035 C1034 1.386 . S
C1035 C1039 1.393 . S
C1036 H1025 0.950 . S
C1036 C1034 1.391 . S
C1036 C1037 1.400 . S
C1037 C1031 1.491 . S
C1037 C1036 1.400 . S
C1037 C1038 1.398 . S
C1038 H1026 0.950 . S
C1038 C1037 1.398 . S
C1038 C1039 1.391 . S
C1039 H1027 0.950 . S
C1039 C1035 1.393 . S
C1039 C1038 1.391 . S
H1040 C1048 0.950 . S
H1041 C1053 0.950 . S
H1042 C1050 0.950 . S
H1043 C1052 0.950 . S
H1044 C1054 0.950 . S
H1045 C1056 0.950 . S
H1046 C1058 0.950 . S
H1047 C1059 0.950 . S
C1048 H1040 0.950 . S
C1048 C1049 1.386 . S
C1048 C1050 1.391 . S
C1049 C1048 1.386 . S
C1049 C1053 1.393 . S
C1050 H1042 0.950 . S
C1050 C1048 1.391 . S
C1050 C1051 1.400 . S
C1051 C1050 1.400 . S
C1051 C1052 1.398 . S
C1051 C1057 1.491 . S
C1052 H1043 0.950 . S
C1052 C1051 1.398 . S
C1052 C1053 1.391 . S
C1053 H1041 0.950 . S
C1053 C1049 1.393 . S
C1053 C1052 1.391 . S
C1054 H1044 0.950 . S
C1054 C1055 1.386 . S
C1054 C1056 1.391 . S
C1055 C1054 1.386 . S
C1055 C1059 1.393 . S
C1056 H1045 0.950 . S
C1056 C1054 1.391 . S
C1056 C1057 1.400 . S
C1057 C1051 1.491 . S
C1057 C1056 1.400 . S
C1057 C1058 1.398 . S
C1058 H1046 0.950 . S
C1058 C1057 1.398 . S
C1058 C1059 1.391 . S
C1059 H1047 0.950 . S
C1059 C1055 1.393 . S
C1059 C1058 1.391 . S
H1060 C1068 0.950 . S
H1061 C1073 0.950 . S
H1062 C1070 0.950 . S
H1063 C1072 0.950 . S
H1064 C1074 0.950 . S
H1065 C1076 0.950 . S
H1066 C1078 0.950 . S
H1067 C1079 0.950 . S
C1068 H1060 0.950 . S
C1068 C1069 1.386 . S
C1068 C1070 1.391 . S
C1069 C1068 1.386 . S
C1069 C1073 1.393 . S
C1070 H1062 0.950 . S
C1070 C1068 1.391 . S
C1070 C1071 1.400 . S
C1071 C1070 1.400 . S
C1071 C1072 1.398 . S
C1071 C1077 1.491 . S
C1072 H1063 0.950 . S
C1072 C1071 1.398 . S
C1072 C1073 1.391 . S
C1073 H1061 0.950 . S
C1073 C1069 1.393 . S
C1073 C1072 1.391 . S
C1074 H1064 0.950 . S
C1074 C1075 1.386 . S
C1074 C1076 1.391 . S
C1075 C1074 1.386 . S
C1075 C1079 1.393 . S
C1076 H1065 0.950 . S
C1076 C1074 1.391 . S
C1076 C1077 1.400 . S
C1077 C1071 1.491 . S
C1077 C1076 1.400 . S
C1077 C1078 1.398 . S
C1078 H1066 0.950 . S
C1078 C1077 1.398 . S
C1078 C1079 1.391 . S
C1079 H1067 0.950 . S
C1079 C1075 1.393 . S
C1079 C1078 1.391 . S
H1080 C1088 0.950 . S
H1081 C1093 0.950 . S
H1082 C1090 0.950 . S
H1083 C1092 0.950 . S
H1084 C1094 0.950 . S
H1085 C1096 0.950 . S
H1086 C1098 0.950 . S
H1087 C1099 0.950 . S
C1088 H1080 0.950 . S
C1088 C1089 1.386 . S
C1088 C1090 1.391 . S
C1089 C1088 1.386 . S
C1089 C1093 1.393 . S
C1090 H1082 0.950 . S
C1090 C1088 1.391 . S
C1090 C1091 1.400 . S
C1091 C1090 1.400 . S
C1091 C1092 1.398 . S
C1091 C1097 1.491 . S
C1092 H1083 0.950 . S
C1092 C1091 1.398 . S
C1092 C1093 1.391 . S
C1093 H1081 0.950 . S
C1093 C1089 1.393 . S
C1093 C1092 1.391 . S
C1094 H1084 0.950 . S
C1094 C1095 1.386 . S
C1094 C1096 1.391 . S
C1095 C1094 1.386 . S
C1095 C1099 1.393 . S
C1096 H1085 0.950 . S
C1096 C1094 1.391 . S
C1096 C1097 1.400 . S
C1097 C1091 1.491 . S
C1097 C1096 1.400 . S
C1097 C1098 1.398 . S
C1098 H1086 0.950 . S
C1098 C1097 1.398 . S
C1098 C1099 1.391 . S
C1099 H1087 0.950 . S
C1099 C1095 1.393 . S
C1099 C1098 1.391 . S
H1100 C1108 0.950 . S
H1101 C1113 0.950 . S
H1102 C1110 0.950 . S
H1103 C1112 0.950 . S
H1104 C1114 0.950 1_455 S
H1105 C1116 0.950 . S
H1106 C1118 0.950 . S
H1107 C1119 0.950 . S
C1108 H1100 0.950 . S
C1108 C1109 1.386 . S
C1108 C1110 1.391 . S
C1109 C1108 1.386 . S
C1109 C1113 1.393 . S
C1110 H1102 0.950 . S
C1110 C1108 1.391 . S
C1110 C1111 1.400 . S
C1111 C1110 1.400 . S
C1111 C1112 1.398 . S
C1111 C1117 1.491 . S
C1112 H1103 0.950 . S
C1112 C1111 1.398 . S
C1112 C1113 1.391 . S
C1113 H1101 0.950 . S
C1113 C1109 1.393 . S
C1113 C1112 1.391 . S
C1114 H1104 0.950 1_655 S
C1114 C1115 1.386 1_655 S
C1114 C1116 1.391 . S
C1115 C1114 1.386 1_455 S
C1115 C1119 1.393 . S
C1116 H1105 0.950 . S
C1116 C1114 1.391 . S
C1116 C1117 1.400 . S
C1117 C1111 1.491 . S
C1117 C1116 1.400 . S
C1117 C1118 1.398 . S
C1118 H1106 0.950 . S
C1118 C1117 1.398 . S
C1118 C1119 1.391 1_655 S
C1119 H1107 0.950 . S
C1119 C1115 1.393 . S
C1119 C1118 1.391 1_455 S
H1120 C1128 0.950 . S
H1121 C1133 0.950 . S
H1122 C1130 0.950 . S
H1123 C1132 0.950 . S
H1124 C1134 0.950 . S
H1125 C1136 0.950 . S
H1126 C1138 0.950 . S
H1127 C1139 0.950 . S
C1128 H1120 0.950 . S
C1128 C1129 1.386 . S
C1128 C1130 1.391 . S
C1129 C1128 1.386 . S
C1129 C1133 1.393 . S
C1130 H1122 0.950 . S
C1130 C1128 1.391 . S
C1130 C1131 1.400 . S
C1131 C1130 1.400 . S
C1131 C1132 1.398 . S
C1131 C1137 1.491 . S
C1132 H1123 0.950 . S
C1132 C1131 1.398 . S
C1132 C1133 1.391 . S
C1133 H1121 0.950 . S
C1133 C1129 1.393 . S
C1133 C1132 1.391 . S
C1134 H1124 0.950 . S
C1134 C1135 1.386 . S
C1134 C1136 1.391 . S
C1135 C1134 1.386 . S
C1135 C1139 1.393 . S
C1136 H1125 0.950 . S
C1136 C1134 1.391 . S
C1136 C1137 1.400 . S
C1137 C1131 1.491 . S
C1137 C1136 1.400 . S
C1137 C1138 1.398 . S
C1138 H1126 0.950 . S
C1138 C1137 1.398 . S
C1138 C1139 1.391 . S
C1139 H1127 0.950 . S
C1139 C1135 1.393 . S
C1139 C1138 1.391 . S
H1140 C1148 0.950 . S
H1141 C1153 0.950 . S
H1142 C1150 0.950 . S
H1143 C1152 0.950 . S
H1144 C1154 0.950 . S
H1145 C1156 0.950 . S
H1146 C1158 0.950 . S
H1147 C1159 0.950 . S
C1148 H1140 0.950 . S
C1148 C1149 1.386 . S
C1148 C1150 1.391 . S
C1149 C1148 1.386 . S
C1149 C1153 1.393 . S
C1150 H1142 0.950 . S
C1150 C1148 1.391 . S
C1150 C1151 1.400 . S
C1151 C1150 1.400 . S
C1151 C1152 1.398 . S
C1151 C1157 1.491 . S
C1152 H1143 0.950 . S
C1152 C1151 1.398 . S
C1152 C1153 1.391 . S
C1153 H1141 0.950 . S
C1153 C1149 1.393 . S
C1153 C1152 1.391 . S
C1154 H1144 0.950 . S
C1154 C1155 1.386 . S
C1154 C1156 1.391 1_455 S
C1155 C1154 1.386 . S
C1155 C1159 1.393 . S
C1156 H1145 0.950 . S
C1156 C1154 1.391 1_655 S
C1156 C1157 1.400 . S
C1157 C1151 1.491 . S
C1157 C1156 1.400 . S
C1157 C1158 1.398 . S
C1158 H1146 0.950 . S
C1158 C1157 1.398 . S
C1158 C1159 1.391 1_655 S
C1159 H1147 0.950 . S
C1159 C1155 1.393 . S
C1159 C1158 1.391 1_455 S
H1160 C1168 0.950 . S
H1161 C1173 0.950 . S
H1162 C1170 0.950 . S
H1163 C1172 0.950 . S
H1164 C1174 0.950 . S
H1165 C1176 0.950 . S
H1166 C1178 0.950 . S
H1167 C1179 0.950 . S
C1168 H1160 0.950 . S
C1168 C1169 1.386 . S
C1168 C1170 1.391 . S
C1169 C1168 1.386 . S
C1169 C1173 1.393 . S
C1170 H1162 0.950 . S
C1170 C1168 1.391 . S
C1170 C1171 1.400 . S
C1171 C1170 1.400 . S
C1171 C1172 1.398 . S
C1171 C1177 1.491 . S
C1172 H1163 0.950 . S
C1172 C1171 1.398 . S
C1172 C1173 1.391 . S
C1173 H1161 0.950 . S
C1173 C1169 1.393 . S
C1173 C1172 1.391 . S
C1174 H1164 0.950 . S
C1174 C1175 1.386 . S
C1174 C1176 1.391 . S
C1175 C1174 1.386 . S
C1175 C1179 1.393 . S
C1176 H1165 0.950 . S
C1176 C1174 1.391 . S
C1176 C1177 1.400 . S
C1177 C1171 1.491 . S
C1177 C1176 1.400 . S
C1177 C1178 1.398 . S
C1178 H1166 0.950 . S
C1178 C1177 1.398 . S
C1178 C1179 1.391 . S
C1179 H1167 0.950 . S
C1179 C1175 1.393 . S
C1179 C1178 1.391 . S
H1180 C1188 0.950 . S
H1181 C1193 0.950 1_565 S
H1182 C1190 0.950 . S
H1183 C1192 0.950 . S
H1184 C1194 0.950 . S
H1185 C1196 0.950 . S
H1186 C1198 0.950 . S
H1187 C1199 0.950 . S
C1188 H1180 0.950 . S
C1188 C1189 1.386 . S
C1188 C1190 1.391 . S
C1189 C1188 1.386 . S
C1189 C1193 1.393 . S
C1190 H1182 0.950 . S
C1190 C1188 1.391 . S
C1190 C1191 1.400 . S
C1191 C1190 1.400 . S
C1191 C1192 1.398 . S
C1191 C1197 1.491 . S
C1192 H1183 0.950 . S
C1192 C1191 1.398 . S
C1192 C1193 1.391 . S
C1193 H1181 0.950 1_545 S
C1193 C1189 1.393 . S
C1193 C1192 1.391 . S
C1194 H1184 0.950 . S
C1194 C1195 1.386 . S
C1194 C1196 1.391 . S
C1195 C1194 1.386 . S
C1195 C1199 1.393 . S
C1196 H1185 0.950 . S
C1196 C1194 1.391 . S
C1196 C1197 1.400 . S
C1197 C1191 1.491 . S
C1197 C1196 1.400 . S
C1197 C1198 1.398 . S
C1198 H1186 0.950 . S
C1198 C1197 1.398 . S
C1198 C1199 1.391 . S
C1199 H1187 0.950 . S
C1199 C1195 1.393 . S
C1199 C1198 1.391 . S
H1200 C1208 0.950 . S
H1201 C1213 0.950 . S
H1202 C1210 0.950 . S
H1203 C1212 0.950 . S
H1204 C1214 0.950 . S
H1205 C1216 0.950 . S
H1206 C1218 0.950 . S
H1207 C1219 0.950 . S
C1208 H1200 0.950 . S
C1208 C1209 1.386 . S
C1208 C1210 1.391 . S
C1209 C1208 1.386 . S
C1209 C1213 1.393 . S
C1210 H1202 0.950 . S
C1210 C1208 1.391 . S
C1210 C1211 1.400 . S
C1211 C1210 1.400 . S
C1211 C1212 1.398 . S
C1211 C1217 1.491 . S
C1212 H1203 0.950 . S
C1212 C1211 1.398 . S
C1212 C1213 1.391 . S
C1213 H1201 0.950 . S
C1213 C1209 1.393 . S
C1213 C1212 1.391 . S
C1214 H1204 0.950 . S
C1214 C1215 1.386 . S
C1214 C1216 1.391 . S
C1215 C1214 1.386 . S
C1215 C1219 1.393 . S
C1216 H1205 0.950 . S
C1216 C1214 1.391 . S
C1216 C1217 1.400 . S
C1217 C1211 1.491 . S
C1217 C1216 1.400 . S
C1217 C1218 1.398 . S
C1218 H1206 0.950 . S
C1218 C1217 1.398 . S
C1218 C1219 1.391 . S
C1219 H1207 0.950 . S
C1219 C1215 1.393 . S
C1219 C1218 1.391 . S
H1220 C1228 0.950 . S
H1221 C1233 0.950 . S
H1222 C1230 0.950 . S
H1223 C1232 0.950 . S
H1224 C1234 0.950 . S
H1225 C1236 0.950 . S
H1226 C1238 0.950 . S
H1227 C1239 0.950 . S
C1228 H1220 0.950 . S
C1228 C1229 1.386 . S
C1228 C1230 1.391 1_655 S
C1229 C1228 1.386 . S
C1229 C1233 1.393 . S
C1230 H1222 0.950 . S
C1230 C1228 1.391 1_455 S
C1230 C1231 1.400 . S
C1231 C1230 1.400 . S
C1231 C1232 1.398 . S
C1231 C1237 1.491 . S
C1232 H1223 0.950 . S
C1232 C1231 1.398 . S
C1232 C1233 1.391 1_455 S
C1233 H1221 0.950 . S
C1233 C1229 1.393 . S
C1233 C1232 1.391 1_655 S
C1234 H1224 0.950 . S
C1234 C1235 1.386 . S
C1234 C1236 1.391 . S
C1235 C1234 1.386 . S
C1235 C1239 1.393 . S
C1236 H1225 0.950 . S
C1236 C1234 1.391 . S
C1236 C1237 1.400 . S
C1237 C1231 1.491 . S
C1237 C1236 1.400 . S
C1237 C1238 1.398 . S
C1238 H1226 0.950 . S
C1238 C1237 1.398 . S
C1238 C1239 1.391 . S
C1239 H1227 0.950 . S
C1239 C1235 1.393 . S
C1239 C1238 1.391 . S
H1240 C1248 0.950 . S
H1241 C1253 0.950 . S
H1242 C1250 0.950 . S
H1243 C1252 0.950 . S
H1244 C1254 0.950 . S
H1245 C1256 0.950 . S
H1246 C1258 0.950 . S
H1247 C1259 0.950 . S
C1248 H1240 0.950 . S
C1248 C1249 1.386 . S
C1248 C1250 1.391 . S
C1249 C1248 1.386 . S
C1249 C1253 1.393 . S
C1250 H1242 0.950 . S
C1250 C1248 1.391 . S
C1250 C1251 1.400 . S
C1251 C1250 1.400 . S
C1251 C1252 1.398 . S
C1251 C1257 1.491 . S
C1252 H1243 0.950 . S
C1252 C1251 1.398 . S
C1252 C1253 1.391 . S
C1253 H1241 0.950 . S
C1253 C1249 1.393 . S
C1253 C1252 1.391 . S
C1254 H1244 0.950 . S
C1254 C1255 1.386 . S
C1254 C1256 1.391 . S
C1255 C1254 1.386 . S
C1255 C1259 1.393 . S
C1256 H1245 0.950 . S
C1256 C1254 1.391 . S
C1256 C1257 1.400 . S
C1257 C1251 1.491 . S
C1257 C1256 1.400 . S
C1257 C1258 1.398 . S
C1258 H1246 0.950 . S
C1258 C1257 1.398 . S
C1258 C1259 1.391 . S
C1259 H1247 0.950 . S
C1259 C1255 1.393 . S
C1259 C1258 1.391 . S
H1260 C1268 0.950 . S
H1261 C1273 0.950 . S
H1262 C1270 0.950 . S
H1263 C1272 0.950 . S
H1264 C1274 0.972 . S
H1265 C1276 0.950 1_545 S
H1266 C1278 0.950 . S
H1267 C1279 0.950 . S
C1268 H1260 0.950 . S
C1268 C1269 1.386 . S
C1268 C1270 1.391 . S
C1269 C1268 1.386 . S
C1269 C1273 1.393 . S
C1270 H1262 0.950 . S
C1270 C1268 1.391 . S
C1270 C1271 1.400 . S
C1271 C1270 1.400 . S
C1271 C1272 1.398 . S
C1271 C1277 1.491 . S
C1272 H1263 0.950 . S
C1272 C1271 1.398 . S
C1272 C1273 1.391 . S
C1273 H1261 0.950 . S
C1273 C1269 1.393 . S
C1273 C1272 1.391 . S
C1274 H1264 0.972 . S
C1274 C1275 1.372 1_545 S
C1274 C1276 1.383 1_545 S
C1275 C1274 1.372 1_565 S
C1275 C1279 1.393 . S
C1276 H1265 0.950 1_565 S
C1276 C1274 1.383 1_565 S
C1276 C1277 1.400 . S
C1277 C1271 1.491 . S
C1277 C1276 1.400 . S
C1277 C1278 1.398 . S
C1278 H1266 0.950 . S
C1278 C1277 1.398 . S
C1278 C1279 1.391 . S
C1279 H1267 0.950 . S
C1279 C1275 1.393 . S
C1279 C1278 1.391 . S
C329 C8 0.697 . S
C335 C259 0.697 . S
C349 C119 0.671 . S
C355 C28 0.671 . S
C369 C48 0.739 . S
C375 C299 0.739 . S
C389 C68 0.753 . S
C395 C159 0.753 . S
C409 C99 0.714 . S
C415 C168 0.714 . S
C429 C208 0.665 . S
C435 C139 0.665 . S
C449 C279 0.760 . S
C455 C188 0.760 . S
C469 C228 0.753 . S
C475 C319 0.753 . S
C489 C189 1.928 . S
C495 C19 1.896 . S
C509 C39 1.899 . S
C515 C209 1.926 . S
C529 C59 1.894 . S
C535 C229 1.927 . S
C549 C169 1.926 . S
C555 C79 1.892 . S
C569 C261 1.917 . S
C575 C88 1.883 . S
C589 C281 1.928 . S
C595 C108 1.897 . S
C609 C128 1.884 . S
C615 C301 1.917 . S
C629 C241 1.928 . S
C635 C148 1.899 . S
C649 C179 1.886 . S
C655 C29 1.918 . S
C669 C199 1.883 1_565 S
C675 C49 1.917 . S
C689 C219 1.895 . S
C695 C69 1.927 . S
C709 C9 1.926 . S
C715 C239 1.899 1_545 S
C729 C101 1.927 . S
C735 C248 1.900 . S
C749 C268 1.891 1_545 S
C755 C121 1.920 . S
C769 C141 1.928 . S
C775 C288 1.899 . S
C789 C308 1.898 1_565 S
C795 C81 1.924 . S
C809 C16 2.142 . S
C815 C216 2.126 . S
C829 C36 2.124 . S
C835 C236 2.138 . S
C849 C176 2.134 . S
C855 C56 2.142 . S
C869 C76 2.137 . S
C875 C196 2.125 . S
C889 C86 2.139 . S
C895 C286 2.138 . S
C909 C106 2.126 . S
C915 C306 2.134 . S
C929 C246 2.126 . S
C935 C126 2.133 . S
C949 C146 2.132 . S
C955 C266 2.127 . S
C969 C1 1.071 . S
C975 C156 1.130 . S
C989 C256 1.139 . S
C995 C21 1.080 . S
C1009 C41 1.072 . S
C1015 C116 1.134 . S
C1029 C61 1.081 . S
C1035 C296 1.134 . S
C1049 C89 1.099 . S
C1055 C66 1.144 . S
C1069 C166 1.156 . S
C1075 C109 1.113 . S
C1089 C129 1.110 . S
C1095 C26 1.155 . S
C1109 C206 1.156 . S
C1115 C149 1.115 . S
C1129 C161 1.110 . S
C1135 C316 1.155 . S
C1149 C96 1.155 . S
C1155 C181 1.109 . S
C1169 C276 1.153 . S
C1175 C201 1.112 . S
C1189 C221 1.076 . S
C1195 C136 1.132 . S
C1209 C249 1.085 . S
C1215 C226 1.142 . S
C1229 C269 1.102 . S
C1235 C6 1.152 . S
C1249 C186 1.154 . S
C1255 C289 1.114 . S
C1269 C46 1.155 . S
C1275 C309 1.115 . S
