# Generated by pormake.
# Topology vmd, (6)-cn, num edge types: 1
# Building blocks:
#     Node 0, Type 0, BuildingBlock: IZENUY_clean_sbu_0, # of connection points: 6
#     Node 1, Type 0, BuildingBlock: IZENUY_clean_sbu_0, # of connection points: 6
#     Node 2, Type 0, BuildingBlock: IZENUY_clean_sbu_0, # of connection points: 6
#     Node 3, Type 0, BuildingBlock: IZENUY_clean_sbu_0, # of connection points: 6
#     Node 4, Type 0, BuildingBlock: IZENUY_clean_sbu_0, # of connection points: 6
#     Node 5, Type 0, BuildingBlock: IZENUY_clean_sbu_0, # of connection points: 6
#     Node 6, Type 0, BuildingBlock: IZENUY_clean_sbu_0, # of connection points: 6
#     Node 7, Type 0, BuildingBlock: IZENUY_clean_sbu_0, # of connection points: 6
#     Edge 8, Type (0, 0), BuildingBlock: UVAHIK_clean_linker_0, # of connection points: 2
#     Edge 9, Type (0, 0), BuildingBlock: UVAHIK_clean_linker_0, # of connection points: 2
#     Edge 10, Type (0, 0), BuildingBlock: UVAHIK_clean_linker_0, # of connection points: 2
#     Edge 11, Type (0, 0), BuildingBlock: UVAHIK_clean_linker_0, # of connection points: 2
#     Edge 12, Type (0, 0), BuildingBlock: UVAHIK_clean_linker_0, # of connection points: 2
#     Edge 13, Type (0, 0), BuildingBlock: UVAHIK_clean_linker_0, # of connection points: 2
#     Edge 14, Type (0, 0), BuildingBlock: UVAHIK_clean_linker_0, # of connection points: 2
#     Edge 15, Type (0, 0), BuildingBlock: UVAHIK_clean_linker_0, # of connection points: 2
#     Edge 16, Type (0, 0), BuildingBlock: UVAHIK_clean_linker_0, # of connection points: 2
#     Edge 17, Type (0, 0), BuildingBlock: UVAHIK_clean_linker_0, # of connection points: 2
#     Edge 18, Type (0, 0), BuildingBlock: UVAHIK_clean_linker_0, # of connection points: 2
#     Edge 19, Type (0, 0), BuildingBlock: UVAHIK_clean_linker_0, # of connection points: 2
#     Edge 20, Type (0, 0), BuildingBlock: UVAHIK_clean_linker_0, # of connection points: 2
#     Edge 21, Type (0, 0), BuildingBlock: UVAHIK_clean_linker_0, # of connection points: 2
#     Edge 22, Type (0, 0), BuildingBlock: UVAHIK_clean_linker_0, # of connection points: 2
#     Edge 23, Type (0, 0), BuildingBlock: UVAHIK_clean_linker_0, # of connection points: 2
#     Edge 24, Type (0, 0), BuildingBlock: UVAHIK_clean_linker_0, # of connection points: 2
#     Edge 25, Type (0, 0), BuildingBlock: UVAHIK_clean_linker_0, # of connection points: 2
#     Edge 26, Type (0, 0), BuildingBlock: UVAHIK_clean_linker_0, # of connection points: 2
#     Edge 27, Type (0, 0), BuildingBlock: UVAHIK_clean_linker_0, # of connection points: 2
#     Edge 28, Type (0, 0), BuildingBlock: UVAHIK_clean_linker_0, # of connection points: 2
#     Edge 29, Type (0, 0), BuildingBlock: UVAHIK_clean_linker_0, # of connection points: 2
#     Edge 30, Type (0, 0), BuildingBlock: UVAHIK_clean_linker_0, # of connection points: 2
#     Edge 31, Type (0, 0), BuildingBlock: UVAHIK_clean_linker_0, # of connection points: 2
# Relax obj value: 0.251
# Max RMSD: 0.249
# Mean RMSD: 0.249
data_MOF--net-vmd--node1-IZENUY_clean_sbu_0--edge1-UVAHIK_clean_linker_0
_symmetry_space_group_name_H-M    P1
_symmetry_Int_Tables_number       1
_symmetry_cell_setting            triclinic
loop_
_symmetry_equiv_pos_as_xyz
'x, y, z'
_cell_length_a     60.875999
_cell_length_b     33.948411
_cell_length_c     36.3786
_cell_angle_alpha  89.785978
_cell_angle_beta   98.206663
_cell_angle_gamma 90.116897
loop_
_atom_site_label
_atom_site_type_symbol
_atom_site_fract_x
_atom_site_fract_y
_atom_site_fract_z
_atom_type_partial_charge
Fe0 Fe 0.15937 0.43065 0.25846 0.0
Fe1 Fe 0.16096 0.35619 0.30598 0.0
O2 O 0.17285 0.38651 0.27449 0.0
Fe3 Fe 0.19816 0.37321 0.25927 0.0
O4 O 0.21163 0.41844 0.27712 0.0
O5 O 0.1849 0.45735 0.2521 0.0
O6 O 0.16254 0.45024 0.30507 0.0
C7 C 0.15556 0.43321 0.33203 0.0
C8 C 0.17159 0.40317 0.1944 0.0
O9 O 0.14927 0.39752 0.32953 0.0
C10 C 0.17889 0.30076 0.25924 0.0
O11 O 0.13123 0.41259 0.26177 0.0
O12 O 0.13563 0.34955 0.27357 0.0
O13 O 0.19049 0.39451 0.21228 0.0
O14 O 0.15572 0.41303 0.21124 0.0
C15 C 0.20456 0.35222 0.33593 0.0
O16 O 0.17119 0.30949 0.28881 0.0
O17 O 0.18665 0.32718 0.24035 0.0
C18 C 0.1233 0.37806 0.26183 0.0
O19 O 0.18511 0.36126 0.34036 0.0
O20 O 0.21 0.34933 0.30361 0.0
C21 C 0.20484 0.45232 0.26681 0.0
Fe22 Fe 0.85014 0.43418 0.23662 0.0
Fe23 Fe 0.84897 0.36019 0.18916 0.0
O24 O 0.83681 0.39007 0.22041 0.0
Fe25 Fe 0.81137 0.37633 0.23503 0.0
O26 O 0.79791 0.4215 0.21688 0.0
O27 O 0.82449 0.4607 0.24201 0.0
O28 O 0.84739 0.45396 0.19001 0.0
C29 C 0.85491 0.43742 0.16348 0.0
C30 C 0.83714 0.40715 0.30036 0.0
O31 O 0.86119 0.40177 0.16621 0.0
C32 C 0.83065 0.3041 0.23527 0.0
O33 O 0.87842 0.41608 0.23439 0.0
O34 O 0.87393 0.35313 0.22221 0.0
O35 O 0.81854 0.39748 0.28202 0.0
O36 O 0.85327 0.41662 0.2839 0.0
C37 C 0.80557 0.35647 0.15835 0.0
O38 O 0.8384 0.31324 0.20577 0.0
O39 O 0.82287 0.33029 0.25419 0.0
C40 C 0.88619 0.38142 0.23476 0.0
O41 O 0.82508 0.3658 0.1543 0.0
O42 O 0.79997 0.35273 0.19051 0.0
C43 C 0.80461 0.45543 0.22709 0.0
Fe44 Fe 0.81068 0.63902 0.74054 0.0
Fe45 Fe 0.84491 0.66641 0.69136 0.0
O46 O 0.83516 0.63011 0.72055 0.0
Fe47 Fe 0.84943 0.5847 0.72892 0.0
O48 O 0.82499 0.55593 0.71087 0.0
O49 O 0.80161 0.58764 0.74055 0.0
O50 O 0.79423 0.64383 0.69466 0.0
C51 C 0.7988 0.66762 0.67008 0.0
C52 C 0.83735 0.60487 0.79901 0.0
O53 O 0.81736 0.68477 0.67294 0.0
C54 C 0.88485 0.63503 0.73077 0.0
O55 O 0.81507 0.69224 0.74451 0.0
O56 O 0.84795 0.7032 0.72807 0.0
O57 O 0.84356 0.5802 0.77659 0.0
O58 O 0.8256 0.6343 0.78743 0.0
C59 C 0.84988 0.59826 0.65257 0.0
O60 O 0.8744 0.65452 0.70416 0.0
O61 O 0.87515 0.60915 0.74756 0.0
C62 C 0.83204 0.71387 0.74457 0.0
O63 O 0.84202 0.63262 0.6524 0.0
O64 O 0.85773 0.58152 0.68268 0.0
C65 C 0.80642 0.55811 0.72229 0.0
Fe66 Fe 0.15966 0.5723 0.75739 0.0
Fe67 Fe 0.1984 0.63028 0.75969 0.0
O68 O 0.17277 0.61665 0.77372 0.0
Fe69 Fe 0.16017 0.64674 0.8043 0.0
O70 O 0.14835 0.60508 0.82767 0.0
O71 O 0.16223 0.55269 0.80406 0.0
O72 O 0.18544 0.54606 0.75227 0.0
C73 C 0.2052 0.5512 0.7678 0.0
C74 C 0.12308 0.62394 0.75908 0.0
O75 O 0.21177 0.58511 0.77834 0.0
C76 C 0.17888 0.70254 0.75823 0.0
O77 O 0.15669 0.58996 0.71003 0.0
O78 O 0.19152 0.609 0.71275 0.0
O79 O 0.13513 0.65277 0.77091 0.0
O80 O 0.13128 0.58966 0.75943 0.0
C81 C 0.20347 0.65177 0.83606 0.0
O82 O 0.1871 0.67622 0.74004 0.0
O83 O 0.17047 0.69368 0.78718 0.0
C84 C 0.17292 0.60006 0.69402 0.0
O85 O 0.2095 0.65427 0.80413 0.0
O86 O 0.18391 0.64239 0.83969 0.0
C87 C 0.15474 0.56946 0.83055 0.0
Fe88 Fe 0.6606 0.9324 0.25769 0.0
Fe89 Fe 0.66191 0.85856 0.30577 0.0
O90 O 0.6737 0.88797 0.27349 0.0
Fe91 Fe 0.69852 0.87347 0.25731 0.0
O92 O 0.71283 0.91837 0.27444 0.0
O93 O 0.68624 0.95801 0.25025 0.0
O94 O 0.66473 0.95222 0.30412 0.0
C95 C 0.65753 0.93605 0.33125 0.0
C96 C 0.67158 0.90438 0.19308 0.0
O97 O 0.65078 0.90063 0.32927 0.0
C98 C 0.67843 0.80194 0.25862 0.0
O99 O 0.63234 0.91537 0.26198 0.0
O100 O 0.63627 0.85229 0.27411 0.0
O101 O 0.6905 0.89465 0.21029 0.0
O102 O 0.65613 0.9146 0.21069 0.0
C103 C 0.70563 0.85288 0.33415 0.0
O104 O 0.67148 0.81128 0.28869 0.0
O105 O 0.6861 0.82786 0.23906 0.0
C106 C 0.62416 0.881 0.26215 0.0
O107 O 0.68652 0.86336 0.33931 0.0
O108 O 0.71055 0.84936 0.30151 0.0
C109 C 0.70624 0.95245 0.26433 0.0
Fe110 Fe 0.35016 0.93117 0.23975 0.0
Fe111 Fe 0.34927 0.85786 0.19144 0.0
O112 O 0.33699 0.88713 0.223 0.0
Fe113 Fe 0.31162 0.87296 0.23757 0.0
O114 O 0.29803 0.91829 0.21997 0.0
O115 O 0.32447 0.95704 0.24617 0.0
O116 O 0.34695 0.95168 0.19339 0.0
C117 C 0.35444 0.93565 0.16656 0.0
C118 C 0.33776 0.90181 0.30311 0.0
O119 O 0.36101 0.90013 0.16872 0.0
C120 C 0.33127 0.80102 0.2372 0.0
O121 O 0.37848 0.91401 0.23658 0.0
O122 O 0.37443 0.85111 0.22424 0.0
O123 O 0.31893 0.8934 0.28484 0.0
O124 O 0.3537 0.91247 0.28669 0.0
C125 C 0.30582 0.85319 0.16072 0.0
O126 O 0.3391 0.81051 0.20786 0.0
O127 O 0.32325 0.82686 0.25618 0.0
C128 C 0.38659 0.87967 0.23639 0.0
O129 O 0.32526 0.86302 0.1567 0.0
O130 O 0.30018 0.84974 0.19288 0.0
C131 C 0.30466 0.95206 0.23084 0.0
Fe132 Fe 0.31283 0.13163 0.73908 0.0
Fe133 Fe 0.34902 0.148 0.6901 0.0
O134 O 0.33762 0.11788 0.72232 0.0
Fe135 Fe 0.35106 0.07346 0.73749 0.0
O136 O 0.32565 0.04712 0.74514 0.0
O137 O 0.29876 0.0866 0.72188 0.0
O138 O 0.3003 0.15565 0.69519 0.0
C139 C 0.30508 0.1527 0.66244 0.0
C140 C 0.34037 0.10071 0.80266 0.0
O141 O 0.32429 0.14329 0.65691 0.0
C142 C 0.38721 0.12551 0.73252 0.0
O143 O 0.32491 0.17748 0.75743 0.0
O144 O 0.33936 0.1949 0.70788 0.0
O145 O 0.3557 0.09075 0.78467 0.0
O146 O 0.32132 0.11028 0.78588 0.0
C147 C 0.35369 0.07081 0.66361 0.0
O148 O 0.37489 0.15423 0.72131 0.0
O149 O 0.37914 0.09109 0.73281 0.0
C150 C 0.33225 0.20382 0.73793 0.0
O151 O 0.36004 0.10649 0.66574 0.0
O152 O 0.34692 0.05407 0.69087 0.0
C153 C 0.30556 0.05253 0.7315 0.0
Fe154 Fe 0.66297 0.15244 0.80378 0.0
Fe155 Fe 0.66211 0.07748 0.75776 0.0
O156 O 0.67481 0.12265 0.77209 0.0
Fe157 Fe 0.69932 0.13758 0.75513 0.0
O158 O 0.71138 0.1626 0.79864 0.0
O159 O 0.68767 0.1486 0.83714 0.0
O160 O 0.65214 0.11058 0.82844 0.0
C161 C 0.65929 0.07545 0.83149 0.0
C162 C 0.67912 0.20861 0.7552 0.0
O163 O 0.6666 0.05892 0.80478 0.0
C164 C 0.67239 0.10475 0.69215 0.0
O165 O 0.63722 0.15752 0.77212 0.0
O166 O 0.63373 0.094 0.76185 0.0
O167 O 0.68635 0.18233 0.7358 0.0
O168 O 0.67238 0.19968 0.78564 0.0
C169 C 0.70795 0.0592 0.76449 0.0
O170 O 0.65725 0.09398 0.71028 0.0
O171 O 0.6913 0.1153 0.70876 0.0
C172 C 0.6253 0.12822 0.76105 0.0
O173 O 0.688 0.05236 0.75076 0.0
O174 O 0.7141 0.09374 0.77336 0.0
C175 C 0.70675 0.15891 0.83147 0.0
C176 C 0.29261 0.15429 0.59441 0.0
C177 C 0.28995 0.16757 0.63005 0.0
C178 C 0.28217 0.1736 0.56283 0.0
C179 C 0.26168 0.27176 0.53348 0.0
H180 H 0.23979 0.21878 0.44119 0.0
C181 C 0.21583 0.35088 0.40432 0.0
C182 C 0.21921 0.33764 0.36899 0.0
C183 C 0.2259 0.33179 0.43631 0.0
C184 C 0.24618 0.23399 0.46661 0.0
H185 H 0.27324 0.21003 0.66063 0.0
H186 H 0.2546 0.24372 0.60512 0.0
H187 H 0.25122 0.18001 0.49718 0.0
H188 H 0.23678 0.29548 0.33945 0.0
H189 H 0.25466 0.2621 0.39568 0.0
H190 H 0.25658 0.32575 0.50286 0.0
C191 C 0.26506 0.21859 0.60174 0.0
C192 C 0.25257 0.2118 0.49876 0.0
C193 C 0.27546 0.19902 0.63349 0.0
C194 C 0.234 0.30645 0.36633 0.0
C195 C 0.24398 0.28706 0.39847 0.0
C196 C 0.25525 0.29396 0.50132 0.0
C197 C 0.26885 0.20677 0.5661 0.0
C198 C 0.26047 0.2304 0.53256 0.0
C199 C 0.23949 0.29884 0.43373 0.0
C200 C 0.24748 0.27533 0.4675 0.0
H201 H 0.30368 0.13004 0.59094 0.0
H202 H 0.28558 0.16383 0.53591 0.0
H203 H 0.26811 0.28699 0.55886 0.0
H204 H 0.20452 0.37493 0.40717 0.0
H205 H 0.222 0.34151 0.46296 0.0
C206 C 0.73591 0.20609 0.86017 0.0
C207 C 0.72179 0.17397 0.86371 0.0
C208 C 0.74625 0.22557 0.89188 0.0
C209 C 0.75915 0.21769 0.99474 0.0
H210 H 0.75376 0.3315 0.99114 0.0
C211 C 0.77634 0.3108 0.12743 0.0
C212 C 0.79109 0.34224 0.12508 0.0
C213 C 0.76652 0.29176 0.09513 0.0
C214 C 0.75546 0.29975 0.99251 0.0
H215 H 0.70872 0.13516 0.90285 0.0
H216 H 0.72667 0.16887 0.95783 0.0
H217 H 0.7426 0.2931 0.93499 0.0
H218 H 0.80582 0.38044 0.08735 0.0
H219 H 0.78858 0.34758 0.03121 0.0
H220 H 0.77186 0.22435 0.05232 0.0
C221 C 0.72985 0.17921 0.93088 0.0
C222 C 0.74926 0.27777 0.96029 0.0
C223 C 0.71948 0.15997 0.89934 0.0
C224 C 0.79455 0.35615 0.08993 0.0
C225 C 0.78463 0.3374 0.05775 0.0
C226 C 0.76528 0.23965 0.02696 0.0
C227 C 0.74276 0.213 0.92754 0.0
C228 C 0.75098 0.23647 0.96107 0.0
C229 C 0.77113 0.30416 0.06006 0.0
C230 C 0.76345 0.2809 0.02622 0.0
H231 H 0.73786 0.21763 0.83302 0.0
H232 H 0.7564 0.2512 0.88848 0.0
H233 H 0.7609 0.18596 0.99618 0.0
H234 H 0.77349 0.29936 0.15419 0.0
H235 H 0.75591 0.26653 0.09766 0.0
C236 C 0.73121 0.80072 0.36421 0.0
C237 C 0.72002 0.83655 0.36665 0.0
C238 C 0.7398 0.78016 0.39658 0.0
C239 C 0.72991 0.77162 0.49428 0.0
H240 H 0.78431 0.71094 0.50795 0.0
C241 C 0.77178 0.714 0.63636 0.0
C242 C 0.7826 0.67754 0.63768 0.0
C243 C 0.7618 0.72946 0.6024 0.0
C244 C 0.76887 0.72723 0.50428 0.0
H245 H 0.7106 0.88058 0.40436 0.0
H246 H 0.72632 0.84575 0.46059 0.0
H247 H 0.77396 0.74792 0.45038 0.0
H248 H 0.79134 0.62815 0.60533 0.0
H249 H 0.77359 0.65485 0.54576 0.0
H250 H 0.72501 0.75156 0.54839 0.0
C251 C 0.72782 0.83267 0.43395 0.0
C252 C 0.76299 0.74855 0.47134 0.0
C253 C 0.71909 0.85291 0.40177 0.0
C254 C 0.7825 0.65587 0.60492 0.0
C255 C 0.77269 0.67145 0.57087 0.0
C256 C 0.73582 0.75048 0.5272 0.0
C257 C 0.73743 0.79529 0.43181 0.0
C258 C 0.7436 0.77149 0.46618 0.0
C259 C 0.76284 0.70899 0.56912 0.0
C260 C 0.75548 0.7284 0.53278 0.0
H261 H 0.73185 0.7872 0.33745 0.0
H262 H 0.74709 0.75143 0.39393 0.0
H263 H 0.71453 0.78809 0.49086 0.0
H264 H 0.77231 0.73165 0.66124 0.0
H265 H 0.75459 0.75863 0.60197 0.0
C266 C 0.27571 0.80855 0.13042 0.0
C267 C 0.29143 0.83832 0.12751 0.0
C268 C 0.26555 0.78909 0.09856 0.0
C269 C 0.27646 0.76562 0.00401 0.0
H270 H 0.21516 0.7311 0.98864 0.0
C271 C 0.23351 0.69646 0.86647 0.0
C272 C 0.21766 0.6669 0.86935 0.0
C273 C 0.24357 0.7161 0.8983 0.0
C274 C 0.23241 0.74008 0.99276 0.0
H275 H 0.30751 0.87323 0.08894 0.0
H276 H 0.28948 0.83998 0.03356 0.0
H277 H 0.22888 0.77021 0.04321 0.0
H278 H 0.2012 0.63259 0.90785 0.0
H279 H 0.2191 0.66605 0.9632 0.0
H280 H 0.28002 0.73543 0.95361 0.0
C281 C 0.28546 0.8308 0.06037 0.0
C282 C 0.24023 0.76259 0.024 0.0
C283 C 0.29564 0.85006 0.09208 0.0
C284 C 0.21318 0.65558 0.90474 0.0
C285 C 0.22328 0.67499 0.93643 0.0
C286 C 0.26865 0.74308 0.97279 0.0
C287 C 0.27088 0.79921 0.06331 0.0
C288 C 0.26234 0.77568 0.02995 0.0
C289 C 0.23801 0.70635 0.93351 0.0
C290 C 0.24655 0.72997 0.96683 0.0
H291 H 0.27227 0.79868 0.15738 0.0
H292 H 0.25441 0.7648 0.10175 0.0
H293 H 0.29372 0.77462 0.00814 0.0
H294 H 0.23714 0.70601 0.83953 0.0
H295 H 0.25482 0.74021 0.8951 0.0
C296 C 0.26645 0.98114 0.21338 0.0
C297 C 0.2886 0.98503 0.23044 0.0
C298 C 0.25129 0.012 0.21469 0.0
C299 C 0.22721 0.09224 0.20491 0.0
H300 H 0.22922 0.14778 0.29831 0.0
C301 C 0.19232 0.24908 0.21864 0.0
C302 C 0.18366 0.25899 0.25126 0.0
C303 C 0.20102 0.21156 0.21428 0.0
C304 C 0.22815 0.13229 0.27214 0.0
H305 H 0.31218 0.02485 0.26165 0.0
H306 H 0.28588 0.0782 0.26391 0.0
H307 H 0.25285 0.09063 0.29456 0.0
H308 H 0.17592 0.23606 0.30368 0.0
H309 H 0.19096 0.17054 0.2959 0.0
H310 H 0.20268 0.13446 0.1824 0.0
C311 C 0.28013 0.05122 0.24988 0.0
C312 C 0.24193 0.0998 0.26988 0.0
C313 C 0.29527 0.02064 0.24833 0.0
C314 C 0.18251 0.22957 0.27825 0.0
C315 C 0.19132 0.19207 0.27395 0.0
C316 C 0.21348 0.12501 0.2071 0.0
C317 C 0.25792 0.04719 0.2334 0.0
C318 C 0.24191 0.07978 0.23612 0.0
C319 C 0.20134 0.18304 0.24247 0.0
C320 C 0.21402 0.14575 0.24065 0.0
H321 H 0.26077 0.95417 0.19928 0.0
H322 H 0.23428 0.008 0.20178 0.0
H323 H 0.22685 0.0775 0.17847 0.0
H324 H 0.19338 0.27092 0.19718 0.0
H325 H 0.20869 0.20573 0.18977 0.0
C326 C 0.74462 0.98152 0.28083 0.0
C327 C 0.72236 0.98541 0.26431 0.0
C328 C 0.75972 0.0126 0.27936 0.0
C329 C 0.76856 0.10138 0.22442 0.0
H330 H 0.80765 0.13633 0.3118 0.0
C331 C 0.82713 0.23306 0.21605 0.0
C332 C 0.82585 0.26217 0.24308 0.0
C333 C 0.8185 0.19531 0.22029 0.0
C334 C 0.7969 0.1268 0.28712 0.0
H335 H 0.69857 0.02545 0.23374 0.0
H336 H 0.72476 0.07907 0.23112 0.0
H337 H 0.78397 0.07847 0.31574 0.0
H338 H 0.81599 0.27333 0.2971 0.0
H339 H 0.80101 0.20766 0.30443 0.0
H340 H 0.78084 0.15012 0.19599 0.0
C341 C 0.73064 0.05196 0.24492 0.0
C342 C 0.78346 0.09352 0.28932 0.0
C343 C 0.71556 0.02121 0.24668 0.0
C344 C 0.81717 0.25173 0.27563 0.0
C345 C 0.80865 0.21395 0.27993 0.0
C346 C 0.78208 0.13436 0.22214 0.0
C347 C 0.75292 0.048 0.26096 0.0
C348 C 0.76879 0.08095 0.25816 0.0
C349 C 0.80852 0.18568 0.25175 0.0
C350 C 0.79614 0.14795 0.25359 0.0
H351 H 0.7504 0.95441 0.29472 0.0
H352 H 0.7768 0.00866 0.29194 0.0
H353 H 0.75765 0.09216 0.19978 0.0
H354 H 0.83374 0.23995 0.19067 0.0
H355 H 0.81899 0.17401 0.19833 0.0
C356 C 0.81769 0.76379 0.78489 0.0
C357 C 0.83005 0.75523 0.75611 0.0
C358 C 0.81024 0.80203 0.78979 0.0
C359 C 0.7914 0.88575 0.7322 0.0
H360 H 0.78351 0.93483 0.82555 0.0
C361 C 0.71973 0.99236 0.7458 0.0
C362 C 0.72471 0.02735 0.76583 0.0
C363 C 0.73572 0.96288 0.74574 0.0
C364 C 0.78578 0.92172 0.79925 0.0
H365 H 0.84556 0.78041 0.71142 0.0
H366 H 0.83236 0.8475 0.7198 0.0
H367 H 0.80832 0.87809 0.8254 0.0
H368 H 0.75033 0.05841 0.80218 0.0
H369 H 0.77817 0.00635 0.80262 0.0
H370 H 0.76825 0.92833 0.70615 0.0
C371 C 0.8285 0.82452 0.73861 0.0
C372 C 0.7999 0.8892 0.79918 0.0
C373 C 0.83626 0.78625 0.73407 0.0
C374 C 0.74598 0.03186 0.78635 0.0
C375 C 0.7619 1.00205 0.78672 0.0
C376 C 0.77709 0.91789 0.73232 0.0
C377 C 0.81471 0.83247 0.76564 0.0
C378 C 0.80257 0.87044 0.76568 0.0
C379 C 0.75699 0.96742 0.7661 0.0
C380 C 0.77379 0.93574 0.76589 0.0
H381 H 0.81261 0.74036 0.80217 0.0
H382 H 0.79957 0.80706 0.81071 0.0
H383 H 0.79286 0.8717 0.70597 0.0
H384 H 0.70355 0.98789 0.72966 0.0
H385 H 0.73135 0.93628 0.73 0.0
C386 C 0.26729 0.02331 0.7146 0.0
C387 C 0.28952 0.0194 0.73129 0.0
C388 C 0.25219 0.9922 0.71576 0.0
C389 C 0.22827 0.91169 0.70514 0.0
H390 H 0.23023 0.85462 0.79811 0.0
C391 C 0.19282 0.7545 0.71799 0.0
C392 C 0.18391 0.74437 0.7504 0.0
C393 C 0.20178 0.79198 0.71386 0.0
C394 C 0.22919 0.87051 0.77205 0.0
H395 H 0.31326 0.9793 0.76183 0.0
H396 H 0.28703 0.92551 0.76393 0.0
H397 H 0.25397 0.91196 0.79475 0.0
H398 H 0.17611 0.76687 0.80276 0.0
H399 H 0.19164 0.83228 0.79541 0.0
H400 H 0.2037 0.86965 0.68233 0.0
C401 C 0.2812 0.95269 0.75021 0.0
C402 C 0.24302 0.90312 0.77002 0.0
C403 C 0.29629 0.98352 0.74877 0.0
C404 C 0.18285 0.77354 0.77745 0.0
C405 C 0.19194 0.81097 0.77341 0.0
C406 C 0.21452 0.87876 0.70709 0.0
C407 C 0.25894 0.95669 0.73398 0.0
C408 C 0.24299 0.92377 0.73643 0.0
C409 C 0.20216 0.82023 0.7421 0.0
C410 C 0.21501 0.85749 0.74049 0.0
H411 H 0.26152 0.05048 0.70082 0.0
H412 H 0.23514 0.99621 0.70307 0.0
H413 H 0.22789 0.92689 0.67883 0.0
H414 H 0.19385 0.73285 0.69651 0.0
H415 H 0.20959 0.79799 0.68947 0.0
C416 C 0.7661 0.48355 0.2112 0.0
C417 C 0.78849 0.48827 0.22667 0.0
C418 C 0.75082 0.51407 0.21301 0.0
C419 C 0.74224 0.6026 0.26763 0.0
H420 H 0.7002 0.63415 0.18237 0.0
C421 C 0.68259 0.73117 0.27864 0.0
C422 C 0.68279 0.76001 0.25083 0.0
C423 C 0.6913 0.69364 0.27424 0.0
C424 C 0.71179 0.62556 0.20646 0.0
H425 H 0.8124 0.52931 0.25534 0.0
H426 H 0.78587 0.58217 0.25839 0.0
H427 H 0.72474 0.57793 0.17744 0.0
H428 H 0.6906 0.77084 0.19531 0.0
H429 H 0.70577 0.70559 0.18772 0.0
H430 H 0.72995 0.65075 0.29637 0.0
C431 C 0.78004 0.55474 0.2453 0.0
C432 C 0.72573 0.59322 0.2037 0.0
C433 C 0.79529 0.52446 0.24329 0.0
C434 C 0.6903 0.74943 0.21739 0.0
C435 C 0.69892 0.71189 0.21295 0.0
C436 C 0.72826 0.63467 0.27046 0.0
C437 C 0.75758 0.5498 0.23058 0.0
C438 C 0.74143 0.58192 0.23406 0.0
C439 C 0.70029 0.68403 0.24186 0.0
C440 C 0.71312 0.64701 0.23975 0.0
H441 H 0.7603 0.4561 0.19813 0.0
H442 H 0.73361 0.50937 0.20147 0.0
H443 H 0.75394 0.59428 0.29168 0.0
H444 H 0.6769 0.73822 0.30472 0.0
H445 H 0.69177 0.6726 0.29679 0.0
C446 C 0.32699 0.73038 0.21707 0.0
C447 C 0.32657 0.75905 0.24477 0.0
C448 C 0.31806 0.69284 0.22121 0.0
C449 C 0.28097 0.63347 0.22414 0.0
H450 H 0.28386 0.57617 0.31715 0.0
C451 C 0.21402 0.52146 0.24997 0.0
C452 C 0.22086 0.48542 0.26704 0.0
C453 C 0.22918 0.55208 0.24807 0.0
C454 C 0.28304 0.59162 0.29089 0.0
H455 H 0.3181 0.76958 0.29985 0.0
H456 H 0.30262 0.70431 0.30701 0.0
H457 H 0.30829 0.63284 0.31273 0.0
H458 H 0.24904 0.45383 0.29638 0.0
H459 H 0.27554 0.50765 0.29324 0.0
H460 H 0.25556 0.59275 0.20241 0.0
C461 C 0.30978 0.71075 0.28205 0.0
C462 C 0.29692 0.62422 0.28842 0.0
C463 C 0.31858 0.74831 0.27785 0.0
C464 C 0.24321 0.48115 0.28296 0.0
C465 C 0.25838 0.512 0.28127 0.0
C466 C 0.26704 0.60112 0.22668 0.0
C467 C 0.30868 0.68304 0.25324 0.0
C468 C 0.29583 0.64586 0.25513 0.0
C469 C 0.25158 0.54763 0.26336 0.0
C470 C 0.26763 0.5802 0.26023 0.0
H471 H 0.33303 0.73757 0.19125 0.0
H472 H 0.3178 0.67193 0.19874 0.0
H473 H 0.27947 0.64967 0.19821 0.0
H474 H 0.19696 0.52597 0.23754 0.0
H475 H 0.22331 0.57939 0.23468 0.0
C476 C 0.31944 0.25571 0.77902 0.0
C477 C 0.3274 0.24561 0.74582 0.0
C478 C 0.31051 0.29305 0.78348 0.0
C479 C 0.29736 0.3794 0.79035 0.0
H480 H 0.2561 0.41172 0.70439 0.0
C481 C 0.24361 0.52254 0.78465 0.0
C482 C 0.22129 0.51819 0.76856 0.0
C483 C 0.25881 0.49174 0.78324 0.0
C484 C 0.26754 0.40313 0.72866 0.0
H485 H 0.33364 0.26808 0.69236 0.0
H486 H 0.31822 0.33327 0.7003 0.0
H487 H 0.27996 0.35501 0.70001 0.0
H488 H 0.19747 0.47747 0.73919 0.0
H489 H 0.22383 0.42426 0.73678 0.0
H490 H 0.28432 0.42709 0.81922 0.0
C491 C 0.31859 0.31203 0.72267 0.0
C492 C 0.28145 0.37088 0.72602 0.0
C493 C 0.32762 0.27473 0.71826 0.0
C494 C 0.21451 0.48209 0.75171 0.0
C495 C 0.22968 0.45157 0.75008 0.0
C496 C 0.2835 0.41194 0.79292 0.0
C497 C 0.30924 0.32119 0.75481 0.0
C498 C 0.2963 0.35817 0.75696 0.0
C499 C 0.25206 0.45611 0.76543 0.0
C500 C 0.26813 0.42367 0.76228 0.0
H501 H 0.31908 0.23411 0.80092 0.0
H502 H 0.3034 0.29898 0.80854 0.0
H503 H 0.30871 0.37055 0.81463 0.0
H504 H 0.2494 0.54989 0.79792 0.0
H505 H 0.27595 0.49616 0.79528 0.0
C506 C 0.76849 0.52984 0.7225 0.0
C507 C 0.79088 0.52417 0.71841 0.0
C508 C 0.75401 0.49785 0.72232 0.0
C509 C 0.74798 0.39064 0.70019 0.0
H510 H 0.70482 0.39512 0.76882 0.0
C511 C 0.68812 0.26117 0.71128 0.0
C512 C 0.68465 0.25003 0.74726 0.0
C513 C 0.69809 0.29726 0.70502 0.0
C514 C 0.71684 0.39317 0.74965 0.0
H515 H 0.81549 0.48038 0.70997 0.0
H516 H 0.79042 0.42426 0.71076 0.0
H517 H 0.72903 0.4511 0.76333 0.0
H518 H 0.68807 0.26889 0.80465 0.0
H519 H 0.70584 0.33132 0.79402 0.0
H520 H 0.73664 0.33188 0.68806 0.0
C521 C 0.78386 0.45358 0.71334 0.0
C522 C 0.73058 0.42564 0.74606 0.0
C523 C 0.79831 0.48576 0.71302 0.0
C524 C 0.69022 0.27679 0.7765 0.0
C525 C 0.70049 0.31268 0.77034 0.0
C526 C 0.73439 0.35801 0.70406 0.0
C527 C 0.76156 0.45913 0.71857 0.0
C528 C 0.74644 0.42482 0.7214 0.0
C529 C 0.70518 0.32291 0.73469 0.0
C530 C 0.71869 0.35869 0.729 0.0
H531 H 0.76215 0.55914 0.72624 0.0
H532 H 0.73688 0.50355 0.7254 0.0
H533 H 0.75974 0.38895 0.68056 0.0
H534 H 0.68393 0.24122 0.68815 0.0
H535 H 0.70084 0.30449 0.67702 0.0
C536 C 0.08502 0.40628 0.25145 0.0
C537 C 0.09883 0.37292 0.25579 0.0
C538 C 0.06214 0.40257 0.25062 0.0
C539 C 0.01455 0.3372 0.23203 0.0
H540 H 0.98915 0.40584 0.29982 0.0
C541 C 0.92012 0.33816 0.2411 0.0
C542 C 0.91054 0.37559 0.2434 0.0
C543 C 0.94324 0.33373 0.24586 0.0
C544 C 0.99589 0.3867 0.28046 0.0
H545 H 0.09914 0.30917 0.26053 0.0
H546 H 0.0588 0.30273 0.2582 0.0
H547 H 0.02909 0.40594 0.29919 0.0
H548 H 0.91786 0.43754 0.2535 0.0
H549 H 0.95779 0.43003 0.26095 0.0
H550 H 0.98125 0.3191 0.21216 0.0
C551 C 0.06594 0.33174 0.25597 0.0
C552 C 0.01878 0.38668 0.28024 0.0
C553 C 0.089 0.33548 0.25731 0.0
C554 C 0.9246 0.40823 0.25162 0.0
C555 C 0.94761 0.40386 0.25615 0.0
C556 C 0.99152 0.33756 0.2319 0.0
C557 C 0.05241 0.3654 0.25359 0.0
C558 C 0.02831 0.36251 0.25558 0.0
C559 C 0.95728 0.36665 0.25297 0.0
C560 C 0.98186 0.36293 0.25563 0.0
H561 H 0.09191 0.43559 0.24998 0.0
H562 H 0.05203 0.42894 0.24815 0.0
H563 H 0.02151 0.31833 0.2127 0.0
H564 H 0.90978 0.31234 0.23495 0.0
H565 H 0.95009 0.30456 0.24375 0.0
C566 C 0.08841 0.66563 0.74887 0.0
C567 C 0.09856 0.62836 0.75197 0.0
C568 C 0.06522 0.66905 0.74507 0.0
C569 C 0.01304 0.60903 0.72459 0.0
H570 H 0.987 0.69488 0.7735 0.0
C571 C 0.92236 0.60644 0.75315 0.0
C572 C 0.90938 0.63839 0.73808 0.0
C573 C 0.94548 0.60758 0.75535 0.0
C574 C 0.9941 0.67085 0.75964 0.0
H575 H 0.09215 0.56547 0.75336 0.0
H576 H 0.05231 0.57137 0.74823 0.0
H577 H 0.02723 0.69242 0.7745 0.0
H578 H 0.91058 0.69737 0.71533 0.0
H579 H 0.95113 0.69974 0.72037 0.0
H580 H 0.97991 0.58675 0.71114 0.0
C581 C 0.06195 0.59811 0.74746 0.0
C582 C 0.01714 0.66953 0.75989 0.0
C583 C 0.08498 0.5947 0.75067 0.0
C584 C 0.92012 0.67225 0.72699 0.0
C585 C 0.9433 0.67368 0.72992 0.0
C586 C 0.99013 0.60997 0.72501 0.0
C587 C 0.05166 0.63529 0.74474 0.0
C588 C 0.02698 0.63836 0.74264 0.0
C589 C 0.95614 0.64098 0.74327 0.0
C590 C 0.98046 0.6407 0.74273 0.0
H591 H 0.09838 0.69215 0.74967 0.0
H592 H 0.05797 0.69819 0.74244 0.0
H593 H 0.01976 0.58514 0.71005 0.0
H594 H 0.91462 0.57986 0.76178 0.0
H595 H 0.95505 0.58208 0.76599 0.0
C596 C 0.42482 0.90844 0.24718 0.0
C597 C 0.41108 0.87492 0.24271 0.0
C598 C 0.44774 0.90504 0.24836 0.0
C599 C 0.49536 0.83939 0.26711 0.0
H600 H 0.52124 0.9096 0.20062 0.0
C601 C 0.58973 0.8388 0.25684 0.0
C602 C 0.5997 0.87601 0.25467 0.0
C603 C 0.56657 0.83508 0.25272 0.0
C604 C 0.51438 0.89004 0.21965 0.0
H605 H 0.41095 0.81121 0.23803 0.0
H606 H 0.45131 0.80531 0.2409 0.0
H607 H 0.48131 0.91001 0.20116 0.0
H608 H 0.593 0.93836 0.24571 0.0
H609 H 0.55302 0.93204 0.23939 0.0
H610 H 0.52853 0.8204 0.28663 0.0
C611 C 0.44411 0.83421 0.24302 0.0
C612 C 0.49147 0.89021 0.21983 0.0
C613 C 0.42103 0.83763 0.24135 0.0
C614 C 0.58596 0.90919 0.24742 0.0
C615 C 0.56291 0.90551 0.24354 0.0
C616 C 0.5184 0.83953 0.26728 0.0
C617 C 0.45759 0.86802 0.24559 0.0
C618 C 0.48176 0.86539 0.24397 0.0
C619 C 0.55286 0.86849 0.24641 0.0
C620 C 0.52824 0.8654 0.24398 0.0
H621 H 0.41783 0.93763 0.2485 0.0
H622 H 0.45779 0.93153 0.25097 0.0
H623 H 0.48827 0.82 0.28603 0.0
H624 H 0.5998 0.8126 0.26227 0.0
H625 H 0.55942 0.80603 0.25458 0.0
C626 C 0.58729 0.09887 0.74669 0.0
C627 C 0.60078 0.13247 0.75342 0.0
C628 C 0.5642 0.10192 0.74248 0.0
C629 C 0.51899 0.16714 0.76413 0.0
H630 H 0.48271 0.09544 0.69839 0.0
C631 C 0.42168 0.16776 0.73703 0.0
C632 C 0.41173 0.13039 0.73827 0.0
C633 C 0.44478 0.17135 0.7388 0.0
C634 C 0.49263 0.11557 0.71698 0.0
H635 H 0.60039 0.19596 0.75984 0.0
H636 H 0.55995 0.2014 0.75163 0.0
H637 H 0.52273 0.0964 0.69895 0.0
H638 H 0.41848 0.06766 0.74372 0.0
H639 H 0.45844 0.07403 0.7464 0.0
H640 H 0.48856 0.1864 0.78175 0.0
C641 C 0.56732 0.17252 0.75039 0.0
C642 C 0.5156 0.11606 0.71742 0.0
C643 C 0.59052 0.16944 0.75482 0.0
C644 C 0.42547 0.09692 0.74249 0.0
C645 C 0.4484 0.10049 0.7438 0.0
C646 C 0.49589 0.16693 0.76337 0.0
C647 C 0.55386 0.13871 0.74452 0.0
C648 C 0.52918 0.1412 0.74158 0.0
C649 C 0.45829 0.13762 0.74135 0.0
C650 C 0.48255 0.14051 0.74034 0.0
H651 H 0.59455 0.06987 0.74556 0.0
H652 H 0.55449 0.07511 0.73868 0.0
H653 H 0.52888 0.18665 0.78335 0.0
H654 H 0.41161 0.19415 0.73389 0.0
H655 H 0.45199 0.20035 0.7369 0.0
C656 C 0.15771 0.50661 0.86733 0.0
C657 C 0.15324 0.54724 0.86518 0.0
C658 C 0.15801 0.48628 0.90087 0.0
C659 C 0.14073 0.494 0.99438 0.0
H660 H 0.18774 0.41797 0.0218 0.0
C661 C 0.1476 0.41163 0.13326 0.0
C662 C 0.16894 0.40911 0.15374 0.0
C663 C 0.14477 0.4227 0.09592 0.0
C664 C 0.17456 0.4392 0.01462 0.0
H665 H 0.14541 0.5983 0.89655 0.0
H666 H 0.1463 0.56307 0.95506 0.0
H667 H 0.18419 0.45002 0.96119 0.0
H668 H 0.20413 0.41436 0.15064 0.0
H669 H 0.19922 0.43459 0.08563 0.0
H670 H 0.13171 0.48472 0.04833 0.0
C671 C 0.14913 0.54667 0.9307 0.0
C672 C 0.17235 0.45724 0.97967 0.0
C673 C 0.14869 0.56694 0.89714 0.0
C674 C 0.18747 0.41593 0.13557 0.0
C675 C 0.18464 0.42743 0.09824 0.0
C676 C 0.143 0.47615 0.02933 0.0
C677 C 0.15399 0.50616 0.93307 0.0
C678 C 0.15554 0.48518 0.96929 0.0
C679 C 0.16322 0.43193 0.07823 0.0
C680 C 0.16006 0.44878 0.04004 0.0
H681 H 0.16124 0.49052 0.84319 0.0
H682 H 0.16148 0.45499 0.90158 0.0
H683 H 0.12742 0.51497 0.98713 0.0
H684 H 0.13299 0.40602 0.14638 0.0
H685 H 0.12807 0.42489 0.08112 0.0
C686 C 0.81983 0.41601 0.3584 0.0
C687 C 0.83882 0.4158 0.34051 0.0
C688 C 0.82093 0.43063 0.39451 0.0
C689 C 0.86027 0.46111 0.47745 0.0
H690 H 0.81292 0.53275 0.49282 0.0
C691 C 0.85715 0.53739 0.61784 0.0
C692 C 0.84981 0.57667 0.6173 0.0
C693 C 0.85567 0.51572 0.58509 0.0
C694 C 0.82636 0.51309 0.48886 0.0
H695 H 0.87418 0.42827 0.34749 0.0
H696 H 0.87599 0.45414 0.40985 0.0
H697 H 0.8105 0.49602 0.43502 0.0
H698 H 0.8354 0.62414 0.58171 0.0
H699 H 0.83337 0.58655 0.52429 0.0
H700 H 0.8766 0.47942 0.53057 0.0
C701 C 0.86026 0.44287 0.39627 0.0
C702 C 0.8248 0.4915 0.45597 0.0
C703 C 0.85917 0.42822 0.36031 0.0
C704 C 0.84126 0.59399 0.5831 0.0
C705 C 0.83988 0.5723 0.55024 0.0
C706 C 0.86189 0.48284 0.51023 0.0
C707 C 0.84104 0.44526 0.41344 0.0
C708 C 0.84183 0.46552 0.44973 0.0
C709 C 0.84692 0.53281 0.55091 0.0
C710 C 0.84504 0.50932 0.51621 0.0
H711 H 0.80391 0.40645 0.34402 0.0
H712 H 0.80591 0.43138 0.40726 0.0
H713 H 0.87359 0.44108 0.47369 0.0
H714 H 0.86365 0.52296 0.64371 0.0
H715 H 0.86094 0.48524 0.58673 0.0
C716 C 0.85731 0.56572 0.85131 0.0
C717 C 0.84199 0.59561 0.83917 0.0
C718 C 0.86019 0.55299 0.88807 0.0
C719 C 0.85194 0.57639 0.98329 0.0
H720 H 0.84908 0.46271 0.99296 0.0
C721 C 0.84558 0.49634 0.12264 0.0
C722 C 0.85641 0.45987 0.12899 0.0
C723 C 0.84509 0.51578 0.0886 0.0
C724 C 0.8503 0.49445 0.99089 0.0
H725 H 0.81867 0.63729 0.85679 0.0
H726 H 0.82378 0.61476 0.92168 0.0
H727 H 0.84586 0.49244 0.93163 0.0
H728 H 0.8761 0.41613 0.10522 0.0
H729 H 0.87576 0.45047 0.04629 0.0
H730 H 0.85658 0.57827 0.04279 0.0
C731 C 0.83346 0.60126 0.90235 0.0
C732 C 0.84834 0.51149 0.95569 0.0
C733 C 0.83051 0.61407 0.86526 0.0
C734 C 0.86746 0.44401 0.10112 0.0
C735 C 0.86713 0.46359 0.06723 0.0
C736 C 0.85407 0.55926 0.01871 0.0
C737 C 0.84788 0.56982 0.91375 0.0
C738 C 0.8493 0.55257 0.95148 0.0
C739 C 0.85553 0.49928 0.06024 0.0
C740 C 0.85342 0.51802 0.02289 0.0
H741 H 0.86677 0.55131 0.83217 0.0
H742 H 0.87179 0.52931 0.89628 0.0
H743 H 0.85283 0.60814 0.98078 0.0
H744 H 0.8368 0.50929 0.14349 0.0
H745 H 0.83583 0.54299 0.08408 0.0
C746 C 0.15331 0.43424 0.40003 0.0
C747 C 0.15486 0.45492 0.36697 0.0
C748 C 0.15493 0.45416 0.4338 0.0
C749 C 0.14878 0.54984 0.4767 0.0
H750 H 0.19031 0.50713 0.55782 0.0
C751 C 0.15039 0.58928 0.63179 0.0
C752 C 0.17127 0.59381 0.65352 0.0
C753 C 0.14878 0.578 0.59463 0.0
C754 C 0.17882 0.51963 0.53533 0.0
H755 H 0.15854 0.51288 0.3432 0.0
H756 H 0.16094 0.54776 0.40235 0.0
H757 H 0.18586 0.475 0.49731 0.0
H758 H 0.20684 0.59204 0.65277 0.0
H759 H 0.20397 0.57188 0.58788 0.0
H760 H 0.14144 0.59406 0.51514 0.0
C761 C 0.15861 0.51612 0.40199 0.0
C762 C 0.1761 0.50101 0.50087 0.0
C763 C 0.15729 0.49613 0.36822 0.0
C764 C 0.19051 0.58874 0.63681 0.0
C765 C 0.18889 0.57699 0.59975 0.0
C766 C 0.15128 0.56821 0.51141 0.0
C767 C 0.15786 0.4952 0.43515 0.0
C768 C 0.16096 0.51576 0.47132 0.0
C769 C 0.16802 0.57064 0.57859 0.0
C770 C 0.16628 0.55315 0.54107 0.0
H771 H 0.15157 0.40248 0.40005 0.0
H772 H 0.15409 0.43741 0.45897 0.0
H773 H 0.13696 0.56171 0.45433 0.0
H774 H 0.13526 0.59322 0.64383 0.0
H775 H 0.13249 0.57314 0.57899 0.0
C776 C 0.67308 0.02129 0.87519 0.0
C777 C 0.65858 0.05312 0.86615 0.0
C778 C 0.67354 1.00146 0.90897 0.0
C779 C 0.6571 0.01439 0.00261 0.0
H780 H 0.67081 0.90292 0.01255 0.0
C781 C 0.64868 0.92855 0.13503 0.0
C782 C 0.66859 0.91169 0.15253 0.0
C783 C 0.64677 0.94144 0.09834 0.0
C784 C 0.66704 0.93407 0.01002 0.0
H785 H 0.63264 0.08832 0.88463 0.0
H786 H 0.63264 0.05264 0.94284 0.0
H787 H 0.66778 0.9344 0.95143 0.0
H788 H 0.70149 0.89245 0.14419 0.0
H789 H 0.69784 0.91451 0.0793 0.0
H790 H 0.65572 0.01358 0.06105 0.0
C791 C 0.64427 0.04378 0.92455 0.0
C792 C 0.6654 0.95222 0.97515 0.0
C793 C 0.64412 0.0641 0.89106 0.0
C794 C 0.686 0.90553 0.13159 0.0
C795 C 0.68393 0.91803 0.09453 0.0
C796 C 0.65834 0.99609 0.03719 0.0
C797 C 0.65924 0.01258 0.93424 0.0
C798 C 0.66045 0.99269 0.97102 0.0
C799 C 0.66454 0.93721 0.07811 0.0
C800 C 0.66334 0.95586 0.04119 0.0
H801 H 0.68459 0.01243 0.85664 0.0
H802 H 0.68557 0.97814 0.91561 0.0
H803 H 0.65386 0.04573 0.00088 0.0
H804 H 0.63482 0.93343 0.15009 0.0
H805 H 0.63157 0.95576 0.08603 0.0
C806 C 0.35034 0.00752 0.62806 0.0
C807 C 0.3548 0.04819 0.62927 0.0
C808 C 0.35002 0.9866 0.595 0.0
C809 C 0.33591 0.9561 0.51682 0.0
H810 H 0.37714 0.98198 0.44844 0.0
C811 C 0.32153 0.91383 0.36155 0.0
C812 C 0.34016 0.90688 0.34377 0.0
C813 C 0.32421 0.92507 0.39886 0.0
C814 C 0.3657 0.97385 0.4674 0.0
H815 H 0.36254 0.09873 0.59675 0.0
H816 H 0.36165 0.06242 0.53903 0.0
H817 H 0.38108 0.01345 0.50887 0.0
H818 H 0.37609 0.90297 0.35177 0.0
H819 H 0.38073 0.92139 0.41702 0.0
H820 H 0.32069 0.91612 0.47539 0.0
C821 C 0.35882 0.04648 0.56377 0.0
C822 C 0.36776 0.99239 0.50188 0.0
C823 C 0.35925 0.06736 0.59685 0.0
C824 C 0.36142 0.90873 0.36461 0.0
C825 C 0.36409 0.91953 0.40194 0.0
C826 C 0.3339 0.93738 0.48235 0.0
C827 C 0.35405 0.00591 0.56239 0.0
C828 C 0.35271 0.98418 0.52678 0.0
C829 C 0.34557 0.92916 0.41917 0.0
C830 C 0.34861 0.9464 0.45704 0.0
H831 H 0.34689 0.99181 0.65258 0.0
H832 H 0.3466 0.95528 0.59501 0.0
H833 H 0.32391 0.94934 0.53523 0.0
H834 H 0.30494 0.91273 0.34617 0.0
H835 H 0.30958 0.93253 0.41116 0.0
C836 C 0.37021 0.94739 0.10767 0.0
C837 C 0.35573 0.95864 0.13246 0.0
C838 C 0.37017 0.96749 0.07411 0.0
C839 C 0.3489 0.05808 0.02194 0.0
H840 H 0.35748 0.99406 0.93711 0.0
C841 C 0.32678 0.10107 0.86484 0.0
C842 C 0.34376 0.09376 0.84328 0.0
C843 C 0.32926 0.08946 0.90219 0.0
C844 C 0.35518 0.01231 0.96064 0.0
H845 H 0.33001 0.99994 0.14189 0.0
H846 H 0.32923 0.03394 0.08275 0.0
H847 H 0.35993 0.96369 -0.00188 0.0
H848 H 0.37719 0.07069 0.84479 0.0
H849 H 0.38115 0.04994 0.90937 0.0
H850 H 0.3432 0.10635 0.98338 0.0
C851 C 0.34115 0.01047 0.08953 0.0
C852 C 0.35676 0.99503 0.99571 0.0
C853 C 0.3415 0.99084 0.12341 0.0
C854 C 0.36365 0.07648 0.86035 0.0
C855 C 0.36597 0.0645 0.89734 0.0
C856 C 0.34693 0.07523 0.98658 0.0
C857 C 0.35528 0.99873 0.06419 0.0
C858 C 0.35381 0.01768 0.02694 0.0
C859 C 0.34863 0.07002 0.9183 0.0
C860 C 0.35024 0.05248 0.95576 0.0
H861 H 0.38151 0.92291 0.11412 0.0
H862 H 0.38171 0.95823 0.05581 0.0
H863 H 0.34679 0.07659 0.04534 0.0
H864 H 0.31132 0.1145 0.85259 0.0
H865 H 0.31566 0.09396 0.91795 0.0
C866 C 0.64895 0.08093 0.63466 0.0
C867 C 0.669 0.09777 0.65162 0.0
C868 C 0.64659 0.06871 0.59784 0.0
C869 C 0.66566 0.07768 0.50864 0.0
H870 H 0.65281 0.96586 0.49967 0.0
C871 C 0.67094 0.99118 0.37373 0.0
C872 C 0.6566 0.95899 0.36529 0.0
C873 C 0.67142 0.01118 0.40728 0.0
C874 C 0.65594 0.99725 0.50137 0.0
H875 H 0.70164 0.1177 0.64226 0.0
H876 H 0.69723 0.09668 0.57715 0.0
H877 H 0.6553 0.99732 0.56 0.0
H878 H 0.63083 0.92351 0.38438 0.0
H879 H 0.63086 0.95948 0.44217 0.0
H880 H 0.6657 0.07801 0.44985 0.0
C881 C 0.68356 0.09271 0.59289 0.0
C882 C 0.65754 0.01514 0.53603 0.0
C883 C 0.68607 0.10458 0.63008 0.0
C884 C 0.6422 0.94799 0.39039 0.0
C885 C 0.64237 0.96847 0.42362 0.0
C886 C 0.66366 0.0599 0.47369 0.0
C887 C 0.66404 0.07357 0.57698 0.0
C888 C 0.66243 0.05542 0.53995 0.0
C889 C 0.65731 0.99983 0.43286 0.0
C890 C 0.65881 0.01939 0.46965 0.0
H891 H 0.63532 0.07561 0.6502 0.0
H892 H 0.63131 0.05438 0.58592 0.0
H893 H 0.66935 0.10886 0.51114 0.0
H894 H 0.68238 1.00007 0.35498 0.0
H895 H 0.68339 0.0347 0.41358 0.0
loop_
_geom_bond_atom_site_label_1
_geom_bond_atom_site_label_2
_geom_bond_distance
_geom_bond_site_symmetry_2
_ccdc_geom_bond_type
Fe0 O2 1.918 . S
Fe0 O5 1.997 . S
Fe0 O6 2.002 . S
Fe0 O11 1.976 . S
Fe0 O14 1.996 . S
Fe1 O2 1.918 . S
Fe1 O9 1.997 . S
Fe1 O12 1.996 . S
Fe1 O16 1.976 . S
Fe1 O19 2.002 . S
O2 Fe0 1.918 . S
O2 Fe1 1.918 . S
O2 Fe3 1.918 . S
Fe3 O2 1.918 . S
Fe3 O4 2.002 . S
Fe3 O13 1.976 . S
Fe3 O17 1.996 . S
Fe3 O20 1.997 . S
O4 Fe3 2.002 . S
O4 C21 1.295 . S
O5 Fe0 1.997 . S
O5 C21 1.235 . S
O6 Fe0 2.002 . S
O6 C7 1.295 . S
C7 O6 1.295 . S
C7 O9 1.235 . S
C8 O13 1.287 . S
C8 O14 1.255 . S
O9 Fe1 1.997 . S
O9 C7 1.235 . S
C10 O16 1.287 . S
C10 O17 1.255 . S
O11 Fe0 1.976 . S
O11 C18 1.287 . S
O12 Fe1 1.996 . S
O12 C18 1.255 . S
O13 Fe3 1.976 . S
O13 C8 1.287 . S
O14 Fe0 1.996 . S
O14 C8 1.255 . S
C15 O19 1.295 . S
C15 O20 1.235 . S
O16 Fe1 1.976 . S
O16 C10 1.287 . S
O17 Fe3 1.996 . S
O17 C10 1.255 . S
C18 O11 1.287 . S
C18 O12 1.255 . S
O19 Fe1 2.002 . S
O19 C15 1.295 . S
O20 Fe3 1.997 . S
O20 C15 1.235 . S
C21 O4 1.295 . S
C21 O5 1.235 . S
Fe22 O24 1.918 . S
Fe22 O27 1.997 . S
Fe22 O28 2.002 . S
Fe22 O33 1.976 . S
Fe22 O36 1.996 . S
Fe23 O24 1.918 . S
Fe23 O31 1.997 . S
Fe23 O34 1.996 . S
Fe23 O38 1.976 . S
Fe23 O41 2.002 . S
O24 Fe22 1.918 . S
O24 Fe23 1.918 . S
O24 Fe25 1.918 . S
Fe25 O24 1.918 . S
Fe25 O26 2.002 . S
Fe25 O35 1.976 . S
Fe25 O39 1.996 . S
Fe25 O42 1.997 . S
O26 Fe25 2.002 . S
O26 C43 1.295 . S
O27 Fe22 1.997 . S
O27 C43 1.235 . S
O28 Fe22 2.002 . S
O28 C29 1.295 . S
C29 O28 1.295 . S
C29 O31 1.235 . S
C30 O35 1.287 . S
C30 O36 1.255 . S
O31 Fe23 1.997 . S
O31 C29 1.235 . S
C32 O38 1.287 . S
C32 O39 1.255 . S
O33 Fe22 1.976 . S
O33 C40 1.287 . S
O34 Fe23 1.996 . S
O34 C40 1.255 . S
O35 Fe25 1.976 . S
O35 C30 1.287 . S
O36 Fe22 1.996 . S
O36 C30 1.255 . S
C37 O41 1.295 . S
C37 O42 1.235 . S
O38 Fe23 1.976 . S
O38 C32 1.287 . S
O39 Fe25 1.996 . S
O39 C32 1.255 . S
C40 O33 1.287 . S
C40 O34 1.255 . S
O41 Fe23 2.002 . S
O41 C37 1.295 . S
O42 Fe25 1.997 . S
O42 C37 1.235 . S
C43 O26 1.295 . S
C43 O27 1.235 . S
Fe44 O46 1.918 . S
Fe44 O49 1.997 . S
Fe44 O50 2.002 . S
Fe44 O55 1.976 . S
Fe44 O58 1.996 . S
Fe45 O46 1.918 . S
Fe45 O53 1.997 . S
Fe45 O56 1.996 . S
Fe45 O60 1.976 . S
Fe45 O63 2.002 . S
O46 Fe44 1.918 . S
O46 Fe45 1.918 . S
O46 Fe47 1.918 . S
Fe47 O46 1.918 . S
Fe47 O48 2.002 . S
Fe47 O57 1.976 . S
Fe47 O61 1.996 . S
Fe47 O64 1.997 . S
O48 Fe47 2.002 . S
O48 C65 1.295 . S
O49 Fe44 1.997 . S
O49 C65 1.235 . S
O50 Fe44 2.002 . S
O50 C51 1.295 . S
C51 O50 1.295 . S
C51 O53 1.235 . S
C52 O57 1.287 . S
C52 O58 1.255 . S
O53 Fe45 1.997 . S
O53 C51 1.235 . S
C54 O60 1.287 . S
C54 O61 1.255 . S
O55 Fe44 1.976 . S
O55 C62 1.287 . S
O56 Fe45 1.996 . S
O56 C62 1.255 . S
O57 Fe47 1.976 . S
O57 C52 1.287 . S
O58 Fe44 1.996 . S
O58 C52 1.255 . S
C59 O63 1.295 . S
C59 O64 1.235 . S
O60 Fe45 1.976 . S
O60 C54 1.287 . S
O61 Fe47 1.996 . S
O61 C54 1.255 . S
C62 O55 1.287 . S
C62 O56 1.255 . S
O63 Fe45 2.002 . S
O63 C59 1.295 . S
O64 Fe47 1.997 . S
O64 C59 1.235 . S
C65 O48 1.295 . S
C65 O49 1.235 . S
Fe66 O68 1.918 . S
Fe66 O71 1.997 . S
Fe66 O72 2.002 . S
Fe66 O77 1.976 . S
Fe66 O80 1.996 . S
Fe67 O68 1.918 . S
Fe67 O75 1.997 . S
Fe67 O78 1.996 . S
Fe67 O82 1.976 . S
Fe67 O85 2.002 . S
O68 Fe66 1.918 . S
O68 Fe67 1.918 . S
O68 Fe69 1.918 . S
Fe69 O68 1.918 . S
Fe69 O70 2.002 . S
Fe69 O79 1.976 . S
Fe69 O83 1.996 . S
Fe69 O86 1.997 . S
O70 Fe69 2.002 . S
O70 C87 1.295 . S
O71 Fe66 1.997 . S
O71 C87 1.235 . S
O72 Fe66 2.002 . S
O72 C73 1.295 . S
C73 O72 1.295 . S
C73 O75 1.235 . S
C74 O79 1.287 . S
C74 O80 1.255 . S
O75 Fe67 1.997 . S
O75 C73 1.235 . S
C76 O82 1.287 . S
C76 O83 1.255 . S
O77 Fe66 1.976 . S
O77 C84 1.287 . S
O78 Fe67 1.996 . S
O78 C84 1.255 . S
O79 Fe69 1.976 . S
O79 C74 1.287 . S
O80 Fe66 1.996 . S
O80 C74 1.255 . S
C81 O85 1.295 . S
C81 O86 1.235 . S
O82 Fe67 1.976 . S
O82 C76 1.287 . S
O83 Fe69 1.996 . S
O83 C76 1.255 . S
C84 O77 1.287 . S
C84 O78 1.255 . S
O85 Fe67 2.002 . S
O85 C81 1.295 . S
O86 Fe69 1.997 . S
O86 C81 1.235 . S
C87 O70 1.295 . S
C87 O71 1.235 . S
Fe88 O90 1.918 . S
Fe88 O93 1.997 . S
Fe88 O94 2.002 . S
Fe88 O99 1.976 . S
Fe88 O102 1.996 . S
Fe89 O90 1.918 . S
Fe89 O97 1.997 . S
Fe89 O100 1.996 . S
Fe89 O104 1.976 . S
Fe89 O107 2.002 . S
O90 Fe88 1.918 . S
O90 Fe89 1.918 . S
O90 Fe91 1.918 . S
Fe91 O90 1.918 . S
Fe91 O92 2.002 . S
Fe91 O101 1.976 . S
Fe91 O105 1.996 . S
Fe91 O108 1.997 . S
O92 Fe91 2.002 . S
O92 C109 1.295 . S
O93 Fe88 1.997 . S
O93 C109 1.235 . S
O94 Fe88 2.002 . S
O94 C95 1.295 . S
C95 O94 1.295 . S
C95 O97 1.235 . S
C96 O101 1.287 . S
C96 O102 1.255 . S
O97 Fe89 1.997 . S
O97 C95 1.235 . S
C98 O104 1.287 . S
C98 O105 1.255 . S
O99 Fe88 1.976 . S
O99 C106 1.287 . S
O100 Fe89 1.996 . S
O100 C106 1.255 . S
O101 Fe91 1.976 . S
O101 C96 1.287 . S
O102 Fe88 1.996 . S
O102 C96 1.255 . S
C103 O107 1.295 . S
C103 O108 1.235 . S
O104 Fe89 1.976 . S
O104 C98 1.287 . S
O105 Fe91 1.996 . S
O105 C98 1.255 . S
C106 O99 1.287 . S
C106 O100 1.255 . S
O107 Fe89 2.002 . S
O107 C103 1.295 . S
O108 Fe91 1.997 . S
O108 C103 1.235 . S
C109 O92 1.295 . S
C109 O93 1.235 . S
Fe110 O112 1.918 . S
Fe110 O115 1.997 . S
Fe110 O116 2.002 . S
Fe110 O121 1.976 . S
Fe110 O124 1.996 . S
Fe111 O112 1.918 . S
Fe111 O119 1.997 . S
Fe111 O122 1.996 . S
Fe111 O126 1.976 . S
Fe111 O129 2.002 . S
O112 Fe110 1.918 . S
O112 Fe111 1.918 . S
O112 Fe113 1.918 . S
Fe113 O112 1.918 . S
Fe113 O114 2.002 . S
Fe113 O123 1.976 . S
Fe113 O127 1.996 . S
Fe113 O130 1.997 . S
O114 Fe113 2.002 . S
O114 C131 1.295 . S
O115 Fe110 1.997 . S
O115 C131 1.235 . S
O116 Fe110 2.002 . S
O116 C117 1.295 . S
C117 O116 1.295 . S
C117 O119 1.235 . S
C118 O123 1.287 . S
C118 O124 1.255 . S
O119 Fe111 1.997 . S
O119 C117 1.235 . S
C120 O126 1.287 . S
C120 O127 1.255 . S
O121 Fe110 1.976 . S
O121 C128 1.287 . S
O122 Fe111 1.996 . S
O122 C128 1.255 . S
O123 Fe113 1.976 . S
O123 C118 1.287 . S
O124 Fe110 1.996 . S
O124 C118 1.255 . S
C125 O129 1.295 . S
C125 O130 1.235 . S
O126 Fe111 1.976 . S
O126 C120 1.287 . S
O127 Fe113 1.996 . S
O127 C120 1.255 . S
C128 O121 1.287 . S
C128 O122 1.255 . S
O129 Fe111 2.002 . S
O129 C125 1.295 . S
O130 Fe113 1.997 . S
O130 C125 1.235 . S
C131 O114 1.295 . S
C131 O115 1.235 . S
Fe132 O134 1.918 . S
Fe132 O137 1.997 . S
Fe132 O138 2.002 . S
Fe132 O143 1.976 . S
Fe132 O146 1.996 . S
Fe133 O134 1.918 . S
Fe133 O141 1.997 . S
Fe133 O144 1.996 . S
Fe133 O148 1.976 . S
Fe133 O151 2.002 . S
O134 Fe132 1.918 . S
O134 Fe133 1.918 . S
O134 Fe135 1.918 . S
Fe135 O134 1.918 . S
Fe135 O136 2.002 . S
Fe135 O145 1.976 . S
Fe135 O149 1.996 . S
Fe135 O152 1.997 . S
O136 Fe135 2.002 . S
O136 C153 1.295 . S
O137 Fe132 1.997 . S
O137 C153 1.235 . S
O138 Fe132 2.002 . S
O138 C139 1.295 . S
C139 O138 1.295 . S
C139 O141 1.235 . S
C140 O145 1.287 . S
C140 O146 1.255 . S
O141 Fe133 1.997 . S
O141 C139 1.235 . S
C142 O148 1.287 . S
C142 O149 1.255 . S
O143 Fe132 1.976 . S
O143 C150 1.287 . S
O144 Fe133 1.996 . S
O144 C150 1.255 . S
O145 Fe135 1.976 . S
O145 C140 1.287 . S
O146 Fe132 1.996 . S
O146 C140 1.255 . S
C147 O151 1.295 . S
C147 O152 1.235 . S
O148 Fe133 1.976 . S
O148 C142 1.287 . S
O149 Fe135 1.996 . S
O149 C142 1.255 . S
C150 O143 1.287 . S
C150 O144 1.255 . S
O151 Fe133 2.002 . S
O151 C147 1.295 . S
O152 Fe135 1.997 . S
O152 C147 1.235 . S
C153 O136 1.295 . S
C153 O137 1.235 . S
Fe154 O156 1.918 . S
Fe154 O159 1.997 . S
Fe154 O160 2.002 . S
Fe154 O165 1.976 . S
Fe154 O168 1.996 . S
Fe155 O156 1.918 . S
Fe155 O163 1.997 . S
Fe155 O166 1.996 . S
Fe155 O170 1.976 . S
Fe155 O173 2.002 . S
O156 Fe154 1.918 . S
O156 Fe155 1.918 . S
O156 Fe157 1.918 . S
Fe157 O156 1.918 . S
Fe157 O158 2.002 . S
Fe157 O167 1.976 . S
Fe157 O171 1.996 . S
Fe157 O174 1.997 . S
O158 Fe157 2.002 . S
O158 C175 1.295 . S
O159 Fe154 1.997 . S
O159 C175 1.235 . S
O160 Fe154 2.002 . S
O160 C161 1.295 . S
C161 O160 1.295 . S
C161 O163 1.235 . S
C162 O167 1.287 . S
C162 O168 1.255 . S
O163 Fe155 1.997 . S
O163 C161 1.235 . S
C164 O170 1.287 . S
C164 O171 1.255 . S
O165 Fe154 1.976 . S
O165 C172 1.287 . S
O166 Fe155 1.996 . S
O166 C172 1.255 . S
O167 Fe157 1.976 . S
O167 C162 1.287 . S
O168 Fe154 1.996 . S
O168 C162 1.255 . S
C169 O173 1.295 . S
C169 O174 1.235 . S
O170 Fe155 1.976 . S
O170 C164 1.287 . S
O171 Fe157 1.996 . S
O171 C164 1.255 . S
C172 O165 1.287 . S
C172 O166 1.255 . S
O173 Fe155 2.002 . S
O173 C169 1.295 . S
O174 Fe157 1.997 . S
O174 C169 1.235 . S
C175 O158 1.295 . S
C175 O159 1.235 . S
C176 C177 1.349 . S
C176 C178 1.327 . S
C176 H201 0.950 . S
C177 C176 1.349 . S
C177 C193 1.349 . S
C178 C176 1.327 . S
C178 C197 1.429 . S
C178 H202 0.950 . S
C179 C196 1.574 . S
C179 C198 1.368 . S
C179 H203 0.949 . S
H180 C184 0.949 . S
C181 C182 1.349 . S
C181 C183 1.327 . S
C181 H204 0.950 . S
C182 C181 1.349 . S
C182 C194 1.349 . S
C183 C181 1.327 . S
C183 C199 1.429 . S
C183 H205 0.950 . S
C184 H180 0.949 . S
C184 C192 1.574 . S
C184 C200 1.368 . S
H185 C193 0.950 . S
H186 C191 0.950 . S
H187 C192 0.949 . S
H188 C194 0.950 . S
H189 C195 0.950 . S
H190 C196 0.949 . S
C191 H186 0.950 . S
C191 C193 1.327 . S
C191 C197 1.429 . S
C192 C184 1.574 . S
C192 H187 0.949 . S
C192 C198 1.368 . S
C193 C177 1.349 . S
C193 H185 0.950 . S
C193 C191 1.327 . S
C194 C182 1.349 . S
C194 H188 0.950 . S
C194 C195 1.327 . S
C195 H189 0.950 . S
C195 C194 1.327 . S
C195 C199 1.429 . S
C196 C179 1.574 . S
C196 H190 0.949 . S
C196 C200 1.368 . S
C197 C178 1.429 . S
C197 C191 1.429 . S
C197 C198 1.523 . S
C198 C179 1.368 . S
C198 C192 1.368 . S
C198 C197 1.523 . S
C199 C183 1.429 . S
C199 C195 1.429 . S
C199 C200 1.523 . S
C200 C184 1.368 . S
C200 C196 1.368 . S
C200 C199 1.523 . S
H201 C176 0.950 . S
H202 C178 0.950 . S
H203 C179 0.949 . S
H204 C181 0.950 . S
H205 C183 0.950 . S
C206 C207 1.349 . S
C206 C208 1.327 . S
C206 H231 0.950 . S
C207 C206 1.349 . S
C207 C223 1.349 . S
C208 C206 1.327 . S
C208 C227 1.429 . S
C208 H232 0.950 . S
C209 C226 1.574 1_556 S
C209 C228 1.368 . S
C209 H233 0.949 . S
H210 C214 0.949 . S
C211 C212 1.349 . S
C211 C213 1.327 . S
C211 H234 0.950 . S
C212 C211 1.349 . S
C212 C224 1.349 . S
C213 C211 1.327 . S
C213 C229 1.429 . S
C213 H235 0.950 . S
C214 H210 0.949 . S
C214 C222 1.574 1_554 S
C214 C230 1.368 . S
H215 C223 0.950 . S
H216 C221 0.950 . S
H217 C222 0.949 . S
H218 C224 0.950 . S
H219 C225 0.950 . S
H220 C226 0.949 . S
C221 H216 0.950 . S
C221 C223 1.327 . S
C221 C227 1.429 . S
C222 C214 1.574 1_556 S
C222 H217 0.949 . S
C222 C228 1.368 . S
C223 C207 1.349 . S
C223 H215 0.950 . S
C223 C221 1.327 . S
C224 C212 1.349 . S
C224 H218 0.950 . S
C224 C225 1.327 . S
C225 H219 0.950 . S
C225 C224 1.327 . S
C225 C229 1.429 . S
C226 C209 1.574 1_554 S
C226 H220 0.949 . S
C226 C230 1.368 . S
C227 C208 1.429 . S
C227 C221 1.429 . S
C227 C228 1.523 . S
C228 C209 1.368 . S
C228 C222 1.368 . S
C228 C227 1.523 . S
C229 C213 1.429 . S
C229 C225 1.429 . S
C229 C230 1.523 . S
C230 C214 1.368 . S
C230 C226 1.368 . S
C230 C229 1.523 . S
H231 C206 0.950 . S
H232 C208 0.950 . S
H233 C209 0.949 . S
H234 C211 0.950 . S
H235 C213 0.950 . S
C236 C237 1.349 . S
C236 C238 1.327 . S
C236 H261 0.950 . S
C237 C236 1.349 . S
C237 C253 1.349 . S
C238 C236 1.327 . S
C238 C257 1.429 . S
C238 H262 0.950 . S
C239 C256 1.574 . S
C239 C258 1.368 . S
C239 H263 0.949 . S
H240 C244 0.949 . S
C241 C242 1.349 . S
C241 C243 1.327 . S
C241 H264 0.950 . S
C242 C241 1.349 . S
C242 C254 1.349 . S
C243 C241 1.327 . S
C243 C259 1.429 . S
C243 H265 0.950 . S
C244 H240 0.949 . S
C244 C252 1.574 . S
C244 C260 1.368 . S
H245 C253 0.950 . S
H246 C251 0.950 . S
H247 C252 0.949 . S
H248 C254 0.950 . S
H249 C255 0.950 . S
H250 C256 0.949 . S
C251 H246 0.950 . S
C251 C253 1.327 . S
C251 C257 1.429 . S
C252 C244 1.574 . S
C252 H247 0.949 . S
C252 C258 1.368 . S
C253 C237 1.349 . S
C253 H245 0.950 . S
C253 C251 1.327 . S
C254 C242 1.349 . S
C254 H248 0.950 . S
C254 C255 1.327 . S
C255 H249 0.950 . S
C255 C254 1.327 . S
C255 C259 1.429 . S
C256 C239 1.574 . S
C256 H250 0.949 . S
C256 C260 1.368 . S
C257 C238 1.429 . S
C257 C251 1.429 . S
C257 C258 1.523 . S
C258 C239 1.368 . S
C258 C252 1.368 . S
C258 C257 1.523 . S
C259 C243 1.429 . S
C259 C255 1.429 . S
C259 C260 1.523 . S
C260 C244 1.368 . S
C260 C256 1.368 . S
C260 C259 1.523 . S
H261 C236 0.950 . S
H262 C238 0.950 . S
H263 C239 0.949 . S
H264 C241 0.950 . S
H265 C243 0.950 . S
C266 C267 1.349 . S
C266 C268 1.327 . S
C266 H291 0.950 . S
C267 C266 1.349 . S
C267 C283 1.349 . S
C268 C266 1.327 . S
C268 C287 1.429 . S
C268 H292 0.950 . S
C269 C286 1.574 . S
C269 C288 1.368 1_556 S
C269 H293 0.949 . S
H270 C274 0.949 . S
C271 C272 1.349 . S
C271 C273 1.327 . S
C271 H294 0.950 . S
C272 C271 1.349 . S
C272 C284 1.349 . S
C273 C271 1.327 . S
C273 C289 1.429 . S
C273 H295 0.950 . S
C274 H270 0.949 . S
C274 C282 1.591 . S
C274 C290 1.349 1_554 S
H275 C283 0.950 . S
H276 C281 0.950 . S
H277 C282 0.949 . S
H278 C284 0.950 . S
H279 C285 0.950 . S
H280 C286 0.949 . S
C281 H276 0.950 . S
C281 C283 1.327 . S
C281 C287 1.429 . S
C282 C274 1.591 . S
C282 H277 0.949 . S
C282 C288 1.368 . S
C283 C267 1.349 . S
C283 H275 0.950 . S
C283 C281 1.327 . S
C284 C272 1.349 . S
C284 H278 0.950 . S
C284 C285 1.327 . S
C285 H279 0.950 . S
C285 C284 1.327 . S
C285 C289 1.429 . S
C286 C269 1.574 . S
C286 H280 0.949 . S
C286 C290 1.368 . S
C287 C268 1.429 . S
C287 C281 1.429 . S
C287 C288 1.523 . S
C288 C269 1.368 1_554 S
C288 C282 1.368 . S
C288 C287 1.523 . S
C289 C273 1.429 . S
C289 C285 1.429 . S
C289 C290 1.523 . S
C290 C274 1.349 1_556 S
C290 C286 1.368 . S
C290 C289 1.523 . S
H291 C266 0.950 . S
H292 C268 0.950 . S
H293 C269 0.949 . S
H294 C271 0.950 . S
H295 C273 0.950 . S
C296 C297 1.349 . S
C296 C298 1.327 1_565 S
C296 H321 0.950 . S
C297 C296 1.349 . S
C297 C313 1.349 1_565 S
C298 C296 1.327 1_545 S
C298 C317 1.429 . S
C298 H322 0.950 . S
C299 C316 1.574 . S
C299 C318 1.368 . S
C299 H323 0.949 . S
H300 C304 0.949 . S
C301 C302 1.349 . S
C301 C303 1.327 . S
C301 H324 0.950 . S
C302 C301 1.349 . S
C302 C314 1.349 . S
C303 C301 1.327 . S
C303 C319 1.429 . S
C303 H325 0.950 . S
C304 H300 0.949 . S
C304 C312 1.574 . S
C304 C320 1.368 . S
H305 C313 0.950 . S
H306 C311 0.950 . S
H307 C312 0.949 . S
H308 C314 0.950 . S
H309 C315 0.950 . S
H310 C316 0.949 . S
C311 H306 0.950 . S
C311 C313 1.327 . S
C311 C317 1.429 . S
C312 C304 1.574 . S
C312 H307 0.949 . S
C312 C318 1.368 . S
C313 C297 1.349 1_545 S
C313 H305 0.950 . S
C313 C311 1.327 . S
C314 C302 1.349 . S
C314 H308 0.950 . S
C314 C315 1.327 . S
C315 H309 0.950 . S
C315 C314 1.327 . S
C315 C319 1.429 . S
C316 C299 1.574 . S
C316 H310 0.949 . S
C316 C320 1.368 . S
C317 C298 1.429 . S
C317 C311 1.429 . S
C317 C318 1.523 . S
C318 C299 1.368 . S
C318 C312 1.368 . S
C318 C317 1.523 . S
C319 C303 1.429 . S
C319 C315 1.429 . S
C319 C320 1.523 . S
C320 C304 1.368 . S
C320 C316 1.368 . S
C320 C319 1.523 . S
H321 C296 0.950 . S
H322 C298 0.950 . S
H323 C299 0.949 . S
H324 C301 0.950 . S
H325 C303 0.950 . S
C326 C327 1.349 1_545 S
C326 C328 1.327 . S
C326 H351 0.950 1_545 S
C327 C326 1.349 1_565 S
C327 C343 1.349 1_565 S
C328 C326 1.327 . S
C328 C347 1.429 . S
C328 H352 0.950 . S
C329 C346 1.574 . S
C329 C348 1.368 . S
C329 H353 0.949 . S
H330 C334 0.949 . S
C331 C332 1.349 . S
C331 C333 1.327 . S
C331 H354 0.950 . S
C332 C331 1.349 . S
C332 C344 1.349 . S
C333 C331 1.327 . S
C333 C349 1.429 . S
C333 H355 0.950 . S
C334 H330 0.949 . S
C334 C342 1.574 . S
C334 C350 1.368 . S
H335 C343 0.950 1_565 S
H336 C341 0.950 . S
H337 C342 0.949 . S
H338 C344 0.950 . S
H339 C345 0.950 . S
H340 C346 0.949 . S
C341 H336 0.950 . S
C341 C343 1.327 . S
C341 C347 1.429 . S
C342 C334 1.574 . S
C342 H337 0.949 . S
C342 C348 1.368 . S
C343 C327 1.349 1_545 S
C343 H335 0.950 1_545 S
C343 C341 1.327 . S
C344 C332 1.349 . S
C344 H338 0.950 . S
C344 C345 1.327 . S
C345 H339 0.950 . S
C345 C344 1.327 . S
C345 C349 1.429 . S
C346 C329 1.574 . S
C346 H340 0.949 . S
C346 C350 1.368 . S
C347 C328 1.429 . S
C347 C341 1.429 . S
C347 C348 1.523 . S
C348 C329 1.368 . S
C348 C342 1.368 . S
C348 C347 1.523 . S
C349 C333 1.429 . S
C349 C345 1.429 . S
C349 C350 1.523 . S
C350 C334 1.368 . S
C350 C346 1.368 . S
C350 C349 1.523 . S
H351 C326 0.950 1_565 S
H352 C328 0.950 . S
H353 C329 0.949 . S
H354 C331 0.950 . S
H355 C333 0.950 . S
C356 C357 1.349 . S
C356 C358 1.327 . S
C356 H381 0.950 . S
C357 C356 1.349 . S
C357 C373 1.349 . S
C358 C356 1.327 . S
C358 C377 1.429 . S
C358 H382 0.950 . S
C359 C376 1.574 . S
C359 C378 1.368 . S
C359 H383 0.949 . S
H360 C364 0.949 . S
C361 C362 1.349 1_565 S
C361 C363 1.327 . S
C361 H384 0.956 . S
C362 C361 1.349 1_545 S
C362 C374 1.352 . S
C363 C361 1.327 . S
C363 C379 1.429 . S
C363 H385 0.950 . S
C364 H360 0.949 . S
C364 C372 1.574 . S
C364 C380 1.368 . S
H365 C373 0.950 . S
H366 C371 0.950 . S
H367 C372 0.949 . S
H368 C374 0.955 . S
H369 C375 0.950 . S
H370 C376 0.949 . S
C371 H366 0.950 . S
C371 C373 1.327 . S
C371 C377 1.429 . S
C372 C364 1.574 . S
C372 H367 0.949 . S
C372 C378 1.368 . S
C373 C357 1.349 . S
C373 H365 0.950 . S
C373 C371 1.327 . S
C374 C362 1.352 . S
C374 H368 0.955 . S
C374 C375 1.319 1_545 S
C375 H369 0.950 . S
C375 C374 1.319 1_565 S
C375 C379 1.429 . S
C376 C359 1.574 . S
C376 H370 0.949 . S
C376 C380 1.368 . S
C377 C358 1.429 . S
C377 C371 1.429 . S
C377 C378 1.523 . S
C378 C359 1.368 . S
C378 C372 1.368 . S
C378 C377 1.523 . S
C379 C363 1.429 . S
C379 C375 1.429 . S
C379 C380 1.523 . S
C380 C364 1.368 . S
C380 C376 1.368 . S
C380 C379 1.523 . S
H381 C356 0.950 . S
H382 C358 0.950 . S
H383 C359 0.949 . S
H384 C361 0.956 . S
H385 C363 0.950 . S
C386 C387 1.349 . S
C386 C388 1.327 1_545 S
C386 H411 0.950 . S
C387 C386 1.349 . S
C387 C403 1.349 1_545 S
C388 C386 1.327 1_565 S
C388 C407 1.429 . S
C388 H412 0.950 . S
C389 C406 1.574 . S
C389 C408 1.368 . S
C389 H413 0.949 . S
H390 C394 0.949 . S
C391 C392 1.349 . S
C391 C393 1.327 . S
C391 H414 0.950 . S
C392 C391 1.349 . S
C392 C404 1.349 . S
C393 C391 1.327 . S
C393 C409 1.429 . S
C393 H415 0.950 . S
C394 H390 0.949 . S
C394 C402 1.574 . S
C394 C410 1.368 . S
H395 C403 0.950 . S
H396 C401 0.950 . S
H397 C402 0.949 . S
H398 C404 0.950 . S
H399 C405 0.950 . S
H400 C406 0.949 . S
C401 H396 0.950 . S
C401 C403 1.327 . S
C401 C407 1.429 . S
C402 C394 1.574 . S
C402 H397 0.949 . S
C402 C408 1.368 . S
C403 C387 1.349 1_565 S
C403 H395 0.950 . S
C403 C401 1.327 . S
C404 C392 1.349 . S
C404 H398 0.950 . S
C404 C405 1.327 . S
C405 H399 0.950 . S
C405 C404 1.327 . S
C405 C409 1.429 . S
C406 C389 1.574 . S
C406 H400 0.949 . S
C406 C410 1.368 . S
C407 C388 1.429 . S
C407 C401 1.429 . S
C407 C408 1.523 . S
C408 C389 1.368 . S
C408 C402 1.368 . S
C408 C407 1.523 . S
C409 C393 1.429 . S
C409 C405 1.429 . S
C409 C410 1.523 . S
C410 C394 1.368 . S
C410 C406 1.368 . S
C410 C409 1.523 . S
H411 C386 0.950 . S
H412 C388 0.950 . S
H413 C389 0.949 . S
H414 C391 0.950 . S
H415 C393 0.950 . S
C416 C417 1.349 . S
C416 C418 1.327 . S
C416 H441 0.950 . S
C417 C416 1.349 . S
C417 C433 1.349 . S
C418 C416 1.327 . S
C418 C437 1.429 . S
C418 H442 0.950 . S
C419 C436 1.574 . S
C419 C438 1.368 . S
C419 H443 0.949 . S
H420 C424 0.949 . S
C421 C422 1.349 . S
C421 C423 1.327 . S
C421 H444 0.950 . S
C422 C421 1.349 . S
C422 C434 1.349 . S
C423 C421 1.327 . S
C423 C439 1.429 . S
C423 H445 0.950 . S
C424 H420 0.949 . S
C424 C432 1.574 . S
C424 C440 1.368 . S
H425 C433 0.950 . S
H426 C431 0.950 . S
H427 C432 0.949 . S
H428 C434 0.950 . S
H429 C435 0.950 . S
H430 C436 0.949 . S
C431 H426 0.950 . S
C431 C433 1.327 . S
C431 C437 1.429 . S
C432 C424 1.574 . S
C432 H427 0.949 . S
C432 C438 1.368 . S
C433 C417 1.349 . S
C433 H425 0.950 . S
C433 C431 1.327 . S
C434 C422 1.349 . S
C434 H428 0.950 . S
C434 C435 1.327 . S
C435 H429 0.950 . S
C435 C434 1.327 . S
C435 C439 1.429 . S
C436 C419 1.574 . S
C436 H430 0.949 . S
C436 C440 1.368 . S
C437 C418 1.429 . S
C437 C431 1.429 . S
C437 C438 1.523 . S
C438 C419 1.368 . S
C438 C432 1.368 . S
C438 C437 1.523 . S
C439 C423 1.429 . S
C439 C435 1.429 . S
C439 C440 1.523 . S
C440 C424 1.368 . S
C440 C436 1.368 . S
C440 C439 1.523 . S
H441 C416 0.950 . S
H442 C418 0.950 . S
H443 C419 0.949 . S
H444 C421 0.950 . S
H445 C423 0.950 . S
C446 C447 1.349 . S
C446 C448 1.327 . S
C446 H471 0.950 . S
C447 C446 1.349 . S
C447 C463 1.349 . S
C448 C446 1.327 . S
C448 C467 1.429 . S
C448 H472 0.950 . S
C449 C466 1.574 . S
C449 C468 1.368 . S
C449 H473 0.949 . S
H450 C454 0.949 . S
C451 C452 1.349 . S
C451 C453 1.327 . S
C451 H474 0.950 . S
C452 C451 1.349 . S
C452 C464 1.349 . S
C453 C451 1.327 . S
C453 C469 1.429 . S
C453 H475 0.950 . S
C454 H450 0.949 . S
C454 C462 1.574 . S
C454 C470 1.368 . S
H455 C463 0.950 . S
H456 C461 0.950 . S
H457 C462 0.949 . S
H458 C464 0.950 . S
H459 C465 0.950 . S
H460 C466 0.949 . S
C461 H456 0.950 . S
C461 C463 1.327 . S
C461 C467 1.429 . S
C462 C454 1.574 . S
C462 H457 0.949 . S
C462 C468 1.368 . S
C463 C447 1.349 . S
C463 H455 0.950 . S
C463 C461 1.327 . S
C464 C452 1.349 . S
C464 H458 0.950 . S
C464 C465 1.327 . S
C465 H459 0.950 . S
C465 C464 1.327 . S
C465 C469 1.429 . S
C466 C449 1.574 . S
C466 H460 0.949 . S
C466 C470 1.368 . S
C467 C448 1.429 . S
C467 C461 1.429 . S
C467 C468 1.523 . S
C468 C449 1.368 . S
C468 C462 1.368 . S
C468 C467 1.523 . S
C469 C453 1.429 . S
C469 C465 1.429 . S
C469 C470 1.523 . S
C470 C454 1.368 . S
C470 C466 1.368 . S
C470 C469 1.523 . S
H471 C446 0.950 . S
H472 C448 0.950 . S
H473 C449 0.949 . S
H474 C451 0.950 . S
H475 C453 0.950 . S
C476 C477 1.349 . S
C476 C478 1.327 . S
C476 H501 0.950 . S
C477 C476 1.349 . S
C477 C493 1.349 . S
C478 C476 1.327 . S
C478 C497 1.429 . S
C478 H502 0.950 . S
C479 C496 1.574 . S
C479 C498 1.368 . S
C479 H503 0.949 . S
H480 C484 0.949 . S
C481 C482 1.349 . S
C481 C483 1.327 . S
C481 H504 0.950 . S
C482 C481 1.349 . S
C482 C494 1.349 . S
C483 C481 1.327 . S
C483 C499 1.429 . S
C483 H505 0.950 . S
C484 H480 0.949 . S
C484 C492 1.574 . S
C484 C500 1.368 . S
H485 C493 0.950 . S
H486 C491 0.950 . S
H487 C492 0.949 . S
H488 C494 0.950 . S
H489 C495 0.950 . S
H490 C496 0.949 . S
C491 H486 0.950 . S
C491 C493 1.327 . S
C491 C497 1.429 . S
C492 C484 1.574 . S
C492 H487 0.949 . S
C492 C498 1.368 . S
C493 C477 1.349 . S
C493 H485 0.950 . S
C493 C491 1.327 . S
C494 C482 1.349 . S
C494 H488 0.950 . S
C494 C495 1.327 . S
C495 H489 0.950 . S
C495 C494 1.327 . S
C495 C499 1.429 . S
C496 C479 1.574 . S
C496 H490 0.949 . S
C496 C500 1.368 . S
C497 C478 1.429 . S
C497 C491 1.429 . S
C497 C498 1.523 . S
C498 C479 1.368 . S
C498 C492 1.368 . S
C498 C497 1.523 . S
C499 C483 1.429 . S
C499 C495 1.429 . S
C499 C500 1.523 . S
C500 C484 1.368 . S
C500 C496 1.368 . S
C500 C499 1.523 . S
H501 C476 0.950 . S
H502 C478 0.950 . S
H503 C479 0.949 . S
H504 C481 0.950 . S
H505 C483 0.950 . S
C506 C507 1.349 . S
C506 C508 1.327 . S
C506 H531 0.950 . S
C507 C506 1.349 . S
C507 C523 1.349 . S
C508 C506 1.327 . S
C508 C527 1.429 . S
C508 H532 0.950 . S
C509 C526 1.574 . S
C509 C528 1.368 . S
C509 H533 0.949 . S
H510 C514 0.949 . S
C511 C512 1.349 . S
C511 C513 1.327 . S
C511 H534 0.950 . S
C512 C511 1.349 . S
C512 C524 1.349 . S
C513 C511 1.327 . S
C513 C529 1.429 . S
C513 H535 0.950 . S
C514 H510 0.949 . S
C514 C522 1.574 . S
C514 C530 1.368 . S
H515 C523 0.950 . S
H516 C521 0.950 . S
H517 C522 0.949 . S
H518 C524 0.950 . S
H519 C525 0.950 . S
H520 C526 0.949 . S
C521 H516 0.950 . S
C521 C523 1.327 . S
C521 C527 1.429 . S
C522 C514 1.574 . S
C522 H517 0.949 . S
C522 C528 1.368 . S
C523 C507 1.349 . S
C523 H515 0.950 . S
C523 C521 1.327 . S
C524 C512 1.349 . S
C524 H518 0.950 . S
C524 C525 1.327 . S
C525 H519 0.950 . S
C525 C524 1.327 . S
C525 C529 1.429 . S
C526 C509 1.574 . S
C526 H520 0.949 . S
C526 C530 1.368 . S
C527 C508 1.429 . S
C527 C521 1.429 . S
C527 C528 1.523 . S
C528 C509 1.368 . S
C528 C522 1.368 . S
C528 C527 1.523 . S
C529 C513 1.429 . S
C529 C525 1.429 . S
C529 C530 1.523 . S
C530 C514 1.368 . S
C530 C526 1.368 . S
C530 C529 1.523 . S
H531 C506 0.950 . S
H532 C508 0.950 . S
H533 C509 0.949 . S
H534 C511 0.950 . S
H535 C513 0.950 . S
C536 C537 1.349 . S
C536 C538 1.327 . S
C536 H561 0.950 . S
C537 C536 1.349 . S
C537 C553 1.349 . S
C538 C536 1.327 . S
C538 C557 1.429 . S
C538 H562 0.950 . S
C539 C556 1.574 1_455 S
C539 C558 1.368 . S
C539 H563 0.949 . S
H540 C544 0.949 . S
C541 C542 1.349 . S
C541 C543 1.327 . S
C541 H564 0.950 . S
C542 C541 1.349 . S
C542 C554 1.349 . S
C543 C541 1.327 . S
C543 C559 1.429 . S
C543 H565 0.950 . S
C544 H540 0.949 . S
C544 C552 1.574 1_655 S
C544 C560 1.368 . S
H545 C553 0.950 . S
H546 C551 0.950 . S
H547 C552 0.949 . S
H548 C554 0.950 . S
H549 C555 0.950 . S
H550 C556 0.949 . S
C551 H546 0.950 . S
C551 C553 1.327 . S
C551 C557 1.429 . S
C552 C544 1.574 1_455 S
C552 H547 0.949 . S
C552 C558 1.368 . S
C553 C537 1.349 . S
C553 H545 0.950 . S
C553 C551 1.327 . S
C554 C542 1.349 . S
C554 H548 0.950 . S
C554 C555 1.327 . S
C555 H549 0.950 . S
C555 C554 1.327 . S
C555 C559 1.429 . S
C556 C539 1.574 1_655 S
C556 H550 0.949 . S
C556 C560 1.368 . S
C557 C538 1.429 . S
C557 C551 1.429 . S
C557 C558 1.523 . S
C558 C539 1.368 . S
C558 C552 1.368 . S
C558 C557 1.523 . S
C559 C543 1.429 . S
C559 C555 1.429 . S
C559 C560 1.523 . S
C560 C544 1.368 . S
C560 C556 1.368 . S
C560 C559 1.523 . S
H561 C536 0.950 . S
H562 C538 0.950 . S
H563 C539 0.949 . S
H564 C541 0.950 . S
H565 C543 0.950 . S
C566 C567 1.349 . S
C566 C568 1.327 . S
C566 H591 0.950 . S
C567 C566 1.349 . S
C567 C583 1.349 . S
C568 C566 1.327 . S
C568 C587 1.429 . S
C568 H592 0.950 . S
C569 C586 1.574 1_455 S
C569 C588 1.368 . S
C569 H593 0.949 . S
H570 C574 0.949 . S
C571 C572 1.349 . S
C571 C573 1.327 . S
C571 H594 0.950 . S
C572 C571 1.349 . S
C572 C584 1.349 . S
C573 C571 1.327 . S
C573 C589 1.429 . S
C573 H595 0.950 . S
C574 H570 0.949 . S
C574 C582 1.574 1_655 S
C574 C590 1.368 . S
H575 C583 0.950 . S
H576 C581 0.950 . S
H577 C582 0.949 . S
H578 C584 0.950 . S
H579 C585 0.950 . S
H580 C586 0.949 . S
C581 H576 0.950 . S
C581 C583 1.327 . S
C581 C587 1.429 . S
C582 C574 1.574 1_455 S
C582 H577 0.949 . S
C582 C588 1.368 . S
C583 C567 1.349 . S
C583 H575 0.950 . S
C583 C581 1.327 . S
C584 C572 1.349 . S
C584 H578 0.950 . S
C584 C585 1.327 . S
C585 H579 0.950 . S
C585 C584 1.327 . S
C585 C589 1.429 . S
C586 C569 1.574 1_655 S
C586 H580 0.949 . S
C586 C590 1.368 . S
C587 C568 1.429 . S
C587 C581 1.429 . S
C587 C588 1.523 . S
C588 C569 1.368 . S
C588 C582 1.368 . S
C588 C587 1.523 . S
C589 C573 1.429 . S
C589 C585 1.429 . S
C589 C590 1.523 . S
C590 C574 1.368 . S
C590 C586 1.368 . S
C590 C589 1.523 . S
H591 C566 0.950 . S
H592 C568 0.950 . S
H593 C569 0.949 . S
H594 C571 0.950 . S
H595 C573 0.950 . S
C596 C597 1.349 . S
C596 C598 1.327 . S
C596 H621 0.950 . S
C597 C596 1.349 . S
C597 C613 1.349 . S
C598 C596 1.327 . S
C598 C617 1.429 . S
C598 H622 0.950 . S
C599 C616 1.574 . S
C599 C618 1.368 . S
C599 H623 0.949 . S
H600 C604 0.949 . S
C601 C602 1.349 . S
C601 C603 1.327 . S
C601 H624 0.950 . S
C602 C601 1.349 . S
C602 C614 1.349 . S
C603 C601 1.327 . S
C603 C619 1.429 . S
C603 H625 0.950 . S
C604 H600 0.949 . S
C604 C612 1.574 . S
C604 C620 1.368 . S
H605 C613 0.950 . S
H606 C611 0.950 . S
H607 C612 0.949 . S
H608 C614 0.950 . S
H609 C615 0.950 . S
H610 C616 0.949 . S
C611 H606 0.950 . S
C611 C613 1.327 . S
C611 C617 1.429 . S
C612 C604 1.574 . S
C612 H607 0.949 . S
C612 C618 1.368 . S
C613 C597 1.349 . S
C613 H605 0.950 . S
C613 C611 1.327 . S
C614 C602 1.349 . S
C614 H608 0.950 . S
C614 C615 1.327 . S
C615 H609 0.950 . S
C615 C614 1.327 . S
C615 C619 1.429 . S
C616 C599 1.574 . S
C616 H610 0.949 . S
C616 C620 1.368 . S
C617 C598 1.429 . S
C617 C611 1.429 . S
C617 C618 1.523 . S
C618 C599 1.368 . S
C618 C612 1.368 . S
C618 C617 1.523 . S
C619 C603 1.429 . S
C619 C615 1.429 . S
C619 C620 1.523 . S
C620 C604 1.368 . S
C620 C616 1.368 . S
C620 C619 1.523 . S
H621 C596 0.950 . S
H622 C598 0.950 . S
H623 C599 0.949 . S
H624 C601 0.950 . S
H625 C603 0.950 . S
C626 C627 1.349 . S
C626 C628 1.327 . S
C626 H651 0.950 . S
C627 C626 1.349 . S
C627 C643 1.349 . S
C628 C626 1.327 . S
C628 C647 1.429 . S
C628 H652 0.950 . S
C629 C646 1.574 . S
C629 C648 1.368 . S
C629 H653 0.949 . S
H630 C634 0.949 . S
C631 C632 1.349 . S
C631 C633 1.327 . S
C631 H654 0.950 . S
C632 C631 1.349 . S
C632 C644 1.349 . S
C633 C631 1.327 . S
C633 C649 1.429 . S
C633 H655 0.950 . S
C634 H630 0.949 . S
C634 C642 1.574 . S
C634 C650 1.368 . S
H635 C643 0.950 . S
H636 C641 0.950 . S
H637 C642 0.949 . S
H638 C644 0.950 . S
H639 C645 0.950 . S
H640 C646 0.949 . S
C641 H636 0.950 . S
C641 C643 1.327 . S
C641 C647 1.429 . S
C642 C634 1.574 . S
C642 H637 0.949 . S
C642 C648 1.368 . S
C643 C627 1.349 . S
C643 H635 0.950 . S
C643 C641 1.327 . S
C644 C632 1.349 . S
C644 H638 0.950 . S
C644 C645 1.327 . S
C645 H639 0.950 . S
C645 C644 1.327 . S
C645 C649 1.429 . S
C646 C629 1.574 . S
C646 H640 0.949 . S
C646 C650 1.368 . S
C647 C628 1.429 . S
C647 C641 1.429 . S
C647 C648 1.523 . S
C648 C629 1.368 . S
C648 C642 1.368 . S
C648 C647 1.523 . S
C649 C633 1.429 . S
C649 C645 1.429 . S
C649 C650 1.523 . S
C650 C634 1.368 . S
C650 C646 1.368 . S
C650 C649 1.523 . S
H651 C626 0.950 . S
H652 C628 0.950 . S
H653 C629 0.949 . S
H654 C631 0.950 . S
H655 C633 0.950 . S
C656 C657 1.349 . S
C656 C658 1.327 . S
C656 H681 0.950 . S
C657 C656 1.349 . S
C657 C673 1.349 . S
C658 C656 1.327 . S
C658 C677 1.429 . S
C658 H682 0.950 . S
C659 C676 1.574 . S
C659 C678 1.368 . S
C659 H683 0.949 . S
H660 C664 0.949 . S
C661 C662 1.349 . S
C661 C663 1.327 . S
C661 H684 0.950 . S
C662 C661 1.349 . S
C662 C674 1.349 . S
C663 C661 1.327 . S
C663 C679 1.429 . S
C663 H685 0.950 . S
C664 H660 0.949 . S
C664 C672 1.574 . S
C664 C680 1.368 . S
H665 C673 0.950 . S
H666 C671 0.950 . S
H667 C672 0.949 1_556 S
H668 C674 0.950 . S
H669 C675 0.950 . S
H670 C676 0.949 . S
C671 H666 0.950 . S
C671 C673 1.327 . S
C671 C677 1.429 . S
C672 C664 1.574 . S
C672 H667 0.949 1_554 S
C672 C678 1.368 . S
C673 C657 1.349 . S
C673 H665 0.950 . S
C673 C671 1.327 . S
C674 C662 1.349 . S
C674 H668 0.950 . S
C674 C675 1.327 . S
C675 H669 0.950 . S
C675 C674 1.327 . S
C675 C679 1.429 . S
C676 C659 1.574 . S
C676 H670 0.949 . S
C676 C680 1.368 . S
C677 C658 1.429 . S
C677 C671 1.429 . S
C677 C678 1.523 1_556 S
C678 C659 1.368 . S
C678 C672 1.368 . S
C678 C677 1.523 1_554 S
C679 C663 1.429 . S
C679 C675 1.429 . S
C679 C680 1.523 . S
C680 C664 1.368 . S
C680 C676 1.368 . S
C680 C679 1.523 . S
H681 C656 0.950 . S
H682 C658 0.950 . S
H683 C659 0.949 . S
H684 C661 0.950 . S
H685 C663 0.950 . S
C686 C687 1.349 . S
C686 C688 1.327 . S
C686 H711 0.950 . S
C687 C686 1.349 . S
C687 C703 1.349 . S
C688 C686 1.327 . S
C688 C707 1.429 . S
C688 H712 0.950 . S
C689 C706 1.574 . S
C689 C708 1.368 . S
C689 H713 0.949 . S
H690 C694 0.949 . S
C691 C692 1.349 . S
C691 C693 1.327 . S
C691 H714 0.950 . S
C692 C691 1.349 . S
C692 C704 1.349 . S
C693 C691 1.327 . S
C693 C709 1.429 . S
C693 H715 0.950 . S
C694 H690 0.949 . S
C694 C702 1.574 . S
C694 C710 1.368 . S
H695 C703 0.950 . S
H696 C701 0.950 . S
H697 C702 0.949 . S
H698 C704 0.950 . S
H699 C705 0.950 . S
H700 C706 0.949 . S
C701 H696 0.950 . S
C701 C703 1.327 . S
C701 C707 1.429 . S
C702 C694 1.574 . S
C702 H697 0.949 . S
C702 C708 1.368 . S
C703 C687 1.349 . S
C703 H695 0.950 . S
C703 C701 1.327 . S
C704 C692 1.349 . S
C704 H698 0.950 . S
C704 C705 1.327 . S
C705 H699 0.950 . S
C705 C704 1.327 . S
C705 C709 1.429 . S
C706 C689 1.574 . S
C706 H700 0.949 . S
C706 C710 1.368 . S
C707 C688 1.429 . S
C707 C701 1.429 . S
C707 C708 1.523 . S
C708 C689 1.368 . S
C708 C702 1.368 . S
C708 C707 1.523 . S
C709 C693 1.429 . S
C709 C705 1.429 . S
C709 C710 1.523 . S
C710 C694 1.368 . S
C710 C706 1.368 . S
C710 C709 1.523 . S
H711 C686 0.950 . S
H712 C688 0.950 . S
H713 C689 0.949 . S
H714 C691 0.950 . S
H715 C693 0.950 . S
C716 C717 1.349 . S
C716 C718 1.327 . S
C716 H741 0.950 . S
C717 C716 1.349 . S
C717 C733 1.349 . S
C718 C716 1.327 . S
C718 C737 1.429 . S
C718 H742 0.950 . S
C719 C736 1.574 . S
C719 C738 1.368 . S
C719 H743 0.949 . S
H720 C724 0.949 . S
C721 C722 1.349 . S
C721 C723 1.327 . S
C721 H744 0.950 . S
C722 C721 1.349 . S
C722 C734 1.349 . S
C723 C721 1.327 . S
C723 C739 1.429 . S
C723 H745 0.950 . S
C724 H720 0.949 . S
C724 C732 1.574 . S
C724 C740 1.368 . S
H725 C733 0.950 . S
H726 C731 0.950 . S
H727 C732 0.949 . S
H728 C734 0.950 . S
H729 C735 0.950 . S
H730 C736 0.949 1_554 S
C731 H726 0.950 . S
C731 C733 1.327 . S
C731 C737 1.429 . S
C732 C724 1.574 . S
C732 H727 0.949 . S
C732 C738 1.368 . S
C733 C717 1.349 . S
C733 H725 0.950 . S
C733 C731 1.327 . S
C734 C722 1.349 . S
C734 H728 0.950 . S
C734 C735 1.327 . S
C735 H729 0.950 . S
C735 C734 1.327 . S
C735 C739 1.429 . S
C736 C719 1.574 . S
C736 H730 0.949 1_556 S
C736 C740 1.368 . S
C737 C718 1.429 . S
C737 C731 1.429 . S
C737 C738 1.523 . S
C738 C719 1.368 . S
C738 C732 1.368 . S
C738 C737 1.523 . S
C739 C723 1.429 . S
C739 C735 1.429 . S
C739 C740 1.523 1_554 S
C740 C724 1.368 . S
C740 C736 1.368 . S
C740 C739 1.523 1_556 S
H741 C716 0.950 . S
H742 C718 0.950 . S
H743 C719 0.949 . S
H744 C721 0.950 . S
H745 C723 0.950 . S
C746 C747 1.349 . S
C746 C748 1.327 . S
C746 H771 0.950 . S
C747 C746 1.349 . S
C747 C763 1.349 . S
C748 C746 1.327 . S
C748 C767 1.429 . S
C748 H772 0.950 . S
C749 C766 1.574 . S
C749 C768 1.368 . S
C749 H773 0.949 . S
H750 C754 0.949 . S
C751 C752 1.349 . S
C751 C753 1.327 . S
C751 H774 0.950 . S
C752 C751 1.349 . S
C752 C764 1.349 . S
C753 C751 1.327 . S
C753 C769 1.429 . S
C753 H775 0.950 . S
C754 H750 0.949 . S
C754 C762 1.574 . S
C754 C770 1.368 . S
H755 C763 0.950 . S
H756 C761 0.950 . S
H757 C762 0.949 . S
H758 C764 0.950 . S
H759 C765 0.950 . S
H760 C766 0.949 . S
C761 H756 0.950 . S
C761 C763 1.327 . S
C761 C767 1.429 . S
C762 C754 1.574 . S
C762 H757 0.949 . S
C762 C768 1.368 . S
C763 C747 1.349 . S
C763 H755 0.950 . S
C763 C761 1.327 . S
C764 C752 1.349 . S
C764 H758 0.950 . S
C764 C765 1.327 . S
C765 H759 0.950 . S
C765 C764 1.327 . S
C765 C769 1.429 . S
C766 C749 1.574 . S
C766 H760 0.949 . S
C766 C770 1.368 . S
C767 C748 1.429 . S
C767 C761 1.429 . S
C767 C768 1.523 . S
C768 C749 1.368 . S
C768 C762 1.368 . S
C768 C767 1.523 . S
C769 C753 1.429 . S
C769 C765 1.429 . S
C769 C770 1.523 . S
C770 C754 1.368 . S
C770 C766 1.368 . S
C770 C769 1.523 . S
H771 C746 0.950 . S
H772 C748 0.950 . S
H773 C749 0.949 . S
H774 C751 0.950 . S
H775 C753 0.950 . S
C776 C777 1.349 . S
C776 C778 1.327 . S
C776 H801 0.950 . S
C777 C776 1.349 . S
C777 C793 1.349 . S
C778 C776 1.327 . S
C778 C797 1.429 . S
C778 H802 0.950 1_545 S
C779 C796 1.574 . S
C779 C798 1.368 . S
C779 H803 0.949 . S
H780 C784 0.949 . S
C781 C782 1.349 . S
C781 C783 1.327 . S
C781 H804 0.950 . S
C782 C781 1.349 . S
C782 C794 1.349 . S
C783 C781 1.327 . S
C783 C799 1.429 . S
C783 H805 0.950 . S
C784 H780 0.949 . S
C784 C792 1.574 . S
C784 C800 1.368 . S
H785 C793 0.950 . S
H786 C791 0.950 . S
H787 C792 0.949 1_556 S
H788 C794 0.950 . S
H789 C795 0.950 . S
H790 C796 0.949 . S
C791 H786 0.950 . S
C791 C793 1.327 . S
C791 C797 1.429 . S
C792 C784 1.574 . S
C792 H787 0.949 1_554 S
C792 C798 1.368 1_565 S
C793 C777 1.349 . S
C793 H785 0.950 . S
C793 C791 1.327 . S
C794 C782 1.349 . S
C794 H788 0.950 . S
C794 C795 1.327 . S
C795 H789 0.950 . S
C795 C794 1.327 . S
C795 C799 1.429 . S
C796 C779 1.574 . S
C796 H790 0.949 . S
C796 C800 1.368 1_545 S
C797 C778 1.429 . S
C797 C791 1.429 . S
C797 C798 1.523 1_556 S
C798 C779 1.368 . S
C798 C792 1.368 1_545 S
C798 C797 1.523 1_554 S
C799 C783 1.429 . S
C799 C795 1.429 . S
C799 C800 1.523 . S
C800 C784 1.368 . S
C800 C796 1.368 1_565 S
C800 C799 1.523 . S
H801 C776 0.950 . S
H802 C778 0.950 1_565 S
H803 C779 0.949 . S
H804 C781 0.950 . S
H805 C783 0.950 . S
C806 C807 1.349 . S
C806 C808 1.327 . S
C806 H831 0.950 . S
C807 C806 1.349 . S
C807 C823 1.349 . S
C808 C806 1.327 . S
C808 C827 1.429 . S
C808 H832 0.950 1_545 S
C809 C826 1.574 . S
C809 C828 1.368 . S
C809 H833 0.949 . S
H810 C814 0.949 . S
C811 C812 1.349 . S
C811 C813 1.327 . S
C811 H834 0.950 . S
C812 C811 1.349 . S
C812 C824 1.349 . S
C813 C811 1.327 . S
C813 C829 1.429 . S
C813 H835 0.950 . S
C814 H810 0.949 . S
C814 C822 1.574 . S
C814 C830 1.368 . S
H815 C823 0.950 . S
H816 C821 0.950 . S
H817 C822 0.949 . S
H818 C824 0.950 . S
H819 C825 0.950 . S
H820 C826 0.949 . S
C821 H816 0.950 . S
C821 C823 1.327 . S
C821 C827 1.429 . S
C822 C814 1.574 . S
C822 H817 0.949 . S
C822 C828 1.368 1_565 S
C823 C807 1.349 . S
C823 H815 0.950 . S
C823 C821 1.327 . S
C824 C812 1.349 . S
C824 H818 0.950 . S
C824 C825 1.327 . S
C825 H819 0.950 . S
C825 C824 1.327 . S
C825 C829 1.429 . S
C826 C809 1.574 . S
C826 H820 0.949 . S
C826 C830 1.368 1_545 S
C827 C808 1.429 . S
C827 C821 1.429 . S
C827 C828 1.523 . S
C828 C809 1.368 . S
C828 C822 1.368 1_545 S
C828 C827 1.523 . S
C829 C813 1.429 . S
C829 C825 1.429 . S
C829 C830 1.523 . S
C830 C814 1.368 . S
C830 C826 1.368 1_565 S
C830 C829 1.523 . S
H831 C806 0.950 . S
H832 C808 0.950 1_565 S
H833 C809 0.949 . S
H834 C811 0.950 . S
H835 C813 0.950 . S
C836 C837 1.349 . S
C836 C838 1.327 . S
C836 H861 0.950 . S
C837 C836 1.349 . S
C837 C853 1.349 . S
C838 C836 1.327 . S
C838 C857 1.429 . S
C838 H862 0.950 . S
C839 C856 1.556 1_554 S
C839 C858 1.367 1_544 S
C839 H863 0.967 . S
H840 C844 0.949 . S
C841 C842 1.349 . S
C841 C843 1.327 . S
C841 H864 0.950 . S
C842 C841 1.349 . S
C842 C854 1.349 . S
C843 C841 1.327 . S
C843 C859 1.429 . S
C843 H865 0.950 . S
C844 H840 0.949 . S
C844 C852 1.574 . S
C844 C860 1.368 1_565 S
H845 C853 0.950 . S
H846 C851 0.950 1_545 S
H847 C852 0.949 . S
H848 C854 0.950 . S
H849 C855 0.924 1_565 S
H850 C856 0.949 . S
C851 H846 0.950 1_565 S
C851 C853 1.327 . S
C851 C857 1.429 . S
C852 C844 1.574 . S
C852 H847 0.949 . S
C852 C858 1.368 . S
C853 C837 1.349 . S
C853 H845 0.950 . S
C853 C851 1.327 . S
C854 C842 1.349 . S
C854 H848 0.950 . S
C854 C855 1.327 . S
C855 H849 0.924 1_545 S
C855 C854 1.327 . S
C855 C859 1.429 . S
C856 C839 1.556 1_556 S
C856 H850 0.949 . S
C856 C860 1.368 . S
C857 C838 1.429 . S
C857 C851 1.429 . S
C857 C858 1.523 1_554 S
C858 C839 1.367 1_566 S
C858 C852 1.368 . S
C858 C857 1.523 1_556 S
C859 C843 1.429 . S
C859 C855 1.429 . S
C859 C860 1.523 . S
C860 C844 1.368 1_545 S
C860 C856 1.368 . S
C860 C859 1.523 . S
H861 C836 0.950 . S
H862 C838 0.950 . S
H863 C839 0.967 . S
H864 C841 0.950 . S
H865 C843 0.950 . S
C866 C867 1.349 . S
C866 C868 1.327 . S
C866 H891 0.950 . S
C867 C866 1.349 . S
C867 C883 1.349 . S
C868 C866 1.327 . S
C868 C887 1.429 . S
C868 H892 0.950 . S
C869 C886 1.574 . S
C869 C888 1.368 . S
C869 H893 0.949 . S
H870 C874 0.949 . S
C871 C872 1.349 . S
C871 C873 1.327 . S
C871 H894 0.950 . S
C872 C871 1.349 . S
C872 C884 1.349 . S
C873 C871 1.327 . S
C873 C889 1.429 . S
C873 H895 0.950 . S
C874 H870 0.949 . S
C874 C882 1.574 . S
C874 C890 1.368 . S
H875 C883 0.950 . S
H876 C881 0.950 . S
H877 C882 0.949 . S
H878 C884 0.950 . S
H879 C885 0.950 . S
H880 C886 0.949 . S
C881 H876 0.950 . S
C881 C883 1.327 . S
C881 C887 1.429 . S
C882 C874 1.574 . S
C882 H877 0.949 . S
C882 C888 1.368 1_565 S
C883 C867 1.349 . S
C883 H875 0.950 . S
C883 C881 1.327 . S
C884 C872 1.349 . S
C884 H878 0.950 . S
C884 C885 1.327 . S
C885 H879 0.950 . S
C885 C884 1.327 . S
C885 C889 1.429 . S
C886 C869 1.574 . S
C886 H880 0.949 . S
C886 C890 1.368 1_545 S
C887 C868 1.429 . S
C887 C881 1.429 . S
C887 C888 1.523 . S
C888 C869 1.368 . S
C888 C882 1.368 1_545 S
C888 C887 1.523 . S
C889 C873 1.429 . S
C889 C885 1.429 . S
C889 C890 1.523 . S
C890 C874 1.368 . S
C890 C886 1.368 1_565 S
C890 C889 1.523 . S
H891 C866 0.950 . S
H892 C868 0.950 . S
H893 C869 0.949 . S
H894 C871 0.950 . S
H895 C873 0.950 . S
C177 C139 0.813 . S
C182 C15 0.812 . S
C207 C175 0.813 . S
C212 C37 0.812 . S
C237 C103 0.812 . S
C242 C51 0.813 . S
C267 C125 0.812 . S
C272 C81 0.813 . S
C297 C131 1.564 . S
C302 C10 1.527 . S
C327 C109 1.564 . S
C332 C32 1.527 . S
C357 C62 1.533 . S
C362 C169 1.562 . S
C387 C153 1.562 . S
C392 C76 1.533 . S
C417 C43 1.564 . S
C422 C98 1.527 . S
C447 C120 1.527 . S
C452 C21 1.564 . S
C477 C150 1.533 . S
C482 C73 1.562 . S
C507 C65 1.562 . S
C512 C162 1.533 . S
C537 C18 1.406 . S
C542 C40 1.406 . S
C567 C74 1.409 . S
C572 C54 1.409 . S
C597 C128 1.406 . S
C602 C106 1.406 . S
C627 C172 1.409 . S
C632 C142 1.409 . S
C657 C87 1.343 . S
C662 C8 1.331 . S
C687 C30 1.331 . S
C692 C59 1.343 . S
C717 C52 1.333 . S
C722 C29 1.341 . S
C747 C7 1.341 . S
C752 C84 1.333 . S
C777 C161 1.343 . S
C782 C96 1.331 . S
C807 C147 1.343 . S
C812 C118 1.331 . S
C837 C117 1.341 . S
C842 C140 1.333 . S
C867 C164 1.333 . S
C872 C95 1.341 . S
