# Generated by pormake.
# Topology sra, (4)-cn, num edge types: 1
# Building blocks:
#     Node 0, Type 0, BuildingBlock: ICAMEG_clean_sbu_1, # of connection points: 4
#     Node 1, Type 0, BuildingBlock: ICAMEG_clean_sbu_1, # of connection points: 4
#     Node 2, Type 0, BuildingBlock: ICAMEG_clean_sbu_1, # of connection points: 4
#     Node 3, Type 0, BuildingBlock: ICAMEG_clean_sbu_1, # of connection points: 4
#     Node 4, Type 0, BuildingBlock: ICAMEG_clean_sbu_1, # of connection points: 4
#     Node 5, Type 0, BuildingBlock: ICAMEG_clean_sbu_1, # of connection points: 4
#     Node 6, Type 0, BuildingBlock: ICAMEG_clean_sbu_1, # of connection points: 4
#     Node 7, Type 0, BuildingBlock: ICAMEG_clean_sbu_1, # of connection points: 4
#     Edge 8, Type (0, 0), BuildingBlock: KIFKEQ_clean_linker_1, # of connection points: 2
#     Edge 9, Type (0, 0), BuildingBlock: KIFKEQ_clean_linker_1, # of connection points: 2
#     Edge 10, Type (0, 0), BuildingBlock: KIFKEQ_clean_linker_1, # of connection points: 2
#     Edge 11, Type (0, 0), BuildingBlock: KIFKEQ_clean_linker_1, # of connection points: 2
#     Edge 12, Type (0, 0), BuildingBlock: KIFKEQ_clean_linker_1, # of connection points: 2
#     Edge 13, Type (0, 0), BuildingBlock: KIFKEQ_clean_linker_1, # of connection points: 2
#     Edge 14, Type (0, 0), BuildingBlock: KIFKEQ_clean_linker_1, # of connection points: 2
#     Edge 15, Type (0, 0), BuildingBlock: KIFKEQ_clean_linker_1, # of connection points: 2
#     Edge 16, Type (0, 0), BuildingBlock: KIFKEQ_clean_linker_1, # of connection points: 2
#     Edge 17, Type (0, 0), BuildingBlock: KIFKEQ_clean_linker_1, # of connection points: 2
#     Edge 18, Type (0, 0), BuildingBlock: KIFKEQ_clean_linker_1, # of connection points: 2
#     Edge 19, Type (0, 0), BuildingBlock: KIFKEQ_clean_linker_1, # of connection points: 2
#     Edge 20, Type (0, 0), BuildingBlock: KIFKEQ_clean_linker_1, # of connection points: 2
#     Edge 21, Type (0, 0), BuildingBlock: KIFKEQ_clean_linker_1, # of connection points: 2
#     Edge 22, Type (0, 0), BuildingBlock: KIFKEQ_clean_linker_1, # of connection points: 2
#     Edge 23, Type (0, 0), BuildingBlock: KIFKEQ_clean_linker_1, # of connection points: 2
# Relax obj value: 0.021
# Max RMSD: 0.061
# Mean RMSD: 0.061
data_MOF--net-sra--node1-ICAMEG_clean_sbu_1--edge1-KIFKEQ_clean_linker_1
_symmetry_space_group_name_H-M    P1
_symmetry_Int_Tables_number       1
_symmetry_cell_setting            triclinic
loop_
_symmetry_equiv_pos_as_xyz
'x, y, z'
_cell_length_a     30.597659
_cell_length_b     56.967545
_cell_length_c     31.511962
_cell_angle_alpha  89.991981
_cell_angle_beta   90.004611
_cell_angle_gamma 89.976764
loop_
_atom_site_label
_atom_site_type_symbol
_atom_site_fract_x
_atom_site_fract_y
_atom_site_fract_z
_atom_type_partial_charge
Co0 Co 0.02587 0.12264 0.22421 0.0
Co1 Co 0.9914 0.12828 0.12043 0.0
O2 O 0.02942 0.11437 0.16387 0.0
C3 C 0.11969 0.13038 0.20598 0.0
O4 O 0.10813 0.14183 0.17159 0.0
C5 C 0.98327 0.07666 0.10535 0.0
O6 O 0.98142 0.07352 0.14658 0.0
O7 O 0.93806 0.1204 0.15416 0.0
O8 O 0.96102 0.12459 0.22134 0.0
H9 H 0.86802 0.17876 0.06807 0.0
H10 H 0.07579 0.08039 0.19875 0.0
O11 O 0.09083 0.12094 0.22948 0.0
H12 H 0.9594 0.05138 0.29342 0.0
H13 H 0.0673 0.11591 0.37841 0.0
H14 H 0.97575 0.15765 0.27401 0.0
H15 H 0.96614 0.09365 0.27786 0.0
H16 H 0.07023 0.10534 0.30257 0.0
O17 O 0.98713 0.09728 0.09015 0.0
H18 H 0.91662 0.16131 0.12201 0.0
H19 H 0.98528 0.12406 0.02615 0.0
H20 H 0.97153 0.16866 0.34959 0.0
H21 H 0.07051 0.03798 0.21381 0.0
H22 H 0.01754 0.14772 0.40238 0.0
H23 H 0.01188 0.02323 0.26135 0.0
O24 O 0.0303 0.15669 0.21065 0.0
H25 H 0.13769 0.11104 0.05511 0.0
H26 H 0.02372 0.17116 0.0757 0.0
H27 H 0.09048 0.18122 0.03588 0.0
H28 H 0.14803 0.15101 0.02529 0.0
H29 H 0.07056 0.10182 0.09513 0.0
H30 H 0.93719 0.14093 0.97123 0.0
H31 H 0.87817 0.16858 0.99206 0.0
O32 O 0.99507 0.15988 0.14843 0.0
C33 C 0.93084 0.12181 0.19398 0.0
C34 C 0.8937 0.16679 0.05859 0.0
C35 C 0.93248 0.14553 0.00424 0.0
N36 N 0.95391 0.14181 0.07722 0.0
C37 C 0.92138 0.1569 0.08897 0.0
C38 C 0.95953 0.13598 0.0355 0.0
C39 C 0.89938 0.16105 0.01595 0.0
C40 C 0.05047 0.07411 0.2198 0.0
N41 N 0.02142 0.08948 0.23749 0.0
C42 C 0.04752 0.05008 0.22807 0.0
C43 C 0.01457 0.04181 0.25469 0.0
C44 C 0.98509 0.05759 0.27266 0.0
C45 C 0.98899 0.0815 0.26362 0.0
C46 C 0.04702 0.12513 0.35573 0.0
C47 C 0.99568 0.14837 0.29683 0.0
C48 C 0.0486 0.11925 0.31273 0.0
N49 N 0.02293 0.13075 0.28393 0.0
C50 C 0.99324 0.15472 0.33957 0.0
C51 C 0.01909 0.14297 0.36916 0.0
C52 C 0.01348 0.16892 0.18093 0.0
C53 C 0.11282 0.12434 0.05944 0.0
C54 C 0.04868 0.15797 0.07145 0.0
C55 C 0.08637 0.16374 0.04873 0.0
C56 C 0.11862 0.14678 0.04277 0.0
N57 N 0.04321 0.13592 0.0877 0.0
C58 C 0.07467 0.1192 0.08195 0.0
Co59 Co 0.03128 0.39218 0.22452 0.0
Co60 Co 0.06586 0.38657 0.12081 0.0
O61 O 0.02778 0.40048 0.16419 0.0
C62 C 0.93738 0.38459 0.20634 0.0
O63 O 0.94884 0.37311 0.17196 0.0
C64 C 0.07381 0.43819 0.1054 0.0
O65 O 0.07571 0.44143 0.1466 0.0
O66 O 0.11915 0.39456 0.15457 0.0
O67 O 0.09613 0.39013 0.22168 0.0
H68 H 0.18954 0.33621 0.06878 0.0
H69 H 0.98161 0.43453 0.1991 0.0
O70 O 0.96632 0.39399 0.2298 0.0
H71 H 0.09812 0.46328 0.2939 0.0
H72 H 0.98987 0.39889 0.37873 0.0
H73 H 0.08119 0.35705 0.27428 0.0
H74 H 0.09115 0.42104 0.27825 0.0
H75 H 0.98702 0.40951 0.3029 0.0
O76 O 0.07 0.41753 0.09037 0.0
H77 H 0.14082 0.35366 0.12261 0.0
H78 H 0.072 0.39067 0.02652 0.0
H79 H 0.08534 0.34599 0.34985 0.0
H80 H 0.98712 0.47692 0.21425 0.0
H81 H 0.03944 0.36698 0.40266 0.0
H82 H 0.04581 0.49154 0.26185 0.0
O83 O 0.02665 0.35815 0.2109 0.0
H84 H 0.91952 0.40354 0.05536 0.0
H85 H 0.03377 0.34359 0.07623 0.0
H86 H 0.96706 0.33341 0.03642 0.0
H87 H 0.90938 0.36352 0.02569 0.0
H88 H 0.98659 0.41289 0.09538 0.0
H89 H 0.1202 0.37379 0.97171 0.0
H90 H 0.17937 0.34627 0.99271 0.0
O91 O 0.06233 0.355 0.14893 0.0
C92 C 0.12634 0.39303 0.19439 0.0
C93 C 0.1638 0.34813 0.05922 0.0
C94 C 0.12492 0.36925 0.00474 0.0
N95 N 0.10344 0.37304 0.0777 0.0
C96 C 0.13605 0.35802 0.08954 0.0
C97 C 0.0978 0.37879 0.03594 0.0
C98 C 0.1581 0.3538 0.01655 0.0
C99 C 0.00696 0.44075 0.22018 0.0
N100 N 0.03592 0.42533 0.23786 0.0
C101 C 0.01004 0.46478 0.2285 0.0
C102 C 0.04302 0.47297 0.25515 0.0
C103 C 0.07241 0.45713 0.27311 0.0
C104 C 0.06838 0.43323 0.26402 0.0
C105 C 0.0101 0.38965 0.35604 0.0
C106 C 0.06131 0.36636 0.29711 0.0
C107 C 0.00856 0.39555 0.31305 0.0
N108 N 0.03417 0.38403 0.28424 0.0
C109 C 0.06371 0.35998 0.33984 0.0
C110 C 0.03792 0.37175 0.36945 0.0
C111 C 0.04369 0.34593 0.18129 0.0
C112 C 0.94445 0.39028 0.05976 0.0
C113 C 0.00874 0.35675 0.07192 0.0
C114 C 0.97109 0.35091 0.04921 0.0
C115 C 0.93876 0.36782 0.04317 0.0
N116 N 0.01411 0.37882 0.08809 0.0
C117 C 0.98256 0.3955 0.08226 0.0
Co118 Co 0.02696 0.89213 0.78319 0.0
Co119 Co 0.99144 0.8869 0.88668 0.0
O120 O 0.02999 0.90058 0.84347 0.0
C121 C 0.12051 0.88415 0.80233 0.0
O122 O 0.10851 0.87273 0.83661 0.0
C123 C 0.98368 0.93859 0.90134 0.0
O124 O 0.98238 0.94169 0.86008 0.0
O125 O 0.93854 0.89486 0.85236 0.0
O126 O 0.96207 0.89034 0.78543 0.0
H127 H 0.86705 0.83695 0.93826 0.0
H128 H 0.07692 0.93435 0.80867 0.0
O129 O 0.09197 0.89367 0.77855 0.0
H130 H 0.96167 0.96332 0.71258 0.0
H131 H 0.07001 0.89828 0.62933 0.0
H132 H 0.97712 0.85707 0.73326 0.0
H133 H 0.96797 0.92109 0.72867 0.0
H134 H 0.07223 0.90908 0.70509 0.0
O135 O 0.98714 0.91799 0.91667 0.0
H136 H 0.91636 0.85411 0.88464 0.0
H137 H 0.98442 0.89137 0.98086 0.0
H138 H 0.9736 0.84584 0.65775 0.0
H139 H 0.07209 0.97672 0.79309 0.0
H140 H 0.02029 0.86651 0.6052 0.0
H141 H 0.01404 0.99145 0.74484 0.0
O142 O 0.03103 0.85812 0.79714 0.0
H143 H 0.13724 0.90387 0.95319 0.0
H144 H 0.02291 0.84404 0.93212 0.0
H145 H 0.08918 0.8339 0.97266 0.0
H146 H 0.14691 0.86395 0.9835 0.0
H147 H 0.0706 0.91318 0.91246 0.0
H148 H 0.93562 0.87479 0.03546 0.0
H149 H 0.87654 0.84729 0.01428 0.0
O150 O 0.99511 0.85521 0.85902 0.0
C151 C 0.93168 0.89334 0.81248 0.0
C152 C 0.89275 0.84887 0.94789 0.0
C153 C 0.9312 0.87013 1.00244 0.0
N154 N 0.95339 0.8736 0.92963 0.0
C155 C 0.92083 0.85859 0.9177 0.0
C156 C 0.95866 0.87951 0.97137 0.0
C157 C 0.89806 0.85469 0.99054 0.0
C158 C 0.05185 0.94061 0.78731 0.0
N159 N 0.02287 0.92526 0.76952 0.0
C160 C 0.04916 0.96463 0.77875 0.0
C161 C 0.01653 0.97288 0.75173 0.0
C162 C 0.98711 0.95711 0.73366 0.0
C163 C 0.99076 0.93323 0.74299 0.0
C164 C 0.04944 0.88918 0.6519 0.0
C165 C 0.99735 0.86624 0.71055 0.0
C166 C 0.05061 0.89518 0.69486 0.0
N167 N 0.02457 0.88384 0.72352 0.0
C168 C 0.9953 0.85976 0.66785 0.0
C169 C 0.02153 0.87135 0.63839 0.0
C170 C 0.01382 0.84602 0.82682 0.0
C171 C 0.11229 0.89064 0.94876 0.0
C172 C 0.04795 0.85717 0.93648 0.0
C173 C 0.08536 0.85135 0.9596 0.0
C174 C 0.11772 0.86823 0.9657 0.0
N175 N 0.04285 0.87919 0.91997 0.0
C176 C 0.07442 0.89583 0.92585 0.0
Co177 Co 0.02928 0.62298 0.78267 0.0
Co178 Co 0.06475 0.62772 0.88649 0.0
O179 O 0.02626 0.61418 0.84293 0.0
C180 C 0.93558 0.62932 0.80361 0.0
O181 O 0.94697 0.63763 0.84083 0.0
C182 C 0.07256 0.5759 0.9005 0.0
O183 O 0.07295 0.57281 0.85922 0.0
O184 O 0.11771 0.62013 0.85202 0.0
O185 O 0.09417 0.62439 0.78503 0.0
H186 H 0.18867 0.67777 0.93881 0.0
H187 H 0.97857 0.58091 0.80742 0.0
O188 O 0.96428 0.62203 0.77761 0.0
H189 H 0.09322 0.55184 0.7108 0.0
H190 H 0.98617 0.61809 0.62865 0.0
H191 H 0.07994 0.658 0.73348 0.0
H192 H 0.08773 0.59401 0.72763 0.0
H193 H 0.9836 0.60684 0.70419 0.0
O194 O 0.06957 0.5965 0.91593 0.0
H195 H 0.13948 0.66075 0.88496 0.0
H196 H 0.07194 0.62276 0.9806 0.0
H197 H 0.08379 0.66968 0.6582 0.0
H198 H 0.98259 0.5386 0.79111 0.0
H199 H 0.03667 0.64966 0.6052 0.0
H200 H 0.04034 0.52382 0.74258 0.0
O201 O 0.02553 0.65688 0.79716 0.0
H202 H 0.92013 0.60951 0.95437 0.0
H203 H 0.03253 0.67028 0.93234 0.0
H204 H 0.9665 0.67982 0.97369 0.0
H205 H 0.90976 0.64929 0.98504 0.0
H206 H 0.98644 0.60083 0.91271 0.0
H207 H 0.12062 0.6392 0.03542 0.0
H208 H 0.17938 0.667 0.01466 0.0
O209 O 0.06069 0.65958 0.85945 0.0
C210 C 0.12456 0.62152 0.81213 0.0
C211 C 0.16311 0.66573 0.94827 0.0
C212 C 0.12496 0.64406 1.00249 0.0
N213 N 0.10271 0.64091 0.92964 0.0
C214 C 0.13509 0.65609 0.91794 0.0
C215 C 0.09756 0.63476 0.97128 0.0
C216 C 0.15791 0.65966 0.99082 0.0
C217 C 0.0035 0.57462 0.78595 0.0
N218 N 0.03276 0.58991 0.76841 0.0
C219 C 0.00575 0.55064 0.77697 0.0
C220 C 0.0382 0.54236 0.7498 0.0
C221 C 0.06791 0.55807 0.73199 0.0
C222 C 0.06472 0.58192 0.74174 0.0
C223 C 0.00696 0.6269 0.65142 0.0
C224 C 0.05955 0.6491 0.71056 0.0
C225 C 0.00561 0.62062 0.69425 0.0
N226 N 0.03192 0.6316 0.72316 0.0
C227 C 0.06178 0.65583 0.668 0.0
C228 C 0.0353 0.64461 0.63829 0.0
C229 C 0.04234 0.66887 0.82715 0.0
C230 C 0.94466 0.62295 0.94971 0.0
C231 C 0.00787 0.65696 0.93683 0.0
C232 C 0.97061 0.66243 0.96045 0.0
C233 C 0.93882 0.64528 0.96685 0.0
N234 N 0.01336 0.63502 0.92009 0.0
C235 C 0.98236 0.61811 0.9263 0.0
Co236 Co 0.52793 0.62321 0.7256 0.0
Co237 Co 0.49273 0.62745 0.62162 0.0
O238 O 0.53114 0.61413 0.66549 0.0
C239 C 0.62167 0.62942 0.70479 0.0
O240 O 0.61036 0.63758 0.66743 0.0
C241 C 0.48527 0.57551 0.60839 0.0
O242 O 0.48486 0.57261 0.64971 0.0
O243 O 0.4397 0.61999 0.65607 0.0
O244 O 0.46304 0.62463 0.72303 0.0
H245 H 0.36884 0.6772 0.56815 0.0
H246 H 0.57876 0.58102 0.70171 0.0
O247 O 0.59292 0.62227 0.73085 0.0
H248 H 0.46378 0.55244 0.79841 0.0
H249 H 0.57054 0.61905 0.87981 0.0
H250 H 0.47711 0.65849 0.77406 0.0
H251 H 0.46931 0.59453 0.78091 0.0
H252 H 0.57337 0.60744 0.80446 0.0
O253 O 0.4881 0.59606 0.59266 0.0
H254 H 0.41791 0.66045 0.62241 0.0
H255 H 0.48582 0.62202 0.52758 0.0
H256 H 0.473 0.67053 0.84913 0.0
H257 H 0.5747 0.53879 0.7187 0.0
H258 H 0.51995 0.65074 0.9026 0.0
H259 H 0.51678 0.52426 0.76727 0.0
O260 O 0.53169 0.65704 0.71056 0.0
H261 H 0.6376 0.609 0.55441 0.0
H262 H 0.52494 0.66981 0.5752 0.0
H263 H 0.59107 0.67919 0.53388 0.0
H264 H 0.64794 0.64864 0.52315 0.0
H265 H 0.5712 0.60048 0.59602 0.0
H266 H 0.43726 0.63819 0.47235 0.0
H267 H 0.37837 0.66607 0.4925 0.0
O268 O 0.49662 0.65946 0.64817 0.0
C269 C 0.43274 0.6216 0.69591 0.0
C270 C 0.39445 0.66512 0.55896 0.0
C271 C 0.43282 0.6432 0.5052 0.0
N272 N 0.45486 0.64041 0.57815 0.0
C273 C 0.4224 0.65563 0.58953 0.0
C274 C 0.46014 0.63406 0.53663 0.0
C275 C 0.39979 0.65885 0.51653 0.0
C276 C 0.55376 0.57484 0.7232 0.0
N277 N 0.52442 0.59022 0.74039 0.0
C278 C 0.5515 0.5509 0.73256 0.0
C279 C 0.51894 0.54276 0.75976 0.0
C280 C 0.48916 0.55856 0.77721 0.0
C281 C 0.49238 0.58237 0.76708 0.0
C282 C 0.54983 0.62775 0.85684 0.0
C283 C 0.49742 0.64969 0.79719 0.0
C284 C 0.55132 0.62128 0.81412 0.0
N285 N 0.5251 0.63212 0.78496 0.0
C286 C 0.49505 0.65663 0.83963 0.0
C287 C 0.52143 0.64554 0.8696 0.0
C288 C 0.51491 0.6689 0.68036 0.0
C289 C 0.61302 0.62245 0.55879 0.0
C290 C 0.54966 0.65648 0.57098 0.0
C291 C 0.58696 0.66186 0.54737 0.0
C292 C 0.61883 0.6447 0.54132 0.0
N293 N 0.5442 0.63462 0.58804 0.0
C294 C 0.57527 0.61769 0.58217 0.0
Co295 Co 0.52851 0.89213 0.72487 0.0
Co296 Co 0.56395 0.88737 0.62128 0.0
O297 O 0.52539 0.90085 0.66471 0.0
C298 C 0.43495 0.88424 0.70572 0.0
O299 O 0.44692 0.87297 0.67127 0.0
C300 C 0.57137 0.93917 0.60721 0.0
O301 O 0.57257 0.94215 0.6485 0.0
O302 O 0.61685 0.89523 0.65567 0.0
O303 O 0.59339 0.89036 0.72254 0.0
H304 H 0.6885 0.83773 0.56897 0.0
H305 H 0.47843 0.93446 0.70005 0.0
O306 O 0.4635 0.89365 0.7296 0.0
H307 H 0.59376 0.96301 0.7964 0.0
H308 H 0.48565 0.89761 0.87886 0.0
H309 H 0.57845 0.85686 0.77425 0.0
H310 H 0.58752 0.92086 0.77972 0.0
H311 H 0.48331 0.90874 0.80325 0.0
O312 O 0.56811 0.9186 0.59168 0.0
H313 H 0.63916 0.85463 0.62284 0.0
H314 H 0.57087 0.89224 0.52716 0.0
H315 H 0.58209 0.8453 0.8496 0.0
H316 H 0.48319 0.97676 0.71624 0.0
H317 H 0.53545 0.86574 0.9025 0.0
H318 H 0.54129 0.99128 0.76463 0.0
O319 O 0.52448 0.85818 0.71045 0.0
H320 H 0.41802 0.90451 0.55511 0.0
H321 H 0.53261 0.84468 0.57532 0.0
H322 H 0.46634 0.83465 0.53471 0.0
H323 H 0.40848 0.86471 0.52431 0.0
H324 H 0.48467 0.9137 0.5959 0.0
H325 H 0.6197 0.87591 0.47232 0.0
H326 H 0.67891 0.84837 0.49309 0.0
O327 O 0.56042 0.85554 0.64854 0.0
C328 C 0.62376 0.89351 0.69551 0.0
C329 C 0.66274 0.84966 0.55951 0.0
C330 C 0.62417 0.87112 0.50527 0.0
N331 N 0.60201 0.87427 0.57813 0.0
C332 C 0.63465 0.85924 0.58985 0.0
C333 C 0.59669 0.88035 0.53648 0.0
C334 C 0.65737 0.85566 0.51695 0.0
C335 C 0.50351 0.94063 0.72147 0.0
N336 N 0.53256 0.92521 0.739 0.0
C337 C 0.50617 0.96461 0.73037 0.0
C338 C 0.53882 0.97275 0.75747 0.0
C339 C 0.5683 0.9569 0.77527 0.0
C340 C 0.56469 0.93305 0.76559 0.0
C341 C 0.5062 0.88861 0.85614 0.0
C342 C 0.55825 0.86593 0.79712 0.0
C343 C 0.50495 0.8948 0.81327 0.0
N344 N 0.53098 0.88358 0.78442 0.0
C345 C 0.56036 0.85927 0.83972 0.0
C346 C 0.53415 0.87073 0.86937 0.0
C347 C 0.54172 0.84621 0.68062 0.0
C348 C 0.44303 0.89128 0.55936 0.0
C349 C 0.50751 0.85781 0.57115 0.0
C350 C 0.4701 0.85205 0.54799 0.0
C351 C 0.43767 0.86893 0.54213 0.0
N352 N 0.51255 0.87976 0.58794 0.0
C353 C 0.4809 0.8964 0.5823 0.0
Co354 Co 0.52986 0.39205 0.28521 0.0
Co355 Co 0.49142 0.38597 0.38705 0.0
O356 O 0.53157 0.40005 0.34567 0.0
C357 C 0.62359 0.38505 0.30509 0.0
O358 O 0.61177 0.37306 0.33879 0.0
C359 C 0.48507 0.43733 0.40441 0.0
O360 O 0.48312 0.4408 0.36327 0.0
O361 O 0.44004 0.39553 0.3522 0.0
O362 O 0.4648 0.38927 0.28622 0.0
H363 H 0.36285 0.3373 0.43265 0.0
H364 H 0.577 0.43487 0.31225 0.0
O365 O 0.59486 0.39461 0.28157 0.0
H366 H 0.46213 0.46257 0.21452 0.0
H367 H 0.575 0.39962 0.13212 0.0
H368 H 0.48269 0.35652 0.23401 0.0
H369 H 0.47037 0.42038 0.23003 0.0
H370 H 0.57547 0.41006 0.20807 0.0
O371 O 0.48834 0.41654 0.41901 0.0
H372 H 0.41435 0.35465 0.38123 0.0
H373 H 0.48268 0.38854 0.48127 0.0
H374 H 0.4809 0.34563 0.15828 0.0
H375 H 0.57021 0.47724 0.29727 0.0
H376 H 0.52731 0.36724 0.10675 0.0
H377 H 0.51233 0.49132 0.24819 0.0
O378 O 0.53569 0.35816 0.29905 0.0
H379 H 0.63621 0.39889 0.45847 0.0
H380 H 0.51957 0.34143 0.42904 0.0
H381 H 0.58417 0.32922 0.4703 0.0
H382 H 0.64303 0.35806 0.48533 0.0
H383 H 0.57121 0.41031 0.41697 0.0
H384 H 0.43171 0.37172 0.53373 0.0
H385 H 0.37138 0.34581 0.50951 0.0
O386 O 0.49367 0.35473 0.35713 0.0
C387 C 0.43391 0.39326 0.31236 0.0
C388 C 0.38909 0.3485 0.4436 0.0
C389 C 0.4277 0.36784 0.50033 0.0
N390 N 0.45166 0.37244 0.42826 0.0
C391 C 0.41841 0.35832 0.41465 0.0
C392 C 0.4564 0.37736 0.47047 0.0
C393 C 0.39387 0.3533 0.48672 0.0
C394 C 0.55202 0.44087 0.29054 0.0
N395 N 0.52421 0.42518 0.27198 0.0
C396 C 0.54821 0.46487 0.28231 0.0
C397 C 0.51568 0.47277 0.25483 0.0
C398 C 0.48748 0.45665 0.23596 0.0
C399 C 0.49221 0.43278 0.24499 0.0
C400 C 0.55456 0.39009 0.15424 0.0
C401 C 0.50278 0.3661 0.21174 0.0
C402 C 0.55477 0.3959 0.1973 0.0
N403 N 0.52889 0.38402 0.2254 0.0
C404 C 0.50172 0.35981 0.16892 0.0
C405 C 0.5278 0.37193 0.14003 0.0
C406 C 0.5157 0.34583 0.32665 0.0
C407 C 0.61072 0.38618 0.45223 0.0
C408 C 0.5451 0.35407 0.43532 0.0
C409 C 0.58156 0.34706 0.45879 0.0
C410 C 0.61456 0.36326 0.46724 0.0
N411 N 0.54154 0.3766 0.42077 0.0
C412 C 0.57377 0.39257 0.42889 0.0
Co413 Co 0.52728 0.12297 0.28438 0.0
Co414 Co 0.56569 0.12884 0.38626 0.0
O415 O 0.52552 0.11487 0.34479 0.0
C416 C 0.43359 0.13001 0.3043 0.0
O417 O 0.44546 0.14193 0.33806 0.0
C418 C 0.5718 0.07744 0.40335 0.0
O419 O 0.57365 0.07403 0.3622 0.0
O420 O 0.61704 0.11928 0.35138 0.0
O421 O 0.59234 0.1257 0.28543 0.0
H422 H 0.69444 0.1773 0.43214 0.0
H423 H 0.47999 0.08014 0.31115 0.0
O424 O 0.46228 0.12048 0.2807 0.0
H425 H 0.5948 0.05253 0.21332 0.0
H426 H 0.48214 0.11572 0.13123 0.0
H427 H 0.57457 0.15855 0.23338 0.0
H428 H 0.5867 0.0947 0.22908 0.0
H429 H 0.48162 0.10514 0.20712 0.0
O430 O 0.56867 0.09821 0.41806 0.0
H431 H 0.64288 0.1601 0.38063 0.0
H432 H 0.57442 0.1261 0.48047 0.0
H433 H 0.57641 0.16958 0.1577 0.0
H434 H 0.48664 0.0378 0.29591 0.0
H435 H 0.52994 0.14809 0.10605 0.0
H436 H 0.54448 0.02376 0.24678 0.0
O437 O 0.52154 0.15684 0.29839 0.0
H438 H 0.42085 0.11594 0.45756 0.0
H439 H 0.53769 0.17334 0.42847 0.0
H440 H 0.47313 0.18554 0.46976 0.0
H441 H 0.41417 0.15673 0.48463 0.0
H442 H 0.48582 0.10453 0.41602 0.0
H443 H 0.62545 0.14277 0.53302 0.0
H444 H 0.68588 0.16865 0.50895 0.0
O445 O 0.56356 0.16014 0.3565 0.0
C446 C 0.6232 0.12162 0.31156 0.0
C447 C 0.66816 0.16611 0.44303 0.0
C448 C 0.62947 0.1467 0.49965 0.0
N449 N 0.6055 0.14226 0.42755 0.0
C450 C 0.6388 0.15637 0.41403 0.0
C451 C 0.60074 0.13727 0.46973 0.0
C452 C 0.66336 0.16123 0.48612 0.0
C453 C 0.50495 0.07417 0.28942 0.0
N454 N 0.53283 0.08987 0.27097 0.0
C455 C 0.50868 0.05017 0.28105 0.0
C456 C 0.5412 0.0423 0.25354 0.0
C457 C 0.56947 0.05843 0.23479 0.0
C458 C 0.56481 0.08229 0.24395 0.0
C459 C 0.5026 0.12519 0.15341 0.0
C460 C 0.55445 0.14903 0.21105 0.0
C461 C 0.50237 0.11931 0.19644 0.0
N462 N 0.52828 0.13111 0.2246 0.0
C463 C 0.55554 0.15539 0.16826 0.0
C464 C 0.52943 0.14335 0.1393 0.0
C465 C 0.54156 0.1691 0.32607 0.0
C466 C 0.44638 0.12864 0.45139 0.0
C467 C 0.51212 0.16071 0.43468 0.0
C468 C 0.47568 0.16771 0.45817 0.0
C469 C 0.44263 0.15154 0.46652 0.0
N470 N 0.5156 0.1382 0.42001 0.0
C471 C 0.48332 0.12225 0.42804 0.0
H472 H 0.01213 0.31871 0.24666 0.0
H473 H 0.06898 0.31389 0.12131 0.0
H474 H 0.00449 0.27595 0.24841 0.0
H475 H 0.06083 0.27145 0.12314 0.0
H476 H 0.98888 0.20101 0.12073 0.0
H477 H 0.997 0.24345 0.12276 0.0
H478 H 0.05192 0.23884 0.24862 0.0
H479 H 0.04431 0.19609 0.24668 0.0
C480 C 0.02306 0.30861 0.21953 0.0
C481 C 0.04075 0.31989 0.18364 0.0
C482 C 0.01882 0.28411 0.22066 0.0
C483 C 0.03168 0.27038 0.18576 0.0
C484 C 0.04999 0.28159 0.15026 0.0
C485 C 0.05473 0.30598 0.14931 0.0
C486 C 0.00281 0.2089 0.1489 0.0
C487 C 0.01641 0.19496 0.18335 0.0
C488 C 0.00754 0.23329 0.14996 0.0
C489 C 0.02544 0.24447 0.18569 0.0
C490 C 0.03792 0.23071 0.22069 0.0
C491 C 0.0337 0.20621 0.21945 0.0
H492 H 0.04548 0.81859 0.76181 0.0
H493 H 0.98827 0.81416 0.88705 0.0
H494 H 0.05282 0.77584 0.76035 0.0
H495 H 0.9961 0.77169 0.88551 0.0
H496 H 0.06659 0.70069 0.888 0.0
H497 H 0.05903 0.7432 0.88623 0.0
H498 H 0.00519 0.7391 0.75987 0.0
H499 H 0.01229 0.69635 0.76153 0.0
C500 C 0.03442 0.80858 0.78898 0.0
C501 C 0.01668 0.81996 0.82473 0.0
C502 C 0.03849 0.78407 0.78804 0.0
C503 C 0.0254 0.77042 0.82297 0.0
C504 C 0.00712 0.78175 0.85837 0.0
C505 C 0.00254 0.80615 0.85914 0.0
C506 C 0.05302 0.70872 0.85979 0.0
C507 C 0.0396 0.69494 0.82509 0.0
C508 C 0.0486 0.73314 0.85887 0.0
C509 C 0.0312 0.74449 0.82305 0.0
C510 C 0.01884 0.73085 0.78786 0.0
C511 C 0.02276 0.70634 0.78895 0.0
H512 H 0.54444 0.69659 0.74584 0.0
H513 H 0.49088 0.70055 0.61903 0.0
H514 H 0.55111 0.73934 0.74726 0.0
H515 H 0.49797 0.74309 0.62057 0.0
H516 H 0.56727 0.81452 0.62004 0.0
H517 H 0.5599 0.77201 0.62137 0.0
H518 H 0.50341 0.77581 0.74667 0.0
H519 H 0.51035 0.81857 0.74543 0.0
C520 C 0.53405 0.7065 0.71828 0.0
C521 C 0.5175 0.69498 0.68214 0.0
C522 C 0.53771 0.73102 0.71923 0.0
C523 C 0.52539 0.74458 0.68391 0.0
C524 C 0.50836 0.73311 0.64805 0.0
C525 C 0.5042 0.70867 0.64726 0.0
C526 C 0.55314 0.80642 0.64793 0.0
C527 C 0.539 0.82014 0.68247 0.0
C528 C 0.54882 0.782 0.64858 0.0
C529 C 0.53077 0.77055 0.68398 0.0
C530 C 0.51759 0.78412 0.71899 0.0
C531 C 0.52143 0.80864 0.71817 0.0
H532 H 0.45756 0.31332 0.35646 0.0
H533 H 0.58116 0.31972 0.2912 0.0
H534 H 0.46394 0.27048 0.35384 0.0
H535 H 0.58791 0.27686 0.28974 0.0
H536 H 0.59975 0.20154 0.35606 0.0
H537 H 0.59341 0.24439 0.35373 0.0
H538 H 0.46941 0.23818 0.28961 0.0
H539 H 0.47613 0.19532 0.29078 0.0
C540 C 0.48604 0.30559 0.34154 0.0
C541 C 0.51879 0.3199 0.3239 0.0
C542 C 0.48957 0.2811 0.33994 0.0
C543 C 0.52641 0.27044 0.32162 0.0
C544 C 0.55924 0.28469 0.30412 0.0
C545 C 0.55523 0.30917 0.30479 0.0
C546 C 0.57128 0.20931 0.3412 0.0
C547 C 0.5385 0.19504 0.32347 0.0
C548 C 0.56776 0.2338 0.33976 0.0
C549 C 0.53092 0.24451 0.32152 0.0
C550 C 0.49808 0.23031 0.30393 0.0
C551 C 0.50207 0.20582 0.30443 0.0
H552 H 0.4009 0.11353 0.22951 0.0
H553 H 0.36135 0.14469 0.34858 0.0
H554 H 0.32532 0.11361 0.20559 0.0
H555 H 0.28535 0.14472 0.32434 0.0
H556 H 0.15157 0.11532 0.28207 0.0
H557 H 0.2271 0.11511 0.30621 0.0
H558 H 0.26835 0.14362 0.18575 0.0
H559 H 0.19242 0.14386 0.16129 0.0
C560 C 0.37608 0.12031 0.25072 0.0
C561 C 0.3872 0.12911 0.29105 0.0
C562 C 0.3328 0.12051 0.23679 0.0
C563 C 0.29951 0.12928 0.26297 0.0
C564 C 0.31039 0.13774 0.30357 0.0
C565 C 0.35387 0.13777 0.3174 0.0
C566 C 0.17667 0.12149 0.26056 0.0
C567 C 0.16595 0.1296 0.21966 0.0
C568 C 0.21992 0.12152 0.2746 0.0
C569 C 0.25356 0.12943 0.24796 0.0
C570 C 0.24304 0.13729 0.20687 0.0
C571 C 0.19961 0.13749 0.19292 0.0
H572 H 0.69591 0.37034 0.34925 0.0
H573 H 0.65618 0.40161 0.23031 0.0
H574 H 0.77187 0.37033 0.32492 0.0
H575 H 0.73173 0.40154 0.20628 0.0
H576 H 0.86451 0.3712 0.16174 0.0
H577 H 0.78862 0.37151 0.1863 0.0
H578 H 0.83017 0.39992 0.30674 0.0
H579 H 0.90566 0.39965 0.28249 0.0
C580 C 0.70335 0.37729 0.31808 0.0
C581 C 0.66997 0.38598 0.29179 0.0
C582 C 0.74681 0.37734 0.30419 0.0
C583 C 0.75763 0.38583 0.26359 0.0
C584 C 0.7243 0.39462 0.23748 0.0
C585 C 0.68103 0.39481 0.25147 0.0
C586 C 0.8574 0.37757 0.19338 0.0
C587 C 0.89113 0.38542 0.22008 0.0
C588 C 0.81399 0.37781 0.2074 0.0
C589 C 0.80356 0.38566 0.24851 0.0
C590 C 0.83727 0.39353 0.27511 0.0
C591 C 0.88051 0.39352 0.261 0.0
H592 H 0.19259 0.86978 0.84718 0.0
H593 H 0.15333 0.89971 0.72697 0.0
H594 H 0.2687 0.8697 0.82327 0.0
H595 H 0.22902 0.89962 0.7034 0.0
H596 H 0.36283 0.87013 0.66069 0.0
H597 H 0.28673 0.87001 0.68462 0.0
H598 H 0.3265 0.89933 0.80492 0.0
H599 H 0.40218 0.89946 0.78133 0.0
C600 C 0.20016 0.87639 0.8158 0.0
C601 C 0.16689 0.88476 0.78905 0.0
C602 C 0.2437 0.87641 0.80216 0.0
C603 C 0.25471 0.88456 0.76138 0.0
C604 C 0.22145 0.89296 0.73476 0.0
C605 C 0.1781 0.89317 0.74848 0.0
C606 C 0.35528 0.8766 0.69217 0.0
C607 C 0.38857 0.88481 0.71903 0.0
C608 C 0.31175 0.87659 0.70582 0.0
C609 C 0.30077 0.88457 0.74672 0.0
C610 C 0.33404 0.89281 0.77346 0.0
C611 C 0.37739 0.89304 0.75973 0.0
H612 H 0.6521 0.63914 0.78338 0.0
H613 H 0.69439 0.6205 0.65727 0.0
H614 H 0.72742 0.64017 0.80728 0.0
H615 H 0.76998 0.61939 0.68164 0.0
H616 H 0.90516 0.63891 0.72498 0.0
H617 H 0.82983 0.64 0.70109 0.0
H618 H 0.78725 0.61954 0.8269 0.0
H619 H 0.86286 0.6206 0.85124 0.0
C620 C 0.67776 0.63493 0.76092 0.0
C621 C 0.66765 0.62979 0.7185 0.0
C622 C 0.72108 0.63526 0.7747 0.0
C623 C 0.75543 0.62971 0.7467 0.0
C624 C 0.74491 0.62431 0.70415 0.0
C625 C 0.70153 0.62474 0.69007 0.0
C626 C 0.87949 0.63478 0.74748 0.0
C627 C 0.8896 0.62972 0.78993 0.0
C628 C 0.83616 0.63515 0.73371 0.0
C629 C 0.80181 0.6297 0.76176 0.0
C630 C 0.81232 0.62438 0.80435 0.0
C631 C 0.85571 0.62478 0.81841 0.0
H632 H 0.65159 0.88309 0.77556 0.0
H633 H 0.69859 0.90703 0.65362 0.0
H634 H 0.72516 0.88429 0.80351 0.0
H635 H 0.7726 0.90919 0.68236 0.0
H636 H 0.90393 0.88333 0.73225 0.0
H637 H 0.83035 0.88461 0.70429 0.0
H638 H 0.78277 0.90883 0.82583 0.0
H639 H 0.85677 0.90659 0.85455 0.0
C640 C 0.67758 0.88886 0.7547 0.0
C641 C 0.66905 0.89488 0.71215 0.0
C642 C 0.71992 0.88975 0.77099 0.0
C643 C 0.75502 0.89691 0.74538 0.0
C644 C 0.74649 0.90324 0.70291 0.0
C645 C 0.70402 0.90212 0.68641 0.0
C646 C 0.8779 0.88897 0.75319 0.0
C647 C 0.88639 0.89477 0.79584 0.0
C648 C 0.83556 0.8899 0.7369 0.0
C649 C 0.80042 0.89689 0.76262 0.0
C650 C 0.80891 0.90301 0.80519 0.0
C651 C 0.85138 0.90184 0.82168 0.0
H652 H 0.40465 0.63208 0.77583 0.0
H653 H 0.35808 0.60798 0.65385 0.0
H654 H 0.331 0.63083 0.80357 0.0
H655 H 0.284 0.60576 0.68239 0.0
H656 H 0.15238 0.6314 0.73186 0.0
H657 H 0.22603 0.63021 0.70407 0.0
H658 H 0.2735 0.60626 0.82584 0.0
H659 H 0.19943 0.60843 0.8544 0.0
C660 C 0.37874 0.62626 0.75492 0.0
C661 C 0.3874 0.62021 0.71242 0.0
C662 C 0.33635 0.62534 0.77109 0.0
C663 C 0.30135 0.61811 0.74541 0.0
C664 C 0.31002 0.61176 0.70298 0.0
C665 C 0.35254 0.61292 0.6866 0.0
C666 C 0.1784 0.62584 0.75288 0.0
C667 C 0.16987 0.6201 0.79555 0.0
C668 C 0.22078 0.62496 0.73669 0.0
C669 C 0.25592 0.61807 0.76253 0.0
C670 C 0.24737 0.612 0.80512 0.0
C671 C 0.20486 0.61313 0.82151 0.0
H672 H 0.65026 0.13276 0.23147 0.0
H673 H 0.69804 0.10695 0.35188 0.0
H674 H 0.72372 0.13159 0.20285 0.0
H675 H 0.77168 0.10485 0.32253 0.0
H676 H 0.90273 0.13117 0.27431 0.0
H677 H 0.82906 0.1299 0.30185 0.0
H678 H 0.78164 0.1073 0.17926 0.0
H679 H 0.85587 0.1095 0.15094 0.0
C680 C 0.67638 0.12658 0.25181 0.0
C681 C 0.66816 0.12008 0.29418 0.0
C682 C 0.71862 0.12572 0.23516 0.0
C683 C 0.75384 0.11813 0.26025 0.0
C684 C 0.74551 0.11119 0.30243 0.0
C685 C 0.70322 0.11228 0.31926 0.0
C686 C 0.87675 0.12589 0.25303 0.0
C687 C 0.88538 0.12048 0.21024 0.0
C688 C 0.83433 0.12496 0.26907 0.0
C689 C 0.79921 0.11836 0.24298 0.0
C690 C 0.80779 0.11275 0.2002 0.0
C691 C 0.85038 0.1139 0.18396 0.0
H692 H 0.20133 0.40553 0.15157 0.0
H693 H 0.1544 0.38344 0.27466 0.0
H694 H 0.27552 0.40773 0.18 0.0
H695 H 0.22803 0.3847 0.30231 0.0
H696 H 0.35893 0.40767 0.35274 0.0
H697 H 0.2853 0.40973 0.32333 0.0
H698 H 0.33353 0.38346 0.20344 0.0
H699 H 0.40697 0.38233 0.23213 0.0
C700 C 0.2068 0.40104 0.18454 0.0
C701 C 0.17178 0.39434 0.21071 0.0
C702 C 0.24937 0.40219 0.20086 0.0
C703 C 0.25791 0.39645 0.2436 0.0
C704 C 0.22278 0.38974 0.26957 0.0
C705 C 0.18039 0.38881 0.25346 0.0
C706 C 0.3538 0.40244 0.32007 0.0
C707 C 0.38894 0.39478 0.29494 0.0
C708 C 0.31152 0.4035 0.30319 0.0
C709 C 0.30327 0.39669 0.26093 0.0
C710 C 0.33857 0.38923 0.23581 0.0
C711 C 0.3808 0.38839 0.2525 0.0
H712 H 0.96273 0.07687 0.02105 0.0
H713 H 1.00069 0.03047 0.12287 0.0
H714 H 0.96086 0.04387 0.97219 0.0
H715 H 1.00127 0.9975 0.07359 0.0
H716 H 0.96195 0.93853 0.98534 0.0
H717 H 0.95989 0.97155 0.03413 0.0
H718 H 0.00231 0.0177 0.9332 0.0
H719 H 0.00193 0.98471 0.88395 0.0
C720 C 0.97105 0.05959 0.03294 0.0
C721 C 0.98177 0.0563 0.07592 0.0
C722 C 0.97034 0.0406 0.00474 0.0
C723 C 0.98111 0.01779 0.01851 0.0
C724 C 0.99194 0.01459 0.06167 0.0
C725 C 0.99188 0.03356 0.09004 0.0
C726 C 0.97067 0.95577 0.97353 0.0
C727 C 0.98203 0.95898 0.93069 0.0
C728 C 0.96986 0.97477 1.00169 0.0
C729 C 0.98115 0.99752 0.98805 0.0
C730 C 0.99258 1.00065 0.94502 0.0
C731 C 0.99263 0.98168 0.91667 0.0
H732 H 0.09555 0.57595 0.98417 0.0
H733 H 0.05376 0.52977 0.88348 0.0
H734 H 0.0978 0.54301 0.0331 0.0
H735 H 0.05364 0.49685 0.93293 0.0
H736 H 0.0936 0.43773 0.02092 0.0
H737 H 0.09531 0.4706 0.97176 0.0
H738 H 0.05626 0.51733 0.0731 0.0
H739 H 0.05694 0.48448 0.12265 0.0
C740 C 0.08649 0.55873 0.97254 0.0
C741 C 0.07453 0.5555 0.92985 0.0
C742 C 0.08741 0.53978 1.0008 0.0
C743 C 0.07566 0.51705 0.98742 0.0
C744 C 0.06371 0.51389 0.94453 0.0
C745 C 0.06351 0.53282 0.91607 0.0
C746 C 0.08554 0.45506 0.03273 0.0
C747 C 0.07522 0.45847 0.07578 0.0
C748 C 0.08616 0.47398 0.00437 0.0
C749 C 0.07574 0.49685 0.01803 0.0
C750 C 0.06532 0.50018 0.06125 0.0
C751 C 0.06544 0.48128 0.08978 0.0
H752 H 0.46617 0.43677 0.48921 0.0
H753 H 0.50199 0.48357 0.38729 0.0
H754 H 0.46429 0.4697 0.53833 0.0
H755 H 0.50253 0.51643 0.43671 0.0
H756 H 0.46228 0.57512 0.52474 0.0
H757 H 0.46049 0.54198 0.47628 0.0
H758 H 0.50515 0.49636 0.57711 0.0
H759 H 0.50455 0.5295 0.6261 0.0
C760 C 0.47403 0.45411 0.47735 0.0
C761 C 0.48408 0.45753 0.43425 0.0
C762 C 0.4733 0.47306 0.50568 0.0
C763 C 0.48333 0.49597 0.49189 0.0
C764 C 0.49369 0.49927 0.44866 0.0
C765 C 0.49368 0.48036 0.4202 0.0
C766 C 0.47155 0.55798 0.53661 0.0
C767 C 0.48353 0.55498 0.57935 0.0
C768 C 0.4709 0.5389 0.50863 0.0
C769 C 0.48298 0.51627 0.52231 0.0
C770 C 0.49488 0.51332 0.56526 0.0
C771 C 0.4948 0.53238 0.59346 0.0
H772 H 0.59321 0.93941 0.52325 0.0
H773 H 0.55281 0.98524 0.62499 0.0
H774 H 0.59504 0.97255 0.47475 0.0
H775 H 0.55219 0.01837 0.57599 0.0
H776 H 0.55406 0.0313 0.38617 0.0
H777 H 0.55334 0.99839 0.4355 0.0
H778 H 0.59311 0.04483 0.53699 0.0
H779 H 0.59137 0.07782 0.48799 0.0
C780 C 0.58434 0.95659 0.53519 0.0
C781 C 0.57291 0.95966 0.57805 0.0
C782 C 0.58501 0.97567 0.50719 0.0
C783 C 0.57349 0.99837 0.52099 0.0
C784 C 0.56205 1.00137 0.56404 0.0
C785 C 0.56214 0.98231 0.59225 0.0
C786 C 0.56266 0.03443 0.41904 0.0
C787 C 0.57272 0.0572 0.4331 0.0
C788 C 0.56255 0.01549 0.44745 0.0
C789 C 0.57327 0.01869 0.49062 0.0
C790 C 0.58378 0.04154 0.5044 0.0
C791 C 0.58314 0.06052 0.47614 0.0
loop_
_geom_bond_atom_site_label_1
_geom_bond_atom_site_label_2
_geom_bond_distance
_geom_bond_site_symmetry_2
_ccdc_geom_bond_type
Co0 O2 2.143 . S
Co0 O8 2.074 1_455 S
Co0 O11 2.093 . S
Co0 O24 2.097 . S
Co0 N41 2.151 . S
Co0 N49 2.214 . S
Co1 O2 2.160 1_655 S
Co1 O7 2.058 . S
Co1 O17 2.056 1_655 S
Co1 O32 2.037 . S
Co1 N36 2.145 . S
Co1 N57 2.257 1_655 S
O2 Co0 2.143 . S
O2 Co1 2.160 1_455 S
C3 O4 1.278 . S
C3 O11 1.224 . S
O4 C3 1.278 . S
C5 O6 1.245 . S
C5 O17 1.239 . S
O6 C5 1.245 . S
O7 Co1 2.058 . S
O7 C33 1.269 . S
O8 Co0 2.074 1_655 S
O8 C33 1.257 . S
H9 C34 0.930 . S
H10 C40 0.930 . S
O11 Co0 2.093 . S
O11 C3 1.224 . S
H12 C44 0.916 1_655 S
H13 C46 0.930 . S
H14 C47 0.930 . S
H15 C45 0.915 1_655 S
H16 C48 0.928 . S
O17 Co1 2.056 1_455 S
O17 C5 1.239 . S
H18 C37 0.929 . S
H19 C38 0.929 . S
H20 C50 0.931 . S
H21 C42 0.929 . S
H22 C51 0.930 . S
H23 C43 0.931 . S
O24 Co0 2.097 . S
O24 C52 1.214 . S
H25 C53 0.929 . S
H26 C54 0.929 . S
H27 C55 0.930 . S
H28 C56 0.929 . S
H29 C58 0.930 . S
H30 C35 0.930 . S
H31 C39 0.949 . S
O32 Co1 2.037 . S
O32 C52 1.229 1_655 S
C33 O7 1.269 . S
C33 O8 1.257 . S
C34 H9 0.930 . S
C34 C37 1.388 . S
C34 C39 1.398 1_554 S
C35 H30 0.930 . S
C35 C38 1.404 1_556 S
C35 C39 1.354 . S
N36 Co1 2.145 . S
N36 C37 1.397 . S
N36 C38 1.334 . S
C37 H18 0.929 . S
C37 C34 1.388 . S
C37 N36 1.397 . S
C38 H19 0.929 . S
C38 C35 1.404 1_554 S
C38 N36 1.334 . S
C39 H31 0.949 . S
C39 C34 1.398 1_556 S
C39 C35 1.354 . S
C40 H10 0.930 . S
C40 N41 1.330 . S
C40 C42 1.446 . S
N41 Co0 2.151 . S
N41 C40 1.330 . S
N41 C45 1.431 . S
C42 H21 0.929 . S
C42 C40 1.446 . S
C42 C43 1.332 . S
C43 H23 0.931 . S
C43 C42 1.332 . S
C43 C44 1.280 . S
C44 H12 0.916 1_455 S
C44 C43 1.280 . S
C44 C45 1.251 . S
C45 H15 0.915 1_455 S
C45 N41 1.431 . S
C45 C44 1.251 . S
C46 H13 0.930 . S
C46 C48 1.406 . S
C46 C51 1.261 . S
C47 H14 0.930 . S
C47 N49 1.325 1_655 S
C47 C50 1.357 . S
C48 H16 0.928 . S
C48 C46 1.406 . S
C48 N49 1.261 . S
N49 Co0 2.214 . S
N49 C47 1.325 1_455 S
N49 C48 1.261 . S
C50 H20 0.931 . S
C50 C47 1.357 . S
C50 C51 1.312 1_655 S
C51 H22 0.930 . S
C51 C46 1.261 . S
C51 C50 1.312 1_455 S
C52 O24 1.214 . S
C52 O32 1.229 1_455 S
C53 H25 0.929 . S
C53 C56 1.391 . S
C53 C58 1.391 . S
C54 H26 0.929 . S
C54 C55 1.390 . S
C54 N57 1.391 . S
C55 H27 0.930 . S
C55 C54 1.390 . S
C55 C56 1.392 . S
C56 H28 0.929 . S
C56 C53 1.391 . S
C56 C55 1.392 . S
N57 Co1 2.257 1_455 S
N57 C54 1.391 . S
N57 C58 1.388 . S
C58 H29 0.930 . S
C58 C53 1.391 . S
C58 N57 1.388 . S
Co59 O61 2.143 . S
Co59 O67 2.074 . S
Co59 O70 2.093 1_455 S
Co59 O83 2.097 . S
Co59 N100 2.151 . S
Co59 N108 2.214 . S
Co60 O61 2.160 . S
Co60 O66 2.058 . S
Co60 O76 2.057 . S
Co60 O91 2.037 . S
Co60 N95 2.145 . S
Co60 N116 2.266 . S
O61 Co59 2.143 . S
O61 Co60 2.160 . S
C62 O63 1.278 . S
C62 O70 1.224 . S
O63 C62 1.278 . S
C64 O65 1.245 . S
C64 O76 1.232 . S
O65 C64 1.245 . S
O66 Co60 2.058 . S
O66 C92 1.269 . S
O67 Co59 2.074 . S
O67 C92 1.257 . S
H68 C93 0.930 . S
H69 C99 0.930 . S
O70 Co59 2.093 1_655 S
O70 C62 1.224 . S
H71 C103 0.929 . S
H72 C105 0.930 . S
H73 C106 0.930 . S
H74 C104 0.929 . S
H75 C107 0.928 1_655 S
O76 Co60 2.057 . S
O76 C64 1.232 . S
H77 C96 0.929 . S
H78 C97 0.929 . S
H79 C109 0.931 . S
H80 C101 0.929 . S
H81 C110 0.930 . S
H82 C102 0.931 . S
O83 Co59 2.097 . S
O83 C111 1.214 . S
H84 C112 0.929 . S
H85 C113 0.929 1_455 S
H86 C114 0.930 . S
H87 C115 0.929 . S
H88 C117 0.930 . S
H89 C94 0.930 . S
H90 C98 0.950 . S
O91 Co60 2.037 . S
O91 C111 1.234 . S
C92 O66 1.269 . S
C92 O67 1.257 . S
C93 H68 0.930 . S
C93 C96 1.388 . S
C93 C98 1.397 1_554 S
C94 H89 0.930 . S
C94 C97 1.404 1_556 S
C94 C98 1.355 . S
N95 Co60 2.145 . S
N95 C96 1.397 . S
N95 C97 1.334 . S
C96 H77 0.929 . S
C96 C93 1.388 . S
C96 N95 1.397 . S
C97 H78 0.929 . S
C97 C94 1.404 1_554 S
C97 N95 1.334 . S
C98 H90 0.950 . S
C98 C93 1.397 1_556 S
C98 C94 1.355 . S
C99 H69 0.930 . S
C99 N100 1.330 1_655 S
C99 C101 1.446 . S
N100 Co59 2.151 . S
N100 C99 1.330 1_455 S
N100 C104 1.418 . S
C101 H80 0.929 . S
C101 C99 1.446 . S
C101 C102 1.332 1_655 S
C102 H82 0.931 . S
C102 C101 1.332 1_455 S
C102 C103 1.267 . S
C103 H71 0.929 . S
C103 C102 1.267 . S
C103 C104 1.251 . S
C104 H74 0.929 . S
C104 N100 1.418 . S
C104 C103 1.251 . S
C105 H72 0.930 . S
C105 C107 1.406 . S
C105 C110 1.261 . S
C106 H73 0.930 . S
C106 N108 1.325 . S
C106 C109 1.357 . S
C107 H75 0.928 1_455 S
C107 C105 1.406 . S
C107 N108 1.261 . S
N108 Co59 2.214 . S
N108 C106 1.325 . S
N108 C107 1.261 . S
C109 H79 0.931 . S
C109 C106 1.357 . S
C109 C110 1.312 . S
C110 H81 0.930 . S
C110 C105 1.261 . S
C110 C109 1.312 . S
C111 O83 1.214 . S
C111 O91 1.234 . S
C112 H84 0.929 . S
C112 C115 1.391 . S
C112 C117 1.391 . S
C113 H85 0.929 1_655 S
C113 C114 1.390 . S
C113 N116 1.391 1_655 S
C114 H86 0.930 . S
C114 C113 1.390 . S
C114 C115 1.392 . S
C115 H87 0.929 . S
C115 C112 1.391 . S
C115 C114 1.392 . S
N116 Co60 2.266 . S
N116 C113 1.391 1_455 S
N116 C117 1.379 1_455 S
C117 H88 0.930 . S
C117 C112 1.391 . S
C117 N116 1.379 1_655 S
Co118 O120 2.143 . S
Co118 O126 2.074 1_455 S
Co118 O129 2.093 . S
Co118 O142 2.097 . S
Co118 N159 2.151 . S
Co118 N167 2.214 . S
Co119 O120 2.160 1_655 S
Co119 O125 2.058 . S
Co119 O135 2.056 1_655 S
Co119 O150 2.037 . S
Co119 N154 2.145 . S
Co119 N175 2.257 1_655 S
O120 Co118 2.143 . S
O120 Co119 2.160 1_455 S
C121 O122 1.278 . S
C121 O129 1.224 . S
O122 C121 1.278 . S
C123 O124 1.245 . S
C123 O135 1.239 . S
O124 C123 1.245 . S
O125 Co119 2.058 . S
O125 C151 1.269 . S
O126 Co118 2.074 1_655 S
O126 C151 1.257 . S
H127 C152 0.930 . S
H128 C158 0.930 . S
O129 Co118 2.093 . S
O129 C121 1.224 . S
H130 C162 0.916 1_655 S
H131 C164 0.930 . S
H132 C165 0.930 . S
H133 C163 0.915 1_655 S
H134 C166 0.928 . S
O135 Co119 2.056 1_455 S
O135 C123 1.239 . S
H136 C155 0.929 . S
H137 C156 0.929 . S
H138 C168 0.931 . S
H139 C160 0.929 . S
H140 C169 0.930 . S
H141 C161 0.931 . S
O142 Co118 2.097 . S
O142 C170 1.214 . S
H143 C171 0.929 . S
H144 C172 0.929 . S
H145 C173 0.930 . S
H146 C174 0.929 . S
H147 C176 0.930 . S
H148 C153 0.930 . S
H149 C157 0.949 . S
O150 Co119 2.037 . S
O150 C170 1.229 1_655 S
C151 O125 1.269 . S
C151 O126 1.257 . S
C152 H127 0.930 . S
C152 C155 1.388 . S
C152 C157 1.398 1_556 S
C153 H148 0.930 . S
C153 C156 1.404 1_554 S
C153 C157 1.354 . S
N154 Co119 2.145 . S
N154 C155 1.397 . S
N154 C156 1.334 . S
C155 H136 0.929 . S
C155 C152 1.388 . S
C155 N154 1.397 . S
C156 H137 0.929 . S
C156 C153 1.404 1_556 S
C156 N154 1.334 . S
C157 H149 0.949 . S
C157 C152 1.398 1_554 S
C157 C153 1.354 . S
C158 H128 0.930 . S
C158 N159 1.330 . S
C158 C160 1.446 . S
N159 Co118 2.151 . S
N159 C158 1.330 . S
N159 C163 1.431 . S
C160 H139 0.929 . S
C160 C158 1.446 . S
C160 C161 1.332 . S
C161 H141 0.931 . S
C161 C160 1.332 . S
C161 C162 1.280 . S
C162 H130 0.916 1_455 S
C162 C161 1.280 . S
C162 C163 1.251 . S
C163 H133 0.915 1_455 S
C163 N159 1.431 . S
C163 C162 1.251 . S
C164 H131 0.930 . S
C164 C166 1.406 . S
C164 C169 1.261 . S
C165 H132 0.930 . S
C165 N167 1.325 1_655 S
C165 C168 1.357 . S
C166 H134 0.928 . S
C166 C164 1.406 . S
C166 N167 1.261 . S
N167 Co118 2.214 . S
N167 C165 1.325 1_455 S
N167 C166 1.261 . S
C168 H138 0.931 . S
C168 C165 1.357 . S
C168 C169 1.312 1_655 S
C169 H140 0.930 . S
C169 C164 1.261 . S
C169 C168 1.312 1_455 S
C170 O142 1.214 . S
C170 O150 1.229 1_455 S
C171 H143 0.929 . S
C171 C174 1.391 . S
C171 C176 1.391 . S
C172 H144 0.929 . S
C172 C173 1.390 . S
C172 N175 1.391 . S
C173 H145 0.930 . S
C173 C172 1.390 . S
C173 C174 1.392 . S
C174 H146 0.929 . S
C174 C171 1.391 . S
C174 C173 1.392 . S
N175 Co119 2.257 1_455 S
N175 C172 1.391 . S
N175 C176 1.388 . S
C176 H147 0.930 . S
C176 C171 1.391 . S
C176 N175 1.388 . S
Co177 O179 2.143 . S
Co177 O185 2.074 . S
Co177 O188 2.093 1_455 S
Co177 O201 2.097 . S
Co177 N218 2.151 . S
Co177 N226 2.214 . S
Co178 O179 2.160 . S
Co178 O184 2.058 . S
Co178 O194 2.057 . S
Co178 O209 2.037 . S
Co178 N213 2.145 . S
Co178 N234 2.266 . S
O179 Co177 2.143 . S
O179 Co178 2.160 . S
C180 O181 1.278 . S
C180 O188 1.224 . S
O181 C180 1.278 . S
C182 O183 1.245 . S
C182 O194 1.232 . S
O183 C182 1.245 . S
O184 Co178 2.058 . S
O184 C210 1.269 . S
O185 Co177 2.074 . S
O185 C210 1.257 . S
H186 C211 0.930 . S
H187 C217 0.930 . S
O188 Co177 2.093 1_655 S
O188 C180 1.224 . S
H189 C221 0.929 . S
H190 C223 0.930 . S
H191 C224 0.930 . S
H192 C222 0.929 . S
H193 C225 0.928 1_655 S
O194 Co178 2.057 . S
O194 C182 1.232 . S
H195 C214 0.929 . S
H196 C215 0.929 . S
H197 C227 0.931 . S
H198 C219 0.929 . S
H199 C228 0.930 . S
H200 C220 0.931 . S
O201 Co177 2.097 . S
O201 C229 1.214 . S
H202 C230 0.929 . S
H203 C231 0.929 1_455 S
H204 C232 0.930 . S
H205 C233 0.929 . S
H206 C235 0.930 . S
H207 C212 0.930 . S
H208 C216 0.950 . S
O209 Co178 2.037 . S
O209 C229 1.234 . S
C210 O184 1.269 . S
C210 O185 1.257 . S
C211 H186 0.930 . S
C211 C214 1.388 . S
C211 C216 1.397 1_556 S
C212 H207 0.930 . S
C212 C215 1.404 1_554 S
C212 C216 1.355 . S
N213 Co178 2.145 . S
N213 C214 1.397 . S
N213 C215 1.334 . S
C214 H195 0.929 . S
C214 C211 1.388 . S
C214 N213 1.397 . S
C215 H196 0.929 . S
C215 C212 1.404 1_556 S
C215 N213 1.334 . S
C216 H208 0.950 . S
C216 C211 1.397 1_554 S
C216 C212 1.355 . S
C217 H187 0.930 . S
C217 N218 1.330 1_655 S
C217 C219 1.446 . S
N218 Co177 2.151 . S
N218 C217 1.330 1_455 S
N218 C222 1.418 . S
C219 H198 0.929 . S
C219 C217 1.446 . S
C219 C220 1.332 1_655 S
C220 H200 0.931 . S
C220 C219 1.332 1_455 S
C220 C221 1.267 . S
C221 H189 0.929 . S
C221 C220 1.267 . S
C221 C222 1.251 . S
C222 H192 0.929 . S
C222 N218 1.418 . S
C222 C221 1.251 . S
C223 H190 0.930 . S
C223 C225 1.406 . S
C223 C228 1.261 . S
C224 H191 0.930 . S
C224 N226 1.325 . S
C224 C227 1.357 . S
C225 H193 0.928 1_455 S
C225 C223 1.406 . S
C225 N226 1.261 . S
N226 Co177 2.214 . S
N226 C224 1.325 . S
N226 C225 1.261 . S
C227 H197 0.931 . S
C227 C224 1.357 . S
C227 C228 1.312 . S
C228 H199 0.930 . S
C228 C223 1.261 . S
C228 C227 1.312 . S
C229 O201 1.214 . S
C229 O209 1.234 . S
C230 H202 0.929 . S
C230 C233 1.391 . S
C230 C235 1.391 . S
C231 H203 0.929 1_655 S
C231 C232 1.390 . S
C231 N234 1.391 1_655 S
C232 H204 0.930 . S
C232 C231 1.390 . S
C232 C233 1.392 . S
C233 H205 0.929 . S
C233 C230 1.391 . S
C233 C232 1.392 . S
N234 Co178 2.266 . S
N234 C231 1.391 1_455 S
N234 C235 1.379 1_455 S
C235 H206 0.930 . S
C235 C230 1.391 . S
C235 N234 1.379 1_655 S
Co236 O238 2.143 . S
Co236 O244 2.074 . S
Co236 O247 2.093 . S
Co236 O260 2.097 . S
Co236 N277 2.151 . S
Co236 N285 2.214 . S
Co237 O238 2.160 . S
Co237 O243 2.058 . S
Co237 O253 2.057 . S
Co237 O268 2.037 . S
Co237 N272 2.145 . S
Co237 N293 2.257 . S
O238 Co236 2.143 . S
O238 Co237 2.160 . S
C239 O240 1.278 . S
C239 O247 1.224 . S
O240 C239 1.278 . S
C241 O242 1.245 . S
C241 O253 1.232 . S
O242 C241 1.245 . S
O243 Co237 2.058 . S
O243 C269 1.269 . S
O244 Co236 2.074 . S
O244 C269 1.257 . S
H245 C270 0.930 . S
H246 C276 0.930 . S
O247 Co236 2.093 . S
O247 C239 1.224 . S
H248 C280 0.929 . S
H249 C282 0.930 . S
H250 C283 0.930 . S
H251 C281 0.929 . S
H252 C284 0.928 . S
O253 Co237 2.057 . S
O253 C241 1.232 . S
H254 C273 0.929 . S
H255 C274 0.929 . S
H256 C286 0.931 . S
H257 C278 0.929 . S
H258 C287 0.930 . S
H259 C279 0.931 . S
O260 Co236 2.097 . S
O260 C288 1.214 . S
H261 C289 0.929 . S
H262 C290 0.929 . S
H263 C291 0.930 . S
H264 C292 0.929 . S
H265 C294 0.930 . S
H266 C271 0.930 . S
H267 C275 0.930 . S
O268 Co237 2.037 . S
O268 C288 1.234 . S
C269 O243 1.269 . S
C269 O244 1.257 . S
C270 H245 0.930 . S
C270 C273 1.388 . S
C270 C275 1.418 . S
C271 H266 0.930 . S
C271 C274 1.404 . S
C271 C275 1.353 . S
N272 Co237 2.145 . S
N272 C273 1.397 . S
N272 C274 1.334 . S
C273 H254 0.929 . S
C273 C270 1.388 . S
C273 N272 1.397 . S
C274 H255 0.929 . S
C274 C271 1.404 . S
C274 N272 1.334 . S
C275 H267 0.930 . S
C275 C270 1.418 . S
C275 C271 1.353 . S
C276 H246 0.930 . S
C276 N277 1.330 . S
C276 C278 1.446 . S
N277 Co236 2.151 . S
N277 C276 1.330 . S
N277 C281 1.418 . S
C278 H257 0.929 . S
C278 C276 1.446 . S
C278 C279 1.332 . S
C279 H259 0.931 . S
C279 C278 1.332 . S
C279 C280 1.267 . S
C280 H248 0.929 . S
C280 C279 1.267 . S
C280 C281 1.251 . S
C281 H251 0.929 . S
C281 N277 1.418 . S
C281 C280 1.251 . S
C282 H249 0.930 . S
C282 C284 1.406 . S
C282 C287 1.261 . S
C283 H250 0.930 . S
C283 N285 1.325 . S
C283 C286 1.357 . S
C284 H252 0.928 . S
C284 C282 1.406 . S
C284 N285 1.261 . S
N285 Co236 2.214 . S
N285 C283 1.325 . S
N285 C284 1.261 . S
C286 H256 0.931 . S
C286 C283 1.357 . S
C286 C287 1.312 . S
C287 H258 0.930 . S
C287 C282 1.261 . S
C287 C286 1.312 . S
C288 O260 1.214 . S
C288 O268 1.234 . S
C289 H261 0.929 . S
C289 C292 1.391 . S
C289 C294 1.391 . S
C290 H262 0.929 . S
C290 C291 1.390 . S
C290 N293 1.391 . S
C291 H263 0.930 . S
C291 C290 1.390 . S
C291 C292 1.392 . S
C292 H264 0.929 . S
C292 C289 1.391 . S
C292 C291 1.392 . S
N293 Co237 2.257 . S
N293 C290 1.391 . S
N293 C294 1.388 . S
C294 H265 0.930 . S
C294 C289 1.391 . S
C294 N293 1.388 . S
Co295 O297 2.143 . S
Co295 O303 2.074 . S
Co295 O306 2.093 . S
Co295 O319 2.097 . S
Co295 N336 2.151 . S
Co295 N344 2.214 . S
Co296 O297 2.160 . S
Co296 O302 2.058 . S
Co296 O312 2.057 . S
Co296 O327 2.037 . S
Co296 N331 2.145 . S
Co296 N352 2.257 . S
O297 Co295 2.143 . S
O297 Co296 2.160 . S
C298 O299 1.278 . S
C298 O306 1.224 . S
O299 C298 1.278 . S
C300 O301 1.245 . S
C300 O312 1.232 . S
O301 C300 1.245 . S
O302 Co296 2.058 . S
O302 C328 1.269 . S
O303 Co295 2.074 . S
O303 C328 1.257 . S
H304 C329 0.930 . S
H305 C335 0.930 . S
O306 Co295 2.093 . S
O306 C298 1.224 . S
H307 C339 0.929 . S
H308 C341 0.930 . S
H309 C342 0.930 . S
H310 C340 0.929 . S
H311 C343 0.928 . S
O312 Co296 2.057 . S
O312 C300 1.232 . S
H313 C332 0.929 . S
H314 C333 0.929 . S
H315 C345 0.931 . S
H316 C337 0.929 . S
H317 C346 0.930 . S
H318 C338 0.931 . S
O319 Co295 2.097 . S
O319 C347 1.214 . S
H320 C348 0.929 . S
H321 C349 0.929 . S
H322 C350 0.930 . S
H323 C351 0.929 . S
H324 C353 0.930 . S
H325 C330 0.930 . S
H326 C334 0.930 . S
O327 Co296 2.037 . S
O327 C347 1.234 . S
C328 O302 1.269 . S
C328 O303 1.257 . S
C329 H304 0.930 . S
C329 C332 1.388 . S
C329 C334 1.418 . S
C330 H325 0.930 . S
C330 C333 1.404 . S
C330 C334 1.353 . S
N331 Co296 2.145 . S
N331 C332 1.397 . S
N331 C333 1.334 . S
C332 H313 0.929 . S
C332 C329 1.388 . S
C332 N331 1.397 . S
C333 H314 0.929 . S
C333 C330 1.404 . S
C333 N331 1.334 . S
C334 H326 0.930 . S
C334 C329 1.418 . S
C334 C330 1.353 . S
C335 H305 0.930 . S
C335 N336 1.330 . S
C335 C337 1.446 . S
N336 Co295 2.151 . S
N336 C335 1.330 . S
N336 C340 1.418 . S
C337 H316 0.929 . S
C337 C335 1.446 . S
C337 C338 1.332 . S
C338 H318 0.931 . S
C338 C337 1.332 . S
C338 C339 1.267 . S
C339 H307 0.929 . S
C339 C338 1.267 . S
C339 C340 1.251 . S
C340 H310 0.929 . S
C340 N336 1.418 . S
C340 C339 1.251 . S
C341 H308 0.930 . S
C341 C343 1.406 . S
C341 C346 1.261 . S
C342 H309 0.930 . S
C342 N344 1.325 . S
C342 C345 1.357 . S
C343 H311 0.928 . S
C343 C341 1.406 . S
C343 N344 1.261 . S
N344 Co295 2.214 . S
N344 C342 1.325 . S
N344 C343 1.261 . S
C345 H315 0.931 . S
C345 C342 1.357 . S
C345 C346 1.312 . S
C346 H317 0.930 . S
C346 C341 1.261 . S
C346 C345 1.312 . S
C347 O319 1.214 . S
C347 O327 1.234 . S
C348 H320 0.929 . S
C348 C351 1.391 . S
C348 C353 1.391 . S
C349 H321 0.929 . S
C349 C350 1.390 . S
C349 N352 1.391 . S
C350 H322 0.930 . S
C350 C349 1.390 . S
C350 C351 1.392 . S
C351 H323 0.929 . S
C351 C348 1.391 . S
C351 C350 1.392 . S
N352 Co296 2.257 . S
N352 C349 1.391 . S
N352 C353 1.388 . S
C353 H324 0.930 . S
C353 C348 1.391 . S
C353 N352 1.388 . S
Co354 O356 2.143 . S
Co354 O362 2.074 . S
Co354 O365 2.093 . S
Co354 O378 2.097 . S
Co354 N395 2.151 . S
Co354 N403 2.214 . S
Co355 O356 2.160 . S
Co355 O361 2.058 . S
Co355 O371 2.057 . S
Co355 O386 2.037 . S
Co355 N390 2.145 . S
Co355 N411 2.257 . S
O356 Co354 2.143 . S
O356 Co355 2.160 . S
C357 O358 1.278 . S
C357 O365 1.224 . S
O358 C357 1.278 . S
C359 O360 1.245 . S
C359 O371 1.232 . S
O360 C359 1.245 . S
O361 Co355 2.058 . S
O361 C387 1.269 . S
O362 Co354 2.074 . S
O362 C387 1.257 . S
H363 C388 0.930 . S
H364 C394 0.930 . S
O365 Co354 2.093 . S
O365 C357 1.224 . S
H366 C398 0.929 . S
H367 C400 0.930 . S
H368 C401 0.930 . S
H369 C399 0.929 . S
H370 C402 0.928 . S
O371 Co355 2.057 . S
O371 C359 1.232 . S
H372 C391 0.929 . S
H373 C392 0.929 . S
H374 C404 0.931 . S
H375 C396 0.929 . S
H376 C405 0.930 . S
H377 C397 0.931 . S
O378 Co354 2.097 . S
O378 C406 1.214 . S
H379 C407 0.929 . S
H380 C408 0.929 . S
H381 C409 0.930 . S
H382 C410 0.929 . S
H383 C412 0.930 . S
H384 C389 0.930 . S
H385 C393 0.930 . S
O386 Co355 2.037 . S
O386 C406 1.234 . S
C387 O361 1.269 . S
C387 O362 1.257 . S
C388 H363 0.930 . S
C388 C391 1.388 . S
C388 C393 1.418 . S
C389 H384 0.930 . S
C389 C392 1.404 . S
C389 C393 1.353 . S
N390 Co355 2.145 . S
N390 C391 1.397 . S
N390 C392 1.334 . S
C391 H372 0.929 . S
C391 C388 1.388 . S
C391 N390 1.397 . S
C392 H373 0.929 . S
C392 C389 1.404 . S
C392 N390 1.334 . S
C393 H385 0.930 . S
C393 C388 1.418 . S
C393 C389 1.353 . S
C394 H364 0.930 . S
C394 N395 1.330 . S
C394 C396 1.446 . S
N395 Co354 2.151 . S
N395 C394 1.330 . S
N395 C399 1.418 . S
C396 H375 0.929 . S
C396 C394 1.446 . S
C396 C397 1.332 . S
C397 H377 0.931 . S
C397 C396 1.332 . S
C397 C398 1.267 . S
C398 H366 0.929 . S
C398 C397 1.267 . S
C398 C399 1.251 . S
C399 H369 0.929 . S
C399 N395 1.418 . S
C399 C398 1.251 . S
C400 H367 0.930 . S
C400 C402 1.406 . S
C400 C405 1.261 . S
C401 H368 0.930 . S
C401 N403 1.325 . S
C401 C404 1.357 . S
C402 H370 0.928 . S
C402 C400 1.406 . S
C402 N403 1.261 . S
N403 Co354 2.214 . S
N403 C401 1.325 . S
N403 C402 1.261 . S
C404 H374 0.931 . S
C404 C401 1.357 . S
C404 C405 1.312 . S
C405 H376 0.930 . S
C405 C400 1.261 . S
C405 C404 1.312 . S
C406 O378 1.214 . S
C406 O386 1.234 . S
C407 H379 0.929 . S
C407 C410 1.391 . S
C407 C412 1.391 . S
C408 H380 0.929 . S
C408 C409 1.390 . S
C408 N411 1.391 . S
C409 H381 0.930 . S
C409 C408 1.390 . S
C409 C410 1.392 . S
C410 H382 0.929 . S
C410 C407 1.391 . S
C410 C409 1.392 . S
N411 Co355 2.257 . S
N411 C408 1.391 . S
N411 C412 1.388 . S
C412 H383 0.930 . S
C412 C407 1.391 . S
C412 N411 1.388 . S
Co413 O415 2.143 . S
Co413 O421 2.074 . S
Co413 O424 2.093 . S
Co413 O437 2.097 . S
Co413 N454 2.151 . S
Co413 N462 2.214 . S
Co414 O415 2.160 . S
Co414 O420 2.058 . S
Co414 O430 2.057 . S
Co414 O445 2.037 . S
Co414 N449 2.145 . S
Co414 N470 2.257 . S
O415 Co413 2.143 . S
O415 Co414 2.160 . S
C416 O417 1.278 . S
C416 O424 1.224 . S
O417 C416 1.278 . S
C418 O419 1.245 . S
C418 O430 1.232 . S
O419 C418 1.245 . S
O420 Co414 2.058 . S
O420 C446 1.269 . S
O421 Co413 2.074 . S
O421 C446 1.257 . S
H422 C447 0.930 . S
H423 C453 0.930 . S
O424 Co413 2.093 . S
O424 C416 1.224 . S
H425 C457 0.929 . S
H426 C459 0.930 . S
H427 C460 0.930 . S
H428 C458 0.929 . S
H429 C461 0.928 . S
O430 Co414 2.057 . S
O430 C418 1.232 . S
H431 C450 0.929 . S
H432 C451 0.929 . S
H433 C463 0.931 . S
H434 C455 0.929 . S
H435 C464 0.930 . S
H436 C456 0.931 . S
O437 Co413 2.097 . S
O437 C465 1.214 . S
H438 C466 0.929 . S
H439 C467 0.929 . S
H440 C468 0.930 . S
H441 C469 0.929 . S
H442 C471 0.930 . S
H443 C448 0.930 . S
H444 C452 0.930 . S
O445 Co414 2.037 . S
O445 C465 1.234 . S
C446 O420 1.269 . S
C446 O421 1.257 . S
C447 H422 0.930 . S
C447 C450 1.388 . S
C447 C452 1.418 . S
C448 H443 0.930 . S
C448 C451 1.404 . S
C448 C452 1.353 . S
N449 Co414 2.145 . S
N449 C450 1.397 . S
N449 C451 1.334 . S
C450 H431 0.929 . S
C450 C447 1.388 . S
C450 N449 1.397 . S
C451 H432 0.929 . S
C451 C448 1.404 . S
C451 N449 1.334 . S
C452 H444 0.930 . S
C452 C447 1.418 . S
C452 C448 1.353 . S
C453 H423 0.930 . S
C453 N454 1.330 . S
C453 C455 1.446 . S
N454 Co413 2.151 . S
N454 C453 1.330 . S
N454 C458 1.418 . S
C455 H434 0.929 . S
C455 C453 1.446 . S
C455 C456 1.332 . S
C456 H436 0.931 . S
C456 C455 1.332 . S
C456 C457 1.267 . S
C457 H425 0.929 . S
C457 C456 1.267 . S
C457 C458 1.251 . S
C458 H428 0.929 . S
C458 N454 1.418 . S
C458 C457 1.251 . S
C459 H426 0.930 . S
C459 C461 1.406 . S
C459 C464 1.261 . S
C460 H427 0.930 . S
C460 N462 1.325 . S
C460 C463 1.357 . S
C461 H429 0.928 . S
C461 C459 1.406 . S
C461 N462 1.261 . S
N462 Co413 2.214 . S
N462 C460 1.325 . S
N462 C461 1.261 . S
C463 H433 0.931 . S
C463 C460 1.357 . S
C463 C464 1.312 . S
C464 H435 0.930 . S
C464 C459 1.261 . S
C464 C463 1.312 . S
C465 O437 1.214 . S
C465 O445 1.234 . S
C466 H438 0.929 . S
C466 C469 1.391 . S
C466 C471 1.391 . S
C467 H439 0.929 . S
C467 C468 1.390 . S
C467 N470 1.391 . S
C468 H440 0.930 . S
C468 C467 1.390 . S
C468 C469 1.392 . S
C469 H441 0.929 . S
C469 C466 1.391 . S
C469 C468 1.392 . S
N470 Co414 2.257 . S
N470 C467 1.391 . S
N470 C471 1.388 . S
C471 H442 0.930 . S
C471 C466 1.391 . S
C471 N470 1.388 . S
H472 C480 0.950 . S
H473 C485 0.950 . S
H474 C482 0.950 . S
H475 C484 0.950 . S
H476 C486 0.950 . S
H477 C488 0.950 . S
H478 C490 0.950 . S
H479 C491 0.950 1_655 S
C480 H472 0.950 . S
C480 C481 1.386 . S
C480 C482 1.391 . S
C481 C480 1.386 . S
C481 C485 1.393 . S
C482 H474 0.950 . S
C482 C480 1.391 . S
C482 C483 1.400 . S
C483 C482 1.400 . S
C483 C484 1.398 . S
C483 C489 1.491 . S
C484 H475 0.950 . S
C484 C483 1.398 . S
C484 C485 1.391 . S
C485 H473 0.950 . S
C485 C481 1.393 . S
C485 C484 1.391 . S
C486 H476 0.950 . S
C486 C487 1.386 . S
C486 C488 1.391 . S
C487 C486 1.386 . S
C487 C491 1.393 . S
C488 H477 0.950 . S
C488 C486 1.391 . S
C488 C489 1.400 . S
C489 C483 1.491 . S
C489 C488 1.400 . S
C489 C490 1.398 . S
C490 H478 0.950 . S
C490 C489 1.398 . S
C490 C491 1.391 . S
C491 H479 0.950 1_455 S
C491 C487 1.393 . S
C491 C490 1.391 . S
H492 C500 0.950 . S
H493 C505 0.950 . S
H494 C502 0.950 . S
H495 C504 0.950 . S
H496 C506 0.950 . S
H497 C508 0.950 . S
H498 C510 0.950 . S
H499 C511 0.950 . S
C500 H492 0.950 . S
C500 C501 1.386 . S
C500 C502 1.391 . S
C501 C500 1.386 . S
C501 C505 1.393 . S
C502 H494 0.950 . S
C502 C500 1.391 . S
C502 C503 1.400 . S
C503 C502 1.400 . S
C503 C504 1.398 . S
C503 C509 1.491 . S
C504 H495 0.950 . S
C504 C503 1.398 . S
C504 C505 1.391 . S
C505 H493 0.950 . S
C505 C501 1.393 . S
C505 C504 1.391 . S
C506 H496 0.950 . S
C506 C507 1.386 . S
C506 C508 1.391 . S
C507 C506 1.386 . S
C507 C511 1.393 . S
C508 H497 0.950 . S
C508 C506 1.391 . S
C508 C509 1.400 . S
C509 C503 1.491 . S
C509 C508 1.400 . S
C509 C510 1.398 . S
C510 H498 0.950 . S
C510 C509 1.398 . S
C510 C511 1.391 . S
C511 H499 0.950 . S
C511 C507 1.393 . S
C511 C510 1.391 . S
H512 C520 0.950 . S
H513 C525 0.950 . S
H514 C522 0.950 . S
H515 C524 0.950 . S
H516 C526 0.950 . S
H517 C528 0.950 . S
H518 C530 0.950 . S
H519 C531 0.950 . S
C520 H512 0.950 . S
C520 C521 1.386 . S
C520 C522 1.391 . S
C521 C520 1.386 . S
C521 C525 1.393 . S
C522 H514 0.950 . S
C522 C520 1.391 . S
C522 C523 1.400 . S
C523 C522 1.400 . S
C523 C524 1.398 . S
C523 C529 1.491 . S
C524 H515 0.950 . S
C524 C523 1.398 . S
C524 C525 1.391 . S
C525 H513 0.950 . S
C525 C521 1.393 . S
C525 C524 1.391 . S
C526 H516 0.950 . S
C526 C527 1.386 . S
C526 C528 1.391 . S
C527 C526 1.386 . S
C527 C531 1.393 . S
C528 H517 0.950 . S
C528 C526 1.391 . S
C528 C529 1.400 . S
C529 C523 1.491 . S
C529 C528 1.400 . S
C529 C530 1.398 . S
C530 H518 0.950 . S
C530 C529 1.398 . S
C530 C531 1.391 . S
C531 H519 0.950 . S
C531 C527 1.393 . S
C531 C530 1.391 . S
H532 C540 0.950 . S
H533 C545 0.950 . S
H534 C542 0.950 . S
H535 C544 0.950 . S
H536 C546 0.950 . S
H537 C548 0.950 . S
H538 C550 0.950 . S
H539 C551 0.950 . S
C540 H532 0.950 . S
C540 C541 1.386 . S
C540 C542 1.391 . S
C541 C540 1.386 . S
C541 C545 1.393 . S
C542 H534 0.950 . S
C542 C540 1.391 . S
C542 C543 1.400 . S
C543 C542 1.400 . S
C543 C544 1.398 . S
C543 C549 1.491 . S
C544 H535 0.950 . S
C544 C543 1.398 . S
C544 C545 1.391 . S
C545 H533 0.950 . S
C545 C541 1.393 . S
C545 C544 1.391 . S
C546 H536 0.950 . S
C546 C547 1.386 . S
C546 C548 1.391 . S
C547 C546 1.386 . S
C547 C551 1.393 . S
C548 H537 0.950 . S
C548 C546 1.391 . S
C548 C549 1.400 . S
C549 C543 1.491 . S
C549 C548 1.400 . S
C549 C550 1.398 . S
C550 H538 0.950 . S
C550 C549 1.398 . S
C550 C551 1.391 . S
C551 H539 0.950 . S
C551 C547 1.393 . S
C551 C550 1.391 . S
H552 C560 0.950 . S
H553 C565 0.950 . S
H554 C562 0.950 . S
H555 C564 0.950 . S
H556 C566 0.950 . S
H557 C568 0.950 . S
H558 C570 0.950 . S
H559 C571 0.950 . S
C560 H552 0.950 . S
C560 C561 1.386 . S
C560 C562 1.391 . S
C561 C560 1.386 . S
C561 C565 1.393 . S
C562 H554 0.950 . S
C562 C560 1.391 . S
C562 C563 1.400 . S
C563 C562 1.400 . S
C563 C564 1.398 . S
C563 C569 1.491 . S
C564 H555 0.950 . S
C564 C563 1.398 . S
C564 C565 1.391 . S
C565 H553 0.950 . S
C565 C561 1.393 . S
C565 C564 1.391 . S
C566 H556 0.950 . S
C566 C567 1.386 . S
C566 C568 1.391 . S
C567 C566 1.386 . S
C567 C571 1.393 . S
C568 H557 0.950 . S
C568 C566 1.391 . S
C568 C569 1.400 . S
C569 C563 1.491 . S
C569 C568 1.400 . S
C569 C570 1.398 . S
C570 H558 0.950 . S
C570 C569 1.398 . S
C570 C571 1.391 . S
C571 H559 0.950 . S
C571 C567 1.393 . S
C571 C570 1.391 . S
H572 C580 0.950 . S
H573 C585 0.950 . S
H574 C582 0.950 . S
H575 C584 0.950 . S
H576 C586 0.950 . S
H577 C588 0.950 . S
H578 C590 0.950 . S
H579 C591 0.950 . S
C580 H572 0.950 . S
C580 C581 1.386 . S
C580 C582 1.391 . S
C581 C580 1.386 . S
C581 C585 1.393 . S
C582 H574 0.950 . S
C582 C580 1.391 . S
C582 C583 1.400 . S
C583 C582 1.400 . S
C583 C584 1.398 . S
C583 C589 1.491 . S
C584 H575 0.950 . S
C584 C583 1.398 . S
C584 C585 1.391 . S
C585 H573 0.950 . S
C585 C581 1.393 . S
C585 C584 1.391 . S
C586 H576 0.950 . S
C586 C587 1.386 . S
C586 C588 1.391 . S
C587 C586 1.386 . S
C587 C591 1.393 . S
C588 H577 0.950 . S
C588 C586 1.391 . S
C588 C589 1.400 . S
C589 C583 1.491 . S
C589 C588 1.400 . S
C589 C590 1.398 . S
C590 H578 0.950 . S
C590 C589 1.398 . S
C590 C591 1.391 . S
C591 H579 0.950 . S
C591 C587 1.393 . S
C591 C590 1.391 . S
H592 C600 0.950 . S
H593 C605 0.950 . S
H594 C602 0.950 . S
H595 C604 0.950 . S
H596 C606 0.950 . S
H597 C608 0.950 . S
H598 C610 0.950 . S
H599 C611 0.950 . S
C600 H592 0.950 . S
C600 C601 1.386 . S
C600 C602 1.391 . S
C601 C600 1.386 . S
C601 C605 1.393 . S
C602 H594 0.950 . S
C602 C600 1.391 . S
C602 C603 1.400 . S
C603 C602 1.400 . S
C603 C604 1.398 . S
C603 C609 1.491 . S
C604 H595 0.950 . S
C604 C603 1.398 . S
C604 C605 1.391 . S
C605 H593 0.950 . S
C605 C601 1.393 . S
C605 C604 1.391 . S
C606 H596 0.950 . S
C606 C607 1.386 . S
C606 C608 1.391 . S
C607 C606 1.386 . S
C607 C611 1.393 . S
C608 H597 0.950 . S
C608 C606 1.391 . S
C608 C609 1.400 . S
C609 C603 1.491 . S
C609 C608 1.400 . S
C609 C610 1.398 . S
C610 H598 0.950 . S
C610 C609 1.398 . S
C610 C611 1.391 . S
C611 H599 0.950 . S
C611 C607 1.393 . S
C611 C610 1.391 . S
H612 C620 0.950 . S
H613 C625 0.950 . S
H614 C622 0.950 . S
H615 C624 0.950 . S
H616 C626 0.950 . S
H617 C628 0.950 . S
H618 C630 0.950 . S
H619 C631 0.950 . S
C620 H612 0.950 . S
C620 C621 1.386 . S
C620 C622 1.391 . S
C621 C620 1.386 . S
C621 C625 1.393 . S
C622 H614 0.950 . S
C622 C620 1.391 . S
C622 C623 1.400 . S
C623 C622 1.400 . S
C623 C624 1.398 . S
C623 C629 1.491 . S
C624 H615 0.950 . S
C624 C623 1.398 . S
C624 C625 1.391 . S
C625 H613 0.950 . S
C625 C621 1.393 . S
C625 C624 1.391 . S
C626 H616 0.950 . S
C626 C627 1.386 . S
C626 C628 1.391 . S
C627 C626 1.386 . S
C627 C631 1.393 . S
C628 H617 0.950 . S
C628 C626 1.391 . S
C628 C629 1.400 . S
C629 C623 1.491 . S
C629 C628 1.400 . S
C629 C630 1.398 . S
C630 H618 0.950 . S
C630 C629 1.398 . S
C630 C631 1.391 . S
C631 H619 0.950 . S
C631 C627 1.393 . S
C631 C630 1.391 . S
H632 C640 0.950 . S
H633 C645 0.950 . S
H634 C642 0.950 . S
H635 C644 0.950 . S
H636 C646 0.950 . S
H637 C648 0.950 . S
H638 C650 0.950 . S
H639 C651 0.950 . S
C640 H632 0.950 . S
C640 C641 1.386 . S
C640 C642 1.391 . S
C641 C640 1.386 . S
C641 C645 1.393 . S
C642 H634 0.950 . S
C642 C640 1.391 . S
C642 C643 1.400 . S
C643 C642 1.400 . S
C643 C644 1.398 . S
C643 C649 1.491 . S
C644 H635 0.950 . S
C644 C643 1.398 . S
C644 C645 1.391 . S
C645 H633 0.950 . S
C645 C641 1.393 . S
C645 C644 1.391 . S
C646 H636 0.950 . S
C646 C647 1.386 . S
C646 C648 1.391 . S
C647 C646 1.386 . S
C647 C651 1.393 . S
C648 H637 0.950 . S
C648 C646 1.391 . S
C648 C649 1.400 . S
C649 C643 1.491 . S
C649 C648 1.400 . S
C649 C650 1.398 . S
C650 H638 0.950 . S
C650 C649 1.398 . S
C650 C651 1.391 . S
C651 H639 0.950 . S
C651 C647 1.393 . S
C651 C650 1.391 . S
H652 C660 0.950 . S
H653 C665 0.950 . S
H654 C662 0.950 . S
H655 C664 0.950 . S
H656 C666 0.950 . S
H657 C668 0.950 . S
H658 C670 0.950 . S
H659 C671 0.950 . S
C660 H652 0.950 . S
C660 C661 1.386 . S
C660 C662 1.391 . S
C661 C660 1.386 . S
C661 C665 1.393 . S
C662 H654 0.950 . S
C662 C660 1.391 . S
C662 C663 1.400 . S
C663 C662 1.400 . S
C663 C664 1.398 . S
C663 C669 1.491 . S
C664 H655 0.950 . S
C664 C663 1.398 . S
C664 C665 1.391 . S
C665 H653 0.950 . S
C665 C661 1.393 . S
C665 C664 1.391 . S
C666 H656 0.950 . S
C666 C667 1.386 . S
C666 C668 1.391 . S
C667 C666 1.386 . S
C667 C671 1.393 . S
C668 H657 0.950 . S
C668 C666 1.391 . S
C668 C669 1.400 . S
C669 C663 1.491 . S
C669 C668 1.400 . S
C669 C670 1.398 . S
C670 H658 0.950 . S
C670 C669 1.398 . S
C670 C671 1.391 . S
C671 H659 0.950 . S
C671 C667 1.393 . S
C671 C670 1.391 . S
H672 C680 0.950 . S
H673 C685 0.950 . S
H674 C682 0.950 . S
H675 C684 0.950 . S
H676 C686 0.950 . S
H677 C688 0.950 . S
H678 C690 0.950 . S
H679 C691 0.950 . S
C680 H672 0.950 . S
C680 C681 1.386 . S
C680 C682 1.391 . S
C681 C680 1.386 . S
C681 C685 1.393 . S
C682 H674 0.950 . S
C682 C680 1.391 . S
C682 C683 1.400 . S
C683 C682 1.400 . S
C683 C684 1.398 . S
C683 C689 1.491 . S
C684 H675 0.950 . S
C684 C683 1.398 . S
C684 C685 1.391 . S
C685 H673 0.950 . S
C685 C681 1.393 . S
C685 C684 1.391 . S
C686 H676 0.950 . S
C686 C687 1.386 . S
C686 C688 1.391 . S
C687 C686 1.386 . S
C687 C691 1.393 . S
C688 H677 0.950 . S
C688 C686 1.391 . S
C688 C689 1.400 . S
C689 C683 1.491 . S
C689 C688 1.400 . S
C689 C690 1.398 . S
C690 H678 0.950 . S
C690 C689 1.398 . S
C690 C691 1.391 . S
C691 H679 0.950 . S
C691 C687 1.393 . S
C691 C690 1.391 . S
H692 C700 0.950 . S
H693 C705 0.950 . S
H694 C702 0.950 . S
H695 C704 0.950 . S
H696 C706 0.950 . S
H697 C708 0.950 . S
H698 C710 0.950 . S
H699 C711 0.950 . S
C700 H692 0.950 . S
C700 C701 1.386 . S
C700 C702 1.391 . S
C701 C700 1.386 . S
C701 C705 1.393 . S
C702 H694 0.950 . S
C702 C700 1.391 . S
C702 C703 1.400 . S
C703 C702 1.400 . S
C703 C704 1.398 . S
C703 C709 1.491 . S
C704 H695 0.950 . S
C704 C703 1.398 . S
C704 C705 1.391 . S
C705 H693 0.950 . S
C705 C701 1.393 . S
C705 C704 1.391 . S
C706 H696 0.950 . S
C706 C707 1.386 . S
C706 C708 1.391 . S
C707 C706 1.386 . S
C707 C711 1.393 . S
C708 H697 0.950 . S
C708 C706 1.391 . S
C708 C709 1.400 . S
C709 C703 1.491 . S
C709 C708 1.400 . S
C709 C710 1.398 . S
C710 H698 0.950 . S
C710 C709 1.398 . S
C710 C711 1.391 . S
C711 H699 0.950 . S
C711 C707 1.393 . S
C711 C710 1.391 . S
H712 C720 0.950 . S
H713 C725 0.950 . S
H714 C722 0.962 . S
H715 C724 0.950 1_565 S
H716 C726 0.950 . S
H717 C728 0.962 . S
H718 C730 0.950 1_545 S
H719 C731 0.950 . S
C720 H712 0.950 . S
C720 C721 1.386 . S
C720 C722 1.384 1_554 S
C721 C720 1.386 . S
C721 C725 1.393 . S
C722 H714 0.962 . S
C722 C720 1.384 1_556 S
C722 C723 1.396 1_556 S
C723 C722 1.396 1_554 S
C723 C724 1.398 . S
C723 C729 1.491 1_544 S
C724 H715 0.950 1_545 S
C724 C723 1.398 . S
C724 C725 1.391 . S
C725 H713 0.950 . S
C725 C721 1.393 . S
C725 C724 1.391 . S
C726 H716 0.950 . S
C726 C727 1.386 . S
C726 C728 1.384 1_556 S
C727 C726 1.386 . S
C727 C731 1.393 . S
C728 H717 0.962 . S
C728 C726 1.384 1_554 S
C728 C729 1.396 1_554 S
C729 C723 1.491 1_566 S
C729 C728 1.396 1_556 S
C729 C730 1.398 . S
C730 H718 0.950 1_565 S
C730 C729 1.398 . S
C730 C731 1.391 . S
C731 H719 0.950 . S
C731 C727 1.393 . S
C731 C730 1.391 . S
H732 C740 0.950 . S
H733 C745 0.950 . S
H734 C742 0.946 1_554 S
H735 C744 0.950 . S
H736 C746 0.950 . S
H737 C748 0.946 1_556 S
H738 C750 0.950 . S
H739 C751 0.950 . S
C740 H732 0.950 . S
C740 C741 1.386 . S
C740 C742 1.394 . S
C741 C740 1.386 . S
C741 C745 1.393 . S
C742 H734 0.946 1_556 S
C742 C740 1.394 . S
C742 C743 1.401 . S
C743 C742 1.401 . S
C743 C744 1.398 . S
C743 C749 1.491 1_556 S
C744 H735 0.950 . S
C744 C743 1.398 . S
C744 C745 1.391 . S
C745 H733 0.950 . S
C745 C741 1.393 . S
C745 C744 1.391 . S
C746 H736 0.950 . S
C746 C747 1.386 . S
C746 C748 1.394 . S
C747 C746 1.386 . S
C747 C751 1.393 . S
C748 H737 0.946 1_554 S
C748 C746 1.394 . S
C748 C749 1.401 . S
C749 C743 1.491 1_554 S
C749 C748 1.401 . S
C749 C750 1.398 . S
C750 H738 0.950 . S
C750 C749 1.398 . S
C750 C751 1.391 . S
C751 H739 0.950 . S
C751 C747 1.393 . S
C751 C750 1.391 . S
H752 C760 0.950 . S
H753 C765 0.950 . S
H754 C762 0.950 . S
H755 C764 0.950 . S
H756 C766 0.950 . S
H757 C768 0.950 . S
H758 C770 0.950 . S
H759 C771 0.950 . S
C760 H752 0.950 . S
C760 C761 1.386 . S
C760 C762 1.391 . S
C761 C760 1.386 . S
C761 C765 1.393 . S
C762 H754 0.950 . S
C762 C760 1.391 . S
C762 C763 1.400 . S
C763 C762 1.400 . S
C763 C764 1.398 . S
C763 C769 1.491 . S
C764 H755 0.950 . S
C764 C763 1.398 . S
C764 C765 1.391 . S
C765 H753 0.950 . S
C765 C761 1.393 . S
C765 C764 1.391 . S
C766 H756 0.950 . S
C766 C767 1.386 . S
C766 C768 1.391 . S
C767 C766 1.386 . S
C767 C771 1.393 . S
C768 H757 0.950 . S
C768 C766 1.391 . S
C768 C769 1.400 . S
C769 C763 1.491 . S
C769 C768 1.400 . S
C769 C770 1.398 . S
C770 H758 0.950 . S
C770 C769 1.398 . S
C770 C771 1.391 . S
C771 H759 0.950 . S
C771 C767 1.393 . S
C771 C770 1.391 . S
H772 C780 0.950 . S
H773 C785 0.950 . S
H774 C782 0.950 . S
H775 C784 0.950 . S
H776 C786 0.950 . S
H777 C788 0.950 . S
H778 C790 0.950 . S
H779 C791 0.950 . S
C780 H772 0.950 . S
C780 C781 1.386 . S
C780 C782 1.391 . S
C781 C780 1.386 . S
C781 C785 1.393 . S
C782 H774 0.950 . S
C782 C780 1.391 . S
C782 C783 1.400 . S
C783 C782 1.400 . S
C783 C784 1.398 . S
C783 C789 1.491 1_565 S
C784 H775 0.950 . S
C784 C783 1.398 . S
C784 C785 1.391 . S
C785 H773 0.950 . S
C785 C781 1.393 . S
C785 C784 1.391 . S
C786 H776 0.950 . S
C786 C787 1.386 . S
C786 C788 1.391 . S
C787 C786 1.386 . S
C787 C791 1.393 . S
C788 H777 0.950 . S
C788 C786 1.391 . S
C788 C789 1.400 . S
C789 C783 1.491 1_545 S
C789 C788 1.400 . S
C789 C790 1.398 . S
C790 H778 0.950 . S
C790 C789 1.398 . S
C790 C791 1.391 . S
C791 H779 0.950 . S
C791 C787 1.393 . S
C791 C790 1.391 . S
C481 C111 1.499 . S
C487 C52 1.499 . S
C501 C170 1.498 . S
C507 C229 1.498 . S
C521 C288 1.498 . S
C527 C347 1.498 . S
C541 C406 1.508 . S
C547 C465 1.509 . S
C561 C416 1.230 . S
C567 C3 1.229 . S
C581 C357 1.226 . S
C587 C62 1.235 . S
C601 C121 1.223 . S
C607 C298 1.238 . S
C621 C239 1.232 . S
C627 C180 1.227 . S
C641 C328 1.727 . S
C647 C151 1.730 . S
C661 C269 1.727 . S
C667 C210 1.730 . S
C681 C446 1.728 . S
C687 C33 1.729 . S
C701 C92 1.730 . S
C707 C387 1.728 . S
C721 C5 1.483 . S
C727 C123 1.482 . S
C741 C182 1.483 . S
C747 C64 1.482 . S
C761 C359 1.483 . S
C767 C241 1.482 . S
C781 C300 1.484 . S
C787 C418 1.483 . S
