# Generated by pormake.
# Topology umc, (4)-cn, num edge types: 1
# Building blocks:
#     Node 0, Type 0, BuildingBlock: QUQFOY_clean_sbu_1, # of connection points: 4
#     Node 1, Type 0, BuildingBlock: QUQFOY_clean_sbu_1, # of connection points: 4
#     Node 2, Type 0, BuildingBlock: QUQFOY_clean_sbu_1, # of connection points: 4
#     Node 3, Type 0, BuildingBlock: QUQFOY_clean_sbu_1, # of connection points: 4
#     Node 4, Type 0, BuildingBlock: QUQFOY_clean_sbu_1, # of connection points: 4
#     Node 5, Type 0, BuildingBlock: QUQFOY_clean_sbu_1, # of connection points: 4
#     Node 6, Type 0, BuildingBlock: QUQFOY_clean_sbu_1, # of connection points: 4
#     Node 7, Type 0, BuildingBlock: QUQFOY_clean_sbu_1, # of connection points: 4
#     Node 8, Type 0, BuildingBlock: QUQFOY_clean_sbu_1, # of connection points: 4
#     Node 9, Type 0, BuildingBlock: QUQFOY_clean_sbu_1, # of connection points: 4
#     Node 10, Type 0, BuildingBlock: QUQFOY_clean_sbu_1, # of connection points: 4
#     Node 11, Type 0, BuildingBlock: QUQFOY_clean_sbu_1, # of connection points: 4
#     Node 12, Type 0, BuildingBlock: QUQFOY_clean_sbu_1, # of connection points: 4
#     Node 13, Type 0, BuildingBlock: QUQFOY_clean_sbu_1, # of connection points: 4
#     Node 14, Type 0, BuildingBlock: QUQFOY_clean_sbu_1, # of connection points: 4
#     Node 15, Type 0, BuildingBlock: QUQFOY_clean_sbu_1, # of connection points: 4
#     Edge 16, Type (0, 0), BuildingBlock: KIFKEQ_clean_linker_1, # of connection points: 2
#     Edge 17, Type (0, 0), BuildingBlock: KIFKEQ_clean_linker_1, # of connection points: 2
#     Edge 18, Type (0, 0), BuildingBlock: KIFKEQ_clean_linker_1, # of connection points: 2
#     Edge 19, Type (0, 0), BuildingBlock: KIFKEQ_clean_linker_1, # of connection points: 2
#     Edge 20, Type (0, 0), BuildingBlock: KIFKEQ_clean_linker_1, # of connection points: 2
#     Edge 21, Type (0, 0), BuildingBlock: KIFKEQ_clean_linker_1, # of connection points: 2
#     Edge 22, Type (0, 0), BuildingBlock: KIFKEQ_clean_linker_1, # of connection points: 2
#     Edge 23, Type (0, 0), BuildingBlock: KIFKEQ_clean_linker_1, # of connection points: 2
#     Edge 24, Type (0, 0), BuildingBlock: KIFKEQ_clean_linker_1, # of connection points: 2
#     Edge 25, Type (0, 0), BuildingBlock: KIFKEQ_clean_linker_1, # of connection points: 2
#     Edge 26, Type (0, 0), BuildingBlock: KIFKEQ_clean_linker_1, # of connection points: 2
#     Edge 27, Type (0, 0), BuildingBlock: KIFKEQ_clean_linker_1, # of connection points: 2
#     Edge 28, Type (0, 0), BuildingBlock: KIFKEQ_clean_linker_1, # of connection points: 2
#     Edge 29, Type (0, 0), BuildingBlock: KIFKEQ_clean_linker_1, # of connection points: 2
#     Edge 30, Type (0, 0), BuildingBlock: KIFKEQ_clean_linker_1, # of connection points: 2
#     Edge 31, Type (0, 0), BuildingBlock: KIFKEQ_clean_linker_1, # of connection points: 2
#     Edge 32, Type (0, 0), BuildingBlock: KIFKEQ_clean_linker_1, # of connection points: 2
#     Edge 33, Type (0, 0), BuildingBlock: KIFKEQ_clean_linker_1, # of connection points: 2
#     Edge 34, Type (0, 0), BuildingBlock: KIFKEQ_clean_linker_1, # of connection points: 2
#     Edge 35, Type (0, 0), BuildingBlock: KIFKEQ_clean_linker_1, # of connection points: 2
#     Edge 36, Type (0, 0), BuildingBlock: KIFKEQ_clean_linker_1, # of connection points: 2
#     Edge 37, Type (0, 0), BuildingBlock: KIFKEQ_clean_linker_1, # of connection points: 2
#     Edge 38, Type (0, 0), BuildingBlock: KIFKEQ_clean_linker_1, # of connection points: 2
#     Edge 39, Type (0, 0), BuildingBlock: KIFKEQ_clean_linker_1, # of connection points: 2
#     Edge 40, Type (0, 0), BuildingBlock: KIFKEQ_clean_linker_1, # of connection points: 2
#     Edge 41, Type (0, 0), BuildingBlock: KIFKEQ_clean_linker_1, # of connection points: 2
#     Edge 42, Type (0, 0), BuildingBlock: KIFKEQ_clean_linker_1, # of connection points: 2
#     Edge 43, Type (0, 0), BuildingBlock: KIFKEQ_clean_linker_1, # of connection points: 2
#     Edge 44, Type (0, 0), BuildingBlock: KIFKEQ_clean_linker_1, # of connection points: 2
#     Edge 45, Type (0, 0), BuildingBlock: KIFKEQ_clean_linker_1, # of connection points: 2
#     Edge 46, Type (0, 0), BuildingBlock: KIFKEQ_clean_linker_1, # of connection points: 2
#     Edge 47, Type (0, 0), BuildingBlock: KIFKEQ_clean_linker_1, # of connection points: 2
# Relax obj value: 0.042
# Max RMSD: 0.115
# Mean RMSD: 0.115
data_MOF--net-umc--node1-QUQFOY_clean_sbu_1--edge1-KIFKEQ_clean_linker_1
_symmetry_space_group_name_H-M    P1
_symmetry_Int_Tables_number       1
_symmetry_cell_setting            triclinic
loop_
_symmetry_equiv_pos_as_xyz
'x, y, z'
_cell_length_a     41.055704
_cell_length_b     40.751546
_cell_length_c     57.923704
_cell_angle_alpha  90.037093
_cell_angle_beta   90.134368
_cell_angle_gamma 89.947678
loop_
_atom_site_label
_atom_site_type_symbol
_atom_site_fract_x
_atom_site_fract_y
_atom_site_fract_z
_atom_type_partial_charge
O0 O 0.31843 0.10969 0.4225 0.0
Cd1 Cd 0.33603 0.12024 0.38986 0.0
Cd2 Cd 0.31602 0.05788 0.38403 0.0
O3 O 0.29522 0.06155 0.41639 0.0
O4 O 0.33895 0.16945 0.38915 0.0
O5 O 0.30385 0.14136 0.36805 0.0
C6 C 0.31463 0.16944 0.37501 0.0
C7 C 0.28915 0.04729 0.34941 0.0
C8 C 0.30161 0.08556 0.42969 0.0
C9 C 0.3879 0.06976 0.38091 0.0
O10 O 0.36521 0.04894 0.38354 0.0
O11 O 0.38138 0.10039 0.38071 0.0
O12 O 0.29543 1.02392 0.36383 0.0
O13 O 0.29618 0.07697 0.35547 0.0
O14 O 0.68855 0.9424 0.42291 0.0
Cd15 Cd 0.67078 0.93257 0.39017 0.0
Cd16 Cd 0.692 0.99496 0.38476 0.0
O17 O 0.71321 0.9898 0.41696 0.0
O18 O 0.66642 0.88337 0.38927 0.0
O19 O 0.70251 0.91051 0.36858 0.0
C20 C 0.69092 0.88274 0.37536 0.0
C21 C 0.71837 1.00195 0.34961 0.0
C22 C 0.70619 0.96592 0.43016 0.0
C23 C 0.62017 0.98496 0.38135 0.0
O24 O 0.64311 1.00542 0.38451 0.0
O25 O 0.62625 0.95423 0.38075 0.0
O26 O 0.71508 0.02629 0.36376 0.0
O27 O 0.70855 0.97338 0.35625 0.0
O28 O 0.31988 0.93926 0.10887 0.0
Cd29 Cd 0.33642 0.92963 0.14195 0.0
Cd30 Cd 0.31584 0.99194 0.14667 0.0
O31 O 0.29565 0.98712 0.11409 0.0
O32 O 0.3393 0.88046 0.1434 0.0
O33 O 0.30362 0.90925 0.16345 0.0
C34 C 0.31455 0.88096 0.15708 0.0
C35 C 0.28853 1.00302 0.18095 0.0
C36 C 0.30283 0.96295 0.10114 0.0
C37 C 0.3877 0.98038 0.15106 0.0
O38 O 0.36498 1.00102 0.14767 0.0
O39 O 0.38133 0.94976 0.15167 0.0
O40 O 0.29474 0.02617 0.16637 0.0
O41 O 0.29582 0.97328 0.17519 0.0
O42 O 0.6861 0.10986 0.10922 0.0
Cd43 Cd 0.6692 0.11868 0.14225 0.0
Cd44 Cd 0.69108 0.05628 0.14664 0.0
O45 O 0.71171 0.06271 0.1144 0.0
O46 O 0.66456 0.16781 0.14389 0.0
O47 O 0.70136 0.1402 0.1638 0.0
C48 C 0.68944 0.16811 0.15754 0.0
C49 C 0.71792 0.04894 0.18166 0.0
C50 C 0.70399 0.08681 0.10154 0.0
C51 C 0.6193 0.06582 0.15086 0.0
O52 O 0.64226 0.04558 0.14708 0.0
O53 O 0.6252 0.09655 0.1519 0.0
O54 O 0.7148 1.0248 0.16732 0.0
O55 O 0.70773 0.07751 0.17525 0.0
O56 O 0.68198 0.93771 0.60971 0.0
Cd57 Cd 0.66771 0.92755 0.64295 0.0
Cd58 Cd 0.69079 0.98879 0.64883 0.0
O59 O 0.70993 0.98311 0.61582 0.0
O60 O 0.66443 0.87842 0.64449 0.0
O61 O 0.70142 0.90692 0.66361 0.0
C62 C 0.68983 0.87874 0.65765 0.0
C63 C 0.71969 0.99769 0.6829 0.0
C64 C 0.70033 0.96046 0.60225 0.0
C65 C 0.6187 0.97934 0.65431 0.0
O66 O 0.64185 0.99961 0.65129 0.0
O67 O 0.62409 0.94855 0.65359 0.0
O68 O 0.71516 1.02127 0.66832 0.0
O69 O 0.70987 0.96871 0.67718 0.0
O70 O 0.32656 0.11309 0.60929 0.0
Cd71 Cd 0.34122 0.12333 0.64251 0.0
Cd72 Cd 0.31814 0.06203 0.64841 0.0
O73 O 0.29892 0.06753 0.61535 0.0
O74 O 0.34465 0.17247 0.64399 0.0
O75 O 0.30785 0.14413 0.66327 0.0
C76 C 0.31943 0.17226 0.65725 0.0
C77 C 0.28931 0.05331 0.68242 0.0
C78 C 0.30829 0.09024 0.60181 0.0
C79 C 0.39027 0.07149 0.65393 0.0
O80 O 0.36708 0.05122 0.65099 0.0
O81 O 0.38491 0.10228 0.6531 0.0
O82 O 0.29382 0.02965 0.6679 0.0
O83 O 0.2991 0.08227 0.67668 0.0
O84 O 0.68023 0.11479 0.92123 0.0
Cd85 Cd 0.66752 0.12446 0.88743 0.0
Cd86 Cd 0.69144 0.06381 0.88314 0.0
O87 O 0.71111 0.07119 0.91576 0.0
O88 O 0.66386 0.17363 0.88546 0.0
O89 O 0.70231 0.14523 0.86787 0.0
C90 C 0.69014 0.17338 0.87327 0.0
C91 C 0.71945 0.05478 0.8488 0.0
C92 C 0.69977 0.09325 0.92909 0.0
C93 C 0.61954 0.07161 0.8768 0.0
O94 O 0.6427 0.05209 0.8818 0.0
O95 O 0.62486 0.10238 0.8754 0.0
O96 O 0.71605 0.03144 0.8637 0.0
O97 O 0.70892 0.0836 0.85428 0.0
O98 O 0.32944 0.93719 0.9209 0.0
Cd99 Cd 0.3426 0.92768 0.88717 0.0
Cd100 Cd 0.31848 0.98838 0.88282 0.0
O101 O 0.29876 0.98094 0.91534 0.0
O102 O 0.34672 0.87854 0.88513 0.0
O103 O 0.30823 0.90663 0.86724 0.0
C104 C 0.32062 0.87857 0.87267 0.0
C105 C 0.29036 0.99712 0.8484 0.0
C106 C 0.3099 0.95876 0.92868 0.0
C107 C 0.39039 0.98083 0.87678 0.0
O108 O 0.36717 1.00032 0.88164 0.0
O109 O 0.38518 0.95003 0.87543 0.0
O110 O 0.29369 1.02055 0.86329 0.0
O111 O 0.30106 0.96838 0.85394 0.0
O112 O 0.81901 0.61203 0.42289 0.0
Cd113 Cd 0.83592 0.62153 0.38995 0.0
Cd114 Cd 0.8143 0.55942 0.38475 0.0
O115 O 0.79361 0.56498 0.41703 0.0
O116 O 0.84011 0.6707 0.38874 0.0
O117 O 0.80355 0.64318 0.36857 0.0
C118 C 0.81523 0.67108 0.37509 0.0
C119 C 0.78719 0.55122 0.34991 0.0
C120 C 0.80121 0.58874 0.43023 0.0
C121 C 0.88617 0.56909 0.38093 0.0
O122 O 0.86317 0.54879 0.38428 0.0
O123 O 0.88023 0.59984 0.38026 0.0
O124 O 0.79089 0.52736 0.36439 0.0
O125 O 0.79703 0.58004 0.35603 0.0
O126 O 0.18519 0.43913 0.42192 0.0
Cd127 Cd 0.16786 0.42945 0.38906 0.0
Cd128 Cd 0.18944 0.4915 0.38365 0.0
O129 O 0.21047 0.48618 0.41591 0.0
O130 O 0.16375 0.38026 0.38792 0.0
O131 O 0.19994 0.40778 0.36756 0.0
C132 C 0.18843 0.37988 0.37417 0.0
C133 C 0.21611 0.49977 0.34873 0.0
C134 C 0.20304 0.46249 0.42918 0.0
C135 C 0.11749 0.48183 0.38015 0.0
O136 O 0.14056 0.50213 0.38331 0.0
O137 O 0.1234 0.45107 0.37954 0.0
O138 O 0.21254 0.5236 0.36325 0.0
O139 O 0.20643 0.47092 0.35485 0.0
O140 O 0.81779 0.43801 0.10936 0.0
Cd141 Cd 0.83559 0.42752 0.14184 0.0
Cd142 Cd 0.81411 0.48975 0.14886 0.0
O143 O 0.7946 0.48608 0.11587 0.0
O144 O 0.83907 0.37835 0.14272 0.0
O145 O 0.80382 0.40634 0.16369 0.0
C146 C 0.81484 0.37831 0.15687 0.0
C147 C 0.7858 0.49808 0.18311 0.0
C148 C 0.80102 0.46231 0.10235 0.0
C149 C 0.88615 0.47887 0.15275 0.0
O150 O 0.86307 0.49957 0.15121 0.0
O151 O 0.8804 0.44821 0.15095 0.0
O152 O 0.79068 0.52205 0.16894 0.0
O153 O 0.7949 0.46906 0.17688 0.0
O154 O 0.1778 0.61393 0.10867 0.0
Cd155 Cd 0.16312 0.62412 0.14187 0.0
Cd156 Cd 0.18678 0.56297 0.14779 0.0
O157 O 0.20632 0.56889 0.11494 0.0
O158 O 0.15972 0.67334 0.1435 0.0
O159 O 0.19671 0.64483 0.16262 0.0
C160 C 0.18513 0.67303 0.15666 0.0
C161 C 0.21518 0.55424 0.1821 0.0
C162 C 0.19653 0.59138 0.10131 0.0
C163 C 0.11451 0.57168 0.15277 0.0
O164 O 0.13794 0.55169 0.14976 0.0
O165 O 0.11958 0.60255 0.15232 0.0
O166 O 0.21113 0.53064 0.16745 0.0
O167 O 0.20518 0.58315 0.17633 0.0
O168 O 0.18013 0.43852 0.60971 0.0
Cd169 Cd 0.16734 0.42886 0.64349 0.0
Cd170 Cd 0.18984 0.48993 0.6475 0.0
O171 O 0.20907 0.48355 0.61472 0.0
O172 O 0.16445 0.37976 0.64543 0.0
O173 O 0.20209 0.40874 0.66355 0.0
C174 C 0.1904 0.38041 0.65804 0.0
C175 C 0.21848 0.50132 0.68129 0.0
C176 C 0.19863 0.46074 0.60162 0.0
C177 C 0.11802 0.4801 0.65401 0.0
O178 O 0.14076 0.50011 0.64924 0.0
O179 O 0.12396 0.44945 0.65518 0.0
O180 O 0.21229 0.52423 0.66649 0.0
O181 O 0.21042 0.47163 0.67601 0.0
O182 O 0.82637 0.61156 0.61062 0.0
Cd183 Cd 0.83954 0.62069 0.6444 0.0
Cd184 Cd 0.81584 0.55972 0.64818 0.0
O185 O 0.79585 0.56767 0.61571 0.0
O186 O 0.84381 0.6698 0.64653 0.0
O187 O 0.8053 0.6418 0.66428 0.0
C188 C 0.81774 0.66981 0.65893 0.0
C189 C 0.78832 0.55176 0.68281 0.0
C190 C 0.80688 0.59011 0.6026 0.0
C191 C 0.88763 0.56756 0.65447 0.0
O192 O 0.86462 0.54801 0.64927 0.0
O193 O 0.88213 0.59828 0.65616 0.0
O194 O 0.7912 0.52804 0.66811 0.0
O195 O 0.7991 0.58029 0.67695 0.0
O196 O 0.1887 0.61024 0.92154 0.0
Cd197 Cd 0.17187 0.62035 0.88858 0.0
Cd198 Cd 0.19206 0.558 0.88337 0.0
O199 O 0.21208 0.56202 0.91604 0.0
O200 O 0.16892 0.6695 0.8875 0.0
O201 O 0.20437 0.64105 0.867 0.0
C202 C 0.19344 0.66923 0.8736 0.0
C203 C 0.21964 0.54706 0.84918 0.0
C204 C 0.20537 0.58619 0.92911 0.0
C205 C 0.12027 0.57005 0.87901 0.0
O206 O 0.14288 0.54919 0.88208 0.0
O207 O 0.12679 0.60064 0.87887 0.0
O208 O 0.2131 0.52383 0.86362 0.0
O209 O 0.21251 0.57681 0.85502 0.0
O210 O 0.82711 0.44089 0.9223 0.0
Cd211 Cd 0.84059 0.4315 0.88863 0.0
Cd212 Cd 0.81707 0.49261 0.88452 0.0
O213 O 0.79694 0.48504 0.9169 0.0
O214 O 0.84466 0.3823 0.88667 0.0
O215 O 0.80638 0.41039 0.86858 0.0
C216 C 0.81864 0.38233 0.87412 0.0
C217 C 0.78949 0.5005 0.84979 0.0
C218 C 0.80772 0.46256 0.93013 0.0
C219 C 0.88889 0.48456 0.87876 0.0
O220 O 0.86584 0.50422 0.88369 0.0
O221 O 0.88337 0.45383 0.87715 0.0
O222 O 0.79245 0.52427 0.86445 0.0
O223 O 0.8003 0.47196 0.85572 0.0
H224 H 0.28547 0.13758 0.45655 0.0
H225 H 0.29654 0.03233 0.45828 0.0
H226 H 0.2789 0.13851 0.49827 0.0
H227 H 0.2918 0.03324 0.50036 0.0
H228 H 0.27257 0.04417 0.57754 0.0
H229 H 0.26275 0.0426 0.53579 0.0
H230 H 0.31669 0.133 0.52822 0.0
H231 H 0.32531 0.13515 0.56937 0.0
C232 C 0.28618 0.11457 0.4659 0.0
C233 C 0.29189 0.08494 0.45424 0.0
C234 C 0.28268 0.11508 0.48985 0.0
C235 C 0.2857 0.08605 0.50286 0.0
C236 C 0.28923 0.05607 0.49099 0.0
C237 C 0.29205 0.05552 0.46686 0.0
C238 C 0.28186 0.0639 0.56692 0.0
C239 C 0.29977 0.08974 0.57687 0.0
C240 C 0.27641 0.06291 0.54298 0.0
C241 C 0.28877 0.08774 0.52852 0.0
C242 C 0.30607 0.11379 0.53869 0.0
C243 C 0.31134 0.11486 0.56243 0.0
H244 H 0.68201 0.91617 0.56965 0.0
H245 H 0.73696 1.0058 0.57815 0.0
H246 H 0.69047 0.9183 0.52852 0.0
H247 H 0.74662 1.00731 0.53642 0.0
H248 H 0.71289 1.01882 0.45893 0.0
H249 H 0.71781 1.01755 0.50101 0.0
H250 H 0.72783 0.91197 0.49855 0.0
H251 H 0.72106 0.91331 0.45683 0.0
C252 C 0.69644 0.93614 0.56279 0.0
C253 C 0.70868 0.9609 0.57731 0.0
C254 C 0.70161 0.93719 0.53905 0.0
C255 C 0.7195 0.96285 0.52898 0.0
C256 C 0.7325 0.98731 0.54352 0.0
C257 C 0.72714 0.98635 0.56746 0.0
C258 C 0.71679 0.99547 0.46744 0.0
C259 C 0.71608 0.96611 0.45471 0.0
C260 C 0.71971 0.9947 0.49156 0.0
C261 C 0.72247 0.96457 0.50332 0.0
C262 C 0.72464 0.93554 0.49022 0.0
C263 C 0.72103 0.93627 0.46627 0.0
H264 H 0.29451 1.01569 0.07236 0.0
H265 H 0.29135 0.90987 0.07402 0.0
H266 H 0.2904 1.01441 0.03024 0.0
H267 H 0.28565 0.90848 0.03224 0.0
H268 H 0.27097 1.00175 0.95308 0.0
H269 H 0.26167 1.00264 0.99485 0.0
H270 H 0.32312 0.9171 1.00234 0.0
H271 H 0.33138 0.91558 0.96111 0.0
C272 C 0.29196 0.99222 0.06376 0.0
C273 C 0.29377 0.96286 0.07641 0.0
C274 C 0.28952 0.99145 0.0396 0.0
C275 C 0.2884 0.96129 0.02772 0.0
C276 C 0.2875 0.93212 0.04069 0.0
C277 C 0.29053 0.93289 0.06468 0.0
C278 C 0.28209 0.98292 0.96368 0.0
C279 C 0.30194 0.95862 0.95369 0.0
C280 C 0.27692 0.98354 0.98764 0.0
C281 C 0.2915 0.95987 1.00206 0.0
C282 C 0.31083 0.93534 0.99188 0.0
C283 C 0.31584 0.93463 0.9681 0.0
H284 H 0.67729 0.1358 0.96154 0.0
H285 H 0.73897 0.05056 0.95363 0.0
H286 H 0.6849 0.13391 1.00284 0.0
H287 H 0.74766 0.04933 0.99548 0.0
H288 H 0.71387 0.0347 0.07245 0.0
H289 H 0.71873 0.03668 0.0304 0.0
H290 H 0.72139 0.14266 0.03332 0.0
H291 H 0.71485 0.14053 0.07501 0.0
C292 C 0.69299 0.11689 0.96857 0.0
C293 C 0.70742 0.09325 0.95417 0.0
C294 C 0.69762 0.11598 0.9924 0.0
C295 C 0.71712 0.09159 1.00265 0.0
C296 C 0.73226 0.0683 0.98823 0.0
C297 C 0.72745 0.06912 0.96423 0.0
C298 C 0.71611 0.05834 0.06407 0.0
C299 C 0.71346 0.08747 0.07692 0.0
C300 C 0.71899 0.05952 0.03996 0.0
C301 C 0.71975 0.08987 0.02833 0.0
C302 C 0.71981 0.11886 0.04155 0.0
C303 C 0.71632 0.11768 0.06549 0.0
H304 H 0.82838 0.63388 0.5707 0.0
H305 H 0.76786 0.54775 0.57764 0.0
H306 H 0.82024 0.63318 0.52946 0.0
H307 H 0.75861 0.54773 0.53584 0.0
H308 H 0.79193 0.53574 0.45851 0.0
H309 H 0.78725 0.53644 0.50058 0.0
H310 H 0.7834 0.64245 0.4993 0.0
H311 H 0.78981 0.6416 0.45757 0.0
C312 C 0.81282 0.61502 0.56347 0.0
C313 C 0.79889 0.59077 0.57759 0.0
C314 C 0.80787 0.6148 0.53968 0.0
C315 C 0.78854 0.59053 0.52916 0.0
C316 C 0.77387 0.56664 0.5433 0.0
C317 C 0.779 0.56675 0.56727 0.0
C318 C 0.78946 0.55911 0.46726 0.0
C319 C 0.79176 0.58863 0.45485 0.0
C320 C 0.78668 0.55955 0.49138 0.0
C321 C 0.78566 0.58954 0.50347 0.0
C322 C 0.78519 0.61892 0.4907 0.0
C323 C 0.78861 0.61847 0.46674 0.0
H324 H 0.17743 0.41684 0.5696 0.0
H325 H 0.2365 0.50401 0.57669 0.0
H326 H 0.1852 0.41779 0.52835 0.0
H327 H 0.24539 0.5043 0.53487 0.0
H328 H 0.21173 0.51566 0.45747 0.0
H329 H 0.21656 0.51508 0.49955 0.0
H330 H 0.222 0.40913 0.49823 0.0
H331 H 0.21541 0.40985 0.45649 0.0
C332 C 0.19259 0.436 0.5624 0.0
C333 C 0.20624 0.46042 0.57656 0.0
C334 C 0.19733 0.43637 0.5386 0.0
C335 C 0.21618 0.46098 0.52812 0.0
C336 C 0.23051 0.48512 0.5423 0.0
C337 C 0.22558 0.48485 0.56628 0.0
C338 C 0.21459 0.49234 0.46622 0.0
C339 C 0.21269 0.46278 0.45379 0.0
C340 C 0.21745 0.49197 0.49035 0.0
C341 C 0.21894 0.462 0.50243 0.0
C342 C 0.21982 0.43263 0.48965 0.0
C343 C 0.21631 0.433 0.46568 0.0
H344 H 0.82711 0.41769 0.96206 0.0
H345 H 0.77024 0.50642 0.95493 0.0
H346 H 0.81859 0.41848 1.00326 0.0
H347 H 0.76068 0.50663 0.99668 0.0
H348 H 0.79452 0.51622 0.07443 0.0
H349 H 0.79 0.51629 0.0323 0.0
H350 H 0.78041 0.41066 0.0329 0.0
H351 H 0.78654 0.41064 0.07467 0.0
C352 C 0.81229 0.43718 0.96923 0.0
C353 C 0.79948 0.46207 0.95509 0.0
C354 C 0.80711 0.43746 0.99299 0.0
C355 C 0.7887 0.4625 1.00343 0.0
C356 C 0.77518 0.4871 0.98927 0.0
C357 C 0.78049 0.48688 0.96532 0.0
C358 C 0.79078 0.49314 0.06551 0.0
C359 C 0.7914 0.46338 0.07774 0.0
C360 C 0.7881 0.49315 0.04136 0.0
C361 C 0.78557 0.4634 0.02908 0.0
C362 C 0.78338 0.43395 0.04166 0.0
C363 C 0.78664 0.43392 0.06564 0.0
H364 H 0.23355 0.54609 0.07738 0.0
H365 H 0.17838 0.63561 0.06862 0.0
H366 H 0.24365 0.54454 0.0357 0.0
H367 H 0.18732 0.63347 0.02753 0.0
H368 H 0.21967 0.63864 0.95612 0.0
H369 H 0.22542 0.63985 0.99791 0.0
H370 H 0.21508 0.53432 1.00004 0.0
H371 H 0.21107 0.53316 0.9579 0.0
C372 C 0.22378 0.56551 0.06664 0.0
C373 C 0.20513 0.59094 0.07641 0.0
C374 C 0.22939 0.56452 0.04274 0.0
C375 C 0.21647 0.58895 0.02814 0.0
C376 C 0.19838 0.61459 0.03812 0.0
C377 C 0.19294 0.61566 0.06183 0.0
C378 C 0.21932 0.61565 0.9655 0.0
C379 C 0.21454 0.58586 0.95381 0.0
C380 C 0.22236 0.61631 0.98949 0.0
C381 C 0.21984 0.58727 1.0025 0.0
C382 C 0.21723 0.55718 0.99065 0.0
C383 C 0.21483 0.55647 0.96649 0.0
H384 H 0.59806 0.04668 0.39075 0.0
H385 H 0.56535 0.95163 0.36727 0.0
H386 H 0.54259 0.0671 0.38924 0.0
H387 H 0.50971 0.9725 0.36473 0.0
H388 H 0.41028 1.00792 0.38929 0.0
H389 H 0.46581 0.98788 0.38801 0.0
H390 H 0.49869 0.08363 0.36603 0.0
H391 H 0.44284 0.10413 0.36834 0.0
C392 C 0.57905 0.03019 0.38495 0.0
C393 C 0.58623 0.9974 0.37922 0.0
C394 C 0.54712 0.04205 0.3839 0.0
C395 C 0.52138 1.02159 0.37685 0.0
C396 C 0.52869 0.98892 0.37065 0.0
C397 C 0.56067 0.97692 0.37197 0.0
C398 C 0.42928 1.02477 0.38408 0.0
C399 C 0.42201 0.05774 0.37897 0.0
C400 C 0.46127 1.01313 0.38317 0.0
C401 C 0.48702 0.03397 0.37685 0.0
C402 C 0.47967 0.06689 0.37134 0.0
C403 C 0.44759 0.07867 0.37252 0.0
H404 H 0.44266 0.94622 0.16413 0.0
H405 H 0.40979 0.04237 0.14299 0.0
H406 H 0.49841 0.96684 0.1667 0.0
H407 H 0.46523 0.06253 0.14459 0.0
H408 H 0.56464 0.09881 0.16551 0.0
H409 H 0.50914 0.07777 0.16823 0.0
H410 H 0.54202 0.98346 0.14318 0.0
H411 H 0.59738 1.00404 0.14143 0.0
C412 C 0.44731 0.9717 0.15999 0.0
C413 C 0.42168 0.99256 0.15336 0.0
C414 C 0.47933 0.98354 0.16133 0.0
C415 C 0.48656 1.01646 0.15582 0.0
C416 C 0.46076 0.03727 0.1494 0.0
C417 C 0.42883 0.02556 0.14831 0.0
C418 C 0.56 0.07354 0.16073 0.0
C419 C 0.58551 0.05319 0.15322 0.0
C420 C 0.52811 0.06146 0.16216 0.0
C421 C 0.52085 0.02884 0.15584 0.0
C422 C 0.54655 1.00848 0.14859 0.0
C423 C 0.5784 1.02043 0.14742 0.0
H424 H 0.60041 0.04045 0.6686 0.0
H425 H 0.56115 0.94707 0.64702 0.0
H426 H 0.54556 0.06271 0.67147 0.0
H427 H 0.5063 0.96967 0.64869 0.0
H428 H 0.40857 1.01049 0.66847 0.0
H429 H 0.46342 0.98823 0.67152 0.0
H430 H 0.50266 0.08104 0.64846 0.0
H431 H 0.44781 0.10365 0.6466 0.0
C432 C 0.58 1.02467 0.66443 0.0
C433 C 0.58514 0.992 0.65754 0.0
C434 C 0.54848 0.03752 0.66589 0.0
C435 C 0.52124 1.01821 0.66011 0.0
C436 C 0.52646 0.98527 0.65365 0.0
C437 C 0.558 0.97226 0.65256 0.0
C438 C 0.42897 0.02622 0.66427 0.0
C439 C 0.42383 0.05883 0.65724 0.0
C440 C 0.46049 1.01337 0.66583 0.0
C441 C 0.48772 0.03261 0.66004 0.0
C442 C 0.4825 0.0655 0.65343 0.0
C443 C 0.45097 0.0785 0.65223 0.0
H444 H 0.56439 0.10374 0.86195 0.0
H445 H 0.59892 1.00903 0.88494 0.0
H446 H 0.50926 0.08174 0.85886 0.0
H447 H 0.54396 0.98748 0.88274 0.0
H448 H 0.44544 0.94883 0.86183 0.0
H449 H 0.50051 0.97089 0.85873 0.0
H450 H 0.46593 0.06506 0.88285 0.0
H451 H 0.41099 0.04343 0.88506 0.0
C452 C 0.56026 0.07825 0.86633 0.0
C453 C 0.58614 0.05823 0.87374 0.0
C454 C 0.52857 0.06564 0.8647 0.0
C455 C 0.52194 0.03278 0.87064 0.0
C456 C 0.54803 1.0127 0.87764 0.0
C457 C 0.57965 1.0252 0.87907 0.0
C458 C 0.44959 0.97431 0.86628 0.0
C459 C 0.42375 0.99428 0.87376 0.0
C460 C 0.48123 0.98696 0.86463 0.0
C461 C 0.48789 1.01982 0.87064 0.0
C462 C 0.46184 0.03985 0.8777 0.0
C463 C 0.43024 0.02731 0.87914 0.0
H464 H 0.90791 0.50709 0.38982 0.0
H465 H 0.94116 0.60224 0.36711 0.0
H466 H 0.9632 0.48629 0.38814 0.0
H467 H 0.99665 0.58099 0.36443 0.0
H468 H 0.096 0.54395 0.38891 0.0
H469 H 0.04069 0.56476 0.38762 0.0
H470 H 0.00663 0.46983 0.3646 0.0
H471 H 0.06217 0.44858 0.36688 0.0
C472 C 0.92699 0.52353 0.38415 0.0
C473 C 0.92001 0.55644 0.37868 0.0
C474 C 0.95883 0.51145 0.38301 0.0
C475 C 0.98467 0.53181 0.37612 0.0
C476 C 0.97758 0.56463 0.3702 0.0
C477 C 0.94568 0.57684 0.3716 0.0
C478 C 0.07678 0.52746 0.38347 0.0
C479 C 0.08362 0.49449 0.37808 0.0
C480 C 0.04493 0.53954 0.38256 0.0
C481 C 0.01891 0.51912 0.37599 0.0
C482 C 0.02585 0.48624 0.37013 0.0
C483 C 0.05777 0.47403 0.3713 0.0
H484 H 0.09685 0.50949 0.165 0.0
H485 H 0.0565 0.60394 0.14691 0.0
H486 H 0.04224 0.48667 0.16753 0.0
H487 H 1.00185 0.58086 0.14837 0.0
H488 H 0.9052 0.53862 0.16905 0.0
H489 H 0.96006 0.5607 0.17163 0.0
H490 H 0.99843 0.46966 0.14452 0.0
H491 H 0.94346 0.44712 0.14302 0.0
C492 C 0.07627 0.5254 0.16152 0.0
C493 C 0.08106 0.55856 0.15573 0.0
C494 C 0.04488 0.51222 0.1628 0.0
C495 C 0.01738 0.53172 0.158 0.0
C496 C 0.02225 0.56509 0.15256 0.0
C497 C 0.05366 0.57838 0.15161 0.0
C498 C 0.92539 0.52321 0.16382 0.0
C499 C 0.91993 0.49112 0.15576 0.0
C500 C 0.95693 0.53599 0.16512 0.0
C501 C 0.98391 0.51723 0.15806 0.0
C502 C 0.97844 0.48481 0.15044 0.0
C503 C 0.94686 0.47185 0.14946 0.0
H504 H 0.94212 0.5997 0.67024 0.0
H505 H 0.90905 0.50545 0.64535 0.0
H506 H 0.99746 0.57825 0.67325 0.0
H507 H 0.96431 0.48444 0.64748 0.0
H508 H 0.06348 0.44665 0.66825 0.0
H509 H 0.00796 0.46767 0.67146 0.0
H510 H 0.04097 0.56309 0.64891 0.0
H511 H 0.09628 0.54249 0.64658 0.0
C512 C 0.94663 0.57442 0.66541 0.0
C513 C 0.92111 0.55438 0.65748 0.0
C514 C 0.97843 0.56213 0.66701 0.0
C515 C 0.98556 0.52958 0.66049 0.0
C516 C 0.95983 0.50942 0.65301 0.0
C517 C 0.92805 0.52161 0.65162 0.0
C518 C 0.05888 0.47218 0.66418 0.0
C519 C 0.08438 0.49281 0.65711 0.0
C520 C 0.02699 0.48423 0.66589 0.0
C521 C 0.01979 0.51713 0.66037 0.0
C522 C 0.04549 0.53781 0.65369 0.0
C523 C 0.07732 0.52587 0.65218 0.0
H524 H 0.0654 0.60504 0.86683 0.0
H525 H 0.09795 0.50782 0.88569 0.0
H526 H 0.00954 0.58477 0.86388 0.0
H527 H 0.04244 0.48798 0.88371 0.0
H528 H 0.94319 0.45275 0.86241 0.0
H529 H 0.99853 0.47409 0.85963 0.0
H530 H 0.9659 0.56708 0.88716 0.0
H531 H 0.9106 0.54622 0.88898 0.0
C532 C 0.06066 0.5794 0.87038 0.0
C533 C 0.08623 0.55813 0.87649 0.0
C534 C 0.02858 0.56775 0.86883 0.0
C535 C 0.02126 0.53463 0.87356 0.0
C536 C 0.04699 0.51343 0.87947 0.0
C537 C 0.07897 0.52495 0.88079 0.0
C538 C 0.94782 0.47783 0.86769 0.0
C539 C 0.92242 0.49768 0.87599 0.0
C540 C 0.97963 0.49006 0.86624 0.0
C541 C 0.98694 0.52235 0.87332 0.0
C542 C 0.96132 0.54232 0.8812 0.0
C543 C 0.92951 0.53022 0.88241 0.0
H544 H 0.24774 0.37178 0.35344 0.0
H545 H 0.16737 0.31721 0.38221 0.0
H546 H 0.27873 0.32091 0.34924 0.0
H547 H 0.19835 0.26641 0.37795 0.0
H548 H 0.33525 0.23229 0.38275 0.0
H549 H 0.30406 0.28285 0.37807 0.0
H550 H 0.2238 0.22754 0.34963 0.0
H551 H 0.25506 0.17684 0.35425 0.0
C552 C 0.23642 0.34889 0.35847 0.0
C553 C 0.2051 0.34861 0.36826 0.0
C554 C 0.25429 0.31976 0.3562 0.0
C555 C 0.24111 0.28962 0.36339 0.0
C556 C 0.20914 0.28915 0.37207 0.0
C557 C 0.19141 0.31831 0.37458 0.0
C558 C 0.31119 0.23094 0.37511 0.0
C559 C 0.29764 0.20048 0.36895 0.0
C560 C 0.29333 0.25997 0.37234 0.0
C561 C 0.26135 0.25922 0.36359 0.0
C562 C 0.24825 0.2289 0.35662 0.0
C563 C 0.26627 0.19988 0.35913 0.0
H564 H 0.66962 0.82023 0.38372 0.0
H565 H 0.74991 0.87419 0.35426 0.0
H566 H 0.70016 0.76921 0.37925 0.0
H567 H 0.78047 0.82308 0.34985 0.0
H568 H 0.75546 0.67927 0.35484 0.0
H569 H 0.72469 0.73029 0.35059 0.0
H570 H 0.80604 0.78463 0.37839 0.0
H571 H 0.83678 0.73371 0.3827 0.0
C572 C 0.69354 0.82116 0.37591 0.0
C573 C 0.70733 0.85134 0.36943 0.0
C574 C 0.71102 0.79187 0.37327 0.0
C575 C 0.74285 0.7921 0.36432 0.0
C576 C 0.75615 0.82213 0.35701 0.0
C577 C 0.73851 0.85138 0.35941 0.0
C578 C 0.76703 0.70216 0.35966 0.0
C579 C 0.79857 0.70236 0.3692 0.0
C580 C 0.74928 0.73137 0.35736 0.0
C581 C 0.76282 0.76151 0.36427 0.0
C582 C 0.79497 0.76189 0.37272 0.0
C583 C 0.81257 0.73265 0.37527 0.0
H584 H 0.24469 0.67968 0.17744 0.0
H585 H 0.16509 0.7362 0.14903 0.0
H586 H 0.27648 0.72988 0.18216 0.0
H587 H 0.19691 0.78633 0.15373 0.0
H588 H 0.33445 0.8178 0.14957 0.0
H589 H 0.3025 0.76778 0.15399 0.0
H590 H 0.22294 0.82435 0.1821 0.0
H591 H 0.25493 0.87452 0.17767 0.0
C592 C 0.23373 0.70286 0.17258 0.0
C593 C 0.20238 0.70388 0.16274 0.0
C594 C 0.25205 0.7316 0.17515 0.0
C595 C 0.23933 0.76209 0.16819 0.0
C596 C 0.20735 0.7633 0.15945 0.0
C597 C 0.18914 0.73452 0.15667 0.0
C598 C 0.31038 0.81954 0.15709 0.0
C599 C 0.29722 0.8502 0.16316 0.0
C600 C 0.29209 0.79082 0.15971 0.0
C601 C 0.26007 0.79209 0.16826 0.0
C602 C 0.2474 0.82259 0.17523 0.0
C603 C 0.26584 0.8513 0.17284 0.0
H604 H 0.7487 0.17606 0.17848 0.0
H605 H 0.66807 0.23081 0.14981 0.0
H606 H 0.77959 0.22689 0.1829 0.0
H607 H 0.69896 0.28158 0.15429 0.0
H608 H 0.83559 0.31548 0.14908 0.0
H609 H 0.80456 0.26492 0.15392 0.0
H610 H 0.72468 0.32022 0.18279 0.0
H611 H 0.75575 0.3709 0.17801 0.0
C612 C 0.7373 0.19898 0.17353 0.0
C613 C 0.70595 0.19933 0.16367 0.0
C614 C 0.75511 0.22808 0.17593 0.0
C615 C 0.74184 0.25824 0.1688 0.0
C616 C 0.70981 0.2588 0.16012 0.0
C617 C 0.69213 0.22966 0.15747 0.0
C618 C 0.81165 0.31682 0.15686 0.0
C619 C 0.79812 0.34727 0.16307 0.0
C620 C 0.7939 0.28781 0.15971 0.0
C621 C 0.76206 0.28857 0.16862 0.0
C622 C 0.74902 0.31887 0.17568 0.0
C623 C 0.76694 0.34787 0.17308 0.0
H624 H 0.74935 0.87198 0.67848 0.0
H625 H 0.66963 0.81572 0.65005 0.0
H626 H 0.78095 0.82161 0.68334 0.0
H627 H 0.70125 0.76548 0.65486 0.0
H628 H 0.83851 0.7327 0.65135 0.0
H629 H 0.80702 0.78315 0.65553 0.0
H630 H 0.72663 0.72771 0.68337 0.0
H631 H 0.75805 0.67718 0.67914 0.0
C632 C 0.73833 0.84883 0.67363 0.0
C633 C 0.70701 0.84789 0.66376 0.0
C634 C 0.75654 0.82001 0.67629 0.0
C635 C 0.74371 0.78957 0.66936 0.0
C636 C 0.71176 0.78848 0.66056 0.0
C637 C 0.69367 0.81731 0.65771 0.0
C638 C 0.81435 0.73131 0.65876 0.0
C639 C 0.80075 0.70086 0.66477 0.0
C640 C 0.79633 0.76027 0.66124 0.0
C641 C 0.76421 0.75941 0.66963 0.0
C642 C 0.75115 0.72913 0.6766 0.0
C643 C 0.76927 0.70021 0.6743 0.0
H644 H 0.17012 0.31722 0.65128 0.0
H645 H 0.25078 0.3741 0.67767 0.0
H646 H 0.20211 0.26717 0.65567 0.0
H647 H 0.28276 0.3239 0.68213 0.0
H648 H 0.26054 0.17924 0.67872 0.0
H649 H 0.22899 0.2296 0.68359 0.0
H650 H 0.30776 0.28547 0.6539 0.0
H651 H 0.33936 0.23523 0.64911 0.0
C652 C 0.19446 0.319 0.65842 0.0
C653 C 0.20794 0.3497 0.664 0.0
C654 C 0.21277 0.29026 0.66103 0.0
C655 C 0.24508 0.29156 0.66911 0.0
C656 C 0.25808 0.32212 0.67561 0.0
C657 C 0.23966 0.35086 0.67319 0.0
C658 C 0.27138 0.20233 0.67361 0.0
C659 C 0.30242 0.20318 0.6634 0.0
C660 C 0.25319 0.23116 0.67628 0.0
C661 C 0.26575 0.26151 0.66899 0.0
C662 C 0.29746 0.26255 0.65988 0.0
C663 C 0.31554 0.2337 0.65704 0.0
H664 H 0.66966 0.23646 0.88065 0.0
H665 H 0.75044 0.18027 0.85383 0.0
H666 H 0.70141 0.2867 0.87666 0.0
H667 H 0.78214 0.2306 0.84976 0.0
H668 H 0.83902 0.31935 0.88215 0.0
H669 H 0.80748 0.26901 0.87774 0.0
H670 H 0.72761 0.32468 0.84896 0.0
H671 H 0.75908 0.37511 0.85346 0.0
C672 C 0.69397 0.23488 0.87351 0.0
C673 C 0.70753 0.2043 0.86767 0.0
C674 C 0.71216 0.26372 0.87114 0.0
C675 C 0.74442 0.26266 0.86302 0.0
C676 C 0.75751 0.23222 0.85632 0.0
C677 C 0.73923 0.2034 0.85851 0.0
C678 C 0.81495 0.32082 0.87451 0.0
C679 C 0.80154 0.35131 0.86828 0.0
C680 C 0.7969 0.29191 0.8719 0.0
C681 C 0.76491 0.29284 0.86314 0.0
C682 C 0.75202 0.32318 0.85603 0.0
C683 C 0.77017 0.35205 0.85847 0.0
H684 H 0.17319 0.73215 0.88148 0.0
H685 H 0.25262 0.67625 0.85245 0.0
H686 H 0.20453 0.78247 0.87676 0.0
H687 H 0.284 0.72675 0.8477 0.0
H688 H 0.34169 0.81563 0.8799 0.0
H689 H 0.31038 0.76512 0.87558 0.0
H690 H 0.22933 0.82063 0.84836 0.0
H691 H 0.26059 0.87121 0.85273 0.0
C692 C 0.19711 0.73066 0.8737 0.0
C693 C 0.21043 0.70014 0.86744 0.0
C694 C 0.21505 0.75956 0.8709 0.0
C695 C 0.24687 0.75862 0.86197 0.0
C696 C 0.2597 0.72825 0.85485 0.0
C697 C 0.2416 0.69935 0.85743 0.0
C698 C 0.31741 0.81703 0.87261 0.0
C699 C 0.30361 0.84752 0.8668 0.0
C700 C 0.29949 0.78803 0.87004 0.0
C701 C 0.26725 0.78886 0.86178 0.0
C702 C 0.25396 0.8192 0.85503 0.0
C703 C 0.27198 0.84817 0.85741 0.0
H704 H 0.26289 0.08963 0.31772 0.0
H705 H 0.2912 0.98849 0.32711 0.0
H706 H 0.25293 0.07919 0.27686 0.0
H707 H 0.28332 0.97837 0.28626 0.0
H708 H 0.2618 0.9612 0.21262 0.0
H709 H 0.25218 0.97189 0.25345 0.0
H710 H 0.28353 0.07231 0.24391 0.0
H711 H 0.29104 0.06196 0.20305 0.0
C712 C 0.26667 0.06507 0.31108 0.0
C713 C 0.278 0.03994 0.32562 0.0
C714 C 0.26128 0.0591 0.28757 0.0
C715 C 0.26779 0.02801 0.27792 0.0
C716 C 0.27753 1.00252 0.29285 0.0
C717 C 0.28227 1.00835 0.31641 0.0
C718 C 0.26583 0.98574 0.21922 0.0
C719 C 0.27735 1.01068 0.20464 0.0
C720 C 0.26066 0.99185 0.24271 0.0
C721 C 0.2676 1.02287 0.25232 0.0
C722 C 0.27744 0.04822 0.23734 0.0
C723 C 0.28196 0.04225 0.21379 0.0
H724 H 0.715 0.09175 0.21775 0.0
H725 H 0.74534 0.99341 0.2001 0.0
H726 H 0.72313 0.07977 0.25833 0.0
H727 H 0.75512 0.98173 0.24084 0.0
H728 H 0.71465 0.95909 0.31357 0.0
H729 H 0.7226 0.97089 0.27296 0.0
H730 H 0.75584 0.06853 0.29036 0.0
H731 H 0.74622 0.05705 0.3311 0.0
C732 C 0.72433 0.0678 0.22249 0.0
C733 C 0.72913 0.0434 0.20569 0.0
C734 C 0.72922 0.06094 0.24588 0.0
C735 C 0.73947 0.02958 0.25308 0.0
C736 C 0.74647 1.0059 0.23606 0.0
C737 C 0.74114 1.01266 0.21265 0.0
C738 C 0.72422 0.9829 0.30879 0.0
C739 C 0.72941 1.00727 0.32557 0.0
C740 C 0.729 0.98966 0.28539 0.0
C741 C 0.73953 1.02087 0.27815 0.0
C742 C 0.74694 0.04448 0.29515 0.0
C743 C 0.7417 0.03784 0.31857 0.0
H744 H 0.748 0.99858 0.83235 0.0
H745 H 0.71674 0.09535 0.81148 0.0
H746 H 0.75845 0.9845 0.7921 0.0
H747 H 0.72547 0.08095 0.77139 0.0
H748 H 0.74772 0.05401 0.6995 0.0
H749 H 0.75799 0.06805 0.7398 0.0
H750 H 0.72642 0.9711 0.76022 0.0
H751 H 0.71791 0.95676 0.72005 0.0
C752 C 0.74375 1.01699 0.81919 0.0
C753 C 0.73126 0.04797 0.82511 0.0
C754 C 0.74946 1.00884 0.79606 0.0
C755 C 0.74234 0.03133 0.77827 0.0
C756 C 0.73168 0.06299 0.78444 0.0
C757 C 0.72643 0.07125 0.80755 0.0
C758 C 0.74378 0.03549 0.7126 0.0
C759 C 0.73171 1.00439 0.70658 0.0
C760 C 0.74937 0.04361 0.73577 0.0
C761 C 0.74251 1.02099 0.75349 0.0
C762 C 0.73238 0.98919 0.74722 0.0
C763 C 0.72728 0.98095 0.72407 0.0
H764 H 0.26154 0.05313 0.83183 0.0
H765 H 0.29305 0.95638 0.81115 0.0
H766 H 0.25086 0.06697 0.79155 0.0
H767 H 0.28409 0.97054 0.77103 0.0
H768 H 0.26143 0.99702 0.69908 0.0
H769 H 0.25134 0.98318 0.73939 0.0
H770 H 0.28274 0.08031 0.75968 0.0
H771 H 0.29109 0.09446 0.7195 0.0
C772 C 0.26579 0.03468 0.81871 0.0
C773 C 0.27843 1.00377 0.82469 0.0
C774 C 0.25995 0.04268 0.79555 0.0
C775 C 0.26707 1.02013 0.77781 0.0
C776 C 0.27787 0.98854 0.78404 0.0
C777 C 0.28326 0.98042 0.80717 0.0
C778 C 0.26537 1.01563 0.71215 0.0
C779 C 0.27736 0.04673 0.7061 0.0
C780 C 0.25988 1.00762 0.73532 0.0
C781 C 0.26676 0.03035 0.75302 0.0
C782 C 0.27678 0.06214 0.74671 0.0
C783 C 0.28178 0.07027 0.72355 0.0
H784 H 0.78772 0.45622 0.21976 0.0
H785 H 0.75859 0.5543 0.2005 0.0
H786 H 0.77986 0.46968 0.26013 0.0
H787 H 0.74899 0.56747 0.24099 0.0
H788 H 0.7906 0.59258 0.31306 0.0
H789 H 0.78187 0.57922 0.27274 0.0
H790 H 0.74812 0.4826 0.29216 0.0
H791 H 0.75857 0.49563 0.33261 0.0
C792 C 0.77864 0.4804 0.22411 0.0
C793 C 0.77419 0.50432 0.20692 0.0
C794 C 0.77392 0.48815 0.24737 0.0
C795 C 0.76417 0.5199 0.25405 0.0
C796 C 0.75733 0.54304 0.23664 0.0
C797 C 0.76253 0.53541 0.21336 0.0
C798 C 0.78075 0.56867 0.30878 0.0
C799 C 0.77567 0.54503 0.32604 0.0
C800 C 0.77551 0.56101 0.28555 0.0
C801 C 0.7646 0.5296 0.27896 0.0
C802 C 0.7573 0.50675 0.29644 0.0
C803 C 0.76302 0.51429 0.31969 0.0
H804 H 0.2121 0.45856 0.31175 0.0
H805 H 0.24459 0.55536 0.33148 0.0
H806 H 0.2202 0.47213 0.27142 0.0
H807 H 0.25439 0.56859 0.29103 0.0
H808 H 0.21357 0.5956 0.21906 0.0
H809 H 0.22196 0.58172 0.2593 0.0
H810 H 0.25256 0.48412 0.23948 0.0
H811 H 0.24247 0.49773 0.19909 0.0
C812 C 0.22192 0.48247 0.30751 0.0
C813 C 0.2273 0.50602 0.32482 0.0
C814 C 0.22679 0.49026 0.28427 0.0
C815 C 0.23762 0.52169 0.27774 0.0
C816 C 0.24525 0.54443 0.29527 0.0
C817 C 0.23991 0.53677 0.31852 0.0
C818 C 0.22268 0.57136 0.22322 0.0
C819 C 0.22694 0.54765 0.20586 0.0
C820 C 0.22772 0.56338 0.24642 0.0
C821 C 0.23759 0.53157 0.25288 0.0
C822 C 0.24417 0.5086 0.2353 0.0
C823 C 0.23868 0.51648 0.21208 0.0
H824 H 0.2179 0.48804 0.82717 0.0
H825 H 0.24607 0.5891 0.81747 0.0
H826 H 0.22574 0.47761 0.78639 0.0
H827 H 0.256 0.57834 0.77668 0.0
H828 H 0.21681 0.56058 0.703 0.0
H829 H 0.22515 0.57132 0.74375 0.0
H830 H 0.25654 0.47089 0.75358 0.0
H831 H 0.24608 0.45982 0.71288 0.0
C832 C 0.22682 0.50782 0.81642 0.0
C833 C 0.23102 0.53948 0.82552 0.0
C834 C 0.23154 0.50181 0.7929 0.0
C835 C 0.24119 0.52719 0.77789 0.0
C836 C 0.24771 0.55833 0.78744 0.0
C837 C 0.24235 0.56448 0.81092 0.0
C838 C 0.22611 0.54097 0.71377 0.0
C839 C 0.23043 0.50927 0.70477 0.0
C840 C 0.2311 0.54714 0.73727 0.0
C841 C 0.24113 0.52189 0.75231 0.0
C842 C 0.2479 0.49078 0.7428 0.0
C843 C 0.24224 0.48445 0.71938 0.0
H844 H 0.79103 0.5937 0.7194 0.0
H845 H 0.76049 0.49595 0.70039 0.0
H846 H 0.78286 0.58074 0.75977 0.0
H847 H 0.75065 0.48329 0.74095 0.0
H848 H 0.79229 0.4586 0.81318 0.0
H849 H 0.7835 0.47148 0.77282 0.0
H850 H 0.75054 0.56866 0.79173 0.0
H851 H 0.76101 0.5561 0.83226 0.0
C852 C 0.78163 0.56968 0.7238 0.0
C853 C 0.77684 0.54571 0.70667 0.0
C854 C 0.7767 0.56225 0.74707 0.0
C855 C 0.76643 0.53075 0.75385 0.0
C856 C 0.75934 0.50755 0.7365 0.0
C857 C 0.7647 0.51487 0.7132 0.0
C858 C 0.78261 0.48254 0.8088 0.0
C859 C 0.77778 0.50647 0.82594 0.0
C860 C 0.77732 0.48992 0.78554 0.0
C861 C 0.76665 0.52133 0.77879 0.0
C862 C 0.75954 0.54448 0.79615 0.0
C863 C 0.76526 0.53721 0.81944 0.0
loop_
_geom_bond_atom_site_label_1
_geom_bond_atom_site_label_2
_geom_bond_distance
_geom_bond_site_symmetry_2
_ccdc_geom_bond_type
O0 Cd1 2.223 . S
O0 C8 1.315 . S
Cd1 O0 2.223 . S
Cd1 O4 2.297 . S
Cd1 O5 2.439 . S
Cd1 O11 2.240 . S
Cd2 O3 2.240 . S
Cd2 O10 2.223 . S
Cd2 O12 2.297 1_545 S
Cd2 O13 2.439 . S
O3 Cd2 2.240 . S
O3 C8 1.279 . S
O4 Cd1 2.297 . S
O4 C6 1.247 . S
O5 Cd1 2.439 . S
O5 C6 1.208 . S
C6 O4 1.247 . S
C6 O5 1.208 . S
C7 O12 1.247 1_545 S
C7 O13 1.208 . S
C8 O0 1.315 . S
C8 O3 1.279 . S
C9 O10 1.315 . S
C9 O11 1.279 . S
O10 Cd2 2.223 . S
O10 C9 1.315 . S
O11 Cd1 2.240 . S
O11 C9 1.279 . S
O12 Cd2 2.297 1_565 S
O12 C7 1.247 1_565 S
O13 Cd2 2.439 . S
O13 C7 1.208 . S
O14 Cd15 2.223 . S
O14 C22 1.315 . S
Cd15 O14 2.223 . S
Cd15 O18 2.297 . S
Cd15 O19 2.439 . S
Cd15 O25 2.240 . S
Cd16 O17 2.240 . S
Cd16 O24 2.223 . S
Cd16 O26 2.297 1_565 S
Cd16 O27 2.439 . S
O17 Cd16 2.240 . S
O17 C22 1.279 . S
O18 Cd15 2.297 . S
O18 C20 1.247 . S
O19 Cd15 2.439 . S
O19 C20 1.208 . S
C20 O18 1.247 . S
C20 O19 1.208 . S
C21 O26 1.247 1_565 S
C21 O27 1.208 . S
C22 O14 1.315 . S
C22 O17 1.279 . S
C23 O24 1.315 . S
C23 O25 1.279 . S
O24 Cd16 2.223 . S
O24 C23 1.315 . S
O25 Cd15 2.240 . S
O25 C23 1.279 . S
O26 Cd16 2.297 1_545 S
O26 C21 1.247 1_545 S
O27 Cd16 2.439 . S
O27 C21 1.208 . S
O28 Cd29 2.223 . S
O28 C36 1.315 . S
Cd29 O28 2.223 . S
Cd29 O32 2.297 . S
Cd29 O33 2.439 . S
Cd29 O39 2.240 . S
Cd30 O31 2.240 . S
Cd30 O38 2.223 . S
Cd30 O40 2.297 1_565 S
Cd30 O41 2.439 . S
O31 Cd30 2.240 . S
O31 C36 1.279 . S
O32 Cd29 2.297 . S
O32 C34 1.247 . S
O33 Cd29 2.439 . S
O33 C34 1.208 . S
C34 O32 1.247 . S
C34 O33 1.208 . S
C35 O40 1.247 1_565 S
C35 O41 1.208 . S
C36 O28 1.315 . S
C36 O31 1.279 . S
C37 O38 1.315 . S
C37 O39 1.279 . S
O38 Cd30 2.223 . S
O38 C37 1.315 . S
O39 Cd29 2.240 . S
O39 C37 1.279 . S
O40 Cd30 2.297 1_545 S
O40 C35 1.247 1_545 S
O41 Cd30 2.439 . S
O41 C35 1.208 . S
O42 Cd43 2.223 . S
O42 C50 1.315 . S
Cd43 O42 2.223 . S
Cd43 O46 2.297 . S
Cd43 O47 2.439 . S
Cd43 O53 2.240 . S
Cd44 O45 2.240 . S
Cd44 O52 2.223 . S
Cd44 O54 2.297 1_545 S
Cd44 O55 2.439 . S
O45 Cd44 2.240 . S
O45 C50 1.279 . S
O46 Cd43 2.297 . S
O46 C48 1.247 . S
O47 Cd43 2.439 . S
O47 C48 1.208 . S
C48 O46 1.247 . S
C48 O47 1.208 . S
C49 O54 1.247 1_545 S
C49 O55 1.208 . S
C50 O42 1.315 . S
C50 O45 1.279 . S
C51 O52 1.315 . S
C51 O53 1.279 . S
O52 Cd44 2.223 . S
O52 C51 1.315 . S
O53 Cd43 2.240 . S
O53 C51 1.279 . S
O54 Cd44 2.297 1_565 S
O54 C49 1.247 1_565 S
O55 Cd44 2.439 . S
O55 C49 1.208 . S
O56 Cd57 2.223 . S
O56 C64 1.315 . S
Cd57 O56 2.223 . S
Cd57 O60 2.297 . S
Cd57 O61 2.439 . S
Cd57 O67 2.240 . S
Cd58 O59 2.240 . S
Cd58 O66 2.223 . S
Cd58 O68 2.297 1_565 S
Cd58 O69 2.439 . S
O59 Cd58 2.240 . S
O59 C64 1.279 . S
O60 Cd57 2.297 . S
O60 C62 1.247 . S
O61 Cd57 2.439 . S
O61 C62 1.208 . S
C62 O60 1.247 . S
C62 O61 1.208 . S
C63 O68 1.247 1_565 S
C63 O69 1.208 . S
C64 O56 1.315 . S
C64 O59 1.279 . S
C65 O66 1.315 . S
C65 O67 1.279 . S
O66 Cd58 2.223 . S
O66 C65 1.315 . S
O67 Cd57 2.240 . S
O67 C65 1.279 . S
O68 Cd58 2.297 1_545 S
O68 C63 1.247 1_545 S
O69 Cd58 2.439 . S
O69 C63 1.208 . S
O70 Cd71 2.223 . S
O70 C78 1.315 . S
Cd71 O70 2.223 . S
Cd71 O74 2.297 . S
Cd71 O75 2.439 . S
Cd71 O81 2.240 . S
Cd72 O73 2.240 . S
Cd72 O80 2.223 . S
Cd72 O82 2.297 1_545 S
Cd72 O83 2.439 . S
O73 Cd72 2.240 . S
O73 C78 1.279 . S
O74 Cd71 2.297 . S
O74 C76 1.247 . S
O75 Cd71 2.439 . S
O75 C76 1.208 . S
C76 O74 1.247 . S
C76 O75 1.208 . S
C77 O82 1.247 1_545 S
C77 O83 1.208 . S
C78 O70 1.315 . S
C78 O73 1.279 . S
C79 O80 1.315 . S
C79 O81 1.279 . S
O80 Cd72 2.223 . S
O80 C79 1.315 . S
O81 Cd71 2.240 . S
O81 C79 1.279 . S
O82 Cd72 2.297 1_565 S
O82 C77 1.247 1_565 S
O83 Cd72 2.439 . S
O83 C77 1.208 . S
O84 Cd85 2.223 . S
O84 C92 1.315 . S
Cd85 O84 2.223 . S
Cd85 O88 2.297 . S
Cd85 O89 2.439 . S
Cd85 O95 2.240 . S
Cd86 O87 2.240 . S
Cd86 O94 2.223 . S
Cd86 O96 2.297 1_545 S
Cd86 O97 2.439 . S
O87 Cd86 2.240 . S
O87 C92 1.279 . S
O88 Cd85 2.297 . S
O88 C90 1.247 . S
O89 Cd85 2.439 . S
O89 C90 1.208 . S
C90 O88 1.247 . S
C90 O89 1.208 . S
C91 O96 1.247 1_545 S
C91 O97 1.208 . S
C92 O84 1.315 . S
C92 O87 1.279 . S
C93 O94 1.315 . S
C93 O95 1.279 . S
O94 Cd86 2.223 . S
O94 C93 1.315 . S
O95 Cd85 2.240 . S
O95 C93 1.279 . S
O96 Cd86 2.297 1_565 S
O96 C91 1.247 1_565 S
O97 Cd86 2.439 . S
O97 C91 1.208 . S
O98 Cd99 2.223 . S
O98 C106 1.315 . S
Cd99 O98 2.223 . S
Cd99 O102 2.297 . S
Cd99 O103 2.439 . S
Cd99 O109 2.240 . S
Cd100 O101 2.240 . S
Cd100 O108 2.223 . S
Cd100 O110 2.297 1_565 S
Cd100 O111 2.439 . S
O101 Cd100 2.240 . S
O101 C106 1.279 . S
O102 Cd99 2.297 . S
O102 C104 1.247 . S
O103 Cd99 2.439 . S
O103 C104 1.208 . S
C104 O102 1.247 . S
C104 O103 1.208 . S
C105 O110 1.247 1_565 S
C105 O111 1.208 . S
C106 O98 1.315 . S
C106 O101 1.279 . S
C107 O108 1.315 . S
C107 O109 1.279 . S
O108 Cd100 2.223 . S
O108 C107 1.315 . S
O109 Cd99 2.240 . S
O109 C107 1.279 . S
O110 Cd100 2.297 1_545 S
O110 C105 1.247 1_545 S
O111 Cd100 2.439 . S
O111 C105 1.208 . S
O112 Cd113 2.223 . S
O112 C120 1.315 . S
Cd113 O112 2.223 . S
Cd113 O116 2.297 . S
Cd113 O117 2.439 . S
Cd113 O123 2.240 . S
Cd114 O115 2.240 . S
Cd114 O122 2.223 . S
Cd114 O124 2.297 . S
Cd114 O125 2.439 . S
O115 Cd114 2.240 . S
O115 C120 1.279 . S
O116 Cd113 2.297 . S
O116 C118 1.247 . S
O117 Cd113 2.439 . S
O117 C118 1.208 . S
C118 O116 1.247 . S
C118 O117 1.208 . S
C119 O124 1.247 . S
C119 O125 1.208 . S
C120 O112 1.315 . S
C120 O115 1.279 . S
C121 O122 1.315 . S
C121 O123 1.279 . S
O122 Cd114 2.223 . S
O122 C121 1.315 . S
O123 Cd113 2.240 . S
O123 C121 1.279 . S
O124 Cd114 2.297 . S
O124 C119 1.247 . S
O125 Cd114 2.439 . S
O125 C119 1.208 . S
O126 Cd127 2.223 . S
O126 C134 1.315 . S
Cd127 O126 2.223 . S
Cd127 O130 2.297 . S
Cd127 O131 2.439 . S
Cd127 O137 2.240 . S
Cd128 O129 2.240 . S
Cd128 O136 2.223 . S
Cd128 O138 2.297 . S
Cd128 O139 2.439 . S
O129 Cd128 2.240 . S
O129 C134 1.279 . S
O130 Cd127 2.297 . S
O130 C132 1.247 . S
O131 Cd127 2.439 . S
O131 C132 1.208 . S
C132 O130 1.247 . S
C132 O131 1.208 . S
C133 O138 1.247 . S
C133 O139 1.208 . S
C134 O126 1.315 . S
C134 O129 1.279 . S
C135 O136 1.315 . S
C135 O137 1.279 . S
O136 Cd128 2.223 . S
O136 C135 1.315 . S
O137 Cd127 2.240 . S
O137 C135 1.279 . S
O138 Cd128 2.297 . S
O138 C133 1.247 . S
O139 Cd128 2.439 . S
O139 C133 1.208 . S
O140 Cd141 2.223 . S
O140 C148 1.315 . S
Cd141 O140 2.223 . S
Cd141 O144 2.297 . S
Cd141 O145 2.439 . S
Cd141 O151 2.240 . S
Cd142 O143 2.240 . S
Cd142 O150 2.223 . S
Cd142 O152 2.297 . S
Cd142 O153 2.439 . S
O143 Cd142 2.240 . S
O143 C148 1.279 . S
O144 Cd141 2.297 . S
O144 C146 1.247 . S
O145 Cd141 2.439 . S
O145 C146 1.208 . S
C146 O144 1.247 . S
C146 O145 1.208 . S
C147 O152 1.247 . S
C147 O153 1.208 . S
C148 O140 1.315 . S
C148 O143 1.279 . S
C149 O150 1.315 . S
C149 O151 1.279 . S
O150 Cd142 2.223 . S
O150 C149 1.315 . S
O151 Cd141 2.240 . S
O151 C149 1.279 . S
O152 Cd142 2.297 . S
O152 C147 1.247 . S
O153 Cd142 2.439 . S
O153 C147 1.208 . S
O154 Cd155 2.223 . S
O154 C162 1.315 . S
Cd155 O154 2.223 . S
Cd155 O158 2.297 . S
Cd155 O159 2.439 . S
Cd155 O165 2.240 . S
Cd156 O157 2.240 . S
Cd156 O164 2.223 . S
Cd156 O166 2.297 . S
Cd156 O167 2.439 . S
O157 Cd156 2.240 . S
O157 C162 1.279 . S
O158 Cd155 2.297 . S
O158 C160 1.247 . S
O159 Cd155 2.439 . S
O159 C160 1.208 . S
C160 O158 1.247 . S
C160 O159 1.208 . S
C161 O166 1.247 . S
C161 O167 1.208 . S
C162 O154 1.315 . S
C162 O157 1.279 . S
C163 O164 1.315 . S
C163 O165 1.279 . S
O164 Cd156 2.223 . S
O164 C163 1.315 . S
O165 Cd155 2.240 . S
O165 C163 1.279 . S
O166 Cd156 2.297 . S
O166 C161 1.247 . S
O167 Cd156 2.439 . S
O167 C161 1.208 . S
O168 Cd169 2.223 . S
O168 C176 1.315 . S
Cd169 O168 2.223 . S
Cd169 O172 2.297 . S
Cd169 O173 2.439 . S
Cd169 O179 2.240 . S
Cd170 O171 2.240 . S
Cd170 O178 2.223 . S
Cd170 O180 2.297 . S
Cd170 O181 2.439 . S
O171 Cd170 2.240 . S
O171 C176 1.279 . S
O172 Cd169 2.297 . S
O172 C174 1.247 . S
O173 Cd169 2.439 . S
O173 C174 1.208 . S
C174 O172 1.247 . S
C174 O173 1.208 . S
C175 O180 1.247 . S
C175 O181 1.208 . S
C176 O168 1.315 . S
C176 O171 1.279 . S
C177 O178 1.315 . S
C177 O179 1.279 . S
O178 Cd170 2.223 . S
O178 C177 1.315 . S
O179 Cd169 2.240 . S
O179 C177 1.279 . S
O180 Cd170 2.297 . S
O180 C175 1.247 . S
O181 Cd170 2.439 . S
O181 C175 1.208 . S
O182 Cd183 2.223 . S
O182 C190 1.315 . S
Cd183 O182 2.223 . S
Cd183 O186 2.297 . S
Cd183 O187 2.439 . S
Cd183 O193 2.240 . S
Cd184 O185 2.240 . S
Cd184 O192 2.223 . S
Cd184 O194 2.297 . S
Cd184 O195 2.439 . S
O185 Cd184 2.240 . S
O185 C190 1.279 . S
O186 Cd183 2.297 . S
O186 C188 1.247 . S
O187 Cd183 2.439 . S
O187 C188 1.208 . S
C188 O186 1.247 . S
C188 O187 1.208 . S
C189 O194 1.247 . S
C189 O195 1.208 . S
C190 O182 1.315 . S
C190 O185 1.279 . S
C191 O192 1.315 . S
C191 O193 1.279 . S
O192 Cd184 2.223 . S
O192 C191 1.315 . S
O193 Cd183 2.240 . S
O193 C191 1.279 . S
O194 Cd184 2.297 . S
O194 C189 1.247 . S
O195 Cd184 2.439 . S
O195 C189 1.208 . S
O196 Cd197 2.223 . S
O196 C204 1.315 . S
Cd197 O196 2.223 . S
Cd197 O200 2.297 . S
Cd197 O201 2.439 . S
Cd197 O207 2.240 . S
Cd198 O199 2.240 . S
Cd198 O206 2.223 . S
Cd198 O208 2.297 . S
Cd198 O209 2.439 . S
O199 Cd198 2.240 . S
O199 C204 1.279 . S
O200 Cd197 2.297 . S
O200 C202 1.247 . S
O201 Cd197 2.439 . S
O201 C202 1.208 . S
C202 O200 1.247 . S
C202 O201 1.208 . S
C203 O208 1.247 . S
C203 O209 1.208 . S
C204 O196 1.315 . S
C204 O199 1.279 . S
C205 O206 1.315 . S
C205 O207 1.279 . S
O206 Cd198 2.223 . S
O206 C205 1.315 . S
O207 Cd197 2.240 . S
O207 C205 1.279 . S
O208 Cd198 2.297 . S
O208 C203 1.247 . S
O209 Cd198 2.439 . S
O209 C203 1.208 . S
O210 Cd211 2.223 . S
O210 C218 1.315 . S
Cd211 O210 2.223 . S
Cd211 O214 2.297 . S
Cd211 O215 2.439 . S
Cd211 O221 2.240 . S
Cd212 O213 2.240 . S
Cd212 O220 2.223 . S
Cd212 O222 2.297 . S
Cd212 O223 2.439 . S
O213 Cd212 2.240 . S
O213 C218 1.279 . S
O214 Cd211 2.297 . S
O214 C216 1.247 . S
O215 Cd211 2.439 . S
O215 C216 1.208 . S
C216 O214 1.247 . S
C216 O215 1.208 . S
C217 O222 1.247 . S
C217 O223 1.208 . S
C218 O210 1.315 . S
C218 O213 1.279 . S
C219 O220 1.315 . S
C219 O221 1.279 . S
O220 Cd212 2.223 . S
O220 C219 1.315 . S
O221 Cd211 2.240 . S
O221 C219 1.279 . S
O222 Cd212 2.297 . S
O222 C217 1.247 . S
O223 Cd212 2.439 . S
O223 C217 1.208 . S
H224 C232 0.950 . S
H225 C237 0.950 . S
H226 C234 0.950 . S
H227 C236 0.950 . S
H228 C238 0.950 . S
H229 C240 0.950 . S
H230 C242 0.950 . S
H231 C243 0.950 . S
C232 H224 0.950 . S
C232 C233 1.386 . S
C232 C234 1.391 . S
C233 C232 1.386 . S
C233 C237 1.393 . S
C234 H226 0.950 . S
C234 C232 1.391 . S
C234 C235 1.400 . S
C235 C234 1.400 . S
C235 C236 1.398 . S
C235 C241 1.491 . S
C236 H227 0.950 . S
C236 C235 1.398 . S
C236 C237 1.391 . S
C237 H225 0.950 . S
C237 C233 1.393 . S
C237 C236 1.391 . S
C238 H228 0.950 . S
C238 C239 1.386 . S
C238 C240 1.391 . S
C239 C238 1.386 . S
C239 C243 1.393 . S
C240 H229 0.950 . S
C240 C238 1.391 . S
C240 C241 1.400 . S
C241 C235 1.491 . S
C241 C240 1.400 . S
C241 C242 1.398 . S
C242 H230 0.950 . S
C242 C241 1.398 . S
C242 C243 1.391 . S
C243 H231 0.950 . S
C243 C239 1.393 . S
C243 C242 1.391 . S
H244 C252 0.950 . S
H245 C257 0.950 . S
H246 C254 0.950 . S
H247 C256 0.950 . S
H248 C258 0.950 . S
H249 C260 0.950 . S
H250 C262 0.950 . S
H251 C263 0.950 . S
C252 H244 0.950 . S
C252 C253 1.386 . S
C252 C254 1.391 . S
C253 C252 1.386 . S
C253 C257 1.393 . S
C254 H246 0.950 . S
C254 C252 1.391 . S
C254 C255 1.400 . S
C255 C254 1.400 . S
C255 C256 1.398 . S
C255 C261 1.491 . S
C256 H247 0.950 . S
C256 C255 1.398 . S
C256 C257 1.391 . S
C257 H245 0.950 . S
C257 C253 1.393 . S
C257 C256 1.391 . S
C258 H248 0.950 . S
C258 C259 1.386 . S
C258 C260 1.391 . S
C259 C258 1.386 . S
C259 C263 1.393 . S
C260 H249 0.950 . S
C260 C258 1.391 . S
C260 C261 1.400 . S
C261 C255 1.491 . S
C261 C260 1.400 . S
C261 C262 1.398 . S
C262 H250 0.950 . S
C262 C261 1.398 . S
C262 C263 1.391 . S
C263 H251 0.950 . S
C263 C259 1.393 . S
C263 C262 1.391 . S
H264 C272 0.950 . S
H265 C277 0.950 . S
H266 C274 0.950 . S
H267 C276 0.950 . S
H268 C278 0.950 . S
H269 C280 0.950 . S
H270 C282 0.950 . S
H271 C283 0.950 . S
C272 H264 0.950 . S
C272 C273 1.386 . S
C272 C274 1.391 . S
C273 C272 1.386 . S
C273 C277 1.393 . S
C274 H266 0.950 . S
C274 C272 1.391 . S
C274 C275 1.400 . S
C275 C274 1.400 . S
C275 C276 1.398 . S
C275 C281 1.491 1_554 S
C276 H267 0.950 . S
C276 C275 1.398 . S
C276 C277 1.391 . S
C277 H265 0.950 . S
C277 C273 1.393 . S
C277 C276 1.391 . S
C278 H268 0.950 . S
C278 C279 1.386 . S
C278 C280 1.391 . S
C279 C278 1.386 . S
C279 C283 1.393 . S
C280 H269 0.950 . S
C280 C278 1.391 . S
C280 C281 1.400 . S
C281 C275 1.491 1_556 S
C281 C280 1.400 . S
C281 C282 1.398 . S
C282 H270 0.950 . S
C282 C281 1.398 . S
C282 C283 1.391 . S
C283 H271 0.950 . S
C283 C279 1.393 . S
C283 C282 1.391 . S
H284 C292 0.950 . S
H285 C297 0.950 . S
H286 C294 0.950 . S
H287 C296 0.950 . S
H288 C298 0.950 . S
H289 C300 0.950 . S
H290 C302 0.950 . S
H291 C303 0.950 . S
C292 H284 0.950 . S
C292 C293 1.386 . S
C292 C294 1.391 . S
C293 C292 1.386 . S
C293 C297 1.393 . S
C294 H286 0.950 . S
C294 C292 1.391 . S
C294 C295 1.400 . S
C295 C294 1.400 . S
C295 C296 1.398 . S
C295 C301 1.491 1_556 S
C296 H287 0.950 . S
C296 C295 1.398 . S
C296 C297 1.391 . S
C297 H285 0.950 . S
C297 C293 1.393 . S
C297 C296 1.391 . S
C298 H288 0.950 . S
C298 C299 1.386 . S
C298 C300 1.391 . S
C299 C298 1.386 . S
C299 C303 1.393 . S
C300 H289 0.950 . S
C300 C298 1.391 . S
C300 C301 1.400 . S
C301 C295 1.491 1_554 S
C301 C300 1.400 . S
C301 C302 1.398 . S
C302 H290 0.950 . S
C302 C301 1.398 . S
C302 C303 1.391 . S
C303 H291 0.950 . S
C303 C299 1.393 . S
C303 C302 1.391 . S
H304 C312 0.950 . S
H305 C317 0.950 . S
H306 C314 0.950 . S
H307 C316 0.950 . S
H308 C318 0.950 . S
H309 C320 0.950 . S
H310 C322 0.950 . S
H311 C323 0.950 . S
C312 H304 0.950 . S
C312 C313 1.386 . S
C312 C314 1.391 . S
C313 C312 1.386 . S
C313 C317 1.393 . S
C314 H306 0.950 . S
C314 C312 1.391 . S
C314 C315 1.400 . S
C315 C314 1.400 . S
C315 C316 1.398 . S
C315 C321 1.491 . S
C316 H307 0.950 . S
C316 C315 1.398 . S
C316 C317 1.391 . S
C317 H305 0.950 . S
C317 C313 1.393 . S
C317 C316 1.391 . S
C318 H308 0.950 . S
C318 C319 1.386 . S
C318 C320 1.391 . S
C319 C318 1.386 . S
C319 C323 1.393 . S
C320 H309 0.950 . S
C320 C318 1.391 . S
C320 C321 1.400 . S
C321 C315 1.491 . S
C321 C320 1.400 . S
C321 C322 1.398 . S
C322 H310 0.950 . S
C322 C321 1.398 . S
C322 C323 1.391 . S
C323 H311 0.950 . S
C323 C319 1.393 . S
C323 C322 1.391 . S
H324 C332 0.950 . S
H325 C337 0.950 . S
H326 C334 0.950 . S
H327 C336 0.950 . S
H328 C338 0.950 . S
H329 C340 0.950 . S
H330 C342 0.950 . S
H331 C343 0.950 . S
C332 H324 0.950 . S
C332 C333 1.386 . S
C332 C334 1.391 . S
C333 C332 1.386 . S
C333 C337 1.393 . S
C334 H326 0.950 . S
C334 C332 1.391 . S
C334 C335 1.400 . S
C335 C334 1.400 . S
C335 C336 1.398 . S
C335 C341 1.491 . S
C336 H327 0.950 . S
C336 C335 1.398 . S
C336 C337 1.391 . S
C337 H325 0.950 . S
C337 C333 1.393 . S
C337 C336 1.391 . S
C338 H328 0.950 . S
C338 C339 1.386 . S
C338 C340 1.391 . S
C339 C338 1.386 . S
C339 C343 1.393 . S
C340 H329 0.950 . S
C340 C338 1.391 . S
C340 C341 1.400 . S
C341 C335 1.491 . S
C341 C340 1.400 . S
C341 C342 1.398 . S
C342 H330 0.950 . S
C342 C341 1.398 . S
C342 C343 1.391 . S
C343 H331 0.950 . S
C343 C339 1.393 . S
C343 C342 1.391 . S
H344 C352 0.950 . S
H345 C357 0.950 . S
H346 C354 0.950 . S
H347 C356 0.950 . S
H348 C358 0.950 . S
H349 C360 0.950 . S
H350 C362 0.950 . S
H351 C363 0.950 . S
C352 H344 0.950 . S
C352 C353 1.386 . S
C352 C354 1.391 . S
C353 C352 1.386 . S
C353 C357 1.393 . S
C354 H346 0.950 . S
C354 C352 1.391 . S
C354 C355 1.400 . S
C355 C354 1.400 . S
C355 C356 1.398 . S
C355 C361 1.491 1_556 S
C356 H347 0.950 . S
C356 C355 1.398 . S
C356 C357 1.391 . S
C357 H345 0.950 . S
C357 C353 1.393 . S
C357 C356 1.391 . S
C358 H348 0.950 . S
C358 C359 1.386 . S
C358 C360 1.391 . S
C359 C358 1.386 . S
C359 C363 1.393 . S
C360 H349 0.950 . S
C360 C358 1.391 . S
C360 C361 1.400 . S
C361 C355 1.491 1_554 S
C361 C360 1.400 . S
C361 C362 1.398 . S
C362 H350 0.950 . S
C362 C361 1.398 . S
C362 C363 1.391 . S
C363 H351 0.950 . S
C363 C359 1.393 . S
C363 C362 1.391 . S
H364 C372 0.950 . S
H365 C377 0.950 . S
H366 C374 0.950 . S
H367 C376 0.950 . S
H368 C378 0.950 . S
H369 C380 0.950 . S
H370 C382 0.950 . S
H371 C383 0.950 . S
C372 H364 0.950 . S
C372 C373 1.386 . S
C372 C374 1.391 . S
C373 C372 1.386 . S
C373 C377 1.393 . S
C374 H366 0.950 . S
C374 C372 1.391 . S
C374 C375 1.400 . S
C375 C374 1.400 . S
C375 C376 1.398 . S
C375 C381 1.491 1_554 S
C376 H367 0.950 . S
C376 C375 1.398 . S
C376 C377 1.391 . S
C377 H365 0.950 . S
C377 C373 1.393 . S
C377 C376 1.391 . S
C378 H368 0.950 . S
C378 C379 1.386 . S
C378 C380 1.391 . S
C379 C378 1.386 . S
C379 C383 1.393 . S
C380 H369 0.950 . S
C380 C378 1.391 . S
C380 C381 1.400 . S
C381 C375 1.491 1_556 S
C381 C380 1.400 . S
C381 C382 1.398 . S
C382 H370 0.950 . S
C382 C381 1.398 . S
C382 C383 1.391 . S
C383 H371 0.950 . S
C383 C379 1.393 . S
C383 C382 1.391 . S
H384 C392 0.948 . S
H385 C397 0.950 . S
H386 C394 0.950 . S
H387 C396 0.950 . S
H388 C398 0.952 1_565 S
H389 C400 0.950 . S
H390 C402 0.950 . S
H391 C403 0.950 . S
C392 H384 0.948 . S
C392 C393 1.389 1_545 S
C392 C394 1.390 . S
C393 C392 1.389 1_565 S
C393 C397 1.393 . S
C394 H386 0.950 . S
C394 C392 1.390 . S
C394 C395 1.400 1_545 S
C395 C394 1.400 1_565 S
C395 C396 1.398 . S
C395 C401 1.491 1_565 S
C396 H387 0.950 . S
C396 C395 1.398 . S
C396 C397 1.391 . S
C397 H385 0.950 . S
C397 C393 1.393 . S
C397 C396 1.391 . S
C398 H388 0.952 1_545 S
C398 C399 1.382 . S
C398 C400 1.393 1_545 S
C399 C398 1.382 . S
C399 C403 1.393 . S
C400 H389 0.950 . S
C400 C398 1.393 1_565 S
C400 C401 1.400 1_565 S
C401 C395 1.491 1_545 S
C401 C400 1.400 1_545 S
C401 C402 1.398 . S
C402 H390 0.950 . S
C402 C401 1.398 . S
C402 C403 1.391 . S
C403 H391 0.950 . S
C403 C399 1.393 . S
C403 C402 1.391 . S
H404 C412 0.950 . S
H405 C417 0.935 1_545 S
H406 C414 0.950 . S
H407 C416 0.950 . S
H408 C418 0.950 . S
H409 C420 0.950 . S
H410 C422 0.950 . S
H411 C423 0.935 1_565 S
C412 H404 0.950 . S
C412 C413 1.386 . S
C412 C414 1.391 . S
C413 C412 1.386 . S
C413 C417 1.419 . S
C414 H406 0.950 . S
C414 C412 1.391 . S
C414 C415 1.400 . S
C415 C414 1.400 . S
C415 C416 1.398 1_565 S
C415 C421 1.491 1_565 S
C416 H407 0.950 . S
C416 C415 1.398 1_545 S
C416 C417 1.380 1_545 S
C417 H405 0.935 1_565 S
C417 C413 1.419 . S
C417 C416 1.380 1_565 S
C418 H408 0.950 . S
C418 C419 1.386 . S
C418 C420 1.391 . S
C419 C418 1.386 . S
C419 C423 1.418 . S
C420 H409 0.950 . S
C420 C418 1.391 . S
C420 C421 1.400 . S
C421 C415 1.491 1_545 S
C421 C420 1.400 . S
C421 C422 1.398 1_545 S
C422 H410 0.950 . S
C422 C421 1.398 1_565 S
C422 C423 1.381 1_565 S
C423 H411 0.935 1_545 S
C423 C419 1.418 . S
C423 C422 1.381 1_545 S
H424 C432 0.950 1_545 S
H425 C437 0.950 . S
H426 C434 0.950 . S
H427 C436 0.950 . S
H428 C438 0.950 1_565 S
H429 C440 0.950 . S
H430 C442 0.950 . S
H431 C443 0.950 . S
C432 H424 0.950 1_565 S
C432 C433 1.386 . S
C432 C434 1.391 1_565 S
C433 C432 1.386 . S
C433 C437 1.393 . S
C434 H426 0.950 . S
C434 C432 1.391 1_545 S
C434 C435 1.400 1_545 S
C435 C434 1.400 1_565 S
C435 C436 1.398 . S
C435 C441 1.491 1_565 S
C436 H427 0.950 . S
C436 C435 1.398 . S
C436 C437 1.391 . S
C437 H425 0.950 . S
C437 C433 1.393 . S
C437 C436 1.391 . S
C438 H428 0.950 1_545 S
C438 C439 1.386 . S
C438 C440 1.391 1_545 S
C439 C438 1.386 . S
C439 C443 1.393 . S
C440 H429 0.950 . S
C440 C438 1.391 1_565 S
C440 C441 1.400 1_565 S
C441 C435 1.491 1_545 S
C441 C440 1.400 1_545 S
C441 C442 1.398 . S
C442 H430 0.950 . S
C442 C441 1.398 . S
C442 C443 1.391 . S
C443 H431 0.950 . S
C443 C439 1.393 . S
C443 C442 1.391 . S
H444 C452 0.950 . S
H445 C457 0.960 . S
H446 C454 0.950 . S
H447 C456 0.950 . S
H448 C458 0.950 . S
H449 C460 0.950 . S
H450 C462 0.950 . S
H451 C463 0.960 . S
C452 H444 0.950 . S
C452 C453 1.386 . S
C452 C454 1.391 . S
C453 C452 1.386 . S
C453 C457 1.377 1_545 S
C454 H446 0.950 . S
C454 C452 1.391 . S
C454 C455 1.400 . S
C455 C454 1.400 . S
C455 C456 1.398 1_545 S
C455 C461 1.491 1_545 S
C456 H447 0.950 . S
C456 C455 1.398 1_565 S
C456 C457 1.397 . S
C457 H445 0.960 . S
C457 C453 1.377 1_565 S
C457 C456 1.397 . S
C458 H448 0.950 . S
C458 C459 1.386 . S
C458 C460 1.391 . S
C459 C458 1.386 . S
C459 C463 1.376 1_565 S
C460 H449 0.950 . S
C460 C458 1.391 . S
C460 C461 1.400 . S
C461 C455 1.491 1_565 S
C461 C460 1.400 . S
C461 C462 1.398 1_565 S
C462 H450 0.950 . S
C462 C461 1.398 1_545 S
C462 C463 1.397 . S
C463 H451 0.960 . S
C463 C459 1.376 1_545 S
C463 C462 1.397 . S
H464 C472 0.950 . S
H465 C477 0.950 . S
H466 C474 0.950 . S
H467 C476 0.950 . S
H468 C478 0.950 . S
H469 C480 0.950 . S
H470 C482 0.950 . S
H471 C483 0.950 . S
C472 H464 0.950 . S
C472 C473 1.386 . S
C472 C474 1.391 . S
C473 C472 1.386 . S
C473 C477 1.393 . S
C474 H466 0.950 . S
C474 C472 1.391 . S
C474 C475 1.400 . S
C475 C474 1.400 . S
C475 C476 1.398 . S
C475 C481 1.491 1_655 S
C476 H467 0.950 . S
C476 C475 1.398 . S
C476 C477 1.391 . S
C477 H465 0.950 . S
C477 C473 1.393 . S
C477 C476 1.391 . S
C478 H468 0.950 . S
C478 C479 1.386 . S
C478 C480 1.391 . S
C479 C478 1.386 . S
C479 C483 1.393 . S
C480 H469 0.950 . S
C480 C478 1.391 . S
C480 C481 1.400 . S
C481 C475 1.491 1_455 S
C481 C480 1.400 . S
C481 C482 1.398 . S
C482 H470 0.950 . S
C482 C481 1.398 . S
C482 C483 1.391 . S
C483 H471 0.950 . S
C483 C479 1.393 . S
C483 C482 1.391 . S
H484 C492 0.950 . S
H485 C497 0.950 . S
H486 C494 0.950 . S
H487 C496 0.950 . S
H488 C498 0.950 . S
H489 C500 0.950 . S
H490 C502 0.950 . S
H491 C503 0.950 . S
C492 H484 0.950 . S
C492 C493 1.386 . S
C492 C494 1.391 . S
C493 C492 1.386 . S
C493 C497 1.393 . S
C494 H486 0.950 . S
C494 C492 1.391 . S
C494 C495 1.400 . S
C495 C494 1.400 . S
C495 C496 1.398 . S
C495 C501 1.491 1_455 S
C496 H487 0.950 . S
C496 C495 1.398 . S
C496 C497 1.391 . S
C497 H485 0.950 . S
C497 C493 1.393 . S
C497 C496 1.391 . S
C498 H488 0.950 . S
C498 C499 1.386 . S
C498 C500 1.391 . S
C499 C498 1.386 . S
C499 C503 1.393 . S
C500 H489 0.950 . S
C500 C498 1.391 . S
C500 C501 1.400 . S
C501 C495 1.491 1_655 S
C501 C500 1.400 . S
C501 C502 1.398 . S
C502 H490 0.950 . S
C502 C501 1.398 . S
C502 C503 1.391 . S
C503 H491 0.950 . S
C503 C499 1.393 . S
C503 C502 1.391 . S
H504 C512 0.950 . S
H505 C517 0.950 . S
H506 C514 0.950 . S
H507 C516 0.950 . S
H508 C518 0.950 . S
H509 C520 0.950 . S
H510 C522 0.950 . S
H511 C523 0.950 . S
C512 H504 0.950 . S
C512 C513 1.386 . S
C512 C514 1.391 . S
C513 C512 1.386 . S
C513 C517 1.393 . S
C514 H506 0.950 . S
C514 C512 1.391 . S
C514 C515 1.400 . S
C515 C514 1.400 . S
C515 C516 1.398 . S
C515 C521 1.491 1_655 S
C516 H507 0.950 . S
C516 C515 1.398 . S
C516 C517 1.391 . S
C517 H505 0.950 . S
C517 C513 1.393 . S
C517 C516 1.391 . S
C518 H508 0.950 . S
C518 C519 1.386 . S
C518 C520 1.391 . S
C519 C518 1.386 . S
C519 C523 1.393 . S
C520 H509 0.950 . S
C520 C518 1.391 . S
C520 C521 1.400 . S
C521 C515 1.491 1_455 S
C521 C520 1.400 . S
C521 C522 1.398 . S
C522 H510 0.950 . S
C522 C521 1.398 . S
C522 C523 1.391 . S
C523 H511 0.950 . S
C523 C519 1.393 . S
C523 C522 1.391 . S
H524 C532 0.950 . S
H525 C537 0.950 . S
H526 C534 0.950 . S
H527 C536 0.950 . S
H528 C538 0.950 . S
H529 C540 0.950 . S
H530 C542 0.950 . S
H531 C543 0.950 . S
C532 H524 0.950 . S
C532 C533 1.386 . S
C532 C534 1.391 . S
C533 C532 1.386 . S
C533 C537 1.393 . S
C534 H526 0.950 . S
C534 C532 1.391 . S
C534 C535 1.400 . S
C535 C534 1.400 . S
C535 C536 1.398 . S
C535 C541 1.491 1_455 S
C536 H527 0.950 . S
C536 C535 1.398 . S
C536 C537 1.391 . S
C537 H525 0.950 . S
C537 C533 1.393 . S
C537 C536 1.391 . S
C538 H528 0.950 . S
C538 C539 1.386 . S
C538 C540 1.391 . S
C539 C538 1.386 . S
C539 C543 1.393 . S
C540 H529 0.950 . S
C540 C538 1.391 . S
C540 C541 1.400 . S
C541 C535 1.491 1_655 S
C541 C540 1.400 . S
C541 C542 1.398 . S
C542 H530 0.950 . S
C542 C541 1.398 . S
C542 C543 1.391 . S
C543 H531 0.950 . S
C543 C539 1.393 . S
C543 C542 1.391 . S
H544 C552 0.950 . S
H545 C557 0.950 . S
H546 C554 0.950 . S
H547 C556 0.950 . S
H548 C558 0.950 . S
H549 C560 0.950 . S
H550 C562 0.950 . S
H551 C563 0.950 . S
C552 H544 0.950 . S
C552 C553 1.386 . S
C552 C554 1.391 . S
C553 C552 1.386 . S
C553 C557 1.393 . S
C554 H546 0.950 . S
C554 C552 1.391 . S
C554 C555 1.400 . S
C555 C554 1.400 . S
C555 C556 1.398 . S
C555 C561 1.491 . S
C556 H547 0.950 . S
C556 C555 1.398 . S
C556 C557 1.391 . S
C557 H545 0.950 . S
C557 C553 1.393 . S
C557 C556 1.391 . S
C558 H548 0.950 . S
C558 C559 1.386 . S
C558 C560 1.391 . S
C559 C558 1.386 . S
C559 C563 1.393 . S
C560 H549 0.950 . S
C560 C558 1.391 . S
C560 C561 1.400 . S
C561 C555 1.491 . S
C561 C560 1.400 . S
C561 C562 1.398 . S
C562 H550 0.950 . S
C562 C561 1.398 . S
C562 C563 1.391 . S
C563 H551 0.950 . S
C563 C559 1.393 . S
C563 C562 1.391 . S
H564 C572 0.950 . S
H565 C577 0.950 . S
H566 C574 0.950 . S
H567 C576 0.950 . S
H568 C578 0.950 . S
H569 C580 0.950 . S
H570 C582 0.950 . S
H571 C583 0.950 . S
C572 H564 0.950 . S
C572 C573 1.386 . S
C572 C574 1.391 . S
C573 C572 1.386 . S
C573 C577 1.393 . S
C574 H566 0.950 . S
C574 C572 1.391 . S
C574 C575 1.400 . S
C575 C574 1.400 . S
C575 C576 1.398 . S
C575 C581 1.491 . S
C576 H567 0.950 . S
C576 C575 1.398 . S
C576 C577 1.391 . S
C577 H565 0.950 . S
C577 C573 1.393 . S
C577 C576 1.391 . S
C578 H568 0.950 . S
C578 C579 1.386 . S
C578 C580 1.391 . S
C579 C578 1.386 . S
C579 C583 1.393 . S
C580 H569 0.950 . S
C580 C578 1.391 . S
C580 C581 1.400 . S
C581 C575 1.491 . S
C581 C580 1.400 . S
C581 C582 1.398 . S
C582 H570 0.950 . S
C582 C581 1.398 . S
C582 C583 1.391 . S
C583 H571 0.950 . S
C583 C579 1.393 . S
C583 C582 1.391 . S
H584 C592 0.950 . S
H585 C597 0.950 . S
H586 C594 0.950 . S
H587 C596 0.950 . S
H588 C598 0.950 . S
H589 C600 0.950 . S
H590 C602 0.950 . S
H591 C603 0.950 . S
C592 H584 0.950 . S
C592 C593 1.386 . S
C592 C594 1.391 . S
C593 C592 1.386 . S
C593 C597 1.393 . S
C594 H586 0.950 . S
C594 C592 1.391 . S
C594 C595 1.400 . S
C595 C594 1.400 . S
C595 C596 1.398 . S
C595 C601 1.491 . S
C596 H587 0.950 . S
C596 C595 1.398 . S
C596 C597 1.391 . S
C597 H585 0.950 . S
C597 C593 1.393 . S
C597 C596 1.391 . S
C598 H588 0.950 . S
C598 C599 1.386 . S
C598 C600 1.391 . S
C599 C598 1.386 . S
C599 C603 1.393 . S
C600 H589 0.950 . S
C600 C598 1.391 . S
C600 C601 1.400 . S
C601 C595 1.491 . S
C601 C600 1.400 . S
C601 C602 1.398 . S
C602 H590 0.950 . S
C602 C601 1.398 . S
C602 C603 1.391 . S
C603 H591 0.950 . S
C603 C599 1.393 . S
C603 C602 1.391 . S
H604 C612 0.950 . S
H605 C617 0.950 . S
H606 C614 0.950 . S
H607 C616 0.950 . S
H608 C618 0.950 . S
H609 C620 0.950 . S
H610 C622 0.950 . S
H611 C623 0.950 . S
C612 H604 0.950 . S
C612 C613 1.386 . S
C612 C614 1.391 . S
C613 C612 1.386 . S
C613 C617 1.393 . S
C614 H606 0.950 . S
C614 C612 1.391 . S
C614 C615 1.400 . S
C615 C614 1.400 . S
C615 C616 1.398 . S
C615 C621 1.491 . S
C616 H607 0.950 . S
C616 C615 1.398 . S
C616 C617 1.391 . S
C617 H605 0.950 . S
C617 C613 1.393 . S
C617 C616 1.391 . S
C618 H608 0.950 . S
C618 C619 1.386 . S
C618 C620 1.391 . S
C619 C618 1.386 . S
C619 C623 1.393 . S
C620 H609 0.950 . S
C620 C618 1.391 . S
C620 C621 1.400 . S
C621 C615 1.491 . S
C621 C620 1.400 . S
C621 C622 1.398 . S
C622 H610 0.950 . S
C622 C621 1.398 . S
C622 C623 1.391 . S
C623 H611 0.950 . S
C623 C619 1.393 . S
C623 C622 1.391 . S
H624 C632 0.950 . S
H625 C637 0.950 . S
H626 C634 0.950 . S
H627 C636 0.950 . S
H628 C638 0.950 . S
H629 C640 0.950 . S
H630 C642 0.950 . S
H631 C643 0.950 . S
C632 H624 0.950 . S
C632 C633 1.386 . S
C632 C634 1.391 . S
C633 C632 1.386 . S
C633 C637 1.393 . S
C634 H626 0.950 . S
C634 C632 1.391 . S
C634 C635 1.400 . S
C635 C634 1.400 . S
C635 C636 1.398 . S
C635 C641 1.491 . S
C636 H627 0.950 . S
C636 C635 1.398 . S
C636 C637 1.391 . S
C637 H625 0.950 . S
C637 C633 1.393 . S
C637 C636 1.391 . S
C638 H628 0.950 . S
C638 C639 1.386 . S
C638 C640 1.391 . S
C639 C638 1.386 . S
C639 C643 1.393 . S
C640 H629 0.950 . S
C640 C638 1.391 . S
C640 C641 1.400 . S
C641 C635 1.491 . S
C641 C640 1.400 . S
C641 C642 1.398 . S
C642 H630 0.950 . S
C642 C641 1.398 . S
C642 C643 1.391 . S
C643 H631 0.950 . S
C643 C639 1.393 . S
C643 C642 1.391 . S
H644 C652 0.950 . S
H645 C657 0.950 . S
H646 C654 0.950 . S
H647 C656 0.950 . S
H648 C658 0.950 . S
H649 C660 0.950 . S
H650 C662 0.950 . S
H651 C663 0.950 . S
C652 H644 0.950 . S
C652 C653 1.386 . S
C652 C654 1.391 . S
C653 C652 1.386 . S
C653 C657 1.393 . S
C654 H646 0.950 . S
C654 C652 1.391 . S
C654 C655 1.400 . S
C655 C654 1.400 . S
C655 C656 1.398 . S
C655 C661 1.491 . S
C656 H647 0.950 . S
C656 C655 1.398 . S
C656 C657 1.391 . S
C657 H645 0.950 . S
C657 C653 1.393 . S
C657 C656 1.391 . S
C658 H648 0.950 . S
C658 C659 1.386 . S
C658 C660 1.391 . S
C659 C658 1.386 . S
C659 C663 1.393 . S
C660 H649 0.950 . S
C660 C658 1.391 . S
C660 C661 1.400 . S
C661 C655 1.491 . S
C661 C660 1.400 . S
C661 C662 1.398 . S
C662 H650 0.950 . S
C662 C661 1.398 . S
C662 C663 1.391 . S
C663 H651 0.950 . S
C663 C659 1.393 . S
C663 C662 1.391 . S
H664 C672 0.950 . S
H665 C677 0.950 . S
H666 C674 0.950 . S
H667 C676 0.950 . S
H668 C678 0.950 . S
H669 C680 0.950 . S
H670 C682 0.950 . S
H671 C683 0.950 . S
C672 H664 0.950 . S
C672 C673 1.386 . S
C672 C674 1.391 . S
C673 C672 1.386 . S
C673 C677 1.393 . S
C674 H666 0.950 . S
C674 C672 1.391 . S
C674 C675 1.400 . S
C675 C674 1.400 . S
C675 C676 1.398 . S
C675 C681 1.491 . S
C676 H667 0.950 . S
C676 C675 1.398 . S
C676 C677 1.391 . S
C677 H665 0.950 . S
C677 C673 1.393 . S
C677 C676 1.391 . S
C678 H668 0.950 . S
C678 C679 1.386 . S
C678 C680 1.391 . S
C679 C678 1.386 . S
C679 C683 1.393 . S
C680 H669 0.950 . S
C680 C678 1.391 . S
C680 C681 1.400 . S
C681 C675 1.491 . S
C681 C680 1.400 . S
C681 C682 1.398 . S
C682 H670 0.950 . S
C682 C681 1.398 . S
C682 C683 1.391 . S
C683 H671 0.950 . S
C683 C679 1.393 . S
C683 C682 1.391 . S
H684 C692 0.950 . S
H685 C697 0.950 . S
H686 C694 0.950 . S
H687 C696 0.950 . S
H688 C698 0.950 . S
H689 C700 0.950 . S
H690 C702 0.950 . S
H691 C703 0.950 . S
C692 H684 0.950 . S
C692 C693 1.386 . S
C692 C694 1.391 . S
C693 C692 1.386 . S
C693 C697 1.393 . S
C694 H686 0.950 . S
C694 C692 1.391 . S
C694 C695 1.400 . S
C695 C694 1.400 . S
C695 C696 1.398 . S
C695 C701 1.491 . S
C696 H687 0.950 . S
C696 C695 1.398 . S
C696 C697 1.391 . S
C697 H685 0.950 . S
C697 C693 1.393 . S
C697 C696 1.391 . S
C698 H688 0.950 . S
C698 C699 1.386 . S
C698 C700 1.391 . S
C699 C698 1.386 . S
C699 C703 1.393 . S
C700 H689 0.950 . S
C700 C698 1.391 . S
C700 C701 1.400 . S
C701 C695 1.491 . S
C701 C700 1.400 . S
C701 C702 1.398 . S
C702 H690 0.950 . S
C702 C701 1.398 . S
C702 C703 1.391 . S
C703 H691 0.950 . S
C703 C699 1.393 . S
C703 C702 1.391 . S
H704 C712 0.950 . S
H705 C717 0.950 . S
H706 C714 0.950 . S
H707 C716 0.950 . S
H708 C718 0.950 . S
H709 C720 0.950 . S
H710 C722 0.950 . S
H711 C723 0.950 . S
C712 H704 0.950 . S
C712 C713 1.386 . S
C712 C714 1.391 . S
C713 C712 1.386 . S
C713 C717 1.393 . S
C714 H706 0.950 . S
C714 C712 1.391 . S
C714 C715 1.400 . S
C715 C714 1.400 . S
C715 C716 1.398 . S
C715 C721 1.491 1_545 S
C716 H707 0.950 . S
C716 C715 1.398 . S
C716 C717 1.391 . S
C717 H705 0.950 . S
C717 C713 1.393 . S
C717 C716 1.391 . S
C718 H708 0.950 . S
C718 C719 1.386 . S
C718 C720 1.391 . S
C719 C718 1.386 . S
C719 C723 1.393 . S
C720 H709 0.950 . S
C720 C718 1.391 . S
C720 C721 1.400 . S
C721 C715 1.491 1_565 S
C721 C720 1.400 . S
C721 C722 1.398 . S
C722 H710 0.950 . S
C722 C721 1.398 . S
C722 C723 1.391 . S
C723 H711 0.950 . S
C723 C719 1.393 . S
C723 C722 1.391 . S
H724 C732 0.950 . S
H725 C737 0.950 . S
H726 C734 0.950 . S
H727 C736 0.950 . S
H728 C738 0.950 . S
H729 C740 0.950 . S
H730 C742 0.950 . S
H731 C743 0.950 . S
C732 H724 0.950 . S
C732 C733 1.386 . S
C732 C734 1.391 . S
C733 C732 1.386 . S
C733 C737 1.393 1_545 S
C734 H726 0.950 . S
C734 C732 1.391 . S
C734 C735 1.400 . S
C735 C734 1.400 . S
C735 C736 1.398 1_545 S
C735 C741 1.491 1_545 S
C736 H727 0.950 . S
C736 C735 1.398 1_565 S
C736 C737 1.391 . S
C737 H725 0.950 . S
C737 C733 1.393 1_565 S
C737 C736 1.391 . S
C738 H728 0.950 . S
C738 C739 1.386 . S
C738 C740 1.391 . S
C739 C738 1.386 . S
C739 C743 1.393 1_565 S
C740 H729 0.950 . S
C740 C738 1.391 . S
C740 C741 1.400 . S
C741 C735 1.491 1_565 S
C741 C740 1.400 . S
C741 C742 1.398 1_565 S
C742 H730 0.950 . S
C742 C741 1.398 1_545 S
C742 C743 1.391 . S
C743 H731 0.950 . S
C743 C739 1.393 1_545 S
C743 C742 1.391 . S
H744 C752 0.950 . S
H745 C757 0.950 . S
H746 C754 0.950 . S
H747 C756 0.950 . S
H748 C758 0.950 . S
H749 C760 0.950 . S
H750 C762 0.950 . S
H751 C763 0.950 . S
C752 H744 0.950 . S
C752 C753 1.386 1_565 S
C752 C754 1.391 . S
C753 C752 1.386 1_545 S
C753 C757 1.393 . S
C754 H746 0.950 . S
C754 C752 1.391 . S
C754 C755 1.400 1_565 S
C755 C754 1.400 1_545 S
C755 C756 1.398 . S
C755 C761 1.491 1_545 S
C756 H747 0.950 . S
C756 C755 1.398 . S
C756 C757 1.391 . S
C757 H745 0.950 . S
C757 C753 1.393 . S
C757 C756 1.391 . S
C758 H748 0.950 . S
C758 C759 1.386 1_545 S
C758 C760 1.391 . S
C759 C758 1.386 1_565 S
C759 C763 1.393 . S
C760 H749 0.950 . S
C760 C758 1.391 . S
C760 C761 1.400 1_545 S
C761 C755 1.491 1_565 S
C761 C760 1.400 1_565 S
C761 C762 1.398 . S
C762 H750 0.950 . S
C762 C761 1.398 . S
C762 C763 1.391 . S
C763 H751 0.950 . S
C763 C759 1.393 . S
C763 C762 1.391 . S
H764 C772 0.950 . S
H765 C777 0.950 . S
H766 C774 0.950 . S
H767 C776 0.950 . S
H768 C778 0.950 . S
H769 C780 0.950 . S
H770 C782 0.950 . S
H771 C783 0.950 . S
C772 H764 0.950 . S
C772 C773 1.386 1_545 S
C772 C774 1.391 . S
C773 C772 1.386 1_565 S
C773 C777 1.393 . S
C774 H766 0.950 . S
C774 C772 1.391 . S
C774 C775 1.400 1_545 S
C775 C774 1.400 1_565 S
C775 C776 1.398 . S
C775 C781 1.491 1_565 S
C776 H767 0.950 . S
C776 C775 1.398 . S
C776 C777 1.391 . S
C777 H765 0.950 . S
C777 C773 1.393 . S
C777 C776 1.391 . S
C778 H768 0.950 . S
C778 C779 1.386 1_565 S
C778 C780 1.391 . S
C779 C778 1.386 1_545 S
C779 C783 1.393 . S
C780 H769 0.950 . S
C780 C778 1.391 . S
C780 C781 1.400 1_565 S
C781 C775 1.491 1_545 S
C781 C780 1.400 1_545 S
C781 C782 1.398 . S
C782 H770 0.950 . S
C782 C781 1.398 . S
C782 C783 1.391 . S
C783 H771 0.950 . S
C783 C779 1.393 . S
C783 C782 1.391 . S
H784 C792 0.950 . S
H785 C797 0.950 . S
H786 C794 0.950 . S
H787 C796 0.950 . S
H788 C798 0.950 . S
H789 C800 0.950 . S
H790 C802 0.950 . S
H791 C803 0.950 . S
C792 H784 0.950 . S
C792 C793 1.386 . S
C792 C794 1.391 . S
C793 C792 1.386 . S
C793 C797 1.393 . S
C794 H786 0.950 . S
C794 C792 1.391 . S
C794 C795 1.400 . S
C795 C794 1.400 . S
C795 C796 1.398 . S
C795 C801 1.491 . S
C796 H787 0.950 . S
C796 C795 1.398 . S
C796 C797 1.391 . S
C797 H785 0.950 . S
C797 C793 1.393 . S
C797 C796 1.391 . S
C798 H788 0.950 . S
C798 C799 1.386 . S
C798 C800 1.391 . S
C799 C798 1.386 . S
C799 C803 1.393 . S
C800 H789 0.950 . S
C800 C798 1.391 . S
C800 C801 1.400 . S
C801 C795 1.491 . S
C801 C800 1.400 . S
C801 C802 1.398 . S
C802 H790 0.950 . S
C802 C801 1.398 . S
C802 C803 1.391 . S
C803 H791 0.950 . S
C803 C799 1.393 . S
C803 C802 1.391 . S
H804 C812 0.950 . S
H805 C817 0.950 . S
H806 C814 0.950 . S
H807 C816 0.950 . S
H808 C818 0.950 . S
H809 C820 0.950 . S
H810 C822 0.950 . S
H811 C823 0.950 . S
C812 H804 0.950 . S
C812 C813 1.386 . S
C812 C814 1.391 . S
C813 C812 1.386 . S
C813 C817 1.393 . S
C814 H806 0.950 . S
C814 C812 1.391 . S
C814 C815 1.400 . S
C815 C814 1.400 . S
C815 C816 1.398 . S
C815 C821 1.491 . S
C816 H807 0.950 . S
C816 C815 1.398 . S
C816 C817 1.391 . S
C817 H805 0.950 . S
C817 C813 1.393 . S
C817 C816 1.391 . S
C818 H808 0.950 . S
C818 C819 1.386 . S
C818 C820 1.391 . S
C819 C818 1.386 . S
C819 C823 1.393 . S
C820 H809 0.950 . S
C820 C818 1.391 . S
C820 C821 1.400 . S
C821 C815 1.491 . S
C821 C820 1.400 . S
C821 C822 1.398 . S
C822 H810 0.950 . S
C822 C821 1.398 . S
C822 C823 1.391 . S
C823 H811 0.950 . S
C823 C819 1.393 . S
C823 C822 1.391 . S
H824 C832 0.950 . S
H825 C837 0.950 . S
H826 C834 0.950 . S
H827 C836 0.950 . S
H828 C838 0.950 . S
H829 C840 0.950 . S
H830 C842 0.950 . S
H831 C843 0.950 . S
C832 H824 0.950 . S
C832 C833 1.386 . S
C832 C834 1.391 . S
C833 C832 1.386 . S
C833 C837 1.393 . S
C834 H826 0.950 . S
C834 C832 1.391 . S
C834 C835 1.400 . S
C835 C834 1.400 . S
C835 C836 1.398 . S
C835 C841 1.491 . S
C836 H827 0.950 . S
C836 C835 1.398 . S
C836 C837 1.391 . S
C837 H825 0.950 . S
C837 C833 1.393 . S
C837 C836 1.391 . S
C838 H828 0.950 . S
C838 C839 1.386 . S
C838 C840 1.391 . S
C839 C838 1.386 . S
C839 C843 1.393 . S
C840 H829 0.950 . S
C840 C838 1.391 . S
C840 C841 1.400 . S
C841 C835 1.491 . S
C841 C840 1.400 . S
C841 C842 1.398 . S
C842 H830 0.950 . S
C842 C841 1.398 . S
C842 C843 1.391 . S
C843 H831 0.950 . S
C843 C839 1.393 . S
C843 C842 1.391 . S
H844 C852 0.950 . S
H845 C857 0.950 . S
H846 C854 0.950 . S
H847 C856 0.950 . S
H848 C858 0.950 . S
H849 C860 0.950 . S
H850 C862 0.950 . S
H851 C863 0.950 . S
C852 H844 0.950 . S
C852 C853 1.386 . S
C852 C854 1.391 . S
C853 C852 1.386 . S
C853 C857 1.393 . S
C854 H846 0.950 . S
C854 C852 1.391 . S
C854 C855 1.400 . S
C855 C854 1.400 . S
C855 C856 1.398 . S
C855 C861 1.491 . S
C856 H847 0.950 . S
C856 C855 1.398 . S
C856 C857 1.391 . S
C857 H845 0.950 . S
C857 C853 1.393 . S
C857 C856 1.391 . S
C858 H848 0.950 . S
C858 C859 1.386 . S
C858 C860 1.391 . S
C859 C858 1.386 . S
C859 C863 1.393 . S
C860 H849 0.950 . S
C860 C858 1.391 . S
C860 C861 1.400 . S
C861 C855 1.491 . S
C861 C860 1.400 . S
C861 C862 1.398 . S
C862 H850 0.950 . S
C862 C861 1.398 . S
C862 C863 1.391 . S
C863 H851 0.950 . S
C863 C859 1.393 . S
C863 C862 1.391 . S
C233 C8 1.209 . S
C239 C78 1.187 . S
C253 C64 1.191 . S
C259 C22 1.205 . S
C273 C36 1.182 . S
C279 C106 1.214 . S
C293 C92 1.211 . S
C299 C50 1.185 . S
C313 C190 1.199 . S
C319 C120 1.197 . S
C333 C176 1.183 . S
C339 C134 1.213 . S
C353 C218 1.211 . S
C359 C148 1.185 . S
C373 C162 1.183 . S
C379 C204 1.213 . S
C393 C23 1.503 . S
C399 C9 1.512 . S
C413 C37 1.508 . S
C419 C51 1.501 . S
C433 C65 1.518 . S
C439 C79 1.511 . S
C453 C93 1.501 . S
C459 C107 1.509 . S
C473 C121 1.505 . S
C479 C135 1.514 . S
C493 C163 1.516 . S
C499 C149 1.518 . S
C513 C191 1.501 . S
C519 C177 1.509 . S
C533 C205 1.504 . S
C539 C219 1.513 . S
C553 C132 1.545 . S
C559 C6 1.548 . S
C573 C20 1.529 . S
C579 C118 1.530 . S
C593 C160 1.543 . S
C599 C34 1.548 . S
C613 C48 1.548 . S
C619 C146 1.546 . S
C633 C62 1.530 . S
C639 C188 1.530 . S
C653 C174 1.548 . S
C659 C76 1.542 . S
C673 C90 1.532 . S
C679 C216 1.538 . S
C693 C202 1.540 . S
C699 C104 1.546 . S
C713 C7 1.409 . S
C719 C35 1.411 . S
C733 C49 1.404 . S
C739 C21 1.409 . S
C753 C91 1.404 . S
C759 C63 1.412 . S
C773 C105 1.405 . S
C779 C77 1.412 . S
C793 C147 1.406 . S
C799 C119 1.412 . S
C813 C133 1.405 . S
C819 C161 1.412 . S
C833 C203 1.410 . S
C839 C175 1.410 . S
C853 C189 1.411 . S
C859 C217 1.404 . S
