# Generated by pormake.
# Topology pbz, (3)-cn, num edge types: 1
# Building blocks:
#     Node 0, Type 0, BuildingBlock: WUSLED_clean_sbu_0, # of connection points: 3
#     Node 1, Type 0, BuildingBlock: WUSLED_clean_sbu_0, # of connection points: 3
#     Node 2, Type 0, BuildingBlock: WUSLED_clean_sbu_0, # of connection points: 3
#     Node 3, Type 0, BuildingBlock: WUSLED_clean_sbu_0, # of connection points: 3
#     Node 4, Type 0, BuildingBlock: WUSLED_clean_sbu_0, # of connection points: 3
#     Node 5, Type 0, BuildingBlock: WUSLED_clean_sbu_0, # of connection points: 3
#     Node 6, Type 0, BuildingBlock: WUSLED_clean_sbu_0, # of connection points: 3
#     Node 7, Type 0, BuildingBlock: WUSLED_clean_sbu_0, # of connection points: 3
#     Node 8, Type 0, BuildingBlock: WUSLED_clean_sbu_0, # of connection points: 3
#     Node 9, Type 0, BuildingBlock: WUSLED_clean_sbu_0, # of connection points: 3
#     Node 10, Type 0, BuildingBlock: WUSLED_clean_sbu_0, # of connection points: 3
#     Node 11, Type 0, BuildingBlock: WUSLED_clean_sbu_0, # of connection points: 3
#     Node 12, Type 0, BuildingBlock: WUSLED_clean_sbu_0, # of connection points: 3
#     Node 13, Type 0, BuildingBlock: WUSLED_clean_sbu_0, # of connection points: 3
#     Node 14, Type 0, BuildingBlock: WUSLED_clean_sbu_0, # of connection points: 3
#     Node 15, Type 0, BuildingBlock: WUSLED_clean_sbu_0, # of connection points: 3
#     Node 16, Type 0, BuildingBlock: WUSLED_clean_sbu_0, # of connection points: 3
#     Node 17, Type 0, BuildingBlock: WUSLED_clean_sbu_0, # of connection points: 3
#     Node 18, Type 0, BuildingBlock: WUSLED_clean_sbu_0, # of connection points: 3
#     Node 19, Type 0, BuildingBlock: WUSLED_clean_sbu_0, # of connection points: 3
#     Node 20, Type 0, BuildingBlock: WUSLED_clean_sbu_0, # of connection points: 3
#     Node 21, Type 0, BuildingBlock: WUSLED_clean_sbu_0, # of connection points: 3
#     Node 22, Type 0, BuildingBlock: WUSLED_clean_sbu_0, # of connection points: 3
#     Node 23, Type 0, BuildingBlock: WUSLED_clean_sbu_0, # of connection points: 3
#     Edge 24, Type (0, 0), BuildingBlock: OJICUG_clean_linker_0, # of connection points: 2
#     Edge 25, Type (0, 0), BuildingBlock: OJICUG_clean_linker_0, # of connection points: 2
#     Edge 26, Type (0, 0), BuildingBlock: OJICUG_clean_linker_0, # of connection points: 2
#     Edge 27, Type (0, 0), BuildingBlock: OJICUG_clean_linker_0, # of connection points: 2
#     Edge 28, Type (0, 0), BuildingBlock: OJICUG_clean_linker_0, # of connection points: 2
#     Edge 29, Type (0, 0), BuildingBlock: OJICUG_clean_linker_0, # of connection points: 2
#     Edge 30, Type (0, 0), BuildingBlock: OJICUG_clean_linker_0, # of connection points: 2
#     Edge 31, Type (0, 0), BuildingBlock: OJICUG_clean_linker_0, # of connection points: 2
#     Edge 32, Type (0, 0), BuildingBlock: OJICUG_clean_linker_0, # of connection points: 2
#     Edge 33, Type (0, 0), BuildingBlock: OJICUG_clean_linker_0, # of connection points: 2
#     Edge 34, Type (0, 0), BuildingBlock: OJICUG_clean_linker_0, # of connection points: 2
#     Edge 35, Type (0, 0), BuildingBlock: OJICUG_clean_linker_0, # of connection points: 2
#     Edge 36, Type (0, 0), BuildingBlock: OJICUG_clean_linker_0, # of connection points: 2
#     Edge 37, Type (0, 0), BuildingBlock: OJICUG_clean_linker_0, # of connection points: 2
#     Edge 38, Type (0, 0), BuildingBlock: OJICUG_clean_linker_0, # of connection points: 2
#     Edge 39, Type (0, 0), BuildingBlock: OJICUG_clean_linker_0, # of connection points: 2
#     Edge 40, Type (0, 0), BuildingBlock: OJICUG_clean_linker_0, # of connection points: 2
#     Edge 41, Type (0, 0), BuildingBlock: OJICUG_clean_linker_0, # of connection points: 2
#     Edge 42, Type (0, 0), BuildingBlock: OJICUG_clean_linker_0, # of connection points: 2
#     Edge 43, Type (0, 0), BuildingBlock: OJICUG_clean_linker_0, # of connection points: 2
#     Edge 44, Type (0, 0), BuildingBlock: OJICUG_clean_linker_0, # of connection points: 2
#     Edge 45, Type (0, 0), BuildingBlock: OJICUG_clean_linker_0, # of connection points: 2
#     Edge 46, Type (0, 0), BuildingBlock: OJICUG_clean_linker_0, # of connection points: 2
#     Edge 47, Type (0, 0), BuildingBlock: OJICUG_clean_linker_0, # of connection points: 2
#     Edge 48, Type (0, 0), BuildingBlock: OJICUG_clean_linker_0, # of connection points: 2
#     Edge 49, Type (0, 0), BuildingBlock: OJICUG_clean_linker_0, # of connection points: 2
#     Edge 50, Type (0, 0), BuildingBlock: OJICUG_clean_linker_0, # of connection points: 2
#     Edge 51, Type (0, 0), BuildingBlock: OJICUG_clean_linker_0, # of connection points: 2
#     Edge 52, Type (0, 0), BuildingBlock: OJICUG_clean_linker_0, # of connection points: 2
#     Edge 53, Type (0, 0), BuildingBlock: OJICUG_clean_linker_0, # of connection points: 2
#     Edge 54, Type (0, 0), BuildingBlock: OJICUG_clean_linker_0, # of connection points: 2
#     Edge 55, Type (0, 0), BuildingBlock: OJICUG_clean_linker_0, # of connection points: 2
#     Edge 56, Type (0, 0), BuildingBlock: OJICUG_clean_linker_0, # of connection points: 2
#     Edge 57, Type (0, 0), BuildingBlock: OJICUG_clean_linker_0, # of connection points: 2
#     Edge 58, Type (0, 0), BuildingBlock: OJICUG_clean_linker_0, # of connection points: 2
#     Edge 59, Type (0, 0), BuildingBlock: OJICUG_clean_linker_0, # of connection points: 2
# Relax obj value: 0.000
# Max RMSD: 0.013
# Mean RMSD: 0.008
data_MOF--net-pbz--node1-WUSLED_clean_sbu_0--edge1-OJICUG_clean_linker_0
_symmetry_space_group_name_H-M    P1
_symmetry_Int_Tables_number       1
_symmetry_cell_setting            triclinic
loop_
_symmetry_equiv_pos_as_xyz
'x, y, z'
_cell_length_a     81.236381
_cell_length_b     81.503872
_cell_length_c     81.53261
_cell_angle_alpha  89.565389
_cell_angle_beta   90.054576
_cell_angle_gamma 90.07599
loop_
_atom_site_label
_atom_site_type_symbol
_atom_site_fract_x
_atom_site_fract_y
_atom_site_fract_z
_atom_type_partial_charge
C0 C 1.00685 0.22464 0.72327 0.0
C1 C 0.01981 0.23613 0.7236 0.0
C2 C 1.01031 0.24679 0.74996 0.0
C3 C 0.02153 0.24703 0.73677 0.0
C4 C 0.99756 0.23507 0.74972 0.0
C5 C 0.99583 0.22422 0.73656 0.0
U6 U 1.01451 0.18865 0.6925 0.0
O7 O 0.996 0.17252 0.68104 0.0
O8 O 1.01123 0.18865 0.66565 0.0
C9 C 0.99885 0.17823 0.66618 0.0
C10 C 1.00346 0.21437 0.70856 0.0
C11 C 0.98422 0.18175 0.65567 0.0
C12 C 0.97023 0.19788 0.63446 0.0
C13 C 0.98327 0.19584 0.64562 0.0
C14 C 0.95865 0.17196 0.6433 0.0
C15 C 0.95781 0.18588 0.63299 0.0
C16 C 0.97168 0.16992 0.65441 0.0
C17 C 0.05173 0.15868 0.69922 0.0
C18 C 0.06204 0.13152 0.70693 0.0
C19 C 0.07577 0.14701 0.68556 0.0
C20 C 0.06437 0.1598 0.68745 0.0
C21 C 0.07493 0.13277 0.69544 0.0
C22 C 0.05067 0.1443 0.70883 0.0
C23 C 0.04097 0.17301 0.703 0.0
O24 O 1.01372 0.21543 0.69613 0.0
O25 O 0.99821 0.19931 0.71123 0.0
O26 O 0.02603 0.16984 0.70835 0.0
O27 O 0.04149 0.18573 0.69297 0.0
H28 H 0.02846 0.23697 0.71353 0.0
H29 H 0.03162 0.25572 0.73657 0.0
H30 H 0.9885 0.23462 0.75945 0.0
H31 H 0.98553 0.21577 0.73658 0.0
H32 H 0.96993 0.20887 0.62692 0.0
H33 H 0.99275 0.20518 0.64614 0.0
H34 H 0.94951 0.16233 0.64243 0.0
H35 H 0.97218 0.1588 0.66176 0.0
H36 H 0.06108 0.12091 0.71495 0.0
H37 H 0.08537 0.14838 0.67644 0.0
H38 H 0.06574 0.17073 0.67994 0.0
H39 H 0.04133 0.14312 0.71823 0.0
C40 C 0.81344 0.51365 0.22303 0.0
C41 C 0.80041 0.52502 0.22224 0.0
C42 C 0.79092 0.5169 0.24961 0.0
C43 C 0.78935 0.52665 0.23535 0.0
C44 C 0.80415 0.50578 0.25051 0.0
C45 C 0.81519 0.50414 0.2374 0.0
U46 U 0.85021 0.52094 0.19266 0.0
O47 O 0.86594 0.50246 0.18085 0.0
O48 O 0.85038 0.51848 0.1657 0.0
C49 C 0.86046 0.50586 0.16602 0.0
C50 C 0.82389 0.5102 0.20839 0.0
C51 C 0.85652 0.49182 0.15504 0.0
C52 C 0.85782 0.46261 0.14851 0.0
C53 C 0.85952 0.47544 0.15979 0.0
C54 C 0.84972 0.48211 0.12756 0.0
C55 C 0.85311 0.46577 0.13214 0.0
C56 C 0.85146 0.49493 0.13881 0.0
C57 C 0.88094 0.55727 0.20015 0.0
C58 C 0.89499 0.57833 0.18386 0.0
C59 C 0.90638 0.56987 0.20997 0.0
C60 C 0.89338 0.55872 0.21206 0.0
C61 C 0.90729 0.58001 0.19594 0.0
C62 C 0.88198 0.56712 0.18593 0.0
C63 C 0.86636 0.54671 0.20369 0.0
O64 O 0.82328 0.52068 0.19605 0.0
O65 O 0.83881 0.50454 0.21108 0.0
O66 O 0.86925 0.53162 0.20874 0.0
O67 O 0.85371 0.54772 0.19364 0.0
H68 H 0.7985 0.53243 0.21132 0.0
H69 H 0.77947 0.53549 0.23424 0.0
H70 H 0.80567 0.49786 0.26113 0.0
H71 H 0.82483 0.49501 0.23835 0.0
H72 H 0.86034 0.45019 0.1526 0.0
H73 H 0.86358 0.47253 0.17213 0.0
H74 H 0.84631 0.48514 0.11505 0.0
H75 H 0.84933 0.5074 0.13465 0.0
H76 H 0.89536 0.58572 0.17278 0.0
H77 H 0.91544 0.57091 0.21966 0.0
H78 H 0.89281 0.55149 0.22325 0.0
H79 H 0.87259 0.56642 0.17652 0.0
C80 C 0.48792 0.39375 0.68578 0.0
C81 C 0.472 0.38767 0.68885 0.0
C82 C 0.46094 0.41562 0.68974 0.0
C83 C 0.45868 0.39848 0.69083 0.0
C84 C 0.47699 0.4216 0.687 0.0
C85 C 0.49026 0.41081 0.68502 0.0
U86 U 0.5168 0.35603 0.69311 0.0
O87 O 0.52819 0.33996 0.67472 0.0
O88 O 0.54385 0.35491 0.69066 0.0
C89 C 0.54324 0.34475 0.67824 0.0
C90 C 0.50208 0.3828 0.68217 0.0
C91 C 0.55448 0.34822 0.66428 0.0
C92 C 0.55978 0.35614 0.63583 0.0
C93 C 0.54882 0.35413 0.64904 0.0
C94 C 0.5822 0.34663 0.65293 0.0
C95 C 0.57662 0.35225 0.63753 0.0
C96 C 0.57128 0.34463 0.66608 0.0
C97 C 0.50867 0.32613 0.73007 0.0
C98 C 0.50864 0.29655 0.73522 0.0
C99 C 0.51278 0.3152 0.75776 0.0
C100 C 0.51154 0.32855 0.74688 0.0
C101 C 0.51107 0.29899 0.75215 0.0
C102 C 0.50744 0.30993 0.72432 0.0
C103 C 0.50535 0.34059 0.71927 0.0
O104 O 0.51444 0.38304 0.69258 0.0
O105 O 0.49872 0.36798 0.6768 0.0
O106 O 0.50011 0.33779 0.70428 0.0
O107 O 0.51582 0.35288 0.72002 0.0
H108 H 0.46977 0.37458 0.68945 0.0
H109 H 0.44653 0.39335 0.69277 0.0
H110 H 0.47935 0.43467 0.68638 0.0
H111 H 0.50238 0.41584 0.68263 0.0
H112 H 0.55496 0.36039 0.62416 0.0
H113 H 0.53591 0.35696 0.64728 0.0
H114 H 0.59508 0.34379 0.65488 0.0
H115 H 0.57596 0.34005 0.6777 0.0
H116 H 0.50749 0.28427 0.73037 0.0
H117 H 0.51445 0.31763 0.7707 0.0
H118 H 0.51233 0.34087 0.75174 0.0
H119 H 0.50519 0.30755 0.71146 0.0
C120 C 0.67563 0.0511 0.15421 0.0
C121 C 0.67506 0.06743 0.1597 0.0
C122 C 0.67959 0.07779 0.13178 0.0
C123 C 0.67705 0.08058 0.14864 0.0
C124 C 0.68052 0.06142 0.12643 0.0
C125 C 0.67853 0.0483 0.13747 0.0
U126 U 0.68201 0.02157 0.19185 0.0
O127 O 0.66306 1.01067 0.20803 0.0
O128 O 0.67854 0.99477 0.19293 0.0
C129 C 0.66596 0.99565 0.20303 0.0
C130 C 0.67165 0.03693 0.16518 0.0
C131 C 0.65138 0.98513 0.19954 0.0
C132 C 0.63659 0.96544 0.18252 0.0
C133 C 0.64959 0.97661 0.1847 0.0
C134 C 0.62671 0.97133 0.2098 0.0
C135 C 0.62504 0.9625 0.19512 0.0
C136 C 0.6397 0.98244 0.21198 0.0
C137 C 0.71909 0.02852 0.22196 0.0
C138 C 0.727 0.03411 0.25033 0.0
C139 C 0.74493 0.01795 0.23323 0.0
C140 C 0.73375 0.01952 0.22018 0.0
C141 C 0.74186 0.02544 0.24844 0.0
C142 C 0.71582 0.03569 0.23727 0.0
C143 C 0.70845 0.03213 0.20741 0.0
O144 O 0.68172 0.02432 0.16487 0.0
O145 O 0.66623 0.04016 0.18001 0.0
O146 O 0.69353 0.03773 0.21016 0.0
O147 O 0.70897 0.02179 0.19511 0.0
H148 H 0.6727 0.07009 0.17248 0.0
H149 H 0.67607 0.09296 0.15325 0.0
H150 H 0.68273 0.05871 0.11364 0.0
H151 H 0.6789 0.03589 0.13283 0.0
H152 H 0.63562 0.95907 0.17095 0.0
H153 H 0.65838 0.97833 0.17485 0.0
H154 H 0.61825 0.9693 0.21988 0.0
H155 H 0.64087 0.98866 0.22362 0.0
H156 H 0.72425 0.04026 0.26173 0.0
H157 H 0.7561 1.01099 0.23132 0.0
H158 H 0.73684 1.01402 0.20853 0.0
H159 H 0.70484 0.04298 0.23906 0.0
C160 C 1.00858 0.31772 0.82906 0.0
C161 C 1.00385 0.32202 0.81297 0.0
C162 C 1.01166 0.2949 0.80291 0.0
C163 C 1.00542 0.3108 0.80008 0.0
C164 C 0.01679 0.29079 0.81893 0.0
C165 C 1.01521 0.302 0.8318 0.0
U166 U 1.01531 0.355 0.85856 0.0
O167 O 0.99648 0.37112 0.86943 0.0
O168 O 1.01195 0.35578 0.88536 0.0
C169 C 0.99941 0.36595 0.88446 0.0
C170 C 1.0048 0.32854 0.84328 0.0
C171 C 0.98483 0.36247 0.89502 0.0
C172 C 0.97037 0.34583 0.91551 0.0
C173 C 0.98338 0.34792 0.90433 0.0
C174 C 0.95984 0.37261 0.90812 0.0
C175 C 0.95849 0.35822 0.9177 0.0
C176 C 0.97284 0.3747 0.89699 0.0
C177 C 0.05213 0.38525 0.85116 0.0
C178 C 0.07141 0.40035 0.86846 0.0
C179 C 0.0663 0.40961 0.84068 0.0
C180 C 0.05521 0.39661 0.83848 0.0
C181 C 0.07473 0.41159 0.85564 0.0
C182 C 0.06026 0.38735 0.86626 0.0
C183 C 0.04162 0.37069 0.84773 0.0
O184 O 1.01496 0.32806 0.85584 0.0
O185 O 0.99935 0.34342 0.84008 0.0
O186 O 0.02667 0.37355 0.84222 0.0
O187 O 0.04223 0.35832 0.85818 0.0
H188 H 0.99845 0.3339 0.81038 0.0
H189 H 1.00113 0.31441 0.78801 0.0
H190 H 0.02187 0.27879 0.8216 0.0
H191 H 0.01878 0.29816 0.84405 0.0
H192 H 0.96965 0.33449 0.92247 0.0
H193 H 0.99242 0.33825 0.9032 0.0
H194 H 0.95113 0.38254 0.90957 0.0
H195 H 0.97374 0.38614 0.89019 0.0
H196 H 0.07745 0.40157 0.88023 0.0
H197 H 0.06864 0.41781 0.83044 0.0
H198 H 0.0493 0.39521 0.82666 0.0
H199 H 0.05823 0.37881 0.8763 0.0
C200 C 0.67613 0.4918 0.39666 0.0
C201 C 0.67514 0.47547 0.39124 0.0
C202 C 0.68009 0.46513 0.41909 0.0
C203 C 0.67713 0.46232 0.4023 0.0
C204 C 0.68144 0.48149 0.42437 0.0
C205 C 0.67944 0.49461 0.41332 0.0
U206 U 0.68247 0.5214 0.35907 0.0
O207 O 0.6635 0.53228 0.34289 0.0
O208 O 0.67901 0.54819 0.35801 0.0
C209 C 0.66641 0.54729 0.34792 0.0
C210 C 0.67213 0.50599 0.38571 0.0
C211 C 0.65183 0.55775 0.35145 0.0
C212 C 0.63703 0.57729 0.36857 0.0
C213 C 0.65006 0.5662 0.36634 0.0
C214 C 0.6271 0.57148 0.34126 0.0
C215 C 0.62545 0.58023 0.356 0.0
C216 C 0.64012 0.56044 0.33903 0.0
C217 C 0.71954 0.51452 0.32902 0.0
C218 C 0.72729 0.50916 0.30057 0.0
C219 C 0.74557 0.52479 0.31788 0.0
C220 C 0.73438 0.52324 0.33091 0.0
C221 C 0.74232 0.51756 0.30257 0.0
C222 C 0.7161 0.50761 0.31361 0.0
C223 C 0.70889 0.5109 0.34353 0.0
O224 O 0.68221 0.51862 0.38604 0.0
O225 O 0.66668 0.50277 0.37087 0.0
O226 O 0.69396 0.50528 0.34075 0.0
O227 O 0.70943 0.52124 0.35584 0.0
H228 H 0.67243 0.4728 0.37853 0.0
H229 H 0.67582 0.44994 0.39776 0.0
H230 H 0.68398 0.48421 0.43711 0.0
H231 H 0.68014 0.50703 0.41792 0.0
H232 H 0.63607 0.58359 0.38017 0.0
H233 H 0.65887 0.56446 0.37617 0.0
H234 H 0.61862 0.57351 0.3312 0.0
H235 H 0.64127 0.55428 0.32736 0.0
H236 H 0.7244 0.50322 0.28909 0.0
H237 H 0.75687 0.53154 0.31989 0.0
H238 H 0.7376 0.52853 0.34263 0.0
H239 H 0.70498 0.50053 0.31172 0.0
C240 C 0.48607 0.15061 0.86597 0.0
C241 C 0.46961 0.15593 0.86685 0.0
C242 C 0.45959 0.12805 0.86188 0.0
C243 C 0.45656 0.1448 0.86481 0.0
C244 C 0.47607 0.12286 0.86067 0.0
C245 C 0.4891 0.13397 0.86273 0.0
U246 U 0.51452 0.18883 0.8594 0.0
O247 O 0.52522 0.20514 0.87813 0.0
O248 O 0.54142 0.19064 0.86238 0.0
C249 C 0.5404 0.20055 0.875 0.0
C250 C 0.50015 0.16166 0.86986 0.0
C251 C 0.55119 0.19709 0.8894 0.0
C252 C 0.57161 0.18035 0.90383 0.0
C253 C 0.56034 0.1825 0.8909 0.0
C254 C 0.5646 0.20715 0.9142 0.0
C255 C 0.57402 0.19271 0.91561 0.0
C256 C 0.5534 0.20931 0.90128 0.0
C257 C 0.50481 0.21881 0.82275 0.0
C258 C 0.52199 0.23808 0.80733 0.0
C259 C 0.49237 0.23914 0.80451 0.0
C260 C 0.49084 0.22615 0.81573 0.0
C261 C 0.50796 0.24519 0.79995 0.0
C262 C 0.52044 0.22499 0.81858 0.0
C263 C 0.50249 0.20417 0.83345 0.0
O264 O 0.5126 0.16177 0.85955 0.0
O265 O 0.49668 0.17632 0.87553 0.0
O266 O 0.49728 0.20677 0.84846 0.0
O267 O 0.51363 0.19252 0.83262 0.0
H268 H 0.46677 0.16861 0.86947 0.0
H269 H 0.44408 0.14928 0.86602 0.0
H270 H 0.47896 0.11016 0.85816 0.0
H271 H 0.50162 0.12946 0.8621 0.0
H272 H 0.57844 0.16897 0.90459 0.0
H273 H 0.55901 0.17283 0.88195 0.0
H274 H 0.56622 0.21705 0.92284 0.0
H275 H 0.54669 0.22076 0.90035 0.0
H276 H 0.5342 0.24234 0.80408 0.0
H277 H 0.48127 0.24446 0.79939 0.0
H278 H 0.47865 0.22162 0.81874 0.0
H279 H 0.53143 0.21953 0.82378 0.0
C280 C 0.81314 0.02941 0.32797 0.0
C281 C 0.7999 0.01826 0.32894 0.0
C282 C 0.79053 0.02606 0.30142 0.0
C283 C 0.7888 0.01658 0.31584 0.0
C284 C 0.80397 0.03696 0.30035 0.0
C285 C 0.81504 0.03865 0.31344 0.0
U286 U 0.84996 0.02233 0.3584 0.0
O287 O 0.86589 0.04097 0.36984 0.0
O288 O 0.85031 0.02524 0.38527 0.0
C289 C 0.86045 0.03784 0.38473 0.0
C290 C 0.82364 0.03295 0.34258 0.0
C291 C 0.85672 0.0522 0.39538 0.0
C292 C 0.86476 0.07913 0.40573 0.0
C293 C 0.86661 0.06636 0.39444 0.0
C294 C 0.8429 0.06405 0.41915 0.0
C295 C 0.85305 0.07808 0.41843 0.0
C296 C 0.84473 0.05128 0.40782 0.0
C297 C 0.88055 0.98588 0.3512 0.0
C298 C 0.89436 0.96444 0.36718 0.0
C299 C 0.90622 0.9737 0.34156 0.0
C300 C 0.89322 0.98483 0.33952 0.0
C301 C 0.9069 0.96317 0.35532 0.0
C302 C 0.88135 0.97562 0.36515 0.0
C303 C 0.86595 0.9964 0.34764 0.0
O304 O 0.82301 0.02261 0.35503 0.0
O305 O 0.83859 0.03854 0.33981 0.0
O306 O 0.86884 1.01142 0.34237 0.0
O307 O 0.85339 0.99552 0.35778 0.0
H308 H 0.79786 1.01107 0.33998 0.0
H309 H 0.77876 1.00791 0.31709 0.0
H310 H 0.80562 0.04467 0.28961 0.0
H311 H 0.82485 0.04761 0.31235 0.0
H312 H 0.873 0.08956 0.40487 0.0
H313 H 0.87618 0.06738 0.38525 0.0
H314 H 0.8336 0.06284 0.42859 0.0
H315 H 0.837 0.04052 0.4091 0.0
H316 H 0.89454 0.95673 0.37805 0.0
H317 H 0.91547 0.97298 0.33203 0.0
H318 H 0.89284 0.99235 0.32851 0.0
H319 H 0.87177 0.97598 0.37437 0.0
C320 C 0.17678 0.64967 0.99576 0.0
C321 C 0.17554 0.65517 0.9794 0.0
C322 C 0.18066 0.62743 0.96926 0.0
C323 C 0.17747 0.6442 0.96633 0.0
C324 C 0.18222 0.62206 0.98564 0.0
C325 C 0.18026 0.63301 0.99868 0.0
U326 U 0.18343 0.68696 0.02515 0.0
O327 O 0.16465 0.70312 0.03603 0.0
O328 O 0.18008 0.68775 0.05196 0.0
C329 C 0.16756 0.69794 0.05107 0.0
C330 C 0.17288 0.66051 1.0099 0.0
C331 C 0.15299 0.69456 0.06172 0.0
C332 C 0.14003 0.6801 0.08472 0.0
C333 C 0.15293 0.68169 0.07335 0.0
C334 C 0.12678 0.70396 0.07292 0.0
C335 C 0.12686 0.69135 0.08483 0.0
C336 C 0.13967 0.70556 0.06159 0.0
C337 C 0.22047 0.717 0.018 0.0
C338 C 0.24045 0.73134 0.03515 0.0
C339 C 0.23466 0.74147 1.00781 0.0
C340 C 0.2233 0.7287 1.00557 0.0
C341 C 0.2436 0.74285 0.02254 0.0
C342 C 0.22904 0.71857 0.03291 0.0
C343 C 0.20984 0.70254 1.01443 0.0
O344 O 0.18298 0.66001 0.0225 0.0
O345 O 0.16751 0.6754 1.00662 0.0
O346 O 0.19492 0.70553 1.0089 0.0
O347 O 0.21036 0.69009 0.02478 0.0
H348 H 0.17279 0.66789 0.97664 0.0
H349 H 0.17641 0.64887 0.95391 0.0
H350 H 0.18444 0.60925 0.98846 0.0
H351 H 0.18103 0.62833 1.01113 0.0
H352 H 0.14046 0.67011 0.09354 0.0
H353 H 0.16303 0.67305 0.07395 0.0
H354 H 0.11705 0.71302 0.07272 0.0
H355 H 0.13946 0.71578 0.05303 0.0
H356 H 0.24689 0.7321 0.04675 0.0
H357 H 0.23684 0.74992 0.99773 0.0
H358 H 0.21705 0.72771 0.99388 0.0
H359 H 0.22721 0.70977 0.04276 0.0
C360 C 0.14527 0.8616 0.49573 0.0
C361 C 0.1506 0.86369 0.47941 0.0
C362 C 0.12295 0.85769 0.46906 0.0
C363 C 0.1396 0.86172 0.46627 0.0
C364 C 0.11777 0.85526 0.48538 0.0
C365 C 0.12875 0.85724 0.49849 0.0
U366 U 0.18266 0.85539 0.5256 0.0
O367 O 0.19841 0.87428 0.53684 0.0
O368 O 0.18313 0.85846 0.55247 0.0
C369 C 0.19308 0.87119 0.55178 0.0
C370 C 0.15605 0.86556 0.50998 0.0
C371 C 0.18903 0.88548 0.5624 0.0
C372 C 0.19107 0.91471 0.56869 0.0
C373 C 0.19312 0.90165 0.55774 0.0
C374 C 0.18061 0.89584 0.58918 0.0
C375 C 0.18499 0.91198 0.58466 0.0
C376 C 0.18266 0.8828 0.57824 0.0
C377 C 0.2133 0.81881 0.51886 0.0
C378 C 0.24136 0.81025 0.51228 0.0
C379 C 0.2249 0.79371 0.53073 0.0
C380 C 0.21184 0.80486 0.52906 0.0
C381 C 0.23978 0.79609 0.52218 0.0
C382 C 0.2283 0.82139 0.51059 0.0
C383 C 0.1987 0.82935 0.51515 0.0
O384 O 0.15564 0.85539 0.52258 0.0
O385 O 0.17093 0.87118 0.5069 0.0
O386 O 0.20149 0.84432 0.50967 0.0
O387 O 0.18615 0.82857 0.52531 0.0
H388 H 0.16318 0.86725 0.47677 0.0
H389 H 0.14405 0.86387 0.45393 0.0
H390 H 0.10515 0.85189 0.48807 0.0
H391 H 0.1242 0.8557 0.5109 0.0
H392 H 0.19479 0.92689 0.56478 0.0
H393 H 0.19832 0.90421 0.54576 0.0
H394 H 0.17567 0.89323 0.60125 0.0
H395 H 0.17958 0.8705 0.58235 0.0
H396 H 0.25248 0.81244 0.50529 0.0
H397 H 0.22325 0.78309 0.53863 0.0
H398 H 0.20044 0.80229 0.53545 0.0
H399 H 0.2298 0.83178 0.50236 0.0
C400 C 0.31882 0.72434 0.51885 0.0
C401 C 0.32044 0.73821 0.52891 0.0
C402 C 0.29249 0.74718 0.52212 0.0
C403 C 0.30746 0.74943 0.53056 0.0
C404 C 0.29077 0.73311 0.51233 0.0
C405 C 0.30376 0.72191 0.51067 0.0
U406 U 0.34883 0.68723 0.52592 0.0
O407 O 0.35991 0.67113 0.50728 0.0
O408 O 0.37575 0.68649 0.52265 0.0
C409 C 0.37495 0.67633 0.5102 0.0
C410 C 0.3333 0.71366 0.51523 0.0
C411 C 0.38553 0.67986 0.49568 0.0
C412 C 0.40574 0.69671 0.48107 0.0
C413 C 0.39457 0.69453 0.49406 0.0
C414 C 0.39886 0.66978 0.47089 0.0
C415 C 0.40819 0.68429 0.46937 0.0
C416 C 0.38774 0.6676 0.48386 0.0
C417 C 0.34139 0.65684 0.56265 0.0
C418 C 0.35864 0.64171 0.58211 0.0
C419 C 0.33095 0.63234 0.57661 0.0
C420 C 0.32875 0.6454 0.56553 0.0
C421 C 0.34586 0.63038 0.58522 0.0
C422 C 0.35644 0.65478 0.57098 0.0
C423 C 0.33793 0.67146 0.55212 0.0
O424 O 0.34585 0.71414 0.52542 0.0
O425 O 0.33027 0.69878 0.50983 0.0
O426 O 0.33249 0.66865 0.53721 0.0
O427 O 0.34834 0.68381 0.55275 0.0
H428 H 0.33191 0.74067 0.53522 0.0
H429 H 0.30922 0.75998 0.53837 0.0
H430 H 0.27959 0.73102 0.50543 0.0
H431 H 0.30213 0.71158 0.50254 0.0
H432 H 0.4125 0.70814 0.48023 0.0
H433 H 0.39323 0.70423 0.50296 0.0
H434 H 0.40051 0.65983 0.46232 0.0
H435 H 0.38114 0.65608 0.48489 0.0
H436 H 0.37038 0.64051 0.58831 0.0
H437 H 0.32073 0.62407 0.57878 0.0
H438 H 0.31695 0.64678 0.55947 0.0
H439 H 0.36644 0.66339 0.56911 0.0
C440 C 0.32114 0.81592 0.03218 0.0
C441 C 0.30453 0.82067 0.03347 0.0
C442 C 0.29536 0.79255 0.02825 0.0
C443 C 0.29181 0.80914 0.03148 0.0
C444 C 0.31198 0.78796 0.02658 0.0
C445 C 0.32465 0.79946 0.02857 0.0
U446 U 0.34963 0.85433 0.02584 0.0
O447 O 0.36 0.8707 0.04471 0.0
O448 O 0.37646 0.856 0.02941 0.0
C449 C 0.37523 0.86612 0.04184 0.0
C450 C 0.33494 0.82729 0.0362 0.0
C451 C 0.38583 0.86285 0.05637 0.0
C452 C 0.40329 0.84491 0.07301 0.0
C453 C 0.39213 0.84718 0.06 0.0
C454 C 0.40177 0.87384 0.07918 0.0
C455 C 0.4084 0.85825 0.08271 0.0
C456 C 0.39067 0.87609 0.06619 0.0
C457 C 0.34213 0.88443 0.98891 0.0
C458 C 0.35809 0.89861 0.9677 0.0
C459 C 0.33222 0.91005 0.97668 0.0
C460 C 0.33027 0.89693 0.98775 0.0
C461 C 0.34606 0.91099 0.96633 0.0
C462 C 0.35615 0.8855 0.97882 0.0
C463 C 0.33876 0.86973 0.9994 0.0
O464 O 0.34771 0.8273 0.02629 0.0
O465 O 0.33118 0.84203 0.04147 0.0
O466 O 0.33297 0.87237 1.0142 0.0
O467 O 0.34943 0.85761 0.99899 0.0
H468 H 0.30132 0.8332 0.03642 0.0
H469 H 0.27921 0.81315 0.03301 0.0
H470 H 0.31524 0.77541 0.02382 0.0
H471 H 0.3373 0.79537 0.02764 0.0
H472 H 0.40791 0.83268 0.07547 0.0
H473 H 0.38862 0.83671 0.05266 0.0
H474 H 0.40551 0.88446 0.08616 0.0
H475 H 0.38612 0.88833 0.06357 0.0
H476 H 0.36903 0.89899 0.96013 0.0
H477 H 0.32257 0.91917 0.97587 0.0
H478 H 0.3192 0.89635 0.99514 0.0
H479 H 0.36552 0.87606 0.97927 0.0
C480 C 1.00852 0.82396 0.32253 0.0
C481 C 0.0209 0.82414 0.31045 0.0
C482 C 1.01202 0.79733 0.30033 0.0
C483 C 0.02264 0.811 0.29953 0.0
C484 C 0.99986 0.79706 0.31263 0.0
C485 C 0.99811 0.81019 0.32351 0.0
U486 U 1.01606 0.8548 0.35851 0.0
O487 O 1.01267 0.88163 0.35849 0.0
O488 O 0.99754 0.86618 0.37464 0.0
C489 C 1.00033 0.88105 0.36891 0.0
C490 C 1.00501 0.83862 0.33283 0.0
C491 C 0.98567 0.89151 0.36537 0.0
C492 C 0.97181 0.91293 0.34941 0.0
C493 C 0.98484 0.90177 0.35142 0.0
C494 C 0.95999 0.90366 0.37504 0.0
C495 C 0.95929 0.91419 0.36129 0.0
C496 C 0.97301 0.89254 0.37707 0.0
C497 C 0.05361 0.84867 0.38816 0.0
C498 C 0.05942 0.84875 0.41758 0.0
C499 C 0.08117 0.85505 0.39833 0.0
C500 C 0.07012 0.85299 0.38528 0.0
C501 C 0.07606 0.85275 0.41469 0.0
C502 C 0.04836 0.8467 0.40451 0.0
C503 C 0.04273 0.84461 0.374 0.0
O504 O 0.99987 0.83589 0.34789 0.0
O505 O 1.01515 0.85119 0.33175 0.0
O506 O 0.04311 0.85463 0.36128 0.0
O507 O 0.02784 0.83912 0.37724 0.0
H508 H 0.02906 0.83459 0.30916 0.0
H509 H 0.03228 0.81162 0.29038 0.0
H510 H 0.99125 0.78693 0.31353 0.0
H511 H 0.98823 0.80976 0.33242 0.0
H512 H 0.97161 0.92065 0.33854 0.0
H513 H 0.9944 0.90144 0.34219 0.0
H514 H 0.95076 0.90436 0.38458 0.0
H515 H 0.97342 0.88502 0.38808 0.0
H516 H 0.05502 0.84668 0.42996 0.0
H517 H 0.09378 0.85839 0.39556 0.0
H518 H 0.07462 0.85444 0.37284 0.0
H519 H 0.03579 0.84318 0.40724 0.0
C520 C 0.14613 0.49033 0.8673 0.0
C521 C 0.13802 0.48817 0.85221 0.0
C522 C 0.12358 0.46394 0.86289 0.0
C523 C 0.1269 0.47514 0.85004 0.0
C524 C 0.132 0.46598 0.87785 0.0
C525 C 0.14307 0.479 0.88001 0.0
U526 U 0.18271 0.5208 0.85969 0.0
O527 O 0.18281 0.54778 0.86221 0.0
O528 O 0.19861 0.53267 0.87803 0.0
C529 C 0.19302 0.54747 0.87473 0.0
C530 C 0.15657 0.50496 0.87069 0.0
C531 C 0.18909 0.55831 0.88885 0.0
C532 C 0.18834 0.56378 0.91828 0.0
C533 C 0.19029 0.55281 0.90522 0.0
C534 C 0.18363 0.58592 0.89896 0.0
C535 C 0.18517 0.58055 0.91535 0.0
C536 C 0.18561 0.57496 0.88593 0.0
C537 C 0.21293 0.51348 0.82298 0.0
C538 C 0.22715 0.53052 0.80267 0.0
C539 C 0.23733 0.5033 0.80883 0.0
C540 C 0.22463 0.5011 0.82028 0.0
C541 C 0.23866 0.51795 0.79966 0.0
C542 C 0.21445 0.52832 0.81417 0.0
C543 C 0.19854 0.50988 0.83374 0.0
O544 O 0.17157 0.5022 0.87613 0.0
O545 O 0.15583 0.51731 0.86024 0.0
O546 O 0.18587 0.51988 0.83288 0.0
O547 O 0.20169 0.50486 0.84878 0.0
H548 H 0.14004 0.49668 0.84214 0.0
H549 H 0.12086 0.47387 0.83827 0.0
H550 H 0.12968 0.4578 0.88811 0.0
H551 H 0.14897 0.48046 0.89184 0.0
H552 H 0.18938 0.55911 0.93071 0.0
H553 H 0.19303 0.54008 0.90798 0.0
H554 H 0.18141 0.59873 0.89614 0.0
H555 H 0.18486 0.57965 0.87348 0.0
H556 H 0.22788 0.54207 0.79606 0.0
H557 H 0.24575 0.49325 0.80676 0.0
H558 H 0.22367 0.48946 0.82672 0.0
H559 H 0.20565 0.53812 0.81591 0.0
C560 C 0.54675 0.65145 0.36794 0.0
C561 C 0.54846 0.64298 0.35306 0.0
C562 C 0.57306 0.6289 0.36336 0.0
C563 C 0.56145 0.63185 0.35081 0.0
C564 C 0.57145 0.63766 0.37809 0.0
C565 C 0.55847 0.64872 0.38035 0.0
U566 U 0.51637 0.68803 0.3604 0.0
O567 O 0.48947 0.68853 0.36379 0.0
O568 O 0.50519 0.7043 0.37884 0.0
C569 C 0.4902 0.69888 0.37607 0.0
C570 C 0.53223 0.66199 0.37149 0.0
C571 C 0.47972 0.69541 0.39069 0.0
C572 C 0.45954 0.67863 0.40542 0.0
C573 C 0.47069 0.68075 0.39241 0.0
C574 C 0.46644 0.70561 0.41547 0.0
C575 C 0.45711 0.69111 0.41706 0.0
C576 C 0.47754 0.70773 0.40246 0.0
C577 C 0.52302 0.71772 0.32284 0.0
C578 C 0.52694 0.74656 0.31527 0.0
C579 C 0.51394 0.72813 0.29612 0.0
C580 C 0.51556 0.71521 0.30748 0.0
C581 C 0.51985 0.74396 0.29973 0.0
C582 C 0.52855 0.73363 0.32664 0.0
C583 C 0.5268 0.70342 0.33377 0.0
O584 O 0.53526 0.67698 0.37653 0.0
O585 O 0.51961 0.6612 0.36141 0.0
O586 O 0.51659 0.69089 0.33345 0.0
O587 O 0.53235 0.70651 0.34859 0.0
H588 H 0.53963 0.64473 0.34325 0.0
H589 H 0.56238 0.62554 0.33921 0.0
H590 H 0.57995 0.63561 0.38814 0.0
H591 H 0.55736 0.6549 0.39201 0.0
H592 H 0.45278 0.6672 0.40633 0.0
H593 H 0.472 0.671 0.38355 0.0
H594 H 0.46481 0.7156 0.424 0.0
H595 H 0.48413 0.71925 0.40135 0.0
H596 H 0.53185 0.75847 0.31847 0.0
H597 H 0.50821 0.72564 0.28441 0.0
H598 H 0.51136 0.7031 0.30401 0.0
H599 H 0.53462 0.73603 0.33821 0.0
C600 C 0.31267 1.01388 0.82777 0.0
C601 C 0.29907 0.0245 0.82889 0.0
C602 C 0.29009 0.01736 0.80118 0.0
C603 C 0.28797 0.02625 0.81578 0.0
C604 C 0.30389 1.007 0.79995 0.0
C605 C 0.31496 1.00524 0.81306 0.0
U606 U 0.34912 0.02106 0.85852 0.0
O607 O 0.34933 0.01747 0.88534 0.0
O608 O 0.36541 1.00252 0.8699 0.0
C609 C 0.35976 1.00515 0.88476 0.0
C610 C 0.3232 1.01018 0.84237 0.0
C611 C 0.35622 0.99044 0.89516 0.0
C612 C 0.34011 0.97633 0.9163 0.0
C613 C 0.34216 0.98945 0.90522 0.0
C614 C 0.36592 0.96473 0.90735 0.0
C615 C 0.35205 0.96386 0.91767 0.0
C616 C 0.36798 0.97785 0.89631 0.0
C617 C 0.37862 0.05871 0.85243 0.0
C618 C 0.40816 0.06437 0.85351 0.0
C619 C 0.38877 0.08635 0.85794 0.0
C620 C 0.37569 0.07532 0.85585 0.0
C621 C 0.40522 0.08111 0.85658 0.0
C622 C 0.39505 0.05332 0.85142 0.0
C623 C 0.36446 0.04781 0.84836 0.0
O624 O 0.33831 1.00512 0.8396 0.0
O625 O 0.32222 0.02011 0.85497 0.0
O626 O 0.35178 0.04804 0.85837 0.0
O627 O 0.36777 0.03304 0.84289 0.0
H628 H 0.29673 0.03121 0.84006 0.0
H629 H 0.27763 0.0345 0.81715 0.0
H630 H 0.30585 0.99974 0.78907 0.0
H631 H 0.32507 0.99668 0.81184 0.0
H632 H 0.32916 0.976 0.92386 0.0
H633 H 0.33287 0.99896 0.90478 0.0
H634 H 0.37551 0.95554 0.90815 0.0
H635 H 0.37907 0.97837 0.88895 0.0
H636 H 0.42062 0.05986 0.85219 0.0
H637 H 0.38595 0.09905 0.86056 0.0
H638 H 0.36319 0.0799 0.85657 0.0
H639 H 0.39782 0.04065 0.84864 0.0
C640 C 1.00996 0.71817 0.22946 0.0
C641 C 1.00435 0.73405 0.22546 0.0
C642 C 1.01313 0.74442 0.25218 0.0
C643 C 1.00597 0.74698 0.23662 0.0
C644 C 0.01911 0.72862 0.25599 0.0
C645 C 0.01749 0.7157 0.24483 0.0
U646 U 0.01659 0.68835 0.19243 0.0
O647 O 1.01318 0.66153 0.19185 0.0
O648 O 0.99769 0.67735 0.17641 0.0
C649 C 1.0006 0.66235 0.1817 0.0
C650 C 1.00615 0.70385 0.21875 0.0
C651 C 0.98602 0.6518 0.18528 0.0
C652 C 0.97201 0.63075 0.20162 0.0
C653 C 0.98502 0.64194 0.19951 0.0
C654 C 0.96055 0.6392 0.17553 0.0
C655 C 0.95967 0.62907 0.18957 0.0
C656 C 0.97355 0.65035 0.17341 0.0
C657 C 0.05342 0.6955 0.16209 0.0
C658 C 0.07609 0.68072 0.14916 0.0
C659 C 0.06457 0.70461 0.13571 0.0
C660 C 0.05337 0.70642 0.14864 0.0
C661 C 0.07627 0.69187 0.13586 0.0
C662 C 0.06484 0.68252 0.1621 0.0
C663 C 0.04289 0.69902 0.17664 0.0
O664 O 1.00068 0.70693 0.20385 0.0
O665 O 1.01629 0.69128 0.21932 0.0
O666 O 0.04352 0.68871 0.18912 0.0
O667 O 0.02795 0.70454 0.17378 0.0
H668 H 0.99822 0.73642 0.21388 0.0
H669 H 1.001 0.75886 0.23327 0.0
H670 H 0.02491 0.72616 0.26771 0.0
H671 H 0.02176 0.70361 0.24845 0.0
H672 H 0.97166 0.62335 0.2127 0.0
H673 H 0.99443 0.64264 0.20889 0.0
H674 H 0.95147 0.63817 0.16586 0.0
H675 H 0.97409 0.65757 0.16221 0.0
H676 H 0.08474 0.67064 0.14966 0.0
H677 H 0.06444 0.7136 0.12587 0.0
H678 H 0.04497 0.71673 0.14836 0.0
H679 H 0.06539 0.67394 0.17229 0.0
C680 C 0.31128 0.52699 0.72168 0.0
C681 C 0.31622 0.52843 0.73817 0.0
C682 C 0.28805 0.52329 0.74762 0.0
C683 C 0.30476 0.52655 0.75096 0.0
C684 C 0.28326 0.52149 0.73112 0.0
C685 C 0.29469 0.52336 0.71837 0.0
U686 U 0.34917 0.52035 0.69263 0.0
O687 O 0.35034 0.52409 0.66588 0.0
O688 O 0.36574 0.53914 0.68198 0.0
C689 C 0.36066 0.53649 0.66691 0.0
C690 C 0.32258 0.53095 0.70778 0.0
C691 C 0.35729 0.55119 0.65647 0.0
C692 C 0.34011 0.56649 0.63709 0.0
C693 C 0.34223 0.55339 0.6482 0.0
C694 C 0.36787 0.57566 0.64257 0.0
C695 C 0.35296 0.57773 0.63397 0.0
C696 C 0.37 0.56256 0.65362 0.0
C697 C 0.37825 0.48262 0.6994 0.0
C698 C 0.40752 0.47801 0.69441 0.0
C699 C 0.38926 0.45482 0.69804 0.0
C700 C 0.37596 0.46555 0.70003 0.0
C701 C 0.4053 0.46086 0.69539 0.0
C702 C 0.39416 0.48877 0.69641 0.0
C703 C 0.36404 0.49348 0.70308 0.0
O704 O 0.33757 0.53593 0.71133 0.0
O705 O 0.32211 0.52119 0.69502 0.0
O706 O 0.35174 0.49337 0.6926 0.0
O707 O 0.36731 0.50821 0.70873 0.0
H708 H 0.32884 0.5314 0.74123 0.0
H709 H 0.30893 0.52818 0.76346 0.0
H710 H 0.27061 0.51871 0.728 0.0
H711 H 0.29044 0.52234 0.70582 0.0
H712 H 0.32837 0.56778 0.63092 0.0
H713 H 0.33217 0.54485 0.65007 0.0
H714 H 0.37814 0.58388 0.6404 0.0
H715 H 0.38179 0.56108 0.65966 0.0
H716 H 0.41966 0.48318 0.69253 0.0
H717 H 0.38694 0.44174 0.69858 0.0
H718 H 0.36384 0.46047 0.70235 0.0
H719 H 0.39635 0.50187 0.69591 0.0
C720 C 0.54656 0.89072 0.18366 0.0
C721 C 0.54829 0.89928 0.19848 0.0
C722 C 0.57279 0.91348 0.18807 0.0
C723 C 0.56124 0.91051 0.20065 0.0
C724 C 0.57116 0.90464 0.17338 0.0
C725 C 0.55822 0.89346 0.17121 0.0
U726 U 0.5167 0.85366 0.19126 0.0
O727 O 0.48979 0.85273 0.18804 0.0
O728 O 0.50561 0.83728 0.17281 0.0
C729 C 0.49056 0.84237 0.17577 0.0
C730 C 0.53209 0.88003 0.1802 0.0
C731 C 0.4799 0.84566 0.16128 0.0
C732 C 0.4624 0.86361 0.1447 0.0
C733 C 0.47358 0.86134 0.15768 0.0
C734 C 0.46389 0.83469 0.1385 0.0
C735 C 0.45727 0.85028 0.13499 0.0
C736 C 0.47502 0.83243 0.15147 0.0
C737 C 0.52435 0.82347 0.22815 0.0
C738 C 0.51022 0.81043 0.25131 0.0
C739 C 0.53318 0.79669 0.23856 0.0
C740 C 0.53488 0.80981 0.22747 0.0
C741 C 0.52095 0.79686 0.25079 0.0
C742 C 0.51191 0.82356 0.24017 0.0
C743 C 0.52773 0.83812 0.21756 0.0
O744 O 0.5352 0.86513 0.17497 0.0
O745 O 0.51961 0.88054 0.19046 0.0
O746 O 0.5173 0.85044 0.21814 0.0
O747 O 0.53319 0.83535 0.20265 0.0
H748 H 0.53951 0.89752 0.20833 0.0
H749 H 0.56218 0.91689 0.21222 0.0
H750 H 0.57961 0.90669 0.16331 0.0
H751 H 0.5571 0.88722 0.15958 0.0
H752 H 0.45777 0.87585 0.14226 0.0
H753 H 0.4771 0.8718 0.16502 0.0
H754 H 0.46013 0.82407 0.13152 0.0
H755 H 0.47957 0.82019 0.15406 0.0
H756 H 0.50054 0.81096 0.26041 0.0
H757 H 0.54186 0.78665 0.23788 0.0
H758 H 0.54481 0.80945 0.21861 0.0
H759 H 0.50367 0.83393 0.24123 0.0
C760 C 0.17591 0.99227 0.65389 0.0
C761 C 0.17188 0.97609 0.65854 0.0
C762 C 0.17996 0.96582 0.63157 0.0
C763 C 0.17392 0.96305 0.64756 0.0
C764 C 0.18429 0.98198 0.62707 0.0
C765 C 0.18223 0.995 0.63804 0.0
U766 U 0.18215 0.02194 0.69103 0.0
O767 O 0.17887 0.04877 0.69165 0.0
O768 O 0.16322 0.03294 0.7069 0.0
C769 C 0.16622 0.04796 0.70169 0.0
C770 C 0.17189 1.00654 0.66455 0.0
C771 C 0.15174 0.05868 0.69808 0.0
C772 C 0.12466 0.06885 0.70617 0.0
C773 C 0.1375 0.05746 0.70782 0.0
C774 C 0.13981 0.0829 0.68478 0.0
C775 C 0.12572 0.08191 0.69481 0.0
C776 C 0.15265 0.07148 0.68641 0.0
C777 C 0.21893 1.01484 0.72152 0.0
C778 C 0.22705 1.00857 0.74977 0.0
C779 C 0.24433 0.02607 0.73303 0.0
C780 C 0.23323 0.0245 0.71994 0.0
C781 C 0.24155 0.01793 0.74808 0.0
C782 C 0.21595 1.007 0.73668 0.0
C783 C 0.20839 1.01127 0.70694 0.0
O784 O 0.1663 1.0034 0.67939 0.0
O785 O 0.18201 0.01914 0.66411 0.0
O786 O 0.20908 0.02159 0.69448 0.0
O787 O 0.19341 1.00573 0.70968 0.0
H788 H 0.16672 0.97349 0.67053 0.0
H789 H 0.17024 0.95086 0.65146 0.0
H790 H 0.1892 0.98462 0.615 0.0
H791 H 0.18527 1.00731 0.63395 0.0
H792 H 0.11417 0.06776 0.7143 0.0
H793 H 0.13649 0.04798 0.71715 0.0
H794 H 0.14102 0.09264 0.67575 0.0
H795 H 0.16348 0.07298 0.6788 0.0
H796 H 0.22454 1.00191 0.76104 0.0
H797 H 0.25522 0.03356 0.73128 0.0
H798 H 0.2361 0.03055 0.70841 0.0
H799 H 0.20527 0.99918 0.7383 0.0
C800 C 0.81077 0.32676 0.03177 0.0
C801 C 0.81553 0.31028 0.034 0.0
C802 C 0.78754 0.30083 0.02803 0.0
C803 C 0.80408 0.29749 0.03209 0.0
C804 C 0.78295 0.31731 0.02544 0.0
C805 C 0.79437 0.33006 0.02734 0.0
U806 U 0.84904 0.35558 0.02553 0.0
O807 O 0.85017 0.38247 0.02834 0.0
O808 O 0.86493 0.36661 0.04442 0.0
C809 C 0.86002 0.38166 0.04112 0.0
C810 C 0.82199 0.34071 0.03567 0.0
C811 C 0.85622 0.3926 0.05523 0.0
C812 C 0.85769 0.39896 0.08447 0.0
C813 C 0.85931 0.38775 0.07156 0.0
C814 C 0.84953 0.42003 0.06511 0.0
C815 C 0.85299 0.41535 0.08142 0.0
C816 C 0.85118 0.40885 0.05223 0.0
C817 C 0.87964 0.3479 0.98924 0.0
C818 C 0.89433 0.36442 0.96883 0.0
C819 C 0.9046 0.33755 0.97623 0.0
C820 C 0.89154 0.33556 0.98732 0.0
C821 C 0.90609 0.35192 0.96665 0.0
C822 C 0.88128 0.36244 0.97996 0.0
C823 C 0.86493 0.34454 0.99966 0.0
O824 O 0.83676 0.33723 0.04133 0.0
O825 O 0.82196 0.35327 0.02545 0.0
O826 O 0.8526 0.35496 0.99876 0.0
O827 O 0.86761 0.33914 1.01466 0.0
H828 H 0.828 0.30725 0.0376 0.0
H829 H 0.80808 0.28501 0.03434 0.0
H830 H 0.77044 0.32041 0.02203 0.0
H831 H 0.79025 0.3426 0.02569 0.0
H832 H 0.86027 0.39479 0.09685 0.0
H833 H 0.86337 0.3754 0.07438 0.0
H834 H 0.84613 0.43255 0.06217 0.0
H835 H 0.849 0.4131 0.0398 0.0
H836 H 0.89517 0.37576 0.96187 0.0
H837 H 0.91323 0.32755 0.9748 0.0
H838 H 0.8905 0.32412 0.9941 0.0
H839 H 0.87232 0.3722 0.98106 0.0
C840 C 0.81123 0.21832 0.51768 0.0
C841 C 0.80347 0.22032 0.53295 0.0
C842 C 0.788 0.24397 0.52246 0.0
C843 C 0.792 0.23299 0.5353 0.0
C844 C 0.79614 0.24216 0.50734 0.0
C845 C 0.80755 0.22949 0.50499 0.0
U846 U 0.84847 0.1886 0.52481 0.0
O847 O 0.84923 0.16175 0.52179 0.0
O848 O 0.8646 0.1775 0.50618 0.0
C849 C 0.85938 0.1625 0.50925 0.0
C850 C 0.82198 0.20401 0.51409 0.0
C851 C 0.85585 0.15182 0.49486 0.0
C852 C 0.86422 0.14153 0.46803 0.0
C853 C 0.86586 0.15285 0.48081 0.0
C854 C 0.84233 0.1279 0.48287 0.0
C855 C 0.8526 0.12871 0.46897 0.0
C856 C 0.84395 0.13926 0.49564 0.0
C857 C 0.87886 0.19598 0.56142 0.0
C858 C 0.8929 0.17988 0.58262 0.0
C859 C 0.9044 0.20584 0.57379 0.0
C860 C 0.89136 0.20785 0.56268 0.0
C861 C 0.90528 0.19192 0.58409 0.0
C862 C 0.87986 0.18188 0.57145 0.0
C863 C 0.86423 0.19945 0.55089 0.0
O864 O 0.83689 0.2072 0.50868 0.0
O865 O 0.82151 0.19149 0.52436 0.0
O866 O 0.85178 0.18913 0.55163 0.0
O867 O 0.8671 0.20486 0.53592 0.0
H868 H 0.806 0.21193 0.543 0.0
H869 H 0.7862 0.2341 0.54719 0.0
H870 H 0.79329 0.25017 0.49708 0.0
H871 H 0.81319 0.22816 0.49304 0.0
H872 H 0.87254 0.14247 0.4577 0.0
H873 H 0.87537 0.16214 0.4799 0.0
H874 H 0.8331 0.11836 0.48398 0.0
H875 H 0.83613 0.13791 0.50632 0.0
H876 H 0.89324 0.16889 0.59015 0.0
H877 H 0.91351 0.2155 0.57467 0.0
H878 H 0.89082 0.21897 0.55533 0.0
H879 H 0.87042 0.17251 0.57092 0.0
C880 C 0.64561 0.36361 0.55666 0.0
C881 C 0.64019 0.34785 0.56128 0.0
C882 C 0.62331 0.3594 0.58326 0.0
C883 C 0.62919 0.34577 0.57444 0.0
C884 C 0.62908 0.37509 0.57874 0.0
C885 C 0.64004 0.37715 0.56563 0.0
U886 U 0.6815 0.35453 0.52602 0.0
O887 O 0.68123 0.35714 0.49903 0.0
O888 O 0.69792 0.37228 0.51371 0.0
C889 C 0.69193 0.36927 0.49904 0.0
C890 C 0.65606 0.36657 0.54199 0.0
C891 C 0.6883 0.38357 0.48814 0.0
C892 C 0.6876 0.41309 0.48264 0.0
C893 C 0.68941 0.39986 0.49365 0.0
C894 C 0.68325 0.39406 0.46045 0.0
C895 C 0.68471 0.41039 0.46581 0.0
C896 C 0.68507 0.38088 0.47144 0.0
C897 C 0.71014 0.3164 0.53281 0.0
C898 C 0.73949 0.31001 0.53097 0.0
C899 C 0.71939 0.2883 0.52825 0.0
C900 C 0.70667 0.29972 0.53028 0.0
C901 C 0.73601 0.29321 0.5288 0.0
C902 C 0.72673 0.32145 0.533 0.0
C903 C 0.69639 0.32779 0.5368 0.0
O904 O 0.67132 0.37128 0.54461 0.0
O905 O 0.65473 0.35612 0.52984 0.0
O906 O 0.68347 0.32751 0.52708 0.0
O907 O 0.70021 0.34266 0.54168 0.0
H908 H 0.64422 0.33717 0.55456 0.0
H909 H 0.62497 0.3335 0.57743 0.0
H910 H 0.62514 0.38586 0.58536 0.0
H911 H 0.64401 0.38943 0.56231 0.0
H912 H 0.68898 0.42543 0.48726 0.0
H913 H 0.69202 0.40243 0.5064 0.0
H914 H 0.68075 0.39143 0.44769 0.0
H915 H 0.68425 0.36848 0.46679 0.0
H916 H 0.75209 0.31428 0.53162 0.0
H917 H 0.71615 0.27557 0.52631 0.0
H918 H 0.69405 0.29541 0.53019 0.0
H919 H 0.7299 0.33418 0.53508 0.0
C920 C 0.64556 0.18141 0.99438 0.0
C921 C 0.63645 0.19602 0.99276 0.0
C922 C 0.62299 0.18579 0.96795 0.0
C923 C 0.62533 0.19818 0.97972 0.0
C924 C 0.6324 0.17136 0.96944 0.0
C925 C 0.64347 0.1692 0.98248 0.0
U926 U 0.68202 0.18876 0.02499 0.0
O927 O 0.68198 0.18598 0.05196 0.0
O928 O 0.69786 0.17033 0.03701 0.0
C929 C 0.69222 0.17349 0.05177 0.0
C930 C 0.65597 0.17788 1.00905 0.0
C931 C 0.68828 0.15927 0.06269 0.0
C932 C 0.68694 0.12978 0.0682 0.0
C933 C 0.68889 0.14296 0.05716 0.0
C934 C 0.68341 0.14888 0.09045 0.0
C935 C 0.68439 0.13253 0.08506 0.0
C936 C 0.68537 0.16203 0.07943 0.0
C937 C 0.71228 0.22564 0.01786 0.0
C938 C 0.72604 0.24615 0.03475 0.0
C939 C 0.73715 0.23949 1.00812 0.0
C940 C 0.72443 0.22807 1.00583 0.0
C941 C 0.73802 0.2489 0.02251 0.0
C942 C 0.71334 0.23468 0.03245 0.0
C943 C 0.6979 0.21491 1.01411 0.0
O944 O 0.67098 0.17251 1.00638 0.0
O945 O 0.65515 0.18815 0.02139 0.0
O946 O 0.68513 0.2156 0.02398 0.0
O947 O 0.70109 0.19994 1.00913 0.0
H948 H 0.63768 0.20569 1.00172 0.0
H949 H 0.61852 0.20956 0.97889 0.0
H950 H 0.63084 0.16144 0.9608 0.0
H951 H 0.65012 0.15772 0.98351 0.0
H952 H 0.68795 0.11741 0.06356 0.0
H953 H 0.69127 0.14034 0.04438 0.0
H954 H 0.68118 0.15156 0.10324 0.0
H955 H 0.68495 0.17443 0.0841 0.0
H956 H 0.72641 0.25296 0.04609 0.0
H957 H 0.74595 0.24135 0.99832 0.0
H958 H 0.72384 0.22145 0.99437 0.0
H959 H 0.70417 0.23317 0.04199 0.0
C960 C 1.01604 0.28703 0.77318 0.0
C961 C 1.01211 0.28246 0.78941 0.0
H962 H 0.01852 0.27957 0.74814 0.0
C963 C 1.00813 0.2659 0.79258 0.0
H964 H 0.01934 0.29958 0.77024 0.0
C965 C 1.00783 0.25436 0.7799 0.0
C966 C 1.01151 0.25897 0.76363 0.0
H967 H 1.00484 0.26188 0.80483 0.0
H968 H 1.00468 0.24178 0.7829 0.0
C969 C 1.01577 0.27546 0.7605 0.0
C970 C 0.74995 0.51984 0.2725 0.0
C971 C 0.75481 0.51816 0.28902 0.0
H972 H 0.75731 0.52069 0.24727 0.0
C973 C 0.77174 0.51656 0.29244 0.0
H974 H 0.73708 0.52127 0.26934 0.0
C975 C 0.7834 0.5164 0.27975 0.0
C976 C 0.77853 0.51786 0.26323 0.0
H977 H 0.77602 0.51504 0.30494 0.0
H978 H 0.79628 0.51513 0.28293 0.0
C979 C 0.76162 0.51972 0.25981 0.0
C980 C 0.5216 0.28442 0.77769 0.0
C981 C 0.51098 0.28481 0.76401 0.0
H982 H 0.52902 0.27177 0.79968 0.0
C983 C 0.49978 0.27178 0.76206 0.0
H984 H 0.5305 0.29413 0.77956 0.0
C985 C 0.499 0.25893 0.77355 0.0
C986 C 0.50941 0.25865 0.78738 0.0
H987 H 0.49128 0.27168 0.75182 0.0
H988 H 0.49018 0.24917 0.77157 0.0
C989 C 0.52086 0.27149 0.78918 0.0
C990 C 0.76118 0.02354 0.29123 0.0
C991 C 0.77811 0.02508 0.28781 0.0
H992 H 0.7366 0.02226 0.28171 0.0
C993 C 0.78299 0.02622 0.27127 0.0
H994 H 0.75687 0.02282 0.30378 0.0
C995 C 0.77131 0.02607 0.25858 0.0
C996 C 0.75436 0.0248 0.26201 0.0
H997 H 0.79589 0.02724 0.26808 0.0
H998 H 0.77559 0.02734 0.24607 0.0
C999 C 0.74949 0.02343 0.27854 0.0
C1000 C 0.27158 0.75222 0.03236 0.0
C1001 C 0.2566 0.75582 0.02444 0.0
H1002 H 0.29531 0.76082 0.03991 0.0
C1003 C 0.25439 0.77174 0.01796 0.0
H1004 H 0.27388 0.74009 0.03735 0.0
C1005 C 0.26683 0.78365 0.01926 0.0
C1006 C 0.28189 0.77998 0.02702 0.0
H1007 H 0.24298 0.77506 1.01191 0.0
H1008 H 0.26472 0.79568 1.01393 0.0
C1009 C 0.28402 0.7641 0.03363 0.0
C1010 C 0.26232 0.75492 0.52317 0.0
C1011 C 0.27898 0.75971 0.52297 0.0
H1012 H 0.23705 0.76243 0.52297 0.0
C1013 C 0.28261 0.77661 0.52305 0.0
H1014 H 0.25898 0.74205 0.52329 0.0
C1015 C 0.26998 0.78835 0.52304 0.0
C1016 C 0.25331 0.78357 0.52299 0.0
H1017 H 0.29524 0.78084 0.52272 0.0
H1018 H 0.27331 0.80122 0.52306 0.0
C1019 C 0.24969 0.76666 0.52319 0.0
C1020 C 0.01647 0.78699 0.27144 0.0
C1021 C 1.01317 0.78369 0.28811 0.0
H1022 H 0.01924 0.77738 0.24718 0.0
C1023 C 1.0104 0.76727 0.29287 0.0
H1024 H 0.01849 0.79945 0.26721 0.0
C1025 C 1.01065 0.7546 0.28132 0.0
C1026 C 1.01367 0.75792 0.26461 0.0
H1027 H 1.00801 0.76416 0.30558 0.0
H1028 H 1.00808 0.74222 0.28549 0.0
C1029 C 0.01669 0.77431 0.25987 0.0
C1030 C 0.27934 0.51458 0.77625 0.0
C1031 C 0.27556 0.52218 0.76115 0.0
H1032 H 0.27092 0.50743 0.80019 0.0
C1033 C 0.25966 0.52875 0.75906 0.0
H1034 H 0.29138 0.50928 0.77834 0.0
C1035 C 0.24786 0.52759 0.77156 0.0
C1036 C 0.25155 0.5198 0.78659 0.0
H1037 H 0.2563 0.53493 0.74774 0.0
H1038 H 0.2357 0.53253 0.76929 0.0
C1039 C 0.26751 0.51337 0.78876 0.0
C1040 C 0.52268 0.76683 0.25871 0.0
C1041 C 0.51981 0.78322 0.26322 0.0
H1042 H 0.5251 0.7418 0.26649 0.0
C1043 C 0.51641 0.7865 0.27981 0.0
H1044 H 0.52516 0.76374 0.24606 0.0
C1045 C 0.51619 0.77382 0.29157 0.0
C1046 C 0.51932 0.75746 0.2871 0.0
H1047 H 0.5143 0.79895 0.28384 0.0
H1048 H 0.51357 0.77687 0.3042 0.0
C1049 C 0.52244 0.75416 0.27045 0.0
C1050 C 0.26069 0.01911 0.79095 0.0
C1051 C 0.27768 0.01835 0.78755 0.0
H1052 H 0.23611 0.01977 0.78138 0.0
C1053 C 0.28263 0.01799 0.77101 0.0
H1054 H 0.25633 0.01922 0.80349 0.0
C1055 C 0.27098 0.01813 0.75829 0.0
C1056 C 0.25399 0.01861 0.76169 0.0
H1057 H 0.29557 0.01758 0.76785 0.0
H1058 H 0.27534 0.01747 0.74576 0.0
C1059 C 0.24904 0.01922 0.77822 0.0
C1060 C 0.74704 0.27714 0.03154 0.0
C1061 C 0.75093 0.26195 0.02441 0.0
H1062 H 0.75536 0.30106 0.03841 0.0
C1063 C 0.76711 0.25959 0.01869 0.0
H1064 H 0.73471 0.27955 0.03592 0.0
C1065 C 0.77898 0.27206 0.01994 0.0
C1066 C 0.77501 0.28732 0.02689 0.0
H1067 H 0.77066 0.24803 1.01327 0.0
H1068 H 0.79121 0.26983 1.0152 0.0
C1069 C 0.75887 0.28961 0.03275 0.0
C1070 C 0.74802 0.26518 0.53487 0.0
C1071 C 0.74957 0.28078 0.52745 0.0
H1072 H 0.75866 0.24149 0.53907 0.0
C1073 C 0.76413 0.2843 0.51874 0.0
H1074 H 0.73715 0.26204 0.54189 0.0
C1075 C 0.77663 0.27252 0.51729 0.0
C1076 C 0.77499 0.25685 0.52456 0.0
H1077 H 0.76578 0.2961 0.51277 0.0
H1078 H 0.78763 0.27572 0.51049 0.0
C1079 C 0.76052 0.25342 0.53345 0.0
C1080 C 0.11668 0.1115 0.69188 0.0
C1081 C 0.11256 0.09482 0.69402 0.0
H1082 H 0.10828 0.13639 0.69085 0.0
C1083 C 0.09583 0.09072 0.69602 0.0
H1084 H 0.12941 0.11523 0.69058 0.0
C1085 C 0.08365 0.10292 0.69617 0.0
C1086 C 0.0878 0.11962 0.69433 0.0
H1087 H 0.0921 0.07803 0.69744 0.0
H1088 H 0.07093 0.09923 0.6977 0.0
C1089 C 0.1045 0.12369 0.69203 0.0
C1090 C 0.94943 0.60091 0.19806 0.0
C1091 C 0.94619 0.61656 0.19137 0.0
H1092 H 0.94 0.57713 0.20442 0.0
C1093 C 0.93003 0.62 0.18611 0.0
H1094 H 0.96175 0.59764 0.20197 0.0
C1095 C 0.91752 0.60818 0.18748 0.0
C1096 C 0.92076 0.59253 0.19417 0.0
H1097 H 0.92695 0.63196 0.18112 0.0
H1098 H 0.90521 0.61145 0.18357 0.0
C1099 C 0.93692 0.58908 0.19943 0.0
C1100 C 0.44577 0.44152 0.68143 0.0
C1101 C 0.44668 0.42722 0.69122 0.0
H1102 H 0.43213 0.4631 0.67485 0.0
C1103 C 0.43382 0.42414 0.70239 0.0
H1104 H 0.45524 0.44423 0.67247 0.0
C1105 C 0.4205 0.435 0.70374 0.0
C1106 C 0.41959 0.4493 0.69394 0.0
H1107 H 0.43414 0.41344 0.71033 0.0
H1108 H 0.41103 0.43229 0.71269 0.0
C1109 C 0.43246 0.45239 0.68278 0.0
C1110 C 0.59575 0.95274 0.19961 0.0
C1111 C 0.61159 0.95001 0.19317 0.0
H1112 H 0.5712 0.94365 0.20292 0.0
C1113 C 0.61455 0.93506 0.18514 0.0
H1114 H 0.59288 0.96416 0.20566 0.0
C1115 C 0.60208 0.92324 0.1836 0.0
C1116 C 0.58624 0.92598 0.19003 0.0
H1117 H 0.62663 0.93232 0.18028 0.0
H1118 H 0.60495 0.91182 0.17754 0.0
C1119 C 0.58328 0.94092 0.19806 0.0
C1120 C 0.10192 0.42235 0.86636 0.0
C1121 C 0.08717 0.42507 0.85766 0.0
H1122 H 0.12498 0.43215 0.87453 0.0
C1123 C 0.08459 0.4407 0.85063 0.0
H1124 H 0.10453 0.41043 0.8717 0.0
C1125 C 0.09638 0.45319 0.85222 0.0
C1126 C 0.11113 0.45047 0.86091 0.0
H1127 H 0.07332 0.44339 0.84405 0.0
H1128 H 0.09376 0.46511 0.84688 0.0
C1129 C 0.11371 0.43484 0.86795 0.0
C1130 C 0.6024 0.6193 0.36773 0.0
C1131 C 0.58654 0.6165 0.36131 0.0
H1132 H 0.62699 0.61035 0.37097 0.0
C1133 C 0.58361 0.60158 0.35321 0.0
H1134 H 0.60526 0.63071 0.37383 0.0
C1135 C 0.59612 0.58984 0.35159 0.0
C1136 C 0.61197 0.59264 0.35802 0.0
H1137 H 0.57152 0.59879 0.34835 0.0
H1138 H 0.59326 0.57843 0.34548 0.0
C1139 C 0.6149 0.60756 0.36611 0.0
C1140 C 0.44701 0.10003 0.86709 0.0
C1141 C 0.44567 0.11599 0.86044 0.0
H1142 H 0.43543 0.07673 0.87136 0.0
C1143 C 0.43087 0.12032 0.85253 0.0
H1144 H 0.45805 0.09627 0.87353 0.0
C1145 C 0.41784 0.10908 0.85131 0.0
C1146 C 0.41917 0.09313 0.85797 0.0
H1147 H 0.42941 0.13236 0.84702 0.0
H1148 H 0.4068 0.11284 0.84487 0.0
C1149 C 0.43398 0.08878 0.86586 0.0
C1150 C 0.91706 0.93482 0.3632 0.0
C1151 C 0.92037 0.95067 0.35701 0.0
H1152 H 0.92645 0.91092 0.36907 0.0
C1153 C 0.93661 0.95434 0.35216 0.0
H1154 H 0.90469 0.93139 0.36678 0.0
C1155 C 0.94913 0.94254 0.35344 0.0
C1156 C 0.94582 0.92669 0.35962 0.0
H1157 H 0.93975 0.96644 0.34757 0.0
H1158 H 0.9615 0.94597 0.34985 0.0
C1159 C 0.92958 0.92303 0.36448 0.0
C1160 C 0.68912 0.10641 0.12396 0.0
C1161 C 0.68089 0.09181 0.11979 0.0
H1162 H 0.69692 0.13041 0.11639 0.0
C1163 C 0.6738 0.09077 0.10405 0.0
H1164 H 0.69497 0.10764 0.13583 0.0
C1165 C 0.67491 0.10388 0.09285 0.0
C1166 C 0.68312 0.11849 0.09703 0.0
H1167 H 0.6671 0.07989 0.10043 0.0
H1168 H 0.66906 0.10266 0.08098 0.0
C1169 C 0.69023 0.11952 0.11277 0.0
C1170 C 0.94751 0.19408 0.60478 0.0
C1171 C 0.9443 0.1876 0.62052 0.0
H1172 H 0.93802 0.2002 0.58097 0.0
C1173 C 0.92812 0.18247 0.62409 0.0
H1174 H 0.95984 0.19788 0.60141 0.0
C1175 C 0.91557 0.18376 0.61232 0.0
C1176 C 0.91879 0.19024 0.59657 0.0
H1177 H 0.92506 0.17764 0.63612 0.0
H1178 H 0.90325 0.17995 0.61568 0.0
C1179 C 0.93496 0.19538 0.593 0.0
C1180 C 0.8403 0.45212 0.10738 0.0
C1181 C 0.85245 0.45227 0.11972 0.0
H1182 H 0.83069 0.44035 0.08598 0.0
C1183 C 0.86437 0.43974 0.11968 0.0
H1184 H 0.83074 0.46137 0.10712 0.0
C1185 C 0.86434 0.42765 0.10752 0.0
C1186 C 0.85239 0.42769 0.09499 0.0
H1187 H 0.87409 0.43953 0.12878 0.0
H1188 H 0.87405 0.41855 0.10766 0.0
C1189 C 0.84027 0.44003 0.09522 0.0
C1190 C 0.58718 0.36714 0.61225 0.0
C1191 C 0.58835 0.35391 0.62339 0.0
H1192 H 0.59699 0.37915 0.59093 0.0
C1193 C 0.60099 0.34234 0.621 0.0
H1194 H 0.57774 0.37638 0.6137 0.0
C1195 C 0.61219 0.34403 0.608 0.0
C1196 C 0.61115 0.35736 0.59698 0.0
H1197 H 0.6022 0.33185 0.62914 0.0
H1198 H 0.62186 0.33499 0.60677 0.0
C1199 C 0.5984 0.36884 0.59927 0.0
C1200 C 0.68925 0.43639 0.42681 0.0
C1201 C 0.68139 0.45113 0.4311 0.0
H1202 H 0.69671 0.41227 0.43429 0.0
C1203 C 0.67463 0.45232 0.44697 0.0
H1204 H 0.69483 0.43504 0.41485 0.0
C1205 C 0.6757 0.4392 0.45817 0.0
C1206 C 0.68353 0.42445 0.45386 0.0
H1207 H 0.66822 0.46331 0.45068 0.0
H1208 H 0.67011 0.44054 0.47013 0.0
C1209 C 0.69031 0.42327 0.43801 0.0
C1210 C 0.60183 0.18328 0.92609 0.0
C1211 C 0.58651 0.19077 0.92906 0.0
H1212 H 0.62534 0.17615 0.93572 0.0
C1213 C 0.58338 0.19668 0.94495 0.0
H1214 H 0.60486 0.17884 0.91398 0.0
C1215 C 0.59518 0.19517 0.95745 0.0
C1216 C 0.6105 0.18769 0.95448 0.0
H1217 H 0.57167 0.20229 0.94784 0.0
H1218 H 0.59215 0.1996 0.96956 0.0
C1219 C 0.61363 0.18177 0.9386 0.0
C1220 C 0.85408 0.12001 0.43922 0.0
C1221 C 0.85177 0.11587 0.45587 0.0
H1222 H 0.85596 0.11158 0.41444 0.0
C1223 C 0.84927 0.09923 0.45996 0.0
H1224 H 0.85577 0.13268 0.4355 0.0
C1225 C 0.84938 0.0871 0.44784 0.0
C1226 C 0.85199 0.09119 0.43123 0.0
H1227 H 0.84773 0.09547 0.47263 0.0
H1228 H 0.84792 0.07441 0.45161 0.0
C1229 C 0.85418 0.10787 0.4271 0.0
C1230 C 0.92905 0.36239 0.92699 0.0
C1231 C 0.945 0.3564 0.93018 0.0
H1232 H 0.90438 0.36554 0.93571 0.0
C1233 C 0.94803 0.34897 0.94554 0.0
H1234 H 0.92612 0.36796 0.91525 0.0
C1235 C 0.93551 0.3476 0.95734 0.0
C1236 C 0.91957 0.35363 0.95416 0.0
H1237 H 0.96019 0.34447 0.94861 0.0
H1238 H 0.93843 0.34203 0.96908 0.0
C1239 C 0.91654 0.36103 0.93879 0.0
C1240 C 0.11754 0.6864 0.11408 0.0
C1241 C 0.11367 0.69046 0.0977 0.0
H1242 H 0.10904 0.68384 0.13884 0.0
C1243 C 0.0972 0.6943 0.0939 0.0
H1244 H 0.1301 0.68362 0.11759 0.0
C1245 C 0.08506 0.69443 0.10615 0.0
C1246 C 0.08901 0.69072 0.12258 0.0
H1247 H 0.09363 0.69722 0.08142 0.0
H1248 H 0.07255 0.69745 0.10269 0.0
C1249 C 0.10541 0.68652 0.12632 0.0
C1250 C 0.10437 0.84836 0.42701 0.0
C1251 C 0.08811 0.85413 0.4286 0.0
H1252 H 0.12791 0.84467 0.43837 0.0
C1253 C 0.08346 0.86107 0.44366 0.0
H1254 H 0.10839 0.84266 0.41575 0.0
C1255 C 0.09469 0.86219 0.45669 0.0
C1256 C 0.11095 0.8564 0.4551 0.0
H1257 H 0.07116 0.86589 0.44534 0.0
H1258 H 0.09067 0.86788 0.46796 0.0
C1259 C 0.11561 0.84949 0.44004 0.0
C1260 C 0.17149 0.61678 0.94161 0.0
C1261 C 0.18193 0.6155 0.95536 0.0
H1262 H 0.16404 0.60675 0.91853 0.0
C1263 C 0.19336 0.60253 0.95585 0.0
H1264 H 0.16231 0.62638 0.94088 0.0
C1265 C 0.19433 0.5912 0.943 0.0
C1266 C 0.18389 0.59248 0.92924 0.0
H1267 H 0.20178 0.60123 0.96608 0.0
H1268 H 0.20351 0.5816 0.94373 0.0
C1269 C 0.17246 0.60546 0.92876 0.0
C1270 C 0.41755 0.68014 0.44007 0.0
C1271 C 0.42065 0.68622 0.45591 0.0
H1272 H 0.42634 0.67705 0.41551 0.0
C1273 C 0.43593 0.69385 0.45884 0.0
H1274 H 0.40587 0.67441 0.43722 0.0
C1275 C 0.44773 0.69534 0.44635 0.0
C1276 C 0.44463 0.68924 0.43052 0.0
H1277 H 0.43894 0.69843 0.47091 0.0
H1278 H 0.45941 0.70107 0.44919 0.0
C1279 C 0.42935 0.68163 0.42758 0.0
C1280 C 0.34404 0.95333 0.94585 0.0
C1281 C 0.35033 0.95026 0.93008 0.0
H1282 H 0.33807 0.94363 0.96963 0.0
C1283 C 0.35526 0.93414 0.9264 0.0
H1284 H 0.34039 0.9656 0.9493 0.0
C1285 C 0.35396 0.92151 0.93812 0.0
C1286 C 0.34769 0.92458 0.9539 0.0
H1287 H 0.35993 0.9312 0.91434 0.0
H1288 H 0.35762 0.90923 0.93468 0.0
C1289 C 0.34274 0.94069 0.95757 0.0
C1290 C 0.4313 0.86306 0.12342 0.0
C1291 C 0.44484 0.85247 0.12151 0.0
H1292 H 0.40914 0.87291 0.11304 0.0
C1293 C 0.44618 0.84373 0.10674 0.0
H1294 H 0.42963 0.86978 0.1347 0.0
C1295 C 0.43437 0.84549 0.09428 0.0
C1296 C 0.42083 0.85608 0.09619 0.0
H1297 H 0.45653 0.83564 0.10466 0.0
H1298 H 0.43604 0.83877 0.083 0.0
C1299 C 0.41949 0.86483 0.11097 0.0
C1300 C 0.18635 0.93626 0.62462 0.0
C1301 C 0.18135 0.95203 0.61954 0.0
H1302 H 0.19168 0.9115 0.61777 0.0
C1303 C 0.1775 0.95446 0.60284 0.0
H1304 H 0.18967 0.9339 0.63729 0.0
C1305 C 0.17864 0.94156 0.5916 0.0
C1306 C 0.18363 0.92578 0.59669 0.0
H1307 H 0.17331 0.96631 0.59845 0.0
H1308 H 0.17533 0.94391 0.57893 0.0
C1309 C 0.18748 0.92335 0.61338 0.0
C1310 C 0.34256 0.58862 0.60672 0.0
C1311 C 0.35103 0.59128 0.62154 0.0
H1312 H 0.3346 0.59854 0.58363 0.0
C1313 C 0.35791 0.60691 0.62422 0.0
H1314 H 0.33736 0.5767 0.60403 0.0
C1315 C 0.35634 0.61948 0.61246 0.0
C1316 C 0.34786 0.61683 0.59764 0.0
H1317 H 0.36432 0.60955 0.63555 0.0
H1318 H 0.36154 0.6314 0.61515 0.0
C1319 C 0.34101 0.60119 0.59496 0.0
loop_
_geom_bond_atom_site_label_1
_geom_bond_atom_site_label_2
_geom_bond_distance
_geom_bond_site_symmetry_2
_ccdc_geom_bond_type
C0 C1 1.221 1_655 S
C0 C5 1.519 . S
C0 C10 1.477 . S
C1 C0 1.221 1_455 S
C1 C3 1.339 . S
C1 H28 0.931 . S
C2 C3 1.395 . S
C2 C4 1.320 1_455 S
C3 C1 1.339 . S
C3 C2 1.395 . S
C3 H29 0.929 . S
C4 C2 1.320 1_655 S
C4 C5 1.405 . S
C4 H30 0.930 . S
C5 C0 1.519 . S
C5 C4 1.405 . S
C5 H31 0.931 . S
U6 O7 2.454 . S
U6 O8 2.458 . S
U6 C9 2.984 . S
U6 C10 2.847 . S
U6 C23 2.882 1_655 S
U6 O24 2.441 . S
U6 O25 2.420 1_655 S
U6 O26 2.455 1_655 S
U6 O27 2.449 1_655 S
O7 U6 2.454 . S
O7 C9 1.353 . S
O8 U6 2.458 . S
O8 C9 1.286 . S
C9 U6 2.984 . S
C9 O7 1.353 . S
C9 O8 1.286 . S
C9 C11 1.363 . S
C10 C0 1.477 . S
C10 U6 2.847 . S
C10 O24 1.249 . S
C10 O25 1.202 1_655 S
C11 C9 1.363 . S
C11 C13 1.408 . S
C11 C16 1.342 . S
C12 C13 1.310 . S
C12 C15 1.461 . S
C12 H32 0.932 . S
C13 C11 1.408 . S
C13 C12 1.310 . S
C13 H33 0.930 . S
C14 C15 1.474 . S
C14 C16 1.285 . S
C14 H34 0.929 . S
C15 C12 1.461 . S
C15 C14 1.474 . S
C16 C11 1.342 . S
C16 C14 1.285 . S
C16 H35 0.930 . S
C17 C20 1.424 . S
C17 C22 1.245 . S
C17 C23 1.428 . S
C18 C21 1.260 . S
C18 C22 1.477 . S
C18 H36 0.932 . S
C19 C20 1.384 . S
C19 C21 1.479 . S
C19 H37 0.929 . S
C20 C17 1.424 . S
C20 C19 1.384 . S
C20 H38 0.928 . S
C21 C18 1.260 . S
C21 C19 1.479 . S
C22 C17 1.245 . S
C22 C18 1.477 . S
C22 H39 0.932 . S
C23 U6 2.882 1_455 S
C23 C17 1.428 . S
C23 O26 1.301 . S
C23 O27 1.282 . S
O24 U6 2.441 . S
O24 C10 1.249 . S
O25 U6 2.420 1_455 S
O25 C10 1.202 1_455 S
O26 U6 2.455 1_455 S
O26 C23 1.301 . S
O27 U6 2.449 1_455 S
O27 C23 1.282 . S
H28 C1 0.931 . S
H29 C3 0.929 . S
H30 C4 0.930 . S
H31 C5 0.931 . S
H32 C12 0.932 . S
H33 C13 0.930 . S
H34 C14 0.929 . S
H35 C16 0.930 . S
H36 C18 0.932 . S
H37 C19 0.929 . S
H38 C20 0.928 . S
H39 C22 0.932 . S
C40 C41 1.264 . S
C40 C45 1.479 . S
C40 C50 1.465 . S
C41 C40 1.264 . S
C41 C43 1.339 . S
C41 H68 0.931 . S
C42 C43 1.395 . S
C42 C44 1.320 . S
C43 C41 1.339 . S
C43 C42 1.395 . S
C43 H69 0.929 . S
C44 C42 1.320 . S
C44 C45 1.405 . S
C44 H70 0.930 . S
C45 C40 1.479 . S
C45 C44 1.405 . S
C45 H71 0.931 . S
U46 O47 2.454 . S
U46 O48 2.458 . S
U46 C49 2.984 . S
U46 C50 2.847 . S
U46 C63 2.882 . S
U46 O64 2.441 . S
U46 O65 2.420 . S
U46 O66 2.455 . S
U46 O67 2.449 . S
O47 U46 2.454 . S
O47 C49 1.353 . S
O48 U46 2.458 . S
O48 C49 1.286 . S
C49 U46 2.984 . S
C49 O47 1.353 . S
C49 O48 1.286 . S
C49 C51 1.363 . S
C50 C40 1.465 . S
C50 U46 2.847 . S
C50 O64 1.249 . S
C50 O65 1.202 . S
C51 C49 1.363 . S
C51 C53 1.408 . S
C51 C56 1.342 . S
C52 C53 1.310 . S
C52 C55 1.461 . S
C52 H72 0.932 . S
C53 C51 1.408 . S
C53 C52 1.310 . S
C53 H73 0.930 . S
C54 C55 1.474 . S
C54 C56 1.285 . S
C54 H74 0.929 . S
C55 C52 1.461 . S
C55 C54 1.474 . S
C56 C51 1.342 . S
C56 C54 1.285 . S
C56 H75 0.930 . S
C57 C60 1.424 . S
C57 C62 1.245 . S
C57 C63 1.428 . S
C58 C61 1.260 . S
C58 C62 1.477 . S
C58 H76 0.932 . S
C59 C60 1.384 . S
C59 C61 1.479 . S
C59 H77 0.929 . S
C60 C57 1.424 . S
C60 C59 1.384 . S
C60 H78 0.928 . S
C61 C58 1.260 . S
C61 C59 1.479 . S
C62 C57 1.245 . S
C62 C58 1.477 . S
C62 H79 0.932 . S
C63 U46 2.882 . S
C63 C57 1.428 . S
C63 O66 1.301 . S
C63 O67 1.282 . S
O64 U46 2.441 . S
O64 C50 1.249 . S
O65 U46 2.420 . S
O65 C50 1.202 . S
O66 U46 2.455 . S
O66 C63 1.301 . S
O67 U46 2.449 . S
O67 C63 1.282 . S
H68 C41 0.931 . S
H69 C43 0.929 . S
H70 C44 0.930 . S
H71 C45 0.931 . S
H72 C52 0.932 . S
H73 C53 0.930 . S
H74 C54 0.929 . S
H75 C56 0.930 . S
H76 C58 0.932 . S
H77 C59 0.929 . S
H78 C60 0.928 . S
H79 C62 0.932 . S
C80 C81 1.264 . S
C80 C85 1.479 . S
C80 C90 1.465 . S
C81 C80 1.264 . S
C81 C83 1.339 . S
C81 H108 0.931 . S
C82 C83 1.395 . S
C82 C84 1.320 . S
C83 C81 1.339 . S
C83 C82 1.395 . S
C83 H109 0.929 . S
C84 C82 1.320 . S
C84 C85 1.405 . S
C84 H110 0.930 . S
C85 C80 1.479 . S
C85 C84 1.405 . S
C85 H111 0.931 . S
U86 O87 2.454 . S
U86 O88 2.458 . S
U86 C89 2.984 . S
U86 C90 2.847 . S
U86 C103 2.882 . S
U86 O104 2.441 . S
U86 O105 2.420 . S
U86 O106 2.455 . S
U86 O107 2.449 . S
O87 U86 2.454 . S
O87 C89 1.353 . S
O88 U86 2.458 . S
O88 C89 1.286 . S
C89 U86 2.984 . S
C89 O87 1.353 . S
C89 O88 1.286 . S
C89 C91 1.363 . S
C90 C80 1.465 . S
C90 U86 2.847 . S
C90 O104 1.249 . S
C90 O105 1.202 . S
C91 C89 1.363 . S
C91 C93 1.408 . S
C91 C96 1.342 . S
C92 C93 1.310 . S
C92 C95 1.461 . S
C92 H112 0.932 . S
C93 C91 1.408 . S
C93 C92 1.310 . S
C93 H113 0.930 . S
C94 C95 1.474 . S
C94 C96 1.285 . S
C94 H114 0.929 . S
C95 C92 1.461 . S
C95 C94 1.474 . S
C96 C91 1.342 . S
C96 C94 1.285 . S
C96 H115 0.930 . S
C97 C100 1.424 . S
C97 C102 1.245 . S
C97 C103 1.428 . S
C98 C101 1.260 . S
C98 C102 1.477 . S
C98 H116 0.932 . S
C99 C100 1.384 . S
C99 C101 1.479 . S
C99 H117 0.929 . S
C100 C97 1.424 . S
C100 C99 1.384 . S
C100 H118 0.928 . S
C101 C98 1.260 . S
C101 C99 1.479 . S
C102 C97 1.245 . S
C102 C98 1.477 . S
C102 H119 0.932 . S
C103 U86 2.882 . S
C103 C97 1.428 . S
C103 O106 1.301 . S
C103 O107 1.282 . S
O104 U86 2.441 . S
O104 C90 1.249 . S
O105 U86 2.420 . S
O105 C90 1.202 . S
O106 U86 2.455 . S
O106 C103 1.301 . S
O107 U86 2.449 . S
O107 C103 1.282 . S
H108 C81 0.931 . S
H109 C83 0.929 . S
H110 C84 0.930 . S
H111 C85 0.931 . S
H112 C92 0.932 . S
H113 C93 0.930 . S
H114 C94 0.929 . S
H115 C96 0.930 . S
H116 C98 0.932 . S
H117 C99 0.929 . S
H118 C100 0.928 . S
H119 C102 0.932 . S
C120 C121 1.264 . S
C120 C125 1.479 . S
C120 C130 1.465 . S
C121 C120 1.264 . S
C121 C123 1.339 . S
C121 H148 0.931 . S
C122 C123 1.395 . S
C122 C124 1.320 . S
C123 C121 1.339 . S
C123 C122 1.395 . S
C123 H149 0.929 . S
C124 C122 1.320 . S
C124 C125 1.405 . S
C124 H150 0.930 . S
C125 C120 1.479 . S
C125 C124 1.405 . S
C125 H151 0.931 . S
U126 O127 2.454 1_545 S
U126 O128 2.458 1_545 S
U126 C129 2.984 1_545 S
U126 C130 2.847 . S
U126 C143 2.882 . S
U126 O144 2.441 . S
U126 O145 2.420 . S
U126 O146 2.455 1_545 S
U126 O147 2.449 . S
O127 U126 2.454 1_565 S
O127 C129 1.353 . S
O128 U126 2.458 1_565 S
O128 C129 1.286 . S
C129 U126 2.984 1_565 S
C129 O127 1.353 . S
C129 O128 1.286 . S
C129 C131 1.363 . S
C130 C120 1.465 . S
C130 U126 2.847 . S
C130 O144 1.249 . S
C130 O145 1.202 . S
C131 C129 1.363 . S
C131 C133 1.408 . S
C131 C136 1.342 . S
C132 C133 1.310 . S
C132 C135 1.461 . S
C132 H152 0.932 . S
C133 C131 1.408 . S
C133 C132 1.310 . S
C133 H153 0.930 . S
C134 C135 1.474 . S
C134 C136 1.285 . S
C134 H154 0.929 . S
C135 C132 1.461 . S
C135 C134 1.474 . S
C136 C131 1.342 . S
C136 C134 1.285 . S
C136 H155 0.930 . S
C137 C140 1.424 . S
C137 C142 1.245 1_545 S
C137 C143 1.428 . S
C138 C141 1.260 1_565 S
C138 C142 1.477 . S
C138 H156 0.932 . S
C139 C140 1.384 . S
C139 C141 1.479 . S
C139 H157 0.929 . S
C140 C137 1.424 . S
C140 C139 1.384 . S
C140 H158 0.928 . S
C141 C138 1.260 1_545 S
C141 C139 1.479 . S
C142 C137 1.245 1_565 S
C142 C138 1.477 . S
C142 H159 0.932 . S
C143 U126 2.882 . S
C143 C137 1.428 . S
C143 O146 1.301 1_545 S
C143 O147 1.282 . S
O144 U126 2.441 . S
O144 C130 1.249 . S
O145 U126 2.420 . S
O145 C130 1.202 . S
O146 U126 2.455 1_565 S
O146 C143 1.301 1_565 S
O147 U126 2.449 . S
O147 C143 1.282 . S
H148 C121 0.931 . S
H149 C123 0.929 . S
H150 C124 0.930 . S
H151 C125 0.931 . S
H152 C132 0.932 . S
H153 C133 0.930 . S
H154 C134 0.929 . S
H155 C136 0.930 . S
H156 C138 0.932 . S
H157 C139 0.929 . S
H158 C140 0.928 . S
H159 C142 0.932 . S
C160 C161 1.222 1_655 S
C160 C165 1.518 . S
C160 C170 1.476 . S
C161 C160 1.222 1_455 S
C161 C163 1.339 . S
C161 H188 0.931 . S
C162 C163 1.395 . S
C162 C164 1.320 1_455 S
C163 C161 1.339 . S
C163 C162 1.395 . S
C163 H189 0.929 . S
C164 C162 1.320 1_655 S
C164 C165 1.405 . S
C164 H190 0.930 . S
C165 C160 1.518 . S
C165 C164 1.405 . S
C165 H191 0.931 . S
U166 O167 2.454 . S
U166 O168 2.458 . S
U166 C169 2.984 . S
U166 C170 2.847 . S
U166 C183 2.882 1_655 S
U166 O184 2.441 . S
U166 O185 2.420 1_655 S
U166 O186 2.455 1_655 S
U166 O187 2.449 1_655 S
O167 U166 2.454 . S
O167 C169 1.353 . S
O168 U166 2.458 . S
O168 C169 1.286 . S
C169 U166 2.984 . S
C169 O167 1.353 . S
C169 O168 1.286 . S
C169 C171 1.363 . S
C170 C160 1.476 . S
C170 U166 2.847 . S
C170 O184 1.249 . S
C170 O185 1.202 1_655 S
C171 C169 1.363 . S
C171 C173 1.408 . S
C171 C176 1.342 . S
C172 C173 1.310 . S
C172 C175 1.461 . S
C172 H192 0.932 . S
C173 C171 1.408 . S
C173 C172 1.310 . S
C173 H193 0.930 . S
C174 C175 1.474 . S
C174 C176 1.285 . S
C174 H194 0.929 . S
C175 C172 1.461 . S
C175 C174 1.474 . S
C176 C171 1.342 . S
C176 C174 1.285 . S
C176 H195 0.930 . S
C177 C180 1.424 . S
C177 C182 1.245 . S
C177 C183 1.428 . S
C178 C181 1.260 . S
C178 C182 1.477 . S
C178 H196 0.932 . S
C179 C180 1.384 . S
C179 C181 1.479 . S
C179 H197 0.929 . S
C180 C177 1.424 . S
C180 C179 1.384 . S
C180 H198 0.928 . S
C181 C178 1.260 . S
C181 C179 1.479 . S
C182 C177 1.245 . S
C182 C178 1.477 . S
C182 H199 0.932 . S
C183 U166 2.882 1_455 S
C183 C177 1.428 . S
C183 O186 1.301 . S
C183 O187 1.282 . S
O184 U166 2.441 . S
O184 C170 1.249 . S
O185 U166 2.420 1_455 S
O185 C170 1.202 1_455 S
O186 U166 2.455 1_455 S
O186 C183 1.301 . S
O187 U166 2.449 1_455 S
O187 C183 1.282 . S
H188 C161 0.931 . S
H189 C163 0.929 . S
H190 C164 0.930 . S
H191 C165 0.931 . S
H192 C172 0.932 . S
H193 C173 0.930 . S
H194 C174 0.929 . S
H195 C176 0.930 . S
H196 C178 0.932 . S
H197 C179 0.929 . S
H198 C180 0.928 . S
H199 C182 0.932 . S
C200 C201 1.264 . S
C200 C205 1.479 . S
C200 C210 1.465 . S
C201 C200 1.264 . S
C201 C203 1.339 . S
C201 H228 0.931 . S
C202 C203 1.395 . S
C202 C204 1.320 . S
C203 C201 1.339 . S
C203 C202 1.395 . S
C203 H229 0.929 . S
C204 C202 1.320 . S
C204 C205 1.405 . S
C204 H230 0.930 . S
C205 C200 1.479 . S
C205 C204 1.405 . S
C205 H231 0.931 . S
U206 O207 2.454 . S
U206 O208 2.458 . S
U206 C209 2.984 . S
U206 C210 2.847 . S
U206 C223 2.882 . S
U206 O224 2.441 . S
U206 O225 2.420 . S
U206 O226 2.455 . S
U206 O227 2.449 . S
O207 U206 2.454 . S
O207 C209 1.353 . S
O208 U206 2.458 . S
O208 C209 1.286 . S
C209 U206 2.984 . S
C209 O207 1.353 . S
C209 O208 1.286 . S
C209 C211 1.363 . S
C210 C200 1.465 . S
C210 U206 2.847 . S
C210 O224 1.249 . S
C210 O225 1.202 . S
C211 C209 1.363 . S
C211 C213 1.408 . S
C211 C216 1.342 . S
C212 C213 1.310 . S
C212 C215 1.461 . S
C212 H232 0.932 . S
C213 C211 1.408 . S
C213 C212 1.310 . S
C213 H233 0.930 . S
C214 C215 1.474 . S
C214 C216 1.285 . S
C214 H234 0.929 . S
C215 C212 1.461 . S
C215 C214 1.474 . S
C216 C211 1.342 . S
C216 C214 1.285 . S
C216 H235 0.930 . S
C217 C220 1.424 . S
C217 C222 1.245 . S
C217 C223 1.428 . S
C218 C221 1.260 . S
C218 C222 1.477 . S
C218 H236 0.932 . S
C219 C220 1.384 . S
C219 C221 1.479 . S
C219 H237 0.929 . S
C220 C217 1.424 . S
C220 C219 1.384 . S
C220 H238 0.928 . S
C221 C218 1.260 . S
C221 C219 1.479 . S
C222 C217 1.245 . S
C222 C218 1.477 . S
C222 H239 0.932 . S
C223 U206 2.882 . S
C223 C217 1.428 . S
C223 O226 1.301 . S
C223 O227 1.282 . S
O224 U206 2.441 . S
O224 C210 1.249 . S
O225 U206 2.420 . S
O225 C210 1.202 . S
O226 U206 2.455 . S
O226 C223 1.301 . S
O227 U206 2.449 . S
O227 C223 1.282 . S
H228 C201 0.931 . S
H229 C203 0.929 . S
H230 C204 0.930 . S
H231 C205 0.931 . S
H232 C212 0.932 . S
H233 C213 0.930 . S
H234 C214 0.929 . S
H235 C216 0.930 . S
H236 C218 0.932 . S
H237 C219 0.929 . S
H238 C220 0.928 . S
H239 C222 0.932 . S
C240 C241 1.264 . S
C240 C245 1.479 . S
C240 C250 1.465 . S
C241 C240 1.264 . S
C241 C243 1.339 . S
C241 H268 0.931 . S
C242 C243 1.395 . S
C242 C244 1.320 . S
C243 C241 1.339 . S
C243 C242 1.395 . S
C243 H269 0.929 . S
C244 C242 1.320 . S
C244 C245 1.405 . S
C244 H270 0.930 . S
C245 C240 1.479 . S
C245 C244 1.405 . S
C245 H271 0.931 . S
U246 O247 2.454 . S
U246 O248 2.458 . S
U246 C249 2.984 . S
U246 C250 2.847 . S
U246 C263 2.882 . S
U246 O264 2.441 . S
U246 O265 2.420 . S
U246 O266 2.455 . S
U246 O267 2.449 . S
O247 U246 2.454 . S
O247 C249 1.353 . S
O248 U246 2.458 . S
O248 C249 1.286 . S
C249 U246 2.984 . S
C249 O247 1.353 . S
C249 O248 1.286 . S
C249 C251 1.363 . S
C250 C240 1.465 . S
C250 U246 2.847 . S
C250 O264 1.249 . S
C250 O265 1.202 . S
C251 C249 1.363 . S
C251 C253 1.408 . S
C251 C256 1.342 . S
C252 C253 1.310 . S
C252 C255 1.461 . S
C252 H272 0.932 . S
C253 C251 1.408 . S
C253 C252 1.310 . S
C253 H273 0.930 . S
C254 C255 1.474 . S
C254 C256 1.285 . S
C254 H274 0.929 . S
C255 C252 1.461 . S
C255 C254 1.474 . S
C256 C251 1.342 . S
C256 C254 1.285 . S
C256 H275 0.930 . S
C257 C260 1.424 . S
C257 C262 1.245 . S
C257 C263 1.428 . S
C258 C261 1.260 . S
C258 C262 1.477 . S
C258 H276 0.932 . S
C259 C260 1.384 . S
C259 C261 1.479 . S
C259 H277 0.929 . S
C260 C257 1.424 . S
C260 C259 1.384 . S
C260 H278 0.928 . S
C261 C258 1.260 . S
C261 C259 1.479 . S
C262 C257 1.245 . S
C262 C258 1.477 . S
C262 H279 0.932 . S
C263 U246 2.882 . S
C263 C257 1.428 . S
C263 O266 1.301 . S
C263 O267 1.282 . S
O264 U246 2.441 . S
O264 C250 1.249 . S
O265 U246 2.420 . S
O265 C250 1.202 . S
O266 U246 2.455 . S
O266 C263 1.301 . S
O267 U246 2.449 . S
O267 C263 1.282 . S
H268 C241 0.931 . S
H269 C243 0.929 . S
H270 C244 0.930 . S
H271 C245 0.931 . S
H272 C252 0.932 . S
H273 C253 0.930 . S
H274 C254 0.929 . S
H275 C256 0.930 . S
H276 C258 0.932 . S
H277 C259 0.929 . S
H278 C260 0.928 . S
H279 C262 0.932 . S
C280 C281 1.264 . S
C280 C285 1.479 . S
C280 C290 1.465 . S
C281 C280 1.264 . S
C281 C283 1.339 . S
C281 H308 0.931 1_545 S
C282 C283 1.395 . S
C282 C284 1.320 . S
C283 C281 1.339 . S
C283 C282 1.395 . S
C283 H309 0.929 1_545 S
C284 C282 1.320 . S
C284 C285 1.405 . S
C284 H310 0.930 . S
C285 C280 1.479 . S
C285 C284 1.405 . S
C285 H311 0.931 . S
U286 O287 2.454 . S
U286 O288 2.458 . S
U286 C289 2.984 . S
U286 C290 2.847 . S
U286 C303 2.882 1_545 S
U286 O304 2.441 . S
U286 O305 2.420 . S
U286 O306 2.455 . S
U286 O307 2.449 1_545 S
O287 U286 2.454 . S
O287 C289 1.353 . S
O288 U286 2.458 . S
O288 C289 1.286 . S
C289 U286 2.984 . S
C289 O287 1.353 . S
C289 O288 1.286 . S
C289 C291 1.363 . S
C290 C280 1.465 . S
C290 U286 2.847 . S
C290 O304 1.249 . S
C290 O305 1.202 . S
C291 C289 1.363 . S
C291 C293 1.408 . S
C291 C296 1.342 . S
C292 C293 1.310 . S
C292 C295 1.461 . S
C292 H312 0.932 . S
C293 C291 1.408 . S
C293 C292 1.310 . S
C293 H313 0.930 . S
C294 C295 1.474 . S
C294 C296 1.285 . S
C294 H314 0.929 . S
C295 C292 1.461 . S
C295 C294 1.474 . S
C296 C291 1.342 . S
C296 C294 1.285 . S
C296 H315 0.930 . S
C297 C300 1.424 . S
C297 C302 1.245 . S
C297 C303 1.428 . S
C298 C301 1.260 . S
C298 C302 1.477 . S
C298 H316 0.932 . S
C299 C300 1.384 . S
C299 C301 1.479 . S
C299 H317 0.929 . S
C300 C297 1.424 . S
C300 C299 1.384 . S
C300 H318 0.928 . S
C301 C298 1.260 . S
C301 C299 1.479 . S
C302 C297 1.245 . S
C302 C298 1.477 . S
C302 H319 0.932 . S
C303 U286 2.882 1_565 S
C303 C297 1.428 . S
C303 O306 1.301 1_565 S
C303 O307 1.282 . S
O304 U286 2.441 . S
O304 C290 1.249 . S
O305 U286 2.420 . S
O305 C290 1.202 . S
O306 U286 2.455 . S
O306 C303 1.301 1_545 S
O307 U286 2.449 1_565 S
O307 C303 1.282 . S
H308 C281 0.931 1_565 S
H309 C283 0.929 1_565 S
H310 C284 0.930 . S
H311 C285 0.931 . S
H312 C292 0.932 . S
H313 C293 0.930 . S
H314 C294 0.929 . S
H315 C296 0.930 . S
H316 C298 0.932 . S
H317 C299 0.929 . S
H318 C300 0.928 . S
H319 C302 0.932 . S
C320 C321 1.264 . S
C320 C325 1.479 . S
C320 C330 1.465 . S
C321 C320 1.264 . S
C321 C323 1.339 . S
C321 H348 0.931 . S
C322 C323 1.395 . S
C322 C324 1.320 . S
C323 C321 1.339 . S
C323 C322 1.395 . S
C323 H349 0.929 . S
C324 C322 1.320 . S
C324 C325 1.405 . S
C324 H350 0.930 . S
C325 C320 1.479 . S
C325 C324 1.405 . S
C325 H351 0.931 . S
U326 O327 2.454 . S
U326 O328 2.458 . S
U326 C329 2.984 . S
U326 C330 2.847 1_554 S
U326 C343 2.881 1_554 S
U326 O344 2.441 1_554 S
U326 O345 2.420 1_554 S
U326 O346 2.455 . S
U326 O347 2.449 1_554 S
O327 U326 2.454 . S
O327 C329 1.353 . S
O328 U326 2.458 . S
O328 C329 1.286 . S
C329 U326 2.984 . S
C329 O327 1.353 . S
C329 O328 1.286 . S
C329 C331 1.363 . S
C330 C320 1.465 . S
C330 U326 2.847 1_556 S
C330 O344 1.249 . S
C330 O345 1.202 . S
C331 C329 1.363 . S
C331 C333 1.408 . S
C331 C336 1.342 . S
C332 C333 1.310 . S
C332 C335 1.461 . S
C332 H352 0.932 . S
C333 C331 1.408 . S
C333 C332 1.310 . S
C333 H353 0.930 . S
C334 C335 1.474 . S
C334 C336 1.285 . S
C334 H354 0.929 . S
C335 C332 1.461 . S
C335 C334 1.474 . S
C336 C331 1.342 . S
C336 C334 1.285 . S
C336 H355 0.930 . S
C337 C340 1.398 1_554 S
C337 C342 1.276 . S
C337 C343 1.425 1_554 S
C338 C341 1.260 . S
C338 C342 1.477 . S
C338 H356 0.932 . S
C339 C340 1.384 . S
C339 C341 1.479 1_556 S
C339 H357 0.929 . S
C340 C337 1.398 1_556 S
C340 C339 1.384 . S
C340 H358 0.928 . S
C341 C338 1.260 . S
C341 C339 1.479 1_554 S
C342 C337 1.276 . S
C342 C338 1.477 . S
C342 H359 0.932 . S
C343 U326 2.881 1_556 S
C343 C337 1.425 1_556 S
C343 O346 1.282 1_556 S
C343 O347 1.303 . S
O344 U326 2.441 1_556 S
O344 C330 1.249 . S
O345 U326 2.420 1_556 S
O345 C330 1.202 . S
O346 U326 2.455 . S
O346 C343 1.282 1_554 S
O347 U326 2.449 1_556 S
O347 C343 1.303 . S
H348 C321 0.931 . S
H349 C323 0.929 . S
H350 C324 0.930 . S
H351 C325 0.931 . S
H352 C332 0.932 . S
H353 C333 0.930 . S
H354 C334 0.929 . S
H355 C336 0.930 . S
H356 C338 0.932 . S
H357 C339 0.929 . S
H358 C340 0.928 . S
H359 C342 0.932 . S
C360 C361 1.264 . S
C360 C365 1.479 . S
C360 C370 1.465 . S
C361 C360 1.264 . S
C361 C363 1.339 . S
C361 H388 0.931 . S
C362 C363 1.395 . S
C362 C364 1.320 . S
C363 C361 1.339 . S
C363 C362 1.395 . S
C363 H389 0.929 . S
C364 C362 1.320 . S
C364 C365 1.405 . S
C364 H390 0.930 . S
C365 C360 1.479 . S
C365 C364 1.405 . S
C365 H391 0.931 . S
U366 O367 2.454 . S
U366 O368 2.458 . S
U366 C369 2.984 . S
U366 C370 2.847 . S
U366 C383 2.882 . S
U366 O384 2.441 . S
U366 O385 2.420 . S
U366 O386 2.455 . S
U366 O387 2.449 . S
O367 U366 2.454 . S
O367 C369 1.353 . S
O368 U366 2.458 . S
O368 C369 1.286 . S
C369 U366 2.984 . S
C369 O367 1.353 . S
C369 O368 1.286 . S
C369 C371 1.363 . S
C370 C360 1.465 . S
C370 U366 2.847 . S
C370 O384 1.249 . S
C370 O385 1.202 . S
C371 C369 1.363 . S
C371 C373 1.408 . S
C371 C376 1.342 . S
C372 C373 1.310 . S
C372 C375 1.461 . S
C372 H392 0.932 . S
C373 C371 1.408 . S
C373 C372 1.310 . S
C373 H393 0.930 . S
C374 C375 1.474 . S
C374 C376 1.285 . S
C374 H394 0.929 . S
C375 C372 1.461 . S
C375 C374 1.474 . S
C376 C371 1.342 . S
C376 C374 1.285 . S
C376 H395 0.930 . S
C377 C380 1.424 . S
C377 C382 1.245 . S
C377 C383 1.428 . S
C378 C381 1.260 . S
C378 C382 1.477 . S
C378 H396 0.932 . S
C379 C380 1.384 . S
C379 C381 1.479 . S
C379 H397 0.929 . S
C380 C377 1.424 . S
C380 C379 1.384 . S
C380 H398 0.928 . S
C381 C378 1.260 . S
C381 C379 1.479 . S
C382 C377 1.245 . S
C382 C378 1.477 . S
C382 H399 0.932 . S
C383 U366 2.882 . S
C383 C377 1.428 . S
C383 O386 1.301 . S
C383 O387 1.282 . S
O384 U366 2.441 . S
O384 C370 1.249 . S
O385 U366 2.420 . S
O385 C370 1.202 . S
O386 U366 2.455 . S
O386 C383 1.301 . S
O387 U366 2.449 . S
O387 C383 1.282 . S
H388 C361 0.931 . S
H389 C363 0.929 . S
H390 C364 0.930 . S
H391 C365 0.931 . S
H392 C372 0.932 . S
H393 C373 0.930 . S
H394 C374 0.929 . S
H395 C376 0.930 . S
H396 C378 0.932 . S
H397 C379 0.929 . S
H398 C380 0.928 . S
H399 C382 0.932 . S
C400 C401 1.264 . S
C400 C405 1.479 . S
C400 C410 1.465 . S
C401 C400 1.264 . S
C401 C403 1.339 . S
C401 H428 0.931 . S
C402 C403 1.395 . S
C402 C404 1.320 . S
C403 C401 1.339 . S
C403 C402 1.395 . S
C403 H429 0.929 . S
C404 C402 1.320 . S
C404 C405 1.405 . S
C404 H430 0.930 . S
C405 C400 1.479 . S
C405 C404 1.405 . S
C405 H431 0.931 . S
U406 O407 2.454 . S
U406 O408 2.458 . S
U406 C409 2.984 . S
U406 C410 2.847 . S
U406 C423 2.882 . S
U406 O424 2.441 . S
U406 O425 2.420 . S
U406 O426 2.455 . S
U406 O427 2.449 . S
O407 U406 2.454 . S
O407 C409 1.353 . S
O408 U406 2.458 . S
O408 C409 1.286 . S
C409 U406 2.984 . S
C409 O407 1.353 . S
C409 O408 1.286 . S
C409 C411 1.363 . S
C410 C400 1.465 . S
C410 U406 2.847 . S
C410 O424 1.249 . S
C410 O425 1.202 . S
C411 C409 1.363 . S
C411 C413 1.408 . S
C411 C416 1.342 . S
C412 C413 1.310 . S
C412 C415 1.461 . S
C412 H432 0.932 . S
C413 C411 1.408 . S
C413 C412 1.310 . S
C413 H433 0.930 . S
C414 C415 1.474 . S
C414 C416 1.285 . S
C414 H434 0.929 . S
C415 C412 1.461 . S
C415 C414 1.474 . S
C416 C411 1.342 . S
C416 C414 1.285 . S
C416 H435 0.930 . S
C417 C420 1.424 . S
C417 C422 1.245 . S
C417 C423 1.428 . S
C418 C421 1.260 . S
C418 C422 1.477 . S
C418 H436 0.932 . S
C419 C420 1.384 . S
C419 C421 1.479 . S
C419 H437 0.929 . S
C420 C417 1.424 . S
C420 C419 1.384 . S
C420 H438 0.928 . S
C421 C418 1.260 . S
C421 C419 1.479 . S
C422 C417 1.245 . S
C422 C418 1.477 . S
C422 H439 0.932 . S
C423 U406 2.882 . S
C423 C417 1.428 . S
C423 O426 1.301 . S
C423 O427 1.282 . S
O424 U406 2.441 . S
O424 C410 1.249 . S
O425 U406 2.420 . S
O425 C410 1.202 . S
O426 U406 2.455 . S
O426 C423 1.301 . S
O427 U406 2.449 . S
O427 C423 1.282 . S
H428 C401 0.931 . S
H429 C403 0.929 . S
H430 C404 0.930 . S
H431 C405 0.931 . S
H432 C412 0.932 . S
H433 C413 0.930 . S
H434 C414 0.929 . S
H435 C416 0.930 . S
H436 C418 0.932 . S
H437 C419 0.929 . S
H438 C420 0.928 . S
H439 C422 0.932 . S
C440 C441 1.264 . S
C440 C445 1.479 . S
C440 C450 1.465 . S
C441 C440 1.264 . S
C441 C443 1.339 1_554 S
C441 H468 0.931 1_554 S
C442 C443 1.395 1_554 S
C442 C444 1.320 . S
C443 C441 1.339 1_556 S
C443 C442 1.395 1_556 S
C443 H469 0.929 . S
C444 C442 1.320 . S
C444 C445 1.405 . S
C444 H470 0.930 . S
C445 C440 1.479 . S
C445 C444 1.405 . S
C445 H471 0.931 . S
U446 O447 2.454 . S
U446 O448 2.458 . S
U446 C449 2.984 . S
U446 C450 2.847 . S
U446 C463 2.882 1_554 S
U446 O464 2.441 . S
U446 O465 2.420 . S
U446 O466 2.469 . S
U446 O467 2.449 1_554 S
O447 U446 2.454 . S
O447 C449 1.353 . S
O448 U446 2.458 . S
O448 C449 1.286 . S
C449 U446 2.984 . S
C449 O447 1.353 . S
C449 O448 1.286 . S
C449 C451 1.363 . S
C450 C440 1.465 . S
C450 U446 2.847 . S
C450 O464 1.249 . S
C450 O465 1.202 . S
C451 C449 1.363 . S
C451 C453 1.408 . S
C451 C456 1.342 . S
C452 C453 1.310 . S
C452 C455 1.461 . S
C452 H472 0.932 . S
C453 C451 1.408 . S
C453 C452 1.310 . S
C453 H473 0.930 . S
C454 C455 1.474 . S
C454 C456 1.285 . S
C454 H474 0.929 . S
C455 C452 1.461 . S
C455 C454 1.474 . S
C456 C451 1.342 . S
C456 C454 1.285 . S
C456 H475 0.930 . S
C457 C460 1.424 . S
C457 C462 1.245 . S
C457 C463 1.428 . S
C458 C461 1.260 . S
C458 C462 1.477 . S
C458 H476 0.932 . S
C459 C460 1.384 . S
C459 C461 1.479 . S
C459 H477 0.929 . S
C460 C457 1.424 . S
C460 C459 1.384 . S
C460 H478 0.928 . S
C461 C458 1.260 . S
C461 C459 1.479 . S
C462 C457 1.245 . S
C462 C458 1.477 . S
C462 H479 0.932 . S
C463 U446 2.882 1_556 S
C463 C457 1.428 . S
C463 O466 1.278 1_556 S
C463 O467 1.282 . S
O464 U446 2.441 . S
O464 C450 1.249 . S
O465 U446 2.420 . S
O465 C450 1.202 . S
O466 U446 2.469 . S
O466 C463 1.278 1_554 S
O467 U446 2.449 1_556 S
O467 C463 1.282 . S
H468 C441 0.931 1_556 S
H469 C443 0.929 . S
H470 C444 0.930 . S
H471 C445 0.931 . S
H472 C452 0.932 . S
H473 C453 0.930 . S
H474 C454 0.929 . S
H475 C456 0.930 . S
H476 C458 0.932 . S
H477 C459 0.929 . S
H478 C460 0.928 . S
H479 C462 0.932 . S
C480 C481 1.264 . S
C480 C485 1.456 1_455 S
C480 C490 1.465 . S
C481 C480 1.264 . S
C481 C483 1.339 . S
C481 H508 0.931 . S
C482 C483 1.395 . S
C482 C484 1.271 1_455 S
C483 C481 1.339 . S
C483 C482 1.395 . S
C483 H509 0.929 . S
C484 C482 1.271 1_655 S
C484 C485 1.404 . S
C484 H510 0.984 . S
C485 C480 1.456 1_655 S
C485 C484 1.404 . S
C485 H511 0.952 . S
U486 O487 2.454 1_455 S
U486 O488 2.458 1_455 S
U486 C489 2.984 1_455 S
U486 C490 2.847 . S
U486 C503 2.882 . S
U486 O504 2.441 . S
U486 O505 2.420 . S
U486 O506 2.455 . S
U486 O507 2.449 . S
O487 U486 2.454 1_655 S
O487 C489 1.353 . S
O488 U486 2.458 1_655 S
O488 C489 1.286 . S
C489 U486 2.984 1_655 S
C489 O487 1.353 . S
C489 O488 1.286 . S
C489 C491 1.363 . S
C490 C480 1.465 . S
C490 U486 2.847 . S
C490 O504 1.249 . S
C490 O505 1.202 . S
C491 C489 1.363 . S
C491 C493 1.408 . S
C491 C496 1.342 . S
C492 C493 1.310 . S
C492 C495 1.461 . S
C492 H512 0.932 . S
C493 C491 1.408 . S
C493 C492 1.310 . S
C493 H513 0.930 . S
C494 C495 1.474 . S
C494 C496 1.285 . S
C494 H514 0.929 . S
C495 C492 1.461 . S
C495 C494 1.474 . S
C496 C491 1.342 . S
C496 C494 1.285 . S
C496 H515 0.930 . S
C497 C500 1.424 . S
C497 C502 1.245 . S
C497 C503 1.428 . S
C498 C501 1.260 . S
C498 C502 1.477 . S
C498 H516 0.932 . S
C499 C500 1.384 . S
C499 C501 1.479 . S
C499 H517 0.929 . S
C500 C497 1.424 . S
C500 C499 1.384 . S
C500 H518 0.928 . S
C501 C498 1.260 . S
C501 C499 1.479 . S
C502 C497 1.245 . S
C502 C498 1.477 . S
C502 H519 0.932 . S
C503 U486 2.882 . S
C503 C497 1.428 . S
C503 O506 1.301 . S
C503 O507 1.282 . S
O504 U486 2.441 . S
O504 C490 1.249 . S
O505 U486 2.420 . S
O505 C490 1.202 . S
O506 U486 2.455 . S
O506 C503 1.301 . S
O507 U486 2.449 . S
O507 C503 1.282 . S
H508 C481 0.931 . S
H509 C483 0.929 . S
H510 C484 0.984 . S
H511 C485 0.952 . S
H512 C492 0.932 . S
H513 C493 0.930 . S
H514 C494 0.929 . S
H515 C496 0.930 . S
H516 C498 0.932 . S
H517 C499 0.929 . S
H518 C500 0.928 . S
H519 C502 0.932 . S
C520 C521 1.264 . S
C520 C525 1.479 . S
C520 C530 1.465 . S
C521 C520 1.264 . S
C521 C523 1.339 . S
C521 H548 0.931 . S
C522 C523 1.395 . S
C522 C524 1.320 . S
C523 C521 1.339 . S
C523 C522 1.395 . S
C523 H549 0.929 . S
C524 C522 1.320 . S
C524 C525 1.405 . S
C524 H550 0.930 . S
C525 C520 1.479 . S
C525 C524 1.405 . S
C525 H551 0.931 . S
U526 O527 2.454 . S
U526 O528 2.458 . S
U526 C529 2.984 . S
U526 C530 2.847 . S
U526 C543 2.882 . S
U526 O544 2.441 . S
U526 O545 2.420 . S
U526 O546 2.455 . S
U526 O547 2.449 . S
O527 U526 2.454 . S
O527 C529 1.353 . S
O528 U526 2.458 . S
O528 C529 1.286 . S
C529 U526 2.984 . S
C529 O527 1.353 . S
C529 O528 1.286 . S
C529 C531 1.363 . S
C530 C520 1.465 . S
C530 U526 2.847 . S
C530 O544 1.249 . S
C530 O545 1.202 . S
C531 C529 1.363 . S
C531 C533 1.408 . S
C531 C536 1.342 . S
C532 C533 1.310 . S
C532 C535 1.461 . S
C532 H552 0.932 . S
C533 C531 1.408 . S
C533 C532 1.310 . S
C533 H553 0.930 . S
C534 C535 1.474 . S
C534 C536 1.285 . S
C534 H554 0.929 . S
C535 C532 1.461 . S
C535 C534 1.474 . S
C536 C531 1.342 . S
C536 C534 1.285 . S
C536 H555 0.930 . S
C537 C540 1.424 . S
C537 C542 1.245 . S
C537 C543 1.428 . S
C538 C541 1.260 . S
C538 C542 1.477 . S
C538 H556 0.932 . S
C539 C540 1.384 . S
C539 C541 1.479 . S
C539 H557 0.929 . S
C540 C537 1.424 . S
C540 C539 1.384 . S
C540 H558 0.928 . S
C541 C538 1.260 . S
C541 C539 1.479 . S
C542 C537 1.245 . S
C542 C538 1.477 . S
C542 H559 0.932 . S
C543 U526 2.882 . S
C543 C537 1.428 . S
C543 O546 1.301 . S
C543 O547 1.282 . S
O544 U526 2.441 . S
O544 C530 1.249 . S
O545 U526 2.420 . S
O545 C530 1.202 . S
O546 U526 2.455 . S
O546 C543 1.301 . S
O547 U526 2.449 . S
O547 C543 1.282 . S
H548 C521 0.931 . S
H549 C523 0.929 . S
H550 C524 0.930 . S
H551 C525 0.931 . S
H552 C532 0.932 . S
H553 C533 0.930 . S
H554 C534 0.929 . S
H555 C536 0.930 . S
H556 C538 0.932 . S
H557 C539 0.929 . S
H558 C540 0.928 . S
H559 C542 0.932 . S
C560 C561 1.264 . S
C560 C565 1.479 . S
C560 C570 1.465 . S
C561 C560 1.264 . S
C561 C563 1.339 . S
C561 H588 0.931 . S
C562 C563 1.395 . S
C562 C564 1.320 . S
C563 C561 1.339 . S
C563 C562 1.395 . S
C563 H589 0.929 . S
C564 C562 1.320 . S
C564 C565 1.405 . S
C564 H590 0.930 . S
C565 C560 1.479 . S
C565 C564 1.405 . S
C565 H591 0.931 . S
U566 O567 2.454 . S
U566 O568 2.458 . S
U566 C569 2.984 . S
U566 C570 2.847 . S
U566 C583 2.882 . S
U566 O584 2.441 . S
U566 O585 2.420 . S
U566 O586 2.455 . S
U566 O587 2.449 . S
O567 U566 2.454 . S
O567 C569 1.353 . S
O568 U566 2.458 . S
O568 C569 1.286 . S
C569 U566 2.984 . S
C569 O567 1.353 . S
C569 O568 1.286 . S
C569 C571 1.363 . S
C570 C560 1.465 . S
C570 U566 2.847 . S
C570 O584 1.249 . S
C570 O585 1.202 . S
C571 C569 1.363 . S
C571 C573 1.408 . S
C571 C576 1.342 . S
C572 C573 1.310 . S
C572 C575 1.461 . S
C572 H592 0.932 . S
C573 C571 1.408 . S
C573 C572 1.310 . S
C573 H593 0.930 . S
C574 C575 1.474 . S
C574 C576 1.285 . S
C574 H594 0.929 . S
C575 C572 1.461 . S
C575 C574 1.474 . S
C576 C571 1.342 . S
C576 C574 1.285 . S
C576 H595 0.930 . S
C577 C580 1.424 . S
C577 C582 1.245 . S
C577 C583 1.428 . S
C578 C581 1.260 . S
C578 C582 1.477 . S
C578 H596 0.932 . S
C579 C580 1.384 . S
C579 C581 1.479 . S
C579 H597 0.929 . S
C580 C577 1.424 . S
C580 C579 1.384 . S
C580 H598 0.928 . S
C581 C578 1.260 . S
C581 C579 1.479 . S
C582 C577 1.245 . S
C582 C578 1.477 . S
C582 H599 0.932 . S
C583 U566 2.882 . S
C583 C577 1.428 . S
C583 O586 1.301 . S
C583 O587 1.282 . S
O584 U566 2.441 . S
O584 C570 1.249 . S
O585 U566 2.420 . S
O585 C570 1.202 . S
O586 U566 2.455 . S
O586 C583 1.301 . S
O587 U566 2.449 . S
O587 C583 1.282 . S
H588 C561 0.931 . S
H589 C563 0.929 . S
H590 C564 0.930 . S
H591 C565 0.931 . S
H592 C572 0.932 . S
H593 C573 0.930 . S
H594 C574 0.929 . S
H595 C576 0.930 . S
H596 C578 0.932 . S
H597 C579 0.929 . S
H598 C580 0.928 . S
H599 C582 0.932 . S
C600 C601 1.264 . S
C600 C605 1.479 1_545 S
C600 C610 1.465 . S
C601 C600 1.264 . S
C601 C603 1.339 . S
C601 H628 0.931 . S
C602 C603 1.395 . S
C602 C604 1.320 1_545 S
C603 C601 1.339 . S
C603 C602 1.395 . S
C603 H629 0.929 . S
C604 C602 1.320 1_565 S
C604 C605 1.405 . S
C604 H630 0.930 . S
C605 C600 1.479 1_565 S
C605 C604 1.405 . S
C605 H631 0.931 . S
U606 O607 2.454 1_545 S
U606 O608 2.458 1_545 S
U606 C609 2.984 1_545 S
U606 C610 2.847 . S
U606 C623 2.882 . S
U606 O624 2.441 1_545 S
U606 O625 2.420 . S
U606 O626 2.455 . S
U606 O627 2.449 . S
O607 U606 2.454 1_565 S
O607 C609 1.353 . S
O608 U606 2.458 1_565 S
O608 C609 1.286 . S
C609 U606 2.984 1_565 S
C609 O607 1.353 . S
C609 O608 1.286 . S
C609 C611 1.363 . S
C610 C600 1.465 . S
C610 U606 2.847 . S
C610 O624 1.249 1_545 S
C610 O625 1.202 . S
C611 C609 1.363 . S
C611 C613 1.408 . S
C611 C616 1.342 . S
C612 C613 1.310 . S
C612 C615 1.461 . S
C612 H632 0.932 . S
C613 C611 1.408 . S
C613 C612 1.310 . S
C613 H633 0.930 . S
C614 C615 1.474 . S
C614 C616 1.285 . S
C614 H634 0.929 . S
C615 C612 1.461 . S
C615 C614 1.474 . S
C616 C611 1.342 . S
C616 C614 1.285 . S
C616 H635 0.930 . S
C617 C620 1.424 . S
C617 C622 1.245 . S
C617 C623 1.428 . S
C618 C621 1.260 . S
C618 C622 1.477 . S
C618 H636 0.932 . S
C619 C620 1.384 . S
C619 C621 1.479 . S
C619 H637 0.929 . S
C620 C617 1.424 . S
C620 C619 1.384 . S
C620 H638 0.928 . S
C621 C618 1.260 . S
C621 C619 1.479 . S
C622 C617 1.245 . S
C622 C618 1.477 . S
C622 H639 0.932 . S
C623 U606 2.882 . S
C623 C617 1.428 . S
C623 O626 1.301 . S
C623 O627 1.282 . S
O624 U606 2.441 1_565 S
O624 C610 1.249 1_565 S
O625 U606 2.420 . S
O625 C610 1.202 . S
O626 U606 2.455 . S
O626 C623 1.301 . S
O627 U606 2.449 . S
O627 C623 1.282 . S
H628 C601 0.931 . S
H629 C603 0.929 . S
H630 C604 0.930 . S
H631 C605 0.931 . S
H632 C612 0.932 . S
H633 C613 0.930 . S
H634 C614 0.929 . S
H635 C616 0.930 . S
H636 C618 0.932 . S
H637 C619 0.929 . S
H638 C620 0.928 . S
H639 C622 0.932 . S
C640 C641 1.264 . S
C640 C645 1.457 1_455 S
C640 C650 1.465 . S
C641 C640 1.264 . S
C641 C643 1.339 . S
C641 H668 0.931 . S
C642 C643 1.395 . S
C642 C644 1.273 1_455 S
C643 C641 1.339 . S
C643 C642 1.395 . S
C643 H669 0.929 . S
C644 C642 1.273 1_655 S
C644 C645 1.404 . S
C644 H670 0.982 . S
C645 C640 1.457 1_655 S
C645 C644 1.404 . S
C645 H671 0.951 . S
U646 O647 2.454 1_455 S
U646 O648 2.458 1_455 S
U646 C649 2.984 1_455 S
U646 C650 2.847 . S
U646 C663 2.882 . S
U646 O664 2.441 . S
U646 O665 2.420 . S
U646 O666 2.455 . S
U646 O667 2.449 . S
O647 U646 2.454 1_655 S
O647 C649 1.353 . S
O648 U646 2.458 1_655 S
O648 C649 1.286 . S
C649 U646 2.984 1_655 S
C649 O647 1.353 . S
C649 O648 1.286 . S
C649 C651 1.363 . S
C650 C640 1.465 . S
C650 U646 2.847 . S
C650 O664 1.249 . S
C650 O665 1.202 . S
C651 C649 1.363 . S
C651 C653 1.408 . S
C651 C656 1.342 . S
C652 C653 1.310 . S
C652 C655 1.461 . S
C652 H672 0.932 . S
C653 C651 1.408 . S
C653 C652 1.310 . S
C653 H673 0.930 . S
C654 C655 1.474 . S
C654 C656 1.285 . S
C654 H674 0.929 . S
C655 C652 1.461 . S
C655 C654 1.474 . S
C656 C651 1.342 . S
C656 C654 1.285 . S
C656 H675 0.930 . S
C657 C660 1.424 . S
C657 C662 1.245 . S
C657 C663 1.428 . S
C658 C661 1.260 . S
C658 C662 1.477 . S
C658 H676 0.932 . S
C659 C660 1.384 . S
C659 C661 1.479 . S
C659 H677 0.929 . S
C660 C657 1.424 . S
C660 C659 1.384 . S
C660 H678 0.928 . S
C661 C658 1.260 . S
C661 C659 1.479 . S
C662 C657 1.245 . S
C662 C658 1.477 . S
C662 H679 0.932 . S
C663 U646 2.882 . S
C663 C657 1.428 . S
C663 O666 1.301 . S
C663 O667 1.282 . S
O664 U646 2.441 . S
O664 C650 1.249 . S
O665 U646 2.420 . S
O665 C650 1.202 . S
O666 U646 2.455 . S
O666 C663 1.301 . S
O667 U646 2.449 . S
O667 C663 1.282 . S
H668 C641 0.931 . S
H669 C643 0.929 . S
H670 C644 0.982 . S
H671 C645 0.951 . S
H672 C652 0.932 . S
H673 C653 0.930 . S
H674 C654 0.929 . S
H675 C656 0.930 . S
H676 C658 0.932 . S
H677 C659 0.929 . S
H678 C660 0.928 . S
H679 C662 0.932 . S
C680 C681 1.264 . S
C680 C685 1.479 . S
C680 C690 1.465 . S
C681 C680 1.264 . S
C681 C683 1.339 . S
C681 H708 0.931 . S
C682 C683 1.395 . S
C682 C684 1.320 . S
C683 C681 1.339 . S
C683 C682 1.395 . S
C683 H709 0.929 . S
C684 C682 1.320 . S
C684 C685 1.405 . S
C684 H710 0.930 . S
C685 C680 1.479 . S
C685 C684 1.405 . S
C685 H711 0.931 . S
U686 O687 2.454 . S
U686 O688 2.458 . S
U686 C689 2.984 . S
U686 C690 2.847 . S
U686 C703 2.882 . S
U686 O704 2.441 . S
U686 O705 2.420 . S
U686 O706 2.455 . S
U686 O707 2.449 . S
O687 U686 2.454 . S
O687 C689 1.353 . S
O688 U686 2.458 . S
O688 C689 1.286 . S
C689 U686 2.984 . S
C689 O687 1.353 . S
C689 O688 1.286 . S
C689 C691 1.363 . S
C690 C680 1.465 . S
C690 U686 2.847 . S
C690 O704 1.249 . S
C690 O705 1.202 . S
C691 C689 1.363 . S
C691 C693 1.408 . S
C691 C696 1.342 . S
C692 C693 1.310 . S
C692 C695 1.461 . S
C692 H712 0.932 . S
C693 C691 1.408 . S
C693 C692 1.310 . S
C693 H713 0.930 . S
C694 C695 1.474 . S
C694 C696 1.285 . S
C694 H714 0.929 . S
C695 C692 1.461 . S
C695 C694 1.474 . S
C696 C691 1.342 . S
C696 C694 1.285 . S
C696 H715 0.930 . S
C697 C700 1.424 . S
C697 C702 1.245 . S
C697 C703 1.428 . S
C698 C701 1.260 . S
C698 C702 1.477 . S
C698 H716 0.932 . S
C699 C700 1.384 . S
C699 C701 1.479 . S
C699 H717 0.929 . S
C700 C697 1.424 . S
C700 C699 1.384 . S
C700 H718 0.928 . S
C701 C698 1.260 . S
C701 C699 1.479 . S
C702 C697 1.245 . S
C702 C698 1.477 . S
C702 H719 0.932 . S
C703 U686 2.882 . S
C703 C697 1.428 . S
C703 O706 1.301 . S
C703 O707 1.282 . S
O704 U686 2.441 . S
O704 C690 1.249 . S
O705 U686 2.420 . S
O705 C690 1.202 . S
O706 U686 2.455 . S
O706 C703 1.301 . S
O707 U686 2.449 . S
O707 C703 1.282 . S
H708 C681 0.931 . S
H709 C683 0.929 . S
H710 C684 0.930 . S
H711 C685 0.931 . S
H712 C692 0.932 . S
H713 C693 0.930 . S
H714 C694 0.929 . S
H715 C696 0.930 . S
H716 C698 0.932 . S
H717 C699 0.929 . S
H718 C700 0.928 . S
H719 C702 0.932 . S
C720 C721 1.264 . S
C720 C725 1.479 . S
C720 C730 1.465 . S
C721 C720 1.264 . S
C721 C723 1.339 . S
C721 H748 0.931 . S
C722 C723 1.395 . S
C722 C724 1.320 . S
C723 C721 1.339 . S
C723 C722 1.395 . S
C723 H749 0.929 . S
C724 C722 1.320 . S
C724 C725 1.405 . S
C724 H750 0.930 . S
C725 C720 1.479 . S
C725 C724 1.405 . S
C725 H751 0.931 . S
U726 O727 2.454 . S
U726 O728 2.458 . S
U726 C729 2.984 . S
U726 C730 2.847 . S
U726 C743 2.882 . S
U726 O744 2.441 . S
U726 O745 2.420 . S
U726 O746 2.455 . S
U726 O747 2.449 . S
O727 U726 2.454 . S
O727 C729 1.353 . S
O728 U726 2.458 . S
O728 C729 1.286 . S
C729 U726 2.984 . S
C729 O727 1.353 . S
C729 O728 1.286 . S
C729 C731 1.363 . S
C730 C720 1.465 . S
C730 U726 2.847 . S
C730 O744 1.249 . S
C730 O745 1.202 . S
C731 C729 1.363 . S
C731 C733 1.408 . S
C731 C736 1.342 . S
C732 C733 1.310 . S
C732 C735 1.461 . S
C732 H752 0.932 . S
C733 C731 1.408 . S
C733 C732 1.310 . S
C733 H753 0.930 . S
C734 C735 1.474 . S
C734 C736 1.285 . S
C734 H754 0.929 . S
C735 C732 1.461 . S
C735 C734 1.474 . S
C736 C731 1.342 . S
C736 C734 1.285 . S
C736 H755 0.930 . S
C737 C740 1.424 . S
C737 C742 1.245 . S
C737 C743 1.428 . S
C738 C741 1.260 . S
C738 C742 1.477 . S
C738 H756 0.932 . S
C739 C740 1.384 . S
C739 C741 1.479 . S
C739 H757 0.929 . S
C740 C737 1.424 . S
C740 C739 1.384 . S
C740 H758 0.928 . S
C741 C738 1.260 . S
C741 C739 1.479 . S
C742 C737 1.245 . S
C742 C738 1.477 . S
C742 H759 0.932 . S
C743 U726 2.882 . S
C743 C737 1.428 . S
C743 O746 1.301 . S
C743 O747 1.282 . S
O744 U726 2.441 . S
O744 C730 1.249 . S
O745 U726 2.420 . S
O745 C730 1.202 . S
O746 U726 2.455 . S
O746 C743 1.301 . S
O747 U726 2.449 . S
O747 C743 1.282 . S
H748 C721 0.931 . S
H749 C723 0.929 . S
H750 C724 0.930 . S
H751 C725 0.931 . S
H752 C732 0.932 . S
H753 C733 0.930 . S
H754 C734 0.929 . S
H755 C736 0.930 . S
H756 C738 0.932 . S
H757 C739 0.929 . S
H758 C740 0.928 . S
H759 C742 0.932 . S
C760 C761 1.264 . S
C760 C765 1.479 . S
C760 C770 1.465 . S
C761 C760 1.264 . S
C761 C763 1.339 . S
C761 H788 0.931 . S
C762 C763 1.395 . S
C762 C764 1.320 . S
C763 C761 1.339 . S
C763 C762 1.395 . S
C763 H789 0.929 . S
C764 C762 1.320 . S
C764 C765 1.405 . S
C764 H790 0.930 . S
C765 C760 1.479 . S
C765 C764 1.405 . S
C765 H791 0.931 . S
U766 O767 2.454 . S
U766 O768 2.458 . S
U766 C769 2.984 . S
U766 C770 2.847 1_545 S
U766 C783 2.882 . S
U766 O784 2.441 . S
U766 O785 2.420 1_545 S
U766 O786 2.455 . S
U766 O787 2.449 . S
O767 U766 2.454 . S
O767 C769 1.353 . S
O768 U766 2.458 . S
O768 C769 1.286 . S
C769 U766 2.984 . S
C769 O767 1.353 . S
C769 O768 1.286 . S
C769 C771 1.363 . S
C770 C760 1.465 . S
C770 U766 2.847 1_565 S
C770 O784 1.249 1_565 S
C770 O785 1.202 . S
C771 C769 1.363 . S
C771 C773 1.408 . S
C771 C776 1.342 . S
C772 C773 1.310 . S
C772 C775 1.461 . S
C772 H792 0.932 . S
C773 C771 1.408 . S
C773 C772 1.310 . S
C773 H793 0.930 . S
C774 C775 1.474 . S
C774 C776 1.285 . S
C774 H794 0.929 . S
C775 C772 1.461 . S
C775 C774 1.474 . S
C776 C771 1.342 . S
C776 C774 1.285 . S
C776 H795 0.930 . S
C777 C780 1.424 . S
C777 C782 1.245 . S
C777 C783 1.428 . S
C778 C781 1.260 . S
C778 C782 1.477 . S
C778 H796 0.932 . S
C779 C780 1.389 . S
C779 C781 1.502 . S
C779 H797 0.903 1_545 S
C780 C777 1.424 . S
C780 C779 1.389 . S
C780 H798 0.928 1_545 S
C781 C778 1.260 . S
C781 C779 1.502 . S
C782 C777 1.245 . S
C782 C778 1.477 . S
C782 H799 0.932 . S
C783 U766 2.882 . S
C783 C777 1.428 . S
C783 O786 1.301 . S
C783 O787 1.282 . S
O784 U766 2.441 . S
O784 C770 1.249 1_545 S
O785 U766 2.420 1_565 S
O785 C770 1.202 . S
O786 U766 2.455 . S
O786 C783 1.301 . S
O787 U766 2.449 . S
O787 C783 1.282 . S
H788 C761 0.931 . S
H789 C763 0.929 . S
H790 C764 0.930 . S
H791 C765 0.931 . S
H792 C772 0.932 . S
H793 C773 0.930 . S
H794 C774 0.929 . S
H795 C776 0.930 . S
H796 C778 0.932 . S
H797 C779 0.903 1_565 S
H798 C780 0.928 1_565 S
H799 C782 0.932 . S
C800 C801 1.279 . S
C800 C805 1.464 1_556 S
C800 C810 1.464 1_556 S
C801 C800 1.279 . S
C801 C803 1.339 . S
C801 H828 0.931 . S
C802 C803 1.395 1_554 S
C802 C804 1.320 . S
C803 C801 1.339 . S
C803 C802 1.395 1_556 S
C803 H829 0.929 . S
C804 C802 1.320 . S
C804 C805 1.405 . S
C804 H830 0.930 . S
C805 C800 1.464 1_554 S
C805 C804 1.405 . S
C805 H831 0.931 . S
U806 O807 2.511 . S
U806 O808 2.493 . S
U806 C809 3.034 . S
U806 C810 2.846 . S
U806 C823 2.837 1_554 S
U806 O824 2.464 . S
U806 O825 2.395 1_554 S
U806 O826 2.426 1_554 S
U806 O827 2.393 1_554 S
O807 U806 2.511 . S
O807 C809 1.353 . S
O808 U806 2.493 . S
O808 C809 1.286 . S
C809 U806 3.034 . S
C809 O807 1.353 . S
C809 O808 1.286 . S
C809 C811 1.363 . S
C810 C800 1.464 1_554 S
C810 U806 2.846 . S
C810 O824 1.256 . S
C810 O825 1.195 1_554 S
C811 C809 1.363 . S
C811 C813 1.408 . S
C811 C816 1.342 . S
C812 C813 1.310 . S
C812 C815 1.461 . S
C812 H832 0.932 . S
C813 C811 1.408 . S
C813 C812 1.310 . S
C813 H833 0.930 . S
C814 C815 1.474 . S
C814 C816 1.285 . S
C814 H834 0.929 . S
C815 C812 1.461 . S
C815 C814 1.474 . S
C816 C811 1.342 . S
C816 C814 1.285 . S
C816 H835 0.930 . S
C817 C820 1.424 . S
C817 C822 1.245 . S
C817 C823 1.428 . S
C818 C821 1.260 . S
C818 C822 1.477 . S
C818 H836 0.932 . S
C819 C820 1.384 . S
C819 C821 1.479 . S
C819 H837 0.929 . S
C820 C817 1.424 . S
C820 C819 1.384 . S
C820 H838 0.928 . S
C821 C818 1.260 . S
C821 C819 1.479 . S
C822 C817 1.245 . S
C822 C818 1.477 . S
C822 H839 0.932 . S
C823 U806 2.837 1_556 S
C823 C817 1.428 . S
C823 O826 1.301 . S
C823 O827 1.282 . S
O824 U806 2.464 . S
O824 C810 1.256 . S
O825 U806 2.395 1_556 S
O825 C810 1.195 1_556 S
O826 U806 2.426 1_556 S
O826 C823 1.301 . S
O827 U806 2.393 1_556 S
O827 C823 1.282 . S
H828 C801 0.931 . S
H829 C803 0.929 . S
H830 C804 0.930 . S
H831 C805 0.931 . S
H832 C812 0.932 . S
H833 C813 0.930 . S
H834 C814 0.929 . S
H835 C816 0.930 . S
H836 C818 0.932 . S
H837 C819 0.929 . S
H838 C820 0.928 . S
H839 C822 0.932 . S
C840 C841 1.264 . S
C840 C845 1.479 . S
C840 C850 1.465 . S
C841 C840 1.264 . S
C841 C843 1.339 . S
C841 H868 0.931 . S
C842 C843 1.395 . S
C842 C844 1.320 . S
C843 C841 1.339 . S
C843 C842 1.395 . S
C843 H869 0.929 . S
C844 C842 1.320 . S
C844 C845 1.405 . S
C844 H870 0.930 . S
C845 C840 1.479 . S
C845 C844 1.405 . S
C845 H871 0.931 . S
U846 O847 2.454 . S
U846 O848 2.458 . S
U846 C849 2.984 . S
U846 C850 2.847 . S
U846 C863 2.882 . S
U846 O864 2.441 . S
U846 O865 2.420 . S
U846 O866 2.455 . S
U846 O867 2.449 . S
O847 U846 2.454 . S
O847 C849 1.353 . S
O848 U846 2.458 . S
O848 C849 1.286 . S
C849 U846 2.984 . S
C849 O847 1.353 . S
C849 O848 1.286 . S
C849 C851 1.363 . S
C850 C840 1.465 . S
C850 U846 2.847 . S
C850 O864 1.249 . S
C850 O865 1.202 . S
C851 C849 1.363 . S
C851 C853 1.408 . S
C851 C856 1.342 . S
C852 C853 1.310 . S
C852 C855 1.461 . S
C852 H872 0.932 . S
C853 C851 1.408 . S
C853 C852 1.310 . S
C853 H873 0.930 . S
C854 C855 1.474 . S
C854 C856 1.285 . S
C854 H874 0.929 . S
C855 C852 1.461 . S
C855 C854 1.474 . S
C856 C851 1.342 . S
C856 C854 1.285 . S
C856 H875 0.930 . S
C857 C860 1.424 . S
C857 C862 1.245 . S
C857 C863 1.428 . S
C858 C861 1.260 . S
C858 C862 1.477 . S
C858 H876 0.932 . S
C859 C860 1.384 . S
C859 C861 1.479 . S
C859 H877 0.929 . S
C860 C857 1.424 . S
C860 C859 1.384 . S
C860 H878 0.928 . S
C861 C858 1.260 . S
C861 C859 1.479 . S
C862 C857 1.245 . S
C862 C858 1.477 . S
C862 H879 0.932 . S
C863 U846 2.882 . S
C863 C857 1.428 . S
C863 O866 1.301 . S
C863 O867 1.282 . S
O864 U846 2.441 . S
O864 C850 1.249 . S
O865 U846 2.420 . S
O865 C850 1.202 . S
O866 U846 2.455 . S
O866 C863 1.301 . S
O867 U846 2.449 . S
O867 C863 1.282 . S
H868 C841 0.931 . S
H869 C843 0.929 . S
H870 C844 0.930 . S
H871 C845 0.931 . S
H872 C852 0.932 . S
H873 C853 0.930 . S
H874 C854 0.929 . S
H875 C856 0.930 . S
H876 C858 0.932 . S
H877 C859 0.929 . S
H878 C860 0.928 . S
H879 C862 0.932 . S
C880 C881 1.264 . S
C880 C885 1.479 . S
C880 C890 1.465 . S
C881 C880 1.264 . S
C881 C883 1.339 . S
C881 H908 0.931 . S
C882 C883 1.395 . S
C882 C884 1.320 . S
C883 C881 1.339 . S
C883 C882 1.395 . S
C883 H909 0.929 . S
C884 C882 1.320 . S
C884 C885 1.405 . S
C884 H910 0.930 . S
C885 C880 1.479 . S
C885 C884 1.405 . S
C885 H911 0.931 . S
U886 O887 2.454 . S
U886 O888 2.458 . S
U886 C889 2.984 . S
U886 C890 2.847 . S
U886 C903 2.882 . S
U886 O904 2.441 . S
U886 O905 2.420 . S
U886 O906 2.455 . S
U886 O907 2.449 . S
O887 U886 2.454 . S
O887 C889 1.353 . S
O888 U886 2.458 . S
O888 C889 1.286 . S
C889 U886 2.984 . S
C889 O887 1.353 . S
C889 O888 1.286 . S
C889 C891 1.363 . S
C890 C880 1.465 . S
C890 U886 2.847 . S
C890 O904 1.249 . S
C890 O905 1.202 . S
C891 C889 1.363 . S
C891 C893 1.408 . S
C891 C896 1.342 . S
C892 C893 1.310 . S
C892 C895 1.461 . S
C892 H912 0.932 . S
C893 C891 1.408 . S
C893 C892 1.310 . S
C893 H913 0.930 . S
C894 C895 1.474 . S
C894 C896 1.285 . S
C894 H914 0.929 . S
C895 C892 1.461 . S
C895 C894 1.474 . S
C896 C891 1.342 . S
C896 C894 1.285 . S
C896 H915 0.930 . S
C897 C900 1.424 . S
C897 C902 1.245 . S
C897 C903 1.428 . S
C898 C901 1.260 . S
C898 C902 1.477 . S
C898 H916 0.932 . S
C899 C900 1.384 . S
C899 C901 1.479 . S
C899 H917 0.929 . S
C900 C897 1.424 . S
C900 C899 1.384 . S
C900 H918 0.928 . S
C901 C898 1.260 . S
C901 C899 1.479 . S
C902 C897 1.245 . S
C902 C898 1.477 . S
C902 H919 0.932 . S
C903 U886 2.882 . S
C903 C897 1.428 . S
C903 O906 1.301 . S
C903 O907 1.282 . S
O904 U886 2.441 . S
O904 C890 1.249 . S
O905 U886 2.420 . S
O905 C890 1.202 . S
O906 U886 2.455 . S
O906 C903 1.301 . S
O907 U886 2.449 . S
O907 C903 1.282 . S
H908 C881 0.931 . S
H909 C883 0.929 . S
H910 C884 0.930 . S
H911 C885 0.931 . S
H912 C892 0.932 . S
H913 C893 0.930 . S
H914 C894 0.929 . S
H915 C896 0.930 . S
H916 C898 0.932 . S
H917 C899 0.929 . S
H918 C900 0.928 . S
H919 C902 0.932 . S
C920 C921 1.264 . S
C920 C925 1.479 . S
C920 C930 1.465 . S
C921 C920 1.264 . S
C921 C923 1.339 . S
C921 H948 0.931 . S
C922 C923 1.395 . S
C922 C924 1.320 . S
C923 C921 1.339 . S
C923 C922 1.395 . S
C923 H949 0.929 . S
C924 C922 1.320 . S
C924 C925 1.405 . S
C924 H950 0.930 . S
C925 C920 1.479 . S
C925 C924 1.405 . S
C925 H951 0.931 . S
U926 O927 2.454 . S
U926 O928 2.458 . S
U926 C929 2.984 . S
U926 C930 2.847 1_554 S
U926 C943 2.882 . S
U926 O944 2.441 1_554 S
U926 O945 2.420 1_554 S
U926 O946 2.455 . S
U926 O947 2.449 . S
O927 U926 2.454 . S
O927 C929 1.353 . S
O928 U926 2.458 . S
O928 C929 1.286 . S
C929 U926 2.984 . S
C929 O927 1.353 . S
C929 O928 1.286 . S
C929 C931 1.363 . S
C930 C920 1.465 . S
C930 U926 2.847 1_556 S
C930 O944 1.249 . S
C930 O945 1.202 . S
C931 C929 1.363 . S
C931 C933 1.408 . S
C931 C936 1.342 . S
C932 C933 1.310 . S
C932 C935 1.461 . S
C932 H952 0.932 . S
C933 C931 1.408 . S
C933 C932 1.310 . S
C933 H953 0.930 . S
C934 C935 1.474 . S
C934 C936 1.285 . S
C934 H954 0.929 . S
C935 C932 1.461 . S
C935 C934 1.474 . S
C936 C931 1.342 . S
C936 C934 1.285 . S
C936 H955 0.930 . S
C937 C940 1.424 1_554 S
C937 C942 1.245 . S
C937 C943 1.428 . S
C938 C941 1.260 . S
C938 C942 1.477 . S
C938 H956 0.932 . S
C939 C940 1.384 . S
C939 C941 1.479 1_556 S
C939 H957 0.929 . S
C940 C937 1.424 1_556 S
C940 C939 1.384 . S
C940 H958 0.928 . S
C941 C938 1.260 . S
C941 C939 1.479 1_554 S
C942 C937 1.245 . S
C942 C938 1.477 . S
C942 H959 0.932 . S
C943 U926 2.882 . S
C943 C937 1.428 . S
C943 O946 1.301 . S
C943 O947 1.282 . S
O944 U926 2.441 1_556 S
O944 C930 1.249 . S
O945 U926 2.420 1_556 S
O945 C930 1.202 . S
O946 U926 2.455 . S
O946 C943 1.301 . S
O947 U926 2.449 . S
O947 C943 1.282 . S
H948 C921 0.931 . S
H949 C923 0.929 . S
H950 C924 0.930 . S
H951 C925 0.931 . S
H952 C932 0.932 . S
H953 C933 0.930 . S
H954 C934 0.929 . S
H955 C936 0.930 . S
H956 C938 0.932 . S
H957 C939 0.929 . S
H958 C940 0.928 . S
H959 C942 0.932 . S
C960 C961 1.387 . S
C960 H964 0.950 . S
C960 C969 1.390 . S
C961 C960 1.387 . S
C961 C963 1.387 1_455 S
H962 C969 0.950 . S
C963 C961 1.387 1_655 S
C963 C965 1.390 . S
C963 H967 0.950 . S
H964 C960 0.950 . S
C965 C963 1.390 . S
C965 C966 1.387 1_655 S
C965 H968 0.950 . S
C966 C965 1.387 1_455 S
C966 C969 1.387 . S
H967 C963 0.950 . S
H968 C965 0.950 . S
C969 C960 1.390 . S
C969 H962 0.950 . S
C969 C966 1.387 . S
C970 C971 1.387 . S
C970 H974 0.950 . S
C970 C979 1.390 . S
C971 C970 1.387 . S
C971 C973 1.387 . S
H972 C979 0.950 . S
C973 C971 1.387 . S
C973 C975 1.390 . S
C973 H977 0.950 . S
H974 C970 0.950 . S
C975 C973 1.390 . S
C975 C976 1.387 . S
C975 H978 0.950 . S
C976 C975 1.387 . S
C976 C979 1.387 . S
H977 C973 0.950 . S
H978 C975 0.950 . S
C979 C970 1.390 . S
C979 H972 0.950 . S
C979 C976 1.387 . S
C980 C981 1.387 . S
C980 H984 0.950 . S
C980 C989 1.390 . S
C981 C980 1.387 . S
C981 C983 1.387 . S
H982 C989 0.950 . S
C983 C981 1.387 . S
C983 C985 1.390 . S
C983 H987 0.950 . S
H984 C980 0.950 . S
C985 C983 1.390 . S
C985 C986 1.387 . S
C985 H988 0.950 . S
C986 C985 1.387 . S
C986 C989 1.387 . S
H987 C983 0.950 . S
H988 C985 0.950 . S
C989 C980 1.390 . S
C989 H982 0.950 . S
C989 C986 1.387 . S
C990 C991 1.387 1_565 S
C990 H994 0.950 . S
C990 C999 1.390 . S
C991 C990 1.387 1_545 S
C991 C993 1.387 . S
H992 C999 0.950 . S
C993 C991 1.387 . S
C993 C995 1.390 . S
C993 H997 0.950 . S
H994 C990 0.950 . S
C995 C993 1.390 . S
C995 C996 1.387 . S
C995 H998 0.950 . S
C996 C995 1.387 . S
C996 C999 1.387 1_545 S
H997 C993 0.950 . S
H998 C995 0.950 . S
C999 C990 1.390 . S
C999 H992 0.950 . S
C999 C996 1.387 1_565 S
C1000 C1001 1.387 . S
C1000 H1004 0.950 . S
C1000 C1009 1.390 . S
C1001 C1000 1.387 . S
C1001 C1003 1.387 1_554 S
H1002 C1009 0.950 . S
C1003 C1001 1.387 1_556 S
C1003 C1005 1.390 . S
C1003 H1007 0.950 . S
H1004 C1000 0.950 . S
C1005 C1003 1.390 . S
C1005 C1006 1.387 1_556 S
C1005 H1008 0.950 . S
C1006 C1005 1.387 1_554 S
C1006 C1009 1.387 . S
H1007 C1003 0.950 . S
H1008 C1005 0.950 . S
C1009 C1000 1.390 . S
C1009 H1002 0.950 . S
C1009 C1006 1.387 . S
C1010 C1011 1.387 . S
C1010 H1014 0.950 . S
C1010 C1019 1.390 . S
C1011 C1010 1.387 . S
C1011 C1013 1.387 . S
H1012 C1019 0.950 . S
C1013 C1011 1.387 . S
C1013 C1015 1.390 . S
C1013 H1017 0.950 . S
H1014 C1010 0.950 . S
C1015 C1013 1.390 . S
C1015 C1016 1.387 . S
C1015 H1018 0.950 . S
C1016 C1015 1.387 . S
C1016 C1019 1.387 . S
H1017 C1013 0.950 . S
H1018 C1015 0.950 . S
C1019 C1010 1.390 . S
C1019 H1012 0.950 . S
C1019 C1016 1.387 . S
C1020 C1021 1.387 . S
C1020 H1024 0.950 . S
C1020 C1029 1.390 . S
C1021 C1020 1.387 . S
C1021 C1023 1.387 1_455 S
H1022 C1029 0.950 . S
C1023 C1021 1.387 1_655 S
C1023 C1025 1.390 . S
C1023 H1027 0.950 . S
H1024 C1020 0.950 . S
C1025 C1023 1.390 . S
C1025 C1026 1.387 1_655 S
C1025 H1028 0.950 . S
C1026 C1025 1.387 1_455 S
C1026 C1029 1.387 . S
H1027 C1023 0.950 . S
H1028 C1025 0.950 . S
C1029 C1020 1.390 . S
C1029 H1022 0.950 . S
C1029 C1026 1.387 . S
C1030 C1031 1.387 . S
C1030 H1034 0.950 . S
C1030 C1039 1.390 . S
C1031 C1030 1.387 . S
C1031 C1033 1.387 . S
H1032 C1039 0.950 . S
C1033 C1031 1.387 . S
C1033 C1035 1.390 . S
C1033 H1037 0.950 . S
H1034 C1030 0.950 . S
C1035 C1033 1.390 . S
C1035 C1036 1.387 . S
C1035 H1038 0.950 . S
C1036 C1035 1.387 . S
C1036 C1039 1.387 . S
H1037 C1033 0.950 . S
H1038 C1035 0.950 . S
C1039 C1030 1.390 . S
C1039 H1032 0.950 . S
C1039 C1036 1.387 . S
C1040 C1041 1.387 . S
C1040 H1044 0.950 . S
C1040 C1049 1.390 . S
C1041 C1040 1.387 . S
C1041 C1043 1.387 . S
H1042 C1049 0.950 . S
C1043 C1041 1.387 . S
C1043 C1045 1.390 . S
C1043 H1047 0.950 . S
H1044 C1040 0.950 . S
C1045 C1043 1.390 . S
C1045 C1046 1.387 . S
C1045 H1048 0.950 . S
C1046 C1045 1.387 . S
C1046 C1049 1.387 . S
H1047 C1043 0.950 . S
H1048 C1045 0.950 . S
C1049 C1040 1.390 . S
C1049 H1042 0.950 . S
C1049 C1046 1.387 . S
C1050 C1051 1.387 . S
C1050 H1054 0.950 . S
C1050 C1059 1.390 . S
C1051 C1050 1.387 . S
C1051 C1053 1.387 1_545 S
H1052 C1059 0.950 . S
C1053 C1051 1.387 1_565 S
C1053 C1055 1.390 . S
C1053 H1057 0.950 . S
H1054 C1050 0.950 . S
C1055 C1053 1.390 . S
C1055 C1056 1.387 1_565 S
C1055 H1058 0.950 . S
C1056 C1055 1.387 1_545 S
C1056 C1059 1.387 . S
H1057 C1053 0.950 . S
H1058 C1055 0.950 . S
C1059 C1050 1.390 . S
C1059 H1052 0.950 . S
C1059 C1056 1.387 . S
C1060 C1061 1.387 . S
C1060 H1064 0.950 . S
C1060 C1069 1.390 . S
C1061 C1060 1.387 . S
C1061 C1063 1.387 1_554 S
H1062 C1069 0.950 . S
C1063 C1061 1.387 1_556 S
C1063 C1065 1.390 . S
C1063 H1067 0.950 . S
H1064 C1060 0.950 . S
C1065 C1063 1.390 . S
C1065 C1066 1.387 1_556 S
C1065 H1068 0.950 . S
C1066 C1065 1.387 1_554 S
C1066 C1069 1.387 . S
H1067 C1063 0.950 . S
H1068 C1065 0.950 . S
C1069 C1060 1.390 . S
C1069 H1062 0.950 . S
C1069 C1066 1.387 . S
C1070 C1071 1.387 . S
C1070 H1074 0.950 . S
C1070 C1079 1.390 . S
C1071 C1070 1.387 . S
C1071 C1073 1.387 . S
H1072 C1079 0.950 . S
C1073 C1071 1.387 . S
C1073 C1075 1.390 . S
C1073 H1077 0.950 . S
H1074 C1070 0.950 . S
C1075 C1073 1.390 . S
C1075 C1076 1.387 . S
C1075 H1078 0.950 . S
C1076 C1075 1.387 . S
C1076 C1079 1.387 . S
H1077 C1073 0.950 . S
H1078 C1075 0.950 . S
C1079 C1070 1.390 . S
C1079 H1072 0.950 . S
C1079 C1076 1.387 . S
C1080 C1081 1.387 . S
C1080 H1084 0.950 . S
C1080 C1089 1.390 . S
C1081 C1080 1.387 . S
C1081 C1083 1.387 . S
H1082 C1089 0.950 . S
C1083 C1081 1.387 . S
C1083 C1085 1.390 . S
C1083 H1087 0.950 . S
H1084 C1080 0.950 . S
C1085 C1083 1.390 . S
C1085 C1086 1.387 . S
C1085 H1088 0.950 . S
C1086 C1085 1.387 . S
C1086 C1089 1.387 . S
H1087 C1083 0.950 . S
H1088 C1085 0.950 . S
C1089 C1080 1.390 . S
C1089 H1082 0.950 . S
C1089 C1086 1.387 . S
C1090 C1091 1.387 . S
C1090 H1094 0.950 . S
C1090 C1099 1.390 . S
C1091 C1090 1.387 . S
C1091 C1093 1.387 . S
H1092 C1099 0.950 . S
C1093 C1091 1.387 . S
C1093 C1095 1.390 . S
C1093 H1097 0.950 . S
H1094 C1090 0.950 . S
C1095 C1093 1.390 . S
C1095 C1096 1.387 . S
C1095 H1098 0.950 . S
C1096 C1095 1.387 . S
C1096 C1099 1.387 . S
H1097 C1093 0.950 . S
H1098 C1095 0.950 . S
C1099 C1090 1.390 . S
C1099 H1092 0.950 . S
C1099 C1096 1.387 . S
C1100 C1101 1.387 . S
C1100 H1104 0.950 . S
C1100 C1109 1.390 . S
C1101 C1100 1.387 . S
C1101 C1103 1.387 . S
H1102 C1109 0.950 . S
C1103 C1101 1.387 . S
C1103 C1105 1.390 . S
C1103 H1107 0.950 . S
H1104 C1100 0.950 . S
C1105 C1103 1.390 . S
C1105 C1106 1.387 . S
C1105 H1108 0.950 . S
C1106 C1105 1.387 . S
C1106 C1109 1.387 . S
H1107 C1103 0.950 . S
H1108 C1105 0.950 . S
C1109 C1100 1.390 . S
C1109 H1102 0.950 . S
C1109 C1106 1.387 . S
C1110 C1111 1.387 . S
C1110 H1114 0.950 . S
C1110 C1119 1.390 . S
C1111 C1110 1.387 . S
C1111 C1113 1.387 . S
H1112 C1119 0.950 . S
C1113 C1111 1.387 . S
C1113 C1115 1.390 . S
C1113 H1117 0.950 . S
H1114 C1110 0.950 . S
C1115 C1113 1.390 . S
C1115 C1116 1.387 . S
C1115 H1118 0.950 . S
C1116 C1115 1.387 . S
C1116 C1119 1.387 . S
H1117 C1113 0.950 . S
H1118 C1115 0.950 . S
C1119 C1110 1.390 . S
C1119 H1112 0.950 . S
C1119 C1116 1.387 . S
C1120 C1121 1.387 . S
C1120 H1124 0.950 . S
C1120 C1129 1.390 . S
C1121 C1120 1.387 . S
C1121 C1123 1.387 . S
H1122 C1129 0.950 . S
C1123 C1121 1.387 . S
C1123 C1125 1.390 . S
C1123 H1127 0.950 . S
H1124 C1120 0.950 . S
C1125 C1123 1.390 . S
C1125 C1126 1.387 . S
C1125 H1128 0.950 . S
C1126 C1125 1.387 . S
C1126 C1129 1.387 . S
H1127 C1123 0.950 . S
H1128 C1125 0.950 . S
C1129 C1120 1.390 . S
C1129 H1122 0.950 . S
C1129 C1126 1.387 . S
C1130 C1131 1.387 . S
C1130 H1134 0.950 . S
C1130 C1139 1.390 . S
C1131 C1130 1.387 . S
C1131 C1133 1.387 . S
H1132 C1139 0.950 . S
C1133 C1131 1.387 . S
C1133 C1135 1.390 . S
C1133 H1137 0.950 . S
H1134 C1130 0.950 . S
C1135 C1133 1.390 . S
C1135 C1136 1.387 . S
C1135 H1138 0.950 . S
C1136 C1135 1.387 . S
C1136 C1139 1.387 . S
H1137 C1133 0.950 . S
H1138 C1135 0.950 . S
C1139 C1130 1.390 . S
C1139 H1132 0.950 . S
C1139 C1136 1.387 . S
C1140 C1141 1.387 . S
C1140 H1144 0.950 . S
C1140 C1149 1.390 . S
C1141 C1140 1.387 . S
C1141 C1143 1.387 . S
H1142 C1149 0.950 . S
C1143 C1141 1.387 . S
C1143 C1145 1.390 . S
C1143 H1147 0.950 . S
H1144 C1140 0.950 . S
C1145 C1143 1.390 . S
C1145 C1146 1.387 . S
C1145 H1148 0.950 . S
C1146 C1145 1.387 . S
C1146 C1149 1.387 . S
H1147 C1143 0.950 . S
H1148 C1145 0.950 . S
C1149 C1140 1.390 . S
C1149 H1142 0.950 . S
C1149 C1146 1.387 . S
C1150 C1151 1.387 . S
C1150 H1154 0.950 . S
C1150 C1159 1.390 . S
C1151 C1150 1.387 . S
C1151 C1153 1.387 . S
H1152 C1159 0.950 . S
C1153 C1151 1.387 . S
C1153 C1155 1.390 . S
C1153 H1157 0.950 . S
H1154 C1150 0.950 . S
C1155 C1153 1.390 . S
C1155 C1156 1.387 . S
C1155 H1158 0.950 . S
C1156 C1155 1.387 . S
C1156 C1159 1.387 . S
H1157 C1153 0.950 . S
H1158 C1155 0.950 . S
C1159 C1150 1.390 . S
C1159 H1152 0.950 . S
C1159 C1156 1.387 . S
C1160 C1161 1.387 . S
C1160 H1164 0.950 . S
C1160 C1169 1.390 . S
C1161 C1160 1.387 . S
C1161 C1163 1.387 . S
H1162 C1169 0.950 . S
C1163 C1161 1.387 . S
C1163 C1165 1.390 . S
C1163 H1167 0.950 . S
H1164 C1160 0.950 . S
C1165 C1163 1.390 . S
C1165 C1166 1.387 . S
C1165 H1168 0.950 . S
C1166 C1165 1.387 . S
C1166 C1169 1.387 . S
H1167 C1163 0.950 . S
H1168 C1165 0.950 . S
C1169 C1160 1.390 . S
C1169 H1162 0.950 . S
C1169 C1166 1.387 . S
C1170 C1171 1.387 . S
C1170 H1174 0.950 . S
C1170 C1179 1.390 . S
C1171 C1170 1.387 . S
C1171 C1173 1.387 . S
H1172 C1179 0.950 . S
C1173 C1171 1.387 . S
C1173 C1175 1.390 . S
C1173 H1177 0.950 . S
H1174 C1170 0.950 . S
C1175 C1173 1.390 . S
C1175 C1176 1.387 . S
C1175 H1178 0.950 . S
C1176 C1175 1.387 . S
C1176 C1179 1.387 . S
H1177 C1173 0.950 . S
H1178 C1175 0.950 . S
C1179 C1170 1.390 . S
C1179 H1172 0.950 . S
C1179 C1176 1.387 . S
C1180 C1181 1.387 . S
C1180 H1184 0.950 . S
C1180 C1189 1.390 . S
C1181 C1180 1.387 . S
C1181 C1183 1.387 . S
H1182 C1189 0.950 . S
C1183 C1181 1.387 . S
C1183 C1185 1.390 . S
C1183 H1187 0.950 . S
H1184 C1180 0.950 . S
C1185 C1183 1.390 . S
C1185 C1186 1.387 . S
C1185 H1188 0.950 . S
C1186 C1185 1.387 . S
C1186 C1189 1.387 . S
H1187 C1183 0.950 . S
H1188 C1185 0.950 . S
C1189 C1180 1.390 . S
C1189 H1182 0.950 . S
C1189 C1186 1.387 . S
C1190 C1191 1.387 . S
C1190 H1194 0.950 . S
C1190 C1199 1.390 . S
C1191 C1190 1.387 . S
C1191 C1193 1.387 . S
H1192 C1199 0.950 . S
C1193 C1191 1.387 . S
C1193 C1195 1.390 . S
C1193 H1197 0.950 . S
H1194 C1190 0.950 . S
C1195 C1193 1.390 . S
C1195 C1196 1.387 . S
C1195 H1198 0.950 . S
C1196 C1195 1.387 . S
C1196 C1199 1.387 . S
H1197 C1193 0.950 . S
H1198 C1195 0.950 . S
C1199 C1190 1.390 . S
C1199 H1192 0.950 . S
C1199 C1196 1.387 . S
C1200 C1201 1.387 . S
C1200 H1204 0.950 . S
C1200 C1209 1.390 . S
C1201 C1200 1.387 . S
C1201 C1203 1.387 . S
H1202 C1209 0.950 . S
C1203 C1201 1.387 . S
C1203 C1205 1.390 . S
C1203 H1207 0.950 . S
H1204 C1200 0.950 . S
C1205 C1203 1.390 . S
C1205 C1206 1.387 . S
C1205 H1208 0.950 . S
C1206 C1205 1.387 . S
C1206 C1209 1.387 . S
H1207 C1203 0.950 . S
H1208 C1205 0.950 . S
C1209 C1200 1.390 . S
C1209 H1202 0.950 . S
C1209 C1206 1.387 . S
C1210 C1211 1.387 . S
C1210 H1214 0.950 . S
C1210 C1219 1.390 . S
C1211 C1210 1.387 . S
C1211 C1213 1.387 . S
H1212 C1219 0.950 . S
C1213 C1211 1.387 . S
C1213 C1215 1.390 . S
C1213 H1217 0.950 . S
H1214 C1210 0.950 . S
C1215 C1213 1.390 . S
C1215 C1216 1.387 . S
C1215 H1218 0.950 . S
C1216 C1215 1.387 . S
C1216 C1219 1.387 . S
H1217 C1213 0.950 . S
H1218 C1215 0.950 . S
C1219 C1210 1.390 . S
C1219 H1212 0.950 . S
C1219 C1216 1.387 . S
C1220 C1221 1.387 . S
C1220 H1224 0.950 . S
C1220 C1229 1.390 . S
C1221 C1220 1.387 . S
C1221 C1223 1.387 . S
H1222 C1229 0.950 . S
C1223 C1221 1.387 . S
C1223 C1225 1.390 . S
C1223 H1227 0.950 . S
H1224 C1220 0.950 . S
C1225 C1223 1.390 . S
C1225 C1226 1.387 . S
C1225 H1228 0.950 . S
C1226 C1225 1.387 . S
C1226 C1229 1.387 . S
H1227 C1223 0.950 . S
H1228 C1225 0.950 . S
C1229 C1220 1.390 . S
C1229 H1222 0.950 . S
C1229 C1226 1.387 . S
C1230 C1231 1.387 . S
C1230 H1234 0.950 . S
C1230 C1239 1.390 . S
C1231 C1230 1.387 . S
C1231 C1233 1.387 . S
H1232 C1239 0.950 . S
C1233 C1231 1.387 . S
C1233 C1235 1.390 . S
C1233 H1237 0.950 . S
H1234 C1230 0.950 . S
C1235 C1233 1.390 . S
C1235 C1236 1.387 . S
C1235 H1238 0.950 . S
C1236 C1235 1.387 . S
C1236 C1239 1.387 . S
H1237 C1233 0.950 . S
H1238 C1235 0.950 . S
C1239 C1230 1.390 . S
C1239 H1232 0.950 . S
C1239 C1236 1.387 . S
C1240 C1241 1.387 . S
C1240 H1244 0.950 . S
C1240 C1249 1.390 . S
C1241 C1240 1.387 . S
C1241 C1243 1.387 . S
H1242 C1249 0.950 . S
C1243 C1241 1.387 . S
C1243 C1245 1.390 . S
C1243 H1247 0.950 . S
H1244 C1240 0.950 . S
C1245 C1243 1.390 . S
C1245 C1246 1.387 . S
C1245 H1248 0.950 . S
C1246 C1245 1.387 . S
C1246 C1249 1.387 . S
H1247 C1243 0.950 . S
H1248 C1245 0.950 . S
C1249 C1240 1.390 . S
C1249 H1242 0.950 . S
C1249 C1246 1.387 . S
C1250 C1251 1.387 . S
C1250 H1254 0.950 . S
C1250 C1259 1.390 . S
C1251 C1250 1.387 . S
C1251 C1253 1.387 . S
H1252 C1259 0.950 . S
C1253 C1251 1.387 . S
C1253 C1255 1.390 . S
C1253 H1257 0.950 . S
H1254 C1250 0.950 . S
C1255 C1253 1.390 . S
C1255 C1256 1.387 . S
C1255 H1258 0.950 . S
C1256 C1255 1.387 . S
C1256 C1259 1.387 . S
H1257 C1253 0.950 . S
H1258 C1255 0.950 . S
C1259 C1250 1.390 . S
C1259 H1252 0.950 . S
C1259 C1256 1.387 . S
C1260 C1261 1.387 . S
C1260 H1264 0.950 . S
C1260 C1269 1.390 . S
C1261 C1260 1.387 . S
C1261 C1263 1.387 . S
H1262 C1269 0.950 . S
C1263 C1261 1.387 . S
C1263 C1265 1.390 . S
C1263 H1267 0.950 . S
H1264 C1260 0.950 . S
C1265 C1263 1.390 . S
C1265 C1266 1.387 . S
C1265 H1268 0.950 . S
C1266 C1265 1.387 . S
C1266 C1269 1.387 . S
H1267 C1263 0.950 . S
H1268 C1265 0.950 . S
C1269 C1260 1.390 . S
C1269 H1262 0.950 . S
C1269 C1266 1.387 . S
C1270 C1271 1.387 . S
C1270 H1274 0.950 . S
C1270 C1279 1.390 . S
C1271 C1270 1.387 . S
C1271 C1273 1.387 . S
H1272 C1279 0.950 . S
C1273 C1271 1.387 . S
C1273 C1275 1.390 . S
C1273 H1277 0.950 . S
H1274 C1270 0.950 . S
C1275 C1273 1.390 . S
C1275 C1276 1.387 . S
C1275 H1278 0.950 . S
C1276 C1275 1.387 . S
C1276 C1279 1.387 . S
H1277 C1273 0.950 . S
H1278 C1275 0.950 . S
C1279 C1270 1.390 . S
C1279 H1272 0.950 . S
C1279 C1276 1.387 . S
C1280 C1281 1.387 . S
C1280 H1284 0.950 . S
C1280 C1289 1.390 . S
C1281 C1280 1.387 . S
C1281 C1283 1.387 . S
H1282 C1289 0.950 . S
C1283 C1281 1.387 . S
C1283 C1285 1.390 . S
C1283 H1287 0.950 . S
H1284 C1280 0.950 . S
C1285 C1283 1.390 . S
C1285 C1286 1.387 . S
C1285 H1288 0.950 . S
C1286 C1285 1.387 . S
C1286 C1289 1.387 . S
H1287 C1283 0.950 . S
H1288 C1285 0.950 . S
C1289 C1280 1.390 . S
C1289 H1282 0.950 . S
C1289 C1286 1.387 . S
C1290 C1291 1.387 . S
C1290 H1294 0.950 . S
C1290 C1299 1.390 . S
C1291 C1290 1.387 . S
C1291 C1293 1.387 . S
H1292 C1299 0.950 . S
C1293 C1291 1.387 . S
C1293 C1295 1.390 . S
C1293 H1297 0.950 . S
H1294 C1290 0.950 . S
C1295 C1293 1.390 . S
C1295 C1296 1.387 . S
C1295 H1298 0.950 . S
C1296 C1295 1.387 . S
C1296 C1299 1.387 . S
H1297 C1293 0.950 . S
H1298 C1295 0.950 . S
C1299 C1290 1.390 . S
C1299 H1292 0.950 . S
C1299 C1296 1.387 . S
C1300 C1301 1.387 . S
C1300 H1304 0.950 . S
C1300 C1309 1.390 . S
C1301 C1300 1.387 . S
C1301 C1303 1.387 . S
H1302 C1309 0.950 . S
C1303 C1301 1.387 . S
C1303 C1305 1.390 . S
C1303 H1307 0.950 . S
H1304 C1300 0.950 . S
C1305 C1303 1.390 . S
C1305 C1306 1.387 . S
C1305 H1308 0.950 . S
C1306 C1305 1.387 . S
C1306 C1309 1.387 . S
H1307 C1303 0.950 . S
H1308 C1305 0.950 . S
C1309 C1300 1.390 . S
C1309 H1302 0.950 . S
C1309 C1306 1.387 . S
C1310 C1311 1.387 . S
C1310 H1314 0.950 . S
C1310 C1319 1.390 . S
C1311 C1310 1.387 . S
C1311 C1313 1.387 . S
H1312 C1319 0.950 . S
C1313 C1311 1.387 . S
C1313 C1315 1.390 . S
C1313 H1317 0.950 . S
H1314 C1310 0.950 . S
C1315 C1313 1.390 . S
C1315 C1316 1.387 . S
C1315 H1318 0.950 . S
C1316 C1315 1.387 . S
C1316 C1319 1.387 . S
H1317 C1313 0.950 . S
H1318 C1315 0.950 . S
C1319 C1310 1.390 . S
C1319 H1312 0.950 . S
C1319 C1316 1.387 . S
C961 C162 1.489 . S
C966 C2 1.488 . S
C971 C221 1.464 . S
C976 C42 1.477 . S
C981 C101 1.510 . S
C986 C261 1.511 . S
C991 C282 1.479 . S
C996 C141 1.466 . S
C1001 C341 1.510 . S
C1006 C442 1.492 . S
C1011 C402 1.492 . S
C1016 C381 1.476 . S
C1021 C482 1.523 . S
C1026 C642 1.523 . S
C1031 C682 1.493 . S
C1036 C541 1.478 . S
C1041 C741 1.459 . S
C1046 C581 1.457 . S
C1051 C602 1.481 . S
C1056 C781 1.487 . S
C1061 C941 1.492 . S
C1066 C802 1.516 . S
C1071 C901 1.492 . S
C1076 C842 1.514 . S
C1081 C775 1.506 . S
C1086 C21 1.488 . S
C1091 C655 1.521 . S
C1096 C61 1.508 . S
C1101 C82 1.530 . S
C1106 C701 1.524 . S
C1111 C135 1.499 . S
C1116 C722 1.491 . S
C1121 C181 1.493 . S
C1126 C522 1.495 . S
C1131 C562 1.488 . S
C1136 C215 1.497 . S
C1141 C242 1.546 . S
C1146 C621 1.525 . S
C1151 C301 1.511 . S
C1156 C495 1.524 . S
C1161 C122 1.478 . S
C1166 C935 1.496 . S
C1171 C15 1.556 . S
C1176 C861 1.569 . S
C1181 C55 1.555 . S
C1186 C815 1.552 . S
C1191 C95 1.522 . S
C1196 C882 1.497 . S
C1201 C202 1.475 . S
C1206 C895 1.494 . S
C1211 C255 1.533 . S
C1216 C922 1.506 . S
C1221 C855 1.554 . S
C1226 C295 1.556 . S
C1231 C175 1.559 . S
C1236 C821 1.570 . S
C1241 C335 1.543 . S
C1246 C661 1.552 . S
C1251 C501 1.550 . S
C1256 C362 1.506 . S
C1261 C322 1.530 . S
C1266 C535 1.527 . S
C1271 C415 1.516 . S
C1276 C575 1.515 . S
C1281 C615 1.535 . S
C1286 C461 1.519 . S
C1291 C735 1.517 . S
C1296 C455 1.516 . S
C1301 C762 1.523 . S
C1306 C375 1.520 . S
C1311 C695 1.535 . S
C1316 C421 1.522 . S
