# Generated by pormake.
# Topology rob, (6)-cn, num edge types: 1
# Building blocks:
#     Node 0, Type 0, BuildingBlock: KUMJIN_clean_sbu_0, # of connection points: 6
#     Node 1, Type 0, BuildingBlock: KUMJIN_clean_sbu_0, # of connection points: 6
#     Node 2, Type 0, BuildingBlock: KUMJIN_clean_sbu_0, # of connection points: 6
#     Node 3, Type 0, BuildingBlock: KUMJIN_clean_sbu_0, # of connection points: 6
#     Edge 4, Type (0, 0), BuildingBlock: UVAHIK_clean_linker_0, # of connection points: 2
#     Edge 5, Type (0, 0), BuildingBlock: UVAHIK_clean_linker_0, # of connection points: 2
#     Edge 6, Type (0, 0), BuildingBlock: UVAHIK_clean_linker_0, # of connection points: 2
#     Edge 7, Type (0, 0), BuildingBlock: UVAHIK_clean_linker_0, # of connection points: 2
#     Edge 8, Type (0, 0), BuildingBlock: UVAHIK_clean_linker_0, # of connection points: 2
#     Edge 9, Type (0, 0), BuildingBlock: UVAHIK_clean_linker_0, # of connection points: 2
#     Edge 10, Type (0, 0), BuildingBlock: UVAHIK_clean_linker_0, # of connection points: 2
#     Edge 11, Type (0, 0), BuildingBlock: UVAHIK_clean_linker_0, # of connection points: 2
#     Edge 12, Type (0, 0), BuildingBlock: UVAHIK_clean_linker_0, # of connection points: 2
#     Edge 13, Type (0, 0), BuildingBlock: UVAHIK_clean_linker_0, # of connection points: 2
#     Edge 14, Type (0, 0), BuildingBlock: UVAHIK_clean_linker_0, # of connection points: 2
#     Edge 15, Type (0, 0), BuildingBlock: UVAHIK_clean_linker_0, # of connection points: 2
# Relax obj value: 0.033
# Max RMSD: 0.150
# Mean RMSD: 0.150
data_MOF--net-rob--node1-KUMJIN_clean_sbu_0--edge1-UVAHIK_clean_linker_0
_symmetry_space_group_name_H-M    P1
_symmetry_Int_Tables_number       1
_symmetry_cell_setting            triclinic
loop_
_symmetry_equiv_pos_as_xyz
'x, y, z'
_cell_length_a     20.007766
_cell_length_b     34.048635
_cell_length_c     41.767864
_cell_angle_alpha  118.65831
_cell_angle_beta   90.038223
_cell_angle_gamma 89.968737
loop_
_atom_site_label
_atom_site_type_symbol
_atom_site_fract_x
_atom_site_fract_y
_atom_site_fract_z
_atom_type_partial_charge
Eu0 Eu 0.18205 0.29297 0.04804 0.0
C1 C 0.37385 0.12637 0.97862 0.0
C2 C 0.46895 0.14832 0.01949 0.0
C3 C 0.43801 0.06983 0.98501 0.0
C4 C 0.41491 0.1595 1.00367 0.0
C5 C 0.38578 0.08104 0.96838 0.0
C6 C 0.47946 0.10342 1.01056 0.0
C7 C 0.2969 0.06103 0.92405 0.0
N8 N 0.32403 0.13829 0.96297 0.0
C9 C 0.28715 0.10641 0.93505 0.0
C10 C 0.3459 0.04829 0.94109 0.0
Eu11 Eu 0.30909 0.21578 0.98392 0.0
N12 N 0.40366 0.2025 1.01151 0.0
C13 C 0.44728 0.23555 0.033 0.0
C14 C 0.51168 0.18248 0.04316 0.0
C15 C 0.50126 0.2262 0.04957 0.0
H16 H 0.2491 0.11604 0.92182 0.0
H17 H 0.53469 0.25274 0.06732 0.0
H18 H 0.52038 0.09423 0.02266 0.0
H19 H 0.26663 0.03593 0.90246 0.0
H20 H 0.43973 0.2695 0.03828 0.0
H21 H 0.95397 0.2514 0.96596 0.0
H22 H 0.5536 0.17531 0.05597 0.0
H23 H 0.24146 0.39371 0.10742 0.0
H24 H 0.05056 0.2369 0.99524 0.0
H25 H 0.22228 0.4733 0.125 0.0
H26 H 0.44762 0.03523 0.97775 0.0
H27 H 0.93301 0.3278 0.97531 0.0
H28 H 0.96494 0.40915 1.00658 0.0
H29 H 0.35349 0.0131 0.93245 0.0
H30 H 0.03763 0.4696 0.05002 0.0
N31 N 0.08567 0.30414 0.02031 0.0
C32 C 0.04222 0.27044 0.99974 0.0
C33 C 0.97568 0.32163 0.98826 0.0
C34 C 0.01825 0.35652 1.01102 0.0
C35 C 0.98726 0.2785 0.98299 0.0
C36 C 0.07327 0.34661 0.02706 0.0
H37 H 0.13313 0.49392 0.09469 0.0
N38 N 0.16483 0.36981 0.06724 0.0
C39 C 0.19163 0.44753 0.10415 0.0
C40 C 0.1141 0.38054 0.05135 0.0
C41 C 0.20224 0.40252 0.09423 0.0
C42 C 0.14136 0.45902 0.08691 0.0
C43 C 0.10124 0.42542 0.06049 0.0
O44 O 0.17011 0.31938 0.10683 0.0
O45 O 0.27083 0.25038 0.04085 0.0
O46 O 0.24445 0.17502 1.00109 0.0
O47 O 0.14858 0.2198 0.02016 0.0
O48 O 0.26931 0.31126 0.08754 0.0
O49 O 0.09832 0.27176 0.06952 0.0
O50 O 0.31557 0.19879 0.9266 0.0
O51 O 0.22033 0.2587 0.99113 0.0
O52 O 0.24642 0.3325 0.02944 0.0
O53 O 0.34314 0.28882 1.01275 0.0
O54 O 0.22109 0.19687 0.94506 0.0
O55 O 0.40056 0.22906 0.96189 0.0
C56 C 0.30188 0.27426 0.0701 0.0
C57 C 0.06063 0.32246 0.12884 0.0
C58 C -0.00301 0.33909 0.18377 0.0
C59 C 0.05009 0.31701 0.15972 0.0
C60 C 0.95498 0.36713 0.17664 0.0
C61 C 0.01867 0.35082 0.12228 0.0
C62 C 0.96612 0.3731 0.14619 0.0
C63 C 0.18049 0.18146 1.01024 0.0
C64 C 0.11486 0.29752 0.10356 0.0
C65 C 0.04801 0.43535 0.0436 0.0
C66 C 0.00663 0.40094 0.01887 0.0
C67 C 0.18853 0.23396 0.9623 0.0
C68 C 0.42099 0.18124 0.89886 0.0
C69 C 0.4351 0.19062 0.8703 0.0
C70 C 0.47104 0.15993 0.83924 0.0
C71 C 0.49347 0.11989 0.8379 0.0
C72 C 0.44449 0.14151 0.8971 0.0
C73 C 0.48076 0.11109 0.86676 0.0
C74 C 0.31083 0.32664 0.02136 0.0
C75 C 0.37728 0.21174 0.92871 0.0
H76 H 0.08228 0.29472 0.16452 0.0
H77 H 0.91384 0.38465 0.19475 0.0
H78 H 0.02626 0.35545 0.09865 0.0
H79 H 0.93368 0.39489 0.14101 0.0
H80 H 0.41756 0.2219 0.87243 0.0
H81 H 0.51986 0.09484 0.81432 0.0
H82 H 0.43399 0.13374 0.91884 0.0
H83 H 0.49818 0.08017 0.86532 0.0
Eu84 Eu 0.6795 0.79227 0.04554 0.0
C85 C 0.87276 0.62659 0.97773 0.0
C86 C 0.96863 0.64993 0.01805 0.0
C87 C 0.93798 0.57126 0.98522 0.0
C88 C 0.91388 0.66024 1.0021 0.0
C89 C 0.88505 0.58159 0.96842 0.0
C90 C 0.97965 0.60539 1.01004 0.0
C91 C 0.79479 0.56015 0.92472 0.0
N92 N 0.82234 0.6377 0.9619 0.0
C93 C 0.78475 0.60526 0.9348 0.0
C94 C 0.8447 0.54827 0.94189 0.0
Eu95 Eu 0.80617 0.7147 0.98138 0.0
N96 N 0.90208 0.70283 1.009 0.0
C97 C 0.94588 0.73626 0.02963 0.0
C98 C 0.01153 0.68454 0.04089 0.0
C99 C 0.00058 0.72779 0.0463 0.0
H100 H 0.74582 0.61437 0.92165 0.0
H101 H 0.03414 0.75467 0.06338 0.0
H102 H 0.02111 0.59686 0.02226 0.0
H103 H 0.764 0.53461 0.90378 0.0
H104 H 0.93798 0.76989 0.03422 0.0
H105 H 0.45373 0.75567 0.9623 0.0
H106 H 0.054 0.67806 0.05378 0.0
H107 H 0.74 0.89191 0.10747 0.0
H108 H 0.54857 0.73878 0.99132 0.0
H109 H 0.72294 0.97205 0.12671 0.0
H110 H 0.94791 0.53692 0.97866 0.0
H111 H 0.43528 0.83309 0.97351 0.0
H112 H 0.46898 0.91409 1.00666 0.0
H113 H 0.85251 0.5133 0.93397 0.0
H114 H 0.54206 0.97297 0.05144 0.0
N115 N 0.58503 0.8057 0.01796 0.0
C116 C 0.54122 0.77272 0.99655 0.0
C117 C 0.47715 0.82586 0.98632 0.0
C118 C 0.52007 0.85995 1.00991 0.0
C119 C 0.48731 0.78215 0.97999 0.0
C120 C 0.57403 0.84869 0.02572 0.0
H121 H 0.63626 0.99497 0.09669 0.0
N122 N 0.665 0.86976 0.06636 0.0
C123 C 0.69254 0.94698 0.10516 0.0
C124 C 0.61528 0.88176 0.0507 0.0
C125 C 0.70203 0.9016 0.09423 0.0
C126 C 0.64365 0.95978 0.0881 0.0
C127 C 0.60361 0.92709 0.06087 0.0
O128 O 0.67292 0.80957 0.10292 0.0
O129 O 0.76797 0.74908 0.03832 0.0
O130 O 0.74148 0.67526 0.99989 0.0
O131 O 0.64506 0.71929 0.01679 0.0
O132 O 0.7674 0.81097 0.08441 0.0
O133 O 0.58796 0.77917 0.06764 0.0
O134 O 0.81739 0.68934 0.9227 0.0
O135 O 0.71777 0.75756 0.98864 0.0
O136 O 0.74459 0.83277 0.0283 0.0
O137 O 0.84021 0.78776 1.00933 0.0
O138 O 0.71893 0.69676 0.94189 0.0
O139 O 0.8914 0.73475 0.95994 0.0
C140 C 0.79974 0.77379 0.06717 0.0
C141 C 0.56745 0.82728 0.13061 0.0
C142 C 0.51742 0.84899 0.1903 0.0
C143 C 0.55342 0.81818 0.15932 0.0
C144 C 0.49484 0.88887 0.1914 0.0
C145 C 0.54384 0.86686 0.13213 0.0
C146 C 0.5075 0.8974 0.16239 0.0
C147 C 0.67711 0.68133 1.00805 0.0
C148 C 0.61119 0.79666 0.10083 0.0
C149 C 0.55146 0.93837 0.04424 0.0
C150 C 0.50983 0.90484 0.01876 0.0
C151 C 0.68657 0.73384 0.95941 0.0
C152 C 0.92689 0.68374 0.9002 0.0
C153 C 0.93774 0.68884 0.86918 0.0
C154 C 0.98864 0.66466 0.84418 0.0
C155 C 0.02826 0.63504 0.85069 0.0
C156 C 0.96662 0.65395 0.90616 0.0
C157 C 0.01707 0.6297 0.88142 0.0
C158 C 0.80856 0.82617 0.0192 0.0
C159 C 0.87391 0.7099 0.92593 0.0
H160 H 0.57106 0.78701 0.15737 0.0
H161 H 0.46839 0.914 0.21491 0.0
H162 H 0.55428 0.87442 0.11027 0.0
H163 H 0.48997 0.9282 0.16365 0.0
H164 H 0.90723 0.71225 0.8649 0.0
H165 H 0.06744 0.61565 0.83181 0.0
H166 H 0.95874 0.64955 0.92988 0.0
H167 H 0.04767 0.6067 0.88609 0.0
Eu168 Eu 0.17972 0.71193 0.4798 0.0
C169 C 0.36843 0.87935 0.54904 0.0
C170 C 0.46446 0.85787 0.50894 0.0
C171 C 0.43076 0.93597 0.54193 0.0
C172 C 0.41046 0.84648 0.52459 0.0
C173 C 0.37884 0.92461 0.5586 0.0
C174 C 0.47347 0.90264 0.51711 0.0
C175 C 0.28908 0.94429 0.60236 0.0
N176 N 0.31909 0.86725 0.56477 0.0
C177 C 0.28088 0.89896 0.59203 0.0
C178 C 0.33778 0.95716 0.58528 0.0
Eu179 Eu 0.30567 0.78984 0.5446 0.0
N180 N 0.40071 0.80368 0.51763 0.0
C181 C 0.44613 0.77121 0.49747 0.0
C182 C 0.50889 0.82415 0.48644 0.0
C183 C 0.50027 0.78077 0.48117 0.0
H184 H 0.24284 0.88912 0.60511 0.0
H185 H 0.53512 0.75461 0.46442 0.0
H186 H 0.51428 0.91197 0.50508 0.0
H187 H 0.25777 0.96924 0.62342 0.0
H188 H 0.43994 0.73748 0.49296 0.0
H189 H 0.9518 0.7504 0.56166 0.0
H190 H 0.5509 0.83148 0.47381 0.0
H191 H 0.24067 0.6121 0.41959 0.0
H192 H 0.04802 0.76643 0.53318 0.0
H193 H 0.22271 0.53207 0.40074 0.0
H194 H 0.43923 0.97052 0.54866 0.0
H195 H 0.93164 0.67328 0.55073 0.0
H196 H 0.96449 0.59208 0.51824 0.0
H197 H 0.34415 0.9923 0.59339 0.0
H198 H 0.03797 0.53262 0.47435 0.0
N199 N 0.08381 0.69929 0.50698 0.0
C200 C 0.04009 0.73258 0.528 0.0
C201 C 0.97418 0.68011 0.53813 0.0
C202 C 0.01707 0.64571 0.51499 0.0
C203 C 0.98531 0.72365 0.5443 0.0
C204 C 0.0719 0.65648 0.49943 0.0
H205 H 0.13385 0.50985 0.43006 0.0
N206 N 0.16373 0.63471 0.45955 0.0
C207 C 0.19169 0.55734 0.42173 0.0
C208 C 0.11317 0.62312 0.47491 0.0
C209 C 0.20161 0.60261 0.43238 0.0
C210 C 0.14158 0.54495 0.43841 0.0
C211 C 0.10096 0.57793 0.46502 0.0
O212 O 0.16793 0.68679 0.42114 0.0
O213 O 0.26789 0.75516 0.48765 0.0
O214 O 0.24097 0.82913 0.52597 0.0
O215 O 0.14486 0.78486 0.50868 0.0
O216 O 0.26718 0.69469 0.4405 0.0
O217 O 0.09565 0.7335 0.45875 0.0
O218 O 0.31669 0.81406 0.60313 0.0
O219 O 0.21799 0.74603 0.53676 0.0
O220 O 0.24587 0.67209 0.49742 0.0
O221 O 0.34129 0.71718 0.5158 0.0
O222 O 0.21815 0.80669 0.58371 0.0
O223 O 0.39206 0.77043 0.56576 0.0
C224 C 0.29959 0.73159 0.45862 0.0
C225 C 0.05823 0.68335 0.39926 0.0
C226 C -0.00543 0.66678 0.34434 0.0
C227 C 0.04762 0.68889 0.36844 0.0
C228 C 0.9527 0.63862 0.35135 0.0
C229 C 0.01642 0.65484 0.4057 0.0
C230 C 0.96394 0.63253 0.38173 0.0
C231 C 0.17668 0.82295 0.51769 0.0
C232 C 0.11229 0.70837 0.42466 0.0
C233 C 0.04787 0.56711 0.48136 0.0
C234 C 0.00603 0.60096 0.50634 0.0
C235 C 0.18635 0.76945 0.56588 0.0
C236 C 0.42635 0.82125 0.62577 0.0
C237 C 0.43769 0.81603 0.65669 0.0
C238 C 0.48793 0.8408 0.68193 0.0
C239 C 0.52642 0.87113 0.67579 0.0
C240 C 0.46488 0.85178 0.62017 0.0
C241 C 0.5147 0.87661 0.64515 0.0
C242 C 0.31005 0.67871 0.50607 0.0
C243 C 0.37413 0.79443 0.59979 0.0
H244 H 0.07967 0.71128 0.36372 0.0
H245 H 0.9116 0.6211 0.33318 0.0
H246 H 0.02406 0.65013 0.4293 0.0
H247 H 0.93162 0.61065 0.38683 0.0
H248 H 0.40811 0.79207 0.66071 0.0
H249 H 0.5651 0.89094 0.69487 0.0
H250 H 0.45658 0.85629 0.59652 0.0
H251 H 0.54439 0.90017 0.64076 0.0
Eu252 Eu 0.68292 0.2163 0.48441 0.0
C253 C 0.87972 0.38054 0.55107 0.0
C254 C 0.97505 0.35608 0.51044 0.0
C255 C 0.94622 0.43507 0.54322 0.0
C256 C 0.92007 0.34643 0.52663 0.0
C257 C 0.89301 0.42538 0.56023 0.0
C258 C 0.98712 0.40046 0.51832 0.0
C259 C 0.80305 0.44789 0.60412 0.0
N260 N 0.82901 0.37004 0.56708 0.0
C261 C 0.79201 0.40292 0.59418 0.0
C262 C 0.85333 0.45916 0.58679 0.0
Eu263 Eu 0.8111 0.29327 0.54792 0.0
N264 N 0.90723 0.30401 0.51985 0.0
C265 C 0.95021 0.27007 0.49909 0.0
C266 C 0.01711 0.32097 0.48748 0.0
C267 C 0.00509 0.27787 0.48217 0.0
H268 H 0.7528 0.39428 0.60747 0.0
H269 H 0.038 0.2506 0.465 0.0
H270 H 0.02879 0.40848 0.50592 0.0
H271 H 0.77274 0.47378 0.62507 0.0
H272 H 0.94152 0.23656 0.49458 0.0
H273 H 0.45461 0.25741 0.56611 0.0
H274 H 0.05973 0.32693 0.47441 0.0
H275 H 0.74151 0.11534 0.42455 0.0
H276 H 0.5506 0.27188 0.53645 0.0
H277 H 0.72322 0.03588 0.40749 0.0
H278 H 0.95693 0.46927 0.54965 0.0
H279 H 0.43558 0.1814 0.55803 0.0
H280 H 0.46887 0.10028 0.52761 0.0
H281 H 0.86191 0.49403 0.59458 0.0
H282 H 0.54157 0.03986 0.48414 0.0
N283 N 0.58709 0.20501 0.51238 0.0
C284 C 0.54299 0.2385 0.53248 0.0
C285 C 0.47793 0.18755 0.5449 0.0
C286 C 0.52099 0.15279 0.52248 0.0
C287 C 0.48839 0.23045 0.54943 0.0
C288 C 0.57552 0.16267 0.50615 0.0
H289 H 0.63581 0.01542 0.43875 0.0
N290 N 0.66612 0.13943 0.46541 0.0
C291 C 0.69294 0.06168 0.42854 0.0
C292 C 0.61625 0.12876 0.48179 0.0
C293 C 0.70304 0.10665 0.43817 0.0
C294 C 0.64366 0.05028 0.44631 0.0
C295 C 0.60393 0.08392 0.47296 0.0
O296 O 0.67181 0.1913 0.42578 0.0
O297 O 0.77229 0.2585 0.49102 0.0
O298 O 0.74686 0.33307 0.52943 0.0
O299 O 0.64993 0.28951 0.51248 0.0
O300 O 0.77025 0.19671 0.44508 0.0
O301 O 0.59764 0.23643 0.46301 0.0
O302 O 0.82347 0.3193 0.60665 0.0
O303 O 0.72172 0.25151 0.54107 0.0
O304 O 0.7464 0.17677 0.50335 0.0
O305 O 0.84373 0.2199 0.52001 0.0
O306 O 0.72403 0.31234 0.58775 0.0
O307 O 0.8949 0.27163 0.56911 0.0
C308 C 0.80333 0.23356 0.46201 0.0
C309 C 0.56233 0.18553 0.40324 0.0
C310 C 0.50022 0.16675 0.34738 0.0
C311 C 0.55098 0.19101 0.37245 0.0
C312 C 0.46121 0.13667 0.35358 0.0
C313 C 0.52324 0.15528 0.40892 0.0
C314 C 0.4729 0.13096 0.38411 0.0
C315 C 0.68247 0.32727 0.52118 0.0
C316 C 0.61518 0.21176 0.42901 0.0
C317 C 0.55148 0.07406 0.4903 0.0
C318 C 0.51011 0.10846 0.51506 0.0
C319 C 0.69063 0.27575 0.57015 0.0
C320 C 0.93311 0.32199 0.6284 0.0
C321 C 0.94341 0.31669 0.65938 0.0
C322 C -0.00325 0.33852 0.68334 0.0
C323 C 0.03924 0.36616 0.67604 0.0
C324 C 0.97554 0.34997 0.62168 0.0
C325 C 0.02833 0.372 0.64551 0.0
C326 C 0.81081 0.18229 0.51145 0.0
C327 C 0.87865 0.29728 0.60319 0.0
H328 H 0.581 0.21478 0.36839 0.0
H329 H 0.42214 0.11723 0.33463 0.0
H330 H 0.53155 0.15059 0.43248 0.0
H331 H 0.44279 0.1076 0.38855 0.0
H332 H 0.91086 0.2947 0.66431 0.0
H333 H 0.08058 0.38347 0.69409 0.0
H334 H 0.96813 0.35449 0.59797 0.0
H335 H 0.06114 0.39348 0.64019 0.0
C336 C 0.67222 0.60583 1.0043 0.0
C337 C 0.63898 0.644 1.00766 0.0
C338 C 0.63645 0.57131 1.00535 0.0
C339 C 0.47807 0.54883 0.03813 0.0
H340 H 0.52075 0.42468 0.97179 0.0
C341 C 0.31517 0.40206 0.0249 0.0
C342 C 0.34866 0.36401 0.02165 0.0
C343 C 0.35069 0.43658 0.02372 0.0
C344 C 0.50879 0.4592 0.99077 0.0
H345 H 0.54195 0.67564 0.01438 0.0
H346 H 0.47961 0.61521 0.01596 0.0
H347 H 0.58234 0.48396 0.96779 0.0
H348 H 0.44588 0.33262 0.01499 0.0
H349 H 0.50778 0.39305 1.01318 0.0
H350 H 0.40452 0.52406 0.06112 0.0
C351 C 0.53342 0.61226 1.01292 0.0
C352 C 0.54399 0.49311 0.98845 0.0
C353 C 0.56916 0.64677 1.01182 0.0
C354 C 0.41848 0.36139 0.01747 0.0
C355 C 0.45396 0.3959 0.01623 0.0
C356 C 0.44286 0.51491 0.04045 0.0
C357 C 0.56673 0.5743 1.00991 0.0
C358 C 0.529 0.53827 1.01211 0.0
C359 C 0.4204 0.43372 0.01913 0.0
C360 C 0.4579 0.46975 0.01681 0.0
H361 H 0.72606 0.60287 1.00156 0.0
H362 H 0.6636 0.54273 1.00344 0.0
H363 H 0.46613 0.58334 0.05713 0.0
H364 H 0.26132 0.4049 0.02765 0.0
H365 H 0.32336 0.46506 0.02556 0.0
C366 C 0.41883 0.64511 0.50994 0.0
C367 C 0.34911 0.6415 0.50532 0.0
C368 C 0.45552 0.61091 0.51099 0.0
C369 C 0.44864 0.49154 0.48598 0.0
H370 H 0.58625 0.52416 0.55992 0.0
C371 C 0.57492 0.36158 0.51662 0.0
C372 C 0.64465 0.36455 0.52129 0.0
C373 C 0.53932 0.39577 0.51498 0.0
C374 C 0.54848 0.51456 0.5389 0.0
H375 H 0.26323 0.59907 0.49817 0.0
H376 H 0.3274 0.53943 0.5 0.0
H377 H 0.52317 0.58269 0.5555 0.0
H378 H 0.73167 0.40587 0.52791 0.0
H379 H 0.6693 0.46562 0.52513 0.0
H380 H 0.47381 0.42342 0.46945 0.0
C381 C 0.35372 0.56848 0.50234 0.0
C382 C 0.51241 0.54804 0.53633 0.0
C383 C 0.31696 0.60271 0.50131 0.0
C384 C 0.67791 0.40274 0.52473 0.0
C385 C 0.6422 0.437 0.52315 0.0
C386 C 0.48467 0.45808 0.48856 0.0
C387 C 0.42331 0.57242 0.50749 0.0
C388 C 0.46206 0.53686 0.50988 0.0
C389 C 0.57262 0.43366 0.51794 0.0
C390 C 0.53483 0.46925 0.5151 0.0
H391 H 0.44526 0.67444 0.51296 0.0
H392 H 0.50922 0.61458 0.51445 0.0
H393 H 0.4108 0.48193 0.46499 0.0
H394 H 0.54763 0.33273 0.51402 0.0
H395 H 0.48558 0.39259 0.51151 0.0
C396 C 0.07262 0.14733 0.01457 0.0
C397 C 0.14224 0.14397 1.00947 0.0
C398 C 0.03668 0.11275 0.01538 0.0
C399 C 0.04467 0.9929 0.98836 0.0
H400 H 0.90813 0.02354 0.06251 0.0
C401 C 0.91677 0.86005 0.01498 0.0
C402 C 0.84714 0.86356 0.02 0.0
C403 C 0.95301 0.89458 0.01425 0.0
C404 C 0.94563 0.0145 0.04144 0.0
H405 H 0.22872 0.10162 1.00133 0.0
H406 H 0.1658 0.04126 1.0027 0.0
H407 H 0.97109 0.08292 0.05939 0.0
H408 H 0.76093 0.90611 0.02806 0.0
H409 H 0.82435 0.96636 0.02685 0.0
H410 H 0.01919 0.92448 0.9704 0.0
C411 C 0.13901 0.07045 1.00561 0.0
C412 C 0.98163 0.04846 0.03962 0.0
C413 C 0.17504 0.10507 1.00484 0.0
C414 C 0.81461 0.90254 0.02462 0.0
C415 C 0.85093 0.93711 0.02394 0.0
C416 C 0.00867 0.95894 0.99017 0.0
C417 C 0.06953 0.0741 1.01115 0.0
C418 C 0.03145 0.038 1.01304 0.0
C419 C 0.92044 0.93333 0.0185 0.0
C420 C 0.95879 0.9694 0.01673 0.0
H421 H 0.04568 0.17674 0.0181 0.0
H422 H 0.98302 0.11621 0.01916 0.0
H423 H 0.08214 0.98386 0.96727 0.0
H424 H 0.94349 0.83057 1.01146 0.0
H425 H 0.00667 0.89101 1.01053 0.0
C426 C 0.81405 0.10674 0.50764 0.0
C427 C 0.84812 0.14455 0.51084 0.0
C428 C 0.84918 0.07154 0.50798 0.0
C429 C 0.01693 0.02134 0.49377 0.0
H430 H 0.94794 0.96797 0.55083 0.0
C431 C 0.17167 0.89854 0.52169 0.0
C432 C 0.13843 0.86038 0.51833 0.0
C433 C 0.13582 0.93333 0.52114 0.0
C434 C 0.96745 0.98224 0.53449 0.0
H435 H 0.94587 0.17506 0.51696 0.0
H436 H 0.00695 0.11387 0.518 0.0
H437 H 0.88581 0.02815 0.5484 0.0
H438 H 0.04137 0.82891 0.51183 0.0
H439 H 0.97896 0.88952 0.51049 0.0
H440 H 0.09862 0.9755 0.47991 0.0
C441 C 0.95316 0.11119 0.51468 0.0
C442 C 0.93188 0.01664 0.53306 0.0
C443 C 0.91806 0.14637 0.51432 0.0
C444 C 0.06853 0.85788 0.51458 0.0
C445 C 0.03268 0.89271 0.51403 0.0
C446 C 0.0525 0.98697 0.49521 0.0
C447 C 0.91907 0.07348 0.51163 0.0
C448 C 0.95633 0.03657 0.51273 0.0
C449 C 0.06601 0.93067 0.51711 0.0
C450 C 0.02818 0.96714 0.51563 0.0
H451 H 0.76013 0.10443 0.50531 0.0
H452 H 0.82162 0.04271 0.50522 0.0
H453 H 0.03649 0.03561 0.47744 0.0
H454 H 0.22554 0.90139 0.52426 0.0
H455 H 0.16279 0.96241 0.52397 0.0
C456 C 0.54057 0.17577 0.2942 0.0
C457 C 0.48739 0.1733 0.31516 0.0
C458 C 0.52826 0.18228 0.26407 0.0
C459 C 0.39268 0.17521 0.20033 0.0
H460 H 0.50782 0.25396 0.1822 0.0
C461 C 0.33518 0.21179 0.08254 0.0
C462 C 0.34081 0.25671 0.09059 0.0
C463 C 0.36346 0.19724 0.10564 0.0
C464 C 0.47501 0.23196 0.18691 0.0
H465 H 0.3797 0.17658 0.32132 0.0
H466 H 0.35815 0.18871 0.26936 0.0
H467 H 0.53395 0.23823 0.23192 0.0
H468 H 0.38107 0.32145 0.12875 0.0
H469 H 0.42856 0.29667 0.1698 0.0
H470 H 0.33175 0.17075 0.15675 0.0
C471 C 0.40939 0.18442 0.27546 0.0
C472 C 0.49046 0.2225 0.21521 0.0
C473 C 0.42169 0.1776 0.30538 0.0
C474 C 0.37668 0.28651 0.1217 0.0
C475 C 0.40427 0.27215 0.14509 0.0
C476 C 0.377 0.18491 0.17227 0.0
C477 C 0.46246 0.18676 0.25432 0.0
C478 C 0.44887 0.19454 0.22267 0.0
C479 C 0.39654 0.22755 0.13788 0.0
C480 C 0.41739 0.21391 0.16545 0.0
H481 H 0.59175 0.17208 0.30082 0.0
H482 H 0.57034 0.1833 0.2482 0.0
H483 H 0.36014 0.15286 0.20476 0.0
H484 H 0.30687 0.18816 0.05917 0.0
H485 H 0.35757 0.16246 0.09877 0.0
C486 C 0.4457 0.85562 0.24251 0.0
C487 C 0.50439 0.83989 0.22144 0.0
C488 C 0.43356 0.84708 0.27159 0.0
C489 C 0.45668 0.76571 0.30078 0.0
H490 H 0.43115 0.86044 0.40007 0.0
C491 C 0.38648 0.72136 0.41276 0.0
C492 C 0.34063 0.74941 0.43922 0.0
C493 C 0.41793 0.73518 0.38998 0.0
C494 C 0.4372 0.83348 0.37247 0.0
H495 H 0.59695 0.80349 0.21569 0.0
H496 H 0.57322 0.78645 0.26497 0.0
H497 H 0.46034 0.8792 0.35221 0.0
H498 H 0.29164 0.81398 0.46284 0.0
H499 H 0.34352 0.83744 0.42228 0.0
H500 H 0.42939 0.71992 0.3197 0.0
C501 C 0.53737 0.80588 0.25895 0.0
C502 C 0.45442 0.84436 0.34517 0.0
C503 C 0.5504 0.8153 0.23043 0.0
C504 C 0.32782 0.79201 0.44314 0.0
C505 C 0.35797 0.80547 0.41978 0.0
C506 C 0.43787 0.75482 0.32778 0.0
C507 C 0.47898 0.8218 0.2798 0.0
C508 C 0.46396 0.81054 0.30911 0.0
C509 C 0.40223 0.77677 0.39217 0.0
C510 C 0.42737 0.78853 0.36407 0.0
H511 H 0.40825 0.87384 0.23622 0.0
H512 H 0.38774 0.85921 0.28708 0.0
H513 H 0.46326 0.73911 0.27303 0.0
H514 H 0.39706 0.68832 0.40928 0.0
H515 H 0.45321 0.7126 0.37 0.0
C516 C 0.65365 0.7964 0.947 0.0
C517 C 0.64771 0.75152 0.939 0.0
C518 C 0.62536 0.81102 0.92393 0.0
C519 C 0.51337 0.77641 0.84282 0.0
H520 H 0.6282 0.85541 0.82482 0.0
C521 C 0.44765 0.83194 0.73518 0.0
C522 C 0.50082 0.8345 0.71425 0.0
C523 C 0.46 0.82562 0.7654 0.0
C524 C 0.59567 0.83308 0.82928 0.0
H525 H 0.60695 0.68689 0.90095 0.0
H526 H 0.55949 0.71175 0.85996 0.0
H527 H 0.65671 0.83756 0.87284 0.0
H528 H 0.60853 0.83161 0.70826 0.0
H529 H 0.63016 0.81975 0.76033 0.0
H530 H 0.45438 0.77005 0.79781 0.0
C531 C 0.584 0.73623 0.88461 0.0
C532 C 0.61142 0.82342 0.85736 0.0
C533 C 0.61157 0.72181 0.90796 0.0
C534 C 0.56655 0.83051 0.72417 0.0
C535 C 0.57889 0.82385 0.75416 0.0
C536 C 0.49789 0.78581 0.81449 0.0
C537 C 0.59198 0.78079 0.89178 0.0
C538 C 0.57105 0.79445 0.86422 0.0
C539 C 0.52583 0.8214 0.77526 0.0
C540 C 0.53946 0.81372 0.80697 0.0
H541 H 0.68219 0.81995 0.9703 0.0
H542 H 0.63146 0.84577 0.93078 0.0
H543 H 0.48056 0.75446 0.84757 0.0
H544 H 0.39645 0.83539 0.72845 0.0
H545 H 0.41792 0.82454 0.78124 0.0
C546 C 0.66106 0.21605 0.58624 0.0
C547 C 0.64946 0.25875 0.59012 0.0
C548 C 0.6306 0.20306 0.6098 0.0
C549 C 0.55225 0.2546 0.70219 0.0
H550 H 0.52596 0.13044 0.67755 0.0
C551 C 0.43829 0.19417 0.79946 0.0
C552 C 0.48417 0.16932 0.80826 0.0
C553 C 0.45136 0.20377 0.77104 0.0
C554 C 0.53293 0.16523 0.68464 0.0
H555 H 0.595 0.32064 0.62036 0.0
H556 H 0.53837 0.29727 0.66013 0.0
H557 H 0.55545 0.14907 0.62966 0.0
H558 H 0.58015 0.13519 0.79329 0.0
H559 H 0.60069 0.15011 0.74259 0.0
H560 H 0.52759 0.27041 0.75706 0.0
C561 C 0.57288 0.27418 0.63993 0.0
C562 C 0.55035 0.17602 0.65733 0.0
C563 C 0.60462 0.2875 0.61688 0.0
C564 C 0.54279 0.15359 0.78714 0.0
C565 C 0.55496 0.1623 0.75816 0.0
C566 C 0.53324 0.24382 0.72923 0.0
C567 C 0.58723 0.23236 0.63764 0.0
C568 C 0.56164 0.22086 0.6658 0.0
C569 C 0.50965 0.18778 0.75011 0.0
C570 C 0.52463 0.19905 0.72081 0.0
H571 H 0.69649 0.19353 0.56635 0.0
H572 H 0.64409 0.1709 0.60725 0.0
H573 H 0.5618 0.2894 0.7103 0.0
H574 H 0.3918 0.20601 0.81426 0.0
H575 H 0.41562 0.22337 0.76515 0.0
C576 C 0.87737 0.78885 0.11812 0.0
C577 C 0.84062 0.75768 0.08799 0.0
C578 C 0.90523 0.77681 0.14283 0.0
C579 C 0.95099 0.68371 0.15997 0.0
H580 H 0.89371 0.76469 0.2589 0.0
C581 C 0.03399 0.67165 0.28919 0.0
C582 C 0.98174 0.67425 0.31264 0.0
C583 C 0.02182 0.67976 0.25984 0.0
C584 C 0.91011 0.7418 0.23143 0.0
H585 H 0.8062 0.68895 0.05934 0.0
H586 H 0.85643 0.66753 0.10213 0.0
H587 H 0.86855 0.78234 0.21006 0.0
H588 H 0.87605 0.68753 0.32389 0.0
H589 H 0.85505 0.70249 0.27305 0.0
H590 H 0.99245 0.64313 0.18168 0.0
C591 C 0.86389 0.70125 0.10649 0.0
C592 C 0.89628 0.75208 0.20353 0.0
C593 C 0.8353 0.71347 0.08192 0.0
C594 C 0.91714 0.68499 0.30612 0.0
C595 C 0.90524 0.69382 0.2772 0.0
C596 C 0.96585 0.67375 0.18811 0.0
C597 C 0.89697 0.7333 0.13791 0.0
C598 C 0.91604 0.72302 0.16746 0.0
C599 C 0.95746 0.69144 0.25384 0.0
C600 C 0.94474 0.70247 0.22403 0.0
H601 H 0.88197 0.82318 0.12346 0.0
H602 H 0.93111 0.80205 0.16661 0.0
H603 H 0.96678 0.66076 0.13239 0.0
H604 H 0.08419 0.6632 0.2935 0.0
H605 H 0.063 0.67793 0.24235 0.0
C606 C 0.8799 0.2178 0.41051 0.0
C607 C 0.84417 0.24929 0.44094 0.0
C608 C 0.90757 0.22962 0.38564 0.0
C609 C 0.95449 0.32253 0.36842 0.0
H610 H 0.89532 0.24204 0.26973 0.0
C611 C 0.03659 0.33422 0.23894 0.0
C612 C 0.98424 0.33175 0.21555 0.0
C613 C 0.0245 0.32623 0.26836 0.0
C614 C 0.91224 0.2648 0.29712 0.0
H615 H 0.81144 0.3184 0.46993 0.0
H616 H 0.86131 0.33943 0.42688 0.0
H617 H 0.87037 0.22454 0.31865 0.0
H618 H 0.87843 0.31882 0.2045 0.0
H619 H 0.85755 0.30411 0.25545 0.0
H620 H -0.00376 0.36283 0.34655 0.0
C621 C 0.86812 0.3056 0.42239 0.0
C622 C 0.89854 0.25459 0.32507 0.0
C623 C 0.83973 0.29359 0.44712 0.0
C624 C 0.91961 0.32127 0.22222 0.0
C625 C 0.90777 0.31257 0.25121 0.0
C626 C 0.96921 0.33241 0.34022 0.0
C627 C 0.90014 0.27327 0.39069 0.0
C628 C 0.91899 0.28347 0.36107 0.0
C629 C 0.96009 0.3148 0.2745 0.0
C630 C 0.94743 0.30387 0.30437 0.0
H631 H 0.88383 0.1834 0.40507 0.0
H632 H 0.93264 0.20416 0.36167 0.0
H633 H 0.97084 0.34533 0.39592 0.0
H634 H 0.08683 0.34248 0.23454 0.0
H635 H 0.06577 0.32795 0.28579 0.0
C636 C 0.95682 0.33441 0.73876 0.0
C637 C 0.00921 0.33132 0.71522 0.0
C638 C 0.96863 0.32659 0.76829 0.0
C639 C 0.07952 0.2647 0.79733 0.0
H640 H 0.02242 0.34646 0.89612 0.0
C641 C 0.111 0.21869 0.91128 0.0
C642 C 0.14756 0.24998 0.94144 0.0
C643 C 0.08336 0.23055 0.88641 0.0
C644 C 0.03834 0.32332 0.86863 0.0
H645 H 0.1148 0.31745 0.70402 0.0
H646 H 0.13518 0.30302 0.75518 0.0
H647 H -0.00256 0.36361 0.84649 0.0
H648 H 0.18169 0.31878 0.97003 0.0
H649 H 0.13191 0.33987 0.92694 0.0
H650 H 0.12054 0.22445 0.81912 0.0
C651 C 0.08515 0.31185 0.75096 0.0
C652 C 0.02386 0.33299 0.84028 0.0
C653 C 0.0736 0.32037 0.72185 0.0
C654 C 0.15277 0.29415 0.94742 0.0
C655 C 0.12444 0.30619 0.92267 0.0
C656 C 0.09297 0.25471 0.82543 0.0
C657 C 0.03278 0.31472 0.77441 0.0
C658 C 0.04512 0.30401 0.80444 0.0
C659 C 0.09168 0.274 0.89118 0.0
C660 C 0.07305 0.28402 0.86143 0.0
H661 H 0.90677 0.34303 0.73438 0.0
H662 H 0.92733 0.32881 0.78584 0.0
H663 H 0.09602 0.2416 0.76994 0.0
H664 H 0.10645 0.18439 0.90601 0.0
H665 H 0.05769 0.2052 0.86261 0.0
C666 C 0.11007 0.78114 0.61668 0.0
C667 C 0.14664 0.75152 0.58581 0.0
C668 C 0.08214 0.76667 0.63989 0.0
C669 C 0.11005 0.67996 0.66756 0.0
H670 H 0.95279 0.73328 0.72687 0.0
C671 C 0.06656 0.67505 0.80174 0.0
C672 C 0.00102 0.67077 0.8117 0.0
C673 C 0.07846 0.68125 0.77148 0.0
C674 C -0.00363 0.71754 0.71026 0.0
H675 H 0.1812 0.6831 0.55451 0.0
H676 H 0.13001 0.65719 0.59389 0.0
H677 H 0.97851 0.74824 0.67673 0.0
H678 H 0.89653 0.66897 0.79733 0.0
H679 H 0.91725 0.67912 0.74414 0.0
H680 H 0.12745 0.64871 0.70062 0.0
C681 C 0.12383 0.69193 0.60069 0.0
C682 C 0.01157 0.72656 0.68171 0.0
C683 C 0.15241 0.7066 0.57773 0.0
C684 C 0.94759 0.67266 0.79059 0.0
C685 C 0.95951 0.67855 0.76012 0.0
C686 C 0.09462 0.67071 0.69589 0.0
C687 C 0.09021 0.72213 0.63277 0.0
C688 C 0.06935 0.70857 0.66039 0.0
C689 C 0.02516 0.68297 0.75016 0.0
C690 C 0.03836 0.69008 0.71814 0.0
H691 H 0.1055 0.81608 0.62374 0.0
H692 H 0.05741 0.79112 0.66447 0.0
H693 H 0.1554 0.66586 0.65215 0.0
H694 H 0.10874 0.67448 0.81778 0.0
H695 H 0.12959 0.68553 0.76525 0.0
loop_
_geom_bond_atom_site_label_1
_geom_bond_atom_site_label_2
_geom_bond_distance
_geom_bond_site_symmetry_2
_ccdc_geom_bond_type
Eu0 N31 2.657 . S
Eu0 N38 2.609 . S
Eu0 O44 2.558 . S
Eu0 O45 2.612 . S
Eu0 O47 2.339 . S
Eu0 O48 2.563 . S
Eu0 O49 2.419 . S
Eu0 O51 2.380 1_554 S
Eu0 O52 2.432 . S
Eu0 C64 2.848 . S
C1 C4 1.429 . S
C1 C5 1.411 . S
C1 N8 1.377 . S
C2 C4 1.420 1_554 S
C2 C6 1.423 . S
C2 C14 1.392 . S
C3 C5 1.420 . S
C3 C6 1.351 1_556 S
C3 H26 0.931 . S
C4 C1 1.429 . S
C4 C2 1.420 1_556 S
C4 N12 1.362 . S
C5 C1 1.411 . S
C5 C3 1.420 . S
C5 C10 1.395 . S
C6 C2 1.423 . S
C6 C3 1.351 1_554 S
C6 H18 0.930 . S
C7 C9 1.400 . S
C7 C10 1.386 . S
C7 H19 0.930 . S
N8 C1 1.377 . S
N8 C9 1.321 . S
N8 Eu11 2.609 . S
C9 C7 1.400 . S
C9 N8 1.321 . S
C9 H16 0.930 . S
C10 C5 1.395 . S
C10 C7 1.386 . S
C10 H29 0.930 . S
Eu11 N8 2.609 . S
Eu11 N12 2.657 . S
Eu11 O45 2.380 1_556 S
Eu11 O46 2.432 . S
Eu11 O50 2.558 . S
Eu11 O51 2.612 . S
Eu11 O53 2.339 . S
Eu11 O54 2.563 . S
Eu11 O55 2.419 . S
Eu11 C75 2.848 . S
N12 C4 1.362 . S
N12 Eu11 2.657 . S
N12 C13 1.334 1_556 S
C13 N12 1.334 1_554 S
C13 C15 1.413 . S
C13 H20 0.929 . S
C14 C2 1.392 . S
C14 C15 1.367 . S
C14 H22 0.930 . S
C15 C13 1.413 . S
C15 C14 1.367 . S
C15 H17 0.930 . S
H16 C9 0.930 . S
H17 C15 0.930 . S
H18 C6 0.930 . S
H19 C7 0.930 . S
H20 C13 0.929 . S
H21 C35 0.930 . S
H22 C14 0.930 . S
H23 C41 0.930 . S
H24 C32 0.929 . S
H25 C39 0.930 . S
H26 C3 0.931 . S
H27 C33 0.930 . S
H28 C66 0.930 . S
H29 C10 0.930 . S
H30 C65 0.931 . S
N31 Eu0 2.657 . S
N31 C32 1.334 1_554 S
N31 C36 1.362 . S
C32 H24 0.929 . S
C32 N31 1.334 1_556 S
C32 C35 1.413 1_455 S
C33 H27 0.930 . S
C33 C34 1.392 . S
C33 C35 1.367 . S
C34 C33 1.392 . S
C34 C36 1.420 1_656 S
C34 C66 1.423 . S
C35 H21 0.930 . S
C35 C32 1.413 1_655 S
C35 C33 1.367 . S
C36 N31 1.362 . S
C36 C34 1.420 1_454 S
C36 C40 1.429 . S
H37 C42 0.930 . S
N38 Eu0 2.609 . S
N38 C40 1.377 . S
N38 C41 1.321 . S
C39 H25 0.930 . S
C39 C41 1.400 . S
C39 C42 1.386 . S
C40 C36 1.429 . S
C40 N38 1.377 . S
C40 C43 1.411 . S
C41 H23 0.930 . S
C41 N38 1.321 . S
C41 C39 1.400 . S
C42 H37 0.930 . S
C42 C39 1.386 . S
C42 C43 1.395 . S
C43 C40 1.411 . S
C43 C42 1.395 . S
C43 C65 1.420 1_455 S
O44 Eu0 2.558 . S
O44 C64 1.257 . S
O45 Eu0 2.612 . S
O45 Eu11 2.380 1_554 S
O45 C56 1.276 . S
O46 Eu11 2.432 . S
O46 C63 1.264 . S
O47 Eu0 2.339 . S
O47 C63 1.254 1_554 S
O48 Eu0 2.563 . S
O48 C56 1.235 . S
O49 Eu0 2.419 . S
O49 C64 1.249 . S
O50 Eu11 2.558 . S
O50 C75 1.257 . S
O51 Eu0 2.380 1_556 S
O51 Eu11 2.612 . S
O51 C67 1.276 . S
O52 Eu0 2.432 . S
O52 C74 1.264 . S
O53 Eu11 2.339 . S
O53 C74 1.254 1_556 S
O54 Eu11 2.563 . S
O54 C67 1.235 . S
O55 Eu11 2.419 . S
O55 C75 1.249 . S
C56 O45 1.276 . S
C56 O48 1.235 . S
C57 C59 1.393 . S
C57 C61 1.395 . S
C57 C64 1.492 . S
C58 C59 1.392 . S
C58 C60 1.386 . S
C59 C57 1.393 . S
C59 C58 1.392 . S
C59 H76 0.930 . S
C60 C58 1.386 . S
C60 C62 1.395 . S
C60 H77 0.930 . S
C61 C57 1.395 . S
C61 C62 1.379 . S
C61 H78 0.930 . S
C62 C60 1.395 . S
C62 C61 1.379 . S
C62 H79 0.930 . S
C63 O46 1.264 . S
C63 O47 1.254 1_556 S
C64 Eu0 2.848 . S
C64 O44 1.257 . S
C64 O49 1.249 . S
C64 C57 1.492 . S
C65 H30 0.931 . S
C65 C43 1.420 1_655 S
C65 C66 1.351 1_554 S
C66 H28 0.930 . S
C66 C34 1.423 . S
C66 C65 1.351 1_556 S
C67 O51 1.276 . S
C67 O54 1.235 . S
C68 C69 1.393 . S
C68 C72 1.395 . S
C68 C75 1.492 . S
C69 C68 1.393 . S
C69 C70 1.392 . S
C69 H80 0.930 . S
C70 C69 1.392 . S
C70 C71 1.386 . S
C71 C70 1.386 . S
C71 C73 1.395 . S
C71 H81 0.930 . S
C72 C68 1.395 . S
C72 C73 1.379 . S
C72 H82 0.930 . S
C73 C71 1.395 . S
C73 C72 1.379 . S
C73 H83 0.930 . S
C74 O52 1.264 . S
C74 O53 1.254 1_554 S
C75 Eu11 2.848 . S
C75 O50 1.257 . S
C75 O55 1.249 . S
C75 C68 1.492 . S
H76 C59 0.930 . S
H77 C60 0.930 . S
H78 C61 0.930 . S
H79 C62 0.930 . S
H80 C69 0.930 . S
H81 C71 0.930 . S
H82 C72 0.930 . S
H83 C73 0.930 . S
Eu84 N115 2.657 . S
Eu84 N122 2.609 . S
Eu84 O128 2.558 . S
Eu84 O129 2.612 . S
Eu84 O131 2.339 . S
Eu84 O132 2.563 . S
Eu84 O133 2.419 . S
Eu84 O135 2.380 1_554 S
Eu84 O136 2.432 . S
Eu84 C148 2.848 . S
C85 C88 1.429 . S
C85 C89 1.411 . S
C85 N92 1.377 . S
C86 C88 1.420 1_454 S
C86 C90 1.423 . S
C86 C98 1.392 . S
C87 C89 1.420 1_455 S
C87 C90 1.351 1_556 S
C87 H110 0.931 . S
C88 C85 1.429 . S
C88 C86 1.420 1_656 S
C88 N96 1.362 . S
C89 C85 1.411 . S
C89 C87 1.420 1_655 S
C89 C94 1.395 . S
C90 C86 1.423 . S
C90 C87 1.351 1_554 S
C90 H102 0.930 . S
C91 C93 1.400 . S
C91 C94 1.386 . S
C91 H103 0.930 . S
N92 C85 1.377 . S
N92 C93 1.321 . S
N92 Eu95 2.609 . S
C93 C91 1.400 . S
C93 N92 1.321 . S
C93 H100 0.930 . S
C94 C89 1.395 . S
C94 C91 1.386 . S
C94 H113 0.930 . S
Eu95 N92 2.609 . S
Eu95 N96 2.657 . S
Eu95 O129 2.380 1_556 S
Eu95 O130 2.432 . S
Eu95 O134 2.558 . S
Eu95 O135 2.612 . S
Eu95 O137 2.339 . S
Eu95 O138 2.563 . S
Eu95 O139 2.419 . S
Eu95 C159 2.848 . S
N96 C88 1.362 . S
N96 Eu95 2.657 . S
N96 C97 1.334 1_556 S
C97 N96 1.334 1_554 S
C97 C99 1.413 1_655 S
C97 H104 0.929 . S
C98 C86 1.392 . S
C98 C99 1.367 . S
C98 H106 0.930 . S
C99 C97 1.413 1_455 S
C99 C98 1.367 . S
C99 H101 0.930 . S
H100 C93 0.930 . S
H101 C99 0.930 . S
H102 C90 0.930 . S
H103 C91 0.930 . S
H104 C97 0.929 . S
H105 C119 0.930 . S
H106 C98 0.930 . S
H107 C125 0.930 . S
H108 C116 0.929 . S
H109 C123 0.930 . S
H110 C87 0.931 . S
H111 C117 0.930 . S
H112 C150 0.930 . S
H113 C94 0.930 . S
H114 C149 0.931 . S
N115 Eu84 2.657 . S
N115 C116 1.334 1_554 S
N115 C120 1.362 . S
C116 H108 0.929 . S
C116 N115 1.334 1_556 S
C116 C119 1.413 . S
C117 H111 0.930 . S
C117 C118 1.392 . S
C117 C119 1.367 . S
C118 C117 1.392 . S
C118 C120 1.420 1_556 S
C118 C150 1.423 . S
C119 H105 0.930 . S
C119 C116 1.413 . S
C119 C117 1.367 . S
C120 N115 1.362 . S
C120 C118 1.420 1_554 S
C120 C124 1.429 . S
H121 C126 0.930 . S
N122 Eu84 2.609 . S
N122 C124 1.377 . S
N122 C125 1.321 . S
C123 H109 0.930 . S
C123 C125 1.400 . S
C123 C126 1.386 . S
C124 C120 1.429 . S
C124 N122 1.377 . S
C124 C127 1.411 . S
C125 H107 0.930 . S
C125 N122 1.321 . S
C125 C123 1.400 . S
C126 H121 0.930 . S
C126 C123 1.386 . S
C126 C127 1.395 . S
C127 C124 1.411 . S
C127 C126 1.395 . S
C127 C149 1.420 . S
O128 Eu84 2.558 . S
O128 C148 1.257 . S
O129 Eu84 2.612 . S
O129 Eu95 2.380 1_554 S
O129 C140 1.276 . S
O130 Eu95 2.432 . S
O130 C147 1.264 . S
O131 Eu84 2.339 . S
O131 C147 1.254 1_554 S
O132 Eu84 2.563 . S
O132 C140 1.235 . S
O133 Eu84 2.419 . S
O133 C148 1.249 . S
O134 Eu95 2.558 . S
O134 C159 1.257 . S
O135 Eu84 2.380 1_556 S
O135 Eu95 2.612 . S
O135 C151 1.276 . S
O136 Eu84 2.432 . S
O136 C158 1.264 . S
O137 Eu95 2.339 . S
O137 C158 1.254 1_556 S
O138 Eu95 2.563 . S
O138 C151 1.235 . S
O139 Eu95 2.419 . S
O139 C159 1.249 . S
C140 O129 1.276 . S
C140 O132 1.235 . S
C141 C143 1.393 . S
C141 C145 1.395 . S
C141 C148 1.492 . S
C142 C143 1.392 . S
C142 C144 1.386 . S
C143 C141 1.393 . S
C143 C142 1.392 . S
C143 H160 0.930 . S
C144 C142 1.386 . S
C144 C146 1.395 . S
C144 H161 0.930 . S
C145 C141 1.395 . S
C145 C146 1.379 . S
C145 H162 0.930 . S
C146 C144 1.395 . S
C146 C145 1.379 . S
C146 H163 0.930 . S
C147 O130 1.264 . S
C147 O131 1.254 1_556 S
C148 Eu84 2.848 . S
C148 O128 1.257 . S
C148 O133 1.249 . S
C148 C141 1.492 . S
C149 H114 0.931 . S
C149 C127 1.420 . S
C149 C150 1.351 1_554 S
C150 H112 0.930 . S
C150 C118 1.423 . S
C150 C149 1.351 1_556 S
C151 O135 1.276 . S
C151 O138 1.235 . S
C152 C153 1.393 . S
C152 C156 1.395 . S
C152 C159 1.492 . S
C153 C152 1.393 . S
C153 C154 1.392 . S
C153 H164 0.930 . S
C154 C153 1.392 . S
C154 C155 1.386 . S
C155 C154 1.386 . S
C155 C157 1.395 . S
C155 H165 0.930 . S
C156 C152 1.395 . S
C156 C157 1.379 . S
C156 H166 0.930 . S
C157 C155 1.395 . S
C157 C156 1.379 . S
C157 H167 0.930 . S
C158 O136 1.264 . S
C158 O137 1.254 1_554 S
C159 Eu95 2.848 . S
C159 O134 1.257 . S
C159 O139 1.249 . S
C159 C152 1.492 . S
H160 C143 0.930 . S
H161 C144 0.930 . S
H162 C145 0.930 . S
H163 C146 0.930 . S
H164 C153 0.930 . S
H165 C155 0.930 . S
H166 C156 0.930 . S
H167 C157 0.930 . S
Eu168 N199 2.657 . S
Eu168 N206 2.609 . S
Eu168 O212 2.558 . S
Eu168 O213 2.612 . S
Eu168 O215 2.339 . S
Eu168 O216 2.563 . S
Eu168 O217 2.419 . S
Eu168 O219 2.380 . S
Eu168 O220 2.432 . S
Eu168 C232 2.848 . S
C169 C172 1.429 . S
C169 C173 1.411 . S
C169 N176 1.377 . S
C170 C172 1.420 . S
C170 C174 1.423 . S
C170 C182 1.392 . S
C171 C173 1.420 . S
C171 C174 1.351 . S
C171 H194 0.931 . S
C172 C169 1.429 . S
C172 C170 1.420 . S
C172 N180 1.362 . S
C173 C169 1.411 . S
C173 C171 1.420 . S
C173 C178 1.395 . S
C174 C170 1.423 . S
C174 C171 1.351 . S
C174 H186 0.930 . S
C175 C177 1.400 . S
C175 C178 1.386 . S
C175 H187 0.930 . S
N176 C169 1.377 . S
N176 C177 1.321 . S
N176 Eu179 2.609 . S
C177 C175 1.400 . S
C177 N176 1.321 . S
C177 H184 0.930 . S
C178 C173 1.395 . S
C178 C175 1.386 . S
C178 H197 0.930 . S
Eu179 N176 2.609 . S
Eu179 N180 2.657 . S
Eu179 O213 2.380 . S
Eu179 O214 2.432 . S
Eu179 O218 2.558 . S
Eu179 O219 2.612 . S
Eu179 O221 2.339 . S
Eu179 O222 2.563 . S
Eu179 O223 2.419 . S
Eu179 C243 2.848 . S
N180 C172 1.362 . S
N180 Eu179 2.657 . S
N180 C181 1.334 . S
C181 N180 1.334 . S
C181 C183 1.413 . S
C181 H188 0.929 . S
C182 C170 1.392 . S
C182 C183 1.367 . S
C182 H190 0.930 . S
C183 C181 1.413 . S
C183 C182 1.367 . S
C183 H185 0.930 . S
H184 C177 0.930 . S
H185 C183 0.930 . S
H186 C174 0.930 . S
H187 C175 0.930 . S
H188 C181 0.929 . S
H189 C203 0.930 . S
H190 C182 0.930 . S
H191 C209 0.930 . S
H192 C200 0.929 . S
H193 C207 0.930 . S
H194 C171 0.931 . S
H195 C201 0.930 . S
H196 C234 0.930 . S
H197 C178 0.930 . S
H198 C233 0.931 . S
N199 Eu168 2.657 . S
N199 C200 1.334 . S
N199 C204 1.362 . S
C200 H192 0.929 . S
C200 N199 1.334 . S
C200 C203 1.413 1_455 S
C201 H195 0.930 . S
C201 C202 1.392 . S
C201 C203 1.367 . S
C202 C201 1.392 . S
C202 C204 1.420 1_655 S
C202 C234 1.423 . S
C203 H189 0.930 . S
C203 C200 1.413 1_655 S
C203 C201 1.367 . S
C204 N199 1.362 . S
C204 C202 1.420 1_455 S
C204 C208 1.429 . S
H205 C210 0.930 . S
N206 Eu168 2.609 . S
N206 C208 1.377 . S
N206 C209 1.321 . S
C207 H193 0.930 . S
C207 C209 1.400 . S
C207 C210 1.386 . S
C208 C204 1.429 . S
C208 N206 1.377 . S
C208 C211 1.411 . S
C209 H191 0.930 . S
C209 N206 1.321 . S
C209 C207 1.400 . S
C210 H205 0.930 . S
C210 C207 1.386 . S
C210 C211 1.395 . S
C211 C208 1.411 . S
C211 C210 1.395 . S
C211 C233 1.420 1_455 S
O212 Eu168 2.558 . S
O212 C232 1.257 . S
O213 Eu168 2.612 . S
O213 Eu179 2.380 . S
O213 C224 1.276 . S
O214 Eu179 2.432 . S
O214 C231 1.264 . S
O215 Eu168 2.339 . S
O215 C231 1.254 . S
O216 Eu168 2.563 . S
O216 C224 1.235 . S
O217 Eu168 2.419 . S
O217 C232 1.249 . S
O218 Eu179 2.558 . S
O218 C243 1.257 . S
O219 Eu168 2.380 . S
O219 Eu179 2.612 . S
O219 C235 1.276 . S
O220 Eu168 2.432 . S
O220 C242 1.264 . S
O221 Eu179 2.339 . S
O221 C242 1.254 . S
O222 Eu179 2.563 . S
O222 C235 1.235 . S
O223 Eu179 2.419 . S
O223 C243 1.249 . S
C224 O213 1.276 . S
C224 O216 1.235 . S
C225 C227 1.393 . S
C225 C229 1.395 . S
C225 C232 1.492 . S
C226 C227 1.392 . S
C226 C228 1.386 . S
C227 C225 1.393 . S
C227 C226 1.392 . S
C227 H244 0.930 . S
C228 C226 1.386 . S
C228 C230 1.395 . S
C228 H245 0.930 . S
C229 C225 1.395 . S
C229 C230 1.379 . S
C229 H246 0.930 . S
C230 C228 1.395 . S
C230 C229 1.379 . S
C230 H247 0.930 . S
C231 O214 1.264 . S
C231 O215 1.254 . S
C232 Eu168 2.848 . S
C232 O212 1.257 . S
C232 O217 1.249 . S
C232 C225 1.492 . S
C233 H198 0.931 . S
C233 C211 1.420 1_655 S
C233 C234 1.351 . S
C234 H196 0.930 . S
C234 C202 1.423 . S
C234 C233 1.351 . S
C235 O219 1.276 . S
C235 O222 1.235 . S
C236 C237 1.393 . S
C236 C240 1.395 . S
C236 C243 1.492 . S
C237 C236 1.393 . S
C237 C238 1.392 . S
C237 H248 0.930 . S
C238 C237 1.392 . S
C238 C239 1.386 . S
C239 C238 1.386 . S
C239 C241 1.395 . S
C239 H249 0.930 . S
C240 C236 1.395 . S
C240 C241 1.379 . S
C240 H250 0.930 . S
C241 C239 1.395 . S
C241 C240 1.379 . S
C241 H251 0.930 . S
C242 O220 1.264 . S
C242 O221 1.254 . S
C243 Eu179 2.848 . S
C243 O218 1.257 . S
C243 O223 1.249 . S
C243 C236 1.492 . S
H244 C227 0.930 . S
H245 C228 0.930 . S
H246 C229 0.930 . S
H247 C230 0.930 . S
H248 C237 0.930 . S
H249 C239 0.930 . S
H250 C240 0.930 . S
H251 C241 0.930 . S
Eu252 N283 2.657 . S
Eu252 N290 2.609 . S
Eu252 O296 2.558 . S
Eu252 O297 2.612 . S
Eu252 O299 2.339 . S
Eu252 O300 2.563 . S
Eu252 O301 2.419 . S
Eu252 O303 2.380 . S
Eu252 O304 2.432 . S
Eu252 C316 2.848 . S
C253 C256 1.429 . S
C253 C257 1.411 . S
C253 N260 1.377 . S
C254 C256 1.420 1_455 S
C254 C258 1.423 . S
C254 C266 1.392 . S
C255 C257 1.420 1_455 S
C255 C258 1.351 . S
C255 H278 0.931 . S
C256 C253 1.429 . S
C256 C254 1.420 1_655 S
C256 N264 1.362 . S
C257 C253 1.411 . S
C257 C255 1.420 1_655 S
C257 C262 1.395 . S
C258 C254 1.423 . S
C258 C255 1.351 . S
C258 H270 0.930 . S
C259 C261 1.400 . S
C259 C262 1.386 . S
C259 H271 0.930 . S
N260 C253 1.377 . S
N260 C261 1.321 . S
N260 Eu263 2.609 . S
C261 C259 1.400 . S
C261 N260 1.321 . S
C261 H268 0.930 . S
C262 C257 1.395 . S
C262 C259 1.386 . S
C262 H281 0.930 . S
Eu263 N260 2.609 . S
Eu263 N264 2.657 . S
Eu263 O297 2.380 . S
Eu263 O298 2.432 . S
Eu263 O302 2.558 . S
Eu263 O303 2.612 . S
Eu263 O305 2.339 . S
Eu263 O306 2.563 . S
Eu263 O307 2.419 . S
Eu263 C327 2.848 . S
N264 C256 1.362 . S
N264 Eu263 2.657 . S
N264 C265 1.334 . S
C265 N264 1.334 . S
C265 C267 1.413 1_655 S
C265 H272 0.929 . S
C266 C254 1.392 . S
C266 C267 1.367 . S
C266 H274 0.930 . S
C267 C265 1.413 1_455 S
C267 C266 1.367 . S
C267 H269 0.930 . S
H268 C261 0.930 . S
H269 C267 0.930 . S
H270 C258 0.930 . S
H271 C259 0.930 . S
H272 C265 0.929 . S
H273 C287 0.930 . S
H274 C266 0.930 . S
H275 C293 0.930 . S
H276 C284 0.929 . S
H277 C291 0.930 . S
H278 C255 0.931 . S
H279 C285 0.930 . S
H280 C318 0.930 . S
H281 C262 0.930 . S
H282 C317 0.931 . S
N283 Eu252 2.657 . S
N283 C284 1.334 . S
N283 C288 1.362 . S
C284 H276 0.929 . S
C284 N283 1.334 . S
C284 C287 1.413 . S
C285 H279 0.930 . S
C285 C286 1.392 . S
C285 C287 1.367 . S
C286 C285 1.392 . S
C286 C288 1.420 . S
C286 C318 1.423 . S
C287 H273 0.930 . S
C287 C284 1.413 . S
C287 C285 1.367 . S
C288 N283 1.362 . S
C288 C286 1.420 . S
C288 C292 1.429 . S
H289 C294 0.930 . S
N290 Eu252 2.609 . S
N290 C292 1.377 . S
N290 C293 1.321 . S
C291 H277 0.930 . S
C291 C293 1.400 . S
C291 C294 1.386 . S
C292 C288 1.429 . S
C292 N290 1.377 . S
C292 C295 1.411 . S
C293 H275 0.930 . S
C293 N290 1.321 . S
C293 C291 1.400 . S
C294 H289 0.930 . S
C294 C291 1.386 . S
C294 C295 1.395 . S
C295 C292 1.411 . S
C295 C294 1.395 . S
C295 C317 1.420 . S
O296 Eu252 2.558 . S
O296 C316 1.257 . S
O297 Eu252 2.612 . S
O297 Eu263 2.380 . S
O297 C308 1.276 . S
O298 Eu263 2.432 . S
O298 C315 1.264 . S
O299 Eu252 2.339 . S
O299 C315 1.254 . S
O300 Eu252 2.563 . S
O300 C308 1.235 . S
O301 Eu252 2.419 . S
O301 C316 1.249 . S
O302 Eu263 2.558 . S
O302 C327 1.257 . S
O303 Eu252 2.380 . S
O303 Eu263 2.612 . S
O303 C319 1.276 . S
O304 Eu252 2.432 . S
O304 C326 1.264 . S
O305 Eu263 2.339 . S
O305 C326 1.254 . S
O306 Eu263 2.563 . S
O306 C319 1.235 . S
O307 Eu263 2.419 . S
O307 C327 1.249 . S
C308 O297 1.276 . S
C308 O300 1.235 . S
C309 C311 1.393 . S
C309 C313 1.395 . S
C309 C316 1.492 . S
C310 C311 1.392 . S
C310 C312 1.386 . S
C311 C309 1.393 . S
C311 C310 1.392 . S
C311 H328 0.930 . S
C312 C310 1.386 . S
C312 C314 1.395 . S
C312 H329 0.930 . S
C313 C309 1.395 . S
C313 C314 1.379 . S
C313 H330 0.930 . S
C314 C312 1.395 . S
C314 C313 1.379 . S
C314 H331 0.930 . S
C315 O298 1.264 . S
C315 O299 1.254 . S
C316 Eu252 2.848 . S
C316 O296 1.257 . S
C316 O301 1.249 . S
C316 C309 1.492 . S
C317 H282 0.931 . S
C317 C295 1.420 . S
C317 C318 1.351 . S
C318 H280 0.930 . S
C318 C286 1.423 . S
C318 C317 1.351 . S
C319 O303 1.276 . S
C319 O306 1.235 . S
C320 C321 1.393 . S
C320 C324 1.395 . S
C320 C327 1.492 . S
C321 C320 1.393 . S
C321 C322 1.392 . S
C321 H332 0.930 . S
C322 C321 1.392 . S
C322 C323 1.386 . S
C323 C322 1.386 . S
C323 C325 1.395 . S
C323 H333 0.930 . S
C324 C320 1.395 . S
C324 C325 1.379 . S
C324 H334 0.930 . S
C325 C323 1.395 . S
C325 C324 1.379 . S
C325 H335 0.930 . S
C326 O304 1.264 . S
C326 O305 1.254 . S
C327 Eu263 2.848 . S
C327 O302 1.257 . S
C327 O307 1.249 . S
C327 C320 1.492 . S
H328 C311 0.930 . S
H329 C312 0.930 . S
H330 C313 0.930 . S
H331 C314 0.930 . S
H332 C321 0.930 . S
H333 C323 0.930 . S
H334 C324 0.930 . S
H335 C325 0.930 . S
C336 C337 1.349 1_554 S
C336 C338 1.327 . S
C336 H361 0.950 . S
C337 C336 1.349 1_556 S
C337 C353 1.349 . S
C338 C336 1.327 . S
C338 C357 1.421 1_554 S
C338 H362 0.950 . S
C339 C356 1.574 . S
C339 C358 1.371 . S
C339 H363 0.949 . S
H340 C344 0.949 . S
C341 C342 1.349 1_556 S
C341 C343 1.327 . S
C341 H364 0.950 . S
C342 C341 1.349 1_554 S
C342 C354 1.349 . S
C343 C341 1.327 . S
C343 C359 1.429 1_556 S
C343 H365 0.950 . S
C344 H340 0.949 . S
C344 C352 1.574 . S
C344 C360 1.377 . S
H345 C353 0.950 . S
H346 C351 0.950 . S
H347 C352 0.949 . S
H348 C354 0.950 . S
H349 C355 0.950 . S
H350 C356 0.949 . S
C351 H346 0.950 . S
C351 C353 1.327 . S
C351 C357 1.449 . S
C352 C344 1.574 . S
C352 H347 0.949 . S
C352 C358 1.364 1_554 S
C353 C337 1.349 . S
C353 H345 0.950 . S
C353 C351 1.327 . S
C354 C342 1.349 . S
C354 H348 0.950 . S
C354 C355 1.327 . S
C355 H349 0.950 . S
C355 C354 1.327 . S
C355 C359 1.429 . S
C356 C339 1.574 . S
C356 H350 0.949 . S
C356 C360 1.353 1_556 S
C357 C338 1.421 1_556 S
C357 C351 1.449 . S
C357 C358 1.514 . S
C358 C339 1.371 . S
C358 C352 1.364 1_556 S
C358 C357 1.514 . S
C359 C343 1.429 1_554 S
C359 C355 1.429 . S
C359 C360 1.532 . S
C360 C344 1.377 . S
C360 C356 1.353 1_554 S
C360 C359 1.532 . S
H361 C336 0.950 . S
H362 C338 0.950 . S
H363 C339 0.949 . S
H364 C341 0.950 . S
H365 C343 0.950 . S
C366 C367 1.349 . S
C366 C368 1.327 . S
C366 H391 0.950 . S
C367 C366 1.349 . S
C367 C383 1.349 . S
C368 C366 1.327 . S
C368 C387 1.429 . S
C368 H392 0.950 . S
C369 C386 1.574 . S
C369 C388 1.368 . S
C369 H393 0.949 . S
H370 C374 0.949 . S
C371 C372 1.349 . S
C371 C373 1.327 . S
C371 H394 0.950 . S
C372 C371 1.349 . S
C372 C384 1.349 . S
C373 C371 1.327 . S
C373 C389 1.429 . S
C373 H395 0.950 . S
C374 H370 0.949 . S
C374 C382 1.574 . S
C374 C390 1.368 . S
H375 C383 0.950 . S
H376 C381 0.950 . S
H377 C382 0.949 . S
H378 C384 0.950 . S
H379 C385 0.950 . S
H380 C386 0.949 . S
C381 H376 0.950 . S
C381 C383 1.327 . S
C381 C387 1.429 . S
C382 C374 1.574 . S
C382 H377 0.949 . S
C382 C388 1.368 . S
C383 C367 1.349 . S
C383 H375 0.950 . S
C383 C381 1.327 . S
C384 C372 1.349 . S
C384 H378 0.950 . S
C384 C385 1.327 . S
C385 H379 0.950 . S
C385 C384 1.327 . S
C385 C389 1.429 . S
C386 C369 1.574 . S
C386 H380 0.949 . S
C386 C390 1.368 . S
C387 C368 1.429 . S
C387 C381 1.429 . S
C387 C388 1.523 . S
C388 C369 1.368 . S
C388 C382 1.368 . S
C388 C387 1.523 . S
C389 C373 1.429 . S
C389 C385 1.429 . S
C389 C390 1.523 . S
C390 C374 1.368 . S
C390 C386 1.368 . S
C390 C389 1.523 . S
H391 C366 0.950 . S
H392 C368 0.950 . S
H393 C369 0.949 . S
H394 C371 0.950 . S
H395 C373 0.950 . S
C396 C397 1.349 1_554 S
C396 C398 1.327 . S
C396 H421 0.950 . S
C397 C396 1.349 1_556 S
C397 C413 1.349 . S
C398 C396 1.327 . S
C398 C417 1.413 1_554 S
C398 H422 0.950 . S
C399 C416 1.577 1_545 S
C399 C418 1.370 1_655 S
C399 H423 0.949 1_655 S
H400 C404 0.949 1_655 S
C401 C402 1.349 1_556 S
C401 C403 1.327 . S
C401 H424 0.950 . S
C402 C401 1.349 1_554 S
C402 C414 1.349 . S
C403 C401 1.327 . S
C403 C419 1.429 1_556 S
C403 H425 0.950 . S
C404 H400 0.949 1_455 S
C404 C412 1.577 1_565 S
C404 C420 1.380 1_455 S
H405 C413 0.950 . S
H406 C411 0.950 . S
H407 C412 0.949 . S
H408 C414 0.950 . S
H409 C415 0.950 . S
H410 C416 0.949 . S
C411 H406 0.950 . S
C411 C413 1.327 . S
C411 C417 1.457 . S
C412 C404 1.577 1_545 S
C412 H407 0.949 . S
C412 C418 1.362 1_554 S
C413 C397 1.349 . S
C413 H405 0.950 . S
C413 C411 1.327 . S
C414 C402 1.349 . S
C414 H408 0.950 . S
C414 C415 1.327 . S
C415 H409 0.950 . S
C415 C414 1.327 . S
C415 C419 1.429 . S
C416 C399 1.577 1_565 S
C416 H410 0.949 . S
C416 C420 1.346 1_556 S
C417 C398 1.413 1_556 S
C417 C411 1.457 . S
C417 C418 1.514 . S
C418 C399 1.370 1_455 S
C418 C412 1.362 1_556 S
C418 C417 1.514 . S
C419 C403 1.429 1_554 S
C419 C415 1.429 . S
C419 C420 1.532 . S
C420 C404 1.380 1_655 S
C420 C416 1.346 1_554 S
C420 C419 1.532 . S
H421 C396 0.950 . S
H422 C398 0.950 . S
H423 C399 0.949 1_455 S
H424 C401 0.950 . S
H425 C403 0.950 . S
C426 C427 1.349 . S
C426 C428 1.327 . S
C426 H451 0.950 . S
C427 C426 1.349 . S
C427 C443 1.349 . S
C428 C426 1.327 . S
C428 C447 1.429 . S
C428 H452 0.950 . S
C429 C446 1.574 1_545 S
C429 C448 1.368 1_455 S
C429 H453 0.949 . S
H430 C434 0.949 . S
C431 C432 1.349 . S
C431 C433 1.327 . S
C431 H454 0.950 . S
C432 C431 1.349 . S
C432 C444 1.349 . S
C433 C431 1.327 . S
C433 C449 1.429 . S
C433 H455 0.950 . S
C434 H430 0.949 . S
C434 C442 1.574 1_565 S
C434 C450 1.368 1_655 S
H435 C443 0.950 . S
H436 C441 0.950 . S
H437 C442 0.949 . S
H438 C444 0.950 . S
H439 C445 0.950 . S
H440 C446 0.949 . S
C441 H436 0.950 . S
C441 C443 1.327 . S
C441 C447 1.429 . S
C442 C434 1.574 1_545 S
C442 H437 0.949 . S
C442 C448 1.368 . S
C443 C427 1.349 . S
C443 H435 0.950 . S
C443 C441 1.327 . S
C444 C432 1.349 . S
C444 H438 0.950 . S
C444 C445 1.327 . S
C445 H439 0.950 . S
C445 C444 1.327 . S
C445 C449 1.429 . S
C446 C429 1.574 1_565 S
C446 H440 0.949 . S
C446 C450 1.368 . S
C447 C428 1.429 . S
C447 C441 1.429 . S
C447 C448 1.523 . S
C448 C429 1.368 1_655 S
C448 C442 1.368 . S
C448 C447 1.523 . S
C449 C433 1.429 . S
C449 C445 1.429 . S
C449 C450 1.523 . S
C450 C434 1.368 1_455 S
C450 C446 1.368 . S
C450 C449 1.523 . S
H451 C426 0.950 . S
H452 C428 0.950 . S
H453 C429 0.949 . S
H454 C431 0.950 . S
H455 C433 0.950 . S
C456 C457 1.349 . S
C456 C458 1.327 . S
C456 H481 0.950 . S
C457 C456 1.349 . S
C457 C473 1.349 . S
C458 C456 1.327 . S
C458 C477 1.429 . S
C458 H482 0.950 . S
C459 C476 1.574 . S
C459 C478 1.368 . S
C459 H483 0.949 . S
H460 C464 0.949 . S
C461 C462 1.349 . S
C461 C463 1.327 . S
C461 H484 0.950 . S
C462 C461 1.349 . S
C462 C474 1.349 . S
C463 C461 1.327 . S
C463 C479 1.429 . S
C463 H485 0.950 . S
C464 H460 0.949 . S
C464 C472 1.574 . S
C464 C480 1.368 . S
H465 C473 0.950 . S
H466 C471 0.950 . S
H467 C472 0.949 . S
H468 C474 0.950 . S
H469 C475 0.950 . S
H470 C476 0.949 . S
C471 H466 0.950 . S
C471 C473 1.327 . S
C471 C477 1.429 . S
C472 C464 1.574 . S
C472 H467 0.949 . S
C472 C478 1.368 . S
C473 C457 1.349 . S
C473 H465 0.950 . S
C473 C471 1.327 . S
C474 C462 1.349 . S
C474 H468 0.950 . S
C474 C475 1.327 . S
C475 H469 0.950 . S
C475 C474 1.327 . S
C475 C479 1.429 . S
C476 C459 1.574 . S
C476 H470 0.949 . S
C476 C480 1.368 . S
C477 C458 1.429 . S
C477 C471 1.429 . S
C477 C478 1.523 . S
C478 C459 1.368 . S
C478 C472 1.368 . S
C478 C477 1.523 . S
C479 C463 1.429 . S
C479 C475 1.429 . S
C479 C480 1.523 . S
C480 C464 1.368 . S
C480 C476 1.368 . S
C480 C479 1.523 . S
H481 C456 0.950 . S
H482 C458 0.950 . S
H483 C459 0.949 . S
H484 C461 0.950 . S
H485 C463 0.950 . S
C486 C487 1.349 . S
C486 C488 1.327 . S
C486 H511 0.950 . S
C487 C486 1.349 . S
C487 C503 1.349 . S
C488 C486 1.327 . S
C488 C507 1.429 . S
C488 H512 0.950 . S
C489 C506 1.574 . S
C489 C508 1.368 . S
C489 H513 0.949 . S
H490 C494 0.949 . S
C491 C492 1.349 . S
C491 C493 1.327 . S
C491 H514 0.950 . S
C492 C491 1.349 . S
C492 C504 1.349 . S
C493 C491 1.327 . S
C493 C509 1.429 . S
C493 H515 0.950 . S
C494 H490 0.949 . S
C494 C502 1.574 . S
C494 C510 1.368 . S
H495 C503 0.950 . S
H496 C501 0.950 . S
H497 C502 0.949 . S
H498 C504 0.950 . S
H499 C505 0.950 . S
H500 C506 0.949 . S
C501 H496 0.950 . S
C501 C503 1.327 . S
C501 C507 1.429 . S
C502 C494 1.574 . S
C502 H497 0.949 . S
C502 C508 1.368 . S
C503 C487 1.349 . S
C503 H495 0.950 . S
C503 C501 1.327 . S
C504 C492 1.349 . S
C504 H498 0.950 . S
C504 C505 1.327 . S
C505 H499 0.950 . S
C505 C504 1.327 . S
C505 C509 1.429 . S
C506 C489 1.574 . S
C506 H500 0.949 . S
C506 C510 1.368 . S
C507 C488 1.429 . S
C507 C501 1.429 . S
C507 C508 1.523 . S
C508 C489 1.368 . S
C508 C502 1.368 . S
C508 C507 1.523 . S
C509 C493 1.429 . S
C509 C505 1.429 . S
C509 C510 1.523 . S
C510 C494 1.368 . S
C510 C506 1.368 . S
C510 C509 1.523 . S
H511 C486 0.950 . S
H512 C488 0.950 . S
H513 C489 0.949 . S
H514 C491 0.950 . S
H515 C493 0.950 . S
C516 C517 1.349 . S
C516 C518 1.327 . S
C516 H541 0.950 . S
C517 C516 1.349 . S
C517 C533 1.349 . S
C518 C516 1.327 . S
C518 C537 1.429 . S
C518 H542 0.950 . S
C519 C536 1.574 . S
C519 C538 1.368 . S
C519 H543 0.949 . S
H520 C524 0.949 . S
C521 C522 1.349 . S
C521 C523 1.327 . S
C521 H544 0.950 . S
C522 C521 1.349 . S
C522 C534 1.349 . S
C523 C521 1.327 . S
C523 C539 1.429 . S
C523 H545 0.950 . S
C524 H520 0.949 . S
C524 C532 1.574 . S
C524 C540 1.368 . S
H525 C533 0.950 . S
H526 C531 0.950 . S
H527 C532 0.949 . S
H528 C534 0.950 . S
H529 C535 0.950 . S
H530 C536 0.949 . S
C531 H526 0.950 . S
C531 C533 1.327 . S
C531 C537 1.429 . S
C532 C524 1.574 . S
C532 H527 0.949 . S
C532 C538 1.368 . S
C533 C517 1.349 . S
C533 H525 0.950 . S
C533 C531 1.327 . S
C534 C522 1.349 . S
C534 H528 0.950 . S
C534 C535 1.327 . S
C535 H529 0.950 . S
C535 C534 1.327 . S
C535 C539 1.429 . S
C536 C519 1.574 . S
C536 H530 0.949 . S
C536 C540 1.368 . S
C537 C518 1.429 . S
C537 C531 1.429 . S
C537 C538 1.523 . S
C538 C519 1.368 . S
C538 C532 1.368 . S
C538 C537 1.523 . S
C539 C523 1.429 . S
C539 C535 1.429 . S
C539 C540 1.523 . S
C540 C524 1.368 . S
C540 C536 1.368 . S
C540 C539 1.523 . S
H541 C516 0.950 . S
H542 C518 0.950 . S
H543 C519 0.949 . S
H544 C521 0.950 . S
H545 C523 0.950 . S
C546 C547 1.349 . S
C546 C548 1.327 . S
C546 H571 0.950 . S
C547 C546 1.349 . S
C547 C563 1.349 . S
C548 C546 1.327 . S
C548 C567 1.429 . S
C548 H572 0.950 . S
C549 C566 1.574 . S
C549 C568 1.368 . S
C549 H573 0.949 . S
H550 C554 0.949 . S
C551 C552 1.349 . S
C551 C553 1.327 . S
C551 H574 0.950 . S
C552 C551 1.349 . S
C552 C564 1.349 . S
C553 C551 1.327 . S
C553 C569 1.429 . S
C553 H575 0.950 . S
C554 H550 0.949 . S
C554 C562 1.574 . S
C554 C570 1.368 . S
H555 C563 0.950 . S
H556 C561 0.950 . S
H557 C562 0.949 . S
H558 C564 0.950 . S
H559 C565 0.950 . S
H560 C566 0.949 . S
C561 H556 0.950 . S
C561 C563 1.327 . S
C561 C567 1.429 . S
C562 C554 1.574 . S
C562 H557 0.949 . S
C562 C568 1.368 . S
C563 C547 1.349 . S
C563 H555 0.950 . S
C563 C561 1.327 . S
C564 C552 1.349 . S
C564 H558 0.950 . S
C564 C565 1.327 . S
C565 H559 0.950 . S
C565 C564 1.327 . S
C565 C569 1.429 . S
C566 C549 1.574 . S
C566 H560 0.949 . S
C566 C570 1.368 . S
C567 C548 1.429 . S
C567 C561 1.429 . S
C567 C568 1.523 . S
C568 C549 1.368 . S
C568 C562 1.368 . S
C568 C567 1.523 . S
C569 C553 1.429 . S
C569 C565 1.429 . S
C569 C570 1.523 . S
C570 C554 1.368 . S
C570 C566 1.368 . S
C570 C569 1.523 . S
H571 C546 0.950 . S
H572 C548 0.950 . S
H573 C549 0.949 . S
H574 C551 0.950 . S
H575 C553 0.950 . S
C576 C577 1.349 . S
C576 C578 1.327 . S
C576 H601 0.950 . S
C577 C576 1.349 . S
C577 C593 1.349 . S
C578 C576 1.327 . S
C578 C597 1.429 . S
C578 H602 0.950 . S
C579 C596 1.574 . S
C579 C598 1.368 . S
C579 H603 0.949 . S
H580 C584 0.949 . S
C581 C582 1.349 . S
C581 C583 1.327 . S
C581 H604 0.950 . S
C582 C581 1.349 . S
C582 C594 1.349 1_455 S
C583 C581 1.327 . S
C583 C599 1.429 1_455 S
C583 H605 0.950 . S
C584 H580 0.949 . S
C584 C592 1.574 . S
C584 C600 1.368 . S
H585 C593 0.950 . S
H586 C591 0.950 . S
H587 C592 0.949 . S
H588 C594 0.950 . S
H589 C595 0.950 . S
H590 C596 0.949 1_455 S
C591 H586 0.950 . S
C591 C593 1.327 . S
C591 C597 1.429 . S
C592 C584 1.574 . S
C592 H587 0.949 . S
C592 C598 1.368 . S
C593 C577 1.349 . S
C593 H585 0.950 . S
C593 C591 1.327 . S
C594 C582 1.349 1_655 S
C594 H588 0.950 . S
C594 C595 1.327 . S
C595 H589 0.950 . S
C595 C594 1.327 . S
C595 C599 1.429 . S
C596 C579 1.574 . S
C596 H590 0.949 1_655 S
C596 C600 1.368 . S
C597 C578 1.429 . S
C597 C591 1.429 . S
C597 C598 1.523 . S
C598 C579 1.368 . S
C598 C592 1.368 . S
C598 C597 1.523 . S
C599 C583 1.429 1_655 S
C599 C595 1.429 . S
C599 C600 1.523 . S
C600 C584 1.368 . S
C600 C596 1.368 . S
C600 C599 1.523 . S
H601 C576 0.950 . S
H602 C578 0.950 . S
H603 C579 0.949 . S
H604 C581 0.950 . S
H605 C583 0.950 . S
C606 C607 1.349 . S
C606 C608 1.327 . S
C606 H631 0.950 . S
C607 C606 1.349 . S
C607 C623 1.349 . S
C608 C606 1.327 . S
C608 C627 1.429 . S
C608 H632 0.950 . S
C609 C626 1.574 . S
C609 C628 1.368 . S
C609 H633 0.949 . S
H610 C614 0.949 . S
C611 C612 1.349 . S
C611 C613 1.327 . S
C611 H634 0.950 . S
C612 C611 1.349 . S
C612 C624 1.349 1_455 S
C613 C611 1.327 . S
C613 C629 1.429 1_455 S
C613 H635 0.950 . S
C614 H610 0.949 . S
C614 C622 1.574 . S
C614 C630 1.368 . S
H615 C623 0.950 . S
H616 C621 0.950 . S
H617 C622 0.949 . S
H618 C624 0.950 . S
H619 C625 0.950 . S
H620 C626 0.949 1_455 S
C621 H616 0.950 . S
C621 C623 1.327 . S
C621 C627 1.429 . S
C622 C614 1.574 . S
C622 H617 0.949 . S
C622 C628 1.368 . S
C623 C607 1.349 . S
C623 H615 0.950 . S
C623 C621 1.327 . S
C624 C612 1.349 1_655 S
C624 H618 0.950 . S
C624 C625 1.327 . S
C625 H619 0.950 . S
C625 C624 1.327 . S
C625 C629 1.429 . S
C626 C609 1.574 . S
C626 H620 0.949 1_655 S
C626 C630 1.368 . S
C627 C608 1.429 . S
C627 C621 1.429 . S
C627 C628 1.523 . S
C628 C609 1.368 . S
C628 C622 1.368 . S
C628 C627 1.523 . S
C629 C613 1.429 1_655 S
C629 C625 1.429 . S
C629 C630 1.523 . S
C630 C614 1.368 . S
C630 C626 1.368 . S
C630 C629 1.523 . S
H631 C606 0.950 . S
H632 C608 0.950 . S
H633 C609 0.949 . S
H634 C611 0.950 . S
H635 C613 0.950 . S
C636 C637 1.349 . S
C636 C638 1.327 . S
C636 H661 0.950 . S
C637 C636 1.349 . S
C637 C653 1.349 1_655 S
C638 C636 1.327 . S
C638 C657 1.429 1_655 S
C638 H662 0.950 . S
C639 C656 1.574 . S
C639 C658 1.368 . S
C639 H663 0.949 . S
H640 C644 0.949 . S
C641 C642 1.349 . S
C641 C643 1.327 . S
C641 H664 0.950 . S
C642 C641 1.349 . S
C642 C654 1.349 . S
C643 C641 1.327 . S
C643 C659 1.429 . S
C643 H665 0.950 . S
C644 H640 0.949 . S
C644 C652 1.574 . S
C644 C660 1.368 . S
H645 C653 0.950 . S
H646 C651 0.950 . S
H647 C652 0.949 1_655 S
H648 C654 0.950 . S
H649 C655 0.950 . S
H650 C656 0.949 . S
C651 H646 0.950 . S
C651 C653 1.327 . S
C651 C657 1.429 . S
C652 C644 1.574 . S
C652 H647 0.949 1_455 S
C652 C658 1.368 . S
C653 C637 1.349 1_455 S
C653 H645 0.950 . S
C653 C651 1.327 . S
C654 C642 1.349 . S
C654 H648 0.950 . S
C654 C655 1.327 . S
C655 H649 0.950 . S
C655 C654 1.327 . S
C655 C659 1.429 . S
C656 C639 1.574 . S
C656 H650 0.949 . S
C656 C660 1.368 . S
C657 C638 1.429 1_455 S
C657 C651 1.429 . S
C657 C658 1.523 . S
C658 C639 1.368 . S
C658 C652 1.368 . S
C658 C657 1.523 . S
C659 C643 1.429 . S
C659 C655 1.429 . S
C659 C660 1.523 . S
C660 C644 1.368 . S
C660 C656 1.368 . S
C660 C659 1.523 . S
H661 C636 0.950 . S
H662 C638 0.950 . S
H663 C639 0.949 . S
H664 C641 0.950 . S
H665 C643 0.950 . S
C666 C667 1.349 . S
C666 C668 1.327 . S
C666 H691 0.950 . S
C667 C666 1.349 . S
C667 C683 1.349 . S
C668 C666 1.327 . S
C668 C687 1.429 . S
C668 H692 0.950 . S
C669 C686 1.574 . S
C669 C688 1.368 . S
C669 H693 0.949 . S
H670 C674 0.949 1_655 S
C671 C672 1.349 1_455 S
C671 C673 1.327 . S
C671 H694 0.950 . S
C672 C671 1.349 1_655 S
C672 C684 1.349 . S
C673 C671 1.327 . S
C673 C689 1.429 . S
C673 H695 0.950 . S
C674 H670 0.949 1_455 S
C674 C682 1.574 . S
C674 C690 1.368 . S
H675 C683 0.950 . S
H676 C681 0.950 . S
H677 C682 0.949 . S
H678 C684 0.950 . S
H679 C685 0.950 . S
H680 C686 0.949 . S
C681 H676 0.950 . S
C681 C683 1.327 . S
C681 C687 1.429 . S
C682 C674 1.574 . S
C682 H677 0.949 . S
C682 C688 1.368 . S
C683 C667 1.349 . S
C683 H675 0.950 . S
C683 C681 1.327 . S
C684 C672 1.349 . S
C684 H678 0.950 . S
C684 C685 1.327 . S
C685 H679 0.950 . S
C685 C684 1.327 . S
C685 C689 1.429 1_655 S
C686 C669 1.574 . S
C686 H680 0.949 . S
C686 C690 1.368 . S
C687 C668 1.429 . S
C687 C681 1.429 . S
C687 C688 1.523 . S
C688 C669 1.368 . S
C688 C682 1.368 . S
C688 C687 1.523 . S
C689 C673 1.429 . S
C689 C685 1.429 1_455 S
C689 C690 1.523 . S
C690 C674 1.368 . S
C690 C686 1.368 . S
C690 C689 1.523 . S
H691 C666 0.950 . S
H692 C668 0.950 . S
H693 C669 0.949 . S
H694 C671 0.950 . S
H695 C673 0.950 . S
C337 C147 1.496 . S
C342 C74 1.496 . S
C367 C242 1.496 . S
C372 C315 1.496 . S
C397 C63 1.496 . S
C402 C158 1.496 . S
C427 C326 1.496 . S
C432 C231 1.496 . S
C457 C310 1.110 . S
C462 C56 1.112 . S
C487 C142 1.110 . S
C492 C224 1.112 . S
C517 C151 1.112 . S
C522 C238 1.110 . S
C547 C319 1.112 . S
C552 C70 1.110 . S
C577 C140 1.112 . S
C582 C226 1.110 . S
C607 C308 1.112 . S
C612 C58 1.110 . S
C637 C322 1.110 . S
C642 C67 1.112 . S
C667 C235 1.112 . S
C672 C154 1.110 . S
