# Generated by pormake.
# Topology umo, (4)-cn, num edge types: 1
# Building blocks:
#     Node 0, Type 0, BuildingBlock: QUQFOY_clean_sbu_1, # of connection points: 4
#     Node 1, Type 0, BuildingBlock: QUQFOY_clean_sbu_1, # of connection points: 4
#     Node 2, Type 0, BuildingBlock: QUQFOY_clean_sbu_1, # of connection points: 4
#     Node 3, Type 0, BuildingBlock: QUQFOY_clean_sbu_1, # of connection points: 4
#     Node 4, Type 0, BuildingBlock: QUQFOY_clean_sbu_1, # of connection points: 4
#     Node 5, Type 0, BuildingBlock: QUQFOY_clean_sbu_1, # of connection points: 4
#     Node 6, Type 0, BuildingBlock: QUQFOY_clean_sbu_1, # of connection points: 4
#     Node 7, Type 0, BuildingBlock: QUQFOY_clean_sbu_1, # of connection points: 4
#     Node 8, Type 0, BuildingBlock: QUQFOY_clean_sbu_1, # of connection points: 4
#     Node 9, Type 0, BuildingBlock: QUQFOY_clean_sbu_1, # of connection points: 4
#     Node 10, Type 0, BuildingBlock: QUQFOY_clean_sbu_1, # of connection points: 4
#     Node 11, Type 0, BuildingBlock: QUQFOY_clean_sbu_1, # of connection points: 4
#     Edge 12, Type (0, 0), BuildingBlock: OJICUG_clean_linker_0, # of connection points: 2
#     Edge 13, Type (0, 0), BuildingBlock: OJICUG_clean_linker_0, # of connection points: 2
#     Edge 14, Type (0, 0), BuildingBlock: OJICUG_clean_linker_0, # of connection points: 2
#     Edge 15, Type (0, 0), BuildingBlock: OJICUG_clean_linker_0, # of connection points: 2
#     Edge 16, Type (0, 0), BuildingBlock: OJICUG_clean_linker_0, # of connection points: 2
#     Edge 17, Type (0, 0), BuildingBlock: OJICUG_clean_linker_0, # of connection points: 2
#     Edge 18, Type (0, 0), BuildingBlock: OJICUG_clean_linker_0, # of connection points: 2
#     Edge 19, Type (0, 0), BuildingBlock: OJICUG_clean_linker_0, # of connection points: 2
#     Edge 20, Type (0, 0), BuildingBlock: OJICUG_clean_linker_0, # of connection points: 2
#     Edge 21, Type (0, 0), BuildingBlock: OJICUG_clean_linker_0, # of connection points: 2
#     Edge 22, Type (0, 0), BuildingBlock: OJICUG_clean_linker_0, # of connection points: 2
#     Edge 23, Type (0, 0), BuildingBlock: OJICUG_clean_linker_0, # of connection points: 2
#     Edge 24, Type (0, 0), BuildingBlock: OJICUG_clean_linker_0, # of connection points: 2
#     Edge 25, Type (0, 0), BuildingBlock: OJICUG_clean_linker_0, # of connection points: 2
#     Edge 26, Type (0, 0), BuildingBlock: OJICUG_clean_linker_0, # of connection points: 2
#     Edge 27, Type (0, 0), BuildingBlock: OJICUG_clean_linker_0, # of connection points: 2
#     Edge 28, Type (0, 0), BuildingBlock: OJICUG_clean_linker_0, # of connection points: 2
#     Edge 29, Type (0, 0), BuildingBlock: OJICUG_clean_linker_0, # of connection points: 2
#     Edge 30, Type (0, 0), BuildingBlock: OJICUG_clean_linker_0, # of connection points: 2
#     Edge 31, Type (0, 0), BuildingBlock: OJICUG_clean_linker_0, # of connection points: 2
#     Edge 32, Type (0, 0), BuildingBlock: OJICUG_clean_linker_0, # of connection points: 2
#     Edge 33, Type (0, 0), BuildingBlock: OJICUG_clean_linker_0, # of connection points: 2
#     Edge 34, Type (0, 0), BuildingBlock: OJICUG_clean_linker_0, # of connection points: 2
#     Edge 35, Type (0, 0), BuildingBlock: OJICUG_clean_linker_0, # of connection points: 2
# Relax obj value: 0.084
# Max RMSD: 0.122
# Mean RMSD: 0.122
data_MOF--net-umo--node1-QUQFOY_clean_sbu_1--edge1-OJICUG_clean_linker_0
_symmetry_space_group_name_H-M    P1
_symmetry_Int_Tables_number       1
_symmetry_cell_setting            triclinic
loop_
_symmetry_equiv_pos_as_xyz
'x, y, z'
_cell_length_a     40.080943
_cell_length_b     39.992594
_cell_length_c     27.598727
_cell_angle_alpha  89.863792
_cell_angle_beta   89.995954
_cell_angle_gamma 120.10049
loop_
_atom_site_label
_atom_site_type_symbol
_atom_site_fract_x
_atom_site_fract_y
_atom_site_fract_z
_atom_type_partial_charge
O0 O 0.15124 0.59143 0.46922 0.0
Cd1 Cd 0.14581 0.60671 0.40068 0.0
Cd2 Cd 0.22155 0.61282 0.3956 0.0
O3 O 0.20881 0.59626 0.46874 0.0
O4 O 0.09369 0.6017 0.40559 0.0
O5 O 0.10578 0.56595 0.35609 0.0
C6 C 0.08131 0.57443 0.37425 0.0
C7 C 0.25446 0.59258 0.34153 0.0
C8 C 0.17849 0.59044 0.49128 0.0
C9 C 0.21489 0.6854 0.38866 0.0
O10 O 0.23542 0.66939 0.38707 0.0
O11 O 0.17841 0.66552 0.39173 0.0
O12 O 0.27111 0.61333 0.37915 0.0
O13 O 0.21836 0.58137 0.33574 0.0
O14 O 0.60471 0.15256 0.64918 0.0
Cd15 Cd 0.57058 0.13462 0.58888 0.0
Cd16 Cd 0.61899 0.21283 0.56384 0.0
O17 O 0.62126 0.21359 0.63985 0.0
O18 O 0.53626 0.07837 0.60337 0.0
O19 O 0.56961 0.09951 0.53555 0.0
C20 C 0.54552 0.07078 0.56194 0.0
C21 C 0.67181 0.24763 0.50983 0.0
C22 C 0.61331 0.18503 0.66763 0.0
C23 C 0.53665 0.18509 0.56871 0.0
O24 O 0.56663 0.20645 0.54359 0.0
O25 O 0.53343 0.15569 0.59059 0.0
O26 O 0.66035 0.26508 0.53885 0.0
O27 O 0.65445 0.21036 0.51268 0.0
O28 O 0.3984 0.53303 0.81902 0.0
Cd29 Cd 0.38184 0.51803 0.74881 0.0
Cd30 Cd 0.40311 0.59342 0.74911 0.0
O31 O 0.43501 0.59621 0.81035 0.0
O32 O 0.38004 0.46763 0.74182 0.0
O33 O 0.42164 0.52054 0.70218 0.0
C34 C 0.40935 0.48481 0.7133 0.0
C35 C 0.41738 0.63938 0.68626 0.0
C36 C 0.42159 0.56587 0.8368 0.0
C37 C 0.31915 0.53054 0.75956 0.0
O38 O 0.34613 0.56473 0.76807 0.0
O39 O 0.32617 0.50626 0.73924 0.0
O40 O 0.41431 0.64718 0.73081 0.0
O41 O 0.41545 0.60669 0.6777 0.0
O42 O 0.84487 0.38323 0.96986 0.0
Cd43 Cd 0.83907 0.37041 0.89784 0.0
Cd44 Cd 0.78857 0.3932 0.90736 0.0
O45 O 0.82006 0.42159 0.96948 0.0
O46 O 0.88813 0.37362 0.87816 0.0
O47 O 0.86955 0.41429 0.85198 0.0
C48 C 0.89563 0.40434 0.85414 0.0
C49 C 0.75806 0.41186 0.848 0.0
C50 C 0.83711 0.4063 0.99184 0.0
C51 C 0.76484 0.30799 0.91017 0.0
O52 O 0.75903 0.33529 0.92216 0.0
O53 O 0.79513 0.31493 0.88734 0.0
O54 O 0.74695 0.40635 0.89267 0.0
O55 O 0.78855 0.40994 0.83772 0.0
O56 O 0.40019 0.84578 0.1617 0.0
Cd57 Cd 0.41281 0.85807 0.08995 0.0
Cd58 Cd 0.35028 0.78262 0.08285 0.0
O59 O 0.34976 0.78663 0.15898 0.0
O60 O 0.45551 0.9126 0.09267 0.0
O61 O 0.40227 0.8952 0.05128 0.0
C62 C 0.43607 0.92201 0.06448 0.0
C63 C 0.29871 0.75313 0.02694 0.0
C64 C 0.37556 0.81509 0.18324 0.0
C65 C 0.43053 0.79827 0.0583 0.0
O66 O 0.39466 0.77456 0.06254 0.0
O67 O 0.44426 0.83405 0.06556 0.0
O68 O 0.30291 0.73352 0.06114 0.0
O69 O 0.32155 0.79016 0.02708 0.0
O70 O 0.58437 0.44552 0.32501 0.0
Cd71 Cd 0.59174 0.46632 0.25619 0.0
Cd72 Cd 0.57257 0.38818 0.23855 0.0
O73 O 0.55636 0.38244 0.31202 0.0
O74 O 0.59335 0.51664 0.26328 0.0
O75 O 0.54871 0.46793 0.22066 0.0
C76 C 0.56274 0.50265 0.23702 0.0
C77 C 0.54682 0.3394 0.17784 0.0
C78 C 0.56904 0.41119 0.341 0.0
C79 C 0.65549 0.45657 0.22705 0.0
O80 O 0.63123 0.42071 0.23092 0.0
O81 O 0.64527 0.48173 0.23074 0.0
O82 O 0.56215 0.33542 0.21681 0.0
O83 O 0.54286 0.36947 0.17493 0.0
O84 O 0.43642 0.8342 0.40406 0.0
Cd85 Cd 0.41969 0.85046 0.46542 0.0
Cd86 Cd 0.3865 0.77157 0.48521 0.0
O87 O 0.3908 0.77321 0.40946 0.0
O88 O 0.4441 0.90727 0.45309 0.0
O89 O 0.45419 0.88359 0.5201 0.0
C90 C 0.46078 0.91333 0.4945 0.0
C91 C 0.40335 0.73518 0.53788 0.0
C92 C 0.41322 0.80241 0.38362 0.0
C93 C 0.33408 0.80186 0.48024 0.0
O94 O 0.34067 0.77858 0.50434 0.0
O95 O 0.36188 0.83193 0.46141 0.0
O96 O 0.37471 0.71861 0.50825 0.0
O97 O 0.42342 0.7725 0.53669 0.0
O98 O 0.53877 0.38136 0.56928 0.0
Cd99 Cd 0.523 0.37236 0.64034 0.0
Cd100 Cd 0.59943 0.38457 0.64368 0.0
O101 O 0.6022 0.40766 0.57429 0.0
O102 O 0.47366 0.37327 0.6398 0.0
O103 O 0.52534 0.41614 0.67948 0.0
C104 C 0.49028 0.40395 0.66591 0.0
C105 C 0.65187 0.4053 0.69923 0.0
C106 C 0.57168 0.39717 0.54926 0.0
C107 C 0.52745 0.30324 0.65122 0.0
O108 O 0.56317 0.32555 0.64282 0.0
O109 O 0.50534 0.31666 0.65978 0.0
O110 O 0.65176 0.39035 0.65787 0.0
O111 O 0.62334 0.41082 0.70813 0.0
O112 O 0.13416 0.56093 0.7159 0.0
Cd113 Cd 0.12095 0.53824 0.78396 0.0
Cd114 Cd 0.19045 0.61187 0.80232 0.0
O115 O 0.18645 0.61811 0.72721 0.0
O116 O 0.07157 0.48917 0.77229 0.0
O117 O 0.07565 0.53469 0.82102 0.0
C118 C 0.05484 0.50132 0.80116 0.0
C119 C 0.21354 0.66127 0.86196 0.0
C120 C 0.16174 0.59218 0.69905 0.0
C121 C 0.1906 0.53605 0.81502 0.0
O122 O 0.20786 0.57273 0.81621 0.0
O123 O 0.15503 0.51613 0.80493 0.0
O124 O 0.23503 0.66223 0.82664 0.0
O125 O 0.17793 0.63391 0.86165 0.0
O126 O 0.54172 0.14782 0.88381 0.0
Cd127 Cd 0.54906 0.13867 0.95462 0.0
Cd128 Cd 0.56852 0.21521 0.96401 0.0
O129 O 0.56616 0.21106 0.88759 0.0
O130 O 0.53594 0.08371 0.95302 0.0
O131 O 0.50547 0.10383 1.00064 0.0
C132 C 0.51041 0.07609 0.9858 0.0
C133 C 0.54639 0.24667 1.01698 0.0
C134 C 0.55569 0.18042 0.86275 0.0
C135 C 0.63032 0.19589 0.98105 0.0
O136 O 0.61947 0.22049 0.98678 0.0
O137 O 0.60665 0.16166 0.96815 0.0
O138 O 0.57204 0.26551 0.98417 0.0
O139 O 0.53081 0.20948 1.01721 0.0
O140 O 0.46128 0.60783 0.06393 0.0
Cd141 Cd 0.47059 0.62496 0.13457 0.0
Cd142 Cd 0.39692 0.59886 0.12827 0.0
O143 O 0.39876 0.56692 0.06956 0.0
O144 O 0.51802 0.62467 0.15393 0.0
O145 O 0.45999 0.58414 0.18396 0.0
C146 C 0.49622 0.595 0.18052 0.0
C147 C 0.35065 0.58234 0.19092 0.0
C148 C 0.43006 0.58215 0.04497 0.0
C149 C 0.45506 0.68429 0.117 0.0
O150 O 0.42227 0.65545 0.10714 0.0
O151 O 0.47965 0.67993 0.14095 0.0
O152 O 0.34219 0.58399 0.14616 0.0
O153 O 0.3844 0.58695 0.19975 0.0
O154 O 0.85864 0.44619 0.22088 0.0
Cd155 Cd 0.85836 0.45932 0.29211 0.0
Cd156 Cd 0.80489 0.38444 0.29046 0.0
O157 O 0.83176 0.38276 0.22622 0.0
O158 O 0.90685 0.50979 0.29969 0.0
O159 O 0.89666 0.45611 0.33624 0.0
C160 C 0.91962 0.49217 0.32633 0.0
C161 C 0.77649 0.33952 0.35501 0.0
C162 C 0.8481 0.41384 0.201 0.0
C163 C 0.78293 0.44668 0.28442 0.0
O164 O 0.77562 0.41261 0.27492 0.0
O165 O 0.81452 0.4707 0.30443 0.0
O166 O 0.76371 0.33075 0.31124 0.0
O167 O 0.80747 0.37251 0.36154 0.0
C168 C 0.26609 0.75367 0.37992 0.0
C169 C 0.23452 0.72536 0.40588 0.0
H170 H 0.32247 0.80293 0.38423 0.0
C171 C 0.23137 0.7307 0.4557 0.0
H172 H 0.26935 0.74975 0.34172 0.0
C173 C 0.26269 0.75993 0.48075 0.0
C174 C 0.29654 0.7851 0.45566 0.0
H175 H 0.20738 0.70878 0.47653 0.0
H176 H 0.26207 0.76001 0.52 0.0
C177 C 0.29658 0.78405 0.40459 0.0
C178 C 0.51377 0.20495 0.6401 0.0
C179 C 0.51593 0.20345 0.58918 0.0
H180 H 0.51628 0.23945 0.70096 0.0
C181 C 0.50991 0.22899 0.56079 0.0
H182 H 0.5188 0.18584 0.66296 0.0
C183 C 0.50693 0.25871 0.58291 0.0
C184 C 0.51112 0.26377 0.63338 0.0
H185 H 0.51177 0.22859 0.52165 0.0
H186 H 0.50658 0.28068 0.56016 0.0
C187 C 0.51229 0.23559 0.66212 0.0
C188 C 0.21392 0.49852 0.76998 0.0
C189 C 0.21504 0.51861 0.81237 0.0
H190 H 0.24733 0.48692 0.71878 0.0
C191 C 0.2475 0.53354 0.84228 0.0
H192 H 0.18916 0.48711 0.74613 0.0
C193 C 0.28045 0.53366 0.82654 0.0
C194 C 0.28134 0.51892 0.78068 0.0
H195 H 0.24891 0.54913 0.87502 0.0
H196 H 0.30636 0.54843 0.84834 0.0
C197 C 0.24723 0.49879 0.75398 0.0
C198 C 0.71659 0.23777 0.90473 0.0
C199 C 0.73977 0.27041 0.93272 0.0
H200 H 0.66231 0.18532 0.90081 0.0
C201 C 0.73213 0.27018 0.98248 0.0
H202 H 0.72214 0.2375 0.86635 0.0
C203 C 0.6979 0.24087 1.00205 0.0
C204 C 0.67144 0.21135 0.97206 0.0
H205 H 0.75025 0.29508 1.00479 0.0
H206 H 0.68989 0.24409 0.03852 0.0
C207 C 0.68254 0.20785 0.92471 0.0
C208 C 0.44688 0.75045 0.02997 0.0
C209 C 0.45572 0.78177 0.06023 0.0
H210 H 0.44056 0.69439 0.02511 0.0
C211 C 0.47564 0.7859 0.10387 0.0
H212 H 0.4315 0.74678 0.9963 0.0
C213 C 0.47988 0.75533 0.12123 0.0
C214 C 0.46474 0.7212 0.09433 0.0
H215 H 0.48244 0.80988 0.12791 0.0
H216 H 0.4906 0.75665 0.15762 0.0
C217 C 0.45145 0.72028 0.04695 0.0
C218 C 0.73876 0.44219 0.21954 0.0
C219 C 0.75709 0.45893 0.2636 0.0
H220 H 0.69221 0.43005 0.17171 0.0
C221 C 0.74814 0.48428 0.28758 0.0
H222 H 0.74615 0.42356 0.19941 0.0
C223 C 0.71753 0.48864 0.27084 0.0
C224 C 0.69609 0.46769 0.23018 0.0
H225 H 0.76242 0.49794 0.32115 0.0
H226 H 0.70795 0.5047 0.29271 0.0
C227 C 0.70847 0.44651 0.20299 0.0
C228 C 0.20377 0.61388 0.62424 0.0
C229 C 0.16691 0.59458 0.64568 0.0
H230 H 0.23674 0.62646 0.5583 0.0
C231 C 0.1348 0.572 0.61613 0.0
H232 H 0.22916 0.63077 0.64623 0.0
C233 C 0.13917 0.56898 0.56652 0.0
C234 C 0.17583 0.58815 0.54484 0.0
H235 H 0.10604 0.55635 0.63147 0.0
H236 H 0.11358 0.552 0.54483 0.0
C237 C 0.20822 0.61054 0.57421 0.0
C238 C 0.5803 0.15049 0.74399 0.0
C239 C 0.60167 0.18564 0.71893 0.0
H240 H 0.54756 0.12105 0.80649 0.0
C241 C 0.60585 0.21948 0.74059 0.0
H242 H 0.57559 0.1236 0.72849 0.0
C243 C 0.58957 0.21805 0.78641 0.0
C244 C 0.56801 0.18262 0.81112 0.0
H245 H 0.62143 0.247 0.722 0.0
H246 H 0.59429 0.24469 0.80267 0.0
C247 C 0.56347 0.14894 0.7888 0.0
C248 C 0.40018 0.54247 0.97026 0.0
C249 C 0.43001 0.57544 0.99219 0.0
H250 H 0.37485 0.51327 0.90405 0.0
C251 C 0.45896 0.60426 0.96259 0.0
H252 H 0.37751 0.51991 0.99196 0.0
C253 C 0.45713 0.601 0.91207 0.0
C254 C 0.42685 0.56838 0.89009 0.0
H255 H 0.48229 0.63031 0.97835 0.0
H256 H 0.47895 0.62427 0.89028 0.0
C257 C 0.39888 0.53875 0.91982 0.0
C258 C 0.84619 0.38137 0.12211 0.0
C259 C 0.849 0.41302 0.14728 0.0
H260 H 0.84109 0.35502 0.05316 0.0
C261 C 0.84967 0.44357 0.1206 0.0
H262 H 0.84535 0.35738 0.1415 0.0
C263 C 0.84633 0.44194 0.07009 0.0
C264 C 0.84324 0.41019 0.04497 0.0
H265 H 0.85134 0.46831 0.13887 0.0
H266 H 0.84584 0.46532 0.05082 0.0
C267 C 0.84384 0.38021 0.07146 0.0
C268 C 0.36183 0.77605 0.26109 0.0
C269 C 0.38269 0.81113 0.23553 0.0
H270 H 0.35538 0.74525 0.32766 0.0
C271 C 0.41481 0.8419 0.25844 0.0
H272 H 0.33735 0.75152 0.24445 0.0
C273 C 0.42593 0.8379 0.30497 0.0
C274 C 0.40502 0.80319 0.33099 0.0
H275 H 0.43209 0.86933 0.24013 0.0
H276 H 0.45059 0.86267 0.32101 0.0
C277 C 0.37272 0.77221 0.30843 0.0
C278 C 0.6009 0.43508 0.42126 0.0
C279 C 0.57016 0.40618 0.39402 0.0
H280 H 0.62617 0.45458 0.49165 0.0
C281 C 0.54132 0.37361 0.41803 0.0
H282 H 0.62393 0.46034 0.40354 0.0
C283 C 0.54235 0.37084 0.46852 0.0
C284 C 0.57277 0.40003 0.4958 0.0
H285 H 0.51752 0.3509 0.39802 0.0
H286 H 0.5192 0.34574 0.48635 0.0
C287 C 0.60247 0.43179 0.4716 0.0
C288 C 0.98149 0.49305 0.34206 0.0
C289 C 0.96034 0.51239 0.34155 0.0
H290 H 0.03704 0.498 0.35113 0.0
C291 C 0.97932 0.55216 0.35126 0.0
H292 H 0.96755 0.46247 0.33396 0.0
C293 C 0.01868 0.57221 0.36188 0.0
C294 C 0.04007 0.55314 0.36132 0.0
H295 H 0.96368 0.56774 0.35073 0.0
H296 H 0.03254 0.60281 0.36984 0.0
C297 C 0.02122 0.51341 0.35118 0.0
C298 C 0.49075 0.96129 0.56179 0.0
C299 C 0.48563 0.95326 0.51201 0.0
H300 H 0.51346 0.00501 0.61665 0.0
C301 C 0.50273 0.98409 0.47876 0.0
H302 H 0.47782 0.93811 0.58819 0.0
C303 C 0.52378 0.02228 0.49496 0.0
C304 C 0.52736 0.03042 0.54473 0.0
H305 H 0.49941 0.97871 0.44012 0.0
H306 H 0.53594 0.04547 0.46852 0.0
C307 C 0.51103 -0.00045 0.57801 0.0
C308 C 0.47024 0.48509 0.6927 0.0
C309 C 0.4299 0.46474 0.69765 0.0
H310 H 0.52125 0.48149 0.68036 0.0
C311 C 0.40972 0.42442 0.69224 0.0
H312 H 0.4865 0.51615 0.6974 0.0
C313 C 0.42945 0.40476 0.68178 0.0
C314 C 0.46984 0.42492 0.67806 0.0
H315 H 0.37864 0.40805 0.69621 0.0
H316 H 0.41312 0.37367 0.67741 0.0
C317 C 0.49012 0.46526 0.68364 0.0
C318 C -0.00446 0.43663 0.8072 0.0
C319 C 0.0133 0.47698 0.81157 0.0
H320 H 0.94415 0.38192 0.81752 0.0
C321 C 0.9911 0.49342 0.82606 0.0
H322 H 0.01198 0.4232 0.79603 0.0
C323 C 0.95188 0.46975 0.83683 0.0
C324 C 0.93466 0.42933 0.83453 0.0
H325 H 0.00407 0.52447 0.82932 0.0
H326 H 0.93554 0.48298 0.84919 0.0
C327 C 0.95673 0.41301 0.81926 0.0
C328 C 0.45048 0.0176 1.01684 0.0
C329 C 0.49036 0.03738 1.00782 0.0
H330 H 0.40129 0.96434 0.04079 0.0
C331 C 0.51178 0.0193 1.01822 0.0
H332 H 0.43347 0.03108 1.00876 0.0
C333 C 0.49386 0.98214 0.03749 0.0
C334 C 0.4539 0.96173 0.04542 0.0
H335 H 0.54259 0.03406 1.01164 0.0
H336 H 0.51127 0.96901 0.04515 0.0
C337 C 0.43217 0.97958 0.03478 0.0
C338 C 0.48885 0.53126 0.2034 0.0
C339 C 0.5118 0.57172 0.20132 0.0
H340 H 0.48731 0.47743 0.2151 0.0
C341 C 0.55106 0.58924 0.21314 0.0
H342 H 0.45859 0.51704 0.19378 0.0
C343 C 0.56728 0.56669 0.22601 0.0
C344 C 0.54479 0.52617 0.22589 0.0
H345 H 0.56939 0.62037 0.2115 0.0
H346 H 0.59777 0.58097 0.23441 0.0
C347 C 0.50534 0.50861 0.21498 0.0
C348 C 0.26271 0.57291 0.25737 0.0
C349 C 0.27702 0.58477 0.30458 0.0
H350 H 0.27452 0.56285 0.18459 0.0
C351 C 0.31458 0.5923 0.31492 0.0
H352 H 0.23402 0.567 0.24795 0.0
C353 C 0.33765 0.58939 0.27871 0.0
C354 C 0.32406 0.57944 0.23089 0.0
H355 H 0.32661 0.60145 0.35082 0.0
H356 H 0.3668 0.59661 0.28779 0.0
C357 C 0.28601 0.57057 0.22095 0.0
C358 C 0.75523 0.33096 0.44228 0.0
C359 C 0.75367 0.31453 0.39669 0.0
H360 H 0.73033 0.32301 0.51331 0.0
C361 C 0.72696 0.27499 0.39011 0.0
H362 H 0.77513 0.36137 0.44854 0.0
C363 C 0.70185 0.25272 0.42773 0.0
C364 C 0.70201 0.26971 0.47241 0.0
H365 H 0.72485 0.26142 0.35544 0.0
H366 H 0.68102 0.22263 0.42099 0.0
C367 C 0.72938 0.30899 0.47938 0.0
C368 C 0.40336 0.64999 0.60038 0.0
C369 C 0.41876 0.66528 0.64623 0.0
H370 H 0.38584 0.65976 0.53069 0.0
C371 C 0.43164 0.70461 0.65474 0.0
H372 H 0.3928 0.61977 0.59267 0.0
C373 C 0.42846 0.72781 0.61873 0.0
C374 C 0.41125 0.71198 0.57379 0.0
H375 H 0.44351 0.71731 0.68967 0.0
H376 H 0.4379 0.75773 0.62692 0.0
C377 C 0.39916 0.67288 0.5649 0.0
C378 C 0.70228 0.4202 0.8213 0.0
C379 C 0.73416 0.416 0.80929 0.0
H380 H 0.65182 0.42081 0.79628 0.0
C381 C 0.7405 0.4118 0.76006 0.0
H382 H 0.69637 0.42344 0.85876 0.0
C383 C 0.71465 0.40986 0.72424 0.0
C384 C 0.68194 0.41254 0.73646 0.0
H385 H 0.76457 0.40832 0.74931 0.0
H386 H 0.71976 0.40514 0.687 0.0
C387 C 0.67668 0.41873 0.78537 0.0
C388 C 0.23926 0.69645 0.99171 0.0
C389 C 0.27242 0.73296 0.98545 0.0
H390 H 0.19377 0.64583 0.95756 0.0
C391 C 0.28327 0.74748 0.93805 0.0
H392 H 0.23028 0.68434 0.0277 0.0
C393 C 0.26307 0.72491 0.89782 0.0
C394 C 0.23074 0.68783 0.90403 0.0
H395 H 0.30892 0.77526 0.9319 0.0
H396 H 0.27352 0.73598 0.86177 0.0
C397 C 0.21828 0.67444 0.95149 0.0
C398 C 0.53115 0.27493 0.143 0.0
C399 C 0.53913 0.3131 0.13579 0.0
H400 H 0.52575 0.22356 0.11091 0.0
C401 C 0.54504 0.32753 0.0881 0.0
H402 H 0.52666 0.263 0.17926 0.0
C403 C 0.54564 0.30531 0.04905 0.0
C404 C 0.53911 0.26766 0.0565 0.0
H405 H 0.5517 0.35693 0.08128 0.0
H406 H 0.55249 0.3181 1.01318 0.0
C407 C 0.53053 0.25228 0.10375 0.0
loop_
_geom_bond_atom_site_label_1
_geom_bond_atom_site_label_2
_geom_bond_distance
_geom_bond_site_symmetry_2
_ccdc_geom_bond_type
O0 Cd1 2.223 . S
O0 C8 1.315 . S
Cd1 O0 2.223 . S
Cd1 O4 2.297 . S
Cd1 O5 2.439 . S
Cd1 O11 2.240 . S
Cd2 O3 2.240 . S
Cd2 O10 2.223 . S
Cd2 O12 2.297 . S
Cd2 O13 2.439 . S
O3 Cd2 2.240 . S
O3 C8 1.279 . S
O4 Cd1 2.297 . S
O4 C6 1.247 . S
O5 Cd1 2.439 . S
O5 C6 1.208 . S
C6 O4 1.247 . S
C6 O5 1.208 . S
C7 O12 1.247 . S
C7 O13 1.208 . S
C8 O0 1.315 . S
C8 O3 1.279 . S
C9 O10 1.315 . S
C9 O11 1.279 . S
O10 Cd2 2.223 . S
O10 C9 1.315 . S
O11 Cd1 2.240 . S
O11 C9 1.279 . S
O12 Cd2 2.297 . S
O12 C7 1.247 . S
O13 Cd2 2.439 . S
O13 C7 1.208 . S
O14 Cd15 2.223 . S
O14 C22 1.315 . S
Cd15 O14 2.223 . S
Cd15 O18 2.297 . S
Cd15 O19 2.439 . S
Cd15 O25 2.240 . S
Cd16 O17 2.240 . S
Cd16 O24 2.223 . S
Cd16 O26 2.297 . S
Cd16 O27 2.439 . S
O17 Cd16 2.240 . S
O17 C22 1.279 . S
O18 Cd15 2.297 . S
O18 C20 1.247 . S
O19 Cd15 2.439 . S
O19 C20 1.208 . S
C20 O18 1.247 . S
C20 O19 1.208 . S
C21 O26 1.247 . S
C21 O27 1.208 . S
C22 O14 1.315 . S
C22 O17 1.279 . S
C23 O24 1.315 . S
C23 O25 1.279 . S
O24 Cd16 2.223 . S
O24 C23 1.315 . S
O25 Cd15 2.240 . S
O25 C23 1.279 . S
O26 Cd16 2.297 . S
O26 C21 1.247 . S
O27 Cd16 2.439 . S
O27 C21 1.208 . S
O28 Cd29 2.223 . S
O28 C36 1.315 . S
Cd29 O28 2.223 . S
Cd29 O32 2.297 . S
Cd29 O33 2.439 . S
Cd29 O39 2.240 . S
Cd30 O31 2.240 . S
Cd30 O38 2.223 . S
Cd30 O40 2.297 . S
Cd30 O41 2.439 . S
O31 Cd30 2.240 . S
O31 C36 1.279 . S
O32 Cd29 2.297 . S
O32 C34 1.247 . S
O33 Cd29 2.439 . S
O33 C34 1.208 . S
C34 O32 1.247 . S
C34 O33 1.208 . S
C35 O40 1.247 . S
C35 O41 1.208 . S
C36 O28 1.315 . S
C36 O31 1.279 . S
C37 O38 1.315 . S
C37 O39 1.279 . S
O38 Cd30 2.223 . S
O38 C37 1.315 . S
O39 Cd29 2.240 . S
O39 C37 1.279 . S
O40 Cd30 2.297 . S
O40 C35 1.247 . S
O41 Cd30 2.439 . S
O41 C35 1.208 . S
O42 Cd43 2.223 . S
O42 C50 1.315 . S
Cd43 O42 2.223 . S
Cd43 O46 2.297 . S
Cd43 O47 2.439 . S
Cd43 O53 2.240 . S
Cd44 O45 2.240 . S
Cd44 O52 2.223 . S
Cd44 O54 2.297 . S
Cd44 O55 2.439 . S
O45 Cd44 2.240 . S
O45 C50 1.279 . S
O46 Cd43 2.297 . S
O46 C48 1.247 . S
O47 Cd43 2.439 . S
O47 C48 1.208 . S
C48 O46 1.247 . S
C48 O47 1.208 . S
C49 O54 1.247 . S
C49 O55 1.208 . S
C50 O42 1.315 . S
C50 O45 1.279 . S
C51 O52 1.315 . S
C51 O53 1.279 . S
O52 Cd44 2.223 . S
O52 C51 1.315 . S
O53 Cd43 2.240 . S
O53 C51 1.279 . S
O54 Cd44 2.297 . S
O54 C49 1.247 . S
O55 Cd44 2.439 . S
O55 C49 1.208 . S
O56 Cd57 2.223 . S
O56 C64 1.315 . S
Cd57 O56 2.223 . S
Cd57 O60 2.297 . S
Cd57 O61 2.439 . S
Cd57 O67 2.240 . S
Cd58 O59 2.240 . S
Cd58 O66 2.223 . S
Cd58 O68 2.297 . S
Cd58 O69 2.439 1_554 S
O59 Cd58 2.240 . S
O59 C64 1.279 . S
O60 Cd57 2.297 . S
O60 C62 1.247 . S
O61 Cd57 2.439 . S
O61 C62 1.208 . S
C62 O60 1.247 . S
C62 O61 1.208 . S
C63 O68 1.247 1_556 S
C63 O69 1.208 . S
C64 O56 1.315 . S
C64 O59 1.279 . S
C65 O66 1.315 . S
C65 O67 1.279 . S
O66 Cd58 2.223 . S
O66 C65 1.315 . S
O67 Cd57 2.240 . S
O67 C65 1.279 . S
O68 Cd58 2.297 . S
O68 C63 1.247 1_554 S
O69 Cd58 2.439 1_556 S
O69 C63 1.208 . S
O70 Cd71 2.223 . S
O70 C78 1.315 . S
Cd71 O70 2.223 . S
Cd71 O74 2.297 . S
Cd71 O75 2.439 . S
Cd71 O81 2.240 . S
Cd72 O73 2.240 . S
Cd72 O80 2.223 . S
Cd72 O82 2.297 . S
Cd72 O83 2.439 . S
O73 Cd72 2.240 . S
O73 C78 1.279 . S
O74 Cd71 2.297 . S
O74 C76 1.247 . S
O75 Cd71 2.439 . S
O75 C76 1.208 . S
C76 O74 1.247 . S
C76 O75 1.208 . S
C77 O82 1.247 . S
C77 O83 1.208 . S
C78 O70 1.315 . S
C78 O73 1.279 . S
C79 O80 1.315 . S
C79 O81 1.279 . S
O80 Cd72 2.223 . S
O80 C79 1.315 . S
O81 Cd71 2.240 . S
O81 C79 1.279 . S
O82 Cd72 2.297 . S
O82 C77 1.247 . S
O83 Cd72 2.439 . S
O83 C77 1.208 . S
O84 Cd85 2.223 . S
O84 C92 1.315 . S
Cd85 O84 2.223 . S
Cd85 O88 2.297 . S
Cd85 O89 2.439 . S
Cd85 O95 2.240 . S
Cd86 O87 2.240 . S
Cd86 O94 2.223 . S
Cd86 O96 2.297 . S
Cd86 O97 2.439 . S
O87 Cd86 2.240 . S
O87 C92 1.279 . S
O88 Cd85 2.297 . S
O88 C90 1.247 . S
O89 Cd85 2.439 . S
O89 C90 1.208 . S
C90 O88 1.247 . S
C90 O89 1.208 . S
C91 O96 1.247 . S
C91 O97 1.208 . S
C92 O84 1.315 . S
C92 O87 1.279 . S
C93 O94 1.315 . S
C93 O95 1.279 . S
O94 Cd86 2.223 . S
O94 C93 1.315 . S
O95 Cd85 2.240 . S
O95 C93 1.279 . S
O96 Cd86 2.297 . S
O96 C91 1.247 . S
O97 Cd86 2.439 . S
O97 C91 1.208 . S
O98 Cd99 2.223 . S
O98 C106 1.315 . S
Cd99 O98 2.223 . S
Cd99 O102 2.297 . S
Cd99 O103 2.439 . S
Cd99 O109 2.240 . S
Cd100 O101 2.240 . S
Cd100 O108 2.223 . S
Cd100 O110 2.297 . S
Cd100 O111 2.439 . S
O101 Cd100 2.240 . S
O101 C106 1.279 . S
O102 Cd99 2.297 . S
O102 C104 1.247 . S
O103 Cd99 2.439 . S
O103 C104 1.208 . S
C104 O102 1.247 . S
C104 O103 1.208 . S
C105 O110 1.247 . S
C105 O111 1.208 . S
C106 O98 1.315 . S
C106 O101 1.279 . S
C107 O108 1.315 . S
C107 O109 1.279 . S
O108 Cd100 2.223 . S
O108 C107 1.315 . S
O109 Cd99 2.240 . S
O109 C107 1.279 . S
O110 Cd100 2.297 . S
O110 C105 1.247 . S
O111 Cd100 2.439 . S
O111 C105 1.208 . S
O112 Cd113 2.223 . S
O112 C120 1.315 . S
Cd113 O112 2.223 . S
Cd113 O116 2.297 . S
Cd113 O117 2.439 . S
Cd113 O123 2.240 . S
Cd114 O115 2.240 . S
Cd114 O122 2.223 . S
Cd114 O124 2.297 . S
Cd114 O125 2.439 . S
O115 Cd114 2.240 . S
O115 C120 1.279 . S
O116 Cd113 2.297 . S
O116 C118 1.247 . S
O117 Cd113 2.439 . S
O117 C118 1.208 . S
C118 O116 1.247 . S
C118 O117 1.208 . S
C119 O124 1.247 . S
C119 O125 1.208 . S
C120 O112 1.315 . S
C120 O115 1.279 . S
C121 O122 1.315 . S
C121 O123 1.279 . S
O122 Cd114 2.223 . S
O122 C121 1.315 . S
O123 Cd113 2.240 . S
O123 C121 1.279 . S
O124 Cd114 2.297 . S
O124 C119 1.247 . S
O125 Cd114 2.439 . S
O125 C119 1.208 . S
O126 Cd127 2.223 . S
O126 C134 1.315 . S
Cd127 O126 2.223 . S
Cd127 O130 2.297 . S
Cd127 O131 2.439 . S
Cd127 O137 2.240 . S
Cd128 O129 2.240 . S
Cd128 O136 2.223 . S
Cd128 O138 2.297 . S
Cd128 O139 2.439 1_556 S
O129 Cd128 2.240 . S
O129 C134 1.279 . S
O130 Cd127 2.297 . S
O130 C132 1.247 . S
O131 Cd127 2.439 . S
O131 C132 1.208 . S
C132 O130 1.247 . S
C132 O131 1.208 . S
C133 O138 1.247 1_554 S
C133 O139 1.208 . S
C134 O126 1.315 . S
C134 O129 1.279 . S
C135 O136 1.315 . S
C135 O137 1.279 . S
O136 Cd128 2.223 . S
O136 C135 1.315 . S
O137 Cd127 2.240 . S
O137 C135 1.279 . S
O138 Cd128 2.297 . S
O138 C133 1.247 1_556 S
O139 Cd128 2.439 1_554 S
O139 C133 1.208 . S
O140 Cd141 2.223 . S
O140 C148 1.315 . S
Cd141 O140 2.223 . S
Cd141 O144 2.297 . S
Cd141 O145 2.439 . S
Cd141 O151 2.240 . S
Cd142 O143 2.240 . S
Cd142 O150 2.223 . S
Cd142 O152 2.297 . S
Cd142 O153 2.439 . S
O143 Cd142 2.240 . S
O143 C148 1.279 . S
O144 Cd141 2.297 . S
O144 C146 1.247 . S
O145 Cd141 2.439 . S
O145 C146 1.208 . S
C146 O144 1.247 . S
C146 O145 1.208 . S
C147 O152 1.247 . S
C147 O153 1.208 . S
C148 O140 1.315 . S
C148 O143 1.279 . S
C149 O150 1.315 . S
C149 O151 1.279 . S
O150 Cd142 2.223 . S
O150 C149 1.315 . S
O151 Cd141 2.240 . S
O151 C149 1.279 . S
O152 Cd142 2.297 . S
O152 C147 1.247 . S
O153 Cd142 2.439 . S
O153 C147 1.208 . S
O154 Cd155 2.223 . S
O154 C162 1.315 . S
Cd155 O154 2.223 . S
Cd155 O158 2.297 . S
Cd155 O159 2.439 . S
Cd155 O165 2.240 . S
Cd156 O157 2.240 . S
Cd156 O164 2.223 . S
Cd156 O166 2.297 . S
Cd156 O167 2.439 . S
O157 Cd156 2.240 . S
O157 C162 1.279 . S
O158 Cd155 2.297 . S
O158 C160 1.247 . S
O159 Cd155 2.439 . S
O159 C160 1.208 . S
C160 O158 1.247 . S
C160 O159 1.208 . S
C161 O166 1.247 . S
C161 O167 1.208 . S
C162 O154 1.315 . S
C162 O157 1.279 . S
C163 O164 1.315 . S
C163 O165 1.279 . S
O164 Cd156 2.223 . S
O164 C163 1.315 . S
O165 Cd155 2.240 . S
O165 C163 1.279 . S
O166 Cd156 2.297 . S
O166 C161 1.247 . S
O167 Cd156 2.439 . S
O167 C161 1.208 . S
C168 C169 1.387 . S
C168 H172 0.950 . S
C168 C177 1.390 . S
C169 C168 1.387 . S
C169 C171 1.387 . S
H170 C177 0.950 . S
C171 C169 1.387 . S
C171 C173 1.390 . S
C171 H175 0.950 . S
H172 C168 0.950 . S
C173 C171 1.390 . S
C173 C174 1.387 . S
C173 H176 0.950 . S
C174 C173 1.387 . S
C174 C177 1.387 . S
H175 C171 0.950 . S
H176 C173 0.950 . S
C177 C168 1.390 . S
C177 H170 0.950 . S
C177 C174 1.387 . S
C178 C179 1.387 . S
C178 H182 0.950 . S
C178 C187 1.390 . S
C179 C178 1.387 . S
C179 C181 1.387 . S
H180 C187 0.950 . S
C181 C179 1.387 . S
C181 C183 1.390 . S
C181 H185 0.950 . S
H182 C178 0.950 . S
C183 C181 1.390 . S
C183 C184 1.387 . S
C183 H186 0.950 . S
C184 C183 1.387 . S
C184 C187 1.387 . S
H185 C181 0.950 . S
H186 C183 0.950 . S
C187 C178 1.390 . S
C187 H180 0.950 . S
C187 C184 1.387 . S
C188 C189 1.387 . S
C188 H192 0.950 . S
C188 C197 1.390 . S
C189 C188 1.387 . S
C189 C191 1.387 . S
H190 C197 0.950 . S
C191 C189 1.387 . S
C191 C193 1.390 . S
C191 H195 0.950 . S
H192 C188 0.950 . S
C193 C191 1.390 . S
C193 C194 1.387 . S
C193 H196 0.950 . S
C194 C193 1.387 . S
C194 C197 1.387 . S
H195 C191 0.950 . S
H196 C193 0.950 . S
C197 C188 1.390 . S
C197 H190 0.950 . S
C197 C194 1.387 . S
C198 C199 1.387 . S
C198 H202 0.950 . S
C198 C207 1.390 . S
C199 C198 1.387 . S
C199 C201 1.387 . S
H200 C207 0.950 . S
C201 C199 1.387 . S
C201 C203 1.390 . S
C201 H205 0.950 . S
H202 C198 0.950 . S
C203 C201 1.390 . S
C203 C204 1.387 . S
C203 H206 0.950 . S
C204 C203 1.387 . S
C204 C207 1.387 . S
H205 C201 0.950 . S
H206 C203 0.950 . S
C207 C198 1.390 . S
C207 H200 0.950 . S
C207 C204 1.387 . S
C208 C209 1.387 . S
C208 H212 0.950 . S
C208 C217 1.390 . S
C209 C208 1.387 . S
C209 C211 1.387 . S
H210 C217 0.950 . S
C211 C209 1.387 . S
C211 C213 1.390 . S
C211 H215 0.950 . S
H212 C208 0.950 . S
C213 C211 1.390 . S
C213 C214 1.387 . S
C213 H216 0.950 . S
C214 C213 1.387 . S
C214 C217 1.387 . S
H215 C211 0.950 . S
H216 C213 0.950 . S
C217 C208 1.390 . S
C217 H210 0.950 . S
C217 C214 1.387 . S
C218 C219 1.387 . S
C218 H222 0.950 . S
C218 C227 1.390 . S
C219 C218 1.387 . S
C219 C221 1.387 . S
H220 C227 0.950 . S
C221 C219 1.387 . S
C221 C223 1.390 . S
C221 H225 0.950 . S
H222 C218 0.950 . S
C223 C221 1.390 . S
C223 C224 1.387 . S
C223 H226 0.950 . S
C224 C223 1.387 . S
C224 C227 1.387 . S
H225 C221 0.950 . S
H226 C223 0.950 . S
C227 C218 1.390 . S
C227 H220 0.950 . S
C227 C224 1.387 . S
C228 C229 1.387 . S
C228 H232 0.950 . S
C228 C237 1.390 . S
C229 C228 1.387 . S
C229 C231 1.387 . S
H230 C237 0.950 . S
C231 C229 1.387 . S
C231 C233 1.390 . S
C231 H235 0.950 . S
H232 C228 0.950 . S
C233 C231 1.390 . S
C233 C234 1.387 . S
C233 H236 0.950 . S
C234 C233 1.387 . S
C234 C237 1.387 . S
H235 C231 0.950 . S
H236 C233 0.950 . S
C237 C228 1.390 . S
C237 H230 0.950 . S
C237 C234 1.387 . S
C238 C239 1.387 . S
C238 H242 0.950 . S
C238 C247 1.390 . S
C239 C238 1.387 . S
C239 C241 1.387 . S
H240 C247 0.950 . S
C241 C239 1.387 . S
C241 C243 1.390 . S
C241 H245 0.950 . S
H242 C238 0.950 . S
C243 C241 1.390 . S
C243 C244 1.387 . S
C243 H246 0.950 . S
C244 C243 1.387 . S
C244 C247 1.387 . S
H245 C241 0.950 . S
H246 C243 0.950 . S
C247 C238 1.390 . S
C247 H240 0.950 . S
C247 C244 1.387 . S
C248 C249 1.387 . S
C248 H252 0.950 . S
C248 C257 1.390 . S
C249 C248 1.387 . S
C249 C251 1.387 . S
H250 C257 0.950 . S
C251 C249 1.387 . S
C251 C253 1.390 . S
C251 H255 0.950 . S
H252 C248 0.950 . S
C253 C251 1.390 . S
C253 C254 1.387 . S
C253 H256 0.950 . S
C254 C253 1.387 . S
C254 C257 1.387 . S
H255 C251 0.950 . S
H256 C253 0.950 . S
C257 C248 1.390 . S
C257 H250 0.950 . S
C257 C254 1.387 . S
C258 C259 1.387 . S
C258 H262 0.950 . S
C258 C267 1.390 . S
C259 C258 1.387 . S
C259 C261 1.387 . S
H260 C267 0.950 . S
C261 C259 1.387 . S
C261 C263 1.390 . S
C261 H265 0.950 . S
H262 C258 0.950 . S
C263 C261 1.390 . S
C263 C264 1.387 . S
C263 H266 0.950 . S
C264 C263 1.387 . S
C264 C267 1.387 . S
H265 C261 0.950 . S
H266 C263 0.950 . S
C267 C258 1.390 . S
C267 H260 0.950 . S
C267 C264 1.387 . S
C268 C269 1.387 . S
C268 H272 0.950 . S
C268 C277 1.390 . S
C269 C268 1.387 . S
C269 C271 1.387 . S
H270 C277 0.950 . S
C271 C269 1.387 . S
C271 C273 1.390 . S
C271 H275 0.950 . S
H272 C268 0.950 . S
C273 C271 1.390 . S
C273 C274 1.387 . S
C273 H276 0.950 . S
C274 C273 1.387 . S
C274 C277 1.387 . S
H275 C271 0.950 . S
H276 C273 0.950 . S
C277 C268 1.390 . S
C277 H270 0.950 . S
C277 C274 1.387 . S
C278 C279 1.387 . S
C278 H282 0.950 . S
C278 C287 1.390 . S
C279 C278 1.387 . S
C279 C281 1.387 . S
H280 C287 0.950 . S
C281 C279 1.387 . S
C281 C283 1.390 . S
C281 H285 0.950 . S
H282 C278 0.950 . S
C283 C281 1.390 . S
C283 C284 1.387 . S
C283 H286 0.950 . S
C284 C283 1.387 . S
C284 C287 1.387 . S
H285 C281 0.950 . S
H286 C283 0.950 . S
C287 C278 1.390 . S
C287 H280 0.950 . S
C287 C284 1.387 . S
C288 C289 1.387 . S
C288 H292 0.950 . S
C288 C297 1.390 1_655 S
C289 C288 1.387 . S
C289 C291 1.387 . S
H290 C297 0.950 . S
C291 C289 1.387 . S
C291 C293 1.390 1_655 S
C291 H295 0.950 . S
H292 C288 0.950 . S
C293 C291 1.390 1_455 S
C293 C294 1.387 . S
C293 H296 0.950 . S
C294 C293 1.387 . S
C294 C297 1.387 . S
H295 C291 0.950 . S
H296 C293 0.950 . S
C297 C288 1.390 1_455 S
C297 H290 0.950 . S
C297 C294 1.387 . S
C298 C299 1.387 . S
C298 H302 0.950 . S
C298 C307 1.390 1_565 S
C299 C298 1.387 . S
C299 C301 1.387 . S
H300 C307 0.950 . S
C301 C299 1.387 . S
C301 C303 1.390 1_565 S
C301 H305 0.950 . S
H302 C298 0.950 . S
C303 C301 1.390 1_545 S
C303 C304 1.387 . S
C303 H306 0.950 . S
C304 C303 1.387 . S
C304 C307 1.387 . S
H305 C301 0.950 . S
H306 C303 0.950 . S
C307 C298 1.390 1_545 S
C307 H300 0.950 . S
C307 C304 1.387 . S
C308 C309 1.387 . S
C308 H312 0.950 . S
C308 C317 1.390 . S
C309 C308 1.387 . S
C309 C311 1.387 . S
H310 C317 0.950 . S
C311 C309 1.387 . S
C311 C313 1.390 . S
C311 H315 0.950 . S
H312 C308 0.950 . S
C313 C311 1.390 . S
C313 C314 1.387 . S
C313 H316 0.950 . S
C314 C313 1.387 . S
C314 C317 1.387 . S
H315 C311 0.950 . S
H316 C313 0.950 . S
C317 C308 1.390 . S
C317 H310 0.950 . S
C317 C314 1.387 . S
C318 C319 1.387 . S
C318 H322 0.950 . S
C318 C327 1.390 1_455 S
C319 C318 1.387 . S
C319 C321 1.387 . S
H320 C327 0.950 . S
C321 C319 1.387 . S
C321 C323 1.390 1_455 S
C321 H325 0.950 . S
H322 C318 0.950 . S
C323 C321 1.390 1_655 S
C323 C324 1.387 . S
C323 H326 0.950 . S
C324 C323 1.387 . S
C324 C327 1.387 . S
H325 C321 0.950 . S
H326 C323 0.950 . S
C327 C318 1.390 1_655 S
C327 H320 0.950 . S
C327 C324 1.387 . S
C328 C329 1.387 . S
C328 H332 0.950 . S
C328 C337 1.390 1_546 S
C329 C328 1.387 . S
C329 C331 1.387 . S
H330 C337 0.950 . S
C331 C329 1.387 . S
C331 C333 1.390 1_546 S
C331 H335 0.950 . S
H332 C328 0.950 . S
C333 C331 1.390 1_564 S
C333 C334 1.387 . S
C333 H336 0.950 . S
C334 C333 1.387 . S
C334 C337 1.387 . S
H335 C331 0.950 . S
H336 C333 0.950 . S
C337 C328 1.390 1_564 S
C337 H330 0.950 . S
C337 C334 1.387 . S
C338 C339 1.387 . S
C338 H342 0.950 . S
C338 C347 1.390 . S
C339 C338 1.387 . S
C339 C341 1.387 . S
H340 C347 0.950 . S
C341 C339 1.387 . S
C341 C343 1.390 . S
C341 H345 0.950 . S
H342 C338 0.950 . S
C343 C341 1.390 . S
C343 C344 1.387 . S
C343 H346 0.950 . S
C344 C343 1.387 . S
C344 C347 1.387 . S
H345 C341 0.950 . S
H346 C343 0.950 . S
C347 C338 1.390 . S
C347 H340 0.950 . S
C347 C344 1.387 . S
C348 C349 1.387 . S
C348 H352 0.950 . S
C348 C357 1.390 . S
C349 C348 1.387 . S
C349 C351 1.387 . S
H350 C357 0.950 . S
C351 C349 1.387 . S
C351 C353 1.390 . S
C351 H355 0.950 . S
H352 C348 0.950 . S
C353 C351 1.390 . S
C353 C354 1.387 . S
C353 H356 0.950 . S
C354 C353 1.387 . S
C354 C357 1.387 . S
H355 C351 0.950 . S
H356 C353 0.950 . S
C357 C348 1.390 . S
C357 H350 0.950 . S
C357 C354 1.387 . S
C358 C359 1.387 . S
C358 H362 0.950 . S
C358 C367 1.390 . S
C359 C358 1.387 . S
C359 C361 1.387 . S
H360 C367 0.950 . S
C361 C359 1.387 . S
C361 C363 1.390 . S
C361 H365 0.950 . S
H362 C358 0.950 . S
C363 C361 1.390 . S
C363 C364 1.387 . S
C363 H366 0.950 . S
C364 C363 1.387 . S
C364 C367 1.387 . S
H365 C361 0.950 . S
H366 C363 0.950 . S
C367 C358 1.390 . S
C367 H360 0.950 . S
C367 C364 1.387 . S
C368 C369 1.387 . S
C368 H372 0.950 . S
C368 C377 1.390 . S
C369 C368 1.387 . S
C369 C371 1.387 . S
H370 C377 0.950 . S
C371 C369 1.387 . S
C371 C373 1.390 . S
C371 H375 0.950 . S
H372 C368 0.950 . S
C373 C371 1.390 . S
C373 C374 1.387 . S
C373 H376 0.950 . S
C374 C373 1.387 . S
C374 C377 1.387 . S
H375 C371 0.950 . S
H376 C373 0.950 . S
C377 C368 1.390 . S
C377 H370 0.950 . S
C377 C374 1.387 . S
C378 C379 1.387 . S
C378 H382 0.950 . S
C378 C387 1.390 . S
C379 C378 1.387 . S
C379 C381 1.387 . S
H380 C387 0.950 . S
C381 C379 1.387 . S
C381 C383 1.390 . S
C381 H385 0.950 . S
H382 C378 0.950 . S
C383 C381 1.390 . S
C383 C384 1.387 . S
C383 H386 0.950 . S
C384 C383 1.387 . S
C384 C387 1.387 . S
H385 C381 0.950 . S
H386 C383 0.950 . S
C387 C378 1.390 . S
C387 H380 0.950 . S
C387 C384 1.387 . S
C388 C389 1.387 . S
C388 H392 0.950 . S
C388 C397 1.390 . S
C389 C388 1.387 . S
C389 C391 1.387 . S
H390 C397 0.950 . S
C391 C389 1.387 . S
C391 C393 1.390 . S
C391 H395 0.950 . S
H392 C388 0.950 . S
C393 C391 1.390 . S
C393 C394 1.387 . S
C393 H396 0.950 . S
C394 C393 1.387 . S
C394 C397 1.387 . S
H395 C391 0.950 . S
H396 C393 0.950 . S
C397 C388 1.390 . S
C397 H390 0.950 . S
C397 C394 1.387 . S
C398 C399 1.387 . S
C398 H402 0.950 . S
C398 C407 1.390 . S
C399 C398 1.387 . S
C399 C401 1.387 . S
H400 C407 0.950 . S
C401 C399 1.387 . S
C401 C403 1.390 . S
C401 H405 0.950 . S
H402 C398 0.950 . S
C403 C401 1.390 . S
C403 C404 1.387 . S
C403 H406 0.950 . S
C404 C403 1.387 . S
C404 C407 1.387 . S
H405 C401 0.950 . S
H406 C403 0.950 . S
C407 C398 1.390 . S
C407 H400 0.950 . S
C407 C404 1.387 . S
C169 C9 1.120 . S
C174 C93 1.124 . S
C179 C23 1.124 . S
C184 C107 1.120 . S
C189 C121 1.122 . S
C194 C37 1.122 . S
C199 C51 1.120 . S
C204 C135 1.124 . S
C209 C65 1.120 . S
C214 C149 1.124 . S
C219 C163 1.122 . S
C224 C79 1.122 . S
C229 C120 1.640 . S
C234 C8 1.640 . S
C239 C22 1.637 . S
C244 C134 1.637 . S
C249 C148 1.639 1_556 S
C254 C36 1.639 . S
C259 C162 1.639 . S
C264 C50 1.639 1_554 S
C269 C64 1.640 . S
C274 C92 1.640 . S
C279 C78 1.639 . S
C284 C106 1.639 . S
C289 C160 1.441 . S
C294 C6 1.443 . S
C299 C90 1.442 . S
C304 C20 1.442 . S
C309 C34 1.443 . S
C314 C104 1.441 . S
C319 C118 1.443 . S
C324 C48 1.442 . S
C329 C132 1.442 . S
C334 C62 1.442 . S
C339 C146 1.442 . S
C344 C76 1.442 . S
C349 C7 1.314 . S
C354 C147 1.314 . S
C359 C161 1.317 . S
C364 C21 1.316 . S
C369 C35 1.317 . S
C374 C91 1.317 . S
C379 C49 1.314 . S
C384 C105 1.314 . S
C389 C63 1.317 . S
C394 C119 1.317 . S
C399 C77 1.317 . S
C404 C133 1.317 . S
