# Generated by pormake.
# Topology wme, (6)-cn, num edge types: 1
# Building blocks:
#     Node 0, Type 0, BuildingBlock: PAMTOO_clean_sbu_0, # of connection points: 6
#     Node 1, Type 0, BuildingBlock: PAMTOO_clean_sbu_0, # of connection points: 6
#     Node 2, Type 0, BuildingBlock: PAMTOO_clean_sbu_0, # of connection points: 6
#     Node 3, Type 0, BuildingBlock: PAMTOO_clean_sbu_0, # of connection points: 6
#     Node 4, Type 0, BuildingBlock: PAMTOO_clean_sbu_0, # of connection points: 6
#     Node 5, Type 0, BuildingBlock: PAMTOO_clean_sbu_0, # of connection points: 6
#     Node 6, Type 0, BuildingBlock: PAMTOO_clean_sbu_0, # of connection points: 6
#     Node 7, Type 0, BuildingBlock: PAMTOO_clean_sbu_0, # of connection points: 6
#     Node 8, Type 0, BuildingBlock: PAMTOO_clean_sbu_0, # of connection points: 6
#     Node 9, Type 0, BuildingBlock: PAMTOO_clean_sbu_0, # of connection points: 6
#     Node 10, Type 0, BuildingBlock: PAMTOO_clean_sbu_0, # of connection points: 6
#     Node 11, Type 0, BuildingBlock: PAMTOO_clean_sbu_0, # of connection points: 6
#     Edge 12, Type (0, 0), BuildingBlock: KIFKEQ_clean_linker_1, # of connection points: 2
#     Edge 13, Type (0, 0), BuildingBlock: KIFKEQ_clean_linker_1, # of connection points: 2
#     Edge 14, Type (0, 0), BuildingBlock: KIFKEQ_clean_linker_1, # of connection points: 2
#     Edge 15, Type (0, 0), BuildingBlock: KIFKEQ_clean_linker_1, # of connection points: 2
#     Edge 16, Type (0, 0), BuildingBlock: KIFKEQ_clean_linker_1, # of connection points: 2
#     Edge 17, Type (0, 0), BuildingBlock: KIFKEQ_clean_linker_1, # of connection points: 2
#     Edge 18, Type (0, 0), BuildingBlock: KIFKEQ_clean_linker_1, # of connection points: 2
#     Edge 19, Type (0, 0), BuildingBlock: KIFKEQ_clean_linker_1, # of connection points: 2
#     Edge 20, Type (0, 0), BuildingBlock: KIFKEQ_clean_linker_1, # of connection points: 2
#     Edge 21, Type (0, 0), BuildingBlock: KIFKEQ_clean_linker_1, # of connection points: 2
#     Edge 22, Type (0, 0), BuildingBlock: KIFKEQ_clean_linker_1, # of connection points: 2
#     Edge 23, Type (0, 0), BuildingBlock: KIFKEQ_clean_linker_1, # of connection points: 2
#     Edge 24, Type (0, 0), BuildingBlock: KIFKEQ_clean_linker_1, # of connection points: 2
#     Edge 25, Type (0, 0), BuildingBlock: KIFKEQ_clean_linker_1, # of connection points: 2
#     Edge 26, Type (0, 0), BuildingBlock: KIFKEQ_clean_linker_1, # of connection points: 2
#     Edge 27, Type (0, 0), BuildingBlock: KIFKEQ_clean_linker_1, # of connection points: 2
#     Edge 28, Type (0, 0), BuildingBlock: KIFKEQ_clean_linker_1, # of connection points: 2
#     Edge 29, Type (0, 0), BuildingBlock: KIFKEQ_clean_linker_1, # of connection points: 2
#     Edge 30, Type (0, 0), BuildingBlock: KIFKEQ_clean_linker_1, # of connection points: 2
#     Edge 31, Type (0, 0), BuildingBlock: KIFKEQ_clean_linker_1, # of connection points: 2
#     Edge 32, Type (0, 0), BuildingBlock: KIFKEQ_clean_linker_1, # of connection points: 2
#     Edge 33, Type (0, 0), BuildingBlock: KIFKEQ_clean_linker_1, # of connection points: 2
#     Edge 34, Type (0, 0), BuildingBlock: KIFKEQ_clean_linker_1, # of connection points: 2
#     Edge 35, Type (0, 0), BuildingBlock: KIFKEQ_clean_linker_1, # of connection points: 2
#     Edge 36, Type (0, 0), BuildingBlock: KIFKEQ_clean_linker_1, # of connection points: 2
#     Edge 37, Type (0, 0), BuildingBlock: KIFKEQ_clean_linker_1, # of connection points: 2
#     Edge 38, Type (0, 0), BuildingBlock: KIFKEQ_clean_linker_1, # of connection points: 2
#     Edge 39, Type (0, 0), BuildingBlock: KIFKEQ_clean_linker_1, # of connection points: 2
#     Edge 40, Type (0, 0), BuildingBlock: KIFKEQ_clean_linker_1, # of connection points: 2
#     Edge 41, Type (0, 0), BuildingBlock: KIFKEQ_clean_linker_1, # of connection points: 2
#     Edge 42, Type (0, 0), BuildingBlock: KIFKEQ_clean_linker_1, # of connection points: 2
#     Edge 43, Type (0, 0), BuildingBlock: KIFKEQ_clean_linker_1, # of connection points: 2
#     Edge 44, Type (0, 0), BuildingBlock: KIFKEQ_clean_linker_1, # of connection points: 2
#     Edge 45, Type (0, 0), BuildingBlock: KIFKEQ_clean_linker_1, # of connection points: 2
#     Edge 46, Type (0, 0), BuildingBlock: KIFKEQ_clean_linker_1, # of connection points: 2
#     Edge 47, Type (0, 0), BuildingBlock: KIFKEQ_clean_linker_1, # of connection points: 2
# Relax obj value: 0.088
# Max RMSD: 0.201
# Mean RMSD: 0.201
data_MOF--net-wme--node1-PAMTOO_clean_sbu_0--edge1-KIFKEQ_clean_linker_1
_symmetry_space_group_name_H-M    P1
_symmetry_Int_Tables_number       1
_symmetry_cell_setting            triclinic
loop_
_symmetry_equiv_pos_as_xyz
'x, y, z'
_cell_length_a     40.726199
_cell_length_b     40.740277
_cell_length_c     54.056004
_cell_angle_alpha  89.838337
_cell_angle_beta   90.057342
_cell_angle_gamma 119.79904
loop_
_atom_site_label
_atom_site_type_symbol
_atom_site_fract_x
_atom_site_fract_y
_atom_site_fract_z
_atom_type_partial_charge
Dy0 Dy 0.24256 0.31993 0.12285 0.0
Dy1 Dy 0.20156 0.36783 0.10302 0.0
C2 C 0.23315 0.32878 0.06755 0.0
O3 O 0.28821 0.38038 0.12813 0.0
O4 O 0.26326 0.40926 0.10356 0.0
O5 O 0.27641 0.29453 0.11327 0.0
O6 O 0.25286 0.287 0.15001 0.0
O7 O 0.21541 0.38528 0.14286 0.0
O8 O 0.22367 0.33616 0.15671 0.0
O9 O 0.15752 0.31583 0.12131 0.0
O10 O 0.18215 0.27761 0.11292 0.0
O11 O 0.15337 0.37632 0.10186 0.0
O12 O 0.20115 0.40925 0.07779 0.0
C13 C 0.29101 0.41037 0.11672 0.0
O14 O 0.25912 0.33913 0.08441 0.0
O15 O 0.20235 0.33032 0.0724 0.0
C16 C 0.25607 0.23507 0.1324 0.0
C17 C 0.23127 0.15689 0.12893 0.0
C18 C 0.25544 0.18234 0.11088 0.0
C19 C 0.26776 0.22096 0.11263 0.0
C20 C 0.23181 0.20963 0.15043 0.0
C21 C 0.21947 0.17097 0.14867 0.0
C22 C 0.2696 0.27615 0.13412 0.0
C23 C 0.21966 0.36572 0.16086 0.0
C24 C 0.15315 0.28202 0.11853 0.0
C25 C 0.16615 0.4383 0.09158 0.0
C26 C 0.15593 0.50115 0.10083 0.0
C27 C 0.15652 0.47858 0.12045 0.0
C28 C 0.16167 0.44759 0.11589 0.0
C29 C 0.16617 0.46101 0.07203 0.0
C30 C 0.16123 0.49211 0.07657 0.0
C31 C 0.16887 0.40415 0.08606 0.0
H32 H 0.2647 0.17237 0.09528 0.0
H33 H 0.28651 0.2398 0.09847 0.0
H34 H 0.22245 0.21955 0.16601 0.0
H35 H 0.20125 0.15219 0.16305 0.0
H36 H 0.15219 0.48433 0.13935 0.0
H37 H 0.16155 0.43056 0.13136 0.0
H38 H 0.16964 0.45445 0.05313 0.0
H39 H 0.16175 0.50917 0.06102 0.0
Dy40 Dy 0.9381 0.23534 0.62838 0.0
Dy41 Dy 0.85311 0.20781 0.60353 0.0
C42 C 0.92821 0.23884 0.57007 0.0
O43 O 0.92712 0.28421 0.63327 0.0
O44 O 0.88883 0.27013 0.59925 0.0
O45 O 0.99902 0.27127 0.62934 0.0
O46 O 0.97128 0.22429 0.65482 0.0
O47 O 0.84576 0.21589 0.64394 0.0
O48 O 0.89978 0.2194 0.66043 0.0
O49 O 0.85226 0.1568 0.61922 0.0
O50 O 0.91478 0.17662 0.61331 0.0
O51 O 0.80111 0.16574 0.5858 0.0
O52 O 0.8105 0.22189 0.59322 0.0
C53 C 0.91018 0.29401 0.61635 0.0
O54 O 0.94869 0.25478 0.58972 0.0
O55 O 0.89176 0.21354 0.57147 0.0
C56 C 0.03181 0.23903 0.64087 0.0
C57 C 0.0854 0.21518 0.63251 0.0
C58 C 0.0577 0.20888 0.6146 0.0
C59 C 0.03111 0.22065 0.61876 0.0
C60 C 0.05908 0.24509 0.6588 0.0
C61 C 0.08554 0.23329 0.65471 0.0
C62 C 1.00347 0.25064 0.64605 0.0
C63 C 0.86678 0.21724 0.66289 0.0
C64 C 0.87982 0.14925 0.6167 0.0
C65 C 0.74713 0.17237 0.59437 0.0
C66 C 0.6726 0.15147 0.60973 0.0
C67 C 0.70211 0.16283 0.62713 0.0
C68 C 0.73896 0.17317 0.61953 0.0
C69 C 0.71765 0.15981 0.57709 0.0
C70 C 0.68081 0.14943 0.58465 0.0
C71 C 0.78654 0.18795 0.58557 0.0
H72 H 0.05689 0.19535 0.59722 0.0
H73 H 1.01001 0.21539 0.60475 0.0
H74 H 0.05977 0.25877 0.6761 0.0
H75 H 0.10588 0.23802 0.66914 0.0
H76 H 0.69687 0.16427 0.64662 0.0
H77 H 0.7613 0.18282 0.63322 0.0
H78 H 0.72336 0.15927 0.55757 0.0
H79 H 0.65913 0.14135 0.57064 0.0
Dy80 Dy 0.71319 0.93144 0.12428 0.0
Dy81 Dy 0.66301 0.84295 0.10578 0.0
C82 C 0.68956 0.9129 0.0706 0.0
O83 O 0.65351 0.91821 0.13257 0.0
O84 O 0.61977 0.85992 0.11312 0.0
O85 O 0.7459 0.98879 0.11131 0.0
O86 O 0.74233 0.97705 0.15064 0.0
O87 O 0.65135 0.84135 0.14665 0.0
O88 O 0.70549 0.89627 0.15737 0.0
O89 O 0.71836 0.85047 0.11734 0.0
O90 O 0.75433 0.91388 0.11012 0.0
O91 O 0.65245 0.78565 0.10556 0.0
O92 O 0.62183 0.80221 0.08029 0.0
C93 C 0.62139 0.88889 0.125 0.0
O94 O 0.68189 0.92648 0.09001 0.0
O95 O 0.69247 0.8824 0.07339 0.0
C96 C 0.80001 0.02704 0.13479 0.0
C97 C 0.8788 0.07753 0.13242 0.0
C98 C 0.86364 0.03955 0.12522 0.0
C99 C 0.82455 0.01458 0.12633 0.0
C100 C 0.81509 0.06443 0.14281 0.0
C101 C 0.8541 0.08943 0.14167 0.0
C102 C 0.75867 1.00239 0.13324 0.0
C103 C 0.67474 0.86478 0.16344 0.0
C104 C 0.75123 0.88043 0.11329 0.0
C105 C 0.59116 0.73809 0.09356 0.0
C106 C 0.52708 0.66605 0.10144 0.0
C107 C 0.54526 0.69042 0.12149 0.0
C108 C 0.57697 0.72619 0.11759 0.0
C109 C 0.573 0.71399 0.07357 0.0
C110 C 0.54131 0.67838 0.07743 0.0
C111 C 0.62585 0.77446 0.08892 0.0
H112 H 0.88176 0.02951 0.11785 0.0
H113 H 0.81335 0.98587 0.11984 0.0
H114 H 0.79661 0.07458 0.14935 0.0
H115 H 0.86489 0.11831 0.14777 0.0
H116 H 0.53473 0.68199 0.14017 0.0
H117 H 0.59055 0.74439 0.13332 0.0
H118 H 0.58369 0.72254 0.05493 0.0
H119 H 0.52833 0.66021 0.0616 0.0
Dy120 Dy 0.7971 0.70908 0.63087 0.0
Dy121 Dy 0.83569 0.65978 0.60873 0.0
C122 C 0.79747 0.6949 0.57554 0.0
O123 O 0.7506 0.64899 0.63714 0.0
O124 O 0.7747 0.61772 0.61406 0.0
O125 O 0.764 0.73548 0.62179 0.0
O126 O 0.78993 0.74436 0.65789 0.0
O127 O 0.82614 0.64416 0.64904 0.0
O128 O 0.81547 0.69114 0.66432 0.0
O129 O 0.88285 0.71298 0.62341 0.0
O130 O 0.85651 0.75069 0.61848 0.0
O131 O 0.88293 0.64997 0.60593 0.0
O132 O 0.83336 0.61754 0.58318 0.0
C133 C 0.74757 0.61798 0.62715 0.0
O134 O 0.77458 0.68477 0.59428 0.0
O135 O 0.82938 0.69452 0.57808 0.0
C136 C 0.78703 0.79603 0.63979 0.0
C137 C 0.81198 0.87434 0.6352 0.0
C138 C 0.81634 0.85426 0.6155 0.0
C139 C 0.80414 0.8156 0.61779 0.0
C140 C 0.78324 0.81603 0.65959 0.0
C141 C 0.79567 0.85472 0.65739 0.0
C142 C 0.77252 0.75486 0.64224 0.0
C143 C 0.82123 0.66241 0.66752 0.0
C144 C 0.88632 0.74653 0.62134 0.0
C145 C 0.86786 0.58721 0.59597 0.0
C146 C 0.87704 0.52349 0.60458 0.0
C147 C 0.8795 0.54725 0.62422 0.0
C148 C 0.87483 0.57869 0.61998 0.0
C149 C 0.86489 0.5633 0.57644 0.0
C150 C 0.86935 0.53181 0.58067 0.0
C151 C 0.86579 0.62185 0.59057 0.0
H152 H 0.82835 0.86813 0.59805 0.0
H153 H 0.80767 0.80096 0.60221 0.0
H154 H 0.77041 0.80163 0.67679 0.0
H155 H 0.7925 0.86924 0.67316 0.0
H156 H 0.88491 0.54146 0.64289 0.0
H157 H 0.87713 0.59656 0.63545 0.0
H158 H 0.85979 0.56939 0.55776 0.0
H159 H 0.86772 0.51451 0.56503 0.0
Dy160 Dy 0.10228 0.79282 0.13017 0.0
Dy161 Dy 0.18773 0.82547 0.10715 0.0
C162 C 0.11484 0.80068 0.0739 0.0
O163 O 0.10808 0.74205 0.11953 0.0
O164 O 0.17258 0.76957 0.12301 0.0
O165 O 0.04209 0.7563 0.12568 0.0
O166 O 0.06374 0.7936 0.15741 0.0
O167 O 0.19409 0.83472 0.14844 0.0
O168 O 0.1352 0.78815 0.16118 0.0
O169 O 0.17317 0.87089 0.10204 0.0
O170 O 0.13397 0.85585 0.13543 0.0
O171 O 0.24449 0.87193 0.10219 0.0
O172 O 0.22741 0.81834 0.08419 0.0
C173 C 0.13902 0.73934 0.12155 0.0
O174 O 0.10293 0.81291 0.09206 0.0
O175 O 0.14418 0.79586 0.07713 0.0
C176 C 1.00769 0.78592 0.13906 0.0
C177 C 0.95867 0.8152 0.12999 0.0
C178 C 0.98004 0.81204 0.11066 0.0
C179 C 1.00445 0.79776 0.11516 0.0
C180 C 0.98652 0.78913 0.15838 0.0
C181 C 0.96231 0.80369 0.15393 0.0
C182 C 0.03398 0.77155 0.14422 0.0
C183 C 0.17078 0.8125 0.1658 0.0
C184 C 0.15684 0.88064 0.11909 0.0
C185 C 0.29214 0.8555 0.09554 0.0
C186 C 0.3645 0.86511 0.1061 0.0
C187 C 0.34282 0.86914 0.12486 0.0
C188 C 0.30692 0.86425 0.11966 0.0
C189 C 0.31363 0.85136 0.07685 0.0
C190 C 0.34936 0.85605 0.08205 0.0
C191 C 0.2553 0.85212 0.08912 0.0
H192 H 0.97823 0.82102 0.09207 0.0
H193 H 0.02088 0.79614 0.09994 0.0
H194 H 0.98873 0.78039 0.17697 0.0
H195 H 0.94595 0.80534 0.16916 0.0
H196 H 0.35341 0.87563 0.14364 0.0
H197 H 0.29084 0.8675 0.13445 0.0
H198 H 0.30291 0.84487 0.05809 0.0
H199 H 0.36542 0.85317 0.06709 0.0
Dy200 Dy 0.32791 0.09723 0.62968 0.0
Dy201 Dy 0.38178 0.18325 0.60702 0.0
C202 C 0.35089 0.10944 0.57498 0.0
O203 O 0.38694 0.10894 0.63914 0.0
O204 O 0.42226 0.16306 0.61556 0.0
O205 O 0.29407 0.03851 0.62012 0.0
O206 O 0.29606 0.0557 0.65824 0.0
O207 O 0.39196 0.18772 0.64814 0.0
O208 O 0.33453 0.13738 0.65955 0.0
O209 O 0.3267 0.17868 0.6165 0.0
O210 O 0.28864 0.11486 0.61233 0.0
O211 O 0.39243 0.2403 0.60292 0.0
O212 O 0.42739 0.22282 0.58318 0.0
C213 C 0.41947 0.13537 0.62966 0.0
O214 O 0.35658 0.09608 0.59539 0.0
O215 O 0.35181 0.14215 0.57565 0.0
C216 C 0.23759 1.00552 0.64306 0.0
C217 C 0.15826 0.95577 0.64211 0.0
C218 C 0.176 0.9841 0.62396 0.0
C219 C 0.21514 1.00879 0.6245 0.0
C220 C 0.21995 0.97835 0.66171 0.0
C221 C 0.18072 0.95389 0.66134 0.0
C222 C 0.27937 0.02844 0.64215 0.0
C223 C 0.36576 0.16874 0.6649 0.0
C224 C 0.29316 0.14911 0.61341 0.0
C225 C 0.45593 0.28744 0.59534 0.0
C226 C 0.51793 0.35995 0.60586 0.0
C227 C 0.49385 0.33706 0.62493 0.0
C228 C 0.46323 0.30111 0.61974 0.0
C229 C 0.48004 0.31004 0.57634 0.0
C230 C 0.51073 0.34585 0.58152 0.0
C231 C 0.42219 0.25096 0.58904 0.0
H232 H 0.15997 0.98637 0.60872 0.0
H233 H 0.22798 0.02969 0.60992 0.0
H234 H 0.23662 0.97547 0.67629 0.0
H235 H 0.16811 0.93313 0.676 0.0
H236 H 0.49887 0.3468 0.64391 0.0
H237 H 0.44507 0.28418 0.63477 0.0
H238 H 0.47477 0.30022 0.55737 0.0
H239 H 0.52839 0.36283 0.56634 0.0
Dy240 Dy 0.71687 0.79196 0.37815 0.0
Dy241 Dy 0.66681 0.82737 0.40384 0.0
C242 C 0.70883 0.79297 0.43492 0.0
O243 O 0.65624 0.74767 0.37051 0.0
O244 O 0.62708 0.76571 0.39996 0.0
O245 O 0.73928 0.75384 0.38071 0.0
O246 O 0.75409 0.79187 0.34959 0.0
O247 O 0.6509 0.81982 0.36346 0.0
O248 O 0.705 0.82225 0.34858 0.0
O249 O 0.721 0.87547 0.39075 0.0
O250 O 0.75887 0.84897 0.39371 0.0
O251 O 0.65664 0.87434 0.40778 0.0
O252 O 0.62499 0.82397 0.43005 0.0
C253 C 0.62626 0.7415 0.38358 0.0
O254 O 0.70049 0.77033 0.41612 0.0
O255 O 0.70301 0.82194 0.43365 0.0
C256 C 0.80223 0.78064 0.36535 0.0
C257 C 0.87977 0.80369 0.37207 0.0
C258 C 0.85257 0.78016 0.38954 0.0
C259 C 0.81429 0.76872 0.38621 0.0
C260 C 0.82939 0.80398 0.34782 0.0
C261 C 0.86769 0.81549 0.35118 0.0
C262 C 0.76164 0.76876 0.36175 0.0
C263 C 0.67422 0.82434 0.34522 0.0
C264 C 0.75459 0.87893 0.39278 0.0
C265 C 0.59513 0.85976 0.41954 0.0
C266 C 0.53112 0.86823 0.41113 0.0
C267 C 0.5322 0.83627 0.40222 0.0
C268 C 0.56399 0.83214 0.4063 0.0
C269 C 0.59414 0.89155 0.42843 0.0
C270 C 0.56254 0.8958 0.42428 0.0
C271 C 0.62943 0.85689 0.42375 0.0
H272 H 0.8609 0.77084 0.40596 0.0
H273 H 0.79421 0.75057 0.40005 0.0
H274 H 0.82103 0.81334 0.33142 0.0
H275 H 0.88779 0.83314 0.33718 0.0
H276 H 0.50868 0.8147 0.39179 0.0
H277 H 0.56432 0.80755 0.39904 0.0
H278 H 0.61795 0.91324 0.43862 0.0
H279 H 0.56254 0.92047 0.43167 0.0
Dy280 Dy 0.93463 0.70428 0.88287 0.0
Dy281 Dy 0.84794 0.65198 0.90521 0.0
C282 C 0.92065 0.68642 0.93892 0.0
O283 O 0.92338 0.64472 0.87679 0.0
O284 O 0.87207 0.61368 0.90316 0.0
O285 O 0.99478 0.73295 0.88978 0.0
O286 O 0.97386 0.74158 0.85502 0.0
O287 O 0.84221 0.63523 0.86519 0.0
O288 O 0.89749 0.68549 0.84994 0.0
O289 O 0.85247 0.70396 0.88876 0.0
O290 O 0.91455 0.74299 0.89737 0.0
O291 O 0.79198 0.64424 0.91096 0.0
O292 O 0.80702 0.60537 0.92765 0.0
C293 C 0.89901 0.61438 0.88936 0.0
O294 O 0.93712 0.68218 0.91956 0.0
O295 O 0.88776 0.68498 0.93657 0.0
C296 C 0.02812 0.79419 0.87194 0.0
C297 C 0.07847 0.87303 0.87657 0.0
C298 C 0.05274 0.85257 0.89564 0.0
C299 C 0.02776 0.81359 0.89332 0.0
C300 C 0.05302 0.81459 0.85268 0.0
C301 C 0.0778 0.85353 0.8549 0.0
C302 C 1.00312 0.75283 0.86948 0.0
C303 C 0.86442 0.65502 0.8467 0.0
C304 C 0.88078 0.73796 0.89257 0.0
C305 C 0.74292 0.58102 0.91619 0.0
C306 C 0.67092 0.52018 0.90309 0.0
C307 C 0.70048 0.53624 0.88559 0.0
C308 C 0.73614 0.56639 0.89208 0.0
C309 C 0.71367 0.56514 0.93367 0.0
C310 C 0.67808 0.53508 0.92723 0.0
C311 C 0.78002 0.61299 0.92345 0.0
H312 H 0.05256 0.86641 0.91267 0.0
H313 H 1.00856 0.79855 0.90841 0.0
H314 H 0.05352 0.8003 0.83592 0.0
H315 H 0.09657 0.86834 0.8396 0.0
H316 H 0.69597 0.52577 0.86679 0.0
H317 H 0.75836 0.57835 0.87828 0.0
H318 H 0.71838 0.57598 0.9524 0.0
H319 H 0.65633 0.5231 0.94133 0.0
Dy320 Dy 0.2436 0.92768 0.38187 0.0
Dy321 Dy 0.20801 0.84203 0.4057 0.0
C322 C 0.23398 0.91604 0.43836 0.0
O323 O 0.29277 0.92006 0.39377 0.0
O324 O 0.26364 0.85556 0.39004 0.0
O325 O 0.28109 0.98776 0.38623 0.0
O326 O 0.2466 0.96621 0.35326 0.0
O327 O 0.1984 0.8354 0.36444 0.0
O328 O 0.24703 0.89303 0.3516 0.0
O329 O 0.16324 0.85796 0.40939 0.0
O330 O 0.1806 0.89814 0.3762 0.0
O331 O 0.16076 0.78571 0.41093 0.0
O332 O 0.21416 0.80187 0.42897 0.0
C333 C 0.29446 0.88864 0.39166 0.0
O334 O 0.22337 0.92874 0.41963 0.0
O335 O 0.23713 0.88557 0.43585 0.0
C336 C 0.25708 0.0246 0.36878 0.0
C337 C 0.23455 0.07962 0.37375 0.0
C338 C 0.21346 0.0438 0.38494 0.0
C339 C 0.22466 0.01655 0.3825 0.0
C340 C 0.27813 0.06013 0.35756 0.0
C341 C 0.26701 0.08739 0.36001 0.0
C342 C 0.26909 0.99618 0.3661 0.0
C343 C 0.22126 0.85793 0.34703 0.0
C344 C 0.15482 0.87516 0.39205 0.0
C345 C 0.17573 0.737 0.4181 0.0
C346 C 0.16297 0.66315 0.40827 0.0
C347 C 0.1608 0.68565 0.38917 0.0
C348 C 0.16716 0.72217 0.39402 0.0
C349 C 0.17848 0.71494 0.43709 0.0
C350 C 0.17225 0.67852 0.43226 0.0
C351 C 0.1801 0.7744 0.42416 0.0
H352 H 0.18861 0.03699 0.39588 0.0
H353 H 0.2081 0.98922 0.39136 0.0
H354 H 0.30316 0.06677 0.34685 0.0
H355 H 0.28361 0.11445 0.35087 0.0
H356 H 0.15343 0.67479 0.37052 0.0
H357 H 0.16486 0.73858 0.37901 0.0
H358 H 0.18511 0.72579 0.45579 0.0
H359 H 0.17497 0.66251 0.44735 0.0
Dy360 Dy 0.32623 0.23391 0.8858 0.0
Dy361 Dy 0.37573 0.19565 0.90648 0.0
C362 C 0.3443 0.23538 0.94047 0.0
O363 O 0.38613 0.2787 0.87688 0.0
O364 O 0.41827 0.25649 0.90077 0.0
O365 O 0.29512 0.2608 0.89804 0.0
O366 O 0.29787 0.25088 0.8589 0.0
O367 O 0.38704 0.20383 0.86548 0.0
O368 O 0.33205 0.20281 0.854 0.0
O369 O 0.32072 0.14779 0.89466 0.0
O370 O 0.28373 0.17513 0.89904 0.0
O371 O 0.38539 0.14836 0.90869 0.0
O372 O 0.41865 0.19774 0.93142 0.0
C373 C 0.4176 0.28277 0.88689 0.0
O374 O 0.35426 0.25792 0.92151 0.0
O375 O 0.34239 0.20253 0.93759 0.0
C376 C 0.24108 0.24702 0.87482 0.0
C377 C 0.16209 0.2187 0.87601 0.0
C378 C 0.18652 0.24907 0.8912 0.0
C379 C 0.22552 0.26312 0.89052 0.0
C380 C 0.21684 0.21689 0.85937 0.0
C381 C 0.17767 0.20301 0.85986 0.0
C382 C 0.28225 0.26123 0.87603 0.0
C383 C 0.36209 0.2002 0.84858 0.0
C384 C 0.28741 0.14488 0.89706 0.0
C385 C 0.44788 0.16255 0.91826 0.0
C386 C 0.50996 0.15125 0.90876 0.0
C387 C 0.48675 0.15095 0.88931 0.0
C388 C 0.45614 0.15664 0.89399 0.0
C389 C 0.47129 0.16356 0.93763 0.0
C390 C 0.50204 0.15809 0.93295 0.0
C391 C 0.41374 0.16516 0.92396 0.0
H392 H 0.17549 0.26215 0.90356 0.0
H393 H 0.2436 0.28639 0.90258 0.0
H394 H 0.22801 0.20372 0.84719 0.0
H395 H 0.15951 0.17946 0.84805 0.0
H396 H 0.49163 0.14542 0.87048 0.0
H397 H 0.43851 0.15569 0.87867 0.0
H398 H 0.46546 0.16807 0.95649 0.0
H399 H 0.51966 0.15932 0.94834 0.0
Dy400 Dy 0.10728 0.31716 0.37796 0.0
Dy401 Dy 0.19314 0.37031 0.40022 0.0
C402 C 0.12084 0.32161 0.43394 0.0
O403 O 0.11272 0.37353 0.38889 0.0
O404 O 0.1771 0.4108 0.38493 0.0
O405 O 0.04715 0.29227 0.38387 0.0
O406 O 0.06814 0.27946 0.35049 0.0
O407 O 0.19916 0.36964 0.35871 0.0
O408 O 0.13902 0.35442 0.3466 0.0
O409 O 0.18016 0.31062 0.40428 0.0
O410 O 0.13888 0.28565 0.37193 0.0
O411 O 0.25045 0.38139 0.40421 0.0
O412 O 0.23268 0.41655 0.42344 0.0
C413 C 0.14336 0.4072 0.38663 0.0
O414 O 0.1095 0.2976 0.41576 0.0
O415 O 0.14977 0.35585 0.43063 0.0
C416 C 1.01209 0.23007 0.36788 0.0
C417 C 0.96079 0.1518 0.37392 0.0
C418 C 0.98668 0.17262 0.39277 0.0
C419 C 1.01215 0.21135 0.38975 0.0
C420 C 0.98677 0.20936 0.34894 0.0
C421 C 0.96145 0.17067 0.35188 0.0
C422 C 0.03864 0.27084 0.36428 0.0
C423 C 0.17488 0.36729 0.3416 0.0
C424 C 0.16305 0.2843 0.38749 0.0
C425 C 0.29742 0.44514 0.41164 0.0
C426 C 0.36935 0.50836 0.4012 0.0
C427 C 0.34585 0.48555 0.38192 0.0
C428 C 0.31017 0.45429 0.38708 0.0
C429 C 0.3207 0.46783 0.43084 0.0
C430 C 0.35621 0.49905 0.42572 0.0
C431 C 0.26091 0.41131 0.41787 0.0
H432 H 0.98679 0.15919 0.41006 0.0
H433 H 0.03172 0.2267 0.40458 0.0
H434 H 0.98657 0.22314 0.33182 0.0
H435 H 0.94247 0.1555 0.33678 0.0
H436 H 0.35483 0.49212 0.36283 0.0
H437 H 0.29267 0.4372 0.37192 0.0
H438 H 0.31156 0.46112 0.44992 0.0
H439 H 0.37365 0.51556 0.44107 0.0
Dy440 Dy 0.79783 0.09254 0.87779 0.0
Dy441 Dy 0.832 0.1785 0.90002 0.0
C442 C 0.80777 0.10628 0.9339 0.0
O443 O 0.74787 0.09928 0.88907 0.0
O444 O 0.7758 0.1637 0.88504 0.0
O445 O 0.76197 0.0326 0.88426 0.0
O446 O 0.79442 0.05263 0.85033 0.0
O447 O 0.83806 0.18478 0.85858 0.0
O448 O 0.79307 0.12491 0.84637 0.0
O449 O 0.87783 0.16403 0.9035 0.0
O450 O 0.86057 0.12259 0.87122 0.0
O451 O 0.87901 0.23504 0.90433 0.0
O452 O 0.82599 0.21873 0.92308 0.0
C453 C 0.74545 0.13032 0.88687 0.0
O454 O 0.81946 0.09404 0.91559 0.0
O455 O 0.80315 0.13572 0.93062 0.0
C456 C 0.78751 0.9966 0.86792 0.0
C457 C 0.81397 0.9448 0.87402 0.0
C458 C 0.83719 0.98318 0.88015 0.0
C459 C 0.82405 1.00886 0.87713 0.0
C460 C 0.76408 0.95838 0.86218 0.0
C461 C 0.77712 0.9327 0.86522 0.0
C462 C 0.77361 0.02341 0.86435 0.0
C463 C 0.81604 0.1608 0.84148 0.0
C464 C 0.8864 0.14651 0.88658 0.0
C465 C 0.8635 0.28339 0.91124 0.0
C466 C 0.87715 0.35761 0.90206 0.0
C467 C 0.88389 0.33746 0.88354 0.0
C468 C 0.87717 0.30071 0.88808 0.0
C469 C 0.85555 0.30295 0.92939 0.0
C470 C 0.86217 0.33954 0.92486 0.0
C471 C 0.85973 0.24631 0.91758 0.0
H472 H 0.86574 0.99352 0.88681 0.0
H473 H 0.8425 0.03834 0.88179 0.0
H474 H 0.73568 0.94838 0.85529 0.0
H475 H 0.75818 0.90325 0.8608 0.0
H476 H 0.89549 0.3505 0.86581 0.0
H477 H 0.88346 0.28622 0.87368 0.0
H478 H 0.8449 0.29017 0.94735 0.0
H479 H 0.8558 0.35382 0.93936 0.0
H480 H 0.19958 0.93759 0.08674 0.0
H481 H 0.13308 0.91387 0.15349 0.0
H482 H 0.21582 1.0035 0.08881 0.0
H483 H 0.15012 0.98038 0.15582 0.0
H484 H 0.16085 0.09618 0.13805 0.0
H485 H 0.14121 0.02903 0.13543 0.0
H486 H 0.25469 0.05813 0.114 0.0
H487 H 0.2742 0.12499 0.11653 0.0
C488 C 0.18842 0.9464 0.10188 0.0
C489 C 0.16515 0.92041 0.12001 0.0
C490 C 0.19794 0.98433 0.10316 0.0
C491 C 0.18457 0.99735 0.12261 0.0
C492 C 0.16066 0.97123 0.14049 0.0
C493 C 0.15105 0.93316 0.13919 0.0
C494 C 0.18163 0.08818 0.13293 0.0
C495 C 0.21907 0.11595 0.12739 0.0
C496 C 0.17037 0.04971 0.13145 0.0
C497 C 0.19631 0.03817 0.12441 0.0
C498 C 0.23377 0.06599 0.11902 0.0
C499 C 0.245 0.10437 0.12046 0.0
H500 H 0.21735 0.09803 0.62124 0.0
H501 H 0.29467 0.21512 0.60333 0.0
H502 H 0.16561 0.11235 0.62452 0.0
H503 H 0.24348 0.22906 0.606 0.0
H504 H 0.16042 0.25378 0.64489 0.0
H505 H 0.20785 0.23511 0.63888 0.0
H506 H 0.12492 0.13242 0.60303 0.0
H507 H 0.0766 0.15045 0.61008 0.0
C508 C 0.22319 0.12661 0.6176 0.0
C509 C 0.26028 0.15551 0.61237 0.0
C510 C 0.19356 0.13483 0.61945 0.0
C511 C 0.20048 0.17208 0.61601 0.0
C512 C 0.23721 0.20033 0.60949 0.0
C513 C 0.26663 0.19223 0.60781 0.0
C514 C 0.15201 0.22699 0.63597 0.0
C515 C 0.1145 0.20364 0.62808 0.0
C516 C 0.17944 0.21646 0.6322 0.0
C517 C 0.17041 0.18234 0.62025 0.0
C518 C 0.13287 0.15878 0.6124 0.0
C519 C 0.10527 0.16937 0.6162 0.0
H520 H 0.93992 0.06795 0.14247 0.0
H521 H 0.91062 0.14953 0.1146 0.0
H522 H 1.00726 0.11511 0.13868 0.0
H523 H 0.97731 0.19618 0.11075 0.0
H524 H 0.09207 0.28318 0.13733 0.0
H525 H 0.02742 0.23223 0.14006 0.0
H526 H 0.05996 0.15502 0.10898 0.0
H527 H 0.12599 0.20676 0.1065 0.0
C528 C 0.94782 0.09579 0.13534 0.0
C529 C 0.91986 0.1052 0.12928 0.0
C530 C 0.98638 0.12273 0.13312 0.0
C531 C 0.99769 0.15958 0.12477 0.0
C532 C 0.96964 0.16837 0.11785 0.0
C533 C 0.93133 0.14163 0.12011 0.0
C534 C 0.08577 0.25545 0.13104 0.0
C535 C 0.11432 0.24926 0.1214 0.0
C536 C 0.04846 0.22615 0.13251 0.0
C537 C 0.03829 0.18966 0.12431 0.0
C538 C 0.06691 0.18288 0.11543 0.0
C539 C 0.10465 0.21248 0.11397 0.0
H540 H 0.87341 0.93062 0.61032 0.0
H541 H 0.77622 0.91101 0.6537 0.0
H542 H 0.89011 0.99653 0.60466 0.0
H543 H 0.79414 0.97711 0.64933 0.0
H544 H 0.81022 0.08565 0.61613 0.0
H545 H 0.79503 0.02017 0.61978 0.0
H546 H 0.91413 0.05626 0.62495 0.0
H547 H 0.9294 0.12206 0.62044 0.0
C548 C 0.8556 0.94028 0.6187 0.0
C549 C 0.82334 0.9152 0.63244 0.0
C550 C 0.86549 0.97831 0.61572 0.0
C551 C 0.84345 0.99236 0.62643 0.0
C552 C 0.81151 0.96735 0.64042 0.0
C553 C 0.80153 0.92939 0.64327 0.0
C554 C 0.83326 0.07971 0.61798 0.0
C555 C 0.87106 0.10924 0.6181 0.0
C556 C 0.8245 0.04203 0.62025 0.0
C557 C 0.85326 0.03268 0.62296 0.0
C558 C 0.89118 0.06222 0.62268 0.0
C559 C 0.89998 0.10003 0.6202 0.0
H560 H 0.90961 0.79771 0.09122 0.0
H561 H 0.94717 0.86494 0.15773 0.0
H562 H 0.86315 0.81798 0.08437 0.0
H563 H 0.90004 0.88467 0.1511 0.0
H564 H 0.82652 0.93316 0.12084 0.0
H565 H 0.87999 0.92123 0.12278 0.0
H566 H 0.80431 0.80347 0.10617 0.0
H567 H 0.75157 0.81523 0.10413 0.0
C568 C 0.90827 0.81718 0.10423 0.0
C569 C 0.93195 0.82949 0.12511 0.0
C570 C 0.88146 0.8286 0.10039 0.0
C571 C 0.87776 0.8528 0.11726 0.0
C572 C 0.90235 0.86624 0.13768 0.0
C573 C 0.92902 0.85457 0.14162 0.0
C574 C 0.82152 0.90492 0.11728 0.0
C575 C 0.78476 0.87517 0.11242 0.0
C576 C 0.85204 0.89801 0.11856 0.0
C577 C 0.84639 0.86139 0.1146 0.0
C578 C 0.80979 0.83207 0.10902 0.0
C579 C 0.77945 0.83883 0.10804 0.0
H580 H 0.95204 0.74721 0.6121 0.0
H581 H 0.90864 0.82076 0.63284 0.0
H582 H 1.01619 0.79886 0.61682 0.0
H583 H 0.97367 0.87288 0.63848 0.0
H584 H 0.09924 0.9652 0.6254 0.0
H585 H 0.03335 0.91653 0.61908 0.0
H586 H 0.05779 0.83269 0.64925 0.0
H587 H 0.12363 0.88042 0.654 0.0
C588 C 0.95621 0.7745 0.61778 0.0
C589 C 0.92513 0.7797 0.62237 0.0
C590 C 0.99316 0.80417 0.62068 0.0
C591 C 1.00034 0.83998 0.62861 0.0
C592 C 0.96927 0.84571 0.63234 0.0
C593 C 0.932 0.81587 0.62915 0.0
C594 C 0.09064 0.93631 0.63049 0.0
C595 C 0.11713 0.92693 0.64012 0.0
C596 C 0.05265 0.90844 0.62713 0.0
C597 C 0.04014 0.87048 0.63337 0.0
C598 C 0.0664 0.86142 0.6437 0.0
C599 C 0.10427 0.88908 0.64686 0.0
H600 H 0.12407 0.89962 0.3562 0.0
H601 H 0.09565 0.83281 0.42317 0.0
H602 H 0.05799 0.88319 0.35165 0.0
H603 H 0.03004 0.81722 0.41895 0.0
H604 H 0.90986 0.76043 0.38807 0.0
H605 H 0.97628 0.77917 0.3933 0.0
H606 H 1.00848 0.89238 0.36906 0.0
H607 H 0.94187 0.87347 0.36366 0.0
C608 C 0.10384 0.88175 0.3701 0.0
C609 C 0.11522 0.8674 0.38999 0.0
C610 C 0.06595 0.87247 0.36754 0.0
C611 C 0.03853 0.84865 0.38484 0.0
C612 C 0.05017 0.83503 0.40501 0.0
C613 C 0.08795 0.8442 0.40753 0.0
C614 C 0.93107 0.78942 0.38408 0.0
C615 C 0.92047 0.81543 0.37547 0.0
C616 C 0.96923 0.80022 0.3871 0.0
C617 C 0.99787 0.83737 0.38167 0.0
C618 C 0.98727 0.86342 0.37309 0.0
C619 C 0.94905 0.85257 0.37001 0.0
H620 H 0.06986 0.9293 0.89889 0.0
H621 H 0.15228 0.90992 0.86131 0.0
H622 H 0.11822 0.99553 0.90531 0.0
H623 H 0.1996 0.97586 0.8667 0.0
H624 H 0.28729 0.07911 0.90495 0.0
H625 H 0.23551 0.01503 0.90075 0.0
H626 H 0.15943 0.05718 0.88395 0.0
H627 H 0.21196 0.12241 0.88862 0.0
C628 C 0.09817 0.93909 0.89192 0.0
C629 C 0.10705 0.91402 0.87961 0.0
C630 C 0.12576 0.97719 0.89538 0.0
C631 C 0.16293 0.99105 0.88673 0.0
C632 C 0.17147 0.96612 0.874 0.0
C633 C 0.14407 0.92825 0.87059 0.0
C634 C 0.25958 0.075 0.90044 0.0
C635 C 0.25398 0.10608 0.8968 0.0
C636 C 0.22981 0.03805 0.89789 0.0
C637 C 0.1934 0.03081 0.89146 0.0
C638 C 0.18717 0.06176 0.88888 0.0
C639 C 0.21723 0.0991 0.89154 0.0
H640 H 0.21333 0.27454 0.4156 0.0
H641 H 0.13207 0.2227 0.35652 0.0
H642 H 0.22907 0.2244 0.41303 0.0
H643 H 0.14842 0.17263 0.3537 0.0
H644 H 0.16284 0.06995 0.37192 0.0
H645 H 0.1442 0.11817 0.37609 0.0
H646 H 0.26149 0.2038 0.38494 0.0
H647 H 0.27994 0.15557 0.38165 0.0
C648 C 0.19878 0.25247 0.40206 0.0
C649 C 0.17152 0.25283 0.38621 0.0
C650 C 0.208 0.22376 0.40047 0.0
C651 C 0.19022 0.19457 0.38304 0.0
C652 C 0.16244 0.1945 0.36747 0.0
C653 C 0.15326 0.22335 0.36902 0.0
C654 C 0.18461 0.09903 0.37502 0.0
C655 C 0.22293 0.10886 0.37642 0.0
C656 C 0.17393 0.12672 0.37713 0.0
C657 C 0.20131 0.16489 0.38083 0.0
C658 C 0.23958 0.17463 0.38237 0.0
C659 C 0.25025 0.14702 0.38019 0.0
H660 H 0.11847 0.20314 0.91739 0.0
H661 H 0.11181 0.20015 0.83766 0.0
H662 H 0.05128 0.1826 0.91993 0.0
H663 H 0.04444 0.18006 0.84013 0.0
H664 H 0.91612 0.11528 0.85485 0.0
H665 H 0.98183 0.12934 0.85228 0.0
H666 H 1.0118 0.20973 0.91185 0.0
H667 H 0.94654 0.19528 0.91475 0.0
C668 C 0.10262 0.19818 0.90039 0.0
C669 C 0.12054 0.20363 0.87732 0.0
C670 C 0.06409 0.18646 0.90182 0.0
C671 C 0.04246 0.18007 0.88023 0.0
C672 C 0.06013 0.18439 0.85713 0.0
C673 C 0.09874 0.19597 0.8557 0.0
C674 C 0.93676 0.13585 0.86746 0.0
C675 C 0.92597 0.15409 0.88504 0.0
C676 C 0.97445 0.14403 0.86589 0.0
C677 C 1.00214 0.17057 0.88191 0.0
C678 C 0.99119 0.18864 0.8995 0.0
C679 C 0.95367 0.1805 0.90107 0.0
H680 H 0.88671 0.11484 0.35949 0.0
H681 H 0.97016 0.09603 0.39634 0.0
H682 H 0.83986 0.04865 0.36495 0.0
H683 H 0.92236 0.02953 0.40274 0.0
H684 H 0.83021 0.90286 0.3841 0.0
H685 H 0.88203 0.96861 0.38034 0.0
H686 H 0.80458 1.00822 0.39904 0.0
H687 H 0.75345 0.94359 0.40236 0.0
C688 C 0.89519 0.09657 0.36867 0.0
C689 C 0.93235 0.11094 0.3774 0.0
C690 C 0.86811 0.05859 0.3721 0.0
C691 C 0.8772 0.03376 0.38451 0.0
C692 C 0.91446 0.04784 0.39302 0.0
C693 C 0.9417 0.08605 0.38958 0.0
C694 C 0.8245 0.92571 0.38763 0.0
C695 C 0.78756 0.91792 0.39312 0.0
C696 C 0.85414 0.96333 0.38552 0.0
C697 C 0.84727 0.99371 0.3889 0.0
C698 C 0.81071 0.98563 0.39561 0.0
C699 C 0.78134 0.94839 0.39763 0.0
H700 H 0.8149 0.73538 0.88015 0.0
H701 H 0.93056 0.8139 0.90078 0.0
H702 H 0.80224 0.7872 0.87587 0.0
H703 H 0.91756 0.86645 0.8963 0.0
H704 H 0.8575 0.93941 0.91115 0.0
H705 H 0.87708 0.89175 0.91573 0.0
H706 H 0.82173 0.84078 0.84685 0.0
H707 H 0.80264 0.8883 0.84209 0.0
C708 C 0.83774 0.76373 0.88378 0.0
C709 C 0.87385 0.7704 0.89069 0.0
C710 C 0.83047 0.79355 0.88118 0.0
C711 C 0.85899 0.83098 0.88546 0.0
C712 C 0.89501 0.83785 0.8929 0.0
C713 C 0.90244 0.8078 0.89537 0.0
C714 C 0.84998 0.91833 0.89682 0.0
C715 C 0.82797 0.91737 0.87641 0.0
C716 C 0.86123 0.89108 0.89946 0.0
C717 C 0.85057 0.86226 0.88181 0.0
C718 C 0.82975 0.86217 0.86104 0.0
C719 C 0.81866 0.88935 0.85835 0.0
H720 H 0.07945 0.6693 0.10858 0.0
H721 H 0.19548 0.72501 0.13366 0.0
H722 H 0.0803 0.60965 0.10527 0.0
H723 H 0.19663 0.66649 0.12979 0.0
H724 H 0.18256 0.55127 0.13959 0.0
H725 H 0.17379 0.60525 0.14701 0.0
H726 H 0.10842 0.5809 0.07978 0.0
H727 H 0.11547 0.52558 0.07302 0.0
C728 C 0.10495 0.66879 0.11359 0.0
C729 C 0.13736 0.70203 0.12134 0.0
C730 C 0.10559 0.63471 0.11149 0.0
C731 C 0.13857 0.63313 0.11726 0.0
C732 C 0.17053 0.66627 0.12554 0.0
C733 C 0.16992 0.70009 0.12757 0.0
C734 C 0.16575 0.55693 0.12657 0.0
C735 C 0.14993 0.53397 0.10561 0.0
C736 C 0.16106 0.58826 0.13069 0.0
C737 C 0.14061 0.59776 0.11391 0.0
C738 C 0.12408 0.57436 0.09323 0.0
C739 C 0.12865 0.5429 0.08914 0.0
H740 H 0.65499 0.18978 0.64411 0.0
H741 H 0.60277 0.09701 0.59248 0.0
H742 H 0.59319 0.18195 0.65396 0.0
H743 H 0.54093 0.09011 0.60173 0.0
H744 H 0.42941 0.07326 0.63372 0.0
H745 H 0.4899 0.07344 0.63257 0.0
H746 H 0.54997 0.19561 0.63174 0.0
H747 H 0.49026 0.1953 0.63309 0.0
C748 C 0.63032 0.16731 0.63509 0.0
C749 C 0.63415 0.1442 0.61735 0.0
C750 C 0.5948 0.16307 0.64058 0.0
C751 C 0.56195 0.1356 0.62851 0.0
C752 C 0.56548 0.1114 0.61153 0.0
C753 C 0.60109 0.1157 0.60599 0.0
C754 C 0.45564 0.10004 0.63393 0.0
C755 C 0.45504 0.13424 0.6335 0.0
C756 C 0.49028 0.1002 0.63297 0.0
C757 C 0.52495 0.13456 0.63197 0.0
C758 C 0.52407 0.1686 0.63278 0.0
C759 C 0.4897 0.16842 0.63344 0.0
H760 H 0.5146 0.61381 0.1379 0.0
H761 H 0.46269 0.63234 0.07365 0.0
H762 H 0.45829 0.55161 0.14395 0.0
H763 H 0.40743 0.57019 0.07915 0.0
H764 H 0.2981 0.47942 0.10967 0.0
H765 H 0.35539 0.54039 0.10795 0.0
H766 H 0.42192 0.48735 0.12492 0.0
H767 H 0.3637 0.42551 0.12714 0.0
C768 C 0.49119 0.60466 0.12511 0.0
C769 C 0.49312 0.62812 0.10532 0.0
C770 C 0.45914 0.56888 0.12842 0.0
C771 C 0.42825 0.55599 0.11213 0.0
C772 C 0.43044 0.57941 0.09228 0.0
C773 C 0.46235 0.61495 0.08895 0.0
C774 C 0.32486 0.48055 0.11312 0.0
C775 C 0.32636 0.44744 0.11815 0.0
C776 C 0.35779 0.51562 0.11204 0.0
C777 C 0.39334 0.51872 0.11577 0.0
C778 C 0.39493 0.48589 0.12193 0.0
C779 C 0.36166 0.45051 0.12317 0.0
H780 H 0.92993 0.51916 0.63419 0.0
H781 H 0.83734 0.45275 0.58446 0.0
H782 H 0.94185 0.46609 0.6385 0.0
H783 H 0.8492 0.40011 0.58874 0.0
H784 H 0.9044 0.33069 0.5763 0.0
H785 H 0.89817 0.38683 0.57513 0.0
H786 H 0.9155 0.39954 0.65413 0.0
H787 H 0.92228 0.34278 0.65525 0.0
C788 C 0.91183 0.49314 0.62441 0.0
C789 C 0.88293 0.49047 0.60872 0.0
C790 C 0.91871 0.46274 0.62688 0.0
C791 C 0.89692 0.429 0.61367 0.0
C792 C 0.86723 0.42598 0.5987 0.0
C793 C 0.86038 0.45622 0.59624 0.0
C794 C 0.90734 0.3456 0.59346 0.0
C795 C 0.91347 0.332 0.61593 0.0
C796 C 0.90346 0.37772 0.5928 0.0
C797 C 0.90535 0.39724 0.61461 0.0
C798 C 0.91376 0.38508 0.63699 0.0
C799 C 0.9178 0.35269 0.63764 0.0
H800 H 0.55288 0.82699 0.13229 0.0
H801 H 0.60722 0.94838 0.12492 0.0
H802 H 0.49117 0.82247 0.13054 0.0
H803 H 0.54483 0.94384 0.12256 0.0
H804 H 0.4214 0.91914 0.13491 0.0
H805 H 0.48387 0.92655 0.14331 0.0
H806 H 0.45622 0.82989 0.0971 0.0
H807 H 0.39386 0.82185 0.08941 0.0
C808 C 0.55159 0.85283 0.13055 0.0
C809 C 0.58489 0.88802 0.12849 0.0
C810 C 0.51616 0.8502 0.12936 0.0
C811 C 0.51296 0.88267 0.12581 0.0
C812 C 0.54629 0.91825 0.1253 0.0
C813 C 0.58201 0.92091 0.1267 0.0
C814 C 0.4286 0.89927 0.12678 0.0
C815 C 0.40255 0.86985 0.11149 0.0
C816 C 0.46452 0.90375 0.1314 0.0
C817 C 0.47504 0.87869 0.12104 0.0
C818 C 0.44894 0.84937 0.10575 0.0
C819 C 0.41325 0.84501 0.10107 0.0
H820 H 0.67351 0.60275 0.62905 0.0
H821 H 0.74238 0.54951 0.63075 0.0
H822 H 0.61642 0.54011 0.62578 0.0
H823 H 0.68607 0.48763 0.62808 0.0
H824 H 0.58941 0.39205 0.58682 0.0
H825 H 0.64277 0.45463 0.59473 0.0
H826 H 0.57471 0.47734 0.64552 0.0
H827 H 0.52055 0.41466 0.63694 0.0
C828 C 0.67636 0.5777 0.62933 0.0
C829 C 0.71239 0.58102 0.62981 0.0
C830 C 0.64374 0.54185 0.62742 0.0
C831 C 0.64673 0.50885 0.6261 0.0
C832 C 0.68272 0.51239 0.62829 0.0
C833 C 0.71503 0.54792 0.63 0.0
C834 C 0.58562 0.41041 0.59953 0.0
C835 C 0.55063 0.39823 0.61122 0.0
C836 C 0.6164 0.44622 0.60431 0.0
C837 C 0.61321 0.47099 0.62098 0.0
C838 C 0.57813 0.45905 0.63255 0.0
C839 C 0.54723 0.42299 0.62782 0.0
H840 H 0.36339 0.94384 0.40953 0.0
H841 H 0.30862 0.83454 0.37408 0.0
H842 H 0.42146 0.94019 0.41356 0.0
H843 H 0.36636 0.83133 0.37741 0.0
H844 H 0.45641 0.81405 0.41476 0.0
H845 H 0.40109 0.82127 0.40892 0.0
H846 H 0.47364 0.93986 0.39233 0.0
H847 H 0.52914 0.93262 0.39848 0.0
C848 C 0.36394 0.91938 0.40224 0.0
C849 C 0.33126 0.88933 0.39174 0.0
C850 C 0.39721 0.91725 0.40451 0.0
C851 C 0.39852 0.88514 0.39617 0.0
C852 C 0.36622 0.856 0.38468 0.0
C853 C 0.33309 0.85798 0.38262 0.0
C854 C 0.46061 0.84159 0.40962 0.0
C855 C 0.49728 0.87268 0.40703 0.0
C856 C 0.42883 0.84578 0.40623 0.0
C857 C 0.43275 0.88116 0.39999 0.0
C858 C 0.46946 0.91231 0.39742 0.0
C859 C 0.50131 0.90813 0.40091 0.0
H860 H 0.60061 0.50736 0.91713 0.0
H861 H 0.65518 0.45876 0.87418 0.0
H862 H 0.53924 0.45148 0.90931 0.0
H863 H 0.59372 0.40356 0.86567 0.0
H864 H 0.48821 0.292 0.88974 0.0
H865 H 0.54836 0.35057 0.89033 0.0
H866 H 0.4906 0.41391 0.87799 0.0
H867 H 0.42968 0.3546 0.87764 0.0
C868 C 0.59955 0.4849 0.90588 0.0
C869 C 0.63304 0.48751 0.89652 0.0
C870 C 0.56423 0.45304 0.90112 0.0
C871 C 0.56145 0.42287 0.88693 0.0
C872 C 0.5948 0.42606 0.87689 0.0
C873 C 0.63009 0.45793 0.8816 0.0
C874 C 0.48822 0.31834 0.88686 0.0
C875 C 0.45405 0.3186 0.88378 0.0
C876 C 0.52287 0.35202 0.88703 0.0
C877 C 0.52446 0.38708 0.88427 0.0
C878 C 0.49037 0.38739 0.88039 0.0
C879 C 0.4555 0.35344 0.87996 0.0
H880 H 0.18324 0.63731 0.36736 0.0
H881 H 0.12622 0.59979 0.43775 0.0
H882 H 0.17326 0.57416 0.35975 0.0
H883 H 0.11788 0.53701 0.43063 0.0
H884 H 0.08521 0.41836 0.40279 0.0
H885 H 0.08614 0.47891 0.40632 0.0
H886 H 0.19872 0.53657 0.37517 0.0
H887 H 0.19745 0.47682 0.3712 0.0
C888 C 0.16834 0.6156 0.38118 0.0
C889 C 0.1558 0.62398 0.40327 0.0
C890 C 0.16296 0.57935 0.37692 0.0
C891 C 0.14498 0.55036 0.39465 0.0
C892 C 0.13156 0.55843 0.41646 0.0
C893 C 0.13689 0.5947 0.4207 0.0
C894 C 0.10982 0.44394 0.39635 0.0
C895 C 0.14124 0.44263 0.38678 0.0
C896 C 0.11055 0.47871 0.39858 0.0
C897 C 0.14255 0.5128 0.39106 0.0
C898 C 0.17336 0.51106 0.38085 0.0
C899 C 0.17271 0.47661 0.37875 0.0
H900 H 0.67561 0.07169 0.90122 0.0
H901 H 0.73141 0.18656 0.87373 0.0
H902 H 0.61632 0.07326 0.90481 0.0
H903 H 0.67328 0.18843 0.87787 0.0
H904 H 0.55844 0.17515 0.86904 0.0
H905 H 0.61153 0.16504 0.86132 0.0
H906 H 0.58919 0.10335 0.93012 0.0
H907 H 0.53466 0.11167 0.93723 0.0
C908 C 0.67518 0.09707 0.89574 0.0
C909 C 0.70832 0.12898 0.88726 0.0
C910 C 0.64133 0.09812 0.898 0.0
C911 C 0.63994 0.131 0.89164 0.0
C912 C 0.67295 0.16242 0.88259 0.0
C913 C 0.70654 0.16141 0.88042 0.0
C914 C 0.56433 0.15885 0.88236 0.0
C915 C 0.54221 0.14446 0.90385 0.0
C916 C 0.59513 0.15339 0.87805 0.0
C917 C 0.60494 0.1336 0.89519 0.0
C918 C 0.58235 0.11845 0.91642 0.0
C919 C 0.55139 0.12378 0.92068 0.0
H920 H 0.42317 0.51538 0.36737 0.0
H921 H 0.40144 0.57775 0.42326 0.0
H922 H 0.48526 0.5709 0.35941 0.0
H923 H 0.46348 0.63222 0.41607 0.0
H924 H 0.55776 0.73639 0.38419 0.0
H925 H 0.49594 0.67979 0.38548 0.0
H926 H 0.54846 0.61065 0.37794 0.0
H927 H 0.61097 0.6682 0.37585 0.0
C928 C 0.43154 0.54091 0.3779 0.0
C929 C 0.40719 0.54202 0.39597 0.0
C930 C 0.46731 0.5726 0.37351 0.0
C931 C 0.47941 0.60622 0.38695 0.0
C932 C 0.455 0.60713 0.40501 0.0
C933 C 0.41946 0.57562 0.4094 0.0
C934 C 0.55614 0.70912 0.38246 0.0
C935 C 0.58922 0.70668 0.38019 0.0
C936 C 0.52066 0.6766 0.38339 0.0
C937 C 0.51713 0.64051 0.38247 0.0
C938 C 0.5501 0.63798 0.37873 0.0
C939 C 0.5859 0.67087 0.3775 0.0
H940 H 0.87603 0.56268 0.9261 0.0
H941 H 0.92837 0.58696 0.85386 0.0
H942 H 0.87549 0.50313 0.92722 0.0
H943 H 0.92799 0.52621 0.85512 0.0
H944 H 0.86618 0.39015 0.86032 0.0
H945 H 0.87763 0.45488 0.8556 0.0
H946 H 0.92121 0.48018 0.93011 0.0
H947 H 0.91017 0.41609 0.9348 0.0
C948 C 0.88767 0.55539 0.91041 0.0
C949 C 0.90213 0.57961 0.88981 0.0
C950 C 0.88761 0.52122 0.91119 0.0
C951 C 0.90186 0.50996 0.89134 0.0
C952 C 0.91672 0.53416 0.87068 0.0
C953 C 0.9172 0.56897 0.87002 0.0
C954 C 0.87876 0.40973 0.87555 0.0
C955 C 0.88654 0.39763 0.89813 0.0
C956 C 0.88542 0.44684 0.87279 0.0
C957 C 0.89995 0.47252 0.89257 0.0
C958 C 0.90936 0.46088 0.91467 0.0
C959 C 0.90279 0.42402 0.91741 0.0
H960 H 0.24466 0.38899 0.32125 0.0
H961 H 0.13299 0.36945 0.30291 0.0
H962 H 0.26162 0.39894 0.27741 0.0
H963 H 0.14955 0.37833 0.25943 0.0
H964 H 0.19186 0.40899 0.1814 0.0
H965 H 0.18705 0.41939 0.22565 0.0
H966 H 0.24277 0.35553 0.24327 0.0
H967 H 0.24826 0.34602 0.19972 0.0
C968 C 0.22385 0.3872 0.30795 0.0
C969 C 0.18727 0.37781 0.3156 0.0
C970 C 0.23355 0.3928 0.28284 0.0
C971 C 0.20682 0.38909 0.26486 0.0
C972 C 0.17099 0.3818 0.27272 0.0
C973 C 0.16133 0.37627 0.29774 0.0
C974 C 0.20362 0.39782 0.1948 0.0
C975 C 0.21991 0.37623 0.18707 0.0
C976 C 0.20073 0.4036 0.2201 0.0
C977 C 0.21443 0.38818 0.23804 0.0
C978 C 0.23236 0.36826 0.23009 0.0
C979 C 0.23506 0.36238 0.205 0.0
H980 H 0.91142 0.25113 0.70226 0.0
H981 H 0.79412 0.18197 0.68151 0.0
H982 H 0.89411 0.24214 0.74551 0.0
H983 H 0.77629 0.17343 0.72548 0.0
H984 H 0.77778 0.11821 0.80146 0.0
H985 H 0.78479 0.13761 0.75847 0.0
H986 H 0.86344 0.25271 0.77977 0.0
H987 H 0.85728 0.23304 0.82303 0.0
C988 C 0.88171 0.23451 0.70701 0.0
C989 C 0.85414 0.2167 0.68854 0.0
C990 C 0.87172 0.22971 0.73189 0.0
C991 C 0.83383 0.20689 0.73905 0.0
C992 C 0.80582 0.19085 0.72053 0.0
C993 C 0.8159 0.19591 0.69541 0.0
C994 C 0.79628 0.14775 0.79711 0.0
C995 C 0.8175 0.17393 0.81571 0.0
C996 C 0.79997 0.15899 0.77238 0.0
C997 C 0.82482 0.19668 0.7656 0.0
C998 C 0.84446 0.22332 0.78435 0.0
C999 C 0.8409 0.21202 0.80913 0.0
H1000 H 0.69802 0.91759 0.19922 0.0
H1001 H 0.63138 0.79685 0.18805 0.0
H1002 H 0.69035 0.90847 0.24354 0.0
H1003 H 0.62433 0.78761 0.23324 0.0
H1004 H 0.60701 0.7944 0.31937 0.0
H1005 H 0.60005 0.80292 0.27476 0.0
H1006 H 0.72027 0.88073 0.26993 0.0
H1007 H 0.72698 0.87244 0.31366 0.0
C1008 C 0.68165 0.88896 0.20625 0.0
C1009 C 0.66617 0.85781 0.19015 0.0
C1010 C 0.67711 0.88381 0.2317 0.0
C1011 C 0.6573 0.84734 0.24187 0.0
C1012 C 0.63969 0.81608 0.22584 0.0
C1013 C 0.64396 0.82131 0.20006 0.0
C1014 C 0.63159 0.81391 0.30872 0.0
C1015 C 0.66748 0.83296 0.31986 0.0
C1016 C 0.62773 0.8184 0.28325 0.0
C1017 C 0.65961 0.84254 0.26892 0.0
C1018 C 0.69509 0.86231 0.28048 0.0
C1019 C 0.69896 0.85752 0.30555 0.0
H1020 H 0.7867 0.67321 0.70697 0.0
H1021 H 0.85546 0.62411 0.68634 0.0
H1022 H 0.79158 0.66005 0.75022 0.0
H1023 H 0.86031 0.61076 0.73008 0.0
H1024 H 0.91057 0.66505 0.80813 0.0
H1025 H 0.89457 0.65613 0.76447 0.0
H1026 H 0.77651 0.61041 0.78273 0.0
H1027 H 0.79274 0.61946 0.82693 0.0
C1028 C 0.80256 0.65919 0.71167 0.0
C1029 C 0.82128 0.65027 0.6933 0.0
C1030 C 0.8049 0.65119 0.73647 0.0
C1031 C 0.82631 0.63438 0.74356 0.0
C1032 C 0.84371 0.62388 0.72511 0.0
C1033 C 0.84094 0.63147 0.70012 0.0
C1034 C 0.88107 0.65248 0.80289 0.0
C1035 C 0.85291 0.64347 0.82086 0.0
C1036 C 0.87189 0.647 0.77785 0.0
C1037 C 0.83433 0.63271 0.77016 0.0
C1038 C 0.80576 0.62168 0.78819 0.0
C1039 C 0.81495 0.62671 0.81342 0.0
H1040 H 0.22683 0.87479 0.18894 0.0
H1041 H 0.1432 0.75767 0.20104 0.0
H1042 H 0.24108 0.88219 0.23306 0.0
H1043 H 0.15857 0.76428 0.24489 0.0
H1044 H 0.15702 0.80454 0.32412 0.0
H1045 H 0.14802 0.79128 0.27994 0.0
H1046 H 0.26715 0.86857 0.26749 0.0
H1047 H 0.27549 0.88304 0.31146 0.0
C1048 C 0.21221 0.85041 0.20098 0.0
C1049 C 0.1837 0.81581 0.19165 0.0
C1050 C 0.22041 0.85452 0.2263 0.0
C1051 C 0.20071 0.82388 0.24273 0.0
C1052 C 0.17363 0.78875 0.233 0.0
C1053 C 0.16502 0.78486 0.20781 0.0
C1054 C 0.18132 0.81816 0.31194 0.0
C1055 C 0.21683 0.84501 0.32115 0.0
C1056 C 0.17627 0.81054 0.28658 0.0
C1057 C 0.20682 0.82916 0.26996 0.0
C1058 C 0.24278 0.85443 0.27954 0.0
C1059 C 0.24765 0.86248 0.30479 0.0
H1060 H 0.42713 0.23491 0.8209 0.0
H1061 H 0.30846 0.15189 0.81729 0.0
H1062 H 0.43181 0.23193 0.77576 0.0
H1063 H 0.3132 0.14704 0.77286 0.0
H1064 H 0.31459 0.17339 0.69392 0.0
H1065 H 0.31745 0.18281 0.73837 0.0
H1066 H 0.43035 0.19786 0.73949 0.0
H1067 H 0.42794 0.19063 0.69435 0.0
C1068 C 0.40236 0.21531 0.81047 0.0
C1069 C 0.36738 0.19382 0.82241 0.0
C1070 C 0.40494 0.21361 0.78464 0.0
C1071 C 0.37265 0.18999 0.77044 0.0
C1072 C 0.33838 0.16672 0.78289 0.0
C1073 C 0.33568 0.16904 0.80845 0.0
C1074 C 0.3403 0.17955 0.70365 0.0
C1075 C 0.37101 0.18131 0.69084 0.0
C1076 C 0.34183 0.18438 0.72921 0.0
C1077 C 0.3737 0.1899 0.7428 0.0
C1078 C 0.40533 0.19364 0.72973 0.0
C1079 C 0.40406 0.18962 0.70389 0.0
H1080 H 0.36401 0.30514 0.95695 0.0
H1081 H 0.28553 0.18711 0.97092 0.0
H1082 H 0.33008 0.32304 0.98585 0.0
H1083 H 0.25069 0.20506 0.99988 0.0
H1084 H 0.22978 0.26127 0.06995 0.0
H1085 H 0.25465 0.23504 0.03959 0.0
H1086 H 0.2711 0.32327 0.98806 0.0
H1087 H 0.247 0.34994 0.01898 0.0
C1088 C 0.33964 0.28295 0.96649 0.0
C1089 C 0.32752 0.24472 0.96173 0.0
C1090 C 0.31978 0.29323 0.98278 0.0
C1091 C 0.28697 0.26556 0.99473 0.0
C1092 C 0.27575 0.22714 0.9909 0.0
C1093 C 0.29587 0.2168 0.97452 0.0
C1094 C 0.23749 0.27419 0.05177 0.0
C1095 C 0.23611 0.30733 0.04662 0.0
C1096 C 0.25188 0.25924 0.03439 0.0
C1097 C 0.26556 0.27736 0.0115 0.0
C1098 C 0.26154 0.30902 0.00572 0.0
C1099 C 0.2471 0.32397 0.02318 0.0
H1100 H 0.08096 0.25317 0.4562 0.0
H1101 H 0.09996 0.3671 0.45799 0.0
H1102 H 0.03022 0.23353 0.48642 0.0
H1103 H 0.04762 0.34734 0.48695 0.0
H1104 H 0.98202 0.30972 0.5593 0.0
H1105 H 0.02842 0.33035 0.52671 0.0
H1106 H 0.96803 0.21911 0.49369 0.0
H1107 H 0.92231 0.19777 0.52791 0.0
C1108 C 0.07443 0.27411 0.46335 0.0
C1109 C 0.09493 0.31184 0.45524 0.0
C1110 C 0.04477 0.2627 0.48029 0.0
C1111 C 0.03417 0.28858 0.48913 0.0
C1112 C 0.05512 0.32655 0.48105 0.0
C1113 C 0.0854 0.3381 0.46453 0.0
C1114 C 0.97822 0.28973 0.54486 0.0
C1115 C 0.94874 0.25198 0.54631 0.0
C1116 C 1.00488 0.3017 0.52593 0.0
C1117 C 1.00268 0.27644 0.50751 0.0
C1118 C 0.97136 0.23922 0.50788 0.0
C1119 C 0.94464 0.22705 0.52718 0.0
H1120 H 0.68231 0.97437 0.06201 0.0
H1121 H 0.72639 0.90775 0.02893 0.0
H1122 H 0.71178 0.02166 0.03035 0.0
H1123 H 0.75419 0.95456 0.99556 0.0
H1124 H 0.83448 0.06379 0.95527 0.0
H1125 H 0.80386 0.0151 0.98691 0.0
H1126 H 0.71245 0.04022 0.99062 0.0
H1127 H 0.74465 0.09047 0.96028 0.0
C1128 C 0.69771 0.96934 0.04757 0.0
C1129 C 0.70226 0.93728 0.04821 0.0
C1130 C 0.71447 0.99659 0.02911 0.0
C1131 C 0.73573 0.99243 0.01022 0.0
C1132 C 0.73877 0.95932 0.01008 0.0
C1133 C 0.72235 0.93209 0.02898 0.0
C1134 C 0.80826 0.05937 0.96339 0.0
C1135 C 0.79226 0.08133 0.9557 0.0
C1136 C 0.79028 0.03095 0.9812 0.0
C1137 C 0.75531 0.02314 0.99136 0.0
C1138 C 0.73964 0.04563 0.98374 0.0
C1139 C 0.75813 0.07466 0.96636 0.0
H1140 H 0.84158 0.7319 0.53458 0.0
H1141 H 0.73266 0.6968 0.56807 0.0
H1142 H 0.82592 0.76314 0.5013 0.0
H1143 H 0.71754 0.72768 0.53546 0.0
H1144 H 0.70826 0.80971 0.48442 0.0
H1145 H 0.73517 0.79098 0.51879 0.0
H1146 H 0.78004 0.74315 0.46666 0.0
H1147 H 0.75369 0.76181 0.43281 0.0
C1148 C 0.81439 0.73065 0.53481 0.0
C1149 C 0.78847 0.71174 0.55399 0.0
C1150 C 0.80549 0.7487 0.51589 0.0
C1151 C 0.77069 0.74845 0.516 0.0
C1152 C 0.74492 0.72933 0.53511 0.0
C1153 C 0.75357 0.71116 0.55371 0.0
C1154 C 0.72438 0.79574 0.48042 0.0
C1155 C 0.72821 0.78658 0.45602 0.0
C1156 C 0.73966 0.78488 0.50001 0.0
C1157 C 0.7595 0.76526 0.49543 0.0
C1158 C 0.76519 0.75834 0.47089 0.0
C1159 C 0.74963 0.7687 0.45148 0.0
H1160 H 0.91704 0.72587 0.97953 0.0
H1161 H 0.97536 0.67023 0.95037 0.0
H1162 H 0.96345 0.7519 0.01319 0.0
H1163 H 0.02255 0.69792 0.98215 0.0
H1164 H 0.09388 0.73407 0.05069 0.0
H1165 H 0.04174 0.70147 0.02177 0.0
H1166 H 0.02557 0.79878 0.02033 0.0
H1167 H 0.07599 0.82984 0.05071 0.0
C1168 C 0.93932 0.71873 0.98053 0.0
C1169 C 0.94268 0.6963 0.96219 0.0
C1170 C 0.96641 0.73419 0.99952 0.0
C1171 C 0.99746 0.72771 1.00032 0.0
C1172 C 0.99918 0.70346 0.98262 0.0
C1173 C 0.97205 0.68772 0.9641 0.0
C1174 C 0.07964 0.74868 0.04371 0.0
C1175 C 0.08934 0.78467 0.05251 0.0
C1176 C 0.0495 0.72998 0.02718 0.0
C1177 C 0.02897 0.74727 0.01856 0.0
C1178 C 0.03982 0.78399 0.02687 0.0
C1179 C 0.0693 0.80221 0.04389 0.0
H1180 H 0.29188 0.92621 0.46882 0.0
H1181 H 0.21103 0.96363 0.45622 0.0
H1182 H 0.32357 0.97559 0.49973 0.0
H1183 H 0.2412 1.01172 0.48804 0.0
H1184 H 0.32202 0.11749 0.53034 0.0
H1185 H 0.29433 0.07036 0.4973 0.0
H1186 H 0.32027 0.99528 0.53893 0.0
H1187 H 0.34945 0.0425 0.5706 0.0
C1188 C 0.2802 0.94427 0.47324 0.0
C1189 C 0.24881 0.94083 0.46028 0.0
C1190 C 0.29843 0.9728 0.49093 0.0
C1191 C 0.28525 0.99815 0.49643 0.0
C1192 C 0.2529 0.99359 0.48399 0.0
C1193 C 0.23515 0.96554 0.46601 0.0
C1194 C 0.32242 0.09121 0.53207 0.0
C1195 C 0.33792 0.08391 0.55317 0.0
C1196 C 0.30608 0.06387 0.51332 0.0
C1197 C 0.30464 0.02857 0.5154 0.0
C1198 C 0.32118 0.02205 0.53626 0.0
C1199 C 0.33778 0.04932 0.55467 0.0
loop_
_geom_bond_atom_site_label_1
_geom_bond_atom_site_label_2
_geom_bond_distance
_geom_bond_site_symmetry_2
_ccdc_geom_bond_type
Dy0 O3 2.307 . S
Dy0 O5 2.395 . S
Dy0 O6 2.379 . S
Dy0 O8 2.339 . S
Dy0 O10 2.298 . S
Dy0 O14 2.275 . S
Dy0 C22 2.738 . S
Dy1 O4 2.298 . S
Dy1 O7 2.275 . S
Dy1 O9 2.307 . S
Dy1 O11 2.395 . S
Dy1 O12 2.379 . S
Dy1 O15 2.339 . S
Dy1 C31 2.738 . S
C2 O14 1.254 . S
C2 O15 1.257 . S
O3 Dy0 2.307 . S
O3 C13 1.266 . S
O4 Dy1 2.298 . S
O4 C13 1.236 . S
O5 Dy0 2.395 . S
O5 C22 1.255 . S
O6 Dy0 2.379 . S
O6 C22 1.249 . S
O7 Dy1 2.275 . S
O7 C23 1.254 . S
O8 Dy0 2.339 . S
O8 C23 1.257 . S
O9 Dy1 2.307 . S
O9 C24 1.266 . S
O10 Dy0 2.298 . S
O10 C24 1.236 . S
O11 Dy1 2.395 . S
O11 C31 1.255 . S
O12 Dy1 2.379 . S
O12 C31 1.249 . S
C13 O3 1.266 . S
C13 O4 1.236 . S
O14 Dy0 2.275 . S
O14 C2 1.254 . S
O15 Dy1 2.339 . S
O15 C2 1.257 . S
C16 C19 1.344 . S
C16 C20 1.328 . S
C16 C22 1.516 . S
C17 C18 1.304 . S
C17 C21 1.323 . S
C18 C17 1.304 . S
C18 C19 1.371 . S
C18 H32 0.930 . S
C19 C16 1.344 . S
C19 C18 1.371 . S
C19 H33 0.931 . S
C20 C16 1.328 . S
C20 C21 1.433 . S
C20 H34 0.931 . S
C21 C17 1.323 . S
C21 C20 1.433 . S
C21 H35 0.933 . S
C22 Dy0 2.738 . S
C22 O5 1.255 . S
C22 O6 1.249 . S
C22 C16 1.516 . S
C23 O7 1.254 . S
C23 O8 1.257 . S
C24 O9 1.266 . S
C24 O10 1.236 . S
C25 C28 1.344 . S
C25 C29 1.328 . S
C25 C31 1.516 . S
C26 C27 1.304 . S
C26 C30 1.323 . S
C27 C26 1.304 . S
C27 C28 1.371 . S
C27 H36 0.930 . S
C28 C25 1.344 . S
C28 C27 1.371 . S
C28 H37 0.931 . S
C29 C25 1.328 . S
C29 C30 1.433 . S
C29 H38 0.931 . S
C30 C26 1.323 . S
C30 C29 1.433 . S
C30 H39 0.933 . S
C31 Dy1 2.738 . S
C31 O11 1.255 . S
C31 O12 1.249 . S
C31 C25 1.516 . S
H32 C18 0.930 . S
H33 C19 0.931 . S
H34 C20 0.931 . S
H35 C21 0.933 . S
H36 C27 0.930 . S
H37 C28 0.931 . S
H38 C29 0.931 . S
H39 C30 0.933 . S
Dy40 O43 2.307 . S
Dy40 O45 2.395 . S
Dy40 O46 2.379 . S
Dy40 O48 2.339 . S
Dy40 O50 2.298 . S
Dy40 O54 2.275 . S
Dy40 C62 2.738 . S
Dy41 O44 2.298 . S
Dy41 O47 2.275 . S
Dy41 O49 2.307 . S
Dy41 O51 2.395 . S
Dy41 O52 2.379 . S
Dy41 O55 2.339 . S
Dy41 C71 2.738 . S
C42 O54 1.254 . S
C42 O55 1.257 . S
O43 Dy40 2.307 . S
O43 C53 1.266 . S
O44 Dy41 2.298 . S
O44 C53 1.236 . S
O45 Dy40 2.395 . S
O45 C62 1.255 . S
O46 Dy40 2.379 . S
O46 C62 1.249 . S
O47 Dy41 2.275 . S
O47 C63 1.254 . S
O48 Dy40 2.339 . S
O48 C63 1.257 . S
O49 Dy41 2.307 . S
O49 C64 1.266 . S
O50 Dy40 2.298 . S
O50 C64 1.236 . S
O51 Dy41 2.395 . S
O51 C71 1.255 . S
O52 Dy41 2.379 . S
O52 C71 1.249 . S
C53 O43 1.266 . S
C53 O44 1.236 . S
O54 Dy40 2.275 . S
O54 C42 1.254 . S
O55 Dy41 2.339 . S
O55 C42 1.257 . S
C56 C59 1.344 . S
C56 C60 1.328 . S
C56 C62 1.516 1_455 S
C57 C58 1.304 . S
C57 C61 1.323 . S
C58 C57 1.304 . S
C58 C59 1.371 . S
C58 H72 0.930 . S
C59 C56 1.344 . S
C59 C58 1.371 . S
C59 H73 0.931 . S
C60 C56 1.328 . S
C60 C61 1.433 . S
C60 H74 0.931 . S
C61 C57 1.323 . S
C61 C60 1.433 . S
C61 H75 0.933 . S
C62 Dy40 2.738 . S
C62 O45 1.255 . S
C62 O46 1.249 . S
C62 C56 1.516 1_655 S
C63 O47 1.254 . S
C63 O48 1.257 . S
C64 O49 1.266 . S
C64 O50 1.236 . S
C65 C68 1.344 . S
C65 C69 1.328 . S
C65 C71 1.516 . S
C66 C67 1.304 . S
C66 C70 1.323 . S
C67 C66 1.304 . S
C67 C68 1.371 . S
C67 H76 0.930 . S
C68 C65 1.344 . S
C68 C67 1.371 . S
C68 H77 0.931 . S
C69 C65 1.328 . S
C69 C70 1.433 . S
C69 H78 0.931 . S
C70 C66 1.323 . S
C70 C69 1.433 . S
C70 H79 0.933 . S
C71 Dy41 2.738 . S
C71 O51 1.255 . S
C71 O52 1.249 . S
C71 C65 1.516 . S
H72 C58 0.930 . S
H73 C59 0.931 . S
H74 C60 0.931 . S
H75 C61 0.933 . S
H76 C67 0.930 . S
H77 C68 0.931 . S
H78 C69 0.931 . S
H79 C70 0.933 . S
Dy80 O83 2.307 . S
Dy80 O85 2.395 . S
Dy80 O86 2.379 . S
Dy80 O88 2.339 . S
Dy80 O90 2.298 . S
Dy80 O94 2.275 . S
Dy80 C102 2.738 . S
Dy81 O84 2.298 . S
Dy81 O87 2.275 . S
Dy81 O89 2.307 . S
Dy81 O91 2.395 . S
Dy81 O92 2.379 . S
Dy81 O95 2.339 . S
Dy81 C111 2.738 . S
C82 O94 1.254 . S
C82 O95 1.257 . S
O83 Dy80 2.307 . S
O83 C93 1.266 . S
O84 Dy81 2.298 . S
O84 C93 1.236 . S
O85 Dy80 2.395 . S
O85 C102 1.255 . S
O86 Dy80 2.379 . S
O86 C102 1.249 . S
O87 Dy81 2.275 . S
O87 C103 1.254 . S
O88 Dy80 2.339 . S
O88 C103 1.257 . S
O89 Dy81 2.307 . S
O89 C104 1.266 . S
O90 Dy80 2.298 . S
O90 C104 1.236 . S
O91 Dy81 2.395 . S
O91 C111 1.255 . S
O92 Dy81 2.379 . S
O92 C111 1.249 . S
C93 O83 1.266 . S
C93 O84 1.236 . S
O94 Dy80 2.275 . S
O94 C82 1.254 . S
O95 Dy81 2.339 . S
O95 C82 1.257 . S
C96 C99 1.344 . S
C96 C100 1.328 . S
C96 C102 1.516 1_545 S
C97 C98 1.304 . S
C97 C101 1.323 . S
C98 C97 1.304 . S
C98 C99 1.371 . S
C98 H112 0.930 . S
C99 C96 1.344 . S
C99 C98 1.371 . S
C99 H113 0.931 . S
C100 C96 1.328 . S
C100 C101 1.433 . S
C100 H114 0.931 . S
C101 C97 1.323 . S
C101 C100 1.433 . S
C101 H115 0.933 . S
C102 Dy80 2.738 . S
C102 O85 1.255 . S
C102 O86 1.249 . S
C102 C96 1.516 1_565 S
C103 O87 1.254 . S
C103 O88 1.257 . S
C104 O89 1.266 . S
C104 O90 1.236 . S
C105 C108 1.344 . S
C105 C109 1.328 . S
C105 C111 1.516 . S
C106 C107 1.304 . S
C106 C110 1.323 . S
C107 C106 1.304 . S
C107 C108 1.371 . S
C107 H116 0.930 . S
C108 C105 1.344 . S
C108 C107 1.371 . S
C108 H117 0.931 . S
C109 C105 1.328 . S
C109 C110 1.433 . S
C109 H118 0.931 . S
C110 C106 1.323 . S
C110 C109 1.433 . S
C110 H119 0.933 . S
C111 Dy81 2.738 . S
C111 O91 1.255 . S
C111 O92 1.249 . S
C111 C105 1.516 . S
H112 C98 0.930 . S
H113 C99 0.931 . S
H114 C100 0.931 . S
H115 C101 0.933 . S
H116 C107 0.930 . S
H117 C108 0.931 . S
H118 C109 0.931 . S
H119 C110 0.933 . S
Dy120 O123 2.307 . S
Dy120 O125 2.395 . S
Dy120 O126 2.379 . S
Dy120 O128 2.339 . S
Dy120 O130 2.298 . S
Dy120 O134 2.275 . S
Dy120 C142 2.738 . S
Dy121 O124 2.298 . S
Dy121 O127 2.275 . S
Dy121 O129 2.307 . S
Dy121 O131 2.395 . S
Dy121 O132 2.379 . S
Dy121 O135 2.339 . S
Dy121 C151 2.738 . S
C122 O134 1.254 . S
C122 O135 1.257 . S
O123 Dy120 2.307 . S
O123 C133 1.266 . S
O124 Dy121 2.298 . S
O124 C133 1.236 . S
O125 Dy120 2.395 . S
O125 C142 1.255 . S
O126 Dy120 2.379 . S
O126 C142 1.249 . S
O127 Dy121 2.275 . S
O127 C143 1.254 . S
O128 Dy120 2.339 . S
O128 C143 1.257 . S
O129 Dy121 2.307 . S
O129 C144 1.266 . S
O130 Dy120 2.298 . S
O130 C144 1.236 . S
O131 Dy121 2.395 . S
O131 C151 1.255 . S
O132 Dy121 2.379 . S
O132 C151 1.249 . S
C133 O123 1.266 . S
C133 O124 1.236 . S
O134 Dy120 2.275 . S
O134 C122 1.254 . S
O135 Dy121 2.339 . S
O135 C122 1.257 . S
C136 C139 1.344 . S
C136 C140 1.328 . S
C136 C142 1.516 . S
C137 C138 1.304 . S
C137 C141 1.323 . S
C138 C137 1.304 . S
C138 C139 1.371 . S
C138 H152 0.930 . S
C139 C136 1.344 . S
C139 C138 1.371 . S
C139 H153 0.931 . S
C140 C136 1.328 . S
C140 C141 1.433 . S
C140 H154 0.931 . S
C141 C137 1.323 . S
C141 C140 1.433 . S
C141 H155 0.933 . S
C142 Dy120 2.738 . S
C142 O125 1.255 . S
C142 O126 1.249 . S
C142 C136 1.516 . S
C143 O127 1.254 . S
C143 O128 1.257 . S
C144 O129 1.266 . S
C144 O130 1.236 . S
C145 C148 1.344 . S
C145 C149 1.328 . S
C145 C151 1.516 . S
C146 C147 1.304 . S
C146 C150 1.323 . S
C147 C146 1.304 . S
C147 C148 1.371 . S
C147 H156 0.930 . S
C148 C145 1.344 . S
C148 C147 1.371 . S
C148 H157 0.931 . S
C149 C145 1.328 . S
C149 C150 1.433 . S
C149 H158 0.931 . S
C150 C146 1.323 . S
C150 C149 1.433 . S
C150 H159 0.933 . S
C151 Dy121 2.738 . S
C151 O131 1.255 . S
C151 O132 1.249 . S
C151 C145 1.516 . S
H152 C138 0.930 . S
H153 C139 0.931 . S
H154 C140 0.931 . S
H155 C141 0.933 . S
H156 C147 0.930 . S
H157 C148 0.931 . S
H158 C149 0.931 . S
H159 C150 0.933 . S
Dy160 O163 2.307 . S
Dy160 O165 2.395 . S
Dy160 O166 2.379 . S
Dy160 O168 2.339 . S
Dy160 O170 2.298 . S
Dy160 O174 2.275 . S
Dy160 C182 2.738 . S
Dy161 O164 2.298 . S
Dy161 O167 2.275 . S
Dy161 O169 2.307 . S
Dy161 O171 2.395 . S
Dy161 O172 2.379 . S
Dy161 O175 2.339 . S
Dy161 C191 2.738 . S
C162 O174 1.254 . S
C162 O175 1.257 . S
O163 Dy160 2.307 . S
O163 C173 1.266 . S
O164 Dy161 2.298 . S
O164 C173 1.236 . S
O165 Dy160 2.395 . S
O165 C182 1.255 . S
O166 Dy160 2.379 . S
O166 C182 1.249 . S
O167 Dy161 2.275 . S
O167 C183 1.254 . S
O168 Dy160 2.339 . S
O168 C183 1.257 . S
O169 Dy161 2.307 . S
O169 C184 1.266 . S
O170 Dy160 2.298 . S
O170 C184 1.236 . S
O171 Dy161 2.395 . S
O171 C191 1.255 . S
O172 Dy161 2.379 . S
O172 C191 1.249 . S
C173 O163 1.266 . S
C173 O164 1.236 . S
O174 Dy160 2.275 . S
O174 C162 1.254 . S
O175 Dy161 2.339 . S
O175 C162 1.257 . S
C176 C179 1.344 . S
C176 C180 1.328 . S
C176 C182 1.516 1_655 S
C177 C178 1.304 . S
C177 C181 1.323 . S
C178 C177 1.304 . S
C178 C179 1.371 . S
C178 H192 0.930 . S
C179 C176 1.344 . S
C179 C178 1.371 . S
C179 H193 0.931 . S
C180 C176 1.328 . S
C180 C181 1.433 . S
C180 H194 0.931 . S
C181 C177 1.323 . S
C181 C180 1.433 . S
C181 H195 0.933 . S
C182 Dy160 2.738 . S
C182 O165 1.255 . S
C182 O166 1.249 . S
C182 C176 1.516 1_455 S
C183 O167 1.254 . S
C183 O168 1.257 . S
C184 O169 1.266 . S
C184 O170 1.236 . S
C185 C188 1.344 . S
C185 C189 1.328 . S
C185 C191 1.516 . S
C186 C187 1.304 . S
C186 C190 1.323 . S
C187 C186 1.304 . S
C187 C188 1.371 . S
C187 H196 0.930 . S
C188 C185 1.344 . S
C188 C187 1.371 . S
C188 H197 0.931 . S
C189 C185 1.328 . S
C189 C190 1.433 . S
C189 H198 0.931 . S
C190 C186 1.323 . S
C190 C189 1.433 . S
C190 H199 0.933 . S
C191 Dy161 2.738 . S
C191 O171 1.255 . S
C191 O172 1.249 . S
C191 C185 1.516 . S
H192 C178 0.930 . S
H193 C179 0.931 . S
H194 C180 0.931 . S
H195 C181 0.933 . S
H196 C187 0.930 . S
H197 C188 0.931 . S
H198 C189 0.931 . S
H199 C190 0.933 . S
Dy200 O203 2.307 . S
Dy200 O205 2.395 . S
Dy200 O206 2.379 . S
Dy200 O208 2.339 . S
Dy200 O210 2.298 . S
Dy200 O214 2.275 . S
Dy200 C222 2.738 . S
Dy201 O204 2.298 . S
Dy201 O207 2.275 . S
Dy201 O209 2.307 . S
Dy201 O211 2.395 . S
Dy201 O212 2.379 . S
Dy201 O215 2.339 . S
Dy201 C231 2.738 . S
C202 O214 1.254 . S
C202 O215 1.257 . S
O203 Dy200 2.307 . S
O203 C213 1.266 . S
O204 Dy201 2.298 . S
O204 C213 1.236 . S
O205 Dy200 2.395 . S
O205 C222 1.255 . S
O206 Dy200 2.379 . S
O206 C222 1.249 . S
O207 Dy201 2.275 . S
O207 C223 1.254 . S
O208 Dy200 2.339 . S
O208 C223 1.257 . S
O209 Dy201 2.307 . S
O209 C224 1.266 . S
O210 Dy200 2.298 . S
O210 C224 1.236 . S
O211 Dy201 2.395 . S
O211 C231 1.255 . S
O212 Dy201 2.379 . S
O212 C231 1.249 . S
C213 O203 1.266 . S
C213 O204 1.236 . S
O214 Dy200 2.275 . S
O214 C202 1.254 . S
O215 Dy201 2.339 . S
O215 C202 1.257 . S
C216 C219 1.344 . S
C216 C220 1.328 . S
C216 C222 1.516 1_565 S
C217 C218 1.304 . S
C217 C221 1.323 . S
C218 C217 1.304 . S
C218 C219 1.371 . S
C218 H232 0.930 . S
C219 C216 1.344 . S
C219 C218 1.371 . S
C219 H233 0.931 . S
C220 C216 1.328 . S
C220 C221 1.433 . S
C220 H234 0.931 . S
C221 C217 1.323 . S
C221 C220 1.433 . S
C221 H235 0.933 . S
C222 Dy200 2.738 . S
C222 O205 1.255 . S
C222 O206 1.249 . S
C222 C216 1.516 1_545 S
C223 O207 1.254 . S
C223 O208 1.257 . S
C224 O209 1.266 . S
C224 O210 1.236 . S
C225 C228 1.344 . S
C225 C229 1.328 . S
C225 C231 1.516 . S
C226 C227 1.304 . S
C226 C230 1.323 . S
C227 C226 1.304 . S
C227 C228 1.371 . S
C227 H236 0.930 . S
C228 C225 1.344 . S
C228 C227 1.371 . S
C228 H237 0.931 . S
C229 C225 1.328 . S
C229 C230 1.433 . S
C229 H238 0.931 . S
C230 C226 1.323 . S
C230 C229 1.433 . S
C230 H239 0.933 . S
C231 Dy201 2.738 . S
C231 O211 1.255 . S
C231 O212 1.249 . S
C231 C225 1.516 . S
H232 C218 0.930 . S
H233 C219 0.931 . S
H234 C220 0.931 . S
H235 C221 0.933 . S
H236 C227 0.930 . S
H237 C228 0.931 . S
H238 C229 0.931 . S
H239 C230 0.933 . S
Dy240 O243 2.307 . S
Dy240 O245 2.395 . S
Dy240 O246 2.379 . S
Dy240 O248 2.339 . S
Dy240 O250 2.298 . S
Dy240 O254 2.275 . S
Dy240 C262 2.738 . S
Dy241 O244 2.298 . S
Dy241 O247 2.275 . S
Dy241 O249 2.307 . S
Dy241 O251 2.395 . S
Dy241 O252 2.379 . S
Dy241 O255 2.339 . S
Dy241 C271 2.738 . S
C242 O254 1.254 . S
C242 O255 1.257 . S
O243 Dy240 2.307 . S
O243 C253 1.266 . S
O244 Dy241 2.298 . S
O244 C253 1.236 . S
O245 Dy240 2.395 . S
O245 C262 1.255 . S
O246 Dy240 2.379 . S
O246 C262 1.249 . S
O247 Dy241 2.275 . S
O247 C263 1.254 . S
O248 Dy240 2.339 . S
O248 C263 1.257 . S
O249 Dy241 2.307 . S
O249 C264 1.266 . S
O250 Dy240 2.298 . S
O250 C264 1.236 . S
O251 Dy241 2.395 . S
O251 C271 1.255 . S
O252 Dy241 2.379 . S
O252 C271 1.249 . S
C253 O243 1.266 . S
C253 O244 1.236 . S
O254 Dy240 2.275 . S
O254 C242 1.254 . S
O255 Dy241 2.339 . S
O255 C242 1.257 . S
C256 C259 1.344 . S
C256 C260 1.328 . S
C256 C262 1.516 . S
C257 C258 1.304 . S
C257 C261 1.323 . S
C258 C257 1.304 . S
C258 C259 1.371 . S
C258 H272 0.930 . S
C259 C256 1.344 . S
C259 C258 1.371 . S
C259 H273 0.931 . S
C260 C256 1.328 . S
C260 C261 1.433 . S
C260 H274 0.931 . S
C261 C257 1.323 . S
C261 C260 1.433 . S
C261 H275 0.933 . S
C262 Dy240 2.738 . S
C262 O245 1.255 . S
C262 O246 1.249 . S
C262 C256 1.516 . S
C263 O247 1.254 . S
C263 O248 1.257 . S
C264 O249 1.266 . S
C264 O250 1.236 . S
C265 C268 1.344 . S
C265 C269 1.328 . S
C265 C271 1.516 . S
C266 C267 1.304 . S
C266 C270 1.323 . S
C267 C266 1.304 . S
C267 C268 1.371 . S
C267 H276 0.930 . S
C268 C265 1.344 . S
C268 C267 1.371 . S
C268 H277 0.931 . S
C269 C265 1.328 . S
C269 C270 1.433 . S
C269 H278 0.931 . S
C270 C266 1.323 . S
C270 C269 1.433 . S
C270 H279 0.933 . S
C271 Dy241 2.738 . S
C271 O251 1.255 . S
C271 O252 1.249 . S
C271 C265 1.516 . S
H272 C258 0.930 . S
H273 C259 0.931 . S
H274 C260 0.931 . S
H275 C261 0.933 . S
H276 C267 0.930 . S
H277 C268 0.931 . S
H278 C269 0.931 . S
H279 C270 0.933 . S
Dy280 O283 2.307 . S
Dy280 O285 2.395 . S
Dy280 O286 2.379 . S
Dy280 O288 2.339 . S
Dy280 O290 2.298 . S
Dy280 O294 2.275 . S
Dy280 C302 2.738 . S
Dy281 O284 2.298 . S
Dy281 O287 2.275 . S
Dy281 O289 2.307 . S
Dy281 O291 2.395 . S
Dy281 O292 2.379 . S
Dy281 O295 2.339 . S
Dy281 C311 2.738 . S
C282 O294 1.254 . S
C282 O295 1.257 . S
O283 Dy280 2.307 . S
O283 C293 1.266 . S
O284 Dy281 2.298 . S
O284 C293 1.236 . S
O285 Dy280 2.395 . S
O285 C302 1.255 . S
O286 Dy280 2.379 . S
O286 C302 1.249 . S
O287 Dy281 2.275 . S
O287 C303 1.254 . S
O288 Dy280 2.339 . S
O288 C303 1.257 . S
O289 Dy281 2.307 . S
O289 C304 1.266 . S
O290 Dy280 2.298 . S
O290 C304 1.236 . S
O291 Dy281 2.395 . S
O291 C311 1.255 . S
O292 Dy281 2.379 . S
O292 C311 1.249 . S
C293 O283 1.266 . S
C293 O284 1.236 . S
O294 Dy280 2.275 . S
O294 C282 1.254 . S
O295 Dy281 2.339 . S
O295 C282 1.257 . S
C296 C299 1.344 . S
C296 C300 1.328 . S
C296 C302 1.516 1_455 S
C297 C298 1.304 . S
C297 C301 1.323 . S
C298 C297 1.304 . S
C298 C299 1.371 . S
C298 H312 0.930 . S
C299 C296 1.344 . S
C299 C298 1.371 . S
C299 H313 0.931 . S
C300 C296 1.328 . S
C300 C301 1.433 . S
C300 H314 0.931 . S
C301 C297 1.323 . S
C301 C300 1.433 . S
C301 H315 0.933 . S
C302 Dy280 2.738 . S
C302 O285 1.255 . S
C302 O286 1.249 . S
C302 C296 1.516 1_655 S
C303 O287 1.254 . S
C303 O288 1.257 . S
C304 O289 1.266 . S
C304 O290 1.236 . S
C305 C308 1.344 . S
C305 C309 1.328 . S
C305 C311 1.516 . S
C306 C307 1.304 . S
C306 C310 1.323 . S
C307 C306 1.304 . S
C307 C308 1.371 . S
C307 H316 0.930 . S
C308 C305 1.344 . S
C308 C307 1.371 . S
C308 H317 0.931 . S
C309 C305 1.328 . S
C309 C310 1.433 . S
C309 H318 0.931 . S
C310 C306 1.323 . S
C310 C309 1.433 . S
C310 H319 0.933 . S
C311 Dy281 2.738 . S
C311 O291 1.255 . S
C311 O292 1.249 . S
C311 C305 1.516 . S
H312 C298 0.930 . S
H313 C299 0.931 . S
H314 C300 0.931 . S
H315 C301 0.933 . S
H316 C307 0.930 . S
H317 C308 0.931 . S
H318 C309 0.931 . S
H319 C310 0.933 . S
Dy320 O323 2.307 . S
Dy320 O325 2.395 . S
Dy320 O326 2.379 . S
Dy320 O328 2.339 . S
Dy320 O330 2.298 . S
Dy320 O334 2.275 . S
Dy320 C342 2.738 . S
Dy321 O324 2.298 . S
Dy321 O327 2.275 . S
Dy321 O329 2.307 . S
Dy321 O331 2.395 . S
Dy321 O332 2.379 . S
Dy321 O335 2.339 . S
Dy321 C351 2.738 . S
C322 O334 1.254 . S
C322 O335 1.257 . S
O323 Dy320 2.307 . S
O323 C333 1.266 . S
O324 Dy321 2.298 . S
O324 C333 1.236 . S
O325 Dy320 2.395 . S
O325 C342 1.255 . S
O326 Dy320 2.379 . S
O326 C342 1.249 . S
O327 Dy321 2.275 . S
O327 C343 1.254 . S
O328 Dy320 2.339 . S
O328 C343 1.257 . S
O329 Dy321 2.307 . S
O329 C344 1.266 . S
O330 Dy320 2.298 . S
O330 C344 1.236 . S
O331 Dy321 2.395 . S
O331 C351 1.255 . S
O332 Dy321 2.379 . S
O332 C351 1.249 . S
C333 O323 1.266 . S
C333 O324 1.236 . S
O334 Dy320 2.275 . S
O334 C322 1.254 . S
O335 Dy321 2.339 . S
O335 C322 1.257 . S
C336 C339 1.344 . S
C336 C340 1.328 . S
C336 C342 1.516 1_545 S
C337 C338 1.304 . S
C337 C341 1.323 . S
C338 C337 1.304 . S
C338 C339 1.371 . S
C338 H352 0.930 . S
C339 C336 1.344 . S
C339 C338 1.371 . S
C339 H353 0.931 . S
C340 C336 1.328 . S
C340 C341 1.433 . S
C340 H354 0.931 . S
C341 C337 1.323 . S
C341 C340 1.433 . S
C341 H355 0.933 . S
C342 Dy320 2.738 . S
C342 O325 1.255 . S
C342 O326 1.249 . S
C342 C336 1.516 1_565 S
C343 O327 1.254 . S
C343 O328 1.257 . S
C344 O329 1.266 . S
C344 O330 1.236 . S
C345 C348 1.344 . S
C345 C349 1.328 . S
C345 C351 1.516 . S
C346 C347 1.304 . S
C346 C350 1.323 . S
C347 C346 1.304 . S
C347 C348 1.371 . S
C347 H356 0.930 . S
C348 C345 1.344 . S
C348 C347 1.371 . S
C348 H357 0.931 . S
C349 C345 1.328 . S
C349 C350 1.433 . S
C349 H358 0.931 . S
C350 C346 1.323 . S
C350 C349 1.433 . S
C350 H359 0.933 . S
C351 Dy321 2.738 . S
C351 O331 1.255 . S
C351 O332 1.249 . S
C351 C345 1.516 . S
H352 C338 0.930 . S
H353 C339 0.931 . S
H354 C340 0.931 . S
H355 C341 0.933 . S
H356 C347 0.930 . S
H357 C348 0.931 . S
H358 C349 0.931 . S
H359 C350 0.933 . S
Dy360 O363 2.307 . S
Dy360 O365 2.395 . S
Dy360 O366 2.379 . S
Dy360 O368 2.339 . S
Dy360 O370 2.298 . S
Dy360 O374 2.275 . S
Dy360 C382 2.738 . S
Dy361 O364 2.298 . S
Dy361 O367 2.275 . S
Dy361 O369 2.307 . S
Dy361 O371 2.395 . S
Dy361 O372 2.379 . S
Dy361 O375 2.339 . S
Dy361 C391 2.738 . S
C362 O374 1.254 . S
C362 O375 1.257 . S
O363 Dy360 2.307 . S
O363 C373 1.266 . S
O364 Dy361 2.298 . S
O364 C373 1.236 . S
O365 Dy360 2.395 . S
O365 C382 1.255 . S
O366 Dy360 2.379 . S
O366 C382 1.249 . S
O367 Dy361 2.275 . S
O367 C383 1.254 . S
O368 Dy360 2.339 . S
O368 C383 1.257 . S
O369 Dy361 2.307 . S
O369 C384 1.266 . S
O370 Dy360 2.298 . S
O370 C384 1.236 . S
O371 Dy361 2.395 . S
O371 C391 1.255 . S
O372 Dy361 2.379 . S
O372 C391 1.249 . S
C373 O363 1.266 . S
C373 O364 1.236 . S
O374 Dy360 2.275 . S
O374 C362 1.254 . S
O375 Dy361 2.339 . S
O375 C362 1.257 . S
C376 C379 1.344 . S
C376 C380 1.328 . S
C376 C382 1.516 . S
C377 C378 1.304 . S
C377 C381 1.323 . S
C378 C377 1.304 . S
C378 C379 1.371 . S
C378 H392 0.930 . S
C379 C376 1.344 . S
C379 C378 1.371 . S
C379 H393 0.931 . S
C380 C376 1.328 . S
C380 C381 1.433 . S
C380 H394 0.931 . S
C381 C377 1.323 . S
C381 C380 1.433 . S
C381 H395 0.933 . S
C382 Dy360 2.738 . S
C382 O365 1.255 . S
C382 O366 1.249 . S
C382 C376 1.516 . S
C383 O367 1.254 . S
C383 O368 1.257 . S
C384 O369 1.266 . S
C384 O370 1.236 . S
C385 C388 1.344 . S
C385 C389 1.328 . S
C385 C391 1.516 . S
C386 C387 1.304 . S
C386 C390 1.323 . S
C387 C386 1.304 . S
C387 C388 1.371 . S
C387 H396 0.930 . S
C388 C385 1.344 . S
C388 C387 1.371 . S
C388 H397 0.931 . S
C389 C385 1.328 . S
C389 C390 1.433 . S
C389 H398 0.931 . S
C390 C386 1.323 . S
C390 C389 1.433 . S
C390 H399 0.933 . S
C391 Dy361 2.738 . S
C391 O371 1.255 . S
C391 O372 1.249 . S
C391 C385 1.516 . S
H392 C378 0.930 . S
H393 C379 0.931 . S
H394 C380 0.931 . S
H395 C381 0.933 . S
H396 C387 0.930 . S
H397 C388 0.931 . S
H398 C389 0.931 . S
H399 C390 0.933 . S
Dy400 O403 2.307 . S
Dy400 O405 2.395 . S
Dy400 O406 2.379 . S
Dy400 O408 2.339 . S
Dy400 O410 2.298 . S
Dy400 O414 2.275 . S
Dy400 C422 2.738 . S
Dy401 O404 2.298 . S
Dy401 O407 2.275 . S
Dy401 O409 2.307 . S
Dy401 O411 2.395 . S
Dy401 O412 2.379 . S
Dy401 O415 2.339 . S
Dy401 C431 2.738 . S
C402 O414 1.254 . S
C402 O415 1.257 . S
O403 Dy400 2.307 . S
O403 C413 1.266 . S
O404 Dy401 2.298 . S
O404 C413 1.236 . S
O405 Dy400 2.395 . S
O405 C422 1.255 . S
O406 Dy400 2.379 . S
O406 C422 1.249 . S
O407 Dy401 2.275 . S
O407 C423 1.254 . S
O408 Dy400 2.339 . S
O408 C423 1.257 . S
O409 Dy401 2.307 . S
O409 C424 1.266 . S
O410 Dy400 2.298 . S
O410 C424 1.236 . S
O411 Dy401 2.395 . S
O411 C431 1.255 . S
O412 Dy401 2.379 . S
O412 C431 1.249 . S
C413 O403 1.266 . S
C413 O404 1.236 . S
O414 Dy400 2.275 . S
O414 C402 1.254 . S
O415 Dy401 2.339 . S
O415 C402 1.257 . S
C416 C419 1.344 . S
C416 C420 1.328 . S
C416 C422 1.516 1_655 S
C417 C418 1.304 . S
C417 C421 1.323 . S
C418 C417 1.304 . S
C418 C419 1.371 . S
C418 H432 0.930 . S
C419 C416 1.344 . S
C419 C418 1.371 . S
C419 H433 0.931 . S
C420 C416 1.328 . S
C420 C421 1.433 . S
C420 H434 0.931 . S
C421 C417 1.323 . S
C421 C420 1.433 . S
C421 H435 0.933 . S
C422 Dy400 2.738 . S
C422 O405 1.255 . S
C422 O406 1.249 . S
C422 C416 1.516 1_455 S
C423 O407 1.254 . S
C423 O408 1.257 . S
C424 O409 1.266 . S
C424 O410 1.236 . S
C425 C428 1.344 . S
C425 C429 1.328 . S
C425 C431 1.516 . S
C426 C427 1.304 . S
C426 C430 1.323 . S
C427 C426 1.304 . S
C427 C428 1.371 . S
C427 H436 0.930 . S
C428 C425 1.344 . S
C428 C427 1.371 . S
C428 H437 0.931 . S
C429 C425 1.328 . S
C429 C430 1.433 . S
C429 H438 0.931 . S
C430 C426 1.323 . S
C430 C429 1.433 . S
C430 H439 0.933 . S
C431 Dy401 2.738 . S
C431 O411 1.255 . S
C431 O412 1.249 . S
C431 C425 1.516 . S
H432 C418 0.930 . S
H433 C419 0.931 . S
H434 C420 0.931 . S
H435 C421 0.933 . S
H436 C427 0.930 . S
H437 C428 0.931 . S
H438 C429 0.931 . S
H439 C430 0.933 . S
Dy440 O443 2.307 . S
Dy440 O445 2.395 . S
Dy440 O446 2.379 . S
Dy440 O448 2.339 . S
Dy440 O450 2.298 . S
Dy440 O454 2.275 . S
Dy440 C462 2.738 . S
Dy441 O444 2.298 . S
Dy441 O447 2.275 . S
Dy441 O449 2.307 . S
Dy441 O451 2.395 . S
Dy441 O452 2.379 . S
Dy441 O455 2.339 . S
Dy441 C471 2.738 . S
C442 O454 1.254 . S
C442 O455 1.257 . S
O443 Dy440 2.307 . S
O443 C453 1.266 . S
O444 Dy441 2.298 . S
O444 C453 1.236 . S
O445 Dy440 2.395 . S
O445 C462 1.255 . S
O446 Dy440 2.379 . S
O446 C462 1.249 . S
O447 Dy441 2.275 . S
O447 C463 1.254 . S
O448 Dy440 2.339 . S
O448 C463 1.257 . S
O449 Dy441 2.307 . S
O449 C464 1.266 . S
O450 Dy440 2.298 . S
O450 C464 1.236 . S
O451 Dy441 2.395 . S
O451 C471 1.255 . S
O452 Dy441 2.379 . S
O452 C471 1.249 . S
C453 O443 1.266 . S
C453 O444 1.236 . S
O454 Dy440 2.275 . S
O454 C442 1.254 . S
O455 Dy441 2.339 . S
O455 C442 1.257 . S
C456 C459 1.344 . S
C456 C460 1.328 . S
C456 C462 1.516 1_565 S
C457 C458 1.304 . S
C457 C461 1.323 . S
C458 C457 1.304 . S
C458 C459 1.371 . S
C458 H472 0.930 . S
C459 C456 1.344 . S
C459 C458 1.371 . S
C459 H473 0.931 . S
C460 C456 1.328 . S
C460 C461 1.433 . S
C460 H474 0.931 . S
C461 C457 1.323 . S
C461 C460 1.433 . S
C461 H475 0.933 . S
C462 Dy440 2.738 . S
C462 O445 1.255 . S
C462 O446 1.249 . S
C462 C456 1.516 1_545 S
C463 O447 1.254 . S
C463 O448 1.257 . S
C464 O449 1.266 . S
C464 O450 1.236 . S
C465 C468 1.344 . S
C465 C469 1.328 . S
C465 C471 1.516 . S
C466 C467 1.304 . S
C466 C470 1.323 . S
C467 C466 1.304 . S
C467 C468 1.371 . S
C467 H476 0.930 . S
C468 C465 1.344 . S
C468 C467 1.371 . S
C468 H477 0.931 . S
C469 C465 1.328 . S
C469 C470 1.433 . S
C469 H478 0.931 . S
C470 C466 1.323 . S
C470 C469 1.433 . S
C470 H479 0.933 . S
C471 Dy441 2.738 . S
C471 O451 1.255 . S
C471 O452 1.249 . S
C471 C465 1.516 . S
H472 C458 0.930 . S
H473 C459 0.931 . S
H474 C460 0.931 . S
H475 C461 0.933 . S
H476 C467 0.930 . S
H477 C468 0.931 . S
H478 C469 0.931 . S
H479 C470 0.933 . S
H480 C488 0.950 . S
H481 C493 0.950 . S
H482 C490 0.950 . S
H483 C492 0.950 . S
H484 C494 0.950 . S
H485 C496 0.950 . S
H486 C498 0.950 . S
H487 C499 0.950 . S
C488 H480 0.950 . S
C488 C489 1.386 . S
C488 C490 1.391 . S
C489 C488 1.386 . S
C489 C493 1.393 . S
C490 H482 0.950 . S
C490 C488 1.391 . S
C490 C491 1.400 . S
C491 C490 1.400 . S
C491 C492 1.398 . S
C491 C497 1.491 1_565 S
C492 H483 0.950 . S
C492 C491 1.398 . S
C492 C493 1.391 . S
C493 H481 0.950 . S
C493 C489 1.393 . S
C493 C492 1.391 . S
C494 H484 0.950 . S
C494 C495 1.386 . S
C494 C496 1.391 . S
C495 C494 1.386 . S
C495 C499 1.393 . S
C496 H485 0.950 . S
C496 C494 1.391 . S
C496 C497 1.400 . S
C497 C491 1.491 1_545 S
C497 C496 1.400 . S
C497 C498 1.398 . S
C498 H486 0.950 . S
C498 C497 1.398 . S
C498 C499 1.391 . S
C499 H487 0.950 . S
C499 C495 1.393 . S
C499 C498 1.391 . S
H500 C508 0.950 . S
H501 C513 0.950 . S
H502 C510 0.950 . S
H503 C512 0.950 . S
H504 C514 0.950 . S
H505 C516 0.950 . S
H506 C518 0.950 . S
H507 C519 0.950 . S
C508 H500 0.950 . S
C508 C509 1.386 . S
C508 C510 1.391 . S
C509 C508 1.386 . S
C509 C513 1.393 . S
C510 H502 0.950 . S
C510 C508 1.391 . S
C510 C511 1.400 . S
C511 C510 1.400 . S
C511 C512 1.398 . S
C511 C517 1.491 . S
C512 H503 0.950 . S
C512 C511 1.398 . S
C512 C513 1.391 . S
C513 H501 0.950 . S
C513 C509 1.393 . S
C513 C512 1.391 . S
C514 H504 0.950 . S
C514 C515 1.386 . S
C514 C516 1.391 . S
C515 C514 1.386 . S
C515 C519 1.393 . S
C516 H505 0.950 . S
C516 C514 1.391 . S
C516 C517 1.400 . S
C517 C511 1.491 . S
C517 C516 1.400 . S
C517 C518 1.398 . S
C518 H506 0.950 . S
C518 C517 1.398 . S
C518 C519 1.391 . S
C519 H507 0.950 . S
C519 C515 1.393 . S
C519 C518 1.391 . S
H520 C528 0.950 . S
H521 C533 0.950 . S
H522 C530 0.950 . S
H523 C532 0.950 . S
H524 C534 0.950 . S
H525 C536 0.950 . S
H526 C538 0.950 . S
H527 C539 0.950 . S
C528 H520 0.950 . S
C528 C529 1.386 . S
C528 C530 1.391 . S
C529 C528 1.386 . S
C529 C533 1.393 . S
C530 H522 0.950 . S
C530 C528 1.391 . S
C530 C531 1.400 . S
C531 C530 1.400 . S
C531 C532 1.398 . S
C531 C537 1.491 1_655 S
C532 H523 0.950 . S
C532 C531 1.398 . S
C532 C533 1.391 . S
C533 H521 0.950 . S
C533 C529 1.393 . S
C533 C532 1.391 . S
C534 H524 0.950 . S
C534 C535 1.386 . S
C534 C536 1.391 . S
C535 C534 1.386 . S
C535 C539 1.393 . S
C536 H525 0.950 . S
C536 C534 1.391 . S
C536 C537 1.400 . S
C537 C531 1.491 1_455 S
C537 C536 1.400 . S
C537 C538 1.398 . S
C538 H526 0.950 . S
C538 C537 1.398 . S
C538 C539 1.391 . S
C539 H527 0.950 . S
C539 C535 1.393 . S
C539 C538 1.391 . S
H540 C548 0.950 . S
H541 C553 0.950 . S
H542 C550 0.950 . S
H543 C552 0.950 . S
H544 C554 0.950 . S
H545 C556 0.950 . S
H546 C558 0.950 . S
H547 C559 0.950 . S
C548 H540 0.950 . S
C548 C549 1.386 . S
C548 C550 1.391 . S
C549 C548 1.386 . S
C549 C553 1.393 . S
C550 H542 0.950 . S
C550 C548 1.391 . S
C550 C551 1.400 . S
C551 C550 1.400 . S
C551 C552 1.398 . S
C551 C557 1.491 1_565 S
C552 H543 0.950 . S
C552 C551 1.398 . S
C552 C553 1.391 . S
C553 H541 0.950 . S
C553 C549 1.393 . S
C553 C552 1.391 . S
C554 H544 0.950 . S
C554 C555 1.386 . S
C554 C556 1.391 . S
C555 C554 1.386 . S
C555 C559 1.393 . S
C556 H545 0.950 . S
C556 C554 1.391 . S
C556 C557 1.400 . S
C557 C551 1.491 1_545 S
C557 C556 1.400 . S
C557 C558 1.398 . S
C558 H546 0.950 . S
C558 C557 1.398 . S
C558 C559 1.391 . S
C559 H547 0.950 . S
C559 C555 1.393 . S
C559 C558 1.391 . S
H560 C568 0.950 . S
H561 C573 0.950 . S
H562 C570 0.950 . S
H563 C572 0.950 . S
H564 C574 0.950 . S
H565 C576 0.950 . S
H566 C578 0.950 . S
H567 C579 0.950 . S
C568 H560 0.950 . S
C568 C569 1.386 . S
C568 C570 1.391 . S
C569 C568 1.386 . S
C569 C573 1.393 . S
C570 H562 0.950 . S
C570 C568 1.391 . S
C570 C571 1.400 . S
C571 C570 1.400 . S
C571 C572 1.398 . S
C571 C577 1.491 . S
C572 H563 0.950 . S
C572 C571 1.398 . S
C572 C573 1.391 . S
C573 H561 0.950 . S
C573 C569 1.393 . S
C573 C572 1.391 . S
C574 H564 0.950 . S
C574 C575 1.386 . S
C574 C576 1.391 . S
C575 C574 1.386 . S
C575 C579 1.393 . S
C576 H565 0.950 . S
C576 C574 1.391 . S
C576 C577 1.400 . S
C577 C571 1.491 . S
C577 C576 1.400 . S
C577 C578 1.398 . S
C578 H566 0.950 . S
C578 C577 1.398 . S
C578 C579 1.391 . S
C579 H567 0.950 . S
C579 C575 1.393 . S
C579 C578 1.391 . S
H580 C588 0.950 . S
H581 C593 0.950 . S
H582 C590 0.950 . S
H583 C592 0.950 . S
H584 C594 0.950 . S
H585 C596 0.950 . S
H586 C598 0.950 . S
H587 C599 0.950 . S
C588 H580 0.950 . S
C588 C589 1.386 . S
C588 C590 1.391 . S
C589 C588 1.386 . S
C589 C593 1.393 . S
C590 H582 0.950 . S
C590 C588 1.391 . S
C590 C591 1.400 . S
C591 C590 1.400 . S
C591 C592 1.398 . S
C591 C597 1.491 1_655 S
C592 H583 0.950 . S
C592 C591 1.398 . S
C592 C593 1.391 . S
C593 H581 0.950 . S
C593 C589 1.393 . S
C593 C592 1.391 . S
C594 H584 0.950 . S
C594 C595 1.386 . S
C594 C596 1.391 . S
C595 C594 1.386 . S
C595 C599 1.393 . S
C596 H585 0.950 . S
C596 C594 1.391 . S
C596 C597 1.400 . S
C597 C591 1.491 1_455 S
C597 C596 1.400 . S
C597 C598 1.398 . S
C598 H586 0.950 . S
C598 C597 1.398 . S
C598 C599 1.391 . S
C599 H587 0.950 . S
C599 C595 1.393 . S
C599 C598 1.391 . S
H600 C608 0.950 . S
H601 C613 0.950 . S
H602 C610 0.950 . S
H603 C612 0.950 . S
H604 C614 0.950 . S
H605 C616 0.950 . S
H606 C618 0.950 . S
H607 C619 0.950 . S
C608 H600 0.950 . S
C608 C609 1.386 . S
C608 C610 1.391 . S
C609 C608 1.386 . S
C609 C613 1.393 . S
C610 H602 0.950 . S
C610 C608 1.391 . S
C610 C611 1.400 . S
C611 C610 1.400 . S
C611 C612 1.398 . S
C611 C617 1.491 1_455 S
C612 H603 0.950 . S
C612 C611 1.398 . S
C612 C613 1.391 . S
C613 H601 0.950 . S
C613 C609 1.393 . S
C613 C612 1.391 . S
C614 H604 0.950 . S
C614 C615 1.386 . S
C614 C616 1.391 . S
C615 C614 1.386 . S
C615 C619 1.393 . S
C616 H605 0.950 . S
C616 C614 1.391 . S
C616 C617 1.400 . S
C617 C611 1.491 1_655 S
C617 C616 1.400 . S
C617 C618 1.398 . S
C618 H606 0.950 . S
C618 C617 1.398 . S
C618 C619 1.391 . S
C619 H607 0.950 . S
C619 C615 1.393 . S
C619 C618 1.391 . S
H620 C628 0.950 . S
H621 C633 0.950 . S
H622 C630 0.950 . S
H623 C632 0.950 . S
H624 C634 0.950 . S
H625 C636 0.950 . S
H626 C638 0.950 . S
H627 C639 0.950 . S
C628 H620 0.950 . S
C628 C629 1.386 . S
C628 C630 1.391 . S
C629 C628 1.386 . S
C629 C633 1.393 . S
C630 H622 0.950 . S
C630 C628 1.391 . S
C630 C631 1.400 . S
C631 C630 1.400 . S
C631 C632 1.398 . S
C631 C637 1.491 1_565 S
C632 H623 0.950 . S
C632 C631 1.398 . S
C632 C633 1.391 . S
C633 H621 0.950 . S
C633 C629 1.393 . S
C633 C632 1.391 . S
C634 H624 0.950 . S
C634 C635 1.386 . S
C634 C636 1.391 . S
C635 C634 1.386 . S
C635 C639 1.393 . S
C636 H625 0.950 . S
C636 C634 1.391 . S
C636 C637 1.400 . S
C637 C631 1.491 1_545 S
C637 C636 1.400 . S
C637 C638 1.398 . S
C638 H626 0.950 . S
C638 C637 1.398 . S
C638 C639 1.391 . S
C639 H627 0.950 . S
C639 C635 1.393 . S
C639 C638 1.391 . S
H640 C648 0.950 . S
H641 C653 0.950 . S
H642 C650 0.950 . S
H643 C652 0.950 . S
H644 C654 0.950 . S
H645 C656 0.950 . S
H646 C658 0.950 . S
H647 C659 0.950 . S
C648 H640 0.950 . S
C648 C649 1.386 . S
C648 C650 1.391 . S
C649 C648 1.386 . S
C649 C653 1.393 . S
C650 H642 0.950 . S
C650 C648 1.391 . S
C650 C651 1.400 . S
C651 C650 1.400 . S
C651 C652 1.398 . S
C651 C657 1.491 . S
C652 H643 0.950 . S
C652 C651 1.398 . S
C652 C653 1.391 . S
C653 H641 0.950 . S
C653 C649 1.393 . S
C653 C652 1.391 . S
C654 H644 0.950 . S
C654 C655 1.386 . S
C654 C656 1.391 . S
C655 C654 1.386 . S
C655 C659 1.393 . S
C656 H645 0.950 . S
C656 C654 1.391 . S
C656 C657 1.400 . S
C657 C651 1.491 . S
C657 C656 1.400 . S
C657 C658 1.398 . S
C658 H646 0.950 . S
C658 C657 1.398 . S
C658 C659 1.391 . S
C659 H647 0.950 . S
C659 C655 1.393 . S
C659 C658 1.391 . S
H660 C668 0.950 . S
H661 C673 0.950 . S
H662 C670 0.950 . S
H663 C672 0.950 . S
H664 C674 0.950 . S
H665 C676 0.950 . S
H666 C678 0.950 . S
H667 C679 0.950 . S
C668 H660 0.950 . S
C668 C669 1.386 . S
C668 C670 1.391 . S
C669 C668 1.386 . S
C669 C673 1.393 . S
C670 H662 0.950 . S
C670 C668 1.391 . S
C670 C671 1.400 . S
C671 C670 1.400 . S
C671 C672 1.398 . S
C671 C677 1.491 1_455 S
C672 H663 0.950 . S
C672 C671 1.398 . S
C672 C673 1.391 . S
C673 H661 0.950 . S
C673 C669 1.393 . S
C673 C672 1.391 . S
C674 H664 0.950 . S
C674 C675 1.386 . S
C674 C676 1.391 . S
C675 C674 1.386 . S
C675 C679 1.393 . S
C676 H665 0.950 . S
C676 C674 1.391 . S
C676 C677 1.400 . S
C677 C671 1.491 1_655 S
C677 C676 1.400 . S
C677 C678 1.398 . S
C678 H666 0.950 . S
C678 C677 1.398 . S
C678 C679 1.391 . S
C679 H667 0.950 . S
C679 C675 1.393 . S
C679 C678 1.391 . S
H680 C688 0.950 . S
H681 C693 0.950 . S
H682 C690 0.950 . S
H683 C692 0.950 . S
H684 C694 0.950 . S
H685 C696 0.950 . S
H686 C698 0.950 . S
H687 C699 0.950 . S
C688 H680 0.950 . S
C688 C689 1.386 . S
C688 C690 1.391 . S
C689 C688 1.386 . S
C689 C693 1.393 . S
C690 H682 0.950 . S
C690 C688 1.391 . S
C690 C691 1.400 . S
C691 C690 1.400 . S
C691 C692 1.398 . S
C691 C697 1.491 1_545 S
C692 H683 0.950 . S
C692 C691 1.398 . S
C692 C693 1.391 . S
C693 H681 0.950 . S
C693 C689 1.393 . S
C693 C692 1.391 . S
C694 H684 0.950 . S
C694 C695 1.386 . S
C694 C696 1.391 . S
C695 C694 1.386 . S
C695 C699 1.393 . S
C696 H685 0.950 . S
C696 C694 1.391 . S
C696 C697 1.400 . S
C697 C691 1.491 1_565 S
C697 C696 1.400 . S
C697 C698 1.398 . S
C698 H686 0.950 . S
C698 C697 1.398 . S
C698 C699 1.391 . S
C699 H687 0.950 . S
C699 C695 1.393 . S
C699 C698 1.391 . S
H700 C708 0.950 . S
H701 C713 0.950 . S
H702 C710 0.950 . S
H703 C712 0.950 . S
H704 C714 0.950 . S
H705 C716 0.950 . S
H706 C718 0.950 . S
H707 C719 0.950 . S
C708 H700 0.950 . S
C708 C709 1.386 . S
C708 C710 1.391 . S
C709 C708 1.386 . S
C709 C713 1.393 . S
C710 H702 0.950 . S
C710 C708 1.391 . S
C710 C711 1.400 . S
C711 C710 1.400 . S
C711 C712 1.398 . S
C711 C717 1.491 . S
C712 H703 0.950 . S
C712 C711 1.398 . S
C712 C713 1.391 . S
C713 H701 0.950 . S
C713 C709 1.393 . S
C713 C712 1.391 . S
C714 H704 0.950 . S
C714 C715 1.386 . S
C714 C716 1.391 . S
C715 C714 1.386 . S
C715 C719 1.393 . S
C716 H705 0.950 . S
C716 C714 1.391 . S
C716 C717 1.400 . S
C717 C711 1.491 . S
C717 C716 1.400 . S
C717 C718 1.398 . S
C718 H706 0.950 . S
C718 C717 1.398 . S
C718 C719 1.391 . S
C719 H707 0.950 . S
C719 C715 1.393 . S
C719 C718 1.391 . S
H720 C728 0.950 . S
H721 C733 0.950 . S
H722 C730 0.950 . S
H723 C732 0.950 . S
H724 C734 0.950 . S
H725 C736 0.950 . S
H726 C738 0.950 . S
H727 C739 0.950 . S
C728 H720 0.950 . S
C728 C729 1.386 . S
C728 C730 1.391 . S
C729 C728 1.386 . S
C729 C733 1.393 . S
C730 H722 0.950 . S
C730 C728 1.391 . S
C730 C731 1.400 . S
C731 C730 1.400 . S
C731 C732 1.398 . S
C731 C737 1.491 . S
C732 H723 0.950 . S
C732 C731 1.398 . S
C732 C733 1.391 . S
C733 H721 0.950 . S
C733 C729 1.393 . S
C733 C732 1.391 . S
C734 H724 0.950 . S
C734 C735 1.386 . S
C734 C736 1.391 . S
C735 C734 1.386 . S
C735 C739 1.393 . S
C736 H725 0.950 . S
C736 C734 1.391 . S
C736 C737 1.400 . S
C737 C731 1.491 . S
C737 C736 1.400 . S
C737 C738 1.398 . S
C738 H726 0.950 . S
C738 C737 1.398 . S
C738 C739 1.391 . S
C739 H727 0.950 . S
C739 C735 1.393 . S
C739 C738 1.391 . S
H740 C748 0.950 . S
H741 C753 0.950 . S
H742 C750 0.950 . S
H743 C752 0.950 . S
H744 C754 0.950 . S
H745 C756 0.950 . S
H746 C758 0.950 . S
H747 C759 0.950 . S
C748 H740 0.950 . S
C748 C749 1.386 . S
C748 C750 1.391 . S
C749 C748 1.386 . S
C749 C753 1.393 . S
C750 H742 0.950 . S
C750 C748 1.391 . S
C750 C751 1.400 . S
C751 C750 1.400 . S
C751 C752 1.398 . S
C751 C757 1.491 . S
C752 H743 0.950 . S
C752 C751 1.398 . S
C752 C753 1.391 . S
C753 H741 0.950 . S
C753 C749 1.393 . S
C753 C752 1.391 . S
C754 H744 0.950 . S
C754 C755 1.386 . S
C754 C756 1.391 . S
C755 C754 1.386 . S
C755 C759 1.393 . S
C756 H745 0.950 . S
C756 C754 1.391 . S
C756 C757 1.400 . S
C757 C751 1.491 . S
C757 C756 1.400 . S
C757 C758 1.398 . S
C758 H746 0.950 . S
C758 C757 1.398 . S
C758 C759 1.391 . S
C759 H747 0.950 . S
C759 C755 1.393 . S
C759 C758 1.391 . S
H760 C768 0.950 . S
H761 C773 0.950 . S
H762 C770 0.950 . S
H763 C772 0.950 . S
H764 C774 0.950 . S
H765 C776 0.950 . S
H766 C778 0.950 . S
H767 C779 0.950 . S
C768 H760 0.950 . S
C768 C769 1.386 . S
C768 C770 1.391 . S
C769 C768 1.386 . S
C769 C773 1.393 . S
C770 H762 0.950 . S
C770 C768 1.391 . S
C770 C771 1.400 . S
C771 C770 1.400 . S
C771 C772 1.398 . S
C771 C777 1.491 . S
C772 H763 0.950 . S
C772 C771 1.398 . S
C772 C773 1.391 . S
C773 H761 0.950 . S
C773 C769 1.393 . S
C773 C772 1.391 . S
C774 H764 0.950 . S
C774 C775 1.386 . S
C774 C776 1.391 . S
C775 C774 1.386 . S
C775 C779 1.393 . S
C776 H765 0.950 . S
C776 C774 1.391 . S
C776 C777 1.400 . S
C777 C771 1.491 . S
C777 C776 1.400 . S
C777 C778 1.398 . S
C778 H766 0.950 . S
C778 C777 1.398 . S
C778 C779 1.391 . S
C779 H767 0.950 . S
C779 C775 1.393 . S
C779 C778 1.391 . S
H780 C788 0.950 . S
H781 C793 0.950 . S
H782 C790 0.950 . S
H783 C792 0.950 . S
H784 C794 0.950 . S
H785 C796 0.950 . S
H786 C798 0.950 . S
H787 C799 0.950 . S
C788 H780 0.950 . S
C788 C789 1.386 . S
C788 C790 1.391 . S
C789 C788 1.386 . S
C789 C793 1.393 . S
C790 H782 0.950 . S
C790 C788 1.391 . S
C790 C791 1.400 . S
C791 C790 1.400 . S
C791 C792 1.398 . S
C791 C797 1.491 . S
C792 H783 0.950 . S
C792 C791 1.398 . S
C792 C793 1.391 . S
C793 H781 0.950 . S
C793 C789 1.393 . S
C793 C792 1.391 . S
C794 H784 0.950 . S
C794 C795 1.386 . S
C794 C796 1.391 . S
C795 C794 1.386 . S
C795 C799 1.393 . S
C796 H785 0.950 . S
C796 C794 1.391 . S
C796 C797 1.400 . S
C797 C791 1.491 . S
C797 C796 1.400 . S
C797 C798 1.398 . S
C798 H786 0.950 . S
C798 C797 1.398 . S
C798 C799 1.391 . S
C799 H787 0.950 . S
C799 C795 1.393 . S
C799 C798 1.391 . S
H800 C808 0.950 . S
H801 C813 0.950 . S
H802 C810 0.950 . S
H803 C812 0.950 . S
H804 C814 0.950 . S
H805 C816 0.950 . S
H806 C818 0.950 . S
H807 C819 0.950 . S
C808 H800 0.950 . S
C808 C809 1.386 . S
C808 C810 1.391 . S
C809 C808 1.386 . S
C809 C813 1.393 . S
C810 H802 0.950 . S
C810 C808 1.391 . S
C810 C811 1.400 . S
C811 C810 1.400 . S
C811 C812 1.398 . S
C811 C817 1.491 . S
C812 H803 0.950 . S
C812 C811 1.398 . S
C812 C813 1.391 . S
C813 H801 0.950 . S
C813 C809 1.393 . S
C813 C812 1.391 . S
C814 H804 0.950 . S
C814 C815 1.386 . S
C814 C816 1.391 . S
C815 C814 1.386 . S
C815 C819 1.393 . S
C816 H805 0.950 . S
C816 C814 1.391 . S
C816 C817 1.400 . S
C817 C811 1.491 . S
C817 C816 1.400 . S
C817 C818 1.398 . S
C818 H806 0.950 . S
C818 C817 1.398 . S
C818 C819 1.391 . S
C819 H807 0.950 . S
C819 C815 1.393 . S
C819 C818 1.391 . S
H820 C828 0.950 . S
H821 C833 0.950 . S
H822 C830 0.950 . S
H823 C832 0.950 . S
H824 C834 0.950 . S
H825 C836 0.950 . S
H826 C838 0.950 . S
H827 C839 0.950 . S
C828 H820 0.950 . S
C828 C829 1.386 . S
C828 C830 1.391 . S
C829 C828 1.386 . S
C829 C833 1.393 . S
C830 H822 0.950 . S
C830 C828 1.391 . S
C830 C831 1.400 . S
C831 C830 1.400 . S
C831 C832 1.398 . S
C831 C837 1.491 . S
C832 H823 0.950 . S
C832 C831 1.398 . S
C832 C833 1.391 . S
C833 H821 0.950 . S
C833 C829 1.393 . S
C833 C832 1.391 . S
C834 H824 0.950 . S
C834 C835 1.386 . S
C834 C836 1.391 . S
C835 C834 1.386 . S
C835 C839 1.393 . S
C836 H825 0.950 . S
C836 C834 1.391 . S
C836 C837 1.400 . S
C837 C831 1.491 . S
C837 C836 1.400 . S
C837 C838 1.398 . S
C838 H826 0.950 . S
C838 C837 1.398 . S
C838 C839 1.391 . S
C839 H827 0.950 . S
C839 C835 1.393 . S
C839 C838 1.391 . S
H840 C848 0.950 . S
H841 C853 0.950 . S
H842 C850 0.950 . S
H843 C852 0.950 . S
H844 C854 0.950 . S
H845 C856 0.950 . S
H846 C858 0.950 . S
H847 C859 0.950 . S
C848 H840 0.950 . S
C848 C849 1.386 . S
C848 C850 1.391 . S
C849 C848 1.386 . S
C849 C853 1.393 . S
C850 H842 0.950 . S
C850 C848 1.391 . S
C850 C851 1.400 . S
C851 C850 1.400 . S
C851 C852 1.398 . S
C851 C857 1.491 . S
C852 H843 0.950 . S
C852 C851 1.398 . S
C852 C853 1.391 . S
C853 H841 0.950 . S
C853 C849 1.393 . S
C853 C852 1.391 . S
C854 H844 0.950 . S
C854 C855 1.386 . S
C854 C856 1.391 . S
C855 C854 1.386 . S
C855 C859 1.393 . S
C856 H845 0.950 . S
C856 C854 1.391 . S
C856 C857 1.400 . S
C857 C851 1.491 . S
C857 C856 1.400 . S
C857 C858 1.398 . S
C858 H846 0.950 . S
C858 C857 1.398 . S
C858 C859 1.391 . S
C859 H847 0.950 . S
C859 C855 1.393 . S
C859 C858 1.391 . S
H860 C868 0.950 . S
H861 C873 0.950 . S
H862 C870 0.950 . S
H863 C872 0.950 . S
H864 C874 0.950 . S
H865 C876 0.950 . S
H866 C878 0.950 . S
H867 C879 0.950 . S
C868 H860 0.950 . S
C868 C869 1.386 . S
C868 C870 1.391 . S
C869 C868 1.386 . S
C869 C873 1.393 . S
C870 H862 0.950 . S
C870 C868 1.391 . S
C870 C871 1.400 . S
C871 C870 1.400 . S
C871 C872 1.398 . S
C871 C877 1.491 . S
C872 H863 0.950 . S
C872 C871 1.398 . S
C872 C873 1.391 . S
C873 H861 0.950 . S
C873 C869 1.393 . S
C873 C872 1.391 . S
C874 H864 0.950 . S
C874 C875 1.386 . S
C874 C876 1.391 . S
C875 C874 1.386 . S
C875 C879 1.393 . S
C876 H865 0.950 . S
C876 C874 1.391 . S
C876 C877 1.400 . S
C877 C871 1.491 . S
C877 C876 1.400 . S
C877 C878 1.398 . S
C878 H866 0.950 . S
C878 C877 1.398 . S
C878 C879 1.391 . S
C879 H867 0.950 . S
C879 C875 1.393 . S
C879 C878 1.391 . S
H880 C888 0.950 . S
H881 C893 0.950 . S
H882 C890 0.950 . S
H883 C892 0.950 . S
H884 C894 0.950 . S
H885 C896 0.950 . S
H886 C898 0.950 . S
H887 C899 0.950 . S
C888 H880 0.950 . S
C888 C889 1.386 . S
C888 C890 1.391 . S
C889 C888 1.386 . S
C889 C893 1.393 . S
C890 H882 0.950 . S
C890 C888 1.391 . S
C890 C891 1.400 . S
C891 C890 1.400 . S
C891 C892 1.398 . S
C891 C897 1.491 . S
C892 H883 0.950 . S
C892 C891 1.398 . S
C892 C893 1.391 . S
C893 H881 0.950 . S
C893 C889 1.393 . S
C893 C892 1.391 . S
C894 H884 0.950 . S
C894 C895 1.386 . S
C894 C896 1.391 . S
C895 C894 1.386 . S
C895 C899 1.393 . S
C896 H885 0.950 . S
C896 C894 1.391 . S
C896 C897 1.400 . S
C897 C891 1.491 . S
C897 C896 1.400 . S
C897 C898 1.398 . S
C898 H886 0.950 . S
C898 C897 1.398 . S
C898 C899 1.391 . S
C899 H887 0.950 . S
C899 C895 1.393 . S
C899 C898 1.391 . S
H900 C908 0.950 . S
H901 C913 0.950 . S
H902 C910 0.950 . S
H903 C912 0.950 . S
H904 C914 0.950 . S
H905 C916 0.950 . S
H906 C918 0.950 . S
H907 C919 0.950 . S
C908 H900 0.950 . S
C908 C909 1.386 . S
C908 C910 1.391 . S
C909 C908 1.386 . S
C909 C913 1.393 . S
C910 H902 0.950 . S
C910 C908 1.391 . S
C910 C911 1.400 . S
C911 C910 1.400 . S
C911 C912 1.398 . S
C911 C917 1.491 . S
C912 H903 0.950 . S
C912 C911 1.398 . S
C912 C913 1.391 . S
C913 H901 0.950 . S
C913 C909 1.393 . S
C913 C912 1.391 . S
C914 H904 0.950 . S
C914 C915 1.386 . S
C914 C916 1.391 . S
C915 C914 1.386 . S
C915 C919 1.393 . S
C916 H905 0.950 . S
C916 C914 1.391 . S
C916 C917 1.400 . S
C917 C911 1.491 . S
C917 C916 1.400 . S
C917 C918 1.398 . S
C918 H906 0.950 . S
C918 C917 1.398 . S
C918 C919 1.391 . S
C919 H907 0.950 . S
C919 C915 1.393 . S
C919 C918 1.391 . S
H920 C928 0.950 . S
H921 C933 0.950 . S
H922 C930 0.950 . S
H923 C932 0.950 . S
H924 C934 0.950 . S
H925 C936 0.950 . S
H926 C938 0.950 . S
H927 C939 0.950 . S
C928 H920 0.950 . S
C928 C929 1.386 . S
C928 C930 1.391 . S
C929 C928 1.386 . S
C929 C933 1.393 . S
C930 H922 0.950 . S
C930 C928 1.391 . S
C930 C931 1.400 . S
C931 C930 1.400 . S
C931 C932 1.398 . S
C931 C937 1.491 . S
C932 H923 0.950 . S
C932 C931 1.398 . S
C932 C933 1.391 . S
C933 H921 0.950 . S
C933 C929 1.393 . S
C933 C932 1.391 . S
C934 H924 0.950 . S
C934 C935 1.386 . S
C934 C936 1.391 . S
C935 C934 1.386 . S
C935 C939 1.393 . S
C936 H925 0.950 . S
C936 C934 1.391 . S
C936 C937 1.400 . S
C937 C931 1.491 . S
C937 C936 1.400 . S
C937 C938 1.398 . S
C938 H926 0.950 . S
C938 C937 1.398 . S
C938 C939 1.391 . S
C939 H927 0.950 . S
C939 C935 1.393 . S
C939 C938 1.391 . S
H940 C948 0.950 . S
H941 C953 0.950 . S
H942 C950 0.950 . S
H943 C952 0.950 . S
H944 C954 0.950 . S
H945 C956 0.950 . S
H946 C958 0.950 . S
H947 C959 0.950 . S
C948 H940 0.950 . S
C948 C949 1.386 . S
C948 C950 1.391 . S
C949 C948 1.386 . S
C949 C953 1.393 . S
C950 H942 0.950 . S
C950 C948 1.391 . S
C950 C951 1.400 . S
C951 C950 1.400 . S
C951 C952 1.398 . S
C951 C957 1.491 . S
C952 H943 0.950 . S
C952 C951 1.398 . S
C952 C953 1.391 . S
C953 H941 0.950 . S
C953 C949 1.393 . S
C953 C952 1.391 . S
C954 H944 0.950 . S
C954 C955 1.386 . S
C954 C956 1.391 . S
C955 C954 1.386 . S
C955 C959 1.393 . S
C956 H945 0.950 . S
C956 C954 1.391 . S
C956 C957 1.400 . S
C957 C951 1.491 . S
C957 C956 1.400 . S
C957 C958 1.398 . S
C958 H946 0.950 . S
C958 C957 1.398 . S
C958 C959 1.391 . S
C959 H947 0.950 . S
C959 C955 1.393 . S
C959 C958 1.391 . S
H960 C968 0.950 . S
H961 C973 0.950 . S
H962 C970 0.950 . S
H963 C972 0.950 . S
H964 C974 0.950 . S
H965 C976 0.950 . S
H966 C978 0.950 . S
H967 C979 0.950 . S
C968 H960 0.950 . S
C968 C969 1.386 . S
C968 C970 1.391 . S
C969 C968 1.386 . S
C969 C973 1.393 . S
C970 H962 0.950 . S
C970 C968 1.391 . S
C970 C971 1.400 . S
C971 C970 1.400 . S
C971 C972 1.398 . S
C971 C977 1.491 . S
C972 H963 0.950 . S
C972 C971 1.398 . S
C972 C973 1.391 . S
C973 H961 0.950 . S
C973 C969 1.393 . S
C973 C972 1.391 . S
C974 H964 0.950 . S
C974 C975 1.386 . S
C974 C976 1.391 . S
C975 C974 1.386 . S
C975 C979 1.393 . S
C976 H965 0.950 . S
C976 C974 1.391 . S
C976 C977 1.400 . S
C977 C971 1.491 . S
C977 C976 1.400 . S
C977 C978 1.398 . S
C978 H966 0.950 . S
C978 C977 1.398 . S
C978 C979 1.391 . S
C979 H967 0.950 . S
C979 C975 1.393 . S
C979 C978 1.391 . S
H980 C988 0.950 . S
H981 C993 0.950 . S
H982 C990 0.950 . S
H983 C992 0.950 . S
H984 C994 0.950 . S
H985 C996 0.950 . S
H986 C998 0.950 . S
H987 C999 0.950 . S
C988 H980 0.950 . S
C988 C989 1.386 . S
C988 C990 1.391 . S
C989 C988 1.386 . S
C989 C993 1.393 . S
C990 H982 0.950 . S
C990 C988 1.391 . S
C990 C991 1.400 . S
C991 C990 1.400 . S
C991 C992 1.398 . S
C991 C997 1.491 . S
C992 H983 0.950 . S
C992 C991 1.398 . S
C992 C993 1.391 . S
C993 H981 0.950 . S
C993 C989 1.393 . S
C993 C992 1.391 . S
C994 H984 0.950 . S
C994 C995 1.386 . S
C994 C996 1.391 . S
C995 C994 1.386 . S
C995 C999 1.393 . S
C996 H985 0.950 . S
C996 C994 1.391 . S
C996 C997 1.400 . S
C997 C991 1.491 . S
C997 C996 1.400 . S
C997 C998 1.398 . S
C998 H986 0.950 . S
C998 C997 1.398 . S
C998 C999 1.391 . S
C999 H987 0.950 . S
C999 C995 1.393 . S
C999 C998 1.391 . S
H1000 C1008 0.950 . S
H1001 C1013 0.950 . S
H1002 C1010 0.950 . S
H1003 C1012 0.950 . S
H1004 C1014 0.950 . S
H1005 C1016 0.950 . S
H1006 C1018 0.950 . S
H1007 C1019 0.950 . S
C1008 H1000 0.950 . S
C1008 C1009 1.386 . S
C1008 C1010 1.391 . S
C1009 C1008 1.386 . S
C1009 C1013 1.393 . S
C1010 H1002 0.950 . S
C1010 C1008 1.391 . S
C1010 C1011 1.400 . S
C1011 C1010 1.400 . S
C1011 C1012 1.398 . S
C1011 C1017 1.491 . S
C1012 H1003 0.950 . S
C1012 C1011 1.398 . S
C1012 C1013 1.391 . S
C1013 H1001 0.950 . S
C1013 C1009 1.393 . S
C1013 C1012 1.391 . S
C1014 H1004 0.950 . S
C1014 C1015 1.386 . S
C1014 C1016 1.391 . S
C1015 C1014 1.386 . S
C1015 C1019 1.393 . S
C1016 H1005 0.950 . S
C1016 C1014 1.391 . S
C1016 C1017 1.400 . S
C1017 C1011 1.491 . S
C1017 C1016 1.400 . S
C1017 C1018 1.398 . S
C1018 H1006 0.950 . S
C1018 C1017 1.398 . S
C1018 C1019 1.391 . S
C1019 H1007 0.950 . S
C1019 C1015 1.393 . S
C1019 C1018 1.391 . S
H1020 C1028 0.950 . S
H1021 C1033 0.950 . S
H1022 C1030 0.950 . S
H1023 C1032 0.950 . S
H1024 C1034 0.950 . S
H1025 C1036 0.950 . S
H1026 C1038 0.950 . S
H1027 C1039 0.950 . S
C1028 H1020 0.950 . S
C1028 C1029 1.386 . S
C1028 C1030 1.391 . S
C1029 C1028 1.386 . S
C1029 C1033 1.393 . S
C1030 H1022 0.950 . S
C1030 C1028 1.391 . S
C1030 C1031 1.400 . S
C1031 C1030 1.400 . S
C1031 C1032 1.398 . S
C1031 C1037 1.491 . S
C1032 H1023 0.950 . S
C1032 C1031 1.398 . S
C1032 C1033 1.391 . S
C1033 H1021 0.950 . S
C1033 C1029 1.393 . S
C1033 C1032 1.391 . S
C1034 H1024 0.950 . S
C1034 C1035 1.386 . S
C1034 C1036 1.391 . S
C1035 C1034 1.386 . S
C1035 C1039 1.393 . S
C1036 H1025 0.950 . S
C1036 C1034 1.391 . S
C1036 C1037 1.400 . S
C1037 C1031 1.491 . S
C1037 C1036 1.400 . S
C1037 C1038 1.398 . S
C1038 H1026 0.950 . S
C1038 C1037 1.398 . S
C1038 C1039 1.391 . S
C1039 H1027 0.950 . S
C1039 C1035 1.393 . S
C1039 C1038 1.391 . S
H1040 C1048 0.950 . S
H1041 C1053 0.950 . S
H1042 C1050 0.950 . S
H1043 C1052 0.950 . S
H1044 C1054 0.950 . S
H1045 C1056 0.950 . S
H1046 C1058 0.950 . S
H1047 C1059 0.950 . S
C1048 H1040 0.950 . S
C1048 C1049 1.386 . S
C1048 C1050 1.391 . S
C1049 C1048 1.386 . S
C1049 C1053 1.393 . S
C1050 H1042 0.950 . S
C1050 C1048 1.391 . S
C1050 C1051 1.400 . S
C1051 C1050 1.400 . S
C1051 C1052 1.398 . S
C1051 C1057 1.491 . S
C1052 H1043 0.950 . S
C1052 C1051 1.398 . S
C1052 C1053 1.391 . S
C1053 H1041 0.950 . S
C1053 C1049 1.393 . S
C1053 C1052 1.391 . S
C1054 H1044 0.950 . S
C1054 C1055 1.386 . S
C1054 C1056 1.391 . S
C1055 C1054 1.386 . S
C1055 C1059 1.393 . S
C1056 H1045 0.950 . S
C1056 C1054 1.391 . S
C1056 C1057 1.400 . S
C1057 C1051 1.491 . S
C1057 C1056 1.400 . S
C1057 C1058 1.398 . S
C1058 H1046 0.950 . S
C1058 C1057 1.398 . S
C1058 C1059 1.391 . S
C1059 H1047 0.950 . S
C1059 C1055 1.393 . S
C1059 C1058 1.391 . S
H1060 C1068 0.950 . S
H1061 C1073 0.950 . S
H1062 C1070 0.950 . S
H1063 C1072 0.950 . S
H1064 C1074 0.950 . S
H1065 C1076 0.950 . S
H1066 C1078 0.950 . S
H1067 C1079 0.950 . S
C1068 H1060 0.950 . S
C1068 C1069 1.386 . S
C1068 C1070 1.391 . S
C1069 C1068 1.386 . S
C1069 C1073 1.393 . S
C1070 H1062 0.950 . S
C1070 C1068 1.391 . S
C1070 C1071 1.400 . S
C1071 C1070 1.400 . S
C1071 C1072 1.398 . S
C1071 C1077 1.491 . S
C1072 H1063 0.950 . S
C1072 C1071 1.398 . S
C1072 C1073 1.391 . S
C1073 H1061 0.950 . S
C1073 C1069 1.393 . S
C1073 C1072 1.391 . S
C1074 H1064 0.950 . S
C1074 C1075 1.386 . S
C1074 C1076 1.391 . S
C1075 C1074 1.386 . S
C1075 C1079 1.393 . S
C1076 H1065 0.950 . S
C1076 C1074 1.391 . S
C1076 C1077 1.400 . S
C1077 C1071 1.491 . S
C1077 C1076 1.400 . S
C1077 C1078 1.398 . S
C1078 H1066 0.950 . S
C1078 C1077 1.398 . S
C1078 C1079 1.391 . S
C1079 H1067 0.950 . S
C1079 C1075 1.393 . S
C1079 C1078 1.391 . S
H1080 C1088 0.950 . S
H1081 C1093 0.950 . S
H1082 C1090 0.950 . S
H1083 C1092 0.950 1_554 S
H1084 C1094 0.950 . S
H1085 C1096 0.950 . S
H1086 C1098 0.950 1_556 S
H1087 C1099 0.950 . S
C1088 H1080 0.950 . S
C1088 C1089 1.386 . S
C1088 C1090 1.391 . S
C1089 C1088 1.386 . S
C1089 C1093 1.393 . S
C1090 H1082 0.950 . S
C1090 C1088 1.391 . S
C1090 C1091 1.400 . S
C1091 C1090 1.400 . S
C1091 C1092 1.398 . S
C1091 C1097 1.491 1_556 S
C1092 H1083 0.950 1_556 S
C1092 C1091 1.398 . S
C1092 C1093 1.391 . S
C1093 H1081 0.950 . S
C1093 C1089 1.393 . S
C1093 C1092 1.391 . S
C1094 H1084 0.950 . S
C1094 C1095 1.386 . S
C1094 C1096 1.391 . S
C1095 C1094 1.386 . S
C1095 C1099 1.393 . S
C1096 H1085 0.950 . S
C1096 C1094 1.391 . S
C1096 C1097 1.400 . S
C1097 C1091 1.491 1_554 S
C1097 C1096 1.400 . S
C1097 C1098 1.398 . S
C1098 H1086 0.950 1_554 S
C1098 C1097 1.398 . S
C1098 C1099 1.391 . S
C1099 H1087 0.950 . S
C1099 C1095 1.393 . S
C1099 C1098 1.391 . S
H1100 C1108 0.950 . S
H1101 C1113 0.950 . S
H1102 C1110 0.950 . S
H1103 C1112 0.950 1_655 S
H1104 C1114 0.950 . S
H1105 C1116 0.950 . S
H1106 C1118 0.950 1_455 S
H1107 C1119 0.950 . S
C1108 H1100 0.950 . S
C1108 C1109 1.386 . S
C1108 C1110 1.391 . S
C1109 C1108 1.386 . S
C1109 C1113 1.393 . S
C1110 H1102 0.950 . S
C1110 C1108 1.391 . S
C1110 C1111 1.400 . S
C1111 C1110 1.400 . S
C1111 C1112 1.398 . S
C1111 C1117 1.491 1_455 S
C1112 H1103 0.950 1_455 S
C1112 C1111 1.398 . S
C1112 C1113 1.391 . S
C1113 H1101 0.950 . S
C1113 C1109 1.393 . S
C1113 C1112 1.391 . S
C1114 H1104 0.950 . S
C1114 C1115 1.386 . S
C1114 C1116 1.391 . S
C1115 C1114 1.386 . S
C1115 C1119 1.393 . S
C1116 H1105 0.950 . S
C1116 C1114 1.391 . S
C1116 C1117 1.400 . S
C1117 C1111 1.491 1_655 S
C1117 C1116 1.400 . S
C1117 C1118 1.398 . S
C1118 H1106 0.950 1_655 S
C1118 C1117 1.398 . S
C1118 C1119 1.391 . S
C1119 H1107 0.950 . S
C1119 C1115 1.393 . S
C1119 C1118 1.391 . S
H1120 C1128 0.950 . S
H1121 C1133 0.950 . S
H1122 C1130 0.950 1_556 S
H1123 C1132 0.950 1_545 S
H1124 C1134 0.950 . S
H1125 C1136 0.950 1_554 S
H1126 C1138 0.950 1_565 S
H1127 C1139 0.950 . S
C1128 H1120 0.950 . S
C1128 C1129 1.386 . S
C1128 C1130 1.391 . S
C1129 C1128 1.386 . S
C1129 C1133 1.393 . S
C1130 H1122 0.950 1_554 S
C1130 C1128 1.391 . S
C1130 C1131 1.400 . S
C1131 C1130 1.400 . S
C1131 C1132 1.398 . S
C1131 C1137 1.491 1_564 S
C1132 H1123 0.950 1_565 S
C1132 C1131 1.398 . S
C1132 C1133 1.391 . S
C1133 H1121 0.950 . S
C1133 C1129 1.393 . S
C1133 C1132 1.391 . S
C1134 H1124 0.950 . S
C1134 C1135 1.386 . S
C1134 C1136 1.391 . S
C1135 C1134 1.386 . S
C1135 C1139 1.393 . S
C1136 H1125 0.950 1_556 S
C1136 C1134 1.391 . S
C1136 C1137 1.400 . S
C1137 C1131 1.491 1_546 S
C1137 C1136 1.400 . S
C1137 C1138 1.398 . S
C1138 H1126 0.950 1_545 S
C1138 C1137 1.398 . S
C1138 C1139 1.391 . S
C1139 H1127 0.950 . S
C1139 C1135 1.393 . S
C1139 C1138 1.391 . S
H1140 C1148 0.950 . S
H1141 C1153 0.950 . S
H1142 C1150 0.950 . S
H1143 C1152 0.950 . S
H1144 C1154 0.950 . S
H1145 C1156 0.950 . S
H1146 C1158 0.950 . S
H1147 C1159 0.950 . S
C1148 H1140 0.950 . S
C1148 C1149 1.386 . S
C1148 C1150 1.391 . S
C1149 C1148 1.386 . S
C1149 C1153 1.393 . S
C1150 H1142 0.950 . S
C1150 C1148 1.391 . S
C1150 C1151 1.400 . S
C1151 C1150 1.400 . S
C1151 C1152 1.398 . S
C1151 C1157 1.491 . S
C1152 H1143 0.950 . S
C1152 C1151 1.398 . S
C1152 C1153 1.391 . S
C1153 H1141 0.950 . S
C1153 C1149 1.393 . S
C1153 C1152 1.391 . S
C1154 H1144 0.950 . S
C1154 C1155 1.386 . S
C1154 C1156 1.391 . S
C1155 C1154 1.386 . S
C1155 C1159 1.393 . S
C1156 H1145 0.950 . S
C1156 C1154 1.391 . S
C1156 C1157 1.400 . S
C1157 C1151 1.491 . S
C1157 C1156 1.400 . S
C1157 C1158 1.398 . S
C1158 H1146 0.950 . S
C1158 C1157 1.398 . S
C1158 C1159 1.391 . S
C1159 H1147 0.950 . S
C1159 C1155 1.393 . S
C1159 C1158 1.391 . S
H1160 C1168 0.950 . S
H1161 C1173 0.950 . S
H1162 C1170 0.950 1_455 S
H1163 C1172 0.950 . S
H1164 C1174 0.950 . S
H1165 C1176 0.950 1_655 S
H1166 C1178 0.950 . S
H1167 C1179 0.950 . S
C1168 H1160 0.950 . S
C1168 C1169 1.386 . S
C1168 C1170 1.391 . S
C1169 C1168 1.386 . S
C1169 C1173 1.393 . S
C1170 H1162 0.950 1_655 S
C1170 C1168 1.391 . S
C1170 C1171 1.400 . S
C1171 C1170 1.400 . S
C1171 C1172 1.398 1_556 S
C1171 C1177 1.491 1_656 S
C1172 H1163 0.950 . S
C1172 C1171 1.398 1_554 S
C1172 C1173 1.391 1_554 S
C1173 H1161 0.950 . S
C1173 C1169 1.393 . S
C1173 C1172 1.391 1_556 S
C1174 H1164 0.950 . S
C1174 C1175 1.386 . S
C1174 C1176 1.391 . S
C1175 C1174 1.386 . S
C1175 C1179 1.393 . S
C1176 H1165 0.950 1_455 S
C1176 C1174 1.391 . S
C1176 C1177 1.400 . S
C1177 C1171 1.491 1_454 S
C1177 C1176 1.400 . S
C1177 C1178 1.398 1_554 S
C1178 H1166 0.950 . S
C1178 C1177 1.398 1_556 S
C1178 C1179 1.391 1_556 S
C1179 H1167 0.950 . S
C1179 C1175 1.393 . S
C1179 C1178 1.391 1_554 S
H1180 C1188 0.950 . S
H1181 C1193 0.950 . S
H1182 C1190 0.950 . S
H1183 C1192 0.950 1_545 S
H1184 C1194 0.950 . S
H1185 C1196 0.950 . S
H1186 C1198 0.950 1_565 S
H1187 C1199 0.950 . S
C1188 H1180 0.950 . S
C1188 C1189 1.386 . S
C1188 C1190 1.391 . S
C1189 C1188 1.386 . S
C1189 C1193 1.393 . S
C1190 H1182 0.950 . S
C1190 C1188 1.391 . S
C1190 C1191 1.400 . S
C1191 C1190 1.400 . S
C1191 C1192 1.398 . S
C1191 C1197 1.491 1_565 S
C1192 H1183 0.950 1_565 S
C1192 C1191 1.398 . S
C1192 C1193 1.391 . S
C1193 H1181 0.950 . S
C1193 C1189 1.393 . S
C1193 C1192 1.391 . S
C1194 H1184 0.950 . S
C1194 C1195 1.386 . S
C1194 C1196 1.391 . S
C1195 C1194 1.386 . S
C1195 C1199 1.393 . S
C1196 H1185 0.950 . S
C1196 C1194 1.391 . S
C1196 C1197 1.400 . S
C1197 C1191 1.491 1_545 S
C1197 C1196 1.400 . S
C1197 C1198 1.398 . S
C1198 H1186 0.950 1_545 S
C1198 C1197 1.398 . S
C1198 C1199 1.391 . S
C1199 H1187 0.950 . S
C1199 C1195 1.393 . S
C1199 C1198 1.391 . S
C489 C184 1.226 . S
C495 C17 1.228 . S
C509 C224 1.204 . S
C515 C57 1.207 . S
C529 C97 1.222 . S
C535 C24 1.220 . S
C549 C137 1.209 . S
C555 C64 1.206 . S
C569 C177 1.231 . S
C575 C104 1.229 . S
C589 C144 1.227 . S
C595 C217 1.229 . S
C609 C344 1.212 . S
C615 C257 1.215 . S
C629 C297 1.217 . S
C635 C384 1.214 . S
C649 C424 1.225 . S
C655 C337 1.228 . S
C669 C377 1.218 . S
C675 C464 1.216 . S
C689 C417 1.225 . S
C695 C264 1.222 . S
C709 C304 1.212 . S
C715 C457 1.215 . S
C729 C173 1.548 . S
C735 C26 1.548 . S
C749 C66 1.565 . S
C755 C213 1.565 . S
C769 C106 1.556 . S
C775 C13 1.555 . S
C789 C146 1.559 . S
C795 C53 1.558 . S
C809 C93 1.562 . S
C815 C186 1.563 . S
C829 C133 1.548 . S
C835 C226 1.550 . S
C849 C333 1.551 . S
C855 C266 1.551 . S
C869 C306 1.550 . S
C875 C373 1.550 . S
C889 C346 1.563 . S
C895 C413 1.562 . S
C909 C453 1.546 . S
C915 C386 1.547 . S
C929 C426 1.553 . S
C935 C253 1.552 . S
C949 C293 1.551 . S
C955 C466 1.552 . S
C969 C423 1.656 . S
C975 C23 1.662 . S
C989 C63 1.682 . S
C995 C463 1.673 . S
C1009 C103 1.674 . S
C1015 C263 1.656 . S
C1029 C143 1.683 . S
C1035 C303 1.667 . S
C1049 C183 1.658 . S
C1055 C343 1.677 . S
C1069 C383 1.678 . S
C1075 C223 1.680 . S
C1089 C362 2.206 . S
C1095 C2 2.203 . S
C1109 C402 2.208 . S
C1115 C42 2.212 . S
C1129 C82 2.203 . S
C1135 C442 2.207 . S
C1149 C122 2.205 . S
C1155 C242 2.210 . S
C1169 C282 2.212 . S
C1175 C162 2.208 . S
C1189 C322 2.206 . S
C1195 C202 2.211 . S
