# Generated by pormake.
# Topology wjz, (5)-cn, num edge types: 1
# Building blocks:
#     Node 0, Type 0, BuildingBlock: XOMCOT_clean_sbu_0, # of connection points: 5
#     Node 1, Type 0, BuildingBlock: XOMCOT_clean_sbu_0, # of connection points: 5
#     Node 2, Type 0, BuildingBlock: XOMCOT_clean_sbu_0, # of connection points: 5
#     Node 3, Type 0, BuildingBlock: XOMCOT_clean_sbu_0, # of connection points: 5
#     Node 4, Type 0, BuildingBlock: XOMCOT_clean_sbu_0, # of connection points: 5
#     Node 5, Type 0, BuildingBlock: XOMCOT_clean_sbu_0, # of connection points: 5
#     Node 6, Type 0, BuildingBlock: XOMCOT_clean_sbu_0, # of connection points: 5
#     Node 7, Type 0, BuildingBlock: XOMCOT_clean_sbu_0, # of connection points: 5
#     Node 8, Type 0, BuildingBlock: XOMCOT_clean_sbu_0, # of connection points: 5
#     Node 9, Type 0, BuildingBlock: XOMCOT_clean_sbu_0, # of connection points: 5
#     Node 10, Type 0, BuildingBlock: XOMCOT_clean_sbu_0, # of connection points: 5
#     Node 11, Type 0, BuildingBlock: XOMCOT_clean_sbu_0, # of connection points: 5
#     Edge 12, Type (0, 0), BuildingBlock: XIVTED_clean_linker_0, # of connection points: 2
#     Edge 13, Type (0, 0), BuildingBlock: XIVTED_clean_linker_0, # of connection points: 2
#     Edge 14, Type (0, 0), BuildingBlock: XIVTED_clean_linker_0, # of connection points: 2
#     Edge 15, Type (0, 0), BuildingBlock: XIVTED_clean_linker_0, # of connection points: 2
#     Edge 16, Type (0, 0), BuildingBlock: XIVTED_clean_linker_0, # of connection points: 2
#     Edge 17, Type (0, 0), BuildingBlock: XIVTED_clean_linker_0, # of connection points: 2
#     Edge 18, Type (0, 0), BuildingBlock: XIVTED_clean_linker_0, # of connection points: 2
#     Edge 19, Type (0, 0), BuildingBlock: XIVTED_clean_linker_0, # of connection points: 2
#     Edge 20, Type (0, 0), BuildingBlock: XIVTED_clean_linker_0, # of connection points: 2
#     Edge 21, Type (0, 0), BuildingBlock: XIVTED_clean_linker_0, # of connection points: 2
#     Edge 22, Type (0, 0), BuildingBlock: XIVTED_clean_linker_0, # of connection points: 2
#     Edge 23, Type (0, 0), BuildingBlock: XIVTED_clean_linker_0, # of connection points: 2
#     Edge 24, Type (0, 0), BuildingBlock: XIVTED_clean_linker_0, # of connection points: 2
#     Edge 25, Type (0, 0), BuildingBlock: XIVTED_clean_linker_0, # of connection points: 2
#     Edge 26, Type (0, 0), BuildingBlock: XIVTED_clean_linker_0, # of connection points: 2
#     Edge 27, Type (0, 0), BuildingBlock: XIVTED_clean_linker_0, # of connection points: 2
#     Edge 28, Type (0, 0), BuildingBlock: XIVTED_clean_linker_0, # of connection points: 2
#     Edge 29, Type (0, 0), BuildingBlock: XIVTED_clean_linker_0, # of connection points: 2
#     Edge 30, Type (0, 0), BuildingBlock: XIVTED_clean_linker_0, # of connection points: 2
#     Edge 31, Type (0, 0), BuildingBlock: XIVTED_clean_linker_0, # of connection points: 2
#     Edge 32, Type (0, 0), BuildingBlock: XIVTED_clean_linker_0, # of connection points: 2
#     Edge 33, Type (0, 0), BuildingBlock: XIVTED_clean_linker_0, # of connection points: 2
#     Edge 34, Type (0, 0), BuildingBlock: XIVTED_clean_linker_0, # of connection points: 2
#     Edge 35, Type (0, 0), BuildingBlock: XIVTED_clean_linker_0, # of connection points: 2
#     Edge 36, Type (0, 0), BuildingBlock: XIVTED_clean_linker_0, # of connection points: 2
#     Edge 37, Type (0, 0), BuildingBlock: XIVTED_clean_linker_0, # of connection points: 2
#     Edge 38, Type (0, 0), BuildingBlock: XIVTED_clean_linker_0, # of connection points: 2
#     Edge 39, Type (0, 0), BuildingBlock: XIVTED_clean_linker_0, # of connection points: 2
#     Edge 40, Type (0, 0), BuildingBlock: XIVTED_clean_linker_0, # of connection points: 2
#     Edge 41, Type (0, 0), BuildingBlock: XIVTED_clean_linker_0, # of connection points: 2
# Relax obj value: 0.149
# Max RMSD: 0.180
# Mean RMSD: 0.180
data_MOF--net-wjz--node1-XOMCOT_clean_sbu_0--edge1-XIVTED_clean_linker_0
_symmetry_space_group_name_H-M    P1
_symmetry_Int_Tables_number       1
_symmetry_cell_setting            triclinic
loop_
_symmetry_equiv_pos_as_xyz
'x, y, z'
_cell_length_a     73.809287
_cell_length_b     73.709251
_cell_length_c     17.656456
_cell_angle_alpha  90.001
_cell_angle_beta   89.999416
_cell_angle_gamma 120.0291
loop_
_atom_site_label
_atom_site_type_symbol
_atom_site_fract_x
_atom_site_fract_y
_atom_site_fract_z
_atom_type_partial_charge
Co0 Co 0.32365 0.47608 0.09891 0.0
C1 C 0.32841 0.47877 0.26703 0.0
C2 C 0.34474 0.50884 0.21375 0.0
C3 C 0.34643 0.51172 0.29091 0.0
N4 N 0.33389 0.48811 0.19852 0.0
N5 N 0.33613 0.49276 0.32428 0.0
H6 H 0.31763 0.46236 0.27563 0.0
H7 H 0.35033 0.52111 0.17159 0.0
C8 C 0.36932 0.5043 0.07785 0.0
O9 O 0.37204 0.49565 0.13869 0.0
N10 N 0.31318 0.4646 1.00016 0.0
C11 C 0.2996 0.44439 0.98379 0.0
C12 C 0.29737 0.44232 0.90637 0.0
C13 C 0.31892 0.4746 0.93313 0.0
N14 N 0.30957 0.46132 0.87469 0.0
C15 C 0.32463 0.44058 0.16127 0.0
C16 C 0.35514 0.44239 0.06594 0.0
C17 C 0.34761 0.42762 0.12467 0.0
C18 C 0.33168 0.42639 0.17121 0.0
C19 C 0.34755 0.45622 0.05797 0.0
N20 N 0.33364 0.45626 0.10898 0.0
H21 H 0.31151 0.43851 0.19445 0.0
H22 H 0.35297 0.46694 0.0107 0.0
H23 H 0.29225 0.43197 0.02519 0.0
H24 H 0.33028 0.49108 0.92715 0.0
O25 O 0.29609 0.45911 0.14022 0.0
O26 O 0.30881 0.49141 0.09547 0.0
O27 O 0.35088 0.49805 0.05276 0.0
C28 C 0.29346 0.47501 0.1277 0.0
H29 H 0.3542 0.52665 0.31996 0.0
H30 H 0.28765 0.42791 0.87585 0.0
H31 H 0.36707 0.44357 0.02722 0.0
H32 H 0.32453 0.41442 0.21442 0.0
Co33 Co 0.84258 0.32692 0.2596 0.0
C34 C 0.84372 0.33104 0.42535 0.0
C35 C 0.83113 0.34869 0.37336 0.0
C36 C 0.83017 0.35021 0.45092 0.0
N37 N 0.83965 0.3367 0.35772 0.0
N38 N 0.83803 0.33903 0.48354 0.0
H39 H 0.84993 0.32058 0.43146 0.0
H40 H 0.82548 0.35538 0.33148 0.0
C41 C 0.86127 0.3657 0.16593 0.0
O42 O 0.87527 0.36085 0.14295 0.0
N43 N 0.84464 0.31651 0.16011 0.0
C44 C 0.84875 0.30103 0.14351 0.0
C45 C 0.84764 0.29806 0.06634 0.0
C46 C 0.83967 0.32161 0.09272 0.0
N47 N 0.84208 0.31115 0.03441 0.0
C48 C 0.88124 0.32674 0.28162 0.0
C49 C 0.90502 0.36872 0.31792 0.0
C50 C 0.91474 0.35658 0.31452 0.0
C51 C 0.9025 0.33523 0.29735 0.0
C52 C 0.88376 0.35958 0.30197 0.0
N53 N 0.87236 0.33911 0.27969 0.0
H54 H 0.87189 0.3101 0.27379 0.0
H55 H 0.87645 0.36906 0.30755 0.0
H56 H 0.85137 0.29165 0.18405 0.0
H57 H 0.83438 0.33279 0.08624 0.0
O58 O 0.83295 0.29961 0.30207 0.0
O59 O 0.81255 0.31069 0.25205 0.0
O60 O 0.84698 0.35378 0.21255 0.0
C61 C 0.81419 0.29594 0.28648 0.0
H62 H 0.82394 0.35872 0.48073 0.0
H63 H 0.85019 0.28673 0.03632 0.0
H64 H 0.91375 0.38523 0.33204 0.0
H65 H 0.90917 0.32506 0.29775 0.0
Co66 Co 0.51226 0.84549 0.43207 0.0
C67 C 0.50909 0.84686 0.60047 0.0
C68 C 0.47921 0.83322 0.54618 0.0
C69 C 0.47612 0.83173 0.62327 0.0
N70 N 0.49994 0.84324 0.5316 0.0
N71 N 0.49496 0.84032 0.65734 0.0
H72 H 0.52547 0.85253 0.60951 0.0
H73 H 0.46705 0.82665 0.50361 0.0
C74 C 0.48355 0.86238 0.41012 0.0
O75 O 0.49172 0.87364 0.47156 0.0
N76 N 0.52404 0.84697 0.33338 0.0
C77 C 0.54431 0.85387 0.31769 0.0
C78 C 0.54665 0.85405 0.24031 0.0
C79 C 0.51427 0.84291 0.26585 0.0
N80 N 0.52776 0.84722 0.20783 0.0
C81 C 0.54715 0.8821 0.49643 0.0
C82 C 0.54517 0.91084 0.40161 0.0
C83 C 0.55979 0.9181 0.46081 0.0
C84 C 0.56108 0.90338 0.5072 0.0
C85 C 0.53161 0.88938 0.39281 0.0
N86 N 0.53166 0.87538 0.44344 0.0
H87 H 0.5493 0.87107 0.52946 0.0
H88 H 0.52105 0.88408 0.34511 0.0
H89 H 0.55659 0.85889 0.35956 0.0
H90 H 0.49779 0.83762 0.25927 0.0
O91 O 0.52942 0.83514 0.4734 0.0
O92 O 0.49733 0.81531 0.42748 0.0
O93 O 0.49018 0.85045 0.38545 0.0
C94 C 0.51374 0.81652 0.4601 0.0
H95 H 0.46113 0.82443 0.65175 0.0
H96 H 0.56118 0.85898 0.21039 0.0
H97 H 0.54395 0.92159 0.36302 0.0
H98 H 0.57294 0.90824 0.55079 0.0
Co99 Co 0.66339 0.51554 0.59363 0.0
C100 C 0.65922 0.51256 0.75939 0.0
C101 C 0.64142 0.48231 0.70736 0.0
C102 C 0.63989 0.47983 0.78493 0.0
N103 N 0.65351 0.50283 0.69174 0.0
N104 N 0.65116 0.49888 0.81758 0.0
H105 H 0.66976 0.52923 0.76552 0.0
H106 H 0.63468 0.46997 0.66547 0.0
C107 C 0.62471 0.49576 0.49976 0.0
O108 O 0.62973 0.51468 0.47696 0.0
N109 N 0.67389 0.528 0.49417 0.0
C110 C 0.68947 0.54754 0.47758 0.0
C111 C 0.69245 0.54938 0.4004 0.0
C112 C 0.66874 0.51791 0.42678 0.0
N113 N 0.67927 0.53075 0.36846 0.0
C114 C 0.66383 0.55457 0.61551 0.0
C115 C 0.62199 0.53654 0.65291 0.0
C116 C 0.63422 0.55842 0.64981 0.0
C117 C 0.65549 0.56744 0.63191 0.0
C118 C 0.63097 0.52432 0.63622 0.0
N119 N 0.65138 0.5333 0.61361 0.0
H120 H 0.68042 0.56178 0.60728 0.0
H121 H 0.62142 0.50751 0.64167 0.0
H122 H 0.6989 0.55951 0.51814 0.0
H123 H 0.65748 0.50145 0.42029 0.0
O124 O 0.69064 0.5331 0.63634 0.0
O125 O 0.67946 0.50155 0.58634 0.0
O126 O 0.63651 0.4932 0.54637 0.0
C127 C 0.6942 0.51791 0.62099 0.0
H128 H 0.63132 0.46508 0.81472 0.0
H129 H 0.70385 0.56323 0.3704 0.0
H130 H 0.60554 0.52885 0.66751 0.0
H131 H 0.66572 0.58429 0.63238 0.0
Co132 Co 0.14352 0.66633 0.76428 0.0
C133 C 0.14144 0.66202 0.93224 0.0
C134 C 0.1531 0.64375 0.87981 0.0
C135 C 0.15462 0.64248 0.95694 0.0
N136 N 0.14419 0.65547 0.86401 0.0
N137 N 0.14737 0.65408 0.98973 0.0
H138 H 0.13662 0.67347 0.94014 0.0
H139 H 0.15936 0.63761 0.83813 0.0
C140 C 0.12615 0.62082 0.7389 0.0
O141 O 0.11389 0.61777 0.79729 0.0
N142 N 0.14377 0.67747 0.66563 0.0
C143 C 0.13732 0.69109 0.64785 0.0
C144 C 0.13835 0.69363 0.57043 0.0
C145 C 0.14876 0.67199 0.59956 0.0
N146 N 0.14543 0.68151 0.54023 0.0
C147 C 0.10548 0.66285 0.823 0.0
C148 C 0.07917 0.63413 0.71712 0.0
C149 C 0.07049 0.63953 0.77745 0.0
C150 C 0.08393 0.65468 0.82928 0.0
C151 C 0.10078 0.64284 0.71274 0.0
N152 N 0.11353 0.65574 0.7687 0.0
H153 H 0.1156 0.6751 0.86122 0.0
H154 H 0.10723 0.63889 0.66483 0.0
H155 H 0.13157 0.69808 0.68812 0.0
H156 H 0.15437 0.66101 0.59503 0.0
O157 O 0.15312 0.69355 0.80757 0.0
O158 O 0.17366 0.68158 0.76641 0.0
O159 O 0.13909 0.63946 0.71697 0.0
C160 C 0.17191 0.69655 0.79852 0.0
H161 H 0.16179 0.63478 0.98634 0.0
H162 H 0.13338 0.70295 0.53875 0.0
H163 H 0.06932 0.62317 0.67395 0.0
H164 H 0.07786 0.65979 0.87533 0.0
Co165 Co 0.47487 0.14662 0.93005 0.0
C166 C 0.47715 0.14433 0.09789 0.0
C167 C 0.50636 0.15249 0.04561 0.0
C168 C 0.50903 0.15348 0.12295 0.0
N169 N 0.48614 0.14607 0.02951 0.0
N170 N 0.49059 0.14832 0.15571 0.0
H171 H 0.4617 0.14216 0.10573 0.0
H172 H 0.51875 0.15738 0.00433 0.0
C173 C 0.50184 0.12817 0.89427 0.0
O174 O 0.49232 0.11428 0.94816 0.0
N175 N 0.46412 0.14791 0.83179 0.0
C176 C 0.4443 0.14281 0.81572 0.0
C177 C 0.44236 0.14366 0.73845 0.0
C178 C 0.47404 0.15194 0.7645 0.0
N179 N 0.46105 0.14929 0.70629 0.0
C180 C 0.44063 0.10873 0.98997 0.0
C181 C 0.44015 0.08238 0.8777 0.0
C182 C 0.42721 0.07377 0.94104 0.0
C183 C 0.42701 0.08726 0.99635 0.0
C184 C 0.45368 0.10401 0.87402 0.0
N185 N 0.45484 0.11672 0.93253 0.0
H186 H 0.4395 0.11885 0.03099 0.0
H187 H 0.46364 0.11046 0.82497 0.0
H188 H 0.43194 0.1381 0.8571 0.0
H189 H 0.49013 0.15576 0.758 0.0
O190 O 0.45785 0.15657 0.97565 0.0
O191 O 0.49047 0.17677 0.93489 0.0
O192 O 0.4968 0.14206 0.88014 0.0
C193 C 0.47395 0.17526 0.9676 0.0
H194 H 0.52359 0.15831 0.15248 0.0
H195 H 0.42817 0.14003 0.70836 0.0
H196 H 0.4404 0.07248 0.83287 0.0
H197 H 0.41647 0.08123 0.04432 0.0
Co198 Co 0.51257 0.66515 0.74051 0.0
C199 C 0.50991 0.66061 0.57451 0.0
C200 C 0.47991 0.64161 0.62675 0.0
C201 C 0.47742 0.63985 0.54925 0.0
N202 N 0.50029 0.65456 0.64229 0.0
N203 N 0.49627 0.65192 0.51653 0.0
H204 H 0.52648 0.6715 0.568 0.0
H205 H 0.4676 0.63457 0.6686 0.0
C206 C 0.49272 0.62691 0.83739 0.0
O207 O 0.51156 0.63222 0.86187 0.0
N208 N 0.52453 0.67632 0.84007 0.0
C209 C 0.54387 0.69216 0.85722 0.0
C210 C 0.54539 0.69527 0.9344 0.0
C211 C 0.51423 0.67114 0.90698 0.0
N212 N 0.52676 0.68182 0.96575 0.0
C213 C 0.55188 0.66591 0.72509 0.0
C214 C 0.53448 0.62358 0.69641 0.0
C215 C 0.5562 0.63592 0.70421 0.0
C216 C 0.56498 0.65748 0.71625 0.0
C217 C 0.52203 0.6327 0.70499 0.0
N218 N 0.53065 0.65332 0.72469 0.0
H219 H 0.55889 0.68259 0.73077 0.0
H220 H 0.50534 0.62303 0.697 0.0
H221 H 0.556 0.70152 0.81705 0.0
H222 H 0.49773 0.66002 0.91267 0.0
O223 O 0.53008 0.69223 0.69631 0.0
O224 O 0.4983 0.68099 0.74384 0.0
O225 O 0.49025 0.63838 0.78886 0.0
C226 C 0.51473 0.69569 0.70938 0.0
H227 H 0.4627 0.63113 0.51942 0.0
H228 H 0.55924 0.70646 0.96487 0.0
H229 H 0.52715 0.60702 0.68354 0.0
H230 H 0.58178 0.66768 0.71995 0.0
Co231 Co 0.84388 0.51752 0.90679 0.0
C232 C 0.84548 0.51454 0.73834 0.0
C233 C 0.83176 0.48458 0.79234 0.0
C234 C 0.83025 0.48153 0.71528 0.0
N235 N 0.84187 0.50533 0.80713 0.0
N236 N 0.83888 0.50042 0.68138 0.0
H237 H 0.85113 0.53096 0.72949 0.0
H238 H 0.82509 0.47237 0.83475 0.0
C239 C 0.86047 0.48863 0.92829 0.0
O240 O 0.87196 0.49727 0.86768 0.0
N241 N 0.84508 0.52918 0.0055 0.0
C242 C 0.85186 0.54946 0.0211 0.0
C243 C 0.85198 0.55182 0.09842 0.0
C244 C 0.84102 0.51941 0.07304 0.0
N245 N 0.84523 0.53293 0.13097 0.0
C246 C 0.88122 0.55208 0.84401 0.0
C247 C 0.90886 0.54911 0.94166 0.0
C248 C 0.91674 0.56342 0.88169 0.0
C249 C 0.90267 0.56541 0.83415 0.0
C250 C 0.88731 0.53628 0.94981 0.0
N251 N 0.87384 0.53665 0.8975 0.0
H252 H 0.87063 0.55447 0.80931 0.0
H253 H 0.8815 0.52585 0.99788 0.0
H254 H 0.85689 0.56176 0.97921 0.0
H255 H 0.83586 0.50294 0.07973 0.0
O256 O 0.8341 0.5351 0.86484 0.0
O257 O 0.81374 0.5029 0.90944 0.0
O258 O 0.84838 0.49504 0.95323 0.0
C259 C 0.81534 0.5195 0.87675 0.0
H260 H 0.82286 0.46654 0.68671 0.0
H261 H 0.85684 0.56636 0.12828 0.0
H262 H 0.91926 0.54783 0.98181 0.0
H263 H 0.90815 0.57683 0.78876 0.0
Co264 Co 0.32477 0.84673 0.06856 0.0
C265 C 0.32862 0.84701 0.90263 0.0
C266 C 0.34637 0.83471 0.95579 0.0
C267 C 0.34783 0.83345 0.87828 0.0
N268 N 0.33435 0.84325 0.9707 0.0
N269 N 0.33659 0.84114 0.84487 0.0
H270 H 0.31817 0.85322 0.8959 0.0
H271 H 0.35317 0.82932 0.99817 0.0
C272 C 0.36322 0.86596 0.1636 0.0
O273 O 0.35803 0.87981 0.18542 0.0
N274 N 0.3146 0.84944 0.16777 0.0
C275 C 0.30019 0.85502 0.18404 0.0
C276 C 0.2973 0.85426 0.26122 0.0
C277 C 0.3192 0.8441 0.23549 0.0
N278 N 0.30944 0.84758 0.29371 0.0
C279 C 0.32394 0.88472 0.03755 0.0
C280 C 0.36635 0.90932 0.01053 0.0
C281 C 0.3538 0.91856 0.00955 0.0
C282 C 0.33223 0.90593 0.02075 0.0
C283 C 0.35734 0.88804 0.02624 0.0
N284 N 0.33667 0.87634 0.04538 0.0
H285 H 0.30724 0.87502 0.04215 0.0
H286 H 0.3671 0.88099 0.0232 0.0
H287 H 0.29156 0.85862 0.14341 0.0
H288 H 0.32972 0.838 0.24217 0.0
O289 O 0.29734 0.83655 0.02678 0.0
O290 O 0.30879 0.8167 0.07906 0.0
O291 O 0.35175 0.85164 0.11618 0.0
C292 C 0.29387 0.81795 0.04438 0.0
H293 H 0.35638 0.82718 0.84906 0.0
H294 H 0.28672 0.85796 0.29086 0.0
H295 H 0.38296 0.91845 0.99863 0.0
H296 H 0.32194 0.91242 0.01756 0.0
Co297 Co 0.47351 0.32661 0.24041 0.0
C298 C 0.47659 0.33068 0.07192 0.0
C299 C 0.50644 0.34752 0.12622 0.0
C300 C 0.50956 0.34893 0.0492 0.0
N301 N 0.4857 0.33658 0.14073 0.0
N302 N 0.49075 0.33825 0.01521 0.0
H303 H 0.46016 0.32021 0.06286 0.0
H304 H 0.51858 0.35325 0.16884 0.0
C305 C 0.50181 0.37237 0.26079 0.0
O306 O 0.49328 0.37507 0.19961 0.0
N307 N 0.46196 0.31644 0.33929 0.0
C308 C 0.44175 0.30315 0.35614 0.0
C309 C 0.43987 0.30071 0.43355 0.0
C310 C 0.47215 0.32185 0.40598 0.0
N311 N 0.45899 0.31254 0.46477 0.0
C312 C 0.43836 0.3278 0.17623 0.0
C313 C 0.43999 0.35834 0.27119 0.0
C314 C 0.42533 0.35079 0.21217 0.0
C315 C 0.42422 0.33487 0.16572 0.0
C316 C 0.45378 0.35074 0.27972 0.0
N317 N 0.45388 0.33677 0.22902 0.0
H318 H 0.43635 0.31466 0.14321 0.0
H319 H 0.4644 0.35615 0.32727 0.0
H320 H 0.42921 0.29613 0.31511 0.0
H321 H 0.48881 0.33245 0.41121 0.0
O322 O 0.45645 0.29894 0.19997 0.0
O323 O 0.48865 0.31159 0.24524 0.0
O324 O 0.4955 0.35391 0.28616 0.0
C325 C 0.47223 0.2962 0.21333 0.0
H326 H 0.52454 0.35626 0.02064 0.0
H327 H 0.42543 0.29148 0.46445 0.0
H328 H 0.44109 0.37027 0.3098 0.0
H329 H 0.41234 0.32772 0.12225 0.0
Co330 Co 0.14339 0.47717 0.4028 0.0
C331 C 0.14205 0.48022 0.23661 0.0
C332 C 0.15344 0.51022 0.28947 0.0
C333 C 0.15448 0.51287 0.21202 0.0
N334 N 0.14562 0.48975 0.30462 0.0
N335 N 0.14742 0.494 0.17874 0.0
H336 H 0.13652 0.46367 0.22998 0.0
H337 H 0.15864 0.52247 0.3316 0.0
C338 C 0.12496 0.49725 0.49809 0.0
O339 O 0.11106 0.4784 0.52164 0.0
N340 N 0.14206 0.46484 0.50228 0.0
C341 C 0.13883 0.4455 0.51792 0.0
C342 C 0.13993 0.44343 0.59498 0.0
C343 C 0.14657 0.47465 0.57027 0.0
N344 N 0.14461 0.46175 0.62798 0.0
C345 C 0.1045 0.43807 0.38702 0.0
C346 C 0.08026 0.45602 0.35535 0.0
C347 C 0.07051 0.43426 0.36413 0.0
C348 C 0.08295 0.4252 0.37767 0.0
C349 C 0.10184 0.46823 0.3645 0.0
N350 N 0.11349 0.45936 0.38557 0.0
H351 H 0.11389 0.43082 0.39417 0.0
H352 H 0.10913 0.48495 0.35614 0.0
H353 H 0.13674 0.43381 0.47669 0.0
H354 H 0.15123 0.49095 0.5777 0.0
O355 O 0.15282 0.45954 0.35876 0.0
O356 O 0.17346 0.49118 0.40761 0.0
O357 O 0.13915 0.49962 0.45098 0.0
C358 C 0.17166 0.47475 0.37288 0.0
H359 H 0.1603 0.52765 0.18277 0.0
H360 H 0.13793 0.42964 0.62418 0.0
H361 H 0.07129 0.46355 0.34148 0.0
H362 H 0.07607 0.40837 0.38231 0.0
Co363 Co 0.6626 0.14569 0.56766 0.0
C364 C 0.65792 0.1438 0.3995 0.0
C365 C 0.63888 0.15435 0.45318 0.0
C366 C 0.63718 0.1556 0.37601 0.0
N367 N 0.65143 0.14634 0.46827 0.0
N368 N 0.6492 0.14897 0.3423 0.0
H369 H 0.67014 0.14008 0.39091 0.0
H370 H 0.63223 0.15997 0.49524 0.0
C371 C 0.617 0.12774 0.59811 0.0
O372 O 0.61296 0.11484 0.54096 0.0
N373 N 0.67395 0.1457 0.66612 0.0
C374 C 0.68825 0.13998 0.68158 0.0
C375 C 0.69075 0.14019 0.75889 0.0
C376 C 0.66801 0.14944 0.73383 0.0
N377 N 0.67794 0.14605 0.7917 0.0
C378 C 0.66054 0.10873 0.50585 0.0
C379 C 0.63185 0.08074 0.60809 0.0
C380 C 0.63814 0.07303 0.54699 0.0
C381 C 0.65326 0.08741 0.49709 0.0
C382 C 0.63971 0.10227 0.61493 0.0
N383 N 0.65263 0.11581 0.56075 0.0
H384 H 0.67288 0.11949 0.46926 0.0
H385 H 0.63511 0.10798 0.66335 0.0
H386 H 0.69585 0.13537 0.63966 0.0
H387 H 0.65606 0.15371 0.74076 0.0
O388 O 0.68981 0.15598 0.52363 0.0
O389 O 0.67736 0.17589 0.56719 0.0
O390 O 0.63587 0.14084 0.61648 0.0
C391 C 0.69248 0.17461 0.53423 0.0
H392 H 0.62827 0.16155 0.34724 0.0
H393 H 0.70102 0.13608 0.78853 0.0
H394 H 0.6206 0.07028 0.64927 0.0
H395 H 0.65952 0.08226 0.45178 0.0
H396 H 0.32749 0.45668 0.39529 0.0
H397 H 0.32126 0.49865 0.80684 0.0
H398 H 0.33674 0.5185 0.43615 0.0
H399 H 0.30611 0.43508 0.76067 0.0
H400 H 0.32814 0.5067 0.67202 0.0
H401 H 0.32061 0.44889 0.52982 0.0
C402 C 0.32797 0.4686 0.43241 0.0
C403 C 0.33261 0.48825 0.40408 0.0
C404 C 0.32326 0.49098 0.69141 0.0
C405 C 0.32498 0.47951 0.55872 0.0
C406 C 0.31942 0.4864 0.76842 0.0
C407 C 0.31308 0.46615 0.79516 0.0
C408 C 0.32085 0.47522 0.64078 0.0
C409 C 0.31069 0.45082 0.74259 0.0
C410 C 0.32413 0.46416 0.50939 0.0
C411 C 0.33344 0.50322 0.45536 0.0
N412 N 0.31463 0.45569 0.66802 0.0
N413 N 0.32963 0.49852 0.53017 0.0
H414 H 0.8184 0.32548 0.96745 0.0
H415 H 0.86334 0.32717 0.55327 0.0
H416 H 0.86207 0.30427 0.91858 0.0
H417 H 0.81461 0.34193 0.59714 0.0
H418 H 0.86368 0.31957 0.68746 0.0
H419 H 0.81739 0.33249 0.83269 0.0
C420 C 0.82779 0.3223 0.92852 0.0
C421 C 0.84036 0.31427 0.95463 0.0
C422 C 0.8529 0.32447 0.66772 0.0
C423 C 0.83924 0.32223 0.79999 0.0
C424 C 0.85264 0.32874 0.59085 0.0
C425 C 0.83887 0.33516 0.56332 0.0
C426 C 0.83936 0.32667 0.71787 0.0
C427 C 0.82566 0.33728 0.6155 0.0
C428 C 0.82714 0.32623 0.85145 0.0
C429 C 0.85196 0.31019 0.90113 0.0
N430 N 0.82622 0.33304 0.69012 0.0
N431 N 0.85119 0.3143 0.82654 0.0
H432 H 0.55439 0.87023 0.09499 0.0
H433 H 0.46882 0.81504 0.76817 0.0
H434 H 0.49071 0.82175 0.13784 0.0
H435 H 0.5309 0.8674 0.73017 0.0
H436 H 0.47665 0.81661 0.9031 0.0
H437 H 0.54635 0.86841 0.96038 0.0
C438 C 0.53875 0.85908 0.07611 0.0
C439 C 0.52322 0.84608 0.12798 0.0
C440 C 0.48855 0.82776 0.8652 0.0
C441 C 0.5138 0.84408 0.97354 0.0
C442 C 0.48405 0.82695 0.78805 0.0
C443 C 0.49923 0.8411 0.73738 0.0
C444 C 0.50838 0.8428 0.89205 0.0
C445 C 0.51881 0.85598 0.7667 0.0
C446 C 0.53411 0.85815 0.99916 0.0
C447 C 0.50311 0.83221 0.1001 0.0
N448 N 0.52281 0.85642 0.84196 0.0
N449 N 0.49899 0.83155 0.02478 0.0
H450 H 0.66331 0.53616 0.88734 0.0
H451 H 0.66463 0.49263 0.30151 0.0
H452 H 0.64803 0.47241 0.93119 0.0
H453 H 0.68639 0.55771 0.2526 0.0
H454 H 0.65756 0.48463 0.16677 0.0
H455 H 0.67097 0.54407 0.02151 0.0
C456 C 0.66163 0.52381 0.92491 0.0
C457 C 0.65505 0.50357 0.89737 0.0
C458 C 0.66396 0.50068 0.18551 0.0
C459 C 0.66361 0.51253 0.05192 0.0
C460 C 0.66792 0.50525 0.26258 0.0
C461 C 0.67611 0.5259 0.28868 0.0
C462 C 0.66808 0.51684 0.13404 0.0
C463 C 0.68033 0.54163 0.23516 0.0
C464 C 0.66594 0.52834 0.00177 0.0
C465 C 0.65281 0.48816 0.94954 0.0
N466 N 0.67618 0.53676 0.16058 0.0
N467 N 0.65709 0.49297 0.02416 0.0
H468 H 0.15153 0.68954 0.05369 0.0
H469 H 0.143 0.64686 0.47589 0.0
H470 H 0.1445 0.62922 0.10733 0.0
H471 H 0.15143 0.7078 0.42305 0.0
H472 H 0.1445 0.64056 0.34131 0.0
H473 H 0.15194 0.69672 0.18867 0.0
C474 C 0.14991 0.67772 0.09379 0.0
C475 C 0.14782 0.65866 0.06915 0.0
C476 C 0.1461 0.65535 0.35912 0.0
C477 C 0.14857 0.66691 0.22394 0.0
C478 C 0.1454 0.65904 0.43617 0.0
C479 C 0.14711 0.67793 0.46102 0.0
C480 C 0.14849 0.67063 0.30632 0.0
C481 C 0.14979 0.69293 0.40648 0.0
C482 C 0.15031 0.68191 0.17096 0.0
C483 C 0.14629 0.64416 0.12387 0.0
N484 N 0.15035 0.68894 0.33169 0.0
N485 N 0.14663 0.64856 0.1987 0.0
H486 H 0.49897 0.17165 0.63765 0.0
H487 H 0.45303 0.12642 0.22602 0.0
H488 H 0.43366 0.12877 0.59196 0.0
H489 H 0.51824 0.17063 0.26791 0.0
H490 H 0.44576 0.12734 0.36016 0.0
H491 H 0.5065 0.17164 0.50281 0.0
C492 C 0.48621 0.16222 0.59943 0.0
C493 C 0.46564 0.15018 0.62649 0.0
C494 C 0.46167 0.13687 0.34009 0.0
C495 C 0.47414 0.15019 0.47182 0.0
C496 C 0.46582 0.13643 0.26329 0.0
C497 C 0.48628 0.14852 0.23531 0.0
C498 C 0.47808 0.14948 0.38971 0.0
C499 C 0.50227 0.16087 0.28683 0.0
C500 C 0.49051 0.16229 0.52234 0.0
C501 C 0.4497 0.1385 0.5739 0.0
N502 N 0.49783 0.16105 0.36149 0.0
N503 N 0.4543 0.13876 0.4993 0.0
H504 H 0.47468 0.62627 0.39955 0.0
H505 H 0.54596 0.7091 0.08215 0.0
H506 H 0.5275 0.68708 0.45065 0.0
H507 H 0.49628 0.64634 0.03243 0.0
H508 H 0.53857 0.70193 0.21711 0.0
H509 H 0.48147 0.63393 0.26454 0.0
C510 C 0.48768 0.64125 0.38242 0.0
C511 C 0.50054 0.65602 0.43669 0.0
C512 C 0.52924 0.68975 0.17659 0.0
C513 C 0.50849 0.66491 0.28193 0.0
C514 C 0.53349 0.69383 0.0994 0.0
C515 C 0.52175 0.67833 0.04542 0.0
C516 C 0.51312 0.67002 0.20027 0.0
C517 C 0.50558 0.6589 0.07152 0.0
C518 C 0.49161 0.64559 0.30527 0.0
C519 C 0.51734 0.6751 0.41103 0.0
N520 N 0.5018 0.65531 0.14693 0.0
N521 N 0.52079 0.679 0.33557 0.0
H522 H 0.81336 0.47429 0.57101 0.0
H523 H 0.86831 0.55969 0.24339 0.0
H524 H 0.86587 0.53636 0.60829 0.0
H525 H 0.81985 0.49589 0.20131 0.0
H526 H 0.86658 0.55175 0.37807 0.0
H527 H 0.81477 0.48207 0.43614 0.0
C528 C 0.82528 0.48951 0.55097 0.0
C529 C 0.83953 0.5047 0.60141 0.0
C530 C 0.85631 0.53947 0.33944 0.0
C531 C 0.84105 0.51379 0.44679 0.0
C532 C 0.85718 0.54404 0.26247 0.0
C533 C 0.84416 0.52845 0.21082 0.0
C534 C 0.84226 0.51916 0.36529 0.0
C535 C 0.83031 0.50833 0.23891 0.0
C536 C 0.826 0.49398 0.47386 0.0
C537 C 0.85439 0.52427 0.57191 0.0
N538 N 0.8297 0.50428 0.31426 0.0
N539 N 0.85475 0.52824 0.49665 0.0
H540 H 0.30323 0.86843 0.40856 0.0
H541 H 0.33986 0.81762 0.73219 0.0
H542 H 0.32286 0.82332 0.36296 0.0
H543 H 0.32462 0.86619 0.7733 0.0
H544 H 0.33297 0.81878 0.59761 0.0
H545 H 0.30958 0.8666 0.54297 0.0
C546 C 0.30868 0.85796 0.42667 0.0
C547 C 0.31245 0.84597 0.37385 0.0
C548 C 0.33114 0.82919 0.63611 0.0
C549 C 0.3201 0.84404 0.52855 0.0
C550 C 0.33521 0.82864 0.71315 0.0
C551 C 0.33285 0.84183 0.76477 0.0
C552 C 0.32462 0.84301 0.6101 0.0
C553 C 0.32641 0.85552 0.73624 0.0
C554 C 0.31247 0.85706 0.50364 0.0
C555 C 0.31992 0.83301 0.40117 0.0
N556 N 0.32253 0.85573 0.66105 0.0
N557 N 0.32348 0.83239 0.47652 0.0
H558 H 0.51417 0.36325 0.89986 0.0
H559 H 0.43773 0.28584 0.57987 0.0
H560 H 0.4583 0.30443 0.94771 0.0
H561 H 0.49174 0.34617 0.53203 0.0
H562 H 0.44575 0.29181 0.71471 0.0
H563 H 0.50711 0.3566 0.76445 0.0
C564 C 0.50047 0.3489 0.88189 0.0
C565 C 0.48677 0.33444 0.93529 0.0
C566 C 0.45587 0.30373 0.67468 0.0
C567 C 0.47848 0.32676 0.78042 0.0
C568 C 0.45124 0.30036 0.59762 0.0
C569 C 0.46403 0.31553 0.54432 0.0
C570 C 0.47342 0.32242 0.69884 0.0
C571 C 0.48156 0.33391 0.57077 0.0
C572 C 0.49638 0.34515 0.8046 0.0
C573 C 0.46911 0.3162 0.90878 0.0
N574 N 0.4857 0.33686 0.64614 0.0
N575 N 0.46548 0.31289 0.83325 0.0
H576 H 0.17026 0.52146 0.06664 0.0
H577 H 0.12555 0.43386 0.74221 0.0
H578 H 0.12422 0.45659 0.1067 0.0
H579 H 0.16627 0.49975 0.69772 0.0
H580 H 0.12648 0.44166 0.87685 0.0
H581 H 0.17003 0.51367 0.9324 0.0
C582 C 0.15997 0.5056 0.04747 0.0
C583 C 0.1472 0.48968 0.09872 0.0
C584 C 0.13525 0.45442 0.83769 0.0
C585 C 0.14715 0.48059 0.9443 0.0
C586 C 0.13487 0.44996 0.76067 0.0
C587 C 0.14587 0.46615 0.70815 0.0
C588 C 0.14676 0.47526 0.86284 0.0
C589 C 0.15737 0.48677 0.73573 0.0
C590 C 0.15996 0.50114 0.97057 0.0
C591 C 0.13452 0.46935 0.06993 0.0
N592 N 0.15752 0.49071 0.81108 0.0
N593 N 0.13484 0.4654 0.99484 0.0
H594 H 0.68388 0.12447 0.90449 0.0
H595 H 0.6455 0.17268 0.23153 0.0
H596 H 0.66364 0.16927 0.86231 0.0
H597 H 0.66225 0.12507 0.26962 0.0
H598 H 0.65264 0.17224 0.09676 0.0
H599 H 0.67716 0.12549 0.03905 0.0
C600 C 0.67819 0.13467 0.92345 0.0
C601 C 0.67438 0.14684 0.8717 0.0
C602 C 0.65475 0.16189 0.13464 0.0
C603 C 0.66635 0.14787 0.02629 0.0
C604 C 0.65055 0.16204 0.2117 0.0
C605 C 0.65327 0.14889 0.26236 0.0
C606 C 0.66173 0.1485 0.10781 0.0
C607 C 0.6602 0.13569 0.2331 0.0
C608 C 0.6742 0.13512 1.00044 0.0
C609 C 0.66661 0.15946 0.89987 0.0
N610 N 0.66418 0.13584 0.15791 0.0
N611 N 0.66287 0.15965 0.97521 0.0
H612 H 0.45154 0.61016 0.79692 0.0
H613 H 0.41061 0.52055 0.11335 0.0
H614 H 0.49204 0.60097 0.9492 0.0
H615 H 0.36977 0.52714 0.95451 0.0
H616 H 0.44064 0.54971 0.05202 0.0
H617 H 0.42137 0.57954 0.85224 0.0
C618 C 0.4541 0.60168 0.84185 0.0
C619 C 0.47435 0.60816 0.86859 0.0
C620 C 0.42512 0.54475 0.03037 0.0
C621 C 0.43991 0.57316 0.93213 0.0
C622 C 0.40795 0.52809 0.06541 0.0
C623 C 0.38763 0.52144 0.03922 0.0
C624 C 0.422 0.55492 0.96875 0.0
C625 C 0.38516 0.53178 0.97672 0.0
C626 C 0.43687 0.5842 0.87335 0.0
C627 C 0.47673 0.59656 0.92678 0.0
N628 N 0.40215 0.54807 0.94376 0.0
N629 N 0.45972 0.57967 0.95672 0.0
H630 H 0.83578 0.38145 0.2037 0.0
H631 H 0.88601 0.47288 0.89462 0.0
H632 H 0.88752 0.39279 0.0586 0.0
H633 H 0.83734 0.46513 0.04949 0.0
H634 H 0.88685 0.44368 0.95552 0.0
H635 H 0.83615 0.41214 0.14933 0.0
C636 C 0.84725 0.39041 0.16055 0.0
C637 C 0.86161 0.38451 0.13547 0.0
C638 C 0.87602 0.44838 0.97643 0.0
C639 C 0.86208 0.41959 0.07305 0.0
C640 C 0.87551 0.46506 0.9416 0.0
C641 C 0.86151 0.47141 0.96679 0.0
C642 C 0.86238 0.43786 0.03682 0.0
C643 C 0.84835 0.46073 0.02812 0.0
C644 C 0.84746 0.40794 0.12962 0.0
C645 C 0.87614 0.39673 0.07962 0.0
N646 N 0.84904 0.4444 0.06089 0.0
N647 N 0.87595 0.41363 0.05015 0.0
H648 H 0.38918 0.8922 0.27336 0.0
H649 H 0.46186 0.84026 0.28468 0.0
H650 H 0.37973 0.84093 0.12874 0.0
H651 H 0.46677 0.88714 0.44317 0.0
H652 H 0.43328 0.84183 0.221 0.0
H653 H 0.41923 0.89213 0.33024 0.0
C654 C 0.39347 0.88097 0.25331 0.0
C655 C 0.38188 0.8665 0.19635 0.0
C656 C 0.44064 0.85179 0.26965 0.0
C657 C 0.41629 0.86631 0.26144 0.0
C658 C 0.45697 0.85092 0.30601 0.0
C659 C 0.46666 0.86353 0.36959 0.0
C660 C 0.43399 0.8654 0.29694 0.0
C661 C 0.45971 0.87708 0.39457 0.0
C662 C 0.41062 0.88092 0.28596 0.0
C663 C 0.38818 0.85231 0.17269 0.0
N664 N 0.44378 0.87763 0.35824 0.0
N665 N 0.40496 0.85256 0.20547 0.0
H666 H 0.51802 0.41373 0.2255 0.0
H667 H 0.60841 0.45444 0.5381 0.0
H668 H 0.52463 0.37277 0.38396 0.0
H669 H 0.59806 0.49525 0.3913 0.0
H670 H 0.57767 0.42428 0.48339 0.0
H671 H 0.54719 0.44378 0.28676 0.0
C672 C 0.52556 0.41104 0.27333 0.0
C673 C 0.51893 0.39069 0.29942 0.0
C674 C 0.58209 0.43985 0.46338 0.0
C675 C 0.55242 0.42507 0.36978 0.0
C676 C 0.59966 0.45707 0.4945 0.0
C677 C 0.60585 0.47739 0.46905 0.0
C678 C 0.5707 0.44298 0.40621 0.0
C679 C 0.59388 0.47987 0.41262 0.0
C680 C 0.54223 0.42823 0.30836 0.0
C681 C 0.52927 0.38819 0.36182 0.0
N682 N 0.57693 0.46286 0.38293 0.0
N683 N 0.54557 0.40519 0.3947 0.0
H684 H 0.15089 0.53861 0.46206 0.0
H685 H 0.0997 0.57939 0.76852 0.0
H686 H 0.09848 0.49801 0.6044 0.0
H687 H 0.15015 0.62075 0.6202 0.0
H688 H 0.09877 0.54943 0.70665 0.0
H689 H 0.15065 0.56894 0.51704 0.0
C690 C 0.1393 0.53606 0.50471 0.0
C691 C 0.12472 0.51574 0.52888 0.0
C692 C 0.11002 0.56504 0.68741 0.0
C693 C 0.12438 0.55034 0.59196 0.0
C694 C 0.11058 0.58219 0.72279 0.0
C695 C 0.1251 0.60262 0.69978 0.0
C696 C 0.12414 0.5683 0.62861 0.0
C697 C 0.13874 0.60526 0.63996 0.0
C698 C 0.13917 0.55338 0.53602 0.0
C699 C 0.11004 0.51337 0.58413 0.0
N700 N 0.13798 0.58827 0.60658 0.0
N701 N 0.1103 0.53046 0.61393 0.0
H702 H 0.57712 0.09491 0.61484 0.0
H703 H 0.53387 0.16097 0.82034 0.0
H704 H 0.61768 0.15939 0.67997 0.0
H705 H 0.50813 0.09516 0.86815 0.0
H706 H 0.56201 0.16065 0.74803 0.0
H707 H 0.54869 0.09463 0.68812 0.0
C708 C 0.57999 0.109 0.64431 0.0
C709 C 0.59972 0.1272 0.64152 0.0
C710 C 0.5502 0.14632 0.77451 0.0
C711 C 0.5674 0.12703 0.7239 0.0
C712 C 0.53412 0.14645 0.81539 0.0
C713 C 0.51875 0.12807 0.85041 0.0
C714 C 0.55061 0.12758 0.76722 0.0
C715 C 0.51981 0.10968 0.84242 0.0
C716 C 0.56385 0.10878 0.68626 0.0
C717 C 0.6027 0.14501 0.68101 0.0
N718 N 0.53542 0.10985 0.80101 0.0
N719 N 0.58664 0.14455 0.72008 0.0
H720 H 0.28791 0.50868 0.14776 0.0
H721 H 0.17311 0.44085 0.31974 0.0
H722 H 0.25699 0.44154 0.17539 0.0
H723 H 0.21146 0.50752 0.35521 0.0
H724 H 0.20249 0.44084 0.25617 0.0
H725 H 0.25826 0.50865 0.21027 0.0
C726 C 0.27475 0.49392 0.16605 0.0
C727 C 0.27483 0.47508 0.15656 0.0
C728 C 0.20453 0.45544 0.27837 0.0
C729 C 0.24115 0.47496 0.22839 0.0
C730 C 0.18781 0.45545 0.31479 0.0
C731 C 0.18994 0.47421 0.34284 0.0
C732 C 0.2234 0.47438 0.26909 0.0
C733 C 0.20925 0.4927 0.33479 0.0
C734 C 0.25797 0.49393 0.20231 0.0
C735 C 0.25753 0.45641 0.18184 0.0
N736 N 0.22524 0.49236 0.298 0.0
N737 N 0.24136 0.45682 0.21665 0.0
H738 H 0.81246 0.26031 0.33799 0.0
H739 H 0.698 0.21376 0.51165 0.0
H740 H 0.77434 0.2888 0.30251 0.0
H741 H 0.72854 0.17725 0.48378 0.0
H742 H 0.72743 0.24311 0.44692 0.0
H743 H 0.78291 0.23077 0.40051 0.0
C744 C 0.79777 0.26021 0.34264 0.0
C745 C 0.79577 0.27695 0.31504 0.0
C746 C 0.72768 0.22867 0.45521 0.0
C747 C 0.76211 0.2435 0.38764 0.0
C748 C 0.71102 0.21203 0.49272 0.0
C749 C 0.71091 0.19312 0.50299 0.0
C750 C 0.74436 0.22638 0.42867 0.0
C751 C 0.72803 0.19158 0.47684 0.0
C752 C 0.78095 0.2434 0.37846 0.0
C753 C 0.77646 0.27611 0.32264 0.0
N754 N 0.74409 0.20802 0.4409 0.0
N755 N 0.76038 0.25971 0.35895 0.0
H756 H 0.48035 0.77708 0.47909 0.0
H757 H 0.5485 0.73111 0.65605 0.0
H758 H 0.54729 0.81385 0.50875 0.0
H759 H 0.48181 0.70235 0.68961 0.0
H760 H 0.54836 0.76026 0.59093 0.0
H761 H 0.48055 0.74759 0.54221 0.0
C762 C 0.49511 0.77883 0.49792 0.0
C763 C 0.51383 0.79787 0.48889 0.0
C764 C 0.53378 0.74765 0.61304 0.0
C765 C 0.51415 0.76446 0.56143 0.0
C766 C 0.53386 0.73106 0.65035 0.0
C767 C 0.51514 0.71438 0.67836 0.0
C768 C 0.5148 0.7474 0.60283 0.0
C769 C 0.4966 0.71502 0.66928 0.0
C770 C 0.49519 0.7621 0.53453 0.0
C771 C 0.53251 0.79942 0.51484 0.0
N772 N 0.49686 0.73122 0.63167 0.0
N773 N 0.5322 0.78292 0.55002 0.0
H774 H 0.8132 0.55343 0.82848 0.0
H775 H 0.70119 0.48503 0.63609 0.0
H776 H 0.77624 0.48621 0.85172 0.0
H777 H 0.72957 0.55155 0.6753 0.0
H778 H 0.73064 0.48539 0.70142 0.0
H779 H 0.78409 0.55325 0.76198 0.0
C780 C 0.79885 0.53866 0.82028 0.0
C781 C 0.79704 0.51981 0.8457 0.0
C782 C 0.73043 0.4999 0.69533 0.0
C783 C 0.76394 0.51944 0.76849 0.0
C784 C 0.71378 0.49975 0.65742 0.0
C785 C 0.71301 0.51829 0.65045 0.0
C786 C 0.74644 0.51877 0.72564 0.0
C787 C 0.72957 0.53691 0.67968 0.0
C788 C 0.78229 0.53856 0.78217 0.0
C789 C 0.77818 0.5011 0.83346 0.0
N790 N 0.74564 0.53668 0.71611 0.0
N791 N 0.76237 0.50136 0.79504 0.0
H792 H 0.28673 0.77791 0.03452 0.0
H793 H 0.17376 0.73242 0.84788 0.0
H794 H 0.25811 0.81561 0.99162 0.0
H795 H 0.21094 0.70245 0.82545 0.0
H796 H 0.20287 0.76162 0.91361 0.0
H797 H 0.2568 0.74809 0.97388 0.0
C798 C 0.274 0.7798 0.01338 0.0
C799 C 0.27485 0.7992 0.01782 0.0
C800 C 0.2047 0.74872 0.89388 0.0
C801 C 0.24084 0.76539 0.94809 0.0
C802 C 0.18814 0.73209 0.85624 0.0
C803 C 0.19004 0.7151 0.83098 0.0
C804 C 0.22316 0.74817 0.9072 0.0
C805 C 0.20893 0.71538 0.84351 0.0
C806 C 0.25706 0.76287 0.97819 0.0
C807 C 0.25806 0.80091 0.98904 0.0
N808 N 0.22477 0.73163 0.8813 0.0
N809 N 0.24173 0.7842 0.95525 0.0
H810 H 0.43858 0.25955 0.16804 0.0
H811 H 0.50737 0.21454 0.99005 0.0
H812 H 0.50568 0.29034 0.19353 0.0
H813 H 0.44053 0.17732 0.02195 0.0
H814 H 0.50713 0.24375 0.05521 0.0
H815 H 0.439 0.23 0.10765 0.0
C816 C 0.45338 0.25997 0.1616 0.0
C817 C 0.47213 0.27735 0.18573 0.0
C818 C 0.49254 0.22918 0.04781 0.0
C819 C 0.47277 0.24382 0.11563 0.0
C820 C 0.49264 0.2126 0.01011 0.0
C821 C 0.47394 0.19356 1.00058 0.0
C822 C 0.47357 0.22668 0.07537 0.0
C823 C 0.4553 0.19176 0.02817 0.0
C824 C 0.45362 0.24313 0.12703 0.0
C825 C 0.49087 0.27714 0.17603 0.0
N826 N 0.45558 0.20814 0.06424 0.0
N827 N 0.49075 0.26068 0.14098 0.0
H828 H 0.35622 0.41589 0.26072 0.0
H829 H 0.4137 0.35945 0.07598 0.0
H830 H 0.35947 0.40803 0.01965 0.0
H831 H 0.40547 0.36235 0.31696 0.0
H832 H 0.39245 0.37576 0.05412 0.0
H833 H 0.37277 0.39486 0.28242 0.0
C834 C 0.36019 0.40953 0.21231 0.0
C835 C 0.35653 0.41382 0.1382 0.0
C836 C 0.39518 0.37272 0.11178 0.0
C837 C 0.37583 0.39 0.16269 0.0
C838 C 0.40722 0.36329 0.12432 0.0
C839 C 0.41147 0.35961 0.19847 0.0
C840 C 0.38738 0.37861 0.17382 0.0
C841 C 0.40292 0.36523 0.25891 0.0
C842 C 0.36976 0.39762 0.22477 0.0
C843 C 0.36232 0.40544 0.07769 0.0
N844 N 0.39136 0.37454 0.24524 0.0
N845 N 0.37178 0.39401 0.09128 0.0
H846 H 0.93821 0.38584 0.42186 0.0
H847 H 0.04697 0.39718 0.28827 0.0
H848 H 0.94307 0.34924 0.24031 0.0
H849 H 0.04178 0.44177 0.43172 0.0
H850 H 0.00868 0.37645 0.2817 0.0
H851 H 0.97607 0.40355 0.438 0.0
C852 C 0.94724 0.38154 0.38529 0.0
C853 C 0.93748 0.36622 0.32898 0.0
C854 C 0.01596 0.39076 0.31467 0.0
C855 C 0.98082 0.38627 0.34779 0.0
C856 C 0.03775 0.40252 0.31866 0.0
C857 C 0.04748 0.42126 0.36011 0.0
C858 C 0.0039 0.39773 0.35302 0.0
C859 C 0.03487 0.42757 0.39816 0.0
C860 C 0.96885 0.3916 0.39476 0.0
C861 C 0.94993 0.3609 0.28464 0.0
N862 N 0.01374 0.41583 0.39369 0.0
N863 N 0.971 0.371 0.29471 0.0
H864 H 0.62734 0.05232 0.4116 0.0
H865 H 0.57134 0.93846 0.59706 0.0
H866 H 0.62713 0.04166 0.65223 0.0
H867 H 0.57935 0.94958 0.35602 0.0
H868 H 0.59241 0.97612 0.61878 0.0
H869 H 0.61042 0.0147 0.3904 0.0
C870 C 0.62397 0.04209 0.46001 0.0
C871 C 0.62868 0.0502 0.53388 0.0
C872 C 0.58966 0.97031 0.56115 0.0
C873 C 0.60889 0.00698 0.50995 0.0
C874 C 0.57772 0.9488 0.54868 0.0
C875 C 0.57347 0.94085 0.47454 0.0
C876 C 0.59733 0.984 0.49906 0.0
C877 C 0.58189 0.95503 0.41406 0.0
C878 C 0.61418 0.02058 0.44783 0.0
C879 C 0.62352 0.03611 0.59442 0.0
N880 N 0.59334 0.97592 0.42768 0.0
N881 N 0.61382 0.01516 0.58113 0.0
H882 H 0.60563 0.55281 0.75938 0.0
H883 H 0.59297 0.64962 0.62645 0.0
H884 H 0.64133 0.59413 0.57623 0.0
H885 H 0.54959 0.60021 0.77387 0.0
H886 H 0.61401 0.63239 0.61926 0.0
H887 H 0.58805 0.57302 0.77745 0.0
C888 C 0.60976 0.56613 0.7229 0.0
C889 C 0.62477 0.57162 0.66552 0.0
C890 C 0.59991 0.62538 0.65328 0.0
C891 C 0.60485 0.59497 0.68644 0.0
C892 C 0.58798 0.63523 0.65763 0.0
C893 C 0.56947 0.62619 0.70031 0.0
C894 C 0.59332 0.60651 0.69247 0.0
C895 C 0.5636 0.60749 0.73935 0.0
C896 C 0.59978 0.57772 0.73345 0.0
C897 C 0.6299 0.58939 0.6213 0.0
N898 N 0.57548 0.59826 0.73444 0.0
N899 N 0.61985 0.60037 0.63237 0.0
H900 H 0.04311 0.59771 0.76794 0.0
H901 H 0.94093 0.6054 0.85069 0.0
H902 H 0.04595 0.65666 0.81225 0.0
H903 H 0.944 0.54884 0.8786 0.0
H904 H 0.97854 0.62456 0.82214 0.0
H905 H 0.00553 0.5795 0.79202 0.0
C906 C 0.03575 0.60682 0.782 0.0
C907 C 0.04759 0.62869 0.7881 0.0
C908 C 0.97094 0.60798 0.83485 0.0
C909 C 0.00469 0.60798 0.81646 0.0
C910 C 0.94955 0.59706 0.85082 0.0
C911 C 0.93947 0.57557 0.86726 0.0
C912 C 0.98213 0.59719 0.83423 0.0
C913 C 0.95128 0.56547 0.86712 0.0
C914 C 0.01436 0.59642 0.79639 0.0
C915 C 0.03735 0.63975 0.80759 0.0
N916 N 0.97197 0.57635 0.85046 0.0
N917 N 0.01641 0.62925 0.82097 0.0
H918 H 0.42498 0.05207 0.06807 0.0
H919 H 0.34244 0.93936 0.90865 0.0
H920 H 0.40173 0.04357 0.839 0.0
H921 H 0.38679 0.9493 0.08551 0.0
H922 H 0.35931 0.97755 0.89149 0.0
H923 H 0.4059 0.01413 0.08542 0.0
C924 C 0.41565 0.04218 0.02168 0.0
C925 C 0.41487 0.05088 0.95204 0.0
C926 C 0.36529 0.97129 0.93392 0.0
C927 C 0.39313 0.00755 0.97136 0.0
C928 C 0.35566 0.94962 0.94392 0.0
C929 C 0.36337 0.94134 0.99828 0.0
C930 C 0.38241 0.98458 0.97971 0.0
C931 C 0.38055 0.95515 0.0425 0.0
C932 C 0.40492 0.02056 0.03142 0.0
C933 C 0.4028 0.03738 0.89337 0.0
N934 N 0.38944 0.97612 0.0325 0.0
N935 N 0.3923 0.01629 0.9044 0.0
loop_
_geom_bond_atom_site_label_1
_geom_bond_atom_site_label_2
_geom_bond_distance
_geom_bond_site_symmetry_2
_ccdc_geom_bond_type
Co0 N4 2.148 . S
Co0 N10 2.128 1_554 S
Co0 N20 2.194 . S
Co0 O25 2.351 . S
Co0 O26 2.155 . S
Co0 O27 2.096 . S
C1 N4 1.301 . S
C1 N5 1.328 . S
C1 H6 0.930 . S
C2 C3 1.333 . S
C2 N4 1.317 . S
C2 H7 0.930 . S
C3 C2 1.333 . S
C3 N5 1.350 . S
C3 H29 0.931 . S
N4 Co0 2.148 . S
N4 C1 1.301 . S
N4 C2 1.317 . S
N5 C1 1.328 . S
N5 C3 1.350 . S
H6 C1 0.930 . S
H7 C2 0.930 . S
C8 O9 1.224 . S
C8 O27 1.247 . S
O9 C8 1.224 . S
N10 Co0 2.128 1_556 S
N10 C11 1.355 . S
N10 C13 1.311 . S
C11 N10 1.355 . S
C11 C12 1.363 . S
C11 H23 0.929 . S
C12 C11 1.363 . S
C12 N14 1.375 . S
C12 H30 0.931 . S
C13 N10 1.311 . S
C13 N14 1.347 . S
C13 H24 0.929 . S
N14 C12 1.375 . S
N14 C13 1.347 . S
C15 C18 1.365 . S
C15 N20 1.328 . S
C15 H21 0.929 . S
C16 C17 1.362 . S
C16 C19 1.378 . S
C16 H31 0.929 . S
C17 C16 1.362 . S
C17 C18 1.366 . S
C18 C15 1.365 . S
C18 C17 1.366 . S
C18 H32 0.930 . S
C19 C16 1.378 . S
C19 N20 1.315 . S
C19 H22 0.930 . S
N20 Co0 2.194 . S
N20 C15 1.328 . S
N20 C19 1.315 . S
H21 C15 0.929 . S
H22 C19 0.930 . S
H23 C11 0.929 . S
H24 C13 0.929 . S
O25 Co0 2.351 . S
O25 C28 1.244 . S
O26 Co0 2.155 . S
O26 C28 1.240 . S
O27 Co0 2.096 . S
O27 C8 1.247 . S
C28 O25 1.244 . S
C28 O26 1.240 . S
H29 C3 0.931 . S
H30 C12 0.931 . S
H31 C16 0.929 . S
H32 C18 0.930 . S
Co33 N37 2.148 . S
Co33 N43 2.128 . S
Co33 N53 2.194 . S
Co33 O58 2.351 . S
Co33 O59 2.155 . S
Co33 O60 2.096 . S
C34 N37 1.301 . S
C34 N38 1.328 . S
C34 H39 0.930 . S
C35 C36 1.333 . S
C35 N37 1.317 . S
C35 H40 0.930 . S
C36 C35 1.333 . S
C36 N38 1.350 . S
C36 H62 0.931 . S
N37 Co33 2.148 . S
N37 C34 1.301 . S
N37 C35 1.317 . S
N38 C34 1.328 . S
N38 C36 1.350 . S
H39 C34 0.930 . S
H40 C35 0.930 . S
C41 O42 1.224 . S
C41 O60 1.247 . S
O42 C41 1.224 . S
N43 Co33 2.128 . S
N43 C44 1.355 . S
N43 C46 1.311 . S
C44 N43 1.355 . S
C44 C45 1.363 . S
C44 H56 0.929 . S
C45 C44 1.363 . S
C45 N47 1.375 . S
C45 H63 0.931 . S
C46 N43 1.311 . S
C46 N47 1.347 . S
C46 H57 0.929 . S
N47 C45 1.375 . S
N47 C46 1.347 . S
C48 C51 1.365 . S
C48 N53 1.328 . S
C48 H54 0.929 . S
C49 C50 1.362 . S
C49 C52 1.378 . S
C49 H64 0.929 . S
C50 C49 1.362 . S
C50 C51 1.366 . S
C51 C48 1.365 . S
C51 C50 1.366 . S
C51 H65 0.930 . S
C52 C49 1.378 . S
C52 N53 1.315 . S
C52 H55 0.930 . S
N53 Co33 2.194 . S
N53 C48 1.328 . S
N53 C52 1.315 . S
H54 C48 0.929 . S
H55 C52 0.930 . S
H56 C44 0.929 . S
H57 C46 0.929 . S
O58 Co33 2.351 . S
O58 C61 1.244 . S
O59 Co33 2.155 . S
O59 C61 1.240 . S
O60 Co33 2.096 . S
O60 C41 1.247 . S
C61 O58 1.244 . S
C61 O59 1.240 . S
H62 C36 0.931 . S
H63 C45 0.931 . S
H64 C49 0.929 . S
H65 C51 0.930 . S
Co66 N70 2.148 . S
Co66 N76 2.128 . S
Co66 N86 2.194 . S
Co66 O91 2.351 . S
Co66 O92 2.155 . S
Co66 O93 2.096 . S
C67 N70 1.301 . S
C67 N71 1.328 . S
C67 H72 0.930 . S
C68 C69 1.333 . S
C68 N70 1.317 . S
C68 H73 0.930 . S
C69 C68 1.333 . S
C69 N71 1.350 . S
C69 H95 0.931 . S
N70 Co66 2.148 . S
N70 C67 1.301 . S
N70 C68 1.317 . S
N71 C67 1.328 . S
N71 C69 1.350 . S
H72 C67 0.930 . S
H73 C68 0.930 . S
C74 O75 1.224 . S
C74 O93 1.247 . S
O75 C74 1.224 . S
N76 Co66 2.128 . S
N76 C77 1.355 . S
N76 C79 1.311 . S
C77 N76 1.355 . S
C77 C78 1.363 . S
C77 H89 0.929 . S
C78 C77 1.363 . S
C78 N80 1.375 . S
C78 H96 0.931 . S
C79 N76 1.311 . S
C79 N80 1.347 . S
C79 H90 0.929 . S
N80 C78 1.375 . S
N80 C79 1.347 . S
C81 C84 1.365 . S
C81 N86 1.328 . S
C81 H87 0.929 . S
C82 C83 1.362 . S
C82 C85 1.378 . S
C82 H97 0.929 . S
C83 C82 1.362 . S
C83 C84 1.366 . S
C84 C81 1.365 . S
C84 C83 1.366 . S
C84 H98 0.930 . S
C85 C82 1.378 . S
C85 N86 1.315 . S
C85 H88 0.930 . S
N86 Co66 2.194 . S
N86 C81 1.328 . S
N86 C85 1.315 . S
H87 C81 0.929 . S
H88 C85 0.930 . S
H89 C77 0.929 . S
H90 C79 0.929 . S
O91 Co66 2.351 . S
O91 C94 1.244 . S
O92 Co66 2.155 . S
O92 C94 1.240 . S
O93 Co66 2.096 . S
O93 C74 1.247 . S
C94 O91 1.244 . S
C94 O92 1.240 . S
H95 C69 0.931 . S
H96 C78 0.931 . S
H97 C82 0.929 . S
H98 C84 0.930 . S
Co99 N103 2.148 . S
Co99 N109 2.128 . S
Co99 N119 2.194 . S
Co99 O124 2.351 . S
Co99 O125 2.155 . S
Co99 O126 2.096 . S
C100 N103 1.301 . S
C100 N104 1.328 . S
C100 H105 0.930 . S
C101 C102 1.333 . S
C101 N103 1.317 . S
C101 H106 0.930 . S
C102 C101 1.333 . S
C102 N104 1.350 . S
C102 H128 0.931 . S
N103 Co99 2.148 . S
N103 C100 1.301 . S
N103 C101 1.317 . S
N104 C100 1.328 . S
N104 C102 1.350 . S
H105 C100 0.930 . S
H106 C101 0.930 . S
C107 O108 1.224 . S
C107 O126 1.247 . S
O108 C107 1.224 . S
N109 Co99 2.128 . S
N109 C110 1.355 . S
N109 C112 1.311 . S
C110 N109 1.355 . S
C110 C111 1.363 . S
C110 H122 0.929 . S
C111 C110 1.363 . S
C111 N113 1.375 . S
C111 H129 0.931 . S
C112 N109 1.311 . S
C112 N113 1.347 . S
C112 H123 0.929 . S
N113 C111 1.375 . S
N113 C112 1.347 . S
C114 C117 1.365 . S
C114 N119 1.328 . S
C114 H120 0.929 . S
C115 C116 1.362 . S
C115 C118 1.378 . S
C115 H130 0.929 . S
C116 C115 1.362 . S
C116 C117 1.366 . S
C117 C114 1.365 . S
C117 C116 1.366 . S
C117 H131 0.930 . S
C118 C115 1.378 . S
C118 N119 1.315 . S
C118 H121 0.930 . S
N119 Co99 2.194 . S
N119 C114 1.328 . S
N119 C118 1.315 . S
H120 C114 0.929 . S
H121 C118 0.930 . S
H122 C110 0.929 . S
H123 C112 0.929 . S
O124 Co99 2.351 . S
O124 C127 1.244 . S
O125 Co99 2.155 . S
O125 C127 1.240 . S
O126 Co99 2.096 . S
O126 C107 1.247 . S
C127 O124 1.244 . S
C127 O125 1.240 . S
H128 C102 0.931 . S
H129 C111 0.931 . S
H130 C115 0.929 . S
H131 C117 0.930 . S
Co132 N136 2.148 . S
Co132 N142 2.128 . S
Co132 N152 2.194 . S
Co132 O157 2.351 . S
Co132 O158 2.155 . S
Co132 O159 2.096 . S
C133 N136 1.301 . S
C133 N137 1.333 . S
C133 H138 0.930 . S
C134 C135 1.333 . S
C134 N136 1.317 . S
C134 H139 0.930 . S
C135 C134 1.333 . S
C135 N137 1.352 . S
C135 H161 0.927 1_556 S
N136 Co132 2.148 . S
N136 C133 1.301 . S
N136 C134 1.317 . S
N137 C133 1.333 . S
N137 C135 1.352 . S
H138 C133 0.930 . S
H139 C134 0.930 . S
C140 O141 1.224 . S
C140 O159 1.247 . S
O141 C140 1.224 . S
N142 Co132 2.128 . S
N142 C143 1.355 . S
N142 C145 1.311 . S
C143 N142 1.355 . S
C143 C144 1.363 . S
C143 H155 0.929 . S
C144 C143 1.363 . S
C144 N146 1.375 . S
C144 H162 0.931 . S
C145 N142 1.311 . S
C145 N146 1.347 . S
C145 H156 0.929 . S
N146 C144 1.375 . S
N146 C145 1.347 . S
C147 C150 1.365 . S
C147 N152 1.328 . S
C147 H153 0.929 . S
C148 C149 1.362 . S
C148 C151 1.378 . S
C148 H163 0.929 . S
C149 C148 1.362 . S
C149 C150 1.366 . S
C150 C147 1.365 . S
C150 C149 1.366 . S
C150 H164 0.930 . S
C151 C148 1.378 . S
C151 N152 1.315 . S
C151 H154 0.930 . S
N152 Co132 2.194 . S
N152 C147 1.328 . S
N152 C151 1.315 . S
H153 C147 0.929 . S
H154 C151 0.930 . S
H155 C143 0.929 . S
H156 C145 0.929 . S
O157 Co132 2.351 . S
O157 C160 1.244 . S
O158 Co132 2.155 . S
O158 C160 1.240 . S
O159 Co132 2.096 . S
O159 C140 1.247 . S
C160 O157 1.244 . S
C160 O158 1.240 . S
H161 C135 0.927 1_554 S
H162 C144 0.931 . S
H163 C148 0.929 . S
H164 C150 0.930 . S
Co165 N169 2.148 1_556 S
Co165 N175 2.128 . S
Co165 N185 2.194 . S
Co165 O190 2.351 . S
Co165 O191 2.155 . S
Co165 O192 2.096 . S
C166 N169 1.301 . S
C166 N170 1.328 . S
C166 H171 0.930 . S
C167 C168 1.333 . S
C167 N169 1.317 . S
C167 H172 0.930 . S
C168 C167 1.333 . S
C168 N170 1.350 . S
C168 H194 0.931 . S
N169 Co165 2.148 1_554 S
N169 C166 1.301 . S
N169 C167 1.317 . S
N170 C166 1.328 . S
N170 C168 1.350 . S
H171 C166 0.930 . S
H172 C167 0.930 . S
C173 O174 1.224 . S
C173 O192 1.247 . S
O174 C173 1.224 . S
N175 Co165 2.128 . S
N175 C176 1.355 . S
N175 C178 1.311 . S
C176 N175 1.355 . S
C176 C177 1.363 . S
C176 H188 0.929 . S
C177 C176 1.363 . S
C177 N179 1.375 . S
C177 H195 0.931 . S
C178 N175 1.311 . S
C178 N179 1.347 . S
C178 H189 0.929 . S
N179 C177 1.375 . S
N179 C178 1.347 . S
C180 C183 1.365 . S
C180 N185 1.328 . S
C180 H186 0.929 . S
C181 C182 1.362 . S
C181 C184 1.378 . S
C181 H196 0.929 . S
C182 C181 1.362 . S
C182 C183 1.366 . S
C183 C180 1.365 . S
C183 C182 1.366 . S
C183 H197 0.930 1_556 S
C184 C181 1.378 . S
C184 N185 1.315 . S
C184 H187 0.930 . S
N185 Co165 2.194 . S
N185 C180 1.328 . S
N185 C184 1.315 . S
H186 C180 0.929 . S
H187 C184 0.930 . S
H188 C176 0.929 . S
H189 C178 0.929 . S
O190 Co165 2.351 . S
O190 C193 1.244 . S
O191 Co165 2.155 . S
O191 C193 1.240 . S
O192 Co165 2.096 . S
O192 C173 1.247 . S
C193 O190 1.244 . S
C193 O191 1.240 . S
H194 C168 0.931 . S
H195 C177 0.931 . S
H196 C181 0.929 . S
H197 C183 0.930 1_554 S
Co198 N202 2.148 . S
Co198 N208 2.128 . S
Co198 N218 2.194 . S
Co198 O223 2.351 . S
Co198 O224 2.155 . S
Co198 O225 2.096 . S
C199 N202 1.301 . S
C199 N203 1.328 . S
C199 H204 0.930 . S
C200 C201 1.333 . S
C200 N202 1.317 . S
C200 H205 0.930 . S
C201 C200 1.333 . S
C201 N203 1.350 . S
C201 H227 0.931 . S
N202 Co198 2.148 . S
N202 C199 1.301 . S
N202 C200 1.317 . S
N203 C199 1.328 . S
N203 C201 1.350 . S
H204 C199 0.930 . S
H205 C200 0.930 . S
C206 O207 1.224 . S
C206 O225 1.247 . S
O207 C206 1.224 . S
N208 Co198 2.128 . S
N208 C209 1.355 . S
N208 C211 1.311 . S
C209 N208 1.355 . S
C209 C210 1.363 . S
C209 H221 0.929 . S
C210 C209 1.363 . S
C210 N212 1.375 . S
C210 H228 0.931 . S
C211 N208 1.311 . S
C211 N212 1.347 . S
C211 H222 0.929 . S
N212 C210 1.375 . S
N212 C211 1.347 . S
C213 C216 1.365 . S
C213 N218 1.328 . S
C213 H219 0.929 . S
C214 C215 1.362 . S
C214 C217 1.378 . S
C214 H229 0.929 . S
C215 C214 1.362 . S
C215 C216 1.366 . S
C216 C213 1.365 . S
C216 C215 1.366 . S
C216 H230 0.930 . S
C217 C214 1.378 . S
C217 N218 1.315 . S
C217 H220 0.930 . S
N218 Co198 2.194 . S
N218 C213 1.328 . S
N218 C217 1.315 . S
H219 C213 0.929 . S
H220 C217 0.930 . S
H221 C209 0.929 . S
H222 C211 0.929 . S
O223 Co198 2.351 . S
O223 C226 1.244 . S
O224 Co198 2.155 . S
O224 C226 1.240 . S
O225 Co198 2.096 . S
O225 C206 1.247 . S
C226 O223 1.244 . S
C226 O224 1.240 . S
H227 C201 0.931 . S
H228 C210 0.931 . S
H229 C214 0.929 . S
H230 C216 0.930 . S
Co231 N235 2.148 . S
Co231 N241 2.128 1_556 S
Co231 N251 2.194 . S
Co231 O256 2.351 . S
Co231 O257 2.155 . S
Co231 O258 2.096 . S
C232 N235 1.301 . S
C232 N236 1.328 . S
C232 H237 0.930 . S
C233 C234 1.333 . S
C233 N235 1.317 . S
C233 H238 0.930 . S
C234 C233 1.333 . S
C234 N236 1.350 . S
C234 H260 0.931 . S
N235 Co231 2.148 . S
N235 C232 1.301 . S
N235 C233 1.317 . S
N236 C232 1.328 . S
N236 C234 1.350 . S
H237 C232 0.930 . S
H238 C233 0.930 . S
C239 O240 1.224 . S
C239 O258 1.247 . S
O240 C239 1.224 . S
N241 Co231 2.128 1_554 S
N241 C242 1.355 . S
N241 C244 1.311 . S
C242 N241 1.355 . S
C242 C243 1.363 . S
C242 H254 0.929 . S
C243 C242 1.363 . S
C243 N245 1.375 . S
C243 H261 0.931 . S
C244 N241 1.311 . S
C244 N245 1.347 . S
C244 H255 0.929 . S
N245 C243 1.375 . S
N245 C244 1.347 . S
C246 C249 1.365 . S
C246 N251 1.328 . S
C246 H252 0.929 . S
C247 C248 1.362 . S
C247 C250 1.378 . S
C247 H262 0.929 . S
C248 C247 1.362 . S
C248 C249 1.366 . S
C249 C246 1.365 . S
C249 C248 1.366 . S
C249 H263 0.930 . S
C250 C247 1.378 . S
C250 N251 1.315 . S
C250 H253 0.930 . S
N251 Co231 2.194 . S
N251 C246 1.328 . S
N251 C250 1.315 . S
H252 C246 0.929 . S
H253 C250 0.930 . S
H254 C242 0.929 . S
H255 C244 0.929 . S
O256 Co231 2.351 . S
O256 C259 1.244 . S
O257 Co231 2.155 . S
O257 C259 1.240 . S
O258 Co231 2.096 . S
O258 C239 1.247 . S
C259 O256 1.244 . S
C259 O257 1.240 . S
H260 C234 0.931 . S
H261 C243 0.931 . S
H262 C247 0.929 . S
H263 C249 0.930 . S
Co264 N268 2.148 1_554 S
Co264 N274 2.128 . S
Co264 N284 2.194 . S
Co264 O289 2.351 . S
Co264 O290 2.155 . S
Co264 O291 2.096 . S
C265 N268 1.301 . S
C265 N269 1.328 . S
C265 H270 0.930 . S
C266 C267 1.333 . S
C266 N268 1.317 . S
C266 H271 0.930 . S
C267 C266 1.333 . S
C267 N269 1.350 . S
C267 H293 0.931 . S
N268 Co264 2.148 1_556 S
N268 C265 1.301 . S
N268 C266 1.317 . S
N269 C265 1.328 . S
N269 C267 1.350 . S
H270 C265 0.930 . S
H271 C266 0.930 . S
C272 O273 1.224 . S
C272 O291 1.247 . S
O273 C272 1.224 . S
N274 Co264 2.128 . S
N274 C275 1.355 . S
N274 C277 1.311 . S
C275 N274 1.355 . S
C275 C276 1.363 . S
C275 H287 0.929 . S
C276 C275 1.363 . S
C276 N278 1.375 . S
C276 H294 0.931 . S
C277 N274 1.311 . S
C277 N278 1.347 . S
C277 H288 0.929 . S
N278 C276 1.375 . S
N278 C277 1.347 . S
C279 C282 1.365 . S
C279 N284 1.328 . S
C279 H285 0.929 . S
C280 C281 1.362 . S
C280 C283 1.378 . S
C280 H295 0.929 . S
C281 C280 1.362 . S
C281 C282 1.366 . S
C282 C279 1.365 . S
C282 C281 1.366 . S
C282 H296 0.930 1_554 S
C283 C280 1.378 . S
C283 N284 1.315 . S
C283 H286 0.930 . S
N284 Co264 2.194 . S
N284 C279 1.328 . S
N284 C283 1.315 . S
H285 C279 0.929 . S
H286 C283 0.930 . S
H287 C275 0.929 . S
H288 C277 0.929 . S
O289 Co264 2.351 . S
O289 C292 1.244 . S
O290 Co264 2.155 . S
O290 C292 1.240 . S
O291 Co264 2.096 . S
O291 C272 1.247 . S
C292 O289 1.244 . S
C292 O290 1.240 . S
H293 C267 0.931 . S
H294 C276 0.931 . S
H295 C280 0.929 . S
H296 C282 0.930 1_556 S
Co297 N301 2.148 . S
Co297 N307 2.128 . S
Co297 N317 2.194 . S
Co297 O322 2.351 . S
Co297 O323 2.155 . S
Co297 O324 2.096 . S
C298 N301 1.301 . S
C298 N302 1.332 . S
C298 H303 0.930 . S
C299 C300 1.333 . S
C299 N301 1.317 . S
C299 H304 0.930 . S
C300 C299 1.333 . S
C300 N302 1.352 . S
C300 H326 0.926 1_554 S
N301 Co297 2.148 . S
N301 C298 1.301 . S
N301 C299 1.317 . S
N302 C298 1.332 . S
N302 C300 1.352 . S
H303 C298 0.930 . S
H304 C299 0.930 . S
C305 O306 1.224 . S
C305 O324 1.247 . S
O306 C305 1.224 . S
N307 Co297 2.128 . S
N307 C308 1.355 . S
N307 C310 1.311 . S
C308 N307 1.355 . S
C308 C309 1.363 . S
C308 H320 0.929 . S
C309 C308 1.363 . S
C309 N311 1.375 . S
C309 H327 0.931 . S
C310 N307 1.311 . S
C310 N311 1.347 . S
C310 H321 0.929 . S
N311 C309 1.375 . S
N311 C310 1.347 . S
C312 C315 1.365 . S
C312 N317 1.328 . S
C312 H318 0.929 . S
C313 C314 1.362 . S
C313 C316 1.378 . S
C313 H328 0.929 . S
C314 C313 1.362 . S
C314 C315 1.366 . S
C315 C312 1.365 . S
C315 C314 1.366 . S
C315 H329 0.930 . S
C316 C313 1.378 . S
C316 N317 1.315 . S
C316 H319 0.930 . S
N317 Co297 2.194 . S
N317 C312 1.328 . S
N317 C316 1.315 . S
H318 C312 0.929 . S
H319 C316 0.930 . S
H320 C308 0.929 . S
H321 C310 0.929 . S
O322 Co297 2.351 . S
O322 C325 1.244 . S
O323 Co297 2.155 . S
O323 C325 1.240 . S
O324 Co297 2.096 . S
O324 C305 1.247 . S
C325 O322 1.244 . S
C325 O323 1.240 . S
H326 C300 0.926 1_556 S
H327 C309 0.931 . S
H328 C313 0.929 . S
H329 C315 0.930 . S
Co330 N334 2.148 . S
Co330 N340 2.128 . S
Co330 N350 2.194 . S
Co330 O355 2.351 . S
Co330 O356 2.155 . S
Co330 O357 2.096 . S
C331 N334 1.301 . S
C331 N335 1.328 . S
C331 H336 0.930 . S
C332 C333 1.333 . S
C332 N334 1.317 . S
C332 H337 0.930 . S
C333 C332 1.333 . S
C333 N335 1.350 . S
C333 H359 0.931 . S
N334 Co330 2.148 . S
N334 C331 1.301 . S
N334 C332 1.317 . S
N335 C331 1.328 . S
N335 C333 1.350 . S
H336 C331 0.930 . S
H337 C332 0.930 . S
C338 O339 1.224 . S
C338 O357 1.247 . S
O339 C338 1.224 . S
N340 Co330 2.128 . S
N340 C341 1.355 . S
N340 C343 1.311 . S
C341 N340 1.355 . S
C341 C342 1.363 . S
C341 H353 0.929 . S
C342 C341 1.363 . S
C342 N344 1.375 . S
C342 H360 0.931 . S
C343 N340 1.311 . S
C343 N344 1.347 . S
C343 H354 0.929 . S
N344 C342 1.375 . S
N344 C343 1.347 . S
C345 C348 1.365 . S
C345 N350 1.328 . S
C345 H351 0.929 . S
C346 C347 1.362 . S
C346 C349 1.378 . S
C346 H361 0.929 . S
C347 C346 1.362 . S
C347 C348 1.366 . S
C348 C345 1.365 . S
C348 C347 1.366 . S
C348 H362 0.930 . S
C349 C346 1.378 . S
C349 N350 1.315 . S
C349 H352 0.930 . S
N350 Co330 2.194 . S
N350 C345 1.328 . S
N350 C349 1.315 . S
H351 C345 0.929 . S
H352 C349 0.930 . S
H353 C341 0.929 . S
H354 C343 0.929 . S
O355 Co330 2.351 . S
O355 C358 1.244 . S
O356 Co330 2.155 . S
O356 C358 1.240 . S
O357 Co330 2.096 . S
O357 C338 1.247 . S
C358 O355 1.244 . S
C358 O356 1.240 . S
H359 C333 0.931 . S
H360 C342 0.931 . S
H361 C346 0.929 . S
H362 C348 0.930 . S
Co363 N367 2.148 . S
Co363 N373 2.128 . S
Co363 N383 2.194 . S
Co363 O388 2.351 . S
Co363 O389 2.155 . S
Co363 O390 2.096 . S
C364 N367 1.301 . S
C364 N368 1.328 . S
C364 H369 0.930 . S
C365 C366 1.333 . S
C365 N367 1.317 . S
C365 H370 0.930 . S
C366 C365 1.333 . S
C366 N368 1.350 . S
C366 H392 0.931 . S
N367 Co363 2.148 . S
N367 C364 1.301 . S
N367 C365 1.317 . S
N368 C364 1.328 . S
N368 C366 1.350 . S
H369 C364 0.930 . S
H370 C365 0.930 . S
C371 O372 1.224 . S
C371 O390 1.247 . S
O372 C371 1.224 . S
N373 Co363 2.128 . S
N373 C374 1.355 . S
N373 C376 1.311 . S
C374 N373 1.355 . S
C374 C375 1.363 . S
C374 H386 0.929 . S
C375 C374 1.363 . S
C375 N377 1.375 . S
C375 H393 0.931 . S
C376 N373 1.311 . S
C376 N377 1.347 . S
C376 H387 0.929 . S
N377 C375 1.375 . S
N377 C376 1.347 . S
C378 C381 1.365 . S
C378 N383 1.328 . S
C378 H384 0.929 . S
C379 C380 1.362 . S
C379 C382 1.378 . S
C379 H394 0.929 . S
C380 C379 1.362 . S
C380 C381 1.366 . S
C381 C378 1.365 . S
C381 C380 1.366 . S
C381 H395 0.930 . S
C382 C379 1.378 . S
C382 N383 1.315 . S
C382 H385 0.930 . S
N383 Co363 2.194 . S
N383 C378 1.328 . S
N383 C382 1.315 . S
H384 C378 0.929 . S
H385 C382 0.930 . S
H386 C374 0.929 . S
H387 C376 0.929 . S
O388 Co363 2.351 . S
O388 C391 1.244 . S
O389 Co363 2.155 . S
O389 C391 1.240 . S
O390 Co363 2.096 . S
O390 C371 1.247 . S
C391 O388 1.244 . S
C391 O389 1.240 . S
H392 C366 0.931 . S
H393 C375 0.931 . S
H394 C379 0.929 . S
H395 C381 0.930 . S
H396 C402 0.930 . S
H397 C406 0.930 . S
H398 C411 0.929 . S
H399 C409 0.929 . S
H400 C404 0.929 . S
H401 C410 0.929 . S
C402 H396 0.930 . S
C402 C403 1.367 . S
C402 C410 1.378 . S
C403 C402 1.367 . S
C403 C411 1.433 . S
C404 H400 0.929 . S
C404 C406 1.378 . S
C404 C408 1.350 . S
C405 C408 1.463 . S
C405 C410 1.350 . S
C405 N413 1.427 . S
C406 H397 0.930 . S
C406 C404 1.378 . S
C406 C407 1.367 . S
C407 C406 1.367 . S
C407 C409 1.433 . S
C408 C404 1.350 . S
C408 C405 1.463 . S
C408 N412 1.427 . S
C409 H399 0.929 . S
C409 C407 1.433 . S
C409 N412 1.384 . S
C410 H401 0.929 . S
C410 C402 1.378 . S
C410 C405 1.350 . S
C411 H398 0.929 . S
C411 C403 1.433 . S
C411 N413 1.384 . S
N412 C408 1.427 . S
N412 C409 1.384 . S
N413 C405 1.427 . S
N413 C411 1.384 . S
H414 C420 0.930 . S
H415 C424 0.930 . S
H416 C429 0.929 . S
H417 C427 0.929 . S
H418 C422 0.929 . S
H419 C428 0.929 . S
C420 H414 0.930 . S
C420 C421 1.367 . S
C420 C428 1.378 . S
C421 C420 1.367 . S
C421 C429 1.433 . S
C422 H418 0.929 . S
C422 C424 1.378 . S
C422 C426 1.350 . S
C423 C426 1.463 . S
C423 C428 1.350 . S
C423 N431 1.427 . S
C424 H415 0.930 . S
C424 C422 1.378 . S
C424 C425 1.367 . S
C425 C424 1.367 . S
C425 C427 1.433 . S
C426 C422 1.350 . S
C426 C423 1.463 . S
C426 N430 1.427 . S
C427 H417 0.929 . S
C427 C425 1.433 . S
C427 N430 1.384 . S
C428 H419 0.929 . S
C428 C420 1.378 . S
C428 C423 1.350 . S
C429 H416 0.929 . S
C429 C421 1.433 . S
C429 N431 1.384 . S
N430 C426 1.427 . S
N430 C427 1.384 . S
N431 C423 1.427 . S
N431 C429 1.384 . S
H432 C438 0.930 . S
H433 C442 0.930 . S
H434 C447 0.929 . S
H435 C445 0.929 . S
H436 C440 0.929 . S
H437 C446 0.929 . S
C438 H432 0.930 . S
C438 C439 1.367 . S
C438 C446 1.378 1_554 S
C439 C438 1.367 . S
C439 C447 1.433 . S
C440 H436 0.929 . S
C440 C442 1.378 . S
C440 C444 1.350 . S
C441 C444 1.463 . S
C441 C446 1.350 . S
C441 N449 1.427 1_556 S
C442 H433 0.930 . S
C442 C440 1.378 . S
C442 C443 1.367 . S
C443 C442 1.367 . S
C443 C445 1.433 . S
C444 C440 1.350 . S
C444 C441 1.463 . S
C444 N448 1.427 . S
C445 H435 0.929 . S
C445 C443 1.433 . S
C445 N448 1.384 . S
C446 H437 0.929 . S
C446 C438 1.378 1_556 S
C446 C441 1.350 . S
C447 H434 0.929 . S
C447 C439 1.433 . S
C447 N449 1.384 . S
N448 C444 1.427 . S
N448 C445 1.384 . S
N449 C441 1.427 1_554 S
N449 C447 1.384 . S
H450 C456 0.930 . S
H451 C460 0.930 . S
H452 C465 0.929 . S
H453 C463 0.929 . S
H454 C458 0.929 . S
H455 C464 0.929 . S
C456 H450 0.930 . S
C456 C457 1.367 . S
C456 C464 1.378 1_556 S
C457 C456 1.367 . S
C457 C465 1.433 . S
C458 H454 0.929 . S
C458 C460 1.378 . S
C458 C462 1.350 . S
C459 C462 1.463 . S
C459 C464 1.350 . S
C459 N467 1.427 . S
C460 H451 0.930 . S
C460 C458 1.378 . S
C460 C461 1.367 . S
C461 C460 1.367 . S
C461 C463 1.433 . S
C462 C458 1.350 . S
C462 C459 1.463 . S
C462 N466 1.427 . S
C463 H453 0.929 . S
C463 C461 1.433 . S
C463 N466 1.384 . S
C464 H455 0.929 . S
C464 C456 1.378 1_554 S
C464 C459 1.350 . S
C465 H452 0.929 . S
C465 C457 1.433 . S
C465 N467 1.384 1_556 S
N466 C462 1.427 . S
N466 C463 1.384 . S
N467 C459 1.427 . S
N467 C465 1.384 1_554 S
H468 C474 0.930 . S
H469 C478 0.930 . S
H470 C483 0.929 . S
H471 C481 0.929 . S
H472 C476 0.929 . S
H473 C482 0.929 . S
C474 H468 0.930 . S
C474 C475 1.367 . S
C474 C482 1.378 . S
C475 C474 1.367 . S
C475 C483 1.433 . S
C476 H472 0.929 . S
C476 C478 1.378 . S
C476 C480 1.350 . S
C477 C480 1.463 . S
C477 C482 1.350 . S
C477 N485 1.427 . S
C478 H469 0.930 . S
C478 C476 1.378 . S
C478 C479 1.367 . S
C479 C478 1.367 . S
C479 C481 1.433 . S
C480 C476 1.350 . S
C480 C477 1.463 . S
C480 N484 1.427 . S
C481 H471 0.929 . S
C481 C479 1.433 . S
C481 N484 1.384 . S
C482 H473 0.929 . S
C482 C474 1.378 . S
C482 C477 1.350 . S
C483 H470 0.929 . S
C483 C475 1.433 . S
C483 N485 1.384 . S
N484 C480 1.427 . S
N484 C481 1.384 . S
N485 C477 1.427 . S
N485 C483 1.384 . S
H486 C492 0.930 . S
H487 C496 0.930 . S
H488 C501 0.929 . S
H489 C499 0.929 . S
H490 C494 0.929 . S
H491 C500 0.929 . S
C492 H486 0.930 . S
C492 C493 1.367 . S
C492 C500 1.378 . S
C493 C492 1.367 . S
C493 C501 1.433 . S
C494 H490 0.929 . S
C494 C496 1.378 . S
C494 C498 1.350 . S
C495 C498 1.463 . S
C495 C500 1.350 . S
C495 N503 1.427 . S
C496 H487 0.930 . S
C496 C494 1.378 . S
C496 C497 1.367 . S
C497 C496 1.367 . S
C497 C499 1.433 . S
C498 C494 1.350 . S
C498 C495 1.463 . S
C498 N502 1.427 . S
C499 H489 0.929 . S
C499 C497 1.433 . S
C499 N502 1.384 . S
C500 H491 0.929 . S
C500 C492 1.378 . S
C500 C495 1.350 . S
C501 H488 0.929 . S
C501 C493 1.433 . S
C501 N503 1.384 . S
N502 C498 1.427 . S
N502 C499 1.384 . S
N503 C495 1.427 . S
N503 C501 1.384 . S
H504 C510 0.930 . S
H505 C514 0.930 . S
H506 C519 0.929 . S
H507 C517 0.929 . S
H508 C512 0.929 . S
H509 C518 0.929 . S
C510 H504 0.930 . S
C510 C511 1.367 . S
C510 C518 1.378 . S
C511 C510 1.367 . S
C511 C519 1.433 . S
C512 H508 0.929 . S
C512 C514 1.378 . S
C512 C516 1.350 . S
C513 C516 1.463 . S
C513 C518 1.350 . S
C513 N521 1.427 . S
C514 H505 0.930 . S
C514 C512 1.378 . S
C514 C515 1.367 . S
C515 C514 1.367 . S
C515 C517 1.433 . S
C516 C512 1.350 . S
C516 C513 1.463 . S
C516 N520 1.427 . S
C517 H507 0.929 . S
C517 C515 1.433 . S
C517 N520 1.384 . S
C518 H509 0.929 . S
C518 C510 1.378 . S
C518 C513 1.350 . S
C519 H506 0.929 . S
C519 C511 1.433 . S
C519 N521 1.384 . S
N520 C516 1.427 . S
N520 C517 1.384 . S
N521 C513 1.427 . S
N521 C519 1.384 . S
H522 C528 0.930 . S
H523 C532 0.930 . S
H524 C537 0.929 . S
H525 C535 0.929 . S
H526 C530 0.929 . S
H527 C536 0.929 . S
C528 H522 0.930 . S
C528 C529 1.367 . S
C528 C536 1.378 . S
C529 C528 1.367 . S
C529 C537 1.433 . S
C530 H526 0.929 . S
C530 C532 1.378 . S
C530 C534 1.350 . S
C531 C534 1.463 . S
C531 C536 1.350 . S
C531 N539 1.427 . S
C532 H523 0.930 . S
C532 C530 1.378 . S
C532 C533 1.367 . S
C533 C532 1.367 . S
C533 C535 1.433 . S
C534 C530 1.350 . S
C534 C531 1.463 . S
C534 N538 1.427 . S
C535 H525 0.929 . S
C535 C533 1.433 . S
C535 N538 1.384 . S
C536 H527 0.929 . S
C536 C528 1.378 . S
C536 C531 1.350 . S
C537 H524 0.929 . S
C537 C529 1.433 . S
C537 N539 1.384 . S
N538 C534 1.427 . S
N538 C535 1.384 . S
N539 C531 1.427 . S
N539 C537 1.384 . S
H540 C546 0.930 . S
H541 C550 0.930 . S
H542 C555 0.929 . S
H543 C553 0.929 . S
H544 C548 0.929 . S
H545 C554 0.929 . S
C546 H540 0.930 . S
C546 C547 1.367 . S
C546 C554 1.378 . S
C547 C546 1.367 . S
C547 C555 1.433 . S
C548 H544 0.929 . S
C548 C550 1.378 . S
C548 C552 1.350 . S
C549 C552 1.463 . S
C549 C554 1.350 . S
C549 N557 1.427 . S
C550 H541 0.930 . S
C550 C548 1.378 . S
C550 C551 1.367 . S
C551 C550 1.367 . S
C551 C553 1.433 . S
C552 C548 1.350 . S
C552 C549 1.463 . S
C552 N556 1.427 . S
C553 H543 0.929 . S
C553 C551 1.433 . S
C553 N556 1.384 . S
C554 H545 0.929 . S
C554 C546 1.378 . S
C554 C549 1.350 . S
C555 H542 0.929 . S
C555 C547 1.433 . S
C555 N557 1.384 . S
N556 C552 1.427 . S
N556 C553 1.384 . S
N557 C549 1.427 . S
N557 C555 1.384 . S
H558 C564 0.930 . S
H559 C568 0.930 . S
H560 C573 0.929 . S
H561 C571 0.929 . S
H562 C566 0.929 . S
H563 C572 0.929 . S
C564 H558 0.930 . S
C564 C565 1.367 . S
C564 C572 1.378 . S
C565 C564 1.367 . S
C565 C573 1.433 . S
C566 H562 0.929 . S
C566 C568 1.378 . S
C566 C570 1.350 . S
C567 C570 1.463 . S
C567 C572 1.350 . S
C567 N575 1.427 . S
C568 H559 0.930 . S
C568 C566 1.378 . S
C568 C569 1.367 . S
C569 C568 1.367 . S
C569 C571 1.433 . S
C570 C566 1.350 . S
C570 C567 1.463 . S
C570 N574 1.427 . S
C571 H561 0.929 . S
C571 C569 1.433 . S
C571 N574 1.384 . S
C572 H563 0.929 . S
C572 C564 1.378 . S
C572 C567 1.350 . S
C573 H560 0.929 . S
C573 C565 1.433 . S
C573 N575 1.384 . S
N574 C570 1.427 . S
N574 C571 1.384 . S
N575 C567 1.427 . S
N575 C573 1.384 . S
H576 C582 0.930 . S
H577 C586 0.930 . S
H578 C591 0.929 . S
H579 C589 0.929 . S
H580 C584 0.929 . S
H581 C590 0.929 . S
C582 H576 0.930 . S
C582 C583 1.367 . S
C582 C590 1.378 1_554 S
C583 C582 1.367 . S
C583 C591 1.433 . S
C584 H580 0.929 . S
C584 C586 1.378 . S
C584 C588 1.350 . S
C585 C588 1.463 . S
C585 C590 1.350 . S
C585 N593 1.427 . S
C586 H577 0.930 . S
C586 C584 1.378 . S
C586 C587 1.367 . S
C587 C586 1.367 . S
C587 C589 1.433 . S
C588 C584 1.350 . S
C588 C585 1.463 . S
C588 N592 1.427 . S
C589 H579 0.929 . S
C589 C587 1.433 . S
C589 N592 1.384 . S
C590 H581 0.929 . S
C590 C582 1.378 1_556 S
C590 C585 1.350 . S
C591 H578 0.929 . S
C591 C583 1.433 . S
C591 N593 1.384 1_554 S
N592 C588 1.427 . S
N592 C589 1.384 . S
N593 C585 1.427 . S
N593 C591 1.384 1_556 S
H594 C600 0.930 . S
H595 C604 0.930 . S
H596 C609 0.929 . S
H597 C607 0.929 . S
H598 C602 0.929 . S
H599 C608 0.922 1_554 S
C600 H594 0.930 . S
C600 C601 1.367 . S
C600 C608 1.389 . S
C601 C600 1.367 . S
C601 C609 1.433 . S
C602 H598 0.929 . S
C602 C604 1.378 . S
C602 C606 1.350 . S
C603 C606 1.463 . S
C603 C608 1.345 1_554 S
C603 N611 1.427 1_554 S
C604 H595 0.930 . S
C604 C602 1.378 . S
C604 C605 1.367 . S
C605 C604 1.367 . S
C605 C607 1.433 . S
C606 C602 1.350 . S
C606 C603 1.463 . S
C606 N610 1.427 . S
C607 H597 0.929 . S
C607 C605 1.433 . S
C607 N610 1.384 . S
C608 H599 0.922 1_556 S
C608 C600 1.389 . S
C608 C603 1.345 1_556 S
C609 H596 0.929 . S
C609 C601 1.433 . S
C609 N611 1.384 . S
N610 C606 1.427 . S
N610 C607 1.384 . S
N611 C603 1.427 1_556 S
N611 C609 1.384 . S
H612 C618 0.930 . S
H613 C622 0.930 . S
H614 C627 0.929 . S
H615 C625 0.929 . S
H616 C620 0.929 . S
H617 C626 0.929 . S
C618 H612 0.930 . S
C618 C619 1.367 . S
C618 C626 1.378 . S
C619 C618 1.367 . S
C619 C627 1.433 . S
C620 H616 0.929 . S
C620 C622 1.378 . S
C620 C624 1.350 1_554 S
C621 C624 1.463 . S
C621 C626 1.350 . S
C621 N629 1.427 . S
C622 H613 0.930 . S
C622 C620 1.378 . S
C622 C623 1.367 . S
C623 C622 1.367 . S
C623 C625 1.433 1_554 S
C624 C620 1.350 1_556 S
C624 C621 1.463 . S
C624 N628 1.427 . S
C625 H615 0.929 . S
C625 C623 1.433 1_556 S
C625 N628 1.384 . S
C626 H617 0.929 . S
C626 C618 1.378 . S
C626 C621 1.350 . S
C627 H614 0.929 . S
C627 C619 1.433 . S
C627 N629 1.384 . S
N628 C624 1.427 . S
N628 C625 1.384 . S
N629 C621 1.427 . S
N629 C627 1.384 . S
H630 C636 0.930 . S
H631 C640 0.930 . S
H632 C645 0.929 . S
H633 C643 0.929 . S
H634 C638 0.934 . S
H635 C644 0.929 . S
C636 H630 0.930 . S
C636 C637 1.367 . S
C636 C644 1.378 . S
C637 C636 1.367 . S
C637 C645 1.433 . S
C638 H634 0.934 . S
C638 C640 1.384 . S
C638 C642 1.338 1_556 S
C639 C642 1.463 . S
C639 C644 1.350 . S
C639 N647 1.427 . S
C640 H631 0.930 . S
C640 C638 1.384 . S
C640 C641 1.367 . S
C641 C640 1.367 . S
C641 C643 1.433 1_556 S
C642 C638 1.338 1_554 S
C642 C639 1.463 . S
C642 N646 1.427 . S
C643 H633 0.929 . S
C643 C641 1.433 1_554 S
C643 N646 1.384 . S
C644 H635 0.929 . S
C644 C636 1.378 . S
C644 C639 1.350 . S
C645 H632 0.929 . S
C645 C637 1.433 . S
C645 N647 1.384 . S
N646 C642 1.427 . S
N646 C643 1.384 . S
N647 C639 1.427 . S
N647 C645 1.384 . S
H648 C654 0.930 . S
H649 C658 0.930 . S
H650 C663 0.929 . S
H651 C661 0.929 . S
H652 C656 0.929 . S
H653 C662 0.929 . S
C654 H648 0.930 . S
C654 C655 1.367 . S
C654 C662 1.378 . S
C655 C654 1.367 . S
C655 C663 1.433 . S
C656 H652 0.929 . S
C656 C658 1.378 . S
C656 C660 1.350 . S
C657 C660 1.463 . S
C657 C662 1.350 . S
C657 N665 1.427 . S
C658 H649 0.930 . S
C658 C656 1.378 . S
C658 C659 1.367 . S
C659 C658 1.367 . S
C659 C661 1.433 . S
C660 C656 1.350 . S
C660 C657 1.463 . S
C660 N664 1.427 . S
C661 H651 0.929 . S
C661 C659 1.433 . S
C661 N664 1.384 . S
C662 H653 0.929 . S
C662 C654 1.378 . S
C662 C657 1.350 . S
C663 H650 0.929 . S
C663 C655 1.433 . S
C663 N665 1.384 . S
N664 C660 1.427 . S
N664 C661 1.384 . S
N665 C657 1.427 . S
N665 C663 1.384 . S
H666 C672 0.930 . S
H667 C676 0.930 . S
H668 C681 0.929 . S
H669 C679 0.929 . S
H670 C674 0.929 . S
H671 C680 0.929 . S
C672 H666 0.930 . S
C672 C673 1.367 . S
C672 C680 1.378 . S
C673 C672 1.367 . S
C673 C681 1.433 . S
C674 H670 0.929 . S
C674 C676 1.378 . S
C674 C678 1.350 . S
C675 C678 1.463 . S
C675 C680 1.350 . S
C675 N683 1.427 . S
C676 H667 0.930 . S
C676 C674 1.378 . S
C676 C677 1.367 . S
C677 C676 1.367 . S
C677 C679 1.433 . S
C678 C674 1.350 . S
C678 C675 1.463 . S
C678 N682 1.427 . S
C679 H669 0.929 . S
C679 C677 1.433 . S
C679 N682 1.384 . S
C680 H671 0.929 . S
C680 C672 1.378 . S
C680 C675 1.350 . S
C681 H668 0.929 . S
C681 C673 1.433 . S
C681 N683 1.384 . S
N682 C678 1.427 . S
N682 C679 1.384 . S
N683 C675 1.427 . S
N683 C681 1.384 . S
H684 C690 0.930 . S
H685 C694 0.930 . S
H686 C699 0.929 . S
H687 C697 0.929 . S
H688 C692 0.929 . S
H689 C698 0.929 . S
C690 H684 0.930 . S
C690 C691 1.367 . S
C690 C698 1.378 . S
C691 C690 1.367 . S
C691 C699 1.433 . S
C692 H688 0.929 . S
C692 C694 1.378 . S
C692 C696 1.350 . S
C693 C696 1.463 . S
C693 C698 1.350 . S
C693 N701 1.427 . S
C694 H685 0.930 . S
C694 C692 1.378 . S
C694 C695 1.367 . S
C695 C694 1.367 . S
C695 C697 1.433 . S
C696 C692 1.350 . S
C696 C693 1.463 . S
C696 N700 1.427 . S
C697 H687 0.929 . S
C697 C695 1.433 . S
C697 N700 1.384 . S
C698 H689 0.929 . S
C698 C690 1.378 . S
C698 C693 1.350 . S
C699 H686 0.929 . S
C699 C691 1.433 . S
C699 N701 1.384 . S
N700 C696 1.427 . S
N700 C697 1.384 . S
N701 C693 1.427 . S
N701 C699 1.384 . S
H702 C708 0.930 . S
H703 C712 0.930 . S
H704 C717 0.929 . S
H705 C715 0.929 . S
H706 C710 0.929 . S
H707 C716 0.929 . S
C708 H702 0.930 . S
C708 C709 1.367 . S
C708 C716 1.378 . S
C709 C708 1.367 . S
C709 C717 1.433 . S
C710 H706 0.929 . S
C710 C712 1.378 . S
C710 C714 1.350 . S
C711 C714 1.463 . S
C711 C716 1.350 . S
C711 N719 1.427 . S
C712 H703 0.930 . S
C712 C710 1.378 . S
C712 C713 1.367 . S
C713 C712 1.367 . S
C713 C715 1.433 . S
C714 C710 1.350 . S
C714 C711 1.463 . S
C714 N718 1.427 . S
C715 H705 0.929 . S
C715 C713 1.433 . S
C715 N718 1.384 . S
C716 H707 0.929 . S
C716 C708 1.378 . S
C716 C711 1.350 . S
C717 H704 0.929 . S
C717 C709 1.433 . S
C717 N719 1.384 . S
N718 C714 1.427 . S
N718 C715 1.384 . S
N719 C711 1.427 . S
N719 C717 1.384 . S
H720 C726 0.930 . S
H721 C730 0.930 . S
H722 C735 0.929 . S
H723 C733 0.929 . S
H724 C728 0.929 . S
H725 C734 0.929 . S
C726 H720 0.930 . S
C726 C727 1.367 . S
C726 C734 1.378 . S
C727 C726 1.367 . S
C727 C735 1.433 . S
C728 H724 0.929 . S
C728 C730 1.378 . S
C728 C732 1.350 . S
C729 C732 1.463 . S
C729 C734 1.350 . S
C729 N737 1.427 . S
C730 H721 0.930 . S
C730 C728 1.378 . S
C730 C731 1.367 . S
C731 C730 1.367 . S
C731 C733 1.433 . S
C732 C728 1.350 . S
C732 C729 1.463 . S
C732 N736 1.427 . S
C733 H723 0.929 . S
C733 C731 1.433 . S
C733 N736 1.384 . S
C734 H725 0.929 . S
C734 C726 1.378 . S
C734 C729 1.350 . S
C735 H722 0.929 . S
C735 C727 1.433 . S
C735 N737 1.384 . S
N736 C732 1.427 . S
N736 C733 1.384 . S
N737 C729 1.427 . S
N737 C735 1.384 . S
H738 C744 0.930 . S
H739 C748 0.930 . S
H740 C753 0.929 . S
H741 C751 0.929 . S
H742 C746 0.929 . S
H743 C752 0.929 . S
C744 H738 0.930 . S
C744 C745 1.367 . S
C744 C752 1.378 . S
C745 C744 1.367 . S
C745 C753 1.433 . S
C746 H742 0.929 . S
C746 C748 1.378 . S
C746 C750 1.350 . S
C747 C750 1.463 . S
C747 C752 1.350 . S
C747 N755 1.427 . S
C748 H739 0.930 . S
C748 C746 1.378 . S
C748 C749 1.367 . S
C749 C748 1.367 . S
C749 C751 1.433 . S
C750 C746 1.350 . S
C750 C747 1.463 . S
C750 N754 1.427 . S
C751 H741 0.929 . S
C751 C749 1.433 . S
C751 N754 1.384 . S
C752 H743 0.929 . S
C752 C744 1.378 . S
C752 C747 1.350 . S
C753 H740 0.929 . S
C753 C745 1.433 . S
C753 N755 1.384 . S
N754 C750 1.427 . S
N754 C751 1.384 . S
N755 C747 1.427 . S
N755 C753 1.384 . S
H756 C762 0.930 . S
H757 C766 0.930 . S
H758 C771 0.929 . S
H759 C769 0.929 . S
H760 C764 0.929 . S
H761 C770 0.929 . S
C762 H756 0.930 . S
C762 C763 1.367 . S
C762 C770 1.378 . S
C763 C762 1.367 . S
C763 C771 1.433 . S
C764 H760 0.929 . S
C764 C766 1.378 . S
C764 C768 1.350 . S
C765 C768 1.463 . S
C765 C770 1.350 . S
C765 N773 1.427 . S
C766 H757 0.930 . S
C766 C764 1.378 . S
C766 C767 1.367 . S
C767 C766 1.367 . S
C767 C769 1.433 . S
C768 C764 1.350 . S
C768 C765 1.463 . S
C768 N772 1.427 . S
C769 H759 0.929 . S
C769 C767 1.433 . S
C769 N772 1.384 . S
C770 H761 0.929 . S
C770 C762 1.378 . S
C770 C765 1.350 . S
C771 H758 0.929 . S
C771 C763 1.433 . S
C771 N773 1.384 . S
N772 C768 1.427 . S
N772 C769 1.384 . S
N773 C765 1.427 . S
N773 C771 1.384 . S
H774 C780 0.930 . S
H775 C784 0.930 . S
H776 C789 0.929 . S
H777 C787 0.929 . S
H778 C782 0.929 . S
H779 C788 0.929 . S
C780 H774 0.930 . S
C780 C781 1.367 . S
C780 C788 1.378 . S
C781 C780 1.367 . S
C781 C789 1.433 . S
C782 H778 0.929 . S
C782 C784 1.378 . S
C782 C786 1.350 . S
C783 C786 1.463 . S
C783 C788 1.350 . S
C783 N791 1.427 . S
C784 H775 0.930 . S
C784 C782 1.378 . S
C784 C785 1.367 . S
C785 C784 1.367 . S
C785 C787 1.433 . S
C786 C782 1.350 . S
C786 C783 1.463 . S
C786 N790 1.427 . S
C787 H777 0.929 . S
C787 C785 1.433 . S
C787 N790 1.384 . S
C788 H779 0.929 . S
C788 C780 1.378 . S
C788 C783 1.350 . S
C789 H776 0.929 . S
C789 C781 1.433 . S
C789 N791 1.384 . S
N790 C786 1.427 . S
N790 C787 1.384 . S
N791 C783 1.427 . S
N791 C789 1.384 . S
H792 C798 0.930 . S
H793 C802 0.930 . S
H794 C807 0.929 . S
H795 C805 0.929 . S
H796 C800 0.929 . S
H797 C806 0.929 . S
C798 H792 0.930 . S
C798 C799 1.367 . S
C798 C806 1.378 1_554 S
C799 C798 1.367 . S
C799 C807 1.433 1_554 S
C800 H796 0.929 . S
C800 C802 1.378 . S
C800 C804 1.350 . S
C801 C804 1.463 . S
C801 C806 1.350 . S
C801 N809 1.427 . S
C802 H793 0.930 . S
C802 C800 1.378 . S
C802 C803 1.367 . S
C803 C802 1.367 . S
C803 C805 1.433 . S
C804 C800 1.350 . S
C804 C801 1.463 . S
C804 N808 1.427 . S
C805 H795 0.929 . S
C805 C803 1.433 . S
C805 N808 1.384 . S
C806 H797 0.929 . S
C806 C798 1.378 1_556 S
C806 C801 1.350 . S
C807 H794 0.929 . S
C807 C799 1.433 1_556 S
C807 N809 1.384 . S
N808 C804 1.427 . S
N808 C805 1.384 . S
N809 C801 1.427 . S
N809 C807 1.384 . S
H810 C816 0.930 . S
H811 C820 0.930 . S
H812 C825 0.929 . S
H813 C823 0.929 . S
H814 C818 0.929 . S
H815 C824 0.929 . S
C816 H810 0.930 . S
C816 C817 1.367 . S
C816 C824 1.378 . S
C817 C816 1.367 . S
C817 C825 1.433 . S
C818 H814 0.929 . S
C818 C820 1.378 . S
C818 C822 1.350 . S
C819 C822 1.463 . S
C819 C824 1.350 . S
C819 N827 1.427 . S
C820 H811 0.930 . S
C820 C818 1.378 . S
C820 C821 1.367 1_554 S
C821 C820 1.367 1_556 S
C821 C823 1.433 . S
C822 C818 1.350 . S
C822 C819 1.463 . S
C822 N826 1.427 1_554 S
C823 H813 0.929 . S
C823 C821 1.433 . S
C823 N826 1.384 . S
C824 H815 0.929 . S
C824 C816 1.378 . S
C824 C819 1.350 . S
C825 H812 0.929 . S
C825 C817 1.433 . S
C825 N827 1.384 . S
N826 C822 1.427 1_556 S
N826 C823 1.384 . S
N827 C819 1.427 . S
N827 C825 1.384 . S
H828 C834 0.930 . S
H829 C838 0.930 . S
H830 C843 0.929 . S
H831 C841 0.929 . S
H832 C836 0.929 . S
H833 C842 0.929 . S
C834 H828 0.930 . S
C834 C835 1.367 . S
C834 C842 1.378 . S
C835 C834 1.367 . S
C835 C843 1.433 . S
C836 H832 0.929 . S
C836 C838 1.378 . S
C836 C840 1.350 . S
C837 C840 1.463 . S
C837 C842 1.350 . S
C837 N845 1.427 . S
C838 H829 0.930 . S
C838 C836 1.378 . S
C838 C839 1.367 . S
C839 C838 1.367 . S
C839 C841 1.433 . S
C840 C836 1.350 . S
C840 C837 1.463 . S
C840 N844 1.427 . S
C841 H831 0.929 . S
C841 C839 1.433 . S
C841 N844 1.384 . S
C842 H833 0.929 . S
C842 C834 1.378 . S
C842 C837 1.350 . S
C843 H830 0.929 . S
C843 C835 1.433 . S
C843 N845 1.384 . S
N844 C840 1.427 . S
N844 C841 1.384 . S
N845 C837 1.427 . S
N845 C843 1.384 . S
H846 C852 0.930 . S
H847 C856 0.930 . S
H848 C861 0.929 . S
H849 C859 0.929 . S
H850 C854 0.929 . S
H851 C860 0.929 . S
C852 H846 0.930 . S
C852 C853 1.367 . S
C852 C860 1.378 . S
C853 C852 1.367 . S
C853 C861 1.433 . S
C854 H850 0.929 . S
C854 C856 1.378 . S
C854 C858 1.350 . S
C855 C858 1.463 1_655 S
C855 C860 1.350 . S
C855 N863 1.427 . S
C856 H847 0.930 . S
C856 C854 1.378 . S
C856 C857 1.367 . S
C857 C856 1.367 . S
C857 C859 1.433 . S
C858 C854 1.350 . S
C858 C855 1.463 1_455 S
C858 N862 1.427 . S
C859 H849 0.929 . S
C859 C857 1.433 . S
C859 N862 1.384 . S
C860 H851 0.929 . S
C860 C852 1.378 . S
C860 C855 1.350 . S
C861 H848 0.929 . S
C861 C853 1.433 . S
C861 N863 1.384 . S
N862 C858 1.427 . S
N862 C859 1.384 . S
N863 C855 1.427 . S
N863 C861 1.384 . S
H864 C870 0.930 . S
H865 C874 0.930 . S
H866 C879 0.929 . S
H867 C877 0.929 . S
H868 C872 0.929 . S
H869 C878 0.929 . S
C870 H864 0.930 . S
C870 C871 1.367 . S
C870 C878 1.378 . S
C871 C870 1.367 . S
C871 C879 1.433 . S
C872 H868 0.929 . S
C872 C874 1.378 . S
C872 C876 1.350 . S
C873 C876 1.463 1_545 S
C873 C878 1.350 . S
C873 N881 1.427 . S
C874 H865 0.930 . S
C874 C872 1.378 . S
C874 C875 1.367 . S
C875 C874 1.367 . S
C875 C877 1.433 . S
C876 C872 1.350 . S
C876 C873 1.463 1_565 S
C876 N880 1.427 . S
C877 H867 0.929 . S
C877 C875 1.433 . S
C877 N880 1.384 . S
C878 H869 0.929 . S
C878 C870 1.378 . S
C878 C873 1.350 . S
C879 H866 0.929 . S
C879 C871 1.433 . S
C879 N881 1.384 . S
N880 C876 1.427 . S
N880 C877 1.384 . S
N881 C873 1.427 . S
N881 C879 1.384 . S
H882 C888 0.930 . S
H883 C892 0.930 . S
H884 C897 0.929 . S
H885 C895 0.929 . S
H886 C890 0.929 . S
H887 C896 0.929 . S
C888 H882 0.930 . S
C888 C889 1.367 . S
C888 C896 1.378 . S
C889 C888 1.367 . S
C889 C897 1.433 . S
C890 H886 0.929 . S
C890 C892 1.378 . S
C890 C894 1.350 . S
C891 C894 1.463 . S
C891 C896 1.350 . S
C891 N899 1.427 . S
C892 H883 0.930 . S
C892 C890 1.378 . S
C892 C893 1.367 . S
C893 C892 1.367 . S
C893 C895 1.433 . S
C894 C890 1.350 . S
C894 C891 1.463 . S
C894 N898 1.427 . S
C895 H885 0.929 . S
C895 C893 1.433 . S
C895 N898 1.384 . S
C896 H887 0.929 . S
C896 C888 1.378 . S
C896 C891 1.350 . S
C897 H884 0.929 . S
C897 C889 1.433 . S
C897 N899 1.384 . S
N898 C894 1.427 . S
N898 C895 1.384 . S
N899 C891 1.427 . S
N899 C897 1.384 . S
H900 C906 0.930 . S
H901 C910 0.930 . S
H902 C915 0.929 . S
H903 C913 0.929 . S
H904 C908 0.929 . S
H905 C914 0.929 . S
C906 H900 0.930 . S
C906 C907 1.367 . S
C906 C914 1.378 . S
C907 C906 1.367 . S
C907 C915 1.433 . S
C908 H904 0.929 . S
C908 C910 1.378 . S
C908 C912 1.350 . S
C909 C912 1.463 1_455 S
C909 C914 1.350 . S
C909 N917 1.427 . S
C910 H901 0.930 . S
C910 C908 1.378 . S
C910 C911 1.367 . S
C911 C910 1.367 . S
C911 C913 1.433 . S
C912 C908 1.350 . S
C912 C909 1.463 1_655 S
C912 N916 1.427 . S
C913 H903 0.929 . S
C913 C911 1.433 . S
C913 N916 1.384 . S
C914 H905 0.929 . S
C914 C906 1.378 . S
C914 C909 1.350 . S
C915 H902 0.929 . S
C915 C907 1.433 . S
C915 N917 1.384 . S
N916 C912 1.427 . S
N916 C913 1.384 . S
N917 C909 1.427 . S
N917 C915 1.384 . S
H918 C924 0.930 . S
H919 C928 0.930 . S
H920 C933 0.929 . S
H921 C931 0.929 . S
H922 C926 0.929 . S
H923 C932 0.929 . S
C924 H918 0.930 . S
C924 C925 1.367 1_554 S
C924 C932 1.378 . S
C925 C924 1.367 1_556 S
C925 C933 1.433 . S
C926 H922 0.929 . S
C926 C928 1.378 . S
C926 C930 1.350 1_556 S
C927 C930 1.463 1_546 S
C927 C932 1.350 1_556 S
C927 N935 1.427 . S
C928 H919 0.930 . S
C928 C926 1.378 . S
C928 C929 1.367 1_556 S
C929 C928 1.367 1_554 S
C929 C931 1.433 . S
C930 C926 1.350 1_554 S
C930 C927 1.463 1_564 S
C930 N934 1.427 . S
C931 H921 0.929 . S
C931 C929 1.433 . S
C931 N934 1.384 . S
C932 H923 0.929 . S
C932 C924 1.378 . S
C932 C927 1.350 1_554 S
C933 H920 0.929 . S
C933 C925 1.433 . S
C933 N935 1.384 . S
N934 C930 1.427 . S
N934 C931 1.384 . S
N935 C927 1.427 . S
N935 C933 1.384 . S
C403 N5 1.272 . S
C407 N14 1.272 . S
C421 N47 1.270 1_556 S
C425 N38 1.271 . S
C439 N80 1.267 . S
C443 N71 1.270 . S
C457 N104 1.272 . S
C461 N113 1.271 . S
C475 N137 1.268 1_554 S
C479 N146 1.272 . S
C493 N179 1.271 . S
C497 N170 1.272 . S
C511 N203 1.269 . S
C515 N212 1.267 1_554 S
C529 N236 1.271 . S
C533 N245 1.269 . S
C547 N278 1.268 . S
C551 N269 1.270 . S
C565 N302 1.265 1_556 S
C569 N311 1.267 . S
C583 N335 1.270 . S
C587 N344 1.268 . S
C601 N377 1.268 . S
C605 N368 1.270 . S
C619 C206 1.516 . S
C623 C8 1.518 . S
C637 C41 1.515 . S
C641 C239 1.519 . S
C655 C272 1.516 . S
C659 C74 1.511 . S
C673 C305 1.519 . S
C677 C107 1.515 . S
C691 C338 1.514 . S
C695 C140 1.519 . S
C709 C371 1.512 . S
C713 C173 1.519 . S
C727 C28 1.122 . S
C731 C358 1.127 . S
C745 C61 1.128 . S
C749 C391 1.121 . S
C763 C94 1.120 . S
C767 C226 1.127 . S
C781 C259 1.125 . S
C785 C127 1.117 . S
C799 C292 1.120 . S
C803 C160 1.127 . S
C817 C325 1.120 . S
C821 C193 1.116 . S
C835 C17 1.499 . S
C839 C314 1.493 . S
C853 C50 1.494 . S
C857 C347 1.496 . S
C871 C380 1.494 . S
C875 C83 1.496 . S
C889 C116 1.493 . S
C893 C215 1.497 . S
C907 C149 1.495 . S
C911 C248 1.503 . S
C925 C182 1.496 . S
C929 C281 1.494 . S
