# Generated by pormake.
# Topology oof, (8)-cn, num edge types: 1
# Building blocks:
#     Node 0, Type 0, BuildingBlock: EBIMEJ_clean_sbu_0, # of connection points: 8
#     Node 1, Type 0, BuildingBlock: EBIMEJ_clean_sbu_0, # of connection points: 8
#     Node 2, Type 0, BuildingBlock: EBIMEJ_clean_sbu_0, # of connection points: 8
#     Node 3, Type 0, BuildingBlock: EBIMEJ_clean_sbu_0, # of connection points: 8
#     Edge 4, Type (0, 0), BuildingBlock: CIFDUS_clean_linker_0, # of connection points: 2
#     Edge 5, Type (0, 0), BuildingBlock: CIFDUS_clean_linker_0, # of connection points: 2
#     Edge 6, Type (0, 0), BuildingBlock: CIFDUS_clean_linker_0, # of connection points: 2
#     Edge 7, Type (0, 0), BuildingBlock: CIFDUS_clean_linker_0, # of connection points: 2
#     Edge 8, Type (0, 0), BuildingBlock: CIFDUS_clean_linker_0, # of connection points: 2
#     Edge 9, Type (0, 0), BuildingBlock: CIFDUS_clean_linker_0, # of connection points: 2
#     Edge 10, Type (0, 0), BuildingBlock: CIFDUS_clean_linker_0, # of connection points: 2
#     Edge 11, Type (0, 0), BuildingBlock: CIFDUS_clean_linker_0, # of connection points: 2
#     Edge 12, Type (0, 0), BuildingBlock: CIFDUS_clean_linker_0, # of connection points: 2
#     Edge 13, Type (0, 0), BuildingBlock: CIFDUS_clean_linker_0, # of connection points: 2
#     Edge 14, Type (0, 0), BuildingBlock: CIFDUS_clean_linker_0, # of connection points: 2
#     Edge 15, Type (0, 0), BuildingBlock: CIFDUS_clean_linker_0, # of connection points: 2
#     Edge 16, Type (0, 0), BuildingBlock: CIFDUS_clean_linker_0, # of connection points: 2
#     Edge 17, Type (0, 0), BuildingBlock: CIFDUS_clean_linker_0, # of connection points: 2
#     Edge 18, Type (0, 0), BuildingBlock: CIFDUS_clean_linker_0, # of connection points: 2
#     Edge 19, Type (0, 0), BuildingBlock: CIFDUS_clean_linker_0, # of connection points: 2
# Relax obj value: 0.051
# Max RMSD: 0.151
# Mean RMSD: 0.151
data_MOF--net-oof--node1-EBIMEJ_clean_sbu_0--edge1-CIFDUS_clean_linker_0
_symmetry_space_group_name_H-M    P1
_symmetry_Int_Tables_number       1
_symmetry_cell_setting            triclinic
loop_
_symmetry_equiv_pos_as_xyz
'x, y, z'
_cell_length_a     13.668679
_cell_length_b     60.740543
_cell_length_c     15.735658
_cell_angle_alpha  79.535969
_cell_angle_beta   123.73493
_cell_angle_gamma 96.171655
loop_
_atom_site_label
_atom_site_type_symbol
_atom_site_fract_x
_atom_site_fract_y
_atom_site_fract_z
_atom_type_partial_charge
Co0 Co 0.93775 0.18634 0.32618 0.0
Co1 Co 0.92716 0.16498 0.14825 0.0
Co2 Co 0.96431 0.13443 0.3388 0.0
H3 H 0.96823 0.1606 0.32048 0.0
O4 O 0.01063 0.16602 0.29693 0.0
H5 H 0.941 0.13865 0.17232 0.0
O6 O 0.89661 0.13226 0.19253 0.0
Co7 Co 0.996 0.11427 0.17817 0.0
O8 O 0.96079 0.13001 0.03978 0.0
O9 O 0.86083 0.16122 1.00146 0.0
O10 O 0.99464 0.08847 0.27866 0.0
O11 O 0.94042 0.10149 0.37172 0.0
O12 O 0.96197 0.2188 0.35641 0.0
O13 O 0.10525 0.19794 0.42404 0.0
O14 O 0.13006 0.13115 0.28353 0.0
O15 O 0.087 0.16269 0.17703 0.0
C16 C 0.97912 0.15307 0.50724 0.0
C17 C 0.86858 0.21164 0.12499 0.0
C18 C 0.01188 0.08183 0.10948 0.0
C19 C 0.73334 0.15693 0.2401 0.0
C20 C 0.90021 0.14692 0.9765 0.0
C21 C 0.96572 0.08537 0.34439 0.0
C22 C 0.07177 0.21719 0.41438 0.0
C23 C 0.16305 0.14856 0.24791 0.0
O24 O 0.93402 0.17146 0.44856 0.0
O25 O 0.01804 0.13846 0.48326 0.0
O26 O 0.92706 0.1989 0.11124 0.0
O27 O 0.83791 0.2049 0.18836 0.0
O28 O 0.08222 0.09816 0.13297 0.0
O29 O 0.93277 0.08401 0.12469 0.0
O30 O 0.77266 0.1765 0.23133 0.0
O31 O 0.80019 0.14005 0.29262 0.0
Co32 Co 0.00019 0.93502 0.84373 0.0
Co33 Co 0.03347 0.91561 0.68152 0.0
Co34 Co 0.08683 0.88539 0.87846 0.0
H35 H 0.06187 0.91143 0.85048 0.0
O36 O 0.10234 0.91849 0.82734 0.0
H37 H 0.03539 0.88946 0.70246 0.0
O38 O -0.00273 0.88364 0.72976 0.0
Co39 Co 0.06844 0.86398 0.69633 0.0
O40 O 0.07394 0.87891 0.57526 0.0
O41 O 0.98195 0.91107 0.5375 0.0
O42 O 0.17302 0.84487 0.83114 0.0
O43 O 0.09963 0.85151 0.92062 0.0
O44 O 0.91636 0.95117 0.89092 0.0
O45 O 0.06231 0.96567 0.89374 0.0
O46 O 0.23165 0.87519 0.78671 0.0
O47 O 0.1985 0.91167 0.72807 0.0
C48 C 0.11231 0.90351 0.04979 0.0
C49 C 0.02238 0.96443 0.67271 0.0
C50 C 0.93352 0.83303 0.61038 0.0
C51 C 0.84517 0.89733 0.79171 0.0
C52 C 0.02568 0.89697 0.51528 0.0
C53 C 0.15317 0.83871 0.90193 0.0
C54 C 0.98526 0.96771 0.91166 0.0
C55 C 0.26782 0.89514 0.77936 0.0
O56 O 0.04415 0.91946 0.98476 0.0
O57 O 0.15605 0.8899 0.0254 0.0
O58 O 0.04886 0.94863 0.64463 0.0
O59 O 0.99621 0.96093 0.74038 0.0
O60 O 0.0436 0.83186 0.66218 0.0
O61 O 0.90004 0.8519 0.60566 0.0
O62 O 0.86121 0.91653 0.75347 0.0
O63 O 0.93087 0.88458 0.85814 0.0
Co64 Co 0.44985 0.68846 0.33507 0.0
Co65 Co 0.42427 0.665 0.15201 0.0
Co66 Co 0.46145 0.63633 0.34509 0.0
H67 H 0.47148 0.66236 0.3262 0.0
O68 O 0.51262 0.66689 0.30055 0.0
H69 H 0.43174 0.63832 0.17653 0.0
O70 O 0.38779 0.63309 0.1988 0.0
Co71 Co 0.47555 0.61269 0.18021 0.0
O72 O 0.44539 0.6284 0.04193 0.0
O73 O 0.35364 0.66063 1.00532 0.0
O74 O 0.4844 0.58859 0.29374 0.0
O75 O 0.43026 0.60454 0.38001 0.0
O76 O 0.47687 0.72056 0.36932 0.0
O77 O 0.61923 0.70052 0.42218 0.0
O78 O 0.62183 0.62818 0.28071 0.0
O79 O 0.58111 0.66073 0.17896 0.0
C80 C 0.48722 0.65582 0.51663 0.0
C81 C 0.37775 0.71201 0.13005 0.0
C82 C 0.46999 0.57952 0.10261 0.0
C83 C 0.23774 0.66119 0.25624 0.0
C84 C 0.39053 0.64599 0.97983 0.0
C85 C 0.45748 0.58742 0.36063 0.0
C86 C 0.58674 0.71941 0.41855 0.0
C87 C 0.65504 0.64588 0.24662 0.0
O88 O 0.44661 0.6746 0.45972 0.0
O89 O 0.52209 0.64095 0.49054 0.0
O90 O 0.43131 0.69867 0.11379 0.0
O91 O 0.34698 0.70555 0.19351 0.0
O92 O 0.55049 0.5834 0.19149 0.0
O93 O 0.39261 0.59438 0.05831 0.0
O94 O 0.28029 0.68054 0.24999 0.0
O95 O 0.30064 0.64365 0.30185 0.0
Co96 Co 0.53867 0.43724 0.84307 0.0
Co97 Co 0.55241 0.41357 0.67792 0.0
Co98 Co 0.59031 0.38494 0.87135 0.0
H99 H 0.58242 0.41162 0.84665 0.0
O100 O 0.6262 0.41685 0.82419 0.0
H101 H 0.54188 0.38755 0.69664 0.0
O102 O 0.50115 0.38304 0.72271 0.0
Co103 Co 0.56229 0.36141 0.68708 0.0
O104 O 0.56558 0.37521 0.56242 0.0
O105 O 0.49158 0.40896 0.53236 0.0
O106 O 0.66759 0.34455 0.82873 0.0
O107 O 0.58485 0.35124 0.91008 0.0
O108 O 0.46359 0.46653 0.83171 0.0
O109 O 0.6215 0.45557 0.9649 0.0
O110 O 0.73217 0.36916 0.77075 0.0
O111 O 0.71317 0.40615 0.72123 0.0
C112 C 0.62413 0.40396 0.04355 0.0
C113 C 0.55698 0.46248 0.66263 0.0
C114 C 0.42411 0.33054 0.60384 0.0
C115 C 0.35955 0.40397 0.77738 0.0
C116 C 0.52583 0.39406 0.50595 0.0
C117 C 0.63943 0.3381 0.89399 0.0
C118 C 0.54406 0.47042 0.92058 0.0
C119 C 0.77536 0.3885 0.76555 0.0
O120 O 0.56903 0.42153 0.9814 0.0
O121 O 0.66126 0.38935 0.01809 0.0
O122 O 0.58387 0.44534 0.64304 0.0
O123 O 0.53022 0.46132 0.72962 0.0
O124 O 0.53381 0.3287 0.6602 0.0
O125 O 0.39259 0.35006 0.59309 0.0
O126 O 0.39268 0.42163 0.74296 0.0
O127 O 0.4335 0.38911 0.8449 0.0
H128 H 0.97028 0.11878 0.90523 0.0
H129 H 0.81394 0.1837 0.82411 0.0
H130 H 0.82765 0.19119 0.67266 0.0
H131 H 0.89234 0.18 0.56999 0.0
H132 H 0.05337 0.11544 0.65434 0.0
H133 H 0.03259 0.10741 0.80178 0.0
C134 C 0.93826 0.1346 0.85451 0.0
C135 C 0.89124 0.15074 0.87658 0.0
C136 C 0.94957 0.139 0.76995 0.0
C137 C 0.84981 0.17097 0.80896 0.0
C138 C 0.85872 0.17531 0.72301 0.0
C139 C 0.92364 0.16414 0.62054 0.0
C140 C 0.97527 0.14836 0.60116 0.0
C141 C 0.91027 0.15959 0.70404 0.0
C142 C 0.01434 0.12794 0.66766 0.0
C143 C 0.00169 0.1233 0.75147 0.0
H144 H 0.11003 0.86981 0.45107 0.0
H145 H 0.95948 0.93525 0.37172 0.0
H146 H 0.98638 0.9436 0.22761 0.0
H147 H 0.05043 0.93221 0.1251 0.0
H148 H 0.19483 0.86633 0.20047 0.0
H149 H 0.17733 0.85865 0.35001 0.0
C150 C 0.08241 0.88595 0.4024 0.0
C151 C 0.03177 0.90187 0.42224 0.0
C152 C 0.09944 0.89068 0.32088 0.0
C153 C -0.00268 0.92262 0.35794 0.0
C154 C 0.0137 0.92745 0.27615 0.0
C155 C 0.07913 0.91613 0.17429 0.0
C156 C 0.12369 0.89977 0.15091 0.0
C157 C 0.06484 0.9116 0.25731 0.0
C158 C 0.16124 0.87925 0.21672 0.0
C159 C 0.1498 0.87479 0.30142 0.0
H160 H 0.4681 0.61889 0.90935 0.0
H161 H 0.30899 0.68336 0.83084 0.0
H162 H 0.32896 0.69212 0.68301 0.0
H163 H 0.39777 0.68205 0.58069 0.0
H164 H 0.55916 0.61776 0.66101 0.0
H165 H 0.53433 0.60863 0.80596 0.0
C166 C 0.43662 0.63485 0.85976 0.0
C167 C 0.38675 0.65046 0.88175 0.0
C168 C 0.45085 0.63997 0.77653 0.0
C169 C 0.34683 0.67097 0.81587 0.0
C170 C 0.35922 0.67606 0.73178 0.0
C171 C 0.42857 0.66606 0.63008 0.0
C172 C 0.48152 0.65069 0.61002 0.0
C173 C 0.41264 0.66081 0.7124 0.0
C174 C 0.51934 0.63001 0.6748 0.0
C175 C 0.50439 0.62472 0.75734 0.0
H176 H 0.5476 0.43114 0.1146 0.0
H177 H 0.70412 0.36645 0.19183 0.0
H178 H 0.68333 0.35764 0.33919 0.0
H179 H 0.61443 0.36774 0.44143 0.0
H180 H 0.45566 0.43226 0.36242 0.0
H181 H 0.48136 0.44144 0.21797 0.0
C182 C 0.57835 0.41512 0.16382 0.0
C183 C 0.62772 0.39947 0.14158 0.0
C184 C 0.56362 0.40998 0.24678 0.0
C185 C 0.66672 0.37888 0.207 0.0
C186 C 0.65382 0.37377 0.29082 0.0
C187 C 0.58438 0.3838 0.39242 0.0
C188 C 0.5319 0.39922 0.41272 0.0
C189 C 0.60083 0.38907 0.3104 0.0
C190 C 0.49507 0.41998 0.34844 0.0
C191 C 0.51053 0.42528 0.26618 0.0
H192 H 0.6525 0.12847 0.3381 0.0
H193 H 0.54722 0.18215 0.08322 0.0
H194 H 0.35885 0.18479 0.06498 0.0
H195 H 0.23366 0.17376 0.13124 0.0
H196 H 0.34643 0.12153 0.39342 0.0
H197 H 0.52626 0.11689 0.40141 0.0
C198 C 0.58707 0.14035 0.27683 0.0
C199 C 0.61223 0.15505 0.21179 0.0
C200 C 0.48308 0.14254 0.27061 0.0
C201 C 0.52828 0.17064 0.13373 0.0
C202 C 0.42182 0.17233 0.12421 0.0
C203 C 0.29822 0.16156 0.19098 0.0
C204 C 0.27776 0.14812 0.26212 0.0
C205 C 0.40028 0.15884 0.19451 0.0
C206 C 0.36119 0.13218 0.33831 0.0
C207 C 0.46315 0.12935 0.34232 0.0
H208 H 0.71616 0.92769 0.78857 0.0
H209 H 0.73928 0.85712 0.7935 0.0
H210 H 0.57067 0.84956 0.81034 0.0
H211 H 0.41431 0.86352 0.81504 0.0
H212 H 0.39137 0.9343 0.8089 0.0
H213 H 0.57011 0.94124 0.80819 0.0
C214 C 0.68311 0.91071 0.79184 0.0
C215 C 0.73636 0.89299 0.78702 0.0
C216 C 0.5902 0.90653 0.80491 0.0
C217 C 0.69643 0.87095 0.79479 0.0
C218 C 0.60184 0.86664 0.8058 0.0
C219 C 0.44973 0.88041 0.81591 0.0
C220 C 0.38938 0.89848 0.8098 0.0
C221 C 0.54825 0.88436 0.81068 0.0
C222 C 0.43639 0.92023 0.8121 0.0
C223 C 0.53722 0.92422 0.81042 0.0
H224 H 0.73678 0.67582 0.15127 0.0
H225 H 0.83323 0.61655 0.38023 0.0
H226 H 0.01774 0.61459 0.39246 0.0
H227 H 0.15051 0.62987 0.34006 0.0
H228 H 0.0587 0.68983 0.11614 0.0
H229 H 0.86896 0.69086 0.09691 0.0
C230 C 0.79858 0.6626 0.20469 0.0
C231 C 0.77207 0.64641 0.26497 0.0
C232 C 0.90301 0.66138 0.21032 0.0
C233 C 0.85242 0.62929 0.33341 0.0
C234 C 0.95713 0.62802 0.3398 0.0
C235 C 0.08803 0.64292 0.28546 0.0
C236 C 0.11721 0.65972 0.22933 0.0
C237 C 0.98255 0.64388 0.27807 0.0
C238 C 0.03688 0.67673 0.15992 0.0
C239 C 0.92948 0.67743 0.14968 0.0
H240 H 0.86466 0.42019 0.68494 0.0
H241 H 0.95282 0.35936 0.90339 0.0
H242 H 0.14275 0.35834 0.92302 0.0
H243 H 0.27618 0.37366 0.87031 0.0
H244 H 0.18304 0.43379 0.64648 0.0
H245 H -0.00136 0.43575 0.63431 0.0
C246 C 0.92638 0.40695 0.73844 0.0
C247 C 0.89607 0.3899 0.79286 0.0
C248 C 0.03201 0.406 0.74603 0.0
C249 C 0.97547 0.37265 0.86091 0.0
C250 C 0.08302 0.37196 0.87138 0.0
C251 C 0.21512 0.38708 0.81804 0.0
C252 C 0.24256 0.4035 0.75916 0.0
C253 C 0.11059 0.38827 0.81233 0.0
C254 C 0.16315 0.42087 0.69218 0.0
C255 C 0.05846 0.42213 0.68583 0.0
H256 H 0.47956 0.287 0.63515 0.0
H257 H 0.18498 0.33197 0.47317 0.0
H258 H 0.0494 0.3008 0.40162 0.0
H259 H 0.01475 0.26069 0.38467 0.0
H260 H 0.30997 0.21585 0.54693 0.0
H261 H 0.44499 0.24699 0.61913 0.0
C262 C 0.38568 0.28998 0.58392 0.0
C263 C 0.34233 0.31176 0.55912 0.0
C264 C 0.30835 0.27197 0.54352 0.0
C265 C 0.22049 0.31536 0.4932 0.0
C266 C 0.14294 0.29754 0.4524 0.0
C267 C 0.1086 0.25774 0.43631 0.0
C268 C 0.15233 0.23599 0.46075 0.0
C269 C 0.18585 0.27576 0.47711 0.0
C270 C 0.27415 0.23243 0.52714 0.0
C271 C 0.35143 0.25023 0.56831 0.0
H272 H 0.7291 0.30705 0.85179 0.0
H273 H 0.63123 0.31643 0.06104 0.0
H274 H 0.69624 0.27818 0.15056 0.0
H275 H 0.78 0.24271 0.16834 0.0
H276 H 0.87807 0.23345 0.9591 0.0
H277 H 0.81348 0.27171 0.86997 0.0
C278 C 0.72165 0.30093 0.91714 0.0
C279 C 0.6751 0.31483 0.94971 0.0
C280 C 0.75929 0.2791 0.96783 0.0
C281 C 0.66612 0.30625 0.03409 0.0
C282 C 0.70359 0.2844 0.08525 0.0
C283 C 0.78759 0.24888 0.10311 0.0
C284 C 0.83391 0.23499 0.07029 0.0
C285 C 0.75024 0.27075 0.05262 0.0
C286 C 0.84331 0.24362 0.98619 0.0
C287 C 0.80605 0.26548 0.93522 0.0
H288 H 0.52807 0.76205 0.4008 0.0
H289 H 0.82663 0.71925 0.53401 0.0
H290 H 0.96051 0.75071 0.60379 0.0
H291 H 0.99271 0.79043 0.62712 0.0
H292 H 0.69388 0.83319 0.49364 0.0
H293 H 0.56019 0.80176 0.42349 0.0
C294 C 0.62247 0.75961 0.44547 0.0
C295 C 0.66747 0.73834 0.46265 0.0
C296 C 0.69883 0.77779 0.48487 0.0
C297 C 0.78989 0.73545 0.52 0.0
C298 C 0.86646 0.75343 0.55977 0.0
C299 C 0.8983 0.79287 0.58226 0.0
C300 C 0.8532 0.81411 0.56526 0.0
C301 C 0.82194 0.77469 0.54257 0.0
C302 C 0.73074 0.81701 0.50753 0.0
C303 C 0.65425 0.79904 0.46757 0.0
H304 H 0.30386 0.74404 0.18089 0.0
H305 H 0.37921 0.7331 0.95896 0.0
H306 H 0.31584 0.77147 0.87029 0.0
H307 H 0.23628 0.80728 0.855 0.0
H308 H 0.15933 0.81791 0.07643 0.0
H309 H 0.22651 0.77985 0.1668 0.0
C310 C 0.30685 0.74987 0.11303 0.0
C311 C 0.3461 0.73548 0.07637 0.0
C312 C 0.26982 0.77174 0.06269 0.0
C313 C 0.34991 0.74368 0.98901 0.0
C314 C 0.31326 0.76559 0.93829 0.0
C315 C 0.23417 0.80147 0.92331 0.0
C316 C 0.1926 0.81566 0.95895 0.0
C317 C 0.27257 0.77966 0.97433 0.0
C318 C 0.19032 0.80749 0.0471 0.0
C319 C 0.22895 0.78575 0.09873 0.0
H320 H 0.87958 0.04383 0.07484 0.0
H321 H 0.16641 0.07596 0.05747 0.0
H322 H 0.18385 0.04342 0.99503 0.0
H323 H 0.11784 1.00575 0.94599 0.0
H324 H 0.83137 0.97363 0.96403 0.0
H325 H 0.81397 1.00617 0.02628 0.0
C326 C 0.94586 0.0437 0.05732 0.0
C327 C 0.02169 0.06225 0.07081 0.0
C328 C 0.95563 0.02491 0.02193 0.0
C329 C 0.10721 0.06185 0.04793 0.0
C330 C 0.11718 0.04326 1.01223 0.0
C331 C 0.05166 1.00589 0.96362 0.0
C332 C 0.97585 0.98733 0.9503 0.0
C333 C 0.04202 1.02468 0.99913 0.0
C334 C 0.89055 0.98773 0.97343 0.0
C335 C 0.88057 1.00633 1.009 0.0
H336 H 0.98286 0.06921 0.52696 0.0
H337 H 0.95235 0.04801 0.26564 0.0
H338 H 0.97305 1.00919 0.34472 0.0
H339 H 0.00204 0.9807 0.48926 0.0
H340 H 0.03139 1.00175 0.75031 0.0
H341 H 0.01002 0.04062 0.67106 0.0
C342 C 0.97926 0.05608 0.48687 0.0
C343 C 0.96604 0.06171 0.39047 0.0
C344 C 0.99242 0.03351 0.53334 0.0
C345 C 0.96283 0.04436 0.34018 0.0
C346 C 0.97501 1.02201 0.38543 0.0
C347 C 0.00485 0.9938 0.52914 0.0
C348 C 0.01851 0.98814 0.62567 0.0
C349 C 0.99099 1.01634 0.48249 0.0
C350 C 0.02071 1.00545 0.67571 0.0
C351 C 0.00817 0.02781 0.63035 0.0
H352 H 0.6253 0.5449 0.18982 0.0
H353 H 0.30902 0.57106 0.90636 0.0
H354 H 0.30359 0.53992 0.82475 0.0
H355 H 0.38868 0.50504 0.83332 0.0
H356 H 0.70497 0.47889 0.11681 0.0
H357 H 0.71037 0.51002 0.19841 0.0
C358 C 0.55518 0.54376 0.11022 0.0
C359 C 0.46753 0.56031 0.05448 0.0
C360 C 0.5526 0.52574 0.0635 0.0
C361 C 0.37736 0.55855 0.95131 0.0
C362 C 0.37427 0.54073 0.90442 0.0
C363 C 0.45879 0.50617 0.91293 0.0
C364 C 0.54645 0.48963 0.96868 0.0
C365 C 0.46136 0.5242 0.95965 0.0
C366 C 0.63661 0.49139 0.07185 0.0
C367 C 0.6397 0.50921 0.11873 0.0
H368 H 0.48734 0.50207 0.67025 0.0
H369 H 0.60711 0.47256 0.51364 0.0
H370 H 0.58322 0.50835 0.40478 0.0
H371 H 0.52735 0.54784 0.35315 0.0
H372 H 0.40752 0.57735 0.50973 0.0
H373 H 0.43153 0.54156 0.61866 0.0
C374 C 0.50896 0.50342 0.61278 0.0
C375 C 0.54936 0.48456 0.6007 0.0
C376 C 0.49408 0.524 0.54968 0.0
C377 C 0.57628 0.48674 0.52523 0.0
C378 C 0.56223 0.50721 0.46253 0.0
C379 C 0.50575 0.54649 0.41063 0.0
C380 C 0.46527 0.56535 0.42267 0.0
C381 C 0.52067 0.52591 0.47376 0.0
C382 C 0.43839 0.56317 0.49816 0.0
C383 C 0.4525 0.5427 0.5609 0.0
loop_
_geom_bond_atom_site_label_1
_geom_bond_atom_site_label_2
_geom_bond_distance
_geom_bond_site_symmetry_2
_ccdc_geom_bond_type
Co0 H3 2.400 1_655 S
Co0 O4 2.009 1_655 S
Co0 O12 2.115 . S
Co0 O13 2.315 1_655 S
Co0 O24 2.053 . S
Co0 O27 2.094 . S
Co0 O30 2.122 . S
Co1 O4 2.126 1_655 S
Co1 H5 2.388 . S
Co1 O6 2.053 . S
Co1 O9 2.047 . S
Co1 O15 2.113 1_655 S
Co1 O26 2.063 1_655 S
Co2 H3 2.388 . S
Co2 O4 2.053 . S
Co2 O6 2.126 1_455 S
Co2 O11 2.063 1_455 S
Co2 O25 2.047 . S
Co2 O31 2.113 1_455 S
H3 Co0 2.400 1_455 S
H3 Co2 2.388 . S
H3 O4 0.760 . S
O4 Co0 2.009 1_455 S
O4 Co1 2.126 1_455 S
O4 Co2 2.053 . S
O4 H3 0.760 . S
H5 Co1 2.388 . S
H5 O6 0.760 . S
H5 Co7 2.400 1_655 S
O6 Co1 2.053 . S
O6 Co2 2.126 1_655 S
O6 H5 0.760 . S
O6 Co7 2.009 1_655 S
Co7 H5 2.400 1_455 S
Co7 O6 2.009 1_455 S
Co7 O8 2.053 . S
Co7 O10 2.094 . S
Co7 O14 2.122 . S
Co7 O28 2.115 . S
Co7 O29 2.315 1_455 S
O8 Co7 2.053 . S
O8 C20 1.259 1_454 S
O9 Co1 2.047 . S
O9 C20 1.257 1_554 S
O10 Co7 2.094 . S
O10 C21 1.253 . S
O11 Co2 2.063 1_655 S
O11 C21 1.268 1_655 S
O12 Co0 2.115 . S
O12 C22 1.281 1_655 S
O13 Co0 2.315 1_455 S
O13 C22 1.252 . S
O14 Co7 2.122 . S
O14 C23 1.272 . S
O15 Co1 2.113 1_455 S
O15 C23 1.245 . S
C16 O24 1.259 1_455 S
C16 O25 1.257 . S
C17 O26 1.268 1_655 S
C17 O27 1.253 . S
C18 O28 1.281 1_655 S
C18 O29 1.252 . S
C19 O30 1.272 . S
C19 O31 1.245 . S
C20 O8 1.259 1_656 S
C20 O9 1.257 1_556 S
C21 O10 1.253 . S
C21 O11 1.268 1_455 S
C22 O12 1.281 1_455 S
C22 O13 1.252 . S
C23 O14 1.272 . S
C23 O15 1.245 . S
O24 Co0 2.053 . S
O24 C16 1.259 1_655 S
O25 Co2 2.047 . S
O25 C16 1.257 . S
O26 Co1 2.063 1_455 S
O26 C17 1.268 1_455 S
O27 Co0 2.094 . S
O27 C17 1.253 . S
O28 Co7 2.115 . S
O28 C18 1.281 1_455 S
O29 Co7 2.315 1_655 S
O29 C18 1.252 . S
O30 Co0 2.122 . S
O30 C19 1.272 . S
O31 Co2 2.113 1_655 S
O31 C19 1.245 . S
Co32 H35 2.400 1_655 S
Co32 O36 2.009 1_655 S
Co32 O44 2.115 . S
Co32 O45 2.315 1_655 S
Co32 O56 2.053 1_655 S
Co32 O59 2.094 . S
Co32 O62 2.122 . S
Co33 O36 2.126 . S
Co33 H37 2.388 1_455 S
Co33 O38 2.053 1_455 S
Co33 O41 2.047 1_455 S
Co33 O47 2.113 . S
Co33 O58 2.063 . S
Co34 H35 2.388 . S
Co34 O36 2.053 . S
Co34 O38 2.126 1_455 S
Co34 O43 2.063 . S
Co34 O57 2.047 . S
Co34 O63 2.113 1_455 S
H35 Co32 2.400 1_455 S
H35 Co34 2.388 . S
H35 O36 0.760 . S
O36 Co32 2.009 1_455 S
O36 Co33 2.126 . S
O36 Co34 2.053 . S
O36 H35 0.760 . S
H37 Co33 2.388 1_655 S
H37 O38 0.760 . S
H37 Co39 2.400 1_655 S
O38 Co33 2.053 1_655 S
O38 Co34 2.126 1_655 S
O38 H37 0.760 . S
O38 Co39 2.009 1_655 S
Co39 H37 2.400 1_455 S
Co39 O38 2.009 1_455 S
Co39 O40 2.053 . S
Co39 O42 2.094 . S
Co39 O46 2.122 . S
Co39 O60 2.115 . S
Co39 O61 2.315 1_455 S
O40 Co39 2.053 . S
O40 C52 1.259 1_455 S
O41 Co33 2.047 1_655 S
O41 C52 1.257 . S
O42 Co39 2.094 . S
O42 C53 1.253 . S
O43 Co34 2.063 . S
O43 C53 1.268 . S
O44 Co32 2.115 . S
O44 C54 1.281 1_655 S
O45 Co32 2.315 1_455 S
O45 C54 1.252 . S
O46 Co39 2.122 . S
O46 C55 1.272 . S
O47 Co33 2.113 . S
O47 C55 1.245 . S
C48 O56 1.259 1_554 S
C48 O57 1.257 1_554 S
C49 O58 1.268 1_655 S
C49 O59 1.253 . S
C50 O60 1.281 1_655 S
C50 O61 1.252 . S
C51 O62 1.272 . S
C51 O63 1.245 . S
C52 O40 1.259 1_655 S
C52 O41 1.257 . S
C53 O42 1.253 . S
C53 O43 1.268 . S
C54 O44 1.281 1_455 S
C54 O45 1.252 . S
C55 O46 1.272 . S
C55 O47 1.245 . S
O56 Co32 2.053 1_455 S
O56 C48 1.259 1_556 S
O57 Co34 2.047 . S
O57 C48 1.257 1_556 S
O58 Co33 2.063 . S
O58 C49 1.268 1_455 S
O59 Co32 2.094 . S
O59 C49 1.253 . S
O60 Co39 2.115 . S
O60 C50 1.281 1_455 S
O61 Co39 2.315 1_655 S
O61 C50 1.252 . S
O62 Co32 2.122 . S
O62 C51 1.272 . S
O63 Co34 2.113 1_655 S
O63 C51 1.245 . S
Co64 H67 2.400 . S
Co64 O68 2.009 . S
Co64 O76 2.115 . S
Co64 O77 2.315 . S
Co64 O88 2.053 . S
Co64 O91 2.094 . S
Co64 O94 2.122 . S
Co65 O68 2.126 . S
Co65 H69 2.388 . S
Co65 O70 2.053 . S
Co65 O73 2.047 . S
Co65 O79 2.113 . S
Co65 O90 2.063 . S
Co66 H67 2.388 . S
Co66 O68 2.053 . S
Co66 O70 2.126 . S
Co66 O75 2.063 . S
Co66 O89 2.047 . S
Co66 O95 2.113 . S
H67 Co64 2.400 . S
H67 Co66 2.388 . S
H67 O68 0.760 . S
O68 Co64 2.009 . S
O68 Co65 2.126 . S
O68 Co66 2.053 . S
O68 H67 0.760 . S
H69 Co65 2.388 . S
H69 O70 0.760 . S
H69 Co71 2.400 . S
O70 Co65 2.053 . S
O70 Co66 2.126 . S
O70 H69 0.760 . S
O70 Co71 2.009 . S
Co71 H69 2.400 . S
Co71 O70 2.009 . S
Co71 O72 2.053 . S
Co71 O74 2.094 . S
Co71 O78 2.122 . S
Co71 O92 2.115 . S
Co71 O93 2.315 . S
O72 Co71 2.053 . S
O72 C84 1.259 1_554 S
O73 Co65 2.047 . S
O73 C84 1.257 1_554 S
O74 Co71 2.094 . S
O74 C85 1.253 . S
O75 Co66 2.063 . S
O75 C85 1.268 . S
O76 Co64 2.115 . S
O76 C86 1.281 . S
O77 Co64 2.315 . S
O77 C86 1.252 . S
O78 Co71 2.122 . S
O78 C87 1.272 . S
O79 Co65 2.113 . S
O79 C87 1.245 . S
C80 O88 1.259 . S
C80 O89 1.257 . S
C81 O90 1.268 . S
C81 O91 1.253 . S
C82 O92 1.281 . S
C82 O93 1.252 . S
C83 O94 1.272 . S
C83 O95 1.245 . S
C84 O72 1.259 1_556 S
C84 O73 1.257 1_556 S
C85 O74 1.253 . S
C85 O75 1.268 . S
C86 O76 1.281 . S
C86 O77 1.252 . S
C87 O78 1.272 . S
C87 O79 1.245 . S
O88 Co64 2.053 . S
O88 C80 1.259 . S
O89 Co66 2.047 . S
O89 C80 1.257 . S
O90 Co65 2.063 . S
O90 C81 1.268 . S
O91 Co64 2.094 . S
O91 C81 1.253 . S
O92 Co71 2.115 . S
O92 C82 1.281 . S
O93 Co71 2.315 . S
O93 C82 1.252 . S
O94 Co64 2.122 . S
O94 C83 1.272 . S
O95 Co66 2.113 . S
O95 C83 1.245 . S
Co96 H99 2.400 . S
Co96 O100 2.009 . S
Co96 O108 2.115 . S
Co96 O109 2.315 . S
Co96 O120 2.053 . S
Co96 O123 2.094 . S
Co96 O126 2.122 . S
Co97 O100 2.126 . S
Co97 H101 2.388 . S
Co97 O102 2.053 . S
Co97 O105 2.047 . S
Co97 O111 2.113 . S
Co97 O122 2.063 . S
Co98 H99 2.388 . S
Co98 O100 2.053 . S
Co98 O102 2.126 . S
Co98 O107 2.063 . S
Co98 O121 2.047 . S
Co98 O127 2.113 . S
H99 Co96 2.400 . S
H99 Co98 2.388 . S
H99 O100 0.760 . S
O100 Co96 2.009 . S
O100 Co97 2.126 . S
O100 Co98 2.053 . S
O100 H99 0.760 . S
H101 Co97 2.388 . S
H101 O102 0.760 . S
H101 Co103 2.400 . S
O102 Co97 2.053 . S
O102 Co98 2.126 . S
O102 H101 0.760 . S
O102 Co103 2.009 . S
Co103 H101 2.400 . S
Co103 O102 2.009 . S
Co103 O104 2.053 . S
Co103 O106 2.094 . S
Co103 O110 2.122 . S
Co103 O124 2.115 . S
Co103 O125 2.315 . S
O104 Co103 2.053 . S
O104 C116 1.259 . S
O105 Co97 2.047 . S
O105 C116 1.257 . S
O106 Co103 2.094 . S
O106 C117 1.253 . S
O107 Co98 2.063 . S
O107 C117 1.268 . S
O108 Co96 2.115 . S
O108 C118 1.281 . S
O109 Co96 2.315 . S
O109 C118 1.252 . S
O110 Co103 2.122 . S
O110 C119 1.272 . S
O111 Co97 2.113 . S
O111 C119 1.245 . S
C112 O120 1.259 1_554 S
C112 O121 1.257 1_554 S
C113 O122 1.268 . S
C113 O123 1.253 . S
C114 O124 1.281 . S
C114 O125 1.252 . S
C115 O126 1.272 . S
C115 O127 1.245 . S
C116 O104 1.259 . S
C116 O105 1.257 . S
C117 O106 1.253 . S
C117 O107 1.268 . S
C118 O108 1.281 . S
C118 O109 1.252 . S
C119 O110 1.272 . S
C119 O111 1.245 . S
O120 Co96 2.053 . S
O120 C112 1.259 1_556 S
O121 Co98 2.047 . S
O121 C112 1.257 1_556 S
O122 Co97 2.063 . S
O122 C113 1.268 . S
O123 Co96 2.094 . S
O123 C113 1.253 . S
O124 Co103 2.115 . S
O124 C114 1.281 . S
O125 Co103 2.315 . S
O125 C114 1.252 . S
O126 Co96 2.122 . S
O126 C115 1.272 . S
O127 Co98 2.113 . S
O127 C115 1.245 . S
H128 C134 0.929 . S
H129 C137 0.930 . S
H130 C138 0.930 . S
H131 C139 0.930 1_655 S
H132 C142 0.930 . S
H133 C143 0.930 . S
C134 H128 0.929 . S
C134 C135 1.348 1_455 S
C134 C136 1.422 . S
C135 C134 1.348 1_655 S
C135 C137 1.419 . S
C136 C134 1.422 . S
C136 C141 1.425 1_455 S
C136 C143 1.409 . S
C137 H129 0.930 . S
C137 C135 1.419 . S
C137 C138 1.362 . S
C138 H130 0.930 . S
C138 C137 1.362 . S
C138 C141 1.409 . S
C139 H131 0.930 1_455 S
C139 C140 1.356 . S
C139 C141 1.413 1_455 S
C140 C139 1.356 . S
C140 C142 1.419 . S
C141 C136 1.425 1_655 S
C141 C138 1.409 . S
C141 C139 1.413 1_655 S
C142 H132 0.930 . S
C142 C140 1.419 . S
C142 C143 1.362 . S
C143 H133 0.930 . S
C143 C136 1.409 . S
C143 C142 1.362 . S
H144 C150 0.930 . S
H145 C153 0.930 . S
H146 C154 0.930 . S
H147 C155 0.930 . S
H148 C158 0.930 . S
H149 C159 0.930 . S
C150 H144 0.930 . S
C150 C151 1.355 1_655 S
C150 C152 1.415 . S
C151 C150 1.355 1_455 S
C151 C153 1.419 . S
C152 C150 1.415 . S
C152 C157 1.425 1_655 S
C152 C159 1.409 . S
C153 H145 0.930 . S
C153 C151 1.419 . S
C153 C154 1.362 . S
C154 H146 0.930 . S
C154 C153 1.362 . S
C154 C157 1.409 . S
C155 H147 0.930 . S
C155 C156 1.355 . S
C155 C157 1.415 . S
C156 C155 1.355 . S
C156 C158 1.419 1_455 S
C157 C152 1.425 1_455 S
C157 C154 1.409 . S
C157 C155 1.415 . S
C158 H148 0.930 . S
C158 C156 1.419 1_655 S
C158 C159 1.362 . S
C159 H149 0.930 . S
C159 C152 1.409 . S
C159 C158 1.362 . S
H160 C166 0.930 . S
H161 C169 0.930 . S
H162 C170 0.930 . S
H163 C171 0.930 . S
H164 C174 0.930 . S
H165 C175 0.930 . S
C166 H160 0.930 . S
C166 C167 1.355 . S
C166 C168 1.415 . S
C167 C166 1.355 . S
C167 C169 1.419 . S
C168 C166 1.415 . S
C168 C173 1.425 . S
C168 C175 1.409 . S
C169 H161 0.930 . S
C169 C167 1.419 . S
C169 C170 1.362 . S
C170 H162 0.930 . S
C170 C169 1.362 . S
C170 C173 1.409 . S
C171 H163 0.930 . S
C171 C172 1.355 . S
C171 C173 1.415 . S
C172 C171 1.355 . S
C172 C174 1.419 . S
C173 C168 1.425 . S
C173 C170 1.409 . S
C173 C171 1.415 . S
C174 H164 0.930 . S
C174 C172 1.419 . S
C174 C175 1.362 . S
C175 H165 0.930 . S
C175 C168 1.409 . S
C175 C174 1.362 . S
H176 C182 0.930 . S
H177 C185 0.930 . S
H178 C186 0.930 . S
H179 C187 0.930 . S
H180 C190 0.930 . S
H181 C191 0.930 . S
C182 H176 0.930 . S
C182 C183 1.355 . S
C182 C184 1.415 . S
C183 C182 1.355 . S
C183 C185 1.419 . S
C184 C182 1.415 . S
C184 C189 1.425 . S
C184 C191 1.409 . S
C185 H177 0.930 . S
C185 C183 1.419 . S
C185 C186 1.362 . S
C186 H178 0.930 . S
C186 C185 1.362 . S
C186 C189 1.409 . S
C187 H179 0.930 . S
C187 C188 1.355 . S
C187 C189 1.415 . S
C188 C187 1.355 . S
C188 C190 1.419 . S
C189 C184 1.425 . S
C189 C186 1.409 . S
C189 C187 1.415 . S
C190 H180 0.930 . S
C190 C188 1.419 . S
C190 C191 1.362 . S
C191 H181 0.930 . S
C191 C184 1.409 . S
C191 C190 1.362 . S
H192 C198 0.930 . S
H193 C201 0.930 . S
H194 C202 0.930 . S
H195 C203 0.930 . S
H196 C206 0.930 . S
H197 C207 0.930 . S
C198 H192 0.930 . S
C198 C199 1.355 . S
C198 C200 1.415 . S
C199 C198 1.355 . S
C199 C201 1.419 . S
C200 C198 1.415 . S
C200 C205 1.425 . S
C200 C207 1.409 . S
C201 H193 0.930 . S
C201 C199 1.419 . S
C201 C202 1.362 . S
C202 H194 0.930 . S
C202 C201 1.362 . S
C202 C205 1.409 . S
C203 H195 0.930 . S
C203 C204 1.355 . S
C203 C205 1.415 . S
C204 C203 1.355 . S
C204 C206 1.419 . S
C205 C200 1.425 . S
C205 C202 1.409 . S
C205 C203 1.415 . S
C206 H196 0.930 . S
C206 C204 1.419 . S
C206 C207 1.362 . S
C207 H197 0.930 . S
C207 C200 1.409 . S
C207 C206 1.362 . S
H208 C214 0.930 . S
H209 C217 0.930 . S
H210 C218 0.930 . S
H211 C219 0.930 . S
H212 C222 0.930 . S
H213 C223 0.930 . S
C214 H208 0.930 . S
C214 C215 1.355 . S
C214 C216 1.415 . S
C215 C214 1.355 . S
C215 C217 1.419 . S
C216 C214 1.415 . S
C216 C221 1.425 . S
C216 C223 1.409 . S
C217 H209 0.930 . S
C217 C215 1.419 . S
C217 C218 1.362 . S
C218 H210 0.930 . S
C218 C217 1.362 . S
C218 C221 1.409 . S
C219 H211 0.930 . S
C219 C220 1.355 . S
C219 C221 1.415 . S
C220 C219 1.355 . S
C220 C222 1.419 . S
C221 C216 1.425 . S
C221 C218 1.409 . S
C221 C219 1.415 . S
C222 H212 0.930 . S
C222 C220 1.419 . S
C222 C223 1.362 . S
C223 H213 0.930 . S
C223 C216 1.409 . S
C223 C222 1.362 . S
H224 C230 0.930 . S
H225 C233 0.930 . S
H226 C234 0.930 1_455 S
H227 C235 0.930 . S
H228 C238 0.930 . S
H229 C239 0.930 1_655 S
C230 H224 0.930 . S
C230 C231 1.355 . S
C230 C232 1.415 . S
C231 C230 1.355 . S
C231 C233 1.419 . S
C232 C230 1.415 . S
C232 C237 1.425 1_655 S
C232 C239 1.409 1_655 S
C233 H225 0.930 . S
C233 C231 1.419 . S
C233 C234 1.362 . S
C234 H226 0.930 1_655 S
C234 C233 1.362 . S
C234 C237 1.409 1_655 S
C235 H227 0.930 . S
C235 C236 1.355 . S
C235 C237 1.415 . S
C236 C235 1.355 . S
C236 C238 1.419 . S
C237 C232 1.425 1_455 S
C237 C234 1.409 1_455 S
C237 C235 1.415 . S
C238 H228 0.930 . S
C238 C236 1.419 . S
C238 C239 1.362 . S
C239 H229 0.930 1_455 S
C239 C232 1.409 1_455 S
C239 C238 1.362 . S
H240 C246 0.930 . S
H241 C249 0.930 . S
H242 C250 0.930 . S
H243 C251 0.930 . S
H244 C254 0.930 . S
H245 C255 0.930 . S
C246 H240 0.930 . S
C246 C247 1.355 . S
C246 C248 1.415 1_655 S
C247 C246 1.355 . S
C247 C249 1.419 . S
C248 C246 1.415 1_455 S
C248 C253 1.425 . S
C248 C255 1.409 . S
C249 H241 0.930 . S
C249 C247 1.419 . S
C249 C250 1.362 . S
C250 H242 0.930 . S
C250 C249 1.362 . S
C250 C253 1.409 1_655 S
C251 H243 0.930 . S
C251 C252 1.355 . S
C251 C253 1.415 . S
C252 C251 1.355 . S
C252 C254 1.419 . S
C253 C248 1.425 . S
C253 C250 1.409 1_455 S
C253 C251 1.415 . S
C254 H244 0.930 . S
C254 C252 1.419 . S
C254 C255 1.362 . S
C255 H245 0.930 . S
C255 C248 1.409 . S
C255 C254 1.362 . S
H256 C262 0.930 . S
H257 C265 0.930 . S
H258 C266 0.930 . S
H259 C267 0.930 . S
H260 C270 0.930 . S
H261 C271 0.930 . S
C262 H256 0.930 . S
C262 C263 1.355 . S
C262 C264 1.415 . S
C263 C262 1.355 . S
C263 C265 1.419 . S
C264 C262 1.415 . S
C264 C269 1.425 . S
C264 C271 1.409 . S
C265 H257 0.930 . S
C265 C263 1.419 . S
C265 C266 1.362 . S
C266 H258 0.930 . S
C266 C265 1.362 . S
C266 C269 1.409 . S
C267 H259 0.930 . S
C267 C268 1.355 . S
C267 C269 1.415 . S
C268 C267 1.355 . S
C268 C270 1.419 . S
C269 C264 1.425 . S
C269 C266 1.409 . S
C269 C267 1.415 . S
C270 H260 0.930 . S
C270 C268 1.419 . S
C270 C271 1.362 . S
C271 H261 0.930 . S
C271 C264 1.409 . S
C271 C270 1.362 . S
H272 C278 0.930 . S
H273 C281 0.930 . S
H274 C282 0.930 . S
H275 C283 0.930 . S
H276 C286 0.930 . S
H277 C287 0.930 . S
C278 H272 0.930 . S
C278 C279 1.355 . S
C278 C280 1.415 . S
C279 C278 1.355 . S
C279 C281 1.419 . S
C280 C278 1.415 . S
C280 C285 1.425 1_556 S
C280 C287 1.409 . S
C281 H273 0.930 . S
C281 C279 1.419 . S
C281 C282 1.362 1_556 S
C282 H274 0.930 . S
C282 C281 1.362 1_554 S
C282 C285 1.409 . S
C283 H275 0.930 . S
C283 C284 1.355 . S
C283 C285 1.415 . S
C284 C283 1.355 . S
C284 C286 1.419 . S
C285 C280 1.425 1_554 S
C285 C282 1.409 . S
C285 C283 1.415 . S
C286 H276 0.930 . S
C286 C284 1.419 . S
C286 C287 1.362 1_554 S
C287 H277 0.930 . S
C287 C280 1.409 . S
C287 C286 1.362 1_556 S
H288 C294 0.930 . S
H289 C297 0.930 . S
H290 C298 0.930 . S
H291 C299 0.930 . S
H292 C302 0.930 . S
H293 C303 0.930 . S
C294 H288 0.930 . S
C294 C295 1.355 . S
C294 C296 1.415 . S
C295 C294 1.355 . S
C295 C297 1.419 . S
C296 C294 1.415 . S
C296 C301 1.425 . S
C296 C303 1.409 . S
C297 H289 0.930 . S
C297 C295 1.419 . S
C297 C298 1.362 . S
C298 H290 0.930 . S
C298 C297 1.362 . S
C298 C301 1.409 . S
C299 H291 0.930 . S
C299 C300 1.355 . S
C299 C301 1.415 . S
C300 C299 1.355 . S
C300 C302 1.419 . S
C301 C296 1.425 . S
C301 C298 1.409 . S
C301 C299 1.415 . S
C302 H292 0.930 . S
C302 C300 1.419 . S
C302 C303 1.362 . S
C303 H293 0.930 . S
C303 C296 1.409 . S
C303 C302 1.362 . S
H304 C310 0.930 . S
H305 C313 0.930 . S
H306 C314 0.930 . S
H307 C315 0.930 . S
H308 C318 0.930 . S
H309 C319 0.930 . S
C310 H304 0.930 . S
C310 C311 1.355 . S
C310 C312 1.415 . S
C311 C310 1.355 . S
C311 C313 1.419 1_554 S
C312 C310 1.415 . S
C312 C317 1.425 1_554 S
C312 C319 1.409 . S
C313 H305 0.930 . S
C313 C311 1.419 1_556 S
C313 C314 1.362 . S
C314 H306 0.930 . S
C314 C313 1.362 . S
C314 C317 1.409 . S
C315 H307 0.930 . S
C315 C316 1.355 . S
C315 C317 1.415 . S
C316 C315 1.355 . S
C316 C318 1.419 1_556 S
C317 C312 1.425 1_556 S
C317 C314 1.409 . S
C317 C315 1.415 . S
C318 H308 0.930 . S
C318 C316 1.419 1_554 S
C318 C319 1.362 . S
C319 H309 0.930 . S
C319 C312 1.409 . S
C319 C318 1.362 . S
H320 C326 0.930 . S
H321 C329 0.930 . S
H322 C330 0.930 . S
H323 C331 0.930 . S
H324 C334 0.930 . S
H325 C335 0.930 . S
C326 H320 0.930 . S
C326 C327 1.355 . S
C326 C328 1.415 1_544 S
C327 C326 1.355 . S
C327 C329 1.419 1_655 S
C328 C326 1.415 1_566 S
C328 C333 1.425 1_666 S
C328 C335 1.409 . S
C329 H321 0.930 . S
C329 C327 1.419 1_455 S
C329 C330 1.362 . S
C330 H322 0.930 . S
C330 C329 1.362 . S
C330 C333 1.409 . S
C331 H323 0.930 . S
C331 C332 1.355 . S
C331 C333 1.415 1_566 S
C332 C331 1.355 . S
C332 C334 1.419 1_455 S
C333 C328 1.425 1_444 S
C333 C330 1.409 . S
C333 C331 1.415 1_544 S
C334 H324 0.930 . S
C334 C332 1.419 1_655 S
C334 C335 1.362 . S
C335 H325 0.930 . S
C335 C328 1.409 . S
C335 C334 1.362 . S
H336 C342 0.930 . S
H337 C345 0.930 . S
H338 C346 0.917 1_565 S
H339 C347 0.930 . S
H340 C350 0.930 . S
H341 C351 0.917 1_545 S
C342 H336 0.930 . S
C342 C343 1.355 1_655 S
C342 C344 1.415 . S
C343 C342 1.355 1_455 S
C343 C345 1.419 . S
C344 C342 1.415 . S
C344 C349 1.425 1_645 S
C344 C351 1.406 1_545 S
C345 H337 0.930 . S
C345 C343 1.419 . S
C345 C346 1.378 . S
C346 H338 0.917 1_545 S
C346 C345 1.378 . S
C346 C349 1.406 1_545 S
C347 H339 0.930 . S
C347 C348 1.355 1_455 S
C347 C349 1.415 . S
C348 C347 1.355 1_655 S
C348 C350 1.419 . S
C349 C344 1.425 1_465 S
C349 C346 1.406 1_565 S
C349 C347 1.415 . S
C350 H340 0.930 . S
C350 C348 1.419 . S
C350 C351 1.378 . S
C351 H341 0.917 1_565 S
C351 C344 1.406 1_565 S
C351 C350 1.378 . S
H352 C358 0.930 . S
H353 C361 0.930 . S
H354 C362 0.930 . S
H355 C363 0.930 . S
H356 C366 0.930 . S
H357 C367 0.930 . S
C358 H352 0.930 . S
C358 C359 1.355 . S
C358 C360 1.415 . S
C359 C358 1.355 . S
C359 C361 1.419 1_554 S
C360 C358 1.415 . S
C360 C365 1.425 1_554 S
C360 C367 1.409 . S
C361 H353 0.930 . S
C361 C359 1.419 1_556 S
C361 C362 1.362 . S
C362 H354 0.930 . S
C362 C361 1.362 . S
C362 C365 1.409 . S
C363 H355 0.930 . S
C363 C364 1.355 . S
C363 C365 1.415 . S
C364 C363 1.355 . S
C364 C366 1.419 1_556 S
C365 C360 1.425 1_556 S
C365 C362 1.409 . S
C365 C363 1.415 . S
C366 H356 0.930 . S
C366 C364 1.419 1_554 S
C366 C367 1.362 . S
C367 H357 0.930 . S
C367 C360 1.409 . S
C367 C366 1.362 . S
H368 C374 0.930 . S
H369 C377 0.930 . S
H370 C378 0.930 . S
H371 C379 0.930 . S
H372 C382 0.930 . S
H373 C383 0.930 . S
C374 H368 0.930 . S
C374 C375 1.355 . S
C374 C376 1.415 . S
C375 C374 1.355 . S
C375 C377 1.419 . S
C376 C374 1.415 . S
C376 C381 1.425 . S
C376 C383 1.409 . S
C377 H369 0.930 . S
C377 C375 1.419 . S
C377 C378 1.362 . S
C378 H370 0.930 . S
C378 C377 1.362 . S
C378 C381 1.409 . S
C379 H371 0.930 . S
C379 C380 1.355 . S
C379 C381 1.415 . S
C380 C379 1.355 . S
C380 C382 1.419 . S
C381 C376 1.425 . S
C381 C378 1.409 . S
C381 C379 1.415 . S
C382 H372 0.930 . S
C382 C380 1.419 . S
C382 C383 1.362 . S
C383 H373 0.930 . S
C383 C376 1.409 . S
C383 C382 1.362 . S
C135 C20 1.533 . S
C140 C16 1.533 . S
C151 C52 1.529 1_455 S
C156 C48 1.529 . S
C167 C84 1.544 . S
C172 C80 1.544 . S
C183 C112 1.552 . S
C188 C116 1.552 . S
C199 C19 0.700 . S
C204 C23 0.700 . S
C215 C51 0.776 . S
C220 C55 0.776 . S
C231 C87 0.689 . S
C236 C83 0.689 . S
C247 C119 0.657 . S
C252 C115 0.657 . S
C263 C114 1.842 . S
C268 C22 1.842 . S
C279 C117 2.057 . S
C284 C17 2.057 . S
C295 C86 1.843 . S
C300 C50 1.843 . S
C311 C81 2.065 . S
C316 C53 2.065 . S
C327 C18 1.765 . S
C332 C54 1.765 . S
C343 C21 1.772 . S
C348 C49 1.772 . S
C359 C82 1.772 . S
C364 C118 1.772 . S
C375 C113 1.755 . S
C380 C85 1.755 . S
