# Generated by pormake.
# Topology whc, (6)-cn, num edge types: 1
# Building blocks:
#     Node 0, Type 0, BuildingBlock: OJICUG_clean_sbu_0, # of connection points: 6
#     Node 1, Type 0, BuildingBlock: OJICUG_clean_sbu_0, # of connection points: 6
#     Node 2, Type 0, BuildingBlock: OJICUG_clean_sbu_0, # of connection points: 6
#     Node 3, Type 0, BuildingBlock: OJICUG_clean_sbu_0, # of connection points: 6
#     Node 4, Type 0, BuildingBlock: OJICUG_clean_sbu_0, # of connection points: 6
#     Node 5, Type 0, BuildingBlock: OJICUG_clean_sbu_0, # of connection points: 6
#     Node 6, Type 0, BuildingBlock: OJICUG_clean_sbu_0, # of connection points: 6
#     Node 7, Type 0, BuildingBlock: OJICUG_clean_sbu_0, # of connection points: 6
#     Edge 8, Type (0, 0), BuildingBlock: AJUNOK_clean_linker_0, # of connection points: 2
#     Edge 9, Type (0, 0), BuildingBlock: AJUNOK_clean_linker_0, # of connection points: 2
#     Edge 10, Type (0, 0), BuildingBlock: AJUNOK_clean_linker_0, # of connection points: 2
#     Edge 11, Type (0, 0), BuildingBlock: AJUNOK_clean_linker_0, # of connection points: 2
#     Edge 12, Type (0, 0), BuildingBlock: AJUNOK_clean_linker_0, # of connection points: 2
#     Edge 13, Type (0, 0), BuildingBlock: AJUNOK_clean_linker_0, # of connection points: 2
#     Edge 14, Type (0, 0), BuildingBlock: AJUNOK_clean_linker_0, # of connection points: 2
#     Edge 15, Type (0, 0), BuildingBlock: AJUNOK_clean_linker_0, # of connection points: 2
#     Edge 16, Type (0, 0), BuildingBlock: AJUNOK_clean_linker_0, # of connection points: 2
#     Edge 17, Type (0, 0), BuildingBlock: AJUNOK_clean_linker_0, # of connection points: 2
#     Edge 18, Type (0, 0), BuildingBlock: AJUNOK_clean_linker_0, # of connection points: 2
#     Edge 19, Type (0, 0), BuildingBlock: AJUNOK_clean_linker_0, # of connection points: 2
#     Edge 20, Type (0, 0), BuildingBlock: AJUNOK_clean_linker_0, # of connection points: 2
#     Edge 21, Type (0, 0), BuildingBlock: AJUNOK_clean_linker_0, # of connection points: 2
#     Edge 22, Type (0, 0), BuildingBlock: AJUNOK_clean_linker_0, # of connection points: 2
#     Edge 23, Type (0, 0), BuildingBlock: AJUNOK_clean_linker_0, # of connection points: 2
#     Edge 24, Type (0, 0), BuildingBlock: AJUNOK_clean_linker_0, # of connection points: 2
#     Edge 25, Type (0, 0), BuildingBlock: AJUNOK_clean_linker_0, # of connection points: 2
#     Edge 26, Type (0, 0), BuildingBlock: AJUNOK_clean_linker_0, # of connection points: 2
#     Edge 27, Type (0, 0), BuildingBlock: AJUNOK_clean_linker_0, # of connection points: 2
#     Edge 28, Type (0, 0), BuildingBlock: AJUNOK_clean_linker_0, # of connection points: 2
#     Edge 29, Type (0, 0), BuildingBlock: AJUNOK_clean_linker_0, # of connection points: 2
#     Edge 30, Type (0, 0), BuildingBlock: AJUNOK_clean_linker_0, # of connection points: 2
#     Edge 31, Type (0, 0), BuildingBlock: AJUNOK_clean_linker_0, # of connection points: 2
# Relax obj value: 0.339
# Max RMSD: 0.283
# Mean RMSD: 0.283
data_MOF--net-whc--node1-OJICUG_clean_sbu_0--edge1-AJUNOK_clean_linker_0
_symmetry_space_group_name_H-M    P1
_symmetry_Int_Tables_number       1
_symmetry_cell_setting            triclinic
loop_
_symmetry_equiv_pos_as_xyz
'x, y, z'
_cell_length_a     26.904394
_cell_length_b     26.920426
_cell_length_c     23.018378
_cell_angle_alpha  89.849275
_cell_angle_beta   89.916521
_cell_angle_gamma 89.95777
loop_
_atom_site_label
_atom_site_type_symbol
_atom_site_fract_x
_atom_site_fract_y
_atom_site_fract_z
_atom_type_partial_charge
Sc0 Sc 0.45444 0.28501 0.17081 0.0
Sc1 Sc 0.41778 0.18018 0.09332 0.0
Sc2 Sc 0.53863 0.1933 0.13928 0.0
O3 O 0.4693 0.21945 0.1359 0.0
C4 C 0.56266 0.30592 0.12787 0.0
C5 C 0.40175 0.2893 0.04638 0.0
C6 C 0.50769 0.1795 0.01179 0.0
C7 C 0.35353 0.23004 0.19379 0.0
C8 C 0.51179 0.22284 0.26712 0.0
C9 C 0.47511 0.09522 0.15055 0.0
O10 O 0.51743 0.31895 0.12883 0.0
O11 O 0.40387 0.24271 0.0365 0.0
O12 O 0.53995 0.19983 0.04481 0.0
O13 O 0.38897 0.25681 0.21224 0.0
O14 O 0.52991 0.19026 0.23258 0.0
O15 O 0.43261 0.11629 0.14815 0.0
O16 O 0.49439 0.26438 0.24917 0.0
O17 O 0.35662 0.20359 0.14824 0.0
O18 O 0.5145 0.11756 0.13505 0.0
O19 O 0.41335 0.3083 0.09522 0.0
O20 O 0.57614 0.26356 0.14556 0.0
O21 O 0.47303 0.15334 0.03336 0.0
Sc22 Sc 0.292 0.53451 0.83831 0.0
Sc23 Sc 0.18572 0.56954 0.9152 0.0
Sc24 Sc 0.20306 0.44848 0.87243 0.0
O25 O 0.22678 0.51851 0.87397 0.0
C26 C 0.23149 0.47395 0.74397 0.0
C27 C 0.23263 0.63232 0.81113 0.0
C28 C 0.10208 0.50776 0.86199 0.0
C29 C 0.29487 0.58914 0.96098 0.0
C30 C 0.31636 0.42824 0.88319 0.0
C31 C 0.18696 0.47994 0.99955 0.0
O32 O 0.2728 0.49208 0.76141 0.0
O33 O 0.20621 0.62976 0.85693 0.0
O34 O 0.12644 0.46968 0.8777 0.0
O35 O 0.31425 0.57773 0.91229 0.0
O36 O 0.27465 0.41335 0.86521 0.0
O37 O 0.16145 0.51526 0.97821 0.0
O38 O 0.32778 0.4738 0.88246 0.0
O39 O 0.24819 0.58695 0.97085 0.0
O40 O 0.20972 0.44892 0.9669 0.0
O41 O 0.2616 0.59779 0.79484 0.0
O42 O 0.19919 0.4559 0.77906 0.0
O43 O 0.12153 0.55104 0.86231 0.0
Sc44 Sc 0.53726 0.69311 0.17714 0.0
Sc45 Sc 0.57025 0.80141 0.10271 0.0
Sc46 Sc 0.44973 0.78074 0.14541 0.0
O47 O 0.5203 0.75861 0.14308 0.0
C48 C 0.43167 0.66898 0.13098 0.0
C49 C 0.59402 0.69347 0.05533 0.0
C50 C 0.48187 0.79496 0.01801 0.0
C51 C 0.63325 0.75492 0.20669 0.0
C52 C 0.47804 0.75272 0.2728 0.0
C53 C 0.50508 0.8828 0.15551 0.0
O54 O 0.47731 0.65774 0.13115 0.0
O55 O 0.59078 0.74022 0.04677 0.0
O56 O 0.45017 0.77316 0.05096 0.0
O57 O 0.59992 0.72381 0.22116 0.0
O58 O 0.45915 0.78535 0.23862 0.0
O59 O 0.54898 0.8647 0.15582 0.0
O60 O 0.49396 0.71078 0.25434 0.0
O61 O 0.63019 0.78272 0.16199 0.0
O62 O 0.46842 0.85759 0.13788 0.0
O63 O 0.58141 0.67279 0.10297 0.0
O64 O 0.41692 0.70845 0.15489 0.0
O65 O 0.51518 0.82298 0.03941 0.0
Sc66 Sc 0.69824 0.45084 0.84163 0.0
Sc67 Sc 0.80694 0.41521 0.91324 0.0
Sc68 Sc 0.789 0.53623 0.8688 0.0
O69 O 0.76495 0.46631 0.87326 0.0
C70 C 0.75565 0.50914 0.74302 0.0
C71 C 0.75705 0.35334 0.81089 0.0
C72 C 0.88951 0.47681 0.85612 0.0
C73 C 0.69938 0.39416 0.96359 0.0
C74 C 0.67693 0.5572 0.88676 0.0
C75 C 0.80561 0.50468 0.99648 0.0
O76 O 0.71435 0.49382 0.76391 0.0
O77 O 0.78531 0.35558 0.85514 0.0
O78 O 0.86573 0.51518 0.87175 0.0
O79 O 0.67841 0.40708 0.91634 0.0
O80 O 0.71716 0.57128 0.8637 0.0
O81 O 0.83176 0.46989 0.97501 0.0
O82 O 0.66511 0.51171 0.88796 0.0
O83 O 0.74625 0.3968 0.97131 0.0
O84 O 0.78453 0.53681 0.96353 0.0
O85 O 0.72683 0.38758 0.79674 0.0
O86 O 0.7901 0.52691 0.77532 0.0
O87 O 0.87008 0.43359 0.85843 0.0
Sc88 Sc 0.45296 0.1961 0.64021 0.0
Sc89 Sc 0.57379 0.18026 0.5938 0.0
Sc90 Sc 0.53812 0.28695 0.66884 0.0
O91 O 0.52266 0.22086 0.63567 0.0
C92 C 0.43119 0.30857 0.62453 0.0
C93 C 0.48274 0.17865 0.51248 0.0
C94 C 0.59155 0.28875 0.54534 0.0
C95 C 0.51469 0.09656 0.652 0.0
C96 C 0.4801 0.228 0.76652 0.0
C97 C 0.6372 0.23005 0.69508 0.0
O98 O 0.41693 0.2675 0.64537 0.0
O99 O 0.51878 0.15386 0.53325 0.0
O100 O 0.58079 0.30842 0.59399 0.0
O101 O 0.47559 0.11974 0.63724 0.0
O102 O 0.49621 0.26934 0.74669 0.0
O103 O 0.63447 0.20314 0.64981 0.0
O104 O 0.46192 0.1943 0.73362 0.0
O105 O 0.55767 0.11651 0.64858 0.0
O106 O 0.60211 0.25802 0.7122 0.0
O107 O 0.45177 0.20101 0.54559 0.0
O108 O 0.47664 0.32059 0.62416 0.0
O109 O 0.58925 0.24207 0.53606 0.0
Sc110 Sc 0.20047 0.53645 0.37218 0.0
Sc111 Sc 0.18441 0.4146 0.41301 0.0
Sc112 Sc 0.29085 0.45209 0.33824 0.0
O113 O 0.22519 0.46674 0.37339 0.0
C114 C 0.23011 0.51203 0.24429 0.0
C115 C 0.10104 0.47672 0.35881 0.0
C116 C 0.23227 0.3548 0.30751 0.0
C117 C 0.18508 0.5029 0.4989 0.0
C118 C 0.31286 0.55756 0.38612 0.0
C119 C 0.29304 0.39362 0.45919 0.0
O120 O 0.19697 0.52921 0.27881 0.0
O121 O 0.12071 0.43356 0.35972 0.0
O122 O 0.26132 0.38977 0.29266 0.0
O123 O 0.20686 0.53498 0.46656 0.0
O124 O 0.32514 0.51222 0.38442 0.0
O125 O 0.24638 0.39609 0.46876 0.0
O126 O 0.27177 0.57207 0.36572 0.0
O127 O 0.15984 0.46762 0.47718 0.0
O128 O 0.31269 0.40696 0.4112 0.0
O129 O 0.12415 0.51461 0.37698 0.0
O130 O 0.27224 0.4964 0.26242 0.0
O131 O 0.20559 0.35598 0.3532 0.0
Sc132 Sc 0.5405 0.78075 0.64564 0.0
Sc133 Sc 0.42126 0.80187 0.59764 0.0
Sc134 Sc 0.45132 0.69416 0.67427 0.0
O135 O 0.46989 0.75934 0.64065 0.0
C136 C 0.55714 0.66779 0.6314 0.0
C137 C 0.51275 0.79773 0.51698 0.0
C138 C 0.39829 0.69427 0.55099 0.0
C139 C 0.4838 0.88383 0.65256 0.0
C140 C 0.51067 0.75052 0.7717 0.0
C141 C 0.35506 0.75556 0.69955 0.0
O142 O 0.57245 0.70762 0.65407 0.0
O143 O 0.47817 0.82485 0.53719 0.0
O144 O 0.4071 0.67471 0.60029 0.0
O145 O 0.52187 0.85815 0.63984 0.0
O146 O 0.49464 0.70943 0.75144 0.0
O147 O 0.35922 0.78184 0.65367 0.0
O148 O 0.52994 0.78407 0.73906 0.0
O149 O 0.44009 0.86534 0.65126 0.0
O150 O 0.38906 0.72667 0.71774 0.0
O151 O 0.54241 0.77423 0.55082 0.0
O152 O 0.5112 0.65792 0.62911 0.0
O153 O 0.4035 0.74056 0.54067 0.0
Sc154 Sc 0.78787 0.44875 0.36935 0.0
Sc155 Sc 0.80545 0.56798 0.4183 0.0
Sc156 Sc 0.69915 0.53601 0.34045 0.0
O157 O 0.76449 0.51878 0.37437 0.0
C158 C 0.75905 0.47901 0.2428 0.0
C159 C 0.88886 0.508 0.36204 0.0
C160 C 0.75788 0.63477 0.31819 0.0
C161 C 0.80182 0.47693 0.49787 0.0
C162 C 0.67552 0.42845 0.38186 0.0
C163 C 0.69661 0.58724 0.46517 0.0
O164 O 0.79202 0.45959 0.27605 0.0
O165 O 0.86954 0.55135 0.36411 0.0
O166 O 0.72972 0.60052 0.29944 0.0
O167 O 0.78006 0.44622 0.46397 0.0
O168 O 0.66383 0.47399 0.38297 0.0
O169 O 0.7431 0.58328 0.47526 0.0
O170 O 0.71624 0.4146 0.35995 0.0
O171 O 0.82966 0.51074 0.47734 0.0
O172 O 0.6775 0.57752 0.4159 0.0
O173 O 0.86433 0.46957 0.37605 0.0
O174 O 0.71763 0.49554 0.26201 0.0
O175 O 0.7843 0.63042 0.36376 0.0
C176 C 0.26504 0.26977 0.30755 0.0
C177 C 0.24011 0.30764 0.27712 0.0
C178 C 0.29759 0.23763 0.27842 0.0
C179 C 0.30452 0.24163 0.2181 0.0
H180 H 0.2653 0.26971 0.35464 0.0
H181 H 0.32174 0.21384 0.3039 0.0
S182 S 0.23854 0.32686 0.11793 0.0
N183 N 0.21775 0.34182 0.18315 0.0
N184 N 0.27707 0.2798 0.12796 0.0
C185 C 0.27351 0.27378 0.18649 0.0
C186 C 0.24153 0.30734 0.21624 0.0
C187 C 0.26728 0.71642 0.81381 0.0
C188 C 0.24053 0.68044 0.78263 0.0
C189 C 0.30013 0.74854 0.78501 0.0
C190 C 0.30569 0.7464 0.72436 0.0
H191 H 0.26876 0.71466 0.86083 0.0
H192 H 0.32576 0.77036 0.81073 0.0
S193 S 0.23465 0.66713 0.6229 0.0
N194 N 0.21491 0.65048 0.68809 0.0
N195 N 0.27481 0.71257 0.63363 0.0
C196 C 0.27277 0.71662 0.69245 0.0
C197 C 0.24047 0.683 0.72181 0.0
C198 C 0.75114 0.69112 0.23397 0.0
C199 C 0.74778 0.68429 0.29437 0.0
C200 C 0.71866 0.72358 0.20517 0.0
C201 C 0.68112 0.74857 0.23605 0.0
H202 H 0.77435 0.66666 0.20822 0.0
H203 H 0.71797 0.72294 0.15809 0.0
S204 S 0.66405 0.75089 0.39548 0.0
N205 N 0.71098 0.71231 0.38495 0.0
N206 N 0.64827 0.77144 0.33038 0.0
C207 C 0.68236 0.74756 0.29691 0.0
C208 C 0.7163 0.71567 0.32632 0.0
C209 C 0.72227 0.26935 0.81172 0.0
C210 C 0.74942 0.30579 0.78151 0.0
C211 C 0.69017 0.23739 0.7819 0.0
C212 C 0.68576 0.2402 0.72118 0.0
H213 H 0.72003 0.27047 0.85873 0.0
H214 H 0.66431 0.21497 0.80683 0.0
S215 S 0.75809 0.32114 0.62209 0.0
N216 N 0.77645 0.33722 0.68787 0.0
N217 N 0.71793 0.2754 0.63146 0.0
C218 C 0.71887 0.27074 0.69028 0.0
C219 C 0.75042 0.30417 0.72067 0.0
C220 C 0.46144 0.17795 0.85589 0.0
C221 C 0.48723 0.21732 0.82948 0.0
C222 C 0.47009 0.16491 0.91394 0.0
C223 C 0.5052 0.19036 0.94838 0.0
H224 H 0.43409 0.15704 0.83164 0.0
H225 H 0.44829 0.13482 0.93212 0.0
S226 S 0.58549 0.29426 0.89899 0.0
N227 N 0.5516 0.2803 0.84161 0.0
N228 N 0.56734 0.2558 0.95079 0.0
C229 C 0.53214 0.22915 0.92226 0.0
C230 C 0.52319 0.24269 0.863 0.0
C231 C 0.24246 0.4717 0.08603 0.0
C232 C 0.19501 0.48108 0.06318 0.0
C233 C 0.25376 0.4832 0.14402 0.0
C234 C 0.21804 0.50445 0.18165 0.0
H235 H 0.27173 0.45739 0.05833 0.0
H236 H 0.29104 0.47542 0.15923 0.0
S237 S 0.0867 0.53219 0.14347 0.0
N238 N 0.11114 0.51011 0.083 0.0
N239 N 0.13199 0.53139 0.19172 0.0
C240 C 0.16992 0.51256 0.15947 0.0
C241 C 0.15853 0.50087 0.10047 0.0
C242 C 0.52005 0.81103 0.9204 0.0
C243 C 0.48473 0.78504 0.95436 0.0
C244 C 0.52884 0.79915 0.86205 0.0
C245 C 0.50295 0.76049 0.83476 0.0
H246 H 0.54198 0.84066 0.93917 0.0
H247 H 0.55641 0.82036 0.8383 0.0
S248 S 0.40406 0.68266 0.90253 0.0
N249 N 0.42227 0.71988 0.95522 0.0
N250 N 0.43819 0.69764 0.8455 0.0
C251 C 0.46675 0.73463 0.86774 0.0
C252 C 0.4577 0.74692 0.92734 0.0
C253 C 0.80656 0.4574 0.15244 0.0
C254 C 0.77024 0.48643 0.17999 0.0
C255 C 0.81903 0.46526 0.094 0.0
C256 C 0.79603 0.50278 0.06031 0.0
H257 H 0.82523 0.42792 0.17599 0.0
H258 H 0.84649 0.44078 0.07491 0.0
S259 S 0.70187 0.59262 0.1136 0.0
N260 N 0.71372 0.55687 0.17027 0.0
N261 N 0.73703 0.57122 0.06043 0.0
C262 C 0.76068 0.53318 0.08782 0.0
C263 C 0.74776 0.52504 0.14746 0.0
C264 C 0.48534 0.24639 0.36833 0.0
C265 C 0.50518 0.21053 0.32994 0.0
C266 C 0.47454 0.23489 0.42655 0.0
C267 C 0.48327 0.1871 0.44891 0.0
H268 H 0.47816 0.28393 0.35352 0.0
H269 H 0.46133 0.26423 0.4548 0.0
S270 S 0.53114 0.07851 0.36695 0.0
N271 N 0.53034 0.12408 0.31885 0.0
N272 N 0.51058 0.10297 0.42813 0.0
C273 C 0.50192 0.15058 0.41104 0.0
C274 C 0.51282 0.16214 0.35176 0.0
C275 C 0.24047 0.51405 0.58511 0.0
C276 C 0.19384 0.50102 0.56246 0.0
C277 C 0.25279 0.50357 0.64314 0.0
C278 C 0.21893 0.4798 0.68114 0.0
H279 H 0.26839 0.53077 0.5573 0.0
H280 H 0.28932 0.51443 0.65818 0.0
S281 S 0.09043 0.44102 0.64341 0.0
N282 N 0.11276 0.46507 0.58276 0.0
N283 N 0.13559 0.44559 0.69151 0.0
C284 C 0.17171 0.46752 0.65904 0.0
C285 C 0.15927 0.47817 0.59997 0.0
C286 C 0.50586 0.72886 0.37378 0.0
C287 C 0.48686 0.7652 0.33523 0.0
C288 C 0.51803 0.74034 0.43164 0.0
C289 C 0.51176 0.78866 0.45341 0.0
H290 H 0.51106 0.69093 0.35943 0.0
H291 H 0.53027 0.71066 0.46014 0.0
S292 S 0.46835 0.89871 0.37012 0.0
N293 N 0.46606 0.85269 0.323 0.0
N294 N 0.48856 0.87385 0.43131 0.0
C295 C 0.49453 0.82568 0.41507 0.0
C296 C 0.4821 0.81409 0.35628 0.0
C297 C 0.81103 0.51645 0.65556 0.0
C298 C 0.76548 0.50125 0.67977 0.0
C299 C 0.82329 0.50584 0.59773 0.0
C300 C 0.79075 0.47934 0.56115 0.0
H301 H 0.83777 0.5367 0.68145 0.0
H302 H 0.85853 0.51936 0.58127 0.0
S303 S 0.66697 0.43015 0.60259 0.0
N304 N 0.68768 0.45715 0.66211 0.0
N305 N 0.71095 0.43788 0.55334 0.0
C306 C 0.74534 0.46322 0.58467 0.0
C307 C 0.73261 0.47416 0.64376 0.0
C308 C 0.36842 0.40939 0.96912 0.0
C309 C 0.34672 0.39307 0.91718 0.0
C310 C 0.38708 0.37551 0.00965 0.0
C311 C 0.38525 0.32383 0.99974 0.0
H312 H 0.36821 0.44847 0.98037 0.0
H313 H 0.40172 0.3902 0.04989 0.0
S314 S 0.34 0.26304 0.86509 0.0
N315 N 0.32949 0.32282 0.85437 0.0
N316 N 0.36571 0.2587 0.93002 0.0
C317 C 0.36702 0.3073 0.94579 0.0
C318 C 0.34744 0.342 0.9047 0.0
C319 C 0.31225 0.63589 0.05277 0.0
C320 C 0.3289 0.60445 0.00822 0.0
C321 C 0.34522 0.65403 0.09477 0.0
C322 C 0.39607 0.64107 0.09417 0.0
H323 H 0.27391 0.64825 0.05391 0.0
H324 H 0.33101 0.68001 0.12655 0.0
S325 S 0.45656 0.55334 0.99173 0.0
N326 N 0.39823 0.55625 0.96996 0.0
N327 N 0.4601 0.59043 0.04852 0.0
C328 C 0.41236 0.6068 0.0522 0.0
C329 C 0.37886 0.58855 0.00929 0.0
C330 C 0.60372 0.60886 0.01258 0.0
C331 C 0.61128 0.66055 0.00769 0.0
C332 C 0.62196 0.57596 0.97084 0.0
C333 C 0.64871 0.5932 0.9224 0.0
H334 H 0.58457 0.59328 0.04977 0.0
H335 H 0.61724 0.53646 0.97844 0.0
S336 S 0.67147 0.72517 0.88348 0.0
N337 N 0.64202 0.72772 0.94639 0.0
N338 N 0.67668 0.66554 0.86791 0.0
C339 C 0.65368 0.64489 0.91468 0.0
C340 C 0.63482 0.67859 0.95724 0.0
C341 C 0.61515 0.38581 0.00812 0.0
C342 C 0.66666 0.37645 0.01134 0.0
C343 C 0.58212 0.36616 0.04902 0.0
C344 C 0.59907 0.33603 0.0948 0.0
H345 H 0.59977 0.40736 0.97265 0.0
H346 H 0.54268 0.37225 0.04246 0.0
S347 S 0.7308 0.30724 0.12907 0.0
N348 N 0.73358 0.34034 0.06866 0.0
N349 N 0.67118 0.3029 0.14549 0.0
C350 C 0.65071 0.32932 0.10118 0.0
C351 C 0.68455 0.3497 0.05956 0.0
C352 C 0.64179 0.30733 0.45631 0.0
C353 C 0.60688 0.32258 0.49791 0.0
C354 C 0.66119 0.34117 0.41583 0.0
C355 C 0.64607 0.39143 0.41521 0.0
H356 H 0.65614 0.2697 0.45686 0.0
H357 H 0.69003 0.32823 0.3867 0.0
S358 S 0.54816 0.44721 0.50843 0.0
N359 N 0.55263 0.38917 0.53107 0.0
N360 N 0.5889 0.45269 0.45516 0.0
C361 C 0.60797 0.40591 0.4535 0.0
C362 C 0.58851 0.37155 0.4949 0.0
C363 C 0.41233 0.35907 0.53714 0.0
C364 C 0.39564 0.33734 0.5891 0.0
C365 C 0.37882 0.37765 0.49623 0.0
C366 C 0.32702 0.37568 0.50563 0.0
H367 H 0.45154 0.35929 0.52631 0.0
H368 H 0.39396 0.39267 0.45629 0.0
S369 S 0.26491 0.32956 0.63959 0.0
N370 N 0.32466 0.31936 0.65101 0.0
N371 N 0.26117 0.35537 0.57457 0.0
C372 C 0.30997 0.35694 0.55931 0.0
C373 C 0.34434 0.33746 0.60086 0.0
C374 C 0.34997 0.67743 0.46026 0.0
C375 C 0.38222 0.66068 0.50397 0.0
C376 C 0.33022 0.64427 0.41951 0.0
C377 C 0.34251 0.59329 0.42062 0.0
H378 H 0.33801 0.71588 0.45917 0.0
H379 H 0.30347 0.65841 0.38848 0.0
S380 S 0.43239 0.53278 0.5207 0.0
N381 N 0.43066 0.59131 0.54169 0.0
N382 N 0.39379 0.52913 0.46526 0.0
C383 C 0.37786 0.57699 0.46141 0.0
C384 C 0.39756 0.61062 0.50314 0.0
C385 C 0.6104 0.60239 0.50143 0.0
C386 C 0.66205 0.60296 0.51212 0.0
C387 C 0.57639 0.61976 0.5425 0.0
C388 C 0.59247 0.6389 0.59588 0.0
H389 H 0.59579 0.58962 0.46029 0.0
H390 H 0.5374 0.62092 0.53071 0.0
S391 S 0.7222 0.64105 0.65012 0.0
N392 N 0.7268 0.61826 0.58378 0.0
N393 N 0.66247 0.65212 0.66061 0.0
C394 C 0.64349 0.63686 0.60899 0.0
C395 C 0.67833 0.61855 0.56726 0.0
C396 C 0.52832 0.0209 0.16945 0.0
C397 C 0.4802 0.04143 0.16344 0.0
C398 C 0.53615 0.96953 0.17044 0.0
C399 C 0.49612 0.93649 0.16596 0.0
H400 H 0.56079 0.04466 0.17071 0.0
H401 H 0.57399 0.95582 0.17182 0.0
S402 S 0.36194 0.97101 0.16174 0.0
N403 N 0.39157 0.02464 0.16122 0.0
N404 N 0.40563 0.92805 0.16488 0.0
C405 C 0.44737 0.95652 0.16574 0.0
C406 C 0.43954 0.00895 0.16411 0.0
C407 C 0.97638 0.44399 0.8559 0.0
C408 C 0.94344 0.48326 0.84532 0.0
C409 C 0.02765 0.45224 0.85833 0.0
C410 C 0.04823 0.50018 0.85052 0.0
H411 H 0.96247 0.40714 0.8657 0.0
H412 H 0.05102 0.42076 0.86902 0.0
S413 S 0.97823 0.61361 0.80972 0.0
N414 N 0.9352 0.57044 0.8178 0.0
N415 N 0.03171 0.58589 0.82341 0.0
C416 C 0.01597 0.53896 0.83514 0.0
C417 C 0.96361 0.5305 0.83226 0.0
C418 C 0.53922 0.95843 0.64901 0.0
C419 C 0.49195 0.9379 0.66148 0.0
C420 C 0.54755 0.00973 0.65002 0.0
C421 C 0.50902 0.04271 0.66368 0.0
H422 H 0.5699 0.93494 0.6358 0.0
H423 H 0.58364 0.02361 0.63682 0.0
S424 S 0.38118 0.00826 0.71049 0.0
N425 N 0.40806 0.95468 0.69535 0.0
N426 N 0.4237 0.0512 0.69811 0.0
C427 C 0.46268 0.02267 0.68075 0.0
C428 C 0.45412 0.97033 0.67937 0.0
C429 C 0.96318 0.45239 0.35885 0.0
C430 C 0.94276 0.50044 0.35108 0.0
C431 C 0.01442 0.44401 0.35701 0.0
C432 C 0.04742 0.48326 0.34708 0.0
H433 H 0.93971 0.4209 0.36916 0.0
H434 H 0.0282 0.40712 0.36686 0.0
S435 S 0.01332 0.61371 0.31128 0.0
N436 N 0.95963 0.58616 0.32434 0.0
N437 N 0.0562 0.57041 0.31981 0.0
C438 C 0.02753 0.53057 0.33389 0.0
C439 C 0.97519 0.53919 0.33619 0.0
loop_
_geom_bond_atom_site_label_1
_geom_bond_atom_site_label_2
_geom_bond_distance
_geom_bond_site_symmetry_2
_ccdc_geom_bond_type
Sc0 O3 2.025 . S
Sc0 O10 2.105 . S
Sc0 O13 2.105 . S
Sc0 O16 2.105 . S
Sc0 O19 2.105 . S
Sc1 O3 2.025 . S
Sc1 O11 2.105 . S
Sc1 O15 2.105 . S
Sc1 O17 2.105 . S
Sc1 O21 2.105 1_554 S
Sc2 O3 2.025 . S
Sc2 O12 2.105 1_554 S
Sc2 O14 2.105 . S
Sc2 O18 2.105 . S
Sc2 O20 2.105 . S
O3 Sc0 2.025 . S
O3 Sc1 2.025 . S
O3 Sc2 2.025 . S
C4 O10 1.268 . S
C4 O20 1.268 . S
C5 O11 1.268 . S
C5 O19 1.268 . S
C6 O12 1.268 . S
C6 O21 1.268 . S
C7 O13 1.268 . S
C7 O17 1.268 . S
C8 O14 1.268 . S
C8 O16 1.268 . S
C9 O15 1.268 . S
C9 O18 1.268 . S
O10 Sc0 2.105 . S
O10 C4 1.268 . S
O11 Sc1 2.105 . S
O11 C5 1.268 . S
O12 Sc2 2.105 1_556 S
O12 C6 1.268 . S
O13 Sc0 2.105 . S
O13 C7 1.268 . S
O14 Sc2 2.105 . S
O14 C8 1.268 . S
O15 Sc1 2.105 . S
O15 C9 1.268 . S
O16 Sc0 2.105 . S
O16 C8 1.268 . S
O17 Sc1 2.105 . S
O17 C7 1.268 . S
O18 Sc2 2.105 . S
O18 C9 1.268 . S
O19 Sc0 2.105 . S
O19 C5 1.268 . S
O20 Sc2 2.105 . S
O20 C4 1.268 . S
O21 Sc1 2.105 1_556 S
O21 C6 1.268 . S
Sc22 O25 2.025 . S
Sc22 O32 2.105 . S
Sc22 O35 2.105 . S
Sc22 O38 2.105 . S
Sc22 O41 2.105 . S
Sc23 O25 2.025 . S
Sc23 O33 2.105 . S
Sc23 O37 2.105 1_556 S
Sc23 O39 2.105 . S
Sc23 O43 2.105 . S
Sc24 O25 2.025 . S
Sc24 O34 2.105 . S
Sc24 O36 2.105 . S
Sc24 O40 2.105 1_556 S
Sc24 O42 2.105 . S
O25 Sc22 2.025 . S
O25 Sc23 2.025 . S
O25 Sc24 2.025 . S
C26 O32 1.268 . S
C26 O42 1.268 . S
C27 O33 1.268 . S
C27 O41 1.268 . S
C28 O34 1.268 . S
C28 O43 1.268 . S
C29 O35 1.268 . S
C29 O39 1.268 . S
C30 O36 1.268 . S
C30 O38 1.268 . S
C31 O37 1.268 . S
C31 O40 1.268 . S
O32 Sc22 2.105 . S
O32 C26 1.268 . S
O33 Sc23 2.105 . S
O33 C27 1.268 . S
O34 Sc24 2.105 . S
O34 C28 1.268 . S
O35 Sc22 2.105 . S
O35 C29 1.268 . S
O36 Sc24 2.105 . S
O36 C30 1.268 . S
O37 Sc23 2.105 1_554 S
O37 C31 1.268 . S
O38 Sc22 2.105 . S
O38 C30 1.268 . S
O39 Sc23 2.105 . S
O39 C29 1.268 . S
O40 Sc24 2.105 1_554 S
O40 C31 1.268 . S
O41 Sc22 2.105 . S
O41 C27 1.268 . S
O42 Sc24 2.105 . S
O42 C26 1.268 . S
O43 Sc23 2.105 . S
O43 C28 1.268 . S
Sc44 O47 2.025 . S
Sc44 O54 2.105 . S
Sc44 O57 2.105 . S
Sc44 O60 2.105 . S
Sc44 O63 2.105 . S
Sc45 O47 2.025 . S
Sc45 O55 2.105 . S
Sc45 O59 2.105 . S
Sc45 O61 2.105 . S
Sc45 O65 2.105 1_554 S
Sc46 O47 2.025 . S
Sc46 O56 2.105 1_554 S
Sc46 O58 2.105 . S
Sc46 O62 2.105 . S
Sc46 O64 2.105 . S
O47 Sc44 2.025 . S
O47 Sc45 2.025 . S
O47 Sc46 2.025 . S
C48 O54 1.268 . S
C48 O64 1.268 . S
C49 O55 1.268 . S
C49 O63 1.268 . S
C50 O56 1.268 . S
C50 O65 1.268 . S
C51 O57 1.268 . S
C51 O61 1.268 . S
C52 O58 1.268 . S
C52 O60 1.268 . S
C53 O59 1.268 . S
C53 O62 1.268 . S
O54 Sc44 2.105 . S
O54 C48 1.268 . S
O55 Sc45 2.105 . S
O55 C49 1.268 . S
O56 Sc46 2.105 1_556 S
O56 C50 1.268 . S
O57 Sc44 2.105 . S
O57 C51 1.268 . S
O58 Sc46 2.105 . S
O58 C52 1.268 . S
O59 Sc45 2.105 . S
O59 C53 1.268 . S
O60 Sc44 2.105 . S
O60 C52 1.268 . S
O61 Sc45 2.105 . S
O61 C51 1.268 . S
O62 Sc46 2.105 . S
O62 C53 1.268 . S
O63 Sc44 2.105 . S
O63 C49 1.268 . S
O64 Sc46 2.105 . S
O64 C48 1.268 . S
O65 Sc45 2.105 1_556 S
O65 C50 1.268 . S
Sc66 O69 2.025 . S
Sc66 O76 2.105 . S
Sc66 O79 2.105 . S
Sc66 O82 2.105 . S
Sc66 O85 2.105 . S
Sc67 O69 2.025 . S
Sc67 O77 2.105 . S
Sc67 O81 2.105 1_556 S
Sc67 O83 2.105 . S
Sc67 O87 2.105 . S
Sc68 O69 2.025 . S
Sc68 O78 2.105 . S
Sc68 O80 2.105 . S
Sc68 O84 2.105 1_556 S
Sc68 O86 2.105 . S
O69 Sc66 2.025 . S
O69 Sc67 2.025 . S
O69 Sc68 2.025 . S
C70 O76 1.268 . S
C70 O86 1.268 . S
C71 O77 1.268 . S
C71 O85 1.268 . S
C72 O78 1.268 . S
C72 O87 1.268 . S
C73 O79 1.268 . S
C73 O83 1.268 . S
C74 O80 1.268 . S
C74 O82 1.268 . S
C75 O81 1.268 . S
C75 O84 1.268 . S
O76 Sc66 2.105 . S
O76 C70 1.268 . S
O77 Sc67 2.105 . S
O77 C71 1.268 . S
O78 Sc68 2.105 . S
O78 C72 1.268 . S
O79 Sc66 2.105 . S
O79 C73 1.268 . S
O80 Sc68 2.105 . S
O80 C74 1.268 . S
O81 Sc67 2.105 1_554 S
O81 C75 1.268 . S
O82 Sc66 2.105 . S
O82 C74 1.268 . S
O83 Sc67 2.105 . S
O83 C73 1.268 . S
O84 Sc68 2.105 1_554 S
O84 C75 1.268 . S
O85 Sc66 2.105 . S
O85 C71 1.268 . S
O86 Sc68 2.105 . S
O86 C70 1.268 . S
O87 Sc67 2.105 . S
O87 C72 1.268 . S
Sc88 O91 2.025 . S
Sc88 O98 2.105 . S
Sc88 O101 2.105 . S
Sc88 O104 2.105 . S
Sc88 O107 2.105 . S
Sc89 O91 2.025 . S
Sc89 O99 2.105 . S
Sc89 O103 2.105 . S
Sc89 O105 2.105 . S
Sc89 O109 2.105 . S
Sc90 O91 2.025 . S
Sc90 O100 2.105 . S
Sc90 O102 2.105 . S
Sc90 O106 2.105 . S
Sc90 O108 2.105 . S
O91 Sc88 2.025 . S
O91 Sc89 2.025 . S
O91 Sc90 2.025 . S
C92 O98 1.268 . S
C92 O108 1.268 . S
C93 O99 1.268 . S
C93 O107 1.268 . S
C94 O100 1.268 . S
C94 O109 1.268 . S
C95 O101 1.268 . S
C95 O105 1.268 . S
C96 O102 1.268 . S
C96 O104 1.268 . S
C97 O103 1.268 . S
C97 O106 1.268 . S
O98 Sc88 2.105 . S
O98 C92 1.268 . S
O99 Sc89 2.105 . S
O99 C93 1.268 . S
O100 Sc90 2.105 . S
O100 C94 1.268 . S
O101 Sc88 2.105 . S
O101 C95 1.268 . S
O102 Sc90 2.105 . S
O102 C96 1.268 . S
O103 Sc89 2.105 . S
O103 C97 1.268 . S
O104 Sc88 2.105 . S
O104 C96 1.268 . S
O105 Sc89 2.105 . S
O105 C95 1.268 . S
O106 Sc90 2.105 . S
O106 C97 1.268 . S
O107 Sc88 2.105 . S
O107 C93 1.268 . S
O108 Sc90 2.105 . S
O108 C92 1.268 . S
O109 Sc89 2.105 . S
O109 C94 1.268 . S
Sc110 O113 2.025 . S
Sc110 O120 2.105 . S
Sc110 O123 2.105 . S
Sc110 O126 2.105 . S
Sc110 O129 2.105 . S
Sc111 O113 2.025 . S
Sc111 O121 2.105 . S
Sc111 O125 2.105 . S
Sc111 O127 2.105 . S
Sc111 O131 2.105 . S
Sc112 O113 2.025 . S
Sc112 O122 2.105 . S
Sc112 O124 2.105 . S
Sc112 O128 2.105 . S
Sc112 O130 2.105 . S
O113 Sc110 2.025 . S
O113 Sc111 2.025 . S
O113 Sc112 2.025 . S
C114 O120 1.268 . S
C114 O130 1.268 . S
C115 O121 1.268 . S
C115 O129 1.268 . S
C116 O122 1.268 . S
C116 O131 1.268 . S
C117 O123 1.268 . S
C117 O127 1.268 . S
C118 O124 1.268 . S
C118 O126 1.268 . S
C119 O125 1.268 . S
C119 O128 1.268 . S
O120 Sc110 2.105 . S
O120 C114 1.268 . S
O121 Sc111 2.105 . S
O121 C115 1.268 . S
O122 Sc112 2.105 . S
O122 C116 1.268 . S
O123 Sc110 2.105 . S
O123 C117 1.268 . S
O124 Sc112 2.105 . S
O124 C118 1.268 . S
O125 Sc111 2.105 . S
O125 C119 1.268 . S
O126 Sc110 2.105 . S
O126 C118 1.268 . S
O127 Sc111 2.105 . S
O127 C117 1.268 . S
O128 Sc112 2.105 . S
O128 C119 1.268 . S
O129 Sc110 2.105 . S
O129 C115 1.268 . S
O130 Sc112 2.105 . S
O130 C114 1.268 . S
O131 Sc111 2.105 . S
O131 C116 1.268 . S
Sc132 O135 2.025 . S
Sc132 O142 2.105 . S
Sc132 O145 2.105 . S
Sc132 O148 2.105 . S
Sc132 O151 2.105 . S
Sc133 O135 2.025 . S
Sc133 O143 2.105 . S
Sc133 O147 2.105 . S
Sc133 O149 2.105 . S
Sc133 O153 2.105 . S
Sc134 O135 2.025 . S
Sc134 O144 2.105 . S
Sc134 O146 2.105 . S
Sc134 O150 2.105 . S
Sc134 O152 2.105 . S
O135 Sc132 2.025 . S
O135 Sc133 2.025 . S
O135 Sc134 2.025 . S
C136 O142 1.268 . S
C136 O152 1.268 . S
C137 O143 1.268 . S
C137 O151 1.268 . S
C138 O144 1.268 . S
C138 O153 1.268 . S
C139 O145 1.268 . S
C139 O149 1.268 . S
C140 O146 1.268 . S
C140 O148 1.268 . S
C141 O147 1.268 . S
C141 O150 1.268 . S
O142 Sc132 2.105 . S
O142 C136 1.268 . S
O143 Sc133 2.105 . S
O143 C137 1.268 . S
O144 Sc134 2.105 . S
O144 C138 1.268 . S
O145 Sc132 2.105 . S
O145 C139 1.268 . S
O146 Sc134 2.105 . S
O146 C140 1.268 . S
O147 Sc133 2.105 . S
O147 C141 1.268 . S
O148 Sc132 2.105 . S
O148 C140 1.268 . S
O149 Sc133 2.105 . S
O149 C139 1.268 . S
O150 Sc134 2.105 . S
O150 C141 1.268 . S
O151 Sc132 2.105 . S
O151 C137 1.268 . S
O152 Sc134 2.105 . S
O152 C136 1.268 . S
O153 Sc133 2.105 . S
O153 C138 1.268 . S
Sc154 O157 2.025 . S
Sc154 O164 2.105 . S
Sc154 O167 2.105 . S
Sc154 O170 2.105 . S
Sc154 O173 2.105 . S
Sc155 O157 2.025 . S
Sc155 O165 2.105 . S
Sc155 O169 2.105 . S
Sc155 O171 2.105 . S
Sc155 O175 2.105 . S
Sc156 O157 2.025 . S
Sc156 O166 2.105 . S
Sc156 O168 2.105 . S
Sc156 O172 2.105 . S
Sc156 O174 2.105 . S
O157 Sc154 2.025 . S
O157 Sc155 2.025 . S
O157 Sc156 2.025 . S
C158 O164 1.268 . S
C158 O174 1.268 . S
C159 O165 1.268 . S
C159 O173 1.268 . S
C160 O166 1.268 . S
C160 O175 1.268 . S
C161 O167 1.268 . S
C161 O171 1.268 . S
C162 O168 1.268 . S
C162 O170 1.268 . S
C163 O169 1.268 . S
C163 O172 1.268 . S
O164 Sc154 2.105 . S
O164 C158 1.268 . S
O165 Sc155 2.105 . S
O165 C159 1.268 . S
O166 Sc156 2.105 . S
O166 C160 1.268 . S
O167 Sc154 2.105 . S
O167 C161 1.268 . S
O168 Sc156 2.105 . S
O168 C162 1.268 . S
O169 Sc155 2.105 . S
O169 C163 1.268 . S
O170 Sc154 2.105 . S
O170 C162 1.268 . S
O171 Sc155 2.105 . S
O171 C161 1.268 . S
O172 Sc156 2.105 . S
O172 C163 1.268 . S
O173 Sc154 2.105 . S
O173 C159 1.268 . S
O174 Sc156 2.105 . S
O174 C158 1.268 . S
O175 Sc155 2.105 . S
O175 C160 1.268 . S
C176 C177 1.369 . S
C176 C178 1.419 . S
C176 H180 0.930 . S
C177 C176 1.369 . S
C177 C186 1.429 . S
C178 C176 1.419 . S
C178 C179 1.363 . S
C178 H181 0.929 . S
C179 C178 1.363 . S
C179 C185 1.428 . S
H180 C176 0.930 . S
H181 C178 0.929 . S
S182 N183 1.613 . S
S182 N184 1.610 . S
N183 S182 1.613 . S
N183 C186 1.350 . S
N184 S182 1.610 . S
N184 C185 1.351 . S
C185 C179 1.428 . S
C185 N184 1.351 . S
C185 C186 1.434 . S
C186 C177 1.429 . S
C186 N183 1.350 . S
C186 C185 1.434 . S
C187 C188 1.369 . S
C187 C189 1.419 . S
C187 H191 0.930 . S
C188 C187 1.369 . S
C188 C197 1.429 . S
C189 C187 1.419 . S
C189 C190 1.363 . S
C189 H192 0.929 . S
C190 C189 1.363 . S
C190 C196 1.428 . S
H191 C187 0.930 . S
H192 C189 0.929 . S
S193 N194 1.613 . S
S193 N195 1.610 . S
N194 S193 1.613 . S
N194 C197 1.350 . S
N195 S193 1.610 . S
N195 C196 1.351 . S
C196 C190 1.428 . S
C196 N195 1.351 . S
C196 C197 1.434 . S
C197 C188 1.429 . S
C197 N194 1.350 . S
C197 C196 1.434 . S
C198 C199 1.369 . S
C198 C200 1.419 . S
C198 H202 0.930 . S
C199 C198 1.369 . S
C199 C208 1.429 . S
C200 C198 1.419 . S
C200 C201 1.363 . S
C200 H203 0.929 . S
C201 C200 1.363 . S
C201 C207 1.428 . S
H202 C198 0.930 . S
H203 C200 0.929 . S
S204 N205 1.613 . S
S204 N206 1.610 . S
N205 S204 1.613 . S
N205 C208 1.350 . S
N206 S204 1.610 . S
N206 C207 1.351 . S
C207 C201 1.428 . S
C207 N206 1.351 . S
C207 C208 1.434 . S
C208 C199 1.429 . S
C208 N205 1.350 . S
C208 C207 1.434 . S
C209 C210 1.369 . S
C209 C211 1.419 . S
C209 H213 0.930 . S
C210 C209 1.369 . S
C210 C219 1.429 . S
C211 C209 1.419 . S
C211 C212 1.363 . S
C211 H214 0.929 . S
C212 C211 1.363 . S
C212 C218 1.428 . S
H213 C209 0.930 . S
H214 C211 0.929 . S
S215 N216 1.613 . S
S215 N217 1.610 . S
N216 S215 1.613 . S
N216 C219 1.350 . S
N217 S215 1.610 . S
N217 C218 1.351 . S
C218 C212 1.428 . S
C218 N217 1.351 . S
C218 C219 1.434 . S
C219 C210 1.429 . S
C219 N216 1.350 . S
C219 C218 1.434 . S
C220 C221 1.369 . S
C220 C222 1.419 . S
C220 H224 0.930 . S
C221 C220 1.369 . S
C221 C230 1.429 . S
C222 C220 1.419 . S
C222 C223 1.363 . S
C222 H225 0.929 . S
C223 C222 1.363 . S
C223 C229 1.428 . S
H224 C220 0.930 . S
H225 C222 0.929 . S
S226 N227 1.613 . S
S226 N228 1.610 . S
N227 S226 1.613 . S
N227 C230 1.350 . S
N228 S226 1.610 . S
N228 C229 1.351 . S
C229 C223 1.428 . S
C229 N228 1.351 . S
C229 C230 1.434 . S
C230 C221 1.429 . S
C230 N227 1.350 . S
C230 C229 1.434 . S
C231 C232 1.369 . S
C231 C233 1.419 . S
C231 H235 0.930 . S
C232 C231 1.369 . S
C232 C241 1.429 . S
C233 C231 1.419 . S
C233 C234 1.363 . S
C233 H236 0.929 . S
C234 C233 1.363 . S
C234 C240 1.428 . S
H235 C231 0.930 . S
H236 C233 0.929 . S
S237 N238 1.613 . S
S237 N239 1.610 . S
N238 S237 1.613 . S
N238 C241 1.350 . S
N239 S237 1.610 . S
N239 C240 1.351 . S
C240 C234 1.428 . S
C240 N239 1.351 . S
C240 C241 1.434 . S
C241 C232 1.429 . S
C241 N238 1.350 . S
C241 C240 1.434 . S
C242 C243 1.369 . S
C242 C244 1.419 . S
C242 H246 0.930 . S
C243 C242 1.369 . S
C243 C252 1.429 . S
C244 C242 1.419 . S
C244 C245 1.363 . S
C244 H247 0.929 . S
C245 C244 1.363 . S
C245 C251 1.428 . S
H246 C242 0.930 . S
H247 C244 0.929 . S
S248 N249 1.613 . S
S248 N250 1.610 . S
N249 S248 1.613 . S
N249 C252 1.350 . S
N250 S248 1.610 . S
N250 C251 1.351 . S
C251 C245 1.428 . S
C251 N250 1.351 . S
C251 C252 1.434 . S
C252 C243 1.429 . S
C252 N249 1.350 . S
C252 C251 1.434 . S
C253 C254 1.369 . S
C253 C255 1.419 . S
C253 H257 0.930 . S
C254 C253 1.369 . S
C254 C263 1.429 . S
C255 C253 1.419 . S
C255 C256 1.363 . S
C255 H258 0.929 . S
C256 C255 1.363 . S
C256 C262 1.428 . S
H257 C253 0.930 . S
H258 C255 0.929 . S
S259 N260 1.613 . S
S259 N261 1.610 . S
N260 S259 1.613 . S
N260 C263 1.350 . S
N261 S259 1.610 . S
N261 C262 1.351 . S
C262 C256 1.428 . S
C262 N261 1.351 . S
C262 C263 1.434 . S
C263 C254 1.429 . S
C263 N260 1.350 . S
C263 C262 1.434 . S
C264 C265 1.369 . S
C264 C266 1.419 . S
C264 H268 0.930 . S
C265 C264 1.369 . S
C265 C274 1.429 . S
C266 C264 1.419 . S
C266 C267 1.363 . S
C266 H269 0.929 . S
C267 C266 1.363 . S
C267 C273 1.428 . S
H268 C264 0.930 . S
H269 C266 0.929 . S
S270 N271 1.613 . S
S270 N272 1.610 . S
N271 S270 1.613 . S
N271 C274 1.350 . S
N272 S270 1.610 . S
N272 C273 1.351 . S
C273 C267 1.428 . S
C273 N272 1.351 . S
C273 C274 1.434 . S
C274 C265 1.429 . S
C274 N271 1.350 . S
C274 C273 1.434 . S
C275 C276 1.369 . S
C275 C277 1.419 . S
C275 H279 0.930 . S
C276 C275 1.369 . S
C276 C285 1.429 . S
C277 C275 1.419 . S
C277 C278 1.363 . S
C277 H280 0.929 . S
C278 C277 1.363 . S
C278 C284 1.428 . S
H279 C275 0.930 . S
H280 C277 0.929 . S
S281 N282 1.613 . S
S281 N283 1.610 . S
N282 S281 1.613 . S
N282 C285 1.350 . S
N283 S281 1.610 . S
N283 C284 1.351 . S
C284 C278 1.428 . S
C284 N283 1.351 . S
C284 C285 1.434 . S
C285 C276 1.429 . S
C285 N282 1.350 . S
C285 C284 1.434 . S
C286 C287 1.369 . S
C286 C288 1.419 . S
C286 H290 0.930 . S
C287 C286 1.369 . S
C287 C296 1.429 . S
C288 C286 1.419 . S
C288 C289 1.363 . S
C288 H291 0.929 . S
C289 C288 1.363 . S
C289 C295 1.428 . S
H290 C286 0.930 . S
H291 C288 0.929 . S
S292 N293 1.613 . S
S292 N294 1.610 . S
N293 S292 1.613 . S
N293 C296 1.350 . S
N294 S292 1.610 . S
N294 C295 1.351 . S
C295 C289 1.428 . S
C295 N294 1.351 . S
C295 C296 1.434 . S
C296 C287 1.429 . S
C296 N293 1.350 . S
C296 C295 1.434 . S
C297 C298 1.369 . S
C297 C299 1.419 . S
C297 H301 0.930 . S
C298 C297 1.369 . S
C298 C307 1.429 . S
C299 C297 1.419 . S
C299 C300 1.363 . S
C299 H302 0.929 . S
C300 C299 1.363 . S
C300 C306 1.428 . S
H301 C297 0.930 . S
H302 C299 0.929 . S
S303 N304 1.613 . S
S303 N305 1.610 . S
N304 S303 1.613 . S
N304 C307 1.350 . S
N305 S303 1.610 . S
N305 C306 1.351 . S
C306 C300 1.428 . S
C306 N305 1.351 . S
C306 C307 1.434 . S
C307 C298 1.429 . S
C307 N304 1.350 . S
C307 C306 1.434 . S
C308 C309 1.369 1_554 S
C308 C310 1.419 . S
C308 H312 0.930 . S
C309 C308 1.369 1_556 S
C309 C318 1.429 . S
C310 C308 1.419 . S
C310 C311 1.363 . S
C310 H313 0.929 . S
C311 C310 1.363 . S
C311 C317 1.428 1_554 S
H312 C308 0.930 . S
H313 C310 0.929 . S
S314 N315 1.613 . S
S314 N316 1.610 . S
N315 S314 1.613 . S
N315 C318 1.350 . S
N316 S314 1.610 . S
N316 C317 1.351 . S
C317 C311 1.428 1_556 S
C317 N316 1.351 . S
C317 C318 1.434 . S
C318 C309 1.429 . S
C318 N315 1.350 . S
C318 C317 1.434 . S
C319 C320 1.369 . S
C319 C321 1.419 1_556 S
C319 H323 0.930 . S
C320 C319 1.369 . S
C320 C329 1.429 1_556 S
C321 C319 1.419 1_554 S
C321 C322 1.363 . S
C321 H324 0.929 1_554 S
C322 C321 1.363 . S
C322 C328 1.428 . S
H323 C319 0.930 . S
H324 C321 0.929 1_556 S
S325 N326 1.613 . S
S325 N327 1.610 . S
N326 S325 1.613 . S
N326 C329 1.350 . S
N327 S325 1.610 . S
N327 C328 1.351 . S
C328 C322 1.428 . S
C328 N327 1.351 . S
C328 C329 1.434 . S
C329 C320 1.429 1_554 S
C329 N326 1.350 . S
C329 C328 1.434 . S
C330 C331 1.369 1_556 S
C330 C332 1.419 . S
C330 H334 0.930 1_556 S
C331 C330 1.369 1_554 S
C331 C340 1.429 1_554 S
C332 C330 1.419 . S
C332 C333 1.363 . S
C332 H335 0.929 . S
C333 C332 1.363 . S
C333 C339 1.428 . S
H334 C330 0.930 1_554 S
H335 C332 0.929 . S
S336 N337 1.613 . S
S336 N338 1.610 . S
N337 S336 1.613 . S
N337 C340 1.350 . S
N338 S336 1.610 . S
N338 C339 1.351 . S
C339 C333 1.428 . S
C339 N338 1.351 . S
C339 C340 1.434 . S
C340 C331 1.429 1_556 S
C340 N337 1.350 . S
C340 C339 1.434 . S
C341 C342 1.369 1_554 S
C341 C343 1.419 . S
C341 H345 0.930 . S
C342 C341 1.369 1_556 S
C342 C351 1.429 . S
C343 C341 1.419 . S
C343 C344 1.363 . S
C343 H346 0.929 . S
C344 C343 1.363 . S
C344 C350 1.428 1_554 S
H345 C341 0.930 . S
H346 C343 0.929 . S
S347 N348 1.613 . S
S347 N349 1.610 . S
N348 S347 1.613 . S
N348 C351 1.350 . S
N349 S347 1.610 . S
N349 C350 1.351 . S
C350 C344 1.428 1_556 S
C350 N349 1.351 . S
C350 C351 1.434 . S
C351 C342 1.429 . S
C351 N348 1.350 . S
C351 C350 1.434 . S
C352 C353 1.369 . S
C352 C354 1.419 . S
C352 H356 0.930 . S
C353 C352 1.369 . S
C353 C362 1.429 . S
C354 C352 1.419 . S
C354 C355 1.363 . S
C354 H357 0.929 . S
C355 C354 1.363 . S
C355 C361 1.428 . S
H356 C352 0.930 . S
H357 C354 0.929 . S
S358 N359 1.613 . S
S358 N360 1.610 . S
N359 S358 1.613 . S
N359 C362 1.350 . S
N360 S358 1.610 . S
N360 C361 1.351 . S
C361 C355 1.428 . S
C361 N360 1.351 . S
C361 C362 1.434 . S
C362 C353 1.429 . S
C362 N359 1.350 . S
C362 C361 1.434 . S
C363 C364 1.369 . S
C363 C365 1.419 . S
C363 H367 0.930 . S
C364 C363 1.369 . S
C364 C373 1.429 . S
C365 C363 1.419 . S
C365 C366 1.363 . S
C365 H368 0.929 . S
C366 C365 1.363 . S
C366 C372 1.428 . S
H367 C363 0.930 . S
H368 C365 0.929 . S
S369 N370 1.613 . S
S369 N371 1.610 . S
N370 S369 1.613 . S
N370 C373 1.350 . S
N371 S369 1.610 . S
N371 C372 1.351 . S
C372 C366 1.428 . S
C372 N371 1.351 . S
C372 C373 1.434 . S
C373 C364 1.429 . S
C373 N370 1.350 . S
C373 C372 1.434 . S
C374 C375 1.369 . S
C374 C376 1.419 . S
C374 H378 0.930 . S
C375 C374 1.369 . S
C375 C384 1.429 . S
C376 C374 1.419 . S
C376 C377 1.363 . S
C376 H379 0.929 . S
C377 C376 1.363 . S
C377 C383 1.428 . S
H378 C374 0.930 . S
H379 C376 0.929 . S
S380 N381 1.613 . S
S380 N382 1.610 . S
N381 S380 1.613 . S
N381 C384 1.350 . S
N382 S380 1.610 . S
N382 C383 1.351 . S
C383 C377 1.428 . S
C383 N382 1.351 . S
C383 C384 1.434 . S
C384 C375 1.429 . S
C384 N381 1.350 . S
C384 C383 1.434 . S
C385 C386 1.369 . S
C385 C387 1.419 . S
C385 H389 0.930 . S
C386 C385 1.369 . S
C386 C395 1.429 . S
C387 C385 1.419 . S
C387 C388 1.363 . S
C387 H390 0.929 . S
C388 C387 1.363 . S
C388 C394 1.428 . S
H389 C385 0.930 . S
H390 C387 0.929 . S
S391 N392 1.613 . S
S391 N393 1.610 . S
N392 S391 1.613 . S
N392 C395 1.350 . S
N393 S391 1.610 . S
N393 C394 1.351 . S
C394 C388 1.428 . S
C394 N393 1.351 . S
C394 C395 1.434 . S
C395 C386 1.429 . S
C395 N392 1.350 . S
C395 C394 1.434 . S
C396 C397 1.369 1_565 S
C396 C398 1.419 . S
C396 H400 0.930 . S
C397 C396 1.369 1_545 S
C397 C406 1.429 . S
C398 C396 1.419 . S
C398 C399 1.363 . S
C398 H401 0.929 . S
C399 C398 1.363 . S
C399 C405 1.428 1_565 S
H400 C396 0.930 . S
H401 C398 0.929 . S
S402 N403 1.613 . S
S402 N404 1.610 . S
N403 S402 1.613 . S
N403 C406 1.350 . S
N404 S402 1.610 . S
N404 C405 1.351 . S
C405 C399 1.428 1_545 S
C405 N404 1.351 . S
C405 C406 1.434 . S
C406 C397 1.429 . S
C406 N403 1.350 . S
C406 C405 1.434 . S
C407 C408 1.369 . S
C407 C409 1.419 1_655 S
C407 H411 0.930 . S
C408 C407 1.369 . S
C408 C417 1.427 1_655 S
C409 C407 1.419 1_455 S
C409 C410 1.363 . S
C409 H412 0.929 . S
C410 C409 1.363 . S
C410 C416 1.428 . S
H411 C407 0.930 . S
H412 C409 0.929 . S
S413 N414 1.613 . S
S413 N415 1.610 . S
N414 S413 1.613 . S
N414 C417 1.350 . S
N415 S413 1.610 . S
N415 C416 1.351 . S
C416 C410 1.428 . S
C416 N415 1.351 . S
C416 C417 1.435 . S
C417 C408 1.427 1_455 S
C417 N414 1.350 . S
C417 C416 1.435 . S
C418 C419 1.369 . S
C418 C420 1.419 1_565 S
C418 H422 0.930 . S
C419 C418 1.369 . S
C419 C428 1.429 . S
C420 C418 1.419 1_545 S
C420 C421 1.363 . S
C420 H423 0.929 . S
C421 C420 1.363 . S
C421 C427 1.428 . S
H422 C418 0.930 . S
H423 C420 0.929 . S
S424 N425 1.613 1_545 S
S424 N426 1.610 . S
N425 S424 1.613 1_565 S
N425 C428 1.350 . S
N426 S424 1.610 . S
N426 C427 1.351 . S
C427 C421 1.428 . S
C427 N426 1.351 . S
C427 C428 1.434 1_545 S
C428 C419 1.429 . S
C428 N425 1.350 . S
C428 C427 1.434 1_565 S
C429 C430 1.369 . S
C429 C431 1.419 1_655 S
C429 H433 0.930 . S
C430 C429 1.369 . S
C430 C439 1.429 . S
C431 C429 1.419 1_455 S
C431 C432 1.363 . S
C431 H434 0.929 . S
C432 C431 1.363 . S
C432 C438 1.428 . S
H433 C429 0.930 . S
H434 C431 0.929 . S
S435 N436 1.613 . S
S435 N437 1.610 1_655 S
N436 S435 1.613 . S
N436 C439 1.350 . S
N437 S435 1.610 1_455 S
N437 C438 1.351 . S
C438 C432 1.428 . S
C438 N437 1.351 . S
C438 C439 1.434 1_455 S
C439 C430 1.429 . S
C439 N436 1.350 . S
C439 C438 1.434 1_655 S
C177 C116 1.381 . S
C179 C7 1.375 . S
C188 C27 1.376 . S
C190 C141 1.376 . S
C199 C160 1.374 . S
C201 C51 1.382 . S
C210 C71 1.385 . S
C212 C97 1.377 . S
C221 C96 1.538 . S
C223 C6 1.540 . S
C232 C31 1.540 . S
C234 C114 1.539 . S
C243 C50 1.540 . S
C245 C140 1.539 . S
C254 C158 1.540 . S
C256 C75 1.540 . S
C265 C8 1.541 . S
C267 C93 1.541 . S
C276 C117 1.540 . S
C278 C26 1.538 . S
C287 C52 1.541 . S
C289 C137 1.542 . S
C298 C70 1.538 . S
C300 C161 1.541 . S
C309 C30 1.143 . S
C311 C5 1.143 . S
C320 C29 1.145 . S
C322 C48 1.146 . S
C331 C49 1.142 . S
C333 C74 1.143 . S
C342 C73 1.137 . S
C344 C4 1.146 . S
C353 C94 1.145 . S
C355 C162 1.147 . S
C364 C92 1.143 . S
C366 C119 1.142 . S
C375 C138 1.139 . S
C377 C118 1.148 . S
C386 C163 1.145 . S
C388 C136 1.144 . S
C397 C9 1.745 . S
C399 C53 1.753 . S
C408 C72 1.758 . S
C410 C28 1.750 . S
C419 C139 1.758 . S
C421 C95 1.751 . S
C430 C159 1.751 . S
C432 C115 1.756 . S
