# Generated by pormake.
# Topology gis, (4)-cn, num edge types: 1
# Building blocks:
#     Node 0, Type 0, BuildingBlock: GALJAG_clean_sbu_0, # of connection points: 4
#     Node 1, Type 0, BuildingBlock: GALJAG_clean_sbu_0, # of connection points: 4
#     Node 2, Type 0, BuildingBlock: GALJAG_clean_sbu_0, # of connection points: 4
#     Node 3, Type 0, BuildingBlock: GALJAG_clean_sbu_0, # of connection points: 4
#     Node 4, Type 0, BuildingBlock: GALJAG_clean_sbu_0, # of connection points: 4
#     Node 5, Type 0, BuildingBlock: GALJAG_clean_sbu_0, # of connection points: 4
#     Node 6, Type 0, BuildingBlock: GALJAG_clean_sbu_0, # of connection points: 4
#     Node 7, Type 0, BuildingBlock: GALJAG_clean_sbu_0, # of connection points: 4
#     Node 8, Type 0, BuildingBlock: GALJAG_clean_sbu_0, # of connection points: 4
#     Node 9, Type 0, BuildingBlock: GALJAG_clean_sbu_0, # of connection points: 4
#     Node 10, Type 0, BuildingBlock: GALJAG_clean_sbu_0, # of connection points: 4
#     Node 11, Type 0, BuildingBlock: GALJAG_clean_sbu_0, # of connection points: 4
#     Node 12, Type 0, BuildingBlock: GALJAG_clean_sbu_0, # of connection points: 4
#     Node 13, Type 0, BuildingBlock: GALJAG_clean_sbu_0, # of connection points: 4
#     Node 14, Type 0, BuildingBlock: GALJAG_clean_sbu_0, # of connection points: 4
#     Node 15, Type 0, BuildingBlock: GALJAG_clean_sbu_0, # of connection points: 4
#     Edge 16, Type (0, 0), BuildingBlock: MIFKUJ_clean_linker_0, # of connection points: 2
#     Edge 17, Type (0, 0), BuildingBlock: MIFKUJ_clean_linker_0, # of connection points: 2
#     Edge 18, Type (0, 0), BuildingBlock: MIFKUJ_clean_linker_0, # of connection points: 2
#     Edge 19, Type (0, 0), BuildingBlock: MIFKUJ_clean_linker_0, # of connection points: 2
#     Edge 20, Type (0, 0), BuildingBlock: MIFKUJ_clean_linker_0, # of connection points: 2
#     Edge 21, Type (0, 0), BuildingBlock: MIFKUJ_clean_linker_0, # of connection points: 2
#     Edge 22, Type (0, 0), BuildingBlock: MIFKUJ_clean_linker_0, # of connection points: 2
#     Edge 23, Type (0, 0), BuildingBlock: MIFKUJ_clean_linker_0, # of connection points: 2
#     Edge 24, Type (0, 0), BuildingBlock: MIFKUJ_clean_linker_0, # of connection points: 2
#     Edge 25, Type (0, 0), BuildingBlock: MIFKUJ_clean_linker_0, # of connection points: 2
#     Edge 26, Type (0, 0), BuildingBlock: MIFKUJ_clean_linker_0, # of connection points: 2
#     Edge 27, Type (0, 0), BuildingBlock: MIFKUJ_clean_linker_0, # of connection points: 2
#     Edge 28, Type (0, 0), BuildingBlock: MIFKUJ_clean_linker_0, # of connection points: 2
#     Edge 29, Type (0, 0), BuildingBlock: MIFKUJ_clean_linker_0, # of connection points: 2
#     Edge 30, Type (0, 0), BuildingBlock: MIFKUJ_clean_linker_0, # of connection points: 2
#     Edge 31, Type (0, 0), BuildingBlock: MIFKUJ_clean_linker_0, # of connection points: 2
#     Edge 32, Type (0, 0), BuildingBlock: MIFKUJ_clean_linker_0, # of connection points: 2
#     Edge 33, Type (0, 0), BuildingBlock: MIFKUJ_clean_linker_0, # of connection points: 2
#     Edge 34, Type (0, 0), BuildingBlock: MIFKUJ_clean_linker_0, # of connection points: 2
#     Edge 35, Type (0, 0), BuildingBlock: MIFKUJ_clean_linker_0, # of connection points: 2
#     Edge 36, Type (0, 0), BuildingBlock: MIFKUJ_clean_linker_0, # of connection points: 2
#     Edge 37, Type (0, 0), BuildingBlock: MIFKUJ_clean_linker_0, # of connection points: 2
#     Edge 38, Type (0, 0), BuildingBlock: MIFKUJ_clean_linker_0, # of connection points: 2
#     Edge 39, Type (0, 0), BuildingBlock: MIFKUJ_clean_linker_0, # of connection points: 2
#     Edge 40, Type (0, 0), BuildingBlock: MIFKUJ_clean_linker_0, # of connection points: 2
#     Edge 41, Type (0, 0), BuildingBlock: MIFKUJ_clean_linker_0, # of connection points: 2
#     Edge 42, Type (0, 0), BuildingBlock: MIFKUJ_clean_linker_0, # of connection points: 2
#     Edge 43, Type (0, 0), BuildingBlock: MIFKUJ_clean_linker_0, # of connection points: 2
#     Edge 44, Type (0, 0), BuildingBlock: MIFKUJ_clean_linker_0, # of connection points: 2
#     Edge 45, Type (0, 0), BuildingBlock: MIFKUJ_clean_linker_0, # of connection points: 2
#     Edge 46, Type (0, 0), BuildingBlock: MIFKUJ_clean_linker_0, # of connection points: 2
#     Edge 47, Type (0, 0), BuildingBlock: MIFKUJ_clean_linker_0, # of connection points: 2
# Relax obj value: 0.052
# Max RMSD: 0.088
# Mean RMSD: 0.088
data_MOF--net-gis--node1-GALJAG_clean_sbu_0--edge1-MIFKUJ_clean_linker_0
_symmetry_space_group_name_H-M    P1
_symmetry_Int_Tables_number       1
_symmetry_cell_setting            triclinic
loop_
_symmetry_equiv_pos_as_xyz
'x, y, z'
_cell_length_a     69.666521
_cell_length_b     69.698605
_cell_length_c     48.187531
_cell_angle_alpha  90.163119
_cell_angle_beta   90.138322
_cell_angle_gamma 89.98149
loop_
_atom_site_label
_atom_site_type_symbol
_atom_site_fract_x
_atom_site_fract_y
_atom_site_fract_z
_atom_type_partial_charge
In0 In 0.14205 0.61583 0.1207 0.0
O1 O 0.15543 0.60985 0.16292 0.0
O2 O 0.17397 0.61193 0.12797 0.0
C3 C 0.1045 0.61635 0.13395 0.0
C4 C 0.14863 0.65296 0.10921 0.0
C5 C 0.14389 0.58549 0.08627 0.0
O6 O 0.11719 0.61069 0.15077 0.0
O7 O 0.11079 0.62163 0.1107 0.0
O8 O 0.14594 0.6025 0.07786 0.0
O9 O 0.14087 0.58386 0.11193 0.0
C10 C 0.17239 0.60931 0.15376 0.0
O11 O 0.14814 0.64026 0.09048 0.0
O12 O 0.14577 0.64687 0.13348 0.0
In13 In 0.634 0.88749 0.37783 0.0
O14 O 0.64132 0.86295 0.40744 0.0
O15 O 0.63918 0.85684 0.36422 0.0
C16 C 0.63614 0.91807 0.41186 0.0
C17 C 0.66273 0.89528 0.34259 0.0
C18 C 0.59602 0.88575 0.36753 0.0
O19 O 0.64031 0.90134 0.41989 0.0
O20 O 0.63079 0.91923 0.38692 0.0
O21 O 0.60772 0.89265 0.35027 0.0
O22 O 0.60351 0.87973 0.38969 0.0
C23 C 0.64242 0.85055 0.38831 0.0
O24 O 0.64556 0.89348 0.33453 0.0
O25 O 0.66529 0.89325 0.36835 0.0
In26 In 0.35225 0.38446 0.62008 0.0
O27 O 0.3453 0.39654 0.57737 0.0
O28 O 0.34883 0.41611 0.61106 0.0
C29 C 0.35304 0.34652 0.60965 0.0
C30 C 0.38964 0.39044 0.63095 0.0
C31 C 0.32192 0.38797 0.65398 0.0
O32 O 0.34878 0.35857 0.59111 0.0
O33 O 0.35667 0.35365 0.63314 0.0
O34 O 0.33881 0.39182 0.66176 0.0
O35 O 0.32039 0.38233 0.62918 0.0
C36 C 0.34547 0.41379 0.58552 0.0
O37 O 0.37728 0.38942 0.65001 0.0
O38 O 0.38309 0.38853 0.6067 0.0
In39 In 0.86416 0.10383 0.87491 0.0
O40 O 0.88813 0.09566 0.84475 0.0
O41 O 0.89553 0.10173 0.88673 0.0
C42 C 0.83398 0.10126 0.84032 0.0
C43 C 0.85857 0.07472 0.91037 0.0
C44 C 0.86293 0.14171 0.88613 0.0
O45 O 0.85106 0.09973 0.8319 0.0
O46 O 0.83221 0.10395 0.86607 0.0
O47 O 0.85618 0.12936 0.90251 0.0
O48 O 0.8704 0.13492 0.86443 0.0
C49 C 0.9012 0.09693 0.86286 0.0
O50 O 0.86143 0.09172 0.91853 0.0
O51 O 0.85839 0.0725 0.88438 0.0
In52 In 0.13189 0.39072 0.87453 0.0
O53 O 0.13976 0.36571 0.90309 0.0
O54 O 0.1276 0.35949 0.86353 0.0
C55 C 0.13768 0.42119 0.90762 0.0
C56 C 0.16094 0.39369 0.83828 0.0
C57 C 0.0939 0.3945 0.86661 0.0
O58 O 0.13839 0.40419 0.91661 0.0
O59 O 0.1341 0.42271 0.88204 0.0
O60 O 0.10583 0.39792 0.84753 0.0
O61 O 0.10122 0.38947 0.88941 0.0
C62 C 0.13409 0.35307 0.88611 0.0
O63 O 0.14359 0.39388 0.8306 0.0
O64 O 0.1635 0.39205 0.86407 0.0
In65 In 0.85369 0.88327 0.12839 0.0
O66 O 0.84645 0.85854 0.09895 0.0
O67 O 0.8483 0.8527 0.14218 0.0
C68 C 0.85334 0.91313 0.09328 0.0
C69 C 0.82428 0.89256 0.16176 0.0
C70 C 0.89143 0.88102 0.14013 0.0
O71 O 0.84853 0.89643 0.08577 0.0
O72 O 0.85833 0.91466 0.11836 0.0
O73 O 0.87946 0.88765 0.1573 0.0
O74 O 0.88432 0.87555 0.11738 0.0
C75 C 0.8453 0.84625 0.11808 0.0
O76 O 0.84111 0.89011 0.17092 0.0
O77 O 0.82242 0.89038 0.1359 0.0
In78 In 0.36515 0.60478 0.36993 0.0
O79 O 0.36003 0.592 0.41277 0.0
O80 O 0.3623 0.57297 0.37831 0.0
C81 C 0.36118 0.64235 0.38116 0.0
C82 C 0.40309 0.60125 0.36117 0.0
C83 C 0.33593 0.60145 0.33384 0.0
O84 O 0.35627 0.62957 0.39826 0.0
O85 O 0.36806 0.63612 0.35868 0.0
O86 O 0.3532 0.60191 0.32593 0.0
O87 O 0.33358 0.60255 0.35972 0.0
C88 C 0.35973 0.5749 0.40406 0.0
O89 O 0.39088 0.59548 0.34362 0.0
O90 O 0.39611 0.60861 0.38284 0.0
In91 In 0.64142 0.11349 0.62367 0.0
O92 O 0.61658 0.10565 0.6525 0.0
O93 O 0.60999 0.11803 0.61337 0.0
C94 C 0.67131 0.1086 0.65816 0.0
C95 C 0.64459 0.08352 0.58869 0.0
C96 C 0.64653 0.15104 0.61317 0.0
O97 O 0.65416 0.10886 0.66661 0.0
O98 O 0.67331 0.1107 0.63232 0.0
O99 O 0.64896 0.13836 0.59472 0.0
O100 O 0.64154 0.14471 0.63656 0.0
C101 C 0.60377 0.11134 0.63589 0.0
O102 O 0.64417 0.10065 0.58022 0.0
O103 O 0.64351 0.08163 0.61464 0.0
In104 In 0.85199 0.38324 0.87677 0.0
O105 O 0.84835 0.39558 0.92042 0.0
O106 O 0.85012 0.41492 0.88641 0.0
C107 C 0.84881 0.34522 0.88477 0.0
C108 C 0.88987 0.38611 0.86733 0.0
C109 C 0.8224 0.38911 0.84207 0.0
O110 O 0.8437 0.35721 0.90305 0.0
O111 O 0.85512 0.35248 0.86266 0.0
O112 O 0.83966 0.39026 0.83424 0.0
O113 O 0.82015 0.38489 0.86731 0.0
C114 C 0.84851 0.4128 0.91226 0.0
O115 O 0.87759 0.39017 0.84892 0.0
O116 O 0.88298 0.38072 0.89018 0.0
In117 In 0.36309 0.10549 0.62416 0.0
O118 O 0.35795 0.13049 0.59436 0.0
O119 O 0.36336 0.13668 0.63695 0.0
C120 C 0.35927 0.07501 0.59035 0.0
C121 C 0.33293 0.1013 0.65826 0.0
C122 C 0.40088 0.10398 0.63529 0.0
O123 O 0.35604 0.09193 0.58224 0.0
O124 O 0.3644 0.07357 0.61537 0.0
O125 O 0.38845 0.09878 0.65278 0.0
O126 O 0.39418 0.10961 0.61238 0.0
C127 C 0.36001 0.14313 0.61299 0.0
O128 O 0.35004 0.10102 0.667 0.0
O129 O 0.33114 0.10349 0.63242 0.0
In130 In 0.64408 0.61161 0.37348 0.0
O131 O 0.61938 0.60081 0.34606 0.0
O132 O 0.61282 0.6198 0.37915 0.0
C133 C 0.67335 0.60463 0.33884 0.0
C134 C 0.64562 0.5834 0.41154 0.0
C135 C 0.65165 0.64878 0.3838 0.0
O136 O 0.65617 0.60578 0.33055 0.0
O137 O 0.67572 0.60708 0.3646 0.0
O138 O 0.6528 0.6361 0.4024 0.0
O139 O 0.64679 0.64265 0.36013 0.0
C140 C 0.60662 0.60981 0.35926 0.0
O141 O 0.64299 0.60071 0.41818 0.0
O142 O 0.64766 0.58044 0.38593 0.0
In143 In 0.13249 0.89084 0.12215 0.0
O144 O 0.10675 0.89487 0.15095 0.0
O145 O 0.10188 0.88265 0.11111 0.0
C146 C 0.16145 0.89916 0.15709 0.0
C147 C 0.13382 0.92102 0.08761 0.0
C148 C 0.14154 0.85418 0.11054 0.0
O149 O 0.1444 0.89694 0.16535 0.0
O150 O 0.16376 0.89741 0.13126 0.0
O151 O 0.13955 0.86663 0.09177 0.0
O152 O 0.13887 0.86025 0.1349 0.0
C153 C 0.09481 0.88794 0.13394 0.0
O154 O 0.13849 0.90431 0.08008 0.0
O155 O 0.1283 0.92243 0.11243 0.0
In156 In 0.86401 0.60766 0.12448 0.0
O157 O 0.85141 0.60092 0.16694 0.0
O158 O 0.83278 0.60034 0.13183 0.0
C159 C 0.90161 0.61074 0.13669 0.0
C160 C 0.8545 0.64443 0.11453 0.0
C161 C 0.86379 0.57747 0.08966 0.0
O162 O 0.88968 0.60391 0.15368 0.0
O163 O 0.89455 0.61589 0.11379 0.0
O164 O 0.85954 0.59421 0.08177 0.0
O165 O 0.86833 0.57609 0.11493 0.0
C166 C 0.83461 0.59836 0.15772 0.0
O167 O 0.85611 0.63224 0.09521 0.0
O168 O 0.85775 0.63802 0.13853 0.0
In169 In 0.13897 0.11226 0.8718 0.0
O170 O 0.11495 0.10355 0.84178 0.0
O171 O 0.10797 0.10828 0.88421 0.0
C172 C 0.1692 0.11022 0.83737 0.0
C173 C 0.14542 0.08335 0.90732 0.0
C174 C 0.138 0.15005 0.88367 0.0
O175 O 0.15215 0.10821 0.82891 0.0
O176 O 0.17091 0.11336 0.86304 0.0
O177 O 0.14558 0.13797 0.89977 0.0
O178 O 0.13107 0.14306 0.86167 0.0
C179 C 0.10215 0.10367 0.86032 0.0
O180 O 0.14266 0.10037 0.9154 0.0
O181 O 0.14525 0.08102 0.88134 0.0
In182 In 0.63121 0.39036 0.62587 0.0
O183 O 0.60529 0.39273 0.65466 0.0
O184 O 0.60035 0.38743 0.61171 0.0
C185 C 0.66042 0.39817 0.66058 0.0
C186 C 0.63341 0.4212 0.59284 0.0
C187 C 0.63822 0.35314 0.61457 0.0
O188 O 0.64333 0.39661 0.66899 0.0
O189 O 0.66262 0.39595 0.63481 0.0
O190 O 0.63881 0.36586 0.596 0.0
O191 O 0.63397 0.35923 0.63842 0.0
C192 C 0.59321 0.39009 0.63544 0.0
O193 O 0.6377 0.40454 0.58447 0.0
O194 O 0.62806 0.42222 0.61781 0.0
In195 In 0.35316 0.88268 0.37269 0.0
O196 O 0.35101 0.89499 0.41655 0.0
O197 O 0.35247 0.91444 0.38266 0.0
C198 C 0.3474 0.84505 0.38099 0.0
C199 C 0.3911 0.88287 0.36255 0.0
C200 C 0.32334 0.88948 0.33879 0.0
O201 O 0.34379 0.85738 0.39956 0.0
O202 O 0.35351 0.85183 0.35842 0.0
O203 O 0.34047 0.88944 0.33017 0.0
O204 O 0.3214 0.88606 0.36433 0.0
C205 C 0.35133 0.91223 0.40855 0.0
O206 O 0.37917 0.8897 0.34542 0.0
O207 O 0.38384 0.87622 0.38443 0.0
H208 H 0.14437 0.8365 0.0599 0.0
H209 H 0.15061 0.80238 0.05093 0.0
H210 H 0.15543 0.79237 0.139 0.0
H211 H 0.14936 0.82627 0.14806 0.0
H212 H 0.18311 0.7733 0.10977 0.0
H213 H 0.11395 0.78356 0.1052 0.0
H214 H 0.08455 0.79839 0.08635 0.0
H215 H 0.09803 0.77663 0.00524 0.0
H216 H 0.12767 0.76187 0.02359 0.0
H217 H 0.15425 0.68143 0.14685 0.0
H218 H 0.15832 0.71558 0.13792 0.0
H219 H 0.15451 0.70511 0.04979 0.0
H220 H 0.15037 0.67067 0.05863 0.0
H221 H 0.13097 0.7345 0.06733 0.0
H222 H 0.1967 0.71802 0.07562 0.0
H223 H 0.22528 0.70257 0.09592 0.0
H224 H 0.21819 0.73548 0.17064 0.0
H225 H 0.18939 0.75093 0.15099 0.0
C226 C 0.14692 0.82701 0.07728 0.0
C227 C 0.14624 0.83396 0.10468 0.0
C228 C 0.15046 0.80757 0.07214 0.0
C229 C 0.15337 0.79488 0.09432 0.0
C230 C 0.15328 0.80195 0.12159 0.0
C231 C 0.14969 0.8213 0.12674 0.0
C232 C 0.15548 0.77401 0.08967 0.0
C233 C 0.17176 0.76477 0.10045 0.0
C234 C 0.14093 0.76302 0.07667 0.0
C235 C 0.12313 0.77186 0.06567 0.0
C236 C 0.11072 0.78209 0.0833 0.0
C237 C 0.09401 0.79045 0.07272 0.0
C238 C 0.08946 0.78851 0.04459 0.0
C239 C 0.1016 0.77816 0.027 0.0
C240 C 0.11835 0.7698 0.03748 0.0
C241 C 0.15443 0.68635 0.12554 0.0
C242 C 0.15198 0.67342 0.10342 0.0
C243 C 0.15688 0.70585 0.12046 0.0
C244 C 0.15696 0.71281 0.09318 0.0
C245 C 0.15462 0.69995 0.07097 0.0
C246 C 0.15228 0.68034 0.07605 0.0
C247 C 0.15826 0.73372 0.08843 0.0
C248 C 0.14263 0.74299 0.07589 0.0
C249 C 0.17338 0.74473 0.09991 0.0
C250 C 0.19081 0.73559 0.11183 0.0
C251 C 0.20115 0.72188 0.09645 0.0
C252 C 0.21741 0.71313 0.10784 0.0
C253 C 0.22354 0.71803 0.13456 0.0
C254 C 0.21343 0.73171 0.14994 0.0
C255 C 0.19716 0.7405 0.13866 0.0
H256 H 0.23613 0.71123 0.14334 0.0
H257 H 0.07651 0.79499 0.03643 0.0
H258 H 0.41772 0.86301 0.39171 0.0
H259 H 0.4525 0.86442 0.38715 0.0
H260 H 0.44675 0.9042 0.3192 0.0
H261 H 0.41161 0.90248 0.32325 0.0
H262 H 0.47579 0.87712 0.31077 0.0
H263 H 0.45638 0.92123 0.38244 0.0
H264 H 0.43866 0.93029 0.42475 0.0
H265 H 0.4699 0.88814 0.47144 0.0
H266 H 0.48757 0.8786 0.42932 0.0
H267 H 0.57557 0.90285 0.32579 0.0
H268 H 0.54058 0.90344 0.32017 0.0
H269 H 0.53458 0.86774 0.39269 0.0
H270 H 0.56933 0.86753 0.39877 0.0
H271 H 0.51112 0.89697 0.39566 0.0
H272 H 0.52802 0.85046 0.32549 0.0
H273 H 0.54473 0.83874 0.28369 0.0
H274 H 0.51829 0.88309 0.23513 0.0
H275 H 0.5016 0.89523 0.27675 0.0
C276 C 0.42382 0.87197 0.37565 0.0
C277 C 0.41201 0.88285 0.35805 0.0
C278 C 0.4437 0.87276 0.37309 0.0
C279 C 0.45218 0.88472 0.35323 0.0
C280 C 0.44044 0.89498 0.33477 0.0
C281 C 0.42043 0.89403 0.33715 0.0
C282 C 0.47328 0.88705 0.35296 0.0
C283 C 0.48356 0.88179 0.32912 0.0
C284 C 0.48335 0.89288 0.37709 0.0
C285 C 0.47322 0.89913 0.40267 0.0
C286 C 0.45943 0.91386 0.40171 0.0
C287 C 0.44939 0.91907 0.42566 0.0
C288 C 0.45313 0.90976 0.45075 0.0
C289 C 0.46701 0.89533 0.45198 0.0
C290 C 0.47706 0.89003 0.42809 0.0
C291 C 0.56674 0.89504 0.34038 0.0
C292 C 0.57512 0.88521 0.36278 0.0
C293 C 0.54679 0.89533 0.3371 0.0
C294 C 0.53497 0.88557 0.35596 0.0
C295 C 0.54341 0.87545 0.37797 0.0
C296 C 0.56327 0.8753 0.38139 0.0
C297 C 0.51376 0.88644 0.35375 0.0
C298 C 0.50342 0.89249 0.37714 0.0
C299 C 0.50372 0.88117 0.3293 0.0
C300 C 0.51375 0.8739 0.30429 0.0
C301 C 0.5259 0.85782 0.30595 0.0
C302 C 0.53534 0.85108 0.28228 0.0
C303 C 0.53263 0.86021 0.25679 0.0
C304 C 0.52041 0.87606 0.2549 0.0
C305 C 0.51095 0.88287 0.27852 0.0
H306 H 0.53994 0.85496 0.23849 0.0
H307 H 0.44526 0.91369 0.46924 0.0
H308 H 0.36184 0.31885 0.647 0.0
H309 H 0.36427 0.28443 0.63905 0.0
H310 H 0.3494 0.29245 0.55288 0.0
H311 H 0.34669 0.32719 0.56083 0.0
H312 H 0.33 0.26238 0.57627 0.0
H313 H 0.39501 0.28247 0.56935 0.0
H314 H 0.42465 0.29948 0.58279 0.0
H315 H 0.42721 0.26744 0.65867 0.0
H316 H 0.39742 0.25043 0.64592 0.0
H317 H 0.35263 0.16115 0.56356 0.0
H318 H 0.35244 0.19587 0.55486 0.0
H319 H 0.36555 0.20638 0.64113 0.0
H320 H 0.36585 0.17198 0.6499 0.0
H321 H 0.38835 0.2272 0.60636 0.0
H322 H 0.32061 0.2119 0.61682 0.0
H323 H 0.29065 0.19508 0.60432 0.0
H324 H 0.29349 0.21827 0.52196 0.0
H325 H 0.32362 0.23503 0.5339 0.0
C326 C 0.35909 0.31334 0.62633 0.0
C327 C 0.35415 0.3257 0.6045 0.0
C328 C 0.3606 0.29367 0.62178 0.0
C329 C 0.35736 0.28595 0.59527 0.0
C330 C 0.35209 0.29818 0.57345 0.0
C331 C 0.35056 0.31797 0.578 0.0
C332 C 0.35913 0.265 0.59096 0.0
C333 C 0.34291 0.25468 0.58219 0.0
C334 C 0.37594 0.25501 0.59891 0.0
C335 C 0.39391 0.2652 0.60669 0.0
C336 C 0.40181 0.27913 0.58899 0.0
C337 C 0.41865 0.28877 0.59648 0.0
C338 C 0.42781 0.28453 0.62156 0.0
C339 C 0.42012 0.27068 0.63923 0.0
C340 C 0.40327 0.26102 0.63186 0.0
C341 C 0.35541 0.17091 0.58063 0.0
C342 C 0.35925 0.1639 0.6074 0.0
C343 C 0.35528 0.19069 0.57564 0.0
C344 C 0.35899 0.20364 0.59737 0.0
C345 C 0.36277 0.1966 0.62406 0.0
C346 C 0.36284 0.17694 0.62905 0.0
C347 C 0.35899 0.22461 0.59281 0.0
C348 C 0.3756 0.23493 0.59981 0.0
C349 C 0.34257 0.23456 0.58327 0.0
C350 C 0.32448 0.2245 0.57613 0.0
C351 C 0.31493 0.21326 0.59597 0.0
C352 C 0.29791 0.20377 0.589 0.0
C353 C 0.29021 0.20554 0.56233 0.0
C354 C 0.29949 0.21686 0.54259 0.0
C355 C 0.31654 0.22637 0.54944 0.0
H356 H 0.27702 0.19819 0.55698 0.0
H357 H 0.44089 0.29194 0.62727 0.0
H358 H 0.08487 0.09632 0.81019 0.0
H359 H 0.05075 0.08941 0.80184 0.0
H360 H 0.03991 0.0934 0.88981 0.0
H361 H 0.07372 0.10013 0.89824 0.0
H362 H 0.02147 0.06294 0.86641 0.0
H363 H 0.03133 0.13105 0.84698 0.0
H364 H 0.04598 0.15803 0.82167 0.0
H365 H 0.02422 0.13559 0.7447 0.0
H366 H 0.00963 0.10833 0.76957 0.0
H367 H 0.9305 0.09545 0.89993 0.0
H368 H 0.96448 0.09059 0.89049 0.0
H369 H 0.9523 0.08541 0.80296 0.0
H370 H 0.91798 0.09036 0.81232 0.0
H371 H 0.98226 0.11011 0.81413 0.0
H372 H 0.9657 0.04618 0.83668 0.0
H373 H 0.95043 0.02014 0.86316 0.0
H374 H 0.98435 0.03466 0.93469 0.0
H375 H -0.00037 0.06099 0.9088 0.0
C376 C 0.07518 0.0956 0.82769 0.0
C377 C 0.08189 0.09888 0.85484 0.0
C378 C 0.05575 0.09167 0.82291 0.0
C379 C 0.04283 0.09097 0.84522 0.0
C380 C 0.04966 0.09379 0.87232 0.0
C381 C 0.06897 0.09776 0.87708 0.0
C382 C 0.022 0.08819 0.84079 0.0
C383 C 0.01286 0.07319 0.85491 0.0
C384 C 0.01089 0.10117 0.82494 0.0
C385 C 0.01963 0.11755 0.81006 0.0
C386 C 0.02981 0.1318 0.82463 0.0
C387 C 0.03808 0.14715 0.81038 0.0
C388 C 0.0361 0.14848 0.78159 0.0
C389 C 0.02579 0.1345 0.767 0.0
C390 C 0.01752 0.11911 0.78115 0.0
C391 C 0.93499 0.09315 0.87867 0.0
C392 C 0.92162 0.09329 0.85685 0.0
C393 C 0.95441 0.09025 0.87333 0.0
C394 C 0.96085 0.08737 0.84607 0.0
C395 C 0.94755 0.08747 0.82415 0.0
C396 C 0.92801 0.09028 0.82953 0.0
C397 C 0.98168 0.08539 0.84086 0.0
C398 C 0.99083 0.09946 0.8249 0.0
C399 C 0.99281 0.07157 0.85509 0.0
C400 C 0.98378 0.05563 0.87077 0.0
C401 C 0.96983 0.0439 0.85811 0.0
C402 C 0.96118 0.02907 0.87301 0.0
C403 C 0.96641 0.02575 0.90059 0.0
C404 C 0.98033 0.03724 0.91331 0.0
C405 C 0.98902 0.0521 0.89851 0.0
H406 H 0.95968 0.01427 0.9121 0.0
H407 H 0.0425 0.16038 0.77059 0.0
H408 H 0.11828 0.32459 0.85523 0.0
H409 H 0.11873 0.29026 0.86443 0.0
H410 H 0.15129 0.30011 0.93939 0.0
H411 H 0.15087 0.3348 0.93028 0.0
H412 H 0.16596 0.27049 0.90598 0.0
H413 H 0.10653 0.28781 0.94684 0.0
H414 H 0.07509 0.30389 0.94997 0.0
H415 H 0.05487 0.27174 0.87963 0.0
H416 H 0.0863 0.25565 0.87579 0.0
H417 H 0.15433 0.16907 0.92751 0.0
H418 H 0.15345 0.20368 0.93684 0.0
H419 H 0.11913 0.21214 0.86322 0.0
H420 H 0.11988 0.17772 0.85387 0.0
H421 H 0.10558 0.23273 0.90757 0.0
H422 H 0.16653 0.22037 0.86205 0.0
H423 H 0.19822 0.20491 0.85742 0.0
H424 H 0.21549 0.22821 0.9362 0.0
H425 H 0.18378 0.2436 0.94145 0.0
C426 C 0.12552 0.3195 0.87372 0.0
C427 C 0.13453 0.33235 0.89207 0.0
C428 C 0.12567 0.29989 0.87902 0.0
C429 C 0.13483 0.29271 0.90276 0.0
C430 C 0.14405 0.30544 0.92105 0.0
C431 C 0.14378 0.32519 0.91585 0.0
C432 C 0.1351 0.27178 0.90758 0.0
C433 C 0.1528 0.26221 0.90708 0.0
C434 C 0.11787 0.26108 0.90865 0.0
C435 C 0.09884 0.27057 0.91097 0.0
C436 C 0.09543 0.28425 0.93192 0.0
C437 C 0.0776 0.29335 0.93384 0.0
C438 C 0.063 0.28884 0.915 0.0
C439 C 0.0662 0.2752 0.89422 0.0
C440 C 0.08401 0.26605 0.8922 0.0
C441 C 0.14655 0.17833 0.91341 0.0
C442 C 0.13725 0.17075 0.88989 0.0
C443 C 0.14607 0.19806 0.91874 0.0
C444 C 0.13629 0.21043 0.90064 0.0
C445 C 0.1267 0.20281 0.87748 0.0
C446 C 0.12723 0.18316 0.87209 0.0
C447 C 0.13642 0.23144 0.90501 0.0
C448 C 0.11877 0.24101 0.90722 0.0
C449 C 0.15368 0.24214 0.90548 0.0
C450 C 0.17272 0.23291 0.90231 0.0
C451 C 0.17703 0.22205 0.87849 0.0
C452 C 0.195 0.21333 0.87573 0.0
C453 C 0.20884 0.21551 0.89655 0.0
C454 C 0.20474 0.22648 0.92013 0.0
C455 C 0.18678 0.23521 0.923 0.0
H456 H 0.22274 0.20876 0.89437 0.0
H457 H 0.0492 0.2959 0.91654 0.0
H458 H 0.91889 0.86586 0.10676 0.0
H459 H 0.95346 0.86549 0.1144 0.0
H460 H 0.94579 0.89369 0.19343 0.0
H461 H 0.91094 0.89429 0.18574 0.0
H462 H 0.97382 0.91045 0.16271 0.0
H463 H 0.95882 0.8472 0.19204 0.0
H464 H 0.94365 0.81529 0.18931 0.0
H465 H 0.97494 0.80289 0.11473 0.0
H466 H 0.9901 0.83483 0.11677 0.0
H467 H 0.07565 0.89995 0.18037 0.0
H468 H 0.04113 0.8973 0.18959 0.0
H469 H 0.03307 0.86925 0.11048 0.0
H470 H 0.0674 0.87171 0.10126 0.0
H471 H 0.01309 0.85153 0.15158 0.0
H472 H 0.02336 0.9164 0.1183 0.0
H473 H 0.03794 0.94864 0.11963 0.0
H474 H 0.01512 0.95789 0.20129 0.0
H475 H 0.00061 0.92558 0.20056 0.0
C476 C 0.92451 0.87187 0.12588 0.0
C477 C 0.91223 0.8801 0.14567 0.0
C478 C 0.94428 0.87154 0.13029 0.0
C479 C 0.95216 0.87933 0.15466 0.0
C480 C 0.93995 0.88751 0.17457 0.0
C481 C 0.92009 0.88781 0.17017 0.0
C482 C 0.97327 0.87968 0.15832 0.0
C483 C 0.98242 0.89752 0.16099 0.0
C484 C 0.98445 0.86283 0.15567 0.0
C485 C 0.97553 0.84348 0.1545 0.0
C486 C 0.96238 0.83772 0.17496 0.0
C487 C 0.95379 0.81961 0.17355 0.0
C488 C 0.95831 0.80708 0.15184 0.0
C489 C 0.97146 0.81261 0.13154 0.0
C490 C 0.98008 0.83071 0.13284 0.0
C491 C 0.06649 0.89317 0.16503 0.0
C492 C 0.07416 0.88612 0.14004 0.0
C493 C 0.04682 0.89169 0.1703 0.0
C494 C 0.03456 0.88317 0.15064 0.0
C495 C 0.04229 0.87582 0.12595 0.0
C496 C 0.06189 0.87733 0.12065 0.0
C497 C 0.01357 0.88234 0.1551 0.0
C498 C 0.00447 0.8644 0.15396 0.0
C499 C 0.00244 0.89909 0.15911 0.0
C500 C 0.01112 0.9185 0.15952 0.0
C501 C 0.0216 0.92525 0.13663 0.0
C502 C 0.02982 0.94354 0.13726 0.0
C503 C 0.02751 0.95528 0.16057 0.0
C504 C 0.01693 0.94877 0.18327 0.0
C505 C 0.0087 0.93047 0.18276 0.0
H506 H 0.03388 0.96944 0.16101 0.0
H507 H 0.95163 0.79308 0.15077 0.0
H508 H 0.34266 0.65971 0.42459 0.0
H509 H 0.33871 0.69432 0.43254 0.0
H510 H 0.3709 0.706 0.3581 0.0
H511 H 0.37486 0.67167 0.35005 0.0
H512 H 0.38229 0.72846 0.40203 0.0
H513 H 0.32352 0.7084 0.35672 0.0
H514 H 0.29403 0.68914 0.35207 0.0
H515 H 0.27353 0.7113 0.42979 0.0
H516 H 0.3031 0.73051 0.43508 0.0
H517 H 0.35877 0.81677 0.34599 0.0
H518 H 0.35919 0.78234 0.35464 0.0
H519 H 0.33329 0.79146 0.43478 0.0
H520 H 0.333 0.82628 0.42641 0.0
H521 H 0.31789 0.75893 0.39927 0.0
H522 H 0.37592 0.78327 0.43956 0.0
H523 H 0.40522 0.80309 0.44066 0.0
H524 H 0.42705 0.77301 0.36954 0.0
H525 H 0.39772 0.75321 0.36772 0.0
C526 C 0.34893 0.6697 0.41003 0.0
C527 C 0.35903 0.66305 0.38668 0.0
C528 C 0.34663 0.68941 0.41456 0.0
C529 C 0.35448 0.70266 0.39586 0.0
C530 C 0.3648 0.69599 0.37282 0.0
C531 C 0.36698 0.67638 0.36819 0.0
C532 C 0.35181 0.72354 0.39966 0.0
C533 C 0.36821 0.73512 0.40153 0.0
C534 C 0.33341 0.73215 0.39966 0.0
C535 C 0.31562 0.72067 0.39649 0.0
C536 C 0.31281 0.70903 0.37294 0.0
C537 C 0.29606 0.69815 0.37016 0.0
C538 C 0.28193 0.69894 0.39067 0.0
C539 C 0.28451 0.71066 0.41396 0.0
C540 C 0.30126 0.72155 0.41686 0.0
C541 C 0.35298 0.8115 0.36538 0.0
C542 C 0.34595 0.82421 0.38561 0.0
C543 C 0.35326 0.79184 0.37027 0.0
C544 C 0.34642 0.78448 0.39541 0.0
C545 C 0.33865 0.79697 0.41529 0.0
C546 C 0.33854 0.81679 0.4105 0.0
C547 C 0.3484 0.76376 0.40088 0.0
C548 C 0.33192 0.75223 0.40065 0.0
C549 C 0.36674 0.75515 0.40218 0.0
C550 C 0.38456 0.76683 0.40342 0.0
C551 C 0.3869 0.78097 0.42403 0.0
C552 C 0.40353 0.79219 0.4248 0.0
C553 C 0.41797 0.78933 0.40515 0.0
C554 C 0.41584 0.77521 0.38474 0.0
C555 C 0.39923 0.76396 0.38386 0.0
H556 H 0.43083 0.79804 0.40578 0.0
H557 H 0.26897 0.69051 0.38848 0.0
H558 H 0.57458 0.1256 0.60481 0.0
H559 H 0.5403 0.1241 0.61442 0.0
H560 H 0.55167 0.09345 0.69036 0.0
H561 H 0.58628 0.09487 0.68079 0.0
H562 H 0.52221 0.07721 0.65886 0.0
H563 H 0.538 0.13824 0.69598 0.0
H564 H 0.55304 0.17024 0.69731 0.0
H565 H 0.51974 0.18746 0.62654 0.0
H566 H 0.50471 0.15546 0.6245 0.0
H567 H 0.4197 0.08915 0.68045 0.0
H568 H 0.45443 0.08994 0.68962 0.0
H569 H 0.4633 0.11999 0.61257 0.0
H570 H 0.42891 0.11919 0.60326 0.0
H571 H 0.48267 0.13644 0.65729 0.0
H572 H 0.47198 0.07349 0.61578 0.0
H573 H 0.45735 0.0413 0.61374 0.0
H574 H 0.48124 0.02792 0.69361 0.0
H575 H 0.4958 0.06016 0.69626 0.0
C576 C 0.56983 0.11858 0.62361 0.0
C577 C 0.58309 0.11041 0.64211 0.0
C578 C 0.55024 0.11781 0.62913 0.0
C579 C 0.5435 0.1089 0.65328 0.0
C580 C 0.55665 0.10049 0.6717 0.0
C581 C 0.57635 0.10135 0.66624 0.0
C582 C 0.52261 0.10812 0.65849 0.0
C583 C 0.51356 0.09015 0.65926 0.0
C584 C 0.51138 0.12503 0.65883 0.0
C585 C 0.52029 0.14439 0.66002 0.0
C586 C 0.53397 0.1488 0.68058 0.0
C587 C 0.54249 0.16695 0.68148 0.0
C588 C 0.53736 0.18087 0.662 0.0
C589 C 0.52369 0.17667 0.64162 0.0
C590 C 0.51514 0.15853 0.64061 0.0
C591 C 0.42911 0.0959 0.66552 0.0
C592 C 0.42165 0.10408 0.64112 0.0
C593 C 0.44888 0.09632 0.67076 0.0
C594 C 0.46135 0.10504 0.65176 0.0
C595 C 0.45387 0.11329 0.62754 0.0
C596 C 0.43424 0.11272 0.62219 0.0
C597 C 0.48231 0.10556 0.65651 0.0
C598 C 0.49135 0.12351 0.65767 0.0
C599 C 0.49349 0.08866 0.65801 0.0
C600 C 0.48475 0.06931 0.65639 0.0
C601 C 0.47396 0.06375 0.63302 0.0
C602 C 0.46571 0.04548 0.63173 0.0
C603 C 0.4683 0.0326 0.65358 0.0
C604 C 0.4792 0.03793 0.67673 0.0
C605 C 0.48746 0.05619 0.67814 0.0
H606 H 0.46191 0.01846 0.65254 0.0
H607 H 0.54397 0.19491 0.66273 0.0
H608 H 0.84449 0.16021 0.92857 0.0
H609 H 0.84138 0.19497 0.93538 0.0
H610 H 0.8753 0.20473 0.86195 0.0
H611 H 0.87854 0.17019 0.85515 0.0
H612 H 0.88598 0.22819 0.90413 0.0
H613 H 0.82736 0.20783 0.85929 0.0
H614 H 0.79775 0.18871 0.85472 0.0
H615 H 0.77686 0.21206 0.93149 0.0
H616 H 0.80652 0.23112 0.93671 0.0
H617 H 0.86301 0.31788 0.85036 0.0
H618 H 0.86445 0.28337 0.85814 0.0
H619 H 0.83542 0.29045 0.93645 0.0
H620 H 0.83402 0.32532 0.92889 0.0
H621 H 0.82172 0.25892 0.90125 0.0
H622 H 0.87988 0.28313 0.9412 0.0
H623 H 0.90935 0.30269 0.94233 0.0
H624 H 0.93106 0.27225 0.87145 0.0
H625 H 0.90157 0.2527 0.86961 0.0
C626 C 0.85138 0.1698 0.91402 0.0
C627 C 0.86171 0.16253 0.89128 0.0
C628 C 0.84954 0.18961 0.91789 0.0
C629 C 0.85801 0.20239 0.89906 0.0
C630 C 0.86869 0.19511 0.87675 0.0
C631 C 0.87047 0.17538 0.87283 0.0
C632 C 0.85548 0.22337 0.90191 0.0
C633 C 0.87194 0.23491 0.9035 0.0
C634 C 0.83711 0.23208 0.90172 0.0
C635 C 0.81926 0.22069 0.89858 0.0
C636 C 0.81653 0.20875 0.87532 0.0
C637 C 0.79972 0.19796 0.87259 0.0
C638 C 0.78545 0.19912 0.89285 0.0
C639 C 0.78794 0.21114 0.91585 0.0
C640 C 0.80475 0.22194 0.91871 0.0
C641 C 0.85682 0.31214 0.86919 0.0
C642 C 0.84848 0.32429 0.8891 0.0
C643 C 0.8577 0.29243 0.87362 0.0
C644 C 0.85022 0.28447 0.89798 0.0
C645 C 0.84132 0.29642 0.91757 0.0
C646 C 0.84057 0.31627 0.91325 0.0
C647 C 0.85224 0.26365 0.90279 0.0
C648 C 0.83572 0.25216 0.90259 0.0
C649 C 0.87056 0.25495 0.90396 0.0
C650 C 0.88844 0.26652 0.90519 0.0
C651 C 0.89087 0.28069 0.92574 0.0
C652 C 0.90759 0.29177 0.92652 0.0
C653 C 0.92206 0.28873 0.90695 0.0
C654 C 0.91984 0.27458 0.88659 0.0
C655 C 0.90314 0.26348 0.8857 0.0
H656 H 0.93499 0.29733 0.90758 0.0
H657 H 0.77244 0.19075 0.8907 0.0
H658 H 0.65496 0.66668 0.43416 0.0
H659 H 0.6581 0.70126 0.44283 0.0
H660 H 0.659 0.71157 0.35461 0.0
H661 H 0.65577 0.67719 0.34582 0.0
H662 H 0.68617 0.73328 0.38407 0.0
H663 H 0.61839 0.71645 0.38828 0.0
H664 H 0.59066 0.69869 0.40686 0.0
H665 H 0.6021 0.72124 0.48826 0.0
H666 H 0.63009 0.73893 0.47019 0.0
H667 H 0.64992 0.82316 0.34974 0.0
H668 H 0.65646 0.78924 0.35743 0.0
H669 H 0.65174 0.7978 0.44586 0.0
H670 H 0.64513 0.83202 0.43826 0.0
H671 H 0.63078 0.76677 0.42706 0.0
H672 H 0.69476 0.78891 0.42029 0.0
H673 H 0.72207 0.80701 0.40118 0.0
H674 H 0.71819 0.77492 0.32518 0.0
H675 H 0.69065 0.75681 0.34365 0.0
C676 C 0.65603 0.67633 0.41666 0.0
C677 C 0.655 0.66932 0.38932 0.0
C678 C 0.6578 0.69603 0.42164 0.0
C679 C 0.65869 0.70891 0.39935 0.0
C680 C 0.65839 0.70183 0.37208 0.0
C681 C 0.65643 0.68222 0.3671 0.0
C682 C 0.65878 0.72988 0.40402 0.0
C683 C 0.6741 0.74065 0.39348 0.0
C684 C 0.6433 0.73937 0.41715 0.0
C685 C 0.62647 0.72879 0.42797 0.0
C686 C 0.61509 0.71747 0.41019 0.0
C687 C 0.59931 0.70745 0.42061 0.0
C688 C 0.59466 0.70878 0.44874 0.0
C689 C 0.60575 0.72018 0.46649 0.0
C690 C 0.62157 0.73021 0.45617 0.0
C691 C 0.65038 0.81788 0.37085 0.0
C692 C 0.64701 0.83021 0.39341 0.0
C693 C 0.65425 0.79852 0.37523 0.0
C694 C 0.65482 0.79108 0.40223 0.0
C695 C 0.65147 0.80333 0.42488 0.0
C696 C 0.64773 0.82282 0.42051 0.0
C697 C 0.65788 0.77026 0.40623 0.0
C698 C 0.64314 0.75947 0.41835 0.0
C699 C 0.67393 0.76076 0.39459 0.0
C700 C 0.69055 0.77156 0.38334 0.0
C701 C 0.69963 0.7858 0.39942 0.0
C702 C 0.71517 0.79605 0.38871 0.0
C703 C 0.72184 0.79213 0.36197 0.0
C704 C 0.71301 0.77793 0.3459 0.0
C705 C 0.69745 0.76765 0.3565 0.0
H706 H 0.73388 0.80008 0.35372 0.0
H707 H 0.58243 0.70102 0.45677 0.0
H708 H 0.84724 0.67161 0.15353 0.0
H709 H 0.84036 0.70551 0.14627 0.0
H710 H 0.84359 0.6972 0.05764 0.0
H711 H 0.85062 0.66303 0.06481 0.0
H712 H 0.86481 0.72794 0.07555 0.0
H713 H 0.80075 0.7059 0.08617 0.0
H714 H 0.77411 0.68797 0.1075 0.0
H715 H 0.78051 0.72072 0.18255 0.0
H716 H 0.80737 0.73866 0.16185 0.0
H717 H 0.84244 0.82792 0.06793 0.0
H718 H 0.8388 0.79334 0.05985 0.0
H719 H 0.83644 0.78391 0.14824 0.0
H720 H 0.83991 0.81829 0.15642 0.0
H721 H 0.8104 0.7618 0.12047 0.0
H722 H 0.87799 0.77831 0.11366 0.0
H723 H 0.90562 0.79578 0.09419 0.0
H724 H 0.89297 0.77298 0.0133 0.0
H725 H 0.8651 0.75556 0.03228 0.0
C726 C 0.84635 0.67694 0.13246 0.0
C727 C 0.84949 0.6647 0.10972 0.0
C728 C 0.84228 0.69629 0.12834 0.0
C729 C 0.84121 0.7038 0.1014 0.0
C730 C 0.84424 0.69162 0.07858 0.0
C731 C 0.84823 0.67215 0.0827 0.0
C732 C 0.83815 0.72464 0.09758 0.0
C733 C 0.85264 0.73533 0.08469 0.0
C734 C 0.82242 0.73424 0.10993 0.0
C735 C 0.80616 0.72358 0.12246 0.0
C736 C 0.79656 0.7092 0.10729 0.0
C737 C 0.78141 0.69905 0.11926 0.0
C738 C 0.77564 0.70319 0.14637 0.0
C739 C 0.78499 0.71753 0.16155 0.0
C740 C 0.80016 0.72772 0.14968 0.0
C741 C 0.84093 0.81846 0.08559 0.0
C742 C 0.84161 0.82574 0.11281 0.0
C743 C 0.83888 0.79875 0.08095 0.0
C744 C 0.83751 0.78608 0.10347 0.0
C745 C 0.83744 0.79345 0.13058 0.0
C746 C 0.83953 0.81308 0.13522 0.0
C747 C 0.83735 0.76505 0.09923 0.0
C748 C 0.82226 0.75436 0.11064 0.0
C749 C 0.85258 0.75543 0.08568 0.0
C750 C 0.86934 0.76585 0.0743 0.0
C751 C 0.88101 0.77716 0.09168 0.0
C752 C 0.89673 0.78702 0.08075 0.0
C753 C 0.90101 0.78554 0.0525 0.0
C754 C 0.88961 0.77415 0.03516 0.0
C755 C 0.87386 0.76427 0.04599 0.0
H756 H 0.91319 0.79318 0.04408 0.0
H757 H 0.76391 0.69531 0.15561 0.0
H758 H 0.64642 0.33569 0.56487 0.0
H759 H 0.65272 0.30143 0.55684 0.0
H760 H 0.64532 0.29049 0.64425 0.0
H761 H 0.63922 0.32444 0.6524 0.0
H762 H 0.6764 0.27194 0.62373 0.0
H763 H 0.60939 0.28201 0.59768 0.0
H764 H 0.58352 0.29677 0.56997 0.0
H765 H 0.60907 0.27516 0.49513 0.0
H766 H 0.63523 0.26046 0.52241 0.0
H767 H 0.6447 0.17976 0.65114 0.0
H768 H 0.6484 0.21405 0.64334 0.0
H769 H 0.65799 0.20366 0.55616 0.0
H770 H 0.65419 0.16901 0.56386 0.0
H771 H 0.63195 0.233 0.56599 0.0
H772 H 0.69517 0.21699 0.59428 0.0
H773 H 0.72017 0.20163 0.62289 0.0
H774 H 0.70178 0.23408 0.69389 0.0
H775 H 0.67647 0.24943 0.66582 0.0
C776 C 0.6462 0.32593 0.58232 0.0
C777 C 0.64226 0.33268 0.60924 0.0
C778 C 0.64978 0.30641 0.57771 0.0
C779 C 0.64943 0.29344 0.59995 0.0
C780 C 0.64575 0.30027 0.62682 0.0
C781 C 0.64216 0.31967 0.63142 0.0
C782 C 0.65231 0.2726 0.59568 0.0
C783 C 0.66672 0.2634 0.61108 0.0
C784 C 0.64011 0.26157 0.57836 0.0
C785 C 0.62438 0.27037 0.56202 0.0
C786 C 0.60957 0.28055 0.57529 0.0
C787 C 0.59484 0.28887 0.55968 0.0
C788 C 0.59469 0.28697 0.5308 0.0
C789 C 0.60923 0.27667 0.51749 0.0
C790 C 0.62401 0.26834 0.53301 0.0
C791 C 0.64768 0.18471 0.63031 0.0
C792 C 0.6492 0.17172 0.6081 0.0
C793 C 0.6499 0.20432 0.62591 0.0
C794 C 0.65374 0.21135 0.59925 0.0
C795 C 0.65515 0.19846 0.57692 0.0
C796 C 0.65302 0.17873 0.58135 0.0
C797 C 0.65548 0.2323 0.59506 0.0
C798 C 0.642 0.24153 0.57803 0.0
C799 C 0.66852 0.24338 0.61094 0.0
C800 C 0.68386 0.23432 0.62792 0.0
C801 C 0.69638 0.22078 0.61603 0.0
C802 C 0.71062 0.21207 0.63215 0.0
C803 C 0.71255 0.21686 0.66019 0.0
C804 C 0.70028 0.23039 0.67216 0.0
C805 C 0.686 0.23913 0.65613 0.0
H806 H 0.72358 0.2101 0.67265 0.0
H807 H 0.58327 0.29342 0.51874 0.0
H808 H 0.06644 0.3851 0.90395 0.0
H809 H 0.0318 0.38442 0.89689 0.0
H810 H 0.0391 0.40499 0.81324 0.0
H811 H 0.07408 0.40569 0.82014 0.0
H812 H 0.00845 0.42309 0.84428 0.0
H813 H 0.03024 0.36044 0.81874 0.0
H814 H 0.04876 0.33056 0.82448 0.0
H815 H 0.01817 0.3182 0.89957 0.0
H816 H -0.00035 0.34818 0.89452 0.0
H817 H 0.90873 0.39974 0.82161 0.0
H818 H 0.9436 0.40174 0.81484 0.0
H819 H 0.95268 0.37729 0.89598 0.0
H820 H 0.91809 0.3752 0.90282 0.0
H821 H 0.97539 0.36064 0.85681 0.0
H822 H 0.95738 0.42439 0.88663 0.0
H823 H 0.93934 0.45476 0.88367 0.0
H824 H 0.96297 0.46528 0.80291 0.0
H825 H 0.98096 0.4348 0.80525 0.0
C826 C 0.06072 0.3896 0.88408 0.0
C827 C 0.07295 0.39534 0.86252 0.0
C828 C 0.04093 0.38915 0.88007 0.0
C829 C 0.03299 0.39443 0.85446 0.0
C830 C 0.04505 0.4008 0.83312 0.0
C831 C 0.06496 0.40115 0.83707 0.0
C832 C 0.01207 0.39269 0.8502 0.0
C833 C 0.00118 0.4094 0.84633 0.0
C834 C 0.00271 0.37483 0.85336 0.0
C835 C 0.01362 0.35663 0.85632 0.0
C836 C 0.02754 0.35142 0.83658 0.0
C837 C 0.03803 0.33446 0.8397 0.0
C838 C 0.03466 0.32251 0.86239 0.0
C839 C 0.02076 0.32748 0.882 0.0
C840 C 0.01024 0.34444 0.87899 0.0
C841 C 0.91821 0.39478 0.83794 0.0
C842 C 0.91074 0.38735 0.86275 0.0
C843 C 0.93807 0.39597 0.83407 0.0
C844 C 0.95067 0.3897 0.85495 0.0
C845 C 0.94319 0.38213 0.87958 0.0
C846 C 0.92342 0.38102 0.88349 0.0
C847 C 0.97171 0.39111 0.85162 0.0
C848 C 0.98263 0.37429 0.85409 0.0
C849 C 0.98106 0.40887 0.84737 0.0
C850 C 0.97031 0.42721 0.84596 0.0
C851 C 0.95859 0.4331 0.86813 0.0
C852 C 0.9484 0.45035 0.86659 0.0
C853 C 0.94995 0.46192 0.84307 0.0
C854 C 0.96175 0.45628 0.82108 0.0
C855 C 0.97195 0.43903 0.82251 0.0
H856 H 0.94205 0.47527 0.84192 0.0
H857 H 0.04279 0.30938 0.86473 0.0
H858 H 0.57757 0.62951 0.38353 0.0
H859 H 0.5432 0.62427 0.3778 0.0
H860 H 0.55432 0.58054 0.3164 0.0
H861 H 0.58901 0.58583 0.32189 0.0
H862 H 0.52248 0.60538 0.30353 0.0
H863 H 0.54464 0.56524 0.37712 0.0
H864 H 0.5628 0.55789 0.41977 0.0
H865 H 0.52929 0.59906 0.46507 0.0
H866 H 0.51113 0.60689 0.42258 0.0
H867 H 0.42237 0.58067 0.32142 0.0
H868 H 0.4573 0.57802 0.31582 0.0
H869 H 0.4655 0.6164 0.38532 0.0
H870 H 0.43092 0.61857 0.39149 0.0
H871 H 0.48849 0.58694 0.38982 0.0
H872 H 0.47002 0.63042 0.31504 0.0
H873 H 0.45254 0.63896 0.27222 0.0
H874 H 0.47916 0.59193 0.22927 0.0
H875 H 0.49662 0.583 0.27195 0.0
C876 C 0.57274 0.61892 0.36858 0.0
C877 C 0.58594 0.60793 0.35336 0.0
C878 C 0.55311 0.61594 0.36535 0.0
C879 C 0.5463 0.60182 0.34701 0.0
C880 C 0.55937 0.59145 0.33072 0.0
C881 C 0.57912 0.59446 0.33392 0.0
C882 C 0.52558 0.59738 0.34642 0.0
C883 C 0.51502 0.60097 0.32219 0.0
C884 C 0.51595 0.59167 0.37083 0.0
C885 C 0.52657 0.5867 0.39661 0.0
C886 C 0.54121 0.57279 0.39614 0.0
C887 C 0.5515 0.56854 0.42029 0.0
C888 C 0.54721 0.57801 0.44511 0.0
C889 C 0.53259 0.59172 0.44583 0.0
C890 C 0.52227 0.59605 0.42173 0.0
C891 C 0.43169 0.58853 0.33543 0.0
C892 C 0.42398 0.59979 0.35693 0.0
C893 C 0.45161 0.58705 0.33216 0.0
C894 C 0.46402 0.59709 0.35007 0.0
C895 C 0.45623 0.60843 0.37136 0.0
C896 C 0.43645 0.6097 0.37483 0.0
C897 C 0.48517 0.59587 0.34729 0.0
C898 C 0.49589 0.59102 0.37095 0.0
C899 C 0.49486 0.60046 0.32236 0.0
C900 C 0.48444 0.60592 0.29674 0.0
C901 C 0.47203 0.62183 0.29651 0.0
C902 C 0.46215 0.62675 0.27226 0.0
C903 C 0.46469 0.61596 0.24806 0.0
C904 C 0.47717 0.60025 0.24804 0.0
C905 C 0.48707 0.59526 0.27224 0.0
H906 H 0.45703 0.61978 0.22931 0.0
H907 H 0.55522 0.57471 0.46377 0.0
H908 H 0.56545 0.39226 0.59604 0.0
H909 H 0.53082 0.39449 0.60296 0.0
H910 H 0.53894 0.39143 0.69159 0.0
H911 H 0.57388 0.38949 0.68485 0.0
H912 H 0.50869 0.36628 0.66667 0.0
H913 H 0.52878 0.43199 0.67137 0.0
H914 H 0.54652 0.46059 0.65582 0.0
H915 H 0.51577 0.45975 0.57849 0.0
H916 H 0.49805 0.43095 0.59341 0.0
H917 H 0.40853 0.38797 0.68065 0.0
H918 H 0.4433 0.39013 0.68847 0.0
H919 H 0.45186 0.40087 0.60124 0.0
H920 H 0.41732 0.39867 0.5933 0.0
H921 H 0.47401 0.42434 0.63436 0.0
H922 H 0.45788 0.35755 0.62487 0.0
H923 H 0.44052 0.32789 0.63659 0.0
H924 H 0.46427 0.32939 0.71889 0.0
H925 H 0.48143 0.35939 0.70783 0.0
C926 C 0.55989 0.392 0.61702 0.0
C927 C 0.57232 0.39075 0.63993 0.0
C928 C 0.54014 0.39333 0.62092 0.0
C929 C 0.53244 0.39325 0.64777 0.0
C930 C 0.54472 0.39155 0.67073 0.0
C931 C 0.56459 0.3905 0.66685 0.0
C932 C 0.5115 0.39513 0.65137 0.0
C933 C 0.50107 0.37912 0.66034 0.0
C934 C 0.5017 0.41176 0.64242 0.0
C935 C 0.51217 0.42922 0.63346 0.0
C936 C 0.5259 0.43781 0.65097 0.0
C937 C 0.53593 0.45408 0.64228 0.0
C938 C 0.53229 0.46197 0.61617 0.0
C939 C 0.51857 0.45362 0.59872 0.0
C940 C 0.50851 0.43734 0.6073 0.0
C941 C 0.41785 0.39097 0.66324 0.0
C942 C 0.41029 0.39304 0.63635 0.0
C943 C 0.43765 0.39216 0.66772 0.0
C944 C 0.45009 0.39556 0.64539 0.0
C945 C 0.44247 0.39829 0.61874 0.0
C946 C 0.42276 0.39693 0.61422 0.0
C947 C 0.47114 0.39538 0.64923 0.0
C948 C 0.4816 0.41168 0.64148 0.0
C949 C 0.48095 0.37892 0.65895 0.0
C950 C 0.47071 0.36086 0.66566 0.0
C951 C 0.45924 0.35168 0.64557 0.0
C952 C 0.44947 0.33477 0.65207 0.0
C953 C 0.45126 0.32676 0.67849 0.0
C954 C 0.46285 0.33564 0.69845 0.0
C955 C 0.47259 0.35261 0.69209 0.0
H956 H 0.44371 0.31364 0.68346 0.0
H957 H 0.54008 0.47456 0.60947 0.0
H958 H 0.07565 0.63021 0.10181 0.0
H959 H 0.04141 0.63058 0.11197 0.0
H960 H 0.05224 0.60391 0.19118 0.0
H961 H 0.08678 0.60339 0.18101 0.0
H962 H 0.02257 0.58678 0.16252 0.0
H963 H 0.03962 0.64986 0.1905 0.0
H964 H 0.05512 0.68154 0.18681 0.0
H965 H 0.02139 0.69419 0.11445 0.0
H966 H 0.00589 0.66247 0.11743 0.0
H967 H 0.92096 0.59881 0.18312 0.0
H968 H 0.95561 0.60106 0.19197 0.0
H969 H 0.96332 0.62866 0.11273 0.0
H970 H 0.92892 0.62662 0.10391 0.0
H971 H 0.98391 0.64625 0.15342 0.0
H972 H 0.97202 0.58113 0.12077 0.0
H973 H 0.95696 0.54915 0.12318 0.0
H974 H 0.98131 0.54049 0.20414 0.0
H975 H 0.99632 0.57255 0.20233 0.0
C976 C 0.07079 0.62449 0.12146 0.0
C977 C 0.08387 0.6168 0.14065 0.0
C978 C 0.05123 0.62482 0.12731 0.0
C979 C 0.04434 0.61753 0.1525 0.0
C980 C 0.05732 0.60972 0.1717 0.0
C981 C 0.07699 0.60945 0.16589 0.0
C982 C 0.02344 0.6175 0.15787 0.0
C983 C 0.01412 0.59983 0.16126 0.0
C984 C 0.01246 0.63453 0.15594 0.0
C985 C 0.02164 0.65372 0.15414 0.0
C986 C 0.03559 0.65934 0.17369 0.0
C987 C 0.04437 0.67732 0.17174 0.0
C988 C 0.03926 0.68986 0.1504 0.0
C989 C 0.02533 0.68446 0.13098 0.0
C990 C 0.01652 0.66649 0.13282 0.0
C991 C 0.93008 0.60544 0.16769 0.0
C992 C 0.92229 0.61246 0.14277 0.0
C993 C 0.94982 0.60668 0.17275 0.0
C994 C 0.96201 0.61494 0.15293 0.0
C995 C 0.95416 0.62229 0.12833 0.0
C996 C 0.9345 0.62103 0.12326 0.0
C997 C 0.98306 0.61548 0.15698 0.0
C998 C 0.99239 0.63327 0.15541 0.0
C999 C 0.99403 0.59857 0.16054 0.0
C1000 C 0.98507 0.57931 0.16157 0.0
C1001 C 0.97402 0.57247 0.13918 0.0
C1002 C 0.96552 0.55432 0.14042 0.0
C1003 C 0.96812 0.54283 0.16384 0.0
C1004 C 0.97927 0.54943 0.18604 0.0
C1005 C 0.98778 0.56758 0.18492 0.0
H1006 H 0.96154 0.52878 0.16476 0.0
H1007 H 0.04608 0.70377 0.14892 0.0
H1008 H 0.14621 0.58549 0.02977 0.0
H1009 H 0.14688 0.55754 0.99887 0.0
H1010 H 0.14445 0.51993 0.06973 0.0
H1011 H 0.14376 0.54778 0.10074 0.0
H1012 H 0.17138 0.5085 0.03013 0.0
H1013 H 0.10499 0.52748 0.0347 0.0
H1014 H 0.07791 0.55014 0.03117 0.0
H1015 H 0.09078 0.55958 0.94518 0.0
H1016 H 0.11812 0.53717 0.94831 0.0
H1017 H 0.14256 0.42187 0.96384 0.0
H1018 H 0.14558 0.45017 0.99369 0.0
H1019 H 0.14218 0.48681 0.92178 0.0
H1020 H 0.13877 0.45863 0.89193 0.0
H1021 H 0.11902 0.49923 0.9614 0.0
H1022 H 0.18475 0.4796 0.95592 0.0
H1023 H 0.21204 0.45718 0.95914 0.0
H1024 H 0.20101 0.44922 0.04598 0.0
H1025 H 0.17347 0.4714 0.04319 0.0
C1026 C 0.14589 0.57126 0.03874 0.0
C1027 C 0.14483 0.56876 0.0676 0.0
C1028 C 0.14624 0.55535 0.0211 0.0
C1029 C 0.14558 0.53674 0.03209 0.0
C1030 C 0.14498 0.53421 0.06092 0.0
C1031 C 0.14449 0.55011 0.07855 0.0
C1032 C 0.14504 0.51988 0.0135 0.0
C1033 C 0.15986 0.50632 0.01527 0.0
C1034 C 0.1302 0.51738 0.99377 0.0
C1035 C 0.11373 0.53081 0.99182 0.0
C1036 C 0.10215 0.53452 0.0151 0.0
C1037 C 0.08673 0.54729 0.01316 0.0
C1038 C 0.08266 0.55634 0.98798 0.0
C1039 C 0.09397 0.55259 0.96468 0.0
C1040 C 0.10942 0.53984 0.96652 0.0
C1041 C 0.14258 0.43597 0.95441 0.0
C1042 C 0.14041 0.43809 0.92561 0.0
C1043 C 0.14439 0.4521 0.97145 0.0
C1044 C 0.14428 0.47058 0.9599 0.0
C1045 C 0.1423 0.47268 0.9311 0.0
C1046 C 0.14039 0.45658 0.91408 0.0
C1047 C 0.14541 0.48776 0.97791 0.0
C1048 C 0.13064 0.5014 0.97611 0.0
C1049 C 0.16035 0.49035 0.99752 0.0
C1050 C 0.17692 0.47702 -0.00072 0.0
C1051 C 0.18804 0.47295 0.97565 0.0
C1052 C 0.20358 0.46031 0.97741 0.0
C1053 C 0.20823 0.45175 0.00273 0.0
C1054 C 0.19738 0.45585 0.02637 0.0
C1055 C 0.18181 0.46846 0.02472 0.0
H1056 H 0.22027 0.44197 0.00406 0.0
H1057 H 0.07072 0.56622 0.98652 0.0
H1058 H 0.70068 0.89809 0.35545 0.0
H1059 H 0.72753 0.90159 0.32343 0.0
H1060 H 0.68799 0.90384 0.25443 0.0
H1061 H 0.661 0.89998 0.28641 0.0
H1062 H 0.71633 0.87895 0.24498 0.0
H1063 H 0.71205 0.94403 0.27614 0.0
H1064 H 0.71018 0.97017 0.3106 0.0
H1065 H 0.76525 0.95409 0.3433 0.0
H1066 H 0.76734 0.92766 0.30928 0.0
H1067 H 0.78742 0.89953 0.14601 0.0
H1068 H 0.75954 0.90393 0.17601 0.0
H1069 H 0.79588 0.8992 0.2483 0.0
H1070 H 0.82395 0.89505 0.21834 0.0
H1071 H 0.76837 0.92717 0.25442 0.0
H1072 H 0.7715 0.86093 0.22616 0.0
H1073 H 0.77355 0.83436 0.1924 0.0
H1074 H 0.72054 0.85242 0.15505 0.0
H1075 H 0.71832 0.87929 0.18837 0.0
C1076 C 0.69769 0.89951 0.33348 0.0
C1077 C 0.67877 0.89872 0.32338 0.0
C1078 C 0.71304 0.90162 0.31523 0.0
C1079 C 0.70973 0.90318 0.28659 0.0
C1080 C 0.69082 0.90271 0.27649 0.0
C1081 C 0.67545 0.90053 0.29475 0.0
C1082 C 0.7261 0.90403 0.26712 0.0
C1083 C 0.72751 0.88974 0.24669 0.0
C1084 C 0.74093 0.91779 0.26991 0.0
C1085 C 0.73978 0.93376 0.29028 0.0
C1086 C 0.72371 0.94597 0.29081 0.0
C1087 C 0.72261 0.96086 0.31024 0.0
C1088 C 0.73757 0.96377 0.32916 0.0
C1089 C 0.75367 0.95182 0.32864 0.0
C1090 C 0.75483 0.9369 0.30926 0.0
C1091 C 0.78951 0.8996 0.1683 0.0
C1092 C 0.8078 0.89675 0.17989 0.0
C1093 C 0.77358 0.9021 0.18538 0.0
C1094 C 0.77565 0.90161 0.21433 0.0
C1095 C 0.79401 0.89958 0.22598 0.0
C1096 C 0.81 0.89714 0.20888 0.0
C1097 C 0.75853 0.9021 0.23239 0.0
C1098 C 0.75704 0.91656 0.25257 0.0
C1099 C 0.74362 0.88846 0.22948 0.0
C1100 C 0.74485 0.87223 0.20957 0.0
C1101 C 0.76036 0.85932 0.21062 0.0
C1102 C 0.76154 0.8442 0.19158 0.0
C1103 C 0.74721 0.84173 0.17154 0.0
C1104 C 0.73165 0.85436 0.17056 0.0
C1105 C 0.73041 0.86954 0.18952 0.0
H1106 H 0.74815 0.83002 0.15682 0.0
H1107 H 0.73669 0.9753 0.3442 0.0
H1108 H 0.34081 0.4127 0.52927 0.0
H1109 H 0.34024 0.44004 0.49748 0.0
H1110 H 0.34482 0.47894 0.567 0.0
H1111 H 0.34519 0.45174 0.59887 0.0
H1112 H 0.31973 0.49206 0.52759 0.0
H1113 H 0.38412 0.46687 0.5318 0.0
H1114 H 0.40881 0.44162 0.52845 0.0
H1115 H 0.39414 0.43224 0.44288 0.0
H1116 H 0.36915 0.45726 0.44584 0.0
H1117 H 0.35639 0.57494 0.46051 0.0
H1118 H 0.35132 0.54721 0.49067 0.0
H1119 H 0.35024 0.50996 0.41898 0.0
H1120 H 0.35571 0.53752 0.38883 0.0
H1121 H 0.3723 0.49544 0.45845 0.0
H1122 H 0.30886 0.52206 0.45364 0.0
H1123 H 0.28437 0.54748 0.45728 0.0
H1124 H 0.29727 0.55446 0.5439 0.0
H1125 H 0.32204 0.52925 0.54069 0.0
C1126 C 0.34146 0.42709 0.53776 0.0
C1127 C 0.34322 0.43012 0.56648 0.0
C1128 C 0.34118 0.44266 0.51961 0.0
C1129 C 0.34275 0.46146 0.52993 0.0
C1130 C 0.34363 0.46453 0.55866 0.0
C1131 C 0.34391 0.44899 0.57681 0.0
C1132 C 0.34461 0.47787 0.5108 0.0
C1133 C 0.33129 0.49292 0.51259 0.0
C1134 C 0.35953 0.47875 0.49099 0.0
C1135 C 0.37463 0.46379 0.48913 0.0
C1136 C 0.38606 0.45932 0.51233 0.0
C1137 C 0.40012 0.44506 0.51049 0.0
C1138 C 0.40301 0.43529 0.48549 0.0
C1139 C 0.39187 0.4398 0.46224 0.0
C1140 C 0.37776 0.45402 0.46399 0.0
C1141 C 0.35502 0.56084 0.45122 0.0
C1142 C 0.35644 0.55835 0.42237 0.0
C1143 C 0.35203 0.54504 0.46843 0.0
C1144 C 0.35017 0.52657 0.45701 0.0
C1145 C 0.3516 0.52409 0.42819 0.0
C1146 C 0.35471 0.53984 0.41101 0.0
C1147 C 0.34739 0.5097 0.47512 0.0
C1148 C 0.36061 0.49457 0.47324 0.0
C1149 C 0.33239 0.50878 0.49484 0.0
C1150 C 0.31743 0.52388 0.49686 0.0
C1151 C 0.30658 0.52911 0.47341 0.0
C1152 C 0.29262 0.54347 0.47541 0.0
C1153 C 0.28929 0.55261 0.50079 0.0
C1154 C 0.29988 0.54738 0.52424 0.0
C1155 C 0.31386 0.53305 0.52236 0.0
H1156 H 0.27849 0.56372 0.50229 0.0
H1157 H 0.4139 0.42426 0.4841 0.0
H1158 H 0.70914 0.1066 0.64431 0.0
H1159 H 0.7366 0.10392 0.67573 0.0
H1160 H 0.69828 0.10302 0.74593 0.0
H1161 H 0.6707 0.10585 0.7146 0.0
H1162 H 0.72815 0.1279 0.75329 0.0
H1163 H 0.71948 0.06238 0.72498 0.0
H1164 H 0.7157 0.03587 0.69142 0.0
H1165 H 0.77113 0.04834 0.65713 0.0
H1166 H 0.77513 0.07512 0.69024 0.0
H1167 H 0.79624 0.10138 0.85463 0.0
H1168 H 0.76848 0.1013 0.8236 0.0
H1169 H 0.80618 0.09967 0.7527 0.0
H1170 H 0.83408 0.09931 0.78373 0.0
H1171 H 0.77641 0.07576 0.74586 0.0
H1172 H 0.78506 0.14145 0.77332 0.0
H1173 H 0.78895 0.16828 0.80633 0.0
H1174 H 0.73376 0.15597 0.84151 0.0
H1175 H 0.72965 0.12888 0.80897 0.0
C1176 C 0.70656 0.10574 0.66643 0.0
C1177 C 0.68781 0.1064 0.67705 0.0
C1178 C 0.72224 0.10414 0.68433 0.0
C1179 C 0.71942 0.10311 0.7131 0.0
C1180 C 0.70071 0.10377 0.72376 0.0
C1181 C 0.68501 0.10533 0.70587 0.0
C1182 C 0.73605 0.10183 0.7321 0.0
C1183 C 0.73856 0.11635 0.75198 0.0
C1184 C 0.74985 0.08703 0.72978 0.0
C1185 C 0.74752 0.07087 0.70993 0.0
C1186 C 0.7308 0.05957 0.71014 0.0
C1187 C 0.72863 0.04448 0.69122 0.0
C1188 C 0.74315 0.04046 0.67211 0.0
C1189 C 0.75989 0.05149 0.67192 0.0
C1190 C 0.76212 0.06661 0.69078 0.0
C1191 C 0.79862 0.10093 0.83243 0.0
C1192 C 0.81729 0.10047 0.82154 0.0
C1193 C 0.78275 0.10096 0.81474 0.0
C1194 C 0.7853 0.1008 0.78587 0.0
C1195 C 0.80393 0.09986 0.77494 0.0
C1196 C 0.81983 0.09971 0.79265 0.0
C1197 C 0.7685 0.10182 0.7671 0.0
C1198 C 0.76598 0.08728 0.74723 0.0
C1199 C 0.75472 0.11666 0.76934 0.0
C1200 C 0.75713 0.13302 0.78887 0.0
C1201 C 0.77381 0.14437 0.78823 0.0
C1202 C 0.77605 0.15964 0.80684 0.0
C1203 C 0.76163 0.1638 0.82604 0.0
C1204 C 0.74493 0.15272 0.82664 0.0
C1205 C 0.74263 0.13741 0.80811 0.0
H1206 H 0.76336 0.17564 0.8404 0.0
H1207 H 0.74144 0.02876 0.65748 0.0
H1208 H 0.8441 0.45033 0.89867 0.0
H1209 H 0.84606 0.47808 0.92952 0.0
H1210 H 0.85447 0.44053 -0.00044 0.0
H1211 H 0.85202 0.41257 0.96877 0.0
H1212 H 0.83109 0.46957 0.0127 0.0
H1213 H 0.89243 0.46303 0.96907 0.0
H1214 H 0.91483 0.45959 0.92981 0.0
H1215 H 0.8964 0.51393 0.89751 0.0
H1216 H 0.87368 0.51757 0.93637 0.0
H1217 H 0.86943 0.54007 0.10358 0.0
H1218 H 0.86643 0.51193 0.0735 0.0
H1219 H 0.85292 0.54855 0.00412 0.0
H1220 H 0.85593 0.57684 0.03412 0.0
H1221 H 0.87927 0.51982 0.99124 0.0
H1222 H 0.81769 0.52582 0.03562 0.0
H1223 H 0.79589 0.52894 0.07562 0.0
H1224 H 0.81589 0.47504 0.10756 0.0
H1225 H 0.83803 0.47174 0.06793 0.0
C1226 C 0.8462 0.44797 0.92068 0.0
C1227 C 0.84806 0.42933 0.93135 0.0
C1228 C 0.84742 0.46384 0.93825 0.0
C1229 C 0.85083 0.46136 0.96672 0.0
C1230 C 0.85195 0.44273 0.97761 0.0
C1231 C 0.85056 0.4268 0.96003 0.0
C1232 C 0.85364 0.47826 0.98493 0.0
C1233 C 0.8418 0.48042 0.00823 0.0
C1234 C 0.86743 0.49256 0.97879 0.0
C1235 C 0.88122 0.49049 0.95551 0.0
C1236 C 0.89305 0.47419 0.95349 0.0
C1237 C 0.90582 0.47221 0.93132 0.0
C1238 C 0.907 0.48651 0.91114 0.0
C1239 C 0.89545 0.50285 0.91314 0.0
C1240 C 0.88264 0.50489 0.93525 0.0
C1241 C 0.8659 0.54214 0.08189 0.0
C1242 C 0.86283 0.56062 0.07118 0.0
C1243 C 0.86413 0.52606 0.06479 0.0
C1244 C 0.85926 0.5282 0.03672 0.0
C1245 C 0.85665 0.54665 0.02578 0.0
C1246 C 0.85833 0.56276 0.04292 0.0
C1247 C 0.85667 0.51112 0.01886 0.0
C1248 C 0.86858 0.50894 0.99567 0.0
C1249 C 0.84306 0.49673 0.02521 0.0
C1250 C 0.82965 0.49862 0.04894 0.0
C1251 C 0.81755 0.5147 0.05128 0.0
C1252 C 0.80511 0.51649 0.07387 0.0
C1253 C 0.80454 0.50222 0.09415 0.0
C1254 C 0.81637 0.4861 0.09185 0.0
C1255 C 0.82885 0.48425 0.06931 0.0
H1256 H 0.79491 0.50363 0.11163 0.0
H1257 H 0.91689 0.48496 0.89399 0.0
H1258 H 0.16927 0.10625 0.78097 0.0
H1259 H 0.19724 0.1036 0.75056 0.0
H1260 H 0.23476 0.10766 0.82174 0.0
H1261 H 0.20691 0.11078 0.85212 0.0
H1262 H 0.24733 0.12971 0.78118 0.0
H1263 H 0.22592 0.06447 0.78908 0.0
H1264 H 0.20256 0.03794 0.78665 0.0
H1265 H 0.19446 0.04814 0.69956 0.0
H1266 H 0.21759 0.07491 0.70155 0.0
H1267 H 0.33294 0.09988 0.71487 0.0
H1268 H 0.30498 0.10002 0.74556 0.0
H1269 H 0.26737 0.10034 0.6743 0.0
H1270 H 0.29521 0.10008 0.64352 0.0
H1271 H 0.25504 0.07564 0.71492 0.0
H1272 H 0.27608 0.14116 0.70744 0.0
H1273 H 0.29957 0.16758 0.70989 0.0
H1274 H 0.30844 0.15656 0.79661 0.0
H1275 H 0.2852 0.12988 0.79458 0.0
C1276 C 0.18349 0.10658 0.79009 0.0
C1277 C 0.18594 0.10869 0.81888 0.0
C1278 C 0.19944 0.10497 0.77274 0.0
C1279 C 0.21807 0.10518 0.78395 0.0
C1280 C 0.22051 0.10744 0.81268 0.0
C1281 C 0.2046 0.10919 0.83 0.0
C1282 C 0.23506 0.10337 0.76575 0.0
C1283 C 0.24915 0.11774 0.76699 0.0
C1284 C 0.2372 0.08796 0.7468 0.0
C1285 C 0.22335 0.07181 0.74553 0.0
C1286 C 0.21905 0.06115 0.76945 0.0
C1287 C 0.20587 0.04605 0.76815 0.0
C1288 C 0.19699 0.04139 0.74298 0.0
C1289 C 0.20133 0.05178 0.71905 0.0
C1290 C 0.21448 0.06691 0.72025 0.0
C1291 C 0.31871 0.09982 0.70577 0.0
C1292 C 0.31622 0.10008 0.67685 0.0
C1293 C 0.30278 0.09997 0.7233 0.0
C1294 C 0.28415 0.10041 0.71214 0.0
C1295 C 0.28164 0.10003 0.68327 0.0
C1296 C 0.29755 0.09994 0.66575 0.0
C1297 C 0.26727 0.10192 0.73052 0.0
C1298 C 0.25322 0.08754 0.72923 0.0
C1299 C 0.26516 0.11729 0.74948 0.0
C1300 C 0.27906 0.1334 0.75078 0.0
C1301 C 0.28316 0.14427 0.72698 0.0
C1302 C 0.29641 0.15931 0.7283 0.0
C1303 C 0.30553 0.16371 0.75338 0.0
C1304 C 0.30139 0.15312 0.7772 0.0
C1305 C 0.28817 0.13804 0.77597 0.0
H1306 H 0.31578 0.17536 0.75436 0.0
H1307 H 0.18679 0.02969 0.74201 0.0
H1308 H 0.65631 0.54641 0.40277 0.0
H1309 H 0.65432 0.5197 0.43527 0.0
H1310 H 0.63214 0.55785 0.49821 0.0
H1311 H 0.63463 0.58484 0.46589 0.0
H1312 H 0.65734 0.53329 0.52003 0.0
H1313 H 0.60204 0.52847 0.46152 0.0
H1314 H 0.58441 0.5272 0.41712 0.0
H1315 H 0.61468 0.47586 0.39439 0.0
H1316 H 0.63269 0.47696 0.43851 0.0
H1317 H 0.62274 0.45777 0.6056 0.0
H1318 H 0.62469 0.48609 0.57595 0.0
H1319 H 0.64885 0.45155 0.51028 0.0
H1320 H 0.64661 0.42307 0.53968 0.0
H1321 H 0.62123 0.47516 0.49118 0.0
H1322 H 0.67704 0.481 0.55043 0.0
H1323 H 0.69389 0.4827 0.59544 0.0
H1324 H 0.66121 0.53265 0.6177 0.0
H1325 H 0.64399 0.53109 0.57295 0.0
C1326 C 0.65111 0.54913 0.42359 0.0
C1327 C 0.64549 0.56764 0.4318 0.0
C1328 C 0.6499 0.53385 0.44209 0.0
C1329 C 0.64271 0.53673 0.46895 0.0
C1330 C 0.63764 0.55532 0.47751 0.0
C1331 C 0.63905 0.57069 0.45906 0.0
C1332 C 0.64021 0.52022 0.48785 0.0
C1333 C 0.64921 0.52068 0.51391 0.0
C1334 C 0.62979 0.50371 0.47968 0.0
C1335 C 0.61883 0.50289 0.45324 0.0
C1336 C 0.60503 0.51698 0.44698 0.0
C1337 C 0.59495 0.51628 0.42187 0.0
C1338 C 0.59845 0.50149 0.40292 0.0
C1339 C 0.61199 0.48732 0.40908 0.0
C1340 C 0.62212 0.48796 0.43415 0.0
C1341 C 0.62849 0.45622 0.58485 0.0
C1342 C 0.63459 0.43825 0.57494 0.0
C1343 C 0.62965 0.47242 0.56799 0.0
C1344 C 0.63714 0.47095 0.54106 0.0
C1345 C 0.64307 0.45298 0.53103 0.0
C1346 C 0.64182 0.43675 0.54784 0.0
C1347 C 0.63861 0.48809 0.52317 0.0
C1348 C 0.62932 0.48778 0.49732 0.0
C1349 C 0.64862 0.50478 0.53166 0.0
C1350 C 0.65911 0.50582 0.55845 0.0
C1351 C 0.67336 0.49227 0.565 0.0
C1352 C 0.68299 0.49322 0.59046 0.0
C1353 C 0.67859 0.50775 0.60945 0.0
C1354 C 0.66459 0.52139 0.60299 0.0
C1355 C 0.6549 0.52049 0.57757 0.0
H1356 H 0.68606 0.50845 0.62915 0.0
H1357 H 0.59064 0.50098 0.38349 0.0
H1358 H 0.32346 0.89602 0.28289 0.0
H1359 H 0.29557 0.90077 0.25265 0.0
H1360 H 0.25799 0.89584 0.32334 0.0
H1361 H 0.28572 0.89083 0.35354 0.0
H1362 H 0.24597 0.87395 0.28111 0.0
H1363 H 0.2664 0.93917 0.29339 0.0
H1364 H 0.28938 0.96607 0.29294 0.0
H1365 H 0.2977 0.9584 0.20535 0.0
H1366 H 0.27496 0.93127 0.20534 0.0
H1367 H 0.16045 0.901 0.21364 0.0
H1368 H 0.18789 0.90267 0.24535 0.0
H1369 H 0.22644 0.90547 0.17554 0.0
H1370 H 0.19909 0.90402 0.14372 0.0
H1371 H 0.23762 0.92944 0.21791 0.0
H1372 H 0.2187 0.86355 0.20591 0.0
H1373 H 0.19599 0.83642 0.20583 0.0
H1374 H 0.18533 0.84511 0.2927 0.0
H1375 H 0.20778 0.8725 0.29318 0.0
C1376 C 0.30925 0.89606 0.29196 0.0
C1377 C 0.30673 0.89302 0.32052 0.0
C1378 C 0.29335 0.89886 0.27471 0.0
C1379 C 0.27474 0.89882 0.28583 0.0
C1380 C 0.27224 0.89594 0.31437 0.0
C1381 C 0.2881 0.8931 0.33159 0.0
C1382 C 0.25777 0.90091 0.26757 0.0
C1383 C 0.24399 0.88624 0.26763 0.0
C1384 C 0.25547 0.91672 0.2495 0.0
C1385 C 0.26911 0.93307 0.24942 0.0
C1386 C 0.27325 0.94312 0.27407 0.0
C1387 C 0.2862 0.95843 0.27389 0.0
C1388 C 0.29503 0.96391 0.24914 0.0
C1389 C 0.29087 0.95412 0.22451 0.0
C1390 C 0.27793 0.93879 0.22458 0.0
C1391 C 0.17476 0.90223 0.20507 0.0
C1392 C 0.17768 0.90219 0.17625 0.0
C1393 C 0.1904 0.90314 0.22319 0.0
C1394 C 0.20917 0.90392 0.21273 0.0
C1395 C 0.21206 0.90483 0.18398 0.0
C1396 C 0.19643 0.90393 0.16586 0.0
C1397 C 0.22584 0.90254 0.23165 0.0
C1398 C 0.23957 0.91725 0.23159 0.0
C1399 C 0.22817 0.88674 0.24971 0.0
C1400 C 0.21476 0.8702 0.24951 0.0
C1401 C 0.2114 0.85977 0.22494 0.0
C1402 C 0.19859 0.84433 0.22483 0.0
C1403 C 0.18918 0.83908 0.24923 0.0
C1404 C 0.19261 0.84922 0.27381 0.0
C1405 C 0.20538 0.86469 0.27401 0.0
H1406 H 0.17928 0.82712 0.24911 0.0
H1407 H 0.30505 0.97577 0.24905 0.0
H1408 H 0.6412 0.08335 0.53223 0.0
H1409 H 0.64108 0.0553 0.50144 0.0
H1410 H 0.65023 0.01827 0.57182 0.0
H1411 H 0.65031 0.04618 0.6027 0.0
H1412 H 0.67303 0.00884 0.52576 0.0
H1413 H 0.60682 0.02217 0.54756 0.0
H1414 H 0.57796 0.04252 0.55097 0.0
H1415 H 0.57921 0.05193 0.46296 0.0
H1416 H 0.60827 0.03185 0.4591 0.0
H1417 H 0.64592 0.91934 0.4668 0.0
H1418 H 0.64858 0.94787 0.49634 0.0
H1419 H 0.63287 0.98367 0.42697 0.0
H1420 H 0.62982 0.95525 0.39755 0.0
H1421 H 0.61394 0.99421 0.47202 0.0
H1422 H 0.67941 0.98063 0.44928 0.0
H1423 H 0.70858 0.96081 0.44512 0.0
H1424 H 0.70936 0.95247 0.53337 0.0
H1425 H 0.68001 0.97204 0.53802 0.0
C1426 C 0.64333 0.06924 0.54108 0.0
C1427 C 0.64565 0.06689 0.56983 0.0
C1428 C 0.64321 0.05326 0.52352 0.0
C1429 C 0.6455 0.03476 0.53446 0.0
C1430 C 0.64844 0.03245 0.56304 0.0
C1431 C 0.6484 0.04838 0.58062 0.0
C1432 C 0.64415 0.01772 0.51628 0.0
C1433 C 0.66007 0.00549 0.5142 0.0
C1434 C 0.62736 0.01368 0.50082 0.0
C1435 C 0.60984 0.02568 0.50309 0.0
C1436 C 0.60104 0.02871 0.52897 0.0
C1437 C 0.58463 0.04017 0.53098 0.0
C1438 C 0.57679 0.04856 0.50721 0.0
C1439 C 0.58532 0.04545 0.48137 0.0
C1440 C 0.60175 0.03402 0.47925 0.0
C1441 C 0.64303 0.9333 0.45789 0.0
C1442 C 0.63769 0.93511 0.4299 0.0
C1443 C 0.64465 0.94958 0.47473 0.0
C1444 C 0.64114 0.9679 0.46374 0.0
C1445 C 0.63566 0.96967 0.43584 0.0
C1446 C 0.63396 0.95343 0.41906 0.0
C1447 C 0.64285 0.98523 0.48139 0.0
C1448 C 0.62697 0.99754 0.48344 0.0
C1449 C 0.65973 0.98939 0.49667 0.0
C1450 C 0.6774 0.97764 0.49396 0.0
C1451 C 0.68571 0.97444 0.46778 0.0
C1452 C 0.70229 0.96328 0.46533 0.0
C1453 C 0.71079 0.95534 0.48896 0.0
C1454 C 0.70274 0.9586 0.51509 0.0
C1455 C 0.68614 0.96974 0.51764 0.0
H1456 H 0.72363 0.94671 0.48702 0.0
H1457 H 0.56407 0.05742 0.50881 0.0
H1458 H 0.32188 0.39743 0.70894 0.0
H1459 H 0.29409 0.39968 0.73976 0.0
H1460 H 0.25657 0.38491 0.67162 0.0
H1461 H 0.28427 0.38269 0.64065 0.0
H1462 H 0.24279 0.41514 0.70338 0.0
H1463 H 0.26791 0.35149 0.71718 0.0
H1464 H 0.29308 0.32769 0.72763 0.0
H1465 H 0.30169 0.35315 0.80794 0.0
H1466 H 0.27674 0.37729 0.79781 0.0
H1467 H 0.15972 0.39112 0.78174 0.0
H1468 H 0.18697 0.3915 0.74977 0.0
H1469 H 0.2257 0.39976 0.81885 0.0
H1470 H 0.19862 0.39879 0.85088 0.0
H1471 H 0.23893 0.37307 0.78606 0.0
H1472 H 0.21399 0.43659 0.77316 0.0
H1473 H 0.18927 0.46094 0.76306 0.0
H1474 H 0.18076 0.43669 0.68194 0.0
H1475 H 0.20526 0.41203 0.6917 0.0
C1476 C 0.3077 0.39471 0.70053 0.0
C1477 C 0.30521 0.38979 0.67247 0.0
C1478 C 0.29188 0.39597 0.71814 0.0
C1479 C 0.27335 0.3923 0.70795 0.0
C1480 C 0.27078 0.38778 0.67982 0.0
C1481 C 0.28661 0.38644 0.66223 0.0
C1482 C 0.25666 0.39279 0.72678 0.0
C1483 C 0.24178 0.40581 0.7213 0.0
C1484 C 0.25566 0.38089 0.75043 0.0
C1485 C 0.27059 0.36631 0.75662 0.0
C1486 C 0.27527 0.35211 0.73698 0.0
C1487 C 0.28948 0.33854 0.74286 0.0
C1488 C 0.29902 0.33894 0.76841 0.0
C1489 C 0.29431 0.35288 0.78815 0.0
C1490 C 0.28013 0.36649 0.78236 0.0
C1491 C 0.17405 0.39313 0.79003 0.0
C1492 C 0.1771 0.3949 0.81874 0.0
C1493 C 0.18959 0.39343 0.77177 0.0
C1494 C 0.20836 0.39585 0.78192 0.0
C1495 C 0.21135 0.39785 0.81058 0.0
C1496 C 0.19587 0.39734 0.82884 0.0
C1497 C 0.225 0.39554 0.76286 0.0
C1498 C 0.23988 0.38248 0.76823 0.0
C1499 C 0.22603 0.40751 0.73922 0.0
C1500 C 0.21133 0.42235 0.73327 0.0
C1501 C 0.20674 0.43636 0.75325 0.0
C1502 C 0.19279 0.45023 0.74757 0.0
C1503 C 0.18342 0.45033 0.7219 0.0
C1504 C 0.18802 0.43658 0.70183 0.0
C1505 C 0.20195 0.42267 0.70741 0.0
H1506 H 0.17262 0.46108 0.71755 0.0
H1507 H 0.31001 0.32842 0.77292 0.0
H1508 H 0.84933 0.03778 0.89753 0.0
H1509 H 0.84706 0.01057 0.92927 0.0
H1510 H 0.86058 0.04779 0.99829 0.0
H1511 H 0.86288 0.07512 0.96663 0.0
H1512 H 0.8824 0.01465 0.99733 0.0
H1513 H 0.81599 0.03243 0.99057 0.0
H1514 H 0.78579 0.04021 0.9663 0.0
H1515 H 0.78516 0.98417 0.92906 0.0
H1516 H 0.81552 0.97614 0.95281 0.0
H1517 H 0.86174 0.95026 0.10589 0.0
H1518 H 0.86162 0.97777 0.07466 0.0
H1519 H 0.84462 0.941 0.00672 0.0
H1520 H 0.84439 0.91338 0.03806 0.0
H1521 H 0.82437 0.97395 0.00694 0.0
H1522 H 0.8906 0.95606 0.01266 0.0
H1523 H 0.92106 0.94797 0.03602 0.0
H1524 H 0.92247 0.00378 0.07392 0.0
H1525 H 0.89186 0.01211 0.05109 0.0
C1526 C 0.85169 0.04019 0.91949 0.0
C1527 C 0.85628 0.05854 0.92966 0.0
C1528 C 0.85032 0.02466 0.93758 0.0
C1529 C 0.85354 0.02724 0.96609 0.0
C1530 C 0.85803 0.04556 0.97632 0.0
C1531 C 0.85927 0.06113 0.95826 0.0
C1532 C 0.85292 0.01065 0.98507 0.0
C1533 C 0.86963 0.0059 -0.00021 0.0
C1534 C 0.83642 -0.00102 0.98752 0.0
C1535 C 0.81813 0.00375 0.97326 0.0
C1536 C 0.8095 0.02182 0.97702 0.0
C1537 C 0.79234 0.02627 0.96339 0.0
C1538 C 0.78359 0.01271 0.94609 0.0
C1539 C 0.79196 0.99467 0.94244 0.0
C1540 C 0.80914 0.99015 0.956 0.0
C1541 C 0.85798 0.94802 0.0843 0.0
C1542 C 0.85316 0.92968 0.07434 0.0
C1543 C 0.85797 0.96374 0.06647 0.0
C1544 C 0.85335 0.96136 0.03832 0.0
C1545 C 0.84827 0.9431 0.02838 0.0
C1546 C 0.8482 0.92736 0.04626 0.0
C1547 C 0.85384 0.97797 0.01931 0.0
C1548 C 0.83713 0.9827 0.00453 0.0
C1549 C 0.87039 0.98958 0.01666 0.0
C1550 C 0.88883 0.98464 0.03037 0.0
C1551 C 0.89733 0.96655 0.02615 0.0
C1552 C 0.91463 0.96193 0.03927 0.0
C1553 C 0.92367 0.97534 0.0565 0.0
C1554 C 0.91544 0.99341 0.0606 0.0
C1555 C 0.89812 -0.00191 0.04756 0.0
H1556 H 0.93707 0.97174 0.06664 0.0
H1557 H 0.7703 0.01618 0.93557 0.0
H1558 H 0.21 0.60842 0.13853 0.0
H1559 H 0.23801 0.60528 0.1688 0.0
H1560 H 0.20084 0.60062 0.23998 0.0
H1561 H 0.17273 0.60402 0.20982 0.0
H1562 H 0.22936 0.626 0.24869 0.0
H1563 H 0.22393 0.56148 0.21458 0.0
H1564 H 0.22125 0.53624 0.17883 0.0
H1565 H 0.27558 0.55311 0.14483 0.0
H1566 H 0.27847 0.57865 0.18016 0.0
H1567 H 0.29825 0.59781 0.34709 0.0
H1568 H 0.27081 0.59758 0.31556 0.0
H1569 H 0.30898 0.60261 0.24557 0.0
H1570 H 0.33666 0.60251 0.27712 0.0
H1571 H 0.28028 0.577 0.23572 0.0
H1572 H 0.28564 0.64156 0.26983 0.0
H1573 H 0.28824 0.66686 0.30552 0.0
H1574 H 0.23385 0.65001 0.33935 0.0
H1575 H 0.23106 0.62441 0.30411 0.0
C1576 C 0.20779 0.60659 0.16061 0.0
C1577 C 0.18921 0.60646 0.17187 0.0
C1578 C 0.2238 0.60472 0.17785 0.0
C1579 C 0.22147 0.60255 0.20657 0.0
C1580 C 0.20291 0.60226 0.21783 0.0
C1581 C 0.18689 0.60416 0.20061 0.0
C1582 C 0.23842 0.60137 0.22501 0.0
C1583 C 0.24035 0.61511 0.24614 0.0
C1584 C 0.25299 0.58749 0.22107 0.0
C1585 C 0.25132 0.5721 0.19986 0.0
C1586 C 0.23524 0.55991 0.19935 0.0
C1587 C 0.23369 0.54553 0.17918 0.0
C1588 C 0.24821 0.5431 0.15953 0.0
C1589 C 0.26433 0.55502 0.16005 0.0
C1590 C 0.26594 0.56944 0.18016 0.0
C1591 C 0.30082 0.59877 0.32497 0.0
C1592 C 0.31956 0.60032 0.31452 0.0
C1593 C 0.28513 0.5987 0.30701 0.0
C1594 C 0.28788 0.6004 0.2783 0.0
C1595 C 0.3066 0.60137 0.2677 0.0
C1596 C 0.32236 0.60135 0.2857 0.0
C1597 C 0.27112 0.60154 0.2595 0.0
C1598 C 0.26926 0.58786 0.23828 0.0
C1599 C 0.25659 0.6155 0.26331 0.0
C1600 C 0.25822 0.63095 0.28447 0.0
C1601 C 0.2743 0.64315 0.28501 0.0
C1602 C 0.2758 0.65756 0.30514 0.0
C1603 C 0.26124 0.66002 0.32472 0.0
C1604 C 0.24513 0.64808 0.32418 0.0
C1605 C 0.24358 0.63363 0.30412 0.0
H1606 H 0.2624 0.67119 0.34026 0.0
H1607 H 0.24699 0.53196 0.14394 0.0
H1608 H 0.34741 0.07418 0.53629 0.0
H1609 H 0.34476 0.04604 0.50598 0.0
H1610 H 0.36402 0.00976 0.5729 0.0
H1611 H 0.36685 0.03779 0.6032 0.0
H1612 H 0.38272 0.00212 0.52491 0.0
H1613 H 0.31746 0.0102 0.55446 0.0
H1614 H 0.28726 0.02788 0.56202 0.0
H1615 H 0.28216 0.03784 0.47442 0.0
H1616 H 0.3125 0.02044 0.46636 0.0
H1617 H 0.35774 0.91199 0.46444 0.0
H1618 H 0.35834 0.93975 0.49584 0.0
H1619 H 0.34424 0.97706 0.42749 0.0
H1620 H 0.34391 0.94948 0.39595 0.0
H1621 H 0.32249 0.98392 0.47635 0.0
H1622 H 0.38769 0.97713 0.44668 0.0
H1623 H 0.4187 0.96109 0.43847 0.0
H1624 H 0.4242 0.94955 0.5256 0.0
H1625 H 0.39306 0.96532 0.5343 0.0
C1626 C 0.35102 0.06019 0.54453 0.0
C1627 C 0.35733 0.05815 0.57207 0.0
C1628 C 0.34942 0.04414 0.52726 0.0
C1629 C 0.35404 0.02582 0.53732 0.0
C1630 C 0.36037 0.02378 0.56479 0.0
C1631 C 0.36194 0.03979 0.58206 0.0
C1632 C 0.3528 0.00882 0.51899 0.0
C1633 C 0.36947 0.99794 0.51465 0.0
C1634 C 0.33563 0.00375 0.50507 0.0
C1635 C 0.31736 0.01418 0.50984 0.0
C1636 C 0.30999 0.0163 0.53683 0.0
C1637 C 0.29283 0.02624 0.5412 0.0
C1638 C 0.28282 0.03402 0.51873 0.0
C1639 C 0.28994 0.03183 0.49181 0.0
C1640 C 0.30711 0.02191 0.48733 0.0
C1641 C 0.35469 0.92611 0.45618 0.0
C1642 C 0.35084 0.92864 0.42781 0.0
C1643 C 0.35509 0.94191 0.47407 0.0
C1644 C 0.35141 0.96039 0.46385 0.0
C1645 C 0.3471 0.96288 0.43568 0.0
C1646 C 0.34698 0.94715 0.41773 0.0
C1647 C 0.35237 0.97721 0.48248 0.0
C1648 C 0.33568 0.98805 0.4868 0.0
C1649 C 0.36953 0.9823 0.49635 0.0
C1650 C 0.38793 0.9722 0.4911 0.0
C1651 C 0.39537 0.97093 0.46405 0.0
C1652 C 0.413 0.96195 0.45931 0.0
C1653 C 0.4234 0.95429 0.4815 0.0
C1654 C 0.41612 0.95548 0.50844 0.0
C1655 C 0.39848 0.96445 0.51329 0.0
H1656 H 0.43715 0.94756 0.47784 0.0
H1657 H 0.26954 0.04171 0.52215 0.0
H1658 H 0.83404 0.59735 0.21433 0.0
H1659 H 0.80587 0.59422 0.24418 0.0
H1660 H 0.76976 0.5876 0.17188 0.0
H1661 H 0.7978 0.59105 0.14194 0.0
H1662 H 0.75595 0.6142 0.20587 0.0
H1663 H 0.77858 0.54981 0.21524 0.0
H1664 H 0.80223 0.52428 0.22452 0.0
H1665 H 0.80945 0.54501 0.30789 0.0
H1666 H 0.78604 0.57085 0.29899 0.0
H1667 H 0.6716 0.59694 0.28337 0.0
H1668 H 0.69851 0.59194 0.25165 0.0
H1669 H 0.73831 0.59932 0.31961 0.0
H1670 H 0.71147 0.60394 0.35153 0.0
H1671 H 0.74918 0.57024 0.28605 0.0
H1672 H 0.72872 0.63598 0.27534 0.0
H1673 H 0.70538 0.66182 0.26613 0.0
H1674 H 0.69448 0.63857 0.18499 0.0
H1675 H 0.71757 0.61243 0.19388 0.0
C1676 C 0.82013 0.59497 0.20484 0.0
C1677 C 0.81806 0.59453 0.17585 0.0
C1678 C 0.80407 0.59309 0.2219 0.0
C1679 C 0.78575 0.59057 0.21022 0.0
C1680 C 0.78377 0.58955 0.18128 0.0
C1681 C 0.7998 0.5915 0.16423 0.0
C1682 C 0.7685 0.59049 0.22808 0.0
C1683 C 0.7543 0.60433 0.22308 0.0
C1684 C 0.76661 0.57792 0.25091 0.0
C1685 C 0.78066 0.56237 0.25636 0.0
C1686 C 0.78532 0.54902 0.23549 0.0
C1687 C 0.79866 0.53447 0.24069 0.0
C1688 C 0.80737 0.53305 0.26676 0.0
C1689 C 0.80271 0.54614 0.2877 0.0
C1690 C 0.78939 0.56073 0.28259 0.0
C1691 C 0.68609 0.59741 0.29155 0.0
C1692 C 0.68948 0.60097 0.31984 0.0
C1693 C 0.70143 0.59458 0.27343 0.0
C1694 C 0.72039 0.5955 0.28326 0.0
C1695 C 0.72378 0.59856 0.31163 0.0
C1696 C 0.70844 0.60128 0.32979 0.0
C1697 C 0.73675 0.594 0.26386 0.0
C1698 C 0.75078 0.57993 0.26863 0.0
C1699 C 0.73854 0.60638 0.2408 0.0
C1700 C 0.72471 0.62214 0.2354 0.0
C1701 C 0.72123 0.6363 0.25562 0.0
C1702 C 0.70807 0.65101 0.25044 0.0
C1703 C 0.69841 0.6518 0.22502 0.0
C1704 C 0.70194 0.63791 0.20469 0.0
C1705 C 0.71508 0.62316 0.20978 0.0
H1706 H 0.68823 0.66321 0.22105 0.0
H1707 H 0.81769 0.52178 0.27075 0.0
H1708 H 0.14478 0.92143 0.03331 0.0
H1709 H 0.14807 0.94942 0.00318 0.0
H1710 H 0.12989 0.98629 0.07025 0.0
H1711 H 0.12625 0.95835 0.10032 0.0
H1712 H 0.11257 0.99584 0.02274 0.0
H1713 H 0.17705 0.983 0.05245 0.0
H1714 H 0.20596 0.96324 0.05994 0.0
H1715 H 0.21045 0.95336 0.9722 0.0
H1716 H 0.18139 0.97285 0.96421 0.0
H1717 H 0.14082 0.08397 0.96347 0.0
H1718 H 0.14051 0.05642 0.99484 0.0
H1719 H 0.15352 0.0187 0.92629 0.0
H1720 H 0.15385 0.04616 0.89476 0.0
H1721 H 0.17396 0.00992 0.97485 0.0
H1722 H 0.10904 0.02226 0.94555 0.0
H1723 H 0.0803 0.04228 0.93818 0.0
H1724 H 0.07686 0.05327 0.02576 0.0
H1725 H 0.10579 0.03356 0.0336 0.0
C1726 C 0.14144 0.9355 0.04159 0.0
C1727 C 0.13531 0.93775 0.06915 0.0
C1728 C 0.14342 0.95147 0.02442 0.0
C1729 C 0.13948 0.96994 0.03463 0.0
C1730 C 0.13306 0.97216 0.06201 0.0
C1731 C 0.13101 0.9562 0.07916 0.0
C1732 C 0.1419 0.98695 0.0167 0.0
C1733 C 0.12607 -0.00093 0.0126 0.0
C1734 C 0.15942 0.9909 0.00303 0.0
C1735 C 0.17693 0.97923 0.00776 0.0
C1736 C 0.18411 0.97649 0.03477 0.0
C1737 C 0.20054 0.96536 0.0391 0.0
C1738 C 0.21001 0.95701 0.01657 0.0
C1739 C 0.20309 0.95981 0.98964 0.0
C1740 C 0.18665 0.97091 0.98519 0.0
C1741 C 0.14386 0.06984 0.95515 0.0
C1742 C 0.14723 0.06715 0.92668 0.0
C1743 C 0.14362 0.05414 0.97306 0.0
C1744 C 0.14678 0.03557 0.96274 0.0
C1745 C 0.15102 0.03295 0.93456 0.0
C1746 C 0.15114 0.04862 0.91661 0.0
C1747 C 0.14467 0.01876 0.98105 0.0
C1748 C 0.16051 0.00668 0.98513 0.0
C1749 C 0.12718 0.01485 0.99476 0.0
C1750 C 0.10971 0.0266 0.99012 0.0
C1751 C 0.10226 0.02908 0.96321 0.0
C1752 C 0.08591 0.04035 0.95895 0.0
C1753 C 0.07679 0.04908 0.98148 0.0
C1754 C 0.08396 0.04652 0.00832 0.0
C1755 C 0.10033 0.0353 0.01269 0.0
H1756 H 0.06414 0.0578 0.97814 0.0
H1757 H 0.22272 0.9484 0.01996 0.0
H1758 H 0.6974 0.40563 0.64636 0.0
H1759 H 0.72521 0.40757 0.6772 0.0
H1760 H 0.68842 0.39901 0.74802 0.0
H1761 H 0.66042 0.39749 0.71724 0.0
H1762 H 0.71623 0.42508 0.75912 0.0
H1763 H 0.71257 0.36165 0.71987 0.0
H1764 H 0.71039 0.33789 0.68197 0.0
H1765 H 0.76378 0.35807 0.64864 0.0
H1766 H 0.76613 0.38215 0.68614 0.0
H1767 H 0.78437 0.38826 0.85489 0.0
H1768 H 0.75721 0.39316 0.82354 0.0
H1769 H 0.79628 0.40253 0.75556 0.0
H1770 H 0.82357 0.39745 0.78681 0.0
H1771 H 0.76797 0.37752 0.74214 0.0
H1772 H 0.7724 0.43983 0.78389 0.0
H1773 H 0.77433 0.463 0.82255 0.0
H1774 H 0.71939 0.44429 0.85221 0.0
H1775 H 0.71725 0.4208 0.81394 0.0
C1776 C 0.69521 0.40437 0.66853 0.0
C1777 C 0.67681 0.4012 0.67943 0.0
C1778 C 0.7111 0.40544 0.6861 0.0
C1779 C 0.70889 0.40307 0.71481 0.0
C1780 C 0.69041 0.4008 0.72588 0.0
C1781 C 0.67446 0.39988 0.70831 0.0
C1782 C 0.72594 0.40188 0.73307 0.0
C1783 C 0.72747 0.41458 0.7556 0.0
C1784 C 0.74074 0.38839 0.7281 0.0
C1785 C 0.73942 0.37383 0.70565 0.0
C1786 C 0.72377 0.36111 0.70434 0.0
C1787 C 0.72251 0.34758 0.68295 0.0
C1788 C 0.73691 0.34651 0.66286 0.0
C1789 C 0.75262 0.35894 0.66418 0.0
C1790 C 0.75393 0.37252 0.68551 0.0
C1791 C 0.78718 0.39144 0.83329 0.0
C1792 C 0.80606 0.39246 0.82324 0.0
C1793 C 0.77166 0.39435 0.81546 0.0
C1794 C 0.77476 0.39842 0.78733 0.0
C1795 C 0.79361 0.39946 0.77725 0.0
C1796 C 0.80916 0.39657 0.79509 0.0
C1797 C 0.7583 0.40072 0.76822 0.0
C1798 C 0.75683 0.38815 0.74555 0.0
C1799 C 0.74354 0.41425 0.77319 0.0
C1800 C 0.74475 0.42843 0.79617 0.0
C1801 C 0.7608 0.44055 0.79878 0.0
C1802 C 0.76192 0.45376 0.8206 0.0
C1803 C 0.74701 0.45509 0.83986 0.0
C1804 C 0.73093 0.44324 0.83729 0.0
C1805 C 0.72975 0.42998 0.81551 0.0
H1806 H 0.74791 0.46533 0.85674 0.0
H1807 H 0.73591 0.33602 0.64631 0.0
loop_
_geom_bond_atom_site_label_1
_geom_bond_atom_site_label_2
_geom_bond_distance
_geom_bond_site_symmetry_2
_ccdc_geom_bond_type
In0 O1 2.294 . S
In0 O2 2.326 . S
In0 O6 2.266 . S
In0 O7 2.326 . S
In0 O8 2.266 . S
In0 O9 2.326 . S
In0 O11 2.294 . S
In0 O12 2.326 . S
O1 In0 2.294 . S
O1 C10 1.240 . S
O2 In0 2.326 . S
O2 C10 1.252 . S
C3 O6 1.252 . S
C3 O7 1.260 . S
C4 O11 1.240 . S
C4 O12 1.252 . S
C5 O8 1.252 . S
C5 O9 1.260 . S
O6 In0 2.266 . S
O6 C3 1.252 . S
O7 In0 2.326 . S
O7 C3 1.260 . S
O8 In0 2.266 . S
O8 C5 1.252 . S
O9 In0 2.326 . S
O9 C5 1.260 . S
C10 O1 1.240 . S
C10 O2 1.252 . S
O11 In0 2.294 . S
O11 C4 1.240 . S
O12 In0 2.326 . S
O12 C4 1.252 . S
In13 O14 2.294 . S
In13 O15 2.326 . S
In13 O19 2.266 . S
In13 O20 2.326 . S
In13 O21 2.266 . S
In13 O22 2.326 . S
In13 O24 2.294 . S
In13 O25 2.326 . S
O14 In13 2.294 . S
O14 C23 1.240 . S
O15 In13 2.326 . S
O15 C23 1.252 . S
C16 O19 1.252 . S
C16 O20 1.260 . S
C17 O24 1.240 . S
C17 O25 1.252 . S
C18 O21 1.252 . S
C18 O22 1.260 . S
O19 In13 2.266 . S
O19 C16 1.252 . S
O20 In13 2.326 . S
O20 C16 1.260 . S
O21 In13 2.266 . S
O21 C18 1.252 . S
O22 In13 2.326 . S
O22 C18 1.260 . S
C23 O14 1.240 . S
C23 O15 1.252 . S
O24 In13 2.294 . S
O24 C17 1.240 . S
O25 In13 2.326 . S
O25 C17 1.252 . S
In26 O27 2.294 . S
In26 O28 2.326 . S
In26 O32 2.266 . S
In26 O33 2.326 . S
In26 O34 2.266 . S
In26 O35 2.326 . S
In26 O37 2.294 . S
In26 O38 2.326 . S
O27 In26 2.294 . S
O27 C36 1.240 . S
O28 In26 2.326 . S
O28 C36 1.252 . S
C29 O32 1.252 . S
C29 O33 1.260 . S
C30 O37 1.240 . S
C30 O38 1.252 . S
C31 O34 1.252 . S
C31 O35 1.260 . S
O32 In26 2.266 . S
O32 C29 1.252 . S
O33 In26 2.326 . S
O33 C29 1.260 . S
O34 In26 2.266 . S
O34 C31 1.252 . S
O35 In26 2.326 . S
O35 C31 1.260 . S
C36 O27 1.240 . S
C36 O28 1.252 . S
O37 In26 2.294 . S
O37 C30 1.240 . S
O38 In26 2.326 . S
O38 C30 1.252 . S
In39 O40 2.294 . S
In39 O41 2.326 . S
In39 O45 2.266 . S
In39 O46 2.326 . S
In39 O47 2.266 . S
In39 O48 2.326 . S
In39 O50 2.294 . S
In39 O51 2.326 . S
O40 In39 2.294 . S
O40 C49 1.240 . S
O41 In39 2.326 . S
O41 C49 1.252 . S
C42 O45 1.252 . S
C42 O46 1.260 . S
C43 O50 1.240 . S
C43 O51 1.252 . S
C44 O47 1.252 . S
C44 O48 1.260 . S
O45 In39 2.266 . S
O45 C42 1.252 . S
O46 In39 2.326 . S
O46 C42 1.260 . S
O47 In39 2.266 . S
O47 C44 1.252 . S
O48 In39 2.326 . S
O48 C44 1.260 . S
C49 O40 1.240 . S
C49 O41 1.252 . S
O50 In39 2.294 . S
O50 C43 1.240 . S
O51 In39 2.326 . S
O51 C43 1.252 . S
In52 O53 2.294 . S
In52 O54 2.326 . S
In52 O58 2.266 . S
In52 O59 2.326 . S
In52 O60 2.266 . S
In52 O61 2.326 . S
In52 O63 2.294 . S
In52 O64 2.326 . S
O53 In52 2.294 . S
O53 C62 1.240 . S
O54 In52 2.326 . S
O54 C62 1.252 . S
C55 O58 1.252 . S
C55 O59 1.260 . S
C56 O63 1.240 . S
C56 O64 1.252 . S
C57 O60 1.252 . S
C57 O61 1.260 . S
O58 In52 2.266 . S
O58 C55 1.252 . S
O59 In52 2.326 . S
O59 C55 1.260 . S
O60 In52 2.266 . S
O60 C57 1.252 . S
O61 In52 2.326 . S
O61 C57 1.260 . S
C62 O53 1.240 . S
C62 O54 1.252 . S
O63 In52 2.294 . S
O63 C56 1.240 . S
O64 In52 2.326 . S
O64 C56 1.252 . S
In65 O66 2.294 . S
In65 O67 2.326 . S
In65 O71 2.266 . S
In65 O72 2.326 . S
In65 O73 2.266 . S
In65 O74 2.326 . S
In65 O76 2.294 . S
In65 O77 2.326 . S
O66 In65 2.294 . S
O66 C75 1.240 . S
O67 In65 2.326 . S
O67 C75 1.252 . S
C68 O71 1.252 . S
C68 O72 1.260 . S
C69 O76 1.240 . S
C69 O77 1.252 . S
C70 O73 1.252 . S
C70 O74 1.260 . S
O71 In65 2.266 . S
O71 C68 1.252 . S
O72 In65 2.326 . S
O72 C68 1.260 . S
O73 In65 2.266 . S
O73 C70 1.252 . S
O74 In65 2.326 . S
O74 C70 1.260 . S
C75 O66 1.240 . S
C75 O67 1.252 . S
O76 In65 2.294 . S
O76 C69 1.240 . S
O77 In65 2.326 . S
O77 C69 1.252 . S
In78 O79 2.294 . S
In78 O80 2.326 . S
In78 O84 2.266 . S
In78 O85 2.326 . S
In78 O86 2.266 . S
In78 O87 2.326 . S
In78 O89 2.294 . S
In78 O90 2.326 . S
O79 In78 2.294 . S
O79 C88 1.240 . S
O80 In78 2.326 . S
O80 C88 1.252 . S
C81 O84 1.252 . S
C81 O85 1.260 . S
C82 O89 1.240 . S
C82 O90 1.252 . S
C83 O86 1.252 . S
C83 O87 1.260 . S
O84 In78 2.266 . S
O84 C81 1.252 . S
O85 In78 2.326 . S
O85 C81 1.260 . S
O86 In78 2.266 . S
O86 C83 1.252 . S
O87 In78 2.326 . S
O87 C83 1.260 . S
C88 O79 1.240 . S
C88 O80 1.252 . S
O89 In78 2.294 . S
O89 C82 1.240 . S
O90 In78 2.326 . S
O90 C82 1.252 . S
In91 O92 2.294 . S
In91 O93 2.326 . S
In91 O97 2.266 . S
In91 O98 2.326 . S
In91 O99 2.266 . S
In91 O100 2.326 . S
In91 O102 2.294 . S
In91 O103 2.326 . S
O92 In91 2.294 . S
O92 C101 1.240 . S
O93 In91 2.326 . S
O93 C101 1.252 . S
C94 O97 1.252 . S
C94 O98 1.260 . S
C95 O102 1.240 . S
C95 O103 1.252 . S
C96 O99 1.252 . S
C96 O100 1.260 . S
O97 In91 2.266 . S
O97 C94 1.252 . S
O98 In91 2.326 . S
O98 C94 1.260 . S
O99 In91 2.266 . S
O99 C96 1.252 . S
O100 In91 2.326 . S
O100 C96 1.260 . S
C101 O92 1.240 . S
C101 O93 1.252 . S
O102 In91 2.294 . S
O102 C95 1.240 . S
O103 In91 2.326 . S
O103 C95 1.252 . S
In104 O105 2.294 . S
In104 O106 2.326 . S
In104 O110 2.266 . S
In104 O111 2.326 . S
In104 O112 2.266 . S
In104 O113 2.326 . S
In104 O115 2.294 . S
In104 O116 2.326 . S
O105 In104 2.294 . S
O105 C114 1.240 . S
O106 In104 2.326 . S
O106 C114 1.252 . S
C107 O110 1.252 . S
C107 O111 1.260 . S
C108 O115 1.240 . S
C108 O116 1.252 . S
C109 O112 1.252 . S
C109 O113 1.260 . S
O110 In104 2.266 . S
O110 C107 1.252 . S
O111 In104 2.326 . S
O111 C107 1.260 . S
O112 In104 2.266 . S
O112 C109 1.252 . S
O113 In104 2.326 . S
O113 C109 1.260 . S
C114 O105 1.240 . S
C114 O106 1.252 . S
O115 In104 2.294 . S
O115 C108 1.240 . S
O116 In104 2.326 . S
O116 C108 1.252 . S
In117 O118 2.294 . S
In117 O119 2.326 . S
In117 O123 2.266 . S
In117 O124 2.326 . S
In117 O125 2.266 . S
In117 O126 2.326 . S
In117 O128 2.294 . S
In117 O129 2.326 . S
O118 In117 2.294 . S
O118 C127 1.240 . S
O119 In117 2.326 . S
O119 C127 1.252 . S
C120 O123 1.252 . S
C120 O124 1.260 . S
C121 O128 1.240 . S
C121 O129 1.252 . S
C122 O125 1.252 . S
C122 O126 1.260 . S
O123 In117 2.266 . S
O123 C120 1.252 . S
O124 In117 2.326 . S
O124 C120 1.260 . S
O125 In117 2.266 . S
O125 C122 1.252 . S
O126 In117 2.326 . S
O126 C122 1.260 . S
C127 O118 1.240 . S
C127 O119 1.252 . S
O128 In117 2.294 . S
O128 C121 1.240 . S
O129 In117 2.326 . S
O129 C121 1.252 . S
In130 O131 2.294 . S
In130 O132 2.326 . S
In130 O136 2.266 . S
In130 O137 2.326 . S
In130 O138 2.266 . S
In130 O139 2.326 . S
In130 O141 2.294 . S
In130 O142 2.326 . S
O131 In130 2.294 . S
O131 C140 1.240 . S
O132 In130 2.326 . S
O132 C140 1.252 . S
C133 O136 1.252 . S
C133 O137 1.260 . S
C134 O141 1.240 . S
C134 O142 1.252 . S
C135 O138 1.252 . S
C135 O139 1.260 . S
O136 In130 2.266 . S
O136 C133 1.252 . S
O137 In130 2.326 . S
O137 C133 1.260 . S
O138 In130 2.266 . S
O138 C135 1.252 . S
O139 In130 2.326 . S
O139 C135 1.260 . S
C140 O131 1.240 . S
C140 O132 1.252 . S
O141 In130 2.294 . S
O141 C134 1.240 . S
O142 In130 2.326 . S
O142 C134 1.252 . S
In143 O144 2.294 . S
In143 O145 2.326 . S
In143 O149 2.266 . S
In143 O150 2.326 . S
In143 O151 2.266 . S
In143 O152 2.326 . S
In143 O154 2.294 . S
In143 O155 2.326 . S
O144 In143 2.294 . S
O144 C153 1.240 . S
O145 In143 2.326 . S
O145 C153 1.252 . S
C146 O149 1.252 . S
C146 O150 1.260 . S
C147 O154 1.240 . S
C147 O155 1.252 . S
C148 O151 1.252 . S
C148 O152 1.260 . S
O149 In143 2.266 . S
O149 C146 1.252 . S
O150 In143 2.326 . S
O150 C146 1.260 . S
O151 In143 2.266 . S
O151 C148 1.252 . S
O152 In143 2.326 . S
O152 C148 1.260 . S
C153 O144 1.240 . S
C153 O145 1.252 . S
O154 In143 2.294 . S
O154 C147 1.240 . S
O155 In143 2.326 . S
O155 C147 1.252 . S
In156 O157 2.294 . S
In156 O158 2.326 . S
In156 O162 2.266 . S
In156 O163 2.326 . S
In156 O164 2.266 . S
In156 O165 2.326 . S
In156 O167 2.294 . S
In156 O168 2.326 . S
O157 In156 2.294 . S
O157 C166 1.240 . S
O158 In156 2.326 . S
O158 C166 1.252 . S
C159 O162 1.252 . S
C159 O163 1.260 . S
C160 O167 1.240 . S
C160 O168 1.252 . S
C161 O164 1.252 . S
C161 O165 1.260 . S
O162 In156 2.266 . S
O162 C159 1.252 . S
O163 In156 2.326 . S
O163 C159 1.260 . S
O164 In156 2.266 . S
O164 C161 1.252 . S
O165 In156 2.326 . S
O165 C161 1.260 . S
C166 O157 1.240 . S
C166 O158 1.252 . S
O167 In156 2.294 . S
O167 C160 1.240 . S
O168 In156 2.326 . S
O168 C160 1.252 . S
In169 O170 2.294 . S
In169 O171 2.326 . S
In169 O175 2.266 . S
In169 O176 2.326 . S
In169 O177 2.266 . S
In169 O178 2.326 . S
In169 O180 2.294 . S
In169 O181 2.326 . S
O170 In169 2.294 . S
O170 C179 1.240 . S
O171 In169 2.326 . S
O171 C179 1.252 . S
C172 O175 1.252 . S
C172 O176 1.260 . S
C173 O180 1.240 . S
C173 O181 1.252 . S
C174 O177 1.252 . S
C174 O178 1.260 . S
O175 In169 2.266 . S
O175 C172 1.252 . S
O176 In169 2.326 . S
O176 C172 1.260 . S
O177 In169 2.266 . S
O177 C174 1.252 . S
O178 In169 2.326 . S
O178 C174 1.260 . S
C179 O170 1.240 . S
C179 O171 1.252 . S
O180 In169 2.294 . S
O180 C173 1.240 . S
O181 In169 2.326 . S
O181 C173 1.252 . S
In182 O183 2.294 . S
In182 O184 2.326 . S
In182 O188 2.266 . S
In182 O189 2.326 . S
In182 O190 2.266 . S
In182 O191 2.326 . S
In182 O193 2.294 . S
In182 O194 2.326 . S
O183 In182 2.294 . S
O183 C192 1.240 . S
O184 In182 2.326 . S
O184 C192 1.252 . S
C185 O188 1.252 . S
C185 O189 1.260 . S
C186 O193 1.240 . S
C186 O194 1.252 . S
C187 O190 1.252 . S
C187 O191 1.260 . S
O188 In182 2.266 . S
O188 C185 1.252 . S
O189 In182 2.326 . S
O189 C185 1.260 . S
O190 In182 2.266 . S
O190 C187 1.252 . S
O191 In182 2.326 . S
O191 C187 1.260 . S
C192 O183 1.240 . S
C192 O184 1.252 . S
O193 In182 2.294 . S
O193 C186 1.240 . S
O194 In182 2.326 . S
O194 C186 1.252 . S
In195 O196 2.294 . S
In195 O197 2.326 . S
In195 O201 2.266 . S
In195 O202 2.326 . S
In195 O203 2.266 . S
In195 O204 2.326 . S
In195 O206 2.294 . S
In195 O207 2.326 . S
O196 In195 2.294 . S
O196 C205 1.240 . S
O197 In195 2.326 . S
O197 C205 1.252 . S
C198 O201 1.252 . S
C198 O202 1.260 . S
C199 O206 1.240 . S
C199 O207 1.252 . S
C200 O203 1.252 . S
C200 O204 1.260 . S
O201 In195 2.266 . S
O201 C198 1.252 . S
O202 In195 2.326 . S
O202 C198 1.260 . S
O203 In195 2.266 . S
O203 C200 1.252 . S
O204 In195 2.326 . S
O204 C200 1.260 . S
C205 O196 1.240 . S
C205 O197 1.252 . S
O206 In195 2.294 . S
O206 C199 1.240 . S
O207 In195 2.326 . S
O207 C199 1.252 . S
H208 C226 0.951 . S
H209 C228 0.951 . S
H210 C230 0.950 . S
H211 C231 0.950 . S
H212 C233 0.950 . S
H213 C236 0.950 . S
H214 C237 0.950 . S
H215 C239 0.950 . S
H216 C240 0.950 . S
H217 C241 0.951 . S
H218 C243 0.951 . S
H219 C245 0.950 . S
H220 C246 0.950 . S
H221 C248 0.950 . S
H222 C251 0.950 . S
H223 C252 0.950 . S
H224 C254 0.950 . S
H225 C255 0.950 . S
C226 H208 0.951 . S
C226 C227 1.366 . S
C226 C228 1.388 . S
C227 C226 1.366 . S
C227 C231 1.385 . S
C228 H209 0.951 . S
C228 C226 1.388 . S
C228 C229 1.366 . S
C229 C228 1.366 . S
C229 C230 1.414 . S
C229 C232 1.499 . S
C230 H210 0.950 . S
C230 C229 1.414 . S
C230 C231 1.374 . S
C231 H211 0.950 . S
C231 C227 1.385 . S
C231 C230 1.374 . S
C232 C229 1.499 . S
C232 C233 1.373 . S
C232 C234 1.389 . S
C233 H212 0.950 . S
C233 C232 1.373 . S
C233 C249 1.377 . S
C234 C232 1.389 . S
C234 C235 1.524 . S
C234 C248 1.377 . S
C235 C234 1.524 . S
C235 C236 1.397 . S
C235 C240 1.363 . S
C236 H213 0.950 . S
C236 C235 1.397 . S
C236 C237 1.334 . S
C237 H214 0.950 . S
C237 C236 1.334 . S
C237 C238 1.287 . S
C238 C237 1.287 . S
C238 C239 1.524 . S
C238 H257 0.913 . S
C239 H215 0.950 . S
C239 C238 1.524 . S
C239 C240 1.415 . S
C240 H216 0.950 . S
C240 C235 1.363 . S
C240 C239 1.415 . S
C241 H217 0.951 . S
C241 C242 1.366 . S
C241 C243 1.388 . S
C242 C241 1.366 . S
C242 C246 1.385 . S
C243 H218 0.951 . S
C243 C241 1.388 . S
C243 C244 1.366 . S
C244 C243 1.366 . S
C244 C245 1.414 . S
C244 C247 1.499 . S
C245 H219 0.950 . S
C245 C244 1.414 . S
C245 C246 1.374 . S
C246 H220 0.950 . S
C246 C242 1.385 . S
C246 C245 1.374 . S
C247 C244 1.499 . S
C247 C248 1.373 . S
C247 C249 1.389 . S
C248 H221 0.950 . S
C248 C234 1.377 . S
C248 C247 1.373 . S
C249 C233 1.377 . S
C249 C247 1.389 . S
C249 C250 1.524 . S
C250 C249 1.524 . S
C250 C251 1.397 . S
C250 C255 1.363 . S
C251 H222 0.950 . S
C251 C250 1.397 . S
C251 C252 1.334 . S
C252 H223 0.950 . S
C252 C251 1.334 . S
C252 C253 1.287 . S
C253 C252 1.287 . S
C253 C254 1.524 . S
C253 H256 0.999 . S
C254 H224 0.950 . S
C254 C253 1.524 . S
C254 C255 1.415 . S
C255 H225 0.950 . S
C255 C250 1.363 . S
C255 C254 1.415 . S
H256 C253 0.999 . S
H257 C238 0.913 . S
H258 C276 0.951 . S
H259 C278 0.951 . S
H260 C280 0.950 . S
H261 C281 0.950 . S
H262 C283 0.950 . S
H263 C286 0.950 . S
H264 C287 0.950 . S
H265 C289 0.950 . S
H266 C290 0.950 . S
H267 C291 0.951 . S
H268 C293 0.951 . S
H269 C295 0.950 . S
H270 C296 0.950 . S
H271 C298 0.950 . S
H272 C301 0.950 . S
H273 C302 0.950 . S
H274 C304 0.950 . S
H275 C305 0.950 . S
C276 H258 0.951 . S
C276 C277 1.366 . S
C276 C278 1.388 . S
C277 C276 1.366 . S
C277 C281 1.385 . S
C278 H259 0.951 . S
C278 C276 1.388 . S
C278 C279 1.366 . S
C279 C278 1.366 . S
C279 C280 1.414 . S
C279 C282 1.499 . S
C280 H260 0.950 . S
C280 C279 1.414 . S
C280 C281 1.374 . S
C281 H261 0.950 . S
C281 C277 1.385 . S
C281 C280 1.374 . S
C282 C279 1.499 . S
C282 C283 1.373 . S
C282 C284 1.389 . S
C283 H262 0.950 . S
C283 C282 1.373 . S
C283 C299 1.377 . S
C284 C282 1.389 . S
C284 C285 1.524 . S
C284 C298 1.377 . S
C285 C284 1.524 . S
C285 C286 1.397 . S
C285 C290 1.363 . S
C286 H263 0.950 . S
C286 C285 1.397 . S
C286 C287 1.334 . S
C287 H264 0.950 . S
C287 C286 1.334 . S
C287 C288 1.287 . S
C288 C287 1.287 . S
C288 C289 1.524 . S
C288 H307 0.913 . S
C289 H265 0.950 . S
C289 C288 1.524 . S
C289 C290 1.415 . S
C290 H266 0.950 . S
C290 C285 1.363 . S
C290 C289 1.415 . S
C291 H267 0.951 . S
C291 C292 1.366 . S
C291 C293 1.388 . S
C292 C291 1.366 . S
C292 C296 1.385 . S
C293 H268 0.951 . S
C293 C291 1.388 . S
C293 C294 1.366 . S
C294 C293 1.366 . S
C294 C295 1.414 . S
C294 C297 1.499 . S
C295 H269 0.950 . S
C295 C294 1.414 . S
C295 C296 1.374 . S
C296 H270 0.950 . S
C296 C292 1.385 . S
C296 C295 1.374 . S
C297 C294 1.499 . S
C297 C298 1.373 . S
C297 C299 1.389 . S
C298 H271 0.950 . S
C298 C284 1.377 . S
C298 C297 1.373 . S
C299 C283 1.377 . S
C299 C297 1.389 . S
C299 C300 1.524 . S
C300 C299 1.524 . S
C300 C301 1.397 . S
C300 C305 1.363 . S
C301 H272 0.950 . S
C301 C300 1.397 . S
C301 C302 1.334 . S
C302 H273 0.950 . S
C302 C301 1.334 . S
C302 C303 1.287 . S
C303 C302 1.287 . S
C303 C304 1.524 . S
C303 H306 0.999 . S
C304 H274 0.950 . S
C304 C303 1.524 . S
C304 C305 1.415 . S
C305 H275 0.950 . S
C305 C300 1.363 . S
C305 C304 1.415 . S
H306 C303 0.999 . S
H307 C288 0.913 . S
H308 C326 0.951 . S
H309 C328 0.951 . S
H310 C330 0.950 . S
H311 C331 0.950 . S
H312 C333 0.950 . S
H313 C336 0.950 . S
H314 C337 0.950 . S
H315 C339 0.950 . S
H316 C340 0.950 . S
H317 C341 0.951 . S
H318 C343 0.951 . S
H319 C345 0.950 . S
H320 C346 0.950 . S
H321 C348 0.950 . S
H322 C351 0.950 . S
H323 C352 0.950 . S
H324 C354 0.950 . S
H325 C355 0.950 . S
C326 H308 0.951 . S
C326 C327 1.366 . S
C326 C328 1.388 . S
C327 C326 1.366 . S
C327 C331 1.385 . S
C328 H309 0.951 . S
C328 C326 1.388 . S
C328 C329 1.366 . S
C329 C328 1.366 . S
C329 C330 1.414 . S
C329 C332 1.499 . S
C330 H310 0.950 . S
C330 C329 1.414 . S
C330 C331 1.374 . S
C331 H311 0.950 . S
C331 C327 1.385 . S
C331 C330 1.374 . S
C332 C329 1.499 . S
C332 C333 1.373 . S
C332 C334 1.389 . S
C333 H312 0.950 . S
C333 C332 1.373 . S
C333 C349 1.377 . S
C334 C332 1.389 . S
C334 C335 1.524 . S
C334 C348 1.377 . S
C335 C334 1.524 . S
C335 C336 1.397 . S
C335 C340 1.363 . S
C336 H313 0.950 . S
C336 C335 1.397 . S
C336 C337 1.334 . S
C337 H314 0.950 . S
C337 C336 1.334 . S
C337 C338 1.287 . S
C338 C337 1.287 . S
C338 C339 1.524 . S
C338 H357 0.913 . S
C339 H315 0.950 . S
C339 C338 1.524 . S
C339 C340 1.415 . S
C340 H316 0.950 . S
C340 C335 1.363 . S
C340 C339 1.415 . S
C341 H317 0.951 . S
C341 C342 1.366 . S
C341 C343 1.388 . S
C342 C341 1.366 . S
C342 C346 1.385 . S
C343 H318 0.951 . S
C343 C341 1.388 . S
C343 C344 1.366 . S
C344 C343 1.366 . S
C344 C345 1.414 . S
C344 C347 1.499 . S
C345 H319 0.950 . S
C345 C344 1.414 . S
C345 C346 1.374 . S
C346 H320 0.950 . S
C346 C342 1.385 . S
C346 C345 1.374 . S
C347 C344 1.499 . S
C347 C348 1.373 . S
C347 C349 1.389 . S
C348 H321 0.950 . S
C348 C334 1.377 . S
C348 C347 1.373 . S
C349 C333 1.377 . S
C349 C347 1.389 . S
C349 C350 1.524 . S
C350 C349 1.524 . S
C350 C351 1.397 . S
C350 C355 1.363 . S
C351 H322 0.950 . S
C351 C350 1.397 . S
C351 C352 1.334 . S
C352 H323 0.950 . S
C352 C351 1.334 . S
C352 C353 1.287 . S
C353 C352 1.287 . S
C353 C354 1.524 . S
C353 H356 0.999 . S
C354 H324 0.950 . S
C354 C353 1.524 . S
C354 C355 1.415 . S
C355 H325 0.950 . S
C355 C350 1.363 . S
C355 C354 1.415 . S
H356 C353 0.999 . S
H357 C338 0.913 . S
H358 C376 0.951 . S
H359 C378 0.951 . S
H360 C380 0.950 . S
H361 C381 0.950 . S
H362 C383 0.950 . S
H363 C386 0.950 . S
H364 C387 0.950 . S
H365 C389 0.950 . S
H366 C390 0.950 . S
H367 C391 0.951 . S
H368 C393 0.951 . S
H369 C395 0.950 . S
H370 C396 0.950 . S
H371 C398 0.950 . S
H372 C401 0.950 . S
H373 C402 0.950 . S
H374 C404 0.950 . S
H375 C405 0.950 . S
C376 H358 0.951 . S
C376 C377 1.366 . S
C376 C378 1.388 . S
C377 C376 1.366 . S
C377 C381 1.385 . S
C378 H359 0.951 . S
C378 C376 1.388 . S
C378 C379 1.366 . S
C379 C378 1.366 . S
C379 C380 1.414 . S
C379 C382 1.499 . S
C380 H360 0.950 . S
C380 C379 1.414 . S
C380 C381 1.374 . S
C381 H361 0.950 . S
C381 C377 1.385 . S
C381 C380 1.374 . S
C382 C379 1.499 . S
C382 C383 1.373 . S
C382 C384 1.389 . S
C383 H362 0.950 . S
C383 C382 1.373 . S
C383 C399 1.377 1_455 S
C384 C382 1.389 . S
C384 C385 1.524 . S
C384 C398 1.377 1_455 S
C385 C384 1.524 . S
C385 C386 1.397 . S
C385 C390 1.363 . S
C386 H363 0.950 . S
C386 C385 1.397 . S
C386 C387 1.334 . S
C387 H364 0.950 . S
C387 C386 1.334 . S
C387 C388 1.287 . S
C388 C387 1.287 . S
C388 C389 1.524 . S
C388 H407 0.913 . S
C389 H365 0.950 . S
C389 C388 1.524 . S
C389 C390 1.415 . S
C390 H366 0.950 . S
C390 C385 1.363 . S
C390 C389 1.415 . S
C391 H367 0.951 . S
C391 C392 1.366 . S
C391 C393 1.388 . S
C392 C391 1.366 . S
C392 C396 1.385 . S
C393 H368 0.951 . S
C393 C391 1.388 . S
C393 C394 1.366 . S
C394 C393 1.366 . S
C394 C395 1.414 . S
C394 C397 1.499 . S
C395 H369 0.950 . S
C395 C394 1.414 . S
C395 C396 1.374 . S
C396 H370 0.950 . S
C396 C392 1.385 . S
C396 C395 1.374 . S
C397 C394 1.499 . S
C397 C398 1.373 . S
C397 C399 1.389 . S
C398 H371 0.950 . S
C398 C384 1.377 1_655 S
C398 C397 1.373 . S
C399 C383 1.377 1_655 S
C399 C397 1.389 . S
C399 C400 1.524 . S
C400 C399 1.524 . S
C400 C401 1.397 . S
C400 C405 1.363 . S
C401 H372 0.950 . S
C401 C400 1.397 . S
C401 C402 1.334 . S
C402 H373 0.950 . S
C402 C401 1.334 . S
C402 C403 1.287 . S
C403 C402 1.287 . S
C403 C404 1.524 . S
C403 H406 0.999 . S
C404 H374 0.950 . S
C404 C403 1.524 . S
C404 C405 1.415 . S
C405 H375 0.950 . S
C405 C400 1.363 . S
C405 C404 1.415 . S
H406 C403 0.999 . S
H407 C388 0.913 . S
H408 C426 0.951 . S
H409 C428 0.951 . S
H410 C430 0.950 . S
H411 C431 0.950 . S
H412 C433 0.950 . S
H413 C436 0.950 . S
H414 C437 0.950 . S
H415 C439 0.950 . S
H416 C440 0.950 . S
H417 C441 0.951 . S
H418 C443 0.951 . S
H419 C445 0.950 . S
H420 C446 0.950 . S
H421 C448 0.950 . S
H422 C451 0.950 . S
H423 C452 0.950 . S
H424 C454 0.950 . S
H425 C455 0.950 . S
C426 H408 0.951 . S
C426 C427 1.366 . S
C426 C428 1.388 . S
C427 C426 1.366 . S
C427 C431 1.385 . S
C428 H409 0.951 . S
C428 C426 1.388 . S
C428 C429 1.366 . S
C429 C428 1.366 . S
C429 C430 1.414 . S
C429 C432 1.499 . S
C430 H410 0.950 . S
C430 C429 1.414 . S
C430 C431 1.374 . S
C431 H411 0.950 . S
C431 C427 1.385 . S
C431 C430 1.374 . S
C432 C429 1.499 . S
C432 C433 1.373 . S
C432 C434 1.389 . S
C433 H412 0.950 . S
C433 C432 1.373 . S
C433 C449 1.377 . S
C434 C432 1.389 . S
C434 C435 1.524 . S
C434 C448 1.377 . S
C435 C434 1.524 . S
C435 C436 1.397 . S
C435 C440 1.363 . S
C436 H413 0.950 . S
C436 C435 1.397 . S
C436 C437 1.334 . S
C437 H414 0.950 . S
C437 C436 1.334 . S
C437 C438 1.287 . S
C438 C437 1.287 . S
C438 C439 1.524 . S
C438 H457 0.913 . S
C439 H415 0.950 . S
C439 C438 1.524 . S
C439 C440 1.415 . S
C440 H416 0.950 . S
C440 C435 1.363 . S
C440 C439 1.415 . S
C441 H417 0.951 . S
C441 C442 1.366 . S
C441 C443 1.388 . S
C442 C441 1.366 . S
C442 C446 1.385 . S
C443 H418 0.951 . S
C443 C441 1.388 . S
C443 C444 1.366 . S
C444 C443 1.366 . S
C444 C445 1.414 . S
C444 C447 1.499 . S
C445 H419 0.950 . S
C445 C444 1.414 . S
C445 C446 1.374 . S
C446 H420 0.950 . S
C446 C442 1.385 . S
C446 C445 1.374 . S
C447 C444 1.499 . S
C447 C448 1.373 . S
C447 C449 1.389 . S
C448 H421 0.950 . S
C448 C434 1.377 . S
C448 C447 1.373 . S
C449 C433 1.377 . S
C449 C447 1.389 . S
C449 C450 1.524 . S
C450 C449 1.524 . S
C450 C451 1.397 . S
C450 C455 1.363 . S
C451 H422 0.950 . S
C451 C450 1.397 . S
C451 C452 1.334 . S
C452 H423 0.950 . S
C452 C451 1.334 . S
C452 C453 1.287 . S
C453 C452 1.287 . S
C453 C454 1.524 . S
C453 H456 0.999 . S
C454 H424 0.950 . S
C454 C453 1.524 . S
C454 C455 1.415 . S
C455 H425 0.950 . S
C455 C450 1.363 . S
C455 C454 1.415 . S
H456 C453 0.999 . S
H457 C438 0.913 . S
H458 C476 0.951 . S
H459 C478 0.951 . S
H460 C480 0.950 . S
H461 C481 0.950 . S
H462 C483 0.950 . S
H463 C486 0.950 . S
H464 C487 0.950 . S
H465 C489 0.950 . S
H466 C490 0.950 . S
H467 C491 0.951 . S
H468 C493 0.951 . S
H469 C495 0.950 . S
H470 C496 0.950 . S
H471 C498 0.950 . S
H472 C501 0.950 . S
H473 C502 0.950 . S
H474 C504 0.950 . S
H475 C505 0.950 . S
C476 H458 0.951 . S
C476 C477 1.366 . S
C476 C478 1.388 . S
C477 C476 1.366 . S
C477 C481 1.385 . S
C478 H459 0.951 . S
C478 C476 1.388 . S
C478 C479 1.366 . S
C479 C478 1.366 . S
C479 C480 1.414 . S
C479 C482 1.499 . S
C480 H460 0.950 . S
C480 C479 1.414 . S
C480 C481 1.374 . S
C481 H461 0.950 . S
C481 C477 1.385 . S
C481 C480 1.374 . S
C482 C479 1.499 . S
C482 C483 1.373 . S
C482 C484 1.389 . S
C483 H462 0.950 . S
C483 C482 1.373 . S
C483 C499 1.377 1_655 S
C484 C482 1.389 . S
C484 C485 1.524 . S
C484 C498 1.377 1_655 S
C485 C484 1.524 . S
C485 C486 1.397 . S
C485 C490 1.363 . S
C486 H463 0.950 . S
C486 C485 1.397 . S
C486 C487 1.334 . S
C487 H464 0.950 . S
C487 C486 1.334 . S
C487 C488 1.287 . S
C488 C487 1.287 . S
C488 C489 1.524 . S
C488 H507 0.913 . S
C489 H465 0.950 . S
C489 C488 1.524 . S
C489 C490 1.415 . S
C490 H466 0.950 . S
C490 C485 1.363 . S
C490 C489 1.415 . S
C491 H467 0.951 . S
C491 C492 1.366 . S
C491 C493 1.388 . S
C492 C491 1.366 . S
C492 C496 1.385 . S
C493 H468 0.951 . S
C493 C491 1.388 . S
C493 C494 1.366 . S
C494 C493 1.366 . S
C494 C495 1.414 . S
C494 C497 1.499 . S
C495 H469 0.950 . S
C495 C494 1.414 . S
C495 C496 1.374 . S
C496 H470 0.950 . S
C496 C492 1.385 . S
C496 C495 1.374 . S
C497 C494 1.499 . S
C497 C498 1.373 . S
C497 C499 1.389 . S
C498 H471 0.950 . S
C498 C484 1.377 1_455 S
C498 C497 1.373 . S
C499 C483 1.377 1_455 S
C499 C497 1.389 . S
C499 C500 1.524 . S
C500 C499 1.524 . S
C500 C501 1.397 . S
C500 C505 1.363 . S
C501 H472 0.950 . S
C501 C500 1.397 . S
C501 C502 1.334 . S
C502 H473 0.950 . S
C502 C501 1.334 . S
C502 C503 1.287 . S
C503 C502 1.287 . S
C503 C504 1.524 . S
C503 H506 0.999 . S
C504 H474 0.950 . S
C504 C503 1.524 . S
C504 C505 1.415 . S
C505 H475 0.950 . S
C505 C500 1.363 . S
C505 C504 1.415 . S
H506 C503 0.999 . S
H507 C488 0.913 . S
H508 C526 0.951 . S
H509 C528 0.951 . S
H510 C530 0.950 . S
H511 C531 0.950 . S
H512 C533 0.950 . S
H513 C536 0.950 . S
H514 C537 0.950 . S
H515 C539 0.950 . S
H516 C540 0.950 . S
H517 C541 0.951 . S
H518 C543 0.951 . S
H519 C545 0.950 . S
H520 C546 0.950 . S
H521 C548 0.950 . S
H522 C551 0.950 . S
H523 C552 0.950 . S
H524 C554 0.950 . S
H525 C555 0.950 . S
C526 H508 0.951 . S
C526 C527 1.366 . S
C526 C528 1.388 . S
C527 C526 1.366 . S
C527 C531 1.385 . S
C528 H509 0.951 . S
C528 C526 1.388 . S
C528 C529 1.366 . S
C529 C528 1.366 . S
C529 C530 1.414 . S
C529 C532 1.499 . S
C530 H510 0.950 . S
C530 C529 1.414 . S
C530 C531 1.374 . S
C531 H511 0.950 . S
C531 C527 1.385 . S
C531 C530 1.374 . S
C532 C529 1.499 . S
C532 C533 1.373 . S
C532 C534 1.389 . S
C533 H512 0.950 . S
C533 C532 1.373 . S
C533 C549 1.377 . S
C534 C532 1.389 . S
C534 C535 1.524 . S
C534 C548 1.377 . S
C535 C534 1.524 . S
C535 C536 1.397 . S
C535 C540 1.363 . S
C536 H513 0.950 . S
C536 C535 1.397 . S
C536 C537 1.334 . S
C537 H514 0.950 . S
C537 C536 1.334 . S
C537 C538 1.287 . S
C538 C537 1.287 . S
C538 C539 1.524 . S
C538 H557 0.913 . S
C539 H515 0.950 . S
C539 C538 1.524 . S
C539 C540 1.415 . S
C540 H516 0.950 . S
C540 C535 1.363 . S
C540 C539 1.415 . S
C541 H517 0.951 . S
C541 C542 1.366 . S
C541 C543 1.388 . S
C542 C541 1.366 . S
C542 C546 1.385 . S
C543 H518 0.951 . S
C543 C541 1.388 . S
C543 C544 1.366 . S
C544 C543 1.366 . S
C544 C545 1.414 . S
C544 C547 1.499 . S
C545 H519 0.950 . S
C545 C544 1.414 . S
C545 C546 1.374 . S
C546 H520 0.950 . S
C546 C542 1.385 . S
C546 C545 1.374 . S
C547 C544 1.499 . S
C547 C548 1.373 . S
C547 C549 1.389 . S
C548 H521 0.950 . S
C548 C534 1.377 . S
C548 C547 1.373 . S
C549 C533 1.377 . S
C549 C547 1.389 . S
C549 C550 1.524 . S
C550 C549 1.524 . S
C550 C551 1.397 . S
C550 C555 1.363 . S
C551 H522 0.950 . S
C551 C550 1.397 . S
C551 C552 1.334 . S
C552 H523 0.950 . S
C552 C551 1.334 . S
C552 C553 1.287 . S
C553 C552 1.287 . S
C553 C554 1.524 . S
C553 H556 0.999 . S
C554 H524 0.950 . S
C554 C553 1.524 . S
C554 C555 1.415 . S
C555 H525 0.950 . S
C555 C550 1.363 . S
C555 C554 1.415 . S
H556 C553 0.999 . S
H557 C538 0.913 . S
H558 C576 0.951 . S
H559 C578 0.951 . S
H560 C580 0.950 . S
H561 C581 0.950 . S
H562 C583 0.950 . S
H563 C586 0.950 . S
H564 C587 0.950 . S
H565 C589 0.950 . S
H566 C590 0.950 . S
H567 C591 0.951 . S
H568 C593 0.951 . S
H569 C595 0.950 . S
H570 C596 0.950 . S
H571 C598 0.950 . S
H572 C601 0.950 . S
H573 C602 0.950 . S
H574 C604 0.950 . S
H575 C605 0.950 . S
C576 H558 0.951 . S
C576 C577 1.366 . S
C576 C578 1.388 . S
C577 C576 1.366 . S
C577 C581 1.385 . S
C578 H559 0.951 . S
C578 C576 1.388 . S
C578 C579 1.366 . S
C579 C578 1.366 . S
C579 C580 1.414 . S
C579 C582 1.499 . S
C580 H560 0.950 . S
C580 C579 1.414 . S
C580 C581 1.374 . S
C581 H561 0.950 . S
C581 C577 1.385 . S
C581 C580 1.374 . S
C582 C579 1.499 . S
C582 C583 1.373 . S
C582 C584 1.389 . S
C583 H562 0.950 . S
C583 C582 1.373 . S
C583 C599 1.377 . S
C584 C582 1.389 . S
C584 C585 1.524 . S
C584 C598 1.377 . S
C585 C584 1.524 . S
C585 C586 1.397 . S
C585 C590 1.363 . S
C586 H563 0.950 . S
C586 C585 1.397 . S
C586 C587 1.334 . S
C587 H564 0.950 . S
C587 C586 1.334 . S
C587 C588 1.287 . S
C588 C587 1.287 . S
C588 C589 1.524 . S
C588 H607 0.913 . S
C589 H565 0.950 . S
C589 C588 1.524 . S
C589 C590 1.415 . S
C590 H566 0.950 . S
C590 C585 1.363 . S
C590 C589 1.415 . S
C591 H567 0.951 . S
C591 C592 1.366 . S
C591 C593 1.388 . S
C592 C591 1.366 . S
C592 C596 1.385 . S
C593 H568 0.951 . S
C593 C591 1.388 . S
C593 C594 1.366 . S
C594 C593 1.366 . S
C594 C595 1.414 . S
C594 C597 1.499 . S
C595 H569 0.950 . S
C595 C594 1.414 . S
C595 C596 1.374 . S
C596 H570 0.950 . S
C596 C592 1.385 . S
C596 C595 1.374 . S
C597 C594 1.499 . S
C597 C598 1.373 . S
C597 C599 1.389 . S
C598 H571 0.950 . S
C598 C584 1.377 . S
C598 C597 1.373 . S
C599 C583 1.377 . S
C599 C597 1.389 . S
C599 C600 1.524 . S
C600 C599 1.524 . S
C600 C601 1.397 . S
C600 C605 1.363 . S
C601 H572 0.950 . S
C601 C600 1.397 . S
C601 C602 1.334 . S
C602 H573 0.950 . S
C602 C601 1.334 . S
C602 C603 1.287 . S
C603 C602 1.287 . S
C603 C604 1.524 . S
C603 H606 0.999 . S
C604 H574 0.950 . S
C604 C603 1.524 . S
C604 C605 1.415 . S
C605 H575 0.950 . S
C605 C600 1.363 . S
C605 C604 1.415 . S
H606 C603 0.999 . S
H607 C588 0.913 . S
H608 C626 0.951 . S
H609 C628 0.951 . S
H610 C630 0.950 . S
H611 C631 0.950 . S
H612 C633 0.950 . S
H613 C636 0.950 . S
H614 C637 0.950 . S
H615 C639 0.950 . S
H616 C640 0.950 . S
H617 C641 0.951 . S
H618 C643 0.951 . S
H619 C645 0.950 . S
H620 C646 0.950 . S
H621 C648 0.950 . S
H622 C651 0.950 . S
H623 C652 0.950 . S
H624 C654 0.950 . S
H625 C655 0.950 . S
C626 H608 0.951 . S
C626 C627 1.366 . S
C626 C628 1.388 . S
C627 C626 1.366 . S
C627 C631 1.385 . S
C628 H609 0.951 . S
C628 C626 1.388 . S
C628 C629 1.366 . S
C629 C628 1.366 . S
C629 C630 1.414 . S
C629 C632 1.499 . S
C630 H610 0.950 . S
C630 C629 1.414 . S
C630 C631 1.374 . S
C631 H611 0.950 . S
C631 C627 1.385 . S
C631 C630 1.374 . S
C632 C629 1.499 . S
C632 C633 1.373 . S
C632 C634 1.389 . S
C633 H612 0.950 . S
C633 C632 1.373 . S
C633 C649 1.377 . S
C634 C632 1.389 . S
C634 C635 1.524 . S
C634 C648 1.377 . S
C635 C634 1.524 . S
C635 C636 1.397 . S
C635 C640 1.363 . S
C636 H613 0.950 . S
C636 C635 1.397 . S
C636 C637 1.334 . S
C637 H614 0.950 . S
C637 C636 1.334 . S
C637 C638 1.287 . S
C638 C637 1.287 . S
C638 C639 1.524 . S
C638 H657 0.913 . S
C639 H615 0.950 . S
C639 C638 1.524 . S
C639 C640 1.415 . S
C640 H616 0.950 . S
C640 C635 1.363 . S
C640 C639 1.415 . S
C641 H617 0.951 . S
C641 C642 1.366 . S
C641 C643 1.388 . S
C642 C641 1.366 . S
C642 C646 1.385 . S
C643 H618 0.951 . S
C643 C641 1.388 . S
C643 C644 1.366 . S
C644 C643 1.366 . S
C644 C645 1.414 . S
C644 C647 1.499 . S
C645 H619 0.950 . S
C645 C644 1.414 . S
C645 C646 1.374 . S
C646 H620 0.950 . S
C646 C642 1.385 . S
C646 C645 1.374 . S
C647 C644 1.499 . S
C647 C648 1.373 . S
C647 C649 1.389 . S
C648 H621 0.950 . S
C648 C634 1.377 . S
C648 C647 1.373 . S
C649 C633 1.377 . S
C649 C647 1.389 . S
C649 C650 1.524 . S
C650 C649 1.524 . S
C650 C651 1.397 . S
C650 C655 1.363 . S
C651 H622 0.950 . S
C651 C650 1.397 . S
C651 C652 1.334 . S
C652 H623 0.950 . S
C652 C651 1.334 . S
C652 C653 1.287 . S
C653 C652 1.287 . S
C653 C654 1.524 . S
C653 H656 0.999 . S
C654 H624 0.950 . S
C654 C653 1.524 . S
C654 C655 1.415 . S
C655 H625 0.950 . S
C655 C650 1.363 . S
C655 C654 1.415 . S
H656 C653 0.999 . S
H657 C638 0.913 . S
H658 C676 0.951 . S
H659 C678 0.951 . S
H660 C680 0.950 . S
H661 C681 0.950 . S
H662 C683 0.950 . S
H663 C686 0.950 . S
H664 C687 0.950 . S
H665 C689 0.950 . S
H666 C690 0.950 . S
H667 C691 0.951 . S
H668 C693 0.951 . S
H669 C695 0.950 . S
H670 C696 0.950 . S
H671 C698 0.950 . S
H672 C701 0.950 . S
H673 C702 0.950 . S
H674 C704 0.950 . S
H675 C705 0.950 . S
C676 H658 0.951 . S
C676 C677 1.366 . S
C676 C678 1.388 . S
C677 C676 1.366 . S
C677 C681 1.385 . S
C678 H659 0.951 . S
C678 C676 1.388 . S
C678 C679 1.366 . S
C679 C678 1.366 . S
C679 C680 1.414 . S
C679 C682 1.499 . S
C680 H660 0.950 . S
C680 C679 1.414 . S
C680 C681 1.374 . S
C681 H661 0.950 . S
C681 C677 1.385 . S
C681 C680 1.374 . S
C682 C679 1.499 . S
C682 C683 1.373 . S
C682 C684 1.389 . S
C683 H662 0.950 . S
C683 C682 1.373 . S
C683 C699 1.377 . S
C684 C682 1.389 . S
C684 C685 1.524 . S
C684 C698 1.377 . S
C685 C684 1.524 . S
C685 C686 1.397 . S
C685 C690 1.363 . S
C686 H663 0.950 . S
C686 C685 1.397 . S
C686 C687 1.334 . S
C687 H664 0.950 . S
C687 C686 1.334 . S
C687 C688 1.287 . S
C688 C687 1.287 . S
C688 C689 1.524 . S
C688 H707 0.913 . S
C689 H665 0.950 . S
C689 C688 1.524 . S
C689 C690 1.415 . S
C690 H666 0.950 . S
C690 C685 1.363 . S
C690 C689 1.415 . S
C691 H667 0.951 . S
C691 C692 1.366 . S
C691 C693 1.388 . S
C692 C691 1.366 . S
C692 C696 1.385 . S
C693 H668 0.951 . S
C693 C691 1.388 . S
C693 C694 1.366 . S
C694 C693 1.366 . S
C694 C695 1.414 . S
C694 C697 1.499 . S
C695 H669 0.950 . S
C695 C694 1.414 . S
C695 C696 1.374 . S
C696 H670 0.950 . S
C696 C692 1.385 . S
C696 C695 1.374 . S
C697 C694 1.499 . S
C697 C698 1.373 . S
C697 C699 1.389 . S
C698 H671 0.950 . S
C698 C684 1.377 . S
C698 C697 1.373 . S
C699 C683 1.377 . S
C699 C697 1.389 . S
C699 C700 1.524 . S
C700 C699 1.524 . S
C700 C701 1.397 . S
C700 C705 1.363 . S
C701 H672 0.950 . S
C701 C700 1.397 . S
C701 C702 1.334 . S
C702 H673 0.950 . S
C702 C701 1.334 . S
C702 C703 1.287 . S
C703 C702 1.287 . S
C703 C704 1.524 . S
C703 H706 0.999 . S
C704 H674 0.950 . S
C704 C703 1.524 . S
C704 C705 1.415 . S
C705 H675 0.950 . S
C705 C700 1.363 . S
C705 C704 1.415 . S
H706 C703 0.999 . S
H707 C688 0.913 . S
H708 C726 0.951 . S
H709 C728 0.951 . S
H710 C730 0.950 . S
H711 C731 0.950 . S
H712 C733 0.950 . S
H713 C736 0.950 . S
H714 C737 0.950 . S
H715 C739 0.950 . S
H716 C740 0.950 . S
H717 C741 0.951 . S
H718 C743 0.951 . S
H719 C745 0.950 . S
H720 C746 0.950 . S
H721 C748 0.950 . S
H722 C751 0.950 . S
H723 C752 0.950 . S
H724 C754 0.950 . S
H725 C755 0.950 . S
C726 H708 0.951 . S
C726 C727 1.366 . S
C726 C728 1.388 . S
C727 C726 1.366 . S
C727 C731 1.385 . S
C728 H709 0.951 . S
C728 C726 1.388 . S
C728 C729 1.366 . S
C729 C728 1.366 . S
C729 C730 1.414 . S
C729 C732 1.499 . S
C730 H710 0.950 . S
C730 C729 1.414 . S
C730 C731 1.374 . S
C731 H711 0.950 . S
C731 C727 1.385 . S
C731 C730 1.374 . S
C732 C729 1.499 . S
C732 C733 1.373 . S
C732 C734 1.389 . S
C733 H712 0.950 . S
C733 C732 1.373 . S
C733 C749 1.377 . S
C734 C732 1.389 . S
C734 C735 1.524 . S
C734 C748 1.377 . S
C735 C734 1.524 . S
C735 C736 1.397 . S
C735 C740 1.363 . S
C736 H713 0.950 . S
C736 C735 1.397 . S
C736 C737 1.334 . S
C737 H714 0.950 . S
C737 C736 1.334 . S
C737 C738 1.287 . S
C738 C737 1.287 . S
C738 C739 1.524 . S
C738 H757 0.913 . S
C739 H715 0.950 . S
C739 C738 1.524 . S
C739 C740 1.415 . S
C740 H716 0.950 . S
C740 C735 1.363 . S
C740 C739 1.415 . S
C741 H717 0.951 . S
C741 C742 1.366 . S
C741 C743 1.388 . S
C742 C741 1.366 . S
C742 C746 1.385 . S
C743 H718 0.951 . S
C743 C741 1.388 . S
C743 C744 1.366 . S
C744 C743 1.366 . S
C744 C745 1.414 . S
C744 C747 1.499 . S
C745 H719 0.950 . S
C745 C744 1.414 . S
C745 C746 1.374 . S
C746 H720 0.950 . S
C746 C742 1.385 . S
C746 C745 1.374 . S
C747 C744 1.499 . S
C747 C748 1.373 . S
C747 C749 1.389 . S
C748 H721 0.950 . S
C748 C734 1.377 . S
C748 C747 1.373 . S
C749 C733 1.377 . S
C749 C747 1.389 . S
C749 C750 1.524 . S
C750 C749 1.524 . S
C750 C751 1.397 . S
C750 C755 1.363 . S
C751 H722 0.950 . S
C751 C750 1.397 . S
C751 C752 1.334 . S
C752 H723 0.950 . S
C752 C751 1.334 . S
C752 C753 1.287 . S
C753 C752 1.287 . S
C753 C754 1.524 . S
C753 H756 0.999 . S
C754 H724 0.950 . S
C754 C753 1.524 . S
C754 C755 1.415 . S
C755 H725 0.950 . S
C755 C750 1.363 . S
C755 C754 1.415 . S
H756 C753 0.999 . S
H757 C738 0.913 . S
H758 C776 0.951 . S
H759 C778 0.951 . S
H760 C780 0.950 . S
H761 C781 0.950 . S
H762 C783 0.950 . S
H763 C786 0.950 . S
H764 C787 0.950 . S
H765 C789 0.950 . S
H766 C790 0.950 . S
H767 C791 0.951 . S
H768 C793 0.951 . S
H769 C795 0.950 . S
H770 C796 0.950 . S
H771 C798 0.950 . S
H772 C801 0.950 . S
H773 C802 0.950 . S
H774 C804 0.950 . S
H775 C805 0.950 . S
C776 H758 0.951 . S
C776 C777 1.366 . S
C776 C778 1.388 . S
C777 C776 1.366 . S
C777 C781 1.385 . S
C778 H759 0.951 . S
C778 C776 1.388 . S
C778 C779 1.366 . S
C779 C778 1.366 . S
C779 C780 1.414 . S
C779 C782 1.499 . S
C780 H760 0.950 . S
C780 C779 1.414 . S
C780 C781 1.374 . S
C781 H761 0.950 . S
C781 C777 1.385 . S
C781 C780 1.374 . S
C782 C779 1.499 . S
C782 C783 1.373 . S
C782 C784 1.389 . S
C783 H762 0.950 . S
C783 C782 1.373 . S
C783 C799 1.377 . S
C784 C782 1.389 . S
C784 C785 1.524 . S
C784 C798 1.377 . S
C785 C784 1.524 . S
C785 C786 1.397 . S
C785 C790 1.363 . S
C786 H763 0.950 . S
C786 C785 1.397 . S
C786 C787 1.334 . S
C787 H764 0.950 . S
C787 C786 1.334 . S
C787 C788 1.287 . S
C788 C787 1.287 . S
C788 C789 1.524 . S
C788 H807 0.913 . S
C789 H765 0.950 . S
C789 C788 1.524 . S
C789 C790 1.415 . S
C790 H766 0.950 . S
C790 C785 1.363 . S
C790 C789 1.415 . S
C791 H767 0.951 . S
C791 C792 1.366 . S
C791 C793 1.388 . S
C792 C791 1.366 . S
C792 C796 1.385 . S
C793 H768 0.951 . S
C793 C791 1.388 . S
C793 C794 1.366 . S
C794 C793 1.366 . S
C794 C795 1.414 . S
C794 C797 1.499 . S
C795 H769 0.950 . S
C795 C794 1.414 . S
C795 C796 1.374 . S
C796 H770 0.950 . S
C796 C792 1.385 . S
C796 C795 1.374 . S
C797 C794 1.499 . S
C797 C798 1.373 . S
C797 C799 1.389 . S
C798 H771 0.950 . S
C798 C784 1.377 . S
C798 C797 1.373 . S
C799 C783 1.377 . S
C799 C797 1.389 . S
C799 C800 1.524 . S
C800 C799 1.524 . S
C800 C801 1.397 . S
C800 C805 1.363 . S
C801 H772 0.950 . S
C801 C800 1.397 . S
C801 C802 1.334 . S
C802 H773 0.950 . S
C802 C801 1.334 . S
C802 C803 1.287 . S
C803 C802 1.287 . S
C803 C804 1.524 . S
C803 H806 0.999 . S
C804 H774 0.950 . S
C804 C803 1.524 . S
C804 C805 1.415 . S
C805 H775 0.950 . S
C805 C800 1.363 . S
C805 C804 1.415 . S
H806 C803 0.999 . S
H807 C788 0.913 . S
H808 C826 0.951 . S
H809 C828 0.951 . S
H810 C830 0.950 . S
H811 C831 0.950 . S
H812 C833 0.950 . S
H813 C836 0.950 . S
H814 C837 0.950 . S
H815 C839 0.950 . S
H816 C840 0.950 . S
H817 C841 0.951 . S
H818 C843 0.951 . S
H819 C845 0.950 . S
H820 C846 0.950 . S
H821 C848 0.950 . S
H822 C851 0.950 . S
H823 C852 0.950 . S
H824 C854 0.950 . S
H825 C855 0.950 . S
C826 H808 0.951 . S
C826 C827 1.366 . S
C826 C828 1.388 . S
C827 C826 1.366 . S
C827 C831 1.385 . S
C828 H809 0.951 . S
C828 C826 1.388 . S
C828 C829 1.366 . S
C829 C828 1.366 . S
C829 C830 1.414 . S
C829 C832 1.499 . S
C830 H810 0.950 . S
C830 C829 1.414 . S
C830 C831 1.374 . S
C831 H811 0.950 . S
C831 C827 1.385 . S
C831 C830 1.374 . S
C832 C829 1.499 . S
C832 C833 1.373 . S
C832 C834 1.389 . S
C833 H812 0.950 . S
C833 C832 1.373 . S
C833 C849 1.377 1_455 S
C834 C832 1.389 . S
C834 C835 1.524 . S
C834 C848 1.377 1_455 S
C835 C834 1.524 . S
C835 C836 1.397 . S
C835 C840 1.363 . S
C836 H813 0.950 . S
C836 C835 1.397 . S
C836 C837 1.334 . S
C837 H814 0.950 . S
C837 C836 1.334 . S
C837 C838 1.287 . S
C838 C837 1.287 . S
C838 C839 1.524 . S
C838 H857 0.913 . S
C839 H815 0.950 . S
C839 C838 1.524 . S
C839 C840 1.415 . S
C840 H816 0.950 . S
C840 C835 1.363 . S
C840 C839 1.415 . S
C841 H817 0.951 . S
C841 C842 1.366 . S
C841 C843 1.388 . S
C842 C841 1.366 . S
C842 C846 1.385 . S
C843 H818 0.951 . S
C843 C841 1.388 . S
C843 C844 1.366 . S
C844 C843 1.366 . S
C844 C845 1.414 . S
C844 C847 1.499 . S
C845 H819 0.950 . S
C845 C844 1.414 . S
C845 C846 1.374 . S
C846 H820 0.950 . S
C846 C842 1.385 . S
C846 C845 1.374 . S
C847 C844 1.499 . S
C847 C848 1.373 . S
C847 C849 1.389 . S
C848 H821 0.950 . S
C848 C834 1.377 1_655 S
C848 C847 1.373 . S
C849 C833 1.377 1_655 S
C849 C847 1.389 . S
C849 C850 1.524 . S
C850 C849 1.524 . S
C850 C851 1.397 . S
C850 C855 1.363 . S
C851 H822 0.950 . S
C851 C850 1.397 . S
C851 C852 1.334 . S
C852 H823 0.950 . S
C852 C851 1.334 . S
C852 C853 1.287 . S
C853 C852 1.287 . S
C853 C854 1.524 . S
C853 H856 0.999 . S
C854 H824 0.950 . S
C854 C853 1.524 . S
C854 C855 1.415 . S
C855 H825 0.950 . S
C855 C850 1.363 . S
C855 C854 1.415 . S
H856 C853 0.999 . S
H857 C838 0.913 . S
H858 C876 0.951 . S
H859 C878 0.951 . S
H860 C880 0.950 . S
H861 C881 0.950 . S
H862 C883 0.950 . S
H863 C886 0.950 . S
H864 C887 0.950 . S
H865 C889 0.950 . S
H866 C890 0.950 . S
H867 C891 0.951 . S
H868 C893 0.951 . S
H869 C895 0.950 . S
H870 C896 0.950 . S
H871 C898 0.950 . S
H872 C901 0.950 . S
H873 C902 0.950 . S
H874 C904 0.950 . S
H875 C905 0.950 . S
C876 H858 0.951 . S
C876 C877 1.366 . S
C876 C878 1.388 . S
C877 C876 1.366 . S
C877 C881 1.385 . S
C878 H859 0.951 . S
C878 C876 1.388 . S
C878 C879 1.366 . S
C879 C878 1.366 . S
C879 C880 1.414 . S
C879 C882 1.499 . S
C880 H860 0.950 . S
C880 C879 1.414 . S
C880 C881 1.374 . S
C881 H861 0.950 . S
C881 C877 1.385 . S
C881 C880 1.374 . S
C882 C879 1.499 . S
C882 C883 1.373 . S
C882 C884 1.389 . S
C883 H862 0.950 . S
C883 C882 1.373 . S
C883 C899 1.377 . S
C884 C882 1.389 . S
C884 C885 1.524 . S
C884 C898 1.377 . S
C885 C884 1.524 . S
C885 C886 1.397 . S
C885 C890 1.363 . S
C886 H863 0.950 . S
C886 C885 1.397 . S
C886 C887 1.334 . S
C887 H864 0.950 . S
C887 C886 1.334 . S
C887 C888 1.287 . S
C888 C887 1.287 . S
C888 C889 1.524 . S
C888 H907 0.913 . S
C889 H865 0.950 . S
C889 C888 1.524 . S
C889 C890 1.415 . S
C890 H866 0.950 . S
C890 C885 1.363 . S
C890 C889 1.415 . S
C891 H867 0.951 . S
C891 C892 1.366 . S
C891 C893 1.388 . S
C892 C891 1.366 . S
C892 C896 1.385 . S
C893 H868 0.951 . S
C893 C891 1.388 . S
C893 C894 1.366 . S
C894 C893 1.366 . S
C894 C895 1.414 . S
C894 C897 1.499 . S
C895 H869 0.950 . S
C895 C894 1.414 . S
C895 C896 1.374 . S
C896 H870 0.950 . S
C896 C892 1.385 . S
C896 C895 1.374 . S
C897 C894 1.499 . S
C897 C898 1.373 . S
C897 C899 1.389 . S
C898 H871 0.950 . S
C898 C884 1.377 . S
C898 C897 1.373 . S
C899 C883 1.377 . S
C899 C897 1.389 . S
C899 C900 1.524 . S
C900 C899 1.524 . S
C900 C901 1.397 . S
C900 C905 1.363 . S
C901 H872 0.950 . S
C901 C900 1.397 . S
C901 C902 1.334 . S
C902 H873 0.950 . S
C902 C901 1.334 . S
C902 C903 1.287 . S
C903 C902 1.287 . S
C903 C904 1.524 . S
C903 H906 0.999 . S
C904 H874 0.950 . S
C904 C903 1.524 . S
C904 C905 1.415 . S
C905 H875 0.950 . S
C905 C900 1.363 . S
C905 C904 1.415 . S
H906 C903 0.999 . S
H907 C888 0.913 . S
H908 C926 0.951 . S
H909 C928 0.951 . S
H910 C930 0.950 . S
H911 C931 0.950 . S
H912 C933 0.950 . S
H913 C936 0.950 . S
H914 C937 0.950 . S
H915 C939 0.950 . S
H916 C940 0.950 . S
H917 C941 0.951 . S
H918 C943 0.951 . S
H919 C945 0.950 . S
H920 C946 0.950 . S
H921 C948 0.950 . S
H922 C951 0.950 . S
H923 C952 0.950 . S
H924 C954 0.950 . S
H925 C955 0.950 . S
C926 H908 0.951 . S
C926 C927 1.366 . S
C926 C928 1.388 . S
C927 C926 1.366 . S
C927 C931 1.385 . S
C928 H909 0.951 . S
C928 C926 1.388 . S
C928 C929 1.366 . S
C929 C928 1.366 . S
C929 C930 1.414 . S
C929 C932 1.499 . S
C930 H910 0.950 . S
C930 C929 1.414 . S
C930 C931 1.374 . S
C931 H911 0.950 . S
C931 C927 1.385 . S
C931 C930 1.374 . S
C932 C929 1.499 . S
C932 C933 1.373 . S
C932 C934 1.389 . S
C933 H912 0.950 . S
C933 C932 1.373 . S
C933 C949 1.377 . S
C934 C932 1.389 . S
C934 C935 1.524 . S
C934 C948 1.377 . S
C935 C934 1.524 . S
C935 C936 1.397 . S
C935 C940 1.363 . S
C936 H913 0.950 . S
C936 C935 1.397 . S
C936 C937 1.334 . S
C937 H914 0.950 . S
C937 C936 1.334 . S
C937 C938 1.287 . S
C938 C937 1.287 . S
C938 C939 1.524 . S
C938 H957 0.913 . S
C939 H915 0.950 . S
C939 C938 1.524 . S
C939 C940 1.415 . S
C940 H916 0.950 . S
C940 C935 1.363 . S
C940 C939 1.415 . S
C941 H917 0.951 . S
C941 C942 1.366 . S
C941 C943 1.388 . S
C942 C941 1.366 . S
C942 C946 1.385 . S
C943 H918 0.951 . S
C943 C941 1.388 . S
C943 C944 1.366 . S
C944 C943 1.366 . S
C944 C945 1.414 . S
C944 C947 1.499 . S
C945 H919 0.950 . S
C945 C944 1.414 . S
C945 C946 1.374 . S
C946 H920 0.950 . S
C946 C942 1.385 . S
C946 C945 1.374 . S
C947 C944 1.499 . S
C947 C948 1.373 . S
C947 C949 1.389 . S
C948 H921 0.950 . S
C948 C934 1.377 . S
C948 C947 1.373 . S
C949 C933 1.377 . S
C949 C947 1.389 . S
C949 C950 1.524 . S
C950 C949 1.524 . S
C950 C951 1.397 . S
C950 C955 1.363 . S
C951 H922 0.950 . S
C951 C950 1.397 . S
C951 C952 1.334 . S
C952 H923 0.950 . S
C952 C951 1.334 . S
C952 C953 1.287 . S
C953 C952 1.287 . S
C953 C954 1.524 . S
C953 H956 0.999 . S
C954 H924 0.950 . S
C954 C953 1.524 . S
C954 C955 1.415 . S
C955 H925 0.950 . S
C955 C950 1.363 . S
C955 C954 1.415 . S
H956 C953 0.999 . S
H957 C938 0.913 . S
H958 C976 0.951 . S
H959 C978 0.951 . S
H960 C980 0.950 . S
H961 C981 0.950 . S
H962 C983 0.950 . S
H963 C986 0.950 . S
H964 C987 0.950 . S
H965 C989 0.950 . S
H966 C990 0.950 . S
H967 C991 0.951 . S
H968 C993 0.951 . S
H969 C995 0.950 . S
H970 C996 0.950 . S
H971 C998 0.950 . S
H972 C1001 0.950 . S
H973 C1002 0.950 . S
H974 C1004 0.950 . S
H975 C1005 0.950 . S
C976 H958 0.951 . S
C976 C977 1.366 . S
C976 C978 1.388 . S
C977 C976 1.366 . S
C977 C981 1.385 . S
C978 H959 0.951 . S
C978 C976 1.388 . S
C978 C979 1.366 . S
C979 C978 1.366 . S
C979 C980 1.414 . S
C979 C982 1.499 . S
C980 H960 0.950 . S
C980 C979 1.414 . S
C980 C981 1.374 . S
C981 H961 0.950 . S
C981 C977 1.385 . S
C981 C980 1.374 . S
C982 C979 1.499 . S
C982 C983 1.373 . S
C982 C984 1.389 . S
C983 H962 0.950 . S
C983 C982 1.373 . S
C983 C999 1.377 1_455 S
C984 C982 1.389 . S
C984 C985 1.524 . S
C984 C998 1.377 1_455 S
C985 C984 1.524 . S
C985 C986 1.397 . S
C985 C990 1.363 . S
C986 H963 0.950 . S
C986 C985 1.397 . S
C986 C987 1.334 . S
C987 H964 0.950 . S
C987 C986 1.334 . S
C987 C988 1.287 . S
C988 C987 1.287 . S
C988 C989 1.524 . S
C988 H1007 0.913 . S
C989 H965 0.950 . S
C989 C988 1.524 . S
C989 C990 1.415 . S
C990 H966 0.950 . S
C990 C985 1.363 . S
C990 C989 1.415 . S
C991 H967 0.951 . S
C991 C992 1.366 . S
C991 C993 1.388 . S
C992 C991 1.366 . S
C992 C996 1.385 . S
C993 H968 0.951 . S
C993 C991 1.388 . S
C993 C994 1.366 . S
C994 C993 1.366 . S
C994 C995 1.414 . S
C994 C997 1.499 . S
C995 H969 0.950 . S
C995 C994 1.414 . S
C995 C996 1.374 . S
C996 H970 0.950 . S
C996 C992 1.385 . S
C996 C995 1.374 . S
C997 C994 1.499 . S
C997 C998 1.373 . S
C997 C999 1.389 . S
C998 H971 0.950 . S
C998 C984 1.377 1_655 S
C998 C997 1.373 . S
C999 C983 1.377 1_655 S
C999 C997 1.389 . S
C999 C1000 1.524 . S
C1000 C999 1.524 . S
C1000 C1001 1.397 . S
C1000 C1005 1.363 . S
C1001 H972 0.950 . S
C1001 C1000 1.397 . S
C1001 C1002 1.334 . S
C1002 H973 0.950 . S
C1002 C1001 1.334 . S
C1002 C1003 1.287 . S
C1003 C1002 1.287 . S
C1003 C1004 1.524 . S
C1003 H1006 0.999 . S
C1004 H974 0.950 . S
C1004 C1003 1.524 . S
C1004 C1005 1.415 . S
C1005 H975 0.950 . S
C1005 C1000 1.363 . S
C1005 C1004 1.415 . S
H1006 C1003 0.999 . S
H1007 C988 0.913 . S
H1008 C1026 0.951 . S
H1009 C1028 0.951 . S
H1010 C1030 0.950 . S
H1011 C1031 0.950 . S
H1012 C1033 0.950 . S
H1013 C1036 0.950 . S
H1014 C1037 0.950 . S
H1015 C1039 0.950 1_556 S
H1016 C1040 0.988 . S
H1017 C1041 0.951 . S
H1018 C1043 0.951 . S
H1019 C1045 0.950 . S
H1020 C1046 0.950 . S
H1021 C1048 0.950 . S
H1022 C1051 0.950 . S
H1023 C1052 0.950 . S
H1024 C1054 0.950 1_554 S
H1025 C1055 0.974 . S
C1026 H1008 0.951 . S
C1026 C1027 1.366 . S
C1026 C1028 1.388 . S
C1027 C1026 1.366 . S
C1027 C1031 1.385 . S
C1028 H1009 0.951 . S
C1028 C1026 1.388 . S
C1028 C1029 1.366 . S
C1029 C1028 1.366 . S
C1029 C1030 1.414 . S
C1029 C1032 1.499 . S
C1030 H1010 0.950 . S
C1030 C1029 1.414 . S
C1030 C1031 1.374 . S
C1031 H1011 0.950 . S
C1031 C1027 1.385 . S
C1031 C1030 1.374 . S
C1032 C1029 1.499 . S
C1032 C1033 1.373 . S
C1032 C1034 1.389 . S
C1033 H1012 0.950 . S
C1033 C1032 1.373 . S
C1033 C1049 1.377 1_554 S
C1034 C1032 1.389 . S
C1034 C1035 1.524 . S
C1034 C1048 1.377 1_554 S
C1035 C1034 1.524 . S
C1035 C1036 1.397 . S
C1035 C1040 1.338 1_554 S
C1036 H1013 0.950 . S
C1036 C1035 1.397 . S
C1036 C1037 1.334 . S
C1037 H1014 0.950 . S
C1037 C1036 1.334 . S
C1037 C1038 1.287 . S
C1038 C1037 1.287 . S
C1038 C1039 1.524 . S
C1038 H1057 0.913 . S
C1039 H1015 0.950 1_554 S
C1039 C1038 1.524 . S
C1039 C1040 1.404 1_554 S
C1040 H1016 0.988 . S
C1040 C1035 1.338 1_556 S
C1040 C1039 1.404 1_556 S
C1041 H1017 0.951 . S
C1041 C1042 1.366 . S
C1041 C1043 1.388 . S
C1042 C1041 1.366 . S
C1042 C1046 1.385 . S
C1043 H1018 0.951 . S
C1043 C1041 1.388 . S
C1043 C1044 1.366 . S
C1044 C1043 1.366 . S
C1044 C1045 1.414 . S
C1044 C1047 1.499 . S
C1045 H1019 0.950 . S
C1045 C1044 1.414 . S
C1045 C1046 1.374 . S
C1046 H1020 0.950 . S
C1046 C1042 1.385 . S
C1046 C1045 1.374 . S
C1047 C1044 1.499 . S
C1047 C1048 1.373 . S
C1047 C1049 1.389 . S
C1048 H1021 0.950 . S
C1048 C1034 1.377 1_556 S
C1048 C1047 1.373 . S
C1049 C1033 1.377 1_556 S
C1049 C1047 1.389 . S
C1049 C1050 1.524 . S
C1050 C1049 1.524 . S
C1050 C1051 1.397 . S
C1050 C1055 1.347 1_556 S
C1051 H1022 0.950 . S
C1051 C1050 1.397 . S
C1051 C1052 1.334 . S
C1052 H1023 0.950 . S
C1052 C1051 1.334 . S
C1052 C1053 1.287 . S
C1053 C1052 1.287 . S
C1053 C1054 1.524 . S
C1053 H1056 0.999 . S
C1054 H1024 0.950 1_556 S
C1054 C1053 1.524 . S
C1054 C1055 1.408 1_556 S
C1055 H1025 0.974 . S
C1055 C1050 1.347 1_554 S
C1055 C1054 1.408 1_554 S
H1056 C1053 0.999 . S
H1057 C1038 0.913 . S
H1058 C1076 0.951 . S
H1059 C1078 0.951 . S
H1060 C1080 0.950 . S
H1061 C1081 0.950 . S
H1062 C1083 0.950 . S
H1063 C1086 0.950 . S
H1064 C1087 0.950 . S
H1065 C1089 0.950 . S
H1066 C1090 0.950 . S
H1067 C1091 0.951 . S
H1068 C1093 0.951 . S
H1069 C1095 0.950 . S
H1070 C1096 0.950 . S
H1071 C1098 0.950 . S
H1072 C1101 0.950 . S
H1073 C1102 0.950 . S
H1074 C1104 0.950 . S
H1075 C1105 0.950 . S
C1076 H1058 0.951 . S
C1076 C1077 1.366 . S
C1076 C1078 1.388 . S
C1077 C1076 1.366 . S
C1077 C1081 1.385 . S
C1078 H1059 0.951 . S
C1078 C1076 1.388 . S
C1078 C1079 1.366 . S
C1079 C1078 1.366 . S
C1079 C1080 1.414 . S
C1079 C1082 1.499 . S
C1080 H1060 0.950 . S
C1080 C1079 1.414 . S
C1080 C1081 1.374 . S
C1081 H1061 0.950 . S
C1081 C1077 1.385 . S
C1081 C1080 1.374 . S
C1082 C1079 1.499 . S
C1082 C1083 1.373 . S
C1082 C1084 1.389 . S
C1083 H1062 0.950 . S
C1083 C1082 1.373 . S
C1083 C1099 1.377 . S
C1084 C1082 1.389 . S
C1084 C1085 1.524 . S
C1084 C1098 1.377 . S
C1085 C1084 1.524 . S
C1085 C1086 1.397 . S
C1085 C1090 1.363 . S
C1086 H1063 0.950 . S
C1086 C1085 1.397 . S
C1086 C1087 1.334 . S
C1087 H1064 0.950 . S
C1087 C1086 1.334 . S
C1087 C1088 1.287 . S
C1088 C1087 1.287 . S
C1088 C1089 1.524 . S
C1088 H1107 0.913 . S
C1089 H1065 0.950 . S
C1089 C1088 1.524 . S
C1089 C1090 1.415 . S
C1090 H1066 0.950 . S
C1090 C1085 1.363 . S
C1090 C1089 1.415 . S
C1091 H1067 0.951 . S
C1091 C1092 1.366 . S
C1091 C1093 1.388 . S
C1092 C1091 1.366 . S
C1092 C1096 1.385 . S
C1093 H1068 0.951 . S
C1093 C1091 1.388 . S
C1093 C1094 1.366 . S
C1094 C1093 1.366 . S
C1094 C1095 1.414 . S
C1094 C1097 1.499 . S
C1095 H1069 0.950 . S
C1095 C1094 1.414 . S
C1095 C1096 1.374 . S
C1096 H1070 0.950 . S
C1096 C1092 1.385 . S
C1096 C1095 1.374 . S
C1097 C1094 1.499 . S
C1097 C1098 1.373 . S
C1097 C1099 1.389 . S
C1098 H1071 0.950 . S
C1098 C1084 1.377 . S
C1098 C1097 1.373 . S
C1099 C1083 1.377 . S
C1099 C1097 1.389 . S
C1099 C1100 1.524 . S
C1100 C1099 1.524 . S
C1100 C1101 1.397 . S
C1100 C1105 1.363 . S
C1101 H1072 0.950 . S
C1101 C1100 1.397 . S
C1101 C1102 1.334 . S
C1102 H1073 0.950 . S
C1102 C1101 1.334 . S
C1102 C1103 1.287 . S
C1103 C1102 1.287 . S
C1103 C1104 1.524 . S
C1103 H1106 0.999 . S
C1104 H1074 0.950 . S
C1104 C1103 1.524 . S
C1104 C1105 1.415 . S
C1105 H1075 0.950 . S
C1105 C1100 1.363 . S
C1105 C1104 1.415 . S
H1106 C1103 0.999 . S
H1107 C1088 0.913 . S
H1108 C1126 0.951 . S
H1109 C1128 0.951 . S
H1110 C1130 0.950 . S
H1111 C1131 0.950 . S
H1112 C1133 0.950 . S
H1113 C1136 0.950 . S
H1114 C1137 0.950 . S
H1115 C1139 0.950 . S
H1116 C1140 0.950 . S
H1117 C1141 0.951 . S
H1118 C1143 0.951 . S
H1119 C1145 0.950 . S
H1120 C1146 0.950 . S
H1121 C1148 0.950 . S
H1122 C1151 0.950 . S
H1123 C1152 0.950 . S
H1124 C1154 0.950 . S
H1125 C1155 0.950 . S
C1126 H1108 0.951 . S
C1126 C1127 1.366 . S
C1126 C1128 1.388 . S
C1127 C1126 1.366 . S
C1127 C1131 1.385 . S
C1128 H1109 0.951 . S
C1128 C1126 1.388 . S
C1128 C1129 1.366 . S
C1129 C1128 1.366 . S
C1129 C1130 1.414 . S
C1129 C1132 1.499 . S
C1130 H1110 0.950 . S
C1130 C1129 1.414 . S
C1130 C1131 1.374 . S
C1131 H1111 0.950 . S
C1131 C1127 1.385 . S
C1131 C1130 1.374 . S
C1132 C1129 1.499 . S
C1132 C1133 1.373 . S
C1132 C1134 1.389 . S
C1133 H1112 0.950 . S
C1133 C1132 1.373 . S
C1133 C1149 1.377 . S
C1134 C1132 1.389 . S
C1134 C1135 1.524 . S
C1134 C1148 1.377 . S
C1135 C1134 1.524 . S
C1135 C1136 1.397 . S
C1135 C1140 1.363 . S
C1136 H1113 0.950 . S
C1136 C1135 1.397 . S
C1136 C1137 1.334 . S
C1137 H1114 0.950 . S
C1137 C1136 1.334 . S
C1137 C1138 1.287 . S
C1138 C1137 1.287 . S
C1138 C1139 1.524 . S
C1138 H1157 0.913 . S
C1139 H1115 0.950 . S
C1139 C1138 1.524 . S
C1139 C1140 1.415 . S
C1140 H1116 0.950 . S
C1140 C1135 1.363 . S
C1140 C1139 1.415 . S
C1141 H1117 0.951 . S
C1141 C1142 1.366 . S
C1141 C1143 1.388 . S
C1142 C1141 1.366 . S
C1142 C1146 1.385 . S
C1143 H1118 0.951 . S
C1143 C1141 1.388 . S
C1143 C1144 1.366 . S
C1144 C1143 1.366 . S
C1144 C1145 1.414 . S
C1144 C1147 1.499 . S
C1145 H1119 0.950 . S
C1145 C1144 1.414 . S
C1145 C1146 1.374 . S
C1146 H1120 0.950 . S
C1146 C1142 1.385 . S
C1146 C1145 1.374 . S
C1147 C1144 1.499 . S
C1147 C1148 1.373 . S
C1147 C1149 1.389 . S
C1148 H1121 0.950 . S
C1148 C1134 1.377 . S
C1148 C1147 1.373 . S
C1149 C1133 1.377 . S
C1149 C1147 1.389 . S
C1149 C1150 1.524 . S
C1150 C1149 1.524 . S
C1150 C1151 1.397 . S
C1150 C1155 1.363 . S
C1151 H1122 0.950 . S
C1151 C1150 1.397 . S
C1151 C1152 1.334 . S
C1152 H1123 0.950 . S
C1152 C1151 1.334 . S
C1152 C1153 1.287 . S
C1153 C1152 1.287 . S
C1153 C1154 1.524 . S
C1153 H1156 0.999 . S
C1154 H1124 0.950 . S
C1154 C1153 1.524 . S
C1154 C1155 1.415 . S
C1155 H1125 0.950 . S
C1155 C1150 1.363 . S
C1155 C1154 1.415 . S
H1156 C1153 0.999 . S
H1157 C1138 0.913 . S
H1158 C1176 0.951 . S
H1159 C1178 0.951 . S
H1160 C1180 0.950 . S
H1161 C1181 0.950 . S
H1162 C1183 0.950 . S
H1163 C1186 0.950 . S
H1164 C1187 0.950 . S
H1165 C1189 0.950 . S
H1166 C1190 0.950 . S
H1167 C1191 0.951 . S
H1168 C1193 0.951 . S
H1169 C1195 0.950 . S
H1170 C1196 0.950 . S
H1171 C1198 0.950 . S
H1172 C1201 0.950 . S
H1173 C1202 0.950 . S
H1174 C1204 0.950 . S
H1175 C1205 0.950 . S
C1176 H1158 0.951 . S
C1176 C1177 1.366 . S
C1176 C1178 1.388 . S
C1177 C1176 1.366 . S
C1177 C1181 1.385 . S
C1178 H1159 0.951 . S
C1178 C1176 1.388 . S
C1178 C1179 1.366 . S
C1179 C1178 1.366 . S
C1179 C1180 1.414 . S
C1179 C1182 1.499 . S
C1180 H1160 0.950 . S
C1180 C1179 1.414 . S
C1180 C1181 1.374 . S
C1181 H1161 0.950 . S
C1181 C1177 1.385 . S
C1181 C1180 1.374 . S
C1182 C1179 1.499 . S
C1182 C1183 1.373 . S
C1182 C1184 1.389 . S
C1183 H1162 0.950 . S
C1183 C1182 1.373 . S
C1183 C1199 1.377 . S
C1184 C1182 1.389 . S
C1184 C1185 1.524 . S
C1184 C1198 1.377 . S
C1185 C1184 1.524 . S
C1185 C1186 1.397 . S
C1185 C1190 1.363 . S
C1186 H1163 0.950 . S
C1186 C1185 1.397 . S
C1186 C1187 1.334 . S
C1187 H1164 0.950 . S
C1187 C1186 1.334 . S
C1187 C1188 1.287 . S
C1188 C1187 1.287 . S
C1188 C1189 1.524 . S
C1188 H1207 0.913 . S
C1189 H1165 0.950 . S
C1189 C1188 1.524 . S
C1189 C1190 1.415 . S
C1190 H1166 0.950 . S
C1190 C1185 1.363 . S
C1190 C1189 1.415 . S
C1191 H1167 0.951 . S
C1191 C1192 1.366 . S
C1191 C1193 1.388 . S
C1192 C1191 1.366 . S
C1192 C1196 1.385 . S
C1193 H1168 0.951 . S
C1193 C1191 1.388 . S
C1193 C1194 1.366 . S
C1194 C1193 1.366 . S
C1194 C1195 1.414 . S
C1194 C1197 1.499 . S
C1195 H1169 0.950 . S
C1195 C1194 1.414 . S
C1195 C1196 1.374 . S
C1196 H1170 0.950 . S
C1196 C1192 1.385 . S
C1196 C1195 1.374 . S
C1197 C1194 1.499 . S
C1197 C1198 1.373 . S
C1197 C1199 1.389 . S
C1198 H1171 0.950 . S
C1198 C1184 1.377 . S
C1198 C1197 1.373 . S
C1199 C1183 1.377 . S
C1199 C1197 1.389 . S
C1199 C1200 1.524 . S
C1200 C1199 1.524 . S
C1200 C1201 1.397 . S
C1200 C1205 1.363 . S
C1201 H1172 0.950 . S
C1201 C1200 1.397 . S
C1201 C1202 1.334 . S
C1202 H1173 0.950 . S
C1202 C1201 1.334 . S
C1202 C1203 1.287 . S
C1203 C1202 1.287 . S
C1203 C1204 1.524 . S
C1203 H1206 0.999 . S
C1204 H1174 0.950 . S
C1204 C1203 1.524 . S
C1204 C1205 1.415 . S
C1205 H1175 0.950 . S
C1205 C1200 1.363 . S
C1205 C1204 1.415 . S
H1206 C1203 0.999 . S
H1207 C1188 0.913 . S
H1208 C1226 0.951 . S
H1209 C1228 0.951 . S
H1210 C1230 0.950 . S
H1211 C1231 0.950 . S
H1212 C1233 0.950 . S
H1213 C1236 0.950 . S
H1214 C1237 0.950 . S
H1215 C1239 0.950 . S
H1216 C1240 0.950 . S
H1217 C1241 0.951 . S
H1218 C1243 0.951 . S
H1219 C1245 0.950 . S
H1220 C1246 0.950 . S
H1221 C1248 0.950 . S
H1222 C1251 0.950 . S
H1223 C1252 0.950 . S
H1224 C1254 0.950 . S
H1225 C1255 0.950 . S
C1226 H1208 0.951 . S
C1226 C1227 1.366 . S
C1226 C1228 1.388 . S
C1227 C1226 1.366 . S
C1227 C1231 1.385 . S
C1228 H1209 0.951 . S
C1228 C1226 1.388 . S
C1228 C1229 1.366 . S
C1229 C1228 1.366 . S
C1229 C1230 1.414 . S
C1229 C1232 1.499 . S
C1230 H1210 0.950 . S
C1230 C1229 1.414 . S
C1230 C1231 1.374 . S
C1231 H1211 0.950 . S
C1231 C1227 1.385 . S
C1231 C1230 1.374 . S
C1232 C1229 1.499 . S
C1232 C1233 1.373 1_556 S
C1232 C1234 1.389 . S
C1233 H1212 0.950 . S
C1233 C1232 1.373 1_554 S
C1233 C1249 1.377 . S
C1234 C1232 1.389 . S
C1234 C1235 1.524 . S
C1234 C1248 1.377 . S
C1235 C1234 1.524 . S
C1235 C1236 1.397 . S
C1235 C1240 1.363 . S
C1236 H1213 0.950 . S
C1236 C1235 1.397 . S
C1236 C1237 1.334 . S
C1237 H1214 0.950 . S
C1237 C1236 1.334 . S
C1237 C1238 1.287 . S
C1238 C1237 1.287 . S
C1238 C1239 1.524 . S
C1238 H1257 0.913 . S
C1239 H1215 0.950 . S
C1239 C1238 1.524 . S
C1239 C1240 1.415 . S
C1240 H1216 0.950 . S
C1240 C1235 1.363 . S
C1240 C1239 1.415 . S
C1241 H1217 0.951 . S
C1241 C1242 1.366 . S
C1241 C1243 1.388 . S
C1242 C1241 1.366 . S
C1242 C1246 1.385 . S
C1243 H1218 0.951 . S
C1243 C1241 1.388 . S
C1243 C1244 1.366 . S
C1244 C1243 1.366 . S
C1244 C1245 1.414 . S
C1244 C1247 1.499 . S
C1245 H1219 0.950 . S
C1245 C1244 1.414 . S
C1245 C1246 1.374 . S
C1246 H1220 0.950 . S
C1246 C1242 1.385 . S
C1246 C1245 1.374 . S
C1247 C1244 1.499 . S
C1247 C1248 1.373 1_554 S
C1247 C1249 1.389 . S
C1248 H1221 0.950 . S
C1248 C1234 1.377 . S
C1248 C1247 1.373 1_556 S
C1249 C1233 1.377 . S
C1249 C1247 1.389 . S
C1249 C1250 1.524 . S
C1250 C1249 1.524 . S
C1250 C1251 1.397 . S
C1250 C1255 1.363 . S
C1251 H1222 0.950 . S
C1251 C1250 1.397 . S
C1251 C1252 1.334 . S
C1252 H1223 0.950 . S
C1252 C1251 1.334 . S
C1252 C1253 1.287 . S
C1253 C1252 1.287 . S
C1253 C1254 1.524 . S
C1253 H1256 0.999 . S
C1254 H1224 0.950 . S
C1254 C1253 1.524 . S
C1254 C1255 1.415 . S
C1255 H1225 0.950 . S
C1255 C1250 1.363 . S
C1255 C1254 1.415 . S
H1256 C1253 0.999 . S
H1257 C1238 0.913 . S
H1258 C1276 0.951 . S
H1259 C1278 0.951 . S
H1260 C1280 0.950 . S
H1261 C1281 0.950 . S
H1262 C1283 0.950 . S
H1263 C1286 0.950 . S
H1264 C1287 0.950 . S
H1265 C1289 0.950 . S
H1266 C1290 0.950 . S
H1267 C1291 0.951 . S
H1268 C1293 0.951 . S
H1269 C1295 0.950 . S
H1270 C1296 0.950 . S
H1271 C1298 0.950 . S
H1272 C1301 0.950 . S
H1273 C1302 0.950 . S
H1274 C1304 0.950 . S
H1275 C1305 0.950 . S
C1276 H1258 0.951 . S
C1276 C1277 1.366 . S
C1276 C1278 1.388 . S
C1277 C1276 1.366 . S
C1277 C1281 1.385 . S
C1278 H1259 0.951 . S
C1278 C1276 1.388 . S
C1278 C1279 1.366 . S
C1279 C1278 1.366 . S
C1279 C1280 1.414 . S
C1279 C1282 1.499 . S
C1280 H1260 0.950 . S
C1280 C1279 1.414 . S
C1280 C1281 1.374 . S
C1281 H1261 0.950 . S
C1281 C1277 1.385 . S
C1281 C1280 1.374 . S
C1282 C1279 1.499 . S
C1282 C1283 1.373 . S
C1282 C1284 1.389 . S
C1283 H1262 0.950 . S
C1283 C1282 1.373 . S
C1283 C1299 1.377 . S
C1284 C1282 1.389 . S
C1284 C1285 1.524 . S
C1284 C1298 1.377 . S
C1285 C1284 1.524 . S
C1285 C1286 1.397 . S
C1285 C1290 1.363 . S
C1286 H1263 0.950 . S
C1286 C1285 1.397 . S
C1286 C1287 1.334 . S
C1287 H1264 0.950 . S
C1287 C1286 1.334 . S
C1287 C1288 1.287 . S
C1288 C1287 1.287 . S
C1288 C1289 1.524 . S
C1288 H1307 0.913 . S
C1289 H1265 0.950 . S
C1289 C1288 1.524 . S
C1289 C1290 1.415 . S
C1290 H1266 0.950 . S
C1290 C1285 1.363 . S
C1290 C1289 1.415 . S
C1291 H1267 0.951 . S
C1291 C1292 1.366 . S
C1291 C1293 1.388 . S
C1292 C1291 1.366 . S
C1292 C1296 1.385 . S
C1293 H1268 0.951 . S
C1293 C1291 1.388 . S
C1293 C1294 1.366 . S
C1294 C1293 1.366 . S
C1294 C1295 1.414 . S
C1294 C1297 1.499 . S
C1295 H1269 0.950 . S
C1295 C1294 1.414 . S
C1295 C1296 1.374 . S
C1296 H1270 0.950 . S
C1296 C1292 1.385 . S
C1296 C1295 1.374 . S
C1297 C1294 1.499 . S
C1297 C1298 1.373 . S
C1297 C1299 1.389 . S
C1298 H1271 0.950 . S
C1298 C1284 1.377 . S
C1298 C1297 1.373 . S
C1299 C1283 1.377 . S
C1299 C1297 1.389 . S
C1299 C1300 1.524 . S
C1300 C1299 1.524 . S
C1300 C1301 1.397 . S
C1300 C1305 1.363 . S
C1301 H1272 0.950 . S
C1301 C1300 1.397 . S
C1301 C1302 1.334 . S
C1302 H1273 0.950 . S
C1302 C1301 1.334 . S
C1302 C1303 1.287 . S
C1303 C1302 1.287 . S
C1303 C1304 1.524 . S
C1303 H1306 0.999 . S
C1304 H1274 0.950 . S
C1304 C1303 1.524 . S
C1304 C1305 1.415 . S
C1305 H1275 0.950 . S
C1305 C1300 1.363 . S
C1305 C1304 1.415 . S
H1306 C1303 0.999 . S
H1307 C1288 0.913 . S
H1308 C1326 0.951 . S
H1309 C1328 0.951 . S
H1310 C1330 0.950 . S
H1311 C1331 0.950 . S
H1312 C1333 0.950 . S
H1313 C1336 0.950 . S
H1314 C1337 0.950 . S
H1315 C1339 0.950 . S
H1316 C1340 0.950 . S
H1317 C1341 0.951 . S
H1318 C1343 0.951 . S
H1319 C1345 0.950 . S
H1320 C1346 0.950 . S
H1321 C1348 0.950 . S
H1322 C1351 0.950 . S
H1323 C1352 0.950 . S
H1324 C1354 0.950 . S
H1325 C1355 0.950 . S
C1326 H1308 0.951 . S
C1326 C1327 1.366 . S
C1326 C1328 1.388 . S
C1327 C1326 1.366 . S
C1327 C1331 1.385 . S
C1328 H1309 0.951 . S
C1328 C1326 1.388 . S
C1328 C1329 1.366 . S
C1329 C1328 1.366 . S
C1329 C1330 1.414 . S
C1329 C1332 1.499 . S
C1330 H1310 0.950 . S
C1330 C1329 1.414 . S
C1330 C1331 1.374 . S
C1331 H1311 0.950 . S
C1331 C1327 1.385 . S
C1331 C1330 1.374 . S
C1332 C1329 1.499 . S
C1332 C1333 1.373 . S
C1332 C1334 1.389 . S
C1333 H1312 0.950 . S
C1333 C1332 1.373 . S
C1333 C1349 1.377 . S
C1334 C1332 1.389 . S
C1334 C1335 1.524 . S
C1334 C1348 1.377 . S
C1335 C1334 1.524 . S
C1335 C1336 1.397 . S
C1335 C1340 1.363 . S
C1336 H1313 0.950 . S
C1336 C1335 1.397 . S
C1336 C1337 1.334 . S
C1337 H1314 0.950 . S
C1337 C1336 1.334 . S
C1337 C1338 1.287 . S
C1338 C1337 1.287 . S
C1338 C1339 1.524 . S
C1338 H1357 0.913 . S
C1339 H1315 0.950 . S
C1339 C1338 1.524 . S
C1339 C1340 1.415 . S
C1340 H1316 0.950 . S
C1340 C1335 1.363 . S
C1340 C1339 1.415 . S
C1341 H1317 0.951 . S
C1341 C1342 1.366 . S
C1341 C1343 1.388 . S
C1342 C1341 1.366 . S
C1342 C1346 1.385 . S
C1343 H1318 0.951 . S
C1343 C1341 1.388 . S
C1343 C1344 1.366 . S
C1344 C1343 1.366 . S
C1344 C1345 1.414 . S
C1344 C1347 1.499 . S
C1345 H1319 0.950 . S
C1345 C1344 1.414 . S
C1345 C1346 1.374 . S
C1346 H1320 0.950 . S
C1346 C1342 1.385 . S
C1346 C1345 1.374 . S
C1347 C1344 1.499 . S
C1347 C1348 1.373 . S
C1347 C1349 1.389 . S
C1348 H1321 0.950 . S
C1348 C1334 1.377 . S
C1348 C1347 1.373 . S
C1349 C1333 1.377 . S
C1349 C1347 1.389 . S
C1349 C1350 1.524 . S
C1350 C1349 1.524 . S
C1350 C1351 1.397 . S
C1350 C1355 1.363 . S
C1351 H1322 0.950 . S
C1351 C1350 1.397 . S
C1351 C1352 1.334 . S
C1352 H1323 0.950 . S
C1352 C1351 1.334 . S
C1352 C1353 1.287 . S
C1353 C1352 1.287 . S
C1353 C1354 1.524 . S
C1353 H1356 0.999 . S
C1354 H1324 0.950 . S
C1354 C1353 1.524 . S
C1354 C1355 1.415 . S
C1355 H1325 0.950 . S
C1355 C1350 1.363 . S
C1355 C1354 1.415 . S
H1356 C1353 0.999 . S
H1357 C1338 0.913 . S
H1358 C1376 0.951 . S
H1359 C1378 0.951 . S
H1360 C1380 0.950 . S
H1361 C1381 0.950 . S
H1362 C1383 0.950 . S
H1363 C1386 0.950 . S
H1364 C1387 0.950 . S
H1365 C1389 0.950 . S
H1366 C1390 0.950 . S
H1367 C1391 0.951 . S
H1368 C1393 0.951 . S
H1369 C1395 0.950 . S
H1370 C1396 0.950 . S
H1371 C1398 0.950 . S
H1372 C1401 0.950 . S
H1373 C1402 0.950 . S
H1374 C1404 0.950 . S
H1375 C1405 0.950 . S
C1376 H1358 0.951 . S
C1376 C1377 1.366 . S
C1376 C1378 1.388 . S
C1377 C1376 1.366 . S
C1377 C1381 1.385 . S
C1378 H1359 0.951 . S
C1378 C1376 1.388 . S
C1378 C1379 1.366 . S
C1379 C1378 1.366 . S
C1379 C1380 1.414 . S
C1379 C1382 1.499 . S
C1380 H1360 0.950 . S
C1380 C1379 1.414 . S
C1380 C1381 1.374 . S
C1381 H1361 0.950 . S
C1381 C1377 1.385 . S
C1381 C1380 1.374 . S
C1382 C1379 1.499 . S
C1382 C1383 1.373 . S
C1382 C1384 1.389 . S
C1383 H1362 0.950 . S
C1383 C1382 1.373 . S
C1383 C1399 1.377 . S
C1384 C1382 1.389 . S
C1384 C1385 1.524 . S
C1384 C1398 1.377 . S
C1385 C1384 1.524 . S
C1385 C1386 1.397 . S
C1385 C1390 1.363 . S
C1386 H1363 0.950 . S
C1386 C1385 1.397 . S
C1386 C1387 1.334 . S
C1387 H1364 0.950 . S
C1387 C1386 1.334 . S
C1387 C1388 1.287 . S
C1388 C1387 1.287 . S
C1388 C1389 1.524 . S
C1388 H1407 0.913 . S
C1389 H1365 0.950 . S
C1389 C1388 1.524 . S
C1389 C1390 1.415 . S
C1390 H1366 0.950 . S
C1390 C1385 1.363 . S
C1390 C1389 1.415 . S
C1391 H1367 0.951 . S
C1391 C1392 1.366 . S
C1391 C1393 1.388 . S
C1392 C1391 1.366 . S
C1392 C1396 1.385 . S
C1393 H1368 0.951 . S
C1393 C1391 1.388 . S
C1393 C1394 1.366 . S
C1394 C1393 1.366 . S
C1394 C1395 1.414 . S
C1394 C1397 1.499 . S
C1395 H1369 0.950 . S
C1395 C1394 1.414 . S
C1395 C1396 1.374 . S
C1396 H1370 0.950 . S
C1396 C1392 1.385 . S
C1396 C1395 1.374 . S
C1397 C1394 1.499 . S
C1397 C1398 1.373 . S
C1397 C1399 1.389 . S
C1398 H1371 0.950 . S
C1398 C1384 1.377 . S
C1398 C1397 1.373 . S
C1399 C1383 1.377 . S
C1399 C1397 1.389 . S
C1399 C1400 1.524 . S
C1400 C1399 1.524 . S
C1400 C1401 1.397 . S
C1400 C1405 1.363 . S
C1401 H1372 0.950 . S
C1401 C1400 1.397 . S
C1401 C1402 1.334 . S
C1402 H1373 0.950 . S
C1402 C1401 1.334 . S
C1402 C1403 1.287 . S
C1403 C1402 1.287 . S
C1403 C1404 1.524 . S
C1403 H1406 0.999 . S
C1404 H1374 0.950 . S
C1404 C1403 1.524 . S
C1404 C1405 1.415 . S
C1405 H1375 0.950 . S
C1405 C1400 1.363 . S
C1405 C1404 1.415 . S
H1406 C1403 0.999 . S
H1407 C1388 0.913 . S
H1408 C1426 0.951 . S
H1409 C1428 0.951 . S
H1410 C1430 0.950 . S
H1411 C1431 0.950 . S
H1412 C1433 0.950 . S
H1413 C1436 0.950 . S
H1414 C1437 0.950 . S
H1415 C1439 0.950 . S
H1416 C1440 0.950 . S
H1417 C1441 0.951 . S
H1418 C1443 0.951 . S
H1419 C1445 0.950 . S
H1420 C1446 0.950 . S
H1421 C1448 0.950 . S
H1422 C1451 0.950 . S
H1423 C1452 0.950 . S
H1424 C1454 0.950 . S
H1425 C1455 0.950 . S
C1426 H1408 0.951 . S
C1426 C1427 1.366 . S
C1426 C1428 1.388 . S
C1427 C1426 1.366 . S
C1427 C1431 1.385 . S
C1428 H1409 0.951 . S
C1428 C1426 1.388 . S
C1428 C1429 1.366 . S
C1429 C1428 1.366 . S
C1429 C1430 1.414 . S
C1429 C1432 1.499 . S
C1430 H1410 0.950 . S
C1430 C1429 1.414 . S
C1430 C1431 1.374 . S
C1431 H1411 0.950 . S
C1431 C1427 1.385 . S
C1431 C1430 1.374 . S
C1432 C1429 1.499 . S
C1432 C1433 1.373 . S
C1432 C1434 1.389 . S
C1433 H1412 0.950 . S
C1433 C1432 1.373 . S
C1433 C1449 1.377 1_545 S
C1434 C1432 1.389 . S
C1434 C1435 1.524 . S
C1434 C1448 1.377 1_545 S
C1435 C1434 1.524 . S
C1435 C1436 1.397 . S
C1435 C1440 1.363 . S
C1436 H1413 0.950 . S
C1436 C1435 1.397 . S
C1436 C1437 1.334 . S
C1437 H1414 0.950 . S
C1437 C1436 1.334 . S
C1437 C1438 1.287 . S
C1438 C1437 1.287 . S
C1438 C1439 1.524 . S
C1438 H1457 0.913 . S
C1439 H1415 0.950 . S
C1439 C1438 1.524 . S
C1439 C1440 1.415 . S
C1440 H1416 0.950 . S
C1440 C1435 1.363 . S
C1440 C1439 1.415 . S
C1441 H1417 0.951 . S
C1441 C1442 1.366 . S
C1441 C1443 1.388 . S
C1442 C1441 1.366 . S
C1442 C1446 1.385 . S
C1443 H1418 0.951 . S
C1443 C1441 1.388 . S
C1443 C1444 1.366 . S
C1444 C1443 1.366 . S
C1444 C1445 1.414 . S
C1444 C1447 1.499 . S
C1445 H1419 0.950 . S
C1445 C1444 1.414 . S
C1445 C1446 1.374 . S
C1446 H1420 0.950 . S
C1446 C1442 1.385 . S
C1446 C1445 1.374 . S
C1447 C1444 1.499 . S
C1447 C1448 1.373 . S
C1447 C1449 1.389 . S
C1448 H1421 0.950 . S
C1448 C1434 1.377 1_565 S
C1448 C1447 1.373 . S
C1449 C1433 1.377 1_565 S
C1449 C1447 1.389 . S
C1449 C1450 1.524 . S
C1450 C1449 1.524 . S
C1450 C1451 1.397 . S
C1450 C1455 1.363 . S
C1451 H1422 0.950 . S
C1451 C1450 1.397 . S
C1451 C1452 1.334 . S
C1452 H1423 0.950 . S
C1452 C1451 1.334 . S
C1452 C1453 1.287 . S
C1453 C1452 1.287 . S
C1453 C1454 1.524 . S
C1453 H1456 0.999 . S
C1454 H1424 0.950 . S
C1454 C1453 1.524 . S
C1454 C1455 1.415 . S
C1455 H1425 0.950 . S
C1455 C1450 1.363 . S
C1455 C1454 1.415 . S
H1456 C1453 0.999 . S
H1457 C1438 0.913 . S
H1458 C1476 0.951 . S
H1459 C1478 0.951 . S
H1460 C1480 0.950 . S
H1461 C1481 0.950 . S
H1462 C1483 0.950 . S
H1463 C1486 0.950 . S
H1464 C1487 0.950 . S
H1465 C1489 0.950 . S
H1466 C1490 0.950 . S
H1467 C1491 0.951 . S
H1468 C1493 0.951 . S
H1469 C1495 0.950 . S
H1470 C1496 0.950 . S
H1471 C1498 0.950 . S
H1472 C1501 0.950 . S
H1473 C1502 0.950 . S
H1474 C1504 0.950 . S
H1475 C1505 0.950 . S
C1476 H1458 0.951 . S
C1476 C1477 1.366 . S
C1476 C1478 1.388 . S
C1477 C1476 1.366 . S
C1477 C1481 1.385 . S
C1478 H1459 0.951 . S
C1478 C1476 1.388 . S
C1478 C1479 1.366 . S
C1479 C1478 1.366 . S
C1479 C1480 1.414 . S
C1479 C1482 1.499 . S
C1480 H1460 0.950 . S
C1480 C1479 1.414 . S
C1480 C1481 1.374 . S
C1481 H1461 0.950 . S
C1481 C1477 1.385 . S
C1481 C1480 1.374 . S
C1482 C1479 1.499 . S
C1482 C1483 1.373 . S
C1482 C1484 1.389 . S
C1483 H1462 0.950 . S
C1483 C1482 1.373 . S
C1483 C1499 1.377 . S
C1484 C1482 1.389 . S
C1484 C1485 1.524 . S
C1484 C1498 1.377 . S
C1485 C1484 1.524 . S
C1485 C1486 1.397 . S
C1485 C1490 1.363 . S
C1486 H1463 0.950 . S
C1486 C1485 1.397 . S
C1486 C1487 1.334 . S
C1487 H1464 0.950 . S
C1487 C1486 1.334 . S
C1487 C1488 1.287 . S
C1488 C1487 1.287 . S
C1488 C1489 1.524 . S
C1488 H1507 0.913 . S
C1489 H1465 0.950 . S
C1489 C1488 1.524 . S
C1489 C1490 1.415 . S
C1490 H1466 0.950 . S
C1490 C1485 1.363 . S
C1490 C1489 1.415 . S
C1491 H1467 0.951 . S
C1491 C1492 1.366 . S
C1491 C1493 1.388 . S
C1492 C1491 1.366 . S
C1492 C1496 1.385 . S
C1493 H1468 0.951 . S
C1493 C1491 1.388 . S
C1493 C1494 1.366 . S
C1494 C1493 1.366 . S
C1494 C1495 1.414 . S
C1494 C1497 1.499 . S
C1495 H1469 0.950 . S
C1495 C1494 1.414 . S
C1495 C1496 1.374 . S
C1496 H1470 0.950 . S
C1496 C1492 1.385 . S
C1496 C1495 1.374 . S
C1497 C1494 1.499 . S
C1497 C1498 1.373 . S
C1497 C1499 1.389 . S
C1498 H1471 0.950 . S
C1498 C1484 1.377 . S
C1498 C1497 1.373 . S
C1499 C1483 1.377 . S
C1499 C1497 1.389 . S
C1499 C1500 1.524 . S
C1500 C1499 1.524 . S
C1500 C1501 1.397 . S
C1500 C1505 1.363 . S
C1501 H1472 0.950 . S
C1501 C1500 1.397 . S
C1501 C1502 1.334 . S
C1502 H1473 0.950 . S
C1502 C1501 1.334 . S
C1502 C1503 1.287 . S
C1503 C1502 1.287 . S
C1503 C1504 1.524 . S
C1503 H1506 0.999 . S
C1504 H1474 0.950 . S
C1504 C1503 1.524 . S
C1504 C1505 1.415 . S
C1505 H1475 0.950 . S
C1505 C1500 1.363 . S
C1505 C1504 1.415 . S
H1506 C1503 0.999 . S
H1507 C1488 0.913 . S
H1508 C1526 0.951 . S
H1509 C1528 0.951 . S
H1510 C1530 0.950 . S
H1511 C1531 0.950 . S
H1512 C1533 0.950 . S
H1513 C1536 0.950 . S
H1514 C1537 0.950 . S
H1515 C1539 0.950 . S
H1516 C1540 0.957 . S
H1517 C1541 0.951 . S
H1518 C1543 0.951 . S
H1519 C1545 0.950 . S
H1520 C1546 0.950 . S
H1521 C1548 0.950 . S
H1522 C1551 0.950 . S
H1523 C1552 0.950 . S
H1524 C1554 0.948 1_554 S
H1525 C1555 0.950 . S
C1526 H1508 0.951 . S
C1526 C1527 1.366 . S
C1526 C1528 1.388 . S
C1527 C1526 1.366 . S
C1527 C1531 1.385 . S
C1528 H1509 0.951 . S
C1528 C1526 1.388 . S
C1528 C1529 1.366 . S
C1529 C1528 1.366 . S
C1529 C1530 1.414 . S
C1529 C1532 1.499 . S
C1530 H1510 0.950 . S
C1530 C1529 1.414 . S
C1530 C1531 1.374 . S
C1531 H1511 0.950 . S
C1531 C1527 1.385 . S
C1531 C1530 1.374 . S
C1532 C1529 1.499 . S
C1532 C1533 1.373 . S
C1532 C1534 1.392 . S
C1533 H1512 0.950 . S
C1533 C1532 1.373 . S
C1533 C1549 1.360 1_546 S
C1534 C1532 1.392 . S
C1534 C1535 1.524 1_556 S
C1534 C1548 1.373 1_546 S
C1535 C1534 1.524 1_554 S
C1535 C1536 1.397 . S
C1535 C1540 1.360 1_554 S
C1536 H1513 0.950 . S
C1536 C1535 1.397 . S
C1536 C1537 1.334 . S
C1537 H1514 0.950 . S
C1537 C1536 1.334 . S
C1537 C1538 1.287 . S
C1538 C1537 1.287 . S
C1538 C1539 1.524 . S
C1538 H1557 0.913 . S
C1539 H1515 0.950 . S
C1539 C1538 1.524 . S
C1539 C1540 1.412 1_554 S
C1540 H1516 0.957 . S
C1540 C1535 1.360 1_556 S
C1540 C1539 1.412 1_556 S
C1541 H1517 0.951 . S
C1541 C1542 1.366 . S
C1541 C1543 1.388 . S
C1542 C1541 1.366 . S
C1542 C1546 1.385 . S
C1543 H1518 0.951 . S
C1543 C1541 1.388 . S
C1543 C1544 1.366 . S
C1544 C1543 1.366 . S
C1544 C1545 1.414 . S
C1544 C1547 1.499 . S
C1545 H1519 0.950 . S
C1545 C1544 1.414 . S
C1545 C1546 1.374 . S
C1546 H1520 0.950 . S
C1546 C1542 1.385 . S
C1546 C1545 1.374 . S
C1547 C1544 1.499 . S
C1547 C1548 1.373 . S
C1547 C1549 1.406 . S
C1548 H1521 0.950 . S
C1548 C1534 1.373 1_564 S
C1548 C1547 1.373 . S
C1549 C1533 1.360 1_564 S
C1549 C1547 1.406 . S
C1549 C1550 1.522 1_554 S
C1550 C1549 1.522 1_556 S
C1550 C1551 1.397 . S
C1550 C1555 1.363 1_556 S
C1551 H1522 0.950 . S
C1551 C1550 1.397 . S
C1551 C1552 1.334 . S
C1552 H1523 0.950 . S
C1552 C1551 1.334 . S
C1552 C1553 1.287 . S
C1553 C1552 1.287 . S
C1553 C1554 1.524 . S
C1553 H1556 0.999 . S
C1554 H1524 0.948 1_556 S
C1554 C1553 1.524 . S
C1554 C1555 1.415 1_556 S
C1555 H1525 0.950 . S
C1555 C1550 1.363 1_554 S
C1555 C1554 1.415 1_554 S
H1556 C1553 0.999 . S
H1557 C1538 0.913 . S
H1558 C1576 0.951 . S
H1559 C1578 0.951 . S
H1560 C1580 0.950 . S
H1561 C1581 0.950 . S
H1562 C1583 0.950 . S
H1563 C1586 0.950 . S
H1564 C1587 0.950 . S
H1565 C1589 0.950 . S
H1566 C1590 0.950 . S
H1567 C1591 0.951 . S
H1568 C1593 0.951 . S
H1569 C1595 0.950 . S
H1570 C1596 0.950 . S
H1571 C1598 0.950 . S
H1572 C1601 0.950 . S
H1573 C1602 0.950 . S
H1574 C1604 0.950 . S
H1575 C1605 0.950 . S
C1576 H1558 0.951 . S
C1576 C1577 1.366 . S
C1576 C1578 1.388 . S
C1577 C1576 1.366 . S
C1577 C1581 1.385 . S
C1578 H1559 0.951 . S
C1578 C1576 1.388 . S
C1578 C1579 1.366 . S
C1579 C1578 1.366 . S
C1579 C1580 1.414 . S
C1579 C1582 1.499 . S
C1580 H1560 0.950 . S
C1580 C1579 1.414 . S
C1580 C1581 1.374 . S
C1581 H1561 0.950 . S
C1581 C1577 1.385 . S
C1581 C1580 1.374 . S
C1582 C1579 1.499 . S
C1582 C1583 1.373 . S
C1582 C1584 1.389 . S
C1583 H1562 0.950 . S
C1583 C1582 1.373 . S
C1583 C1599 1.377 . S
C1584 C1582 1.389 . S
C1584 C1585 1.524 . S
C1584 C1598 1.377 . S
C1585 C1584 1.524 . S
C1585 C1586 1.397 . S
C1585 C1590 1.363 . S
C1586 H1563 0.950 . S
C1586 C1585 1.397 . S
C1586 C1587 1.334 . S
C1587 H1564 0.950 . S
C1587 C1586 1.334 . S
C1587 C1588 1.287 . S
C1588 C1587 1.287 . S
C1588 C1589 1.524 . S
C1588 H1607 0.913 . S
C1589 H1565 0.950 . S
C1589 C1588 1.524 . S
C1589 C1590 1.415 . S
C1590 H1566 0.950 . S
C1590 C1585 1.363 . S
C1590 C1589 1.415 . S
C1591 H1567 0.951 . S
C1591 C1592 1.366 . S
C1591 C1593 1.388 . S
C1592 C1591 1.366 . S
C1592 C1596 1.385 . S
C1593 H1568 0.951 . S
C1593 C1591 1.388 . S
C1593 C1594 1.366 . S
C1594 C1593 1.366 . S
C1594 C1595 1.414 . S
C1594 C1597 1.499 . S
C1595 H1569 0.950 . S
C1595 C1594 1.414 . S
C1595 C1596 1.374 . S
C1596 H1570 0.950 . S
C1596 C1592 1.385 . S
C1596 C1595 1.374 . S
C1597 C1594 1.499 . S
C1597 C1598 1.373 . S
C1597 C1599 1.389 . S
C1598 H1571 0.950 . S
C1598 C1584 1.377 . S
C1598 C1597 1.373 . S
C1599 C1583 1.377 . S
C1599 C1597 1.389 . S
C1599 C1600 1.524 . S
C1600 C1599 1.524 . S
C1600 C1601 1.397 . S
C1600 C1605 1.363 . S
C1601 H1572 0.950 . S
C1601 C1600 1.397 . S
C1601 C1602 1.334 . S
C1602 H1573 0.950 . S
C1602 C1601 1.334 . S
C1602 C1603 1.287 . S
C1603 C1602 1.287 . S
C1603 C1604 1.524 . S
C1603 H1606 0.999 . S
C1604 H1574 0.950 . S
C1604 C1603 1.524 . S
C1604 C1605 1.415 . S
C1605 H1575 0.950 . S
C1605 C1600 1.363 . S
C1605 C1604 1.415 . S
H1606 C1603 0.999 . S
H1607 C1588 0.913 . S
H1608 C1626 0.951 . S
H1609 C1628 0.951 . S
H1610 C1630 0.950 . S
H1611 C1631 0.950 . S
H1612 C1633 0.950 . S
H1613 C1636 0.950 . S
H1614 C1637 0.950 . S
H1615 C1639 0.950 . S
H1616 C1640 0.950 . S
H1617 C1641 0.951 . S
H1618 C1643 0.951 . S
H1619 C1645 0.950 . S
H1620 C1646 0.950 . S
H1621 C1648 0.950 . S
H1622 C1651 0.950 . S
H1623 C1652 0.950 . S
H1624 C1654 0.950 . S
H1625 C1655 0.950 . S
C1626 H1608 0.951 . S
C1626 C1627 1.366 . S
C1626 C1628 1.388 . S
C1627 C1626 1.366 . S
C1627 C1631 1.385 . S
C1628 H1609 0.951 . S
C1628 C1626 1.388 . S
C1628 C1629 1.366 . S
C1629 C1628 1.366 . S
C1629 C1630 1.414 . S
C1629 C1632 1.499 . S
C1630 H1610 0.950 . S
C1630 C1629 1.414 . S
C1630 C1631 1.374 . S
C1631 H1611 0.950 . S
C1631 C1627 1.385 . S
C1631 C1630 1.374 . S
C1632 C1629 1.499 . S
C1632 C1633 1.373 . S
C1632 C1634 1.389 . S
C1633 H1612 0.950 . S
C1633 C1632 1.373 . S
C1633 C1649 1.377 1_545 S
C1634 C1632 1.389 . S
C1634 C1635 1.524 . S
C1634 C1648 1.377 1_545 S
C1635 C1634 1.524 . S
C1635 C1636 1.397 . S
C1635 C1640 1.363 . S
C1636 H1613 0.950 . S
C1636 C1635 1.397 . S
C1636 C1637 1.334 . S
C1637 H1614 0.950 . S
C1637 C1636 1.334 . S
C1637 C1638 1.287 . S
C1638 C1637 1.287 . S
C1638 C1639 1.524 . S
C1638 H1657 0.913 . S
C1639 H1615 0.950 . S
C1639 C1638 1.524 . S
C1639 C1640 1.415 . S
C1640 H1616 0.950 . S
C1640 C1635 1.363 . S
C1640 C1639 1.415 . S
C1641 H1617 0.951 . S
C1641 C1642 1.366 . S
C1641 C1643 1.388 . S
C1642 C1641 1.366 . S
C1642 C1646 1.385 . S
C1643 H1618 0.951 . S
C1643 C1641 1.388 . S
C1643 C1644 1.366 . S
C1644 C1643 1.366 . S
C1644 C1645 1.414 . S
C1644 C1647 1.499 . S
C1645 H1619 0.950 . S
C1645 C1644 1.414 . S
C1645 C1646 1.374 . S
C1646 H1620 0.950 . S
C1646 C1642 1.385 . S
C1646 C1645 1.374 . S
C1647 C1644 1.499 . S
C1647 C1648 1.373 . S
C1647 C1649 1.389 . S
C1648 H1621 0.950 . S
C1648 C1634 1.377 1_565 S
C1648 C1647 1.373 . S
C1649 C1633 1.377 1_565 S
C1649 C1647 1.389 . S
C1649 C1650 1.524 . S
C1650 C1649 1.524 . S
C1650 C1651 1.397 . S
C1650 C1655 1.363 . S
C1651 H1622 0.950 . S
C1651 C1650 1.397 . S
C1651 C1652 1.334 . S
C1652 H1623 0.950 . S
C1652 C1651 1.334 . S
C1652 C1653 1.287 . S
C1653 C1652 1.287 . S
C1653 C1654 1.524 . S
C1653 H1656 0.999 . S
C1654 H1624 0.950 . S
C1654 C1653 1.524 . S
C1654 C1655 1.415 . S
C1655 H1625 0.950 . S
C1655 C1650 1.363 . S
C1655 C1654 1.415 . S
H1656 C1653 0.999 . S
H1657 C1638 0.913 . S
H1658 C1676 0.951 . S
H1659 C1678 0.951 . S
H1660 C1680 0.950 . S
H1661 C1681 0.950 . S
H1662 C1683 0.950 . S
H1663 C1686 0.950 . S
H1664 C1687 0.950 . S
H1665 C1689 0.950 . S
H1666 C1690 0.950 . S
H1667 C1691 0.951 . S
H1668 C1693 0.951 . S
H1669 C1695 0.950 . S
H1670 C1696 0.950 . S
H1671 C1698 0.950 . S
H1672 C1701 0.950 . S
H1673 C1702 0.950 . S
H1674 C1704 0.950 . S
H1675 C1705 0.950 . S
C1676 H1658 0.951 . S
C1676 C1677 1.366 . S
C1676 C1678 1.388 . S
C1677 C1676 1.366 . S
C1677 C1681 1.385 . S
C1678 H1659 0.951 . S
C1678 C1676 1.388 . S
C1678 C1679 1.366 . S
C1679 C1678 1.366 . S
C1679 C1680 1.414 . S
C1679 C1682 1.499 . S
C1680 H1660 0.950 . S
C1680 C1679 1.414 . S
C1680 C1681 1.374 . S
C1681 H1661 0.950 . S
C1681 C1677 1.385 . S
C1681 C1680 1.374 . S
C1682 C1679 1.499 . S
C1682 C1683 1.373 . S
C1682 C1684 1.389 . S
C1683 H1662 0.950 . S
C1683 C1682 1.373 . S
C1683 C1699 1.377 . S
C1684 C1682 1.389 . S
C1684 C1685 1.524 . S
C1684 C1698 1.377 . S
C1685 C1684 1.524 . S
C1685 C1686 1.397 . S
C1685 C1690 1.363 . S
C1686 H1663 0.950 . S
C1686 C1685 1.397 . S
C1686 C1687 1.334 . S
C1687 H1664 0.950 . S
C1687 C1686 1.334 . S
C1687 C1688 1.287 . S
C1688 C1687 1.287 . S
C1688 C1689 1.524 . S
C1688 H1707 0.913 . S
C1689 H1665 0.950 . S
C1689 C1688 1.524 . S
C1689 C1690 1.415 . S
C1690 H1666 0.950 . S
C1690 C1685 1.363 . S
C1690 C1689 1.415 . S
C1691 H1667 0.951 . S
C1691 C1692 1.366 . S
C1691 C1693 1.388 . S
C1692 C1691 1.366 . S
C1692 C1696 1.385 . S
C1693 H1668 0.951 . S
C1693 C1691 1.388 . S
C1693 C1694 1.366 . S
C1694 C1693 1.366 . S
C1694 C1695 1.414 . S
C1694 C1697 1.499 . S
C1695 H1669 0.950 . S
C1695 C1694 1.414 . S
C1695 C1696 1.374 . S
C1696 H1670 0.950 . S
C1696 C1692 1.385 . S
C1696 C1695 1.374 . S
C1697 C1694 1.499 . S
C1697 C1698 1.373 . S
C1697 C1699 1.389 . S
C1698 H1671 0.950 . S
C1698 C1684 1.377 . S
C1698 C1697 1.373 . S
C1699 C1683 1.377 . S
C1699 C1697 1.389 . S
C1699 C1700 1.524 . S
C1700 C1699 1.524 . S
C1700 C1701 1.397 . S
C1700 C1705 1.363 . S
C1701 H1672 0.950 . S
C1701 C1700 1.397 . S
C1701 C1702 1.334 . S
C1702 H1673 0.950 . S
C1702 C1701 1.334 . S
C1702 C1703 1.287 . S
C1703 C1702 1.287 . S
C1703 C1704 1.524 . S
C1703 H1706 0.999 . S
C1704 H1674 0.950 . S
C1704 C1703 1.524 . S
C1704 C1705 1.415 . S
C1705 H1675 0.950 . S
C1705 C1700 1.363 . S
C1705 C1704 1.415 . S
H1706 C1703 0.999 . S
H1707 C1688 0.913 . S
H1708 C1726 0.951 . S
H1709 C1728 0.951 . S
H1710 C1730 0.950 . S
H1711 C1731 0.950 . S
H1712 C1733 0.950 . S
H1713 C1736 0.950 . S
H1714 C1737 0.950 . S
H1715 C1739 0.963 . S
H1716 C1740 0.950 . S
H1717 C1741 0.951 . S
H1718 C1743 0.951 . S
H1719 C1745 0.950 . S
H1720 C1746 0.950 . S
H1721 C1748 0.950 . S
H1722 C1751 0.950 . S
H1723 C1752 0.950 . S
H1724 C1754 0.952 1_554 S
H1725 C1755 0.950 . S
C1726 H1708 0.951 . S
C1726 C1727 1.366 . S
C1726 C1728 1.388 . S
C1727 C1726 1.366 . S
C1727 C1731 1.385 . S
C1728 H1709 0.951 . S
C1728 C1726 1.388 . S
C1728 C1729 1.366 . S
C1729 C1728 1.366 . S
C1729 C1730 1.414 . S
C1729 C1732 1.499 . S
C1730 H1710 0.950 . S
C1730 C1729 1.414 . S
C1730 C1731 1.374 . S
C1731 H1711 0.950 . S
C1731 C1727 1.385 . S
C1731 C1730 1.374 . S
C1732 C1729 1.499 . S
C1732 C1733 1.373 . S
C1732 C1734 1.389 . S
C1733 H1712 0.950 . S
C1733 C1732 1.373 . S
C1733 C1749 1.377 1_564 S
C1734 C1732 1.389 . S
C1734 C1735 1.524 . S
C1734 C1748 1.377 1_564 S
C1735 C1734 1.524 . S
C1735 C1736 1.397 . S
C1735 C1740 1.363 1_554 S
C1736 H1713 0.950 . S
C1736 C1735 1.397 . S
C1736 C1737 1.334 . S
C1737 H1714 0.950 . S
C1737 C1736 1.334 . S
C1737 C1738 1.287 . S
C1738 C1737 1.287 . S
C1738 C1739 1.504 1_554 S
C1738 H1757 0.913 . S
C1739 H1715 0.963 . S
C1739 C1738 1.504 1_556 S
C1739 C1740 1.420 . S
C1740 H1716 0.950 . S
C1740 C1735 1.363 1_556 S
C1740 C1739 1.420 . S
C1741 H1717 0.951 . S
C1741 C1742 1.366 . S
C1741 C1743 1.388 . S
C1742 C1741 1.366 . S
C1742 C1746 1.385 . S
C1743 H1718 0.951 . S
C1743 C1741 1.388 . S
C1743 C1744 1.366 . S
C1744 C1743 1.366 . S
C1744 C1745 1.414 . S
C1744 C1747 1.499 . S
C1745 H1719 0.950 . S
C1745 C1744 1.414 . S
C1745 C1746 1.374 . S
C1746 H1720 0.950 . S
C1746 C1742 1.385 . S
C1746 C1745 1.374 . S
C1747 C1744 1.499 . S
C1747 C1748 1.373 . S
C1747 C1749 1.389 . S
C1748 H1721 0.950 . S
C1748 C1734 1.377 1_546 S
C1748 C1747 1.373 . S
C1749 C1733 1.377 1_546 S
C1749 C1747 1.389 . S
C1749 C1750 1.524 . S
C1750 C1749 1.524 . S
C1750 C1751 1.397 . S
C1750 C1755 1.363 1_556 S
C1751 H1722 0.950 . S
C1751 C1750 1.397 . S
C1751 C1752 1.334 . S
C1752 H1723 0.950 . S
C1752 C1751 1.334 . S
C1752 C1753 1.287 . S
C1753 C1752 1.287 . S
C1753 C1754 1.520 . S
C1753 H1756 0.999 . S
C1754 H1724 0.952 1_556 S
C1754 C1753 1.520 . S
C1754 C1755 1.416 1_556 S
C1755 H1725 0.950 . S
C1755 C1750 1.363 1_554 S
C1755 C1754 1.416 1_554 S
H1756 C1753 0.999 . S
H1757 C1738 0.913 . S
H1758 C1776 0.951 . S
H1759 C1778 0.951 . S
H1760 C1780 0.950 . S
H1761 C1781 0.950 . S
H1762 C1783 0.950 . S
H1763 C1786 0.950 . S
H1764 C1787 0.950 . S
H1765 C1789 0.950 . S
H1766 C1790 0.950 . S
H1767 C1791 0.951 . S
H1768 C1793 0.951 . S
H1769 C1795 0.950 . S
H1770 C1796 0.950 . S
H1771 C1798 0.950 . S
H1772 C1801 0.950 . S
H1773 C1802 0.950 . S
H1774 C1804 0.950 . S
H1775 C1805 0.950 . S
C1776 H1758 0.951 . S
C1776 C1777 1.366 . S
C1776 C1778 1.388 . S
C1777 C1776 1.366 . S
C1777 C1781 1.385 . S
C1778 H1759 0.951 . S
C1778 C1776 1.388 . S
C1778 C1779 1.366 . S
C1779 C1778 1.366 . S
C1779 C1780 1.414 . S
C1779 C1782 1.499 . S
C1780 H1760 0.950 . S
C1780 C1779 1.414 . S
C1780 C1781 1.374 . S
C1781 H1761 0.950 . S
C1781 C1777 1.385 . S
C1781 C1780 1.374 . S
C1782 C1779 1.499 . S
C1782 C1783 1.373 . S
C1782 C1784 1.389 . S
C1783 H1762 0.950 . S
C1783 C1782 1.373 . S
C1783 C1799 1.377 . S
C1784 C1782 1.389 . S
C1784 C1785 1.524 . S
C1784 C1798 1.377 . S
C1785 C1784 1.524 . S
C1785 C1786 1.397 . S
C1785 C1790 1.363 . S
C1786 H1763 0.950 . S
C1786 C1785 1.397 . S
C1786 C1787 1.334 . S
C1787 H1764 0.950 . S
C1787 C1786 1.334 . S
C1787 C1788 1.287 . S
C1788 C1787 1.287 . S
C1788 C1789 1.524 . S
C1788 H1807 0.913 . S
C1789 H1765 0.950 . S
C1789 C1788 1.524 . S
C1789 C1790 1.415 . S
C1790 H1766 0.950 . S
C1790 C1785 1.363 . S
C1790 C1789 1.415 . S
C1791 H1767 0.951 . S
C1791 C1792 1.366 . S
C1791 C1793 1.388 . S
C1792 C1791 1.366 . S
C1792 C1796 1.385 . S
C1793 H1768 0.951 . S
C1793 C1791 1.388 . S
C1793 C1794 1.366 . S
C1794 C1793 1.366 . S
C1794 C1795 1.414 . S
C1794 C1797 1.499 . S
C1795 H1769 0.950 . S
C1795 C1794 1.414 . S
C1795 C1796 1.374 . S
C1796 H1770 0.950 . S
C1796 C1792 1.385 . S
C1796 C1795 1.374 . S
C1797 C1794 1.499 . S
C1797 C1798 1.373 . S
C1797 C1799 1.389 . S
C1798 H1771 0.950 . S
C1798 C1784 1.377 . S
C1798 C1797 1.373 . S
C1799 C1783 1.377 . S
C1799 C1797 1.389 . S
C1799 C1800 1.524 . S
C1800 C1799 1.524 . S
C1800 C1801 1.397 . S
C1800 C1805 1.363 . S
C1801 H1772 0.950 . S
C1801 C1800 1.397 . S
C1801 C1802 1.334 . S
C1802 H1773 0.950 . S
C1802 C1801 1.334 . S
C1802 C1803 1.287 . S
C1803 C1802 1.287 . S
C1803 C1804 1.524 . S
C1803 H1806 0.999 . S
C1804 H1774 0.950 . S
C1804 C1803 1.524 . S
C1804 C1805 1.415 . S
C1805 H1775 0.950 . S
C1805 C1800 1.363 . S
C1805 C1804 1.415 . S
H1806 C1803 0.999 . S
H1807 C1788 0.913 . S
C227 C148 1.451 . S
C242 C4 1.453 . S
C277 C199 1.459 . S
C292 C18 1.456 . S
C327 C29 1.452 . S
C342 C127 1.454 . S
C377 C179 1.448 . S
C392 C49 1.448 . S
C427 C62 1.454 . S
C442 C174 1.452 . S
C477 C70 1.458 . S
C492 C153 1.460 . S
C527 C81 1.463 . S
C542 C198 1.463 . S
C577 C101 1.459 . S
C592 C122 1.457 . S
C627 C44 1.457 . S
C642 C107 1.458 . S
C677 C135 1.458 . S
C692 C23 1.460 . S
C727 C160 1.447 . S
C742 C75 1.447 . S
C777 C187 1.457 . S
C792 C96 1.457 . S
C827 C57 1.451 . S
C842 C108 1.453 . S
C877 C140 1.453 . S
C892 C82 1.453 . S
C927 C192 1.454 . S
C942 C30 1.454 . S
C977 C3 1.464 . S
C992 C159 1.463 . S
C1027 C5 1.372 . S
C1042 C55 1.372 . S
C1077 C17 1.348 . S
C1092 C69 1.348 . S
C1127 C36 1.355 . S
C1142 C88 1.355 . S
C1177 C94 1.365 . S
C1192 C42 1.365 . S
C1227 C114 1.354 . S
C1242 C161 1.355 . S
C1277 C172 1.356 . S
C1292 C121 1.356 . S
C1327 C134 1.359 . S
C1342 C186 1.359 . S
C1377 C200 1.371 . S
C1392 C146 1.371 . S
C1427 C95 1.361 . S
C1442 C16 1.361 . S
C1477 C31 1.360 . S
C1492 C56 1.359 . S
C1527 C43 1.366 . S
C1542 C68 1.367 . S
C1577 C10 1.353 . S
C1592 C83 1.354 . S
C1627 C120 1.365 . S
C1642 C205 1.364 . S
C1677 C166 1.365 . S
C1692 C133 1.366 . S
C1727 C147 1.349 . S
C1742 C173 1.349 . S
C1777 C185 1.361 . S
C1792 C109 1.361 . S
