# Generated by pormake.
# Topology unu, (4)-cn, num edge types: 1
# Building blocks:
#     Node 0, Type 0, BuildingBlock: CEKHIL_clean_sbu_0, # of connection points: 4
#     Node 1, Type 0, BuildingBlock: CEKHIL_clean_sbu_0, # of connection points: 4
#     Node 2, Type 0, BuildingBlock: CEKHIL_clean_sbu_0, # of connection points: 4
#     Node 3, Type 0, BuildingBlock: CEKHIL_clean_sbu_0, # of connection points: 4
#     Node 4, Type 0, BuildingBlock: CEKHIL_clean_sbu_0, # of connection points: 4
#     Node 5, Type 0, BuildingBlock: CEKHIL_clean_sbu_0, # of connection points: 4
#     Node 6, Type 0, BuildingBlock: CEKHIL_clean_sbu_0, # of connection points: 4
#     Node 7, Type 0, BuildingBlock: CEKHIL_clean_sbu_0, # of connection points: 4
#     Node 8, Type 0, BuildingBlock: CEKHIL_clean_sbu_0, # of connection points: 4
#     Node 9, Type 0, BuildingBlock: CEKHIL_clean_sbu_0, # of connection points: 4
#     Node 10, Type 0, BuildingBlock: CEKHIL_clean_sbu_0, # of connection points: 4
#     Node 11, Type 0, BuildingBlock: CEKHIL_clean_sbu_0, # of connection points: 4
#     Node 12, Type 0, BuildingBlock: CEKHIL_clean_sbu_0, # of connection points: 4
#     Node 13, Type 0, BuildingBlock: CEKHIL_clean_sbu_0, # of connection points: 4
#     Node 14, Type 0, BuildingBlock: CEKHIL_clean_sbu_0, # of connection points: 4
#     Node 15, Type 0, BuildingBlock: CEKHIL_clean_sbu_0, # of connection points: 4
#     Node 16, Type 0, BuildingBlock: CEKHIL_clean_sbu_0, # of connection points: 4
#     Node 17, Type 0, BuildingBlock: CEKHIL_clean_sbu_0, # of connection points: 4
#     Node 18, Type 0, BuildingBlock: CEKHIL_clean_sbu_0, # of connection points: 4
#     Node 19, Type 0, BuildingBlock: CEKHIL_clean_sbu_0, # of connection points: 4
#     Node 20, Type 0, BuildingBlock: CEKHIL_clean_sbu_0, # of connection points: 4
#     Node 21, Type 0, BuildingBlock: CEKHIL_clean_sbu_0, # of connection points: 4
#     Node 22, Type 0, BuildingBlock: CEKHIL_clean_sbu_0, # of connection points: 4
#     Node 23, Type 0, BuildingBlock: CEKHIL_clean_sbu_0, # of connection points: 4
#     Node 24, Type 0, BuildingBlock: CEKHIL_clean_sbu_0, # of connection points: 4
#     Node 25, Type 0, BuildingBlock: CEKHIL_clean_sbu_0, # of connection points: 4
#     Node 26, Type 0, BuildingBlock: CEKHIL_clean_sbu_0, # of connection points: 4
#     Node 27, Type 0, BuildingBlock: CEKHIL_clean_sbu_0, # of connection points: 4
#     Node 28, Type 0, BuildingBlock: CEKHIL_clean_sbu_0, # of connection points: 4
#     Node 29, Type 0, BuildingBlock: CEKHIL_clean_sbu_0, # of connection points: 4
#     Node 30, Type 0, BuildingBlock: CEKHIL_clean_sbu_0, # of connection points: 4
#     Node 31, Type 0, BuildingBlock: CEKHIL_clean_sbu_0, # of connection points: 4
#     Node 32, Type 0, BuildingBlock: CEKHIL_clean_sbu_0, # of connection points: 4
#     Node 33, Type 0, BuildingBlock: CEKHIL_clean_sbu_0, # of connection points: 4
#     Node 34, Type 0, BuildingBlock: CEKHIL_clean_sbu_0, # of connection points: 4
#     Node 35, Type 0, BuildingBlock: CEKHIL_clean_sbu_0, # of connection points: 4
#     Edge 36, Type (0, 0), BuildingBlock: XUDNAN_clean_linker_2, # of connection points: 2
#     Edge 37, Type (0, 0), BuildingBlock: XUDNAN_clean_linker_2, # of connection points: 2
#     Edge 38, Type (0, 0), BuildingBlock: XUDNAN_clean_linker_2, # of connection points: 2
#     Edge 39, Type (0, 0), BuildingBlock: XUDNAN_clean_linker_2, # of connection points: 2
#     Edge 40, Type (0, 0), BuildingBlock: XUDNAN_clean_linker_2, # of connection points: 2
#     Edge 41, Type (0, 0), BuildingBlock: XUDNAN_clean_linker_2, # of connection points: 2
#     Edge 42, Type (0, 0), BuildingBlock: XUDNAN_clean_linker_2, # of connection points: 2
#     Edge 43, Type (0, 0), BuildingBlock: XUDNAN_clean_linker_2, # of connection points: 2
#     Edge 44, Type (0, 0), BuildingBlock: XUDNAN_clean_linker_2, # of connection points: 2
#     Edge 45, Type (0, 0), BuildingBlock: XUDNAN_clean_linker_2, # of connection points: 2
#     Edge 46, Type (0, 0), BuildingBlock: XUDNAN_clean_linker_2, # of connection points: 2
#     Edge 47, Type (0, 0), BuildingBlock: XUDNAN_clean_linker_2, # of connection points: 2
#     Edge 48, Type (0, 0), BuildingBlock: XUDNAN_clean_linker_2, # of connection points: 2
#     Edge 49, Type (0, 0), BuildingBlock: XUDNAN_clean_linker_2, # of connection points: 2
#     Edge 50, Type (0, 0), BuildingBlock: XUDNAN_clean_linker_2, # of connection points: 2
#     Edge 51, Type (0, 0), BuildingBlock: XUDNAN_clean_linker_2, # of connection points: 2
#     Edge 52, Type (0, 0), BuildingBlock: XUDNAN_clean_linker_2, # of connection points: 2
#     Edge 53, Type (0, 0), BuildingBlock: XUDNAN_clean_linker_2, # of connection points: 2
#     Edge 54, Type (0, 0), BuildingBlock: XUDNAN_clean_linker_2, # of connection points: 2
#     Edge 55, Type (0, 0), BuildingBlock: XUDNAN_clean_linker_2, # of connection points: 2
#     Edge 56, Type (0, 0), BuildingBlock: XUDNAN_clean_linker_2, # of connection points: 2
#     Edge 57, Type (0, 0), BuildingBlock: XUDNAN_clean_linker_2, # of connection points: 2
#     Edge 58, Type (0, 0), BuildingBlock: XUDNAN_clean_linker_2, # of connection points: 2
#     Edge 59, Type (0, 0), BuildingBlock: XUDNAN_clean_linker_2, # of connection points: 2
#     Edge 60, Type (0, 0), BuildingBlock: XUDNAN_clean_linker_2, # of connection points: 2
#     Edge 61, Type (0, 0), BuildingBlock: XUDNAN_clean_linker_2, # of connection points: 2
#     Edge 62, Type (0, 0), BuildingBlock: XUDNAN_clean_linker_2, # of connection points: 2
#     Edge 63, Type (0, 0), BuildingBlock: XUDNAN_clean_linker_2, # of connection points: 2
#     Edge 64, Type (0, 0), BuildingBlock: XUDNAN_clean_linker_2, # of connection points: 2
#     Edge 65, Type (0, 0), BuildingBlock: XUDNAN_clean_linker_2, # of connection points: 2
#     Edge 66, Type (0, 0), BuildingBlock: XUDNAN_clean_linker_2, # of connection points: 2
#     Edge 67, Type (0, 0), BuildingBlock: XUDNAN_clean_linker_2, # of connection points: 2
#     Edge 68, Type (0, 0), BuildingBlock: XUDNAN_clean_linker_2, # of connection points: 2
#     Edge 69, Type (0, 0), BuildingBlock: XUDNAN_clean_linker_2, # of connection points: 2
#     Edge 70, Type (0, 0), BuildingBlock: XUDNAN_clean_linker_2, # of connection points: 2
#     Edge 71, Type (0, 0), BuildingBlock: XUDNAN_clean_linker_2, # of connection points: 2
#     Edge 72, Type (0, 0), BuildingBlock: XUDNAN_clean_linker_2, # of connection points: 2
#     Edge 73, Type (0, 0), BuildingBlock: XUDNAN_clean_linker_2, # of connection points: 2
#     Edge 74, Type (0, 0), BuildingBlock: XUDNAN_clean_linker_2, # of connection points: 2
#     Edge 75, Type (0, 0), BuildingBlock: XUDNAN_clean_linker_2, # of connection points: 2
#     Edge 76, Type (0, 0), BuildingBlock: XUDNAN_clean_linker_2, # of connection points: 2
#     Edge 77, Type (0, 0), BuildingBlock: XUDNAN_clean_linker_2, # of connection points: 2
#     Edge 78, Type (0, 0), BuildingBlock: XUDNAN_clean_linker_2, # of connection points: 2
#     Edge 79, Type (0, 0), BuildingBlock: XUDNAN_clean_linker_2, # of connection points: 2
#     Edge 80, Type (0, 0), BuildingBlock: XUDNAN_clean_linker_2, # of connection points: 2
#     Edge 81, Type (0, 0), BuildingBlock: XUDNAN_clean_linker_2, # of connection points: 2
#     Edge 82, Type (0, 0), BuildingBlock: XUDNAN_clean_linker_2, # of connection points: 2
#     Edge 83, Type (0, 0), BuildingBlock: XUDNAN_clean_linker_2, # of connection points: 2
#     Edge 84, Type (0, 0), BuildingBlock: XUDNAN_clean_linker_2, # of connection points: 2
#     Edge 85, Type (0, 0), BuildingBlock: XUDNAN_clean_linker_2, # of connection points: 2
#     Edge 86, Type (0, 0), BuildingBlock: XUDNAN_clean_linker_2, # of connection points: 2
#     Edge 87, Type (0, 0), BuildingBlock: XUDNAN_clean_linker_2, # of connection points: 2
#     Edge 88, Type (0, 0), BuildingBlock: XUDNAN_clean_linker_2, # of connection points: 2
#     Edge 89, Type (0, 0), BuildingBlock: XUDNAN_clean_linker_2, # of connection points: 2
#     Edge 90, Type (0, 0), BuildingBlock: XUDNAN_clean_linker_2, # of connection points: 2
#     Edge 91, Type (0, 0), BuildingBlock: XUDNAN_clean_linker_2, # of connection points: 2
#     Edge 92, Type (0, 0), BuildingBlock: XUDNAN_clean_linker_2, # of connection points: 2
#     Edge 93, Type (0, 0), BuildingBlock: XUDNAN_clean_linker_2, # of connection points: 2
#     Edge 94, Type (0, 0), BuildingBlock: XUDNAN_clean_linker_2, # of connection points: 2
#     Edge 95, Type (0, 0), BuildingBlock: XUDNAN_clean_linker_2, # of connection points: 2
#     Edge 96, Type (0, 0), BuildingBlock: XUDNAN_clean_linker_2, # of connection points: 2
#     Edge 97, Type (0, 0), BuildingBlock: XUDNAN_clean_linker_2, # of connection points: 2
#     Edge 98, Type (0, 0), BuildingBlock: XUDNAN_clean_linker_2, # of connection points: 2
#     Edge 99, Type (0, 0), BuildingBlock: XUDNAN_clean_linker_2, # of connection points: 2
#     Edge 100, Type (0, 0), BuildingBlock: XUDNAN_clean_linker_2, # of connection points: 2
#     Edge 101, Type (0, 0), BuildingBlock: XUDNAN_clean_linker_2, # of connection points: 2
#     Edge 102, Type (0, 0), BuildingBlock: XUDNAN_clean_linker_2, # of connection points: 2
#     Edge 103, Type (0, 0), BuildingBlock: XUDNAN_clean_linker_2, # of connection points: 2
#     Edge 104, Type (0, 0), BuildingBlock: XUDNAN_clean_linker_2, # of connection points: 2
#     Edge 105, Type (0, 0), BuildingBlock: XUDNAN_clean_linker_2, # of connection points: 2
#     Edge 106, Type (0, 0), BuildingBlock: XUDNAN_clean_linker_2, # of connection points: 2
#     Edge 107, Type (0, 0), BuildingBlock: XUDNAN_clean_linker_2, # of connection points: 2
# Relax obj value: 0.188
# Max RMSD: 0.232
# Mean RMSD: 0.232
data_MOF--net-unu--node1-CEKHIL_clean_sbu_0--edge1-XUDNAN_clean_linker_2
_symmetry_space_group_name_H-M    P1
_symmetry_Int_Tables_number       1
_symmetry_cell_setting            triclinic
loop_
_symmetry_equiv_pos_as_xyz
'x, y, z'
_cell_length_a     43.379943
_cell_length_b     43.396582
_cell_length_c     99.82792
_cell_angle_alpha  89.995238
_cell_angle_beta   90.010221
_cell_angle_gamma 120.01097
loop_
_atom_site_label
_atom_site_type_symbol
_atom_site_fract_x
_atom_site_fract_y
_atom_site_fract_z
_atom_type_partial_charge
Co0 Co 0.21782 0.0348 0.11221 0.0
O1 O 0.24786 0.01438 0.11054 0.0
O2 O 0.25866 0.06511 0.10108 0.0
C3 C 0.16627 0.98454 0.1079 0.0
O4 O 0.19199 0.06323 0.11176 0.0
Co5 Co 0.16133 0.00776 0.13492 0.0
O6 O 0.14298 0.0343 0.12462 0.0
C7 C 0.2363 0.05966 0.14123 0.0
C8 C 0.26828 0.04148 0.10311 0.0
C9 C 0.16215 0.05865 0.11626 0.0
O10 O 0.24435 0.06125 0.12876 0.0
O11 O 0.20518 0.0383 0.14583 0.0
O12 O 0.18627 0.00392 0.09813 0.0
O13 O 0.17948 0.99399 0.11978 0.0
Co14 Co 0.97977 0.18467 0.11906 0.0
O15 O 0.99745 0.23465 0.11693 0.0
O16 O 0.94783 0.19223 0.1077 0.0
C17 C 0.03161 0.18612 0.11499 0.0
O18 O 0.95429 0.13033 0.1189 0.0
Co19 Co 0.00951 0.15968 0.14243 0.0
O20 O 0.98074 0.1124 0.13397 0.0
C21 C 0.95511 0.17959 0.14811 0.0
C22 C 0.97004 0.22607 0.10936 0.0
C23 C 0.95795 0.10581 0.12473 0.0
O24 O 0.95228 0.18382 0.1355 0.0
O25 O 0.97833 0.17269 0.15295 0.0
O26 O 0.01179 0.18549 0.10515 0.0
O27 O 0.02158 0.18979 0.12678 0.0
Co28 Co 0.83226 0.79306 0.10984 0.0
O29 O 0.78125 0.76573 0.11065 0.0
O30 O 0.81459 0.75681 0.0961 0.0
C31 C 0.83778 0.84735 0.11117 0.0
O32 O 0.8854 0.81649 0.106 0.0
Co33 Co 0.87388 0.83769 0.13463 0.0
O34 O 0.9138 0.85898 0.12163 0.0
C35 C 0.84798 0.76085 0.13448 0.0
C36 C 0.783 0.74768 0.10061 0.0
C37 C 0.91354 0.84339 0.11078 0.0
O38 O 0.83612 0.75937 0.12257 0.0
O39 O 0.86214 0.78932 0.14154 0.0
O40 O 0.83009 0.8304 0.09985 0.0
O41 O 0.83743 0.82925 0.12155 0.0
Co42 Co 0.028 0.20696 0.37797 0.0
O43 O 0.00751 0.23589 0.38205 0.0
O44 O 0.06093 0.24717 0.38887 0.0
C45 C 0.97976 0.154 0.38273 0.0
O46 O 0.05668 0.1817 0.37545 0.0
Co47 Co 0.99464 0.15493 0.35376 0.0
O48 O 0.02997 0.14096 0.35899 0.0
C49 C 0.0455 0.23039 0.34863 0.0
C50 C 0.03657 0.25634 0.38852 0.0
C51 C 0.05419 0.15658 0.36781 0.0
O52 O 0.05037 0.23566 0.36131 0.0
O53 O 0.02223 0.20062 0.34356 0.0
O54 O 0.00067 0.17366 0.39228 0.0
O55 O 0.9861 0.16899 0.37109 0.0
Co56 Co 0.78821 0.81612 0.38404 0.0
O57 O 0.75696 0.76591 0.38614 0.0
O58 O 0.75031 0.80744 0.39642 0.0
C59 C 0.84026 0.81676 0.38647 0.0
O60 O 0.81632 0.87042 0.38441 0.0
Co61 Co 0.83921 0.84204 0.35933 0.0
O62 O 0.85797 0.88891 0.36813 0.0
C63 C 0.76404 0.8217 0.35575 0.0
C64 C 0.73907 0.77378 0.3945 0.0
C65 C 0.84315 0.89507 0.378 0.0
O66 O 0.75891 0.81717 0.36847 0.0
O67 O 0.79327 0.82856 0.3501 0.0
O68 O 0.82181 0.81539 0.39692 0.0
O69 O 0.82429 0.81254 0.37513 0.0
Co70 Co 0.17883 0.97308 0.38098 0.0
O71 O 0.22936 0.9944 0.38313 0.0
O72 O 0.18931 0.95457 0.39694 0.0
C73 C 0.17782 0.02347 0.37672 0.0
O74 O 0.12456 0.94649 0.38196 0.0
Co75 Co 0.14945 0.9774 0.35306 0.0
O76 O 0.10385 0.95761 0.36295 0.0
C77 C 0.17056 0.92354 0.35766 0.0
C78 C 0.22269 0.97556 0.39394 0.0
C79 C 0.09894 0.94396 0.37462 0.0
O80 O 0.1773 0.93343 0.36997 0.0
O81 O 0.16153 0.93935 0.349 0.0
O82 O 0.17964 0.01446 0.38897 0.0
O83 O 0.18118 0.00434 0.36754 0.0
Co84 Co 0.78982 0.97837 0.87429 0.0
O85 O 0.75845 0.99736 0.87518 0.0
O86 O 0.75007 0.94912 0.88603 0.0
C87 C 0.84138 0.02961 0.87753 0.0
O88 O 0.81801 0.95224 0.87555 0.0
Co89 Co 0.84317 0.00358 0.85036 0.0
O90 O 0.8619 0.97674 0.86015 0.0
C91 C 0.76849 0.94924 0.84576 0.0
C92 C 0.73914 0.97141 0.88325 0.0
C93 C 0.84609 0.95529 0.8698 0.0
O94 O 0.76259 0.94827 0.85841 0.0
O95 O 0.79817 0.97166 0.84039 0.0
O96 O 0.82136 0.0124 0.88764 0.0
O97 O 0.82711 0.01812 0.86589 0.0
Co98 Co 0.02231 0.81668 0.87997 0.0
O99 O 0.99651 0.76575 0.88073 0.0
O100 O 0.04336 0.80046 0.89338 0.0
C101 C 0.97537 0.82518 0.88009 0.0
O102 O 0.05503 0.87051 0.88159 0.0
Co103 Co 0.01421 0.85189 0.85417 0.0
O104 O 0.03926 0.89565 0.86514 0.0
C105 C 0.06138 0.82181 0.85364 0.0
C106 C 0.01899 0.76853 0.88986 0.0
C107 C 0.05685 0.89777 0.87566 0.0
O108 O 0.05455 0.81465 0.86612 0.0
O109 O 0.04672 0.83549 0.84653 0.0
O110 O 0.98727 0.81945 0.8912 0.0
O111 O 0.98913 0.82089 0.86921 0.0
Co112 Co 0.1799 0.20694 0.88278 0.0
O113 O 0.22987 0.23584 0.88619 0.0
O114 O 0.18771 0.23884 0.89765 0.0
C115 C 0.178 0.15452 0.88123 0.0
O116 O 0.12562 0.18022 0.88206 0.0
Co117 Co 0.15665 0.17033 0.85508 0.0
O118 O 0.10904 0.14581 0.86359 0.0
C119 C 0.1771 0.2455 0.85738 0.0
C120 C 0.22149 0.25046 0.89577 0.0
C121 C 0.10163 0.15619 0.87445 0.0
O122 O 0.18187 0.24357 0.86998 0.0
O123 O 0.16881 0.21959 0.84931 0.0
O124 O 0.17755 0.16762 0.89285 0.0
O125 O 0.18433 0.17541 0.87106 0.0
Co126 Co 0.97759 0.78935 0.61754 0.0
O127 O 0.99793 0.75943 0.61502 0.0
O128 O 0.95384 0.75664 0.60281 0.0
C129 C 0.0286 0.84141 0.6191 0.0
O130 O 0.9507 0.81689 0.61747 0.0
Co131 Co 0.98975 0.82752 0.64488 0.0
O132 O 0.96787 0.8523 0.63567 0.0
C133 C 0.93579 0.752 0.64299 0.0
C134 C 0.97512 0.74436 0.60542 0.0
C135 C 0.95073 0.84159 0.62468 0.0
O136 O 0.94212 0.75369 0.63037 0.0
O137 O 0.95344 0.77819 0.65095 0.0
O138 O 0.01562 0.82778 0.60746 0.0
O139 O 0.013 0.82122 0.62934 0.0
Co140 Co 0.21569 0.17976 0.62004 0.0
O141 O 0.24406 0.23047 0.61917 0.0
O142 O 0.25788 0.19311 0.60931 0.0
C143 C 0.16302 0.1758 0.6154 0.0
O144 O 0.19145 0.12552 0.61901 0.0
Co145 Co 0.15811 0.14712 0.64244 0.0
O146 O 0.14118 0.10376 0.6313 0.0
C147 C 0.23329 0.17297 0.64919 0.0
C148 C 0.26592 0.22575 0.61182 0.0
C149 C 0.16126 0.09969 0.62304 0.0
O150 O 0.24157 0.17949 0.63674 0.0
O151 O 0.20186 0.16231 0.65366 0.0
O152 O 0.18466 0.17937 0.60577 0.0
O153 O 0.1758 0.17922 0.62736 0.0
Co154 Co 0.82441 0.02678 0.61264 0.0
O155 O 0.77403 0.00732 0.61126 0.0
O156 O 0.81402 0.05045 0.59831 0.0
C157 C 0.82521 0.97547 0.61384 0.0
O158 O 0.87868 0.05254 0.61156 0.0
Co159 Co 0.85105 0.01457 0.63995 0.0
O160 O 0.89709 0.03752 0.63033 0.0
C161 C 0.83211 0.07016 0.63817 0.0
C162 C 0.78082 0.02987 0.60164 0.0
C163 C 0.90333 0.05337 0.61906 0.0
O164 O 0.82707 0.06344 0.62559 0.0
O165 O 0.83967 0.05192 0.64621 0.0
O166 O 0.82204 0.98766 0.60236 0.0
O167 O 0.82221 0.99168 0.62424 0.0
Co168 Co 0.8803 0.37108 0.44156 0.0
O169 O 0.9062 0.34612 0.44062 0.0
O170 O 0.91706 0.39239 0.42795 0.0
C171 C 0.82522 0.32321 0.4418 0.0
O172 O 0.85789 0.40261 0.44 0.0
Co173 Co 0.83718 0.36253 0.46744 0.0
O174 O 0.81508 0.38321 0.45581 0.0
C175 C 0.91408 0.41272 0.46749 0.0
C176 C 0.92524 0.36833 0.4313 0.0
C177 C 0.83071 0.40196 0.44553 0.0
O178 O 0.91473 0.40457 0.45518 0.0
O179 O 0.88581 0.39768 0.47465 0.0
O180 O 0.84228 0.33508 0.43059 0.0
O181 O 0.84374 0.33762 0.45254 0.0
Co182 Co 0.65188 0.52855 0.45711 0.0
O183 O 0.66895 0.57833 0.45477 0.0
O184 O 0.61878 0.53506 0.44606 0.0
C185 C 0.7032 0.52985 0.45247 0.0
O186 O 0.62671 0.47431 0.45742 0.0
Co187 Co 0.68327 0.50502 0.4803 0.0
O188 O 0.65508 0.4574 0.472 0.0
C189 C 0.62737 0.52263 0.48625 0.0
C190 C 0.64078 0.56898 0.44757 0.0
C191 C 0.63116 0.4502 0.46318 0.0
O192 O 0.62537 0.52802 0.47371 0.0
O193 O 0.65038 0.51542 0.4911 0.0
O194 O 0.68257 0.52884 0.44288 0.0
O195 O 0.69446 0.53434 0.46441 0.0
Co196 Co 0.48711 0.13722 0.45481 0.0
O197 O 0.43629 0.10853 0.45498 0.0
O198 O 0.47146 0.10295 0.44025 0.0
C199 C 0.49112 0.19054 0.45705 0.0
O200 O 0.54113 0.16359 0.45198 0.0
Co201 Co 0.52152 0.17531 0.4816 0.0
O202 O 0.5651 0.19705 0.47048 0.0
C203 C 0.49678 0.0995 0.47925 0.0
C204 C 0.43942 0.09207 0.44472 0.0
C205 C 0.56804 0.18713 0.45876 0.0
O206 O 0.49021 0.1019 0.46688 0.0
O207 O 0.50738 0.12552 0.48745 0.0
O208 O 0.48471 0.17507 0.44545 0.0
O209 O 0.4896 0.17102 0.46716 0.0
Co210 Co 0.70538 0.54297 0.71874 0.0
O211 O 0.68287 0.57118 0.71874 0.0
O212 O 0.73344 0.5859 0.7292 0.0
C213 C 0.65615 0.4908 0.7234 0.0
O214 O 0.73536 0.51896 0.7208 0.0
Co215 Co 0.68167 0.48319 0.69727 0.0
O216 O 0.70683 0.46706 0.70951 0.0
C217 C 0.73191 0.55781 0.68982 0.0
C218 C 0.70876 0.59358 0.72625 0.0
C219 C 0.7309 0.48818 0.7176 0.0
O220 O 0.7325 0.56757 0.70203 0.0
O221 O 0.71167 0.52585 0.68574 0.0
O222 O 0.6738 0.51276 0.73301 0.0
O223 O 0.6665 0.50282 0.71143 0.0
Co224 Co 0.46455 0.15362 0.72009 0.0
O225 O 0.43324 0.10319 0.72007 0.0
O226 O 0.43008 0.1407 0.7344 0.0
C227 C 0.51661 0.15441 0.7182 0.0
O228 O 0.49311 0.20738 0.72274 0.0
Co229 Co 0.50471 0.1857 0.69331 0.0
O230 O 0.52626 0.22997 0.70405 0.0
C231 C 0.42997 0.16614 0.69528 0.0
C232 C 0.41716 0.10826 0.73005 0.0
C233 C 0.51644 0.23362 0.71571 0.0
O234 O 0.43117 0.15915 0.70769 0.0
O235 O 0.45599 0.17472 0.68723 0.0
O236 O 0.50097 0.14895 0.72975 0.0
O237 O 0.49769 0.15364 0.70802 0.0
Co238 Co 0.85498 0.30566 0.71216 0.0
O239 O 0.90509 0.32346 0.71401 0.0
O240 O 0.86306 0.27433 0.72372 0.0
C241 C 0.85656 0.35753 0.716 0.0
O242 O 0.80058 0.28021 0.71254 0.0
Co243 Co 0.82907 0.33446 0.6888 0.0
O244 O 0.78245 0.3075 0.69794 0.0
C245 C 0.84858 0.2796 0.68327 0.0
C246 C 0.89678 0.29644 0.72173 0.0
C247 C 0.776 0.28443 0.70704 0.0
O248 O 0.85353 0.27748 0.69586 0.0
O249 O 0.84131 0.30249 0.67836 0.0
O250 O 0.85619 0.33807 0.72592 0.0
O251 O 0.85998 0.3472 0.70423 0.0
Co252 Co 0.4681 0.31342 0.2107 0.0
O253 O 0.43738 0.33317 0.21216 0.0
O254 O 0.4351 0.29104 0.22537 0.0
C255 C 0.51981 0.36482 0.2088 0.0
O256 O 0.49664 0.28775 0.2121 0.0
Co257 Co 0.50668 0.32261 0.1836 0.0
O258 O 0.53096 0.30154 0.19365 0.0
C259 C 0.43171 0.2677 0.18582 0.0
C260 C 0.42254 0.31177 0.22219 0.0
C261 C 0.52111 0.28673 0.20509 0.0
O262 O 0.43336 0.27573 0.19827 0.0
O263 O 0.45768 0.28485 0.17772 0.0
O264 O 0.50526 0.35337 0.22044 0.0
O265 O 0.50034 0.34751 0.19858 0.0
Co266 Co 0.7053 0.15891 0.21977 0.0
O267 O 0.68222 0.10803 0.2207 0.0
O268 O 0.72626 0.14494 0.23397 0.0
C269 C 0.65593 0.16329 0.21868 0.0
O270 O 0.7344 0.21301 0.22168 0.0
Co271 Co 0.69754 0.19271 0.19355 0.0
O272 O 0.7162 0.23547 0.2051 0.0
C273 C 0.74933 0.16812 0.19441 0.0
C274 C 0.70328 0.11232 0.23062 0.0
C275 C 0.73334 0.23905 0.2159 0.0
O276 O 0.74104 0.15996 0.20676 0.0
O277 O 0.73365 0.17996 0.18688 0.0
O278 O 0.66726 0.15855 0.23009 0.0
O279 O 0.67196 0.16045 0.20818 0.0
Co280 Co 0.85742 0.54764 0.21135 0.0
O281 O 0.90712 0.57837 0.21485 0.0
O282 O 0.86414 0.58753 0.2223 0.0
C283 C 0.85548 0.49608 0.21635 0.0
O284 O 0.80322 0.52066 0.20975 0.0
Co285 Co 0.83598 0.49341 0.18791 0.0
O286 O 0.78709 0.47713 0.19441 0.0
C287 C 0.85949 0.56841 0.18192 0.0
C288 C 0.89792 0.5979 0.22166 0.0
C289 C 0.77938 0.49362 0.20316 0.0
O290 O 0.86127 0.57504 0.19453 0.0
O291 O 0.85261 0.53816 0.17722 0.0
O292 O 0.85382 0.51569 0.22579 0.0
O293 O 0.86225 0.50996 0.2045 0.0
Co294 Co 0.63765 0.12005 0.94891 0.0
O295 O 0.65771 0.09023 0.94559 0.0
O296 O 0.61473 0.08997 0.93351 0.0
C297 C 0.68894 0.17145 0.95165 0.0
O298 O 0.61149 0.14812 0.94943 0.0
Co299 Co 0.64867 0.15429 0.97705 0.0
O300 O 0.62773 0.18068 0.96838 0.0
C301 C 0.59321 0.07972 0.97352 0.0
C302 C 0.63579 0.07713 0.93561 0.0
C303 C 0.61133 0.17179 0.95719 0.0
O304 O 0.60078 0.08278 0.96098 0.0
O305 O 0.61071 0.10465 0.98199 0.0
O306 O 0.67684 0.15983 0.93971 0.0
O307 O 0.67236 0.14956 0.96136 0.0
Co308 Co 0.86916 0.50601 0.95068 0.0
O309 O 0.89474 0.55609 0.94722 0.0
O310 O 0.90382 0.51656 0.93654 0.0
C311 C 0.81431 0.49929 0.95079 0.0
O312 O 0.84677 0.45192 0.95189 0.0
Co313 Co 0.83026 0.48253 0.9781 0.0
O314 O 0.81413 0.43439 0.97091 0.0
C315 C 0.90691 0.50843 0.97708 0.0
C316 C 0.91225 0.54966 0.9382 0.0
C317 C 0.82573 0.42776 0.96021 0.0
O318 O 0.90559 0.51191 0.96436 0.0
O319 O 0.87995 0.49871 0.98475 0.0
O320 O 0.82984 0.50017 0.93958 0.0
O321 O 0.83407 0.50705 0.9614 0.0
Co322 Co 0.47638 0.35009 0.95676 0.0
O323 O 0.42583 0.32891 0.9551 0.0
O324 O 0.46525 0.37933 0.94528 0.0
C325 C 0.48005 0.30087 0.95302 0.0
O326 O 0.53079 0.37867 0.95637 0.0
Co327 Co 0.50418 0.32471 0.98074 0.0
O328 O 0.55063 0.35483 0.97187 0.0
C329 C 0.47815 0.37437 0.9857 0.0
C330 C 0.4321 0.35556 0.94747 0.0
C331 C 0.55612 0.37677 0.96242 0.0
O332 O 0.47557 0.37731 0.97299 0.0
O333 O 0.4861 0.35228 0.9909 0.0
O334 O 0.47735 0.31855 0.94304 0.0
O335 O 0.47526 0.31053 0.96473 0.0
Co336 Co 0.53778 0.68769 0.77944 0.0
O337 O 0.56995 0.66965 0.77855 0.0
O338 O 0.5714 0.71087 0.76494 0.0
C339 C 0.48661 0.63557 0.78125 0.0
O340 O 0.50794 0.71196 0.77785 0.0
Co341 Co 0.49967 0.67723 0.80678 0.0
O342 O 0.47514 0.69808 0.79675 0.0
C343 C 0.57342 0.73416 0.80434 0.0
C344 C 0.5852 0.69166 0.76873 0.0
C345 C 0.484 0.71285 0.78526 0.0
O346 O 0.57134 0.72607 0.79189 0.0
O347 O 0.54816 0.71626 0.81263 0.0
O348 O 0.50153 0.64696 0.76965 0.0
O349 O 0.50584 0.65324 0.79146 0.0
Co350 Co 0.30112 0.84244 0.78264 0.0
O351 O 0.32203 0.89304 0.78232 0.0
O352 O 0.27346 0.85541 0.77111 0.0
C353 C 0.35145 0.84027 0.77938 0.0
O354 O 0.27308 0.7884 0.78065 0.0
Co355 Co 0.32393 0.81039 0.80607 0.0
O356 O 0.2943 0.76568 0.7961 0.0
C357 C 0.26996 0.83118 0.81097 0.0
C358 C 0.29682 0.88818 0.77412 0.0
C359 C 0.2738 0.76208 0.78633 0.0
O360 O 0.27075 0.83917 0.79852 0.0
O361 O 0.2911 0.82192 0.81614 0.0
O362 O 0.33515 0.84461 0.76929 0.0
O363 O 0.33973 0.84254 0.79103 0.0
Co364 Co 0.14794 0.45343 0.78329 0.0
O365 O 0.09771 0.42226 0.78112 0.0
O366 O 0.13911 0.41361 0.77184 0.0
C367 C 0.14835 0.50478 0.77927 0.0
O368 O 0.20244 0.4812 0.78332 0.0
Co369 Co 0.17359 0.50818 0.80677 0.0
O370 O 0.22063 0.52622 0.79815 0.0
C371 C 0.15267 0.43352 0.81233 0.0
C372 C 0.10545 0.40303 0.77343 0.0
C373 C 0.22713 0.50934 0.78917 0.0
O374 O 0.14812 0.42642 0.79972 0.0
O375 O 0.15999 0.46372 0.8172 0.0
O376 O 0.14787 0.48513 0.76939 0.0
O377 O 0.14407 0.49064 0.79101 0.0
Co378 Co 0.35101 0.86974 0.04543 0.0
O379 O 0.33359 0.90239 0.04705 0.0
O380 O 0.38227 0.9091 0.05696 0.0
C381 C 0.29897 0.8192 0.04905 0.0
O382 O 0.376 0.84045 0.04612 0.0
Co383 Co 0.32282 0.81548 0.02183 0.0
O384 O 0.34922 0.79563 0.03123 0.0
C385 C 0.37825 0.8895 0.01662 0.0
C386 C 0.36045 0.92102 0.05489 0.0
C387 C 0.37179 0.81176 0.04053 0.0
O388 O 0.38005 0.8962 0.02924 0.0
O389 O 0.35514 0.8597 0.01153 0.0
O390 O 0.31752 0.83877 0.05907 0.0
O391 O 0.31001 0.83321 0.03735 0.0
Co392 Co 0.11475 0.48064 0.05147 0.0
O393 O 0.08389 0.43021 0.05284 0.0
O394 O 0.07365 0.47042 0.06238 0.0
C395 C 0.16615 0.4815 0.05617 0.0
O396 O 0.1417 0.53497 0.05211 0.0
Co397 Co 0.17087 0.50738 0.0284 0.0
O398 O 0.18322 0.5545 0.03575 0.0
C399 C 0.09694 0.48771 0.02228 0.0
C400 C 0.06354 0.4371 0.06022 0.0
C401 C 0.1673 0.56014 0.04537 0.0
O402 O 0.08909 0.48199 0.0348 0.0
O403 O 0.12736 0.4952 0.01757 0.0
O404 O 0.1453 0.47994 0.06576 0.0
O405 O 0.15334 0.47807 0.04422 0.0
Co406 Co 0.50184 0.63018 0.05357 0.0
O407 O 0.55215 0.65017 0.05158 0.0
O408 O 0.51964 0.6122 0.06758 0.0
C409 C 0.5 0.68077 0.05128 0.0
O410 O 0.44899 0.6047 0.05835 0.0
Co411 Co 0.46059 0.63256 0.02849 0.0
O412 O 0.42203 0.61817 0.04189 0.0
C413 C 0.48183 0.57837 0.02989 0.0
C414 C 0.55062 0.63166 0.06199 0.0
C415 C 0.4216 0.60459 0.05326 0.0
O416 O 0.49345 0.58933 0.04176 0.0
O417 O 0.46979 0.59367 0.02226 0.0
O418 O 0.50856 0.67268 0.06267 0.0
O419 O 0.49783 0.6607 0.04129 0.0
Co420 Co 0.12494 0.63827 0.54437 0.0
O421 O 0.09686 0.6608 0.5464 0.0
O422 O 0.08302 0.60853 0.55512 0.0
C423 C 0.17739 0.68677 0.54943 0.0
O424 O 0.14863 0.60767 0.54433 0.0
Co425 Co 0.18283 0.66563 0.52206 0.0
O426 O 0.19771 0.63481 0.53133 0.0
C427 C 0.10746 0.61608 0.51507 0.0
C428 C 0.07531 0.63376 0.55365 0.0
C429 C 0.17759 0.6106 0.53955 0.0
O430 O 0.09857 0.61403 0.52747 0.0
O431 O 0.13915 0.63688 0.51082 0.0
O432 O 0.15637 0.66692 0.55889 0.0
O433 O 0.16484 0.6788 0.5374 0.0
Co434 Co 0.36005 0.48405 0.55114 0.0
O435 O 0.34031 0.43393 0.55372 0.0
O436 O 0.3818 0.4756 0.56662 0.0
C437 C 0.30887 0.48409 0.54797 0.0
O438 O 0.38556 0.53828 0.55147 0.0
Co439 Co 0.35166 0.50992 0.52317 0.0
O440 O 0.3696 0.55574 0.53274 0.0
C441 C 0.40765 0.49174 0.52708 0.0
C442 C 0.36146 0.44192 0.56392 0.0
C443 C 0.38519 0.56247 0.54408 0.0
O444 O 0.39849 0.4855 0.53945 0.0
O445 O 0.39098 0.49996 0.51852 0.0
O446 O 0.31981 0.48324 0.56 0.0
O447 O 0.32637 0.47986 0.53832 0.0
Co448 Co 0.51311 0.87506 0.54847 0.0
O449 O 0.56391 0.90423 0.54824 0.0
O450 O 0.52774 0.91573 0.56015 0.0
C451 C 0.51067 0.82231 0.55118 0.0
O452 O 0.45926 0.84977 0.55127 0.0
Co453 Co 0.47611 0.81953 0.52567 0.0
O454 O 0.43551 0.80061 0.53833 0.0
C455 C 0.49962 0.89503 0.52056 0.0
C456 C 0.56015 0.9247 0.55674 0.0
C457 C 0.43299 0.81948 0.54758 0.0
O458 O 0.50906 0.90244 0.53289 0.0
O459 O 0.48816 0.86404 0.51552 0.0
O460 O 0.51606 0.84284 0.56142 0.0
O461 O 0.51158 0.83631 0.53965 0.0
Co462 Co 0.30542 0.45791 0.28092 0.0
O463 O 0.32625 0.42816 0.28045 0.0
O464 O 0.28436 0.42361 0.26646 0.0
C465 C 0.35592 0.51065 0.28259 0.0
O466 O 0.27852 0.48516 0.27897 0.0
Co467 Co 0.3142 0.497 0.30802 0.0
O468 O 0.29054 0.5183 0.29774 0.0
C469 C 0.25857 0.4224 0.30571 0.0
C470 C 0.30534 0.41201 0.27044 0.0
C471 C 0.27574 0.50817 0.2863 0.0
O472 O 0.26751 0.42359 0.29339 0.0
O473 O 0.27548 0.44841 0.31382 0.0
O474 O 0.34525 0.49512 0.27105 0.0
O475 O 0.33879 0.49135 0.29285 0.0
Co476 Co 0.53282 0.84938 0.28924 0.0
O477 O 0.56301 0.89996 0.28832 0.0
O478 O 0.56759 0.86136 0.27505 0.0
C479 C 0.48036 0.84766 0.29032 0.0
O480 O 0.50538 0.79513 0.28763 0.0
Co481 Co 0.49273 0.81923 0.31602 0.0
O482 O 0.47025 0.77398 0.30588 0.0
C483 C 0.56797 0.8406 0.31466 0.0
C484 C 0.57948 0.89424 0.27867 0.0
C485 C 0.48105 0.76932 0.29459 0.0
O486 O 0.56667 0.8468 0.30218 0.0
O487 O 0.5415 0.83112 0.32256 0.0
O488 O 0.49624 0.85168 0.27891 0.0
O489 O 0.49904 0.85 0.30084 0.0
Co490 Co 0.14229 0.68557 0.28596 0.0
O491 O 0.09231 0.66634 0.28303 0.0
O492 O 0.13444 0.71786 0.27493 0.0
C493 C 0.14454 0.63599 0.28122 0.0
O494 O 0.19662 0.71281 0.28694 0.0
Co495 Co 0.16539 0.65434 0.30948 0.0
O496 O 0.21337 0.6847 0.30174 0.0
C497 C 0.14415 0.70752 0.31531 0.0
C498 C 0.1007 0.69438 0.27588 0.0
C499 C 0.22072 0.709 0.29307 0.0
O500 O 0.14021 0.71047 0.30269 0.0
O501 O 0.15158 0.68471 0.32017 0.0
O502 O 0.14446 0.65614 0.27164 0.0
O503 O 0.13833 0.64379 0.29306 0.0
H504 H 0.30437 0.1128 0.13522 0.0
H505 H 0.22923 0.0671 0.16815 0.0
H506 H 0.27122 0.11539 0.18291 0.0
H507 H 0.38509 0.14313 0.15541 0.0
H508 H 0.41006 0.18318 0.1457 0.0
H509 H 0.37495 0.14372 0.13792 0.0
H510 H 0.34487 0.17948 0.13032 0.0
H511 H 0.37957 0.21892 0.13823 0.0
H512 H 0.33369 0.20268 0.14264 0.0
H513 H 0.31885 0.17028 0.19364 0.0
H514 H 0.37176 0.22597 0.20045 0.0
H515 H 0.41702 0.23639 0.16071 0.0
C516 C 0.29689 0.11254 0.14559 0.0
C517 C 0.26336 0.08602 0.15049 0.0
C518 C 0.25469 0.08696 0.16412 0.0
C519 C 0.27834 0.11437 0.17259 0.0
C520 C 0.31063 0.14055 0.16732 0.0
C521 C 0.3202 0.13969 0.1542 0.0
C522 C 0.35631 0.17155 0.15102 0.0
C523 C 0.38319 0.15968 0.1473 0.0
C524 C 0.35341 0.19451 0.13989 0.0
C525 C 0.36533 0.19067 0.16438 0.0
C526 C 0.33851 0.17228 0.1736 0.0
C527 C 0.3402 0.18478 0.18655 0.0
C528 C 0.37044 0.21661 0.19029 0.0
C529 C 0.39882 0.23569 0.18114 0.0
C530 C 0.39591 0.22256 0.16795 0.0
H531 H 0.77977 0.18557 0.1691 0.0
H532 H 0.78951 0.1462 0.20803 0.0
H533 H 0.84398 0.14751 0.20056 0.0
H534 H 0.81077 0.13516 0.14976 0.0
H535 H 0.83443 0.17027 0.13774 0.0
H536 H 0.79568 0.16613 0.14606 0.0
H537 H 0.8328 0.23136 0.15423 0.0
H538 H 0.87177 0.23555 0.14608 0.0
H539 H 0.8729 0.24484 0.16373 0.0
H540 H 0.89837 0.15516 0.1896 0.0
H541 H 0.9467 0.16248 0.17473 0.0
H542 H 0.90201 0.19521 0.14245 0.0
C543 C 0.79316 0.17693 0.17601 0.0
C544 C 0.78023 0.16595 0.18919 0.0
C545 C 0.7987 0.15484 0.1979 0.0
C546 C 0.82985 0.15558 0.19378 0.0
C547 C 0.84225 0.16725 0.18089 0.0
C548 C 0.82435 0.17725 0.17203 0.0
C549 C 0.84342 0.18807 0.15864 0.0
C550 C 0.81966 0.16343 0.14739 0.0
C551 C 0.85596 0.22729 0.15549 0.0
C552 C 0.87473 0.18256 0.16142 0.0
C553 C 0.8736 0.17089 0.17437 0.0
C554 C 0.89953 0.16412 0.1794 0.0
C555 C 0.92702 0.16855 0.17086 0.0
C556 C 0.92827 0.17936 0.15737 0.0
C557 C 0.90192 0.18692 0.15269 0.0
H558 H 0.87102 0.63554 0.18766 0.0
H559 H 0.85198 0.56281 0.15463 0.0
H560 H 0.84732 0.60444 0.13918 0.0
H561 H 0.81022 0.66227 0.17753 0.0
H562 H 0.83742 0.70817 0.18244 0.0
H563 H 0.84194 0.67408 0.19097 0.0
H564 H 0.90934 0.70669 0.18552 0.0
H565 H 0.90517 0.74119 0.17714 0.0
H566 H 0.92379 0.71795 0.16839 0.0
H567 H 0.83929 0.65055 0.1277 0.0
H568 H 0.83513 0.70214 0.12012 0.0
H569 H 0.86109 0.74675 0.16028 0.0
C570 C 0.86651 0.62859 0.17714 0.0
C571 C 0.86182 0.59574 0.1724 0.0
C572 C 0.85575 0.58773 0.15855 0.0
C573 C 0.85292 0.61117 0.14967 0.0
C574 C 0.85653 0.64268 0.15475 0.0
C575 C 0.86377 0.65178 0.1681 0.0
C576 C 0.86584 0.68712 0.17094 0.0
C577 C 0.83714 0.68262 0.18107 0.0
C578 C 0.90327 0.71488 0.17578 0.0
C579 C 0.85818 0.69617 0.15712 0.0
C580 C 0.85269 0.66998 0.14799 0.0
C581 C 0.84394 0.67147 0.13471 0.0
C582 C 0.8414 0.70088 0.13054 0.0
C583 C 0.84786 0.72871 0.13959 0.0
C584 C 0.85616 0.72608 0.1531 0.0
H585 H 0.10017 0.29698 0.3554 0.0
H586 H 0.0499 0.22715 0.32132 0.0
H587 H 0.09869 0.26937 0.3068 0.0
H588 H 0.13533 0.38166 0.33661 0.0
H589 H 0.17568 0.40288 0.34638 0.0
H590 H 0.13493 0.36883 0.35382 0.0
H591 H 0.1665 0.33368 0.36027 0.0
H592 H 0.20713 0.36718 0.35262 0.0
H593 H 0.18752 0.32142 0.3474 0.0
H594 H 0.15548 0.3149 0.29659 0.0
H595 H 0.21363 0.36529 0.29036 0.0
H596 H 0.22733 0.40709 0.33087 0.0
C597 C 0.09892 0.29087 0.34483 0.0
C598 C 0.0711 0.25858 0.33953 0.0
C599 C 0.07074 0.25166 0.32564 0.0
C600 C 0.09845 0.27542 0.31731 0.0
C601 C 0.12612 0.30617 0.32297 0.0
C602 C 0.1263 0.31436 0.33634 0.0
C603 C 0.15988 0.34872 0.33995 0.0
C604 C 0.15091 0.37721 0.34445 0.0
C605 C 0.18153 0.34234 0.35069 0.0
C606 C 0.1789 0.35809 0.32656 0.0
C607 C 0.15889 0.33307 0.31695 0.0
C608 C 0.17119 0.33498 0.30396 0.0
C609 C 0.20448 0.36372 0.30057 0.0
C610 C 0.22521 0.39046 0.3101 0.0
C611 C 0.21223 0.38726 0.32333 0.0
H612 H 0.69558 0.80509 0.36277 0.0
H613 H 0.77082 0.84272 0.32965 0.0
H614 H 0.72943 0.85308 0.31632 0.0
H615 H 0.61574 0.7595 0.34163 0.0
H616 H 0.58959 0.77106 0.35232 0.0
H617 H 0.62477 0.76552 0.35935 0.0
H618 H 0.6532 0.82885 0.3695 0.0
H619 H 0.61842 0.8348 0.36233 0.0
H620 H 0.66438 0.86624 0.35866 0.0
H621 H 0.68334 0.86374 0.3071 0.0
H622 H 0.63013 0.8663 0.30088 0.0
H623 H 0.58154 0.81923 0.33919 0.0
C624 C 0.70314 0.81506 0.35266 0.0
C625 C 0.73664 0.82316 0.34732 0.0
C626 C 0.74541 0.83616 0.33402 0.0
C627 C 0.72214 0.84238 0.32635 0.0
C628 C 0.68993 0.83509 0.33202 0.0
C629 C 0.67993 0.82108 0.34474 0.0
C630 C 0.64325 0.81519 0.3482 0.0
C631 C 0.61677 0.77545 0.35051 0.0
C632 C 0.64493 0.83761 0.3604 0.0
C633 C 0.63459 0.82854 0.33548 0.0
C634 C 0.66221 0.84016 0.3264 0.0
C635 C 0.66127 0.8543 0.31403 0.0
C636 C 0.63079 0.85566 0.31063 0.0
C637 C 0.60127 0.8426 0.31948 0.0
C638 C 0.60354 0.8294 0.33219 0.0
H639 H 0.15564 0.89198 0.33279 0.0
H640 H 0.18344 0.87939 0.37346 0.0
H641 H 0.17634 0.82114 0.36735 0.0
H642 H 0.08893 0.80145 0.32757 0.0
H643 H 0.10058 0.80047 0.31031 0.0
H644 H 0.10849 0.84165 0.31772 0.0
H645 H 0.17521 0.87181 0.31121 0.0
H646 H 0.16735 0.8309 0.30358 0.0
H647 H 0.201 0.85171 0.31634 0.0
H648 H 0.16471 0.76349 0.35698 0.0
H649 H 0.15521 0.71341 0.34253 0.0
H650 H 0.13495 0.76387 0.30871 0.0
C651 C 0.16058 0.87722 0.34041 0.0
C652 C 0.17008 0.8904 0.35363 0.0
C653 C 0.17621 0.87002 0.36326 0.0
C654 C 0.17205 0.83676 0.35992 0.0
C655 C 0.16183 0.82425 0.3469 0.0
C656 C 0.15659 0.84402 0.33726 0.0
C657 C 0.1462 0.82473 0.32395 0.0
C658 C 0.10883 0.8166 0.31964 0.0
C659 C 0.17411 0.84605 0.31313 0.0
C660 C 0.14648 0.79103 0.32761 0.0
C661 C 0.15531 0.79115 0.34091 0.0
C662 C 0.1578 0.7631 0.34654 0.0
C663 C 0.15218 0.73466 0.33824 0.0
C664 C 0.1443 0.73455 0.32444 0.0
C665 C 0.14071 0.76288 0.3192 0.0
H666 H 0.58983 0.76602 0.82947 0.0
H667 H 0.63093 0.77736 0.78893 0.0
H668 H 0.6829 0.83436 0.795 0.0
H669 H 0.61849 0.85842 0.83488 0.0
H670 H 0.63129 0.85891 0.85209 0.0
H671 H 0.59649 0.81838 0.84479 0.0
H672 H 0.63056 0.78563 0.85119 0.0
H673 H 0.66523 0.82595 0.85864 0.0
H674 H 0.67607 0.80363 0.84584 0.0
H675 H 0.72956 0.89052 0.80482 0.0
H676 H 0.77195 0.94062 0.81875 0.0
H677 H 0.70277 0.89365 0.85326 0.0
C678 C 0.60986 0.78038 0.8219 0.0
C679 C 0.60593 0.76707 0.80869 0.0
C680 C 0.63294 0.7868 0.79911 0.0
C681 C 0.66267 0.8194 0.80242 0.0
C682 C 0.66537 0.83205 0.81539 0.0
C683 C 0.64008 0.8131 0.82506 0.0
C684 C 0.65031 0.83272 0.83835 0.0
C685 C 0.62248 0.8427 0.84278 0.0
C686 C 0.65588 0.81067 0.84914 0.0
C687 C 0.6852 0.86551 0.83455 0.0
C688 C 0.69309 0.86459 0.82122 0.0
C689 C 0.72382 0.89159 0.81531 0.0
C690 C 0.7477 0.92003 0.82332 0.0
C691 C 0.74088 0.9212 0.83714 0.0
C692 C 0.70883 0.89372 0.84274 0.0
H693 H 0.09984 0.84904 0.83016 0.0
H694 H 0.08697 0.78141 0.86432 0.0
H695 H 0.13918 0.77794 0.85716 0.0
H696 H 0.12962 0.80319 0.80664 0.0
H697 H 0.16092 0.84391 0.79836 0.0
H698 H 0.12105 0.83973 0.8057 0.0
H699 H 0.15952 0.89657 0.81972 0.0
H700 H 0.19952 0.90057 0.8126 0.0
H701 H 0.19376 0.89853 0.83053 0.0
H702 H 0.19512 0.78581 0.84794 0.0
H703 H 0.24796 0.79735 0.83502 0.0
H704 H 0.2248 0.85766 0.80595 0.0
C705 C 0.10759 0.83292 0.83596 0.0
C706 C 0.08938 0.81577 0.84787 0.0
C707 C 0.10058 0.79513 0.85523 0.0
C708 C 0.13029 0.79297 0.85127 0.0
C709 C 0.14843 0.81123 0.83983 0.0
C710 C 0.13727 0.83022 0.83208 0.0
C711 C 0.16209 0.84741 0.82026 0.0
C712 C 0.14223 0.83267 0.80695 0.0
C713 C 0.17976 0.88819 0.82082 0.0
C714 C 0.18901 0.83541 0.82274 0.0
C715 C 0.18063 0.81485 0.83417 0.0
C716 C 0.20184 0.80153 0.83887 0.0
C717 C 0.23203 0.80853 0.83149 0.0
C718 C 0.24062 0.82839 0.81943 0.0
C719 C 0.21893 0.84232 0.8151 0.0
H720 H 0.16178 0.25951 0.83196 0.0
H721 H 0.19334 0.30531 0.87179 0.0
H722 H 0.18743 0.35633 0.86476 0.0
H723 H 0.20824 0.34384 0.81395 0.0
H724 H 0.17391 0.33038 0.80143 0.0
H725 H 0.18132 0.29754 0.80951 0.0
H726 H 0.11498 0.26294 0.81662 0.0
H727 H 0.10754 0.29602 0.80875 0.0
H728 H 0.0968 0.28535 0.8262 0.0
H729 H 0.17544 0.40081 0.85404 0.0
H730 H 0.16538 0.44036 0.83933 0.0
H731 H 0.1429 0.3672 0.80615 0.0
C732 C 0.16792 0.28047 0.83915 0.0
C733 C 0.17791 0.27815 0.85245 0.0
C734 C 0.18557 0.30623 0.86155 0.0
C735 C 0.18214 0.33535 0.85768 0.0
C736 C 0.17126 0.33626 0.84466 0.0
C737 C 0.16481 0.30995 0.83545 0.0
C738 C 0.15394 0.31789 0.82202 0.0
C739 C 0.18097 0.32271 0.81108 0.0
C740 C 0.11607 0.28881 0.81818 0.0
C741 C 0.15528 0.35272 0.82518 0.0
C742 C 0.16498 0.36255 0.83834 0.0
C743 C 0.16802 0.39356 0.84368 0.0
C744 C 0.16206 0.41578 0.83523 0.0
C745 C 0.15343 0.40708 0.82153 0.0
C746 C 0.14935 0.37468 0.81655 0.0
H747 H 0.78371 0.6271 0.69486 0.0
H748 H 0.74021 0.54759 0.66326 0.0
H749 H 0.78803 0.58857 0.64812 0.0
H750 H 0.81158 0.70446 0.67314 0.0
H751 H 0.85138 0.73178 0.6827 0.0
H752 H 0.81255 0.69682 0.69085 0.0
H753 H 0.85026 0.66992 0.6996 0.0
H754 H 0.88909 0.70446 0.69132 0.0
H755 H 0.87443 0.6584 0.68785 0.0
H756 H 0.84203 0.63614 0.63686 0.0
H757 H 0.89636 0.68966 0.62936 0.0
H758 H 0.90509 0.73903 0.66813 0.0
C759 C 0.78385 0.61841 0.6847 0.0
C760 C 0.75809 0.58399 0.68029 0.0
C761 C 0.75952 0.57375 0.66692 0.0
C762 C 0.78667 0.59681 0.65823 0.0
C763 C 0.81211 0.63007 0.66303 0.0
C764 C 0.81076 0.64109 0.67588 0.0
C765 C 0.84176 0.67811 0.67856 0.0
C766 C 0.82852 0.70434 0.68148 0.0
C767 C 0.86527 0.67767 0.69001 0.0
C768 C 0.86092 0.68599 0.66523 0.0
C769 C 0.84333 0.65783 0.65645 0.0
C770 C 0.85591 0.6585 0.64359 0.0
C771 C 0.88692 0.68908 0.63945 0.0
C772 C 0.90508 0.71876 0.64813 0.0
C773 C 0.89199 0.71686 0.66126 0.0
H774 H 0.41446 0.17941 0.66975 0.0
H775 H 0.37169 0.15273 0.71016 0.0
H776 H 0.31887 0.15522 0.70298 0.0
H777 H 0.38305 0.24053 0.66231 0.0
H778 H 0.37192 0.22629 0.64516 0.0
H779 H 0.40725 0.2232 0.65339 0.0
H780 H 0.37617 0.15585 0.6479 0.0
H781 H 0.34097 0.15884 0.63955 0.0
H782 H 0.33056 0.12723 0.65292 0.0
H783 H 0.27051 0.16021 0.69169 0.0
H784 H 0.22755 0.16336 0.67642 0.0
H785 H 0.30085 0.18636 0.64325 0.0
C786 C 0.39399 0.17404 0.67708 0.0
C787 C 0.39748 0.16598 0.69053 0.0
C788 C 0.36988 0.15901 0.69979 0.0
C789 C 0.33972 0.16049 0.69584 0.0
C790 C 0.33732 0.16887 0.68259 0.0
C791 C 0.36349 0.17526 0.67331 0.0
C792 C 0.35362 0.18261 0.65959 0.0
C793 C 0.38057 0.22041 0.65484 0.0
C794 C 0.35011 0.15445 0.64939 0.0
C795 C 0.31778 0.17913 0.66265 0.0
C796 C 0.30906 0.17147 0.676 0.0
C797 C 0.27701 0.16626 0.6812 0.0
C798 C 0.25279 0.16817 0.67244 0.0
C799 C 0.26069 0.17511 0.65861 0.0
C800 C 0.29397 0.18124 0.65376 0.0
H801 H 0.8602 0.22423 0.68955 0.0
H802 H 0.83499 0.27265 0.65633 0.0
H803 H 0.82742 0.22395 0.6416 0.0
H804 H 0.90962 0.19232 0.66973 0.0
H805 H 0.89305 0.15175 0.67923 0.0
H806 H 0.898 0.1913 0.68712 0.0
H807 H 0.83165 0.15662 0.69416 0.0
H808 H 0.82636 0.11709 0.68613 0.0
H809 H 0.79784 0.13452 0.68154 0.0
H810 H 0.81879 0.16891 0.63081 0.0
H811 H 0.8153 0.11315 0.62374 0.0
H812 H 0.8474 0.0999 0.66362 0.0
C813 C 0.85356 0.2249 0.67914 0.0
C814 C 0.84815 0.25241 0.67414 0.0
C815 C 0.83934 0.25205 0.66044 0.0
C816 C 0.83484 0.22439 0.65198 0.0
C817 C 0.83945 0.19734 0.65731 0.0
C818 C 0.84908 0.19751 0.6705 0.0
C819 C 0.85218 0.16492 0.67363 0.0
C820 C 0.8905 0.17573 0.67766 0.0
C821 C 0.82541 0.14194 0.68451 0.0
C822 C 0.84246 0.14633 0.66014 0.0
C823 C 0.83506 0.16552 0.65094 0.0
C824 C 0.82485 0.15377 0.63788 0.0
C825 C 0.82286 0.12189 0.63398 0.0
C826 C 0.83127 0.10202 0.64309 0.0
C827 C 0.8408 0.11435 0.65641 0.0
H828 H 0.03753 0.56491 0.51994 0.0
H829 H 0.11751 0.60829 0.48848 0.0
H830 H 0.07684 0.56048 0.47334 0.0
H831 H 0.00592 0.47428 0.51305 0.0
H832 H 0.95971 0.4596 0.51623 0.0
H833 H 0.99393 0.49849 0.5246 0.0
H834 H 0.9674 0.53615 0.51546 0.0
H835 H 0.9327 0.49724 0.50725 0.0
H836 H 0.96034 0.53694 0.4977 0.0
H837 H 0.03045 0.506 0.46223 0.0
H838 H 0.97753 0.45164 0.45453 0.0
H839 H 0.92572 0.44341 0.49274 0.0
C840 C 0.04632 0.56478 0.50979 0.0
C841 C 0.0809 0.59048 0.50545 0.0
C842 C 0.09125 0.58909 0.4921 0.0
C843 C 0.06838 0.56189 0.48341 0.0
C844 C 0.03507 0.53642 0.48815 0.0
C845 C 0.0237 0.53788 0.50092 0.0
C846 C 0.98653 0.50684 0.50346 0.0
C847 C 0.98655 0.48342 0.51502 0.0
C848 C 0.96018 0.52009 0.50612 0.0
C849 C 0.97907 0.48754 0.49015 0.0
C850 C 0.00762 0.50506 0.48154 0.0
C851 C 0.00772 0.49222 0.4688 0.0
C852 C 0.97744 0.46111 0.46456 0.0
C853 C 0.94714 0.44312 0.47298 0.0
C854 C 0.94831 0.45641 0.48604 0.0
H855 H 0.4417 0.51069 0.50259 0.0
H856 H 0.44946 0.47498 0.54248 0.0
H857 H 0.5078 0.48207 0.53673 0.0
H858 H 0.48282 0.46703 0.48519 0.0
H859 H 0.5055 0.50279 0.47333 0.0
H860 H 0.46395 0.49429 0.48057 0.0
H861 H 0.49421 0.5597 0.48875 0.0
H862 H 0.536 0.56821 0.48173 0.0
H863 H 0.53324 0.57688 0.49921 0.0
H864 H 0.56614 0.49462 0.52698 0.0
H865 H 0.61783 0.50617 0.51307 0.0
H866 H 0.57211 0.53354 0.47955 0.0
C867 C 0.45543 0.50397 0.51008 0.0
C868 C 0.44085 0.49234 0.52301 0.0
C869 C 0.45992 0.48398 0.53251 0.0
C870 C 0.49323 0.48806 0.52937 0.0
C871 C 0.50717 0.50041 0.51668 0.0
C872 C 0.48874 0.50783 0.50712 0.0
C873 C 0.50961 0.52031 0.49417 0.0
C874 C 0.48926 0.49456 0.48264 0.0
C875 C 0.5188 0.55855 0.49077 0.0
C876 C 0.5426 0.51873 0.49797 0.0
C877 C 0.54077 0.50742 0.51102 0.0
C878 C 0.56789 0.50346 0.51673 0.0
C879 C 0.59726 0.51028 0.50875 0.0
C880 C 0.59919 0.52079 0.49519 0.0
C881 C 0.57168 0.5257 0.48988 0.0
H882 H 0.51629 0.08336 0.50357 0.0
H883 H 0.46935 0.03787 0.46491 0.0
H884 H 0.46708 0.98212 0.47114 0.0
H885 H 0.57085 0.04313 0.50617 0.0
H886 H 0.5639 0.0345 0.5239 0.0
H887 H 0.56164 0.07137 0.51667 0.0
H888 H 0.49825 0.04702 0.52639 0.0
H889 H 0.50048 0.0103 0.53376 0.0
H890 H 0.46426 0.00195 0.5227 0.0
H891 H 0.4713 0.9321 0.48088 0.0
H892 H 0.47733 0.88827 0.49453 0.0
H893 H 0.52051 0.96457 0.52721 0.0
C894 C 0.50527 0.06159 0.49646 0.0
C895 C 0.49322 0.06527 0.48371 0.0
C896 C 0.47902 0.03602 0.47471 0.0
C897 C 0.47762 0.00413 0.47813 0.0
C898 C 0.49033 0.00164 0.49062 0.0
C899 C 0.50355 0.02931 0.49973 0.0
C900 C 0.51514 0.01916 0.51253 0.0
C901 C 0.55527 0.04349 0.51496 0.0
C902 C 0.49322 0.01963 0.52455 0.0
C903 C 0.50636 0.98155 0.50912 0.0
C904 C 0.4923 0.97219 0.49639 0.0
C905 C 0.48217 0.93899 0.4909 0.0
C906 C 0.48584 0.9143 0.49875 0.0
C907 C 0.49937 0.92281 0.51199 0.0
C908 C 0.51013 0.95715 0.51714 0.0
H909 H 0.43567 0.95449 0.02351 0.0
H910 H 0.38489 0.88443 0.98953 0.0
H911 H 0.43501 0.9249 0.97515 0.0
H912 H 0.4723 0.03778 0.00474 0.0
H913 H 0.51275 0.05897 0.01444 0.0
H914 H 0.47201 0.02519 0.02197 0.0
H915 H 0.50322 0.98967 0.02844 0.0
H916 H 0.54389 0.02305 0.02075 0.0
H917 H 0.52412 0.97723 0.01558 0.0
H918 H 0.49171 0.97047 0.96474 0.0
H919 H 0.54905 0.02191 0.95824 0.0
H920 H 0.56323 0.06342 0.9988 0.0
C921 C 0.43476 0.94784 0.01301 0.0
C922 C 0.40622 0.91612 0.00769 0.0
C923 C 0.40633 0.90848 0.99388 0.0
C924 C 0.43477 0.93125 0.98562 0.0
C925 C 0.46286 0.96167 0.99127 0.0
C926 C 0.46293 0.97033 0.00458 0.0
C927 C 0.49661 0.00464 0.00811 0.0
C928 C 0.48789 0.03334 0.01258 0.0
C929 C 0.51823 0.99824 0.01886 0.0
C930 C 0.51552 0.01372 0.99471 0.0
C931 C 0.4956 0.98842 0.98517 0.0
C932 C 0.50748 0.99062 0.97208 0.0
C933 C 0.54024 0.01996 0.96852 0.0
C934 C 0.56079 0.04693 0.97799 0.0
C935 C 0.54832 0.04334 0.99132 0.0
H936 H 0.91837 0.48779 0.00194 0.0
H937 H 0.97125 0.53696 0.96449 0.0
H938 H 0.02429 0.53496 0.97181 0.0
H939 H 0.99853 0.53366 0.02305 0.0
H940 H 0.98533 0.49531 0.03357 0.0
H941 H 0.95197 0.5023 0.02568 0.0
H942 H 0.9241 0.43953 0.01504 0.0
H943 H 0.95779 0.43264 0.02268 0.0
H944 H 0.95134 0.42837 0.00479 0.0
H945 H 0.06962 0.52359 0.98213 0.0
H946 H 0.10846 0.51121 0.99633 0.0
H947 H 0.02772 0.47087 0.02754 0.0
C948 C 0.94136 0.49884 0.9954 0.0
C949 C 0.94045 0.51241 0.9826 0.0
C950 C 0.97108 0.52626 0.97431 0.0
C951 C 0.00139 0.52516 0.97835 0.0
C952 C 0.00089 0.51041 0.99076 0.0
C953 C 0.97205 0.4981 -0.0007 0.0
C954 C 0.97865 0.48342 0.0121 0.0
C955 C 0.97863 0.50497 0.02432 0.0
C956 C 0.95134 0.44363 0.01374 0.0
C957 C 0.01556 0.48922 0.00933 0.0
C958 C 0.02766 0.50452 0.9969 0.0
C959 C 0.06063 0.5119 0.99195 0.0
C960 C 0.08241 0.50449 8e-05 0.0
C961 C 0.07131 0.49011 0.01311 0.0
C962 C 0.03709 0.48187 0.01765 0.0
H963 H 0.46795 0.43002 0.97862 0.0
H964 H 0.48096 0.37639 0.01311 0.0
H965 H 0.48135 0.42186 0.02794 0.0
H966 H 0.52563 0.51746 0.98966 0.0
H967 H 0.49926 0.53581 0.98336 0.0
H968 H 0.49707 0.4976 0.97534 0.0
H969 H 0.4287 0.46216 0.97867 0.0
H970 H 0.4306 0.5004 0.98658 0.0
H971 H 0.41044 0.45829 0.99521 0.0
H972 H 0.48543 0.47489 0.03881 0.0
H973 H 0.48874 0.53081 0.04555 0.0
H974 H 0.47196 0.55057 0.00422 0.0
C975 C 0.47028 0.42744 0.98931 0.0
C976 C 0.47445 0.39952 0.99467 0.0
C977 C 0.47773 0.39742 0.00872 0.0
C978 C 0.478 0.42315 0.01725 0.0
C979 C 0.47476 0.45071 0.0116 0.0
C980 C 0.47057 0.45291 0.99799 0.0
C981 C 0.46877 0.48603 0.99452 0.0
C982 C 0.49952 0.51067 0.98517 0.0
C983 C 0.43246 0.47612 0.98838 0.0
C984 C 0.47317 0.50234 0.00831 0.0
C985 C 0.47661 0.48143 0.01797 0.0
C986 C 0.48241 0.49134 0.03137 0.0
C987 C 0.48445 0.52336 0.03507 0.0
C988 C 0.48057 0.5452 0.02542 0.0
C989 C 0.47479 0.5344 0.01185 0.0
H990 H 0.27553 0.03463 0.07666 0.0
H991 H 0.3262 0.04529 0.11499 0.0
H992 H 0.36709 0.02789 0.10471 0.0
H993 H 0.26788 0.95744 0.06938 0.0
H994 H 0.2751 0.96312 0.05155 0.0
H995 H 0.25885 0.98809 0.06037 0.0
H996 H 0.31157 0.04712 0.05154 0.0
H997 H 0.32787 0.02223 0.04247 0.0
H998 H 0.35657 0.05644 0.05408 0.0
H999 H 0.39254 0.99677 0.09176 0.0
H1000 H 0.39811 0.95276 0.07777 0.0
H1001 H 0.32815 0.95869 0.04818 0.0
C1002 C 0.29682 0.03547 0.08261 0.0
C1003 C 0.29888 0.04254 0.09643 0.0
C1004 C 0.32524 0.04109 0.10426 0.0
C1005 C 0.3485 0.03119 0.09849 0.0
C1006 C 0.34467 0.02244 0.08491 0.0
C1007 C 0.31957 0.02472 0.07703 0.0
C1008 C 0.31575 0.00717 0.06354 0.0
C1009 C 0.27713 0.97719 0.06109 0.0
C1010 C 0.32873 0.0349 0.05224 0.0
C1011 C 0.34069 0.99258 0.06541 0.0
C1012 C 0.35812 0.0027 0.07759 0.0
C1013 C 0.37972 0.9894 0.08206 0.0
C1014 C 0.38274 0.96438 0.07406 0.0
C1015 C 0.36359 0.95242 0.06191 0.0
C1016 C 0.34333 0.96764 0.05738 0.0
H1017 H 0.05523 0.42379 0.08672 0.0
H1018 H 0.0061 0.38254 0.04826 0.0
H1019 H 0.96471 0.32462 0.0587 0.0
H1020 H 0.06258 0.35447 0.09471 0.0
H1021 H 0.05477 0.35352 0.11248 0.0
H1022 H 0.07133 0.39445 0.10342 0.0
H1023 H 0.01833 0.40104 0.1117 0.0
H1024 H 0.00169 0.36012 0.121 0.0
H1025 H 0.97341 0.36528 0.10907 0.0
H1026 H 0.93859 0.26848 0.07196 0.0
H1027 H 0.93267 0.21932 0.08631 0.0
H1028 H 0.00177 0.29611 0.11583 0.0
C1029 C 0.03417 0.40316 0.08075 0.0
C1030 C 0.03269 0.40771 0.06686 0.0
C1031 C 0.00662 0.37964 0.05903 0.0
C1032 C 0.98309 0.3467 0.06489 0.0
C1033 C 0.98634 0.34222 0.07856 0.0
C1034 C 0.01119 0.36985 0.08642 0.0
C1035 C 0.01453 0.35653 0.10007 0.0
C1036 C 0.05306 0.36524 0.10281 0.0
C1037 C 0.00118 0.37164 0.11111 0.0
C1038 C 0.98964 0.31695 0.09833 0.0
C1039 C 0.9726 0.30927 0.08607 0.0
C1040 C 0.95111 0.27422 0.08172 0.0
C1041 C 0.94788 0.24643 0.08992 0.0
C1042 C 0.96673 0.254 0.10216 0.0
C1043 C 0.98681 0.28961 0.10656 0.0
H1044 H 0.57609 0.64735 0.08747 0.0
H1045 H 0.59995 0.62514 0.04774 0.0
H1046 H 0.66099 0.64251 0.05496 0.0
H1047 H 0.65231 0.7248 0.09098 0.0
H1048 H 0.65909 0.72162 0.10862 0.0
H1049 H 0.61494 0.69811 0.10177 0.0
H1050 H 0.60642 0.63864 0.11111 0.0
H1051 H 0.65059 0.66209 0.11817 0.0
H1052 H 0.63836 0.62505 0.10703 0.0
H1053 H 0.72143 0.67198 0.06504 0.0
H1054 H 0.77701 0.71309 0.07695 0.0
H1055 H 0.71494 0.71944 0.1098 0.0
C1056 C 0.59374 0.64449 0.08056 0.0
C1057 C 0.58339 0.63411 0.0672 0.0
C1058 C 0.60748 0.63241 0.05811 0.0
C1059 C 0.6421 0.64213 0.06214 0.0
C1060 C 0.65223 0.65381 0.07525 0.0
C1061 C 0.62872 0.65492 0.08437 0.0
C1062 C 0.64778 0.67407 0.09707 0.0
C1063 C 0.64327 0.70656 0.09975 0.0
C1064 C 0.63503 0.64842 0.10906 0.0
C1065 C 0.6858 0.68518 0.09337 0.0
C1066 C 0.6877 0.67236 0.08092 0.0
C1067 C 0.72026 0.68158 0.07492 0.0
C1068 C 0.75169 0.70502 0.08174 0.0
C1069 C 0.75025 0.71941 0.09428 0.0
C1070 C 0.71686 0.70865 0.10026 0.0
H1071 H 0.95056 0.32505 0.43884 0.0
H1072 H 0.96447 0.4036 0.40899 0.0
H1073 H 0.00764 0.39202 0.39698 0.0
H1074 H 0.04422 0.34035 0.43764 0.0
H1075 H 0.02808 0.29346 0.43973 0.0
H1076 H 0.00463 0.31346 0.44737 0.0
H1077 H 0.94646 0.26765 0.43541 0.0
H1078 H 0.96958 0.24749 0.42788 0.0
H1079 H 0.94641 0.26323 0.41744 0.0
H1080 H 0.03942 0.36358 0.38614 0.0
H1081 H 0.05456 0.31967 0.37714 0.0
H1082 H 0.02099 0.26076 0.41427 0.0
C1083 C 0.96338 0.34056 0.42996 0.0
C1084 C 0.95422 0.36524 0.42483 0.0
C1085 C 0.97128 0.3847 0.41313 0.0
C1086 C 0.99596 0.37841 0.4063 0.0
C1087 C 0.00364 0.35305 0.41145 0.0
C1088 C 0.98798 0.33466 0.4231 0.0
C1089 C 0.99686 0.30562 0.4257 0.0
C1090 C 0.01982 0.31373 0.43836 0.0
C1091 C 0.96282 0.26886 0.42665 0.0
C1092 C 0.01813 0.3089 0.41325 0.0
C1093 C 0.02261 0.33703 0.4053 0.0
C1094 C 0.03719 0.34232 0.39248 0.0
C1095 C 0.04593 0.31744 0.38746 0.0
C1096 C 0.04014 0.28787 0.39528 0.0
C1097 C 0.02726 0.28424 0.40844 0.0
H1098 H 0.64198 0.57875 0.42086 0.0
H1099 H 0.63528 0.62275 0.45886 0.0
H1100 H 0.64612 0.67793 0.44751 0.0
H1101 H 0.71463 0.65042 0.41093 0.0
H1102 H 0.70489 0.64817 0.39329 0.0
H1103 H 0.68445 0.60837 0.40318 0.0
H1104 H 0.6219 0.59572 0.39584 0.0
H1105 H 0.64224 0.63551 0.38574 0.0
H1106 H 0.60955 0.62932 0.39819 0.0
H1107 H 0.67073 0.73205 0.43326 0.0
H1108 H 0.70965 0.78064 0.41783 0.0
H1109 H 0.70406 0.70281 0.38925 0.0
C1110 C 0.64062 0.59925 0.42658 0.0
C1111 C 0.63657 0.59635 0.44058 0.0
C1112 C 0.63727 0.62435 0.44803 0.0
C1113 C 0.6434 0.65571 0.44166 0.0
C1114 C 0.64919 0.65872 0.42785 0.0
C1115 C 0.64767 0.63108 0.42037 0.0
C1116 C 0.66191 0.64329 0.40635 0.0
C1117 C 0.69333 0.63722 0.40328 0.0
C1118 C 0.63212 0.62487 0.39591 0.0
C1119 C 0.67393 0.6825 0.40741 0.0
C1120 C 0.6652 0.6907 0.4197 0.0
C1121 C 0.67693 0.72584 0.42348 0.0
C1122 C 0.69906 0.75331 0.41466 0.0
C1123 C 0.70978 0.74542 0.40237 0.0
C1124 C 0.69597 0.70956 0.39854 0.0
H1125 H 0.42286 0.08016 0.41809 0.0
H1126 H 0.38292 0.03988 0.45781 0.0
H1127 H 0.32429 0.99713 0.44827 0.0
H1128 H 0.34985 0.08312 0.40799 0.0
H1129 H 0.34974 0.07053 0.39077 0.0
H1130 H 0.39068 0.09149 0.40006 0.0
H1131 H 0.40047 0.0385 0.39487 0.0
H1132 H 0.35952 0.0174 0.38544 0.0
H1133 H 0.36617 0.99388 0.399 0.0
H1134 H 0.26805 0.9658 0.43512 0.0
H1135 H 0.21817 0.95017 0.41947 0.0
H1136 H 0.29374 0.01259 0.3884 0.0
C1137 C 0.40214 0.06118 0.42464 0.0
C1138 C 0.40735 0.06262 0.43861 0.0
C1139 C 0.37935 0.03869 0.44704 0.0
C1140 C 0.34605 0.01426 0.44171 0.0
C1141 C 0.34113 0.01429 0.42793 0.0
C1142 C 0.36843 0.03707 0.41948 0.0
C1143 C 0.35479 0.03554 0.40539 0.0
C1144 C 0.36166 0.07234 0.4008 0.0
C1145 C 0.37121 0.02042 0.3956 0.0
C1146 C 0.31543 0.00975 0.4074 0.0
C1147 C 0.30821 0.99706 0.42037 0.0
C1148 C 0.27342 0.97501 0.42486 0.0
C1149 C 0.24524 0.9663 0.41591 0.0
C1150 C 0.25209 0.98011 0.40273 0.0
C1151 C 0.28768 0.00139 0.39839 0.0
H1152 H 0.72721 0.97165 0.90986 0.0
H1153 H 0.68454 0.97301 0.87086 0.0
H1154 H 0.64257 0.98871 0.88128 0.0
H1155 H 0.64213 0.94459 0.93054 0.0
H1156 H 0.66838 0.97482 0.9437 0.0
H1157 H 0.68635 0.95253 0.93391 0.0
H1158 H 0.741 0.01361 0.92799 0.0
H1159 H 0.72309 0.03606 0.93752 0.0
H1160 H 0.73418 0.04714 0.92012 0.0
H1161 H 0.61513 0.01657 0.89499 0.0
H1162 H 0.60563 0.05512 0.91072 0.0
H1163 H 0.66863 0.03895 0.94065 0.0
C1164 C 0.70746 0.97316 0.90368 0.0
C1165 C 0.70808 0.9701 0.88966 0.0
C1166 C 0.6836 0.97439 0.88167 0.0
C1167 C 0.65971 0.9833 0.88752 0.0
C1168 C 0.66096 0.98814 0.90135 0.0
C1169 C 0.68406 0.98293 0.90937 0.0
C1170 C 0.68505 0.99623 0.92348 0.0
C1171 C 0.66954 0.96519 0.9335 0.0
C1172 C 0.72307 0.02496 0.92749 0.0
C1173 C 0.66079 0.01172 0.9219 0.0
C1174 C 0.64624 0.00583 0.90921 0.0
C1175 C 0.62569 0.02064 0.90506 0.0
C1176 C 0.62051 0.04258 0.91403 0.0
C1177 C 0.63642 0.05 0.92687 0.0
C1178 C 0.65595 0.03356 0.93091 0.0
H1179 H 0.94726 0.61982 0.94454 0.0
H1180 H 0.93677 0.54595 0.91323 0.0
H1181 H 0.97367 0.59673 0.89822 0.0
H1182 H 0.93591 0.67687 0.92532 0.0
H1183 H 0.96774 0.7173 0.93364 0.0
H1184 H 0.9472 0.67597 0.94265 0.0
H1185 H 0.00928 0.68484 0.94859 0.0
H1186 H 0.03014 0.7265 0.93962 0.0
H1187 H 0.04068 0.69243 0.9354 0.0
H1188 H 0.99953 0.65389 0.88546 0.0
H1189 H 0.01576 0.71309 0.87634 0.0
H1190 H 0.01296 0.75053 0.91625 0.0
C1191 C 0.95365 0.61435 0.93465 0.0
C1192 C 0.93923 0.57906 0.92999 0.0
C1193 C 0.94787 0.57284 0.917 0.0
C1194 C 0.96881 0.60153 0.90843 0.0
C1195 C 0.9815 0.6361 0.91318 0.0
C1196 C 0.97481 0.6426 0.92609 0.0
C1197 C 0.98834 0.68183 0.92838 0.0
C1198 C 0.95798 0.68834 0.93274 0.0
C1199 C 0.01894 0.69731 0.9386 0.0
C1200 C 0.00165 0.69623 0.91449 0.0
C1201 C 0.99792 0.66949 0.9059 0.0
C1202 C 0.00375 0.67525 0.89217 0.0
C1203 C 0.01284 0.70884 0.88707 0.0
C1204 C 0.01638 0.73627 0.89569 0.0
C1205 C 0.01172 0.73024 0.90959 0.0
H1206 H 0.4191 0.35437 0.9209 0.0
H1207 H 0.37633 0.35444 0.96001 0.0
H1208 H 0.31851 0.33907 0.94976 0.0
H1209 H 0.36156 0.3821 0.90035 0.0
H1210 H 0.35679 0.35149 0.88723 0.0
H1211 H 0.3973 0.37341 0.8969 0.0
H1212 H 0.38997 0.31202 0.90291 0.0
H1213 H 0.34939 0.28995 0.89347 0.0
H1214 H 0.3495 0.279 0.91088 0.0
H1215 H 0.26285 0.31183 0.93616 0.0
H1216 H 0.21421 0.27353 0.92057 0.0
H1217 H 0.29239 0.28788 0.89049 0.0
C1218 C 0.39809 0.35319 0.92713 0.0
C1219 C 0.40217 0.35665 0.94113 0.0
C1220 C 0.3737 0.35279 0.9492 0.0
C1221 C 0.34084 0.34408 0.94346 0.0
C1222 C 0.33686 0.33899 0.92964 0.0
C1223 C 0.36485 0.34366 0.92154 0.0
C1224 C 0.35213 0.33026 0.90748 0.0
C1225 C 0.36788 0.36116 0.8974 0.0
C1226 C 0.36074 0.30108 0.90347 0.0
C1227 C 0.31248 0.31535 0.90915 0.0
C1228 C 0.30425 0.32163 0.92186 0.0
C1229 C 0.26902 0.30744 0.92608 0.0
C1230 C 0.24154 0.28566 0.91719 0.0
C1231 C 0.24959 0.27777 0.90436 0.0
C1232 C 0.28547 0.29364 0.90023 0.0
H1233 H 0.98514 0.74062 0.5787 0.0
H1234 H 0.96661 0.68333 0.61602 0.0
H1235 H 0.97792 0.63914 0.60482 0.0
H1236 H 0.95337 0.66084 0.55495 0.0
H1237 H 0.98903 0.68705 0.54343 0.0
H1238 H 0.96945 0.70782 0.55321 0.0
H1239 H 0.03185 0.75338 0.56236 0.0
H1240 H 0.05149 0.73277 0.5527 0.0
H1241 H 0.05825 0.73745 0.57057 0.0
H1242 H 0.00184 0.60811 0.59091 0.0
H1243 H 0.04015 0.59586 0.57608 0.0
H1244 H 0.04622 0.67508 0.54808 0.0
C1245 C 0.98172 0.71768 0.58426 0.0
C1246 C 0.97406 0.71454 0.59806 0.0
C1247 C 0.97171 0.6855 0.60534 0.0
C1248 C 0.97797 0.66027 0.59905 0.0
C1249 C 0.98691 0.6647 0.58549 0.0
C1250 C 0.98873 0.69271 0.57816 0.0
C1251 C 0.00502 0.69525 0.5645 0.0
C1252 C 0.97757 0.68725 0.55336 0.0
C1253 C 0.03864 0.73186 0.56243 0.0
C1254 C 0.014 0.6658 0.56561 0.0
C1255 C 0.00228 0.64767 0.57759 0.0
C1256 C 0.01048 0.62158 0.58136 0.0
C1257 C 0.03221 0.61473 0.57288 0.0
C1258 C 0.04603 0.63446 0.56094 0.0
C1259 C 0.03572 0.65934 0.5571 0.0
H1260 H 0.27733 0.24188 0.58552 0.0
H1261 H 0.31952 0.28086 0.62504 0.0
H1262 H 0.35918 0.34076 0.61573 0.0
H1263 H 0.36094 0.30603 0.5652 0.0
H1264 H 0.33341 0.31035 0.55267 0.0
H1265 H 0.31747 0.26886 0.56151 0.0
H1266 H 0.26117 0.2711 0.56855 0.0
H1267 H 0.27709 0.31273 0.56002 0.0
H1268 H 0.26612 0.30933 0.57758 0.0
H1269 H 0.38391 0.3981 0.60326 0.0
H1270 H 0.3913 0.4476 0.58875 0.0
H1271 H 0.33028 0.37172 0.55759 0.0
C1272 C 0.29663 0.2626 0.59199 0.0
C1273 C 0.29656 0.25681 0.60585 0.0
C1274 C 0.32024 0.28483 0.61431 0.0
C1275 C 0.34275 0.31889 0.6091 0.0
C1276 C 0.34089 0.32446 0.59544 0.0
C1277 C 0.31863 0.29695 0.58695 0.0
C1278 C 0.31657 0.31095 0.57328 0.0
C1279 C 0.33309 0.2983 0.56253 0.0
C1280 C 0.27797 0.30041 0.56967 0.0
C1281 C 0.33929 0.35058 0.57566 0.0
C1282 C 0.35396 0.35789 0.58835 0.0
C1283 C 0.37326 0.3927 0.59319 0.0
C1284 C 0.37721 0.42065 0.58492 0.0
C1285 C 0.36133 0.41345 0.57208 0.0
C1286 C 0.34289 0.37805 0.56734 0.0
H1287 H 0.76199 0.01746 0.57541 0.0
H1288 H 0.73183 0.0415 0.61359 0.0
H1289 H 0.67429 0.02943 0.60405 0.0
H1290 H 0.70876 0.04653 0.5529 0.0
H1291 H 0.69681 0.00929 0.54189 0.0
H1292 H 0.7393 0.03031 0.55031 0.0
H1293 H 0.72488 0.96933 0.56021 0.0
H1294 H 0.68246 0.94827 0.55196 0.0
H1295 H 0.68471 0.94416 0.56986 0.0
H1296 H 0.61642 0.0031 0.59211 0.0
H1297 H 0.56262 0.96239 0.57918 0.0
H1298 H 0.62912 0.95279 0.54895 0.0
C1299 C 0.74394 0.02202 0.58146 0.0
C1300 C 0.75138 0.03134 0.59506 0.0
C1301 C 0.72661 0.03516 0.60304 0.0
C1302 C 0.69397 0.02845 0.59769 0.0
C1303 C 0.68647 0.01766 0.58436 0.0
C1304 C 0.71087 0.01464 0.57631 0.0
C1305 C 0.69403 0.99638 0.5632 0.0
C1306 C 0.71072 0.02218 0.55138 0.0
C1307 C 0.69666 0.96254 0.56121 0.0
C1308 C 0.65597 0.98754 0.56553 0.0
C1309 C 0.65235 0.00105 0.57758 0.0
C1310 C 0.61903 0.99312 0.5825 0.0
C1311 C 0.58859 0.96994 0.5751 0.0
C1312 C 0.59176 0.95452 0.56308 0.0
C1313 C 0.62594 0.96448 0.55806 0.0
H1314 H 0.66943 0.62198 0.71732 0.0
H1315 H 0.74285 0.63204 0.74873 0.0
H1316 H 0.72773 0.67192 0.76121 0.0
H1317 H 0.68029 0.71521 0.72138 0.0
H1318 H 0.63357 0.69728 0.71799 0.0
H1319 H 0.65759 0.67846 0.70992 0.0
H1320 H 0.61152 0.61624 0.719 0.0
H1321 H 0.58769 0.63474 0.72719 0.0
H1322 H 0.60344 0.61018 0.73679 0.0
H1323 H 0.69333 0.69575 0.77266 0.0
H1324 H 0.6452 0.7046 0.78157 0.0
H1325 H 0.59514 0.68148 0.74256 0.0
C1326 C 0.68344 0.63381 0.72656 0.0
C1327 C 0.70732 0.62406 0.73208 0.0
C1328 C 0.72479 0.63954 0.74427 0.0
C1329 C 0.71633 0.66222 0.75141 0.0
C1330 C 0.69098 0.66965 0.74605 0.0
C1331 C 0.67535 0.65648 0.73374 0.0
C1332 C 0.64527 0.66389 0.73103 0.0
C1333 C 0.65476 0.69029 0.71939 0.0
C1334 C 0.60993 0.62921 0.72836 0.0
C1335 C 0.64443 0.68072 0.74419 0.0
C1336 C 0.67156 0.68455 0.75261 0.0
C1337 C 0.67291 0.69421 0.76601 0.0
C1338 C 0.64545 0.69906 0.771 0.0
C1339 C 0.61726 0.69456 0.7626 0.0
C1340 C 0.61733 0.68648 0.74896 0.0
H1341 H 0.40485 0.08938 0.75631 0.0
H1342 H 0.36032 0.05782 0.71655 0.0
H1343 H 0.31298 0.00037 0.72542 0.0
H1344 H 0.40057 0.01287 0.76363 0.0
H1345 H 0.38997 0.01088 0.78119 0.0
H1346 H 0.41271 0.0531 0.77286 0.0
H1347 H 0.36336 0.06659 0.78019 0.0
H1348 H 0.34038 0.02419 0.78863 0.0
H1349 H 0.31752 0.03549 0.7762 0.0
H1350 H 0.27902 0.94289 0.73728 0.0
H1351 H 0.26469 0.8894 0.75064 0.0
H1352 H 0.33286 0.95674 0.78255 0.0
C1353 C 0.38396 0.07096 0.74968 0.0
C1354 C 0.38546 0.07796 0.73587 0.0
C1355 C 0.35902 0.05284 0.72723 0.0
C1356 C 0.33196 0.0203 0.7322 0.0
C1357 C 0.33194 0.01323 0.74582 0.0
C1358 C 0.35726 0.03793 0.75447 0.0
C1359 C 0.35577 0.02143 0.76799 0.0
C1360 C 0.39187 0.02475 0.77161 0.0
C1361 C 0.34351 0.03791 0.7789 0.0
C1362 C 0.32756 0.98319 0.76526 0.0
C1363 C 0.31312 0.97923 0.75261 0.0
C1364 C 0.28945 0.94574 0.74734 0.0
C1365 C 0.28142 0.91547 0.75498 0.0
C1366 C 0.29768 0.91906 0.76759 0.0
C1367 C 0.31981 0.95333 0.77297 0.0
H1368 H 0.90863 0.30134 0.74841 0.0
H1369 H 0.9507 0.29098 0.7105 0.0
H1370 H 0.00711 0.3045 0.72156 0.0
H1371 H 0.98068 0.37608 0.75708 0.0
H1372 H 0.97952 0.36835 0.77486 0.0
H1373 H 0.93917 0.34646 0.7653 0.0
H1374 H 0.92767 0.28505 0.77362 0.0
H1375 H 0.96801 0.30686 0.78339 0.0
H1376 H 0.96153 0.27296 0.77146 0.0
H1377 H 0.06235 0.33133 0.73547 0.0
H1378 H 0.11157 0.37171 0.75045 0.0
H1379 H 0.03469 0.36819 0.77903 0.0
C1380 C 0.92902 0.2998 0.74268 0.0
C1381 C 0.92514 0.29387 0.72876 0.0
C1382 C 0.95302 0.29438 0.72127 0.0
C1383 C 0.9851 0.30205 0.72749 0.0
C1384 C 0.98897 0.30958 0.74117 0.0
C1385 C 0.96153 0.30835 0.74871 0.0
C1386 C 0.97444 0.32419 0.76249 0.0
C1387 C 0.9681 0.35562 0.76507 0.0
C1388 C 0.95687 0.29555 0.77338 0.0
C1389 C 0.01372 0.33652 0.76124 0.0
C1390 C 0.02145 0.32681 0.74907 0.0
C1391 C 0.05651 0.33836 0.74516 0.0
C1392 C 0.08434 0.36128 0.75373 0.0
C1393 C 0.07689 0.37296 0.76589 0.0
C1394 C 0.04112 0.35938 0.76984 0.0
H1395 H 0.38803 0.34767 0.21579 0.0
H1396 H 0.3936 0.27916 0.24617 0.0
H1397 H 0.35224 0.28839 0.26038 0.0
H1398 H 0.39332 0.41107 0.23654 0.0
H1399 H 0.363 0.42078 0.22764 0.0
H1400 H 0.38633 0.40267 0.21879 0.0
H1401 H 0.32635 0.35038 0.21038 0.0
H1402 H 0.30271 0.36843 0.21925 0.0
H1403 H 0.29223 0.32327 0.2223 0.0
H1404 H 0.32163 0.31482 0.2729 0.0
H1405 H 0.30347 0.35562 0.28264 0.0
H1406 H 0.31504 0.40511 0.24393 0.0
C1407 C 0.37972 0.33374 0.22526 0.0
C1408 C 0.39396 0.31268 0.2299 0.0
C1409 C 0.38282 0.29523 0.2424 0.0
C1410 C 0.35922 0.30022 0.2505 0.0
C1411 C 0.34657 0.32217 0.24582 0.0
C1412 C 0.35609 0.33828 0.2334 0.0
C1413 C 0.34235 0.36389 0.23132 0.0
C1414 C 0.37308 0.40182 0.22842 0.0
C1415 C 0.31423 0.35069 0.22015 0.0
C1416 C 0.32565 0.36154 0.24487 0.0
C1417 C 0.32773 0.33675 0.25299 0.0
C1418 C 0.31871 0.33337 0.26652 0.0
C1419 C 0.30846 0.35662 0.27197 0.0
C1420 C 0.30704 0.38264 0.26389 0.0
C1421 C 0.31452 0.38434 0.25011 0.0
H1422 H 0.58917 0.91179 0.2522 0.0
H1423 H 0.6372 0.94577 0.29136 0.0
H1424 H 0.68325 0.00303 0.28184 0.0
H1425 H 0.67414 0.96352 0.23136 0.0
H1426 H 0.65064 0.97425 0.21902 0.0
H1427 H 0.62785 0.93265 0.22799 0.0
H1428 H 0.57987 0.94788 0.23555 0.0
H1429 H 0.60254 0.98944 0.22673 0.0
H1430 H 0.59337 0.98896 0.24437 0.0
H1431 H 0.71678 0.05973 0.26923 0.0
H1432 H 0.73317 0.11201 0.25481 0.0
H1433 H 0.66175 0.04242 0.224 0.0
C1434 C 0.6105 0.93072 0.25856 0.0
C1435 C 0.61046 0.92438 0.27239 0.0
C1436 C 0.63744 0.9502 0.28067 0.0
C1437 C 0.66372 0.98267 0.27534 0.0
C1438 C 0.66238 0.98896 0.26172 0.0
C1439 C 0.6365 0.96365 0.25341 0.0
C1440 C 0.6372 0.97913 0.23974 0.0
C1441 C 0.64812 0.96133 0.22889 0.0
C1442 C 0.60112 0.97619 0.23642 0.0
C1443 C 0.66602 0.01743 0.24192 0.0
C1444 C 0.68097 0.02236 0.25452 0.0
C1445 C 0.70583 0.0561 0.25923 0.0
C1446 C 0.71496 0.08566 0.25099 0.0
C1447 C 0.69877 0.08124 0.2383 0.0
C1448 C 0.67482 0.04659 0.23361 0.0
H1449 H 0.90676 0.60219 0.24842 0.0
H1450 H 0.95226 0.65884 0.21151 0.0
H1451 H 0.00732 0.7009 0.22354 0.0
H1452 H 0.95704 0.68122 0.27285 0.0
H1453 H 0.96246 0.65256 0.28451 0.0
H1454 H 0.92306 0.63507 0.27422 0.0
H1455 H 0.93546 0.58614 0.26544 0.0
H1456 H 0.97489 0.60358 0.27551 0.0
H1457 H 0.97772 0.59894 0.25767 0.0
H1458 H 0.06115 0.72777 0.23817 0.0
H1459 H 0.10898 0.73463 0.25352 0.0
H1460 H 0.02957 0.65811 0.28063 0.0
C1461 C 0.92757 0.62487 0.24313 0.0
C1462 C 0.92509 0.62838 0.22922 0.0
C1463 C 0.95349 0.65669 0.22228 0.0
C1464 C 0.98481 0.68063 0.22905 0.0
C1465 C 0.98734 0.67553 0.24272 0.0
C1466 C 0.95929 0.64838 0.24972 0.0
C1467 C 0.97089 0.64394 0.26355 0.0
C1468 C 0.95225 0.6538 0.27442 0.0
C1469 C 0.96437 0.60593 0.26565 0.0
C1470 C 0.01022 0.67104 0.26291 0.0
C1471 C 0.01905 0.68992 0.25103 0.0
C1472 C 0.05443 0.71378 0.24765 0.0
C1473 C 0.08146 0.71754 0.25642 0.0
C1474 C 0.0729 0.69694 0.26824 0.0
C1475 C 0.03682 0.67444 0.2717 0.0
H1476 H 0.01804 0.11882 0.11126 0.0
H1477 H 0.104 0.22778 0.11447 0.0
H1478 H 0.14797 0.20731 0.11191 0.0
H1479 H 0.05794 0.08374 0.13221 0.0
H1480 H 0.0403 0.04223 0.12324 0.0
H1481 H 0.01669 0.06642 0.12309 0.0
H1482 H 0.01773 0.06667 0.09717 0.0
H1483 H 0.04188 0.04289 0.09725 0.0
H1484 H 0.05967 0.08466 0.08848 0.0
H1485 H 0.18211 0.17372 0.10976 0.0
H1486 H 0.20339 0.13044 0.11182 0.0
H1487 H 0.09423 0.04427 0.11342 0.0
C1488 C 0.04609 0.13833 0.1114 0.0
C1489 C 0.05792 0.17475 0.11306 0.0
C1490 C 0.09474 0.19971 0.11315 0.0
C1491 C 0.11973 0.18832 0.11164 0.0
C1492 C 0.10719 0.15192 0.11024 0.0
C1493 C 0.07116 0.1273 0.11036 0.0
C1494 C 0.06432 0.08957 0.11037 0.0
C1495 C 0.04363 0.06933 0.12298 0.0
C1496 C 0.04476 0.0698 0.09755 0.0
C1497 C 0.10219 0.09672 0.11053 0.0
C1498 C 0.1266 0.13273 0.11 0.0
C1499 C 0.16321 0.14547 0.11015 0.0
C1500 C 0.17506 0.12076 0.11125 0.0
C1501 C 0.1503 0.084 0.1126 0.0
C1502 C 0.11357 0.07205 0.11208 0.0
H1503 H 0.95323 0.04693 0.13675 0.0
H1504 H 0.91172 0.07927 0.10332 0.0
H1505 H 0.87508 0.01621 0.09652 0.0
H1506 H 0.95891 0.97765 0.11948 0.0
H1507 H 0.94619 0.94886 0.1339 0.0
H1508 H 0.96891 0.99642 0.13609 0.0
H1509 H 0.91764 0.99029 0.15128 0.0
H1510 H 0.89466 0.9427 0.14916 0.0
H1511 H 0.87259 0.96731 0.14505 0.0
H1512 H 0.84489 0.94961 0.09295 0.0
H1513 H 0.82206 0.88477 0.09328 0.0
H1514 H 0.88114 0.89649 0.1298 0.0
C1515 C 0.93644 0.04094 0.12799 0.0
C1516 C 0.93538 0.06818 0.12057 0.0
C1517 C 0.91294 0.05893 0.10919 0.0
C1518 C 0.89208 0.02319 0.10525 0.0
C1519 C 0.89386 0.9971 0.11282 0.0
C1520 C 0.91541 0.00559 0.12398 0.0
C1521 C 0.91273 0.97274 0.13041 0.0
C1522 C 0.94882 0.974 0.12994 0.0
C1523 C 0.89855 0.96799 0.14483 0.0
C1524 C 0.88589 0.94423 0.12123 0.0
C1525 C 0.87566 0.95884 0.11104 0.0
C1526 C 0.85245 0.93789 0.10095 0.0
C1527 C 0.83963 0.90113 0.10123 0.0
C1528 C 0.8496 0.88566 0.11163 0.0
C1529 C 0.87267 0.90751 0.12184 0.0
H1530 H 0.95998 0.90677 0.09953 0.0
H1531 H 0.94595 0.80417 0.11062 0.0
H1532 H 0.01065 0.82771 0.1081 0.0
H1533 H 0.03791 0.93024 0.07487 0.0
H1534 H 0.05849 0.97646 0.07958 0.0
H1535 H 0.01064 0.94925 0.07929 0.0
H1536 H 0.00771 0.96578 0.10413 0.0
H1537 H 0.05511 0.993 0.10394 0.0
H1538 H 0.034 0.95886 0.11651 0.0
H1539 H 0.07649 0.86609 0.11029 0.0
H1540 H 0.13912 0.9143 0.11301 0.0
H1541 H 0.11107 0.99105 0.09844 0.0
C1542 C 0.97049 0.88892 0.10067 0.0
C1543 C 0.94835 0.85365 0.10499 0.0
C1544 C 0.96265 0.83104 0.10694 0.0
C1545 C 0.99934 0.84427 0.10561 0.0
C1546 C 0.02095 0.87983 0.10197 0.0
C1547 C 0.00691 0.9015 0.09902 0.0
C1548 C 0.03607 0.93938 0.0964 0.0
C1549 C 0.03575 0.94941 0.08166 0.0
C1550 C 0.03297 0.96572 0.10585 0.0
C1551 C 0.06864 0.93636 0.09949 0.0
C1552 C 0.05936 0.90168 0.10256 0.0
C1553 C 0.08429 0.89306 0.10741 0.0
C1554 C 0.11962 0.92051 0.10903 0.0
C1555 C 0.1296 0.95587 0.10566 0.0
C1556 C 0.10399 0.96388 0.1007 0.0
H1557 H 0.07588 0.13089 0.38884 0.0
H1558 H 0.0935 0.15869 0.34674 0.0
H1559 H 0.13322 0.13348 0.34512 0.0
H1560 H 0.16713 0.14424 0.39619 0.0
H1561 H 0.14927 0.10615 0.40716 0.0
H1562 H 0.12723 0.13188 0.40567 0.0
H1563 H 0.06859 0.0747 0.39931 0.0
H1564 H 0.09048 0.04891 0.40065 0.0
H1565 H 0.06829 0.0483 0.38531 0.0
H1566 H 0.16304 0.09786 0.34701 0.0
H1567 H 0.18379 0.05583 0.35269 0.0
H1568 H 0.14792 0.05088 0.39361 0.0
C1569 C 0.08928 0.13278 0.37946 0.0
C1570 C 0.08229 0.14712 0.36795 0.0
C1571 C 0.09901 0.14806 0.35567 0.0
C1572 C 0.1216 0.13388 0.35466 0.0
C1573 C 0.12715 0.11879 0.36604 0.0
C1574 C 0.1118 0.11835 0.37825 0.0
C1575 C 0.11938 0.09725 0.38852 0.0
C1576 C 0.14211 0.12132 0.40007 0.0
C1577 C 0.08462 0.06541 0.39375 0.0
C1578 C 0.14033 0.08508 0.38005 0.0
C1579 C 0.14472 0.09807 0.36714 0.0
C1580 C 0.1605 0.08812 0.35716 0.0
C1581 C 0.17205 0.06414 0.36044 0.0
C1582 C 0.16784 0.05053 0.3736 0.0
C1583 C 0.15217 0.0615 0.38354 0.0
H1584 H 0.95043 0.10218 0.36367 0.0
H1585 H 0.95193 0.1199 0.40647 0.0
H1586 H 0.91221 0.05522 0.41001 0.0
H1587 H 0.8589 0.02805 0.361 0.0
H1588 H 0.8709 0.00511 0.34886 0.0
H1589 H 0.89555 0.053 0.3497 0.0
H1590 H 0.95419 0.05154 0.35278 0.0
H1591 H 0.92976 0.00373 0.35198 0.0
H1592 H 0.95764 0.02576 0.36625 0.0
H1593 H 0.87421 0.98755 0.40875 0.0
H1594 H 0.84542 0.92338 0.40293 0.0
H1595 H 0.873 0.95161 0.36121 0.0
C1596 C 0.94185 0.09259 0.37376 0.0
C1597 C 0.95386 0.11598 0.38478 0.0
C1598 C 0.94275 0.10231 0.39788 0.0
C1599 C 0.92015 0.06568 0.39997 0.0
C1600 C 0.90923 0.04318 0.38888 0.0
C1601 C 0.91993 0.05619 0.37604 0.0
C1602 C 0.90739 0.02647 0.36591 0.0
C1603 C 0.88165 0.02827 0.35577 0.0
C1604 C 0.93914 0.02691 0.35882 0.0
C1605 C 0.88832 0.99465 0.37505 0.0
C1606 C 0.88903 0.00463 0.38824 0.0
C1607 C 0.8734 0.97945 0.39845 0.0
C1608 C 0.85708 0.94315 0.39507 0.0
C1609 C 0.85727 0.93269 0.38166 0.0
C1610 C 0.87273 0.95886 0.37158 0.0
H1611 H 0.03853 0.91871 0.35964 0.0
H1612 H 0.07501 0.92122 0.40034 0.0
H1613 H 0.01227 0.88579 0.40785 0.0
H1614 H 0.96345 0.92742 0.36771 0.0
H1615 H 0.93614 0.89788 0.35457 0.0
H1616 H 0.98374 0.92294 0.35263 0.0
H1617 H 0.98455 0.86438 0.34832 0.0
H1618 H 0.93694 0.83912 0.35035 0.0
H1619 H 0.96511 0.82903 0.36051 0.0
H1620 H 0.94474 0.85253 0.41087 0.0
H1621 H 0.87917 0.8239 0.40906 0.0
H1622 H 0.8888 0.84092 0.36609 0.0
C1623 C 0.03352 0.91197 0.37016 0.0
C1624 C 0.06174 0.92294 0.37942 0.0
C1625 C 0.05382 0.91312 0.39306 0.0
C1626 C 0.01829 0.893 0.39741 0.0
C1627 C 0.99116 0.88263 0.38795 0.0
C1628 C 0.99849 0.89171 0.3746 0.0
C1629 C 0.96485 0.87763 0.36638 0.0
C1630 C 0.96188 0.90829 0.35995 0.0
C1631 C 0.96275 0.85095 0.35577 0.0
C1632 C 0.93723 0.85935 0.37719 0.0
C1633 C 0.95278 0.8626 0.38959 0.0
C1634 C 0.93234 0.84951 0.40118 0.0
C1635 C 0.89515 0.83326 0.40005 0.0
C1636 C 0.87888 0.83002 0.38742 0.0
C1637 C 0.9003 0.84264 0.37586 0.0
H1638 H 0.89467 0.94469 0.85632 0.0
H1639 H 0.83017 0.91333 0.89243 0.0
H1640 H 0.85501 0.87483 0.89873 0.0
H1641 H 0.885 0.85979 0.84901 0.0
H1642 H 0.92992 0.87809 0.84293 0.0
H1643 H 0.90748 0.90339 0.84148 0.0
H1644 H 0.95899 0.95588 0.85434 0.0
H1645 H 0.9817 0.93083 0.85574 0.0
H1646 H 0.97188 0.94799 0.87058 0.0
H1647 H 0.88925 0.84188 0.90135 0.0
H1648 H 0.92821 0.81558 0.89981 0.0
H1649 H 0.96676 0.86608 0.86118 0.0
C1650 C 0.88568 0.92988 0.8656 0.0
C1651 C 0.86051 0.93218 0.87393 0.0
C1652 C 0.8494 0.912 0.8859 0.0
C1653 C 0.86338 0.89011 0.88955 0.0
C1654 C 0.88809 0.8885 0.88104 0.0
C1655 C 0.89898 0.90778 0.86929 0.0
C1656 C 0.92561 0.90143 0.86179 0.0
C1657 C 0.91112 0.88467 0.84798 0.0
C1658 C 0.96167 0.93609 0.86054 0.0
C1659 C 0.92807 0.87537 0.87113 0.0
C1660 C 0.90652 0.86852 0.88225 0.0
C1661 C 0.90587 0.84675 0.89262 0.0
C1662 C 0.92805 0.83195 0.89165 0.0
C1663 C 0.95014 0.83855 0.88031 0.0
C1664 C 0.94971 0.86013 0.86985 0.0
H1665 H 0.04632 0.94666 0.88874 0.0
H1666 H 0.12675 0.93028 0.86981 0.0
H1667 H 0.16844 0.99531 0.8698 0.0
H1668 H 0.0614 0.0204 0.87142 0.0
H1669 H 0.05556 0.04417 0.88507 0.0
H1670 H 0.03367 0.99637 0.88548 0.0
H1671 H 0.06304 0.9982 0.90829 0.0
H1672 H 0.08424 0.04606 0.90819 0.0
H1673 H 0.1107 0.0249 0.91004 0.0
H1674 H 0.19645 0.06198 0.86795 0.0
H1675 H 0.21373 0.12587 0.86866 0.0
H1676 H 0.11735 0.09865 0.89065 0.0
C1677 C 0.07333 0.95682 0.88524 0.0
C1678 C 0.08393 0.93378 0.87962 0.0
C1679 C 0.1188 0.94771 0.87454 0.0
C1680 C 0.14243 0.98455 0.87436 0.0
C1681 C 0.1308 0.00683 0.87951 0.0
C1682 C 0.09748 0.99346 0.88526 0.0
C1683 C 0.09101 0.02316 0.88965 0.0
C1684 C 0.05849 0.02087 0.88247 0.0
C1685 C 0.08703 0.02308 0.90495 0.0
C1686 C 0.12529 0.05519 0.88501 0.0
C1687 C 0.14777 0.04528 0.87905 0.0
C1688 C 0.17955 0.07015 0.87293 0.0
C1689 C 0.189 0.1062 0.87325 0.0
C1690 C 0.16701 0.11677 0.87984 0.0
C1691 C 0.13482 0.09102 0.88576 0.0
H1692 H 0.04493 0.11931 0.85783 0.0
H1693 H 0.072 0.15872 0.89859 0.0
H1694 H 0.00784 0.13323 0.90367 0.0
H1695 H 0.97339 0.13712 0.85351 0.0
H1696 H 0.94693 0.09761 0.84369 0.0
H1697 H 0.99476 0.11877 0.84341 0.0
H1698 H 0.99098 0.05948 0.85061 0.0
H1699 H 0.94316 0.0381 0.85081 0.0
H1700 H 0.96668 0.03721 0.86555 0.0
H1701 H 0.94004 0.10038 0.90435 0.0
H1702 H 0.87509 0.06415 0.90052 0.0
H1703 H 0.89432 0.05077 0.85887 0.0
C1704 C 0.03755 0.12259 0.86786 0.0
C1705 C 0.06353 0.1409 0.87784 0.0
C1706 C 0.05256 0.14481 0.89079 0.0
C1707 C 0.01623 0.13044 0.89375 0.0
C1708 C 0.99139 0.11268 0.88361 0.0
C1709 C 0.0017 0.10888 0.87092 0.0
C1710 C 0.97009 0.08869 0.86175 0.0
C1711 C 0.97138 0.11195 0.84989 0.0
C1712 C 0.96759 0.05381 0.8569 0.0
C1713 C 0.94016 0.08151 0.87125 0.0
C1714 C 0.95285 0.09528 0.88385 0.0
C1715 C 0.92989 0.08989 0.89448 0.0
C1716 C 0.89308 0.06936 0.89221 0.0
C1717 C 0.8797 0.05486 0.87937 0.0
C1718 C 0.90365 0.06179 0.86874 0.0
H1719 H 0.86614 0.96713 0.633 0.0
H1720 H 0.81102 0.92429 0.59541 0.0
H1721 H 0.83628 0.88448 0.59413 0.0
H1722 H 0.9462 0.97025 0.62273 0.0
H1723 H 0.95608 0.95913 0.63895 0.0
H1724 H 0.93088 0.98172 0.63768 0.0
H1725 H 0.87967 0.93171 0.65154 0.0
H1726 H 0.90493 0.90921 0.65297 0.0
H1727 H 0.86049 0.88609 0.64616 0.0
H1728 H 0.86978 0.85128 0.59638 0.0
H1729 H 0.9081 0.82619 0.60236 0.0
H1730 H 0.94396 0.89348 0.63776 0.0
C1731 C 0.85886 0.94888 0.62466 0.0
C1732 C 0.8364 0.9485 0.61436 0.0
C1733 C 0.82803 0.92476 0.60345 0.0
C1734 C 0.84231 0.90213 0.60261 0.0
C1735 C 0.86533 0.90393 0.61268 0.0
C1736 C 0.87359 0.92668 0.6235 0.0
C1737 C 0.90078 0.925 0.63251 0.0
C1738 C 0.93553 0.96117 0.63299 0.0
C1739 C 0.88555 0.91223 0.64663 0.0
C1740 C 0.90607 0.89743 0.62517 0.0
C1741 C 0.88543 0.8856 0.61375 0.0
C1742 C 0.88601 0.86025 0.60533 0.0
C1743 C 0.90793 0.84621 0.60879 0.0
C1744 C 0.92902 0.85767 0.62054 0.0
C1745 C 0.92816 0.88393 0.62871 0.0
H1746 H 0.09593 0.04802 0.6149 0.0
H1747 H 0.20187 0.06812 0.6244 0.0
H1748 H 0.17968 0.00323 0.62421 0.0
H1749 H 0.04799 0.97398 0.63454 0.0
H1750 H 0.01206 0.9496 0.6229 0.0
H1751 H 0.03673 0.99744 0.62235 0.0
H1752 H 0.05208 0.99602 0.59736 0.0
H1753 H 0.0266 0.94811 0.59774 0.0
H1754 H 0.07239 0.97034 0.59235 0.0
H1755 H 0.14339 0.9359 0.62647 0.0
H1756 H 0.09814 0.87145 0.6267 0.0
H1757 H 0.01771 0.89624 0.61377 0.0
C1758 C 0.11462 0.0387 0.61648 0.0
C1759 C 0.1506 0.06279 0.61953 0.0
C1760 C 0.17435 0.04993 0.62178 0.0
C1761 C 0.16189 0.01317 0.62183 0.0
C1762 C 0.12585 0.98994 0.61932 0.0
C1763 C 0.1028 0.00227 0.61626 0.0
C1764 C 0.06526 0.97191 0.61405 0.0
C1765 C 0.03899 0.97334 0.62406 0.0
C1766 C 0.0534 0.97157 0.59951 0.0
C1767 C 0.07049 0.94058 0.61682 0.0
C1768 C 0.1055 0.95141 0.61997 0.0
C1769 C 0.11607 0.92709 0.62376 0.0
C1770 C 0.09029 0.89072 0.62399 0.0
C1771 C 0.05476 0.87935 0.62031 0.0
C1772 C 0.04481 0.90451 0.61667 0.0
H1773 H 0.10996 0.15185 0.63391 0.0
H1774 H 0.12993 0.16901 0.59124 0.0
H1775 H 0.06515 0.14214 0.58716 0.0
H1776 H 0.03421 0.0668 0.63083 0.0
H1777 H 0.01149 0.07228 0.64495 0.0
H1778 H 0.05937 0.09595 0.64442 0.0
H1779 H 0.06038 0.15589 0.64741 0.0
H1780 H 0.01248 0.13239 0.64803 0.0
H1781 H 0.03564 0.16745 0.63595 0.0
H1782 H 0.99663 0.11082 0.58803 0.0
H1783 H 0.93224 0.07663 0.59378 0.0
H1784 H 0.96014 0.07883 0.63567 0.0
C1785 C 0.10088 0.15047 0.62371 0.0
C1786 C 0.12492 0.16268 0.61291 0.0
C1787 C 0.11185 0.15993 0.59969 0.0
C1788 C 0.07515 0.14472 0.59728 0.0
C1789 C 0.05202 0.13226 0.60819 0.0
C1790 C 0.06455 0.13494 0.62114 0.0
C1791 C 0.03456 0.11759 0.63111 0.0
C1792 C 0.03494 0.08631 0.63824 0.0
C1793 C 0.03585 0.14497 0.64122 0.0
C1794 C 0.0031 0.10474 0.62181 0.0
C1795 C 0.01338 0.11353 0.60863 0.0
C1796 C 0.98833 0.10386 0.59834 0.0
C1797 C 0.9519 0.08453 0.60167 0.0
C1798 C 0.94116 0.07483 0.61514 0.0
C1799 C 0.96731 0.08543 0.62524 0.0
H1800 H 0.68876 0.46387 0.44554 0.0
H1801 H 0.77561 0.56993 0.45397 0.0
H1802 H 0.81905 0.54997 0.44899 0.0
H1803 H 0.7269 0.41971 0.4624 0.0
H1804 H 0.70923 0.38248 0.45102 0.0
H1805 H 0.68619 0.40684 0.45341 0.0
H1806 H 0.68874 0.41793 0.42781 0.0
H1807 H 0.71253 0.39418 0.42539 0.0
H1808 H 0.73116 0.43918 0.41936 0.0
H1809 H 0.85244 0.51747 0.4437 0.0
H1810 H 0.87298 0.47352 0.44312 0.0
H1811 H 0.7636 0.38794 0.44036 0.0
C1812 C 0.71696 0.48284 0.44627 0.0
C1813 C 0.72919 0.51834 0.45006 0.0
C1814 C 0.76607 0.54258 0.45106 0.0
C1815 C 0.79076 0.53154 0.44813 0.0
C1816 C 0.77786 0.49615 0.44439 0.0
C1817 C 0.74175 0.47201 0.44375 0.0
C1818 C 0.73452 0.43465 0.44113 0.0
C1819 C 0.71297 0.40946 0.45268 0.0
C1820 C 0.71562 0.42068 0.42762 0.0
C1821 C 0.77223 0.44132 0.44068 0.0
C1822 C 0.7969 0.4771 0.44211 0.0
C1823 C 0.8334 0.48945 0.44246 0.0
C1824 C 0.84487 0.46441 0.44197 0.0
C1825 C 0.8198 0.42761 0.44149 0.0
C1826 C 0.7832 0.41606 0.44044 0.0
H1827 H 0.54121 0.24036 0.47405 0.0
H1828 H 0.47035 0.22715 0.44115 0.0
H1829 H 0.49767 0.29237 0.43932 0.0
H1830 H 0.54775 0.32042 0.48891 0.0
H1831 H 0.59462 0.33996 0.49241 0.0
H1832 H 0.5665 0.29228 0.49217 0.0
H1833 H 0.60808 0.28797 0.47451 0.0
H1834 H 0.63602 0.33566 0.47456 0.0
H1835 H 0.61705 0.31254 0.45908 0.0
H1836 H 0.53473 0.35881 0.44019 0.0
H1837 H 0.57822 0.42227 0.44416 0.0
H1838 H 0.62782 0.39192 0.47535 0.0
C1839 C 0.53098 0.25121 0.46668 0.0
C1840 C 0.50349 0.22885 0.45782 0.0
C1841 C 0.49123 0.24399 0.44811 0.0
C1842 C 0.50665 0.28094 0.44695 0.0
C1843 C 0.5347 0.30238 0.45546 0.0
C1844 C 0.54681 0.28814 0.46514 0.0
C1845 C 0.57908 0.3171 0.47231 0.0
C1846 C 0.57152 0.31746 0.48734 0.0
C1847 C 0.61199 0.31307 0.46997 0.0
C1848 C 0.58284 0.34973 0.46527 0.0
C1849 C 0.55698 0.34069 0.4556 0.0
C1850 C 0.55508 0.36631 0.44778 0.0
C1851 C 0.57996 0.40227 0.45008 0.0
C1852 C 0.60645 0.41222 0.46007 0.0
C1853 C 0.60799 0.38538 0.46762 0.0
H1854 H 0.77878 0.30836 0.46267 0.0
H1855 H 0.78402 0.28245 0.42107 0.0
H1856 H 0.71859 0.24363 0.42067 0.0
H1857 H 0.707 0.22253 0.47293 0.0
H1858 H 0.68705 0.24121 0.48363 0.0
H1859 H 0.73435 0.26528 0.48071 0.0
H1860 H 0.73008 0.31978 0.47248 0.0
H1861 H 0.68274 0.2958 0.4753 0.0
H1862 H 0.70003 0.31424 0.45902 0.0
H1863 H 0.65158 0.20794 0.42489 0.0
H1864 H 0.58958 0.17975 0.43339 0.0
H1865 H 0.62984 0.23191 0.47175 0.0
C1866 C 0.76623 0.29422 0.45352 0.0
C1867 C 0.78645 0.29821 0.44194 0.0
C1868 C 0.76897 0.27964 0.4301 0.0
C1869 C 0.73183 0.25755 0.42976 0.0
C1870 C 0.71255 0.25458 0.44131 0.0
C1871 C 0.72921 0.27255 0.45295 0.0
C1872 C 0.70247 0.26613 0.46383 0.0
C1873 C 0.70805 0.24768 0.47599 0.0
C1874 C 0.70393 0.30106 0.46789 0.0
C1875 C 0.66825 0.24153 0.45655 0.0
C1876 C 0.67439 0.235 0.44359 0.0
C1877 C 0.64646 0.21288 0.43504 0.0
C1878 C 0.61135 0.19698 0.43994 0.0
C1879 C 0.60464 0.20352 0.45322 0.0
C1880 C 0.63372 0.22621 0.46153 0.0
H1881 H 0.71806 0.4232 0.72589 0.0
H1882 H 0.80303 0.53017 0.71723 0.0
H1883 H 0.84666 0.50924 0.71777 0.0
H1884 H 0.77317 0.39888 0.74845 0.0
H1885 H 0.75022 0.35365 0.74244 0.0
H1886 H 0.72714 0.37846 0.74347 0.0
H1887 H 0.71046 0.36539 0.71836 0.0
H1888 H 0.73412 0.34133 0.71717 0.0
H1889 H 0.74531 0.37827 0.7061 0.0
H1890 H 0.87794 0.47396 0.71431 0.0
H1891 H 0.89662 0.4288 0.71133 0.0
H1892 H 0.79264 0.34631 0.72451 0.0
C1893 C 0.74608 0.44241 0.72467 0.0
C1894 C 0.75741 0.47829 0.72165 0.0
C1895 C 0.79407 0.50272 0.71982 0.0
C1896 C 0.81893 0.49099 0.72 0.0
C1897 C 0.80667 0.45501 0.72238 0.0
C1898 C 0.77125 0.43129 0.72513 0.0
C1899 C 0.76454 0.39372 0.72672 0.0
C1900 C 0.7531 0.3804 0.74113 0.0
C1901 C 0.737 0.36821 0.71648 0.0
C1902 C 0.80131 0.39969 0.72375 0.0
C1903 C 0.82527 0.43516 0.72121 0.0
C1904 C 0.85977 0.44634 0.71672 0.0
C1905 C 0.87009 0.42064 0.71496 0.0
C1906 C 0.84613 0.38453 0.71791 0.0
C1907 C 0.81155 0.37402 0.72247 0.0
H1908 H 0.53726 0.2919 0.70048 0.0
H1909 H 0.53026 0.2584 0.74183 0.0
H1910 H 0.5613 0.32187 0.74898 0.0
H1911 H 0.62266 0.36394 0.70185 0.0
H1912 H 0.61397 0.39139 0.6907 0.0
H1913 H 0.58824 0.34375 0.68933 0.0
H1914 H 0.52993 0.34599 0.69223 0.0
H1915 H 0.55552 0.39377 0.69357 0.0
H1916 H 0.52468 0.36798 0.70665 0.0
H1917 H 0.599 0.39018 0.75088 0.0
H1918 H 0.63771 0.45517 0.7475 0.0
H1919 H 0.6173 0.44089 0.70478 0.0
C1920 C 0.54189 0.29777 0.71108 0.0
C1921 C 0.53168 0.27042 0.72062 0.0
C1922 C 0.53785 0.27913 0.73439 0.0
C1923 C 0.55544 0.31501 0.7385 0.0
C1924 C 0.56591 0.34143 0.72871 0.0
C1925 C 0.55891 0.33298 0.71529 0.0
C1926 C 0.57406 0.36565 0.70654 0.0
C1927 C 0.60135 0.3662 0.69652 0.0
C1928 C 0.54427 0.36851 0.69933 0.0
C1929 C 0.59176 0.39413 0.71704 0.0
C1930 C 0.58669 0.37993 0.7298 0.0
C1931 C 0.60262 0.4015 0.74095 0.0
C1932 C 0.62452 0.43833 0.73894 0.0
C1933 C 0.63033 0.45297 0.72587 0.0
C1934 C 0.61318 0.43053 0.71489 0.0
H1935 H 0.71685 0.2788 0.69481 0.0
H1936 H 0.74942 0.23637 0.72787 0.0
H1937 H 0.68612 0.19618 0.73363 0.0
H1938 H 0.64271 0.2772 0.71135 0.0
H1939 H 0.61562 0.26476 0.69645 0.0
H1940 H 0.66339 0.29018 0.6951 0.0
H1941 H 0.66222 0.24223 0.67927 0.0
H1942 H 0.61446 0.21648 0.68065 0.0
H1943 H 0.64111 0.19657 0.68476 0.0
H1944 H 0.61926 0.16239 0.73624 0.0
H1945 H 0.55407 0.13732 0.73544 0.0
H1946 H 0.5656 0.19906 0.69972 0.0
C1947 C 0.71086 0.26116 0.7033 0.0
C1948 C 0.73825 0.26081 0.7109 0.0
C1949 C 0.72899 0.23714 0.72188 0.0
C1950 C 0.69311 0.21419 0.72522 0.0
C1951 C 0.66687 0.21507 0.71741 0.0
C1952 C 0.67534 0.23794 0.70667 0.0
C1953 C 0.64225 0.2338 0.69988 0.0
C1954 C 0.64092 0.26854 0.70075 0.0
C1955 C 0.63989 0.22153 0.68527 0.0
C1956 C 0.61367 0.20487 0.70845 0.0
C1957 C 0.62844 0.19465 0.71858 0.0
C1958 C 0.60743 0.16989 0.72826 0.0
C1959 C 0.57047 0.15575 0.7277 0.0
C1960 C 0.55485 0.16597 0.71744 0.0
C1961 C 0.57673 0.19029 0.70754 0.0
H1962 H 0.64703 0.20262 0.19907 0.0
H1963 H 0.60697 0.15281 0.23771 0.0
H1964 H 0.56762 0.17869 0.23861 0.0
H1965 H 0.65102 0.28451 0.208 0.0
H1966 H 0.63908 0.29207 0.19154 0.0
H1967 H 0.662 0.26734 0.19345 0.0
H1968 H 0.61148 0.2142 0.18045 0.0
H1969 H 0.58861 0.23893 0.17843 0.0
H1970 H 0.56609 0.19547 0.18607 0.0
H1971 H 0.53358 0.21136 0.23551 0.0
H1972 H 0.50724 0.24787 0.22843 0.0
H1973 H 0.573 0.27906 0.19262 0.0
C1974 C 0.62965 0.19679 0.20762 0.0
C1975 C 0.62984 0.1756 0.21828 0.0
C1976 C 0.60706 0.16893 0.22941 0.0
C1977 C 0.58471 0.18356 0.23003 0.0
C1978 C 0.58587 0.20523 0.21954 0.0
C1979 C 0.60784 0.21194 0.20857 0.0
C1980 C 0.60551 0.23769 0.199 0.0
C1981 C 0.64153 0.27244 0.19794 0.0
C1982 C 0.59211 0.22053 0.18517 0.0
C1983 C 0.57821 0.24371 0.20615 0.0
C1984 C 0.56723 0.22488 0.21799 0.0
C1985 C 0.54198 0.22626 0.22624 0.0
C1986 C 0.52722 0.24712 0.22216 0.0
C1987 C 0.53788 0.26632 0.20996 0.0
C1988 C 0.56406 0.26473 0.202 0.0
H1989 H 0.71521 0.29032 0.21644 0.0
H1990 H 0.80132 0.27042 0.22567 0.0
H1991 H 0.84222 0.33521 0.22858 0.0
H1992 H 0.76176 0.36345 0.19698 0.0
H1993 H 0.74072 0.38785 0.20273 0.0
H1994 H 0.71707 0.34008 0.20355 0.0
H1995 H 0.70694 0.34226 0.229 0.0
H1996 H 0.72996 0.39017 0.2282 0.0
H1997 H 0.74447 0.3682 0.23982 0.0
H1998 H 0.87548 0.40256 0.2264 0.0
H1999 H 0.89646 0.46657 0.22229 0.0
H2000 H 0.78758 0.4413 0.21589 0.0
C2001 C 0.7424 0.29958 0.21954 0.0
C2002 C 0.75524 0.27562 0.22092 0.0
C2003 C 0.79098 0.28846 0.2248 0.0
C2004 C 0.81438 0.32518 0.22637 0.0
C2005 C 0.80125 0.34834 0.2243 0.0
C2006 C 0.7658 0.33591 0.22133 0.0
C2007 C 0.75857 0.36612 0.21887 0.0
C2008 C 0.74367 0.36424 0.20469 0.0
C2009 C 0.73351 0.36673 0.22962 0.0
C2010 C 0.79579 0.39751 0.2203 0.0
C2011 C 0.82011 0.38686 0.22346 0.0
C2012 C 0.85656 0.41122 0.22421 0.0
C2013 C 0.86827 0.44734 0.22179 0.0
C2014 C 0.84355 0.45842 0.21868 0.0
C2015 C 0.80697 0.43333 0.21811 0.0
H2016 H 0.72229 0.44049 0.18981 0.0
H2017 H 0.74965 0.51748 0.22193 0.0
H2018 H 0.68566 0.49584 0.2256 0.0
H2019 H 0.64859 0.44696 0.17645 0.0
H2020 H 0.62246 0.4001 0.17277 0.0
H2021 H 0.67036 0.42193 0.17254 0.0
H2022 H 0.66871 0.37636 0.18978 0.0
H2023 H 0.62083 0.35421 0.18996 0.0
H2024 H 0.6454 0.36998 0.20539 0.0
H2025 H 0.61884 0.46316 0.22667 0.0
H2026 H 0.55403 0.42178 0.22514 0.0
H2027 H 0.57062 0.36957 0.19117 0.0
C2028 C 0.71501 0.45303 0.19761 0.0
C2029 C 0.74114 0.48083 0.20558 0.0
C2030 C 0.73021 0.49625 0.21568 0.0
C2031 C 0.69394 0.48418 0.21781 0.0
C2032 C 0.66901 0.45692 0.20969 0.0
C2033 C 0.67909 0.44155 0.19979 0.0
C2034 C 0.64709 0.41208 0.19264 0.0
C2035 C 0.64714 0.42081 0.17772 0.0
C2036 C 0.64542 0.37604 0.19456 0.0
C2037 C 0.61729 0.4132 0.20008 0.0
C2038 C 0.63052 0.43909 0.20994 0.0
C2039 C 0.60819 0.44324 0.21885 0.0
C2040 C 0.57147 0.41973 0.21788 0.0
C2041 C 0.55743 0.39287 0.20793 0.0
C2042 C 0.58057 0.39025 0.19869 0.0
H2043 H 0.59104 0.20856 0.97367 0.0
H2044 H 0.58259 0.17225 0.93259 0.0
H2045 H 0.54584 0.19957 0.92706 0.0
H2046 H 0.50212 0.19227 0.9766 0.0
H2047 H 0.5146 0.23106 0.98679 0.0
H2048 H 0.54063 0.20925 0.98734 0.0
H2049 H 0.59745 0.26863 0.98122 0.0
H2050 H 0.57164 0.29067 0.98075 0.0
H2051 H 0.59756 0.29235 0.96637 0.0
H2052 H 0.5118 0.23328 0.92606 0.0
H2053 H 0.48256 0.26907 0.92975 0.0
H2054 H 0.51087 0.27909 0.97183 0.0
C2055 C 0.58169 0.2064 0.96347 0.0
C2056 C 0.58986 0.18839 0.95353 0.0
C2057 C 0.57667 0.18592 0.94036 0.0
C2058 C 0.5558 0.20135 0.93714 0.0
C2059 C 0.54815 0.21875 0.94724 0.0
C2060 C 0.56065 0.22119 0.96014 0.0
C2061 C 0.54863 0.24099 0.96925 0.0
C2062 C 0.52509 0.21695 0.98067 0.0
C2063 C 0.58073 0.27518 0.97471 0.0
C2064 C 0.52732 0.24942 0.95947 0.0
C2065 C 0.52755 0.23669 0.94679 0.0
C2066 C 0.51116 0.24302 0.93598 0.0
C2067 C 0.4946 0.2633 0.93817 0.0
C2068 C 0.49423 0.27659 0.9511 0.0
C2069 C 0.51029 0.26895 0.96188 0.0
H2070 H 0.78713 0.38078 0.9401 0.0
H2071 H 0.84283 0.39123 0.97734 0.0
H2072 H 0.8184 0.32629 0.97802 0.0
H2073 H 0.70931 0.30604 0.94906 0.0
H2074 H 0.69908 0.2842 0.93299 0.0
H2075 H 0.72574 0.33189 0.93392 0.0
H2076 H 0.77627 0.33039 0.92062 0.0
H2077 H 0.74951 0.28263 0.91946 0.0
H2078 H 0.79371 0.30279 0.92644 0.0
H2079 H 0.7802 0.26077 0.97696 0.0
H2080 H 0.7347 0.19788 0.97281 0.0
H2081 H 0.70496 0.22877 0.93585 0.0
C2082 C 0.79528 0.36936 0.94803 0.0
C2083 C 0.81727 0.39073 0.95855 0.0
C2084 C 0.82636 0.37505 0.96912 0.0
C2085 C 0.8126 0.33827 0.9696 0.0
C2086 C 0.78982 0.31755 0.9594 0.0
C2087 C 0.78161 0.33243 0.94868 0.0
C2088 C 0.75391 0.30372 0.93972 0.0
C2089 C 0.72002 0.30665 0.93888 0.0
C2090 C 0.76928 0.30496 0.92573 0.0
C2091 C 0.74713 0.27064 0.94732 0.0
C2092 C 0.76816 0.27924 0.95864 0.0
C2093 C 0.76423 0.25353 0.96794 0.0
C2094 C 0.73824 0.21799 0.96557 0.0
C2095 C 0.71692 0.20859 0.95393 0.0
C2096 C 0.72164 0.23522 0.94466 0.0
H2097 H 0.76602 0.46518 0.97093 0.0
H2098 H 0.77689 0.50797 0.93086 0.0
H2099 H 0.71212 0.48517 0.92997 0.0
H2100 H 0.68744 0.38493 0.96416 0.0
H2101 H 0.66776 0.38119 0.98041 0.0
H2102 H 0.71543 0.40479 0.97861 0.0
H2103 H 0.71902 0.46089 0.98938 0.0
H2104 H 0.67132 0.43737 0.99129 0.0
H2105 H 0.69319 0.47909 0.98239 0.0
H2106 H 0.64545 0.45465 0.93296 0.0
H2107 H 0.58211 0.41667 0.93936 0.0
H2108 H 0.61527 0.39175 0.97694 0.0
C2109 C 0.75481 0.47047 0.96213 0.0
C2110 C 0.77633 0.48869 0.95104 0.0
C2111 C 0.76071 0.49421 0.9395 0.0
C2112 C 0.72401 0.48145 0.93891 0.0
C2113 C 0.70326 0.46291 0.94989 0.0
C2114 C 0.71808 0.45731 0.96127 0.0
C2115 C 0.6896 0.4339 0.9712 0.0
C2116 C 0.6901 0.39915 0.97374 0.0
C2117 C 0.69352 0.45402 0.98434 0.0
C2118 C 0.65657 0.42704 0.96359 0.0
C2119 C 0.66491 0.44428 0.9514 0.0
C2120 C 0.63856 0.44114 0.94254 0.0
C2121 C 0.6027 0.41956 0.94624 0.0
C2122 C 0.59367 0.40112 0.95861 0.0
C2123 C 0.62115 0.40531 0.96737 0.0
H2124 H 0.37219 0.80872 0.79815 0.0
H2125 H 0.38562 0.83985 0.75634 0.0
H2126 H 0.42261 0.81168 0.75293 0.0
H2127 H 0.45874 0.8189 0.80397 0.0
H2128 H 0.44129 0.77993 0.81445 0.0
H2129 H 0.41875 0.80521 0.81357 0.0
H2130 H 0.36045 0.74811 0.80668 0.0
H2131 H 0.3829 0.72272 0.80741 0.0
H2132 H 0.36055 0.72317 0.79226 0.0
H2133 H 0.45768 0.77827 0.75434 0.0
H2134 H 0.48567 0.74227 0.76039 0.0
H2135 H 0.44413 0.73098 0.80079 0.0
C2136 C 0.38322 0.8101 0.78831 0.0
C2137 C 0.37626 0.82665 0.77754 0.0
C2138 C 0.39086 0.8274 0.76476 0.0
C2139 C 0.41182 0.81145 0.76273 0.0
C2140 C 0.41748 0.79455 0.77354 0.0
C2141 C 0.4034 0.79373 0.78606 0.0
C2142 C 0.41131 0.77222 0.79589 0.0
C2143 C 0.43388 0.79546 0.80766 0.0
C2144 C 0.37675 0.73963 0.80085 0.0
C2145 C 0.43237 0.7613 0.78703 0.0
C2146 C 0.43597 0.77443 0.77418 0.0
C2147 C 0.45492 0.76778 0.76438 0.0
C2148 C 0.47069 0.74732 0.76789 0.0
C2149 C 0.46698 0.73356 0.78103 0.0
C2150 C 0.44737 0.7407 0.7906 0.0
H2151 H 0.24145 0.70489 0.8025 0.0
H2152 H 0.25003 0.73646 0.76086 0.0
H2153 H 0.21291 0.67286 0.75434 0.0
H2154 H 0.25023 0.63096 0.79785 0.0
H2155 H 0.21891 0.60449 0.81069 0.0
H2156 H 0.24247 0.6522 0.81194 0.0
H2157 H 0.18253 0.65173 0.81365 0.0
H2158 H 0.15872 0.60387 0.81246 0.0
H2159 H 0.14926 0.62985 0.80083 0.0
H2160 H 0.18155 0.60499 0.75254 0.0
H2161 H 0.15641 0.54014 0.75561 0.0
H2162 H 0.16665 0.55512 0.79866 0.0
C2163 C 0.2351 0.69849 0.79201 0.0
C2164 C 0.24864 0.72533 0.78214 0.0
C2165 C 0.23965 0.71611 0.76854 0.0
C2166 C 0.21869 0.68015 0.76478 0.0
C2167 C 0.20649 0.65418 0.77481 0.0
C2168 C 0.214 0.66314 0.78816 0.0
C2169 C 0.19948 0.63066 0.79704 0.0
C2170 C 0.22957 0.62953 0.80483 0.0
C2171 C 0.17079 0.62893 0.80655 0.0
C2172 C 0.18352 0.60175 0.78659 0.0
C2173 C 0.18763 0.61565 0.77381 0.0
C2174 C 0.17757 0.59386 0.76251 0.0
C2175 C 0.16339 0.5571 0.76435 0.0
C2176 C 0.1594 0.54263 0.77739 0.0
C2177 C 0.16893 0.56528 0.78859 0.0
H2178 H 0.437 0.62874 0.79994 0.0
H2179 H 0.4505 0.58145 0.76378 0.0
H2180 H 0.38545 0.54125 0.76244 0.0
H2181 H 0.35907 0.54878 0.81369 0.0
H2182 H 0.33848 0.57367 0.81935 0.0
H2183 H 0.38628 0.59473 0.81855 0.0
H2184 H 0.38816 0.6443 0.80347 0.0
H2185 H 0.34038 0.62318 0.80406 0.0
H2186 H 0.36284 0.63223 0.78814 0.0
H2187 H 0.31849 0.50924 0.76407 0.0
H2188 H 0.25489 0.48801 0.76867 0.0
H2189 H 0.28558 0.55957 0.80278 0.0
C2190 C 0.42632 0.60933 0.79195 0.0
C2191 C 0.44871 0.60792 0.78203 0.0
C2192 C 0.4337 0.58268 0.77154 0.0
C2193 C 0.39682 0.55979 0.77068 0.0
C2194 C 0.37525 0.56278 0.78031 0.0
C2195 C 0.38943 0.58689 0.79075 0.0
C2196 C 0.36033 0.58708 0.79904 0.0
C2197 C 0.36109 0.57536 0.81352 0.0
C2198 C 0.3631 0.62387 0.79865 0.0
C2199 C 0.32768 0.55947 0.7916 0.0
C2200 C 0.33676 0.54548 0.7809 0.0
C2201 C 0.31101 0.51986 0.77248 0.0
C2202 C 0.27496 0.50802 0.77514 0.0
C2203 C 0.26508 0.52212 0.78604 0.0
C2204 C 0.29203 0.54825 0.79431 0.0
H2205 H 0.37636 0.75763 0.02844 0.0
H2206 H 0.42028 0.83327 0.06126 0.0
H2207 H 0.46017 0.80973 0.06694 0.0
H2208 H 0.37751 0.68516 0.0451 0.0
H2209 H 0.38926 0.66988 0.03021 0.0
H2210 H 0.36417 0.69256 0.02887 0.0
H2211 H 0.41186 0.73879 0.01281 0.0
H2212 H 0.43725 0.7164 0.01411 0.0
H2213 H 0.45774 0.76308 0.01808 0.0
H2214 H 0.4936 0.77622 0.06941 0.0
H2215 H 0.51813 0.7357 0.06849 0.0
H2216 H 0.45492 0.68523 0.03306 0.0
C2217 C 0.39424 0.76933 0.03687 0.0
C2218 C 0.3951 0.79735 0.04443 0.0
C2219 C 0.41909 0.81182 0.05532 0.0
C2220 C 0.44188 0.79866 0.0586 0.0
C2221 C 0.44048 0.77126 0.05083 0.0
C2222 C 0.41727 0.75682 0.04018 0.0
C2223 C 0.4208 0.72754 0.03339 0.0
C2224 C 0.38587 0.69167 0.03446 0.0
C2225 C 0.43263 0.73704 0.01873 0.0
C2226 C 0.44982 0.72778 0.04185 0.0
C2227 C 0.4606 0.75297 0.05193 0.0
C2228 C 0.48562 0.75669 0.06148 0.0
C2229 C 0.49943 0.73362 0.06085 0.0
C2230 C 0.48855 0.70751 0.05066 0.0
C2231 C 0.46403 0.70516 0.04087 0.0
H2232 H 0.2004 0.61642 0.02856 0.0
H2233 H 0.16282 0.58895 0.06948 0.0
H2234 H 0.18877 0.65318 0.07474 0.0
H2235 H 0.28271 0.69145 0.03609 0.0
H2236 H 0.2829 0.71633 0.02161 0.0
H2237 H 0.25936 0.66848 0.02109 0.0
H2238 H 0.20132 0.66813 0.01446 0.0
H2239 H 0.22471 0.71604 0.01495 0.0
H2240 H 0.18513 0.69091 0.02489 0.0
H2241 H 0.22486 0.72128 0.07576 0.0
H2242 H 0.26456 0.78598 0.07221 0.0
H2243 H 0.27407 0.76664 0.03021 0.0
C2244 C 0.19726 0.62375 0.03863 0.0
C2245 C 0.17969 0.59776 0.04864 0.0
C2246 C 0.17602 0.6085 0.06165 0.0
C2247 C 0.19074 0.64486 0.06471 0.0
C2248 C 0.20844 0.66983 0.05459 0.0
C2249 C 0.21133 0.65955 0.04177 0.0
C2250 C 0.2325 0.69115 0.03272 0.0
C2251 C 0.26636 0.69188 0.02758 0.0
C2252 C 0.20953 0.69157 0.02107 0.0
C2253 C 0.24147 0.72109 0.04243 0.0
C2254 C 0.22766 0.70844 0.05503 0.0
C2255 C 0.2352 0.7314 0.06587 0.0
C2256 C 0.25775 0.76807 0.06377 0.0
C2257 C 0.27212 0.78132 0.05091 0.0
C2258 C 0.26314 0.75747 0.04011 0.0
H2259 H 0.37087 0.62325 0.05437 0.0
H2260 H 0.39269 0.53955 0.06547 0.0
H2261 H 0.32843 0.49908 0.06977 0.0
H2262 H 0.29344 0.59679 0.07832 0.0
H2263 H 0.27081 0.60901 0.06611 0.0
H2264 H 0.31877 0.63282 0.06682 0.0
H2265 H 0.32067 0.6192 0.04169 0.0
H2266 H 0.27292 0.5946 0.04097 0.0
H2267 H 0.29805 0.57362 0.03605 0.0
H2268 H 0.26071 0.4649 0.06846 0.0
H2269 H 0.19645 0.44242 0.06411 0.0
H2270 H 0.22052 0.54934 0.0544 0.0
C2271 C 0.36224 0.59688 0.05829 0.0
C2272 C 0.38653 0.58448 0.05973 0.0
C2273 C 0.37446 0.54967 0.06459 0.0
C2274 C 0.338 0.52647 0.06694 0.0
C2275 C 0.31435 0.5389 0.06464 0.0
C2276 C 0.32619 0.57369 0.06077 0.0
C2277 C 0.29553 0.57987 0.05779 0.0
C2278 C 0.29458 0.60617 0.06787 0.0
C2279 C 0.2969 0.59255 0.04327 0.0
C2280 C 0.26459 0.54272 0.05987 0.0
C2281 C 0.27574 0.51942 0.06395 0.0
C2282 C 0.2517 0.4831 0.06553 0.0
C2283 C 0.21543 0.47051 0.06295 0.0
C2284 C 0.20393 0.49418 0.05872 0.0
C2285 C 0.22872 0.53064 0.05736 0.0
H2286 H 0.23268 0.61618 0.55452 0.0
H2287 H 0.14442 0.54399 0.52943 0.0
H2288 H 0.16752 0.50204 0.52918 0.0
H2289 H 0.29819 0.60509 0.5396 0.0
H2290 H 0.3213 0.60562 0.55468 0.0
H2291 H 0.29645 0.6286 0.55421 0.0
H2292 H 0.25897 0.59324 0.57464 0.0
H2293 H 0.28435 0.57075 0.57561 0.0
H2294 H 0.23649 0.54529 0.57445 0.0
H2295 H 0.2057 0.47308 0.52878 0.0
H2296 H 0.25032 0.45366 0.53173 0.0
H2297 H 0.31007 0.54174 0.55888 0.0
C2298 C 0.21765 0.59095 0.54939 0.0
C2299 C 0.18651 0.58274 0.5422 0.0
C2300 C 0.16788 0.55008 0.53525 0.0
C2301 C 0.18098 0.52636 0.53496 0.0
C2302 C 0.21239 0.53559 0.54186 0.0
C2303 C 0.22995 0.56665 0.54926 0.0
C2304 C 0.2634 0.57055 0.55563 0.0
C2305 C 0.29678 0.60446 0.55073 0.0
C2306 C 0.26062 0.5699 0.571 0.0
C2307 C 0.26242 0.53736 0.55036 0.0
C2308 C 0.23309 0.51776 0.54228 0.0
C2309 C 0.22825 0.48767 0.53537 0.0
C2310 C 0.25371 0.47697 0.53701 0.0
C2311 C 0.28297 0.49591 0.54569 0.0
C2312 C 0.28735 0.52642 0.55242 0.0
H2313 H 0.40174 0.62064 0.52877 0.0
H2314 H 0.41419 0.58983 0.56891 0.0
H2315 H 0.44915 0.65354 0.57527 0.0
H2316 H 0.48853 0.69456 0.52557 0.0
H2317 H 0.47435 0.72097 0.51632 0.0
H2318 H 0.44915 0.67317 0.51527 0.0
H2319 H 0.39211 0.67364 0.52285 0.0
H2320 H 0.41707 0.72147 0.52381 0.0
H2321 H 0.39278 0.69578 0.53821 0.0
H2322 H 0.48198 0.72162 0.57706 0.0
H2323 H 0.51024 0.78688 0.574 0.0
H2324 H 0.47903 0.77063 0.53217 0.0
C2325 C 0.41151 0.62704 0.53895 0.0
C2326 C 0.4051 0.60017 0.54836 0.0
C2327 C 0.41877 0.60997 0.56153 0.0
C2328 C 0.43862 0.64605 0.56522 0.0
C2329 C 0.44471 0.67182 0.55559 0.0
C2330 C 0.43153 0.66261 0.54273 0.0
C2331 C 0.44209 0.69495 0.53409 0.0
C2332 C 0.46489 0.69596 0.52211 0.0
C2333 C 0.40905 0.69654 0.52947 0.0
C2334 C 0.46373 0.72403 0.54403 0.0
C2335 C 0.46461 0.71036 0.55645 0.0
C2336 C 0.48166 0.73252 0.56735 0.0
C2337 C 0.49771 0.76951 0.56551 0.0
C2338 C 0.49695 0.78381 0.55283 0.0
C2339 C 0.48031 0.76065 0.54196 0.0
H2340 H 0.38215 0.75121 0.55251 0.0
H2341 H 0.40251 0.85964 0.55373 0.0
H2342 H 0.33813 0.83714 0.55697 0.0
H2343 H 0.30852 0.71645 0.53365 0.0
H2344 H 0.28371 0.67411 0.54196 0.0
H2345 H 0.33151 0.69778 0.54257 0.0
H2346 H 0.33067 0.69692 0.5684 0.0
H2347 H 0.2827 0.6723 0.56813 0.0
H2348 H 0.30578 0.71342 0.57736 0.0
H2349 H 0.27116 0.80266 0.55505 0.0
H2350 H 0.20723 0.75862 0.55141 0.0
H2351 H 0.23114 0.67313 0.55321 0.0
C2352 C 0.37315 0.77018 0.554 0.0
C2353 C 0.39708 0.8071 0.55296 0.0
C2354 C 0.38454 0.83127 0.55473 0.0
C2355 C 0.34803 0.8187 0.55649 0.0
C2356 C 0.3248 0.78199 0.55679 0.0
C2357 C 0.33702 0.75808 0.55599 0.0
C2358 C 0.30657 0.72003 0.55555 0.0
C2359 C 0.30767 0.70101 0.54267 0.0
C2360 C 0.30642 0.69947 0.56811 0.0
C2361 C 0.2753 0.7263 0.55551 0.0
C2362 C 0.28625 0.76217 0.55626 0.0
C2363 C 0.26222 0.77449 0.55487 0.0
C2364 C 0.22615 0.74947 0.55272 0.0
C2365 C 0.21473 0.71281 0.5521 0.0
C2366 C 0.23942 0.7011 0.55373 0.0
H2367 H 0.24432 0.53394 0.30266 0.0
H2368 H 0.25456 0.51445 0.2607 0.0
H2369 H 0.21756 0.5414 0.25461 0.0
H2370 H 0.15329 0.51519 0.30128 0.0
H2371 H 0.16132 0.54956 0.31323 0.0
H2372 H 0.18686 0.52723 0.31402 0.0
H2373 H 0.24544 0.58808 0.31253 0.0
H2374 H 0.22013 0.61057 0.31178 0.0
H2375 H 0.25178 0.61758 0.29877 0.0
H2376 H 0.18349 0.57566 0.25344 0.0
H2377 H 0.15468 0.61184 0.25721 0.0
H2378 H 0.16558 0.60495 0.30012 0.0
C2379 C 0.23884 0.53516 0.29215 0.0
C2380 C 0.2526 0.52241 0.28212 0.0
C2381 C 0.24427 0.5241 0.26853 0.0
C2382 C 0.22332 0.53933 0.26501 0.0
C2383 C 0.2106 0.55206 0.27523 0.0
C2384 C 0.21792 0.54975 0.28853 0.0
C2385 C 0.20226 0.566 0.29772 0.0
C2386 C 0.17427 0.53781 0.30711 0.0
C2387 C 0.23165 0.59741 0.30566 0.0
C2388 C 0.18528 0.57851 0.28753 0.0
C2389 C 0.19031 0.57037 0.2746 0.0
C2390 C 0.17898 0.58164 0.26354 0.0
C2391 C 0.16266 0.60216 0.26577 0.0
C2392 C 0.15771 0.61097 0.27897 0.0
C2393 C 0.16854 0.59829 0.28994 0.0
H2394 H 0.42938 0.70936 0.30692 0.0
H2395 H 0.49875 0.74448 0.27208 0.0
H2396 H 0.47606 0.68156 0.2658 0.0
H2397 H 0.44048 0.63601 0.31532 0.0
H2398 H 0.39492 0.60792 0.3205 0.0
H2399 H 0.4155 0.65555 0.32195 0.0
H2400 H 0.36507 0.65466 0.30769 0.0
H2401 H 0.34404 0.60697 0.30636 0.0
H2402 H 0.3551 0.6338 0.29143 0.0
H2403 H 0.44525 0.61474 0.26336 0.0
H2404 H 0.4075 0.54934 0.26446 0.0
H2405 H 0.36141 0.55871 0.30171 0.0
C2406 C 0.43985 0.70407 0.29791 0.0
C2407 C 0.46599 0.73203 0.29 0.0
C2408 C 0.47871 0.72361 0.27829 0.0
C2409 C 0.46608 0.68796 0.27468 0.0
C2410 C 0.44089 0.66118 0.28291 0.0
C2411 C 0.42782 0.66887 0.29424 0.0
C2412 C 0.40094 0.63538 0.30145 0.0
C2413 C 0.41374 0.63363 0.31564 0.0
C2414 C 0.36412 0.63254 0.30174 0.0
C2415 C 0.40098 0.60743 0.29243 0.0
C2416 C 0.42404 0.62286 0.28175 0.0
C2417 C 0.42735 0.60242 0.27172 0.0
C2418 C 0.4059 0.56534 0.27247 0.0
C2419 C 0.38181 0.54906 0.28323 0.0
C2420 C 0.37996 0.57039 0.29349 0.0
H2421 H 0.42899 0.80174 0.30782 0.0
H2422 H 0.44592 0.86739 0.2728 0.0
H2423 H 0.38097 0.84139 0.27026 0.0
H2424 H 0.35807 0.72514 0.29391 0.0
H2425 H 0.33333 0.70876 0.30928 0.0
H2426 H 0.38101 0.73648 0.30977 0.0
H2427 H 0.37539 0.78097 0.3255 0.0
H2428 H 0.32765 0.7531 0.32524 0.0
H2429 H 0.34787 0.7993 0.32056 0.0
H2430 H 0.31413 0.80489 0.27047 0.0
H2431 H 0.25031 0.76083 0.2736 0.0
H2432 H 0.27768 0.71616 0.30745 0.0
C2433 C 0.41902 0.81129 0.29986 0.0
C2434 C 0.44233 0.8368 0.29059 0.0
C2435 C 0.42834 0.84807 0.28008 0.0
C2436 C 0.39153 0.83342 0.27854 0.0
C2437 C 0.36909 0.80718 0.2875 0.0
C2438 C 0.38227 0.79622 0.29797 0.0
C2439 C 0.3525 0.76524 0.3054 0.0
C2440 C 0.35647 0.73195 0.30453 0.0
C2441 C 0.35075 0.77527 0.32004 0.0
C2442 C 0.32067 0.76051 0.29745 0.0
C2443 C 0.33071 0.78511 0.28724 0.0
C2444 C 0.30587 0.78558 0.27848 0.0
C2445 C 0.26971 0.7604 0.28031 0.0
C2446 C 0.25886 0.73493 0.29073 0.0
C2447 C 0.28491 0.7351 0.29933 0.0
loop_
_geom_bond_atom_site_label_1
_geom_bond_atom_site_label_2
_geom_bond_distance
_geom_bond_site_symmetry_2
_ccdc_geom_bond_type
Co0 O1 2.216 . S
Co0 O2 2.091 . S
Co0 O4 2.004 . S
Co0 O10 2.021 . S
Co0 O12 2.129 1_545 S
Co0 O13 2.244 . S
O1 Co0 2.216 . S
O1 C8 1.247 . S
O2 Co0 2.091 . S
O2 C8 1.261 . S
C3 O12 1.247 . S
C3 O13 1.272 1_565 S
O4 Co0 2.004 . S
O4 C9 1.259 . S
Co5 O6 2.061 . S
Co5 O11 2.052 . S
Co5 O13 2.135 . S
O6 Co5 2.061 . S
O6 C9 1.235 . S
C7 O10 1.238 . S
C7 O11 1.241 . S
C8 O1 1.247 . S
C8 O2 1.261 . S
C9 O4 1.259 . S
C9 O6 1.235 . S
O10 Co0 2.021 . S
O10 C7 1.238 . S
O11 Co5 2.052 . S
O11 C7 1.241 . S
O12 Co0 2.129 1_565 S
O12 C3 1.247 . S
O13 Co0 2.244 . S
O13 C3 1.272 1_545 S
O13 Co5 2.135 . S
Co14 O15 2.216 . S
Co14 O16 2.091 . S
Co14 O18 2.004 . S
Co14 O24 2.021 . S
Co14 O26 2.120 1_655 S
Co14 O27 2.244 . S
O15 Co14 2.216 . S
O15 C22 1.247 . S
O16 Co14 2.091 . S
O16 C22 1.261 . S
C17 O26 1.252 . S
C17 O27 1.272 1_455 S
O18 Co14 2.004 . S
O18 C23 1.259 . S
Co19 O20 2.061 . S
Co19 O25 2.052 . S
Co19 O27 2.135 . S
O20 Co19 2.061 . S
O20 C23 1.235 . S
C21 O24 1.238 . S
C21 O25 1.241 . S
C22 O15 1.247 . S
C22 O16 1.261 . S
C23 O18 1.259 . S
C23 O20 1.235 . S
O24 Co14 2.021 . S
O24 C21 1.238 . S
O25 Co19 2.052 . S
O25 C21 1.241 . S
O26 Co14 2.120 1_455 S
O26 C17 1.252 . S
O27 Co14 2.244 . S
O27 C17 1.272 1_655 S
O27 Co19 2.135 . S
Co28 O29 2.216 . S
Co28 O30 2.091 . S
Co28 O32 2.004 . S
Co28 O38 2.021 . S
Co28 O40 2.137 . S
Co28 O41 2.244 . S
O29 Co28 2.216 . S
O29 C36 1.247 . S
O30 Co28 2.091 . S
O30 C36 1.261 . S
C31 O40 1.247 . S
C31 O41 1.272 . S
O32 Co28 2.004 . S
O32 C37 1.259 . S
Co33 O34 2.061 . S
Co33 O39 2.052 . S
Co33 O41 2.135 . S
O34 Co33 2.061 . S
O34 C37 1.235 . S
C35 O38 1.238 . S
C35 O39 1.241 . S
C36 O29 1.247 . S
C36 O30 1.261 . S
C37 O32 1.259 . S
C37 O34 1.235 . S
O38 Co28 2.021 . S
O38 C35 1.238 . S
O39 Co33 2.052 . S
O39 C35 1.241 . S
O40 Co28 2.137 . S
O40 C31 1.247 . S
O41 Co28 2.244 . S
O41 C31 1.272 . S
O41 Co33 2.135 . S
Co42 O43 2.216 . S
Co42 O44 2.091 . S
Co42 O46 2.004 . S
Co42 O52 2.021 . S
Co42 O54 2.129 1_455 S
Co42 O55 2.244 . S
O43 Co42 2.216 . S
O43 C50 1.247 . S
O44 Co42 2.091 . S
O44 C50 1.261 . S
C45 O54 1.247 . S
C45 O55 1.272 1_655 S
O46 Co42 2.004 . S
O46 C51 1.259 . S
Co47 O48 2.061 . S
Co47 O53 2.052 . S
Co47 O55 2.135 . S
O48 Co47 2.061 . S
O48 C51 1.235 . S
C49 O52 1.238 . S
C49 O53 1.241 . S
C50 O43 1.247 . S
C50 O44 1.261 . S
C51 O46 1.259 . S
C51 O48 1.235 . S
O52 Co42 2.021 . S
O52 C49 1.238 . S
O53 Co47 2.052 . S
O53 C49 1.241 . S
O54 Co42 2.129 1_655 S
O54 C45 1.247 . S
O55 Co42 2.244 . S
O55 C45 1.272 1_455 S
O55 Co47 2.135 . S
Co56 O57 2.216 . S
Co56 O58 2.091 . S
Co56 O60 2.004 . S
Co56 O66 2.021 . S
Co56 O68 2.137 . S
Co56 O69 2.244 . S
O57 Co56 2.216 . S
O57 C64 1.247 . S
O58 Co56 2.091 . S
O58 C64 1.261 . S
C59 O68 1.247 . S
C59 O69 1.272 . S
O60 Co56 2.004 . S
O60 C65 1.259 . S
Co61 O62 2.061 . S
Co61 O67 2.052 . S
Co61 O69 2.135 . S
O62 Co61 2.061 . S
O62 C65 1.235 . S
C63 O66 1.238 . S
C63 O67 1.241 . S
C64 O57 1.247 . S
C64 O58 1.261 . S
C65 O60 1.259 . S
C65 O62 1.235 . S
O66 Co56 2.021 . S
O66 C63 1.238 . S
O67 Co61 2.052 . S
O67 C63 1.241 . S
O68 Co56 2.137 . S
O68 C59 1.247 . S
O69 Co56 2.244 . S
O69 C59 1.272 . S
O69 Co61 2.135 . S
Co70 O71 2.216 . S
Co70 O72 2.091 . S
Co70 O74 2.004 . S
Co70 O80 2.021 . S
Co70 O82 2.120 1_565 S
Co70 O83 2.244 . S
O71 Co70 2.216 . S
O71 C78 1.247 . S
O72 Co70 2.091 . S
O72 C78 1.261 . S
C73 O82 1.252 . S
C73 O83 1.272 1_545 S
O74 Co70 2.004 . S
O74 C79 1.259 . S
Co75 O76 2.061 . S
Co75 O81 2.052 . S
Co75 O83 2.135 . S
O76 Co75 2.061 . S
O76 C79 1.235 . S
C77 O80 1.238 . S
C77 O81 1.241 . S
C78 O71 1.247 . S
C78 O72 1.261 . S
C79 O74 1.259 . S
C79 O76 1.235 . S
O80 Co70 2.021 . S
O80 C77 1.238 . S
O81 Co75 2.052 . S
O81 C77 1.241 . S
O82 Co70 2.120 1_545 S
O82 C73 1.252 . S
O83 Co70 2.244 . S
O83 C73 1.272 1_565 S
O83 Co75 2.135 . S
Co84 O85 2.216 . S
Co84 O86 2.091 . S
Co84 O88 2.004 . S
Co84 O94 2.021 . S
Co84 O96 2.129 1_565 S
Co84 O97 2.244 . S
O85 Co84 2.216 . S
O85 C92 1.247 . S
O86 Co84 2.091 . S
O86 C92 1.261 . S
C87 O96 1.247 . S
C87 O97 1.272 1_545 S
O88 Co84 2.004 . S
O88 C93 1.259 . S
Co89 O90 2.061 . S
Co89 O95 2.052 . S
Co89 O97 2.135 . S
O90 Co89 2.061 . S
O90 C93 1.235 . S
C91 O94 1.238 . S
C91 O95 1.241 . S
C92 O85 1.247 . S
C92 O86 1.261 . S
C93 O88 1.259 . S
C93 O90 1.235 . S
O94 Co84 2.021 . S
O94 C91 1.238 . S
O95 Co89 2.052 . S
O95 C91 1.241 . S
O96 Co84 2.129 1_545 S
O96 C87 1.247 . S
O97 Co84 2.244 . S
O97 C87 1.272 1_565 S
O97 Co89 2.135 . S
Co98 O99 2.216 . S
Co98 O100 2.091 . S
Co98 O102 2.004 . S
Co98 O108 2.021 . S
Co98 O110 2.120 1_455 S
Co98 O111 2.244 . S
O99 Co98 2.216 . S
O99 C106 1.247 . S
O100 Co98 2.091 . S
O100 C106 1.261 . S
C101 O110 1.252 . S
C101 O111 1.272 1_655 S
O102 Co98 2.004 . S
O102 C107 1.259 . S
Co103 O104 2.061 . S
Co103 O109 2.052 . S
Co103 O111 2.135 . S
O104 Co103 2.061 . S
O104 C107 1.235 . S
C105 O108 1.238 . S
C105 O109 1.241 . S
C106 O99 1.247 . S
C106 O100 1.261 . S
C107 O102 1.259 . S
C107 O104 1.235 . S
O108 Co98 2.021 . S
O108 C105 1.238 . S
O109 Co103 2.052 . S
O109 C105 1.241 . S
O110 Co98 2.120 1_655 S
O110 C101 1.252 . S
O111 Co98 2.244 . S
O111 C101 1.272 1_455 S
O111 Co103 2.135 . S
Co112 O113 2.216 . S
Co112 O114 2.091 . S
Co112 O116 2.004 . S
Co112 O122 2.021 . S
Co112 O124 2.137 . S
Co112 O125 2.244 . S
O113 Co112 2.216 . S
O113 C120 1.247 . S
O114 Co112 2.091 . S
O114 C120 1.261 . S
C115 O124 1.247 . S
C115 O125 1.272 . S
O116 Co112 2.004 . S
O116 C121 1.259 . S
Co117 O118 2.061 . S
Co117 O123 2.052 . S
Co117 O125 2.135 . S
O118 Co117 2.061 . S
O118 C121 1.235 . S
C119 O122 1.238 . S
C119 O123 1.241 . S
C120 O113 1.247 . S
C120 O114 1.261 . S
C121 O116 1.259 . S
C121 O118 1.235 . S
O122 Co112 2.021 . S
O122 C119 1.238 . S
O123 Co117 2.052 . S
O123 C119 1.241 . S
O124 Co112 2.137 . S
O124 C115 1.247 . S
O125 Co112 2.244 . S
O125 C115 1.272 . S
O125 Co117 2.135 . S
Co126 O127 2.216 . S
Co126 O128 2.091 . S
Co126 O130 2.004 . S
Co126 O136 2.021 . S
Co126 O138 2.129 1_655 S
Co126 O139 2.244 . S
O127 Co126 2.216 . S
O127 C134 1.247 . S
O128 Co126 2.091 . S
O128 C134 1.261 . S
C129 O138 1.247 . S
C129 O139 1.272 1_455 S
O130 Co126 2.004 . S
O130 C135 1.259 . S
Co131 O132 2.061 . S
Co131 O137 2.052 . S
Co131 O139 2.135 . S
O132 Co131 2.061 . S
O132 C135 1.235 . S
C133 O136 1.238 . S
C133 O137 1.241 . S
C134 O127 1.247 . S
C134 O128 1.261 . S
C135 O130 1.259 . S
C135 O132 1.235 . S
O136 Co126 2.021 . S
O136 C133 1.238 . S
O137 Co131 2.052 . S
O137 C133 1.241 . S
O138 Co126 2.129 1_455 S
O138 C129 1.247 . S
O139 Co126 2.244 . S
O139 C129 1.272 1_655 S
O139 Co131 2.135 . S
Co140 O141 2.216 . S
Co140 O142 2.091 . S
Co140 O144 2.004 . S
Co140 O150 2.021 . S
Co140 O152 2.137 . S
Co140 O153 2.244 . S
O141 Co140 2.216 . S
O141 C148 1.247 . S
O142 Co140 2.091 . S
O142 C148 1.261 . S
C143 O152 1.247 . S
C143 O153 1.272 . S
O144 Co140 2.004 . S
O144 C149 1.259 . S
Co145 O146 2.061 . S
Co145 O151 2.052 . S
Co145 O153 2.135 . S
O146 Co145 2.061 . S
O146 C149 1.235 . S
C147 O150 1.238 . S
C147 O151 1.241 . S
C148 O141 1.247 . S
C148 O142 1.261 . S
C149 O144 1.259 . S
C149 O146 1.235 . S
O150 Co140 2.021 . S
O150 C147 1.238 . S
O151 Co145 2.052 . S
O151 C147 1.241 . S
O152 Co140 2.137 . S
O152 C143 1.247 . S
O153 Co140 2.244 . S
O153 C143 1.272 . S
O153 Co145 2.135 . S
Co154 O155 2.216 . S
Co154 O156 2.091 . S
Co154 O158 2.004 . S
Co154 O164 2.021 . S
Co154 O166 2.120 1_545 S
Co154 O167 2.244 . S
O155 Co154 2.216 . S
O155 C162 1.247 . S
O156 Co154 2.091 . S
O156 C162 1.261 . S
C157 O166 1.252 . S
C157 O167 1.272 1_565 S
O158 Co154 2.004 . S
O158 C163 1.259 . S
Co159 O160 2.061 . S
Co159 O165 2.052 . S
Co159 O167 2.135 . S
O160 Co159 2.061 . S
O160 C163 1.235 . S
C161 O164 1.238 . S
C161 O165 1.241 . S
C162 O155 1.247 . S
C162 O156 1.261 . S
C163 O158 1.259 . S
C163 O160 1.235 . S
O164 Co154 2.021 . S
O164 C161 1.238 . S
O165 Co159 2.052 . S
O165 C161 1.241 . S
O166 Co154 2.120 1_565 S
O166 C157 1.252 . S
O167 Co154 2.244 . S
O167 C157 1.272 1_545 S
O167 Co159 2.135 . S
Co168 O169 2.216 . S
Co168 O170 2.091 . S
Co168 O172 2.004 . S
Co168 O178 2.021 . S
Co168 O180 2.137 . S
Co168 O181 2.244 . S
O169 Co168 2.216 . S
O169 C176 1.247 . S
O170 Co168 2.091 . S
O170 C176 1.261 . S
C171 O180 1.247 . S
C171 O181 1.272 . S
O172 Co168 2.004 . S
O172 C177 1.259 . S
Co173 O174 2.061 . S
Co173 O179 2.052 . S
Co173 O181 2.135 . S
O174 Co173 2.061 . S
O174 C177 1.235 . S
C175 O178 1.238 . S
C175 O179 1.241 . S
C176 O169 1.247 . S
C176 O170 1.261 . S
C177 O172 1.259 . S
C177 O174 1.235 . S
O178 Co168 2.021 . S
O178 C175 1.238 . S
O179 Co173 2.052 . S
O179 C175 1.241 . S
O180 Co168 2.137 . S
O180 C171 1.247 . S
O181 Co168 2.244 . S
O181 C171 1.272 . S
O181 Co173 2.135 . S
Co182 O183 2.216 . S
Co182 O184 2.091 . S
Co182 O186 2.004 . S
Co182 O192 2.021 . S
Co182 O194 2.137 . S
Co182 O195 2.244 . S
O183 Co182 2.216 . S
O183 C190 1.247 . S
O184 Co182 2.091 . S
O184 C190 1.261 . S
C185 O194 1.247 . S
C185 O195 1.272 . S
O186 Co182 2.004 . S
O186 C191 1.259 . S
Co187 O188 2.061 . S
Co187 O193 2.052 . S
Co187 O195 2.135 . S
O188 Co187 2.061 . S
O188 C191 1.235 . S
C189 O192 1.238 . S
C189 O193 1.241 . S
C190 O183 1.247 . S
C190 O184 1.261 . S
C191 O186 1.259 . S
C191 O188 1.235 . S
O192 Co182 2.021 . S
O192 C189 1.238 . S
O193 Co187 2.052 . S
O193 C189 1.241 . S
O194 Co182 2.137 . S
O194 C185 1.247 . S
O195 Co182 2.244 . S
O195 C185 1.272 . S
O195 Co187 2.135 . S
Co196 O197 2.216 . S
Co196 O198 2.091 . S
Co196 O200 2.004 . S
Co196 O206 2.021 . S
Co196 O208 2.137 . S
Co196 O209 2.244 . S
O197 Co196 2.216 . S
O197 C204 1.247 . S
O198 Co196 2.091 . S
O198 C204 1.261 . S
C199 O208 1.247 . S
C199 O209 1.272 . S
O200 Co196 2.004 . S
O200 C205 1.259 . S
Co201 O202 2.061 . S
Co201 O207 2.052 . S
Co201 O209 2.135 . S
O202 Co201 2.061 . S
O202 C205 1.235 . S
C203 O206 1.238 . S
C203 O207 1.241 . S
C204 O197 1.247 . S
C204 O198 1.261 . S
C205 O200 1.259 . S
C205 O202 1.235 . S
O206 Co196 2.021 . S
O206 C203 1.238 . S
O207 Co201 2.052 . S
O207 C203 1.241 . S
O208 Co196 2.137 . S
O208 C199 1.247 . S
O209 Co196 2.244 . S
O209 C199 1.272 . S
O209 Co201 2.135 . S
Co210 O211 2.216 . S
Co210 O212 2.091 . S
Co210 O214 2.004 . S
Co210 O220 2.021 . S
Co210 O222 2.137 . S
Co210 O223 2.244 . S
O211 Co210 2.216 . S
O211 C218 1.247 . S
O212 Co210 2.091 . S
O212 C218 1.261 . S
C213 O222 1.247 . S
C213 O223 1.272 . S
O214 Co210 2.004 . S
O214 C219 1.259 . S
Co215 O216 2.061 . S
Co215 O221 2.052 . S
Co215 O223 2.135 . S
O216 Co215 2.061 . S
O216 C219 1.235 . S
C217 O220 1.238 . S
C217 O221 1.241 . S
C218 O211 1.247 . S
C218 O212 1.261 . S
C219 O214 1.259 . S
C219 O216 1.235 . S
O220 Co210 2.021 . S
O220 C217 1.238 . S
O221 Co215 2.052 . S
O221 C217 1.241 . S
O222 Co210 2.137 . S
O222 C213 1.247 . S
O223 Co210 2.244 . S
O223 C213 1.272 . S
O223 Co215 2.135 . S
Co224 O225 2.216 . S
Co224 O226 2.091 . S
Co224 O228 2.004 . S
Co224 O234 2.021 . S
Co224 O236 2.137 . S
Co224 O237 2.244 . S
O225 Co224 2.216 . S
O225 C232 1.247 . S
O226 Co224 2.091 . S
O226 C232 1.261 . S
C227 O236 1.247 . S
C227 O237 1.272 . S
O228 Co224 2.004 . S
O228 C233 1.259 . S
Co229 O230 2.061 . S
Co229 O235 2.052 . S
Co229 O237 2.135 . S
O230 Co229 2.061 . S
O230 C233 1.235 . S
C231 O234 1.238 . S
C231 O235 1.241 . S
C232 O225 1.247 . S
C232 O226 1.261 . S
C233 O228 1.259 . S
C233 O230 1.235 . S
O234 Co224 2.021 . S
O234 C231 1.238 . S
O235 Co229 2.052 . S
O235 C231 1.241 . S
O236 Co224 2.137 . S
O236 C227 1.247 . S
O237 Co224 2.244 . S
O237 C227 1.272 . S
O237 Co229 2.135 . S
Co238 O239 2.216 . S
Co238 O240 2.091 . S
Co238 O242 2.004 . S
Co238 O248 2.021 . S
Co238 O250 2.137 . S
Co238 O251 2.244 . S
O239 Co238 2.216 . S
O239 C246 1.247 . S
O240 Co238 2.091 . S
O240 C246 1.261 . S
C241 O250 1.247 . S
C241 O251 1.272 . S
O242 Co238 2.004 . S
O242 C247 1.259 . S
Co243 O244 2.061 . S
Co243 O249 2.052 . S
Co243 O251 2.135 . S
O244 Co243 2.061 . S
O244 C247 1.235 . S
C245 O248 1.238 . S
C245 O249 1.241 . S
C246 O239 1.247 . S
C246 O240 1.261 . S
C247 O242 1.259 . S
C247 O244 1.235 . S
O248 Co238 2.021 . S
O248 C245 1.238 . S
O249 Co243 2.052 . S
O249 C245 1.241 . S
O250 Co238 2.137 . S
O250 C241 1.247 . S
O251 Co238 2.244 . S
O251 C241 1.272 . S
O251 Co243 2.135 . S
Co252 O253 2.216 . S
Co252 O254 2.091 . S
Co252 O256 2.004 . S
Co252 O262 2.021 . S
Co252 O264 2.137 . S
Co252 O265 2.244 . S
O253 Co252 2.216 . S
O253 C260 1.247 . S
O254 Co252 2.091 . S
O254 C260 1.261 . S
C255 O264 1.247 . S
C255 O265 1.272 . S
O256 Co252 2.004 . S
O256 C261 1.259 . S
Co257 O258 2.061 . S
Co257 O263 2.052 . S
Co257 O265 2.135 . S
O258 Co257 2.061 . S
O258 C261 1.235 . S
C259 O262 1.238 . S
C259 O263 1.241 . S
C260 O253 1.247 . S
C260 O254 1.261 . S
C261 O256 1.259 . S
C261 O258 1.235 . S
O262 Co252 2.021 . S
O262 C259 1.238 . S
O263 Co257 2.052 . S
O263 C259 1.241 . S
O264 Co252 2.137 . S
O264 C255 1.247 . S
O265 Co252 2.244 . S
O265 C255 1.272 . S
O265 Co257 2.135 . S
Co266 O267 2.216 . S
Co266 O268 2.091 . S
Co266 O270 2.004 . S
Co266 O276 2.021 . S
Co266 O278 2.137 . S
Co266 O279 2.244 . S
O267 Co266 2.216 . S
O267 C274 1.247 . S
O268 Co266 2.091 . S
O268 C274 1.261 . S
C269 O278 1.247 . S
C269 O279 1.272 . S
O270 Co266 2.004 . S
O270 C275 1.259 . S
Co271 O272 2.061 . S
Co271 O277 2.052 . S
Co271 O279 2.135 . S
O272 Co271 2.061 . S
O272 C275 1.235 . S
C273 O276 1.238 . S
C273 O277 1.241 . S
C274 O267 1.247 . S
C274 O268 1.261 . S
C275 O270 1.259 . S
C275 O272 1.235 . S
O276 Co266 2.021 . S
O276 C273 1.238 . S
O277 Co271 2.052 . S
O277 C273 1.241 . S
O278 Co266 2.137 . S
O278 C269 1.247 . S
O279 Co266 2.244 . S
O279 C269 1.272 . S
O279 Co271 2.135 . S
Co280 O281 2.216 . S
Co280 O282 2.091 . S
Co280 O284 2.004 . S
Co280 O290 2.021 . S
Co280 O292 2.137 . S
Co280 O293 2.244 . S
O281 Co280 2.216 . S
O281 C288 1.247 . S
O282 Co280 2.091 . S
O282 C288 1.261 . S
C283 O292 1.247 . S
C283 O293 1.272 . S
O284 Co280 2.004 . S
O284 C289 1.259 . S
Co285 O286 2.061 . S
Co285 O291 2.052 . S
Co285 O293 2.135 . S
O286 Co285 2.061 . S
O286 C289 1.235 . S
C287 O290 1.238 . S
C287 O291 1.241 . S
C288 O281 1.247 . S
C288 O282 1.261 . S
C289 O284 1.259 . S
C289 O286 1.235 . S
O290 Co280 2.021 . S
O290 C287 1.238 . S
O291 Co285 2.052 . S
O291 C287 1.241 . S
O292 Co280 2.137 . S
O292 C283 1.247 . S
O293 Co280 2.244 . S
O293 C283 1.272 . S
O293 Co285 2.135 . S
Co294 O295 2.216 . S
Co294 O296 2.091 . S
Co294 O298 2.004 . S
Co294 O304 2.021 . S
Co294 O306 2.137 . S
Co294 O307 2.244 . S
O295 Co294 2.216 . S
O295 C302 1.247 . S
O296 Co294 2.091 . S
O296 C302 1.261 . S
C297 O306 1.247 . S
C297 O307 1.272 . S
O298 Co294 2.004 . S
O298 C303 1.259 . S
Co299 O300 2.061 . S
Co299 O305 2.052 . S
Co299 O307 2.135 . S
O300 Co299 2.061 . S
O300 C303 1.235 . S
C301 O304 1.238 . S
C301 O305 1.241 . S
C302 O295 1.247 . S
C302 O296 1.261 . S
C303 O298 1.259 . S
C303 O300 1.235 . S
O304 Co294 2.021 . S
O304 C301 1.238 . S
O305 Co299 2.052 . S
O305 C301 1.241 . S
O306 Co294 2.137 . S
O306 C297 1.247 . S
O307 Co294 2.244 . S
O307 C297 1.272 . S
O307 Co299 2.135 . S
Co308 O309 2.216 . S
Co308 O310 2.091 . S
Co308 O312 2.004 . S
Co308 O318 2.021 . S
Co308 O320 2.137 . S
Co308 O321 2.244 . S
O309 Co308 2.216 . S
O309 C316 1.247 . S
O310 Co308 2.091 . S
O310 C316 1.261 . S
C311 O320 1.247 . S
C311 O321 1.272 . S
O312 Co308 2.004 . S
O312 C317 1.259 . S
Co313 O314 2.061 . S
Co313 O319 2.052 . S
Co313 O321 2.135 . S
O314 Co313 2.061 . S
O314 C317 1.235 . S
C315 O318 1.238 . S
C315 O319 1.241 . S
C316 O309 1.247 . S
C316 O310 1.261 . S
C317 O312 1.259 . S
C317 O314 1.235 . S
O318 Co308 2.021 . S
O318 C315 1.238 . S
O319 Co313 2.052 . S
O319 C315 1.241 . S
O320 Co308 2.137 . S
O320 C311 1.247 . S
O321 Co308 2.244 . S
O321 C311 1.272 . S
O321 Co313 2.135 . S
Co322 O323 2.216 . S
Co322 O324 2.091 . S
Co322 O326 2.004 . S
Co322 O332 2.021 . S
Co322 O334 2.137 . S
Co322 O335 2.244 . S
O323 Co322 2.216 . S
O323 C330 1.247 . S
O324 Co322 2.091 . S
O324 C330 1.261 . S
C325 O334 1.247 . S
C325 O335 1.272 . S
O326 Co322 2.004 . S
O326 C331 1.259 . S
Co327 O328 2.061 . S
Co327 O333 2.052 . S
Co327 O335 2.135 . S
O328 Co327 2.061 . S
O328 C331 1.235 . S
C329 O332 1.238 . S
C329 O333 1.241 . S
C330 O323 1.247 . S
C330 O324 1.261 . S
C331 O326 1.259 . S
C331 O328 1.235 . S
O332 Co322 2.021 . S
O332 C329 1.238 . S
O333 Co327 2.052 . S
O333 C329 1.241 . S
O334 Co322 2.137 . S
O334 C325 1.247 . S
O335 Co322 2.244 . S
O335 C325 1.272 . S
O335 Co327 2.135 . S
Co336 O337 2.216 . S
Co336 O338 2.091 . S
Co336 O340 2.004 . S
Co336 O346 2.021 . S
Co336 O348 2.137 . S
Co336 O349 2.244 . S
O337 Co336 2.216 . S
O337 C344 1.247 . S
O338 Co336 2.091 . S
O338 C344 1.261 . S
C339 O348 1.247 . S
C339 O349 1.272 . S
O340 Co336 2.004 . S
O340 C345 1.259 . S
Co341 O342 2.061 . S
Co341 O347 2.052 . S
Co341 O349 2.135 . S
O342 Co341 2.061 . S
O342 C345 1.235 . S
C343 O346 1.238 . S
C343 O347 1.241 . S
C344 O337 1.247 . S
C344 O338 1.261 . S
C345 O340 1.259 . S
C345 O342 1.235 . S
O346 Co336 2.021 . S
O346 C343 1.238 . S
O347 Co341 2.052 . S
O347 C343 1.241 . S
O348 Co336 2.137 . S
O348 C339 1.247 . S
O349 Co336 2.244 . S
O349 C339 1.272 . S
O349 Co341 2.135 . S
Co350 O351 2.216 . S
Co350 O352 2.091 . S
Co350 O354 2.004 . S
Co350 O360 2.021 . S
Co350 O362 2.137 . S
Co350 O363 2.244 . S
O351 Co350 2.216 . S
O351 C358 1.247 . S
O352 Co350 2.091 . S
O352 C358 1.261 . S
C353 O362 1.247 . S
C353 O363 1.272 . S
O354 Co350 2.004 . S
O354 C359 1.259 . S
Co355 O356 2.061 . S
Co355 O361 2.052 . S
Co355 O363 2.135 . S
O356 Co355 2.061 . S
O356 C359 1.235 . S
C357 O360 1.238 . S
C357 O361 1.241 . S
C358 O351 1.247 . S
C358 O352 1.261 . S
C359 O354 1.259 . S
C359 O356 1.235 . S
O360 Co350 2.021 . S
O360 C357 1.238 . S
O361 Co355 2.052 . S
O361 C357 1.241 . S
O362 Co350 2.137 . S
O362 C353 1.247 . S
O363 Co350 2.244 . S
O363 C353 1.272 . S
O363 Co355 2.135 . S
Co364 O365 2.216 . S
Co364 O366 2.091 . S
Co364 O368 2.004 . S
Co364 O374 2.021 . S
Co364 O376 2.137 . S
Co364 O377 2.244 . S
O365 Co364 2.216 . S
O365 C372 1.247 . S
O366 Co364 2.091 . S
O366 C372 1.261 . S
C367 O376 1.247 . S
C367 O377 1.272 . S
O368 Co364 2.004 . S
O368 C373 1.259 . S
Co369 O370 2.061 . S
Co369 O375 2.052 . S
Co369 O377 2.135 . S
O370 Co369 2.061 . S
O370 C373 1.235 . S
C371 O374 1.238 . S
C371 O375 1.241 . S
C372 O365 1.247 . S
C372 O366 1.261 . S
C373 O368 1.259 . S
C373 O370 1.235 . S
O374 Co364 2.021 . S
O374 C371 1.238 . S
O375 Co369 2.052 . S
O375 C371 1.241 . S
O376 Co364 2.137 . S
O376 C367 1.247 . S
O377 Co364 2.244 . S
O377 C367 1.272 . S
O377 Co369 2.135 . S
Co378 O379 2.216 . S
Co378 O380 2.091 . S
Co378 O382 2.004 . S
Co378 O388 2.021 . S
Co378 O390 2.137 . S
Co378 O391 2.244 . S
O379 Co378 2.216 . S
O379 C386 1.247 . S
O380 Co378 2.091 . S
O380 C386 1.261 . S
C381 O390 1.247 . S
C381 O391 1.272 . S
O382 Co378 2.004 . S
O382 C387 1.259 . S
Co383 O384 2.061 . S
Co383 O389 2.052 . S
Co383 O391 2.135 . S
O384 Co383 2.061 . S
O384 C387 1.235 . S
C385 O388 1.238 . S
C385 O389 1.241 . S
C386 O379 1.247 . S
C386 O380 1.261 . S
C387 O382 1.259 . S
C387 O384 1.235 . S
O388 Co378 2.021 . S
O388 C385 1.238 . S
O389 Co383 2.052 . S
O389 C385 1.241 . S
O390 Co378 2.137 . S
O390 C381 1.247 . S
O391 Co378 2.244 . S
O391 C381 1.272 . S
O391 Co383 2.135 . S
Co392 O393 2.216 . S
Co392 O394 2.091 . S
Co392 O396 2.004 . S
Co392 O402 2.021 . S
Co392 O404 2.137 . S
Co392 O405 2.244 . S
O393 Co392 2.216 . S
O393 C400 1.247 . S
O394 Co392 2.091 . S
O394 C400 1.261 . S
C395 O404 1.247 . S
C395 O405 1.272 . S
O396 Co392 2.004 . S
O396 C401 1.259 . S
Co397 O398 2.061 . S
Co397 O403 2.052 . S
Co397 O405 2.135 . S
O398 Co397 2.061 . S
O398 C401 1.235 . S
C399 O402 1.238 . S
C399 O403 1.241 . S
C400 O393 1.247 . S
C400 O394 1.261 . S
C401 O396 1.259 . S
C401 O398 1.235 . S
O402 Co392 2.021 . S
O402 C399 1.238 . S
O403 Co397 2.052 . S
O403 C399 1.241 . S
O404 Co392 2.137 . S
O404 C395 1.247 . S
O405 Co392 2.244 . S
O405 C395 1.272 . S
O405 Co397 2.135 . S
Co406 O407 2.216 . S
Co406 O408 2.091 . S
Co406 O410 2.004 . S
Co406 O416 2.021 . S
Co406 O418 2.137 . S
Co406 O419 2.244 . S
O407 Co406 2.216 . S
O407 C414 1.247 . S
O408 Co406 2.091 . S
O408 C414 1.261 . S
C409 O418 1.247 . S
C409 O419 1.272 . S
O410 Co406 2.004 . S
O410 C415 1.259 . S
Co411 O412 2.061 . S
Co411 O417 2.052 . S
Co411 O419 2.135 . S
O412 Co411 2.061 . S
O412 C415 1.235 . S
C413 O416 1.238 . S
C413 O417 1.241 . S
C414 O407 1.247 . S
C414 O408 1.261 . S
C415 O410 1.259 . S
C415 O412 1.235 . S
O416 Co406 2.021 . S
O416 C413 1.238 . S
O417 Co411 2.052 . S
O417 C413 1.241 . S
O418 Co406 2.137 . S
O418 C409 1.247 . S
O419 Co406 2.244 . S
O419 C409 1.272 . S
O419 Co411 2.135 . S
Co420 O421 2.216 . S
Co420 O422 2.091 . S
Co420 O424 2.004 . S
Co420 O430 2.021 . S
Co420 O432 2.137 . S
Co420 O433 2.244 . S
O421 Co420 2.216 . S
O421 C428 1.247 . S
O422 Co420 2.091 . S
O422 C428 1.261 . S
C423 O432 1.247 . S
C423 O433 1.272 . S
O424 Co420 2.004 . S
O424 C429 1.259 . S
Co425 O426 2.061 . S
Co425 O431 2.052 . S
Co425 O433 2.135 . S
O426 Co425 2.061 . S
O426 C429 1.235 . S
C427 O430 1.238 . S
C427 O431 1.241 . S
C428 O421 1.247 . S
C428 O422 1.261 . S
C429 O424 1.259 . S
C429 O426 1.235 . S
O430 Co420 2.021 . S
O430 C427 1.238 . S
O431 Co425 2.052 . S
O431 C427 1.241 . S
O432 Co420 2.137 . S
O432 C423 1.247 . S
O433 Co420 2.244 . S
O433 C423 1.272 . S
O433 Co425 2.135 . S
Co434 O435 2.216 . S
Co434 O436 2.091 . S
Co434 O438 2.004 . S
Co434 O444 2.021 . S
Co434 O446 2.137 . S
Co434 O447 2.244 . S
O435 Co434 2.216 . S
O435 C442 1.247 . S
O436 Co434 2.091 . S
O436 C442 1.261 . S
C437 O446 1.247 . S
C437 O447 1.272 . S
O438 Co434 2.004 . S
O438 C443 1.259 . S
Co439 O440 2.061 . S
Co439 O445 2.052 . S
Co439 O447 2.135 . S
O440 Co439 2.061 . S
O440 C443 1.235 . S
C441 O444 1.238 . S
C441 O445 1.241 . S
C442 O435 1.247 . S
C442 O436 1.261 . S
C443 O438 1.259 . S
C443 O440 1.235 . S
O444 Co434 2.021 . S
O444 C441 1.238 . S
O445 Co439 2.052 . S
O445 C441 1.241 . S
O446 Co434 2.137 . S
O446 C437 1.247 . S
O447 Co434 2.244 . S
O447 C437 1.272 . S
O447 Co439 2.135 . S
Co448 O449 2.216 . S
Co448 O450 2.091 . S
Co448 O452 2.004 . S
Co448 O458 2.021 . S
Co448 O460 2.137 . S
Co448 O461 2.244 . S
O449 Co448 2.216 . S
O449 C456 1.247 . S
O450 Co448 2.091 . S
O450 C456 1.261 . S
C451 O460 1.247 . S
C451 O461 1.272 . S
O452 Co448 2.004 . S
O452 C457 1.259 . S
Co453 O454 2.061 . S
Co453 O459 2.052 . S
Co453 O461 2.135 . S
O454 Co453 2.061 . S
O454 C457 1.235 . S
C455 O458 1.238 . S
C455 O459 1.241 . S
C456 O449 1.247 . S
C456 O450 1.261 . S
C457 O452 1.259 . S
C457 O454 1.235 . S
O458 Co448 2.021 . S
O458 C455 1.238 . S
O459 Co453 2.052 . S
O459 C455 1.241 . S
O460 Co448 2.137 . S
O460 C451 1.247 . S
O461 Co448 2.244 . S
O461 C451 1.272 . S
O461 Co453 2.135 . S
Co462 O463 2.216 . S
Co462 O464 2.091 . S
Co462 O466 2.004 . S
Co462 O472 2.021 . S
Co462 O474 2.137 . S
Co462 O475 2.244 . S
O463 Co462 2.216 . S
O463 C470 1.247 . S
O464 Co462 2.091 . S
O464 C470 1.261 . S
C465 O474 1.247 . S
C465 O475 1.272 . S
O466 Co462 2.004 . S
O466 C471 1.259 . S
Co467 O468 2.061 . S
Co467 O473 2.052 . S
Co467 O475 2.135 . S
O468 Co467 2.061 . S
O468 C471 1.235 . S
C469 O472 1.238 . S
C469 O473 1.241 . S
C470 O463 1.247 . S
C470 O464 1.261 . S
C471 O466 1.259 . S
C471 O468 1.235 . S
O472 Co462 2.021 . S
O472 C469 1.238 . S
O473 Co467 2.052 . S
O473 C469 1.241 . S
O474 Co462 2.137 . S
O474 C465 1.247 . S
O475 Co462 2.244 . S
O475 C465 1.272 . S
O475 Co467 2.135 . S
Co476 O477 2.216 . S
Co476 O478 2.091 . S
Co476 O480 2.004 . S
Co476 O486 2.021 . S
Co476 O488 2.137 . S
Co476 O489 2.244 . S
O477 Co476 2.216 . S
O477 C484 1.247 . S
O478 Co476 2.091 . S
O478 C484 1.261 . S
C479 O488 1.247 . S
C479 O489 1.272 . S
O480 Co476 2.004 . S
O480 C485 1.259 . S
Co481 O482 2.061 . S
Co481 O487 2.052 . S
Co481 O489 2.135 . S
O482 Co481 2.061 . S
O482 C485 1.235 . S
C483 O486 1.238 . S
C483 O487 1.241 . S
C484 O477 1.247 . S
C484 O478 1.261 . S
C485 O480 1.259 . S
C485 O482 1.235 . S
O486 Co476 2.021 . S
O486 C483 1.238 . S
O487 Co481 2.052 . S
O487 C483 1.241 . S
O488 Co476 2.137 . S
O488 C479 1.247 . S
O489 Co476 2.244 . S
O489 C479 1.272 . S
O489 Co481 2.135 . S
Co490 O491 2.216 . S
Co490 O492 2.091 . S
Co490 O494 2.004 . S
Co490 O500 2.021 . S
Co490 O502 2.137 . S
Co490 O503 2.244 . S
O491 Co490 2.216 . S
O491 C498 1.247 . S
O492 Co490 2.091 . S
O492 C498 1.261 . S
C493 O502 1.247 . S
C493 O503 1.272 . S
O494 Co490 2.004 . S
O494 C499 1.259 . S
Co495 O496 2.061 . S
Co495 O501 2.052 . S
Co495 O503 2.135 . S
O496 Co495 2.061 . S
O496 C499 1.235 . S
C497 O500 1.238 . S
C497 O501 1.241 . S
C498 O491 1.247 . S
C498 O492 1.261 . S
C499 O494 1.259 . S
C499 O496 1.235 . S
O500 Co490 2.021 . S
O500 C497 1.238 . S
O501 Co495 2.052 . S
O501 C497 1.241 . S
O502 Co490 2.137 . S
O502 C493 1.247 . S
O503 Co490 2.244 . S
O503 C493 1.272 . S
O503 Co495 2.135 . S
H504 C516 0.930 . S
H505 C518 0.930 . S
H506 C519 0.930 . S
H507 C523 0.959 . S
H508 C523 0.959 . S
H509 C523 0.961 . S
H510 C524 0.960 . S
H511 C524 0.961 . S
H512 C524 0.959 . S
H513 C527 0.929 . S
H514 C528 0.931 . S
H515 C530 0.930 . S
C516 H504 0.930 . S
C516 C517 1.399 . S
C516 C521 1.399 . S
C517 C516 1.399 . S
C517 C518 1.376 . S
C518 H505 0.930 . S
C518 C517 1.376 . S
C518 C519 1.388 . S
C519 H506 0.930 . S
C519 C518 1.388 . S
C519 C520 1.390 . S
C520 C519 1.390 . S
C520 C521 1.394 . S
C520 C526 1.465 . S
C521 C516 1.399 . S
C521 C520 1.394 . S
C521 C522 1.516 . S
C522 C521 1.516 . S
C522 C523 1.502 . S
C522 C524 1.561 . S
C522 C525 1.526 . S
C523 H507 0.959 . S
C523 H508 0.959 . S
C523 H509 0.961 . S
C523 C522 1.502 . S
C524 H510 0.960 . S
C524 H511 0.961 . S
C524 H512 0.959 . S
C524 C522 1.561 . S
C525 C522 1.526 . S
C525 C526 1.396 . S
C525 C530 1.390 . S
C526 C520 1.465 . S
C526 C525 1.396 . S
C526 C527 1.399 . S
C527 H513 0.929 . S
C527 C526 1.399 . S
C527 C528 1.385 . S
C528 H514 0.931 . S
C528 C527 1.385 . S
C528 C529 1.389 . S
C529 C528 1.389 . S
C529 C530 1.387 . S
C530 H515 0.930 . S
C530 C525 1.390 . S
C530 C529 1.387 . S
H531 C543 0.930 . S
H532 C545 0.930 . S
H533 C546 0.930 . S
H534 C550 0.959 . S
H535 C550 0.959 . S
H536 C550 0.961 . S
H537 C551 0.960 . S
H538 C551 0.961 . S
H539 C551 0.959 . S
H540 C554 0.929 . S
H541 C555 0.931 . S
H542 C557 0.930 . S
C543 H531 0.930 . S
C543 C544 1.399 . S
C543 C548 1.399 . S
C544 C543 1.399 . S
C544 C545 1.376 . S
C545 H532 0.930 . S
C545 C544 1.376 . S
C545 C546 1.388 . S
C546 H533 0.930 . S
C546 C545 1.388 . S
C546 C547 1.390 . S
C547 C546 1.390 . S
C547 C548 1.394 . S
C547 C553 1.465 . S
C548 C543 1.399 . S
C548 C547 1.394 . S
C548 C549 1.516 . S
C549 C548 1.516 . S
C549 C550 1.502 . S
C549 C551 1.561 . S
C549 C552 1.526 . S
C550 H534 0.959 . S
C550 H535 0.959 . S
C550 H536 0.961 . S
C550 C549 1.502 . S
C551 H537 0.960 . S
C551 H538 0.961 . S
C551 H539 0.959 . S
C551 C549 1.561 . S
C552 C549 1.526 . S
C552 C553 1.396 . S
C552 C557 1.390 . S
C553 C547 1.465 . S
C553 C552 1.396 . S
C553 C554 1.399 . S
C554 H540 0.929 . S
C554 C553 1.399 . S
C554 C555 1.385 . S
C555 H541 0.931 . S
C555 C554 1.385 . S
C555 C556 1.389 . S
C556 C555 1.389 . S
C556 C557 1.387 . S
C557 H542 0.930 . S
C557 C552 1.390 . S
C557 C556 1.387 . S
H558 C570 0.930 . S
H559 C572 0.930 . S
H560 C573 0.930 . S
H561 C577 0.959 . S
H562 C577 0.959 . S
H563 C577 0.961 . S
H564 C578 0.960 . S
H565 C578 0.961 . S
H566 C578 0.959 . S
H567 C581 0.929 . S
H568 C582 0.931 . S
H569 C584 0.930 . S
C570 H558 0.930 . S
C570 C571 1.399 . S
C570 C575 1.399 . S
C571 C570 1.399 . S
C571 C572 1.376 . S
C572 H559 0.930 . S
C572 C571 1.376 . S
C572 C573 1.388 . S
C573 H560 0.930 . S
C573 C572 1.388 . S
C573 C574 1.390 . S
C574 C573 1.390 . S
C574 C575 1.394 . S
C574 C580 1.465 . S
C575 C570 1.399 . S
C575 C574 1.394 . S
C575 C576 1.516 . S
C576 C575 1.516 . S
C576 C577 1.502 . S
C576 C578 1.561 . S
C576 C579 1.526 . S
C577 H561 0.959 . S
C577 H562 0.959 . S
C577 H563 0.961 . S
C577 C576 1.502 . S
C578 H564 0.960 . S
C578 H565 0.961 . S
C578 H566 0.959 . S
C578 C576 1.561 . S
C579 C576 1.526 . S
C579 C580 1.396 . S
C579 C584 1.390 . S
C580 C574 1.465 . S
C580 C579 1.396 . S
C580 C581 1.399 . S
C581 H567 0.929 . S
C581 C580 1.399 . S
C581 C582 1.385 . S
C582 H568 0.931 . S
C582 C581 1.385 . S
C582 C583 1.389 . S
C583 C582 1.389 . S
C583 C584 1.387 . S
C584 H569 0.930 . S
C584 C579 1.390 . S
C584 C583 1.387 . S
H585 C597 0.930 . S
H586 C599 0.930 . S
H587 C600 0.930 . S
H588 C604 0.959 . S
H589 C604 0.959 . S
H590 C604 0.961 . S
H591 C605 0.960 . S
H592 C605 0.961 . S
H593 C605 0.959 . S
H594 C608 0.929 . S
H595 C609 0.931 . S
H596 C611 0.930 . S
C597 H585 0.930 . S
C597 C598 1.399 . S
C597 C602 1.399 . S
C598 C597 1.399 . S
C598 C599 1.376 . S
C599 H586 0.930 . S
C599 C598 1.376 . S
C599 C600 1.388 . S
C600 H587 0.930 . S
C600 C599 1.388 . S
C600 C601 1.390 . S
C601 C600 1.390 . S
C601 C602 1.394 . S
C601 C607 1.465 . S
C602 C597 1.399 . S
C602 C601 1.394 . S
C602 C603 1.516 . S
C603 C602 1.516 . S
C603 C604 1.502 . S
C603 C605 1.561 . S
C603 C606 1.526 . S
C604 H588 0.959 . S
C604 H589 0.959 . S
C604 H590 0.961 . S
C604 C603 1.502 . S
C605 H591 0.960 . S
C605 H592 0.961 . S
C605 H593 0.959 . S
C605 C603 1.561 . S
C606 C603 1.526 . S
C606 C607 1.396 . S
C606 C611 1.390 . S
C607 C601 1.465 . S
C607 C606 1.396 . S
C607 C608 1.399 . S
C608 H594 0.929 . S
C608 C607 1.399 . S
C608 C609 1.385 . S
C609 H595 0.931 . S
C609 C608 1.385 . S
C609 C610 1.389 . S
C610 C609 1.389 . S
C610 C611 1.387 . S
C611 H596 0.930 . S
C611 C606 1.390 . S
C611 C610 1.387 . S
H612 C624 0.930 . S
H613 C626 0.930 . S
H614 C627 0.930 . S
H615 C631 0.959 . S
H616 C631 0.959 . S
H617 C631 0.961 . S
H618 C632 0.960 . S
H619 C632 0.961 . S
H620 C632 0.959 . S
H621 C635 0.929 . S
H622 C636 0.931 . S
H623 C638 0.930 . S
C624 H612 0.930 . S
C624 C625 1.399 . S
C624 C629 1.399 . S
C625 C624 1.399 . S
C625 C626 1.376 . S
C626 H613 0.930 . S
C626 C625 1.376 . S
C626 C627 1.388 . S
C627 H614 0.930 . S
C627 C626 1.388 . S
C627 C628 1.390 . S
C628 C627 1.390 . S
C628 C629 1.394 . S
C628 C634 1.465 . S
C629 C624 1.399 . S
C629 C628 1.394 . S
C629 C630 1.516 . S
C630 C629 1.516 . S
C630 C631 1.502 . S
C630 C632 1.561 . S
C630 C633 1.526 . S
C631 H615 0.959 . S
C631 H616 0.959 . S
C631 H617 0.961 . S
C631 C630 1.502 . S
C632 H618 0.960 . S
C632 H619 0.961 . S
C632 H620 0.959 . S
C632 C630 1.561 . S
C633 C630 1.526 . S
C633 C634 1.396 . S
C633 C638 1.390 . S
C634 C628 1.465 . S
C634 C633 1.396 . S
C634 C635 1.399 . S
C635 H621 0.929 . S
C635 C634 1.399 . S
C635 C636 1.385 . S
C636 H622 0.931 . S
C636 C635 1.385 . S
C636 C637 1.389 . S
C637 C636 1.389 . S
C637 C638 1.387 . S
C638 H623 0.930 . S
C638 C633 1.390 . S
C638 C637 1.387 . S
H639 C651 0.930 . S
H640 C653 0.930 . S
H641 C654 0.930 . S
H642 C658 0.959 . S
H643 C658 0.959 . S
H644 C658 0.961 . S
H645 C659 0.960 . S
H646 C659 0.961 . S
H647 C659 0.959 . S
H648 C662 0.929 . S
H649 C663 0.931 . S
H650 C665 0.930 . S
C651 H639 0.930 . S
C651 C652 1.399 . S
C651 C656 1.399 . S
C652 C651 1.399 . S
C652 C653 1.376 . S
C653 H640 0.930 . S
C653 C652 1.376 . S
C653 C654 1.388 . S
C654 H641 0.930 . S
C654 C653 1.388 . S
C654 C655 1.390 . S
C655 C654 1.390 . S
C655 C656 1.394 . S
C655 C661 1.465 . S
C656 C651 1.399 . S
C656 C655 1.394 . S
C656 C657 1.516 . S
C657 C656 1.516 . S
C657 C658 1.502 . S
C657 C659 1.561 . S
C657 C660 1.526 . S
C658 H642 0.959 . S
C658 H643 0.959 . S
C658 H644 0.961 . S
C658 C657 1.502 . S
C659 H645 0.960 . S
C659 H646 0.961 . S
C659 H647 0.959 . S
C659 C657 1.561 . S
C660 C657 1.526 . S
C660 C661 1.396 . S
C660 C665 1.390 . S
C661 C655 1.465 . S
C661 C660 1.396 . S
C661 C662 1.399 . S
C662 H648 0.929 . S
C662 C661 1.399 . S
C662 C663 1.385 . S
C663 H649 0.931 . S
C663 C662 1.385 . S
C663 C664 1.389 . S
C664 C663 1.389 . S
C664 C665 1.387 . S
C665 H650 0.930 . S
C665 C660 1.390 . S
C665 C664 1.387 . S
H666 C678 0.930 . S
H667 C680 0.930 . S
H668 C681 0.930 . S
H669 C685 0.959 . S
H670 C685 0.959 . S
H671 C685 0.961 . S
H672 C686 0.960 . S
H673 C686 0.961 . S
H674 C686 0.959 . S
H675 C689 0.929 . S
H676 C690 0.931 . S
H677 C692 0.930 . S
C678 H666 0.930 . S
C678 C679 1.399 . S
C678 C683 1.399 . S
C679 C678 1.399 . S
C679 C680 1.376 . S
C680 H667 0.930 . S
C680 C679 1.376 . S
C680 C681 1.388 . S
C681 H668 0.930 . S
C681 C680 1.388 . S
C681 C682 1.390 . S
C682 C681 1.390 . S
C682 C683 1.394 . S
C682 C688 1.465 . S
C683 C678 1.399 . S
C683 C682 1.394 . S
C683 C684 1.516 . S
C684 C683 1.516 . S
C684 C685 1.502 . S
C684 C686 1.561 . S
C684 C687 1.526 . S
C685 H669 0.959 . S
C685 H670 0.959 . S
C685 H671 0.961 . S
C685 C684 1.502 . S
C686 H672 0.960 . S
C686 H673 0.961 . S
C686 H674 0.959 . S
C686 C684 1.561 . S
C687 C684 1.526 . S
C687 C688 1.396 . S
C687 C692 1.390 . S
C688 C682 1.465 . S
C688 C687 1.396 . S
C688 C689 1.399 . S
C689 H675 0.929 . S
C689 C688 1.399 . S
C689 C690 1.385 . S
C690 H676 0.931 . S
C690 C689 1.385 . S
C690 C691 1.389 . S
C691 C690 1.389 . S
C691 C692 1.387 . S
C692 H677 0.930 . S
C692 C687 1.390 . S
C692 C691 1.387 . S
H693 C705 0.930 . S
H694 C707 0.930 . S
H695 C708 0.930 . S
H696 C712 0.959 . S
H697 C712 0.959 . S
H698 C712 0.961 . S
H699 C713 0.960 . S
H700 C713 0.961 . S
H701 C713 0.959 . S
H702 C716 0.929 . S
H703 C717 0.931 . S
H704 C719 0.930 . S
C705 H693 0.930 . S
C705 C706 1.399 . S
C705 C710 1.399 . S
C706 C705 1.399 . S
C706 C707 1.376 . S
C707 H694 0.930 . S
C707 C706 1.376 . S
C707 C708 1.388 . S
C708 H695 0.930 . S
C708 C707 1.388 . S
C708 C709 1.390 . S
C709 C708 1.390 . S
C709 C710 1.394 . S
C709 C715 1.465 . S
C710 C705 1.399 . S
C710 C709 1.394 . S
C710 C711 1.516 . S
C711 C710 1.516 . S
C711 C712 1.502 . S
C711 C713 1.561 . S
C711 C714 1.526 . S
C712 H696 0.959 . S
C712 H697 0.959 . S
C712 H698 0.961 . S
C712 C711 1.502 . S
C713 H699 0.960 . S
C713 H700 0.961 . S
C713 H701 0.959 . S
C713 C711 1.561 . S
C714 C711 1.526 . S
C714 C715 1.396 . S
C714 C719 1.390 . S
C715 C709 1.465 . S
C715 C714 1.396 . S
C715 C716 1.399 . S
C716 H702 0.929 . S
C716 C715 1.399 . S
C716 C717 1.385 . S
C717 H703 0.931 . S
C717 C716 1.385 . S
C717 C718 1.389 . S
C718 C717 1.389 . S
C718 C719 1.387 . S
C719 H704 0.930 . S
C719 C714 1.390 . S
C719 C718 1.387 . S
H720 C732 0.930 . S
H721 C734 0.930 . S
H722 C735 0.930 . S
H723 C739 0.959 . S
H724 C739 0.959 . S
H725 C739 0.961 . S
H726 C740 0.960 . S
H727 C740 0.961 . S
H728 C740 0.959 . S
H729 C743 0.929 . S
H730 C744 0.931 . S
H731 C746 0.930 . S
C732 H720 0.930 . S
C732 C733 1.399 . S
C732 C737 1.399 . S
C733 C732 1.399 . S
C733 C734 1.376 . S
C734 H721 0.930 . S
C734 C733 1.376 . S
C734 C735 1.388 . S
C735 H722 0.930 . S
C735 C734 1.388 . S
C735 C736 1.390 . S
C736 C735 1.390 . S
C736 C737 1.394 . S
C736 C742 1.465 . S
C737 C732 1.399 . S
C737 C736 1.394 . S
C737 C738 1.516 . S
C738 C737 1.516 . S
C738 C739 1.502 . S
C738 C740 1.561 . S
C738 C741 1.526 . S
C739 H723 0.959 . S
C739 H724 0.959 . S
C739 H725 0.961 . S
C739 C738 1.502 . S
C740 H726 0.960 . S
C740 H727 0.961 . S
C740 H728 0.959 . S
C740 C738 1.561 . S
C741 C738 1.526 . S
C741 C742 1.396 . S
C741 C746 1.390 . S
C742 C736 1.465 . S
C742 C741 1.396 . S
C742 C743 1.399 . S
C743 H729 0.929 . S
C743 C742 1.399 . S
C743 C744 1.385 . S
C744 H730 0.931 . S
C744 C743 1.385 . S
C744 C745 1.389 . S
C745 C744 1.389 . S
C745 C746 1.387 . S
C746 H731 0.930 . S
C746 C741 1.390 . S
C746 C745 1.387 . S
H747 C759 0.930 . S
H748 C761 0.930 . S
H749 C762 0.930 . S
H750 C766 0.959 . S
H751 C766 0.959 . S
H752 C766 0.961 . S
H753 C767 0.960 . S
H754 C767 0.961 . S
H755 C767 0.959 . S
H756 C770 0.929 . S
H757 C771 0.931 . S
H758 C773 0.930 . S
C759 H747 0.930 . S
C759 C760 1.399 . S
C759 C764 1.399 . S
C760 C759 1.399 . S
C760 C761 1.376 . S
C761 H748 0.930 . S
C761 C760 1.376 . S
C761 C762 1.388 . S
C762 H749 0.930 . S
C762 C761 1.388 . S
C762 C763 1.390 . S
C763 C762 1.390 . S
C763 C764 1.394 . S
C763 C769 1.465 . S
C764 C759 1.399 . S
C764 C763 1.394 . S
C764 C765 1.516 . S
C765 C764 1.516 . S
C765 C766 1.502 . S
C765 C767 1.561 . S
C765 C768 1.526 . S
C766 H750 0.959 . S
C766 H751 0.959 . S
C766 H752 0.961 . S
C766 C765 1.502 . S
C767 H753 0.960 . S
C767 H754 0.961 . S
C767 H755 0.959 . S
C767 C765 1.561 . S
C768 C765 1.526 . S
C768 C769 1.396 . S
C768 C773 1.390 . S
C769 C763 1.465 . S
C769 C768 1.396 . S
C769 C770 1.399 . S
C770 H756 0.929 . S
C770 C769 1.399 . S
C770 C771 1.385 . S
C771 H757 0.931 . S
C771 C770 1.385 . S
C771 C772 1.389 . S
C772 C771 1.389 . S
C772 C773 1.387 . S
C773 H758 0.930 . S
C773 C768 1.390 . S
C773 C772 1.387 . S
H774 C786 0.930 . S
H775 C788 0.930 . S
H776 C789 0.930 . S
H777 C793 0.959 . S
H778 C793 0.959 . S
H779 C793 0.961 . S
H780 C794 0.960 . S
H781 C794 0.961 . S
H782 C794 0.959 . S
H783 C797 0.929 . S
H784 C798 0.931 . S
H785 C800 0.930 . S
C786 H774 0.930 . S
C786 C787 1.399 . S
C786 C791 1.399 . S
C787 C786 1.399 . S
C787 C788 1.376 . S
C788 H775 0.930 . S
C788 C787 1.376 . S
C788 C789 1.388 . S
C789 H776 0.930 . S
C789 C788 1.388 . S
C789 C790 1.390 . S
C790 C789 1.390 . S
C790 C791 1.394 . S
C790 C796 1.465 . S
C791 C786 1.399 . S
C791 C790 1.394 . S
C791 C792 1.516 . S
C792 C791 1.516 . S
C792 C793 1.502 . S
C792 C794 1.561 . S
C792 C795 1.526 . S
C793 H777 0.959 . S
C793 H778 0.959 . S
C793 H779 0.961 . S
C793 C792 1.502 . S
C794 H780 0.960 . S
C794 H781 0.961 . S
C794 H782 0.959 . S
C794 C792 1.561 . S
C795 C792 1.526 . S
C795 C796 1.396 . S
C795 C800 1.390 . S
C796 C790 1.465 . S
C796 C795 1.396 . S
C796 C797 1.399 . S
C797 H783 0.929 . S
C797 C796 1.399 . S
C797 C798 1.385 . S
C798 H784 0.931 . S
C798 C797 1.385 . S
C798 C799 1.389 . S
C799 C798 1.389 . S
C799 C800 1.387 . S
C800 H785 0.930 . S
C800 C795 1.390 . S
C800 C799 1.387 . S
H801 C813 0.930 . S
H802 C815 0.930 . S
H803 C816 0.930 . S
H804 C820 0.959 . S
H805 C820 0.959 . S
H806 C820 0.961 . S
H807 C821 0.960 . S
H808 C821 0.961 . S
H809 C821 0.959 . S
H810 C824 0.929 . S
H811 C825 0.931 . S
H812 C827 0.930 . S
C813 H801 0.930 . S
C813 C814 1.399 . S
C813 C818 1.399 . S
C814 C813 1.399 . S
C814 C815 1.376 . S
C815 H802 0.930 . S
C815 C814 1.376 . S
C815 C816 1.388 . S
C816 H803 0.930 . S
C816 C815 1.388 . S
C816 C817 1.390 . S
C817 C816 1.390 . S
C817 C818 1.394 . S
C817 C823 1.465 . S
C818 C813 1.399 . S
C818 C817 1.394 . S
C818 C819 1.516 . S
C819 C818 1.516 . S
C819 C820 1.502 . S
C819 C821 1.561 . S
C819 C822 1.526 . S
C820 H804 0.959 . S
C820 H805 0.959 . S
C820 H806 0.961 . S
C820 C819 1.502 . S
C821 H807 0.960 . S
C821 H808 0.961 . S
C821 H809 0.959 . S
C821 C819 1.561 . S
C822 C819 1.526 . S
C822 C823 1.396 . S
C822 C827 1.390 . S
C823 C817 1.465 . S
C823 C822 1.396 . S
C823 C824 1.399 . S
C824 H810 0.929 . S
C824 C823 1.399 . S
C824 C825 1.385 . S
C825 H811 0.931 . S
C825 C824 1.385 . S
C825 C826 1.389 . S
C826 C825 1.389 . S
C826 C827 1.387 . S
C827 H812 0.930 . S
C827 C822 1.390 . S
C827 C826 1.387 . S
H828 C840 0.930 . S
H829 C842 0.930 . S
H830 C843 0.930 . S
H831 C847 0.959 . S
H832 C847 0.959 . S
H833 C847 0.961 . S
H834 C848 0.960 . S
H835 C848 0.961 . S
H836 C848 0.959 . S
H837 C851 0.929 1_455 S
H838 C852 0.931 . S
H839 C854 0.930 . S
C840 H828 0.930 . S
C840 C841 1.399 . S
C840 C845 1.399 . S
C841 C840 1.399 . S
C841 C842 1.376 . S
C842 H829 0.930 . S
C842 C841 1.376 . S
C842 C843 1.388 . S
C843 H830 0.930 . S
C843 C842 1.388 . S
C843 C844 1.390 . S
C844 C843 1.390 . S
C844 C845 1.394 . S
C844 C850 1.465 1_455 S
C845 C840 1.399 . S
C845 C844 1.394 . S
C845 C846 1.516 1_455 S
C846 C845 1.516 1_655 S
C846 C847 1.502 . S
C846 C848 1.561 . S
C846 C849 1.526 . S
C847 H831 0.959 . S
C847 H832 0.959 . S
C847 H833 0.961 . S
C847 C846 1.502 . S
C848 H834 0.960 . S
C848 H835 0.961 . S
C848 H836 0.959 . S
C848 C846 1.561 . S
C849 C846 1.526 . S
C849 C850 1.396 . S
C849 C854 1.390 . S
C850 C844 1.465 1_655 S
C850 C849 1.396 . S
C850 C851 1.399 . S
C851 H837 0.929 1_655 S
C851 C850 1.399 . S
C851 C852 1.385 . S
C852 H838 0.931 . S
C852 C851 1.385 . S
C852 C853 1.389 . S
C853 C852 1.389 . S
C853 C854 1.387 . S
C854 H839 0.930 . S
C854 C849 1.390 . S
C854 C853 1.387 . S
H855 C867 0.930 . S
H856 C869 0.930 . S
H857 C870 0.930 . S
H858 C874 0.959 . S
H859 C874 0.959 . S
H860 C874 0.961 . S
H861 C875 0.960 . S
H862 C875 0.961 . S
H863 C875 0.959 . S
H864 C878 0.929 . S
H865 C879 0.931 . S
H866 C881 0.930 . S
C867 H855 0.930 . S
C867 C868 1.399 . S
C867 C872 1.399 . S
C868 C867 1.399 . S
C868 C869 1.376 . S
C869 H856 0.930 . S
C869 C868 1.376 . S
C869 C870 1.388 . S
C870 H857 0.930 . S
C870 C869 1.388 . S
C870 C871 1.390 . S
C871 C870 1.390 . S
C871 C872 1.394 . S
C871 C877 1.465 . S
C872 C867 1.399 . S
C872 C871 1.394 . S
C872 C873 1.516 . S
C873 C872 1.516 . S
C873 C874 1.502 . S
C873 C875 1.561 . S
C873 C876 1.526 . S
C874 H858 0.959 . S
C874 H859 0.959 . S
C874 H860 0.961 . S
C874 C873 1.502 . S
C875 H861 0.960 . S
C875 H862 0.961 . S
C875 H863 0.959 . S
C875 C873 1.561 . S
C876 C873 1.526 . S
C876 C877 1.396 . S
C876 C881 1.390 . S
C877 C871 1.465 . S
C877 C876 1.396 . S
C877 C878 1.399 . S
C878 H864 0.929 . S
C878 C877 1.399 . S
C878 C879 1.385 . S
C879 H865 0.931 . S
C879 C878 1.385 . S
C879 C880 1.389 . S
C880 C879 1.389 . S
C880 C881 1.387 . S
C881 H866 0.930 . S
C881 C876 1.390 . S
C881 C880 1.387 . S
H882 C894 0.930 . S
H883 C896 0.930 . S
H884 C897 0.930 . S
H885 C901 0.959 . S
H886 C901 0.959 . S
H887 C901 0.961 . S
H888 C902 0.960 . S
H889 C902 0.961 . S
H890 C902 0.959 . S
H891 C905 0.929 . S
H892 C906 0.931 . S
H893 C908 0.930 . S
C894 H882 0.930 . S
C894 C895 1.399 . S
C894 C899 1.399 . S
C895 C894 1.399 . S
C895 C896 1.376 . S
C896 H883 0.930 . S
C896 C895 1.376 . S
C896 C897 1.388 1_545 S
C897 H884 0.930 . S
C897 C896 1.388 1_565 S
C897 C898 1.387 . S
C898 C897 1.387 . S
C898 C899 1.371 1_565 S
C898 C904 1.489 . S
C899 C894 1.399 . S
C899 C898 1.371 1_545 S
C899 C900 1.516 . S
C900 C899 1.516 . S
C900 C901 1.502 . S
C900 C902 1.561 . S
C900 C903 1.526 1_545 S
C901 H885 0.959 . S
C901 H886 0.959 . S
C901 H887 0.961 . S
C901 C900 1.502 . S
C902 H888 0.960 . S
C902 H889 0.961 . S
C902 H890 0.959 . S
C902 C900 1.561 . S
C903 C900 1.526 1_565 S
C903 C904 1.396 . S
C903 C908 1.390 . S
C904 C898 1.489 . S
C904 C903 1.396 . S
C904 C905 1.399 . S
C905 H891 0.929 . S
C905 C904 1.399 . S
C905 C906 1.385 . S
C906 H892 0.931 . S
C906 C905 1.385 . S
C906 C907 1.389 . S
C907 C906 1.389 . S
C907 C908 1.387 . S
C908 H893 0.930 . S
C908 C903 1.390 . S
C908 C907 1.387 . S
H909 C921 0.930 . S
H910 C923 0.930 . S
H911 C924 0.867 1_556 S
H912 C928 0.959 . S
H913 C928 0.959 . S
H914 C928 0.961 . S
H915 C929 0.960 . S
H916 C929 0.961 . S
H917 C929 0.959 1_556 S
H918 C932 0.929 . S
H919 C933 0.931 . S
H920 C935 0.930 . S
C921 H909 0.930 . S
C921 C922 1.399 . S
C921 C926 1.399 . S
C922 C921 1.399 . S
C922 C923 1.376 . S
C923 H910 0.930 . S
C923 C922 1.376 . S
C923 C924 1.458 . S
C924 H911 0.867 1_554 S
C924 C923 1.458 . S
C924 C925 1.389 . S
C925 C924 1.389 . S
C925 C926 1.425 . S
C925 C931 1.437 1_564 S
C926 C921 1.399 . S
C926 C925 1.425 . S
C926 C927 1.516 1_565 S
C927 C926 1.516 1_545 S
C927 C928 1.502 . S
C927 C929 1.561 1_545 S
C927 C930 1.526 1_554 S
C928 H912 0.959 . S
C928 H913 0.959 . S
C928 H914 0.961 . S
C928 C927 1.502 . S
C929 H915 0.960 . S
C929 H916 0.961 . S
C929 H917 0.959 1_554 S
C929 C927 1.561 1_565 S
C930 C927 1.526 1_556 S
C930 C931 1.396 . S
C930 C935 1.390 . S
C931 C925 1.437 1_546 S
C931 C930 1.396 . S
C931 C932 1.399 . S
C932 H918 0.929 . S
C932 C931 1.399 . S
C932 C933 1.385 . S
C933 H919 0.931 . S
C933 C932 1.385 . S
C933 C934 1.389 . S
C934 C933 1.389 . S
C934 C935 1.387 . S
C935 H920 0.930 . S
C935 C930 1.390 . S
C935 C934 1.387 . S
H936 C948 0.930 . S
H937 C950 0.930 . S
H938 C951 0.930 . S
H939 C955 0.959 . S
H940 C955 0.959 . S
H941 C955 0.961 . S
H942 C956 0.960 . S
H943 C956 0.938 1_554 S
H944 C956 0.968 . S
H945 C959 0.929 . S
H946 C960 0.931 . S
H947 C962 0.930 . S
C948 H936 0.930 . S
C948 C949 1.399 . S
C948 C953 1.399 . S
C949 C948 1.399 . S
C949 C950 1.376 . S
C950 H937 0.930 . S
C950 C949 1.376 . S
C950 C951 1.388 1_655 S
C951 H938 0.930 . S
C951 C950 1.388 1_455 S
C951 C952 1.389 . S
C952 C951 1.389 . S
C952 C953 1.392 1_455 S
C952 C958 1.468 1_556 S
C953 C948 1.399 . S
C953 C952 1.392 1_655 S
C953 C954 1.516 1_556 S
C954 C953 1.516 1_554 S
C954 C955 1.502 . S
C954 C956 1.561 1_554 S
C954 C957 1.526 1_655 S
C955 H939 0.959 . S
C955 H940 0.959 . S
C955 H941 0.961 . S
C955 C954 1.502 . S
C956 H942 0.960 . S
C956 H943 0.938 1_556 S
C956 H944 0.968 . S
C956 C954 1.561 1_556 S
C957 C954 1.526 1_455 S
C957 C958 1.396 . S
C957 C962 1.390 . S
C958 C952 1.468 1_554 S
C958 C957 1.396 . S
C958 C959 1.399 . S
C959 H945 0.929 . S
C959 C958 1.399 . S
C959 C960 1.385 . S
C960 H946 0.931 . S
C960 C959 1.385 . S
C960 C961 1.389 . S
C961 C960 1.389 . S
C961 C962 1.387 . S
C962 H947 0.930 . S
C962 C957 1.390 . S
C962 C961 1.387 . S
H963 C975 0.930 . S
H964 C977 0.930 . S
H965 C978 0.934 1_554 S
H966 C982 0.959 1_554 S
H967 C982 0.959 . S
H968 C982 0.961 . S
H969 C983 0.960 . S
H970 C983 0.961 . S
H971 C983 0.959 . S
H972 C986 0.929 . S
H973 C987 0.931 . S
H974 C989 0.930 . S
C975 H963 0.930 . S
C975 C976 1.399 . S
C975 C980 1.399 . S
C976 C975 1.399 . S
C976 C977 1.376 . S
C977 H964 0.930 . S
C977 C976 1.376 . S
C977 C978 1.388 . S
C978 H965 0.934 1_556 S
C978 C977 1.388 . S
C978 C979 1.390 . S
C979 C978 1.390 . S
C979 C980 1.394 . S
C979 C985 1.465 1_556 S
C980 C975 1.399 . S
C980 C979 1.394 . S
C980 C981 1.516 . S
C981 C980 1.516 . S
C981 C982 1.502 . S
C981 C983 1.561 . S
C981 C984 1.526 1_556 S
C982 H966 0.959 1_556 S
C982 H967 0.959 . S
C982 H968 0.961 . S
C982 C981 1.502 . S
C983 H969 0.960 . S
C983 H970 0.961 . S
C983 H971 0.959 . S
C983 C981 1.561 . S
C984 C981 1.526 1_554 S
C984 C985 1.396 . S
C984 C989 1.390 . S
C985 C979 1.465 1_554 S
C985 C984 1.396 . S
C985 C986 1.399 . S
C986 H972 0.929 . S
C986 C985 1.399 . S
C986 C987 1.385 . S
C987 H973 0.931 . S
C987 C986 1.385 . S
C987 C988 1.389 . S
C988 C987 1.389 . S
C988 C989 1.387 . S
C989 H974 0.930 . S
C989 C984 1.390 . S
C989 C988 1.387 . S
H990 C1002 0.930 . S
H991 C1004 0.930 . S
H992 C1005 0.930 . S
H993 C1009 0.959 1_565 S
H994 C1009 0.959 . S
H995 C1009 0.961 . S
H996 C1010 0.960 . S
H997 C1010 0.961 . S
H998 C1010 0.959 . S
H999 C1013 0.929 . S
H1000 C1014 0.931 . S
H1001 C1016 0.930 . S
C1002 H990 0.930 . S
C1002 C1003 1.399 . S
C1002 C1007 1.399 . S
C1003 C1002 1.399 . S
C1003 C1004 1.376 1_545 S
C1004 H991 0.930 . S
C1004 C1003 1.376 1_565 S
C1004 C1005 1.388 . S
C1005 H992 0.930 . S
C1005 C1004 1.388 . S
C1005 C1006 1.390 . S
C1006 C1005 1.390 . S
C1006 C1007 1.394 1_565 S
C1006 C1012 1.465 . S
C1007 C1002 1.399 . S
C1007 C1006 1.394 1_545 S
C1007 C1008 1.516 . S
C1008 C1007 1.516 . S
C1008 C1009 1.502 . S
C1008 C1010 1.561 . S
C1008 C1011 1.526 1_545 S
C1009 H993 0.959 1_545 S
C1009 H994 0.959 . S
C1009 H995 0.961 . S
C1009 C1008 1.502 . S
C1010 H996 0.960 . S
C1010 H997 0.961 . S
C1010 H998 0.959 . S
C1010 C1008 1.561 . S
C1011 C1008 1.526 1_565 S
C1011 C1012 1.396 . S
C1011 C1016 1.390 . S
C1012 C1006 1.465 . S
C1012 C1011 1.396 . S
C1012 C1013 1.399 . S
C1013 H999 0.929 . S
C1013 C1012 1.399 . S
C1013 C1014 1.385 . S
C1014 H1000 0.931 . S
C1014 C1013 1.385 . S
C1014 C1015 1.389 . S
C1015 C1014 1.389 . S
C1015 C1016 1.387 . S
C1016 H1001 0.930 . S
C1016 C1011 1.390 . S
C1016 C1015 1.387 . S
H1017 C1029 0.930 . S
H1018 C1031 0.930 . S
H1019 C1032 0.930 . S
H1020 C1036 0.959 . S
H1021 C1036 0.959 . S
H1022 C1036 0.961 . S
H1023 C1037 0.960 . S
H1024 C1037 0.961 . S
H1025 C1037 0.959 1_655 S
H1026 C1040 0.929 . S
H1027 C1041 0.931 . S
H1028 C1043 0.930 . S
C1029 H1017 0.930 . S
C1029 C1030 1.399 . S
C1029 C1034 1.399 . S
C1030 C1029 1.399 . S
C1030 C1031 1.376 . S
C1031 H1018 0.930 . S
C1031 C1030 1.376 . S
C1031 C1032 1.388 . S
C1032 H1019 0.930 . S
C1032 C1031 1.388 . S
C1032 C1033 1.390 . S
C1033 C1032 1.390 . S
C1033 C1034 1.394 . S
C1033 C1039 1.465 . S
C1034 C1029 1.399 . S
C1034 C1033 1.394 . S
C1034 C1035 1.516 . S
C1035 C1034 1.516 . S
C1035 C1036 1.502 . S
C1035 C1037 1.561 . S
C1035 C1038 1.526 . S
C1036 H1020 0.959 . S
C1036 H1021 0.959 . S
C1036 H1022 0.961 . S
C1036 C1035 1.502 . S
C1037 H1023 0.960 . S
C1037 H1024 0.961 . S
C1037 H1025 0.959 1_455 S
C1037 C1035 1.561 . S
C1038 C1035 1.526 . S
C1038 C1039 1.396 . S
C1038 C1043 1.390 . S
C1039 C1033 1.465 . S
C1039 C1038 1.396 . S
C1039 C1040 1.399 1_455 S
C1040 H1026 0.929 . S
C1040 C1039 1.399 1_655 S
C1040 C1041 1.385 . S
C1041 H1027 0.931 . S
C1041 C1040 1.385 . S
C1041 C1042 1.389 . S
C1042 C1041 1.389 . S
C1042 C1043 1.387 1_655 S
C1043 H1028 0.930 . S
C1043 C1038 1.390 . S
C1043 C1042 1.387 1_455 S
H1044 C1056 0.930 . S
H1045 C1058 0.930 . S
H1046 C1059 0.930 . S
H1047 C1063 0.959 . S
H1048 C1063 0.959 . S
H1049 C1063 0.961 . S
H1050 C1064 0.960 . S
H1051 C1064 0.961 . S
H1052 C1064 0.959 . S
H1053 C1067 0.929 . S
H1054 C1068 0.931 . S
H1055 C1070 0.930 . S
C1056 H1044 0.930 . S
C1056 C1057 1.399 . S
C1056 C1061 1.399 . S
C1057 C1056 1.399 . S
C1057 C1058 1.376 . S
C1058 H1045 0.930 . S
C1058 C1057 1.376 . S
C1058 C1059 1.388 . S
C1059 H1046 0.930 . S
C1059 C1058 1.388 . S
C1059 C1060 1.390 . S
C1060 C1059 1.390 . S
C1060 C1061 1.394 . S
C1060 C1066 1.465 . S
C1061 C1056 1.399 . S
C1061 C1060 1.394 . S
C1061 C1062 1.516 . S
C1062 C1061 1.516 . S
C1062 C1063 1.502 . S
C1062 C1064 1.561 . S
C1062 C1065 1.526 . S
C1063 H1047 0.959 . S
C1063 H1048 0.959 . S
C1063 H1049 0.961 . S
C1063 C1062 1.502 . S
C1064 H1050 0.960 . S
C1064 H1051 0.961 . S
C1064 H1052 0.959 . S
C1064 C1062 1.561 . S
C1065 C1062 1.526 . S
C1065 C1066 1.396 . S
C1065 C1070 1.390 . S
C1066 C1060 1.465 . S
C1066 C1065 1.396 . S
C1066 C1067 1.399 . S
C1067 H1053 0.929 . S
C1067 C1066 1.399 . S
C1067 C1068 1.385 . S
C1068 H1054 0.931 . S
C1068 C1067 1.385 . S
C1068 C1069 1.389 . S
C1069 C1068 1.389 . S
C1069 C1070 1.387 . S
C1070 H1055 0.930 . S
C1070 C1065 1.390 . S
C1070 C1069 1.387 . S
H1071 C1083 0.930 . S
H1072 C1085 0.930 . S
H1073 C1086 0.930 . S
H1074 C1090 0.959 . S
H1075 C1090 0.959 . S
H1076 C1090 0.961 1_655 S
H1077 C1091 0.960 . S
H1078 C1091 0.961 . S
H1079 C1091 0.959 . S
H1080 C1094 0.929 . S
H1081 C1095 0.931 . S
H1082 C1097 0.930 . S
C1083 H1071 0.930 . S
C1083 C1084 1.399 . S
C1083 C1088 1.399 . S
C1084 C1083 1.399 . S
C1084 C1085 1.376 . S
C1085 H1072 0.930 . S
C1085 C1084 1.376 . S
C1085 C1086 1.388 . S
C1086 H1073 0.930 . S
C1086 C1085 1.388 . S
C1086 C1087 1.390 . S
C1087 C1086 1.390 . S
C1087 C1088 1.394 . S
C1087 C1093 1.465 . S
C1088 C1083 1.399 . S
C1088 C1087 1.394 . S
C1088 C1089 1.516 . S
C1089 C1088 1.516 . S
C1089 C1090 1.502 1_655 S
C1089 C1091 1.561 . S
C1089 C1092 1.526 . S
C1090 H1074 0.959 . S
C1090 H1075 0.959 . S
C1090 H1076 0.961 1_455 S
C1090 C1089 1.502 1_455 S
C1091 H1077 0.960 . S
C1091 H1078 0.961 . S
C1091 H1079 0.959 . S
C1091 C1089 1.561 . S
C1092 C1089 1.526 . S
C1092 C1093 1.396 . S
C1092 C1097 1.390 1_655 S
C1093 C1087 1.465 . S
C1093 C1092 1.396 . S
C1093 C1094 1.399 . S
C1094 H1080 0.929 . S
C1094 C1093 1.399 . S
C1094 C1095 1.385 1_655 S
C1095 H1081 0.931 . S
C1095 C1094 1.385 1_455 S
C1095 C1096 1.389 . S
C1096 C1095 1.389 . S
C1096 C1097 1.387 . S
C1097 H1082 0.930 . S
C1097 C1092 1.390 1_455 S
C1097 C1096 1.387 . S
H1098 C1110 0.930 . S
H1099 C1112 0.930 . S
H1100 C1113 0.930 . S
H1101 C1117 0.959 . S
H1102 C1117 0.959 . S
H1103 C1117 0.961 . S
H1104 C1118 0.960 . S
H1105 C1118 0.961 . S
H1106 C1118 0.959 . S
H1107 C1121 0.929 . S
H1108 C1122 0.931 . S
H1109 C1124 0.930 . S
C1110 H1098 0.930 . S
C1110 C1111 1.399 . S
C1110 C1115 1.399 . S
C1111 C1110 1.399 . S
C1111 C1112 1.376 . S
C1112 H1099 0.930 . S
C1112 C1111 1.376 . S
C1112 C1113 1.388 . S
C1113 H1100 0.930 . S
C1113 C1112 1.388 . S
C1113 C1114 1.390 . S
C1114 C1113 1.390 . S
C1114 C1115 1.394 . S
C1114 C1120 1.465 . S
C1115 C1110 1.399 . S
C1115 C1114 1.394 . S
C1115 C1116 1.516 . S
C1116 C1115 1.516 . S
C1116 C1117 1.502 . S
C1116 C1118 1.561 . S
C1116 C1119 1.526 . S
C1117 H1101 0.959 . S
C1117 H1102 0.959 . S
C1117 H1103 0.961 . S
C1117 C1116 1.502 . S
C1118 H1104 0.960 . S
C1118 H1105 0.961 . S
C1118 H1106 0.959 . S
C1118 C1116 1.561 . S
C1119 C1116 1.526 . S
C1119 C1120 1.396 . S
C1119 C1124 1.390 . S
C1120 C1114 1.465 . S
C1120 C1119 1.396 . S
C1120 C1121 1.399 . S
C1121 H1107 0.929 . S
C1121 C1120 1.399 . S
C1121 C1122 1.385 . S
C1122 H1108 0.931 . S
C1122 C1121 1.385 . S
C1122 C1123 1.389 . S
C1123 C1122 1.389 . S
C1123 C1124 1.387 . S
C1124 H1109 0.930 . S
C1124 C1119 1.390 . S
C1124 C1123 1.387 . S
H1125 C1137 0.930 . S
H1126 C1139 0.930 . S
H1127 C1140 0.930 . S
H1128 C1144 0.959 . S
H1129 C1144 0.959 . S
H1130 C1144 0.961 . S
H1131 C1145 0.960 . S
H1132 C1145 0.961 . S
H1133 C1145 0.959 . S
H1134 C1148 0.929 . S
H1135 C1149 0.931 . S
H1136 C1151 0.930 . S
C1137 H1125 0.930 . S
C1137 C1138 1.399 . S
C1137 C1142 1.399 . S
C1138 C1137 1.399 . S
C1138 C1139 1.376 . S
C1139 H1126 0.930 . S
C1139 C1138 1.376 . S
C1139 C1140 1.388 . S
C1140 H1127 0.930 . S
C1140 C1139 1.388 . S
C1140 C1141 1.390 . S
C1141 C1140 1.390 . S
C1141 C1142 1.394 . S
C1141 C1147 1.465 . S
C1142 C1137 1.399 . S
C1142 C1141 1.394 . S
C1142 C1143 1.516 1_545 S
C1143 C1142 1.516 1_565 S
C1143 C1144 1.502 . S
C1143 C1145 1.561 . S
C1143 C1146 1.526 . S
C1144 H1128 0.959 . S
C1144 H1129 0.959 . S
C1144 H1130 0.961 . S
C1144 C1143 1.502 . S
C1145 H1131 0.960 . S
C1145 H1132 0.961 . S
C1145 H1133 0.959 . S
C1145 C1143 1.561 . S
C1146 C1143 1.526 . S
C1146 C1147 1.396 1_565 S
C1146 C1151 1.390 . S
C1147 C1141 1.465 . S
C1147 C1146 1.396 1_545 S
C1147 C1148 1.399 . S
C1148 H1134 0.929 . S
C1148 C1147 1.399 . S
C1148 C1149 1.385 . S
C1149 H1135 0.931 . S
C1149 C1148 1.385 . S
C1149 C1150 1.389 1_545 S
C1150 C1149 1.389 1_565 S
C1150 C1151 1.387 . S
C1151 H1136 0.930 . S
C1151 C1146 1.390 . S
C1151 C1150 1.387 . S
H1152 C1164 0.930 . S
H1153 C1166 0.931 . S
H1154 C1167 0.930 . S
H1155 C1171 0.959 . S
H1156 C1171 0.959 1_545 S
H1157 C1171 0.961 . S
H1158 C1172 0.960 . S
H1159 C1172 0.961 . S
H1160 C1172 0.959 . S
H1161 C1175 0.929 . S
H1162 C1176 0.931 . S
H1163 C1178 0.930 . S
C1164 H1152 0.930 . S
C1164 C1165 1.399 . S
C1164 C1169 1.399 1_565 S
C1165 C1164 1.399 . S
C1165 C1166 1.378 . S
C1166 H1153 0.931 . S
C1166 C1165 1.378 . S
C1166 C1167 1.386 1_565 S
C1167 H1154 0.930 . S
C1167 C1166 1.386 1_545 S
C1167 C1168 1.390 . S
C1168 C1167 1.390 . S
C1168 C1169 1.394 . S
C1168 C1174 1.465 . S
C1169 C1164 1.399 1_545 S
C1169 C1168 1.394 . S
C1169 C1170 1.516 . S
C1170 C1169 1.516 . S
C1170 C1171 1.502 1_545 S
C1170 C1172 1.561 . S
C1170 C1173 1.526 . S
C1171 H1155 0.959 . S
C1171 H1156 0.959 1_565 S
C1171 H1157 0.961 . S
C1171 C1170 1.502 1_565 S
C1172 H1158 0.960 . S
C1172 H1159 0.961 . S
C1172 H1160 0.959 . S
C1172 C1170 1.561 . S
C1173 C1170 1.526 . S
C1173 C1174 1.396 . S
C1173 C1178 1.390 . S
C1174 C1168 1.465 . S
C1174 C1173 1.396 . S
C1174 C1175 1.399 . S
C1175 H1161 0.929 . S
C1175 C1174 1.399 . S
C1175 C1176 1.385 . S
C1176 H1162 0.931 . S
C1176 C1175 1.385 . S
C1176 C1177 1.389 . S
C1177 C1176 1.389 . S
C1177 C1178 1.387 . S
C1178 H1163 0.930 . S
C1178 C1173 1.390 . S
C1178 C1177 1.387 . S
H1179 C1191 0.930 . S
H1180 C1193 0.930 . S
H1181 C1194 0.930 . S
H1182 C1198 0.959 . S
H1183 C1198 0.959 . S
H1184 C1198 0.961 . S
H1185 C1199 0.960 . S
H1186 C1199 0.961 . S
H1187 C1199 0.959 . S
H1188 C1202 0.929 . S
H1189 C1203 0.931 . S
H1190 C1205 0.930 . S
C1191 H1179 0.930 . S
C1191 C1192 1.399 . S
C1191 C1196 1.399 . S
C1192 C1191 1.399 . S
C1192 C1193 1.376 . S
C1193 H1180 0.930 . S
C1193 C1192 1.376 . S
C1193 C1194 1.388 . S
C1194 H1181 0.930 . S
C1194 C1193 1.388 . S
C1194 C1195 1.390 . S
C1195 C1194 1.390 . S
C1195 C1196 1.394 . S
C1195 C1201 1.465 . S
C1196 C1191 1.399 . S
C1196 C1195 1.394 . S
C1196 C1197 1.516 1_655 S
C1197 C1196 1.516 1_455 S
C1197 C1198 1.502 . S
C1197 C1199 1.561 . S
C1197 C1200 1.526 . S
C1198 H1182 0.959 . S
C1198 H1183 0.959 . S
C1198 H1184 0.961 . S
C1198 C1197 1.502 . S
C1199 H1185 0.960 . S
C1199 H1186 0.961 . S
C1199 H1187 0.959 . S
C1199 C1197 1.561 . S
C1200 C1197 1.526 . S
C1200 C1201 1.396 1_455 S
C1200 C1205 1.390 . S
C1201 C1195 1.465 . S
C1201 C1200 1.396 1_655 S
C1201 C1202 1.399 . S
C1202 H1188 0.929 . S
C1202 C1201 1.399 . S
C1202 C1203 1.385 . S
C1203 H1189 0.931 . S
C1203 C1202 1.385 . S
C1203 C1204 1.389 1_655 S
C1204 C1203 1.389 1_455 S
C1204 C1205 1.387 . S
C1205 H1190 0.930 . S
C1205 C1200 1.390 . S
C1205 C1204 1.387 . S
H1206 C1218 0.930 . S
H1207 C1220 0.930 . S
H1208 C1221 0.930 . S
H1209 C1225 0.959 . S
H1210 C1225 0.959 . S
H1211 C1225 0.961 . S
H1212 C1226 0.960 . S
H1213 C1226 0.961 . S
H1214 C1226 0.959 . S
H1215 C1229 0.929 . S
H1216 C1230 0.931 . S
H1217 C1232 0.930 . S
C1218 H1206 0.930 . S
C1218 C1219 1.399 . S
C1218 C1223 1.399 . S
C1219 C1218 1.399 . S
C1219 C1220 1.376 . S
C1220 H1207 0.930 . S
C1220 C1219 1.376 . S
C1220 C1221 1.388 . S
C1221 H1208 0.930 . S
C1221 C1220 1.388 . S
C1221 C1222 1.390 . S
C1222 C1221 1.390 . S
C1222 C1223 1.394 . S
C1222 C1228 1.465 . S
C1223 C1218 1.399 . S
C1223 C1222 1.394 . S
C1223 C1224 1.516 . S
C1224 C1223 1.516 . S
C1224 C1225 1.502 . S
C1224 C1226 1.561 . S
C1224 C1227 1.526 . S
C1225 H1209 0.959 . S
C1225 H1210 0.959 . S
C1225 H1211 0.961 . S
C1225 C1224 1.502 . S
C1226 H1212 0.960 . S
C1226 H1213 0.961 . S
C1226 H1214 0.959 . S
C1226 C1224 1.561 . S
C1227 C1224 1.526 . S
C1227 C1228 1.396 . S
C1227 C1232 1.390 . S
C1228 C1222 1.465 . S
C1228 C1227 1.396 . S
C1228 C1229 1.399 . S
C1229 H1215 0.929 . S
C1229 C1228 1.399 . S
C1229 C1230 1.385 . S
C1230 H1216 0.931 . S
C1230 C1229 1.385 . S
C1230 C1231 1.389 . S
C1231 C1230 1.389 . S
C1231 C1232 1.387 . S
C1232 H1217 0.930 . S
C1232 C1227 1.390 . S
C1232 C1231 1.387 . S
H1233 C1245 0.930 . S
H1234 C1247 0.930 . S
H1235 C1248 0.930 . S
H1236 C1252 0.959 1_655 S
H1237 C1252 0.959 . S
H1238 C1252 0.961 . S
H1239 C1253 0.960 . S
H1240 C1253 0.961 . S
H1241 C1253 0.959 . S
H1242 C1256 0.929 . S
H1243 C1257 0.931 . S
H1244 C1259 0.930 . S
C1245 H1233 0.930 . S
C1245 C1246 1.399 . S
C1245 C1250 1.399 1_655 S
C1246 C1245 1.399 . S
C1246 C1247 1.376 . S
C1247 H1234 0.930 . S
C1247 C1246 1.376 . S
C1247 C1248 1.388 1_655 S
C1248 H1235 0.930 . S
C1248 C1247 1.388 1_455 S
C1248 C1249 1.390 . S
C1249 C1248 1.390 . S
C1249 C1250 1.394 . S
C1249 C1255 1.465 . S
C1250 C1245 1.399 1_455 S
C1250 C1249 1.394 . S
C1250 C1251 1.516 . S
C1251 C1250 1.516 . S
C1251 C1252 1.502 . S
C1251 C1253 1.561 . S
C1251 C1254 1.526 . S
C1252 H1236 0.959 1_455 S
C1252 H1237 0.959 . S
C1252 H1238 0.961 . S
C1252 C1251 1.502 . S
C1253 H1239 0.960 . S
C1253 H1240 0.961 . S
C1253 H1241 0.959 . S
C1253 C1251 1.561 . S
C1254 C1251 1.526 . S
C1254 C1255 1.396 . S
C1254 C1259 1.390 . S
C1255 C1249 1.465 . S
C1255 C1254 1.396 . S
C1255 C1256 1.399 . S
C1256 H1242 0.929 . S
C1256 C1255 1.399 . S
C1256 C1257 1.385 . S
C1257 H1243 0.931 . S
C1257 C1256 1.385 . S
C1257 C1258 1.389 . S
C1258 C1257 1.389 . S
C1258 C1259 1.387 . S
C1259 H1244 0.930 . S
C1259 C1254 1.390 . S
C1259 C1258 1.387 . S
H1260 C1272 0.930 . S
H1261 C1274 0.930 . S
H1262 C1275 0.930 . S
H1263 C1279 0.959 . S
H1264 C1279 0.959 . S
H1265 C1279 0.961 . S
H1266 C1280 0.960 . S
H1267 C1280 0.961 . S
H1268 C1280 0.959 . S
H1269 C1283 0.929 . S
H1270 C1284 0.931 . S
H1271 C1286 0.930 . S
C1272 H1260 0.930 . S
C1272 C1273 1.399 . S
C1272 C1277 1.399 . S
C1273 C1272 1.399 . S
C1273 C1274 1.376 . S
C1274 H1261 0.930 . S
C1274 C1273 1.376 . S
C1274 C1275 1.388 . S
C1275 H1262 0.930 . S
C1275 C1274 1.388 . S
C1275 C1276 1.390 . S
C1276 C1275 1.390 . S
C1276 C1277 1.394 . S
C1276 C1282 1.465 . S
C1277 C1272 1.399 . S
C1277 C1276 1.394 . S
C1277 C1278 1.516 . S
C1278 C1277 1.516 . S
C1278 C1279 1.502 . S
C1278 C1280 1.561 . S
C1278 C1281 1.526 . S
C1279 H1263 0.959 . S
C1279 H1264 0.959 . S
C1279 H1265 0.961 . S
C1279 C1278 1.502 . S
C1280 H1266 0.960 . S
C1280 H1267 0.961 . S
C1280 H1268 0.959 . S
C1280 C1278 1.561 . S
C1281 C1278 1.526 . S
C1281 C1282 1.396 . S
C1281 C1286 1.390 . S
C1282 C1276 1.465 . S
C1282 C1281 1.396 . S
C1282 C1283 1.399 . S
C1283 H1269 0.929 . S
C1283 C1282 1.399 . S
C1283 C1284 1.385 . S
C1284 H1270 0.931 . S
C1284 C1283 1.385 . S
C1284 C1285 1.389 . S
C1285 C1284 1.389 . S
C1285 C1286 1.387 . S
C1286 H1271 0.930 . S
C1286 C1281 1.390 . S
C1286 C1285 1.387 . S
H1287 C1299 0.930 . S
H1288 C1301 0.930 . S
H1289 C1302 0.930 . S
H1290 C1306 0.959 . S
H1291 C1306 0.959 . S
H1292 C1306 0.961 . S
H1293 C1307 0.960 . S
H1294 C1307 0.961 . S
H1295 C1307 0.959 1_565 S
H1296 C1310 0.929 . S
H1297 C1311 0.931 . S
H1298 C1313 0.930 . S
C1299 H1287 0.930 . S
C1299 C1300 1.399 . S
C1299 C1304 1.407 . S
C1300 C1299 1.399 . S
C1300 C1301 1.376 1_545 S
C1301 H1288 0.930 . S
C1301 C1300 1.376 1_565 S
C1301 C1302 1.388 . S
C1302 H1289 0.930 . S
C1302 C1301 1.388 . S
C1302 C1303 1.390 . S
C1303 C1302 1.390 . S
C1303 C1304 1.363 1_565 S
C1303 C1309 1.465 . S
C1304 C1299 1.407 . S
C1304 C1303 1.363 1_545 S
C1304 C1305 1.536 . S
C1305 C1304 1.536 . S
C1305 C1306 1.502 . S
C1305 C1307 1.561 . S
C1305 C1308 1.526 1_545 S
C1306 H1290 0.959 . S
C1306 H1291 0.959 . S
C1306 H1292 0.961 . S
C1306 C1305 1.502 . S
C1307 H1293 0.960 . S
C1307 H1294 0.961 . S
C1307 H1295 0.959 1_545 S
C1307 C1305 1.561 . S
C1308 C1305 1.526 1_565 S
C1308 C1309 1.396 . S
C1308 C1313 1.390 . S
C1309 C1303 1.465 . S
C1309 C1308 1.396 . S
C1309 C1310 1.399 . S
C1310 H1296 0.929 . S
C1310 C1309 1.399 . S
C1310 C1311 1.385 . S
C1311 H1297 0.931 . S
C1311 C1310 1.385 . S
C1311 C1312 1.389 . S
C1312 C1311 1.389 . S
C1312 C1313 1.387 . S
C1313 H1298 0.930 . S
C1313 C1308 1.390 . S
C1313 C1312 1.387 . S
H1314 C1326 0.930 . S
H1315 C1328 0.930 . S
H1316 C1329 0.930 . S
H1317 C1333 0.959 . S
H1318 C1333 0.959 . S
H1319 C1333 0.961 . S
H1320 C1334 0.960 . S
H1321 C1334 0.961 . S
H1322 C1334 0.959 . S
H1323 C1337 0.929 . S
H1324 C1338 0.931 . S
H1325 C1340 0.930 . S
C1326 H1314 0.930 . S
C1326 C1327 1.399 . S
C1326 C1331 1.399 . S
C1327 C1326 1.399 . S
C1327 C1328 1.376 . S
C1328 H1315 0.930 . S
C1328 C1327 1.376 . S
C1328 C1329 1.388 . S
C1329 H1316 0.930 . S
C1329 C1328 1.388 . S
C1329 C1330 1.390 . S
C1330 C1329 1.390 . S
C1330 C1331 1.394 . S
C1330 C1336 1.465 . S
C1331 C1326 1.399 . S
C1331 C1330 1.394 . S
C1331 C1332 1.516 . S
C1332 C1331 1.516 . S
C1332 C1333 1.502 . S
C1332 C1334 1.561 . S
C1332 C1335 1.526 . S
C1333 H1317 0.959 . S
C1333 H1318 0.959 . S
C1333 H1319 0.961 . S
C1333 C1332 1.502 . S
C1334 H1320 0.960 . S
C1334 H1321 0.961 . S
C1334 H1322 0.959 . S
C1334 C1332 1.561 . S
C1335 C1332 1.526 . S
C1335 C1336 1.396 . S
C1335 C1340 1.390 . S
C1336 C1330 1.465 . S
C1336 C1335 1.396 . S
C1336 C1337 1.399 . S
C1337 H1323 0.929 . S
C1337 C1336 1.399 . S
C1337 C1338 1.385 . S
C1338 H1324 0.931 . S
C1338 C1337 1.385 . S
C1338 C1339 1.389 . S
C1339 C1338 1.389 . S
C1339 C1340 1.387 . S
C1340 H1325 0.930 . S
C1340 C1335 1.390 . S
C1340 C1339 1.387 . S
H1341 C1353 0.930 . S
H1342 C1355 0.930 . S
H1343 C1356 0.930 . S
H1344 C1360 0.959 . S
H1345 C1360 0.959 . S
H1346 C1360 0.961 1_545 S
H1347 C1361 0.960 . S
H1348 C1361 0.961 1_565 S
H1349 C1361 0.959 . S
H1350 C1364 0.929 . S
H1351 C1365 0.931 . S
H1352 C1367 0.930 . S
C1353 H1341 0.930 . S
C1353 C1354 1.399 . S
C1353 C1358 1.399 . S
C1354 C1353 1.399 . S
C1354 C1355 1.376 . S
C1355 H1342 0.930 . S
C1355 C1354 1.376 . S
C1355 C1356 1.388 . S
C1356 H1343 0.930 . S
C1356 C1355 1.388 . S
C1356 C1357 1.390 . S
C1357 C1356 1.390 . S
C1357 C1358 1.394 . S
C1357 C1363 1.465 1_545 S
C1358 C1353 1.399 . S
C1358 C1357 1.394 . S
C1358 C1359 1.548 . S
C1359 C1358 1.548 . S
C1359 C1360 1.483 1_545 S
C1359 C1361 1.562 . S
C1359 C1362 1.515 1_545 S
C1360 H1344 0.959 . S
C1360 H1345 0.959 . S
C1360 H1346 0.961 1_565 S
C1360 C1359 1.483 1_565 S
C1361 H1347 0.960 . S
C1361 H1348 0.961 1_545 S
C1361 H1349 0.959 . S
C1361 C1359 1.562 . S
C1362 C1359 1.515 1_565 S
C1362 C1363 1.396 . S
C1362 C1367 1.390 . S
C1363 C1357 1.465 1_565 S
C1363 C1362 1.396 . S
C1363 C1364 1.399 . S
C1364 H1350 0.929 . S
C1364 C1363 1.399 . S
C1364 C1365 1.385 . S
C1365 H1351 0.931 . S
C1365 C1364 1.385 . S
C1365 C1366 1.389 . S
C1366 C1365 1.389 . S
C1366 C1367 1.387 . S
C1367 H1352 0.930 . S
C1367 C1362 1.390 . S
C1367 C1366 1.387 . S
H1368 C1380 0.930 . S
H1369 C1382 0.930 . S
H1370 C1383 0.930 . S
H1371 C1387 0.959 . S
H1372 C1387 0.959 . S
H1373 C1387 0.961 . S
H1374 C1388 0.960 . S
H1375 C1388 0.961 . S
H1376 C1388 0.959 . S
H1377 C1391 0.929 . S
H1378 C1392 0.931 . S
H1379 C1394 0.930 . S
C1380 H1368 0.930 . S
C1380 C1381 1.399 . S
C1380 C1385 1.399 . S
C1381 C1380 1.399 . S
C1381 C1382 1.376 . S
C1382 H1369 0.930 . S
C1382 C1381 1.376 . S
C1382 C1383 1.388 . S
C1383 H1370 0.930 . S
C1383 C1382 1.388 . S
C1383 C1384 1.390 . S
C1384 C1383 1.390 . S
C1384 C1385 1.394 . S
C1384 C1390 1.465 1_655 S
C1385 C1380 1.399 . S
C1385 C1384 1.394 . S
C1385 C1386 1.516 . S
C1386 C1385 1.516 . S
C1386 C1387 1.502 . S
C1386 C1388 1.561 . S
C1386 C1389 1.526 1_655 S
C1387 H1371 0.959 . S
C1387 H1372 0.959 . S
C1387 H1373 0.961 . S
C1387 C1386 1.502 . S
C1388 H1374 0.960 . S
C1388 H1375 0.961 . S
C1388 H1376 0.959 . S
C1388 C1386 1.561 . S
C1389 C1386 1.526 1_455 S
C1389 C1390 1.396 . S
C1389 C1394 1.390 . S
C1390 C1384 1.465 1_455 S
C1390 C1389 1.396 . S
C1390 C1391 1.399 . S
C1391 H1377 0.929 . S
C1391 C1390 1.399 . S
C1391 C1392 1.385 . S
C1392 H1378 0.931 . S
C1392 C1391 1.385 . S
C1392 C1393 1.389 . S
C1393 C1392 1.389 . S
C1393 C1394 1.387 . S
C1394 H1379 0.930 . S
C1394 C1389 1.390 . S
C1394 C1393 1.387 . S
H1395 C1407 0.930 . S
H1396 C1409 0.930 . S
H1397 C1410 0.930 . S
H1398 C1414 0.959 . S
H1399 C1414 0.959 . S
H1400 C1414 0.961 . S
H1401 C1415 0.960 . S
H1402 C1415 0.961 . S
H1403 C1415 0.959 . S
H1404 C1418 0.929 . S
H1405 C1419 0.931 . S
H1406 C1421 0.930 . S
C1407 H1395 0.930 . S
C1407 C1408 1.399 . S
C1407 C1412 1.399 . S
C1408 C1407 1.399 . S
C1408 C1409 1.376 . S
C1409 H1396 0.930 . S
C1409 C1408 1.376 . S
C1409 C1410 1.388 . S
C1410 H1397 0.930 . S
C1410 C1409 1.388 . S
C1410 C1411 1.390 . S
C1411 C1410 1.390 . S
C1411 C1412 1.394 . S
C1411 C1417 1.465 . S
C1412 C1407 1.399 . S
C1412 C1411 1.394 . S
C1412 C1413 1.516 . S
C1413 C1412 1.516 . S
C1413 C1414 1.502 . S
C1413 C1415 1.561 . S
C1413 C1416 1.526 . S
C1414 H1398 0.959 . S
C1414 H1399 0.959 . S
C1414 H1400 0.961 . S
C1414 C1413 1.502 . S
C1415 H1401 0.960 . S
C1415 H1402 0.961 . S
C1415 H1403 0.959 . S
C1415 C1413 1.561 . S
C1416 C1413 1.526 . S
C1416 C1417 1.396 . S
C1416 C1421 1.390 . S
C1417 C1411 1.465 . S
C1417 C1416 1.396 . S
C1417 C1418 1.399 . S
C1418 H1404 0.929 . S
C1418 C1417 1.399 . S
C1418 C1419 1.385 . S
C1419 H1405 0.931 . S
C1419 C1418 1.385 . S
C1419 C1420 1.389 . S
C1420 C1419 1.389 . S
C1420 C1421 1.387 . S
C1421 H1406 0.930 . S
C1421 C1416 1.390 . S
C1421 C1420 1.387 . S
H1422 C1434 0.930 . S
H1423 C1436 0.930 . S
H1424 C1437 0.930 . S
H1425 C1441 0.959 . S
H1426 C1441 0.959 . S
H1427 C1441 0.961 . S
H1428 C1442 0.960 . S
H1429 C1442 0.961 . S
H1430 C1442 0.959 . S
H1431 C1445 0.929 . S
H1432 C1446 0.931 . S
H1433 C1448 0.930 . S
C1434 H1422 0.930 . S
C1434 C1435 1.399 . S
C1434 C1439 1.399 . S
C1435 C1434 1.399 . S
C1435 C1436 1.376 . S
C1436 H1423 0.930 . S
C1436 C1435 1.376 . S
C1436 C1437 1.388 . S
C1437 H1424 0.930 . S
C1437 C1436 1.388 . S
C1437 C1438 1.390 . S
C1438 C1437 1.390 . S
C1438 C1439 1.394 . S
C1438 C1444 1.465 1_565 S
C1439 C1434 1.399 . S
C1439 C1438 1.394 . S
C1439 C1440 1.516 . S
C1440 C1439 1.516 . S
C1440 C1441 1.502 . S
C1440 C1442 1.561 . S
C1440 C1443 1.526 1_565 S
C1441 H1425 0.959 . S
C1441 H1426 0.959 . S
C1441 H1427 0.961 . S
C1441 C1440 1.502 . S
C1442 H1428 0.960 . S
C1442 H1429 0.961 . S
C1442 H1430 0.959 . S
C1442 C1440 1.561 . S
C1443 C1440 1.526 1_545 S
C1443 C1444 1.396 . S
C1443 C1448 1.390 . S
C1444 C1438 1.465 1_545 S
C1444 C1443 1.396 . S
C1444 C1445 1.399 . S
C1445 H1431 0.929 . S
C1445 C1444 1.399 . S
C1445 C1446 1.385 . S
C1446 H1432 0.931 . S
C1446 C1445 1.385 . S
C1446 C1447 1.389 . S
C1447 C1446 1.389 . S
C1447 C1448 1.387 . S
C1448 H1433 0.930 . S
C1448 C1443 1.390 . S
C1448 C1447 1.387 . S
H1449 C1461 0.930 . S
H1450 C1463 0.930 . S
H1451 C1464 0.930 . S
H1452 C1468 0.959 . S
H1453 C1468 0.959 . S
H1454 C1468 0.961 . S
H1455 C1469 0.960 . S
H1456 C1469 0.961 1_455 S
H1457 C1469 0.959 1_455 S
H1458 C1472 0.929 . S
H1459 C1473 0.931 . S
H1460 C1475 0.930 . S
C1461 H1449 0.930 . S
C1461 C1462 1.399 . S
C1461 C1466 1.399 . S
C1462 C1461 1.399 . S
C1462 C1463 1.376 . S
C1463 H1450 0.930 . S
C1463 C1462 1.376 . S
C1463 C1464 1.388 . S
C1464 H1451 0.930 . S
C1464 C1463 1.388 . S
C1464 C1465 1.390 . S
C1465 C1464 1.390 . S
C1465 C1466 1.394 . S
C1465 C1471 1.465 1_655 S
C1466 C1461 1.399 . S
C1466 C1465 1.394 . S
C1466 C1467 1.516 . S
C1467 C1466 1.516 . S
C1467 C1468 1.502 . S
C1467 C1469 1.561 . S
C1467 C1470 1.526 1_655 S
C1468 H1452 0.959 . S
C1468 H1453 0.959 . S
C1468 H1454 0.961 . S
C1468 C1467 1.502 . S
C1469 H1455 0.960 . S
C1469 H1456 0.961 1_655 S
C1469 H1457 0.959 1_655 S
C1469 C1467 1.561 . S
C1470 C1467 1.526 1_455 S
C1470 C1471 1.396 . S
C1470 C1475 1.390 . S
C1471 C1465 1.465 1_455 S
C1471 C1470 1.396 . S
C1471 C1472 1.399 . S
C1472 H1458 0.929 . S
C1472 C1471 1.399 . S
C1472 C1473 1.385 . S
C1473 H1459 0.931 . S
C1473 C1472 1.385 . S
C1473 C1474 1.389 . S
C1474 C1473 1.389 . S
C1474 C1475 1.387 . S
C1475 H1460 0.930 . S
C1475 C1470 1.390 . S
C1475 C1474 1.387 . S
H1476 C1488 0.930 . S
H1477 C1490 0.930 . S
H1478 C1491 0.930 . S
H1479 C1495 0.959 . S
H1480 C1495 0.959 . S
H1481 C1495 0.961 . S
H1482 C1496 0.960 . S
H1483 C1496 0.961 . S
H1484 C1496 0.959 . S
H1485 C1499 0.929 . S
H1486 C1500 0.931 . S
H1487 C1502 0.930 . S
C1488 H1476 0.930 . S
C1488 C1489 1.399 . S
C1488 C1493 1.399 . S
C1489 C1488 1.399 . S
C1489 C1490 1.376 . S
C1490 H1477 0.930 . S
C1490 C1489 1.376 . S
C1490 C1491 1.388 . S
C1491 H1478 0.930 . S
C1491 C1490 1.388 . S
C1491 C1492 1.390 . S
C1492 C1491 1.390 . S
C1492 C1493 1.394 . S
C1492 C1498 1.465 . S
C1493 C1488 1.399 . S
C1493 C1492 1.394 . S
C1493 C1494 1.516 . S
C1494 C1493 1.516 . S
C1494 C1495 1.502 . S
C1494 C1496 1.561 . S
C1494 C1497 1.526 . S
C1495 H1479 0.959 . S
C1495 H1480 0.959 . S
C1495 H1481 0.961 . S
C1495 C1494 1.502 . S
C1496 H1482 0.960 . S
C1496 H1483 0.961 . S
C1496 H1484 0.959 . S
C1496 C1494 1.561 . S
C1497 C1494 1.526 . S
C1497 C1498 1.396 . S
C1497 C1502 1.390 . S
C1498 C1492 1.465 . S
C1498 C1497 1.396 . S
C1498 C1499 1.399 . S
C1499 H1485 0.929 . S
C1499 C1498 1.399 . S
C1499 C1500 1.385 . S
C1500 H1486 0.931 . S
C1500 C1499 1.385 . S
C1500 C1501 1.389 . S
C1501 C1500 1.389 . S
C1501 C1502 1.387 . S
C1502 H1487 0.930 . S
C1502 C1497 1.390 . S
C1502 C1501 1.387 . S
H1503 C1515 0.930 . S
H1504 C1517 0.930 . S
H1505 C1518 0.930 . S
H1506 C1522 0.959 . S
H1507 C1522 0.959 . S
H1508 C1522 0.961 . S
H1509 C1523 0.960 . S
H1510 C1523 0.961 . S
H1511 C1523 0.959 . S
H1512 C1526 0.929 . S
H1513 C1527 0.931 . S
H1514 C1529 0.930 . S
C1515 H1503 0.930 . S
C1515 C1516 1.399 . S
C1515 C1520 1.399 1_545 S
C1516 C1515 1.399 . S
C1516 C1517 1.376 . S
C1517 H1504 0.930 . S
C1517 C1516 1.376 . S
C1517 C1518 1.388 . S
C1518 H1505 0.930 . S
C1518 C1517 1.388 . S
C1518 C1519 1.390 1_545 S
C1519 C1518 1.390 1_565 S
C1519 C1520 1.394 . S
C1519 C1525 1.465 . S
C1520 C1515 1.399 1_565 S
C1520 C1519 1.394 . S
C1520 C1521 1.516 . S
C1521 C1520 1.516 . S
C1521 C1522 1.502 . S
C1521 C1523 1.561 . S
C1521 C1524 1.526 . S
C1522 H1506 0.959 . S
C1522 H1507 0.959 . S
C1522 H1508 0.961 . S
C1522 C1521 1.502 . S
C1523 H1509 0.960 . S
C1523 H1510 0.961 . S
C1523 H1511 0.959 . S
C1523 C1521 1.561 . S
C1524 C1521 1.526 . S
C1524 C1525 1.396 . S
C1524 C1529 1.390 . S
C1525 C1519 1.465 . S
C1525 C1524 1.396 . S
C1525 C1526 1.399 . S
C1526 H1512 0.929 . S
C1526 C1525 1.399 . S
C1526 C1527 1.385 . S
C1527 H1513 0.931 . S
C1527 C1526 1.385 . S
C1527 C1528 1.389 . S
C1528 C1527 1.389 . S
C1528 C1529 1.387 . S
C1529 H1514 0.930 . S
C1529 C1524 1.390 . S
C1529 C1528 1.387 . S
H1530 C1542 0.930 . S
H1531 C1544 0.930 . S
H1532 C1545 0.930 . S
H1533 C1549 0.959 . S
H1534 C1549 0.959 . S
H1535 C1549 0.961 . S
H1536 C1550 0.960 . S
H1537 C1550 0.961 . S
H1538 C1550 0.959 . S
H1539 C1553 0.929 . S
H1540 C1554 0.931 . S
H1541 C1556 0.930 . S
C1542 H1530 0.930 . S
C1542 C1543 1.399 . S
C1542 C1547 1.399 1_655 S
C1543 C1542 1.399 . S
C1543 C1544 1.376 . S
C1544 H1531 0.930 . S
C1544 C1543 1.376 . S
C1544 C1545 1.388 . S
C1545 H1532 0.930 . S
C1545 C1544 1.388 . S
C1545 C1546 1.390 1_655 S
C1546 C1545 1.390 1_455 S
C1546 C1547 1.394 . S
C1546 C1552 1.465 . S
C1547 C1542 1.399 1_455 S
C1547 C1546 1.394 . S
C1547 C1548 1.516 . S
C1548 C1547 1.516 . S
C1548 C1549 1.502 . S
C1548 C1550 1.561 . S
C1548 C1551 1.526 . S
C1549 H1533 0.959 . S
C1549 H1534 0.959 . S
C1549 H1535 0.961 . S
C1549 C1548 1.502 . S
C1550 H1536 0.960 . S
C1550 H1537 0.961 . S
C1550 H1538 0.959 . S
C1550 C1548 1.561 . S
C1551 C1548 1.526 . S
C1551 C1552 1.396 . S
C1551 C1556 1.390 . S
C1552 C1546 1.465 . S
C1552 C1551 1.396 . S
C1552 C1553 1.399 . S
C1553 H1539 0.929 . S
C1553 C1552 1.399 . S
C1553 C1554 1.385 . S
C1554 H1540 0.931 . S
C1554 C1553 1.385 . S
C1554 C1555 1.389 . S
C1555 C1554 1.389 . S
C1555 C1556 1.387 . S
C1556 H1541 0.930 . S
C1556 C1551 1.390 . S
C1556 C1555 1.387 . S
H1557 C1569 0.930 . S
H1558 C1571 0.930 . S
H1559 C1572 0.930 . S
H1560 C1576 0.959 . S
H1561 C1576 0.959 . S
H1562 C1576 0.961 . S
H1563 C1577 0.960 . S
H1564 C1577 0.961 . S
H1565 C1577 0.959 . S
H1566 C1580 0.929 . S
H1567 C1581 0.931 . S
H1568 C1583 0.930 . S
C1569 H1557 0.930 . S
C1569 C1570 1.399 . S
C1569 C1574 1.399 . S
C1570 C1569 1.399 . S
C1570 C1571 1.376 . S
C1571 H1558 0.930 . S
C1571 C1570 1.376 . S
C1571 C1572 1.388 . S
C1572 H1559 0.930 . S
C1572 C1571 1.388 . S
C1572 C1573 1.390 . S
C1573 C1572 1.390 . S
C1573 C1574 1.394 . S
C1573 C1579 1.465 . S
C1574 C1569 1.399 . S
C1574 C1573 1.394 . S
C1574 C1575 1.516 . S
C1575 C1574 1.516 . S
C1575 C1576 1.502 . S
C1575 C1577 1.561 . S
C1575 C1578 1.526 . S
C1576 H1560 0.959 . S
C1576 H1561 0.959 . S
C1576 H1562 0.961 . S
C1576 C1575 1.502 . S
C1577 H1563 0.960 . S
C1577 H1564 0.961 . S
C1577 H1565 0.959 . S
C1577 C1575 1.561 . S
C1578 C1575 1.526 . S
C1578 C1579 1.396 . S
C1578 C1583 1.390 . S
C1579 C1573 1.465 . S
C1579 C1578 1.396 . S
C1579 C1580 1.399 . S
C1580 H1566 0.929 . S
C1580 C1579 1.399 . S
C1580 C1581 1.385 . S
C1581 H1567 0.931 . S
C1581 C1580 1.385 . S
C1581 C1582 1.389 . S
C1582 C1581 1.389 . S
C1582 C1583 1.387 . S
C1583 H1568 0.930 . S
C1583 C1578 1.390 . S
C1583 C1582 1.387 . S
H1584 C1596 0.930 . S
H1585 C1598 0.930 1_455 S
H1586 C1599 0.930 . S
H1587 C1603 0.959 . S
H1588 C1603 0.959 . S
H1589 C1603 0.961 . S
H1590 C1604 0.960 . S
H1591 C1604 0.961 . S
H1592 C1604 0.959 . S
H1593 C1607 0.929 . S
H1594 C1608 0.931 . S
H1595 C1610 0.930 . S
C1596 H1584 0.930 . S
C1596 C1597 1.399 . S
C1596 C1601 1.399 . S
C1597 C1596 1.399 . S
C1597 C1598 1.376 . S
C1598 H1585 0.930 1_655 S
C1598 C1597 1.376 . S
C1598 C1599 1.388 . S
C1599 H1586 0.930 . S
C1599 C1598 1.388 . S
C1599 C1600 1.390 . S
C1600 C1599 1.390 . S
C1600 C1601 1.394 . S
C1600 C1606 1.465 . S
C1601 C1596 1.399 . S
C1601 C1600 1.394 . S
C1601 C1602 1.516 . S
C1602 C1601 1.516 . S
C1602 C1603 1.502 . S
C1602 C1604 1.561 . S
C1602 C1605 1.526 . S
C1603 H1587 0.959 . S
C1603 H1588 0.959 . S
C1603 H1589 0.961 . S
C1603 C1602 1.502 . S
C1604 H1590 0.960 . S
C1604 H1591 0.961 . S
C1604 H1592 0.959 . S
C1604 C1602 1.561 . S
C1605 C1602 1.526 . S
C1605 C1606 1.396 . S
C1605 C1610 1.390 1_545 S
C1606 C1600 1.465 . S
C1606 C1605 1.396 . S
C1606 C1607 1.399 1_545 S
C1607 H1593 0.929 . S
C1607 C1606 1.399 1_565 S
C1607 C1608 1.385 . S
C1608 H1594 0.931 . S
C1608 C1607 1.385 . S
C1608 C1609 1.389 . S
C1609 C1608 1.389 . S
C1609 C1610 1.387 . S
C1610 H1595 0.930 . S
C1610 C1605 1.390 1_565 S
C1610 C1609 1.387 . S
H1611 C1623 0.930 . S
H1612 C1625 0.930 . S
H1613 C1626 0.930 . S
H1614 C1630 0.959 . S
H1615 C1630 0.959 . S
H1616 C1630 0.961 1_455 S
H1617 C1631 0.960 . S
H1618 C1631 0.961 . S
H1619 C1631 0.959 . S
H1620 C1634 0.929 . S
H1621 C1635 0.931 . S
H1622 C1637 0.930 . S
C1623 H1611 0.930 . S
C1623 C1624 1.399 . S
C1623 C1628 1.399 1_455 S
C1624 C1623 1.399 . S
C1624 C1625 1.376 . S
C1625 H1612 0.930 . S
C1625 C1624 1.376 . S
C1625 C1626 1.388 1_455 S
C1626 H1613 0.930 . S
C1626 C1625 1.388 1_655 S
C1626 C1627 1.390 . S
C1627 C1626 1.390 . S
C1627 C1628 1.394 . S
C1627 C1633 1.465 . S
C1628 C1623 1.399 1_655 S
C1628 C1627 1.394 . S
C1628 C1629 1.516 . S
C1629 C1628 1.516 . S
C1629 C1630 1.502 . S
C1629 C1631 1.561 . S
C1629 C1632 1.526 . S
C1630 H1614 0.959 . S
C1630 H1615 0.959 . S
C1630 H1616 0.961 1_655 S
C1630 C1629 1.502 . S
C1631 H1617 0.960 . S
C1631 H1618 0.961 . S
C1631 H1619 0.959 . S
C1631 C1629 1.561 . S
C1632 C1629 1.526 . S
C1632 C1633 1.396 . S
C1632 C1637 1.390 . S
C1633 C1627 1.465 . S
C1633 C1632 1.396 . S
C1633 C1634 1.399 . S
C1634 H1620 0.929 . S
C1634 C1633 1.399 . S
C1634 C1635 1.385 . S
C1635 H1621 0.931 . S
C1635 C1634 1.385 . S
C1635 C1636 1.389 . S
C1636 C1635 1.389 . S
C1636 C1637 1.387 . S
C1637 H1622 0.930 . S
C1637 C1632 1.390 . S
C1637 C1636 1.387 . S
H1638 C1650 0.930 . S
H1639 C1652 0.930 . S
H1640 C1653 0.930 . S
H1641 C1657 0.959 . S
H1642 C1657 0.959 . S
H1643 C1657 0.961 . S
H1644 C1658 0.960 . S
H1645 C1658 0.961 . S
H1646 C1658 0.959 . S
H1647 C1661 0.929 . S
H1648 C1662 0.931 . S
H1649 C1664 0.930 . S
C1650 H1638 0.930 . S
C1650 C1651 1.399 . S
C1650 C1655 1.399 . S
C1651 C1650 1.399 . S
C1651 C1652 1.376 . S
C1652 H1639 0.930 . S
C1652 C1651 1.376 . S
C1652 C1653 1.388 . S
C1653 H1640 0.930 . S
C1653 C1652 1.388 . S
C1653 C1654 1.390 . S
C1654 C1653 1.390 . S
C1654 C1655 1.394 . S
C1654 C1660 1.465 . S
C1655 C1650 1.399 . S
C1655 C1654 1.394 . S
C1655 C1656 1.516 . S
C1656 C1655 1.516 . S
C1656 C1657 1.502 . S
C1656 C1658 1.561 . S
C1656 C1659 1.526 . S
C1657 H1641 0.959 . S
C1657 H1642 0.959 . S
C1657 H1643 0.961 . S
C1657 C1656 1.502 . S
C1658 H1644 0.960 . S
C1658 H1645 0.961 . S
C1658 H1646 0.959 . S
C1658 C1656 1.561 . S
C1659 C1656 1.526 . S
C1659 C1660 1.396 . S
C1659 C1664 1.390 . S
C1660 C1654 1.465 . S
C1660 C1659 1.396 . S
C1660 C1661 1.399 . S
C1661 H1647 0.929 . S
C1661 C1660 1.399 . S
C1661 C1662 1.385 . S
C1662 H1648 0.931 . S
C1662 C1661 1.385 . S
C1662 C1663 1.389 . S
C1663 C1662 1.389 . S
C1663 C1664 1.387 . S
C1664 H1649 0.930 . S
C1664 C1659 1.390 . S
C1664 C1663 1.387 . S
H1665 C1677 0.930 . S
H1666 C1679 0.930 . S
H1667 C1680 0.934 . S
H1668 C1684 0.959 . S
H1669 C1684 0.959 . S
H1670 C1684 0.961 . S
H1671 C1685 0.960 . S
H1672 C1685 0.961 . S
H1673 C1685 0.959 . S
H1674 C1688 0.929 . S
H1675 C1689 0.931 . S
H1676 C1691 0.930 . S
C1677 H1665 0.930 . S
C1677 C1678 1.399 . S
C1677 C1682 1.399 1_565 S
C1678 C1677 1.399 . S
C1678 C1679 1.376 . S
C1679 H1666 0.930 . S
C1679 C1678 1.376 . S
C1679 C1680 1.388 . S
C1680 H1667 0.934 . S
C1680 C1679 1.388 . S
C1680 C1681 1.390 1_565 S
C1681 C1680 1.390 1_545 S
C1681 C1682 1.394 . S
C1681 C1687 1.465 . S
C1682 C1677 1.399 1_545 S
C1682 C1681 1.394 . S
C1682 C1683 1.516 . S
C1683 C1682 1.516 . S
C1683 C1684 1.502 . S
C1683 C1685 1.561 . S
C1683 C1686 1.526 . S
C1684 H1668 0.959 . S
C1684 H1669 0.959 . S
C1684 H1670 0.961 . S
C1684 C1683 1.502 . S
C1685 H1671 0.960 . S
C1685 H1672 0.961 . S
C1685 H1673 0.959 . S
C1685 C1683 1.561 . S
C1686 C1683 1.526 . S
C1686 C1687 1.396 . S
C1686 C1691 1.390 . S
C1687 C1681 1.465 . S
C1687 C1686 1.396 . S
C1687 C1688 1.399 . S
C1688 H1674 0.929 . S
C1688 C1687 1.399 . S
C1688 C1689 1.385 . S
C1689 H1675 0.931 . S
C1689 C1688 1.385 . S
C1689 C1690 1.389 . S
C1690 C1689 1.389 . S
C1690 C1691 1.387 . S
C1691 H1676 0.930 . S
C1691 C1686 1.390 . S
C1691 C1690 1.387 . S
H1692 C1704 0.930 . S
H1693 C1706 0.930 . S
H1694 C1707 0.930 . S
H1695 C1711 0.959 . S
H1696 C1711 0.959 . S
H1697 C1711 0.961 . S
H1698 C1712 0.960 1_455 S
H1699 C1712 0.961 . S
H1700 C1712 0.959 . S
H1701 C1715 0.929 . S
H1702 C1716 0.931 . S
H1703 C1718 0.930 . S
C1704 H1692 0.930 . S
C1704 C1705 1.399 . S
C1704 C1709 1.399 1_455 S
C1705 C1704 1.399 . S
C1705 C1706 1.376 . S
C1706 H1693 0.930 . S
C1706 C1705 1.376 . S
C1706 C1707 1.388 . S
C1707 H1694 0.930 . S
C1707 C1706 1.388 . S
C1707 C1708 1.390 1_455 S
C1708 C1707 1.390 1_655 S
C1708 C1709 1.394 . S
C1708 C1714 1.465 . S
C1709 C1704 1.399 1_655 S
C1709 C1708 1.394 . S
C1709 C1710 1.516 . S
C1710 C1709 1.516 . S
C1710 C1711 1.502 . S
C1710 C1712 1.561 . S
C1710 C1713 1.526 . S
C1711 H1695 0.959 . S
C1711 H1696 0.959 . S
C1711 H1697 0.961 . S
C1711 C1710 1.502 . S
C1712 H1698 0.960 1_655 S
C1712 H1699 0.961 . S
C1712 H1700 0.959 . S
C1712 C1710 1.561 . S
C1713 C1710 1.526 . S
C1713 C1714 1.396 . S
C1713 C1718 1.390 . S
C1714 C1708 1.465 . S
C1714 C1713 1.396 . S
C1714 C1715 1.399 . S
C1715 H1701 0.929 . S
C1715 C1714 1.399 . S
C1715 C1716 1.385 . S
C1716 H1702 0.931 . S
C1716 C1715 1.385 . S
C1716 C1717 1.389 . S
C1717 C1716 1.389 . S
C1717 C1718 1.387 . S
C1718 H1703 0.930 . S
C1718 C1713 1.390 . S
C1718 C1717 1.387 . S
H1719 C1731 0.930 . S
H1720 C1733 0.930 . S
H1721 C1734 0.930 . S
H1722 C1738 0.959 . S
H1723 C1738 0.959 . S
H1724 C1738 0.961 . S
H1725 C1739 0.960 . S
H1726 C1739 0.961 . S
H1727 C1739 0.959 . S
H1728 C1742 0.929 . S
H1729 C1743 0.931 . S
H1730 C1745 0.930 . S
C1731 H1719 0.930 . S
C1731 C1732 1.399 . S
C1731 C1736 1.399 . S
C1732 C1731 1.399 . S
C1732 C1733 1.376 . S
C1733 H1720 0.930 . S
C1733 C1732 1.376 . S
C1733 C1734 1.388 . S
C1734 H1721 0.930 . S
C1734 C1733 1.388 . S
C1734 C1735 1.390 . S
C1735 C1734 1.390 . S
C1735 C1736 1.394 . S
C1735 C1741 1.465 . S
C1736 C1731 1.399 . S
C1736 C1735 1.394 . S
C1736 C1737 1.516 . S
C1737 C1736 1.516 . S
C1737 C1738 1.502 . S
C1737 C1739 1.561 . S
C1737 C1740 1.526 . S
C1738 H1722 0.959 . S
C1738 H1723 0.959 . S
C1738 H1724 0.961 . S
C1738 C1737 1.502 . S
C1739 H1725 0.960 . S
C1739 H1726 0.961 . S
C1739 H1727 0.959 . S
C1739 C1737 1.561 . S
C1740 C1737 1.526 . S
C1740 C1741 1.396 . S
C1740 C1745 1.390 . S
C1741 C1735 1.465 . S
C1741 C1740 1.396 . S
C1741 C1742 1.399 . S
C1742 H1728 0.929 . S
C1742 C1741 1.399 . S
C1742 C1743 1.385 . S
C1743 H1729 0.931 . S
C1743 C1742 1.385 . S
C1743 C1744 1.389 . S
C1744 C1743 1.389 . S
C1744 C1745 1.387 . S
C1745 H1730 0.930 . S
C1745 C1740 1.390 . S
C1745 C1744 1.387 . S
H1746 C1758 0.930 . S
H1747 C1760 0.930 . S
H1748 C1761 0.930 . S
H1749 C1765 0.959 . S
H1750 C1765 0.959 . S
H1751 C1765 0.961 . S
H1752 C1766 0.960 . S
H1753 C1766 0.961 . S
H1754 C1766 0.959 . S
H1755 C1769 0.929 . S
H1756 C1770 0.931 . S
H1757 C1772 0.930 . S
C1758 H1746 0.930 . S
C1758 C1759 1.399 . S
C1758 C1763 1.399 1_545 S
C1759 C1758 1.399 . S
C1759 C1760 1.376 . S
C1760 H1747 0.930 . S
C1760 C1759 1.376 . S
C1760 C1761 1.388 . S
C1761 H1748 0.930 . S
C1761 C1760 1.388 . S
C1761 C1762 1.390 1_545 S
C1762 C1761 1.390 1_565 S
C1762 C1763 1.394 . S
C1762 C1768 1.465 . S
C1763 C1758 1.399 1_565 S
C1763 C1762 1.394 . S
C1763 C1764 1.516 . S
C1764 C1763 1.516 . S
C1764 C1765 1.502 . S
C1764 C1766 1.561 . S
C1764 C1767 1.526 . S
C1765 H1749 0.959 . S
C1765 H1750 0.959 . S
C1765 H1751 0.961 . S
C1765 C1764 1.502 . S
C1766 H1752 0.960 . S
C1766 H1753 0.961 . S
C1766 H1754 0.959 . S
C1766 C1764 1.561 . S
C1767 C1764 1.526 . S
C1767 C1768 1.396 . S
C1767 C1772 1.390 . S
C1768 C1762 1.465 . S
C1768 C1767 1.396 . S
C1768 C1769 1.399 . S
C1769 H1755 0.929 . S
C1769 C1768 1.399 . S
C1769 C1770 1.385 . S
C1770 H1756 0.931 . S
C1770 C1769 1.385 . S
C1770 C1771 1.389 . S
C1771 C1770 1.389 . S
C1771 C1772 1.387 . S
C1772 H1757 0.930 . S
C1772 C1767 1.390 . S
C1772 C1771 1.387 . S
H1773 C1785 0.930 . S
H1774 C1787 0.930 . S
H1775 C1788 0.930 . S
H1776 C1792 0.959 . S
H1777 C1792 0.959 . S
H1778 C1792 0.961 . S
H1779 C1793 0.960 . S
H1780 C1793 0.961 . S
H1781 C1793 0.959 . S
H1782 C1796 0.929 . S
H1783 C1797 0.931 . S
H1784 C1799 0.930 . S
C1785 H1773 0.930 . S
C1785 C1786 1.399 . S
C1785 C1790 1.399 . S
C1786 C1785 1.399 . S
C1786 C1787 1.376 . S
C1787 H1774 0.930 . S
C1787 C1786 1.376 . S
C1787 C1788 1.388 . S
C1788 H1775 0.930 . S
C1788 C1787 1.388 . S
C1788 C1789 1.390 . S
C1789 C1788 1.390 . S
C1789 C1790 1.394 . S
C1789 C1795 1.465 . S
C1790 C1785 1.399 . S
C1790 C1789 1.394 . S
C1790 C1791 1.516 . S
C1791 C1790 1.516 . S
C1791 C1792 1.502 . S
C1791 C1793 1.561 . S
C1791 C1794 1.526 . S
C1792 H1776 0.959 . S
C1792 H1777 0.959 . S
C1792 H1778 0.961 . S
C1792 C1791 1.502 . S
C1793 H1779 0.960 . S
C1793 H1780 0.961 . S
C1793 H1781 0.959 . S
C1793 C1791 1.561 . S
C1794 C1791 1.526 . S
C1794 C1795 1.396 . S
C1794 C1799 1.390 1_455 S
C1795 C1789 1.465 . S
C1795 C1794 1.396 . S
C1795 C1796 1.399 1_455 S
C1796 H1782 0.929 . S
C1796 C1795 1.399 1_655 S
C1796 C1797 1.385 . S
C1797 H1783 0.931 . S
C1797 C1796 1.385 . S
C1797 C1798 1.389 . S
C1798 C1797 1.389 . S
C1798 C1799 1.387 . S
C1799 H1784 0.930 . S
C1799 C1794 1.390 1_655 S
C1799 C1798 1.387 . S
H1800 C1812 0.930 . S
H1801 C1814 0.930 . S
H1802 C1815 0.930 . S
H1803 C1819 0.959 . S
H1804 C1819 0.959 . S
H1805 C1819 0.961 . S
H1806 C1820 0.960 . S
H1807 C1820 0.961 . S
H1808 C1820 0.959 . S
H1809 C1823 0.929 . S
H1810 C1824 0.931 . S
H1811 C1826 0.930 . S
C1812 H1800 0.930 . S
C1812 C1813 1.399 . S
C1812 C1817 1.399 . S
C1813 C1812 1.399 . S
C1813 C1814 1.376 . S
C1814 H1801 0.930 . S
C1814 C1813 1.376 . S
C1814 C1815 1.388 . S
C1815 H1802 0.930 . S
C1815 C1814 1.388 . S
C1815 C1816 1.390 . S
C1816 C1815 1.390 . S
C1816 C1817 1.394 . S
C1816 C1822 1.465 . S
C1817 C1812 1.399 . S
C1817 C1816 1.394 . S
C1817 C1818 1.516 . S
C1818 C1817 1.516 . S
C1818 C1819 1.502 . S
C1818 C1820 1.561 . S
C1818 C1821 1.526 . S
C1819 H1803 0.959 . S
C1819 H1804 0.959 . S
C1819 H1805 0.961 . S
C1819 C1818 1.502 . S
C1820 H1806 0.960 . S
C1820 H1807 0.961 . S
C1820 H1808 0.959 . S
C1820 C1818 1.561 . S
C1821 C1818 1.526 . S
C1821 C1822 1.396 . S
C1821 C1826 1.390 . S
C1822 C1816 1.465 . S
C1822 C1821 1.396 . S
C1822 C1823 1.399 . S
C1823 H1809 0.929 . S
C1823 C1822 1.399 . S
C1823 C1824 1.385 . S
C1824 H1810 0.931 . S
C1824 C1823 1.385 . S
C1824 C1825 1.389 . S
C1825 C1824 1.389 . S
C1825 C1826 1.387 . S
C1826 H1811 0.930 . S
C1826 C1821 1.390 . S
C1826 C1825 1.387 . S
H1827 C1839 0.930 . S
H1828 C1841 0.930 . S
H1829 C1842 0.930 . S
H1830 C1846 0.959 . S
H1831 C1846 0.959 . S
H1832 C1846 0.961 . S
H1833 C1847 0.960 . S
H1834 C1847 0.961 . S
H1835 C1847 0.959 . S
H1836 C1850 0.929 . S
H1837 C1851 0.931 . S
H1838 C1853 0.930 . S
C1839 H1827 0.930 . S
C1839 C1840 1.399 . S
C1839 C1844 1.399 . S
C1840 C1839 1.399 . S
C1840 C1841 1.376 . S
C1841 H1828 0.930 . S
C1841 C1840 1.376 . S
C1841 C1842 1.388 . S
C1842 H1829 0.930 . S
C1842 C1841 1.388 . S
C1842 C1843 1.390 . S
C1843 C1842 1.390 . S
C1843 C1844 1.394 . S
C1843 C1849 1.465 . S
C1844 C1839 1.399 . S
C1844 C1843 1.394 . S
C1844 C1845 1.516 . S
C1845 C1844 1.516 . S
C1845 C1846 1.502 . S
C1845 C1847 1.561 . S
C1845 C1848 1.526 . S
C1846 H1830 0.959 . S
C1846 H1831 0.959 . S
C1846 H1832 0.961 . S
C1846 C1845 1.502 . S
C1847 H1833 0.960 . S
C1847 H1834 0.961 . S
C1847 H1835 0.959 . S
C1847 C1845 1.561 . S
C1848 C1845 1.526 . S
C1848 C1849 1.396 . S
C1848 C1853 1.390 . S
C1849 C1843 1.465 . S
C1849 C1848 1.396 . S
C1849 C1850 1.399 . S
C1850 H1836 0.929 . S
C1850 C1849 1.399 . S
C1850 C1851 1.385 . S
C1851 H1837 0.931 . S
C1851 C1850 1.385 . S
C1851 C1852 1.389 . S
C1852 C1851 1.389 . S
C1852 C1853 1.387 . S
C1853 H1838 0.930 . S
C1853 C1848 1.390 . S
C1853 C1852 1.387 . S
H1854 C1866 0.930 . S
H1855 C1868 0.930 . S
H1856 C1869 0.930 . S
H1857 C1873 0.959 . S
H1858 C1873 0.959 . S
H1859 C1873 0.961 . S
H1860 C1874 0.960 . S
H1861 C1874 0.961 . S
H1862 C1874 0.959 . S
H1863 C1877 0.929 . S
H1864 C1878 0.931 . S
H1865 C1880 0.930 . S
C1866 H1854 0.930 . S
C1866 C1867 1.399 . S
C1866 C1871 1.399 . S
C1867 C1866 1.399 . S
C1867 C1868 1.376 . S
C1868 H1855 0.930 . S
C1868 C1867 1.376 . S
C1868 C1869 1.388 . S
C1869 H1856 0.930 . S
C1869 C1868 1.388 . S
C1869 C1870 1.390 . S
C1870 C1869 1.390 . S
C1870 C1871 1.394 . S
C1870 C1876 1.465 . S
C1871 C1866 1.399 . S
C1871 C1870 1.394 . S
C1871 C1872 1.516 . S
C1872 C1871 1.516 . S
C1872 C1873 1.502 . S
C1872 C1874 1.561 . S
C1872 C1875 1.526 . S
C1873 H1857 0.959 . S
C1873 H1858 0.959 . S
C1873 H1859 0.961 . S
C1873 C1872 1.502 . S
C1874 H1860 0.960 . S
C1874 H1861 0.961 . S
C1874 H1862 0.959 . S
C1874 C1872 1.561 . S
C1875 C1872 1.526 . S
C1875 C1876 1.396 . S
C1875 C1880 1.390 . S
C1876 C1870 1.465 . S
C1876 C1875 1.396 . S
C1876 C1877 1.399 . S
C1877 H1863 0.929 . S
C1877 C1876 1.399 . S
C1877 C1878 1.385 . S
C1878 H1864 0.931 . S
C1878 C1877 1.385 . S
C1878 C1879 1.389 . S
C1879 C1878 1.389 . S
C1879 C1880 1.387 . S
C1880 H1865 0.930 . S
C1880 C1875 1.390 . S
C1880 C1879 1.387 . S
H1881 C1893 0.930 . S
H1882 C1895 0.930 . S
H1883 C1896 0.930 . S
H1884 C1900 0.959 . S
H1885 C1900 0.959 . S
H1886 C1900 0.961 . S
H1887 C1901 0.960 . S
H1888 C1901 0.961 . S
H1889 C1901 0.959 . S
H1890 C1904 0.929 . S
H1891 C1905 0.931 . S
H1892 C1907 0.930 . S
C1893 H1881 0.930 . S
C1893 C1894 1.399 . S
C1893 C1898 1.399 . S
C1894 C1893 1.399 . S
C1894 C1895 1.376 . S
C1895 H1882 0.930 . S
C1895 C1894 1.376 . S
C1895 C1896 1.388 . S
C1896 H1883 0.930 . S
C1896 C1895 1.388 . S
C1896 C1897 1.390 . S
C1897 C1896 1.390 . S
C1897 C1898 1.394 . S
C1897 C1903 1.465 . S
C1898 C1893 1.399 . S
C1898 C1897 1.394 . S
C1898 C1899 1.516 . S
C1899 C1898 1.516 . S
C1899 C1900 1.502 . S
C1899 C1901 1.561 . S
C1899 C1902 1.526 . S
C1900 H1884 0.959 . S
C1900 H1885 0.959 . S
C1900 H1886 0.961 . S
C1900 C1899 1.502 . S
C1901 H1887 0.960 . S
C1901 H1888 0.961 . S
C1901 H1889 0.959 . S
C1901 C1899 1.561 . S
C1902 C1899 1.526 . S
C1902 C1903 1.396 . S
C1902 C1907 1.390 . S
C1903 C1897 1.465 . S
C1903 C1902 1.396 . S
C1903 C1904 1.399 . S
C1904 H1890 0.929 . S
C1904 C1903 1.399 . S
C1904 C1905 1.385 . S
C1905 H1891 0.931 . S
C1905 C1904 1.385 . S
C1905 C1906 1.389 . S
C1906 C1905 1.389 . S
C1906 C1907 1.387 . S
C1907 H1892 0.930 . S
C1907 C1902 1.390 . S
C1907 C1906 1.387 . S
H1908 C1920 0.930 . S
H1909 C1922 0.930 . S
H1910 C1923 0.930 . S
H1911 C1927 0.959 . S
H1912 C1927 0.959 . S
H1913 C1927 0.961 . S
H1914 C1928 0.960 . S
H1915 C1928 0.961 . S
H1916 C1928 0.959 . S
H1917 C1931 0.929 . S
H1918 C1932 0.931 . S
H1919 C1934 0.930 . S
C1920 H1908 0.930 . S
C1920 C1921 1.399 . S
C1920 C1925 1.399 . S
C1921 C1920 1.399 . S
C1921 C1922 1.376 . S
C1922 H1909 0.930 . S
C1922 C1921 1.376 . S
C1922 C1923 1.388 . S
C1923 H1910 0.930 . S
C1923 C1922 1.388 . S
C1923 C1924 1.390 . S
C1924 C1923 1.390 . S
C1924 C1925 1.394 . S
C1924 C1930 1.465 . S
C1925 C1920 1.399 . S
C1925 C1924 1.394 . S
C1925 C1926 1.516 . S
C1926 C1925 1.516 . S
C1926 C1927 1.502 . S
C1926 C1928 1.561 . S
C1926 C1929 1.526 . S
C1927 H1911 0.959 . S
C1927 H1912 0.959 . S
C1927 H1913 0.961 . S
C1927 C1926 1.502 . S
C1928 H1914 0.960 . S
C1928 H1915 0.961 . S
C1928 H1916 0.959 . S
C1928 C1926 1.561 . S
C1929 C1926 1.526 . S
C1929 C1930 1.396 . S
C1929 C1934 1.390 . S
C1930 C1924 1.465 . S
C1930 C1929 1.396 . S
C1930 C1931 1.399 . S
C1931 H1917 0.929 . S
C1931 C1930 1.399 . S
C1931 C1932 1.385 . S
C1932 H1918 0.931 . S
C1932 C1931 1.385 . S
C1932 C1933 1.389 . S
C1933 C1932 1.389 . S
C1933 C1934 1.387 . S
C1934 H1919 0.930 . S
C1934 C1929 1.390 . S
C1934 C1933 1.387 . S
H1935 C1947 0.930 . S
H1936 C1949 0.930 . S
H1937 C1950 0.930 . S
H1938 C1954 0.959 . S
H1939 C1954 0.959 . S
H1940 C1954 0.961 . S
H1941 C1955 0.960 . S
H1942 C1955 0.961 . S
H1943 C1955 0.959 . S
H1944 C1958 0.929 . S
H1945 C1959 0.931 . S
H1946 C1961 0.930 . S
C1947 H1935 0.930 . S
C1947 C1948 1.399 . S
C1947 C1952 1.399 . S
C1948 C1947 1.399 . S
C1948 C1949 1.376 . S
C1949 H1936 0.930 . S
C1949 C1948 1.376 . S
C1949 C1950 1.388 . S
C1950 H1937 0.930 . S
C1950 C1949 1.388 . S
C1950 C1951 1.390 . S
C1951 C1950 1.390 . S
C1951 C1952 1.394 . S
C1951 C1957 1.465 . S
C1952 C1947 1.399 . S
C1952 C1951 1.394 . S
C1952 C1953 1.516 . S
C1953 C1952 1.516 . S
C1953 C1954 1.502 . S
C1953 C1955 1.561 . S
C1953 C1956 1.526 . S
C1954 H1938 0.959 . S
C1954 H1939 0.959 . S
C1954 H1940 0.961 . S
C1954 C1953 1.502 . S
C1955 H1941 0.960 . S
C1955 H1942 0.961 . S
C1955 H1943 0.959 . S
C1955 C1953 1.561 . S
C1956 C1953 1.526 . S
C1956 C1957 1.396 . S
C1956 C1961 1.390 . S
C1957 C1951 1.465 . S
C1957 C1956 1.396 . S
C1957 C1958 1.399 . S
C1958 H1944 0.929 . S
C1958 C1957 1.399 . S
C1958 C1959 1.385 . S
C1959 H1945 0.931 . S
C1959 C1958 1.385 . S
C1959 C1960 1.389 . S
C1960 C1959 1.389 . S
C1960 C1961 1.387 . S
C1961 H1946 0.930 . S
C1961 C1956 1.390 . S
C1961 C1960 1.387 . S
H1962 C1974 0.930 . S
H1963 C1976 0.930 . S
H1964 C1977 0.930 . S
H1965 C1981 0.959 . S
H1966 C1981 0.959 . S
H1967 C1981 0.961 . S
H1968 C1982 0.960 . S
H1969 C1982 0.961 . S
H1970 C1982 0.959 . S
H1971 C1985 0.929 . S
H1972 C1986 0.931 . S
H1973 C1988 0.930 . S
C1974 H1962 0.930 . S
C1974 C1975 1.399 . S
C1974 C1979 1.399 . S
C1975 C1974 1.399 . S
C1975 C1976 1.376 . S
C1976 H1963 0.930 . S
C1976 C1975 1.376 . S
C1976 C1977 1.388 . S
C1977 H1964 0.930 . S
C1977 C1976 1.388 . S
C1977 C1978 1.390 . S
C1978 C1977 1.390 . S
C1978 C1979 1.394 . S
C1978 C1984 1.465 . S
C1979 C1974 1.399 . S
C1979 C1978 1.394 . S
C1979 C1980 1.516 . S
C1980 C1979 1.516 . S
C1980 C1981 1.502 . S
C1980 C1982 1.561 . S
C1980 C1983 1.526 . S
C1981 H1965 0.959 . S
C1981 H1966 0.959 . S
C1981 H1967 0.961 . S
C1981 C1980 1.502 . S
C1982 H1968 0.960 . S
C1982 H1969 0.961 . S
C1982 H1970 0.959 . S
C1982 C1980 1.561 . S
C1983 C1980 1.526 . S
C1983 C1984 1.396 . S
C1983 C1988 1.390 . S
C1984 C1978 1.465 . S
C1984 C1983 1.396 . S
C1984 C1985 1.399 . S
C1985 H1971 0.929 . S
C1985 C1984 1.399 . S
C1985 C1986 1.385 . S
C1986 H1972 0.931 . S
C1986 C1985 1.385 . S
C1986 C1987 1.389 . S
C1987 C1986 1.389 . S
C1987 C1988 1.387 . S
C1988 H1973 0.930 . S
C1988 C1983 1.390 . S
C1988 C1987 1.387 . S
H1989 C2001 0.930 . S
H1990 C2003 0.930 . S
H1991 C2004 0.930 . S
H1992 C2008 0.959 . S
H1993 C2008 0.959 . S
H1994 C2008 0.961 . S
H1995 C2009 0.960 . S
H1996 C2009 0.961 . S
H1997 C2009 0.959 . S
H1998 C2012 0.929 . S
H1999 C2013 0.931 . S
H2000 C2015 0.930 . S
C2001 H1989 0.930 . S
C2001 C2002 1.399 . S
C2001 C2006 1.399 . S
C2002 C2001 1.399 . S
C2002 C2003 1.376 . S
C2003 H1990 0.930 . S
C2003 C2002 1.376 . S
C2003 C2004 1.388 . S
C2004 H1991 0.930 . S
C2004 C2003 1.388 . S
C2004 C2005 1.390 . S
C2005 C2004 1.390 . S
C2005 C2006 1.394 . S
C2005 C2011 1.465 . S
C2006 C2001 1.399 . S
C2006 C2005 1.394 . S
C2006 C2007 1.516 . S
C2007 C2006 1.516 . S
C2007 C2008 1.502 . S
C2007 C2009 1.561 . S
C2007 C2010 1.526 . S
C2008 H1992 0.959 . S
C2008 H1993 0.959 . S
C2008 H1994 0.961 . S
C2008 C2007 1.502 . S
C2009 H1995 0.960 . S
C2009 H1996 0.961 . S
C2009 H1997 0.959 . S
C2009 C2007 1.561 . S
C2010 C2007 1.526 . S
C2010 C2011 1.396 . S
C2010 C2015 1.390 . S
C2011 C2005 1.465 . S
C2011 C2010 1.396 . S
C2011 C2012 1.399 . S
C2012 H1998 0.929 . S
C2012 C2011 1.399 . S
C2012 C2013 1.385 . S
C2013 H1999 0.931 . S
C2013 C2012 1.385 . S
C2013 C2014 1.389 . S
C2014 C2013 1.389 . S
C2014 C2015 1.387 . S
C2015 H2000 0.930 . S
C2015 C2010 1.390 . S
C2015 C2014 1.387 . S
H2016 C2028 0.930 . S
H2017 C2030 0.930 . S
H2018 C2031 0.930 . S
H2019 C2035 0.959 . S
H2020 C2035 0.959 . S
H2021 C2035 0.961 . S
H2022 C2036 0.960 . S
H2023 C2036 0.961 . S
H2024 C2036 0.959 . S
H2025 C2039 0.929 . S
H2026 C2040 0.931 . S
H2027 C2042 0.930 . S
C2028 H2016 0.930 . S
C2028 C2029 1.399 . S
C2028 C2033 1.399 . S
C2029 C2028 1.399 . S
C2029 C2030 1.376 . S
C2030 H2017 0.930 . S
C2030 C2029 1.376 . S
C2030 C2031 1.388 . S
C2031 H2018 0.930 . S
C2031 C2030 1.388 . S
C2031 C2032 1.390 . S
C2032 C2031 1.390 . S
C2032 C2033 1.394 . S
C2032 C2038 1.465 . S
C2033 C2028 1.399 . S
C2033 C2032 1.394 . S
C2033 C2034 1.516 . S
C2034 C2033 1.516 . S
C2034 C2035 1.502 . S
C2034 C2036 1.561 . S
C2034 C2037 1.526 . S
C2035 H2019 0.959 . S
C2035 H2020 0.959 . S
C2035 H2021 0.961 . S
C2035 C2034 1.502 . S
C2036 H2022 0.960 . S
C2036 H2023 0.961 . S
C2036 H2024 0.959 . S
C2036 C2034 1.561 . S
C2037 C2034 1.526 . S
C2037 C2038 1.396 . S
C2037 C2042 1.390 . S
C2038 C2032 1.465 . S
C2038 C2037 1.396 . S
C2038 C2039 1.399 . S
C2039 H2025 0.929 . S
C2039 C2038 1.399 . S
C2039 C2040 1.385 . S
C2040 H2026 0.931 . S
C2040 C2039 1.385 . S
C2040 C2041 1.389 . S
C2041 C2040 1.389 . S
C2041 C2042 1.387 . S
C2042 H2027 0.930 . S
C2042 C2037 1.390 . S
C2042 C2041 1.387 . S
H2043 C2055 0.930 . S
H2044 C2057 0.930 . S
H2045 C2058 0.930 . S
H2046 C2062 0.959 . S
H2047 C2062 0.959 . S
H2048 C2062 0.961 . S
H2049 C2063 0.960 . S
H2050 C2063 0.961 . S
H2051 C2063 0.959 . S
H2052 C2066 0.929 . S
H2053 C2067 0.931 . S
H2054 C2069 0.930 . S
C2055 H2043 0.930 . S
C2055 C2056 1.399 . S
C2055 C2060 1.399 . S
C2056 C2055 1.399 . S
C2056 C2057 1.376 . S
C2057 H2044 0.930 . S
C2057 C2056 1.376 . S
C2057 C2058 1.388 . S
C2058 H2045 0.930 . S
C2058 C2057 1.388 . S
C2058 C2059 1.390 . S
C2059 C2058 1.390 . S
C2059 C2060 1.394 . S
C2059 C2065 1.465 . S
C2060 C2055 1.399 . S
C2060 C2059 1.394 . S
C2060 C2061 1.516 . S
C2061 C2060 1.516 . S
C2061 C2062 1.502 . S
C2061 C2063 1.561 . S
C2061 C2064 1.526 . S
C2062 H2046 0.959 . S
C2062 H2047 0.959 . S
C2062 H2048 0.961 . S
C2062 C2061 1.502 . S
C2063 H2049 0.960 . S
C2063 H2050 0.961 . S
C2063 H2051 0.959 . S
C2063 C2061 1.561 . S
C2064 C2061 1.526 . S
C2064 C2065 1.396 . S
C2064 C2069 1.390 . S
C2065 C2059 1.465 . S
C2065 C2064 1.396 . S
C2065 C2066 1.399 . S
C2066 H2052 0.929 . S
C2066 C2065 1.399 . S
C2066 C2067 1.385 . S
C2067 H2053 0.931 . S
C2067 C2066 1.385 . S
C2067 C2068 1.389 . S
C2068 C2067 1.389 . S
C2068 C2069 1.387 . S
C2069 H2054 0.930 . S
C2069 C2064 1.390 . S
C2069 C2068 1.387 . S
H2070 C2082 0.930 . S
H2071 C2084 0.930 . S
H2072 C2085 0.930 . S
H2073 C2089 0.959 . S
H2074 C2089 0.959 . S
H2075 C2089 0.961 . S
H2076 C2090 0.960 . S
H2077 C2090 0.961 . S
H2078 C2090 0.959 . S
H2079 C2093 0.929 . S
H2080 C2094 0.931 . S
H2081 C2096 0.930 . S
C2082 H2070 0.930 . S
C2082 C2083 1.399 . S
C2082 C2087 1.399 . S
C2083 C2082 1.399 . S
C2083 C2084 1.376 . S
C2084 H2071 0.930 . S
C2084 C2083 1.376 . S
C2084 C2085 1.388 . S
C2085 H2072 0.930 . S
C2085 C2084 1.388 . S
C2085 C2086 1.390 . S
C2086 C2085 1.390 . S
C2086 C2087 1.394 . S
C2086 C2092 1.465 . S
C2087 C2082 1.399 . S
C2087 C2086 1.394 . S
C2087 C2088 1.516 . S
C2088 C2087 1.516 . S
C2088 C2089 1.502 . S
C2088 C2090 1.561 . S
C2088 C2091 1.526 . S
C2089 H2073 0.959 . S
C2089 H2074 0.959 . S
C2089 H2075 0.961 . S
C2089 C2088 1.502 . S
C2090 H2076 0.960 . S
C2090 H2077 0.961 . S
C2090 H2078 0.959 . S
C2090 C2088 1.561 . S
C2091 C2088 1.526 . S
C2091 C2092 1.396 . S
C2091 C2096 1.390 . S
C2092 C2086 1.465 . S
C2092 C2091 1.396 . S
C2092 C2093 1.399 . S
C2093 H2079 0.929 . S
C2093 C2092 1.399 . S
C2093 C2094 1.385 . S
C2094 H2080 0.931 . S
C2094 C2093 1.385 . S
C2094 C2095 1.389 . S
C2095 C2094 1.389 . S
C2095 C2096 1.387 . S
C2096 H2081 0.930 . S
C2096 C2091 1.390 . S
C2096 C2095 1.387 . S
H2097 C2109 0.930 . S
H2098 C2111 0.930 . S
H2099 C2112 0.930 . S
H2100 C2116 0.959 . S
H2101 C2116 0.959 . S
H2102 C2116 0.961 . S
H2103 C2117 0.960 . S
H2104 C2117 0.961 . S
H2105 C2117 0.959 . S
H2106 C2120 0.929 . S
H2107 C2121 0.931 . S
H2108 C2123 0.930 . S
C2109 H2097 0.930 . S
C2109 C2110 1.399 . S
C2109 C2114 1.399 . S
C2110 C2109 1.399 . S
C2110 C2111 1.376 . S
C2111 H2098 0.930 . S
C2111 C2110 1.376 . S
C2111 C2112 1.388 . S
C2112 H2099 0.930 . S
C2112 C2111 1.388 . S
C2112 C2113 1.390 . S
C2113 C2112 1.390 . S
C2113 C2114 1.394 . S
C2113 C2119 1.465 . S
C2114 C2109 1.399 . S
C2114 C2113 1.394 . S
C2114 C2115 1.516 . S
C2115 C2114 1.516 . S
C2115 C2116 1.502 . S
C2115 C2117 1.561 . S
C2115 C2118 1.526 . S
C2116 H2100 0.959 . S
C2116 H2101 0.959 . S
C2116 H2102 0.961 . S
C2116 C2115 1.502 . S
C2117 H2103 0.960 . S
C2117 H2104 0.961 . S
C2117 H2105 0.959 . S
C2117 C2115 1.561 . S
C2118 C2115 1.526 . S
C2118 C2119 1.396 . S
C2118 C2123 1.390 . S
C2119 C2113 1.465 . S
C2119 C2118 1.396 . S
C2119 C2120 1.399 . S
C2120 H2106 0.929 . S
C2120 C2119 1.399 . S
C2120 C2121 1.385 . S
C2121 H2107 0.931 . S
C2121 C2120 1.385 . S
C2121 C2122 1.389 . S
C2122 C2121 1.389 . S
C2122 C2123 1.387 . S
C2123 H2108 0.930 . S
C2123 C2118 1.390 . S
C2123 C2122 1.387 . S
H2124 C2136 0.930 . S
H2125 C2138 0.930 . S
H2126 C2139 0.930 . S
H2127 C2143 0.959 . S
H2128 C2143 0.959 . S
H2129 C2143 0.961 . S
H2130 C2144 0.960 . S
H2131 C2144 0.961 . S
H2132 C2144 0.959 . S
H2133 C2147 0.929 . S
H2134 C2148 0.931 . S
H2135 C2150 0.930 . S
C2136 H2124 0.930 . S
C2136 C2137 1.399 . S
C2136 C2141 1.399 . S
C2137 C2136 1.399 . S
C2137 C2138 1.376 . S
C2138 H2125 0.930 . S
C2138 C2137 1.376 . S
C2138 C2139 1.388 . S
C2139 H2126 0.930 . S
C2139 C2138 1.388 . S
C2139 C2140 1.390 . S
C2140 C2139 1.390 . S
C2140 C2141 1.394 . S
C2140 C2146 1.465 . S
C2141 C2136 1.399 . S
C2141 C2140 1.394 . S
C2141 C2142 1.516 . S
C2142 C2141 1.516 . S
C2142 C2143 1.502 . S
C2142 C2144 1.561 . S
C2142 C2145 1.526 . S
C2143 H2127 0.959 . S
C2143 H2128 0.959 . S
C2143 H2129 0.961 . S
C2143 C2142 1.502 . S
C2144 H2130 0.960 . S
C2144 H2131 0.961 . S
C2144 H2132 0.959 . S
C2144 C2142 1.561 . S
C2145 C2142 1.526 . S
C2145 C2146 1.396 . S
C2145 C2150 1.390 . S
C2146 C2140 1.465 . S
C2146 C2145 1.396 . S
C2146 C2147 1.399 . S
C2147 H2133 0.929 . S
C2147 C2146 1.399 . S
C2147 C2148 1.385 . S
C2148 H2134 0.931 . S
C2148 C2147 1.385 . S
C2148 C2149 1.389 . S
C2149 C2148 1.389 . S
C2149 C2150 1.387 . S
C2150 H2135 0.930 . S
C2150 C2145 1.390 . S
C2150 C2149 1.387 . S
H2151 C2163 0.930 . S
H2152 C2165 0.930 . S
H2153 C2166 0.930 . S
H2154 C2170 0.959 . S
H2155 C2170 0.959 . S
H2156 C2170 0.961 . S
H2157 C2171 0.960 . S
H2158 C2171 0.961 . S
H2159 C2171 0.959 . S
H2160 C2174 0.929 . S
H2161 C2175 0.931 . S
H2162 C2177 0.930 . S
C2163 H2151 0.930 . S
C2163 C2164 1.399 . S
C2163 C2168 1.399 . S
C2164 C2163 1.399 . S
C2164 C2165 1.376 . S
C2165 H2152 0.930 . S
C2165 C2164 1.376 . S
C2165 C2166 1.388 . S
C2166 H2153 0.930 . S
C2166 C2165 1.388 . S
C2166 C2167 1.390 . S
C2167 C2166 1.390 . S
C2167 C2168 1.394 . S
C2167 C2173 1.465 . S
C2168 C2163 1.399 . S
C2168 C2167 1.394 . S
C2168 C2169 1.516 . S
C2169 C2168 1.516 . S
C2169 C2170 1.502 . S
C2169 C2171 1.561 . S
C2169 C2172 1.526 . S
C2170 H2154 0.959 . S
C2170 H2155 0.959 . S
C2170 H2156 0.961 . S
C2170 C2169 1.502 . S
C2171 H2157 0.960 . S
C2171 H2158 0.961 . S
C2171 H2159 0.959 . S
C2171 C2169 1.561 . S
C2172 C2169 1.526 . S
C2172 C2173 1.396 . S
C2172 C2177 1.390 . S
C2173 C2167 1.465 . S
C2173 C2172 1.396 . S
C2173 C2174 1.399 . S
C2174 H2160 0.929 . S
C2174 C2173 1.399 . S
C2174 C2175 1.385 . S
C2175 H2161 0.931 . S
C2175 C2174 1.385 . S
C2175 C2176 1.389 . S
C2176 C2175 1.389 . S
C2176 C2177 1.387 . S
C2177 H2162 0.930 . S
C2177 C2172 1.390 . S
C2177 C2176 1.387 . S
H2178 C2190 0.930 . S
H2179 C2192 0.930 . S
H2180 C2193 0.930 . S
H2181 C2197 0.959 . S
H2182 C2197 0.959 . S
H2183 C2197 0.961 . S
H2184 C2198 0.960 . S
H2185 C2198 0.961 . S
H2186 C2198 0.959 . S
H2187 C2201 0.929 . S
H2188 C2202 0.931 . S
H2189 C2204 0.930 . S
C2190 H2178 0.930 . S
C2190 C2191 1.399 . S
C2190 C2195 1.399 . S
C2191 C2190 1.399 . S
C2191 C2192 1.376 . S
C2192 H2179 0.930 . S
C2192 C2191 1.376 . S
C2192 C2193 1.388 . S
C2193 H2180 0.930 . S
C2193 C2192 1.388 . S
C2193 C2194 1.390 . S
C2194 C2193 1.390 . S
C2194 C2195 1.394 . S
C2194 C2200 1.465 . S
C2195 C2190 1.399 . S
C2195 C2194 1.394 . S
C2195 C2196 1.516 . S
C2196 C2195 1.516 . S
C2196 C2197 1.502 . S
C2196 C2198 1.561 . S
C2196 C2199 1.526 . S
C2197 H2181 0.959 . S
C2197 H2182 0.959 . S
C2197 H2183 0.961 . S
C2197 C2196 1.502 . S
C2198 H2184 0.960 . S
C2198 H2185 0.961 . S
C2198 H2186 0.959 . S
C2198 C2196 1.561 . S
C2199 C2196 1.526 . S
C2199 C2200 1.396 . S
C2199 C2204 1.390 . S
C2200 C2194 1.465 . S
C2200 C2199 1.396 . S
C2200 C2201 1.399 . S
C2201 H2187 0.929 . S
C2201 C2200 1.399 . S
C2201 C2202 1.385 . S
C2202 H2188 0.931 . S
C2202 C2201 1.385 . S
C2202 C2203 1.389 . S
C2203 C2202 1.389 . S
C2203 C2204 1.387 . S
C2204 H2189 0.930 . S
C2204 C2199 1.390 . S
C2204 C2203 1.387 . S
H2205 C2217 0.930 . S
H2206 C2219 0.930 . S
H2207 C2220 0.930 . S
H2208 C2224 0.959 . S
H2209 C2224 0.959 . S
H2210 C2224 0.961 . S
H2211 C2225 0.960 . S
H2212 C2225 0.961 . S
H2213 C2225 0.959 . S
H2214 C2228 0.929 . S
H2215 C2229 0.931 . S
H2216 C2231 0.930 . S
C2217 H2205 0.930 . S
C2217 C2218 1.399 . S
C2217 C2222 1.399 . S
C2218 C2217 1.399 . S
C2218 C2219 1.376 . S
C2219 H2206 0.930 . S
C2219 C2218 1.376 . S
C2219 C2220 1.388 . S
C2220 H2207 0.930 . S
C2220 C2219 1.388 . S
C2220 C2221 1.390 . S
C2221 C2220 1.390 . S
C2221 C2222 1.394 . S
C2221 C2227 1.465 . S
C2222 C2217 1.399 . S
C2222 C2221 1.394 . S
C2222 C2223 1.516 . S
C2223 C2222 1.516 . S
C2223 C2224 1.502 . S
C2223 C2225 1.561 . S
C2223 C2226 1.526 . S
C2224 H2208 0.959 . S
C2224 H2209 0.959 . S
C2224 H2210 0.961 . S
C2224 C2223 1.502 . S
C2225 H2211 0.960 . S
C2225 H2212 0.961 . S
C2225 H2213 0.959 . S
C2225 C2223 1.561 . S
C2226 C2223 1.526 . S
C2226 C2227 1.396 . S
C2226 C2231 1.390 . S
C2227 C2221 1.465 . S
C2227 C2226 1.396 . S
C2227 C2228 1.399 . S
C2228 H2214 0.929 . S
C2228 C2227 1.399 . S
C2228 C2229 1.385 . S
C2229 H2215 0.931 . S
C2229 C2228 1.385 . S
C2229 C2230 1.389 . S
C2230 C2229 1.389 . S
C2230 C2231 1.387 . S
C2231 H2216 0.930 . S
C2231 C2226 1.390 . S
C2231 C2230 1.387 . S
H2232 C2244 0.930 . S
H2233 C2246 0.930 . S
H2234 C2247 0.930 . S
H2235 C2251 0.959 . S
H2236 C2251 0.959 . S
H2237 C2251 0.961 . S
H2238 C2252 0.960 . S
H2239 C2252 0.961 . S
H2240 C2252 0.959 . S
H2241 C2255 0.929 . S
H2242 C2256 0.931 . S
H2243 C2258 0.930 . S
C2244 H2232 0.930 . S
C2244 C2245 1.399 . S
C2244 C2249 1.399 . S
C2245 C2244 1.399 . S
C2245 C2246 1.376 . S
C2246 H2233 0.930 . S
C2246 C2245 1.376 . S
C2246 C2247 1.388 . S
C2247 H2234 0.930 . S
C2247 C2246 1.388 . S
C2247 C2248 1.390 . S
C2248 C2247 1.390 . S
C2248 C2249 1.394 . S
C2248 C2254 1.465 . S
C2249 C2244 1.399 . S
C2249 C2248 1.394 . S
C2249 C2250 1.516 . S
C2250 C2249 1.516 . S
C2250 C2251 1.502 . S
C2250 C2252 1.561 . S
C2250 C2253 1.526 . S
C2251 H2235 0.959 . S
C2251 H2236 0.959 . S
C2251 H2237 0.961 . S
C2251 C2250 1.502 . S
C2252 H2238 0.960 . S
C2252 H2239 0.961 . S
C2252 H2240 0.959 . S
C2252 C2250 1.561 . S
C2253 C2250 1.526 . S
C2253 C2254 1.396 . S
C2253 C2258 1.390 . S
C2254 C2248 1.465 . S
C2254 C2253 1.396 . S
C2254 C2255 1.399 . S
C2255 H2241 0.929 . S
C2255 C2254 1.399 . S
C2255 C2256 1.385 . S
C2256 H2242 0.931 . S
C2256 C2255 1.385 . S
C2256 C2257 1.389 . S
C2257 C2256 1.389 . S
C2257 C2258 1.387 . S
C2258 H2243 0.930 . S
C2258 C2253 1.390 . S
C2258 C2257 1.387 . S
H2259 C2271 0.930 . S
H2260 C2273 0.930 . S
H2261 C2274 0.930 . S
H2262 C2278 0.959 . S
H2263 C2278 0.959 . S
H2264 C2278 0.961 . S
H2265 C2279 0.960 . S
H2266 C2279 0.961 . S
H2267 C2279 0.959 . S
H2268 C2282 0.929 . S
H2269 C2283 0.931 . S
H2270 C2285 0.930 . S
C2271 H2259 0.930 . S
C2271 C2272 1.399 . S
C2271 C2276 1.399 . S
C2272 C2271 1.399 . S
C2272 C2273 1.376 . S
C2273 H2260 0.930 . S
C2273 C2272 1.376 . S
C2273 C2274 1.388 . S
C2274 H2261 0.930 . S
C2274 C2273 1.388 . S
C2274 C2275 1.390 . S
C2275 C2274 1.390 . S
C2275 C2276 1.394 . S
C2275 C2281 1.465 . S
C2276 C2271 1.399 . S
C2276 C2275 1.394 . S
C2276 C2277 1.516 . S
C2277 C2276 1.516 . S
C2277 C2278 1.502 . S
C2277 C2279 1.561 . S
C2277 C2280 1.526 . S
C2278 H2262 0.959 . S
C2278 H2263 0.959 . S
C2278 H2264 0.961 . S
C2278 C2277 1.502 . S
C2279 H2265 0.960 . S
C2279 H2266 0.961 . S
C2279 H2267 0.959 . S
C2279 C2277 1.561 . S
C2280 C2277 1.526 . S
C2280 C2281 1.396 . S
C2280 C2285 1.390 . S
C2281 C2275 1.465 . S
C2281 C2280 1.396 . S
C2281 C2282 1.399 . S
C2282 H2268 0.929 . S
C2282 C2281 1.399 . S
C2282 C2283 1.385 . S
C2283 H2269 0.931 . S
C2283 C2282 1.385 . S
C2283 C2284 1.389 . S
C2284 C2283 1.389 . S
C2284 C2285 1.387 . S
C2285 H2270 0.930 . S
C2285 C2280 1.390 . S
C2285 C2284 1.387 . S
H2286 C2298 0.930 . S
H2287 C2300 0.930 . S
H2288 C2301 0.930 . S
H2289 C2305 0.959 . S
H2290 C2305 0.959 . S
H2291 C2305 0.961 . S
H2292 C2306 0.960 . S
H2293 C2306 0.961 . S
H2294 C2306 0.959 . S
H2295 C2309 0.929 . S
H2296 C2310 0.931 . S
H2297 C2312 0.930 . S
C2298 H2286 0.930 . S
C2298 C2299 1.399 . S
C2298 C2303 1.399 . S
C2299 C2298 1.399 . S
C2299 C2300 1.376 . S
C2300 H2287 0.930 . S
C2300 C2299 1.376 . S
C2300 C2301 1.388 . S
C2301 H2288 0.930 . S
C2301 C2300 1.388 . S
C2301 C2302 1.390 . S
C2302 C2301 1.390 . S
C2302 C2303 1.394 . S
C2302 C2308 1.465 . S
C2303 C2298 1.399 . S
C2303 C2302 1.394 . S
C2303 C2304 1.516 . S
C2304 C2303 1.516 . S
C2304 C2305 1.502 . S
C2304 C2306 1.561 . S
C2304 C2307 1.526 . S
C2305 H2289 0.959 . S
C2305 H2290 0.959 . S
C2305 H2291 0.961 . S
C2305 C2304 1.502 . S
C2306 H2292 0.960 . S
C2306 H2293 0.961 . S
C2306 H2294 0.959 . S
C2306 C2304 1.561 . S
C2307 C2304 1.526 . S
C2307 C2308 1.396 . S
C2307 C2312 1.390 . S
C2308 C2302 1.465 . S
C2308 C2307 1.396 . S
C2308 C2309 1.399 . S
C2309 H2295 0.929 . S
C2309 C2308 1.399 . S
C2309 C2310 1.385 . S
C2310 H2296 0.931 . S
C2310 C2309 1.385 . S
C2310 C2311 1.389 . S
C2311 C2310 1.389 . S
C2311 C2312 1.387 . S
C2312 H2297 0.930 . S
C2312 C2307 1.390 . S
C2312 C2311 1.387 . S
H2313 C2325 0.930 . S
H2314 C2327 0.930 . S
H2315 C2328 0.930 . S
H2316 C2332 0.959 . S
H2317 C2332 0.959 . S
H2318 C2332 0.961 . S
H2319 C2333 0.960 . S
H2320 C2333 0.961 . S
H2321 C2333 0.959 . S
H2322 C2336 0.929 . S
H2323 C2337 0.931 . S
H2324 C2339 0.930 . S
C2325 H2313 0.930 . S
C2325 C2326 1.399 . S
C2325 C2330 1.399 . S
C2326 C2325 1.399 . S
C2326 C2327 1.376 . S
C2327 H2314 0.930 . S
C2327 C2326 1.376 . S
C2327 C2328 1.388 . S
C2328 H2315 0.930 . S
C2328 C2327 1.388 . S
C2328 C2329 1.390 . S
C2329 C2328 1.390 . S
C2329 C2330 1.394 . S
C2329 C2335 1.465 . S
C2330 C2325 1.399 . S
C2330 C2329 1.394 . S
C2330 C2331 1.516 . S
C2331 C2330 1.516 . S
C2331 C2332 1.502 . S
C2331 C2333 1.561 . S
C2331 C2334 1.526 . S
C2332 H2316 0.959 . S
C2332 H2317 0.959 . S
C2332 H2318 0.961 . S
C2332 C2331 1.502 . S
C2333 H2319 0.960 . S
C2333 H2320 0.961 . S
C2333 H2321 0.959 . S
C2333 C2331 1.561 . S
C2334 C2331 1.526 . S
C2334 C2335 1.396 . S
C2334 C2339 1.390 . S
C2335 C2329 1.465 . S
C2335 C2334 1.396 . S
C2335 C2336 1.399 . S
C2336 H2322 0.929 . S
C2336 C2335 1.399 . S
C2336 C2337 1.385 . S
C2337 H2323 0.931 . S
C2337 C2336 1.385 . S
C2337 C2338 1.389 . S
C2338 C2337 1.389 . S
C2338 C2339 1.387 . S
C2339 H2324 0.930 . S
C2339 C2334 1.390 . S
C2339 C2338 1.387 . S
H2340 C2352 0.930 . S
H2341 C2354 0.930 . S
H2342 C2355 0.930 . S
H2343 C2359 0.959 . S
H2344 C2359 0.959 . S
H2345 C2359 0.961 . S
H2346 C2360 0.960 . S
H2347 C2360 0.961 . S
H2348 C2360 0.959 . S
H2349 C2363 0.929 . S
H2350 C2364 0.931 . S
H2351 C2366 0.930 . S
C2352 H2340 0.930 . S
C2352 C2353 1.399 . S
C2352 C2357 1.399 . S
C2353 C2352 1.399 . S
C2353 C2354 1.376 . S
C2354 H2341 0.930 . S
C2354 C2353 1.376 . S
C2354 C2355 1.388 . S
C2355 H2342 0.930 . S
C2355 C2354 1.388 . S
C2355 C2356 1.390 . S
C2356 C2355 1.390 . S
C2356 C2357 1.394 . S
C2356 C2362 1.465 . S
C2357 C2352 1.399 . S
C2357 C2356 1.394 . S
C2357 C2358 1.516 . S
C2358 C2357 1.516 . S
C2358 C2359 1.502 . S
C2358 C2360 1.561 . S
C2358 C2361 1.526 . S
C2359 H2343 0.959 . S
C2359 H2344 0.959 . S
C2359 H2345 0.961 . S
C2359 C2358 1.502 . S
C2360 H2346 0.960 . S
C2360 H2347 0.961 . S
C2360 H2348 0.959 . S
C2360 C2358 1.561 . S
C2361 C2358 1.526 . S
C2361 C2362 1.396 . S
C2361 C2366 1.390 . S
C2362 C2356 1.465 . S
C2362 C2361 1.396 . S
C2362 C2363 1.399 . S
C2363 H2349 0.929 . S
C2363 C2362 1.399 . S
C2363 C2364 1.385 . S
C2364 H2350 0.931 . S
C2364 C2363 1.385 . S
C2364 C2365 1.389 . S
C2365 C2364 1.389 . S
C2365 C2366 1.387 . S
C2366 H2351 0.930 . S
C2366 C2361 1.390 . S
C2366 C2365 1.387 . S
H2367 C2379 0.930 . S
H2368 C2381 0.930 . S
H2369 C2382 0.930 . S
H2370 C2386 0.959 . S
H2371 C2386 0.959 . S
H2372 C2386 0.961 . S
H2373 C2387 0.960 . S
H2374 C2387 0.961 . S
H2375 C2387 0.959 . S
H2376 C2390 0.929 . S
H2377 C2391 0.931 . S
H2378 C2393 0.930 . S
C2379 H2367 0.930 . S
C2379 C2380 1.399 . S
C2379 C2384 1.399 . S
C2380 C2379 1.399 . S
C2380 C2381 1.376 . S
C2381 H2368 0.930 . S
C2381 C2380 1.376 . S
C2381 C2382 1.388 . S
C2382 H2369 0.930 . S
C2382 C2381 1.388 . S
C2382 C2383 1.390 . S
C2383 C2382 1.390 . S
C2383 C2384 1.394 . S
C2383 C2389 1.465 . S
C2384 C2379 1.399 . S
C2384 C2383 1.394 . S
C2384 C2385 1.516 . S
C2385 C2384 1.516 . S
C2385 C2386 1.502 . S
C2385 C2387 1.561 . S
C2385 C2388 1.526 . S
C2386 H2370 0.959 . S
C2386 H2371 0.959 . S
C2386 H2372 0.961 . S
C2386 C2385 1.502 . S
C2387 H2373 0.960 . S
C2387 H2374 0.961 . S
C2387 H2375 0.959 . S
C2387 C2385 1.561 . S
C2388 C2385 1.526 . S
C2388 C2389 1.396 . S
C2388 C2393 1.390 . S
C2389 C2383 1.465 . S
C2389 C2388 1.396 . S
C2389 C2390 1.399 . S
C2390 H2376 0.929 . S
C2390 C2389 1.399 . S
C2390 C2391 1.385 . S
C2391 H2377 0.931 . S
C2391 C2390 1.385 . S
C2391 C2392 1.389 . S
C2392 C2391 1.389 . S
C2392 C2393 1.387 . S
C2393 H2378 0.930 . S
C2393 C2388 1.390 . S
C2393 C2392 1.387 . S
H2394 C2406 0.930 . S
H2395 C2408 0.930 . S
H2396 C2409 0.930 . S
H2397 C2413 0.959 . S
H2398 C2413 0.959 . S
H2399 C2413 0.961 . S
H2400 C2414 0.960 . S
H2401 C2414 0.961 . S
H2402 C2414 0.959 . S
H2403 C2417 0.929 . S
H2404 C2418 0.931 . S
H2405 C2420 0.930 . S
C2406 H2394 0.930 . S
C2406 C2407 1.399 . S
C2406 C2411 1.399 . S
C2407 C2406 1.399 . S
C2407 C2408 1.376 . S
C2408 H2395 0.930 . S
C2408 C2407 1.376 . S
C2408 C2409 1.388 . S
C2409 H2396 0.930 . S
C2409 C2408 1.388 . S
C2409 C2410 1.390 . S
C2410 C2409 1.390 . S
C2410 C2411 1.394 . S
C2410 C2416 1.465 . S
C2411 C2406 1.399 . S
C2411 C2410 1.394 . S
C2411 C2412 1.516 . S
C2412 C2411 1.516 . S
C2412 C2413 1.502 . S
C2412 C2414 1.561 . S
C2412 C2415 1.526 . S
C2413 H2397 0.959 . S
C2413 H2398 0.959 . S
C2413 H2399 0.961 . S
C2413 C2412 1.502 . S
C2414 H2400 0.960 . S
C2414 H2401 0.961 . S
C2414 H2402 0.959 . S
C2414 C2412 1.561 . S
C2415 C2412 1.526 . S
C2415 C2416 1.396 . S
C2415 C2420 1.390 . S
C2416 C2410 1.465 . S
C2416 C2415 1.396 . S
C2416 C2417 1.399 . S
C2417 H2403 0.929 . S
C2417 C2416 1.399 . S
C2417 C2418 1.385 . S
C2418 H2404 0.931 . S
C2418 C2417 1.385 . S
C2418 C2419 1.389 . S
C2419 C2418 1.389 . S
C2419 C2420 1.387 . S
C2420 H2405 0.930 . S
C2420 C2415 1.390 . S
C2420 C2419 1.387 . S
H2421 C2433 0.930 . S
H2422 C2435 0.930 . S
H2423 C2436 0.930 . S
H2424 C2440 0.959 . S
H2425 C2440 0.959 . S
H2426 C2440 0.961 . S
H2427 C2441 0.960 . S
H2428 C2441 0.961 . S
H2429 C2441 0.959 . S
H2430 C2444 0.929 . S
H2431 C2445 0.931 . S
H2432 C2447 0.930 . S
C2433 H2421 0.930 . S
C2433 C2434 1.399 . S
C2433 C2438 1.399 . S
C2434 C2433 1.399 . S
C2434 C2435 1.376 . S
C2435 H2422 0.930 . S
C2435 C2434 1.376 . S
C2435 C2436 1.388 . S
C2436 H2423 0.930 . S
C2436 C2435 1.388 . S
C2436 C2437 1.390 . S
C2437 C2436 1.390 . S
C2437 C2438 1.394 . S
C2437 C2443 1.465 . S
C2438 C2433 1.399 . S
C2438 C2437 1.394 . S
C2438 C2439 1.516 . S
C2439 C2438 1.516 . S
C2439 C2440 1.502 . S
C2439 C2441 1.561 . S
C2439 C2442 1.526 . S
C2440 H2424 0.959 . S
C2440 H2425 0.959 . S
C2440 H2426 0.961 . S
C2440 C2439 1.502 . S
C2441 H2427 0.960 . S
C2441 H2428 0.961 . S
C2441 H2429 0.959 . S
C2441 C2439 1.561 . S
C2442 C2439 1.526 . S
C2442 C2443 1.396 . S
C2442 C2447 1.390 . S
C2443 C2437 1.465 . S
C2443 C2442 1.396 . S
C2443 C2444 1.399 . S
C2444 H2430 0.929 . S
C2444 C2443 1.399 . S
C2444 C2445 1.385 . S
C2445 H2431 0.931 . S
C2445 C2444 1.385 . S
C2445 C2446 1.389 . S
C2446 C2445 1.389 . S
C2446 C2447 1.387 . S
C2447 H2432 0.930 . S
C2447 C2442 1.390 . S
C2447 C2446 1.387 . S
C517 C7 1.370 . S
C529 C259 1.411 . S
C544 C273 1.423 . S
C556 C21 1.363 . S
C571 C287 1.425 . S
C583 C35 1.372 . S
C598 C49 1.364 . S
C610 C469 1.428 . S
C625 C63 1.384 . S
C637 C483 1.415 . S
C652 C77 1.428 . S
C664 C497 1.363 . S
C679 C343 1.415 . S
C691 C91 1.384 . S
C706 C105 1.428 . S
C718 C357 1.363 . S
C733 C119 1.420 . S
C745 C371 1.365 . S
C760 C217 1.361 . S
C772 C133 1.427 . S
C787 C231 1.385 . S
C799 C147 1.414 . S
C814 C245 1.364 . S
C826 C161 1.420 . S
C841 C427 1.397 . S
C853 C175 1.403 . S
C868 C441 1.383 . S
C880 C189 1.397 . S
C895 C203 1.428 . S
C907 C455 1.363 . S
C922 C385 1.386 . S
C934 C301 1.395 . S
C949 C315 1.428 . S
C961 C399 1.362 . S
C976 C329 1.420 . S
C988 C413 1.378 . S
C1003 C8 1.388 . S
C1015 C386 1.406 . S
C1030 C400 1.402 . S
C1042 C22 1.421 . S
C1057 C414 1.402 . S
C1069 C36 1.421 . S
C1084 C176 1.411 . S
C1096 C50 1.391 . S
C1111 C190 1.404 . S
C1123 C64 1.421 . S
C1138 C204 1.386 . S
C1150 C78 1.392 . S
C1165 C92 1.387 . S
C1177 C302 1.415 . S
C1192 C316 1.405 . S
C1204 C106 1.386 . S
C1219 C330 1.387 . S
C1231 C120 1.402 . S
C1246 C134 1.389 . S
C1258 C428 1.419 . S
C1273 C148 1.386 . S
C1285 C442 1.407 . S
C1300 C162 1.390 . S
C1312 C456 1.396 . S
C1327 C218 1.413 . S
C1339 C344 1.393 . S
C1354 C232 1.423 . S
C1366 C358 1.417 . S
C1381 C246 1.399 . S
C1393 C372 1.419 . S
C1408 C260 1.423 . S
C1420 C470 1.406 . S
C1435 C484 1.386 . S
C1447 C274 1.407 . S
C1462 C288 1.396 . S
C1474 C498 1.423 . S
C1489 C17 1.084 . S
C1501 C9 1.047 . S
C1516 C23 1.049 . S
C1528 C31 1.025 . S
C1543 C37 0.931 . S
C1555 C3 1.094 . S
C1570 C51 0.931 . S
C1582 C73 1.087 . S
C1597 C45 1.036 . S
C1609 C65 1.001 . S
C1624 C79 1.088 . S
C1636 C59 1.040 . S
C1651 C93 1.059 . S
C1663 C101 1.033 . S
C1678 C107 1.010 . S
C1690 C115 1.106 . S
C1705 C121 1.013 . S
C1717 C87 1.025 . S
C1732 C157 1.043 . S
C1744 C135 1.075 . S
C1759 C149 1.006 . S
C1771 C129 1.106 . S
C1786 C143 1.024 . S
C1798 C163 1.021 . S
C1813 C185 1.102 . S
C1825 C177 0.942 . S
C1840 C199 1.024 . S
C1852 C191 1.045 . S
C1867 C171 1.034 . S
C1879 C205 1.006 . S
C1894 C219 0.976 . S
C1906 C241 1.105 . S
C1921 C233 0.932 . S
C1933 C213 1.084 . S
C1948 C247 1.075 . S
C1960 C227 1.027 . S
C1975 C269 1.038 . S
C1987 C261 1.069 . S
C2002 C275 1.070 . S
C2014 C283 1.092 . S
C2029 C289 1.024 . S
C2041 C255 1.025 . S
C2056 C303 1.007 . S
C2068 C325 1.025 . S
C2083 C317 1.021 . S
C2095 C297 1.106 . S
C2110 C311 1.069 . S
C2122 C331 1.087 . S
C2137 C353 1.024 . S
C2149 C345 1.068 . S
C2164 C359 0.933 . S
C2176 C367 1.081 . S
C2191 C339 1.024 . S
C2203 C373 1.059 . S
C2218 C387 1.088 . S
C2230 C409 1.040 . S
C2245 C401 1.085 . S
C2257 C381 1.033 . S
C2272 C415 0.940 . S
C2284 C395 1.102 . S
C2299 C429 0.966 . S
C2311 C437 1.099 . S
C2326 C443 1.024 . S
C2338 C451 1.025 . S
C2353 C457 1.053 . S
C2365 C423 1.100 . S
C2380 C471 1.001 . S
C2392 C493 1.025 . S
C2407 C485 1.078 . S
C2419 C465 1.045 . S
C2434 C479 1.069 . S
C2446 C499 1.087 . S
