# Generated by pormake.
# Topology wiv, (6)-cn, num edge types: 1
# Building blocks:
#     Node 0, Type 0, BuildingBlock: BETDAH_clean_sbu_0, # of connection points: 6
#     Node 1, Type 0, BuildingBlock: BETDAH_clean_sbu_0, # of connection points: 6
#     Node 2, Type 0, BuildingBlock: BETDAH_clean_sbu_0, # of connection points: 6
#     Node 3, Type 0, BuildingBlock: BETDAH_clean_sbu_0, # of connection points: 6
#     Node 4, Type 0, BuildingBlock: BETDAH_clean_sbu_0, # of connection points: 6
#     Node 5, Type 0, BuildingBlock: BETDAH_clean_sbu_0, # of connection points: 6
#     Node 6, Type 0, BuildingBlock: BETDAH_clean_sbu_0, # of connection points: 6
#     Node 7, Type 0, BuildingBlock: BETDAH_clean_sbu_0, # of connection points: 6
#     Node 8, Type 0, BuildingBlock: BETDAH_clean_sbu_0, # of connection points: 6
#     Node 9, Type 0, BuildingBlock: BETDAH_clean_sbu_0, # of connection points: 6
#     Node 10, Type 0, BuildingBlock: BETDAH_clean_sbu_0, # of connection points: 6
#     Node 11, Type 0, BuildingBlock: BETDAH_clean_sbu_0, # of connection points: 6
#     Node 12, Type 0, BuildingBlock: BETDAH_clean_sbu_0, # of connection points: 6
#     Node 13, Type 0, BuildingBlock: BETDAH_clean_sbu_0, # of connection points: 6
#     Node 14, Type 0, BuildingBlock: BETDAH_clean_sbu_0, # of connection points: 6
#     Node 15, Type 0, BuildingBlock: BETDAH_clean_sbu_0, # of connection points: 6
#     Edge 16, Type (0, 0), BuildingBlock: EZIPEK_clean_linker_0, # of connection points: 2
#     Edge 17, Type (0, 0), BuildingBlock: EZIPEK_clean_linker_0, # of connection points: 2
#     Edge 18, Type (0, 0), BuildingBlock: EZIPEK_clean_linker_0, # of connection points: 2
#     Edge 19, Type (0, 0), BuildingBlock: EZIPEK_clean_linker_0, # of connection points: 2
#     Edge 20, Type (0, 0), BuildingBlock: EZIPEK_clean_linker_0, # of connection points: 2
#     Edge 21, Type (0, 0), BuildingBlock: EZIPEK_clean_linker_0, # of connection points: 2
#     Edge 22, Type (0, 0), BuildingBlock: EZIPEK_clean_linker_0, # of connection points: 2
#     Edge 23, Type (0, 0), BuildingBlock: EZIPEK_clean_linker_0, # of connection points: 2
#     Edge 24, Type (0, 0), BuildingBlock: EZIPEK_clean_linker_0, # of connection points: 2
#     Edge 25, Type (0, 0), BuildingBlock: EZIPEK_clean_linker_0, # of connection points: 2
#     Edge 26, Type (0, 0), BuildingBlock: EZIPEK_clean_linker_0, # of connection points: 2
#     Edge 27, Type (0, 0), BuildingBlock: EZIPEK_clean_linker_0, # of connection points: 2
#     Edge 28, Type (0, 0), BuildingBlock: EZIPEK_clean_linker_0, # of connection points: 2
#     Edge 29, Type (0, 0), BuildingBlock: EZIPEK_clean_linker_0, # of connection points: 2
#     Edge 30, Type (0, 0), BuildingBlock: EZIPEK_clean_linker_0, # of connection points: 2
#     Edge 31, Type (0, 0), BuildingBlock: EZIPEK_clean_linker_0, # of connection points: 2
#     Edge 32, Type (0, 0), BuildingBlock: EZIPEK_clean_linker_0, # of connection points: 2
#     Edge 33, Type (0, 0), BuildingBlock: EZIPEK_clean_linker_0, # of connection points: 2
#     Edge 34, Type (0, 0), BuildingBlock: EZIPEK_clean_linker_0, # of connection points: 2
#     Edge 35, Type (0, 0), BuildingBlock: EZIPEK_clean_linker_0, # of connection points: 2
#     Edge 36, Type (0, 0), BuildingBlock: EZIPEK_clean_linker_0, # of connection points: 2
#     Edge 37, Type (0, 0), BuildingBlock: EZIPEK_clean_linker_0, # of connection points: 2
#     Edge 38, Type (0, 0), BuildingBlock: EZIPEK_clean_linker_0, # of connection points: 2
#     Edge 39, Type (0, 0), BuildingBlock: EZIPEK_clean_linker_0, # of connection points: 2
#     Edge 40, Type (0, 0), BuildingBlock: EZIPEK_clean_linker_0, # of connection points: 2
#     Edge 41, Type (0, 0), BuildingBlock: EZIPEK_clean_linker_0, # of connection points: 2
#     Edge 42, Type (0, 0), BuildingBlock: EZIPEK_clean_linker_0, # of connection points: 2
#     Edge 43, Type (0, 0), BuildingBlock: EZIPEK_clean_linker_0, # of connection points: 2
#     Edge 44, Type (0, 0), BuildingBlock: EZIPEK_clean_linker_0, # of connection points: 2
#     Edge 45, Type (0, 0), BuildingBlock: EZIPEK_clean_linker_0, # of connection points: 2
#     Edge 46, Type (0, 0), BuildingBlock: EZIPEK_clean_linker_0, # of connection points: 2
#     Edge 47, Type (0, 0), BuildingBlock: EZIPEK_clean_linker_0, # of connection points: 2
#     Edge 48, Type (0, 0), BuildingBlock: EZIPEK_clean_linker_0, # of connection points: 2
#     Edge 49, Type (0, 0), BuildingBlock: EZIPEK_clean_linker_0, # of connection points: 2
#     Edge 50, Type (0, 0), BuildingBlock: EZIPEK_clean_linker_0, # of connection points: 2
#     Edge 51, Type (0, 0), BuildingBlock: EZIPEK_clean_linker_0, # of connection points: 2
#     Edge 52, Type (0, 0), BuildingBlock: EZIPEK_clean_linker_0, # of connection points: 2
#     Edge 53, Type (0, 0), BuildingBlock: EZIPEK_clean_linker_0, # of connection points: 2
#     Edge 54, Type (0, 0), BuildingBlock: EZIPEK_clean_linker_0, # of connection points: 2
#     Edge 55, Type (0, 0), BuildingBlock: EZIPEK_clean_linker_0, # of connection points: 2
#     Edge 56, Type (0, 0), BuildingBlock: EZIPEK_clean_linker_0, # of connection points: 2
#     Edge 57, Type (0, 0), BuildingBlock: EZIPEK_clean_linker_0, # of connection points: 2
#     Edge 58, Type (0, 0), BuildingBlock: EZIPEK_clean_linker_0, # of connection points: 2
#     Edge 59, Type (0, 0), BuildingBlock: EZIPEK_clean_linker_0, # of connection points: 2
#     Edge 60, Type (0, 0), BuildingBlock: EZIPEK_clean_linker_0, # of connection points: 2
#     Edge 61, Type (0, 0), BuildingBlock: EZIPEK_clean_linker_0, # of connection points: 2
#     Edge 62, Type (0, 0), BuildingBlock: EZIPEK_clean_linker_0, # of connection points: 2
#     Edge 63, Type (0, 0), BuildingBlock: EZIPEK_clean_linker_0, # of connection points: 2
# Relax obj value: 0.175
# Max RMSD: 0.220
# Mean RMSD: 0.220
data_MOF--net-wiv--node1-BETDAH_clean_sbu_0--edge1-EZIPEK_clean_linker_0
_symmetry_space_group_name_H-M    P1
_symmetry_Int_Tables_number       1
_symmetry_cell_setting            triclinic
loop_
_symmetry_equiv_pos_as_xyz
'x, y, z'
_cell_length_a     35.056837
_cell_length_b     35.048276
_cell_length_c     20.176027
_cell_angle_alpha  90.120123
_cell_angle_beta   90.079997
_cell_angle_gamma 90.162032
loop_
_atom_site_label
_atom_site_type_symbol
_atom_site_fract_x
_atom_site_fract_y
_atom_site_fract_z
_atom_type_partial_charge
Ho0 Ho 0.32056 0.08709 0.19738 0.0
Ho1 Ho 0.37789 0.09712 0.09043 0.0
C2 C 0.40848 0.10447 0.23757 0.0
C3 C 0.28122 0.06594 0.29909 0.0
C4 C 0.29021 0.07041 0.37122 0.0
C5 C 0.30127 0.03835 0.40859 0.0
C6 C 0.31452 0.04234 0.47396 0.0
C7 C 0.31608 0.07841 0.5045 0.0
C8 C 0.30418 0.1104 0.46791 0.0
C9 C 0.29185 0.10653 0.40187 0.0
C10 C 0.34199 0.16093 0.18335 0.0
C11 C 0.28956 0.08636 1.04424 0.0
C12 C 0.41268 0.10795 0.97806 0.0
C13 C 0.40043 0.10685 0.90711 0.0
C14 C 0.37407 0.13317 0.88097 0.0
C15 C 0.36142 0.13 0.81503 0.0
C16 C 0.37459 0.10041 0.77399 0.0
C17 C 0.40148 0.07467 0.79943 0.0
C18 C 0.41434 0.07794 0.8651 0.0
C19 C 0.37673 0.02623 0.1467 0.0
O20 O 0.37728 0.08466 0.25158 0.0
O21 O 0.41399 0.11796 0.1768 0.0
O22 O 0.27291 0.09658 0.26472 0.0
O23 O 0.30418 0.0433 0.26687 0.0
O24 O 0.33791 0.14331 0.23887 0.0
O25 O 0.33591 0.13782 0.13569 0.0
O26 O 0.32571 0.08913 1.0276 0.0
O27 O 0.27912 0.08518 0.10803 0.0
O28 O 0.41183 0.07537 1.00906 0.0
O29 O 0.40032 0.13578 1.01545 0.0
O30 O 0.40721 0.04554 0.13258 0.0
O31 O 0.34811 0.04626 0.13131 0.0
H32 H 0.30078 0.01017 0.3865 0.0
H33 H 0.32374 0.01723 0.50073 0.0
H34 H 0.30523 0.13855 0.49008 0.0
H35 H 0.28412 0.13196 0.37463 0.0
H36 H 0.36285 0.15591 0.91159 0.0
H37 H 0.34106 0.1504 0.79608 0.0
H38 H 0.41208 0.05166 0.76869 0.0
H39 H 0.43474 0.05735 0.88349 0.0
Ho40 Ho 0.09721 0.61665 0.99617 0.0
Ho41 Ho 0.08499 0.67625 0.89541 0.0
C42 C 0.08206 0.70314 0.04913 0.0
C43 C 0.11534 0.5825 0.10551 0.0
C44 C 0.11335 0.59508 0.17609 0.0
C45 C 0.1278 0.63081 0.19653 0.0
C46 C 0.12288 0.6436 0.26193 0.0
C47 C 0.10354 0.62092 0.30845 0.0
C48 C 0.08977 0.58495 0.28858 0.0
C49 C 0.09462 0.57218 0.22311 0.0
C50 C 0.0241 0.62036 0.94837 0.0
C51 C 0.10349 0.58605 0.85085 0.0
C52 C 0.06381 0.70814 0.78507 0.0
C53 C 0.06881 0.69743 0.71383 0.0
C54 C 0.03968 0.6776 0.67983 0.0
C55 C 0.04462 0.66584 0.61389 0.0
C56 C 0.07864 0.67396 0.57999 0.0
C57 C 0.10753 0.69432 0.61324 0.0
C58 C 0.10267 0.706 0.67933 0.0
C59 C 0.15961 0.67061 0.92826 0.0
O60 O 0.09755 0.6696 0.05926 0.0
O61 O 0.07056 0.71275 0.9881 0.0
O62 O 0.08258 0.57761 0.07567 0.0
O63 O 0.1403 0.5996 0.06742 0.0
O64 O 0.04253 0.58932 0.96207 0.0
O65 O 0.04552 0.64839 0.96306 0.0
O66 O 0.08992 0.62042 0.83582 0.0
O67 O 0.11297 0.57762 0.91252 0.0
O68 O 0.09397 0.71879 0.81844 0.0
O69 O 0.04217 0.68565 0.81995 0.0
O70 O 0.14157 0.7023 0.91795 0.0
O71 O 0.13655 0.64276 0.92164 0.0
H72 H 0.14249 0.64918 0.16184 0.0
H73 H 0.1338 0.6714 0.27609 0.0
H74 H 0.07484 0.56693 0.32363 0.0
H75 H 0.08316 0.54461 0.20888 0.0
H76 H 0.01312 0.67072 0.7045 0.0
H77 H 0.02195 0.65016 0.58938 0.0
H78 H 0.13399 0.70096 0.58807 0.0
H79 H 0.12558 0.7215 0.70347 0.0
Ho80 Ho 0.67557 0.90746 0.19962 0.0
Ho81 Ho 0.61924 0.89337 0.09213 0.0
C82 C 0.58784 0.88686 0.23939 0.0
C83 C 0.71425 0.93329 0.29901 0.0
C84 C 0.70666 0.92992 0.37173 0.0
C85 C 0.6919 0.96126 0.40721 0.0
C86 C 0.68018 0.95739 0.47341 0.0
C87 C 0.6838 0.9223 0.50651 0.0
C88 C 0.69976 0.89132 0.47189 0.0
C89 C 0.71063 0.89493 0.4052 0.0
C90 C 0.65607 0.83288 0.19117 0.0
C91 C 0.70558 0.91238 0.0468 0.0
C92 C 0.58921 0.87674 0.97766 0.0
C93 C 0.60293 0.88233 0.90834 0.0
C94 C 0.64074 0.87375 0.88989 0.0
C95 C 0.65364 0.88069 0.82512 0.0
C96 C 0.62909 0.89637 0.77725 0.0
C97 C 0.59136 0.90493 0.7956 0.0
C98 C 0.57844 0.89796 0.86036 0.0
C99 C 0.61588 0.96435 0.14696 0.0
O100 O 0.61921 0.90627 0.25458 0.0
O101 O 0.58249 0.87371 0.17815 0.0
O102 O 0.7241 0.90238 0.26638 0.0
O103 O 0.68962 0.95383 0.26607 0.0
O104 O 0.66059 0.85187 0.24537 0.0
O105 O 0.66169 0.85474 0.14156 0.0
O106 O 0.66927 0.91198 1.03092 0.0
O107 O 0.71654 0.90885 0.10999 0.0
O108 O 0.58116 0.90769 1.01075 0.0
O109 O 0.60753 0.85208 1.01413 0.0
O110 O 0.58653 0.94345 0.13182 0.0
O111 O 0.64569 0.94584 0.13245 0.0
H112 H 0.68824 0.98858 0.38305 0.0
H113 H 0.66777 0.98169 0.4986 0.0
H114 H 0.70285 0.86394 0.49607 0.0
H115 H 0.72152 0.87005 0.37964 0.0
H116 H 0.66049 0.86187 0.92557 0.0
H117 H 0.68287 0.87392 0.81235 0.0
H118 H 0.5719 0.91709 0.75969 0.0
H119 H 0.5493 0.90504 0.87314 0.0
Ho120 Ho 0.89873 0.36244 0.9892 0.0
Ho121 Ho 0.89032 0.32606 0.90028 0.0
C122 C 0.87814 0.28526 0.04824 0.0
C123 C 0.898 0.39104 0.10978 0.0
C124 C 0.89921 0.37661 0.17968 0.0
C125 C 0.87528 0.3469 0.20203 0.0
C126 C 0.87669 0.33444 0.26838 0.0
C127 C 0.90148 0.3519 0.3144 0.0
C128 C 0.92532 0.38155 0.29211 0.0
C129 C 0.9243 0.3936 0.22565 0.0
C130 C 0.96803 0.35858 0.92649 0.0
C131 C 0.88212 0.41102 0.8587 0.0
C132 C 0.89882 0.27701 0.80486 0.0
C133 C 0.90226 0.28537 0.73207 0.0
C134 C 0.93249 0.30769 0.70672 0.0
C135 C 0.93355 0.31821 0.63939 0.0
C136 C 0.90463 0.3065 0.59524 0.0
C137 C 0.8746 0.28407 0.62037 0.0
C138 C 0.87338 0.27375 0.68774 0.0
C139 C 0.81777 0.34562 0.9269 0.0
O140 O 0.90289 0.2983 1.00558 0.0
O141 O 0.90414 0.29816 1.00468 0.0
O142 O 0.92859 0.38704 0.07435 0.0
O143 O 0.86759 0.38421 0.07467 0.0
O144 O 0.96277 0.34828 0.98725 0.0
O145 O 0.93687 0.36783 0.90178 0.0
O146 O 0.89088 0.37753 0.83473 0.0
O147 O 0.88114 0.41402 0.92417 0.0
O148 O 0.86599 0.28448 0.8317 0.0
O149 O 0.92667 0.28784 0.84341 0.0
O150 O 0.8335 0.34792 0.86956 0.0
O151 O 0.84191 0.33442 0.96935 0.0
H152 H 0.85535 0.33335 0.16834 0.0
H153 H 0.85805 0.31148 0.28406 0.0
H154 H 0.94472 0.39548 0.32634 0.0
H155 H 0.94298 0.4166 0.21025 0.0
H156 H 0.95503 0.31777 0.73913 0.0
H157 H 0.95685 0.33582 0.62178 0.0
H158 H 0.85178 0.2748 0.5878 0.0
H159 H 0.84952 0.25694 0.70535 0.0
Ho160 Ho 0.31718 0.39679 0.14126 0.0
Ho161 Ho 0.37954 0.3941 0.24184 0.0
C162 C 0.40689 0.38358 0.09485 0.0
C163 C 0.28298 0.40818 1.02888 0.0
C164 C 0.29647 0.40612 0.9588 0.0
C165 C 0.32136 0.434 0.93276 0.0
C166 C 0.33457 0.43146 0.86734 0.0
C167 C 0.32298 0.40125 0.82611 0.0
C168 C 0.29803 0.37349 0.85167 0.0
C169 C 0.28504 0.37583 0.91735 0.0
C170 C 0.32856 0.32635 0.1906 0.0
C171 C 0.29155 0.40542 0.29307 0.0
C172 C 0.41632 0.38123 0.35095 0.0
C173 C 0.40384 0.38133 0.42141 0.0
C174 C 0.36814 0.36624 0.44014 0.0
C175 C 0.35538 0.36914 0.50579 0.0
C176 C 0.37816 0.38686 0.55425 0.0
C177 C 0.41409 0.4013 0.53605 0.0
C178 C 0.42676 0.39865 0.4702 0.0
C179 C 0.37111 0.46341 0.18305 0.0
O180 O 0.37173 0.39442 0.07999 0.0
O181 O 0.41725 0.37725 0.15694 0.0
O182 O 0.28048 0.37615 0.06152 0.0
O183 O 0.29727 0.43535 0.06548 0.0
O184 O 0.29532 0.3409 0.1784 0.0
O185 O 0.35446 0.35014 0.17605 0.0
O186 O 0.32673 0.39461 0.3055 0.0
O187 O 0.28006 0.41201 0.23105 0.0
O188 O 0.41622 0.41437 0.32134 0.0
O189 O 0.40265 0.35407 0.31299 0.0
O190 O 0.40346 0.44801 0.1992 0.0
O191 O 0.34426 0.44145 0.20139 0.0
H192 H 0.33101 0.4577 0.96301 0.0
H193 H 0.35394 0.45308 0.84883 0.0
H194 H 0.28873 0.3499 0.8208 0.0
H195 H 0.26601 0.35389 0.93577 0.0
H196 H 0.3498 0.35252 0.404 0.0
H197 H 0.32759 0.3578 0.51873 0.0
H198 H 0.4321 0.41506 0.57269 0.0
H199 H 0.45429 0.41058 0.45715 0.0
Ho200 Ho 0.39493 0.61527 0.83658 0.0
Ho201 Ho 0.39301 0.67244 0.94721 0.0
C202 C 0.40256 0.70172 0.79091 0.0
C203 C 0.38819 0.57255 0.73204 0.0
C204 C 0.38863 0.58349 0.66043 0.0
C205 C 0.37113 0.61738 0.6385 0.0
C206 C 0.37462 0.62939 0.57238 0.0
C207 C 0.39558 0.60782 0.52633 0.0
C208 C 0.41259 0.57366 0.54778 0.0
C209 C 0.40918 0.56167 0.61409 0.0
C210 C 0.4634 0.63324 0.89763 0.0
C211 C 0.37945 0.58323 0.98434 0.0
C212 C 0.40782 0.7109 0.05336 0.0
C213 C 0.40843 0.69741 0.12405 0.0
C214 C 0.44207 0.6827 0.15267 0.0
C215 C 0.442 0.66755 0.21723 0.0
C216 C 0.4085 0.66737 0.2556 0.0
C217 C 0.37505 0.68247 0.22753 0.0
C218 C 0.37492 0.69697 0.16261 0.0
C219 C 0.32238 0.65096 0.90845 0.0
O220 O 0.39369 0.66688 0.77354 0.0
O221 O 0.40655 0.71112 0.85529 0.0
O222 O 0.42033 0.57718 0.76385 0.0
O223 O 0.35904 0.58391 0.76735 0.0
O224 O 0.45973 0.62712 0.8346 0.0
O225 O 0.43158 0.62738 0.92283 0.0
O226 O 0.38994 0.61757 1.00479 0.0
O227 O 0.37621 0.57527 0.92001 0.0
O228 O 0.37461 0.71224 1.02353 0.0
O229 O 0.43447 0.69749 1.01436 0.0
O230 O 0.33373 0.65544 0.96892 0.0
O231 O 0.35022 0.65774 0.86916 0.0
H232 H 0.35522 0.63504 0.67271 0.0
H233 H 0.36136 0.65588 0.5573 0.0
H234 H 0.42901 0.55658 0.51337 0.0
H235 H 0.42323 0.53566 0.62949 0.0
H236 H 0.46842 0.68227 0.12474 0.0
H237 H 0.46815 0.65588 0.2373 0.0
H238 H 0.34878 0.68262 0.25575 0.0
H239 H 0.34839 0.70771 0.14251 0.0
Ho240 Ho 0.67086 0.60009 0.14441 0.0
Ho241 Ho 0.60946 0.59353 0.24387 0.0
C242 C 0.57872 0.61565 0.10313 0.0
C243 C 0.70687 0.59045 1.0331 0.0
C244 C 0.69389 0.58793 0.96247 0.0
C245 C 0.68492 0.55249 0.9331 0.0
C246 C 0.66991 0.55052 0.86856 0.0
C247 C 0.66538 0.58376 0.83037 0.0
C248 C 0.67587 0.61898 0.85863 0.0
C249 C 0.68946 0.6211 0.92396 0.0
C250 C 0.66023 0.66679 0.20616 0.0
C251 C 0.69773 0.58993 0.29703 0.0
C252 C 0.57143 0.59528 0.35418 0.0
C253 C 0.58271 0.59555 0.42529 0.0
C254 C 0.61595 0.61446 0.44708 0.0
C255 C 0.62775 0.61194 0.51342 0.0
C256 C 0.60642 0.59078 0.55948 0.0
C257 C 0.5729 0.5724 0.53809 0.0
C258 C 0.56122 0.57471 0.47161 0.0
C259 C 0.62027 0.52939 0.16822 0.0
O260 O 0.61526 0.61279 0.08627 0.0
O261 O 0.56807 0.61235 0.16557 0.0
O262 O 0.70343 0.62347 0.06253 0.0
O263 O 0.69761 0.56233 0.07245 0.0
O264 O 0.69333 0.65257 0.19136 0.0
O265 O 0.63358 0.6438 0.18918 0.0
O266 O 0.66144 0.59549 0.30996 0.0
O267 O 0.70954 0.58722 0.23424 0.0
O268 O 0.57894 0.56388 0.32183 0.0
O269 O 0.57933 0.62577 0.31929 0.0
O270 O 0.58754 0.54155 0.18886 0.0
O271 O 0.64613 0.55042 0.19295 0.0
H272 H 0.68837 0.52627 0.96076 0.0
H273 H 0.6619 0.52299 0.8483 0.0
H274 H 0.67282 0.64505 0.83039 0.0
H275 H 0.6965 0.64887 0.9443 0.0
H276 H 0.63312 0.63085 0.41279 0.0
H277 H 0.65376 0.62624 0.52873 0.0
H278 H 0.55609 0.5558 0.57268 0.0
H279 H 0.53563 0.55973 0.45612 0.0
Ho280 Ho 0.58908 0.37501 0.83207 0.0
Ho281 Ho 0.58298 0.31225 0.94889 0.0
C282 C 0.57546 0.28645 0.79121 0.0
C283 C 0.60539 0.41677 0.73078 0.0
C284 C 0.59626 0.40968 0.66001 0.0
C285 C 0.62136 0.42182 0.61003 0.0
C286 C 0.61586 0.4101 0.54405 0.0
C287 C 0.58515 0.38608 0.52704 0.0
C288 C 0.55945 0.37485 0.57663 0.0
C289 C 0.56504 0.38637 0.64252 0.0
C290 C 0.51895 0.36134 0.88758 0.0
C291 C 0.60739 0.4015 0.98286 0.0
C292 C 0.56012 0.28153 0.05864 0.0
C293 C 0.56368 0.29582 0.12783 0.0
C294 C 0.53482 0.28905 0.17463 0.0
C295 C 0.53811 0.30339 0.23955 0.0
C296 C 0.56984 0.32568 0.25822 0.0
C297 C 0.59829 0.33305 0.21099 0.0
C298 C 0.59546 0.31789 0.14687 0.0
C299 C 0.65657 0.32082 0.91044 0.0
O300 O 0.58712 0.32086 0.7744 0.0
O301 O 0.56768 0.2769 0.85452 0.0
O302 O 0.57659 0.42403 0.77032 0.0
O303 O 0.62933 0.39232 0.75652 0.0
O304 O 0.52376 0.37148 0.82623 0.0
O305 O 0.55105 0.36137 0.91441 0.0
O306 O 0.59594 0.3675 1.0046 0.0
O307 O 0.60978 0.40998 0.91873 0.0
O308 O 0.59197 0.27235 1.02911 0.0
O309 O 0.5377 0.30102 1.01971 0.0
O310 O 0.64513 0.29716 0.95554 0.0
O311 O 0.62742 0.33739 0.88726 0.0
H312 H 0.64592 0.43928 0.62238 0.0
H313 H 0.63609 0.41896 0.50655 0.0
H314 H 0.53574 0.35617 0.56465 0.0
H315 H 0.54567 0.37597 0.68021 0.0
H316 H 0.50971 0.27276 0.16096 0.0
H317 H 0.51573 0.29745 0.27506 0.0
H318 H 0.62297 0.35014 0.22414 0.0
H319 H 0.61814 0.32351 0.11195 0.0
Ho320 Ho 0.82034 0.59322 0.69845 0.0
Ho321 Ho 0.8791 0.59799 0.59238 0.0
C322 C 0.90863 0.60829 0.73993 0.0
C323 C 0.78054 0.57705 0.80226 0.0
C324 C 0.7909 0.58175 0.87393 0.0
C325 C 0.81097 0.5527 0.90732 0.0
C326 C 0.82385 0.55785 0.97257 0.0
C327 C 0.81617 0.59178 1.00715 0.0
C328 C 0.7954 0.62057 0.97474 0.0
C329 C 0.78333 0.61581 0.90866 0.0
C330 C 0.8444 0.66564 0.67529 0.0
C331 C 0.79054 0.59035 0.54413 0.0
C332 C 0.9149 0.60621 0.48068 0.0
C333 C 0.90235 0.60872 0.41009 0.0
C334 C 0.87666 0.63683 0.38795 0.0
C335 C 0.86327 0.63661 0.32218 0.0
C336 C 0.87489 0.60808 0.27753 0.0
C337 C 0.901 0.58048 0.2992 0.0
C338 C 0.91469 0.58091 0.36456 0.0
C339 C 0.87521 0.52881 0.65552 0.0
O340 O 0.87649 0.59016 0.75432 0.0
O341 O 0.91529 0.61986 0.67831 0.0
O342 O 0.77441 0.6078 0.76697 0.0
O343 O 0.80051 0.55192 0.76961 0.0
O344 O 0.839 0.65075 0.7329 0.0
O345 O 0.8376 0.64061 0.63129 0.0
O346 O 0.8269 0.59251 0.52842 0.0
O347 O 0.77955 0.58983 0.60782 0.0
O348 O 0.90907 0.57329 0.50903 0.0
O349 O 0.90719 0.63476 0.52043 0.0
O350 O 0.90634 0.54648 0.63923 0.0
O351 O 0.84742 0.54937 0.63767 0.0
H352 H 0.81753 0.52609 0.88255 0.0
H353 H 0.83981 0.53523 0.99627 0.0
H354 H 0.78911 0.64702 1.00027 0.0
H355 H 0.76836 0.63896 0.88462 0.0
H356 H 0.8664 0.65861 0.4216 0.0
H357 H 0.84338 0.65832 0.30634 0.0
H358 H 0.91038 0.55823 0.26568 0.0
H359 H 0.9344 0.55889 0.38003 0.0
Ho360 Ho 0.59238 0.10679 0.50069 0.0
Ho361 Ho 0.59159 0.17252 0.38862 0.0
C362 C 0.57876 0.19512 0.54561 0.0
C363 C 0.60743 0.06468 0.60224 0.0
C364 C 0.60163 0.07307 0.67392 0.0
C365 C 0.62885 0.06154 0.72101 0.0
C366 C 0.62595 0.0733 0.78751 0.0
C367 C 0.5957 0.09676 0.80825 0.0
C368 C 0.56811 0.10772 0.76148 0.0
C369 C 0.57113 0.09618 0.69501 0.0
C370 C 0.5238 0.12545 0.44351 0.0
C371 C 0.60958 0.08257 0.34839 0.0
C372 C 0.57254 0.20305 0.27684 0.0
C373 C 0.57729 0.18794 0.20813 0.0
C374 C 0.54739 0.19046 0.16186 0.0
C375 C 0.55136 0.17518 0.09772 0.0
C376 C 0.58511 0.15647 0.07886 0.0
C377 C 0.6148 0.15337 0.12533 0.0
C378 C 0.61099 0.16898 0.18913 0.0
C379 C 0.664 0.1603 0.43168 0.0
O380 O 0.58973 0.16031 0.56131 0.0
O381 O 0.57384 0.20637 0.48242 0.0
O382 O 0.57671 0.06009 0.56574 0.0
O383 O 0.63308 0.08602 0.57307 0.0
O384 O 0.52742 0.11388 0.50446 0.0
O385 O 0.55629 0.12441 0.41804 0.0
O386 O 0.60496 0.11876 0.33093 0.0
O387 O 0.60686 0.07036 0.41082 0.0
O388 O 0.60379 0.21196 0.30894 0.0
O389 O 0.54825 0.18482 0.31447 0.0
O390 O 0.65435 0.18617 0.38901 0.0
O391 O 0.63367 0.14405 0.45113 0.0
H392 H 0.65292 0.04426 0.70598 0.0
H393 H 0.64767 0.06465 0.82259 0.0
H394 H 0.54473 0.12602 0.77614 0.0
H395 H 0.55012 0.10619 0.65973 0.0
H396 H 0.52079 0.20396 0.17552 0.0
H397 H 0.52797 0.17772 0.06289 0.0
H398 H 0.64097 0.13888 0.11215 0.0
H399 H 0.63437 0.16584 0.22383 0.0
Ho400 Ho 0.17119 0.40625 0.6922 0.0
Ho401 Ho 0.11377 0.39818 0.58457 0.0
C402 C 0.08353 0.38742 0.73016 0.0
C403 C 0.21071 0.42586 0.79518 0.0
C404 C 0.20362 0.41936 0.86711 0.0
C405 C 0.20587 0.44998 0.91163 0.0
C406 C 0.19598 0.44545 0.97861 0.0
C407 C 0.18624 0.40927 1.00549 0.0
C408 C 0.1802 0.37983 0.95801 0.0
C409 C 0.18943 0.3845 0.89071 0.0
C410 C 0.14989 0.33251 0.67385 0.0
C411 C 0.20235 0.40807 0.53997 0.0
C412 C 0.07851 0.38967 0.47171 0.0
C413 C 0.09186 0.38652 0.40192 0.0
C414 C 0.12704 0.36953 0.38664 0.0
C415 C 0.1418 0.37136 0.32217 0.0
C416 C 0.12186 0.39009 0.27135 0.0
C417 C 0.08584 0.4056 0.28578 0.0
C418 C 0.07111 0.40402 0.35056 0.0
C419 C 0.11427 0.46794 0.64664 0.0
O420 O 0.11465 0.40685 0.74612 0.0
O421 O 0.0779 0.37542 0.66855 0.0
O422 O 0.21944 0.39637 0.75803 0.0
O423 O 0.18605 0.44818 0.76646 0.0
O424 O 0.15476 0.34918 0.73018 0.0
O425 O 0.15574 0.35641 0.62736 0.0
O426 O 0.16649 0.40343 0.52292 0.0
O427 O 0.21265 0.41052 0.60367 0.0
O428 O 0.08487 0.42263 0.49972 0.0
O429 O 0.08601 0.36137 0.51183 0.0
O430 O 0.084 0.44863 0.63096 0.0
O431 O 0.14303 0.44848 0.62956 0.0
H432 H 0.21409 0.478 0.89412 0.0
H433 H 0.19488 0.47129 1.00742 0.0
H434 H 0.16717 0.35302 0.97144 0.0
H435 H 0.18466 0.36091 0.85693 0.0
H436 H 0.14364 0.35569 0.42489 0.0
H437 H 0.16926 0.35881 0.31197 0.0
H438 H 0.06978 0.42006 0.24748 0.0
H439 H 0.04398 0.41746 0.36099 0.0
Ho440 Ho 0.40104 0.87748 0.49554 0.0
Ho441 Ho 0.40015 0.81918 0.38501 0.0
C442 C 0.40452 0.79057 0.54222 0.0
C443 C 0.39336 0.91944 0.60036 0.0
C444 C 0.39341 0.90771 0.67177 0.0
C445 C 0.3683 0.87935 0.69564 0.0
C446 C 0.37082 0.86627 0.76136 0.0
C447 C 0.39873 0.88083 0.80477 0.0
C448 C 0.42362 0.9093 0.78129 0.0
C449 C 0.42089 0.92266 0.71574 0.0
C450 C 0.47036 0.85954 0.43823 0.0
C451 C 0.38823 0.90834 0.3471 0.0
C452 C 0.4137 0.77994 0.27933 0.0
C453 C 0.41342 0.79254 0.20816 0.0
C454 C 0.44592 0.80938 0.17899 0.0
C455 C 0.44473 0.82364 0.11386 0.0
C456 C 0.41129 0.82075 0.0755 0.0
C457 C 0.37904 0.80339 0.10399 0.0
C458 C 0.37996 0.78987 0.16954 0.0
C459 C 0.32992 0.84343 0.41841 0.0
O460 O 0.3963 0.82581 0.55798 0.0
O461 O 0.41065 0.78073 0.47852 0.0
O462 O 0.42574 0.9157 0.56907 0.0
O463 O 0.36445 0.90845 0.56377 0.0
O464 O 0.46555 0.86576 0.50098 0.0
O465 O 0.43885 0.86447 0.41124 0.0
O466 O 0.40032 0.87435 0.32783 0.0
O467 O 0.3831 0.91657 0.41087 0.0
O468 O 0.38081 0.77882 0.31007 0.0
O469 O 0.44084 0.79375 0.31724 0.0
O470 O 0.34158 0.83674 0.35886 0.0
O471 O 0.35661 0.83602 0.4595 0.0
H472 H 0.3471 0.86667 0.66324 0.0
H473 H 0.35139 0.84422 0.77806 0.0
H474 H 0.44542 0.92097 0.81365 0.0
H475 H 0.44084 0.94422 0.69894 0.0
H476 H 0.4722 0.81221 0.20689 0.0
H477 H 0.46995 0.83703 0.09333 0.0
H478 H 0.35285 0.80089 0.07573 0.0
H479 H 0.35425 0.77752 0.19015 0.0
Ho480 Ho 0.82329 0.90319 0.64655 0.0
Ho481 Ho 0.88522 0.89085 0.74777 0.0
C482 C 0.91208 0.88279 0.59914 0.0
C483 C 0.79266 0.92419 0.53528 0.0
C484 C 0.80597 0.92078 0.46496 0.0
C485 C 0.82335 0.95199 0.43279 0.0
C486 C 0.8372 0.94856 0.36769 0.0
C487 C 0.83337 0.91404 0.33256 0.0
C488 C 0.81575 0.88298 0.36427 0.0
C489 C 0.80247 0.8862 0.42968 0.0
C490 C 0.82774 0.82978 0.68511 0.0
C491 C 0.79795 0.90823 0.80061 0.0
C492 C 0.91995 0.87171 0.85615 0.0
C493 C 0.90939 0.87589 0.92766 0.0
C494 C 0.87798 0.85623 0.95484 0.0
C495 C 0.86658 0.86261 1.02064 0.0
C496 C 0.88664 0.88839 0.06123 0.0
C497 C 0.91862 0.90731 1.03497 0.0
C498 C 0.92985 0.90115 0.96896 0.0
C499 C 0.88302 0.96251 0.69655 0.0
O500 O 0.87719 0.89485 0.58494 0.0
O501 O 0.92214 0.87493 0.66097 0.0
O502 O 0.78305 0.89287 0.5662 0.0
O503 O 0.81207 0.94713 0.57361 0.0
O504 O 0.79629 0.84766 0.67185 0.0
O505 O 0.85604 0.85202 0.67632 0.0
O506 O 0.8334 0.89786 0.81263 0.0
O507 O 0.78647 0.91563 0.73863 0.0
O508 O 0.92711 0.90337 0.82421 0.0
O509 O 0.89995 0.84764 0.82025 0.0
O510 O 0.91379 0.9441 0.71209 0.0
O511 O 0.8545 0.94198 0.71225 0.0
H512 H 0.82662 0.97904 0.45822 0.0
H513 H 0.85084 0.97289 0.34459 0.0
H514 H 0.81251 0.85604 0.33843 0.0
H515 H 0.7894 0.86148 0.45252 0.0
H516 H 0.86192 0.83615 0.92505 0.0
H517 H 0.8419 0.8476 1.03979 0.0
H518 H 0.93459 0.92725 0.06537 0.0
H519 H 0.95428 0.91659 0.94985 0.0
Ho520 Ho 0.89343 0.10534 0.33673 0.0
Ho521 Ho 0.89835 0.16265 0.44495 0.0
C522 C 0.89967 0.19448 0.29304 0.0
C523 C 0.88213 0.07064 0.22466 0.0
C524 C 0.88468 0.08387 0.15467 0.0
C525 C 0.85555 0.07512 0.10911 0.0
C526 C 0.85788 0.08764 1.0431 0.0
C527 C 0.88951 0.10895 1.02137 0.0
C528 C 0.91863 0.11772 0.06672 0.0
C529 C 0.9162 0.10548 0.13267 0.0
C530 C 0.96424 0.11184 0.39314 0.0
C531 C 0.88901 0.07401 0.48324 0.0
C532 C 0.91415 0.2032 0.54819 0.0
C533 C 0.90793 0.19317 0.61883 0.0
C534 C 0.93588 0.2019 0.66658 0.0
C535 C 0.93233 0.18853 0.73189 0.0
C536 C 0.90113 0.16558 0.75025 0.0
C537 C 0.87321 0.15687 0.70259 0.0
C538 C 0.87647 0.17067 0.63772 0.0
C539 C 0.82623 0.13504 0.42606 0.0
O540 O 0.89991 0.15834 0.27508 0.0
O541 O 0.89874 0.20452 0.35697 0.0
O542 O 0.91419 0.06944 0.25749 0.0
O543 O 0.85432 0.08434 0.26067 0.0
O544 O 0.94787 0.0801 0.37607 0.0
O545 O 0.94172 0.13889 0.37922 0.0
O546 O 0.90686 0.1063 0.49722 0.0
O547 O 0.87508 0.06787 0.42291 0.0
O548 O 0.88392 0.20938 0.51137 0.0
O549 O 0.93913 0.18181 0.51818 0.0
O550 O 0.84244 0.14102 0.48242 0.0
O551 O 0.84978 0.14393 0.38098 0.0
H552 H 0.83096 0.05863 0.12463 0.0
H553 H 0.83502 0.08072 1.00892 0.0
H554 H 0.94316 0.13427 0.05111 0.0
H555 H 0.93907 0.11302 0.16643 0.0
H556 H 0.96069 0.21865 0.65312 0.0
H557 H 0.9542 0.1956 0.76789 0.0
H558 H 0.84896 0.13921 0.71561 0.0
H559 H 0.85472 0.163 0.60207 0.0
Ho560 Ho 0.16762 0.09495 0.64977 0.0
Ho561 Ho 0.10662 0.10044 0.75017 0.0
C562 C 0.07782 0.10759 0.60359 0.0
C563 C 0.2013 0.08244 0.53738 0.0
C564 C 0.1878 0.08487 0.46736 0.0
C565 C 0.16274 0.05727 0.44062 0.0
C566 C 0.14973 0.0601 0.3751 0.0
C567 C 0.16153 0.09047 0.33472 0.0
C568 C 0.18648 0.11805 0.36104 0.0
C569 C 0.19933 0.11536 0.42674 0.0
C570 C 0.15808 0.16697 0.69392 0.0
C571 C 0.1947 0.08783 0.80117 0.0
C572 C 0.07051 0.11534 0.85907 0.0
C573 C 0.0827 0.11401 0.92967 0.0
C574 C 0.11879 0.12769 0.94958 0.0
C575 C 0.13107 0.12381 1.01536 0.0
C576 C 0.10746 0.10647 0.06273 0.0
C577 C 0.07122 0.09328 1.04332 0.0
C578 C 0.05899 0.09695 0.97735 0.0
C579 C 0.11362 0.02937 0.69609 0.0
O580 O 0.1127 0.09572 0.58931 0.0
O581 O 0.06815 0.11598 0.66525 0.0
O582 O 0.20479 0.1144 0.57015 0.0
O583 O 0.18646 0.05566 0.57392 0.0
O584 O 0.1908 0.15081 0.68424 0.0
O585 O 0.13138 0.14342 0.68169 0.0
O586 O 0.15976 0.09941 0.81386 0.0
O587 O 0.20534 0.08021 0.73908 0.0
O588 O 0.06837 0.08242 0.82875 0.0
O589 O 0.08614 0.14166 0.8219 0.0
O590 O 0.08162 0.04575 0.7112 0.0
O591 O 0.1408 0.05154 0.71258 0.0
H592 H 0.15277 0.03364 0.47041 0.0
H593 H 0.13028 0.03867 0.35594 0.0
H594 H 0.19584 0.14179 0.33078 0.0
H595 H 0.21823 0.13727 0.44589 0.0
H596 H 0.13777 0.14111 0.91431 0.0
H597 H 0.15912 0.13418 1.02927 0.0
H598 H 0.05256 0.07982 0.07914 0.0
H599 H 0.03116 0.08604 0.96336 0.0
Ho600 Ho 0.0989 0.88082 0.3454 0.0
Ho601 Ho 0.09144 0.81734 0.45899 0.0
C602 C 0.08341 0.79294 0.30004 0.0
C603 C 0.11782 0.92059 0.24336 0.0
C604 C 0.1103 0.91148 0.17248 0.0
C605 C 0.13615 0.92253 0.12288 0.0
C606 C 0.13111 0.91018 0.05704 0.0
C607 C 0.10012 0.88656 1.03971 0.0
C608 C 0.07394 0.87605 0.08904 0.0
C609 C 0.07904 0.88824 0.15472 0.0
C610 C 0.02758 0.8649 0.3949 0.0
C611 C 0.10929 0.90936 0.49543 0.0
C612 C 0.06829 0.78709 0.56905 0.0
C613 C 0.07357 0.80036 0.63845 0.0
C614 C 0.04672 0.79111 0.68751 0.0
C615 C 0.0511 0.80478 0.75266 0.0
C616 C 0.08215 0.82841 0.76962 0.0
C617 C 0.10876 0.83797 0.72037 0.0
C618 C 0.10463 0.82396 0.65558 0.0
C619 C 0.16597 0.82653 0.43072 0.0
O620 O 0.09511 0.82758 0.28487 0.0
O621 O 0.07638 0.78255 0.36328 0.0
O622 O 0.08795 0.92857 0.28001 0.0
O623 O 0.14153 0.89738 0.27322 0.0
O624 O 0.03359 0.8766 0.3347 0.0
O625 O 0.05909 0.86529 0.42356 0.0
O626 O 0.10137 0.8737 0.51442 0.0
O627 O 0.11205 0.91938 0.43209 0.0
O628 O 0.09896 0.77595 0.53776 0.0
O629 O 0.04684 0.80856 0.53184 0.0
O630 O 0.15273 0.80196 0.47236 0.0
O631 O 0.13829 0.84405 0.40332 0.0
H632 H 0.1607 0.93999 0.13532 0.0
H633 H 0.15168 0.91858 1.01978 0.0
H634 H 0.04996 0.85774 0.07692 0.0
H635 H 0.05896 0.87874 0.192 0.0
H636 H 0.02236 0.77329 0.67545 0.0
H637 H 0.03016 0.79714 0.78978 0.0
H638 H 0.13282 0.85624 0.73218 0.0
H639 H 0.12565 0.83178 0.61873 0.0
C640 C 0.34744 0.95092 0.27425 0.0
C641 C 0.38413 0.93797 0.29419 0.0
C642 C 0.41237 0.97138 0.19886 0.0
C643 C 0.37712 0.98981 0.1867 0.0
N644 N 0.3093 0.97976 0.18696 0.0
N645 N 0.45215 0.93705 0.27612 0.0
C646 C 0.34385 0.97471 0.21694 0.0
C647 C 0.41669 0.94822 0.25611 0.0
N648 N 0.31605 0.94071 0.31016 0.0
N649 N 0.44083 0.97362 0.15282 0.0
H650 H 0.45647 0.91995 0.31744 0.0
H651 H 0.47732 0.94746 0.25545 0.0
H652 H 0.43685 0.98651 0.10679 0.0
H653 H 0.46607 0.95812 0.15578 0.0
H654 H 0.28915 0.95248 0.30273 0.0
H655 H 0.31745 0.92227 0.35055 0.0
H656 H 0.2842 0.96683 0.203 0.0
H657 H 0.30655 0.99329 0.14126 0.0
C658 C 0.94981 0.65019 0.81685 0.0
C659 C 0.93753 0.61334 0.7952 0.0
C660 C 0.96993 0.58533 0.89214 0.0
C661 C 0.98814 0.62053 0.90612 0.0
N662 N 0.9795 0.68842 0.90428 0.0
N663 N 0.94117 0.54522 0.80918 0.0
C664 C 0.97357 0.65378 0.87492 0.0
C665 C 0.94863 0.58089 0.83271 0.0
N666 N 0.9392 0.6817 0.78173 0.0
N667 N 0.97092 0.55663 0.93784 0.0
H668 H 0.92829 0.54086 0.76352 0.0
H669 H 0.95231 0.52062 0.83051 0.0
H670 H 0.98246 0.5605 0.98507 0.0
H671 H 0.95541 0.53137 0.93284 0.0
H672 H 0.95066 0.70876 0.78968 0.0
H673 H 0.92048 0.68044 0.74164 0.0
H674 H 0.96734 0.71374 0.88779 0.0
H675 H 0.99329 0.69113 0.94983 0.0
C676 C 0.64813 0.01934 0.20817 0.0
C677 C 0.61415 0.00117 0.18612 0.0
C678 C 0.57736 0.04398 0.259 0.0
C679 C 0.61154 0.05448 0.29251 0.0
N680 N 0.68014 0.05648 0.29329 0.0
N681 N 0.54552 0.00512 0.17643 0.0
C682 C 0.64717 0.04339 0.26535 0.0
C683 C 0.57847 0.01645 0.20689 0.0
N684 N 0.68061 0.0162 0.17127 0.0
N685 N 0.54406 0.06213 0.27425 0.0
H686 H 0.54509 0.99385 0.12862 0.0
H687 H 0.51858 0.00822 0.19741 0.0
H688 H 0.542 0.08231 0.31188 0.0
H689 H 0.51924 0.05989 0.24621 0.0
H690 H 0.70575 0.03091 0.18179 0.0
H691 H 0.68089 0.00291 0.12504 0.0
H692 H 0.70697 0.04562 0.28187 0.0
H693 H 0.68029 0.07742 0.32987 0.0
C694 C 0.01913 0.33287 0.85222 0.0
C695 C 0.00484 0.36342 0.89072 0.0
C696 C 0.04214 0.4091 0.82541 0.0
C697 C 0.05547 0.37883 0.78426 0.0
N698 N 0.06248 0.31094 0.76663 0.0
N699 N 0.01098 0.42802 0.92806 0.0
C700 C 0.04558 0.34035 0.79995 0.0
C701 C 0.01935 0.40068 0.88198 0.0
N702 N 0.00694 0.29667 0.86574 0.0
N703 N 0.04916 0.44614 0.80803 0.0
H704 H 0.99427 0.42216 0.96964 0.0
H705 H 0.02319 0.45513 0.92853 0.0
H706 H 0.0636 0.4536 0.76495 0.0
H707 H 0.03751 0.46959 0.83231 0.0
H708 H 0.01165 0.27323 0.83515 0.0
H709 H 0.99102 0.29036 0.90805 0.0
H710 H 0.05977 0.28236 0.7796 0.0
H711 H 0.08128 0.31503 0.72759 0.0
C712 C 0.40149 0.52314 0.13808 0.0
C713 C 0.3686 0.49985 0.14312 0.0
C714 C 0.33998 0.53469 0.04942 0.0
C715 C 0.37557 0.55299 1.0369 0.0
N716 N 0.44098 0.56366 0.07015 0.0
N717 N 0.30061 0.50201 0.13062 0.0
C718 C 0.40635 0.54724 0.08205 0.0
C719 C 0.33587 0.51057 0.10635 0.0
N720 N 0.42641 0.52481 0.19021 0.0
N721 N 0.31006 0.54016 1.00715 0.0
H722 H 0.29682 0.4879 0.17556 0.0
H723 H 0.27549 0.51275 0.11041 0.0
H724 H 0.31132 0.55885 0.96706 0.0
H725 H 0.28497 0.5242 1.00947 0.0
H726 H 0.44899 0.54409 0.19335 0.0
H727 H 0.42109 0.51091 0.23495 0.0
H728 H 0.46522 0.55796 0.09809 0.0
H729 H 0.44637 0.58057 1.02901 0.0
C730 C 0.53241 0.58827 1.01808 0.0
C731 C 0.54931 0.62079 0.04887 0.0
C732 C 0.51538 0.66196 0.96872 0.0
C733 C 0.49909 0.62927 0.93808 0.0
N734 N 0.49775 0.56129 0.92438 0.0
N735 N 0.54949 0.68878 0.06331 0.0
C736 C 0.50988 0.59245 0.95954 0.0
C737 C 0.53915 0.6578 1.02626 0.0
N738 N 0.53465 0.55371 0.04865 0.0
N739 N 0.50853 0.69696 0.94164 0.0
H740 H 0.56416 0.68613 0.10806 0.0
H741 H 0.54039 0.71646 0.05382 0.0
H742 H 0.49159 0.70033 0.89945 0.0
H743 H 0.52182 0.72201 0.9572 0.0
H744 H 0.51948 0.52961 1.03378 0.0
H745 H 0.54812 0.55027 0.09398 0.0
H746 H 0.50627 0.53351 0.93422 0.0
H747 H 0.48126 0.56351 0.88152 0.0
C748 C 0.63538 0.4595 0.13954 0.0
C749 C 0.6248 0.49682 0.1193 0.0
C750 C 0.59924 0.46999 1.01604 0.0
C751 C 0.61329 0.43336 1.03188 0.0
N752 N 0.65407 0.39602 0.1032 0.0
N753 N 0.61414 0.53618 1.02405 0.0
C754 C 0.63401 0.4287 0.09234 0.0
C755 C 0.61163 0.50165 0.05347 0.0
N756 N 0.64639 0.4533 0.20346 0.0
N757 N 0.57349 0.47496 0.96597 0.0
H758 H 0.6312 0.55668 0.0454 0.0
H759 H 0.60654 0.54131 0.97489 0.0
H760 H 0.55988 0.45234 0.94213 0.0
H761 H 0.5624 0.50151 0.95361 0.0
H762 H 0.65064 0.42608 0.22275 0.0
H763 H 0.64899 0.47543 0.23789 0.0
H764 H 0.67198 0.39234 0.14393 0.0
H765 H 0.65602 0.37441 0.0678 0.0
C766 C 0.44803 0.34119 1.02252 0.0
C767 C 0.43452 0.37825 1.03888 0.0
C768 C 0.47116 0.40451 0.9448 0.0
C769 C 0.48362 0.36714 0.92798 0.0
N770 N 0.47328 0.29974 0.93665 0.0
N771 N 0.4283 0.44464 1.00861 0.0
C772 C 0.46848 0.33547 0.96234 0.0
C773 C 0.44427 0.40967 0.99735 0.0
N774 N 0.44256 0.31149 0.06518 0.0
N775 N 0.48622 0.43527 0.91251 0.0
H776 H 0.4113 0.45057 0.04963 0.0
H777 H 0.43024 0.46734 0.97557 0.0
H778 H 0.50424 0.4327 0.87177 0.0
H779 H 0.48243 0.46336 0.92796 0.0
H780 H 0.45526 0.28489 0.05873 0.0
H781 H 0.42815 0.31422 0.11001 0.0
H782 H 0.45991 0.27559 0.95589 0.0
H783 H 0.48788 0.29508 0.89232 0.0
C784 C 0.91232 0.45351 0.77389 0.0
C785 C 0.87929 0.44371 0.81071 0.0
C786 C 0.84048 0.48017 0.73029 0.0
C787 C 0.87429 0.49361 0.69926 0.0
N788 N 0.93808 0.47503 0.66923 0.0
N789 N 0.81146 0.44844 0.82497 0.0
C790 C 0.90898 0.47475 0.71422 0.0
C791 C 0.84315 0.4572 0.78897 0.0
N792 N 0.94739 0.44387 0.79764 0.0
N793 N 0.80618 0.4856 0.69964 0.0
H794 H 0.81292 0.43156 0.86725 0.0
H795 H 0.78474 0.46038 0.8164 0.0
H796 H 0.80393 0.49841 0.65325 0.0
H797 H 0.78066 0.47379 0.71622 0.0
H798 H 0.97277 0.45337 0.77655 0.0
H799 H 0.95078 0.43055 0.84324 0.0
H800 H 0.96304 0.45932 0.67498 0.0
H801 H 0.9349 0.48628 0.62175 0.0
C802 C 0.47264 0.15293 0.36966 0.0
C803 C 0.48874 0.12063 0.40131 0.0
C804 C 0.452 0.07837 0.32701 0.0
C805 C 0.43724 0.11057 0.29252 0.0
N806 N 0.43407 0.17896 0.28007 0.0
N807 N 0.48674 0.05286 0.42108 0.0
C808 C 0.44762 0.14804 0.31384 0.0
C809 C 0.47591 0.08349 0.38374 0.0
N810 N 0.48014 0.18828 0.39545 0.0
N811 N 0.44596 0.04264 0.30182 0.0
H812 H 0.5056 0.0548 0.46081 0.0
H813 H 0.47449 0.02589 0.41665 0.0
H814 H 0.43055 0.03787 0.25862 0.0
H815 H 0.4595 0.01819 0.31897 0.0
H816 H 0.46753 0.21341 0.37928 0.0
H817 H 0.49742 0.19218 0.43712 0.0
H818 H 0.44346 0.2068 0.28757 0.0
H819 H 0.41432 0.1768 0.24171 0.0
C820 C 0.07474 0.54777 0.7561 0.0
C821 C 0.1071 0.5568 0.7961 0.0
C822 C 0.14676 0.51794 0.72084 0.0
C823 C 0.11371 0.50406 0.68826 0.0
N824 N 0.05042 0.52113 0.65315 0.0
N825 N 0.17356 0.54474 0.82102 0.0
C826 C 0.07875 0.52341 0.69961 0.0
C827 C 0.14301 0.54031 0.77974 0.0
N828 N 0.03952 0.56049 0.77442 0.0
N829 N 0.18167 0.51309 0.69222 0.0
H830 H 0.17268 0.56066 0.86458 0.0
H831 H 0.19905 0.52999 0.81439 0.0
H832 H 0.185 0.50057 0.6457 0.0
H833 H 0.20647 0.52579 0.71056 0.0
H834 H 0.01427 0.55125 0.7524 0.0
H835 H 0.03513 0.57752 0.81595 0.0
H836 H 0.02542 0.53704 0.65497 0.0
H837 H 0.05427 0.50758 0.60761 0.0
C838 C 0.54683 0.84146 0.30886 0.0
C839 C 0.55922 0.87941 0.29423 0.0
C840 C 0.51976 0.90326 0.3876 0.0
C841 C 0.50656 0.86563 0.40003 0.0
N842 N 0.51419 0.79835 0.38502 0.0
N843 N 0.56083 0.94604 0.32608 0.0
C844 C 0.52212 0.83461 0.36415 0.0
C845 C 0.54701 0.91003 0.33615 0.0
N846 N 0.5587 0.81174 0.27018 0.0
N847 N 0.50409 0.93302 0.422 0.0
H848 H 0.57588 0.95383 0.28397 0.0
H849 H 0.55842 0.96819 0.36023 0.0
H850 H 0.48541 0.92924 0.46158 0.0
H851 H 0.5078 0.96158 0.40963 0.0
H852 H 0.54673 0.78456 0.27177 0.0
H853 H 0.57975 0.81432 0.23427 0.0
H854 H 0.52693 0.77394 0.36588 0.0
H855 H 0.49684 0.79289 0.42597 0.0
C856 C 0.84911 0.01372 0.62742 0.0
C857 C 0.88321 -0.00287 0.6519 0.0
C858 C 0.91996 0.03116 0.56719 0.0
C859 C 0.88593 0.04498 0.53785 0.0
N860 N 0.8174 0.04963 0.54034 0.0
N861 N 0.95045 0.00932 0.66731 0.0
C862 C 0.85023 0.03644 0.56832 0.0
C863 C 0.91855 0.0116 0.62859 0.0
N864 N 0.81644 0.01045 0.66382 0.0
N865 N 0.95375 0.03468 0.53442 0.0
H866 H 0.94941 0.00042 0.71655 0.0
H867 H 0.97638 0.02193 0.65453 0.0
H868 H 0.95538 0.04648 0.48731 0.0
H869 H 0.97875 0.0214 0.55004 0.0
H870 H 0.79088 0.02382 0.65202 0.0
H871 H 0.81606 -0.0023 0.71042 0.0
H872 H 0.79019 0.04107 0.55459 0.0
H873 H 0.81754 0.06763 0.49957 0.0
C874 C 0.03246 0.14513 0.52941 0.0
C875 C 0.04955 0.10982 0.54759 0.0
C876 C 0.02119 0.08024 0.44786 0.0
C877 C -0.00033 0.11376 0.43608 0.0
N878 N 0.00407 0.18205 0.44063 0.0
N879 N 0.05721 0.04243 0.52603 0.0
C880 C 0.01072 0.14756 0.46956 0.0
C881 C 0.04354 0.07714 0.50667 0.0
N882 N 0.03604 0.17628 0.56968 0.0
N883 N 0.02246 0.05242 0.40038 0.0
H884 H 0.07237 0.03853 0.56981 0.0
H885 H 0.05021 0.01687 0.50249 0.0
H886 H 0.00993 0.05586 0.35387 0.0
H887 H 0.04021 0.0287 0.40308 0.0
H888 H 0.02072 0.20136 0.56228 0.0
H889 H 0.0519 0.17617 0.61334 0.0
H890 H 0.01558 0.20745 0.4587 0.0
H891 H 0.99154 0.18454 0.39395 0.0
C892 C 0.14543 0.96032 0.56124 0.0
C893 C 0.11127 0.93945 0.54885 0.0
C894 C 0.08251 0.96995 0.64741 0.0
C895 C 0.11577 0.9928 0.65596 0.0
N896 N 0.18399 0.99102 0.64554 0.0
N897 N 0.04522 0.92807 0.57643 0.0
C898 C 0.14889 0.98267 0.62012 0.0
C899 C 0.07938 0.94492 0.59158 0.0
N900 N 0.17419 0.96039 0.51581 0.0
N901 N 0.05532 0.96978 0.6959 0.0
H902 H 0.04146 0.91015 0.53572 0.0
H903 H 0.01971 0.93455 0.60023 0.0
H904 H 0.0591 0.98403 0.74087 0.0
H905 H 0.03178 0.95163 0.69605 0.0
H906 H 0.19816 0.97791 0.52029 0.0
H907 H 0.17247 0.94583 0.47086 0.0
H908 H 0.20921 0.98112 0.62432 0.0
H909 H 0.18753 0.00375 0.69189 0.0
C910 C 0.97668 0.90563 0.44955 0.0
C911 C 0.9914 0.86901 0.43378 0.0
C912 C 0.95649 0.84194 0.5284 0.0
C913 C 0.93986 0.87807 0.54261 0.0
N914 N 0.92844 0.94281 0.50536 0.0
N915 N 0.9848 0.80122 0.44446 0.0
C916 C 0.94782 0.90927 0.49915 0.0
C917 C 0.97767 0.83687 0.4687 0.0
N918 N 0.9919 0.93743 0.42063 0.0
N919 N 0.95328 0.81251 0.57227 0.0
H920 H 0.00012 0.79695 0.40078 0.0
H921 H 0.97265 0.77657 0.46425 0.0
H922 H 0.93803 0.8143 0.61634 0.0
H923 H 0.96841 0.78711 0.56722 0.0
H924 H 0.98613 0.96505 0.43694 0.0
H925 H 0.01238 0.93631 0.38333 0.0
H926 H 0.92922 0.96409 0.46938 0.0
H927 H 0.90967 0.94856 0.54388 0.0
C928 C 0.35842 0.22616 0.13608 0.0
C929 C 0.33708 0.20333 0.18059 0.0
C930 C 0.31642 0.26158 0.23784 0.0
C931 C 0.33371 0.28425 0.18837 0.0
N932 N 0.35987 0.28605 0.07738 0.0
N933 N 0.2848 0.20175 0.2592 0.0
C934 C 0.3515 0.26608 0.13348 0.0
C935 C 0.31285 0.22169 0.22745 0.0
N936 N 0.38658 0.21039 0.09866 0.0
N937 N 0.30381 0.27792 0.2952 0.0
H938 H 0.27792 0.17364 0.24715 0.0
H939 H 0.26496 0.21474 0.29032 0.0
H940 H 0.30769 0.30685 0.30551 0.0
H941 H 0.29358 0.26197 0.335 0.0
H942 H 0.40473 0.22662 0.06897 0.0
H943 H 0.39449 0.182 0.1041 0.0
H944 H 0.36977 0.27285 1.03435 0.0
H945 H 0.35335 0.31484 0.07156 0.0
C946 C 0.2667 0.69365 0.92768 0.0
C947 C 0.28171 0.66099 0.89529 0.0
C948 C 0.21642 0.64274 0.86581 0.0
C949 C 0.20166 0.66852 0.91399 0.0
N950 N 0.21446 0.72031 0.99036 0.0
N951 N 0.26984 0.60291 0.83486 0.0
C952 C 0.22728 0.69483 0.94431 0.0
C953 C 0.2563 0.63514 0.8643 0.0
N954 N 0.29024 0.72371 0.94183 0.0
N955 N 0.19327 0.62832 0.81754 0.0
H956 H 0.29887 0.59677 0.83296 0.0
H957 H 0.25192 0.58153 0.81657 0.0
H958 H 0.16487 0.6365 0.81246 0.0
H959 H 0.2038 0.6126 0.77765 0.0
H960 H 0.2805 0.74964 0.96055 0.0
H961 H 0.31883 0.72408 0.92741 0.0
H962 H 0.23262 0.73705 1.01931 0.0
H963 H 0.18587 0.72281 1.00314 0.0
C964 C 0.68058 0.77126 0.24072 0.0
C965 C 0.65827 0.79013 0.1915 0.0
C966 C 0.64141 0.72754 0.1463 0.0
C967 C 0.65662 0.70914 0.20325 0.0
N968 N 0.6872 0.71513 0.30979 0.0
N969 N 0.60954 0.78405 0.10761 0.0
C970 C 0.67487 0.7316 0.25236 0.0
C971 C 0.63635 0.76767 0.14712 0.0
N972 N 0.70916 0.79026 0.2731 0.0
N973 N 0.63464 0.70764 0.08938 0.0
H974 H 0.60259 0.81276 0.11182 0.0
H975 H 0.59127 0.7681 0.07747 0.0
H976 H 0.64146 0.67895 0.08409 0.0
H977 H 0.62658 0.72095 0.04534 0.0
H978 H 0.72789 0.77686 0.30571 0.0
H979 H 0.71769 0.81781 0.26045 0.0
H980 H 0.69781 0.73094 0.34961 0.0
H981 H 0.68343 0.68616 0.31983 0.0
C982 C 0.75135 0.37016 0.9294 0.0
C983 C 0.77618 0.3385 0.9303 0.0
C984 C 0.72274 0.29606 0.90165 0.0
C985 C 0.69803 0.32812 0.89962 0.0
N986 N 0.69219 0.39603 0.88819 0.0
N987 N 0.78564 0.27054 0.92572 0.0
C988 C 0.71324 0.36536 0.90692 0.0
C989 C 0.76193 0.30115 0.9185 0.0
N990 N 0.7639 0.40457 0.95273 0.0
N991 N 0.70874 0.26099 0.88402 0.0
H992 H 0.81451 0.27323 0.93709 0.0
H993 H 0.77648 0.24232 0.92574 0.0
H994 H 0.68056 0.25689 0.86894 0.0
H995 H 0.72518 0.23654 0.87877 0.0
H996 H 0.74616 0.42808 0.95913 0.0
H997 H 0.79131 0.40819 0.97217 0.0
H998 H 0.70244 0.42396 0.88845 0.0
H999 H 0.66684 0.39247 0.86235 0.0
C1000 C 0.8626 0.73108 0.63281 0.0
C1001 C 0.83679 0.70707 0.66672 0.0
C1002 C 0.80334 0.76327 0.71003 0.0
C1003 C 0.82946 0.78743 0.67618 0.0
N1004 N 0.86907 0.7919 0.57854 0.0
N1005 N 0.77417 0.70063 0.71468 0.0
C1006 C 0.85503 0.77082 0.62974 0.0
C1007 C 0.80454 0.72327 0.69853 0.0
N1008 N 0.89473 0.71643 0.6047 0.0
N1009 N 0.77741 0.77813 0.75333 0.0
H1010 H 0.77291 0.67185 0.70167 0.0
H1011 H 0.7485 0.71124 0.7329 0.0
H1012 H 0.77317 0.80725 0.75964 0.0
H1013 H 0.76137 0.76135 0.78557 0.0
H1014 H 0.91596 0.73363 0.58419 0.0
H1015 H 0.90132 0.68749 0.60689 0.0
H1016 H 0.8845 0.77972 0.53977 0.0
H1017 H 0.86074 0.81996 0.56997 0.0
C1018 C 0.75916 0.10987 0.42018 0.0
C1019 C 0.7843 0.14157 0.42222 0.0
C1020 C 0.73039 0.18358 0.44958 0.0
C1021 C 0.70509 0.15189 0.44591 0.0
N1022 N 0.69767 0.08373 0.451 0.0
N1023 N 0.79396 0.20946 0.43144 0.0
C1024 C 0.72011 0.11462 0.43818 0.0
C1025 C 0.76992 0.1787 0.43526 0.0
N1026 N 0.77224 0.07555 0.39762 0.0
N1027 N 0.71648 0.21807 0.47006 0.0
H1028 H 0.82283 0.20699 0.42008 0.0
H1029 H 0.78516 0.23772 0.43421 0.0
H1030 H 0.68804 0.22178 0.48377 0.0
H1031 H 0.73319 0.24201 0.4796 0.0
H1032 H 0.75465 0.05206 0.38887 0.0
H1033 H 0.80029 0.07184 0.38163 0.0
H1034 H 0.70788 0.05586 0.4527 0.0
H1035 H 0.66958 0.08648 0.46631 0.0
C1036 C 0.18153 0.27234 0.7129 0.0
C1037 C 0.15479 0.29006 0.66975 0.0
C1038 C 0.13431 0.2263 0.63352 0.0
C1039 C 0.15499 0.20932 0.68666 0.0
N1040 N 0.19467 0.21816 0.78333 0.0
N1041 N 0.10107 0.28268 0.59615 0.0
C1042 C 0.17751 0.23299 0.7283 0.0
C1043 C 0.12987 0.2667 0.63187 0.0
N1044 N 0.21187 0.29265 0.73695 0.0
N1045 N 0.12118 0.2046 0.58208 0.0
H1046 H 0.09646 0.31196 0.59567 0.0
H1047 H 0.07994 0.26652 0.57274 0.0
H1048 H 0.12648 0.17549 0.57791 0.0
H1049 H 0.10896 0.21646 0.53974 0.0
H1050 H 0.23373 0.2803 0.76455 0.0
H1051 H 0.21773 0.32052 0.72193 0.0
H1052 H 0.2086 0.23503 0.81848 0.0
H1053 H 0.19163 0.18966 0.79727 0.0
C1054 C 0.26602 0.86741 0.45735 0.0
C1055 C 0.28865 0.83767 0.43141 0.0
C1056 C 0.23059 0.803 0.39804 0.0
C1057 C 0.20785 0.83278 0.42481 0.0
N1058 N 0.2059 0.88214 0.50828 0.0
N1059 N 0.29255 0.77224 0.39538 0.0
C1060 C 0.22598 0.86205 0.46234 0.0
C1061 C 0.2709 0.80395 0.40701 0.0
N1062 N 0.28239 0.901 0.47659 0.0
N1063 N 0.21362 0.77322 0.3655 0.0
H1064 H 0.32178 0.77147 0.40511 0.0
H1065 H 0.2812 0.74566 0.38315 0.0
H1066 H 0.18416 0.76943 0.3638 0.0
H1067 H 0.22864 0.75328 0.33757 0.0
H1068 H 0.26634 0.92482 0.49003 0.0
H1069 H 0.31172 0.9057 0.47433 0.0
H1070 H 0.2191 0.9001 0.54269 0.0
H1071 H 0.17711 0.8772 0.51725 0.0
C1072 C 0.21472 0.05651 0.9106 0.0
C1073 C 0.22137 0.0847 0.86071 0.0
C1074 C 0.26482 0.11778 0.93926 0.0
C1075 C 0.26148 0.08753 0.9863 0.0
N1076 N 0.236 0.02561 1.01239 0.0
N1077 N 0.25638 0.14011 0.82585 0.0
C1078 C 0.23693 0.05633 0.97089 0.0
C1079 C 0.2477 0.11457 0.87464 0.0
N1080 N 0.18668 0.02995 0.90069 0.0
N1081 N 0.28326 0.15058 0.95769 0.0
H1082 H 0.24484 0.13834 0.77831 0.0
H1083 H 0.2771 0.16124 0.83046 0.0
H1084 H 0.29475 0.15455 1.00495 0.0
H1085 H 0.28387 0.17525 0.92911 0.0
H1086 H 0.17684 0.01176 0.9377 0.0
H1087 H 0.17173 0.0275 0.85612 0.0
H1088 H 0.2223 4e-05 1.00084 0.0
H1089 H 0.251 0.02485 0.05703 0.0
C1090 C 0.04589 0.73617 0.14569 0.0
C1091 C 0.08043 0.72936 0.11019 0.0
C1092 C 0.11628 0.75904 0.2038 0.0
C1093 C 0.08198 0.76561 0.2404 0.0
N1094 N 0.01349 0.76409 0.24177 0.0
N1095 N 0.14777 0.72632 0.11187 0.0
C1096 C 0.04661 0.75478 0.21016 0.0
C1097 C 0.11534 0.73895 0.14163 0.0
N1098 N 0.01248 0.72303 0.1191 0.0
N1099 N 0.14991 0.77374 0.22699 0.0
H1100 H 0.17501 0.72785 0.13251 0.0
H1101 H 0.17501 0.72785 0.13251 0.0
H1102 H 0.15249 0.78683 0.27308 0.0
H1103 H 0.17464 0.77587 0.19876 0.0
H1104 H 0.98653 0.72281 0.14398 0.0
H1105 H 0.01113 0.7105 0.0722 0.0
H1106 H 0.98649 0.76129 0.22089 0.0
H1107 H 0.01319 0.77636 0.28887 0.0
C1108 C 0.73665 0.94591 0.94799 0.0
C1109 C 0.73318 0.91275 0.98852 0.0
C1110 C 0.76947 0.8765 0.90378 0.0
C1111 C 0.77167 0.90925 0.86136 0.0
N1112 N 0.75436 0.97465 0.84201 0.0
N1113 N 0.74117 0.845 0.99944 0.0
C1114 C 0.75415 0.94376 0.88318 0.0
C1115 C 0.74845 0.87778 0.96489 0.0
N1116 N 0.72403 0.97992 0.97278 0.0
N1117 N 0.78792 0.84375 0.88605 0.0
H1118 H 0.72771 0.84477 0.04549 0.0
H1119 H 0.74608 0.81773 0.9809 0.0
H1120 H 0.80142 0.84008 0.84065 0.0
H1121 H 0.792 0.82074 0.91777 0.0
H1122 H 0.72808 0.00615 0.94985 0.0
H1123 H 0.71176 0.98227 1.01969 0.0
H1124 H 0.73914 -0.00043 0.8508 0.0
H1125 H 0.76798 0.97461 0.79618 0.0
C1126 C 0.85578 0.24218 0.14031 0.0
C1127 C 0.88689 0.26299 0.11195 0.0
C1128 C 0.92669 0.24184 0.20769 0.0
C1129 C 0.89496 0.223 0.23696 0.0
N1130 N 0.82727 0.2126 0.2375 0.0
N1131 N 0.94884 0.29161 0.13382 0.0
C1132 C 0.85897 0.22553 0.20502 0.0
C1133 C 0.92166 0.26523 0.14952 0.0
N1134 N 0.82285 0.23743 0.10465 0.0
N1135 N 0.962 0.23711 0.23501 0.0
H1136 H 0.94555 0.31157 0.09643 0.0
H1137 H 0.97259 0.29703 0.16349 0.0
H1138 H 0.9663 0.22197 0.27887 0.0
H1139 H 0.98703 0.24611 0.21195 0.0
H1140 H 0.80125 0.21856 0.11823 0.0
H1141 H 0.81815 0.24978 0.05841 0.0
H1142 H 0.79953 0.21731 0.221 0.0
H1143 H 0.82847 0.20049 0.28466 0.0
C1144 C 0.24663 0.37515 0.37633 0.0
C1145 C 0.26565 0.40842 0.35321 0.0
C1146 C 0.24781 0.44114 0.45843 0.0
C1147 C 0.23038 0.4072 0.48256 0.0
N1148 N 0.22022 0.33977 0.46952 0.0
N1149 N 0.28955 0.4714 0.37727 0.0
C1150 C 0.232 0.37361 0.44276 0.0
C1151 C 0.26775 0.4409 0.39594 0.0
N1152 N 0.24193 0.34505 0.33398 0.0
N1153 N 0.24421 0.47405 0.49421 0.0
H1154 H 0.30267 0.47306 0.33096 0.0
H1155 H 0.29629 0.49402 0.40874 0.0
H1156 H 0.23134 0.47475 0.5408 0.0
H1157 H 0.25215 0.50079 0.47651 0.0
H1158 H 0.22613 0.32072 0.34511 0.0
H1159 H 0.25079 0.34604 0.28471 0.0
H1160 H 0.2237 0.31343 0.44647 0.0
H1161 H 0.21013 0.33763 0.51803 0.0
C1162 C 0.43794 0.72581 0.68804 0.0
C1163 C 0.40644 0.72926 0.7327 0.0
C1164 C 0.37147 0.76358 0.64395 0.0
C1165 C 0.40404 0.76317 0.6013 0.0
N1166 N 0.47031 0.74769 0.5879 0.0
N1167 N 0.34514 0.75649 0.75518 0.0
C1168 C 0.43779 0.74511 0.62477 0.0
C1169 C 0.37392 0.74987 0.71109 0.0
N1170 N 0.46803 0.70336 0.7058 0.0
N1171 N 0.3374 0.77591 0.61899 0.0
H1172 H 0.34616 0.74681 0.80404 0.0
H1173 H 0.32219 0.77443 0.74555 0.0
H1174 H 0.33419 0.78458 0.56984 0.0
H1175 H 0.31166 0.77389 0.64439 0.0
H1176 H 0.48957 0.69532 0.67317 0.0
H1177 H 0.47044 0.69129 0.75285 0.0
H1178 H 0.49702 0.73926 0.605 0.0
H1179 H 0.4709 0.76032 0.54116 0.0
C1180 C 0.74902 0.61869 0.37358 0.0
C1181 C 0.72426 0.58773 0.3575 0.0
C1182 C 0.74042 0.5588 0.46734 0.0
C1183 C 0.76297 0.59109 0.48509 0.0
N1184 N 0.78266 0.65507 0.45881 0.0
N1185 N 0.69283 0.53026 0.39421 0.0
C1186 C 0.76548 0.62188 0.43895 0.0
C1187 C 0.71889 0.55851 0.4062 0.0
N1188 N 0.75706 0.64521 0.3261 0.0
N1189 N 0.74096 0.52746 0.5074 0.0
H1190 H 0.67895 0.52708 0.34874 0.0
H1191 H 0.68357 0.51116 0.43028 0.0
H1192 H 0.75536 0.52701 0.55267 0.0
H1193 H 0.72912 0.50125 0.49416 0.0
H1194 H 0.77687 0.66709 0.33203 0.0
H1195 H 0.74614 0.64355 0.2782 0.0
H1196 H 0.78253 0.6801 0.43117 0.0
H1197 H 0.79394 0.65881 0.50629 0.0
C1198 C 0.60878 0.2382 0.6306 0.0
C1199 C 0.57504 0.2219 0.60466 0.0
C1200 C 0.54069 0.24379 0.70579 0.0
C1201 C 0.57526 0.2583 0.73347 0.0
N1202 N 0.64364 0.26293 0.72623 0.0
N1203 N 0.50969 0.20371 0.62228 0.0
C1204 C 0.60974 0.25366 0.69666 0.0
C1205 C 0.54121 0.2231 0.64378 0.0
N1206 N 0.63969 0.23864 0.58983 0.0
N1207 N 0.50707 0.25108 0.73735 0.0
H1208 H 0.50872 0.18999 0.57633 0.0
H1209 H 0.48549 0.19948 0.65124 0.0
H1210 H 0.50589 0.26499 0.78303 0.0
H1211 H 0.48043 0.24535 0.71666 0.0
H1212 H 0.66553 0.2521 0.60055 0.0
H1213 H 0.66553 0.2521 0.60055 0.0
H1214 H 0.67025 0.25663 0.70636 0.0
H1215 H 0.64524 0.27379 0.77429 0.0
C1216 C 0.31062 0.0687 0.62919 0.0
C1217 C 0.33146 0.08298 0.57388 0.0
C1218 C 0.37915 0.11082 0.65019 0.0
C1219 C 0.35919 0.09526 0.70511 0.0
N1220 N 0.30802 0.05658 0.74797 0.0
N1221 N 0.38944 0.1107 0.53113 0.0
C1222 C 0.32543 0.07345 0.69482 0.0
C1223 C 0.36677 0.10225 0.5843 0.0
N1224 N 0.27624 0.05116 0.61896 0.0
N1225 N 0.40958 0.13451 0.66114 0.0
H1226 H 0.38184 0.10418 0.4824 0.0
H1227 H 0.41724 0.12094 0.53534 0.0
H1228 H 0.41991 0.14074 0.70847 0.0
H1229 H 0.42281 0.1503 0.62401 0.0
H1230 H 0.2573 0.04393 0.65651 0.0
H1231 H 0.26555 0.04512 0.57197 0.0
H1232 H 0.28579 0.03699 0.74425 0.0
H1233 H 0.31717 0.06056 0.79673 0.0
C1234 C 0.10979 0.62942 0.49768 0.0
C1235 C 0.08448 0.66021 0.5102 0.0
C1236 C 0.06954 0.66353 0.3908 0.0
C1237 C 0.09729 0.63493 0.37791 0.0
N1238 N 0.14821 0.59494 0.41761 0.0
N1239 N 0.04276 0.70921 0.46853 0.0
C1240 C 0.11861 0.61906 0.43102 0.0
C1241 C 0.06501 0.67798 0.45663 0.0
N1242 N 0.1243 0.60905 0.54965 0.0
N1243 N 0.0466 0.67595 0.34041 0.0
H1244 H 0.03746 0.7196 0.51604 0.0
H1245 H 0.03143 0.72634 0.43137 0.0
H1246 H 0.0492 0.66632 0.29168 0.0
H1247 H 0.02315 0.69366 0.34731 0.0
H1248 H 0.1394 0.58372 0.54391 0.0
H1249 H 0.11835 0.61552 0.59905 0.0
H1250 H 0.16754 0.58571 0.45333 0.0
H1251 H 0.15553 0.58665 0.3696 0.0
C1252 C 0.63843 0.89122 0.58788 0.0
C1253 C 0.66893 0.91717 0.57599 0.0
C1254 C 0.66982 0.93312 0.69522 0.0
C1255 C 0.6428 0.9037 0.70783 0.0
N1256 N 0.60602 0.85039 0.66674 0.0
N1257 N 0.71676 0.95994 0.62031 0.0
C1258 C 0.62837 0.88156 0.65425 0.0
C1259 C 0.68542 0.93742 0.63024 0.0
N1260 N 0.61784 0.87699 0.53573 0.0
N1261 N 0.67955 0.95796 0.74479 0.0
H1262 H 0.72848 0.96478 0.57367 0.0
H1263 H 0.7329 0.97151 0.65885 0.0
H1264 H 0.66873 0.95589 0.79278 0.0
H1265 H 0.69559 0.98259 0.73694 0.0
H1266 H 0.59287 0.86118 0.54156 0.0
H1267 H 0.62336 0.88431 0.48658 0.0
H1268 H 0.59809 0.8308 0.63031 0.0
H1269 H 0.59829 0.84208 0.71449 0.0
C1270 C 0.87408 0.35349 0.43096 0.0
C1271 C 0.90223 0.33974 0.38621 0.0
C1272 C 0.93221 0.30388 0.4781 0.0
C1273 C 0.90483 0.31884 0.52334 0.0
N1274 N 0.85455 0.36381 0.54517 0.0
N1275 N 0.96001 0.30444 0.36733 0.0
C1276 C 0.87699 0.34515 0.50023 0.0
C1277 C 0.93189 0.3157 0.41001 0.0
N1278 N 0.8442 0.37437 0.40708 0.0
N1279 N 0.95795 0.27752 0.49993 0.0
H1280 H 0.95949 0.3106 0.31678 0.0
H1281 H 0.98487 0.29066 0.38186 0.0
H1282 H 0.96 0.26908 0.54929 0.0
H1283 H 0.97595 0.2622 0.46897 0.0
H1284 H 0.82022 0.38123 0.435 0.0
H1285 H 0.84202 0.38281 0.3577 0.0
H1286 H 0.83666 0.38639 0.53302 0.0
H1287 H 0.8563 0.35916 0.59613 0.0
C1288 C 0.37668 0.36481 0.67335 0.0
C1289 C 0.36409 0.39074 0.62398 0.0
C1290 C 0.32332 0.42281 0.70629 0.0
C1291 C 0.33763 0.39822 0.7565 0.0
N1292 N 0.38291 0.35046 0.79057 0.0
N1293 N 0.32914 0.44725 0.59401 0.0
C1294 C 0.36568 0.37046 0.74072 0.0
C1295 C 0.33835 0.42051 0.64064 0.0
N1296 N 0.39833 0.33409 0.65545 0.0
N1297 N 0.2947 0.44782 0.72112 0.0
H1298 H 0.33895 0.4461 0.54526 0.0
H1299 H 0.31396 0.47203 0.60433 0.0
H1300 H 0.28436 0.45171 0.76906 0.0
H1301 H 0.27949 0.46306 0.68567 0.0
H1302 H 0.40486 0.31175 0.68742 0.0
H1303 H 0.40741 0.32932 0.60692 0.0
H1304 H 0.40649 0.33294 0.78344 0.0
H1305 H 0.37577 0.35388 0.84041 0.0
C1306 C 0.42694 0.66901 0.37796 0.0
C1307 C 0.40784 0.6505 0.32442 0.0
C1308 C 0.38036 0.60415 0.40325 0.0
C1309 C 0.40059 0.62177 0.45629 0.0
N1310 N 0.44875 0.66642 0.49232 0.0
N1311 N 0.37378 0.59524 0.28428 0.0
C1312 C 0.42549 0.65293 0.44303 0.0
C1313 C 0.38668 0.61652 0.33664 0.0
N1314 N 0.44562 0.70269 0.36715 0.0
N1315 N 0.35402 0.5764 0.4167 0.0
H1316 H 0.37845 0.60296 0.23503 0.0
H1317 H 0.36179 0.56819 0.28932 0.0
H1318 H 0.34876 0.5664 0.46449 0.0
H1319 H 0.33526 0.56541 0.3814 0.0
H1320 H 0.45573 0.72027 0.40498 0.0
H1321 H 0.4491 0.71435 0.32015 0.0
H1322 H 0.47062 0.68602 0.48444 0.0
H1323 H 0.4484 0.65562 0.54046 0.0
C1324 C 0.61392 0.60215 0.74833 0.0
C1325 C 0.64847 0.58234 0.76171 0.0
C1326 C 0.65105 0.56253 0.64442 0.0
C1327 C 0.61995 0.58694 0.62966 0.0
N1328 N 0.57391 0.63328 0.66653 0.0
N1329 N 0.70189 0.54596 0.72021 0.0
C1330 C 0.60188 0.60759 0.68142 0.0
C1331 C 0.66743 0.5629 0.70918 0.0
N1332 N 0.59177 0.61447 0.79979 0.0
N1333 N 0.66424 0.53799 0.597 0.0
H1334 H 0.71436 0.54422 0.76687 0.0
H1335 H 0.71938 0.53591 0.68233 0.0
H1336 H 0.65329 0.53707 0.54891 0.0
H1337 H 0.68348 0.51615 0.60704 0.0
H1338 H 0.56452 0.62569 0.79355 0.0
H1339 H 0.5989 0.60981 0.84934 0.0
H1340 H 0.5626 0.65225 0.70106 0.0
H1341 H 0.56407 0.63779 0.61836 0.0
C1342 C 0.60052 0.33685 0.43986 0.0
C1343 C 0.58109 0.37079 0.45804 0.0
C1344 C 0.55211 0.37379 0.34682 0.0
C1345 C 0.57357 0.34126 0.32727 0.0
N1346 N 0.62248 0.29508 0.35192 0.0
N1347 N 0.54175 0.42421 0.42795 0.0
C1348 C 0.59903 0.32376 0.37292 0.0
C1349 C 0.55773 0.38996 0.41123 0.0
N1350 N 0.61958 0.31646 0.48717 0.0
N1351 N 0.52615 0.3891 0.30383 0.0
H1352 H 0.54457 0.43635 0.47496 0.0
H1353 H 0.52783 0.4419 0.39444 0.0
H1354 H 0.52283 0.37959 0.25515 0.0
H1355 H 0.50633 0.40977 0.31718 0.0
H1356 H 0.63043 0.28923 0.47921 0.0
H1357 H 0.62213 0.32548 0.53629 0.0
H1358 H 0.64473 0.2841 0.38021 0.0
H1359 H 0.62163 0.28396 0.30401 0.0
C1360 C 0.86254 0.6212 0.08952 0.0
C1361 C 0.8305 0.59713 0.07696 0.0
C1362 C 0.82544 0.58363 0.19675 0.0
C1363 C 0.85869 0.60588 0.2087 0.0
N1364 N 0.91104 0.6434 0.16732 0.0
N1365 N 0.78404 0.55188 0.11704 0.0
C1366 C 0.87771 0.62417 0.15526 0.0
C1367 C 0.81266 0.57739 0.13026 0.0
N1368 N 0.87857 0.64112 1.03832 0.0
N1369 N 0.80579 0.56885 0.24939 0.0
H1370 H 0.7732 0.54726 0.06961 0.0
H1371 H 0.77249 0.53336 0.15192 0.0
H1372 H 0.8146 0.57226 0.29845 0.0
H1373 H 0.77951 0.55522 0.24549 0.0
H1374 H 0.89901 0.66241 1.0444 0.0
H1375 H 0.87023 0.63764 0.98906 0.0
H1376 H 0.92893 0.65389 0.1305 0.0
H1377 H 0.92215 0.64722 0.21487 0.0
C1378 C 0.57807 0.08818 0.92937 0.0
C1379 C 0.59375 0.11135 0.87823 0.0
C1380 C 0.60713 0.16195 0.96004 0.0
C1381 C 0.58934 0.14005 1.0104 0.0
N1382 N 0.55655 0.08284 1.04398 0.0
N1383 N 0.62392 0.17118 0.84672 0.0
C1384 C 0.57455 0.10316 0.99531 0.0
C1385 C 0.60823 0.14824 0.89392 0.0
N1386 N 0.56724 0.05157 0.91493 0.0
N1387 N 0.62336 0.19638 0.97499 0.0
H1388 H 0.62636 0.16387 0.79673 0.0
H1389 H 0.62636 0.16387 0.79673 0.0
H1390 H 0.62483 0.20709 1.02317 0.0
H1391 H 0.63631 0.2136 0.93931 0.0
H1392 H 0.55929 0.03154 0.95029 0.0
H1393 H 0.56812 0.04027 0.86708 0.0
H1394 H 0.54163 0.05757 1.03591 0.0
H1395 H 0.55505 0.09218 0.09305 0.0
C1396 C 0.14686 0.36244 0.16377 0.0
C1397 C 0.14015 0.39481 0.20451 0.0
C1398 C 0.17878 0.4332 0.12751 0.0
C1399 C 0.17821 0.40298 0.08004 0.0
N1400 N 0.18908 0.33513 0.08245 0.0
N1401 N 0.15053 0.46207 0.22464 0.0
C1402 C 0.16986 0.36611 0.10592 0.0
C1403 C 0.15609 0.43055 0.18595 0.0
N1404 N 0.13072 0.32811 0.17932 0.0
N1405 N 0.20659 0.46038 0.12438 0.0
H1406 H 0.13659 0.46125 0.27022 0.0
H1407 H 0.15778 0.48949 0.20901 0.0
H1408 H 0.22944 0.45784 0.09183 0.0
H1409 H 0.21076 0.48111 0.16079 0.0
H1410 H 0.13183 0.30461 0.14761 0.0
H1411 H 0.11342 0.32421 0.22082 0.0
H1412 H 0.18691 0.3081 0.10359 0.0
H1413 H 0.21143 0.33789 0.04864 0.0
C1414 C 0.4266 0.81711 0.9524 0.0
C1415 C 0.40945 0.83695 1.00629 0.0
C1416 C 0.3875 0.88693 0.92873 0.0
C1417 C 0.40241 0.86573 0.87442 0.0
N1418 N 0.43378 0.80945 0.83306 0.0
N1419 N 0.37294 0.89029 0.04667 0.0
C1420 C 0.4213 0.83046 0.88597 0.0
C1421 C 0.38975 0.87179 0.99457 0.0
N1422 N 0.44875 0.78589 0.96498 0.0
N1423 N 0.37164 0.92193 0.91722 0.0
H1424 H 0.37628 0.88174 0.09582 0.0
H1425 H 0.35448 0.91328 1.04177 0.0
H1426 H 0.36771 0.93298 0.86976 0.0
H1427 H 0.36396 0.94108 0.95426 0.0
H1428 H 0.46545 0.77228 0.92961 0.0
H1429 H 0.45272 0.77487 1.01239 0.0
H1430 H 0.44403 0.78172 0.83658 0.0
H1431 H 0.43209 0.81896 0.78421 0.0
C1432 C 0.88092 0.88642 0.25136 0.0
C1433 C 0.84852 0.9098 0.26312 0.0
C1434 C 0.84379 0.92245 0.14295 0.0
C1435 C 0.87375 0.89607 0.13096 0.0
N1436 N 0.91824 0.84964 0.1726 0.0
N1437 N 0.79767 0.94883 0.22016 0.0
C1438 C 0.89166 0.87722 0.18494 0.0
C1439 C 0.8297 0.92767 0.20886 0.0
N1440 N 0.90233 0.87417 0.30388 0.0
N1441 N 0.82939 0.9432 0.09131 0.0
H1442 H 0.78771 0.95497 0.26758 0.0
H1443 H 0.77965 0.95858 0.18287 0.0
H1444 H 0.83833 0.93954 1.04242 0.0
H1445 H 0.81055 0.96585 0.097 0.0
H1446 H 0.9285 0.86051 0.29886 0.0
H1447 H 0.8957 0.88077 0.35298 0.0
H1448 H 0.92925 0.83173 0.20896 0.0
H1449 H 0.92732 0.84262 0.12489 0.0
C1450 C 0.87386 0.15748 0.93337 0.0
C1451 C 0.89196 0.12285 0.95138 0.0
C1452 C 0.91773 0.11692 0.8382 0.0
C1453 C 0.89766 0.1504 0.81935 0.0
N1454 N 0.85066 0.19813 0.8452 0.0
N1455 N 0.92693 0.06666 0.91969 0.0
C1456 C 0.87399 0.16937 0.86589 0.0
C1457 C 0.91277 0.10173 0.90335 0.0
N1458 N 0.85755 0.17975 0.98121 0.0
N1459 N 0.94176 0.09983 0.79386 0.0
H1460 H 0.92436 0.05505 0.96705 0.0
H1461 H 0.93879 0.04784 0.88556 0.0
H1462 H 0.94463 0.10899 0.74495 0.0
H1463 H 0.9605 0.07799 0.80622 0.0
H1464 H 0.8482 0.20747 0.97256 0.0
H1465 H 0.85616 0.17175 1.03092 0.0
H1466 H 0.82938 0.2098 0.87471 0.0
H1467 H 0.85028 0.20818 0.79664 0.0
C1468 C 0.14728 0.07263 0.14874 0.0
C1469 C 0.12089 0.10191 0.13268 0.0
C1470 C 0.1181 0.12074 0.25015 0.0
C1471 C 0.14708 0.09386 0.26516 0.0
N1472 N 0.19241 0.04683 0.22818 0.0
N1473 N 0.08505 0.15733 0.16583 0.0
C1474 C 0.1625 0.07046 0.21425 0.0
C1475 C 0.10732 0.12691 0.18284 0.0
N1476 N 0.15686 0.04613 0.10182 0.0
N1477 N 0.09996 0.1395 0.30052 0.0
H1478 H 0.07628 0.1626 0.11729 0.0
H1479 H 0.07776 0.17904 0.19874 0.0
H1480 H 0.10707 0.13579 0.35032 0.0
H1481 H 0.07577 0.1562 0.29365 0.0
H1482 H 0.17239 0.02157 0.11214 0.0
H1483 H 0.14672 0.04704 0.05322 0.0
H1484 H 0.20807 0.03256 0.19204 0.0
H1485 H 0.20341 0.04348 0.27585 0.0
C1486 C 0.0671 0.87699 0.85881 0.0
C1487 C 0.08677 0.84344 0.83887 0.0
C1488 C 0.11295 0.83682 0.95168 0.0
C1489 C 0.09556 0.87182 0.9703 0.0
N1490 N 0.05959 0.92765 0.94037 0.0
N1491 N 0.13325 0.7948 0.86278 0.0
C1492 C 0.07357 0.89257 0.92344 0.0
C1493 C 0.11107 0.82432 0.88437 0.0
N1494 N 0.04183 0.89367 0.81613 0.0
N1495 N 0.13045 0.81498 0.9988 0.0
H1496 H 0.13234 0.78449 0.81429 0.0
H1497 H 0.15472 0.78249 0.89123 0.0
H1498 H 0.13331 0.82355 0.04811 0.0
H1499 H 0.13955 0.78713 0.99039 0.0
H1500 H 0.02328 0.91546 0.82966 0.0
H1501 H 0.03761 0.88413 0.76766 0.0
H1502 H 0.04698 0.94627 0.90681 0.0
H1503 H 0.0629 0.93942 0.98757 0.0
loop_
_geom_bond_atom_site_label_1
_geom_bond_atom_site_label_2
_geom_bond_distance
_geom_bond_site_symmetry_2
_ccdc_geom_bond_type
Ho0 C3 2.811 . S
Ho0 O20 2.322 . S
Ho0 O22 2.378 . S
Ho0 O23 2.524 . S
Ho0 O24 2.381 . S
Ho0 O25 2.669 . S
Ho0 O27 2.346 . S
Ho0 O31 2.305 . S
Ho1 C12 2.811 1_554 S
Ho1 O21 2.346 . S
Ho1 O25 2.305 . S
Ho1 O26 2.322 . S
Ho1 O28 2.378 1_554 S
Ho1 O29 2.524 1_554 S
Ho1 O30 2.381 . S
Ho1 O31 2.669 . S
C2 O20 1.259 . S
C2 O21 1.268 . S
C3 Ho0 2.811 . S
C3 C4 1.488 . S
C3 O22 1.215 . S
C3 O23 1.289 . S
C4 C3 1.488 . S
C4 C5 1.348 . S
C4 C9 1.413 . S
C5 C4 1.348 . S
C5 C6 1.442 . S
C5 H32 0.930 . S
C6 C5 1.442 . S
C6 C7 1.381 . S
C6 H33 0.931 . S
C7 C6 1.381 . S
C7 C8 1.321 . S
C8 C7 1.321 . S
C8 C9 1.403 . S
C8 H34 0.934 . S
C9 C4 1.413 . S
C9 C8 1.403 . S
C9 H35 0.930 . S
C10 O24 1.275 . S
C10 O25 1.256 . S
C11 O26 1.259 . S
C11 O27 1.268 . S
C12 Ho1 2.811 1_556 S
C12 C13 1.488 . S
C12 O28 1.215 . S
C12 O29 1.289 . S
C13 C12 1.488 . S
C13 C14 1.348 . S
C13 C18 1.413 . S
C14 C13 1.348 . S
C14 C15 1.442 . S
C14 H36 0.930 . S
C15 C14 1.442 . S
C15 C16 1.381 . S
C15 H37 0.931 . S
C16 C15 1.381 . S
C16 C17 1.321 . S
C17 C16 1.321 . S
C17 C18 1.403 . S
C17 H38 0.934 . S
C18 C13 1.413 . S
C18 C17 1.403 . S
C18 H39 0.930 . S
C19 O30 1.275 . S
C19 O31 1.256 . S
O20 Ho0 2.322 . S
O20 C2 1.259 . S
O21 Ho1 2.346 . S
O21 C2 1.268 . S
O22 Ho0 2.378 . S
O22 C3 1.215 . S
O23 Ho0 2.524 . S
O23 C3 1.289 . S
O24 Ho0 2.381 . S
O24 C10 1.275 . S
O25 Ho0 2.669 . S
O25 Ho1 2.305 . S
O25 C10 1.256 . S
O26 Ho1 2.322 . S
O26 C11 1.259 . S
O27 Ho0 2.346 . S
O27 C11 1.268 . S
O28 Ho1 2.378 1_556 S
O28 C12 1.215 . S
O29 Ho1 2.524 1_556 S
O29 C12 1.289 . S
O30 Ho1 2.381 . S
O30 C19 1.275 . S
O31 Ho0 2.305 . S
O31 Ho1 2.669 . S
O31 C19 1.256 . S
H32 C5 0.930 . S
H33 C6 0.931 . S
H34 C8 0.934 . S
H35 C9 0.930 . S
H36 C14 0.930 . S
H37 C15 0.931 . S
H38 C17 0.934 . S
H39 C18 0.930 . S
Ho40 C43 2.811 1_556 S
Ho40 O60 2.322 . S
Ho40 O62 2.378 1_556 S
Ho40 O63 2.524 1_556 S
Ho40 O64 2.381 . S
Ho40 O65 2.669 . S
Ho40 O67 2.346 . S
Ho40 O71 2.305 . S
Ho41 C52 2.811 . S
Ho41 O61 2.346 . S
Ho41 O65 2.305 . S
Ho41 O66 2.322 . S
Ho41 O68 2.378 . S
Ho41 O69 2.524 . S
Ho41 O70 2.381 . S
Ho41 O71 2.669 . S
C42 O60 1.259 . S
C42 O61 1.268 . S
C43 Ho40 2.811 1_554 S
C43 C44 1.488 . S
C43 O62 1.215 . S
C43 O63 1.289 . S
C44 C43 1.488 . S
C44 C45 1.348 . S
C44 C49 1.413 . S
C45 C44 1.348 . S
C45 C46 1.442 . S
C45 H72 0.930 . S
C46 C45 1.442 . S
C46 C47 1.381 . S
C46 H73 0.931 . S
C47 C46 1.381 . S
C47 C48 1.321 . S
C48 C47 1.321 . S
C48 C49 1.403 . S
C48 H74 0.934 . S
C49 C44 1.413 . S
C49 C48 1.403 . S
C49 H75 0.930 . S
C50 O64 1.275 . S
C50 O65 1.256 . S
C51 O66 1.259 . S
C51 O67 1.268 . S
C52 Ho41 2.811 . S
C52 C53 1.488 . S
C52 O68 1.215 . S
C52 O69 1.289 . S
C53 C52 1.488 . S
C53 C54 1.348 . S
C53 C58 1.413 . S
C54 C53 1.348 . S
C54 C55 1.442 . S
C54 H76 0.930 . S
C55 C54 1.442 . S
C55 C56 1.381 . S
C55 H77 0.931 . S
C56 C55 1.381 . S
C56 C57 1.321 . S
C57 C56 1.321 . S
C57 C58 1.403 . S
C57 H78 0.934 . S
C58 C53 1.413 . S
C58 C57 1.403 . S
C58 H79 0.930 . S
C59 O70 1.275 . S
C59 O71 1.256 . S
O60 Ho40 2.322 . S
O60 C42 1.259 . S
O61 Ho41 2.346 . S
O61 C42 1.268 . S
O62 Ho40 2.378 1_554 S
O62 C43 1.215 . S
O63 Ho40 2.524 1_554 S
O63 C43 1.289 . S
O64 Ho40 2.381 . S
O64 C50 1.275 . S
O65 Ho40 2.669 . S
O65 Ho41 2.305 . S
O65 C50 1.256 . S
O66 Ho41 2.322 . S
O66 C51 1.259 . S
O67 Ho40 2.346 . S
O67 C51 1.268 . S
O68 Ho41 2.378 . S
O68 C52 1.215 . S
O69 Ho41 2.524 . S
O69 C52 1.289 . S
O70 Ho41 2.381 . S
O70 C59 1.275 . S
O71 Ho40 2.305 . S
O71 Ho41 2.669 . S
O71 C59 1.256 . S
H72 C45 0.930 . S
H73 C46 0.931 . S
H74 C48 0.934 . S
H75 C49 0.930 . S
H76 C54 0.930 . S
H77 C55 0.931 . S
H78 C57 0.934 . S
H79 C58 0.930 . S
Ho80 C83 2.811 . S
Ho80 O100 2.322 . S
Ho80 O102 2.378 . S
Ho80 O103 2.524 . S
Ho80 O104 2.381 . S
Ho80 O105 2.669 . S
Ho80 O107 2.346 . S
Ho80 O111 2.305 . S
Ho81 C92 2.811 1_554 S
Ho81 O101 2.346 . S
Ho81 O105 2.305 . S
Ho81 O106 2.322 . S
Ho81 O108 2.378 1_554 S
Ho81 O109 2.524 1_554 S
Ho81 O110 2.381 . S
Ho81 O111 2.669 . S
C82 O100 1.259 . S
C82 O101 1.268 . S
C83 Ho80 2.811 . S
C83 C84 1.488 . S
C83 O102 1.215 . S
C83 O103 1.289 . S
C84 C83 1.488 . S
C84 C85 1.348 . S
C84 C89 1.413 . S
C85 C84 1.348 . S
C85 C86 1.442 . S
C85 H112 0.930 . S
C86 C85 1.442 . S
C86 C87 1.381 . S
C86 H113 0.931 . S
C87 C86 1.381 . S
C87 C88 1.321 . S
C88 C87 1.321 . S
C88 C89 1.403 . S
C88 H114 0.934 . S
C89 C84 1.413 . S
C89 C88 1.403 . S
C89 H115 0.930 . S
C90 O104 1.275 . S
C90 O105 1.256 . S
C91 O106 1.259 . S
C91 O107 1.268 . S
C92 Ho81 2.811 1_556 S
C92 C93 1.488 . S
C92 O108 1.215 . S
C92 O109 1.289 . S
C93 C92 1.488 . S
C93 C94 1.348 . S
C93 C98 1.413 . S
C94 C93 1.348 . S
C94 C95 1.442 . S
C94 H116 0.930 . S
C95 C94 1.442 . S
C95 C96 1.381 . S
C95 H117 0.931 . S
C96 C95 1.381 . S
C96 C97 1.321 . S
C97 C96 1.321 . S
C97 C98 1.403 . S
C97 H118 0.934 . S
C98 C93 1.413 . S
C98 C97 1.403 . S
C98 H119 0.930 . S
C99 O110 1.275 . S
C99 O111 1.256 . S
O100 Ho80 2.322 . S
O100 C82 1.259 . S
O101 Ho81 2.346 . S
O101 C82 1.268 . S
O102 Ho80 2.378 . S
O102 C83 1.215 . S
O103 Ho80 2.524 . S
O103 C83 1.289 . S
O104 Ho80 2.381 . S
O104 C90 1.275 . S
O105 Ho80 2.669 . S
O105 Ho81 2.305 . S
O105 C90 1.256 . S
O106 Ho81 2.322 . S
O106 C91 1.259 . S
O107 Ho80 2.346 . S
O107 C91 1.268 . S
O108 Ho81 2.378 1_556 S
O108 C92 1.215 . S
O109 Ho81 2.524 1_556 S
O109 C92 1.289 . S
O110 Ho81 2.381 . S
O110 C99 1.275 . S
O111 Ho80 2.305 . S
O111 Ho81 2.669 . S
O111 C99 1.256 . S
H112 C85 0.930 . S
H113 C86 0.931 . S
H114 C88 0.934 . S
H115 C89 0.930 . S
H116 C94 0.930 . S
H117 C95 0.931 . S
H118 C97 0.934 . S
H119 C98 0.930 . S
Ho120 C123 2.811 1_556 S
Ho120 O140 2.322 . S
Ho120 O142 2.378 1_556 S
Ho120 O143 2.524 1_556 S
Ho120 O144 2.381 . S
Ho120 O145 2.669 . S
Ho120 O147 2.346 . S
Ho120 O151 2.305 . S
Ho121 C132 2.811 . S
Ho121 O141 2.346 . S
Ho121 O145 2.305 . S
Ho121 O146 2.322 . S
Ho121 O148 2.378 . S
Ho121 O149 2.524 . S
Ho121 O150 2.381 . S
Ho121 O151 2.669 . S
C122 O140 1.259 . S
C122 O141 1.268 . S
C123 Ho120 2.811 1_554 S
C123 C124 1.488 . S
C123 O142 1.215 . S
C123 O143 1.289 . S
C124 C123 1.488 . S
C124 C125 1.348 . S
C124 C129 1.413 . S
C125 C124 1.348 . S
C125 C126 1.442 . S
C125 H152 0.930 . S
C126 C125 1.442 . S
C126 C127 1.381 . S
C126 H153 0.931 . S
C127 C126 1.381 . S
C127 C128 1.321 . S
C128 C127 1.321 . S
C128 C129 1.403 . S
C128 H154 0.934 . S
C129 C124 1.413 . S
C129 C128 1.403 . S
C129 H155 0.930 . S
C130 O144 1.275 . S
C130 O145 1.256 . S
C131 O146 1.259 . S
C131 O147 1.268 . S
C132 Ho121 2.811 . S
C132 C133 1.488 . S
C132 O148 1.215 . S
C132 O149 1.289 . S
C133 C132 1.488 . S
C133 C134 1.348 . S
C133 C138 1.413 . S
C134 C133 1.348 . S
C134 C135 1.442 . S
C134 H156 0.930 . S
C135 C134 1.442 . S
C135 C136 1.381 . S
C135 H157 0.931 . S
C136 C135 1.381 . S
C136 C137 1.321 . S
C137 C136 1.321 . S
C137 C138 1.403 . S
C137 H158 0.934 . S
C138 C133 1.413 . S
C138 C137 1.403 . S
C138 H159 0.930 . S
C139 O150 1.275 . S
C139 O151 1.256 . S
O140 Ho120 2.322 . S
O140 C122 1.259 . S
O141 Ho121 2.346 . S
O141 C122 1.268 . S
O142 Ho120 2.378 1_554 S
O142 C123 1.215 . S
O143 Ho120 2.524 1_554 S
O143 C123 1.289 . S
O144 Ho120 2.381 . S
O144 C130 1.275 . S
O145 Ho120 2.669 . S
O145 Ho121 2.305 . S
O145 C130 1.256 . S
O146 Ho121 2.322 . S
O146 C131 1.259 . S
O147 Ho120 2.346 . S
O147 C131 1.268 . S
O148 Ho121 2.378 . S
O148 C132 1.215 . S
O149 Ho121 2.524 . S
O149 C132 1.289 . S
O150 Ho121 2.381 . S
O150 C139 1.275 . S
O151 Ho120 2.305 . S
O151 Ho121 2.669 . S
O151 C139 1.256 . S
H152 C125 0.930 . S
H153 C126 0.931 . S
H154 C128 0.934 . S
H155 C129 0.930 . S
H156 C134 0.930 . S
H157 C135 0.931 . S
H158 C137 0.934 . S
H159 C138 0.930 . S
Ho160 C163 2.811 1_554 S
Ho160 O180 2.322 . S
Ho160 O182 2.378 1_554 S
Ho160 O183 2.524 1_554 S
Ho160 O184 2.381 . S
Ho160 O185 2.669 . S
Ho160 O187 2.346 . S
Ho160 O191 2.305 . S
Ho161 C172 2.811 . S
Ho161 O181 2.346 . S
Ho161 O185 2.305 . S
Ho161 O186 2.322 . S
Ho161 O188 2.378 . S
Ho161 O189 2.524 . S
Ho161 O190 2.381 . S
Ho161 O191 2.669 . S
C162 O180 1.259 . S
C162 O181 1.268 . S
C163 Ho160 2.811 1_556 S
C163 C164 1.488 . S
C163 O182 1.215 . S
C163 O183 1.289 . S
C164 C163 1.488 . S
C164 C165 1.348 . S
C164 C169 1.413 . S
C165 C164 1.348 . S
C165 C166 1.442 . S
C165 H192 0.930 . S
C166 C165 1.442 . S
C166 C167 1.381 . S
C166 H193 0.931 . S
C167 C166 1.381 . S
C167 C168 1.321 . S
C168 C167 1.321 . S
C168 C169 1.403 . S
C168 H194 0.934 . S
C169 C164 1.413 . S
C169 C168 1.403 . S
C169 H195 0.930 . S
C170 O184 1.275 . S
C170 O185 1.256 . S
C171 O186 1.259 . S
C171 O187 1.268 . S
C172 Ho161 2.811 . S
C172 C173 1.488 . S
C172 O188 1.215 . S
C172 O189 1.289 . S
C173 C172 1.488 . S
C173 C174 1.348 . S
C173 C178 1.413 . S
C174 C173 1.348 . S
C174 C175 1.442 . S
C174 H196 0.930 . S
C175 C174 1.442 . S
C175 C176 1.381 . S
C175 H197 0.931 . S
C176 C175 1.381 . S
C176 C177 1.321 . S
C177 C176 1.321 . S
C177 C178 1.403 . S
C177 H198 0.934 . S
C178 C173 1.413 . S
C178 C177 1.403 . S
C178 H199 0.930 . S
C179 O190 1.275 . S
C179 O191 1.256 . S
O180 Ho160 2.322 . S
O180 C162 1.259 . S
O181 Ho161 2.346 . S
O181 C162 1.268 . S
O182 Ho160 2.378 1_556 S
O182 C163 1.215 . S
O183 Ho160 2.524 1_556 S
O183 C163 1.289 . S
O184 Ho160 2.381 . S
O184 C170 1.275 . S
O185 Ho160 2.669 . S
O185 Ho161 2.305 . S
O185 C170 1.256 . S
O186 Ho161 2.322 . S
O186 C171 1.259 . S
O187 Ho160 2.346 . S
O187 C171 1.268 . S
O188 Ho161 2.378 . S
O188 C172 1.215 . S
O189 Ho161 2.524 . S
O189 C172 1.289 . S
O190 Ho161 2.381 . S
O190 C179 1.275 . S
O191 Ho160 2.305 . S
O191 Ho161 2.669 . S
O191 C179 1.256 . S
H192 C165 0.930 . S
H193 C166 0.931 . S
H194 C168 0.934 . S
H195 C169 0.930 . S
H196 C174 0.930 . S
H197 C175 0.931 . S
H198 C177 0.934 . S
H199 C178 0.930 . S
Ho200 C203 2.811 . S
Ho200 O220 2.322 . S
Ho200 O222 2.378 . S
Ho200 O223 2.524 . S
Ho200 O224 2.381 . S
Ho200 O225 2.669 . S
Ho200 O227 2.346 . S
Ho200 O231 2.305 . S
Ho201 C212 2.811 1_556 S
Ho201 O221 2.346 . S
Ho201 O225 2.305 . S
Ho201 O226 2.322 . S
Ho201 O228 2.378 1_556 S
Ho201 O229 2.524 1_556 S
Ho201 O230 2.381 . S
Ho201 O231 2.669 . S
C202 O220 1.259 . S
C202 O221 1.268 . S
C203 Ho200 2.811 . S
C203 C204 1.488 . S
C203 O222 1.215 . S
C203 O223 1.289 . S
C204 C203 1.488 . S
C204 C205 1.348 . S
C204 C209 1.413 . S
C205 C204 1.348 . S
C205 C206 1.442 . S
C205 H232 0.930 . S
C206 C205 1.442 . S
C206 C207 1.381 . S
C206 H233 0.931 . S
C207 C206 1.381 . S
C207 C208 1.321 . S
C208 C207 1.321 . S
C208 C209 1.403 . S
C208 H234 0.934 . S
C209 C204 1.413 . S
C209 C208 1.403 . S
C209 H235 0.930 . S
C210 O224 1.275 . S
C210 O225 1.256 . S
C211 O226 1.259 . S
C211 O227 1.268 . S
C212 Ho201 2.811 1_554 S
C212 C213 1.488 . S
C212 O228 1.215 . S
C212 O229 1.289 . S
C213 C212 1.488 . S
C213 C214 1.348 . S
C213 C218 1.413 . S
C214 C213 1.348 . S
C214 C215 1.442 . S
C214 H236 0.930 . S
C215 C214 1.442 . S
C215 C216 1.381 . S
C215 H237 0.931 . S
C216 C215 1.381 . S
C216 C217 1.321 . S
C217 C216 1.321 . S
C217 C218 1.403 . S
C217 H238 0.934 . S
C218 C213 1.413 . S
C218 C217 1.403 . S
C218 H239 0.930 . S
C219 O230 1.275 . S
C219 O231 1.256 . S
O220 Ho200 2.322 . S
O220 C202 1.259 . S
O221 Ho201 2.346 . S
O221 C202 1.268 . S
O222 Ho200 2.378 . S
O222 C203 1.215 . S
O223 Ho200 2.524 . S
O223 C203 1.289 . S
O224 Ho200 2.381 . S
O224 C210 1.275 . S
O225 Ho200 2.669 . S
O225 Ho201 2.305 . S
O225 C210 1.256 . S
O226 Ho201 2.322 . S
O226 C211 1.259 . S
O227 Ho200 2.346 . S
O227 C211 1.268 . S
O228 Ho201 2.378 1_554 S
O228 C212 1.215 . S
O229 Ho201 2.524 1_554 S
O229 C212 1.289 . S
O230 Ho201 2.381 . S
O230 C219 1.275 . S
O231 Ho200 2.305 . S
O231 Ho201 2.669 . S
O231 C219 1.256 . S
H232 C205 0.930 . S
H233 C206 0.931 . S
H234 C208 0.934 . S
H235 C209 0.930 . S
H236 C214 0.930 . S
H237 C215 0.931 . S
H238 C217 0.934 . S
H239 C218 0.930 . S
Ho240 C243 2.811 1_554 S
Ho240 O260 2.322 . S
Ho240 O262 2.378 1_554 S
Ho240 O263 2.524 1_554 S
Ho240 O264 2.381 . S
Ho240 O265 2.669 . S
Ho240 O267 2.346 . S
Ho240 O271 2.305 . S
Ho241 C252 2.811 . S
Ho241 O261 2.346 . S
Ho241 O265 2.305 . S
Ho241 O266 2.322 . S
Ho241 O268 2.378 . S
Ho241 O269 2.524 . S
Ho241 O270 2.381 . S
Ho241 O271 2.669 . S
C242 O260 1.259 . S
C242 O261 1.268 . S
C243 Ho240 2.811 1_556 S
C243 C244 1.488 . S
C243 O262 1.215 . S
C243 O263 1.289 . S
C244 C243 1.488 . S
C244 C245 1.348 . S
C244 C249 1.413 . S
C245 C244 1.348 . S
C245 C246 1.442 . S
C245 H272 0.930 . S
C246 C245 1.442 . S
C246 C247 1.381 . S
C246 H273 0.931 . S
C247 C246 1.381 . S
C247 C248 1.321 . S
C248 C247 1.321 . S
C248 C249 1.403 . S
C248 H274 0.934 . S
C249 C244 1.413 . S
C249 C248 1.403 . S
C249 H275 0.930 . S
C250 O264 1.275 . S
C250 O265 1.256 . S
C251 O266 1.259 . S
C251 O267 1.268 . S
C252 Ho241 2.811 . S
C252 C253 1.488 . S
C252 O268 1.215 . S
C252 O269 1.289 . S
C253 C252 1.488 . S
C253 C254 1.348 . S
C253 C258 1.413 . S
C254 C253 1.348 . S
C254 C255 1.442 . S
C254 H276 0.930 . S
C255 C254 1.442 . S
C255 C256 1.381 . S
C255 H277 0.931 . S
C256 C255 1.381 . S
C256 C257 1.321 . S
C257 C256 1.321 . S
C257 C258 1.403 . S
C257 H278 0.934 . S
C258 C253 1.413 . S
C258 C257 1.403 . S
C258 H279 0.930 . S
C259 O270 1.275 . S
C259 O271 1.256 . S
O260 Ho240 2.322 . S
O260 C242 1.259 . S
O261 Ho241 2.346 . S
O261 C242 1.268 . S
O262 Ho240 2.378 1_556 S
O262 C243 1.215 . S
O263 Ho240 2.524 1_556 S
O263 C243 1.289 . S
O264 Ho240 2.381 . S
O264 C250 1.275 . S
O265 Ho240 2.669 . S
O265 Ho241 2.305 . S
O265 C250 1.256 . S
O266 Ho241 2.322 . S
O266 C251 1.259 . S
O267 Ho240 2.346 . S
O267 C251 1.268 . S
O268 Ho241 2.378 . S
O268 C252 1.215 . S
O269 Ho241 2.524 . S
O269 C252 1.289 . S
O270 Ho241 2.381 . S
O270 C259 1.275 . S
O271 Ho240 2.305 . S
O271 Ho241 2.669 . S
O271 C259 1.256 . S
H272 C245 0.930 . S
H273 C246 0.931 . S
H274 C248 0.934 . S
H275 C249 0.930 . S
H276 C254 0.930 . S
H277 C255 0.931 . S
H278 C257 0.934 . S
H279 C258 0.930 . S
Ho280 C283 2.811 . S
Ho280 O300 2.322 . S
Ho280 O302 2.378 . S
Ho280 O303 2.524 . S
Ho280 O304 2.381 . S
Ho280 O305 2.669 . S
Ho280 O307 2.346 . S
Ho280 O311 2.305 . S
Ho281 C292 2.811 1_556 S
Ho281 O301 2.346 . S
Ho281 O305 2.305 . S
Ho281 O306 2.322 . S
Ho281 O308 2.378 1_556 S
Ho281 O309 2.524 1_556 S
Ho281 O310 2.381 . S
Ho281 O311 2.669 . S
C282 O300 1.259 . S
C282 O301 1.268 . S
C283 Ho280 2.811 . S
C283 C284 1.488 . S
C283 O302 1.215 . S
C283 O303 1.289 . S
C284 C283 1.488 . S
C284 C285 1.348 . S
C284 C289 1.413 . S
C285 C284 1.348 . S
C285 C286 1.442 . S
C285 H312 0.930 . S
C286 C285 1.442 . S
C286 C287 1.381 . S
C286 H313 0.931 . S
C287 C286 1.381 . S
C287 C288 1.321 . S
C288 C287 1.321 . S
C288 C289 1.403 . S
C288 H314 0.934 . S
C289 C284 1.413 . S
C289 C288 1.403 . S
C289 H315 0.930 . S
C290 O304 1.275 . S
C290 O305 1.256 . S
C291 O306 1.259 . S
C291 O307 1.268 . S
C292 Ho281 2.811 1_554 S
C292 C293 1.488 . S
C292 O308 1.215 . S
C292 O309 1.289 . S
C293 C292 1.488 . S
C293 C294 1.348 . S
C293 C298 1.413 . S
C294 C293 1.348 . S
C294 C295 1.442 . S
C294 H316 0.930 . S
C295 C294 1.442 . S
C295 C296 1.381 . S
C295 H317 0.931 . S
C296 C295 1.381 . S
C296 C297 1.321 . S
C297 C296 1.321 . S
C297 C298 1.403 . S
C297 H318 0.934 . S
C298 C293 1.413 . S
C298 C297 1.403 . S
C298 H319 0.930 . S
C299 O310 1.275 . S
C299 O311 1.256 . S
O300 Ho280 2.322 . S
O300 C282 1.259 . S
O301 Ho281 2.346 . S
O301 C282 1.268 . S
O302 Ho280 2.378 . S
O302 C283 1.215 . S
O303 Ho280 2.524 . S
O303 C283 1.289 . S
O304 Ho280 2.381 . S
O304 C290 1.275 . S
O305 Ho280 2.669 . S
O305 Ho281 2.305 . S
O305 C290 1.256 . S
O306 Ho281 2.322 . S
O306 C291 1.259 . S
O307 Ho280 2.346 . S
O307 C291 1.268 . S
O308 Ho281 2.378 1_554 S
O308 C292 1.215 . S
O309 Ho281 2.524 1_554 S
O309 C292 1.289 . S
O310 Ho281 2.381 . S
O310 C299 1.275 . S
O311 Ho280 2.305 . S
O311 Ho281 2.669 . S
O311 C299 1.256 . S
H312 C285 0.930 . S
H313 C286 0.931 . S
H314 C288 0.934 . S
H315 C289 0.930 . S
H316 C294 0.930 . S
H317 C295 0.931 . S
H318 C297 0.934 . S
H319 C298 0.930 . S
Ho320 C323 2.811 . S
Ho320 O340 2.322 . S
Ho320 O342 2.378 . S
Ho320 O343 2.524 . S
Ho320 O344 2.381 . S
Ho320 O345 2.669 . S
Ho320 O347 2.346 . S
Ho320 O351 2.305 . S
Ho321 C332 2.811 . S
Ho321 O341 2.346 . S
Ho321 O345 2.305 . S
Ho321 O346 2.322 . S
Ho321 O348 2.378 . S
Ho321 O349 2.524 . S
Ho321 O350 2.381 . S
Ho321 O351 2.669 . S
C322 O340 1.259 . S
C322 O341 1.268 . S
C323 Ho320 2.811 . S
C323 C324 1.488 . S
C323 O342 1.215 . S
C323 O343 1.289 . S
C324 C323 1.488 . S
C324 C325 1.348 . S
C324 C329 1.413 . S
C325 C324 1.348 . S
C325 C326 1.442 . S
C325 H352 0.930 . S
C326 C325 1.442 . S
C326 C327 1.381 1_556 S
C326 H353 0.931 1_556 S
C327 C326 1.381 1_554 S
C327 C328 1.321 1_554 S
C328 C327 1.321 1_556 S
C328 C329 1.403 . S
C328 H354 0.934 1_556 S
C329 C324 1.413 . S
C329 C328 1.403 . S
C329 H355 0.930 . S
C330 O344 1.275 . S
C330 O345 1.256 . S
C331 O346 1.259 . S
C331 O347 1.268 . S
C332 Ho321 2.811 . S
C332 C333 1.488 . S
C332 O348 1.215 . S
C332 O349 1.289 . S
C333 C332 1.488 . S
C333 C334 1.348 . S
C333 C338 1.413 . S
C334 C333 1.348 . S
C334 C335 1.442 . S
C334 H356 0.930 . S
C335 C334 1.442 . S
C335 C336 1.381 . S
C335 H357 0.931 . S
C336 C335 1.381 . S
C336 C337 1.321 . S
C337 C336 1.321 . S
C337 C338 1.403 . S
C337 H358 0.934 . S
C338 C333 1.413 . S
C338 C337 1.403 . S
C338 H359 0.930 . S
C339 O350 1.275 . S
C339 O351 1.256 . S
O340 Ho320 2.322 . S
O340 C322 1.259 . S
O341 Ho321 2.346 . S
O341 C322 1.268 . S
O342 Ho320 2.378 . S
O342 C323 1.215 . S
O343 Ho320 2.524 . S
O343 C323 1.289 . S
O344 Ho320 2.381 . S
O344 C330 1.275 . S
O345 Ho320 2.669 . S
O345 Ho321 2.305 . S
O345 C330 1.256 . S
O346 Ho321 2.322 . S
O346 C331 1.259 . S
O347 Ho320 2.346 . S
O347 C331 1.268 . S
O348 Ho321 2.378 . S
O348 C332 1.215 . S
O349 Ho321 2.524 . S
O349 C332 1.289 . S
O350 Ho321 2.381 . S
O350 C339 1.275 . S
O351 Ho320 2.305 . S
O351 Ho321 2.669 . S
O351 C339 1.256 . S
H352 C325 0.930 . S
H353 C326 0.931 1_554 S
H354 C328 0.934 1_554 S
H355 C329 0.930 . S
H356 C334 0.930 . S
H357 C335 0.931 . S
H358 C337 0.934 . S
H359 C338 0.930 . S
Ho360 C363 2.811 . S
Ho360 O380 2.322 . S
Ho360 O382 2.378 . S
Ho360 O383 2.524 . S
Ho360 O384 2.381 . S
Ho360 O385 2.669 . S
Ho360 O387 2.346 . S
Ho360 O391 2.305 . S
Ho361 C372 2.811 . S
Ho361 O381 2.346 . S
Ho361 O385 2.305 . S
Ho361 O386 2.322 . S
Ho361 O388 2.378 . S
Ho361 O389 2.524 . S
Ho361 O390 2.381 . S
Ho361 O391 2.669 . S
C362 O380 1.259 . S
C362 O381 1.268 . S
C363 Ho360 2.811 . S
C363 C364 1.488 . S
C363 O382 1.215 . S
C363 O383 1.289 . S
C364 C363 1.488 . S
C364 C365 1.348 . S
C364 C369 1.413 . S
C365 C364 1.348 . S
C365 C366 1.442 . S
C365 H392 0.930 . S
C366 C365 1.442 . S
C366 C367 1.381 . S
C366 H393 0.931 . S
C367 C366 1.381 . S
C367 C368 1.321 . S
C368 C367 1.321 . S
C368 C369 1.403 . S
C368 H394 0.934 . S
C369 C364 1.413 . S
C369 C368 1.403 . S
C369 H395 0.930 . S
C370 O384 1.275 . S
C370 O385 1.256 . S
C371 O386 1.259 . S
C371 O387 1.268 . S
C372 Ho361 2.811 . S
C372 C373 1.488 . S
C372 O388 1.215 . S
C372 O389 1.289 . S
C373 C372 1.488 . S
C373 C374 1.348 . S
C373 C378 1.413 . S
C374 C373 1.348 . S
C374 C375 1.442 . S
C374 H396 0.930 . S
C375 C374 1.442 . S
C375 C376 1.381 1_554 S
C375 H397 0.931 1_554 S
C376 C375 1.381 1_556 S
C376 C377 1.321 1_556 S
C377 C376 1.321 1_554 S
C377 C378 1.403 . S
C377 H398 0.934 1_554 S
C378 C373 1.413 . S
C378 C377 1.403 . S
C378 H399 0.930 . S
C379 O390 1.275 . S
C379 O391 1.256 . S
O380 Ho360 2.322 . S
O380 C362 1.259 . S
O381 Ho361 2.346 . S
O381 C362 1.268 . S
O382 Ho360 2.378 . S
O382 C363 1.215 . S
O383 Ho360 2.524 . S
O383 C363 1.289 . S
O384 Ho360 2.381 . S
O384 C370 1.275 . S
O385 Ho360 2.669 . S
O385 Ho361 2.305 . S
O385 C370 1.256 . S
O386 Ho361 2.322 . S
O386 C371 1.259 . S
O387 Ho360 2.346 . S
O387 C371 1.268 . S
O388 Ho361 2.378 . S
O388 C372 1.215 . S
O389 Ho361 2.524 . S
O389 C372 1.289 . S
O390 Ho361 2.381 . S
O390 C379 1.275 . S
O391 Ho360 2.305 . S
O391 Ho361 2.669 . S
O391 C379 1.256 . S
H392 C365 0.930 . S
H393 C366 0.931 . S
H394 C368 0.934 . S
H395 C369 0.930 . S
H396 C374 0.930 . S
H397 C375 0.931 1_556 S
H398 C377 0.934 1_556 S
H399 C378 0.930 . S
Ho400 C403 2.811 . S
Ho400 O420 2.322 . S
Ho400 O422 2.378 . S
Ho400 O423 2.524 . S
Ho400 O424 2.381 . S
Ho400 O425 2.669 . S
Ho400 O427 2.346 . S
Ho400 O431 2.305 . S
Ho401 C412 2.811 . S
Ho401 O421 2.346 . S
Ho401 O425 2.305 . S
Ho401 O426 2.322 . S
Ho401 O428 2.378 . S
Ho401 O429 2.524 . S
Ho401 O430 2.381 . S
Ho401 O431 2.669 . S
C402 O420 1.259 . S
C402 O421 1.268 . S
C403 Ho400 2.811 . S
C403 C404 1.488 . S
C403 O422 1.215 . S
C403 O423 1.289 . S
C404 C403 1.488 . S
C404 C405 1.348 . S
C404 C409 1.413 . S
C405 C404 1.348 . S
C405 C406 1.442 . S
C405 H432 0.930 . S
C406 C405 1.442 . S
C406 C407 1.381 1_556 S
C406 H433 0.931 1_556 S
C407 C406 1.381 1_554 S
C407 C408 1.321 1_554 S
C408 C407 1.321 1_556 S
C408 C409 1.403 . S
C408 H434 0.934 1_556 S
C409 C404 1.413 . S
C409 C408 1.403 . S
C409 H435 0.930 . S
C410 O424 1.275 . S
C410 O425 1.256 . S
C411 O426 1.259 . S
C411 O427 1.268 . S
C412 Ho401 2.811 . S
C412 C413 1.488 . S
C412 O428 1.215 . S
C412 O429 1.289 . S
C413 C412 1.488 . S
C413 C414 1.348 . S
C413 C418 1.413 . S
C414 C413 1.348 . S
C414 C415 1.442 . S
C414 H436 0.930 . S
C415 C414 1.442 . S
C415 C416 1.381 . S
C415 H437 0.931 . S
C416 C415 1.381 . S
C416 C417 1.321 . S
C417 C416 1.321 . S
C417 C418 1.403 . S
C417 H438 0.934 . S
C418 C413 1.413 . S
C418 C417 1.403 . S
C418 H439 0.930 . S
C419 O430 1.275 . S
C419 O431 1.256 . S
O420 Ho400 2.322 . S
O420 C402 1.259 . S
O421 Ho401 2.346 . S
O421 C402 1.268 . S
O422 Ho400 2.378 . S
O422 C403 1.215 . S
O423 Ho400 2.524 . S
O423 C403 1.289 . S
O424 Ho400 2.381 . S
O424 C410 1.275 . S
O425 Ho400 2.669 . S
O425 Ho401 2.305 . S
O425 C410 1.256 . S
O426 Ho401 2.322 . S
O426 C411 1.259 . S
O427 Ho400 2.346 . S
O427 C411 1.268 . S
O428 Ho401 2.378 . S
O428 C412 1.215 . S
O429 Ho401 2.524 . S
O429 C412 1.289 . S
O430 Ho401 2.381 . S
O430 C419 1.275 . S
O431 Ho400 2.305 . S
O431 Ho401 2.669 . S
O431 C419 1.256 . S
H432 C405 0.930 . S
H433 C406 0.931 1_554 S
H434 C408 0.934 1_554 S
H435 C409 0.930 . S
H436 C414 0.930 . S
H437 C415 0.931 . S
H438 C417 0.934 . S
H439 C418 0.930 . S
Ho440 C443 2.811 . S
Ho440 O460 2.322 . S
Ho440 O462 2.378 . S
Ho440 O463 2.524 . S
Ho440 O464 2.381 . S
Ho440 O465 2.669 . S
Ho440 O467 2.346 . S
Ho440 O471 2.305 . S
Ho441 C452 2.811 . S
Ho441 O461 2.346 . S
Ho441 O465 2.305 . S
Ho441 O466 2.322 . S
Ho441 O468 2.378 . S
Ho441 O469 2.524 . S
Ho441 O470 2.381 . S
Ho441 O471 2.669 . S
C442 O460 1.259 . S
C442 O461 1.268 . S
C443 Ho440 2.811 . S
C443 C444 1.488 . S
C443 O462 1.215 . S
C443 O463 1.289 . S
C444 C443 1.488 . S
C444 C445 1.348 . S
C444 C449 1.413 . S
C445 C444 1.348 . S
C445 C446 1.442 . S
C445 H472 0.930 . S
C446 C445 1.442 . S
C446 C447 1.381 . S
C446 H473 0.931 . S
C447 C446 1.381 . S
C447 C448 1.321 . S
C448 C447 1.321 . S
C448 C449 1.403 . S
C448 H474 0.934 . S
C449 C444 1.413 . S
C449 C448 1.403 . S
C449 H475 0.930 . S
C450 O464 1.275 . S
C450 O465 1.256 . S
C451 O466 1.259 . S
C451 O467 1.268 . S
C452 Ho441 2.811 . S
C452 C453 1.488 . S
C452 O468 1.215 . S
C452 O469 1.289 . S
C453 C452 1.488 . S
C453 C454 1.348 . S
C453 C458 1.413 . S
C454 C453 1.348 . S
C454 C455 1.442 . S
C454 H476 0.930 . S
C455 C454 1.442 . S
C455 C456 1.381 1_554 S
C455 H477 0.931 1_554 S
C456 C455 1.381 1_556 S
C456 C457 1.321 1_556 S
C457 C456 1.321 1_554 S
C457 C458 1.403 . S
C457 H478 0.934 1_554 S
C458 C453 1.413 . S
C458 C457 1.403 . S
C458 H479 0.930 . S
C459 O470 1.275 . S
C459 O471 1.256 . S
O460 Ho440 2.322 . S
O460 C442 1.259 . S
O461 Ho441 2.346 . S
O461 C442 1.268 . S
O462 Ho440 2.378 . S
O462 C443 1.215 . S
O463 Ho440 2.524 . S
O463 C443 1.289 . S
O464 Ho440 2.381 . S
O464 C450 1.275 . S
O465 Ho440 2.669 . S
O465 Ho441 2.305 . S
O465 C450 1.256 . S
O466 Ho441 2.322 . S
O466 C451 1.259 . S
O467 Ho440 2.346 . S
O467 C451 1.268 . S
O468 Ho441 2.378 . S
O468 C452 1.215 . S
O469 Ho441 2.524 . S
O469 C452 1.289 . S
O470 Ho441 2.381 . S
O470 C459 1.275 . S
O471 Ho440 2.305 . S
O471 Ho441 2.669 . S
O471 C459 1.256 . S
H472 C445 0.930 . S
H473 C446 0.931 . S
H474 C448 0.934 . S
H475 C449 0.930 . S
H476 C454 0.930 . S
H477 C455 0.931 1_556 S
H478 C457 0.934 1_556 S
H479 C458 0.930 . S
Ho480 C483 2.811 . S
Ho480 O500 2.322 . S
Ho480 O502 2.378 . S
Ho480 O503 2.524 . S
Ho480 O504 2.381 . S
Ho480 O505 2.669 . S
Ho480 O507 2.346 . S
Ho480 O511 2.305 . S
Ho481 C492 2.811 . S
Ho481 O501 2.346 . S
Ho481 O505 2.305 . S
Ho481 O506 2.322 . S
Ho481 O508 2.378 . S
Ho481 O509 2.524 . S
Ho481 O510 2.381 . S
Ho481 O511 2.669 . S
C482 O500 1.259 . S
C482 O501 1.268 . S
C483 Ho480 2.811 . S
C483 C484 1.488 . S
C483 O502 1.215 . S
C483 O503 1.289 . S
C484 C483 1.488 . S
C484 C485 1.348 . S
C484 C489 1.413 . S
C485 C484 1.348 . S
C485 C486 1.442 . S
C485 H512 0.930 . S
C486 C485 1.442 . S
C486 C487 1.381 . S
C486 H513 0.931 . S
C487 C486 1.381 . S
C487 C488 1.321 . S
C488 C487 1.321 . S
C488 C489 1.403 . S
C488 H514 0.934 . S
C489 C484 1.413 . S
C489 C488 1.403 . S
C489 H515 0.930 . S
C490 O504 1.275 . S
C490 O505 1.256 . S
C491 O506 1.259 . S
C491 O507 1.268 . S
C492 Ho481 2.811 . S
C492 C493 1.488 . S
C492 O508 1.215 . S
C492 O509 1.289 . S
C493 C492 1.488 . S
C493 C494 1.348 . S
C493 C498 1.413 . S
C494 C493 1.348 . S
C494 C495 1.442 . S
C494 H516 0.930 . S
C495 C494 1.442 . S
C495 C496 1.381 1_556 S
C495 H517 0.931 1_556 S
C496 C495 1.381 1_554 S
C496 C497 1.321 1_554 S
C497 C496 1.321 1_556 S
C497 C498 1.403 . S
C497 H518 0.933 . S
C498 C493 1.413 . S
C498 C497 1.403 . S
C498 H519 0.930 . S
C499 O510 1.275 . S
C499 O511 1.256 . S
O500 Ho480 2.322 . S
O500 C482 1.259 . S
O501 Ho481 2.346 . S
O501 C482 1.268 . S
O502 Ho480 2.378 . S
O502 C483 1.215 . S
O503 Ho480 2.524 . S
O503 C483 1.289 . S
O504 Ho480 2.381 . S
O504 C490 1.275 . S
O505 Ho480 2.669 . S
O505 Ho481 2.305 . S
O505 C490 1.256 . S
O506 Ho481 2.322 . S
O506 C491 1.259 . S
O507 Ho480 2.346 . S
O507 C491 1.268 . S
O508 Ho481 2.378 . S
O508 C492 1.215 . S
O509 Ho481 2.524 . S
O509 C492 1.289 . S
O510 Ho481 2.381 . S
O510 C499 1.275 . S
O511 Ho480 2.305 . S
O511 Ho481 2.669 . S
O511 C499 1.256 . S
H512 C485 0.930 . S
H513 C486 0.931 . S
H514 C488 0.934 . S
H515 C489 0.930 . S
H516 C494 0.930 . S
H517 C495 0.931 1_554 S
H518 C497 0.933 . S
H519 C498 0.930 . S
Ho520 C523 2.811 . S
Ho520 O540 2.322 . S
Ho520 O542 2.378 . S
Ho520 O543 2.524 . S
Ho520 O544 2.381 . S
Ho520 O545 2.669 . S
Ho520 O547 2.346 . S
Ho520 O551 2.305 . S
Ho521 C532 2.811 . S
Ho521 O541 2.346 . S
Ho521 O545 2.305 . S
Ho521 O546 2.322 . S
Ho521 O548 2.378 . S
Ho521 O549 2.524 . S
Ho521 O550 2.381 . S
Ho521 O551 2.669 . S
C522 O540 1.259 . S
C522 O541 1.268 . S
C523 Ho520 2.811 . S
C523 C524 1.488 . S
C523 O542 1.215 . S
C523 O543 1.289 . S
C524 C523 1.488 . S
C524 C525 1.348 . S
C524 C529 1.413 . S
C525 C524 1.348 . S
C525 C526 1.442 . S
C525 H552 0.930 . S
C526 C525 1.442 . S
C526 C527 1.381 1_554 S
C526 H553 0.931 1_554 S
C527 C526 1.381 1_556 S
C527 C528 1.321 1_556 S
C528 C527 1.321 1_554 S
C528 C529 1.403 . S
C528 H554 0.933 . S
C529 C524 1.413 . S
C529 C528 1.403 . S
C529 H555 0.930 . S
C530 O544 1.275 . S
C530 O545 1.256 . S
C531 O546 1.259 . S
C531 O547 1.268 . S
C532 Ho521 2.811 . S
C532 C533 1.488 . S
C532 O548 1.215 . S
C532 O549 1.289 . S
C533 C532 1.488 . S
C533 C534 1.348 . S
C533 C538 1.413 . S
C534 C533 1.348 . S
C534 C535 1.442 . S
C534 H556 0.930 . S
C535 C534 1.442 . S
C535 C536 1.381 . S
C535 H557 0.931 . S
C536 C535 1.381 . S
C536 C537 1.321 . S
C537 C536 1.321 . S
C537 C538 1.403 . S
C537 H558 0.934 . S
C538 C533 1.413 . S
C538 C537 1.403 . S
C538 H559 0.930 . S
C539 O550 1.275 . S
C539 O551 1.256 . S
O540 Ho520 2.322 . S
O540 C522 1.259 . S
O541 Ho521 2.346 . S
O541 C522 1.268 . S
O542 Ho520 2.378 . S
O542 C523 1.215 . S
O543 Ho520 2.524 . S
O543 C523 1.289 . S
O544 Ho520 2.381 . S
O544 C530 1.275 . S
O545 Ho520 2.669 . S
O545 Ho521 2.305 . S
O545 C530 1.256 . S
O546 Ho521 2.322 . S
O546 C531 1.259 . S
O547 Ho520 2.346 . S
O547 C531 1.268 . S
O548 Ho521 2.378 . S
O548 C532 1.215 . S
O549 Ho521 2.524 . S
O549 C532 1.289 . S
O550 Ho521 2.381 . S
O550 C539 1.275 . S
O551 Ho520 2.305 . S
O551 Ho521 2.669 . S
O551 C539 1.256 . S
H552 C525 0.930 . S
H553 C526 0.931 1_556 S
H554 C528 0.933 . S
H555 C529 0.930 . S
H556 C534 0.930 . S
H557 C535 0.931 . S
H558 C537 0.934 . S
H559 C538 0.930 . S
Ho560 C563 2.811 . S
Ho560 O580 2.322 . S
Ho560 O582 2.378 . S
Ho560 O583 2.524 . S
Ho560 O584 2.381 . S
Ho560 O585 2.669 . S
Ho560 O587 2.346 . S
Ho560 O591 2.305 . S
Ho561 C572 2.811 . S
Ho561 O581 2.346 . S
Ho561 O585 2.305 . S
Ho561 O586 2.322 . S
Ho561 O588 2.378 . S
Ho561 O589 2.524 . S
Ho561 O590 2.381 . S
Ho561 O591 2.669 . S
C562 O580 1.259 . S
C562 O581 1.268 . S
C563 Ho560 2.811 . S
C563 C564 1.488 . S
C563 O582 1.215 . S
C563 O583 1.289 . S
C564 C563 1.488 . S
C564 C565 1.348 . S
C564 C569 1.413 . S
C565 C564 1.348 . S
C565 C566 1.442 . S
C565 H592 0.930 . S
C566 C565 1.442 . S
C566 C567 1.381 . S
C566 H593 0.931 . S
C567 C566 1.381 . S
C567 C568 1.321 . S
C568 C567 1.321 . S
C568 C569 1.403 . S
C568 H594 0.934 . S
C569 C564 1.413 . S
C569 C568 1.403 . S
C569 H595 0.930 . S
C570 O584 1.275 . S
C570 O585 1.256 . S
C571 O586 1.259 . S
C571 O587 1.268 . S
C572 Ho561 2.811 . S
C572 C573 1.488 . S
C572 O588 1.215 . S
C572 O589 1.289 . S
C573 C572 1.488 . S
C573 C574 1.348 . S
C573 C578 1.413 . S
C574 C573 1.348 . S
C574 C575 1.442 . S
C574 H596 0.930 . S
C575 C574 1.442 . S
C575 C576 1.381 1_556 S
C575 H597 0.931 1_556 S
C576 C575 1.381 1_554 S
C576 C577 1.321 1_554 S
C577 C576 1.321 1_556 S
C577 C578 1.403 . S
C577 H598 0.933 . S
C578 C573 1.413 . S
C578 C577 1.403 . S
C578 H599 0.930 . S
C579 O590 1.275 . S
C579 O591 1.256 . S
O580 Ho560 2.322 . S
O580 C562 1.259 . S
O581 Ho561 2.346 . S
O581 C562 1.268 . S
O582 Ho560 2.378 . S
O582 C563 1.215 . S
O583 Ho560 2.524 . S
O583 C563 1.289 . S
O584 Ho560 2.381 . S
O584 C570 1.275 . S
O585 Ho560 2.669 . S
O585 Ho561 2.305 . S
O585 C570 1.256 . S
O586 Ho561 2.322 . S
O586 C571 1.259 . S
O587 Ho560 2.346 . S
O587 C571 1.268 . S
O588 Ho561 2.378 . S
O588 C572 1.215 . S
O589 Ho561 2.524 . S
O589 C572 1.289 . S
O590 Ho561 2.381 . S
O590 C579 1.275 . S
O591 Ho560 2.305 . S
O591 Ho561 2.669 . S
O591 C579 1.256 . S
H592 C565 0.930 . S
H593 C566 0.931 . S
H594 C568 0.934 . S
H595 C569 0.930 . S
H596 C574 0.930 . S
H597 C575 0.931 1_554 S
H598 C577 0.933 . S
H599 C578 0.930 . S
Ho600 C603 2.811 . S
Ho600 O620 2.322 . S
Ho600 O622 2.378 . S
Ho600 O623 2.524 . S
Ho600 O624 2.381 . S
Ho600 O625 2.669 . S
Ho600 O627 2.346 . S
Ho600 O631 2.305 . S
Ho601 C612 2.811 . S
Ho601 O621 2.346 . S
Ho601 O625 2.305 . S
Ho601 O626 2.322 . S
Ho601 O628 2.378 . S
Ho601 O629 2.524 . S
Ho601 O630 2.381 . S
Ho601 O631 2.669 . S
C602 O620 1.259 . S
C602 O621 1.268 . S
C603 Ho600 2.811 . S
C603 C604 1.488 . S
C603 O622 1.215 . S
C603 O623 1.289 . S
C604 C603 1.488 . S
C604 C605 1.348 . S
C604 C609 1.413 . S
C605 C604 1.348 . S
C605 C606 1.442 . S
C605 H632 0.930 . S
C606 C605 1.442 . S
C606 C607 1.381 1_554 S
C606 H633 0.931 1_554 S
C607 C606 1.381 1_556 S
C607 C608 1.321 1_556 S
C608 C607 1.321 1_554 S
C608 C609 1.403 . S
C608 H634 0.933 . S
C609 C604 1.413 . S
C609 C608 1.403 . S
C609 H635 0.930 . S
C610 O624 1.275 . S
C610 O625 1.256 . S
C611 O626 1.259 . S
C611 O627 1.268 . S
C612 Ho601 2.811 . S
C612 C613 1.488 . S
C612 O628 1.215 . S
C612 O629 1.289 . S
C613 C612 1.488 . S
C613 C614 1.348 . S
C613 C618 1.413 . S
C614 C613 1.348 . S
C614 C615 1.442 . S
C614 H636 0.930 . S
C615 C614 1.442 . S
C615 C616 1.381 . S
C615 H637 0.931 . S
C616 C615 1.381 . S
C616 C617 1.321 . S
C617 C616 1.321 . S
C617 C618 1.403 . S
C617 H638 0.934 . S
C618 C613 1.413 . S
C618 C617 1.403 . S
C618 H639 0.930 . S
C619 O630 1.275 . S
C619 O631 1.256 . S
O620 Ho600 2.322 . S
O620 C602 1.259 . S
O621 Ho601 2.346 . S
O621 C602 1.268 . S
O622 Ho600 2.378 . S
O622 C603 1.215 . S
O623 Ho600 2.524 . S
O623 C603 1.289 . S
O624 Ho600 2.381 . S
O624 C610 1.275 . S
O625 Ho600 2.669 . S
O625 Ho601 2.305 . S
O625 C610 1.256 . S
O626 Ho601 2.322 . S
O626 C611 1.259 . S
O627 Ho600 2.346 . S
O627 C611 1.268 . S
O628 Ho601 2.378 . S
O628 C612 1.215 . S
O629 Ho601 2.524 . S
O629 C612 1.289 . S
O630 Ho601 2.381 . S
O630 C619 1.275 . S
O631 Ho600 2.305 . S
O631 Ho601 2.669 . S
O631 C619 1.256 . S
H632 C605 0.930 . S
H633 C606 0.931 1_556 S
H634 C608 0.933 . S
H635 C609 0.930 . S
H636 C614 0.930 . S
H637 C615 0.931 . S
H638 C617 0.934 . S
H639 C618 0.930 . S
C640 C641 1.363 . S
C640 C646 1.379 . S
C640 N648 1.356 . S
C641 C640 1.363 . S
C641 C647 1.363 . S
C642 C643 1.363 . S
C642 C647 1.379 . S
C642 N649 1.356 . S
C643 C642 1.363 . S
C643 C646 1.363 . S
N644 C646 1.356 1_545 S
N644 H656 0.984 . S
N644 H657 0.985 . S
N645 C647 1.356 . S
N645 H650 0.984 . S
N645 H651 0.985 . S
C646 C640 1.379 . S
C646 C643 1.363 . S
C646 N644 1.356 1_565 S
C647 C641 1.363 . S
C647 C642 1.379 . S
C647 N645 1.356 . S
N648 C640 1.356 . S
N648 H654 0.984 . S
N648 H655 0.984 . S
N649 C642 1.356 . S
N649 H652 0.984 1_565 S
N649 H653 0.985 . S
H650 N645 0.984 . S
H651 N645 0.985 . S
H652 N649 0.984 1_545 S
H653 N649 0.985 . S
H654 N648 0.984 . S
H655 N648 0.984 . S
H656 N644 0.984 . S
H657 N644 0.985 . S
C658 C659 1.363 . S
C658 C664 1.379 . S
C658 N666 1.356 . S
C659 C658 1.363 . S
C659 C665 1.363 . S
C660 C661 1.363 . S
C660 C665 1.379 . S
C660 N667 1.356 . S
C661 C660 1.363 . S
C661 C664 1.363 . S
N662 C664 1.356 1_455 S
N662 H674 0.984 . S
N662 H675 0.985 . S
N663 C665 1.356 . S
N663 H668 0.984 . S
N663 H669 0.985 . S
C664 C658 1.379 . S
C664 C661 1.363 . S
C664 N662 1.356 1_655 S
C665 C659 1.363 . S
C665 C660 1.379 . S
C665 N663 1.356 . S
N666 C658 1.356 . S
N666 H672 0.984 . S
N666 H673 0.984 . S
N667 C660 1.356 . S
N667 H670 0.984 1_655 S
N667 H671 0.985 . S
H668 N663 0.984 . S
H669 N663 0.985 . S
H670 N667 0.984 1_455 S
H671 N667 0.985 . S
H672 N666 0.984 . S
H673 N666 0.984 . S
H674 N662 0.984 . S
H675 N662 0.985 . S
C676 C677 1.363 . S
C676 C682 1.379 . S
C676 N684 1.356 . S
C677 C676 1.363 . S
C677 C683 1.363 . S
C678 C679 1.363 . S
C678 C683 1.379 . S
C678 N685 1.356 . S
C679 C678 1.363 . S
C679 C682 1.363 . S
N680 C682 1.356 . S
N680 H692 0.984 . S
N680 H693 0.985 . S
N681 C683 1.356 1_565 S
N681 H686 0.984 . S
N681 H687 0.985 . S
C682 C676 1.379 . S
C682 C679 1.363 . S
C682 N680 1.356 . S
C683 C677 1.363 . S
C683 C678 1.379 . S
C683 N681 1.356 1_545 S
N684 C676 1.356 . S
N684 H690 0.984 . S
N684 H691 0.984 . S
N685 C678 1.356 . S
N685 H688 0.984 . S
N685 H689 0.985 . S
H686 N681 0.984 . S
H687 N681 0.985 . S
H688 N685 0.984 . S
H689 N685 0.985 . S
H690 N684 0.984 . S
H691 N684 0.984 . S
H692 N680 0.984 . S
H693 N680 0.985 . S
C694 C695 1.363 . S
C694 C700 1.379 . S
C694 N702 1.356 . S
C695 C694 1.363 . S
C695 C701 1.363 . S
C696 C697 1.363 . S
C696 C701 1.379 . S
C696 N703 1.356 . S
C697 C696 1.363 . S
C697 C700 1.363 . S
N698 C700 1.356 . S
N698 H710 0.984 . S
N698 H711 0.985 . S
N699 C701 1.356 1_655 S
N699 H704 0.984 . S
N699 H705 0.985 . S
C700 C694 1.379 . S
C700 C697 1.363 . S
C700 N698 1.356 . S
C701 C695 1.363 . S
C701 C696 1.379 . S
C701 N699 1.356 1_455 S
N702 C694 1.356 . S
N702 H708 0.984 . S
N702 H709 0.984 . S
N703 C696 1.356 . S
N703 H706 0.984 . S
N703 H707 0.985 . S
H704 N699 0.984 . S
H705 N699 0.985 . S
H706 N703 0.984 . S
H707 N703 0.985 . S
H708 N702 0.984 . S
H709 N702 0.984 . S
H710 N698 0.984 . S
H711 N698 0.985 . S
C712 C713 1.363 . S
C712 C718 1.379 . S
C712 N720 1.356 . S
C713 C712 1.363 . S
C713 C719 1.363 . S
C714 C715 1.363 1_556 S
C714 C719 1.379 1_556 S
C714 N721 1.356 . S
C715 C714 1.363 1_554 S
C715 C718 1.363 . S
N716 C718 1.356 . S
N716 H728 0.984 . S
N716 H729 0.985 . S
N717 C719 1.356 . S
N717 H722 0.984 . S
N717 H723 0.985 1_554 S
C718 C712 1.379 . S
C718 C715 1.363 . S
C718 N716 1.356 . S
C719 C713 1.363 . S
C719 C714 1.379 1_554 S
C719 N717 1.356 . S
N720 C712 1.356 . S
N720 H726 0.984 . S
N720 H727 0.984 . S
N721 C714 1.356 . S
N721 H724 0.984 . S
N721 H725 0.985 . S
H722 N717 0.984 . S
H723 N717 0.985 1_556 S
H724 N721 0.984 . S
H725 N721 0.985 . S
H726 N720 0.984 . S
H727 N720 0.984 . S
H728 N716 0.984 . S
H729 N716 0.985 . S
C730 C731 1.363 . S
C730 C736 1.379 . S
C730 N738 1.356 . S
C731 C730 1.363 . S
C731 C737 1.363 1_556 S
C732 C733 1.363 . S
C732 C737 1.379 1_556 S
C732 N739 1.356 . S
C733 C732 1.363 . S
C733 C736 1.363 . S
N734 C736 1.356 . S
N734 H746 0.984 . S
N734 H747 0.985 . S
N735 C737 1.356 . S
N735 H740 0.984 . S
N735 H741 0.985 . S
C736 C730 1.379 . S
C736 C733 1.363 . S
C736 N734 1.356 . S
C737 C731 1.363 1_554 S
C737 C732 1.379 1_554 S
C737 N735 1.356 . S
N738 C730 1.356 . S
N738 H744 0.984 . S
N738 H745 0.984 . S
N739 C732 1.356 . S
N739 H742 0.984 . S
N739 H743 0.985 . S
H740 N735 0.984 . S
H741 N735 0.985 . S
H742 N739 0.984 . S
H743 N739 0.985 . S
H744 N738 0.984 . S
H745 N738 0.984 . S
H746 N734 0.984 . S
H747 N734 0.985 . S
C748 C749 1.363 . S
C748 C754 1.379 . S
C748 N756 1.356 . S
C749 C748 1.363 . S
C749 C755 1.363 . S
C750 C751 1.363 1_556 S
C750 C755 1.379 1_556 S
C750 N757 1.356 . S
C751 C750 1.363 1_554 S
C751 C754 1.363 . S
N752 C754 1.356 . S
N752 H764 0.984 . S
N752 H765 0.985 . S
N753 C755 1.356 . S
N753 H758 0.984 . S
N753 H759 0.985 1_554 S
C754 C748 1.379 . S
C754 C751 1.363 . S
C754 N752 1.356 . S
C755 C749 1.363 . S
C755 C750 1.379 1_554 S
C755 N753 1.356 . S
N756 C748 1.356 . S
N756 H762 0.984 . S
N756 H763 0.984 . S
N757 C750 1.356 . S
N757 H760 0.984 . S
N757 H761 0.985 . S
H758 N753 0.984 . S
H759 N753 0.985 1_556 S
H760 N757 0.984 . S
H761 N757 0.985 . S
H762 N756 0.984 . S
H763 N756 0.984 . S
H764 N752 0.984 . S
H765 N752 0.985 . S
C766 C767 1.363 1_554 S
C766 C772 1.379 1_554 S
C766 N774 1.356 . S
C767 C766 1.363 1_556 S
C767 C773 1.363 . S
C768 C769 1.363 . S
C768 C773 1.379 . S
C768 N775 1.356 . S
C769 C768 1.363 . S
C769 C772 1.363 . S
N770 C772 1.356 . S
N770 H782 0.984 1_556 S
N770 H783 0.985 . S
N771 C773 1.356 . S
N771 H776 0.984 . S
N771 H777 0.985 . S
C772 C766 1.379 1_556 S
C772 C769 1.363 . S
C772 N770 1.356 . S
C773 C767 1.363 . S
C773 C768 1.379 . S
C773 N771 1.356 . S
N774 C766 1.356 . S
N774 H780 0.984 . S
N774 H781 0.984 . S
N775 C768 1.356 . S
N775 H778 0.984 . S
N775 H779 0.985 . S
H776 N771 0.984 . S
H777 N771 0.985 . S
H778 N775 0.984 . S
H779 N775 0.985 . S
H780 N774 0.984 . S
H781 N774 0.984 . S
H782 N770 0.984 1_554 S
H783 N770 0.985 . S
C784 C785 1.363 . S
C784 C790 1.379 . S
C784 N792 1.356 . S
C785 C784 1.363 . S
C785 C791 1.363 . S
C786 C787 1.363 . S
C786 C791 1.379 . S
C786 N793 1.356 . S
C787 C786 1.363 . S
C787 C790 1.363 . S
N788 C790 1.356 . S
N788 H800 0.984 . S
N788 H801 0.985 . S
N789 C791 1.356 . S
N789 H794 0.984 . S
N789 H795 0.985 . S
C790 C784 1.379 . S
C790 C787 1.363 . S
C790 N788 1.356 . S
C791 C785 1.363 . S
C791 C786 1.379 . S
C791 N789 1.356 . S
N792 C784 1.356 . S
N792 H798 0.984 . S
N792 H799 0.984 . S
N793 C786 1.356 . S
N793 H796 0.984 . S
N793 H797 0.985 . S
H794 N789 0.984 . S
H795 N789 0.985 . S
H796 N793 0.984 . S
H797 N793 0.985 . S
H798 N792 0.984 . S
H799 N792 0.984 . S
H800 N788 0.984 . S
H801 N788 0.985 . S
C802 C803 1.363 . S
C802 C808 1.379 . S
C802 N810 1.356 . S
C803 C802 1.363 . S
C803 C809 1.363 . S
C804 C805 1.363 . S
C804 C809 1.379 . S
C804 N811 1.356 . S
C805 C804 1.363 . S
C805 C808 1.363 . S
N806 C808 1.356 . S
N806 H818 0.984 . S
N806 H819 0.985 . S
N807 C809 1.356 . S
N807 H812 0.984 . S
N807 H813 0.985 . S
C808 C802 1.379 . S
C808 C805 1.363 . S
C808 N806 1.356 . S
C809 C803 1.363 . S
C809 C804 1.379 . S
C809 N807 1.356 . S
N810 C802 1.356 . S
N810 H816 0.984 . S
N810 H817 0.984 . S
N811 C804 1.356 . S
N811 H814 0.984 . S
N811 H815 0.985 . S
H812 N807 0.984 . S
H813 N807 0.985 . S
H814 N811 0.984 . S
H815 N811 0.985 . S
H816 N810 0.984 . S
H817 N810 0.984 . S
H818 N806 0.984 . S
H819 N806 0.985 . S
C820 C821 1.363 . S
C820 C826 1.379 . S
C820 N828 1.356 . S
C821 C820 1.363 . S
C821 C827 1.363 . S
C822 C823 1.363 . S
C822 C827 1.379 . S
C822 N829 1.356 . S
C823 C822 1.363 . S
C823 C826 1.363 . S
N824 C826 1.356 . S
N824 H836 0.984 . S
N824 H837 0.985 . S
N825 C827 1.356 . S
N825 H830 0.984 . S
N825 H831 0.985 . S
C826 C820 1.379 . S
C826 C823 1.363 . S
C826 N824 1.356 . S
C827 C821 1.363 . S
C827 C822 1.379 . S
C827 N825 1.356 . S
N828 C820 1.356 . S
N828 H834 0.984 . S
N828 H835 0.984 . S
N829 C822 1.356 . S
N829 H832 0.984 . S
N829 H833 0.985 . S
H830 N825 0.984 . S
H831 N825 0.985 . S
H832 N829 0.984 . S
H833 N829 0.985 . S
H834 N828 0.984 . S
H835 N828 0.984 . S
H836 N824 0.984 . S
H837 N824 0.985 . S
C838 C839 1.363 . S
C838 C844 1.379 . S
C838 N846 1.356 . S
C839 C838 1.363 . S
C839 C845 1.363 . S
C840 C841 1.363 . S
C840 C845 1.379 . S
C840 N847 1.356 . S
C841 C840 1.363 . S
C841 C844 1.363 . S
N842 C844 1.356 . S
N842 H854 0.984 . S
N842 H855 0.985 . S
N843 C845 1.356 . S
N843 H848 0.984 . S
N843 H849 0.985 . S
C844 C838 1.379 . S
C844 C841 1.363 . S
C844 N842 1.356 . S
C845 C839 1.363 . S
C845 C840 1.379 . S
C845 N843 1.356 . S
N846 C838 1.356 . S
N846 H852 0.984 . S
N846 H853 0.984 . S
N847 C840 1.356 . S
N847 H850 0.984 . S
N847 H851 0.985 . S
H848 N843 0.984 . S
H849 N843 0.985 . S
H850 N847 0.984 . S
H851 N847 0.985 . S
H852 N846 0.984 . S
H853 N846 0.984 . S
H854 N842 0.984 . S
H855 N842 0.985 . S
C856 C857 1.363 . S
C856 C862 1.379 . S
C856 N864 1.356 . S
C857 C856 1.363 . S
C857 C863 1.363 . S
C858 C859 1.363 . S
C858 C863 1.379 . S
C858 N865 1.356 . S
C859 C858 1.363 . S
C859 C862 1.363 . S
N860 C862 1.356 . S
N860 H872 0.984 . S
N860 H873 0.985 . S
N861 C863 1.356 1_565 S
N861 H866 0.984 . S
N861 H867 0.985 . S
C862 C856 1.379 . S
C862 C859 1.363 . S
C862 N860 1.356 . S
C863 C857 1.363 . S
C863 C858 1.379 . S
C863 N861 1.356 1_545 S
N864 C856 1.356 . S
N864 H870 0.984 . S
N864 H871 0.984 . S
N865 C858 1.356 . S
N865 H868 0.984 . S
N865 H869 0.985 . S
H866 N861 0.984 . S
H867 N861 0.985 . S
H868 N865 0.984 . S
H869 N865 0.985 . S
H870 N864 0.984 . S
H871 N864 0.984 . S
H872 N860 0.984 . S
H873 N860 0.985 . S
C874 C875 1.363 . S
C874 C880 1.379 . S
C874 N882 1.356 . S
C875 C874 1.363 . S
C875 C881 1.363 . S
C876 C877 1.363 . S
C876 C881 1.379 . S
C876 N883 1.356 . S
C877 C876 1.363 . S
C877 C880 1.363 . S
N878 C880 1.356 1_655 S
N878 H890 0.984 . S
N878 H891 0.985 . S
N879 C881 1.356 . S
N879 H884 0.984 . S
N879 H885 0.985 . S
C880 C874 1.379 . S
C880 C877 1.363 . S
C880 N878 1.356 1_455 S
C881 C875 1.363 . S
C881 C876 1.379 . S
C881 N879 1.356 . S
N882 C874 1.356 . S
N882 H888 0.984 . S
N882 H889 0.984 . S
N883 C876 1.356 . S
N883 H886 0.984 1_455 S
N883 H887 0.985 . S
H884 N879 0.984 . S
H885 N879 0.985 . S
H886 N883 0.984 1_655 S
H887 N883 0.985 . S
H888 N882 0.984 . S
H889 N882 0.984 . S
H890 N878 0.984 . S
H891 N878 0.985 . S
C892 C893 1.363 . S
C892 C898 1.379 . S
C892 N900 1.356 . S
C893 C892 1.363 . S
C893 C899 1.363 . S
C894 C895 1.363 . S
C894 C899 1.379 . S
C894 N901 1.356 . S
C895 C894 1.363 . S
C895 C898 1.363 . S
N896 C898 1.356 1_545 S
N896 H908 0.984 . S
N896 H909 0.985 . S
N897 C899 1.356 . S
N897 H902 0.984 . S
N897 H903 0.985 . S
C898 C892 1.379 . S
C898 C895 1.363 . S
C898 N896 1.356 1_565 S
C899 C893 1.363 . S
C899 C894 1.379 . S
C899 N897 1.356 . S
N900 C892 1.356 . S
N900 H906 0.984 . S
N900 H907 0.984 . S
N901 C894 1.356 . S
N901 H904 0.984 1_565 S
N901 H905 0.985 . S
H902 N897 0.984 . S
H903 N897 0.985 . S
H904 N901 0.984 1_545 S
H905 N901 0.985 . S
H906 N900 0.984 . S
H907 N900 0.984 . S
H908 N896 0.984 . S
H909 N896 0.985 . S
C910 C911 1.363 . S
C910 C916 1.379 . S
C910 N918 1.356 1_655 S
C911 C910 1.363 . S
C911 C917 1.363 . S
C912 C913 1.363 . S
C912 C917 1.379 . S
C912 N919 1.356 . S
C913 C912 1.363 . S
C913 C916 1.363 . S
N914 C916 1.356 . S
N914 H926 0.984 . S
N914 H927 0.985 . S
N915 C917 1.356 . S
N915 H920 0.984 1_655 S
N915 H921 0.985 . S
C916 C910 1.379 . S
C916 C913 1.363 . S
C916 N914 1.356 . S
C917 C911 1.363 . S
C917 C912 1.379 . S
C917 N915 1.356 . S
N918 C910 1.356 1_455 S
N918 H924 0.984 . S
N918 H925 0.984 . S
N919 C912 1.356 . S
N919 H922 0.984 . S
N919 H923 0.985 . S
H920 N915 0.984 1_455 S
H921 N915 0.985 . S
H922 N919 0.984 . S
H923 N919 0.985 . S
H924 N918 0.984 . S
H925 N918 0.984 . S
H926 N914 0.984 . S
H927 N914 0.985 . S
C928 C929 1.363 . S
C928 C934 1.379 . S
C928 N936 1.356 . S
C929 C928 1.363 . S
C929 C935 1.363 . S
C930 C931 1.363 . S
C930 C935 1.379 . S
C930 N937 1.356 . S
C931 C930 1.363 . S
C931 C934 1.363 . S
N932 C934 1.356 . S
N932 H944 0.984 . S
N932 H945 0.985 . S
N933 C935 1.356 . S
N933 H938 0.984 . S
N933 H939 0.985 . S
C934 C928 1.379 . S
C934 C931 1.363 . S
C934 N932 1.356 . S
C935 C929 1.363 . S
C935 C930 1.379 . S
C935 N933 1.356 . S
N936 C928 1.356 . S
N936 H942 0.984 1_554 S
N936 H943 0.984 . S
N937 C930 1.356 . S
N937 H940 0.984 . S
N937 H941 0.985 . S
H938 N933 0.984 . S
H939 N933 0.985 . S
H940 N937 0.984 . S
H941 N937 0.985 . S
H942 N936 0.984 1_556 S
H943 N936 0.984 . S
H944 N932 0.984 . S
H945 N932 0.985 . S
C946 C947 1.363 . S
C946 C952 1.379 . S
C946 N954 1.356 . S
C947 C946 1.363 . S
C947 C953 1.363 . S
C948 C949 1.363 . S
C948 C953 1.379 . S
C948 N955 1.356 . S
C949 C948 1.363 . S
C949 C952 1.363 . S
N950 C952 1.356 . S
N950 H962 0.984 . S
N950 H963 0.985 . S
N951 C953 1.356 . S
N951 H956 0.984 . S
N951 H957 0.985 . S
C952 C946 1.379 . S
C952 C949 1.363 . S
C952 N950 1.356 . S
C953 C947 1.363 . S
C953 C948 1.379 . S
C953 N951 1.356 . S
N954 C946 1.356 . S
N954 H960 0.984 . S
N954 H961 0.984 . S
N955 C948 1.356 . S
N955 H958 0.984 . S
N955 H959 0.985 . S
H956 N951 0.984 . S
H957 N951 0.985 . S
H958 N955 0.984 . S
H959 N955 0.985 . S
H960 N954 0.984 . S
H961 N954 0.984 . S
H962 N950 0.984 . S
H963 N950 0.985 . S
C964 C965 1.363 . S
C964 C970 1.379 . S
C964 N972 1.356 . S
C965 C964 1.363 . S
C965 C971 1.363 . S
C966 C967 1.363 . S
C966 C971 1.379 . S
C966 N973 1.356 . S
C967 C966 1.363 . S
C967 C970 1.363 . S
N968 C970 1.356 . S
N968 H980 0.984 . S
N968 H981 0.985 . S
N969 C971 1.356 . S
N969 H974 0.984 . S
N969 H975 0.985 1_554 S
C970 C964 1.379 . S
C970 C967 1.363 . S
C970 N968 1.356 . S
C971 C965 1.363 . S
C971 C966 1.379 . S
C971 N969 1.356 . S
N972 C964 1.356 . S
N972 H978 0.984 . S
N972 H979 0.984 . S
N973 C966 1.356 . S
N973 H976 0.984 . S
N973 H977 0.985 . S
H974 N969 0.984 . S
H975 N969 0.985 1_556 S
H976 N973 0.984 . S
H977 N973 0.985 . S
H978 N972 0.984 . S
H979 N972 0.984 . S
H980 N968 0.984 . S
H981 N968 0.985 . S
C982 C983 1.363 . S
C982 C988 1.379 . S
C982 N990 1.356 . S
C983 C982 1.363 . S
C983 C989 1.363 . S
C984 C985 1.363 . S
C984 C989 1.379 . S
C984 N991 1.356 . S
C985 C984 1.363 . S
C985 C988 1.363 . S
N986 C988 1.356 . S
N986 H998 0.984 . S
N986 H999 0.985 . S
N987 C989 1.356 . S
N987 H992 0.984 . S
N987 H993 0.985 . S
C988 C982 1.379 . S
C988 C985 1.363 . S
C988 N986 1.356 . S
C989 C983 1.363 . S
C989 C984 1.379 . S
C989 N987 1.356 . S
N990 C982 1.356 . S
N990 H996 0.984 . S
N990 H997 0.984 . S
N991 C984 1.356 . S
N991 H994 0.984 . S
N991 H995 0.985 . S
H992 N987 0.984 . S
H993 N987 0.985 . S
H994 N991 0.984 . S
H995 N991 0.985 . S
H996 N990 0.984 . S
H997 N990 0.984 . S
H998 N986 0.984 . S
H999 N986 0.985 . S
C1000 C1001 1.363 . S
C1000 C1006 1.379 . S
C1000 N1008 1.356 . S
C1001 C1000 1.363 . S
C1001 C1007 1.363 . S
C1002 C1003 1.363 . S
C1002 C1007 1.379 . S
C1002 N1009 1.356 . S
C1003 C1002 1.363 . S
C1003 C1006 1.363 . S
N1004 C1006 1.356 . S
N1004 H1016 0.984 . S
N1004 H1017 0.985 . S
N1005 C1007 1.356 . S
N1005 H1010 0.984 . S
N1005 H1011 0.985 . S
C1006 C1000 1.379 . S
C1006 C1003 1.363 . S
C1006 N1004 1.356 . S
C1007 C1001 1.363 . S
C1007 C1002 1.379 . S
C1007 N1005 1.356 . S
N1008 C1000 1.356 . S
N1008 H1014 0.984 . S
N1008 H1015 0.984 . S
N1009 C1002 1.356 . S
N1009 H1012 0.984 . S
N1009 H1013 0.985 . S
H1010 N1005 0.984 . S
H1011 N1005 0.985 . S
H1012 N1009 0.984 . S
H1013 N1009 0.985 . S
H1014 N1008 0.984 . S
H1015 N1008 0.984 . S
H1016 N1004 0.984 . S
H1017 N1004 0.985 . S
C1018 C1019 1.363 . S
C1018 C1024 1.379 . S
C1018 N1026 1.356 . S
C1019 C1018 1.363 . S
C1019 C1025 1.363 . S
C1020 C1021 1.363 . S
C1020 C1025 1.379 . S
C1020 N1027 1.356 . S
C1021 C1020 1.363 . S
C1021 C1024 1.363 . S
N1022 C1024 1.356 . S
N1022 H1034 0.984 . S
N1022 H1035 0.985 . S
N1023 C1025 1.356 . S
N1023 H1028 0.984 . S
N1023 H1029 0.985 . S
C1024 C1018 1.379 . S
C1024 C1021 1.363 . S
C1024 N1022 1.356 . S
C1025 C1019 1.363 . S
C1025 C1020 1.379 . S
C1025 N1023 1.356 . S
N1026 C1018 1.356 . S
N1026 H1032 0.984 . S
N1026 H1033 0.984 . S
N1027 C1020 1.356 . S
N1027 H1030 0.984 . S
N1027 H1031 0.985 . S
H1028 N1023 0.984 . S
H1029 N1023 0.985 . S
H1030 N1027 0.984 . S
H1031 N1027 0.985 . S
H1032 N1026 0.984 . S
H1033 N1026 0.984 . S
H1034 N1022 0.984 . S
H1035 N1022 0.985 . S
C1036 C1037 1.363 . S
C1036 C1042 1.379 . S
C1036 N1044 1.356 . S
C1037 C1036 1.363 . S
C1037 C1043 1.363 . S
C1038 C1039 1.363 . S
C1038 C1043 1.379 . S
C1038 N1045 1.356 . S
C1039 C1038 1.363 . S
C1039 C1042 1.363 . S
N1040 C1042 1.356 . S
N1040 H1052 0.984 . S
N1040 H1053 0.985 . S
N1041 C1043 1.356 . S
N1041 H1046 0.984 . S
N1041 H1047 0.985 . S
C1042 C1036 1.379 . S
C1042 C1039 1.363 . S
C1042 N1040 1.356 . S
C1043 C1037 1.363 . S
C1043 C1038 1.379 . S
C1043 N1041 1.356 . S
N1044 C1036 1.356 . S
N1044 H1050 0.984 . S
N1044 H1051 0.984 . S
N1045 C1038 1.356 . S
N1045 H1048 0.984 . S
N1045 H1049 0.985 . S
H1046 N1041 0.984 . S
H1047 N1041 0.985 . S
H1048 N1045 0.984 . S
H1049 N1045 0.985 . S
H1050 N1044 0.984 . S
H1051 N1044 0.984 . S
H1052 N1040 0.984 . S
H1053 N1040 0.985 . S
C1054 C1055 1.363 . S
C1054 C1060 1.379 . S
C1054 N1062 1.356 . S
C1055 C1054 1.363 . S
C1055 C1061 1.363 . S
C1056 C1057 1.363 . S
C1056 C1061 1.379 . S
C1056 N1063 1.356 . S
C1057 C1056 1.363 . S
C1057 C1060 1.363 . S
N1058 C1060 1.356 . S
N1058 H1070 0.984 . S
N1058 H1071 0.985 . S
N1059 C1061 1.356 . S
N1059 H1064 0.984 . S
N1059 H1065 0.985 . S
C1060 C1054 1.379 . S
C1060 C1057 1.363 . S
C1060 N1058 1.356 . S
C1061 C1055 1.363 . S
C1061 C1056 1.379 . S
C1061 N1059 1.356 . S
N1062 C1054 1.356 . S
N1062 H1068 0.984 . S
N1062 H1069 0.984 . S
N1063 C1056 1.356 . S
N1063 H1066 0.984 . S
N1063 H1067 0.985 . S
H1064 N1059 0.984 . S
H1065 N1059 0.985 . S
H1066 N1063 0.984 . S
H1067 N1063 0.985 . S
H1068 N1062 0.984 . S
H1069 N1062 0.984 . S
H1070 N1058 0.984 . S
H1071 N1058 0.985 . S
C1072 C1073 1.363 . S
C1072 C1078 1.379 . S
C1072 N1080 1.356 . S
C1073 C1072 1.363 . S
C1073 C1079 1.363 . S
C1074 C1075 1.363 . S
C1074 C1079 1.379 . S
C1074 N1081 1.356 . S
C1075 C1074 1.363 . S
C1075 C1078 1.363 . S
N1076 C1078 1.356 . S
N1076 H1088 0.984 . S
N1076 H1089 0.985 . S
N1077 C1079 1.356 . S
N1077 H1082 0.984 . S
N1077 H1083 0.985 . S
C1078 C1072 1.379 . S
C1078 C1075 1.363 . S
C1078 N1076 1.356 . S
C1079 C1073 1.363 . S
C1079 C1074 1.379 . S
C1079 N1077 1.356 . S
N1080 C1072 1.356 . S
N1080 H1086 0.984 . S
N1080 H1087 0.984 . S
N1081 C1074 1.356 . S
N1081 H1084 0.984 . S
N1081 H1085 0.985 . S
H1082 N1077 0.984 . S
H1083 N1077 0.985 . S
H1084 N1081 0.984 . S
H1085 N1081 0.985 . S
H1086 N1080 0.984 . S
H1087 N1080 0.984 . S
H1088 N1076 0.984 . S
H1089 N1076 0.985 . S
C1090 C1091 1.363 . S
C1090 C1096 1.379 . S
C1090 N1098 1.356 . S
C1091 C1090 1.363 . S
C1091 C1097 1.363 . S
C1092 C1093 1.363 . S
C1092 C1097 1.379 . S
C1092 N1099 1.356 . S
C1093 C1092 1.363 . S
C1093 C1096 1.363 . S
N1094 C1096 1.356 . S
N1094 H1106 0.984 . S
N1094 H1107 0.985 . S
N1095 C1097 1.356 . S
N1095 H1100 0.984 . S
N1095 H1101 0.985 . S
C1096 C1090 1.379 . S
C1096 C1093 1.363 . S
C1096 N1094 1.356 . S
C1097 C1091 1.363 . S
C1097 C1092 1.379 . S
C1097 N1095 1.356 . S
N1098 C1090 1.356 . S
N1098 H1104 0.984 . S
N1098 H1105 0.984 . S
N1099 C1092 1.356 . S
N1099 H1102 0.984 . S
N1099 H1103 0.985 . S
H1100 N1095 0.984 . S
H1101 N1095 0.985 . S
H1102 N1099 0.984 . S
H1103 N1099 0.985 . S
H1104 N1098 0.984 . S
H1105 N1098 0.984 . S
H1106 N1094 0.984 . S
H1107 N1094 0.985 . S
C1108 C1109 1.363 . S
C1108 C1114 1.379 . S
C1108 N1116 1.356 . S
C1109 C1108 1.363 . S
C1109 C1115 1.363 . S
C1110 C1111 1.363 . S
C1110 C1115 1.379 . S
C1110 N1117 1.356 . S
C1111 C1110 1.363 . S
C1111 C1114 1.363 . S
N1112 C1114 1.356 . S
N1112 H1124 0.984 . S
N1112 H1125 0.985 . S
N1113 C1115 1.356 . S
N1113 H1118 0.984 . S
N1113 H1119 0.985 . S
C1114 C1108 1.379 . S
C1114 C1111 1.363 . S
C1114 N1112 1.356 . S
C1115 C1109 1.363 . S
C1115 C1110 1.379 . S
C1115 N1113 1.356 . S
N1116 C1108 1.356 . S
N1116 H1122 0.984 . S
N1116 H1123 0.984 . S
N1117 C1110 1.356 . S
N1117 H1120 0.984 . S
N1117 H1121 0.985 . S
H1118 N1113 0.984 . S
H1119 N1113 0.985 . S
H1120 N1117 0.984 . S
H1121 N1117 0.985 . S
H1122 N1116 0.984 . S
H1123 N1116 0.984 . S
H1124 N1112 0.984 . S
H1125 N1112 0.985 . S
C1126 C1127 1.363 . S
C1126 C1132 1.379 . S
C1126 N1134 1.356 . S
C1127 C1126 1.363 . S
C1127 C1133 1.363 . S
C1128 C1129 1.363 . S
C1128 C1133 1.379 . S
C1128 N1135 1.356 . S
C1129 C1128 1.363 . S
C1129 C1132 1.363 . S
N1130 C1132 1.356 . S
N1130 H1142 0.984 . S
N1130 H1143 0.985 . S
N1131 C1133 1.356 . S
N1131 H1136 0.984 . S
N1131 H1137 0.985 . S
C1132 C1126 1.379 . S
C1132 C1129 1.363 . S
C1132 N1130 1.356 . S
C1133 C1127 1.363 . S
C1133 C1128 1.379 . S
C1133 N1131 1.356 . S
N1134 C1126 1.356 . S
N1134 H1140 0.984 . S
N1134 H1141 0.984 . S
N1135 C1128 1.356 . S
N1135 H1138 0.984 . S
N1135 H1139 0.985 . S
H1136 N1131 0.984 . S
H1137 N1131 0.985 . S
H1138 N1135 0.984 . S
H1139 N1135 0.985 . S
H1140 N1134 0.984 . S
H1141 N1134 0.984 . S
H1142 N1130 0.984 . S
H1143 N1130 0.985 . S
C1144 C1145 1.363 . S
C1144 C1150 1.379 . S
C1144 N1152 1.356 . S
C1145 C1144 1.363 . S
C1145 C1151 1.363 . S
C1146 C1147 1.363 . S
C1146 C1151 1.379 . S
C1146 N1153 1.356 . S
C1147 C1146 1.363 . S
C1147 C1150 1.363 . S
N1148 C1150 1.356 . S
N1148 H1160 0.984 . S
N1148 H1161 0.985 . S
N1149 C1151 1.356 . S
N1149 H1154 0.984 . S
N1149 H1155 0.985 . S
C1150 C1144 1.379 . S
C1150 C1147 1.363 . S
C1150 N1148 1.356 . S
C1151 C1145 1.363 . S
C1151 C1146 1.379 . S
C1151 N1149 1.356 . S
N1152 C1144 1.356 . S
N1152 H1158 0.984 . S
N1152 H1159 0.984 . S
N1153 C1146 1.356 . S
N1153 H1156 0.984 . S
N1153 H1157 0.985 . S
H1154 N1149 0.984 . S
H1155 N1149 0.985 . S
H1156 N1153 0.984 . S
H1157 N1153 0.985 . S
H1158 N1152 0.984 . S
H1159 N1152 0.984 . S
H1160 N1148 0.984 . S
H1161 N1148 0.985 . S
C1162 C1163 1.363 . S
C1162 C1168 1.379 . S
C1162 N1170 1.356 . S
C1163 C1162 1.363 . S
C1163 C1169 1.363 . S
C1164 C1165 1.363 . S
C1164 C1169 1.379 . S
C1164 N1171 1.356 . S
C1165 C1164 1.363 . S
C1165 C1168 1.363 . S
N1166 C1168 1.356 . S
N1166 H1178 0.984 . S
N1166 H1179 0.985 . S
N1167 C1169 1.356 . S
N1167 H1172 0.984 . S
N1167 H1173 0.985 . S
C1168 C1162 1.379 . S
C1168 C1165 1.363 . S
C1168 N1166 1.356 . S
C1169 C1163 1.363 . S
C1169 C1164 1.379 . S
C1169 N1167 1.356 . S
N1170 C1162 1.356 . S
N1170 H1176 0.984 . S
N1170 H1177 0.984 . S
N1171 C1164 1.356 . S
N1171 H1174 0.984 . S
N1171 H1175 0.985 . S
H1172 N1167 0.984 . S
H1173 N1167 0.985 . S
H1174 N1171 0.984 . S
H1175 N1171 0.985 . S
H1176 N1170 0.984 . S
H1177 N1170 0.984 . S
H1178 N1166 0.984 . S
H1179 N1166 0.985 . S
C1180 C1181 1.363 . S
C1180 C1186 1.379 . S
C1180 N1188 1.356 . S
C1181 C1180 1.363 . S
C1181 C1187 1.363 . S
C1182 C1183 1.363 . S
C1182 C1187 1.379 . S
C1182 N1189 1.356 . S
C1183 C1182 1.363 . S
C1183 C1186 1.363 . S
N1184 C1186 1.356 . S
N1184 H1196 0.984 . S
N1184 H1197 0.985 . S
N1185 C1187 1.356 . S
N1185 H1190 0.984 . S
N1185 H1191 0.985 . S
C1186 C1180 1.379 . S
C1186 C1183 1.363 . S
C1186 N1184 1.356 . S
C1187 C1181 1.363 . S
C1187 C1182 1.379 . S
C1187 N1185 1.356 . S
N1188 C1180 1.356 . S
N1188 H1194 0.984 . S
N1188 H1195 0.984 . S
N1189 C1182 1.356 . S
N1189 H1192 0.984 . S
N1189 H1193 0.985 . S
H1190 N1185 0.984 . S
H1191 N1185 0.985 . S
H1192 N1189 0.984 . S
H1193 N1189 0.985 . S
H1194 N1188 0.984 . S
H1195 N1188 0.984 . S
H1196 N1184 0.984 . S
H1197 N1184 0.985 . S
C1198 C1199 1.363 . S
C1198 C1204 1.379 . S
C1198 N1206 1.356 . S
C1199 C1198 1.363 . S
C1199 C1205 1.363 . S
C1200 C1201 1.363 . S
C1200 C1205 1.379 . S
C1200 N1207 1.356 . S
C1201 C1200 1.363 . S
C1201 C1204 1.363 . S
N1202 C1204 1.356 . S
N1202 H1214 0.984 . S
N1202 H1215 0.985 . S
N1203 C1205 1.356 . S
N1203 H1208 0.984 . S
N1203 H1209 0.985 . S
C1204 C1198 1.379 . S
C1204 C1201 1.363 . S
C1204 N1202 1.356 . S
C1205 C1199 1.363 . S
C1205 C1200 1.379 . S
C1205 N1203 1.356 . S
N1206 C1198 1.356 . S
N1206 H1212 0.984 . S
N1206 H1213 0.984 . S
N1207 C1200 1.356 . S
N1207 H1210 0.984 . S
N1207 H1211 0.985 . S
H1208 N1203 0.984 . S
H1209 N1203 0.985 . S
H1210 N1207 0.984 . S
H1211 N1207 0.985 . S
H1212 N1206 0.984 . S
H1213 N1206 0.984 . S
H1214 N1202 0.984 . S
H1215 N1202 0.985 . S
C1216 C1217 1.363 . S
C1216 C1222 1.379 . S
C1216 N1224 1.356 . S
C1217 C1216 1.363 . S
C1217 C1223 1.363 . S
C1218 C1219 1.363 . S
C1218 C1223 1.379 . S
C1218 N1225 1.356 . S
C1219 C1218 1.363 . S
C1219 C1222 1.363 . S
N1220 C1222 1.356 . S
N1220 H1232 0.984 . S
N1220 H1233 0.985 . S
N1221 C1223 1.356 . S
N1221 H1226 0.984 . S
N1221 H1227 0.985 . S
C1222 C1216 1.379 . S
C1222 C1219 1.363 . S
C1222 N1220 1.356 . S
C1223 C1217 1.363 . S
C1223 C1218 1.379 . S
C1223 N1221 1.356 . S
N1224 C1216 1.356 . S
N1224 H1230 0.984 . S
N1224 H1231 0.984 . S
N1225 C1218 1.356 . S
N1225 H1228 0.984 . S
N1225 H1229 0.985 . S
H1226 N1221 0.984 . S
H1227 N1221 0.985 . S
H1228 N1225 0.984 . S
H1229 N1225 0.985 . S
H1230 N1224 0.984 . S
H1231 N1224 0.984 . S
H1232 N1220 0.984 . S
H1233 N1220 0.985 . S
C1234 C1235 1.363 . S
C1234 C1240 1.379 . S
C1234 N1242 1.356 . S
C1235 C1234 1.363 . S
C1235 C1241 1.363 . S
C1236 C1237 1.363 . S
C1236 C1241 1.379 . S
C1236 N1243 1.356 . S
C1237 C1236 1.363 . S
C1237 C1240 1.363 . S
N1238 C1240 1.356 . S
N1238 H1250 0.984 . S
N1238 H1251 0.985 . S
N1239 C1241 1.356 . S
N1239 H1244 0.984 . S
N1239 H1245 0.985 . S
C1240 C1234 1.379 . S
C1240 C1237 1.363 . S
C1240 N1238 1.356 . S
C1241 C1235 1.363 . S
C1241 C1236 1.379 . S
C1241 N1239 1.356 . S
N1242 C1234 1.356 . S
N1242 H1248 0.984 . S
N1242 H1249 0.984 . S
N1243 C1236 1.356 . S
N1243 H1246 0.984 . S
N1243 H1247 0.985 . S
H1244 N1239 0.984 . S
H1245 N1239 0.985 . S
H1246 N1243 0.984 . S
H1247 N1243 0.985 . S
H1248 N1242 0.984 . S
H1249 N1242 0.984 . S
H1250 N1238 0.984 . S
H1251 N1238 0.985 . S
C1252 C1253 1.363 . S
C1252 C1258 1.379 . S
C1252 N1260 1.356 . S
C1253 C1252 1.363 . S
C1253 C1259 1.363 . S
C1254 C1255 1.363 . S
C1254 C1259 1.379 . S
C1254 N1261 1.356 . S
C1255 C1254 1.363 . S
C1255 C1258 1.363 . S
N1256 C1258 1.356 . S
N1256 H1268 0.984 . S
N1256 H1269 0.985 . S
N1257 C1259 1.356 . S
N1257 H1262 0.984 . S
N1257 H1263 0.985 . S
C1258 C1252 1.379 . S
C1258 C1255 1.363 . S
C1258 N1256 1.356 . S
C1259 C1253 1.363 . S
C1259 C1254 1.379 . S
C1259 N1257 1.356 . S
N1260 C1252 1.356 . S
N1260 H1266 0.984 . S
N1260 H1267 0.984 . S
N1261 C1254 1.356 . S
N1261 H1264 0.984 . S
N1261 H1265 0.985 . S
H1262 N1257 0.984 . S
H1263 N1257 0.985 . S
H1264 N1261 0.984 . S
H1265 N1261 0.985 . S
H1266 N1260 0.984 . S
H1267 N1260 0.984 . S
H1268 N1256 0.984 . S
H1269 N1256 0.985 . S
C1270 C1271 1.363 . S
C1270 C1276 1.379 . S
C1270 N1278 1.356 . S
C1271 C1270 1.363 . S
C1271 C1277 1.363 . S
C1272 C1273 1.363 . S
C1272 C1277 1.379 . S
C1272 N1279 1.356 . S
C1273 C1272 1.363 . S
C1273 C1276 1.363 . S
N1274 C1276 1.356 . S
N1274 H1286 0.984 . S
N1274 H1287 0.985 . S
N1275 C1277 1.356 . S
N1275 H1280 0.984 . S
N1275 H1281 0.985 . S
C1276 C1270 1.379 . S
C1276 C1273 1.363 . S
C1276 N1274 1.356 . S
C1277 C1271 1.363 . S
C1277 C1272 1.379 . S
C1277 N1275 1.356 . S
N1278 C1270 1.356 . S
N1278 H1284 0.984 . S
N1278 H1285 0.984 . S
N1279 C1272 1.356 . S
N1279 H1282 0.984 . S
N1279 H1283 0.985 . S
H1280 N1275 0.984 . S
H1281 N1275 0.985 . S
H1282 N1279 0.984 . S
H1283 N1279 0.985 . S
H1284 N1278 0.984 . S
H1285 N1278 0.984 . S
H1286 N1274 0.984 . S
H1287 N1274 0.985 . S
C1288 C1289 1.363 . S
C1288 C1294 1.379 . S
C1288 N1296 1.356 . S
C1289 C1288 1.363 . S
C1289 C1295 1.363 . S
C1290 C1291 1.363 . S
C1290 C1295 1.379 . S
C1290 N1297 1.356 . S
C1291 C1290 1.363 . S
C1291 C1294 1.363 . S
N1292 C1294 1.356 . S
N1292 H1304 0.984 . S
N1292 H1305 0.985 . S
N1293 C1295 1.356 . S
N1293 H1298 0.984 . S
N1293 H1299 0.985 . S
C1294 C1288 1.379 . S
C1294 C1291 1.363 . S
C1294 N1292 1.356 . S
C1295 C1289 1.363 . S
C1295 C1290 1.379 . S
C1295 N1293 1.356 . S
N1296 C1288 1.356 . S
N1296 H1302 0.984 . S
N1296 H1303 0.984 . S
N1297 C1290 1.356 . S
N1297 H1300 0.984 . S
N1297 H1301 0.985 . S
H1298 N1293 0.984 . S
H1299 N1293 0.985 . S
H1300 N1297 0.984 . S
H1301 N1297 0.985 . S
H1302 N1296 0.984 . S
H1303 N1296 0.984 . S
H1304 N1292 0.984 . S
H1305 N1292 0.985 . S
C1306 C1307 1.363 . S
C1306 C1312 1.379 . S
C1306 N1314 1.356 . S
C1307 C1306 1.363 . S
C1307 C1313 1.363 . S
C1308 C1309 1.363 . S
C1308 C1313 1.379 . S
C1308 N1315 1.356 . S
C1309 C1308 1.363 . S
C1309 C1312 1.363 . S
N1310 C1312 1.356 . S
N1310 H1322 0.984 . S
N1310 H1323 0.985 . S
N1311 C1313 1.356 . S
N1311 H1316 0.984 . S
N1311 H1317 0.985 . S
C1312 C1306 1.379 . S
C1312 C1309 1.363 . S
C1312 N1310 1.356 . S
C1313 C1307 1.363 . S
C1313 C1308 1.379 . S
C1313 N1311 1.356 . S
N1314 C1306 1.356 . S
N1314 H1320 0.984 . S
N1314 H1321 0.984 . S
N1315 C1308 1.356 . S
N1315 H1318 0.984 . S
N1315 H1319 0.985 . S
H1316 N1311 0.984 . S
H1317 N1311 0.985 . S
H1318 N1315 0.984 . S
H1319 N1315 0.985 . S
H1320 N1314 0.984 . S
H1321 N1314 0.984 . S
H1322 N1310 0.984 . S
H1323 N1310 0.985 . S
C1324 C1325 1.363 . S
C1324 C1330 1.379 . S
C1324 N1332 1.356 . S
C1325 C1324 1.363 . S
C1325 C1331 1.363 . S
C1326 C1327 1.363 . S
C1326 C1331 1.379 . S
C1326 N1333 1.356 . S
C1327 C1326 1.363 . S
C1327 C1330 1.363 . S
N1328 C1330 1.356 . S
N1328 H1340 0.984 . S
N1328 H1341 0.985 . S
N1329 C1331 1.356 . S
N1329 H1334 0.984 . S
N1329 H1335 0.985 . S
C1330 C1324 1.379 . S
C1330 C1327 1.363 . S
C1330 N1328 1.356 . S
C1331 C1325 1.363 . S
C1331 C1326 1.379 . S
C1331 N1329 1.356 . S
N1332 C1324 1.356 . S
N1332 H1338 0.984 . S
N1332 H1339 0.984 . S
N1333 C1326 1.356 . S
N1333 H1336 0.984 . S
N1333 H1337 0.985 . S
H1334 N1329 0.984 . S
H1335 N1329 0.985 . S
H1336 N1333 0.984 . S
H1337 N1333 0.985 . S
H1338 N1332 0.984 . S
H1339 N1332 0.984 . S
H1340 N1328 0.984 . S
H1341 N1328 0.985 . S
C1342 C1343 1.363 . S
C1342 C1348 1.379 . S
C1342 N1350 1.356 . S
C1343 C1342 1.363 . S
C1343 C1349 1.363 . S
C1344 C1345 1.363 . S
C1344 C1349 1.379 . S
C1344 N1351 1.356 . S
C1345 C1344 1.363 . S
C1345 C1348 1.363 . S
N1346 C1348 1.356 . S
N1346 H1358 0.984 . S
N1346 H1359 0.985 . S
N1347 C1349 1.356 . S
N1347 H1352 0.984 . S
N1347 H1353 0.985 . S
C1348 C1342 1.379 . S
C1348 C1345 1.363 . S
C1348 N1346 1.356 . S
C1349 C1343 1.363 . S
C1349 C1344 1.379 . S
C1349 N1347 1.356 . S
N1350 C1342 1.356 . S
N1350 H1356 0.984 . S
N1350 H1357 0.984 . S
N1351 C1344 1.356 . S
N1351 H1354 0.984 . S
N1351 H1355 0.985 . S
H1352 N1347 0.984 . S
H1353 N1347 0.985 . S
H1354 N1351 0.984 . S
H1355 N1351 0.985 . S
H1356 N1350 0.984 . S
H1357 N1350 0.984 . S
H1358 N1346 0.984 . S
H1359 N1346 0.985 . S
C1360 C1361 1.363 . S
C1360 C1366 1.379 . S
C1360 N1368 1.356 . S
C1361 C1360 1.363 . S
C1361 C1367 1.363 . S
C1362 C1363 1.363 . S
C1362 C1367 1.379 . S
C1362 N1369 1.356 . S
C1363 C1362 1.363 . S
C1363 C1366 1.363 . S
N1364 C1366 1.356 . S
N1364 H1376 0.984 . S
N1364 H1377 0.985 . S
N1365 C1367 1.356 . S
N1365 H1370 0.984 . S
N1365 H1371 0.985 . S
C1366 C1360 1.379 . S
C1366 C1363 1.363 . S
C1366 N1364 1.356 . S
C1367 C1361 1.363 . S
C1367 C1362 1.379 . S
C1367 N1365 1.356 . S
N1368 C1360 1.356 . S
N1368 H1374 0.984 . S
N1368 H1375 0.984 . S
N1369 C1362 1.356 . S
N1369 H1372 0.984 . S
N1369 H1373 0.985 . S
H1370 N1365 0.984 . S
H1371 N1365 0.985 . S
H1372 N1369 0.984 . S
H1373 N1369 0.985 . S
H1374 N1368 0.984 . S
H1375 N1368 0.984 . S
H1376 N1364 0.984 . S
H1377 N1364 0.985 . S
C1378 C1379 1.363 . S
C1378 C1384 1.379 . S
C1378 N1386 1.356 . S
C1379 C1378 1.363 . S
C1379 C1385 1.363 . S
C1380 C1381 1.363 . S
C1380 C1385 1.379 . S
C1380 N1387 1.356 . S
C1381 C1380 1.363 . S
C1381 C1384 1.363 . S
N1382 C1384 1.356 . S
N1382 H1394 0.984 . S
N1382 H1395 0.985 1_556 S
N1383 C1385 1.356 . S
N1383 H1388 0.984 . S
N1383 H1389 0.985 . S
C1384 C1378 1.379 . S
C1384 C1381 1.363 . S
C1384 N1382 1.356 . S
C1385 C1379 1.363 . S
C1385 C1380 1.379 . S
C1385 N1383 1.356 . S
N1386 C1378 1.356 . S
N1386 H1392 0.984 . S
N1386 H1393 0.984 . S
N1387 C1380 1.356 . S
N1387 H1390 0.984 . S
N1387 H1391 0.985 . S
H1388 N1383 0.984 . S
H1389 N1383 0.985 . S
H1390 N1387 0.984 . S
H1391 N1387 0.985 . S
H1392 N1386 0.984 . S
H1393 N1386 0.984 . S
H1394 N1382 0.984 . S
H1395 N1382 0.985 1_554 S
C1396 C1397 1.363 . S
C1396 C1402 1.379 . S
C1396 N1404 1.356 . S
C1397 C1396 1.363 . S
C1397 C1403 1.363 . S
C1398 C1399 1.363 . S
C1398 C1403 1.379 . S
C1398 N1405 1.356 . S
C1399 C1398 1.363 . S
C1399 C1402 1.363 . S
N1400 C1402 1.356 . S
N1400 H1412 0.984 . S
N1400 H1413 0.985 . S
N1401 C1403 1.356 . S
N1401 H1406 0.984 . S
N1401 H1407 0.985 . S
C1402 C1396 1.379 . S
C1402 C1399 1.363 . S
C1402 N1400 1.356 . S
C1403 C1397 1.363 . S
C1403 C1398 1.379 . S
C1403 N1401 1.356 . S
N1404 C1396 1.356 . S
N1404 H1410 0.984 . S
N1404 H1411 0.984 . S
N1405 C1398 1.356 . S
N1405 H1408 0.984 1_554 S
N1405 H1409 0.985 . S
H1406 N1401 0.984 . S
H1407 N1401 0.985 . S
H1408 N1405 0.984 1_556 S
H1409 N1405 0.985 . S
H1410 N1404 0.984 . S
H1411 N1404 0.984 . S
H1412 N1400 0.984 . S
H1413 N1400 0.985 . S
C1414 C1415 1.363 . S
C1414 C1420 1.379 . S
C1414 N1422 1.356 . S
C1415 C1414 1.363 . S
C1415 C1421 1.363 . S
C1416 C1417 1.363 . S
C1416 C1421 1.379 . S
C1416 N1423 1.356 . S
C1417 C1416 1.363 . S
C1417 C1420 1.363 . S
N1418 C1420 1.356 . S
N1418 H1430 0.984 . S
N1418 H1431 0.985 . S
N1419 C1421 1.356 . S
N1419 H1424 0.984 . S
N1419 H1425 0.985 . S
C1420 C1414 1.379 . S
C1420 C1417 1.363 . S
C1420 N1418 1.356 . S
C1421 C1415 1.363 . S
C1421 C1416 1.379 . S
C1421 N1419 1.356 . S
N1422 C1414 1.356 . S
N1422 H1428 0.984 . S
N1422 H1429 0.984 . S
N1423 C1416 1.356 . S
N1423 H1426 0.984 . S
N1423 H1427 0.985 . S
H1424 N1419 0.984 . S
H1425 N1419 0.985 . S
H1426 N1423 0.984 . S
H1427 N1423 0.985 . S
H1428 N1422 0.984 . S
H1429 N1422 0.984 . S
H1430 N1418 0.984 . S
H1431 N1418 0.985 . S
C1432 C1433 1.363 . S
C1432 C1438 1.379 . S
C1432 N1440 1.356 . S
C1433 C1432 1.363 . S
C1433 C1439 1.363 . S
C1434 C1435 1.363 . S
C1434 C1439 1.379 . S
C1434 N1441 1.356 . S
C1435 C1434 1.363 . S
C1435 C1438 1.363 . S
N1436 C1438 1.356 . S
N1436 H1448 0.984 . S
N1436 H1449 0.985 . S
N1437 C1439 1.356 . S
N1437 H1442 0.984 . S
N1437 H1443 0.985 . S
C1438 C1432 1.379 . S
C1438 C1435 1.363 . S
C1438 N1436 1.356 . S
C1439 C1433 1.363 . S
C1439 C1434 1.379 . S
C1439 N1437 1.356 . S
N1440 C1432 1.356 . S
N1440 H1446 0.984 . S
N1440 H1447 0.984 . S
N1441 C1434 1.356 . S
N1441 H1444 0.984 . S
N1441 H1445 0.985 . S
H1442 N1437 0.984 . S
H1443 N1437 0.985 . S
H1444 N1441 0.984 . S
H1445 N1441 0.985 . S
H1446 N1440 0.984 . S
H1447 N1440 0.984 . S
H1448 N1436 0.984 . S
H1449 N1436 0.985 . S
C1450 C1451 1.363 . S
C1450 C1456 1.379 . S
C1450 N1458 1.356 . S
C1451 C1450 1.363 . S
C1451 C1457 1.363 . S
C1452 C1453 1.363 . S
C1452 C1457 1.379 . S
C1452 N1459 1.356 . S
C1453 C1452 1.363 . S
C1453 C1456 1.363 . S
N1454 C1456 1.356 . S
N1454 H1466 0.984 . S
N1454 H1467 0.985 . S
N1455 C1457 1.356 . S
N1455 H1460 0.984 . S
N1455 H1461 0.985 . S
C1456 C1450 1.379 . S
C1456 C1453 1.363 . S
C1456 N1454 1.356 . S
C1457 C1451 1.363 . S
C1457 C1452 1.379 . S
C1457 N1455 1.356 . S
N1458 C1450 1.356 . S
N1458 H1464 0.984 1_556 S
N1458 H1465 0.984 1_556 S
N1459 C1452 1.356 . S
N1459 H1462 0.984 . S
N1459 H1463 0.985 . S
H1460 N1455 0.984 . S
H1461 N1455 0.985 . S
H1462 N1459 0.984 . S
H1463 N1459 0.985 . S
H1464 N1458 0.984 1_554 S
H1465 N1458 0.984 1_554 S
H1466 N1454 0.984 . S
H1467 N1454 0.985 . S
C1468 C1469 1.363 . S
C1468 C1474 1.379 . S
C1468 N1476 1.356 . S
C1469 C1468 1.363 . S
C1469 C1475 1.363 . S
C1470 C1471 1.363 . S
C1470 C1475 1.379 . S
C1470 N1477 1.356 . S
C1471 C1470 1.363 . S
C1471 C1474 1.363 . S
N1472 C1474 1.356 . S
N1472 H1484 0.984 . S
N1472 H1485 0.985 . S
N1473 C1475 1.356 . S
N1473 H1478 0.984 . S
N1473 H1479 0.985 . S
C1474 C1468 1.379 . S
C1474 C1471 1.363 . S
C1474 N1472 1.356 . S
C1475 C1469 1.363 . S
C1475 C1470 1.379 . S
C1475 N1473 1.356 . S
N1476 C1468 1.356 . S
N1476 H1482 0.984 . S
N1476 H1483 0.984 . S
N1477 C1470 1.356 . S
N1477 H1480 0.984 . S
N1477 H1481 0.985 . S
H1478 N1473 0.984 . S
H1479 N1473 0.985 . S
H1480 N1477 0.984 . S
H1481 N1477 0.985 . S
H1482 N1476 0.984 . S
H1483 N1476 0.984 . S
H1484 N1472 0.984 . S
H1485 N1472 0.985 . S
C1486 C1487 1.363 . S
C1486 C1492 1.379 . S
C1486 N1494 1.356 . S
C1487 C1486 1.363 . S
C1487 C1493 1.363 . S
C1488 C1489 1.363 . S
C1488 C1493 1.379 . S
C1488 N1495 1.356 . S
C1489 C1488 1.363 . S
C1489 C1492 1.363 . S
N1490 C1492 1.356 . S
N1490 H1502 0.984 . S
N1490 H1503 0.985 . S
N1491 C1493 1.356 . S
N1491 H1496 0.984 . S
N1491 H1497 0.985 . S
C1492 C1486 1.379 . S
C1492 C1489 1.363 . S
C1492 N1490 1.356 . S
C1493 C1487 1.363 . S
C1493 C1488 1.379 . S
C1493 N1491 1.356 . S
N1494 C1486 1.356 . S
N1494 H1500 0.984 . S
N1494 H1501 0.984 . S
N1495 C1488 1.356 . S
N1495 H1498 0.984 1_556 S
N1495 H1499 0.985 1_556 S
H1496 N1491 0.984 . S
H1497 N1491 0.985 . S
H1498 N1495 0.984 1_554 S
H1499 N1495 0.985 1_554 S
H1500 N1494 0.984 . S
H1501 N1494 0.984 . S
H1502 N1490 0.984 . S
H1503 N1490 0.985 . S
C641 C451 1.763 . S
C643 C19 1.754 1_565 S
C659 C322 1.763 . S
C661 C50 1.754 1_655 S
C677 C99 1.754 1_545 S
C679 C371 1.763 . S
C695 C130 1.754 1_455 S
C697 C402 1.763 . S
C713 C179 1.754 . S
C715 C211 1.763 1_554 S
C731 C242 1.763 1_556 S
C733 C210 1.754 . S
C749 C259 1.754 . S
C751 C291 1.763 1_554 S
C767 C162 1.763 1_556 S
C769 C290 1.754 . S
C785 C131 1.763 . S
C787 C339 1.754 . S
C803 C370 1.754 . S
C805 C2 1.763 . S
C821 C51 1.763 . S
C823 C419 1.754 . S
C839 C82 1.763 . S
C841 C450 1.754 . S
C857 C499 1.754 1_545 S
C859 C531 1.763 . S
C875 C562 1.763 . S
C877 C530 1.754 1_455 S
C893 C611 1.763 . S
C895 C579 1.754 1_565 S
C911 C610 1.754 1_655 S
C913 C482 1.763 . S
C929 C10 1.228 . S
C931 C170 1.228 . S
C947 C219 1.228 . S
C949 C59 1.228 . S
C965 C90 1.228 . S
C967 C250 1.228 . S
C983 C139 1.228 . S
C985 C299 1.228 . S
C1001 C330 1.228 . S
C1003 C490 1.228 . S
C1019 C539 1.228 . S
C1021 C379 1.228 . S
C1037 C410 1.228 . S
C1039 C570 1.228 . S
C1055 C459 1.228 . S
C1057 C619 1.228 . S
C1073 C571 2.533 . S
C1075 C11 2.533 1_556 S
C1091 C42 2.533 1_554 S
C1093 C602 2.533 . S
C1109 C91 2.533 1_556 S
C1111 C491 2.533 . S
C1127 C122 2.533 1_554 S
C1129 C522 2.533 . S
C1145 C171 2.533 . S
C1147 C411 2.533 . S
C1163 C202 2.533 . S
C1165 C442 2.533 . S
C1181 C251 2.533 . S
C1183 C331 2.533 . S
C1199 C362 2.533 . S
C1201 C282 2.533 . S
C1217 C7 1.257 . S
C1219 C16 1.257 . S
C1235 C56 1.257 . S
C1237 C47 1.257 . S
C1253 C87 1.257 . S
C1255 C96 1.257 . S
C1271 C127 1.257 . S
C1273 C136 1.257 . S
C1289 C176 1.257 . S
C1291 C167 1.257 . S
C1307 C216 1.257 . S
C1309 C207 1.257 . S
C1325 C247 1.257 . S
C1327 C256 1.257 . S
C1343 C287 1.257 . S
C1345 C296 1.257 . S
C1361 C327 1.257 . S
C1363 C336 1.257 . S
C1379 C367 1.257 . S
C1381 C376 1.257 . S
C1397 C416 1.257 . S
C1399 C407 1.257 . S
C1415 C456 1.257 . S
C1417 C447 1.257 . S
C1433 C487 1.257 . S
C1435 C496 1.257 . S
C1451 C527 1.257 . S
C1453 C536 1.257 . S
C1469 C576 1.257 . S
C1471 C567 1.257 . S
C1487 C616 1.257 . S
C1489 C607 1.257 . S
