# Generated by pormake.
# Topology sml, (6)-cn, num edge types: 1
# Building blocks:
#     Node 0, Type 0, BuildingBlock: PAMTOO_clean_sbu_0, # of connection points: 6
#     Node 1, Type 0, BuildingBlock: PAMTOO_clean_sbu_0, # of connection points: 6
#     Node 2, Type 0, BuildingBlock: PAMTOO_clean_sbu_0, # of connection points: 6
#     Node 3, Type 0, BuildingBlock: PAMTOO_clean_sbu_0, # of connection points: 6
#     Node 4, Type 0, BuildingBlock: PAMTOO_clean_sbu_0, # of connection points: 6
#     Node 5, Type 0, BuildingBlock: PAMTOO_clean_sbu_0, # of connection points: 6
#     Edge 6, Type (0, 0), BuildingBlock: XIVTED_clean_linker_0, # of connection points: 2
#     Edge 7, Type (0, 0), BuildingBlock: XIVTED_clean_linker_0, # of connection points: 2
#     Edge 8, Type (0, 0), BuildingBlock: XIVTED_clean_linker_0, # of connection points: 2
#     Edge 9, Type (0, 0), BuildingBlock: XIVTED_clean_linker_0, # of connection points: 2
#     Edge 10, Type (0, 0), BuildingBlock: XIVTED_clean_linker_0, # of connection points: 2
#     Edge 11, Type (0, 0), BuildingBlock: XIVTED_clean_linker_0, # of connection points: 2
#     Edge 12, Type (0, 0), BuildingBlock: XIVTED_clean_linker_0, # of connection points: 2
#     Edge 13, Type (0, 0), BuildingBlock: XIVTED_clean_linker_0, # of connection points: 2
#     Edge 14, Type (0, 0), BuildingBlock: XIVTED_clean_linker_0, # of connection points: 2
#     Edge 15, Type (0, 0), BuildingBlock: XIVTED_clean_linker_0, # of connection points: 2
#     Edge 16, Type (0, 0), BuildingBlock: XIVTED_clean_linker_0, # of connection points: 2
#     Edge 17, Type (0, 0), BuildingBlock: XIVTED_clean_linker_0, # of connection points: 2
#     Edge 18, Type (0, 0), BuildingBlock: XIVTED_clean_linker_0, # of connection points: 2
#     Edge 19, Type (0, 0), BuildingBlock: XIVTED_clean_linker_0, # of connection points: 2
#     Edge 20, Type (0, 0), BuildingBlock: XIVTED_clean_linker_0, # of connection points: 2
#     Edge 21, Type (0, 0), BuildingBlock: XIVTED_clean_linker_0, # of connection points: 2
#     Edge 22, Type (0, 0), BuildingBlock: XIVTED_clean_linker_0, # of connection points: 2
#     Edge 23, Type (0, 0), BuildingBlock: XIVTED_clean_linker_0, # of connection points: 2
# Relax obj value: 0.192
# Max RMSD: 0.233
# Mean RMSD: 0.233
data_MOF--net-sml--node1-PAMTOO_clean_sbu_0--edge1-XIVTED_clean_linker_0
_symmetry_space_group_name_H-M    P1
_symmetry_Int_Tables_number       1
_symmetry_cell_setting            triclinic
loop_
_symmetry_equiv_pos_as_xyz
'x, y, z'
_cell_length_a     33.164087
_cell_length_b     33.162157
_cell_length_c     25.361509
_cell_angle_alpha  89.974381
_cell_angle_beta   90.103844
_cell_angle_gamma 119.92455
loop_
_atom_site_label
_atom_site_type_symbol
_atom_site_fract_x
_atom_site_fract_y
_atom_site_fract_z
_atom_type_partial_charge
Dy0 Dy 0.1938 0.44579 0.98619 0.0
Dy1 Dy 0.25729 0.44602 0.09168 0.0
C2 C 0.24984 0.38943 0.98655 0.0
O3 O 0.14458 0.38308 0.03294 0.0
O4 O 0.18293 0.40088 0.11316 0.0
O5 O 0.14783 0.41127 0.92026 0.0
O6 O 0.18227 0.4862 0.927 0.0
O7 O 0.23532 0.49918 0.10253 0.0
O8 O 0.1684 0.4711 0.05289 0.0
O9 O 0.30728 0.48402 0.02577 0.0
O10 O 0.26128 0.51133 0.99575 0.0
O11 O 0.31004 0.48663 0.15 0.0
O12 O 0.27188 0.41148 0.15505 0.0
C13 C 0.14574 0.37624 0.08401 0.0
O14 O 0.23684 0.41533 0.96071 0.0
O15 O 0.25284 0.38992 0.0384 0.0
C16 C 0.17122 0.45412 0.84064 0.0
C17 C 0.19448 0.45687 0.73217 0.0
C18 C 0.22687 0.4633 0.77212 0.0
C19 C 0.21532 0.46181 0.82571 0.0
C20 C 0.13916 0.44841 0.80113 0.0
C21 C 0.15059 0.44981 0.74766 0.0
C22 C 0.1575 0.45013 0.89693 0.0
C23 C 0.19423 0.49479 0.09341 0.0
C24 C 0.30067 0.51135 0.99381 0.0
C25 C 0.29025 0.45322 0.23559 0.0
C26 C 0.2709 0.45685 0.3443 0.0
C27 C 0.23779 0.44989 0.30508 0.0
C28 C 0.24736 0.4481 0.25145 0.0
C29 C 0.32349 0.4605 0.27431 0.0
C30 C 0.31399 0.46232 0.32795 0.0
C31 C 0.30022 0.45034 0.17907 0.0
H32 H 0.26082 0.46839 0.7621 0.0
H33 H 0.2406 0.46605 0.85551 0.0
H34 H 0.10496 0.44246 0.81164 0.0
H35 H 0.12493 0.44554 0.71841 0.0
H36 H 0.20452 0.44622 0.3157 0.0
H37 H 0.22115 0.44256 0.2223 0.0
H38 H 0.35676 0.4644 0.26309 0.0
H39 H 0.34021 0.46713 0.3567 0.0
Dy40 Dy 0.74062 0.18896 0.28288 0.0
Dy41 Dy 0.80477 0.24996 0.38856 0.0
C42 C 0.85207 0.23154 0.28796 0.0
O43 O 0.74638 0.13647 0.33322 0.0
O44 O 0.76502 0.17556 0.41269 0.0
O45 O 0.72635 0.14095 0.21848 0.0
O46 O 0.68851 0.17827 0.22423 0.0
O47 O 0.73444 0.24303 0.38949 0.0
O48 O 0.69019 0.1728 0.34929 0.0
O49 O 0.82718 0.30124 0.32183 0.0
O50 O 0.75735 0.26289 0.27866 0.0
O51 O 0.82005 0.30322 0.44734 0.0
O52 O 0.85114 0.25955 0.45344 0.0
C53 C 0.75115 0.13745 0.3849 0.0
O54 O 0.8149 0.22094 0.25962 0.0
O55 O 0.85338 0.23721 0.33948 0.0
C56 C 0.70859 0.16538 0.13843 0.0
C57 C 0.72915 0.18855 0.02999 0.0
C58 C 0.761 0.21578 0.06971 0.0
C59 C 0.75087 0.20428 0.12323 0.0
C60 C 0.67655 0.13843 0.09921 0.0
C61 C 0.68665 0.14982 0.04569 0.0
C62 C 0.69827 0.152 0.19473 0.0
C63 C 0.69546 0.20325 0.38575 0.0
C64 C 0.79909 0.29928 0.2839 0.0
C65 C 0.82967 0.2805 0.53328 0.0
C66 C 0.80509 0.26053 0.6415 0.0
C67 C 0.77464 0.23225 0.60127 0.0
C68 C 0.78684 0.24207 0.54787 0.0
C69 C 0.85995 0.30901 0.57301 0.0
C70 C 0.84787 0.2992 0.62642 0.0
C71 C 0.84363 0.29011 0.47707 0.0
H72 H 0.79428 0.2455 0.05949 0.0
H73 H 0.7763 0.22548 0.15278 0.0
H74 H 0.64369 0.10832 0.10995 0.0
H75 H 0.66087 0.12838 0.01661 0.0
H76 H 0.74116 0.20258 0.61094 0.0
H77 H 0.76293 0.21943 0.51792 0.0
H78 H 0.89332 0.33865 0.56275 0.0
H79 H 0.87262 0.32147 0.65591 0.0
Dy80 Dy 0.55838 0.72928 0.58828 0.0
Dy81 Dy 0.55503 0.7887 0.69421 0.0
C82 C 0.61523 0.84139 0.59187 0.0
O83 O 0.61851 0.74105 0.63965 0.0
O84 O 0.58713 0.74654 0.71775 0.0
O85 O 0.59715 0.71997 0.52567 0.0
O86 O 0.52251 0.6751 0.52991 0.0
O87 O 0.49109 0.71912 0.69133 0.0
O88 O 0.52013 0.67679 0.65212 0.0
O89 O 0.51692 0.80463 0.63269 0.0
O90 O 0.49896 0.74247 0.57729 0.0
O91 O 0.51686 0.80135 0.75507 0.0
O92 O 0.59185 0.83495 0.7591 0.0
C93 C 0.61743 0.74013 0.69147 0.0
O94 O 0.59159 0.80336 0.56391 0.0
O95 O 0.61243 0.84167 0.64364 0.0
C96 C 0.5561 0.69791 0.44492 0.0
C97 C 0.5523 0.7172 0.33641 0.0
C98 C 0.55067 0.74626 0.37593 0.0
C99 C 0.5525 0.73669 0.42951 0.0
C100 C 0.55729 0.66858 0.40588 0.0
C101 C 0.55533 0.67803 0.35225 0.0
C102 C 0.55984 0.6887 0.50138 0.0
C103 C 0.49032 0.67969 0.68376 0.0
C104 C 0.4935 0.77734 0.59295 0.0
C105 C 0.55108 0.81257 0.83997 0.0
C106 C 0.54893 0.7891 0.94815 0.0
C107 C 0.54839 0.75931 0.9081 0.0
C108 C 0.54945 0.77093 0.85465 0.0
C109 C 0.55114 0.84211 0.87953 0.0
C110 C 0.55002 0.83055 0.93293 0.0
C111 C 0.55384 0.82607 0.78383 0.0
H112 H 0.54766 0.77631 0.36552 0.0
H113 H 0.55138 0.75977 0.45898 0.0
H114 H 0.56023 0.63857 0.41685 0.0
H115 H 0.55723 0.65514 0.32318 0.0
H116 H 0.54808 0.7274 0.91798 0.0
H117 H 0.54945 0.74759 0.82475 0.0
H118 H 0.55225 0.87434 0.86913 0.0
H119 H 0.54965 0.85404 0.9623 0.0
Dy120 Dy 0.87648 0.59811 0.90925 0.0
Dy121 Dy 0.81809 0.60017 0.01642 0.0
C122 C 0.8069 0.6415 0.90774 0.0
O123 O 0.92756 0.64137 0.97171 0.0
O124 O 0.87989 0.66744 0.99487 0.0
O125 O 0.92939 0.63682 0.85099 0.0
O126 O 0.89122 0.56144 0.84849 0.0
O127 O 0.86721 0.57653 0.04076 0.0
O128 O 0.86864 0.54086 0.96421 0.0
O129 O 0.76928 0.53392 0.97393 0.0
O130 O 0.80202 0.55151 0.89076 0.0
O131 O 0.77337 0.56768 0.08355 0.0
O132 O 0.81123 0.6427 0.07654 0.0
C133 C 0.92045 0.67055 0.99931 0.0
O134 O 0.84555 0.64365 0.89043 0.0
O135 O 0.78671 0.62085 0.95222 0.0
C136 C 0.91043 0.60109 0.76684 0.0
C137 C 0.89258 0.60352 0.65783 0.0
C138 C 0.86996 0.61607 0.69593 0.0
C139 C 0.87878 0.61485 0.74981 0.0
C140 C 0.93256 0.58792 0.72914 0.0
C141 C 0.92388 0.58927 0.67518 0.0
C142 C 0.91982 0.59966 0.82367 0.0
C143 C 0.87211 0.54468 0.01602 0.0
C144 C 0.76747 0.52587 0.92274 0.0
C145 C 0.80061 0.61085 0.16248 0.0
C146 C 0.82556 0.61291 0.26996 0.0
C147 C 0.85462 0.61302 0.22934 0.0
C148 C 0.84225 0.61197 0.17615 0.0
C149 C 0.77211 0.61173 0.20261 0.0
C150 C 0.78444 0.61289 0.25566 0.0
C151 C 0.78567 0.60721 0.10688 0.0
H152 H 0.84573 0.62732 0.68407 0.0
H153 H 0.86087 0.62461 0.77825 0.0
H154 H 0.95643 0.57635 0.74148 0.0
H155 H 0.94095 0.57826 0.64705 0.0
H156 H 0.88634 0.61267 0.23854 0.0
H157 H 0.86483 0.61134 0.14573 0.0
H158 H 0.73997 0.61112 0.19292 0.0
H159 H 0.76162 0.61383 0.28549 0.0
Dy160 Dy 0.1563 0.7855 0.34172 0.0
Dy161 Dy 0.10637 0.72096 0.44939 0.0
C162 C 0.0511 0.73683 0.36058 0.0
O163 O 0.18056 0.83723 0.4067 0.0
O164 O 0.12177 0.79365 0.46602 0.0
O165 O 0.1548 0.83166 0.2824 0.0
O166 O 0.20267 0.8056 0.27473 0.0
O167 O 0.18239 0.76058 0.46599 0.0
O168 O 0.21145 0.77578 0.38127 0.0
O169 O 0.12071 0.67696 0.39351 0.0
O170 O 0.11692 0.71152 0.31671 0.0
O171 O 0.10208 0.67399 0.51111 0.0
O172 O 0.05207 0.6979 0.50806 0.0
C173 C 0.15722 0.83341 0.45011 0.0
O174 O 0.08785 0.77813 0.36225 0.0
O175 O 0.05166 0.70362 0.38788 0.0
C176 C 0.17034 0.81551 0.19619 0.0
C177 C 0.14623 0.7912 0.08894 0.0
C178 C 0.11635 0.76346 0.12967 0.0
C179 C 0.12828 0.7755 0.18275 0.0
C180 C 0.20008 0.84331 0.15589 0.0
C181 C 0.1882 0.83137 0.1029 0.0
C182 C 0.18434 0.82788 0.25184 0.0
C183 C 0.21656 0.77236 0.43234 0.0
C184 C 0.11648 0.67677 0.34181 0.0
C185 C 0.07646 0.6881 0.59226 0.0
C186 C 0.09002 0.71091 0.70107 0.0
C187 C 0.11842 0.74343 0.66261 0.0
C188 C 0.11169 0.73212 0.60883 0.0
C189 C 0.04844 0.65543 0.63017 0.0
C190 C 0.05506 0.66667 0.68393 0.0
C191 C 0.06864 0.67615 0.53567 0.0
H192 H 0.0836 0.73257 0.12055 0.0
H193 H 0.1048 0.75345 0.2133 0.0
H194 H 0.23284 0.87411 0.16543 0.0
H195 H 0.21248 0.85317 0.07286 0.0
H196 H 0.14633 0.77749 0.67396 0.0
H197 H 0.13408 0.75768 0.58012 0.0
H198 H 0.02135 0.62118 0.61812 0.0
H199 H 0.03236 0.64079 0.71201 0.0
Dy200 Dy 0.41575 0.21328 0.65972 0.0
Dy201 Dy 0.41239 0.15302 0.76719 0.0
C202 C 0.33634 0.10812 0.67626 0.0
O203 O 0.39046 0.24165 0.72298 0.0
O204 O 0.36395 0.18042 0.78181 0.0
O205 O 0.38471 0.2357 0.59941 0.0
O206 O 0.4574 0.25535 0.59473 0.0
O207 O 0.45565 0.22736 0.78806 0.0
O208 O 0.48195 0.25608 0.70531 0.0
O209 O 0.4676 0.15702 0.71192 0.0
O210 O 0.43037 0.15743 0.63671 0.0
O211 O 0.44922 0.13906 0.82847 0.0
O212 O 0.37396 0.10129 0.82686 0.0
C213 C 0.36672 0.21936 0.76519 0.0
O214 O 0.34554 0.15008 0.66272 0.0
O215 O 0.36286 0.10117 0.70935 0.0
C216 C 0.41675 0.24104 0.51429 0.0
C217 C 0.41197 0.21865 0.40566 0.0
C218 C 0.41073 0.1877 0.44462 0.0
C219 C 0.41309 0.19878 0.49833 0.0
C220 C 0.41722 0.27163 0.47582 0.0
C221 C 0.41481 0.26059 0.42214 0.0
C222 C 0.42227 0.25452 0.57053 0.0
C223 C 0.48593 0.25976 0.75699 0.0
C224 C 0.46167 0.15114 0.6606 0.0
C225 C 0.41035 0.12178 0.91041 0.0
C226 C 0.40887 0.14204 0.0188 0.0
C227 C 0.41 0.17265 0.97948 0.0
C228 C 0.4107 0.16261 0.9259 0.0
C229 C 0.40919 0.09114 0.94924 0.0
C230 C 0.40844 0.1011 1.00285 0.0
C231 C 0.41123 0.11109 0.85399 0.0
H232 H 0.40911 0.15537 0.43365 0.0
H233 H 0.41286 0.17471 0.5274 0.0
H234 H 0.41997 0.30438 0.48728 0.0
H235 H 0.41506 0.28496 0.39353 0.0
H236 H 0.40973 0.20415 0.99005 0.0
H237 H 0.41144 0.18669 0.8965 0.0
H238 H 0.40903 0.05952 0.93812 0.0
H239 H 0.40822 0.07701 0.03182 0.0
H240 H 0.33467 0.19754 0.86665 0.0
H241 H 0.26014 0.39179 0.87998 0.0
H242 H 0.35068 0.28999 0.73826 0.0
H243 H 0.27345 0.32436 0.01947 0.0
H244 H 0.2853 0.34803 0.82651 0.0
H245 H 0.30423 0.23686 0.92166 0.0
C246 C 0.33136 0.22578 0.84981 0.0
C247 C 0.34522 0.24051 0.79766 0.0
C248 C 0.28277 0.34269 0.86878 0.0
C249 C 0.31064 0.28558 0.86054 0.0
C250 C 0.26823 0.36764 0.89957 0.0
C251 C 0.26469 0.36185 0.95459 0.0
C252 C 0.29381 0.31137 0.8928 0.0
C253 C 0.27583 0.33002 0.97729 0.0
C254 C 0.31427 0.24835 0.8814 0.0
C255 C 0.34056 0.27753 0.7782 0.0
N256 N 0.28991 0.30586 0.94622 0.0
N257 N 0.32364 0.29874 0.80964 0.0
H258 H 0.05731 0.32501 0.04317 0.0
H259 H 0.9401 0.26343 0.32797 0.0
H260 H 0.13487 0.35341 0.18866 0.0
H261 H 0.86228 0.22437 0.18204 0.0
H262 H 0.01164 0.28936 0.27753 0.0
H263 H 0.98524 0.28052 0.09296 0.0
C264 C 0.0593 0.32141 0.0854 0.0
C265 C 0.10225 0.34358 0.11174 0.0
C266 C 0.9788 0.27464 0.25663 0.0
C267 C 0.01988 0.29311 0.16907 0.0
C268 C 0.93793 0.25979 0.28546 0.0
C269 C 0.89512 0.24225 0.25928 0.0
C270 C 0.97687 0.27216 0.20125 0.0
C271 C 0.89449 0.23817 0.20404 0.0
C272 C 0.01811 0.29606 0.11387 0.0
C273 C 0.1026 0.33746 0.16659 0.0
N274 N 0.93474 0.25347 0.17691 0.0
N275 N 0.06207 0.3133 0.19344 0.0
H276 H 0.71578 0.04871 0.34549 0.0
H277 H 0.66269 0.93058 0.63152 0.0
H278 H 0.75403 0.12629 0.49146 0.0
H279 H 0.62967 0.85337 0.48551 0.0
H280 H 0.70095 0.00301 0.58094 0.0
H281 H 0.68825 0.9769 0.39612 0.0
C282 C 0.71869 0.05075 0.38806 0.0
C283 C 0.73701 0.09367 0.41412 0.0
C284 C 0.68561 0.97017 0.56004 0.0
C285 C 0.7054 0.01157 0.4724 0.0
C286 C 0.66384 0.92878 0.58896 0.0
C287 C 0.64258 0.88573 0.56285 0.0
C288 C 0.68601 0.96851 0.50462 0.0
C289 C 0.64524 0.88566 0.50749 0.0
C290 C 0.70295 0.00971 0.417 0.0
C291 C 0.73997 0.09407 0.46949 0.0
N292 N 0.6662 0.92633 0.48031 0.0
N293 N 0.7241 0.05369 0.4967 0.0
H294 H 0.61926 0.73131 0.79796 0.0
H295 H 0.82456 0.67114 0.80439 0.0
H296 H 0.68674 0.72341 0.65592 0.0
H297 H 0.73607 0.6563 0.93635 0.0
H298 H 0.78099 0.69772 0.75007 0.0
H299 H 0.66825 0.71138 0.84948 0.0
C300 C 0.64447 0.72545 0.77738 0.0
C301 C 0.6486 0.72887 0.72223 0.0
C302 C 0.77135 0.68877 0.79097 0.0
C303 C 0.70536 0.70578 0.78182 0.0
C304 C 0.79629 0.67378 0.82209 0.0
C305 C 0.78386 0.66122 0.87504 0.0
C306 C 0.73408 0.69159 0.81318 0.0
C307 C 0.74687 0.6653 0.89575 0.0
C308 C 0.67254 0.71396 0.80706 0.0
C309 C 0.68222 0.72097 0.69827 0.0
N310 N 0.72339 0.68005 0.86482 0.0
N311 N 0.70935 0.70969 0.72826 0.0
H312 H 0.02845 0.79399 0.30819 0.0
H313 H 0.91724 0.73462 0.06302 0.0
H314 H 0.01056 0.65595 0.30365 0.0
H315 H 0.97736 0.64566 0.05143 0.0
H316 H 0.94237 0.75071 0.15464 0.0
H317 H -0.00147 0.78344 0.21841 0.0
C318 C 0.01669 0.76084 0.2888 0.0
C319 C 0.02157 0.72567 0.31343 0.0
C320 C 0.95126 0.72873 0.13176 0.0
C321 C 0.98777 0.71341 0.21053 0.0
C322 C 0.93697 0.71957 0.07936 0.0
C323 C 0.94547 0.68901 0.04946 0.0
C324 C 0.97427 0.70715 0.15443 0.0
C325 C 0.97053 0.66986 0.07283 0.0
C326 C -0.00031 0.75484 0.23748 0.0
C327 C 0.00676 0.68372 0.28632 0.0
N328 N 0.98348 0.67875 0.12427 0.0
N329 N -0.00879 0.67903 0.23586 0.0
H330 H 0.298 0.10982 0.58176 0.0
H331 H 0.14223 0.83463 0.55573 0.0
H332 H 0.2917 0.01595 0.7038 0.0
H333 H 0.20957 0.92516 0.42309 0.0
H334 H 0.17774 0.90231 0.61429 0.0
H335 H 0.24559 0.04298 0.52775 0.0
C336 C 0.28485 0.07518 0.5977 0.0
C337 C 0.29946 0.06831 0.64722 0.0
C338 C 0.18416 0.90724 0.57227 0.0
C339 C 0.23957 0.99208 0.58563 0.0
C340 C 0.16386 0.86879 0.53881 0.0
C341 C 0.17344 0.87435 0.48455 0.0
C342 C 0.21339 0.95148 0.55109 0.0
C343 C 0.20172 0.91937 0.46475 0.0
C344 C 0.25521 0.03716 0.56667 0.0
C345 C 0.28156 0.02267 0.66565 0.0
N346 N 0.22082 0.95631 0.4981 0.0
N347 N 0.25257 0.98611 0.63468 0.0
H348 H 0.13683 0.40201 0.65211 0.0
H349 H 0.32988 0.51189 0.42384 0.0
H350 H 0.27815 0.51093 0.68041 0.0
H351 H 0.18785 0.40407 0.39694 0.0
H352 H 0.31212 0.51188 0.51749 0.0
H353 H 0.15519 0.40269 0.55884 0.0
C354 C 0.1717 0.42638 0.63885 0.0
C355 C 0.20582 0.45666 0.67476 0.0
C356 C 0.28482 0.48824 0.49111 0.0
C357 C 0.22739 0.4571 0.56695 0.0
C358 C 0.29499 0.488 0.43746 0.0
C359 C 0.26041 0.45788 0.40184 0.0
C360 C 0.23965 0.45807 0.50985 0.0
C361 C 0.21565 0.4284 0.42231 0.0
C362 C 0.18224 0.4265 0.58536 0.0
C363 C 0.25067 0.48659 0.65472 0.0
N364 N 0.20668 0.42921 0.47465 0.0
N365 N 0.26006 0.4861 0.60238 0.0
H366 H 0.77574 0.27499 0.98236 0.0
H367 H 0.75807 0.17442 0.68957 0.0
H368 H 0.70834 0.12846 0.94585 0.0
H369 H 0.82389 0.32106 0.72504 0.0
H370 H 0.73904 0.15714 0.7829 0.0
H371 H 0.79397 0.29259 0.88878 0.0
C372 C 0.76491 0.24643 0.95488 0.0
C373 C 0.74033 0.20005 0.97259 0.0
C374 C 0.75762 0.19313 0.77031 0.0
C375 C 0.76089 0.22017 0.86447 0.0
C376 C 0.76828 0.20309 0.71673 0.0
C377 C 0.79271 0.2494 0.69877 0.0
C378 C 0.77137 0.22961 0.80681 0.0
C379 C 0.80562 0.28485 0.73666 0.0
C380 C 0.77514 0.25657 0.90121 0.0
C381 C 0.72671 0.16473 0.93442 0.0
N382 N 0.79483 0.27424 0.78858 0.0
N383 N 0.73719 0.1755 0.8825 0.0
H384 H 0.59518 0.80285 0.28761 0.0
H385 H 0.50241 0.70309 0.99679 0.0
H386 H 0.50802 0.6566 0.25374 0.0
H387 H 0.59538 0.84833 0.03094 0.0
H388 H 0.50318 0.68528 0.09034 0.0
H389 H 0.59389 0.82 0.19412 0.0
C390 C 0.57546 0.77427 0.26069 0.0
C391 C 0.55159 0.72811 0.27907 0.0
C392 C 0.5234 0.72105 0.07736 0.0
C393 C 0.55042 0.74768 0.17101 0.0
C394 C 0.52322 0.73129 0.02373 0.0
C395 C 0.54883 0.77741 1.00541 0.0
C396 C 0.54937 0.75711 0.1134 0.0
C397 C 0.57445 0.81236 0.04288 0.0
C398 C 0.57501 0.78413 0.20706 0.0
C399 C 0.52741 0.69266 0.24165 0.0
N400 N 0.57404 0.8015 0.09477 0.0
N401 N 0.52739 0.70317 0.18964 0.0
H402 H 0.80829 0.57316 0.60933 0.0
H403 H 0.91173 0.65654 0.3188 0.0
H404 H 0.9548 0.63627 0.5752 0.0
H405 H 0.76587 0.5663 0.3518 0.0
H406 H 0.92909 0.65373 0.41233 0.0
H407 H 0.79286 0.57551 0.51545 0.0
C408 C 0.83729 0.58774 0.58212 0.0
C409 C 0.88293 0.60458 0.60039 0.0
C410 C 0.8933 0.63454 0.39901 0.0
C411 C 0.86545 0.60731 0.49221 0.0
C412 C 0.88336 0.63589 0.34545 0.0
C413 C 0.83718 0.61174 0.32693 0.0
C414 C 0.8568 0.6091 0.43464 0.0
C415 C 0.8019 0.58629 0.36394 0.0
C416 C 0.82842 0.58882 0.52837 0.0
C417 C 0.91902 0.62249 0.56293 0.0
N418 N 0.81242 0.5858 0.41574 0.0
N419 N 0.90955 0.62359 0.51075 0.0
H420 H 0.11574 0.79531 0.74841 0.0
H421 H 0.10477 0.70384 0.04399 0.0
H422 H 0.07954 0.65416 0.78595 0.0
H423 H 0.16062 0.84856 1.00396 0.0
H424 H 0.08894 0.68382 0.95049 0.0
H425 H 0.12744 0.81437 0.84219 0.0
C426 C 0.11048 0.76829 0.77613 0.0
C427 C 0.09677 0.72298 0.75862 0.0
C428 C 0.10465 0.71996 0.96218 0.0
C429 C 0.10934 0.74462 0.86696 0.0
C430 C 0.1134 0.73143 0.01572 0.0
C431 C 0.1344 0.77809 0.03221 0.0
C432 C 0.1167 0.75529 0.92454 0.0
C433 C 0.14517 0.81223 0.9933 0.0
C434 C 0.11688 0.7792 0.8299 0.0
C435 C 0.0895 0.6894 0.79714 0.0
N436 N 0.13627 0.80018 0.9415 0.0
N437 N 0.09588 0.70089 0.84925 0.0
H438 H 0.46043 0.27849 0.32448 0.0
H439 H 0.36011 0.08177 0.09966 0.0
H440 H 0.36211 0.13393 0.35519 0.0
H441 H 0.45637 0.22687 0.06912 0.0
H442 H 0.36062 0.09999 0.19316 0.0
H443 H 0.45891 0.26021 0.23099 0.0
C444 C 0.43821 0.24292 0.31166 0.0
C445 C 0.41124 0.20778 0.3482 0.0
C446 C 0.38161 0.12787 0.16602 0.0
C447 C 0.40987 0.18641 0.2405 0.0
C448 C 0.38157 0.11745 0.11252 0.0
C449 C 0.40832 0.15277 0.07607 0.0
C450 C 0.40867 0.17401 0.18364 0.0
C451 C 0.43474 0.19849 0.09536 0.0
C452 C 0.43761 0.23245 0.25812 0.0
C453 C 0.38393 0.16217 0.32889 0.0
N454 N 0.4343 0.20771 0.14763 0.0
N455 N 0.38393 0.15287 0.27654 0.0
H456 H 0.22408 0.52112 0.19401 0.0
H457 H 0.08295 0.65162 0.24181 0.0
H458 H 0.12411 0.51581 0.08086 0.0
H459 H 0.14885 0.61772 0.36751 0.0
H460 H 0.09503 0.60047 0.18274 0.0
H461 H 0.19613 0.55614 0.25783 0.0
C462 C 0.1963 0.5275 0.18244 0.0
C463 C 0.17684 0.51612 0.13166 0.0
C464 C 0.10614 0.60357 0.22344 0.0
C465 C 0.1445 0.55625 0.20503 0.0
C466 C 0.09929 0.63276 0.25723 0.0
C467 C 0.11541 0.63925 0.30953 0.0
C468 C 0.12999 0.58134 0.24183 0.0
C469 C 0.13598 0.61375 0.3275 0.0
C470 C 0.18006 0.54713 0.21919 0.0
C471 C 0.14034 0.52442 0.1194 0.0
N472 N 0.14341 0.58649 0.29341 0.0
N473 N 0.12569 0.54456 0.15568 0.0
H474 H 0.70664 0.24718 0.47986 0.0
H475 H 0.44346 0.10703 0.56603 0.0
H476 H 0.6044 0.13139 0.38811 0.0
H477 H 0.55484 0.18466 0.67644 0.0
H478 H 0.50052 0.11413 0.50039 0.0
H479 H 0.65062 0.22568 0.55109 0.0
C480 C 0.67222 0.21736 0.47441 0.0
C481 C 0.66007 0.19132 0.42749 0.0
C482 C 0.51247 0.12876 0.53929 0.0
C483 C 0.59557 0.16644 0.50959 0.0
C484 C 0.47995 0.12459 0.57686 0.0
C485 C 0.49455 0.14535 0.62671 0.0
C486 C 0.56005 0.15478 0.55125 0.0
C487 C 0.54214 0.16788 0.63862 0.0
C488 C 0.64039 0.20484 0.5155 0.0
C489 C 0.61512 0.15266 0.42334 0.0
N490 N 0.57333 0.17277 0.60076 0.0
N491 N 0.58428 0.14165 0.46369 0.0
H492 H 0.37949 0.50888 0.96296 0.0
H493 H 0.39868 0.64737 0.69677 0.0
H494 H 0.29074 0.56418 0.91874 0.0
H495 H 0.51068 0.62692 0.74977 0.0
H496 H 0.35132 0.6006 0.77041 0.0
H497 H 0.4234 0.54047 0.88051 0.0
C498 C 0.36956 0.52801 0.93638 0.0
C499 C 0.33155 0.53415 0.94809 0.0
C500 C 0.38597 0.60559 0.76571 0.0
C501 C 0.38045 0.56884 0.85351 0.0
C502 C 0.4127 0.63173 0.72324 0.0
C503 C 0.45833 0.6406 0.71724 0.0
C504 C 0.40537 0.58901 0.8033 0.0
C505 C 0.47527 0.62016 0.75288 0.0
C506 C 0.39432 0.5456 0.88921 0.0
C507 C 0.31982 0.55865 0.91182 0.0
N508 N 0.449 0.59583 0.79514 0.0
N509 N 0.34396 0.5748 0.86635 0.0
H510 H 0.7614 0.29255 0.18669 0.0
H511 H 0.91277 0.55819 0.11254 0.0
H512 H 0.87396 0.38904 0.28648 0.0
H513 H 0.83617 0.45153 0.99681 0.0
H514 H 0.90111 0.49809 0.17644 0.0
H515 H 0.78819 0.35106 0.11754 0.0
C516 C 0.79166 0.32623 0.19431 0.0
C517 C 0.81511 0.33604 0.24294 0.0
C518 C 0.88768 0.48781 0.13679 0.0
C519 C 0.84613 0.40353 0.16319 0.0
C520 C 0.89444 0.52208 0.10019 0.0
C521 C 0.87529 0.50975 0.04929 0.0
C522 C 0.86069 0.44076 0.1228 0.0
C523 C 0.85175 0.46254 0.03547 0.0
C524 C 0.80721 0.35952 0.15442 0.0
C525 C 0.85459 0.38011 0.24985 0.0
N526 N 0.84434 0.42968 0.07236 0.0
N527 N 0.86856 0.41247 0.21061 0.0
H528 H 0.24911 0.79648 0.53286 0.0
H529 H 0.45845 0.74877 0.49398 0.0
H530 H 0.28702 0.76858 0.38008 0.0
H531 H 0.44782 0.82158 0.62952 0.0
H532 H 0.39528 0.75458 0.45178 0.0
H533 H 0.32101 0.80483 0.56943 0.0
C534 C 0.27272 0.79236 0.50691 0.0
C535 C 0.26191 0.78144 0.45339 0.0
C536 C 0.40706 0.76969 0.49052 0.0
C537 C 0.34414 0.7906 0.4952 0.0
C538 C 0.44295 0.76619 0.51479 0.0
C539 C 0.45809 0.78434 0.56559 0.0
C540 C 0.38558 0.79081 0.51756 0.0
C541 C 0.43716 0.80704 0.59038 0.0
C542 C 0.31387 0.79735 0.5278 0.0
C543 C 0.29401 0.77698 0.42154 0.0
N544 N 0.40151 0.8091 0.56639 0.0
N545 N 0.33344 0.78097 0.4431 0.0
H546 H 0.74998 0.50536 0.81817 0.0
H547 H 0.50061 0.28095 0.86189 0.0
H548 H 0.6876 0.45939 0.97187 0.0
H549 H 0.56187 0.3317 0.70871 0.0
H550 H 0.56772 0.34656 0.90285 0.0
H551 H 0.6807 0.44253 0.77797 0.0
C552 C 0.72171 0.48204 0.84366 0.0
C553 C 0.72482 0.48767 0.89872 0.0
C554 C 0.56645 0.34346 0.86029 0.0
C555 C 0.64489 0.41525 0.85236 0.0
C556 C 0.52812 0.30595 0.83674 0.0
C557 C 0.52568 0.30066 0.78164 0.0
C558 C 0.60277 0.37594 0.82862 0.0
C559 C 0.56228 0.33433 0.75127 0.0
C560 C 0.682 0.44612 0.82047 0.0
C561 C 0.6868 0.45636 0.92934 0.0
N562 N 0.59942 0.37045 0.77521 0.0
N563 N 0.64839 0.42135 0.90571 0.0
loop_
_geom_bond_atom_site_label_1
_geom_bond_atom_site_label_2
_geom_bond_distance
_geom_bond_site_symmetry_2
_ccdc_geom_bond_type
Dy0 O3 2.307 1_556 S
Dy0 O5 2.395 . S
Dy0 O6 2.379 . S
Dy0 O8 2.339 . S
Dy0 O10 2.298 . S
Dy0 O14 2.275 . S
Dy0 C22 2.738 . S
Dy1 O4 2.298 . S
Dy1 O7 2.275 . S
Dy1 O9 2.307 1_554 S
Dy1 O11 2.395 . S
Dy1 O12 2.379 . S
Dy1 O15 2.339 . S
Dy1 C31 2.738 . S
C2 O14 1.254 . S
C2 O15 1.257 1_556 S
O3 Dy0 2.307 1_554 S
O3 C13 1.266 . S
O4 Dy1 2.298 . S
O4 C13 1.236 . S
O5 Dy0 2.395 . S
O5 C22 1.255 . S
O6 Dy0 2.379 . S
O6 C22 1.249 . S
O7 Dy1 2.275 . S
O7 C23 1.254 . S
O8 Dy0 2.339 . S
O8 C23 1.257 1_556 S
O9 Dy1 2.307 1_556 S
O9 C24 1.266 . S
O10 Dy0 2.298 . S
O10 C24 1.236 . S
O11 Dy1 2.395 . S
O11 C31 1.255 . S
O12 Dy1 2.379 . S
O12 C31 1.249 . S
C13 O3 1.266 . S
C13 O4 1.236 . S
O14 Dy0 2.275 . S
O14 C2 1.254 . S
O15 Dy1 2.339 . S
O15 C2 1.257 1_554 S
C16 C19 1.344 . S
C16 C20 1.328 . S
C16 C22 1.516 . S
C17 C18 1.304 . S
C17 C21 1.323 . S
C18 C17 1.304 . S
C18 C19 1.371 . S
C18 H32 0.930 . S
C19 C16 1.344 . S
C19 C18 1.371 . S
C19 H33 0.931 . S
C20 C16 1.328 . S
C20 C21 1.433 . S
C20 H34 0.931 . S
C21 C17 1.323 . S
C21 C20 1.433 . S
C21 H35 0.933 . S
C22 Dy0 2.738 . S
C22 O5 1.255 . S
C22 O6 1.249 . S
C22 C16 1.516 . S
C23 O7 1.254 . S
C23 O8 1.257 1_554 S
C24 O9 1.266 . S
C24 O10 1.236 . S
C25 C28 1.344 . S
C25 C29 1.328 . S
C25 C31 1.516 . S
C26 C27 1.304 . S
C26 C30 1.323 . S
C27 C26 1.304 . S
C27 C28 1.371 . S
C27 H36 0.930 . S
C28 C25 1.344 . S
C28 C27 1.371 . S
C28 H37 0.931 . S
C29 C25 1.328 . S
C29 C30 1.433 . S
C29 H38 0.931 . S
C30 C26 1.323 . S
C30 C29 1.433 . S
C30 H39 0.933 . S
C31 Dy1 2.738 . S
C31 O11 1.255 . S
C31 O12 1.249 . S
C31 C25 1.516 . S
H32 C18 0.930 . S
H33 C19 0.931 . S
H34 C20 0.931 . S
H35 C21 0.933 . S
H36 C27 0.930 . S
H37 C28 0.931 . S
H38 C29 0.931 . S
H39 C30 0.933 . S
Dy40 O43 2.307 . S
Dy40 O45 2.395 . S
Dy40 O46 2.379 . S
Dy40 O48 2.339 . S
Dy40 O50 2.298 . S
Dy40 O54 2.275 . S
Dy40 C62 2.738 . S
Dy41 O44 2.298 . S
Dy41 O47 2.275 . S
Dy41 O49 2.307 . S
Dy41 O51 2.395 . S
Dy41 O52 2.379 . S
Dy41 O55 2.339 . S
Dy41 C71 2.738 . S
C42 O54 1.254 . S
C42 O55 1.257 . S
O43 Dy40 2.307 . S
O43 C53 1.266 . S
O44 Dy41 2.298 . S
O44 C53 1.236 . S
O45 Dy40 2.395 . S
O45 C62 1.255 . S
O46 Dy40 2.379 . S
O46 C62 1.249 . S
O47 Dy41 2.275 . S
O47 C63 1.254 . S
O48 Dy40 2.339 . S
O48 C63 1.257 . S
O49 Dy41 2.307 . S
O49 C64 1.266 . S
O50 Dy40 2.298 . S
O50 C64 1.236 . S
O51 Dy41 2.395 . S
O51 C71 1.255 . S
O52 Dy41 2.379 . S
O52 C71 1.249 . S
C53 O43 1.266 . S
C53 O44 1.236 . S
O54 Dy40 2.275 . S
O54 C42 1.254 . S
O55 Dy41 2.339 . S
O55 C42 1.257 . S
C56 C59 1.344 . S
C56 C60 1.328 . S
C56 C62 1.516 . S
C57 C58 1.304 . S
C57 C61 1.323 . S
C58 C57 1.304 . S
C58 C59 1.371 . S
C58 H72 0.930 . S
C59 C56 1.344 . S
C59 C58 1.371 . S
C59 H73 0.931 . S
C60 C56 1.328 . S
C60 C61 1.433 . S
C60 H74 0.931 . S
C61 C57 1.323 . S
C61 C60 1.433 . S
C61 H75 0.933 . S
C62 Dy40 2.738 . S
C62 O45 1.255 . S
C62 O46 1.249 . S
C62 C56 1.516 . S
C63 O47 1.254 . S
C63 O48 1.257 . S
C64 O49 1.266 . S
C64 O50 1.236 . S
C65 C68 1.344 . S
C65 C69 1.328 . S
C65 C71 1.516 . S
C66 C67 1.304 . S
C66 C70 1.323 . S
C67 C66 1.304 . S
C67 C68 1.371 . S
C67 H76 0.930 . S
C68 C65 1.344 . S
C68 C67 1.371 . S
C68 H77 0.931 . S
C69 C65 1.328 . S
C69 C70 1.433 . S
C69 H78 0.931 . S
C70 C66 1.323 . S
C70 C69 1.433 . S
C70 H79 0.933 . S
C71 Dy41 2.738 . S
C71 O51 1.255 . S
C71 O52 1.249 . S
C71 C65 1.516 . S
H72 C58 0.930 . S
H73 C59 0.931 . S
H74 C60 0.931 . S
H75 C61 0.933 . S
H76 C67 0.930 . S
H77 C68 0.931 . S
H78 C69 0.931 . S
H79 C70 0.933 . S
Dy80 O83 2.307 . S
Dy80 O85 2.395 . S
Dy80 O86 2.379 . S
Dy80 O88 2.339 . S
Dy80 O90 2.298 . S
Dy80 O94 2.275 . S
Dy80 C102 2.738 . S
Dy81 O84 2.298 . S
Dy81 O87 2.275 . S
Dy81 O89 2.307 . S
Dy81 O91 2.395 . S
Dy81 O92 2.379 . S
Dy81 O95 2.339 . S
Dy81 C111 2.738 . S
C82 O94 1.254 . S
C82 O95 1.257 . S
O83 Dy80 2.307 . S
O83 C93 1.266 . S
O84 Dy81 2.298 . S
O84 C93 1.236 . S
O85 Dy80 2.395 . S
O85 C102 1.255 . S
O86 Dy80 2.379 . S
O86 C102 1.249 . S
O87 Dy81 2.275 . S
O87 C103 1.254 . S
O88 Dy80 2.339 . S
O88 C103 1.257 . S
O89 Dy81 2.307 . S
O89 C104 1.266 . S
O90 Dy80 2.298 . S
O90 C104 1.236 . S
O91 Dy81 2.395 . S
O91 C111 1.255 . S
O92 Dy81 2.379 . S
O92 C111 1.249 . S
C93 O83 1.266 . S
C93 O84 1.236 . S
O94 Dy80 2.275 . S
O94 C82 1.254 . S
O95 Dy81 2.339 . S
O95 C82 1.257 . S
C96 C99 1.344 . S
C96 C100 1.328 . S
C96 C102 1.516 . S
C97 C98 1.304 . S
C97 C101 1.323 . S
C98 C97 1.304 . S
C98 C99 1.371 . S
C98 H112 0.930 . S
C99 C96 1.344 . S
C99 C98 1.371 . S
C99 H113 0.931 . S
C100 C96 1.328 . S
C100 C101 1.433 . S
C100 H114 0.931 . S
C101 C97 1.323 . S
C101 C100 1.433 . S
C101 H115 0.933 . S
C102 Dy80 2.738 . S
C102 O85 1.255 . S
C102 O86 1.249 . S
C102 C96 1.516 . S
C103 O87 1.254 . S
C103 O88 1.257 . S
C104 O89 1.266 . S
C104 O90 1.236 . S
C105 C108 1.344 . S
C105 C109 1.328 . S
C105 C111 1.516 . S
C106 C107 1.304 1_554 S
C106 C110 1.323 1_554 S
C107 C106 1.304 1_556 S
C107 C108 1.371 . S
C107 H116 0.930 1_556 S
C108 C105 1.344 . S
C108 C107 1.371 . S
C108 H117 0.931 . S
C109 C105 1.328 . S
C109 C110 1.433 . S
C109 H118 0.931 . S
C110 C106 1.323 1_556 S
C110 C109 1.433 . S
C110 H119 0.933 . S
C111 Dy81 2.738 . S
C111 O91 1.255 . S
C111 O92 1.249 . S
C111 C105 1.516 . S
H112 C98 0.930 . S
H113 C99 0.931 . S
H114 C100 0.931 . S
H115 C101 0.933 . S
H116 C107 0.930 1_554 S
H117 C108 0.931 . S
H118 C109 0.931 . S
H119 C110 0.933 . S
Dy120 O123 2.307 1_556 S
Dy120 O125 2.395 . S
Dy120 O126 2.379 . S
Dy120 O128 2.339 . S
Dy120 O130 2.298 . S
Dy120 O134 2.275 . S
Dy120 C142 2.738 . S
Dy121 O124 2.298 . S
Dy121 O127 2.275 . S
Dy121 O129 2.307 1_554 S
Dy121 O131 2.395 . S
Dy121 O132 2.379 . S
Dy121 O135 2.339 . S
Dy121 C151 2.738 . S
C122 O134 1.254 . S
C122 O135 1.257 1_556 S
O123 Dy120 2.307 1_554 S
O123 C133 1.266 . S
O124 Dy121 2.298 . S
O124 C133 1.236 . S
O125 Dy120 2.395 . S
O125 C142 1.255 . S
O126 Dy120 2.379 . S
O126 C142 1.249 . S
O127 Dy121 2.275 . S
O127 C143 1.254 . S
O128 Dy120 2.339 . S
O128 C143 1.257 1_556 S
O129 Dy121 2.307 1_556 S
O129 C144 1.266 . S
O130 Dy120 2.298 . S
O130 C144 1.236 . S
O131 Dy121 2.395 . S
O131 C151 1.255 . S
O132 Dy121 2.379 . S
O132 C151 1.249 . S
C133 O123 1.266 . S
C133 O124 1.236 . S
O134 Dy120 2.275 . S
O134 C122 1.254 . S
O135 Dy121 2.339 . S
O135 C122 1.257 1_554 S
C136 C139 1.344 . S
C136 C140 1.328 . S
C136 C142 1.516 . S
C137 C138 1.304 . S
C137 C141 1.323 . S
C138 C137 1.304 . S
C138 C139 1.371 . S
C138 H152 0.930 . S
C139 C136 1.344 . S
C139 C138 1.371 . S
C139 H153 0.931 . S
C140 C136 1.328 . S
C140 C141 1.433 . S
C140 H154 0.931 . S
C141 C137 1.323 . S
C141 C140 1.433 . S
C141 H155 0.933 . S
C142 Dy120 2.738 . S
C142 O125 1.255 . S
C142 O126 1.249 . S
C142 C136 1.516 . S
C143 O127 1.254 . S
C143 O128 1.257 1_554 S
C144 O129 1.266 . S
C144 O130 1.236 . S
C145 C148 1.344 . S
C145 C149 1.328 . S
C145 C151 1.516 . S
C146 C147 1.304 . S
C146 C150 1.323 . S
C147 C146 1.304 . S
C147 C148 1.371 . S
C147 H156 0.930 . S
C148 C145 1.344 . S
C148 C147 1.371 . S
C148 H157 0.931 . S
C149 C145 1.328 . S
C149 C150 1.433 . S
C149 H158 0.931 . S
C150 C146 1.323 . S
C150 C149 1.433 . S
C150 H159 0.933 . S
C151 Dy121 2.738 . S
C151 O131 1.255 . S
C151 O132 1.249 . S
C151 C145 1.516 . S
H152 C138 0.930 . S
H153 C139 0.931 . S
H154 C140 0.931 . S
H155 C141 0.933 . S
H156 C147 0.930 . S
H157 C148 0.931 . S
H158 C149 0.931 . S
H159 C150 0.933 . S
Dy160 O163 2.307 . S
Dy160 O165 2.395 . S
Dy160 O166 2.379 . S
Dy160 O168 2.339 . S
Dy160 O170 2.298 . S
Dy160 O174 2.275 . S
Dy160 C182 2.738 . S
Dy161 O164 2.298 . S
Dy161 O167 2.275 . S
Dy161 O169 2.307 . S
Dy161 O171 2.395 . S
Dy161 O172 2.379 . S
Dy161 O175 2.339 . S
Dy161 C191 2.738 . S
C162 O174 1.254 . S
C162 O175 1.257 . S
O163 Dy160 2.307 . S
O163 C173 1.266 . S
O164 Dy161 2.298 . S
O164 C173 1.236 . S
O165 Dy160 2.395 . S
O165 C182 1.255 . S
O166 Dy160 2.379 . S
O166 C182 1.249 . S
O167 Dy161 2.275 . S
O167 C183 1.254 . S
O168 Dy160 2.339 . S
O168 C183 1.257 . S
O169 Dy161 2.307 . S
O169 C184 1.266 . S
O170 Dy160 2.298 . S
O170 C184 1.236 . S
O171 Dy161 2.395 . S
O171 C191 1.255 . S
O172 Dy161 2.379 . S
O172 C191 1.249 . S
C173 O163 1.266 . S
C173 O164 1.236 . S
O174 Dy160 2.275 . S
O174 C162 1.254 . S
O175 Dy161 2.339 . S
O175 C162 1.257 . S
C176 C179 1.344 . S
C176 C180 1.328 . S
C176 C182 1.516 . S
C177 C178 1.304 . S
C177 C181 1.323 . S
C178 C177 1.304 . S
C178 C179 1.371 . S
C178 H192 0.930 . S
C179 C176 1.344 . S
C179 C178 1.371 . S
C179 H193 0.931 . S
C180 C176 1.328 . S
C180 C181 1.433 . S
C180 H194 0.931 . S
C181 C177 1.323 . S
C181 C180 1.433 . S
C181 H195 0.933 . S
C182 Dy160 2.738 . S
C182 O165 1.255 . S
C182 O166 1.249 . S
C182 C176 1.516 . S
C183 O167 1.254 . S
C183 O168 1.257 . S
C184 O169 1.266 . S
C184 O170 1.236 . S
C185 C188 1.344 . S
C185 C189 1.328 . S
C185 C191 1.516 . S
C186 C187 1.304 . S
C186 C190 1.323 . S
C187 C186 1.304 . S
C187 C188 1.371 . S
C187 H196 0.930 . S
C188 C185 1.344 . S
C188 C187 1.371 . S
C188 H197 0.931 . S
C189 C185 1.328 . S
C189 C190 1.433 . S
C189 H198 0.931 . S
C190 C186 1.323 . S
C190 C189 1.433 . S
C190 H199 0.933 . S
C191 Dy161 2.738 . S
C191 O171 1.255 . S
C191 O172 1.249 . S
C191 C185 1.516 . S
H192 C178 0.930 . S
H193 C179 0.931 . S
H194 C180 0.931 . S
H195 C181 0.933 . S
H196 C187 0.930 . S
H197 C188 0.931 . S
H198 C189 0.931 . S
H199 C190 0.933 . S
Dy200 O203 2.307 . S
Dy200 O205 2.395 . S
Dy200 O206 2.379 . S
Dy200 O208 2.339 . S
Dy200 O210 2.298 . S
Dy200 O214 2.275 . S
Dy200 C222 2.738 . S
Dy201 O204 2.298 . S
Dy201 O207 2.275 . S
Dy201 O209 2.307 . S
Dy201 O211 2.395 . S
Dy201 O212 2.379 . S
Dy201 O215 2.339 . S
Dy201 C231 2.738 . S
C202 O214 1.254 . S
C202 O215 1.257 . S
O203 Dy200 2.307 . S
O203 C213 1.266 . S
O204 Dy201 2.298 . S
O204 C213 1.236 . S
O205 Dy200 2.395 . S
O205 C222 1.255 . S
O206 Dy200 2.379 . S
O206 C222 1.249 . S
O207 Dy201 2.275 . S
O207 C223 1.254 . S
O208 Dy200 2.339 . S
O208 C223 1.257 . S
O209 Dy201 2.307 . S
O209 C224 1.266 . S
O210 Dy200 2.298 . S
O210 C224 1.236 . S
O211 Dy201 2.395 . S
O211 C231 1.255 . S
O212 Dy201 2.379 . S
O212 C231 1.249 . S
C213 O203 1.266 . S
C213 O204 1.236 . S
O214 Dy200 2.275 . S
O214 C202 1.254 . S
O215 Dy201 2.339 . S
O215 C202 1.257 . S
C216 C219 1.344 . S
C216 C220 1.328 . S
C216 C222 1.516 . S
C217 C218 1.304 . S
C217 C221 1.323 . S
C218 C217 1.304 . S
C218 C219 1.371 . S
C218 H232 0.930 . S
C219 C216 1.344 . S
C219 C218 1.371 . S
C219 H233 0.931 . S
C220 C216 1.328 . S
C220 C221 1.433 . S
C220 H234 0.931 . S
C221 C217 1.323 . S
C221 C220 1.433 . S
C221 H235 0.933 . S
C222 Dy200 2.738 . S
C222 O205 1.255 . S
C222 O206 1.249 . S
C222 C216 1.516 . S
C223 O207 1.254 . S
C223 O208 1.257 . S
C224 O209 1.266 . S
C224 O210 1.236 . S
C225 C228 1.344 . S
C225 C229 1.328 . S
C225 C231 1.516 . S
C226 C227 1.304 1_554 S
C226 C230 1.323 1_554 S
C227 C226 1.304 1_556 S
C227 C228 1.371 . S
C227 H236 0.930 1_556 S
C228 C225 1.344 . S
C228 C227 1.371 . S
C228 H237 0.931 . S
C229 C225 1.328 . S
C229 C230 1.433 . S
C229 H238 0.931 . S
C230 C226 1.323 1_556 S
C230 C229 1.433 . S
C230 H239 0.933 . S
C231 Dy201 2.738 . S
C231 O211 1.255 . S
C231 O212 1.249 . S
C231 C225 1.516 . S
H232 C218 0.930 . S
H233 C219 0.931 . S
H234 C220 0.931 . S
H235 C221 0.933 . S
H236 C227 0.930 1_554 S
H237 C228 0.931 . S
H238 C229 0.931 . S
H239 C230 0.933 . S
H240 C246 0.930 . S
H241 C250 0.930 . S
H242 C255 0.929 . S
H243 C253 0.929 . S
H244 C248 0.929 . S
H245 C254 0.929 . S
C246 H240 0.930 . S
C246 C247 1.367 . S
C246 C254 1.378 . S
C247 C246 1.367 . S
C247 C255 1.433 . S
C248 H244 0.929 . S
C248 C250 1.378 . S
C248 C252 1.350 . S
C249 C252 1.463 . S
C249 C254 1.350 . S
C249 N257 1.427 . S
C250 H241 0.930 . S
C250 C248 1.378 . S
C250 C251 1.367 . S
C251 C250 1.367 . S
C251 C253 1.433 . S
C252 C248 1.350 . S
C252 C249 1.463 . S
C252 N256 1.427 . S
C253 H243 0.929 . S
C253 C251 1.433 . S
C253 N256 1.384 . S
C254 H245 0.929 . S
C254 C246 1.378 . S
C254 C249 1.350 . S
C255 H242 0.929 . S
C255 C247 1.433 . S
C255 N257 1.384 . S
N256 C252 1.427 . S
N256 C253 1.384 . S
N257 C249 1.427 . S
N257 C255 1.384 . S
H258 C264 0.930 . S
H259 C268 0.930 . S
H260 C273 0.929 . S
H261 C271 0.929 . S
H262 C266 0.929 . S
H263 C272 0.929 . S
C264 H258 0.930 . S
C264 C265 1.367 . S
C264 C272 1.378 . S
C265 C264 1.367 . S
C265 C273 1.433 . S
C266 H262 0.929 . S
C266 C268 1.378 . S
C266 C270 1.350 . S
C267 C270 1.463 1_455 S
C267 C272 1.350 . S
C267 N275 1.427 . S
C268 H259 0.930 . S
C268 C266 1.378 . S
C268 C269 1.367 . S
C269 C268 1.367 . S
C269 C271 1.433 . S
C270 C266 1.350 . S
C270 C267 1.463 1_655 S
C270 N274 1.427 . S
C271 H261 0.929 . S
C271 C269 1.433 . S
C271 N274 1.384 . S
C272 H263 0.929 . S
C272 C264 1.378 . S
C272 C267 1.350 . S
C273 H260 0.929 . S
C273 C265 1.433 . S
C273 N275 1.384 . S
N274 C270 1.427 . S
N274 C271 1.384 . S
N275 C267 1.427 . S
N275 C273 1.384 . S
H276 C282 0.930 . S
H277 C286 0.930 . S
H278 C291 0.929 . S
H279 C289 0.929 . S
H280 C284 0.929 . S
H281 C290 0.929 . S
C282 H276 0.930 . S
C282 C283 1.367 . S
C282 C290 1.378 . S
C283 C282 1.367 . S
C283 C291 1.433 . S
C284 H280 0.929 . S
C284 C286 1.378 . S
C284 C288 1.350 . S
C285 C288 1.463 1_545 S
C285 C290 1.350 . S
C285 N293 1.427 . S
C286 H277 0.930 . S
C286 C284 1.378 . S
C286 C287 1.367 . S
C287 C286 1.367 . S
C287 C289 1.433 . S
C288 C284 1.350 . S
C288 C285 1.463 1_565 S
C288 N292 1.427 . S
C289 H279 0.929 . S
C289 C287 1.433 . S
C289 N292 1.384 . S
C290 H281 0.929 . S
C290 C282 1.378 . S
C290 C285 1.350 . S
C291 H278 0.929 . S
C291 C283 1.433 . S
C291 N293 1.384 . S
N292 C288 1.427 . S
N292 C289 1.384 . S
N293 C285 1.427 . S
N293 C291 1.384 . S
H294 C300 0.930 . S
H295 C304 0.930 . S
H296 C309 0.929 . S
H297 C307 0.929 . S
H298 C302 0.929 . S
H299 C308 0.929 . S
C300 H294 0.930 . S
C300 C301 1.367 . S
C300 C308 1.378 . S
C301 C300 1.367 . S
C301 C309 1.433 . S
C302 H298 0.929 . S
C302 C304 1.378 . S
C302 C306 1.350 . S
C303 C306 1.463 . S
C303 C308 1.350 . S
C303 N311 1.427 . S
C304 H295 0.930 . S
C304 C302 1.378 . S
C304 C305 1.367 . S
C305 C304 1.367 . S
C305 C307 1.433 . S
C306 C302 1.350 . S
C306 C303 1.463 . S
C306 N310 1.427 . S
C307 H297 0.929 . S
C307 C305 1.433 . S
C307 N310 1.384 . S
C308 H299 0.929 . S
C308 C300 1.378 . S
C308 C303 1.350 . S
C309 H296 0.929 . S
C309 C301 1.433 . S
C309 N311 1.384 . S
N310 C306 1.427 . S
N310 C307 1.384 . S
N311 C303 1.427 . S
N311 C309 1.384 . S
H312 C318 0.930 . S
H313 C322 0.930 . S
H314 C327 0.929 . S
H315 C325 0.929 . S
H316 C320 0.929 . S
H317 C326 0.929 . S
C318 H312 0.930 . S
C318 C319 1.367 . S
C318 C326 1.378 . S
C319 C318 1.367 . S
C319 C327 1.433 . S
C320 H316 0.929 . S
C320 C322 1.378 . S
C320 C324 1.350 . S
C321 C324 1.463 1_455 S
C321 C326 1.350 . S
C321 N329 1.427 . S
C322 H313 0.930 . S
C322 C320 1.378 . S
C322 C323 1.367 . S
C323 C322 1.367 . S
C323 C325 1.433 . S
C324 C320 1.350 . S
C324 C321 1.463 1_655 S
C324 N328 1.427 . S
C325 H315 0.929 . S
C325 C323 1.433 . S
C325 N328 1.384 . S
C326 H317 0.929 . S
C326 C318 1.378 . S
C326 C321 1.350 . S
C327 H314 0.929 . S
C327 C319 1.433 . S
C327 N329 1.384 . S
N328 C324 1.427 . S
N328 C325 1.384 . S
N329 C321 1.427 . S
N329 C327 1.384 . S
H330 C336 0.930 . S
H331 C340 0.930 . S
H332 C345 0.929 . S
H333 C343 0.929 . S
H334 C338 0.929 . S
H335 C344 0.929 . S
C336 H330 0.930 . S
C336 C337 1.367 . S
C336 C344 1.378 . S
C337 C336 1.367 . S
C337 C345 1.433 . S
C338 H334 0.929 . S
C338 C340 1.378 . S
C338 C342 1.350 . S
C339 C342 1.463 1_545 S
C339 C344 1.350 . S
C339 N347 1.427 . S
C340 H331 0.930 . S
C340 C338 1.378 . S
C340 C341 1.367 . S
C341 C340 1.367 . S
C341 C343 1.433 . S
C342 C338 1.350 . S
C342 C339 1.463 1_565 S
C342 N346 1.427 . S
C343 H333 0.929 . S
C343 C341 1.433 . S
C343 N346 1.384 . S
C344 H335 0.929 . S
C344 C336 1.378 . S
C344 C339 1.350 . S
C345 H332 0.929 . S
C345 C337 1.433 . S
C345 N347 1.384 . S
N346 C342 1.427 . S
N346 C343 1.384 . S
N347 C339 1.427 . S
N347 C345 1.384 . S
H348 C354 0.930 . S
H349 C358 0.930 . S
H350 C363 0.929 . S
H351 C361 0.929 . S
H352 C356 0.929 . S
H353 C362 0.929 . S
C354 H348 0.930 . S
C354 C355 1.367 . S
C354 C362 1.378 . S
C355 C354 1.367 . S
C355 C363 1.433 . S
C356 H352 0.929 . S
C356 C358 1.378 . S
C356 C360 1.350 . S
C357 C360 1.463 . S
C357 C362 1.350 . S
C357 N365 1.427 . S
C358 H349 0.930 . S
C358 C356 1.378 . S
C358 C359 1.367 . S
C359 C358 1.367 . S
C359 C361 1.433 . S
C360 C356 1.350 . S
C360 C357 1.463 . S
C360 N364 1.427 . S
C361 H351 0.929 . S
C361 C359 1.433 . S
C361 N364 1.384 . S
C362 H353 0.929 . S
C362 C354 1.378 . S
C362 C357 1.350 . S
C363 H350 0.929 . S
C363 C355 1.433 . S
C363 N365 1.384 . S
N364 C360 1.427 . S
N364 C361 1.384 . S
N365 C357 1.427 . S
N365 C363 1.384 . S
H366 C372 0.930 . S
H367 C376 0.930 . S
H368 C381 0.929 . S
H369 C379 0.929 . S
H370 C374 0.929 . S
H371 C380 0.929 . S
C372 H366 0.930 . S
C372 C373 1.367 . S
C372 C380 1.378 . S
C373 C372 1.367 . S
C373 C381 1.433 . S
C374 H370 0.929 . S
C374 C376 1.378 . S
C374 C378 1.350 . S
C375 C378 1.463 . S
C375 C380 1.350 . S
C375 N383 1.427 . S
C376 H367 0.930 . S
C376 C374 1.378 . S
C376 C377 1.367 . S
C377 C376 1.367 . S
C377 C379 1.433 . S
C378 C374 1.350 . S
C378 C375 1.463 . S
C378 N382 1.427 . S
C379 H369 0.929 . S
C379 C377 1.433 . S
C379 N382 1.384 . S
C380 H371 0.929 . S
C380 C372 1.378 . S
C380 C375 1.350 . S
C381 H368 0.929 . S
C381 C373 1.433 . S
C381 N383 1.384 . S
N382 C378 1.427 . S
N382 C379 1.384 . S
N383 C375 1.427 . S
N383 C381 1.384 . S
H384 C390 0.930 . S
H385 C394 0.930 . S
H386 C399 0.929 . S
H387 C397 0.929 . S
H388 C392 0.929 . S
H389 C398 0.929 . S
C390 H384 0.930 . S
C390 C391 1.367 . S
C390 C398 1.378 . S
C391 C390 1.367 . S
C391 C399 1.433 . S
C392 H388 0.929 . S
C392 C394 1.378 . S
C392 C396 1.350 . S
C393 C396 1.463 . S
C393 C398 1.350 . S
C393 N401 1.427 . S
C394 H385 0.930 . S
C394 C392 1.378 . S
C394 C395 1.367 . S
C395 C394 1.367 . S
C395 C397 1.433 . S
C396 C392 1.350 . S
C396 C393 1.463 . S
C396 N400 1.427 . S
C397 H387 0.929 . S
C397 C395 1.433 . S
C397 N400 1.384 . S
C398 H389 0.929 . S
C398 C390 1.378 . S
C398 C393 1.350 . S
C399 H386 0.929 . S
C399 C391 1.433 . S
C399 N401 1.384 . S
N400 C396 1.427 . S
N400 C397 1.384 . S
N401 C393 1.427 . S
N401 C399 1.384 . S
H402 C408 0.930 . S
H403 C412 0.930 . S
H404 C417 0.929 . S
H405 C415 0.929 . S
H406 C410 0.929 . S
H407 C416 0.929 . S
C408 H402 0.930 . S
C408 C409 1.367 . S
C408 C416 1.378 . S
C409 C408 1.367 . S
C409 C417 1.433 . S
C410 H406 0.929 . S
C410 C412 1.378 . S
C410 C414 1.350 . S
C411 C414 1.463 . S
C411 C416 1.350 . S
C411 N419 1.427 . S
C412 H403 0.930 . S
C412 C410 1.378 . S
C412 C413 1.367 . S
C413 C412 1.367 . S
C413 C415 1.433 . S
C414 C410 1.350 . S
C414 C411 1.463 . S
C414 N418 1.427 . S
C415 H405 0.929 . S
C415 C413 1.433 . S
C415 N418 1.384 . S
C416 H407 0.929 . S
C416 C408 1.378 . S
C416 C411 1.350 . S
C417 H404 0.929 . S
C417 C409 1.433 . S
C417 N419 1.384 . S
N418 C414 1.427 . S
N418 C415 1.384 . S
N419 C411 1.427 . S
N419 C417 1.384 . S
H420 C426 0.930 . S
H421 C430 0.930 . S
H422 C435 0.929 . S
H423 C433 0.929 . S
H424 C428 0.929 . S
H425 C434 0.929 . S
C426 H420 0.930 . S
C426 C427 1.367 . S
C426 C434 1.378 . S
C427 C426 1.367 . S
C427 C435 1.433 . S
C428 H424 0.929 . S
C428 C430 1.378 . S
C428 C432 1.350 . S
C429 C432 1.463 . S
C429 C434 1.350 . S
C429 N437 1.427 . S
C430 H421 0.930 . S
C430 C428 1.378 . S
C430 C431 1.367 . S
C431 C430 1.367 . S
C431 C433 1.433 . S
C432 C428 1.350 . S
C432 C429 1.463 . S
C432 N436 1.427 . S
C433 H423 0.929 . S
C433 C431 1.433 . S
C433 N436 1.384 . S
C434 H425 0.929 . S
C434 C426 1.378 . S
C434 C429 1.350 . S
C435 H422 0.929 . S
C435 C427 1.433 . S
C435 N437 1.384 . S
N436 C432 1.427 . S
N436 C433 1.384 . S
N437 C429 1.427 . S
N437 C435 1.384 . S
H438 C444 0.930 . S
H439 C448 0.930 . S
H440 C453 0.929 . S
H441 C451 0.929 . S
H442 C446 0.929 . S
H443 C452 0.929 . S
C444 H438 0.930 . S
C444 C445 1.367 . S
C444 C452 1.378 . S
C445 C444 1.367 . S
C445 C453 1.433 . S
C446 H442 0.929 . S
C446 C448 1.378 . S
C446 C450 1.350 . S
C447 C450 1.463 . S
C447 C452 1.350 . S
C447 N455 1.427 . S
C448 H439 0.930 . S
C448 C446 1.378 . S
C448 C449 1.367 . S
C449 C448 1.367 . S
C449 C451 1.433 . S
C450 C446 1.350 . S
C450 C447 1.463 . S
C450 N454 1.427 . S
C451 H441 0.929 . S
C451 C449 1.433 . S
C451 N454 1.384 . S
C452 H443 0.929 . S
C452 C444 1.378 . S
C452 C447 1.350 . S
C453 H440 0.929 . S
C453 C445 1.433 . S
C453 N455 1.384 . S
N454 C450 1.427 . S
N454 C451 1.384 . S
N455 C447 1.427 . S
N455 C453 1.384 . S
H456 C462 0.930 . S
H457 C466 0.930 . S
H458 C471 0.929 . S
H459 C469 0.929 . S
H460 C464 0.929 . S
H461 C470 0.929 . S
C462 H456 0.930 . S
C462 C463 1.367 . S
C462 C470 1.378 . S
C463 C462 1.367 . S
C463 C471 1.433 . S
C464 H460 0.929 . S
C464 C466 1.378 . S
C464 C468 1.350 . S
C465 C468 1.463 . S
C465 C470 1.350 . S
C465 N473 1.427 . S
C466 H457 0.930 . S
C466 C464 1.378 . S
C466 C467 1.367 . S
C467 C466 1.367 . S
C467 C469 1.433 . S
C468 C464 1.350 . S
C468 C465 1.463 . S
C468 N472 1.427 . S
C469 H459 0.929 . S
C469 C467 1.433 . S
C469 N472 1.384 . S
C470 H461 0.929 . S
C470 C462 1.378 . S
C470 C465 1.350 . S
C471 H458 0.929 . S
C471 C463 1.433 . S
C471 N473 1.384 . S
N472 C468 1.427 . S
N472 C469 1.384 . S
N473 C465 1.427 . S
N473 C471 1.384 . S
H474 C480 0.930 . S
H475 C484 0.930 . S
H476 C489 0.929 . S
H477 C487 0.929 . S
H478 C482 0.929 . S
H479 C488 0.929 . S
C480 H474 0.930 . S
C480 C481 1.367 . S
C480 C488 1.378 . S
C481 C480 1.367 . S
C481 C489 1.433 . S
C482 H478 0.929 . S
C482 C484 1.378 . S
C482 C486 1.350 . S
C483 C486 1.463 . S
C483 C488 1.350 . S
C483 N491 1.427 . S
C484 H475 0.930 . S
C484 C482 1.378 . S
C484 C485 1.367 . S
C485 C484 1.367 . S
C485 C487 1.433 . S
C486 C482 1.350 . S
C486 C483 1.463 . S
C486 N490 1.427 . S
C487 H477 0.929 . S
C487 C485 1.433 . S
C487 N490 1.384 . S
C488 H479 0.929 . S
C488 C480 1.378 . S
C488 C483 1.350 . S
C489 H476 0.929 . S
C489 C481 1.433 . S
C489 N491 1.384 . S
N490 C486 1.427 . S
N490 C487 1.384 . S
N491 C483 1.427 . S
N491 C489 1.384 . S
H492 C498 0.930 . S
H493 C502 0.930 . S
H494 C507 0.929 . S
H495 C505 0.929 . S
H496 C500 0.929 . S
H497 C506 0.929 . S
C498 H492 0.930 . S
C498 C499 1.367 . S
C498 C506 1.378 . S
C499 C498 1.367 . S
C499 C507 1.433 . S
C500 H496 0.929 . S
C500 C502 1.378 . S
C500 C504 1.350 . S
C501 C504 1.463 . S
C501 C506 1.350 . S
C501 N509 1.427 . S
C502 H493 0.930 . S
C502 C500 1.378 . S
C502 C503 1.367 . S
C503 C502 1.367 . S
C503 C505 1.433 . S
C504 C500 1.350 . S
C504 C501 1.463 . S
C504 N508 1.427 . S
C505 H495 0.929 . S
C505 C503 1.433 . S
C505 N508 1.384 . S
C506 H497 0.929 . S
C506 C498 1.378 . S
C506 C501 1.350 . S
C507 H494 0.929 . S
C507 C499 1.433 . S
C507 N509 1.384 . S
N508 C504 1.427 . S
N508 C505 1.384 . S
N509 C501 1.427 . S
N509 C507 1.384 . S
H510 C516 0.930 . S
H511 C520 0.930 . S
H512 C525 0.929 . S
H513 C523 0.929 . S
H514 C518 0.929 . S
H515 C524 0.929 . S
C516 H510 0.930 . S
C516 C517 1.367 . S
C516 C524 1.378 . S
C517 C516 1.367 . S
C517 C525 1.433 . S
C518 H514 0.929 . S
C518 C520 1.378 . S
C518 C522 1.350 . S
C519 C522 1.463 . S
C519 C524 1.350 . S
C519 N527 1.427 . S
C520 H511 0.930 . S
C520 C518 1.378 . S
C520 C521 1.367 . S
C521 C520 1.367 . S
C521 C523 1.433 . S
C522 C518 1.350 . S
C522 C519 1.463 . S
C522 N526 1.427 . S
C523 H513 0.929 . S
C523 C521 1.433 . S
C523 N526 1.384 . S
C524 H515 0.929 . S
C524 C516 1.378 . S
C524 C519 1.350 . S
C525 H512 0.929 . S
C525 C517 1.433 . S
C525 N527 1.384 . S
N526 C522 1.427 . S
N526 C523 1.384 . S
N527 C519 1.427 . S
N527 C525 1.384 . S
H528 C534 0.930 . S
H529 C538 0.930 . S
H530 C543 0.929 . S
H531 C541 0.929 . S
H532 C536 0.929 . S
H533 C542 0.929 . S
C534 H528 0.930 . S
C534 C535 1.367 . S
C534 C542 1.378 . S
C535 C534 1.367 . S
C535 C543 1.433 . S
C536 H532 0.929 . S
C536 C538 1.378 . S
C536 C540 1.350 . S
C537 C540 1.463 . S
C537 C542 1.350 . S
C537 N545 1.427 . S
C538 H529 0.930 . S
C538 C536 1.378 . S
C538 C539 1.367 . S
C539 C538 1.367 . S
C539 C541 1.433 . S
C540 C536 1.350 . S
C540 C537 1.463 . S
C540 N544 1.427 . S
C541 H531 0.929 . S
C541 C539 1.433 . S
C541 N544 1.384 . S
C542 H533 0.929 . S
C542 C534 1.378 . S
C542 C537 1.350 . S
C543 H530 0.929 . S
C543 C535 1.433 . S
C543 N545 1.384 . S
N544 C540 1.427 . S
N544 C541 1.384 . S
N545 C537 1.427 . S
N545 C543 1.384 . S
H546 C552 0.930 . S
H547 C556 0.930 . S
H548 C561 0.929 . S
H549 C559 0.929 . S
H550 C554 0.929 . S
H551 C560 0.929 . S
C552 H546 0.930 . S
C552 C553 1.367 . S
C552 C560 1.378 . S
C553 C552 1.367 . S
C553 C561 1.433 . S
C554 H550 0.929 . S
C554 C556 1.378 . S
C554 C558 1.350 . S
C555 C558 1.463 . S
C555 C560 1.350 . S
C555 N563 1.427 . S
C556 H547 0.930 . S
C556 C554 1.378 . S
C556 C557 1.367 . S
C557 C556 1.367 . S
C557 C559 1.433 . S
C558 C554 1.350 . S
C558 C555 1.463 . S
C558 N562 1.427 . S
C559 H549 0.929 . S
C559 C557 1.433 . S
C559 N562 1.384 . S
C560 H551 0.929 . S
C560 C552 1.378 . S
C560 C555 1.350 . S
C561 H548 0.929 . S
C561 C553 1.433 . S
C561 N563 1.384 . S
N562 C558 1.427 . S
N562 C559 1.384 . S
N563 C555 1.427 . S
N563 C561 1.384 . S
C247 C213 1.409 . S
C251 C2 1.401 . S
C265 C13 1.409 . S
C269 C42 1.401 . S
C283 C53 1.414 . S
C287 C82 1.392 . S
C301 C93 1.411 . S
C305 C122 1.396 . S
C319 C162 1.397 . S
C323 C133 1.410 . S
C337 C202 1.394 . S
C341 C173 1.412 . S
C355 C17 1.452 . S
C359 C26 1.452 . S
C373 C57 1.435 1_556 S
C377 C66 1.435 . S
C391 C97 1.430 . S
C395 C106 1.430 . S
C409 C137 1.442 . S
C413 C146 1.442 . S
C427 C186 1.441 . S
C431 C177 1.441 1_556 S
C445 C217 1.451 . S
C449 C226 1.451 . S
C463 C23 1.647 . S
C467 C184 1.637 . S
C481 C63 1.648 . S
C485 C224 1.634 . S
C499 C24 1.637 . S
C503 C103 1.646 . S
C517 C64 1.632 . S
C521 C143 1.648 . S
C535 C183 1.648 . S
C539 C104 1.631 . S
C553 C144 1.633 . S
C557 C223 1.648 . S
