# Generated by pormake.
# Topology vbe, (5)-cn, num edge types: 1
# Building blocks:
#     Node 0, Type 0, BuildingBlock: XOMCOT_clean_sbu_1, # of connection points: 5
#     Node 1, Type 0, BuildingBlock: XOMCOT_clean_sbu_1, # of connection points: 5
#     Node 2, Type 0, BuildingBlock: XOMCOT_clean_sbu_1, # of connection points: 5
#     Node 3, Type 0, BuildingBlock: XOMCOT_clean_sbu_1, # of connection points: 5
#     Node 4, Type 0, BuildingBlock: XOMCOT_clean_sbu_1, # of connection points: 5
#     Node 5, Type 0, BuildingBlock: XOMCOT_clean_sbu_1, # of connection points: 5
#     Node 6, Type 0, BuildingBlock: XOMCOT_clean_sbu_1, # of connection points: 5
#     Node 7, Type 0, BuildingBlock: XOMCOT_clean_sbu_1, # of connection points: 5
#     Node 8, Type 0, BuildingBlock: XOMCOT_clean_sbu_1, # of connection points: 5
#     Node 9, Type 0, BuildingBlock: XOMCOT_clean_sbu_1, # of connection points: 5
#     Node 10, Type 0, BuildingBlock: XOMCOT_clean_sbu_1, # of connection points: 5
#     Node 11, Type 0, BuildingBlock: XOMCOT_clean_sbu_1, # of connection points: 5
#     Node 12, Type 0, BuildingBlock: XOMCOT_clean_sbu_1, # of connection points: 5
#     Node 13, Type 0, BuildingBlock: XOMCOT_clean_sbu_1, # of connection points: 5
#     Node 14, Type 0, BuildingBlock: XOMCOT_clean_sbu_1, # of connection points: 5
#     Node 15, Type 0, BuildingBlock: XOMCOT_clean_sbu_1, # of connection points: 5
#     Edge 16, Type (0, 0), None
#     Edge 17, Type (0, 0), None
#     Edge 18, Type (0, 0), None
#     Edge 19, Type (0, 0), None
#     Edge 20, Type (0, 0), None
#     Edge 21, Type (0, 0), None
#     Edge 22, Type (0, 0), None
#     Edge 23, Type (0, 0), None
#     Edge 24, Type (0, 0), None
#     Edge 25, Type (0, 0), None
#     Edge 26, Type (0, 0), None
#     Edge 27, Type (0, 0), None
#     Edge 28, Type (0, 0), None
#     Edge 29, Type (0, 0), None
#     Edge 30, Type (0, 0), None
#     Edge 31, Type (0, 0), None
#     Edge 32, Type (0, 0), None
#     Edge 33, Type (0, 0), None
#     Edge 34, Type (0, 0), None
#     Edge 35, Type (0, 0), None
#     Edge 36, Type (0, 0), None
#     Edge 37, Type (0, 0), None
#     Edge 38, Type (0, 0), None
#     Edge 39, Type (0, 0), None
#     Edge 40, Type (0, 0), None
#     Edge 41, Type (0, 0), None
#     Edge 42, Type (0, 0), None
#     Edge 43, Type (0, 0), None
#     Edge 44, Type (0, 0), None
#     Edge 45, Type (0, 0), None
#     Edge 46, Type (0, 0), None
#     Edge 47, Type (0, 0), None
#     Edge 48, Type (0, 0), None
#     Edge 49, Type (0, 0), None
#     Edge 50, Type (0, 0), None
#     Edge 51, Type (0, 0), None
#     Edge 52, Type (0, 0), None
#     Edge 53, Type (0, 0), None
#     Edge 54, Type (0, 0), None
#     Edge 55, Type (0, 0), None
# Relax obj value: 0.527
# Max RMSD: 0.280
# Mean RMSD: 0.280
data_MOF--net-vbe--node1-XOMCOT_clean_sbu_1--edge1-none
_symmetry_space_group_name_H-M    P1
_symmetry_Int_Tables_number       1
_symmetry_cell_setting            triclinic
loop_
_symmetry_equiv_pos_as_xyz
'x, y, z'
_cell_length_a     18.551108
_cell_length_b     19.48593
_cell_length_c     29.829419
_cell_angle_alpha  90.002508
_cell_angle_beta   89.996746
_cell_angle_gamma 90.000827
loop_
_atom_site_label
_atom_site_type_symbol
_atom_site_fract_x
_atom_site_fract_y
_atom_site_fract_z
_atom_type_partial_charge
C0 C 0.19364 0.26209 0.3125 0.0
C1 C 0.20376 0.30404 0.27604 0.0
N2 N 0.14802 0.29534 0.2479 0.0
N3 N 0.13256 0.22524 0.30756 0.0
C4 C 0.10575 0.24665 0.2672 0.0
H5 H 0.22938 0.2578 0.34101 0.0
Co6 Co 0.10771 0.16682 0.35678 0.0
C7 C 0.02778 0.28776 0.38094 0.0
O8 O 0.08882 0.32158 0.38381 0.0
N9 N 0.08555 0.11402 0.4062 0.0
C10 C 0.09328 0.06146 0.4721 0.0
C11 C 0.13184 0.09134 0.43776 0.0
C12 C 0.0194 0.09788 0.42175 0.0
N13 N 0.0228 0.06613 0.46174 0.0
O14 O 0.19133 0.10704 0.34425 0.0
H15 H 0.18963 0.09843 0.43662 0.0
H16 H 0.96987 0.1114 0.4048 0.0
O17 O 0.02795 0.22469 0.37076 0.0
C18 C 0.21717 0.0845 0.30729 0.0
O19 O 0.19106 0.10627 0.26892 0.0
N20 N 0.04668 0.10976 0.32133 0.0
C21 C 0.98914 1.04159 0.24952 0.0
C22 C 0.95336 0.09915 0.26681 0.0
C23 C 0.98605 0.1352 0.30135 0.0
C24 C 0.06387 1.04207 0.31475 0.0
C25 C 0.03956 1.00832 0.27639 0.0
H26 H 0.9667 0.18637 0.30799 0.0
H27 H 0.10328 1.0167 0.33558 0.0
H28 H 0.05781 0.22633 0.25157 0.0
H29 H 0.24991 0.33664 0.26974 0.0
H30 H 0.11525 1.04003 0.50263 0.0
H31 H 0.91137 0.12434 0.24765 0.0
H32 H 0.06575 0.96161 0.26535 0.0
C33 C 0.29312 0.8501 0.3125 0.0
C34 C 0.283 0.80814 0.27604 0.0
N35 N 0.33874 0.81683 0.2479 0.0
N36 N 0.35421 0.88694 0.30756 0.0
C37 C 0.38101 0.86552 0.2672 0.0
H38 H 0.25738 0.85439 0.34101 0.0
Co39 Co 0.37905 0.94536 0.35678 0.0
C40 C 0.45898 0.82442 0.38094 0.0
O41 O 0.39794 0.7906 0.38382 0.0
N42 N 0.40122 0.99815 0.4062 0.0
C43 C 0.39351 1.05071 0.47211 0.0
C44 C 0.35494 1.02085 0.43776 0.0
C45 C 0.46738 1.01427 0.42175 0.0
N46 N 0.46399 1.04602 0.46174 0.0
O47 O 0.29544 1.00514 0.34425 0.0
H48 H 0.29715 1.01377 0.43663 0.0
H49 H 0.51691 1.00074 0.40479 0.0
O50 O 0.45881 0.88748 0.37075 0.0
C51 C 0.26962 1.02768 0.30729 0.0
O52 O 0.29573 1.00591 0.26892 0.0
N53 N 0.44009 1.00241 0.32133 0.0
C54 C 0.49764 0.07057 0.24952 0.0
C55 C 0.53342 1.01302 0.2668 0.0
C56 C 0.50073 0.97696 0.30135 0.0
C57 C 0.42291 0.07011 0.31475 0.0
C58 C 0.44723 0.10385 0.2764 0.0
H59 H 0.52006 0.92579 0.30797 0.0
H60 H 0.3835 0.09548 0.33559 0.0
H61 H 0.42896 0.88582 0.25157 0.0
H62 H 0.23684 0.77554 0.26975 0.0
H63 H 0.37155 0.07214 0.50264 0.0
H64 H 0.57541 0.98783 0.24764 0.0
H65 H 0.42104 0.15057 0.26536 0.0
C66 C 0.69364 0.85008 0.13786 0.0
C67 C 0.70376 0.80813 0.17432 0.0
N68 N 0.64802 0.81682 0.20246 0.0
N69 N 0.63255 0.88692 0.1428 0.0
C70 C 0.60575 0.86551 0.18316 0.0
H71 H 0.72938 0.85437 0.10935 0.0
Co72 Co 0.60772 0.94534 0.09359 0.0
C73 C 0.52779 0.8244 0.06942 0.0
O74 O 0.58882 0.79057 0.06654 0.0
N75 N 0.58556 0.99814 0.04417 0.0
C76 C 0.59329 1.0507 -0.02173 0.0
C77 C 0.63185 1.02083 0.01261 0.0
C78 C 0.51941 1.01427 0.02862 0.0
N79 N 0.5228 1.04602 -0.01137 0.0
O80 O 0.69133 1.00513 0.10613 0.0
H81 H 0.68964 1.01375 0.01374 0.0
H82 H 0.46987 1.00074 0.04558 0.0
O83 O 0.52797 0.88746 0.0796 0.0
C84 C 0.71716 1.02767 0.14309 0.0
O85 O 0.69104 1.0059 0.18146 0.0
N86 N 0.54667 1.00239 0.12904 0.0
C87 C 0.489 0.07059 0.20078 0.0
C88 C 0.45326 1.01301 0.18351 0.0
C89 C 0.48602 0.97694 0.149 0.0
C90 C 0.56385 0.07009 0.13562 0.0
C91 C 0.53948 0.10385 0.17396 0.0
H92 H 0.4667 0.92575 0.14237 0.0
H93 H 0.60329 0.09546 0.1148 0.0
H94 H 0.55781 0.88582 0.19879 0.0
H95 H 0.74991 0.77552 0.18062 0.0
H96 H 0.61525 0.07213 0.94773 0.0
H97 H 0.41125 0.98782 0.20267 0.0
H98 H 0.56565 0.15057 0.18501 0.0
C99 C 0.79313 0.26207 0.13787 0.0
C100 C 0.783 0.30403 0.17433 0.0
N101 N 0.83874 0.29534 0.20246 0.0
N102 N 0.85421 0.22523 0.1428 0.0
C103 C 0.88102 0.24665 0.18316 0.0
H104 H 0.75739 0.25777 0.10935 0.0
Co105 Co 0.87906 0.1668 0.09359 0.0
C106 C 0.95898 0.28774 0.06942 0.0
O107 O 0.89795 0.32157 0.06654 0.0
N108 N 0.90123 0.114 0.04418 0.0
C109 C 0.89351 0.06143 -0.02173 0.0
C110 C 0.85494 0.0913 0.01261 0.0
C111 C 0.96738 0.09787 0.02862 0.0
N112 N 0.96399 0.06612 -0.01136 0.0
O113 O 0.79545 0.10702 0.10613 0.0
H114 H 0.79715 0.09838 0.01375 0.0
H115 H 0.01691 0.1114 0.04558 0.0
O116 O 0.95881 0.22468 0.0796 0.0
C117 C 0.76961 0.08448 0.14309 0.0
O118 O 0.79572 0.10625 0.18146 0.0
N119 N 0.94011 0.10976 0.12904 0.0
C120 C -0.00222 1.04157 0.20078 0.0
C121 C 0.03351 0.09916 0.18351 0.0
C122 C 0.00075 0.13522 0.149 0.0
C123 C 0.92292 1.04206 0.13563 0.0
C124 C 0.94729 1.00831 0.17396 0.0
H125 H 0.02007 0.1864 0.14237 0.0
H126 H 0.88349 1.01669 0.11481 0.0
H127 H 0.92896 0.22635 0.19879 0.0
H128 H 0.73685 0.33663 0.18062 0.0
H129 H 0.87155 1.04 0.94773 0.0
H130 H 0.07552 0.12435 0.20266 0.0
H131 H 0.92112 0.96159 0.18502 0.0
C132 C 0.79316 0.85006 0.63787 0.0
C133 C 0.78303 0.8081 0.67433 0.0
N134 N 0.83877 0.81679 0.70247 0.0
N135 N 0.85424 0.8869 0.64281 0.0
C136 C 0.88104 0.86549 0.68317 0.0
H137 H 0.75742 0.85434 0.60936 0.0
Co138 Co 0.87908 0.94532 0.59359 0.0
C139 C 0.95901 0.82438 0.56943 0.0
O140 O 0.89798 0.79055 0.56656 0.0
N141 N 0.90125 0.99811 0.54417 0.0
C142 C 0.89352 1.05066 0.47826 0.0
C143 C 0.85496 1.02081 0.51262 0.0
C144 C 0.9674 1.0142 0.5286 0.0
N145 N 0.96401 1.04593 0.48861 0.0
O146 O 0.79547 1.00509 0.60612 0.0
H147 H 0.79716 1.01376 0.51377 0.0
H148 H 0.01694 1.00067 0.54555 0.0
O149 O 0.95884 0.88744 0.57961 0.0
C150 C 0.76963 1.02764 0.64308 0.0
O151 O 0.79574 1.00587 0.68145 0.0
N152 N 0.94012 1.00237 0.62904 0.0
C153 C -0.00235 0.07054 0.70085 0.0
C154 C 0.03344 1.01299 0.68356 0.0
C155 C 0.00075 0.97693 0.64902 0.0
C156 C 0.92293 0.07007 0.63562 0.0
C157 C 0.94724 0.10381 0.67398 0.0
H158 H 0.02009 0.92576 0.64238 0.0
H159 H 0.88351 0.09544 0.61479 0.0
H160 H 0.92899 0.8858 0.6988 0.0
H161 H 0.73689 0.77549 0.68063 0.0
H162 H 0.87155 0.0721 0.44773 0.0
H163 H 0.07543 0.9878 0.70272 0.0
H164 H 0.92104 0.15053 0.68502 0.0
C165 C 0.69367 0.26203 0.63787 0.0
C166 C 0.7038 0.30399 0.67433 0.0
N167 N 0.64805 0.2953 0.70247 0.0
N168 N 0.63258 0.22519 0.64281 0.0
C169 C 0.60578 0.24661 0.68317 0.0
H170 H 0.72941 0.25773 0.60936 0.0
Co171 Co 0.60774 0.16677 0.5936 0.0
C172 C 0.52782 0.28771 0.56943 0.0
O173 O 0.58885 0.32153 0.56655 0.0
N174 N 0.58556 0.11398 0.54417 0.0
C175 C 0.59328 0.06144 0.47826 0.0
C176 C 0.63185 0.09126 0.51261 0.0
C177 C 0.5194 0.09791 0.52861 0.0
N178 N 0.52279 0.06619 0.48861 0.0
O179 O 0.69135 0.10699 0.60612 0.0
H180 H 0.68964 0.09831 0.51376 0.0
H181 H 0.46987 0.11146 0.54556 0.0
O182 O 0.52798 0.22465 0.57962 0.0
C183 C 0.71718 0.08445 0.64308 0.0
O184 O 0.69106 0.10622 0.68145 0.0
N185 N 0.54669 0.10972 0.62904 0.0
C186 C 0.48915 1.04155 0.70085 0.0
C187 C 0.45337 0.09911 0.68357 0.0
C188 C 0.48606 0.13517 0.64903 0.0
C189 C 0.56388 1.04202 0.63562 0.0
C190 C 0.53956 1.00828 0.67397 0.0
H191 H 0.46673 0.18634 0.6424 0.0
H192 H 0.60329 1.01665 0.61478 0.0
H193 H 0.55783 0.22631 0.6988 0.0
H194 H 0.74995 0.33659 0.68062 0.0
H195 H 0.61524 1.04 0.44772 0.0
H196 H 0.41138 0.1243 0.70273 0.0
H197 H 0.56575 0.96156 0.68501 0.0
C198 C 0.29315 0.26205 0.81251 0.0
C199 C 0.28303 0.304 0.77605 0.0
N200 N 0.33878 0.29532 0.74791 0.0
N201 N 0.35424 0.2252 0.80756 0.0
C202 C 0.38105 0.24662 0.7672 0.0
H203 H 0.25741 0.25775 0.84102 0.0
Co204 Co 0.37908 0.16679 0.85678 0.0
C205 C 0.459 0.28773 0.88095 0.0
O206 O 0.39797 0.32156 0.88383 0.0
N207 N 0.40124 0.11399 0.9062 0.0
C208 C 0.39352 0.06145 0.97211 0.0
C209 C 0.35495 0.09128 0.93776 0.0
C210 C 0.4674 0.09791 0.92177 0.0
N211 N 0.464 0.06619 0.96176 0.0
O212 O 0.29547 0.107 0.84424 0.0
H213 H 0.29716 0.09833 0.93661 0.0
H214 H 0.51693 0.11146 0.90482 0.0
O215 O 0.45883 0.22467 0.87076 0.0
C216 C 0.26964 0.08446 0.80728 0.0
O217 O 0.29576 0.10623 0.76892 0.0
N218 N 0.44013 0.10974 0.82133 0.0
C219 C 0.4978 1.04153 0.74959 0.0
C220 C 0.53354 0.09912 0.76685 0.0
C221 C 0.50078 0.13519 0.80137 0.0
C222 C 0.42294 1.04204 0.81475 0.0
C223 C 0.44731 1.00828 0.77641 0.0
H224 H 0.52009 0.18637 0.80799 0.0
H225 H 0.38351 1.01667 0.83557 0.0
H226 H 0.42899 0.22632 0.75158 0.0
H227 H 0.23688 0.3366 0.76976 0.0
H228 H 0.37155 1.04001 0.00264 0.0
H229 H 0.57554 0.12431 0.7477 0.0
H230 H 0.42114 0.96156 0.76536 0.0
C231 C 0.19367 0.85007 0.8125 0.0
C232 C 0.20379 0.80811 0.77604 0.0
N233 N 0.14805 0.81679 0.74791 0.0
N234 N 0.13258 0.88691 0.80756 0.0
C235 C 0.10578 0.86548 0.7672 0.0
H236 H 0.22941 0.85437 0.84101 0.0
Co237 Co 0.10773 0.94533 0.85678 0.0
C238 C 0.02781 0.82439 0.88095 0.0
O239 O 0.08884 0.79056 0.88383 0.0
N240 N 0.08556 0.99813 0.9062 0.0
C241 C 0.09328 1.05069 0.97211 0.0
C242 C 0.13185 1.02085 0.93775 0.0
C243 C 0.0194 1.01422 0.92176 0.0
N244 N 0.02279 1.04594 0.96176 0.0
O245 O 0.19134 1.00512 0.84424 0.0
H246 H 0.18964 1.0138 0.93661 0.0
H247 H 0.96987 1.00067 0.90482 0.0
O248 O 0.02798 0.88745 0.87077 0.0
C249 C 0.21718 1.02765 0.80728 0.0
O250 O 0.19107 1.00588 0.76891 0.0
N251 N 0.04668 1.00237 0.82133 0.0
C252 C 0.98901 0.07056 0.74959 0.0
C253 C 0.95328 1.01298 0.76686 0.0
C254 C 0.98604 0.97692 0.80137 0.0
C255 C 0.06387 0.07007 0.81474 0.0
C256 C 0.0395 0.10383 0.77641 0.0
H257 H 0.96672 0.92573 0.808 0.0
H258 H 0.1033 0.09544 0.83557 0.0
H259 H 0.05783 0.88578 0.75158 0.0
H260 H 0.24995 0.77551 0.76975 0.0
H261 H 0.11524 0.07213 0.00264 0.0
H262 H 0.91127 0.98779 0.74771 0.0
H263 H 0.06567 0.15055 0.76536 0.0
C264 C 0.69351 0.76212 0.31245 0.0
C265 C 0.70368 0.80396 0.27593 0.0
N266 N 0.64805 0.79502 0.24775 0.0
N267 N 0.63248 0.72518 0.30751 0.0
C268 C 0.60573 0.74644 0.26711 0.0
H269 H 0.72919 0.75797 0.341 0.0
Co270 Co 0.60767 0.66678 0.35675 0.0
C271 C 0.52771 0.78768 0.38094 0.0
O272 O 0.58874 0.8215 0.38387 0.0
N273 N 0.58553 0.61401 0.40618 0.0
C274 C 0.59328 0.56148 0.4721 0.0
C275 C 0.63183 0.59135 0.43774 0.0
C276 C 0.51938 0.59786 0.42174 0.0
N277 N 0.5228 0.56613 0.46173 0.0
O278 O 0.69131 0.60703 0.34423 0.0
H279 H 0.68962 0.59845 0.4366 0.0
H280 H 0.46984 0.61136 0.40479 0.0
O281 O 0.52788 0.72463 0.37071 0.0
C282 C 0.71716 0.58449 0.30727 0.0
O283 O 0.69104 0.60624 0.2689 0.0
N284 N 0.54665 0.60968 0.32131 0.0
C285 C 0.48914 0.54144 0.24952 0.0
C286 C 0.45332 0.59898 0.26681 0.0
C287 C 0.486 0.63507 0.30134 0.0
C288 C 0.56388 0.54199 0.31474 0.0
C289 C 0.53958 0.50821 0.27639 0.0
H290 H 0.46663 0.68624 0.30796 0.0
H291 H 0.60331 0.51665 0.33558 0.0
H292 H 0.55783 0.72605 0.25148 0.0
H293 H 0.74979 0.83662 0.26964 0.0
H294 H 0.61526 0.54007 0.50263 0.0
H295 H 0.4113 0.62413 0.24765 0.0
H296 H 0.5658 0.46151 0.26536 0.0
C297 C 0.79325 0.35006 0.31245 0.0
C298 C 0.78307 0.30822 0.27594 0.0
N299 N 0.8387 0.31714 0.24775 0.0
N300 N 0.85428 0.387 0.30751 0.0
C301 C 0.88104 0.36573 0.2671 0.0
H302 H 0.75757 0.35422 0.34101 0.0
Co303 Co 0.8791 0.44539 0.35674 0.0
C304 C 0.95905 0.3245 0.38094 0.0
O305 O 0.89802 0.29067 0.38387 0.0
N306 N 0.90125 0.49817 0.40618 0.0
C307 C 0.89351 0.55069 0.4721 0.0
C308 C 0.85495 0.52084 0.43775 0.0
C309 C 0.9674 0.5143 0.42174 0.0
N310 N 0.96399 0.54602 0.46173 0.0
O311 O 0.79546 0.50515 0.34423 0.0
H312 H 0.79716 0.51375 0.43661 0.0
H313 H 0.01693 0.50079 0.40478 0.0
O314 O 0.95888 0.38754 0.37071 0.0
C315 C 0.76963 0.52769 0.30727 0.0
O316 O 0.79575 0.50594 0.2689 0.0
N317 N 0.94012 0.50249 0.32131 0.0
C318 C -0.00236 0.57073 0.24952 0.0
C319 C 0.03345 0.51319 0.2668 0.0
C320 C 0.00077 0.47709 0.30133 0.0
C321 C 0.9229 0.57018 0.31475 0.0
C322 C 0.9472 0.60396 0.2764 0.0
H323 H 0.02013 0.42592 0.30795 0.0
H324 H 0.88347 0.59553 0.33559 0.0
H325 H 0.92894 0.38611 0.25147 0.0
H326 H 0.73697 0.27557 0.26965 0.0
H327 H 0.87154 0.5721 0.50264 0.0
H328 H 0.07547 0.48804 0.24764 0.0
H329 H 0.92098 0.65067 0.26537 0.0
C330 C 0.19351 0.35004 0.13791 0.0
C331 C 0.20368 0.30821 0.17443 0.0
N332 N 0.14805 0.31713 0.20262 0.0
N333 N 0.13248 0.38698 0.14285 0.0
C334 C 0.10573 0.36572 0.18326 0.0
H335 H 0.22919 0.3542 0.10936 0.0
Co336 Co 0.10767 0.44538 0.09362 0.0
C337 C 0.02772 0.32448 0.06941 0.0
O338 O 0.08874 0.29065 0.06649 0.0
N339 N 0.08553 0.49816 0.04419 0.0
C340 C 0.09328 0.55068 -0.02173 0.0
C341 C 0.13184 0.52082 0.01263 0.0
C342 C 0.01939 0.51429 0.02863 0.0
N343 N 0.0228 0.54602 -0.01136 0.0
O344 O 0.19131 0.50513 0.10615 0.0
H345 H 0.18962 0.51373 0.01376 0.0
H346 H 0.96985 0.50078 0.04559 0.0
O347 O 0.0279 0.38752 0.07965 0.0
C348 C 0.21715 0.52768 0.14311 0.0
O349 O 0.19102 0.50593 0.18147 0.0
N350 N 0.04664 0.50247 0.12906 0.0
C351 C 0.98899 0.57075 0.20078 0.0
C352 C 0.95322 0.51318 0.18352 0.0
C353 C 0.98597 0.47706 0.14902 0.0
C354 C 0.06387 0.57017 0.13563 0.0
C355 C 0.03951 0.60396 0.17396 0.0
H356 H 0.96663 0.42589 0.1424 0.0
H357 H 0.10332 0.59551 0.1148 0.0
H358 H 0.05782 0.3861 0.19889 0.0
H359 H 0.24979 0.27555 0.18072 0.0
H360 H 0.11526 0.57209 0.94774 0.0
H361 H 0.91119 0.48803 0.20267 0.0
H362 H 0.06571 0.65067 0.185 0.0
C363 C 0.29325 0.7621 0.13791 0.0
C364 C 0.28308 0.80394 0.17443 0.0
N365 N 0.33871 0.79502 0.20262 0.0
N366 N 0.35428 0.72517 0.14285 0.0
C367 C 0.38104 0.74644 0.18326 0.0
H368 H 0.25758 0.75794 0.10936 0.0
Co369 Co 0.3791 0.66677 0.09362 0.0
C370 C 0.45906 0.78766 0.06942 0.0
O371 O 0.39803 0.82149 0.06649 0.0
N372 N 0.40125 0.61398 0.04419 0.0
C373 C 0.39351 0.56145 -0.02173 0.0
C374 C 0.35495 0.59131 0.01263 0.0
C375 C 0.4674 0.59785 0.02863 0.0
N376 N 0.46399 0.56612 -0.01136 0.0
O377 O 0.29546 0.60701 0.10615 0.0
H378 H 0.29716 0.59841 0.01377 0.0
H379 H 0.51693 0.61136 0.04559 0.0
O380 O 0.45888 0.72462 0.07965 0.0
C381 C 0.26962 0.58447 0.14311 0.0
O382 O 0.29574 0.60622 0.18148 0.0
N383 N 0.44013 0.60968 0.12906 0.0
C384 C 0.49778 0.54142 0.20078 0.0
C385 C 0.53355 0.59899 0.18352 0.0
C386 C 0.5008 0.63509 0.14902 0.0
C387 C 0.42291 0.54198 0.13563 0.0
C388 C 0.44726 0.5082 0.17396 0.0
H389 H 0.52014 0.68627 0.1424 0.0
H390 H 0.38345 0.51664 0.11481 0.0
H391 H 0.42894 0.72606 0.19889 0.0
H392 H 0.23697 0.8366 0.18072 0.0
H393 H 0.37154 0.54004 0.94774 0.0
H394 H 0.57558 0.62414 0.20267 0.0
H395 H 0.42107 0.46149 0.18501 0.0
C396 C 0.29328 0.35002 0.63792 0.0
C397 C 0.28311 0.30818 0.67444 0.0
N398 N 0.33874 0.31711 0.70262 0.0
N399 N 0.35431 0.38696 0.64286 0.0
C400 C 0.38107 0.3657 0.68327 0.0
H401 H 0.25761 0.35417 0.60937 0.0
Co402 Co 0.37913 0.44535 0.59363 0.0
C403 C 0.45909 0.32446 0.56943 0.0
O404 O 0.39806 0.29063 0.5665 0.0
N405 N 0.40128 0.49812 0.54419 0.0
C406 C 0.39352 0.55064 0.47827 0.0
C407 C 0.35497 0.5208 0.51263 0.0
C408 C 0.46742 0.51423 0.52861 0.0
N409 N 0.46401 0.54593 0.48861 0.0
O410 O 0.29548 0.5051 0.60614 0.0
H411 H 0.29718 0.51374 0.51379 0.0
H412 H 0.51696 0.50071 0.54556 0.0
O413 O 0.45891 0.3875 0.57966 0.0
C414 C 0.26964 0.52765 0.6431 0.0
O415 O 0.29576 0.5059 0.68147 0.0
N416 N 0.44014 0.50246 0.62906 0.0
C417 C 0.49766 0.5707 0.70085 0.0
C418 C 0.53347 0.51316 0.68357 0.0
C419 C 0.5008 0.47706 0.64904 0.0
C420 C 0.42291 0.57015 0.63563 0.0
C421 C 0.44721 0.60392 0.67398 0.0
H422 H 0.52017 0.4259 0.64241 0.0
H423 H 0.38348 0.59549 0.61479 0.0
H424 H 0.42897 0.38608 0.69889 0.0
H425 H 0.23701 0.27552 0.68073 0.0
H426 H 0.37154 0.57206 0.44774 0.0
H427 H 0.57549 0.48801 0.70273 0.0
H428 H 0.42099 0.65063 0.68501 0.0
C429 C 0.19355 0.76206 0.63792 0.0
C430 C 0.20372 0.8039 0.67443 0.0
N431 N 0.14809 0.79499 0.70262 0.0
N432 N 0.13251 0.72513 0.64286 0.0
C433 C 0.10576 0.7464 0.68327 0.0
H434 H 0.22922 0.7579 0.60936 0.0
Co435 Co 0.10769 0.66674 0.59363 0.0
C436 C 0.02774 0.78763 0.56943 0.0
O437 O 0.08877 0.82146 0.5665 0.0
N438 N 0.08554 0.61397 0.54419 0.0
C439 C 0.09328 0.56146 0.47826 0.0
C440 C 0.13184 0.59128 0.51263 0.0
C441 C 0.01939 0.59788 0.52862 0.0
N442 N 0.02279 0.56619 0.48861 0.0
O443 O 0.19133 0.60698 0.60614 0.0
H444 H 0.18963 0.59833 0.51378 0.0
H445 H 0.96985 0.61141 0.54557 0.0
O446 O 0.02791 0.72459 0.57967 0.0
C447 C 0.21716 0.58444 0.6431 0.0
O448 O 0.19104 0.60619 0.68147 0.0
N449 N 0.04667 0.60964 0.62906 0.0
C450 C 0.98915 0.5414 0.70085 0.0
C451 C 0.95334 0.59894 0.68357 0.0
C452 C 0.98602 0.63504 0.64904 0.0
C453 C 0.06389 0.54194 0.63562 0.0
C454 C 0.03959 0.50817 0.67397 0.0
H455 H 0.96666 0.6862 0.64243 0.0
H456 H 0.10332 0.5166 0.61478 0.0
H457 H 0.05785 0.72603 0.6989 0.0
H458 H 0.24983 0.83656 0.68073 0.0
H459 H 0.11525 0.54004 0.44773 0.0
H460 H 0.91132 0.62409 0.70274 0.0
H461 H 0.06581 0.46146 0.685 0.0
C462 C 0.79328 0.76208 0.81246 0.0
C463 C 0.78311 0.80392 0.77594 0.0
N464 N 0.83874 0.795 0.74775 0.0
N465 N 0.85431 0.72515 0.80752 0.0
C466 C 0.88107 0.74641 0.76711 0.0
H467 H 0.7576 0.75792 0.84101 0.0
Co468 Co 0.87913 0.66675 0.85675 0.0
C469 C 0.95908 0.78765 0.88095 0.0
O470 O 0.89805 0.82148 0.88388 0.0
N471 N 0.90127 0.61398 0.90618 0.0
C472 C 0.89352 0.56147 0.9721 0.0
C473 C 0.85496 0.59129 0.93774 0.0
C474 C 0.96742 0.59789 0.92175 0.0
N475 N 0.96401 0.56619 0.96176 0.0
O476 O 0.79549 0.60699 0.84422 0.0
H477 H 0.79717 0.59835 0.93659 0.0
H478 H 0.01696 0.61142 0.90481 0.0
O479 O 0.9589 0.72461 0.87072 0.0
C480 C 0.76965 0.58445 0.80727 0.0
O481 O 0.79578 0.6062 0.7689 0.0
N482 N 0.94016 0.60965 0.82131 0.0
C483 C -0.0022 0.54138 0.74959 0.0
C484 C 0.03357 0.59895 0.76685 0.0
C485 C 0.00083 0.63506 0.80135 0.0
C486 C 0.92293 0.54196 0.81474 0.0
C487 C 0.94729 0.50817 0.77641 0.0
H488 H 0.02017 0.68624 0.80796 0.0
H489 H 0.88348 0.51662 0.83557 0.0
H490 H 0.92898 0.72603 0.75148 0.0
H491 H 0.737 0.83658 0.76965 0.0
H492 H 0.87154 0.54005 0.00264 0.0
H493 H 0.07561 0.6241 0.7477 0.0
H494 H 0.92109 0.46146 0.76537 0.0
C495 C 0.69354 0.35004 0.81246 0.0
C496 C 0.70372 0.30819 0.77594 0.0
N497 N 0.64809 0.31711 0.74775 0.0
N498 N 0.63251 0.38697 0.80752 0.0
C499 C 0.60575 0.3657 0.76711 0.0
H500 H 0.72922 0.3542 0.84101 0.0
Co501 Co 0.60769 0.44537 0.85675 0.0
C502 C 0.52774 0.32447 0.88095 0.0
O503 O 0.58876 0.29064 0.88388 0.0
N504 N 0.58554 0.49815 0.90618 0.0
C505 C 0.59328 0.55067 0.9721 0.0
C506 C 0.63183 0.52084 0.93774 0.0
C507 C 0.51939 0.51424 0.92175 0.0
N508 N 0.52279 0.54594 0.96176 0.0
O509 O 0.69132 0.50513 0.84422 0.0
H510 H 0.68963 0.51378 0.93658 0.0
H511 H 0.46985 0.50071 0.90481 0.0
O512 O 0.52791 0.38751 0.87072 0.0
C513 C 0.71717 0.52766 0.80726 0.0
O514 O 0.69105 0.50591 0.76889 0.0
N515 N 0.54666 0.50246 0.82131 0.0
C516 C 0.48901 0.57072 0.74959 0.0
C517 C 0.45324 0.51315 0.76685 0.0
C518 C 0.48599 0.47704 0.80135 0.0
C519 C 0.56388 0.57015 0.81474 0.0
C520 C 0.53953 0.60394 0.77641 0.0
H521 H 0.46665 0.42587 0.80797 0.0
H522 H 0.60334 0.59549 0.83556 0.0
H523 H 0.55785 0.38607 0.75148 0.0
H524 H 0.74983 0.27554 0.76965 0.0
H525 H 0.61525 0.57209 0.00264 0.0
H526 H 0.41121 0.488 0.7477 0.0
H527 H 0.56573 0.65065 0.76537 0.0
loop_
_geom_bond_atom_site_label_1
_geom_bond_atom_site_label_2
_geom_bond_distance
_geom_bond_site_symmetry_2
_ccdc_geom_bond_type
C0 C1 1.351 . S
C0 N3 1.368 . S
C0 H5 0.931 . S
C1 C0 1.351 . S
C1 N2 1.373 . S
C1 H29 0.930 . S
N2 C1 1.373 . S
N2 C4 1.340 . S
N3 C0 1.368 . S
N3 C4 1.321 . S
N3 Co6 2.135 . S
C4 N2 1.340 . S
C4 N3 1.321 . S
C4 H28 0.930 . S
H5 C0 0.931 . S
Co6 N3 2.135 . S
Co6 N9 2.121 . S
Co6 O14 2.055 . S
Co6 O17 2.039 . S
Co6 N20 2.140 . S
C7 O8 1.227 . S
C7 O17 1.265 . S
O8 C7 1.227 . S
N9 Co6 2.121 . S
N9 C11 1.375 . S
N9 C12 1.313 . S
C10 C11 1.338 1_655 S
C10 N13 1.377 1_655 S
C10 H30 0.930 . S
C11 N9 1.375 . S
C11 C10 1.338 1_455 S
C11 H15 0.931 1_455 S
C12 N9 1.313 . S
C12 N13 1.344 . S
C12 H16 0.930 . S
N13 C10 1.377 1_455 S
N13 C12 1.344 . S
O14 Co6 2.055 . S
O14 C18 1.253 . S
H15 C11 0.931 1_655 S
H16 C12 0.930 . S
O17 Co6 2.039 . S
O17 C7 1.265 . S
C18 O14 1.253 . S
C18 O19 1.227 . S
O19 C18 1.227 . S
N20 Co6 2.140 . S
N20 C23 1.346 . S
N20 C24 1.345 . S
C21 C22 1.387 1_655 S
C21 C25 1.391 1_655 S
C22 C21 1.387 1_455 S
C22 C23 1.369 . S
C22 H31 0.929 1_455 S
C23 N20 1.346 . S
C23 C22 1.369 . S
C23 H26 0.928 . S
C24 N20 1.345 . S
C24 C25 1.371 . S
C24 H27 0.931 . S
C25 C21 1.391 1_455 S
C25 C24 1.371 . S
C25 H32 0.930 1_445 S
H26 C23 0.928 . S
H27 C24 0.931 . S
H28 C4 0.930 . S
H29 C1 0.930 . S
H30 C10 0.930 . S
H31 C22 0.929 1_655 S
H32 C25 0.930 1_665 S
C33 C34 1.351 . S
C33 N36 1.368 . S
C33 H38 0.931 . S
C34 C33 1.351 . S
C34 N35 1.373 . S
C34 H62 0.930 . S
N35 C34 1.373 . S
N35 C37 1.340 . S
N36 C33 1.368 . S
N36 C37 1.321 . S
N36 Co39 2.135 . S
C37 N35 1.340 . S
C37 N36 1.321 . S
C37 H61 0.930 . S
H38 C33 0.931 . S
Co39 N36 2.135 . S
Co39 N42 2.121 . S
Co39 O47 2.055 . S
Co39 O50 2.039 . S
Co39 N53 2.140 . S
C40 O41 1.227 . S
C40 O50 1.265 . S
O41 C40 1.227 . S
N42 Co39 2.121 . S
N42 C44 1.375 . S
N42 C45 1.313 . S
C43 C44 1.338 . S
C43 N46 1.377 . S
C43 H63 0.930 . S
C44 N42 1.375 . S
C44 C43 1.338 . S
C44 H48 0.931 . S
C45 N42 1.313 . S
C45 N46 1.344 . S
C45 H49 0.930 . S
N46 C43 1.377 . S
N46 C45 1.344 . S
O47 Co39 2.055 . S
O47 C51 1.253 . S
H48 C44 0.931 . S
H49 C45 0.930 . S
O50 Co39 2.039 . S
O50 C40 1.265 . S
C51 O47 1.253 . S
C51 O52 1.227 . S
O52 C51 1.227 . S
N53 Co39 2.140 . S
N53 C56 1.346 . S
N53 C57 1.345 . S
C54 C55 1.387 . S
C54 C58 1.391 . S
C55 C54 1.387 . S
C55 C56 1.369 . S
C55 H64 0.929 . S
C56 N53 1.346 . S
C56 C55 1.369 . S
C56 H59 0.928 . S
C57 N53 1.345 . S
C57 C58 1.371 . S
C57 H60 0.931 . S
C58 C54 1.391 . S
C58 C57 1.371 . S
C58 H65 0.930 1_565 S
H59 C56 0.928 . S
H60 C57 0.931 . S
H61 C37 0.930 . S
H62 C34 0.930 . S
H63 C43 0.930 . S
H64 C55 0.929 . S
H65 C58 0.930 1_545 S
C66 C67 1.351 . S
C66 N69 1.368 . S
C66 H71 0.931 . S
C67 C66 1.351 . S
C67 N68 1.373 . S
C67 H95 0.930 . S
N68 C67 1.373 . S
N68 C70 1.340 . S
N69 C66 1.368 . S
N69 C70 1.321 . S
N69 Co72 2.135 . S
C70 N68 1.340 . S
C70 N69 1.321 . S
C70 H94 0.930 . S
H71 C66 0.931 . S
Co72 N69 2.135 . S
Co72 N75 2.121 . S
Co72 O80 2.055 . S
Co72 O83 2.039 . S
Co72 N86 2.140 . S
C73 O74 1.227 . S
C73 O83 1.265 . S
O74 C73 1.227 . S
N75 Co72 2.121 . S
N75 C77 1.375 . S
N75 C78 1.313 . S
C76 C77 1.338 . S
C76 N79 1.377 . S
C76 H96 0.930 . S
C77 N75 1.375 . S
C77 C76 1.338 . S
C77 H81 0.931 . S
C78 N75 1.313 . S
C78 N79 1.344 . S
C78 H82 0.930 . S
N79 C76 1.377 . S
N79 C78 1.344 . S
O80 Co72 2.055 . S
O80 C84 1.253 . S
H81 C77 0.931 . S
H82 C78 0.930 . S
O83 Co72 2.039 . S
O83 C73 1.265 . S
C84 O80 1.253 . S
C84 O85 1.227 . S
O85 C84 1.227 . S
N86 Co72 2.140 . S
N86 C89 1.346 . S
N86 C90 1.345 . S
C87 C88 1.387 . S
C87 C91 1.391 . S
C88 C87 1.387 . S
C88 C89 1.369 . S
C88 H97 0.929 . S
C89 N86 1.346 . S
C89 C88 1.369 . S
C89 H92 0.928 . S
C90 N86 1.345 . S
C90 C91 1.371 . S
C90 H93 0.931 . S
C91 C87 1.391 . S
C91 C90 1.371 . S
C91 H98 0.930 1_565 S
H92 C89 0.928 . S
H93 C90 0.931 . S
H94 C70 0.930 . S
H95 C67 0.930 . S
H96 C76 0.930 . S
H97 C88 0.929 . S
H98 C91 0.930 1_545 S
C99 C100 1.351 . S
C99 N102 1.368 . S
C99 H104 0.931 . S
C100 C99 1.351 . S
C100 N101 1.373 . S
C100 H128 0.930 . S
N101 C100 1.373 . S
N101 C103 1.340 . S
N102 C99 1.368 . S
N102 C103 1.321 . S
N102 Co105 2.135 . S
C103 N101 1.340 . S
C103 N102 1.321 . S
C103 H127 0.930 . S
H104 C99 0.931 . S
Co105 N102 2.135 . S
Co105 N108 2.121 . S
Co105 O113 2.055 . S
Co105 O116 2.039 . S
Co105 N119 2.140 . S
C106 O107 1.227 . S
C106 O116 1.265 . S
O107 C106 1.227 . S
N108 Co105 2.121 . S
N108 C110 1.375 . S
N108 C111 1.313 . S
C109 C110 1.338 1_455 S
C109 N112 1.377 1_455 S
C109 H129 0.930 . S
C110 N108 1.375 . S
C110 C109 1.338 1_655 S
C110 H114 0.931 1_655 S
C111 N108 1.313 . S
C111 N112 1.344 . S
C111 H115 0.930 . S
N112 C109 1.377 1_655 S
N112 C111 1.344 . S
O113 Co105 2.055 . S
O113 C117 1.253 . S
H114 C110 0.931 1_455 S
H115 C111 0.930 . S
O116 Co105 2.039 . S
O116 C106 1.265 . S
C117 O113 1.253 . S
C117 O118 1.227 . S
O118 C117 1.227 . S
N119 Co105 2.140 . S
N119 C122 1.346 . S
N119 C123 1.345 . S
C120 C121 1.387 1_455 S
C120 C124 1.391 1_455 S
C121 C120 1.387 1_655 S
C121 C122 1.369 . S
C121 H130 0.929 1_655 S
C122 N119 1.346 . S
C122 C121 1.369 . S
C122 H125 0.928 . S
C123 N119 1.345 . S
C123 C124 1.371 . S
C123 H126 0.931 . S
C124 C120 1.391 1_655 S
C124 C123 1.371 . S
C124 H131 0.930 1_645 S
H125 C122 0.928 . S
H126 C123 0.931 . S
H127 C103 0.930 . S
H128 C100 0.930 . S
H129 C109 0.930 . S
H130 C121 0.929 1_455 S
H131 C124 0.930 1_465 S
C132 C133 1.351 . S
C132 N135 1.368 . S
C132 H137 0.931 . S
C133 C132 1.351 . S
C133 N134 1.373 . S
C133 H161 0.930 . S
N134 C133 1.373 . S
N134 C136 1.340 . S
N135 C132 1.368 . S
N135 C136 1.321 . S
N135 Co138 2.135 . S
C136 N134 1.340 . S
C136 N135 1.321 . S
C136 H160 0.930 . S
H137 C132 0.931 . S
Co138 N135 2.135 . S
Co138 N141 2.121 . S
Co138 O146 2.055 . S
Co138 O149 2.039 . S
Co138 N152 2.140 . S
C139 O140 1.227 . S
C139 O149 1.265 . S
O140 C139 1.227 . S
N141 Co138 2.121 . S
N141 C143 1.375 . S
N141 C144 1.313 . S
C142 C143 1.338 1_455 S
C142 N145 1.377 1_455 S
C142 H162 0.930 . S
C143 N141 1.375 . S
C143 C142 1.338 1_655 S
C143 H147 0.931 1_655 S
C144 N141 1.313 . S
C144 N145 1.344 . S
C144 H148 0.930 . S
N145 C142 1.377 1_655 S
N145 C144 1.344 . S
O146 Co138 2.055 . S
O146 C150 1.253 . S
H147 C143 0.931 1_455 S
H148 C144 0.930 . S
O149 Co138 2.039 . S
O149 C139 1.265 . S
C150 O146 1.253 . S
C150 O151 1.227 . S
O151 C150 1.227 . S
N152 Co138 2.140 . S
N152 C155 1.346 . S
N152 C156 1.345 . S
C153 C154 1.387 1_455 S
C153 C157 1.391 1_455 S
C154 C153 1.387 1_655 S
C154 C155 1.369 . S
C154 H163 0.929 1_655 S
C155 N152 1.346 . S
C155 C154 1.369 . S
C155 H158 0.928 . S
C156 N152 1.345 . S
C156 C157 1.371 . S
C156 H159 0.931 . S
C157 C153 1.391 1_655 S
C157 C156 1.371 . S
C157 H164 0.930 1_665 S
H158 C155 0.928 . S
H159 C156 0.931 . S
H160 C136 0.930 . S
H161 C133 0.930 . S
H162 C142 0.930 . S
H163 C154 0.929 1_455 S
H164 C157 0.930 1_445 S
C165 C166 1.351 . S
C165 N168 1.368 . S
C165 H170 0.931 . S
C166 C165 1.351 . S
C166 N167 1.373 . S
C166 H194 0.930 . S
N167 C166 1.373 . S
N167 C169 1.340 . S
N168 C165 1.368 . S
N168 C169 1.321 . S
N168 Co171 2.135 . S
C169 N167 1.340 . S
C169 N168 1.321 . S
C169 H193 0.930 . S
H170 C165 0.931 . S
Co171 N168 2.135 . S
Co171 N174 2.121 . S
Co171 O179 2.055 . S
Co171 O182 2.039 . S
Co171 N185 2.140 . S
C172 O173 1.227 . S
C172 O182 1.265 . S
O173 C172 1.227 . S
N174 Co171 2.121 . S
N174 C176 1.375 . S
N174 C177 1.313 . S
C175 C176 1.338 . S
C175 N178 1.377 . S
C175 H195 0.930 . S
C176 N174 1.375 . S
C176 C175 1.338 . S
C176 H180 0.931 . S
C177 N174 1.313 . S
C177 N178 1.344 . S
C177 H181 0.930 . S
N178 C175 1.377 . S
N178 C177 1.344 . S
O179 Co171 2.055 . S
O179 C183 1.253 . S
H180 C176 0.931 . S
H181 C177 0.930 . S
O182 Co171 2.039 . S
O182 C172 1.265 . S
C183 O179 1.253 . S
C183 O184 1.227 . S
O184 C183 1.227 . S
N185 Co171 2.140 . S
N185 C188 1.346 . S
N185 C189 1.345 . S
C186 C187 1.387 . S
C186 C190 1.391 . S
C187 C186 1.387 . S
C187 C188 1.369 . S
C187 H196 0.929 . S
C188 N185 1.346 . S
C188 C187 1.369 . S
C188 H191 0.928 . S
C189 N185 1.345 . S
C189 C190 1.371 . S
C189 H192 0.931 . S
C190 C186 1.391 . S
C190 C189 1.371 . S
C190 H197 0.930 1_545 S
H191 C188 0.928 . S
H192 C189 0.931 . S
H193 C169 0.930 . S
H194 C166 0.930 . S
H195 C175 0.930 . S
H196 C187 0.929 . S
H197 C190 0.930 1_565 S
C198 C199 1.351 . S
C198 N201 1.368 . S
C198 H203 0.931 . S
C199 C198 1.351 . S
C199 N200 1.373 . S
C199 H227 0.930 . S
N200 C199 1.373 . S
N200 C202 1.340 . S
N201 C198 1.368 . S
N201 C202 1.321 . S
N201 Co204 2.135 . S
C202 N200 1.340 . S
C202 N201 1.321 . S
C202 H226 0.930 . S
H203 C198 0.931 . S
Co204 N201 2.135 . S
Co204 N207 2.121 . S
Co204 O212 2.055 . S
Co204 O215 2.039 . S
Co204 N218 2.140 . S
C205 O206 1.227 . S
C205 O215 1.265 . S
O206 C205 1.227 . S
N207 Co204 2.121 . S
N207 C209 1.375 . S
N207 C210 1.313 . S
C208 C209 1.338 . S
C208 N211 1.377 . S
C208 H228 0.930 . S
C209 N207 1.375 . S
C209 C208 1.338 . S
C209 H213 0.931 . S
C210 N207 1.313 . S
C210 N211 1.344 . S
C210 H214 0.930 . S
N211 C208 1.377 . S
N211 C210 1.344 . S
O212 Co204 2.055 . S
O212 C216 1.253 . S
H213 C209 0.931 . S
H214 C210 0.930 . S
O215 Co204 2.039 . S
O215 C205 1.265 . S
C216 O212 1.253 . S
C216 O217 1.227 . S
O217 C216 1.227 . S
N218 Co204 2.140 . S
N218 C221 1.346 . S
N218 C222 1.345 . S
C219 C220 1.387 . S
C219 C223 1.391 . S
C220 C219 1.387 . S
C220 C221 1.369 . S
C220 H229 0.929 . S
C221 N218 1.346 . S
C221 C220 1.369 . S
C221 H224 0.928 . S
C222 N218 1.345 . S
C222 C223 1.371 . S
C222 H225 0.931 . S
C223 C219 1.391 . S
C223 C222 1.371 . S
C223 H230 0.930 1_545 S
H224 C221 0.928 . S
H225 C222 0.931 . S
H226 C202 0.930 . S
H227 C199 0.930 . S
H228 C208 0.930 . S
H229 C220 0.929 . S
H230 C223 0.930 1_565 S
C231 C232 1.351 . S
C231 N234 1.368 . S
C231 H236 0.931 . S
C232 C231 1.351 . S
C232 N233 1.373 . S
C232 H260 0.930 . S
N233 C232 1.373 . S
N233 C235 1.340 . S
N234 C231 1.368 . S
N234 C235 1.321 . S
N234 Co237 2.135 . S
C235 N233 1.340 . S
C235 N234 1.321 . S
C235 H259 0.930 . S
H236 C231 0.931 . S
Co237 N234 2.135 . S
Co237 N240 2.121 . S
Co237 O245 2.055 . S
Co237 O248 2.039 . S
Co237 N251 2.140 . S
C238 O239 1.227 . S
C238 O248 1.265 . S
O239 C238 1.227 . S
N240 Co237 2.121 . S
N240 C242 1.375 . S
N240 C243 1.313 . S
C241 C242 1.338 1_655 S
C241 N244 1.377 1_655 S
C241 H261 0.930 . S
C242 N240 1.375 . S
C242 C241 1.338 1_455 S
C242 H246 0.931 1_455 S
C243 N240 1.313 . S
C243 N244 1.344 . S
C243 H247 0.930 . S
N244 C241 1.377 1_455 S
N244 C243 1.344 . S
O245 Co237 2.055 . S
O245 C249 1.253 . S
H246 C242 0.931 1_655 S
H247 C243 0.930 . S
O248 Co237 2.039 . S
O248 C238 1.265 . S
C249 O245 1.253 . S
C249 O250 1.227 . S
O250 C249 1.227 . S
N251 Co237 2.140 . S
N251 C254 1.346 . S
N251 C255 1.345 . S
C252 C253 1.387 1_655 S
C252 C256 1.391 1_655 S
C253 C252 1.387 1_455 S
C253 C254 1.369 . S
C253 H262 0.929 1_455 S
C254 N251 1.346 . S
C254 C253 1.369 . S
C254 H257 0.928 . S
C255 N251 1.345 . S
C255 C256 1.371 . S
C255 H258 0.931 . S
C256 C252 1.391 1_455 S
C256 C255 1.371 . S
C256 H263 0.930 1_465 S
H257 C254 0.928 . S
H258 C255 0.931 . S
H259 C235 0.930 . S
H260 C232 0.930 . S
H261 C241 0.930 . S
H262 C253 0.929 1_655 S
H263 C256 0.930 1_645 S
C264 C265 1.351 . S
C264 N267 1.368 . S
C264 H269 0.931 . S
C265 C264 1.351 . S
C265 N266 1.373 . S
C265 H293 0.930 . S
N266 C265 1.373 . S
N266 C268 1.340 . S
N267 C264 1.368 . S
N267 C268 1.321 . S
N267 Co270 2.135 . S
C268 N266 1.340 . S
C268 N267 1.321 . S
C268 H292 0.930 . S
H269 C264 0.931 . S
Co270 N267 2.135 . S
Co270 N273 2.121 . S
Co270 O278 2.055 . S
Co270 O281 2.039 . S
Co270 N284 2.140 . S
C271 O272 1.227 . S
C271 O281 1.265 . S
O272 C271 1.227 . S
N273 Co270 2.121 . S
N273 C275 1.375 . S
N273 C276 1.313 . S
C274 C275 1.338 . S
C274 N277 1.377 . S
C274 H294 0.930 . S
C275 N273 1.375 . S
C275 C274 1.338 . S
C275 H279 0.931 . S
C276 N273 1.313 . S
C276 N277 1.344 . S
C276 H280 0.930 . S
N277 C274 1.377 . S
N277 C276 1.344 . S
O278 Co270 2.055 . S
O278 C282 1.253 . S
H279 C275 0.931 . S
H280 C276 0.930 . S
O281 Co270 2.039 . S
O281 C271 1.265 . S
C282 O278 1.253 . S
C282 O283 1.227 . S
O283 C282 1.227 . S
N284 Co270 2.140 . S
N284 C287 1.346 . S
N284 C288 1.345 . S
C285 C286 1.387 . S
C285 C289 1.391 . S
C286 C285 1.387 . S
C286 C287 1.369 . S
C286 H295 0.929 . S
C287 N284 1.346 . S
C287 C286 1.369 . S
C287 H290 0.928 . S
C288 N284 1.345 . S
C288 C289 1.371 . S
C288 H291 0.931 . S
C289 C285 1.391 . S
C289 C288 1.371 . S
C289 H296 0.930 . S
H290 C287 0.928 . S
H291 C288 0.931 . S
H292 C268 0.930 . S
H293 C265 0.930 . S
H294 C274 0.930 . S
H295 C286 0.929 . S
H296 C289 0.930 . S
C297 C298 1.351 . S
C297 N300 1.368 . S
C297 H302 0.931 . S
C298 C297 1.351 . S
C298 N299 1.373 . S
C298 H326 0.930 . S
N299 C298 1.373 . S
N299 C301 1.340 . S
N300 C297 1.368 . S
N300 C301 1.321 . S
N300 Co303 2.135 . S
C301 N299 1.340 . S
C301 N300 1.321 . S
C301 H325 0.930 . S
H302 C297 0.931 . S
Co303 N300 2.135 . S
Co303 N306 2.121 . S
Co303 O311 2.055 . S
Co303 O314 2.039 . S
Co303 N317 2.140 . S
C304 O305 1.227 . S
C304 O314 1.265 . S
O305 C304 1.227 . S
N306 Co303 2.121 . S
N306 C308 1.375 . S
N306 C309 1.313 . S
C307 C308 1.338 1_455 S
C307 N310 1.377 1_455 S
C307 H327 0.930 . S
C308 N306 1.375 . S
C308 C307 1.338 1_655 S
C308 H312 0.931 1_655 S
C309 N306 1.313 . S
C309 N310 1.344 . S
C309 H313 0.930 . S
N310 C307 1.377 1_655 S
N310 C309 1.344 . S
O311 Co303 2.055 . S
O311 C315 1.253 . S
H312 C308 0.931 1_455 S
H313 C309 0.930 . S
O314 Co303 2.039 . S
O314 C304 1.265 . S
C315 O311 1.253 . S
C315 O316 1.227 . S
O316 C315 1.227 . S
N317 Co303 2.140 . S
N317 C320 1.346 . S
N317 C321 1.345 . S
C318 C319 1.387 1_455 S
C318 C322 1.391 1_455 S
C319 C318 1.387 1_655 S
C319 C320 1.369 . S
C319 H328 0.929 1_655 S
C320 N317 1.346 . S
C320 C319 1.369 . S
C320 H323 0.928 . S
C321 N317 1.345 . S
C321 C322 1.371 . S
C321 H324 0.931 . S
C322 C318 1.391 1_655 S
C322 C321 1.371 . S
C322 H329 0.930 1_655 S
H323 C320 0.928 . S
H324 C321 0.931 . S
H325 C301 0.930 . S
H326 C298 0.930 . S
H327 C307 0.930 . S
H328 C319 0.929 1_455 S
H329 C322 0.930 1_455 S
C330 C331 1.351 . S
C330 N333 1.368 . S
C330 H335 0.931 . S
C331 C330 1.351 . S
C331 N332 1.373 . S
C331 H359 0.930 . S
N332 C331 1.373 . S
N332 C334 1.340 . S
N333 C330 1.368 . S
N333 C334 1.321 . S
N333 Co336 2.135 . S
C334 N332 1.340 . S
C334 N333 1.321 . S
C334 H358 0.930 . S
H335 C330 0.931 . S
Co336 N333 2.135 . S
Co336 N339 2.121 . S
Co336 O344 2.055 . S
Co336 O347 2.039 . S
Co336 N350 2.140 . S
C337 O338 1.227 . S
C337 O347 1.265 . S
O338 C337 1.227 . S
N339 Co336 2.121 . S
N339 C341 1.375 . S
N339 C342 1.313 . S
C340 C341 1.338 1_655 S
C340 N343 1.377 1_655 S
C340 H360 0.930 . S
C341 N339 1.375 . S
C341 C340 1.338 1_455 S
C341 H345 0.931 1_455 S
C342 N339 1.313 . S
C342 N343 1.344 . S
C342 H346 0.930 . S
N343 C340 1.377 1_455 S
N343 C342 1.344 . S
O344 Co336 2.055 . S
O344 C348 1.253 . S
H345 C341 0.931 1_655 S
H346 C342 0.930 . S
O347 Co336 2.039 . S
O347 C337 1.265 . S
C348 O344 1.253 . S
C348 O349 1.227 . S
O349 C348 1.227 . S
N350 Co336 2.140 . S
N350 C353 1.346 . S
N350 C354 1.345 . S
C351 C352 1.387 1_655 S
C351 C355 1.391 1_655 S
C352 C351 1.387 1_455 S
C352 C353 1.369 . S
C352 H361 0.929 1_455 S
C353 N350 1.346 . S
C353 C352 1.369 . S
C353 H356 0.928 . S
C354 N350 1.345 . S
C354 C355 1.371 . S
C354 H357 0.931 . S
C355 C351 1.391 1_455 S
C355 C354 1.371 . S
C355 H362 0.930 1_455 S
H356 C353 0.928 . S
H357 C354 0.931 . S
H358 C334 0.930 . S
H359 C331 0.930 . S
H360 C340 0.930 . S
H361 C352 0.929 1_655 S
H362 C355 0.930 1_655 S
C363 C364 1.351 . S
C363 N366 1.368 . S
C363 H368 0.931 . S
C364 C363 1.351 . S
C364 N365 1.373 . S
C364 H392 0.930 . S
N365 C364 1.373 . S
N365 C367 1.340 . S
N366 C363 1.368 . S
N366 C367 1.321 . S
N366 Co369 2.135 . S
C367 N365 1.340 . S
C367 N366 1.321 . S
C367 H391 0.930 . S
H368 C363 0.931 . S
Co369 N366 2.135 . S
Co369 N372 2.121 . S
Co369 O377 2.055 . S
Co369 O380 2.039 . S
Co369 N383 2.140 . S
C370 O371 1.227 . S
C370 O380 1.265 . S
O371 C370 1.227 . S
N372 Co369 2.121 . S
N372 C374 1.375 . S
N372 C375 1.313 . S
C373 C374 1.338 . S
C373 N376 1.377 . S
C373 H393 0.930 . S
C374 N372 1.375 . S
C374 C373 1.338 . S
C374 H378 0.931 . S
C375 N372 1.313 . S
C375 N376 1.344 . S
C375 H379 0.930 . S
N376 C373 1.377 . S
N376 C375 1.344 . S
O377 Co369 2.055 . S
O377 C381 1.253 . S
H378 C374 0.931 . S
H379 C375 0.930 . S
O380 Co369 2.039 . S
O380 C370 1.265 . S
C381 O377 1.253 . S
C381 O382 1.227 . S
O382 C381 1.227 . S
N383 Co369 2.140 . S
N383 C386 1.346 . S
N383 C387 1.345 . S
C384 C385 1.387 . S
C384 C388 1.391 . S
C385 C384 1.387 . S
C385 C386 1.369 . S
C385 H394 0.929 . S
C386 N383 1.346 . S
C386 C385 1.369 . S
C386 H389 0.928 . S
C387 N383 1.345 . S
C387 C388 1.371 . S
C387 H390 0.931 . S
C388 C384 1.391 . S
C388 C387 1.371 . S
C388 H395 0.930 . S
H389 C386 0.928 . S
H390 C387 0.931 . S
H391 C367 0.930 . S
H392 C364 0.930 . S
H393 C373 0.930 . S
H394 C385 0.929 . S
H395 C388 0.930 . S
C396 C397 1.351 . S
C396 N399 1.368 . S
C396 H401 0.931 . S
C397 C396 1.351 . S
C397 N398 1.373 . S
C397 H425 0.930 . S
N398 C397 1.373 . S
N398 C400 1.340 . S
N399 C396 1.368 . S
N399 C400 1.321 . S
N399 Co402 2.135 . S
C400 N398 1.340 . S
C400 N399 1.321 . S
C400 H424 0.930 . S
H401 C396 0.931 . S
Co402 N399 2.135 . S
Co402 N405 2.121 . S
Co402 O410 2.055 . S
Co402 O413 2.039 . S
Co402 N416 2.140 . S
C403 O404 1.227 . S
C403 O413 1.265 . S
O404 C403 1.227 . S
N405 Co402 2.121 . S
N405 C407 1.375 . S
N405 C408 1.313 . S
C406 C407 1.338 . S
C406 N409 1.377 . S
C406 H426 0.930 . S
C407 N405 1.375 . S
C407 C406 1.338 . S
C407 H411 0.931 . S
C408 N405 1.313 . S
C408 N409 1.344 . S
C408 H412 0.930 . S
N409 C406 1.377 . S
N409 C408 1.344 . S
O410 Co402 2.055 . S
O410 C414 1.253 . S
H411 C407 0.931 . S
H412 C408 0.930 . S
O413 Co402 2.039 . S
O413 C403 1.265 . S
C414 O410 1.253 . S
C414 O415 1.227 . S
O415 C414 1.227 . S
N416 Co402 2.140 . S
N416 C419 1.346 . S
N416 C420 1.345 . S
C417 C418 1.387 . S
C417 C421 1.391 . S
C418 C417 1.387 . S
C418 C419 1.369 . S
C418 H427 0.929 . S
C419 N416 1.346 . S
C419 C418 1.369 . S
C419 H422 0.928 . S
C420 N416 1.345 . S
C420 C421 1.371 . S
C420 H423 0.931 . S
C421 C417 1.391 . S
C421 C420 1.371 . S
C421 H428 0.930 . S
H422 C419 0.928 . S
H423 C420 0.931 . S
H424 C400 0.930 . S
H425 C397 0.930 . S
H426 C406 0.930 . S
H427 C418 0.929 . S
H428 C421 0.930 . S
C429 C430 1.351 . S
C429 N432 1.368 . S
C429 H434 0.931 . S
C430 C429 1.351 . S
C430 N431 1.373 . S
C430 H458 0.930 . S
N431 C430 1.373 . S
N431 C433 1.340 . S
N432 C429 1.368 . S
N432 C433 1.321 . S
N432 Co435 2.135 . S
C433 N431 1.340 . S
C433 N432 1.321 . S
C433 H457 0.930 . S
H434 C429 0.931 . S
Co435 N432 2.135 . S
Co435 N438 2.121 . S
Co435 O443 2.055 . S
Co435 O446 2.039 . S
Co435 N449 2.140 . S
C436 O437 1.227 . S
C436 O446 1.265 . S
O437 C436 1.227 . S
N438 Co435 2.121 . S
N438 C440 1.375 . S
N438 C441 1.313 . S
C439 C440 1.338 1_655 S
C439 N442 1.377 1_655 S
C439 H459 0.930 . S
C440 N438 1.375 . S
C440 C439 1.338 1_455 S
C440 H444 0.931 1_455 S
C441 N438 1.313 . S
C441 N442 1.344 . S
C441 H445 0.930 . S
N442 C439 1.377 1_455 S
N442 C441 1.344 . S
O443 Co435 2.055 . S
O443 C447 1.253 . S
H444 C440 0.931 1_655 S
H445 C441 0.930 . S
O446 Co435 2.039 . S
O446 C436 1.265 . S
C447 O443 1.253 . S
C447 O448 1.227 . S
O448 C447 1.227 . S
N449 Co435 2.140 . S
N449 C452 1.346 . S
N449 C453 1.345 . S
C450 C451 1.387 1_655 S
C450 C454 1.391 1_655 S
C451 C450 1.387 1_455 S
C451 C452 1.369 . S
C451 H460 0.929 1_455 S
C452 N449 1.346 . S
C452 C451 1.369 . S
C452 H455 0.928 . S
C453 N449 1.345 . S
C453 C454 1.371 . S
C453 H456 0.931 . S
C454 C450 1.391 1_455 S
C454 C453 1.371 . S
C454 H461 0.930 1_455 S
H455 C452 0.928 . S
H456 C453 0.931 . S
H457 C433 0.930 . S
H458 C430 0.930 . S
H459 C439 0.930 . S
H460 C451 0.929 1_655 S
H461 C454 0.930 1_655 S
C462 C463 1.351 . S
C462 N465 1.368 . S
C462 H467 0.931 . S
C463 C462 1.351 . S
C463 N464 1.373 . S
C463 H491 0.930 . S
N464 C463 1.373 . S
N464 C466 1.340 . S
N465 C462 1.368 . S
N465 C466 1.321 . S
N465 Co468 2.135 . S
C466 N464 1.340 . S
C466 N465 1.321 . S
C466 H490 0.930 . S
H467 C462 0.931 . S
Co468 N465 2.135 . S
Co468 N471 2.121 . S
Co468 O476 2.055 . S
Co468 O479 2.039 . S
Co468 N482 2.140 . S
C469 O470 1.227 . S
C469 O479 1.265 . S
O470 C469 1.227 . S
N471 Co468 2.121 . S
N471 C473 1.375 . S
N471 C474 1.313 . S
C472 C473 1.338 1_455 S
C472 N475 1.377 1_455 S
C472 H492 0.930 . S
C473 N471 1.375 . S
C473 C472 1.338 1_655 S
C473 H477 0.931 1_655 S
C474 N471 1.313 . S
C474 N475 1.344 . S
C474 H478 0.930 . S
N475 C472 1.377 1_655 S
N475 C474 1.344 . S
O476 Co468 2.055 . S
O476 C480 1.253 . S
H477 C473 0.931 1_455 S
H478 C474 0.930 . S
O479 Co468 2.039 . S
O479 C469 1.265 . S
C480 O476 1.253 . S
C480 O481 1.227 . S
O481 C480 1.227 . S
N482 Co468 2.140 . S
N482 C485 1.346 . S
N482 C486 1.345 . S
C483 C484 1.387 1_455 S
C483 C487 1.391 1_455 S
C484 C483 1.387 1_655 S
C484 C485 1.369 . S
C484 H493 0.929 1_655 S
C485 N482 1.346 . S
C485 C484 1.369 . S
C485 H488 0.928 . S
C486 N482 1.345 . S
C486 C487 1.371 . S
C486 H489 0.931 . S
C487 C483 1.391 1_655 S
C487 C486 1.371 . S
C487 H494 0.930 1_655 S
H488 C485 0.928 . S
H489 C486 0.931 . S
H490 C466 0.930 . S
H491 C463 0.930 . S
H492 C472 0.930 . S
H493 C484 0.929 1_455 S
H494 C487 0.930 1_455 S
C495 C496 1.351 . S
C495 N498 1.368 . S
C495 H500 0.931 . S
C496 C495 1.351 . S
C496 N497 1.373 . S
C496 H524 0.930 . S
N497 C496 1.373 . S
N497 C499 1.340 . S
N498 C495 1.368 . S
N498 C499 1.321 . S
N498 Co501 2.135 . S
C499 N497 1.340 . S
C499 N498 1.321 . S
C499 H523 0.930 . S
H500 C495 0.931 . S
Co501 N498 2.135 . S
Co501 N504 2.121 . S
Co501 O509 2.055 . S
Co501 O512 2.039 . S
Co501 N515 2.140 . S
C502 O503 1.227 . S
C502 O512 1.265 . S
O503 C502 1.227 . S
N504 Co501 2.121 . S
N504 C506 1.375 . S
N504 C507 1.313 . S
C505 C506 1.338 . S
C505 N508 1.377 . S
C505 H525 0.930 . S
C506 N504 1.375 . S
C506 C505 1.338 . S
C506 H510 0.931 . S
C507 N504 1.313 . S
C507 N508 1.344 . S
C507 H511 0.930 . S
N508 C505 1.377 . S
N508 C507 1.344 . S
O509 Co501 2.055 . S
O509 C513 1.253 . S
H510 C506 0.931 . S
H511 C507 0.930 . S
O512 Co501 2.039 . S
O512 C502 1.265 . S
C513 O509 1.253 . S
C513 O514 1.227 . S
O514 C513 1.227 . S
N515 Co501 2.140 . S
N515 C518 1.346 . S
N515 C519 1.345 . S
C516 C517 1.387 . S
C516 C520 1.391 . S
C517 C516 1.387 . S
C517 C518 1.369 . S
C517 H526 0.929 . S
C518 N515 1.346 . S
C518 C517 1.369 . S
C518 H521 0.928 . S
C519 N515 1.345 . S
C519 C520 1.371 . S
C519 H522 0.931 . S
C520 C516 1.391 . S
C520 C519 1.371 . S
C520 H527 0.930 . S
H521 C518 0.928 . S
H522 C519 0.931 . S
H523 C499 0.930 . S
H524 C496 0.930 . S
H525 C505 0.930 . S
H526 C517 0.929 . S
H527 C520 0.930 . S
C120 C21 1.001 1_455 S
C87 C54 1.001 . S
C153 C252 1.001 1_455 S
C186 C219 1.001 . S
C285 C384 1.001 . S
C318 C351 1.001 1_455 S
C516 C417 1.001 . S
C483 C450 1.001 1_455 S
N2 N332 2.035 . S
N365 N35 2.035 . S
N266 N68 2.035 . S
N299 N101 2.035 . S
N464 N134 2.035 . S
N497 N167 2.035 . S
N398 N200 2.035 . S
N431 N233 2.035 . S
N13 N145 1.695 1_445 S
N46 N178 1.695 1_565 S
N211 N79 1.695 1_546 S
N112 N244 1.695 1_644 S
N277 N409 1.695 . S
N442 N310 1.695 1_455 S
N343 N475 1.695 1_454 S
N508 N376 1.695 1_556 S
C18 C51 2.387 1_545 S
C117 C84 2.387 1_545 S
C183 C150 2.387 1_545 S
C216 C249 2.387 1_545 S
C315 C282 2.387 . S
C381 C348 2.387 . S
C414 C447 2.387 . S
C513 C480 2.387 . S
C7 C304 2.617 1_455 S
C40 C271 2.617 . S
C73 C370 2.617 . S
C106 C337 2.617 1_655 S
C139 C436 2.617 1_655 S
C403 C172 2.617 . S
C205 C502 2.617 . S
C469 C238 2.617 1_655 S
