# Generated by pormake.
# Topology sow, (4)-cn, num edge types: 1
# Building blocks:
#     Node 0, Type 0, BuildingBlock: ICAMEG_clean_sbu_1, # of connection points: 4
#     Node 1, Type 0, BuildingBlock: ICAMEG_clean_sbu_1, # of connection points: 4
#     Node 2, Type 0, BuildingBlock: ICAMEG_clean_sbu_1, # of connection points: 4
#     Node 3, Type 0, BuildingBlock: ICAMEG_clean_sbu_1, # of connection points: 4
#     Node 4, Type 0, BuildingBlock: ICAMEG_clean_sbu_1, # of connection points: 4
#     Node 5, Type 0, BuildingBlock: ICAMEG_clean_sbu_1, # of connection points: 4
#     Node 6, Type 0, BuildingBlock: ICAMEG_clean_sbu_1, # of connection points: 4
#     Node 7, Type 0, BuildingBlock: ICAMEG_clean_sbu_1, # of connection points: 4
#     Edge 8, Type (0, 0), BuildingBlock: EZIPEK_clean_linker_0, # of connection points: 2
#     Edge 9, Type (0, 0), BuildingBlock: EZIPEK_clean_linker_0, # of connection points: 2
#     Edge 10, Type (0, 0), BuildingBlock: EZIPEK_clean_linker_0, # of connection points: 2
#     Edge 11, Type (0, 0), BuildingBlock: EZIPEK_clean_linker_0, # of connection points: 2
#     Edge 12, Type (0, 0), BuildingBlock: EZIPEK_clean_linker_0, # of connection points: 2
#     Edge 13, Type (0, 0), BuildingBlock: EZIPEK_clean_linker_0, # of connection points: 2
#     Edge 14, Type (0, 0), BuildingBlock: EZIPEK_clean_linker_0, # of connection points: 2
#     Edge 15, Type (0, 0), BuildingBlock: EZIPEK_clean_linker_0, # of connection points: 2
#     Edge 16, Type (0, 0), BuildingBlock: EZIPEK_clean_linker_0, # of connection points: 2
#     Edge 17, Type (0, 0), BuildingBlock: EZIPEK_clean_linker_0, # of connection points: 2
#     Edge 18, Type (0, 0), BuildingBlock: EZIPEK_clean_linker_0, # of connection points: 2
#     Edge 19, Type (0, 0), BuildingBlock: EZIPEK_clean_linker_0, # of connection points: 2
#     Edge 20, Type (0, 0), BuildingBlock: EZIPEK_clean_linker_0, # of connection points: 2
#     Edge 21, Type (0, 0), BuildingBlock: EZIPEK_clean_linker_0, # of connection points: 2
#     Edge 22, Type (0, 0), BuildingBlock: EZIPEK_clean_linker_0, # of connection points: 2
#     Edge 23, Type (0, 0), BuildingBlock: EZIPEK_clean_linker_0, # of connection points: 2
# Relax obj value: 0.047
# Max RMSD: 0.153
# Mean RMSD: 0.153
data_MOF--net-sow--node1-ICAMEG_clean_sbu_1--edge1-EZIPEK_clean_linker_0
_symmetry_space_group_name_H-M    P1
_symmetry_Int_Tables_number       1
_symmetry_cell_setting            triclinic
loop_
_symmetry_equiv_pos_as_xyz
'x, y, z'
_cell_length_a     32.359789
_cell_length_b     13.69079
_cell_length_c     20.186694
_cell_angle_alpha  89.797223
_cell_angle_beta   89.835065
_cell_angle_gamma 89.908209
loop_
_atom_site_label
_atom_site_type_symbol
_atom_site_fract_x
_atom_site_fract_y
_atom_site_fract_z
_atom_type_partial_charge
Co0 Co 0.10168 0.31721 0.03228 0.0
Co1 Co 0.11825 0.13768 0.14956 0.0
O2 O 0.13908 0.24098 0.08931 0.0
C3 C 0.18194 0.29033 0.95244 0.0
O4 O 0.19858 0.24372 0.00235 0.0
C5 C 0.17065 0.24619 0.24833 0.0
O6 O 0.14648 0.32265 0.24163 0.0
O7 O 0.08033 0.23271 0.19284 0.0
O8 O 0.05786 0.31237 0.10305 0.0
H9 H 0.00971 0.96236 0.2833 0.0
H10 H 0.18503 0.40917 0.05644 0.0
O11 O 0.14481 0.32284 0.95687 0.0
H12 H 0.08145 0.64614 0.13552 0.0
H13 H 0.06421 0.55222 0.85059 0.0
H14 H 0.00985 0.32705 0.01929 0.0
H15 H 0.06025 0.48614 0.09353 0.0
H16 H 0.11132 0.4723 0.928 0.0
O17 O 0.1639 0.16904 0.21456 0.0
H18 H 0.03504 0.07808 0.19854 0.0
H19 H 0.15831 0.98463 0.23338 0.0
H20 H 0.96209 0.40848 0.94563 0.0
H21 H 0.20705 0.57272 0.09239 0.0
H22 H 0.98849 0.52096 0.85931 0.0
H23 H 0.15571 0.69054 0.13485 0.0
O24 O 0.07923 0.19478 0.99334 0.0
H25 H 0.24723 0.02731 0.03583 0.0
H26 H 0.10873 0.93002 0.11059 0.0
H27 H 0.15211 0.81065 0.05182 0.0
H28 H 0.22262 0.85611 0.01726 0.0
H29 H 0.20473 0.13967 0.10153 0.0
H30 H 0.13401 0.86843 0.31783 0.0
H31 H 0.05908 0.8555 0.34292 0.0
O32 O 0.07329 0.10098 0.08435 0.0
C33 C 0.05427 0.28718 0.16352 0.0
C34 C 0.0422 0.96587 0.27175 0.0
C35 C 0.11199 0.91283 0.29126 0.0
N36 N 0.09815 0.0386 0.21101 0.0
C37 C 0.05683 0.03164 0.2241 0.0
C38 C 0.12556 0.97936 0.24347 0.0
C39 C 0.06999 0.90608 0.30543 0.0
C40 C 0.16216 0.46131 0.07203 0.0
N41 N 0.12124 0.43863 0.07038 0.0
C42 C 0.17493 0.55333 0.09331 0.0
C43 C 0.14592 0.62024 0.11644 0.0
C44 C 0.1044 0.59517 0.11729 0.0
C45 C 0.09262 0.50389 0.09366 0.0
C46 C 0.05199 0.50386 0.88797 0.0
C47 C 0.02234 0.37794 0.98376 0.0
C48 C 0.07878 0.45652 0.93139 0.0
N49 N 0.06397 0.39136 0.97697 0.0
C50 C -0.00527 0.4238 0.94132 0.0
C51 C 0.00972 0.4865 0.89277 0.0
C52 C 0.06398 0.12158 0.02395 0.0
C53 C 0.21717 0.00414 0.05283 0.0
C54 C 0.1394 0.95104 0.09505 0.0
C55 C 0.16389 0.88273 0.06231 0.0
C56 C 0.20326 0.90923 0.04182 0.0
N57 N 0.15378 0.04297 0.10736 0.0
C58 C 0.19263 0.06884 0.08862 0.0
Co59 Co 0.37399 0.186 0.53198 0.0
Co60 Co 0.37122 0.37213 0.64929 0.0
O61 O 0.34284 0.28075 0.58857 0.0
C62 C 0.29531 0.23859 0.45544 0.0
O63 O 0.28079 0.28443 0.50702 0.0
C64 C 0.29051 0.31611 0.72087 0.0
O65 O 0.27668 0.27115 0.66838 0.0
O66 O 0.40095 0.2598 0.68935 0.0
O67 O 0.41862 0.17373 0.60023 0.0
H68 H 0.49081 0.59422 0.71346 0.0
H69 H 0.28838 0.14895 0.58313 0.0
O70 O 0.33039 0.19492 0.45818 0.0
H71 H 0.37035 0.86333 0.65117 0.0
H72 H 0.39205 0.8996 0.37859 0.0
H73 H 0.4635 0.15036 0.5089 0.0
H74 H 0.40078 0.98962 0.57994 0.0
H75 H 0.35228 0.02216 0.44089 0.0
O76 O 0.32614 0.35674 0.72008 0.0
H77 H 0.45284 0.48806 0.64154 0.0
H78 H 0.3644 0.43586 0.79527 0.0
H79 H 0.50425 0.02955 0.44804 0.0
H80 H 0.25881 0.03113 0.66217 0.0
H81 H 0.46868 0.90093 0.38538 0.0
H82 H 0.29942 0.88634 0.69519 0.0
O83 O 0.40498 0.29596 0.48905 0.0
H84 H 0.25872 0.52364 0.51299 0.0
H85 H 0.38748 0.59348 0.63118 0.0
H86 H 0.35585 0.72066 0.56474 0.0
H87 H 0.2924 0.68462 0.50102 0.0
H88 H 0.28856 0.40238 0.58867 0.0
H89 H 0.40312 0.54163 0.86723 0.0
H90 H 0.46701 0.62173 0.82864 0.0
O91 O 0.41466 0.38931 0.57871 0.0
C92 C 0.42288 0.19513 0.66095 0.0
C93 C 0.46291 0.55954 0.73143 0.0
C94 C 0.41413 0.52862 0.81775 0.0
N95 N 0.40343 0.45702 0.71008 0.0
C96 C 0.4404 0.49778 0.6902 0.0
C97 C 0.39152 0.46953 0.7748 0.0
C98 C 0.44972 0.57473 0.79583 0.0
C99 C 0.30655 0.08724 0.59783 0.0
N100 N 0.34617 0.07733 0.57594 0.0
C101 C 0.28936 0.01954 0.6418 0.0
C102 C 0.31223 0.93823 0.66067 0.0
C103 C 0.35201 0.92571 0.63607 0.0
C104 C 0.36881 0.99712 0.59454 0.0
C105 C 0.40786 0.95541 0.40638 0.0
C106 C 0.44744 0.09667 0.47982 0.0
C107 C 0.38542 0.026 0.44087 0.0
N108 N 0.40522 0.09529 0.47739 0.0
C109 C 0.47086 0.02807 0.44556 0.0
C110 C 0.45081 0.95628 0.4096 0.0
C111 C 0.42315 0.36592 0.51876 0.0
C112 C 0.28718 0.53906 0.53895 0.0
C113 C 0.35915 0.57587 0.60705 0.0
C114 C 0.34135 0.64965 0.56844 0.0
C115 C 0.30576 0.62983 0.53277 0.0
N116 N 0.34193 0.48452 0.61064 0.0
C117 C 0.30495 0.46882 0.58037 0.0
Co118 Co 0.60392 0.19237 0.9667 0.0
Co119 Co 0.62439 0.36145 0.84513 0.0
O120 O 0.64298 0.26872 0.91306 0.0
C121 C 0.67628 0.24486 0.05614 0.0
O122 O 0.6904 0.30311 0.00972 0.0
C123 C 0.69049 0.24671 0.77634 0.0
O124 O 0.67765 0.17053 0.81003 0.0
O125 O 0.5944 0.25467 0.80179 0.0
O126 O 0.56333 0.18296 0.88856 0.0
H127 H 0.56598 0.6729 0.74147 0.0
H128 H 0.69112 0.1174 0.96007 0.0
O129 O 0.64234 0.19846 0.04726 0.0
H130 H 0.60371 0.8469 0.88281 0.0
H131 H 0.56175 0.91695 0.11687 0.0
H132 H 0.51416 0.20869 0.99562 0.0
H133 H 0.57281 0.0049 0.91401 0.0
H134 H 0.61128 0.02101 0.05755 0.0
O135 O 0.67423 0.32968 0.78847 0.0
H136 H 0.57114 0.5519 0.82978 0.0
H137 H 0.62739 0.35024 0.69914 0.0
H138 H 0.46419 0.11311 0.06073 0.0
H139 H 0.72168 0.95405 0.94465 0.0
H140 H 0.48756 0.95946 0.11459 0.0
H141 H 0.67925 0.82144 0.89819 0.0
O142 O 0.57679 0.31557 0.99595 0.0
H143 H 0.75065 0.51408 0.93914 0.0
H144 H 0.60264 0.55437 0.91702 0.0
H145 H 0.64304 0.69225 0.9527 0.0
H146 H 0.71934 0.6783 0.95717 0.0
H147 H 0.70994 0.38307 0.89054 0.0
H148 H 0.61589 0.46275 0.60656 0.0
H149 H 0.59194 0.6315 0.62929 0.0
O150 O 0.57366 0.39598 0.89907 0.0
C151 C 0.56564 0.20273 0.82623 0.0
C152 C 0.5806 0.60306 0.73225 0.0
C153 C 0.60831 0.48506 0.65654 0.0
N154 N 0.60685 0.45 0.7735 0.0
C155 C 0.5859 0.53579 0.78363 0.0
C156 C 0.61528 0.42201 0.70972 0.0
C157 C 0.59361 0.57864 0.66882 0.0
C158 C 0.67158 0.05817 0.94455 0.0
N159 N 0.63002 0.07146 0.93776 0.0
C160 C 0.6893 0.96628 0.93449 0.0
C161 C 0.66521 0.89094 0.90973 0.0
C162 C 0.62308 0.90574 0.90033 0.0
C163 C 0.60586 0.99629 0.91614 0.0
C164 C 0.55127 0.98258 0.09199 0.0
C165 C 0.52496 0.1467 0.02366 0.0
C166 C 0.57911 0.04134 0.05768 0.0
N167 N 0.56552 0.11946 0.02138 0.0
C168 C 0.4965 0.09266 0.06043 0.0
C169 C 0.50969 0.00803 0.09244 0.0
C170 C 0.5615 0.38152 0.95861 0.0
C171 C 0.71904 0.52768 0.92658 0.0
C172 C 0.63546 0.54814 0.91284 0.0
C173 C 0.65842 0.6268 0.93561 0.0
C174 C 0.70099 0.61794 0.93942 0.0
N175 N 0.65441 0.46562 0.88917 0.0
C176 C 0.69546 0.45266 0.90023 0.0
Co177 Co 0.87639 0.28827 0.4622 0.0
Co178 Co 0.86696 0.12045 0.33918 0.0
O179 O 0.84264 0.19508 0.41185 0.0
C180 C 0.80932 0.20974 0.55602 0.0
O181 O 0.79803 0.1466 0.51078 0.0
C182 C 0.79198 0.20676 0.27851 0.0
O183 O 0.8003 0.28343 0.31465 0.0
O184 O 0.88402 0.24339 0.29806 0.0
O185 O 0.91468 0.31747 0.38202 0.0
H186 H 0.95661 0.87289 0.21795 0.0
H187 H 0.78469 0.32298 0.46199 0.0
O188 O 0.84054 0.26561 0.54517 0.0
H189 H 0.84601 0.62888 0.38072 0.0
H190 H 0.90199 0.58668 0.60168 0.0
H191 H 0.96598 0.30045 0.49513 0.0
H192 H 0.88962 0.48604 0.40398 0.0
H193 H 0.85926 0.46589 0.54567 0.0
O194 O 0.81337 0.12969 0.28765 0.0
H195 H 0.93839 0.97421 0.31323 0.0
H196 H 0.85448 0.13617 0.19462 0.0
H197 H 0.00886 0.41086 0.56156 0.0
H198 H 0.74254 0.47142 0.46032 0.0
H199 H 0.97762 0.56391 0.60526 0.0
H200 H 0.77165 0.6242 0.41337 0.0
O201 O 0.91256 0.1769 0.48846 0.0
H202 H 0.76122 0.87844 0.41666 0.0
H203 H 0.90948 0.93951 0.4018 0.0
H204 H 0.88556 0.78555 0.44577 0.0
H205 H 0.81049 0.75395 0.45482 0.0
H206 H 0.78626 0.03917 0.37923 0.0
H207 H 0.87453 0.0428 0.09794 0.0
H208 H 0.92171 0.90434 0.11069 0.0
O209 O 0.92151 0.11005 0.3879 0.0
C210 C 0.90992 0.30465 0.31937 0.0
C211 C 0.93351 0.92977 0.21333 0.0
C212 C 0.88765 0.02525 0.14576 0.0
N213 N 0.8906 0.05245 0.2631 0.0
C214 C 0.92178 0.98528 0.26805 0.0
C215 C 0.87577 0.07664 0.20168 0.0
C216 C 0.91506 0.94842 0.1526 0.0
C217 C 0.79888 0.39039 0.44683 0.0
N218 N 0.84032 0.39541 0.43487 0.0
C219 C 0.77452 0.47442 0.44474 0.0
C220 C 0.79103 0.56026 0.41901 0.0
C221 C 0.83244 0.56259 0.40023 0.0
C222 C 0.85691 0.47989 0.41043 0.0
C223 C 0.91609 0.52272 0.57968 0.0
C224 C 0.95137 0.36087 0.52021 0.0
C225 C 0.892 0.45382 0.54729 0.0
N226 N 0.90983 0.37685 0.51479 0.0
C227 C 0.97599 0.42404 0.557 0.0
C228 C 0.95848 0.50867 0.58299 0.0
C229 C 0.93152 0.11937 0.44898 0.0
C230 C 0.79371 0.89228 0.4128 0.0
C231 C 0.87686 0.92787 0.40194 0.0
C232 C 0.86347 0.83917 0.42831 0.0
C233 C 0.82149 0.82102 0.43291 0.0
N234 N 0.84935 0.99749 0.38038 0.0
C235 C 0.80815 0.98185 0.38927 0.0
Co236 Co 0.86888 0.8827 0.82602 0.0
Co237 Co 0.87945 0.71409 0.95296 0.0
O238 O 0.84456 0.79003 0.88991 0.0
C239 C 0.81745 0.75537 0.73612 0.0
O240 O 0.83571 0.67859 0.7618 0.0
C241 C 0.806 0.77489 0.03828 0.0
O242 O 0.80704 0.86242 0.01144 0.0
O243 O 0.90059 0.83822 0.99164 0.0
O244 O 0.90948 0.92591 0.89749 0.0
H245 H 0.01217 0.59011 0.055 0.0
H246 H 0.77702 0.90054 0.83362 0.0
O247 O 0.82792 0.84111 0.75479 0.0
H248 H 0.83244 0.22566 0.88812 0.0
H249 H 0.86687 0.14053 0.64735 0.0
H250 H 0.9553 0.93607 0.78917 0.0
H251 H 0.87902 0.0868 0.86814 0.0
H252 H 0.83604 0.02322 0.72618 0.0
O253 O 0.83162 0.70995 0.01875 0.0
H254 H 0.97148 0.67704 0.97437 0.0
H255 H 0.86072 0.57193 0.06435 0.0
H256 H 0.98729 0.04859 0.70809 0.0
H257 H 0.73071 0.04229 0.83508 0.0
H258 H 0.94296 0.15358 0.63796 0.0
H259 H 0.75728 0.20517 0.86899 0.0
O260 O 0.90822 0.78204 0.79439 0.0
H261 H 0.77937 0.50028 0.83713 0.0
H262 H 0.92206 0.53415 0.91023 0.0
H263 H 0.90244 0.38715 0.84826 0.0
H264 H 0.83005 0.37014 0.80912 0.0
H265 H 0.79955 0.64052 0.90394 0.0
H266 H 0.90126 0.48617 0.14771 0.0
H267 H 0.97793 0.49383 0.14398 0.0
O268 O 0.9275 0.71607 0.89047 0.0
C269 C 0.91703 0.90911 0.95939 0.0
C270 C 0.97894 0.58591 0.05789 0.0
C271 C 0.91677 0.52853 0.10983 0.0
N272 N 0.91281 0.63742 0.01594 0.0
C273 C 0.95508 0.63582 0.0115 0.0
C274 C 0.89379 0.58017 0.06284 0.0
C275 C 0.95967 0.53243 0.10766 0.0
C276 C 0.7894 0.97147 0.84578 0.0
N277 N 0.83086 0.98419 0.85384 0.0
C278 C 0.76273 0.05153 0.84789 0.0
C279 C 0.77785 0.14303 0.86542 0.0
C280 C 0.81993 0.15457 0.87647 0.0
C281 C 0.84617 0.0746 0.86823 0.0
C282 C 0.88643 0.09534 0.67792 0.0
C283 C 0.93576 0.98021 0.75806 0.0
C284 C 0.86918 0.02867 0.72256 0.0
N285 N 0.89375 0.97303 0.76271 0.0
C286 C 0.95409 0.04438 0.7127 0.0
C287 C 0.92918 0.10304 0.67296 0.0
C288 C 0.93361 0.73451 0.82963 0.0
C289 C 0.8104 0.50452 0.85445 0.0
C290 C 0.89031 0.52425 0.89694 0.0
C291 C 0.87945 0.44166 0.86071 0.0
C292 C 0.83903 0.43226 0.83877 0.0
N293 N 0.86168 0.5941 0.91251 0.0
C294 C 0.82197 0.58439 0.89258 0.0
Co295 Co 0.61973 0.60153 0.32442 0.0
Co296 Co 0.61297 0.76224 0.45614 0.0
O297 O 0.64621 0.68795 0.38983 0.0
C298 C 0.67472 0.72734 0.23702 0.0
O299 O 0.6595 0.80583 0.26523 0.0
C300 C 0.69113 0.7003 0.53106 0.0
O301 O 0.6944 0.62202 0.4941 0.0
O302 O 0.59054 0.63625 0.49243 0.0
O303 O 0.57945 0.55624 0.39638 0.0
H304 H 0.48237 0.88785 0.56571 0.0
H305 H 0.71144 0.57085 0.32334 0.0
O306 O 0.66077 0.64317 0.25309 0.0
H307 H 0.64891 0.25528 0.38401 0.0
H308 H 0.616 0.35112 0.14164 0.0
H309 H 0.53236 0.55626 0.29006 0.0
H310 H 0.60579 0.39903 0.36528 0.0
H311 H 0.64937 0.46512 0.21949 0.0
O312 O 0.66113 0.75973 0.52179 0.0
H313 H 0.52204 0.78876 0.48757 0.0
H314 H 0.63421 0.90847 0.56086 0.0
H315 H 0.49773 0.44805 0.20999 0.0
H316 H 0.75353 0.4233 0.319 0.0
H317 H 0.53969 0.34232 0.13679 0.0
H318 H 0.72354 0.26339 0.35624 0.0
O319 O 0.58179 0.70797 0.2967 0.0
H320 H 0.7196 0.98536 0.36227 0.0
H321 H 0.57265 0.94986 0.41614 0.0
H322 H 0.59663 0.10004 0.36089 0.0
H323 H 0.67108 0.11654 0.33112 0.0
H324 H 0.69377 0.83263 0.4115 0.0
H325 H 0.5953 0.00758 0.64026 0.0
H326 H 0.51879 -0.00128 0.6425 0.0
O327 O 0.56445 0.76903 0.39505 0.0
C328 C 0.57377 0.56685 0.45937 0.0
C329 C 0.5158 0.89126 0.56568 0.0
C330 C 0.57913 0.95806 0.60767 0.0
N331 N 0.58105 0.83703 0.52135 0.0
C332 C 0.53875 0.83465 0.52143 0.0
C333 C 0.60111 0.8998 0.5631 0.0
C334 C 0.53621 0.95335 0.60892 0.0
C335 C 0.69734 0.5016 0.3354 0.0
N336 N 0.65605 0.49507 0.34803 0.0
C337 C 0.72156 0.41752 0.33351 0.0
C338 C 0.70471 0.32847 0.35357 0.0
C339 C 0.66301 0.32351 0.3696 0.0
C340 C 0.63881 0.40687 0.36323 0.0
C341 C 0.59748 0.3967 0.1737 0.0
C342 C 0.5508 0.51237 0.25737 0.0
C343 C 0.61617 0.46145 0.21776 0.0
N344 N 0.5929 0.51713 0.25985 0.0
C345 C 0.53103 0.45043 0.21265 0.0
C346 C 0.5546 0.39134 0.17121 0.0
C347 C 0.55764 0.75613 0.33381 0.0
C348 C 0.68744 0.97797 0.37318 0.0
C349 C 0.60507 0.95734 0.40447 0.0
C350 C 0.61841 0.04266 0.37305 0.0
C351 C 0.66002 0.05237 0.35686 0.0
N352 N 0.63233 0.88353 0.41846 0.0
C353 C 0.67288 0.89264 0.40253 0.0
Co354 Co 0.3554 0.61658 0.1578 0.0
Co355 Co 0.38003 0.80487 0.05117 0.0
O356 O 0.33877 0.72045 0.09535 0.0
C357 C 0.29119 0.72269 0.2321 0.0
O358 O 0.30735 0.80101 0.20584 0.0
C359 C 0.32332 0.74957 0.93831 0.0
O360 O 0.3268 0.65742 0.95569 0.0
O361 O 0.40806 0.6846 0.01644 0.0
O362 O 0.40778 0.59046 0.10765 0.0
H363 H 0.52107 0.8805 0.96028 0.0
H364 H 0.27728 0.61072 0.08284 0.0
O365 O 0.30413 0.6389 0.21346 0.0
H366 H 0.34346 0.29117 0.04369 0.0
H367 H 0.3356 0.31819 0.30113 0.0
H368 H 0.43413 0.56994 0.22733 0.0
H369 H 0.37662 0.41377 0.11475 0.0
H370 H 0.31367 0.449 0.22435 0.0
O371 O 0.34299 0.81434 0.97054 0.0
H372 H 0.47061 0.79151 0.02903 0.0
H373 H 0.37491 0.98179 0.96486 0.0
H374 H 0.45608 0.44588 0.30941 0.0
H375 H 0.24482 0.49307 0.00689 0.0
H376 H 0.40655 0.31821 0.34565 0.0
H377 H 0.27728 0.3312 0.98794 0.0
O378 O 0.3832 0.71619 0.20953 0.0
H379 H 0.2648 0.99529 0.15748 0.0
H380 H 0.41179 0.99589 0.09871 0.0
H381 H 0.38251 0.13644 0.15755 0.0
H382 H 0.30844 0.13494 0.18982 0.0
H383 H 0.29324 0.86639 0.08414 0.0
H384 H 0.42501 0.07771 0.8997 0.0
H385 H 0.49873 0.03038 0.90096 0.0
O386 O 0.41709 0.80481 0.13347 0.0
C387 C 0.42236 0.61403 0.05118 0.0
C388 C 0.48901 0.90311 0.96104 0.0
C389 C 0.43509 0.01402 0.92722 0.0
N390 N 0.42005 0.88252 0.00243 0.0
C391 C 0.46035 0.85317 0.00016 0.0
C392 C 0.40703 0.96 0.96479 0.0
C393 C 0.47637 0.98582 0.92624 0.0
C394 C 0.29159 0.5404 0.07474 0.0
N395 N 0.32816 0.51847 0.10443 0.0
C396 C 0.27304 0.47391 0.03183 0.0
C397 C 0.29143 0.38331 0.02099 0.0
C398 C 0.32852 0.36082 0.05223 0.0
C399 C 0.34691 0.43031 0.09308 0.0
C400 C 0.35691 0.3752 0.28692 0.0
C401 C 0.41205 0.51655 0.24474 0.0
C402 C 0.34474 0.44915 0.24334 0.0
N403 N 0.37234 0.51778 0.22186 0.0
C404 C 0.4248 0.44605 0.29068 0.0
C405 C 0.39702 0.37459 0.31137 0.0
C406 C 0.40989 0.78004 0.19412 0.0
C407 C 0.29642 -0.00101 0.14043 0.0
C408 C 0.37892 -0.00197 0.10724 0.0
C409 C 0.36263 0.07733 0.14198 0.0
C410 C 0.32118 0.07658 0.15996 0.0
N411 N 0.35432 0.92243 0.08725 0.0
C412 C 0.31298 0.92525 0.10023 0.0
Co413 Co 0.13164 0.88528 0.65663 0.0
Co414 Co 0.11641 0.69584 0.55011 0.0
O415 O 0.15251 0.78792 0.59552 0.0
C416 C 0.19796 0.79104 0.73588 0.0
O417 O 0.17993 0.70753 0.72323 0.0
C418 C 0.17109 0.77208 0.44426 0.0
O419 O 0.16169 0.86057 0.46375 0.0
O420 O 0.08401 0.80926 0.51327 0.0
O421 O 0.07919 0.9026 0.60456 0.0
H422 H 0.98375 0.56967 0.45359 0.0
H423 H 0.21268 0.91433 0.59238 0.0
O424 O 0.18387 0.8705 0.71103 0.0
H425 H 0.1312 0.20856 0.53771 0.0
H426 H 0.14383 0.18613 0.79629 0.0
H427 H 0.05198 0.91805 0.72829 0.0
H428 H 0.10169 0.07798 0.60723 0.0
H429 H 0.16941 0.05617 0.72263 0.0
O430 O 0.15578 0.69817 0.47345 0.0
H431 H 0.02649 0.68358 0.51869 0.0
H432 H 0.13415 0.52205 0.46779 0.0
H433 H 0.02722 0.03987 0.80981 0.0
H434 H 0.24244 0.0401 0.51942 0.0
H435 H 0.07339 0.177 0.84148 0.0
H436 H 0.20228 0.19089 0.49358 0.0
O437 O 0.10577 0.77985 0.70746 0.0
H438 H 0.24044 0.53148 0.64958 0.0
H439 H 0.09339 0.49682 0.59771 0.0
H440 H 0.12908 0.36386 0.65621 0.0
H441 H 0.20338 0.3807 0.68279 0.0
H442 H 0.2049 0.65806 0.584 0.0
H443 H 0.09191 0.39874 0.41161 0.0
H444 H 0.01612 0.4176 0.40936 0.0
O445 O 0.07702 0.68671 0.62887 0.0
C446 C 0.0678 0.8797 0.54604 0.0
C447 C 0.01669 0.55763 0.45805 0.0
C448 C 0.07738 0.46172 0.43416 0.0
N449 N 0.08247 0.60714 0.49952 0.0
C450 C 0.04097 0.62226 0.4943 0.0
C451 C 0.101 0.5316 0.46638 0.0
C452 C 0.03482 0.47365 0.43173 0.0
C453 C 0.19476 0.9784 0.57988 0.0
N454 N 0.15576 0.98875 0.6039 0.0
C455 C 0.21178 0.04992 0.53884 0.0
C456 C 0.18914 0.13388 0.52414 0.0
C457 C 0.1493 0.1441 0.54909 0.0
C458 C 0.13284 0.06988 0.58855 0.0
C459 C 0.12401 0.12575 0.7833 0.0
C460 C 0.07256 0.97519 0.74452 0.0
C461 C 0.138 0.05271 0.7409 0.0
N462 N 0.11199 0.98023 0.72047 0.0
C463 C 0.05824 0.04441 0.78993 0.0
C464 C 0.08408 0.12088 0.80837 0.0
C465 C 0.08138 0.71186 0.68982 0.0
C466 C 0.2086 0.52184 0.63625 0.0
C467 C 0.12583 0.50454 0.6082 0.0
C468 C 0.14591 0.42862 0.64127 0.0
C469 C 0.18758 0.438 0.65598 0.0
N470 N 0.14672 0.58655 0.58845 0.0
C471 C 0.18802 0.59424 0.60024 0.0
C472 C 0.25424 0.22132 0.81048 0.0
C473 C 0.26489 0.31321 0.783 0.0
C474 C 0.21938 0.39368 0.86525 0.0
C475 C 0.20704 0.30065 0.88997 0.0
N476 N 0.20524 0.12694 0.87413 0.0
N477 N 0.25591 0.48752 0.78111 0.0
C478 C 0.22259 0.215 0.85941 0.0
C479 C 0.24715 0.39967 0.80985 0.0
N480 N 0.27581 0.13984 0.79201 0.0
N481 N 0.20561 0.47638 0.89592 0.0
H482 H 0.27829 0.49567 0.74434 0.0
H483 H 0.23919 0.55083 0.79057 0.0
H484 H 0.18462 0.47495 0.93503 0.0
H485 H 0.21689 0.54608 0.88601 0.0
H486 H 0.27226 0.07203 0.8149 0.0
H487 H 0.30039 0.14223 0.75847 0.0
H488 H 0.21007 0.06638 0.84422 0.0
H489 H 0.18187 0.11787 0.90934 0.0
C490 C 0.23063 0.32794 0.30833 0.0
C491 C 0.20442 0.24599 0.29913 0.0
C492 C 0.24739 0.15321 0.37663 0.0
C493 C 0.26925 0.2385 0.39437 0.0
N494 N 0.27741 0.41297 0.38215 0.0
N495 N 0.17978 0.09573 0.34728 0.0
C496 C 0.25927 0.32807 0.36212 0.0
C497 C 0.21075 0.16204 0.33897 0.0
N498 N 0.22974 0.40354 0.26428 0.0
N499 N 0.2602 0.06383 0.39755 0.0
H500 H 0.14998 0.10956 0.33019 0.0
H501 H 0.18193 0.03643 0.3797 0.0
H502 H 0.28593 0.05418 0.42751 0.0
H503 H 0.24655 -0.00011 0.3805 0.0
H504 H 0.24985 0.46244 0.26703 0.0
H505 H 0.21192 0.4027 0.22135 0.0
H506 H 0.26769 0.48166 0.36601 0.0
H507 H 0.30105 0.41469 0.41715 0.0
C508 C 0.73673 0.13228 0.20229 0.0
C509 C 0.76098 0.2138 0.22266 0.0
C510 C 0.72054 0.31545 0.14615 0.0
C511 C 0.70159 0.23234 0.118 0.0
N512 N 0.69861 0.05572 0.11435 0.0
N513 N 0.78283 0.37843 0.19383 0.0
C514 C 0.71138 0.13908 0.14484 0.0
C515 C 0.7548 0.30425 0.18911 0.0
N516 N 0.7363 0.04837 0.23835 0.0
N517 N 0.70528 0.40621 0.13362 0.0
H518 H 0.81081 0.37209 0.21866 0.0
H519 H 0.78061 0.44222 0.16563 0.0
H520 H 0.67979 0.41843 0.10325 0.0
H521 H 0.71514 0.46689 0.16033 0.0
H522 H 0.71412 0.99429 0.2313 0.0
H523 H 0.75525 0.03636 0.27861 0.0
H524 H 0.70964 0.98656 0.12707 0.0
H525 H 0.67993 0.05555 0.07291 0.0
C526 C 0.74784 0.31754 0.70303 0.0
C527 C 0.72293 0.23661 0.72252 0.0
C528 C 0.76383 0.13672 0.64572 0.0
C529 C 0.78264 0.22054 0.61726 0.0
N530 N 0.78316 0.39771 0.61374 0.0
N531 N 0.70082 0.07312 0.69206 0.0
C532 C 0.77199 0.31299 0.64433 0.0
C533 C 0.72908 0.14695 0.68838 0.0
N534 N 0.75045 0.39832 0.74155 0.0
N535 N 0.77986 0.04665 0.63433 0.0
H536 H 0.67201 0.08054 0.71452 0.0
H537 H 0.70362 0.0095 0.66408 0.0
H538 H 0.8068 0.03652 0.60677 0.0
H539 H 0.76948 0.98539 0.66027 0.0
H540 H 0.77062 0.45551 0.73085 0.0
H541 H 0.73719 0.40231 0.78806 0.0
H542 H 0.77147 0.4658 0.62715 0.0
H543 H 0.8006 0.39988 0.5712 0.0
C544 C 0.77464 0.81483 0.15144 0.0
C545 C 0.77626 0.75381 0.09464 0.0
C546 C 0.71148 0.67705 0.13086 0.0
C547 C 0.71013 0.73558 0.18857 0.0
N548 N 0.75147 0.82748 0.26526 0.0
N549 N 0.75768 0.59311 0.0565 0.0
C550 C 0.74478 0.79585 0.20228 0.0
C551 C 0.74831 0.67426 0.09209 0.0
N552 N 0.80281 0.8878 0.15873 0.0
N553 N 0.67742 0.62636 0.11125 0.0
H554 H 0.78517 0.58411 0.03057 0.0
H555 H 0.73955 0.53058 0.0583 0.0
H556 H 0.64886 0.63201 0.13496 0.0
H557 H 0.67681 0.58581 0.06779 0.0
H558 H 0.801 0.93997 0.19605 0.0
H559 H 0.82743 0.89702 0.12611 0.0
H560 H 0.77874 0.86179 0.27924 0.0
H561 H 0.73219 0.80883 0.30472 0.0
C562 C 0.72313 0.65574 0.64263 0.0
C563 C 0.72186 0.71769 0.58604 0.0
C564 C 0.78585 0.79546 0.6245 0.0
C565 C 0.78437 0.74223 0.6847 0.0
N566 N 0.74271 0.64381 0.75821 0.0
N567 N 0.74397 0.87167 0.54032 0.0
C568 C 0.75048 0.6782 0.69593 0.0
C569 C 0.7508 0.79525 0.58198 0.0
N570 N 0.69812 0.576 0.64602 0.0
N571 N 0.82086 0.84462 0.60686 0.0
H572 H 0.71671 0.87933 0.51391 0.0
H573 H 0.7632 0.93239 0.5379 0.0
H574 H 0.84775 0.84324 0.63519 0.0
H575 H 0.82408 0.87996 0.56141 0.0
H576 H 0.69933 0.52535 0.68454 0.0
H577 H 0.67864 0.55659 0.60737 0.0
H578 H 0.71631 0.604 0.77036 0.0
H579 H 0.76014 0.66515 0.79899 0.0
C580 C 0.29991 0.72406 0.8195 0.0
C581 C 0.29677 0.77706 0.87969 0.0
C582 C 0.23079 0.84547 0.84245 0.0
C583 C 0.23341 0.79217 0.78277 0.0
N584 N 0.27508 0.69987 0.70689 0.0
N585 N 0.27005 0.92626 0.92688 0.0
C586 C 0.2694 0.73671 0.76905 0.0
C587 C 0.26566 0.84961 0.88488 0.0
N588 N 0.33327 0.66537 0.80959 0.0
N589 N 0.19431 0.88732 0.86124 0.0
H590 H 0.29563 0.93684 0.9569 0.0
H591 H 0.25016 0.98588 0.9252 0.0
H592 H 0.16742 0.88362 0.83301 0.0
H593 H 0.19018 0.91937 0.90753 0.0
H594 H 0.33589 0.61645 0.77059 0.0
H595 H 0.35869 0.66781 0.84099 0.0
H596 H 0.30156 0.66348 0.69172 0.0
H597 H 0.25449 0.71336 0.66828 0.0
C598 C 0.27007 0.79269 0.34313 0.0
C599 C 0.2605 0.73336 0.28718 0.0
C600 C 0.19107 0.70362 0.33337 0.0
C601 C 0.20187 0.75721 0.3907 0.0
N602 N 0.25402 0.83449 0.45701 0.0
N603 N 0.21319 0.62422 0.2328 0.0
C604 C 0.24201 0.79685 0.39739 0.0
C605 C 0.22151 0.68588 0.2838 0.0
N606 N 0.30595 0.84525 0.34513 0.0
N607 N 0.15104 0.67429 0.32444 0.0
H608 H 0.23279 0.61528 0.19242 0.0
H609 H 0.18832 0.57616 0.23325 0.0
H610 H 0.12763 0.6871 0.35895 0.0
H611 H 0.13986 0.64556 0.28033 0.0
H612 H 0.31212 0.89801 0.38059 0.0
H613 H 0.32904 0.84214 0.3095 0.0
H614 H 0.2839 0.85759 0.4676 0.0
H615 H 0.23535 0.83209 0.49902 0.0
C616 C 0.01345 0.38311 0.24839 0.0
C617 C 0.0149 0.31166 0.19751 0.0
C618 C 0.94002 0.29702 0.20486 0.0
C619 C 0.94109 0.33899 0.26854 0.0
N620 N 0.96883 0.48086 0.31939 0.0
N621 N 0.97723 0.20317 0.12477 0.0
C622 C 0.97528 0.39919 0.28283 0.0
C623 C 0.97742 0.2706 0.17417 0.0
N624 N 0.048 0.43612 0.26248 0.0
N625 N 0.90352 0.28963 0.17175 0.0
H626 H 0.00398 0.17963 0.10167 0.0
H627 H 0.9508 0.16504 0.11097 0.0
H628 H 0.90162 0.26762 0.12244 0.0
H629 H 0.87622 0.31833 0.19115 0.0
H630 H 0.04944 0.48808 0.29977 0.0
H631 H 0.07557 0.42806 0.23617 0.0
H632 H 0.99001 0.53775 0.3225 0.0
H633 H 0.9397 0.49746 0.33773 0.0
C634 C 0.47135 0.09659 0.73544 0.0
C635 C 0.46333 0.17521 0.69152 0.0
C636 C 0.51749 0.26762 0.74052 0.0
C637 C 0.52936 0.18831 0.78156 0.0
N638 N 0.52816 0.01224 0.78869 0.0
N639 N 0.49594 0.30485 0.6303 0.0
C640 C 0.50931 0.09727 0.77143 0.0
C641 C 0.49247 0.25003 0.68618 0.0
N642 N 0.44412 0.02152 0.74145 0.0
N643 N 0.52672 0.36109 0.75596 0.0
H644 H 0.48136 0.2829 0.58714 0.0
H645 H 0.51814 0.3596 0.62485 0.0
H646 H 0.53589 0.37936 0.80324 0.0
H647 H 0.51928 0.41966 0.72525 0.0
H648 H 0.44827 0.96517 0.77575 0.0
H649 H 0.41681 0.01958 0.71421 0.0
H650 H 0.5155 0.94406 0.77803 0.0
H651 H 0.55841 0.01156 0.80596 0.0
C652 C 0.04913 0.73307 0.80066 0.0
C653 C 0.05098 0.68016 0.74131 0.0
C654 C 0.97896 0.632 0.75616 0.0
C655 C 0.97448 0.71021 0.80157 0.0
N656 N 0.00708 0.83439 0.86865 0.0
N657 N 0.0285 0.52776 0.69891 0.0
C658 C 0.01019 0.75895 0.82553 0.0
C659 C 0.01878 0.61394 0.72821 0.0
N660 N 0.08445 0.75402 0.83459 0.0
N661 N 0.94592 0.57351 0.74265 0.0
H662 H 0.0592 0.51063 0.6892 0.0
H663 H 0.00821 0.46925 0.69469 0.0
H664 H 0.91659 0.58598 0.76248 0.0
H665 H 0.94747 0.5118 0.71309 0.0
H666 H 0.08441 0.78651 0.88122 0.0
H667 H 0.11309 0.72622 0.81982 0.0
H668 H 0.03189 0.87967 0.88003 0.0
H669 H 0.97899 0.85754 0.88683 0.0
C670 C 0.46893 0.87984 0.24218 0.0
C671 C 0.43931 0.80529 0.24834 0.0
C672 C 0.48166 0.72296 0.32927 0.0
C673 C 0.516 0.7804 0.3087 0.0
N674 N 0.54056 0.92831 0.25677 0.0
N675 N 0.40773 0.70983 0.33558 0.0
C676 C 0.50921 0.86403 0.26846 0.0
C677 C 0.44234 0.74308 0.30381 0.0
N678 N 0.45587 0.97011 0.22358 0.0
N679 N 0.48636 0.64744 0.37209 0.0
H680 H 0.37816 0.73215 0.32256 0.0
H681 H 0.40846 0.6717 0.38032 0.0
H682 H 0.51346 0.63665 0.39722 0.0
H683 H 0.46418 0.59326 0.37879 0.0
H684 H 0.47431 0.03233 0.22587 0.0
H685 H 0.42466 0.98291 0.21469 0.0
H686 H 0.53723 0.99041 0.22744 0.0
H687 H 0.57025 0.91783 0.27548 0.0
C688 C 0.99387 0.11112 0.96711 0.0
C689 C 0.02937 0.06439 0.99327 0.0
C690 C 0.98809 0.91825 0.01392 0.0
C691 C 0.95201 0.96619 0.98967 0.0
N692 N 0.91957 0.121 0.9717 0.0
N693 N 0.06248 0.91057 0.00698 0.0
C694 C 0.9547 0.06646 0.97436 0.0
C695 C 0.02705 0.96418 0.00755 0.0
N696 N -0.0023 0.19142 0.92803 0.0
N697 N 0.98543 0.83207 0.04702 0.0
H698 H 0.09025 0.94222 0.99166 0.0
H699 H 0.06301 0.83462 0.01108 0.0
H700 H 0.9573 0.80146 0.05971 0.0
H701 H 0.01066 0.79937 0.07032 0.0
H702 H 0.97278 0.22169 0.90242 0.0
H703 H 0.02638 0.21852 0.91417 0.0
H704 H 0.91989 0.1968 0.96605 0.0
H705 H 0.89087 0.09062 0.98339 0.0
C706 C 0.53448 0.40907 0.47138 0.0
C707 C 0.53892 0.50806 0.48976 0.0
C708 C 0.4641 0.51732 0.50597 0.0
C709 C 0.45936 0.41871 0.48825 0.0
N710 N 0.48926 0.28527 0.42735 0.0
N711 N 0.50842 0.63493 0.55654 0.0
C712 C 0.49435 0.36795 0.46346 0.0
C713 C 0.50393 0.55627 0.51656 0.0
N714 N 0.56881 0.35181 0.4686 0.0
N715 N 0.43014 0.57583 0.50822 0.0
H716 H 0.53724 0.65883 0.57146 0.0
H717 H 0.48366 0.66723 0.58146 0.0
H718 H 0.40138 0.54959 0.49316 0.0
H719 H 0.43189 0.65112 0.51554 0.0
H720 H 0.56772 0.27648 0.46135 0.0
H721 H 0.59772 0.37948 0.48173 0.0
H722 H 0.51369 0.24921 0.40412 0.0
H723 H 0.46009 0.26169 0.41304 0.0
C724 C 0.45132 0.47576 0.98419 0.0
C725 C 0.45825 0.55635 0.02648 0.0
C726 C 0.53268 0.5173 0.02918 0.0
C727 C 0.52591 0.44008 0.98373 0.0
N728 N 0.47948 0.35082 0.91278 0.0
N729 N 0.50341 0.63967 0.10253 0.0
C730 C 0.48539 0.42055 0.96005 0.0
C731 C 0.49844 0.57351 0.05255 0.0
N732 N 0.41174 0.44793 0.97049 0.0
N733 N 0.57213 0.53889 0.04832 0.0
H734 H 0.47923 0.68176 0.12116 0.0
H735 H 0.53059 0.64837 0.12923 0.0
H736 H 0.59754 0.49582 0.03569 0.0
H737 H 0.58022 0.60167 0.07405 0.0
H738 H 0.40405 0.3811 0.9494 0.0
H739 H 0.38616 0.49108 0.98196 0.0
H740 H 0.45208 0.34249 0.88651 0.0
H741 H 0.50282 0.30422 0.89691 0.0
C742 C 0.04 0.00963 0.46864 0.0
C743 C 0.0325 0.93623 0.51733 0.0
C744 C 0.95921 0.9855 0.52294 0.0
C745 C 0.96675 0.05947 0.47466 0.0
N746 N 0.01304 0.13961 0.39821 0.0
N747 N 0.98659 0.86005 0.59626 0.0
C748 C 0.00683 0.07057 0.44645 0.0
C749 C 0.99249 0.9258 0.54584 0.0
N750 N 0.07949 0.02484 0.44669 0.0
N751 N 0.91964 0.96858 0.54421 0.0
H752 H 0.00915 0.81033 0.61129 0.0
H753 H 0.96019 0.85719 0.62572 0.0
H754 H 0.89445 0.01134 0.53014 0.0
H755 H 0.91087 0.90853 0.57256 0.0
H756 H 0.08865 0.08288 0.41679 0.0
H757 H 0.10423 0.98132 0.46125 0.0
H758 H 0.0396 0.14482 0.3693 0.0
H759 H 0.9908 0.19134 0.38512 0.0
loop_
_geom_bond_atom_site_label_1
_geom_bond_atom_site_label_2
_geom_bond_distance
_geom_bond_site_symmetry_2
_ccdc_geom_bond_type
Co0 O2 2.143 . S
Co0 O8 2.074 . S
Co0 O11 2.093 1_554 S
Co0 O24 2.097 . S
Co0 N41 2.151 . S
Co0 N49 2.214 1_554 S
Co1 O2 2.160 . S
Co1 O7 2.058 . S
Co1 O17 2.057 . S
Co1 O32 2.037 . S
Co1 N36 2.145 . S
Co1 N57 2.257 . S
O2 Co0 2.143 . S
O2 Co1 2.160 . S
C3 O4 1.278 1_556 S
C3 O11 1.224 . S
O4 C3 1.278 1_554 S
C5 O6 1.245 . S
C5 O17 1.232 . S
O6 C5 1.245 . S
O7 Co1 2.058 . S
O7 C33 1.269 . S
O8 Co0 2.074 . S
O8 C33 1.257 . S
H9 C34 0.930 . S
H10 C40 0.930 . S
O11 Co0 2.093 1_556 S
O11 C3 1.224 . S
H12 C44 0.929 . S
H13 C46 0.930 . S
H14 C47 0.930 1_554 S
H15 C45 0.929 . S
H16 C48 0.928 . S
O17 Co1 2.057 . S
O17 C5 1.232 . S
H18 C37 0.929 1_545 S
H19 C38 0.929 . S
H20 C50 0.931 . S
H21 C42 0.929 . S
H22 C51 0.930 . S
H23 C43 0.931 . S
O24 Co0 2.097 . S
O24 C52 1.214 . S
H25 C53 0.929 1_545 S
H26 C54 0.929 . S
H27 C55 0.930 . S
H28 C56 0.929 . S
H29 C58 0.930 . S
H30 C35 0.930 . S
H31 C39 0.930 . S
O32 Co1 2.037 . S
O32 C52 1.234 . S
C33 O7 1.269 . S
C33 O8 1.257 . S
C34 H9 0.930 . S
C34 C37 1.388 . S
C34 C39 1.418 . S
C35 H30 0.930 . S
C35 C38 1.404 1_565 S
C35 C39 1.353 . S
N36 Co1 2.145 . S
N36 C37 1.397 1_545 S
N36 C38 1.334 . S
C37 H18 0.929 1_565 S
C37 C34 1.388 . S
C37 N36 1.397 1_565 S
C38 H19 0.929 . S
C38 C35 1.404 1_545 S
C38 N36 1.334 . S
C39 H31 0.930 . S
C39 C34 1.418 . S
C39 C35 1.353 . S
C40 H10 0.930 . S
C40 N41 1.330 . S
C40 C42 1.446 . S
N41 Co0 2.151 . S
N41 C40 1.330 . S
N41 C45 1.418 . S
C42 H21 0.929 . S
C42 C40 1.446 . S
C42 C43 1.332 . S
C43 H23 0.931 . S
C43 C42 1.332 . S
C43 C44 1.267 . S
C44 H12 0.929 . S
C44 C43 1.267 . S
C44 C45 1.251 . S
C45 H15 0.929 . S
C45 N41 1.418 . S
C45 C44 1.251 . S
C46 H13 0.930 . S
C46 C48 1.406 . S
C46 C51 1.261 1_455 S
C47 H14 0.930 1_556 S
C47 N49 1.325 . S
C47 C50 1.357 1_455 S
C48 H16 0.928 . S
C48 C46 1.406 . S
C48 N49 1.261 . S
N49 Co0 2.214 1_556 S
N49 C47 1.325 . S
N49 C48 1.261 . S
C50 H20 0.931 . S
C50 C47 1.357 1_655 S
C50 C51 1.312 . S
C51 H22 0.930 . S
C51 C46 1.261 1_655 S
C51 C50 1.312 . S
C52 O24 1.214 . S
C52 O32 1.234 . S
C53 H25 0.929 1_565 S
C53 C56 1.391 . S
C53 C58 1.391 1_565 S
C54 H26 0.929 . S
C54 C55 1.390 . S
C54 N57 1.391 1_565 S
C55 H27 0.930 . S
C55 C54 1.390 . S
C55 C56 1.392 . S
C56 H28 0.929 . S
C56 C53 1.391 . S
C56 C55 1.392 . S
N57 Co1 2.257 . S
N57 C54 1.391 1_545 S
N57 C58 1.388 . S
C58 H29 0.930 . S
C58 C53 1.391 1_545 S
C58 N57 1.388 . S
Co59 O61 2.143 . S
Co59 O67 2.074 . S
Co59 O70 2.093 . S
Co59 O83 2.097 . S
Co59 N100 2.151 . S
Co59 N108 2.214 . S
Co60 O61 2.160 . S
Co60 O66 2.058 . S
Co60 O76 2.057 . S
Co60 O91 2.037 . S
Co60 N95 2.145 . S
Co60 N116 2.257 . S
O61 Co59 2.143 . S
O61 Co60 2.160 . S
C62 O63 1.278 . S
C62 O70 1.224 . S
O63 C62 1.278 . S
C64 O65 1.245 . S
C64 O76 1.232 . S
O65 C64 1.245 . S
O66 Co60 2.058 . S
O66 C92 1.269 . S
O67 Co59 2.074 . S
O67 C92 1.257 . S
H68 C93 0.930 . S
H69 C99 0.930 1_545 S
O70 Co59 2.093 . S
O70 C62 1.224 . S
H71 C103 0.929 . S
H72 C105 0.930 1_565 S
H73 C106 0.930 . S
H74 C104 0.929 . S
H75 C107 0.928 . S
O76 Co60 2.057 . S
O76 C64 1.232 . S
H77 C96 0.929 . S
H78 C97 0.929 . S
H79 C109 0.931 . S
H80 C101 0.929 . S
H81 C110 0.930 . S
H82 C102 0.931 . S
O83 Co59 2.097 . S
O83 C111 1.214 . S
H84 C112 0.929 . S
H85 C113 0.929 . S
H86 C114 0.930 . S
H87 C115 0.929 . S
H88 C117 0.930 . S
H89 C94 0.930 . S
H90 C98 0.930 . S
O91 Co60 2.037 . S
O91 C111 1.234 . S
C92 O66 1.269 . S
C92 O67 1.257 . S
C93 H68 0.930 . S
C93 C96 1.388 . S
C93 C98 1.418 . S
C94 H89 0.930 . S
C94 C97 1.404 . S
C94 C98 1.353 . S
N95 Co60 2.145 . S
N95 C96 1.397 . S
N95 C97 1.334 . S
C96 H77 0.929 . S
C96 C93 1.388 . S
C96 N95 1.397 . S
C97 H78 0.929 . S
C97 C94 1.404 . S
C97 N95 1.334 . S
C98 H90 0.930 . S
C98 C93 1.418 . S
C98 C94 1.353 . S
C99 H69 0.930 1_565 S
C99 N100 1.330 1_565 S
C99 C101 1.446 . S
N100 Co59 2.151 . S
N100 C99 1.330 1_545 S
N100 C104 1.418 1_545 S
C101 H80 0.929 . S
C101 C99 1.446 . S
C101 C102 1.332 . S
C102 H82 0.931 . S
C102 C101 1.332 . S
C102 C103 1.267 . S
C103 H71 0.929 . S
C103 C102 1.267 . S
C103 C104 1.251 . S
C104 H74 0.929 . S
C104 N100 1.418 1_565 S
C104 C103 1.251 . S
C105 H72 0.930 1_545 S
C105 C107 1.406 . S
C105 C110 1.261 . S
C106 H73 0.930 . S
C106 N108 1.325 . S
C106 C109 1.357 . S
C107 H75 0.928 . S
C107 C105 1.406 . S
C107 N108 1.261 . S
N108 Co59 2.214 . S
N108 C106 1.325 . S
N108 C107 1.261 . S
C109 H79 0.931 . S
C109 C106 1.357 . S
C109 C110 1.312 . S
C110 H81 0.930 . S
C110 C105 1.261 . S
C110 C109 1.312 . S
C111 O83 1.214 . S
C111 O91 1.234 . S
C112 H84 0.929 . S
C112 C115 1.391 . S
C112 C117 1.391 . S
C113 H85 0.929 . S
C113 C114 1.390 . S
C113 N116 1.391 . S
C114 H86 0.930 . S
C114 C113 1.390 . S
C114 C115 1.392 . S
C115 H87 0.929 . S
C115 C112 1.391 . S
C115 C114 1.392 . S
N116 Co60 2.257 . S
N116 C113 1.391 . S
N116 C117 1.388 . S
C117 H88 0.930 . S
C117 C112 1.391 . S
C117 N116 1.388 . S
Co118 O120 2.143 . S
Co118 O126 2.074 . S
Co118 O129 2.093 1_556 S
Co118 O142 2.097 . S
Co118 N159 2.151 . S
Co118 N167 2.214 1_556 S
Co119 O120 2.160 . S
Co119 O125 2.058 . S
Co119 O135 2.057 . S
Co119 O150 2.037 . S
Co119 N154 2.145 . S
Co119 N175 2.257 . S
O120 Co118 2.143 . S
O120 Co119 2.160 . S
C121 O122 1.278 1_554 S
C121 O129 1.224 . S
O122 C121 1.278 1_556 S
C123 O124 1.245 . S
C123 O135 1.232 . S
O124 C123 1.245 . S
O125 Co119 2.058 . S
O125 C151 1.269 . S
O126 Co118 2.074 . S
O126 C151 1.257 . S
H127 C152 0.930 . S
H128 C158 0.930 1_545 S
O129 Co118 2.093 1_554 S
O129 C121 1.224 . S
H130 C162 0.929 . S
H131 C164 0.930 1_565 S
H132 C165 0.930 1_556 S
H133 C163 0.929 . S
H134 C166 0.928 . S
O135 Co119 2.057 . S
O135 C123 1.232 . S
H136 C155 0.929 . S
H137 C156 0.929 . S
H138 C168 0.931 . S
H139 C160 0.929 . S
H140 C169 0.930 . S
H141 C161 0.931 . S
O142 Co118 2.097 . S
O142 C170 1.214 . S
H143 C171 0.929 . S
H144 C172 0.929 . S
H145 C173 0.930 . S
H146 C174 0.929 . S
H147 C176 0.930 . S
H148 C153 0.930 . S
H149 C157 0.930 . S
O150 Co119 2.037 . S
O150 C170 1.234 . S
C151 O125 1.269 . S
C151 O126 1.257 . S
C152 H127 0.930 . S
C152 C155 1.388 . S
C152 C157 1.418 . S
C153 H148 0.930 . S
C153 C156 1.404 . S
C153 C157 1.353 . S
N154 Co119 2.145 . S
N154 C155 1.397 . S
N154 C156 1.334 . S
C155 H136 0.929 . S
C155 C152 1.388 . S
C155 N154 1.397 . S
C156 H137 0.929 . S
C156 C153 1.404 . S
C156 N154 1.334 . S
C157 H149 0.930 . S
C157 C152 1.418 . S
C157 C153 1.353 . S
C158 H128 0.930 1_565 S
C158 N159 1.330 1_565 S
C158 C160 1.446 . S
N159 Co118 2.151 . S
N159 C158 1.330 1_545 S
N159 C163 1.418 1_545 S
C160 H139 0.929 . S
C160 C158 1.446 . S
C160 C161 1.332 . S
C161 H141 0.931 . S
C161 C160 1.332 . S
C161 C162 1.267 . S
C162 H130 0.929 . S
C162 C161 1.267 . S
C162 C163 1.251 . S
C163 H133 0.929 . S
C163 N159 1.418 1_565 S
C163 C162 1.251 . S
C164 H131 0.930 1_545 S
C164 C166 1.406 . S
C164 C169 1.261 . S
C165 H132 0.930 1_554 S
C165 N167 1.325 . S
C165 C168 1.357 . S
C166 H134 0.928 . S
C166 C164 1.406 . S
C166 N167 1.261 . S
N167 Co118 2.214 1_554 S
N167 C165 1.325 . S
N167 C166 1.261 . S
C168 H138 0.931 . S
C168 C165 1.357 . S
C168 C169 1.312 . S
C169 H140 0.930 . S
C169 C164 1.261 . S
C169 C168 1.312 . S
C170 O142 1.214 . S
C170 O150 1.234 . S
C171 H143 0.929 . S
C171 C174 1.391 . S
C171 C176 1.391 . S
C172 H144 0.929 . S
C172 C173 1.390 . S
C172 N175 1.391 . S
C173 H145 0.930 . S
C173 C172 1.390 . S
C173 C174 1.392 . S
C174 H146 0.929 . S
C174 C171 1.391 . S
C174 C173 1.392 . S
N175 Co119 2.257 . S
N175 C172 1.391 . S
N175 C176 1.388 . S
C176 H147 0.930 . S
C176 C171 1.391 . S
C176 N175 1.388 . S
Co177 O179 2.143 . S
Co177 O185 2.074 . S
Co177 O188 2.093 . S
Co177 O201 2.097 . S
Co177 N218 2.151 . S
Co177 N226 2.214 . S
Co178 O179 2.160 . S
Co178 O184 2.058 . S
Co178 O194 2.057 . S
Co178 O209 2.037 . S
Co178 N213 2.145 . S
Co178 N234 2.257 . S
O179 Co177 2.143 . S
O179 Co178 2.160 . S
C180 O181 1.278 . S
C180 O188 1.224 . S
O181 C180 1.278 . S
C182 O183 1.245 . S
C182 O194 1.232 . S
O183 C182 1.245 . S
O184 Co178 2.058 . S
O184 C210 1.269 . S
O185 Co177 2.074 . S
O185 C210 1.257 . S
H186 C211 0.930 . S
H187 C217 0.930 . S
O188 Co177 2.093 . S
O188 C180 1.224 . S
H189 C221 0.929 . S
H190 C223 0.930 . S
H191 C224 0.930 . S
H192 C222 0.929 . S
H193 C225 0.928 . S
O194 Co178 2.057 . S
O194 C182 1.232 . S
H195 C214 0.929 1_545 S
H196 C215 0.929 . S
H197 C227 0.931 . S
H198 C219 0.929 . S
H199 C228 0.930 . S
H200 C220 0.931 . S
O201 Co177 2.097 . S
O201 C229 1.214 . S
H202 C230 0.929 1_545 S
H203 C231 0.929 . S
H204 C232 0.930 . S
H205 C233 0.929 . S
H206 C235 0.930 . S
H207 C212 0.930 . S
H208 C216 0.930 . S
O209 Co178 2.037 . S
O209 C229 1.234 . S
C210 O184 1.269 . S
C210 O185 1.257 . S
C211 H186 0.930 . S
C211 C214 1.388 . S
C211 C216 1.418 . S
C212 H207 0.930 . S
C212 C215 1.404 1_565 S
C212 C216 1.353 . S
N213 Co178 2.145 . S
N213 C214 1.397 1_545 S
N213 C215 1.334 . S
C214 H195 0.929 1_565 S
C214 C211 1.388 . S
C214 N213 1.397 1_565 S
C215 H196 0.929 . S
C215 C212 1.404 1_545 S
C215 N213 1.334 . S
C216 H208 0.930 . S
C216 C211 1.418 . S
C216 C212 1.353 . S
C217 H187 0.930 . S
C217 N218 1.330 . S
C217 C219 1.446 . S
N218 Co177 2.151 . S
N218 C217 1.330 . S
N218 C222 1.418 . S
C219 H198 0.929 . S
C219 C217 1.446 . S
C219 C220 1.332 . S
C220 H200 0.931 . S
C220 C219 1.332 . S
C220 C221 1.267 . S
C221 H189 0.929 . S
C221 C220 1.267 . S
C221 C222 1.251 . S
C222 H192 0.929 . S
C222 N218 1.418 . S
C222 C221 1.251 . S
C223 H190 0.930 . S
C223 C225 1.406 . S
C223 C228 1.261 1_655 S
C224 H191 0.930 . S
C224 N226 1.325 . S
C224 C227 1.357 1_655 S
C225 H193 0.928 . S
C225 C223 1.406 . S
C225 N226 1.261 . S
N226 Co177 2.214 . S
N226 C224 1.325 . S
N226 C225 1.261 . S
C227 H197 0.931 . S
C227 C224 1.357 1_455 S
C227 C228 1.312 . S
C228 H199 0.930 . S
C228 C223 1.261 1_455 S
C228 C227 1.312 . S
C229 O201 1.214 . S
C229 O209 1.234 . S
C230 H202 0.929 1_565 S
C230 C233 1.391 . S
C230 C235 1.391 1_565 S
C231 H203 0.929 . S
C231 C232 1.390 . S
C231 N234 1.391 1_565 S
C232 H204 0.930 . S
C232 C231 1.390 . S
C232 C233 1.392 . S
C233 H205 0.929 . S
C233 C230 1.391 . S
C233 C232 1.392 . S
N234 Co178 2.257 . S
N234 C231 1.391 1_545 S
N234 C235 1.388 . S
C235 H206 0.930 . S
C235 C230 1.391 1_545 S
C235 N234 1.388 . S
Co236 O238 2.143 . S
Co236 O244 2.074 . S
Co236 O247 2.093 . S
Co236 O260 2.097 . S
Co236 N277 2.151 . S
Co236 N285 2.214 . S
Co237 O238 2.160 . S
Co237 O243 2.058 . S
Co237 O253 2.057 1_556 S
Co237 O268 2.037 . S
Co237 N272 2.145 1_556 S
Co237 N293 2.257 . S
O238 Co236 2.143 . S
O238 Co237 2.160 . S
C239 O240 1.278 . S
C239 O247 1.224 . S
O240 C239 1.278 . S
C241 O242 1.245 1_554 S
C241 O253 1.232 . S
O242 C241 1.245 1_556 S
O243 Co237 2.058 . S
O243 C269 1.269 . S
O244 Co236 2.074 . S
O244 C269 1.257 . S
H245 C270 0.930 . S
H246 C276 0.930 . S
O247 Co236 2.093 . S
O247 C239 1.224 . S
H248 C280 0.929 . S
H249 C282 0.930 . S
H250 C283 0.930 . S
H251 C281 0.929 . S
H252 C284 0.928 . S
O253 Co237 2.057 1_554 S
O253 C241 1.232 . S
H254 C273 0.929 1_556 S
H255 C274 0.929 . S
H256 C286 0.931 1_455 S
H257 C278 0.929 . S
H258 C287 0.930 . S
H259 C279 0.931 . S
O260 Co236 2.097 . S
O260 C288 1.214 . S
H261 C289 0.929 . S
H262 C290 0.929 . S
H263 C291 0.930 . S
H264 C292 0.929 . S
H265 C294 0.930 . S
H266 C271 0.930 . S
H267 C275 0.930 1_455 S
O268 Co237 2.037 . S
O268 C288 1.234 . S
C269 O243 1.269 . S
C269 O244 1.257 . S
C270 H245 0.930 . S
C270 C273 1.388 1_455 S
C270 C275 1.418 1_455 S
C271 H266 0.930 . S
C271 C274 1.404 . S
C271 C275 1.353 . S
N272 Co237 2.145 1_554 S
N272 C273 1.397 . S
N272 C274 1.334 . S
C273 H254 0.929 1_554 S
C273 C270 1.388 1_655 S
C273 N272 1.397 . S
C274 H255 0.929 . S
C274 C271 1.404 . S
C274 N272 1.334 . S
C275 H267 0.930 1_655 S
C275 C270 1.418 1_655 S
C275 C271 1.353 . S
C276 H246 0.930 . S
C276 N277 1.330 . S
C276 C278 1.446 1_565 S
N277 Co236 2.151 . S
N277 C276 1.330 . S
N277 C281 1.418 1_565 S
C278 H257 0.929 . S
C278 C276 1.446 1_545 S
C278 C279 1.332 . S
C279 H259 0.931 . S
C279 C278 1.332 . S
C279 C280 1.267 . S
C280 H248 0.929 . S
C280 C279 1.267 . S
C280 C281 1.251 . S
C281 H251 0.929 . S
C281 N277 1.418 1_545 S
C281 C280 1.251 . S
C282 H249 0.930 . S
C282 C284 1.406 . S
C282 C287 1.261 . S
C283 H250 0.930 . S
C283 N285 1.325 . S
C283 C286 1.357 1_565 S
C284 H252 0.928 . S
C284 C282 1.406 . S
C284 N285 1.261 1_545 S
N285 Co236 2.214 . S
N285 C283 1.325 . S
N285 C284 1.261 1_565 S
C286 H256 0.931 1_655 S
C286 C283 1.357 1_545 S
C286 C287 1.312 . S
C287 H258 0.930 . S
C287 C282 1.261 . S
C287 C286 1.312 . S
C288 O260 1.214 . S
C288 O268 1.234 . S
C289 H261 0.929 . S
C289 C292 1.391 . S
C289 C294 1.391 . S
C290 H262 0.929 . S
C290 C291 1.390 . S
C290 N293 1.391 . S
C291 H263 0.930 . S
C291 C290 1.390 . S
C291 C292 1.392 . S
C292 H264 0.929 . S
C292 C289 1.391 . S
C292 C291 1.392 . S
N293 Co237 2.257 . S
N293 C290 1.391 . S
N293 C294 1.388 . S
C294 H265 0.930 . S
C294 C289 1.391 . S
C294 N293 1.388 . S
Co295 O297 2.143 . S
Co295 O303 2.074 . S
Co295 O306 2.093 . S
Co295 O319 2.097 . S
Co295 N336 2.151 . S
Co295 N344 2.214 . S
Co296 O297 2.160 . S
Co296 O302 2.058 . S
Co296 O312 2.057 . S
Co296 O327 2.037 . S
Co296 N331 2.145 . S
Co296 N352 2.257 . S
O297 Co295 2.143 . S
O297 Co296 2.160 . S
C298 O299 1.278 . S
C298 O306 1.224 . S
O299 C298 1.278 . S
C300 O301 1.245 . S
C300 O312 1.232 . S
O301 C300 1.245 . S
O302 Co296 2.058 . S
O302 C328 1.269 . S
O303 Co295 2.074 . S
O303 C328 1.257 . S
H304 C329 0.930 . S
H305 C335 0.930 . S
O306 Co295 2.093 . S
O306 C298 1.224 . S
H307 C339 0.929 . S
H308 C341 0.930 . S
H309 C342 0.930 . S
H310 C340 0.929 . S
H311 C343 0.928 . S
O312 Co296 2.057 . S
O312 C300 1.232 . S
H313 C332 0.929 . S
H314 C333 0.929 . S
H315 C345 0.931 . S
H316 C337 0.929 . S
H317 C346 0.930 . S
H318 C338 0.931 . S
O319 Co295 2.097 . S
O319 C347 1.214 . S
H320 C348 0.929 . S
H321 C349 0.929 . S
H322 C350 0.930 . S
H323 C351 0.929 . S
H324 C353 0.930 . S
H325 C330 0.930 . S
H326 C334 0.930 . S
O327 Co296 2.037 . S
O327 C347 1.234 . S
C328 O302 1.269 . S
C328 O303 1.257 . S
C329 H304 0.930 . S
C329 C332 1.388 . S
C329 C334 1.418 1_565 S
C330 H325 0.930 . S
C330 C333 1.404 1_545 S
C330 C334 1.353 . S
N331 Co296 2.145 . S
N331 C332 1.397 . S
N331 C333 1.334 . S
C332 H313 0.929 . S
C332 C329 1.388 . S
C332 N331 1.397 . S
C333 H314 0.929 . S
C333 C330 1.404 1_565 S
C333 N331 1.334 . S
C334 H326 0.930 . S
C334 C329 1.418 1_545 S
C334 C330 1.353 . S
C335 H305 0.930 . S
C335 N336 1.330 . S
C335 C337 1.446 . S
N336 Co295 2.151 . S
N336 C335 1.330 . S
N336 C340 1.418 . S
C337 H316 0.929 . S
C337 C335 1.446 . S
C337 C338 1.332 . S
C338 H318 0.931 . S
C338 C337 1.332 . S
C338 C339 1.267 . S
C339 H307 0.929 . S
C339 C338 1.267 . S
C339 C340 1.251 . S
C340 H310 0.929 . S
C340 N336 1.418 . S
C340 C339 1.251 . S
C341 H308 0.930 . S
C341 C343 1.406 . S
C341 C346 1.261 . S
C342 H309 0.930 . S
C342 N344 1.325 . S
C342 C345 1.357 . S
C343 H311 0.928 . S
C343 C341 1.406 . S
C343 N344 1.261 . S
N344 Co295 2.214 . S
N344 C342 1.325 . S
N344 C343 1.261 . S
C345 H315 0.931 . S
C345 C342 1.357 . S
C345 C346 1.312 . S
C346 H317 0.930 . S
C346 C341 1.261 . S
C346 C345 1.312 . S
C347 O319 1.214 . S
C347 O327 1.234 . S
C348 H320 0.929 . S
C348 C351 1.391 . S
C348 C353 1.391 1_545 S
C349 H321 0.929 . S
C349 C350 1.390 . S
C349 N352 1.391 1_545 S
C350 H322 0.930 . S
C350 C349 1.390 . S
C350 C351 1.392 . S
C351 H323 0.929 . S
C351 C348 1.391 . S
C351 C350 1.392 . S
N352 Co296 2.257 . S
N352 C349 1.391 1_565 S
N352 C353 1.388 . S
C353 H324 0.930 . S
C353 C348 1.391 1_565 S
C353 N352 1.388 . S
Co354 O356 2.143 . S
Co354 O362 2.074 . S
Co354 O365 2.093 . S
Co354 O378 2.097 . S
Co354 N395 2.151 . S
Co354 N403 2.214 . S
Co355 O356 2.160 . S
Co355 O361 2.058 . S
Co355 O371 2.057 1_554 S
Co355 O386 2.037 . S
Co355 N390 2.145 1_554 S
Co355 N411 2.257 . S
O356 Co354 2.143 . S
O356 Co355 2.160 . S
C357 O358 1.278 . S
C357 O365 1.224 . S
O358 C357 1.278 . S
C359 O360 1.245 1_556 S
C359 O371 1.232 . S
O360 C359 1.245 1_554 S
O361 Co355 2.058 . S
O361 C387 1.269 . S
O362 Co354 2.074 . S
O362 C387 1.257 . S
H363 C388 0.930 . S
H364 C394 0.930 . S
O365 Co354 2.093 . S
O365 C357 1.224 . S
H366 C398 0.929 . S
H367 C400 0.930 . S
H368 C401 0.930 . S
H369 C399 0.929 . S
H370 C402 0.928 . S
O371 Co355 2.057 1_556 S
O371 C359 1.232 . S
H372 C391 0.929 1_554 S
H373 C392 0.929 . S
H374 C404 0.931 . S
H375 C396 0.929 . S
H376 C405 0.930 . S
H377 C397 0.931 . S
O378 Co354 2.097 . S
O378 C406 1.214 . S
H379 C407 0.929 . S
H380 C408 0.929 . S
H381 C409 0.930 . S
H382 C410 0.929 . S
H383 C412 0.930 . S
H384 C389 0.930 . S
H385 C393 0.930 . S
O386 Co355 2.037 . S
O386 C406 1.234 . S
C387 O361 1.269 . S
C387 O362 1.257 . S
C388 H363 0.930 . S
C388 C391 1.388 . S
C388 C393 1.418 1_565 S
C389 H384 0.930 . S
C389 C392 1.404 1_545 S
C389 C393 1.353 . S
N390 Co355 2.145 1_556 S
N390 C391 1.397 . S
N390 C392 1.334 . S
C391 H372 0.929 1_556 S
C391 C388 1.388 . S
C391 N390 1.397 . S
C392 H373 0.929 . S
C392 C389 1.404 1_565 S
C392 N390 1.334 . S
C393 H385 0.930 . S
C393 C388 1.418 1_545 S
C393 C389 1.353 . S
C394 H364 0.930 . S
C394 N395 1.330 . S
C394 C396 1.446 . S
N395 Co354 2.151 . S
N395 C394 1.330 . S
N395 C399 1.418 . S
C396 H375 0.929 . S
C396 C394 1.446 . S
C396 C397 1.332 . S
C397 H377 0.931 . S
C397 C396 1.332 . S
C397 C398 1.267 . S
C398 H366 0.929 . S
C398 C397 1.267 . S
C398 C399 1.251 . S
C399 H369 0.929 . S
C399 N395 1.418 . S
C399 C398 1.251 . S
C400 H367 0.930 . S
C400 C402 1.406 . S
C400 C405 1.261 . S
C401 H368 0.930 . S
C401 N403 1.325 . S
C401 C404 1.357 . S
C402 H370 0.928 . S
C402 C400 1.406 . S
C402 N403 1.261 . S
N403 Co354 2.214 . S
N403 C401 1.325 . S
N403 C402 1.261 . S
C404 H374 0.931 . S
C404 C401 1.357 . S
C404 C405 1.312 . S
C405 H376 0.930 . S
C405 C400 1.261 . S
C405 C404 1.312 . S
C406 O378 1.214 . S
C406 O386 1.234 . S
C407 H379 0.929 . S
C407 C410 1.391 . S
C407 C412 1.391 1_545 S
C408 H380 0.929 . S
C408 C409 1.390 . S
C408 N411 1.391 1_545 S
C409 H381 0.930 . S
C409 C408 1.390 . S
C409 C410 1.392 . S
C410 H382 0.929 . S
C410 C407 1.391 . S
C410 C409 1.392 . S
N411 Co355 2.257 . S
N411 C408 1.391 1_565 S
N411 C412 1.388 . S
C412 H383 0.930 . S
C412 C407 1.391 1_565 S
C412 N411 1.388 . S
Co413 O415 2.143 . S
Co413 O421 2.074 . S
Co413 O424 2.093 . S
Co413 O437 2.097 . S
Co413 N454 2.151 . S
Co413 N462 2.214 . S
Co414 O415 2.160 . S
Co414 O420 2.058 . S
Co414 O430 2.057 . S
Co414 O445 2.037 . S
Co414 N449 2.145 . S
Co414 N470 2.257 . S
O415 Co413 2.143 . S
O415 Co414 2.160 . S
C416 O417 1.278 . S
C416 O424 1.224 . S
O417 C416 1.278 . S
C418 O419 1.245 . S
C418 O430 1.232 . S
O419 C418 1.245 . S
O420 Co414 2.058 . S
O420 C446 1.269 . S
O421 Co413 2.074 . S
O421 C446 1.257 . S
H422 C447 0.930 . S
H423 C453 0.930 . S
O424 Co413 2.093 . S
O424 C416 1.224 . S
H425 C457 0.929 . S
H426 C459 0.930 . S
H427 C460 0.930 . S
H428 C458 0.929 . S
H429 C461 0.928 . S
O430 Co414 2.057 . S
O430 C418 1.232 . S
H431 C450 0.929 . S
H432 C451 0.929 . S
H433 C463 0.931 1_655 S
H434 C455 0.929 . S
H435 C464 0.930 . S
H436 C456 0.931 . S
O437 Co413 2.097 . S
O437 C465 1.214 . S
H438 C466 0.929 . S
H439 C467 0.929 . S
H440 C468 0.930 . S
H441 C469 0.929 . S
H442 C471 0.930 . S
H443 C448 0.930 . S
H444 C452 0.930 1_655 S
O445 Co414 2.037 . S
O445 C465 1.234 . S
C446 O420 1.269 . S
C446 O421 1.257 . S
C447 H422 0.930 . S
C447 C450 1.388 1_655 S
C447 C452 1.418 1_655 S
C448 H443 0.930 . S
C448 C451 1.404 . S
C448 C452 1.353 . S
N449 Co414 2.145 . S
N449 C450 1.397 . S
N449 C451 1.334 . S
C450 H431 0.929 . S
C450 C447 1.388 1_455 S
C450 N449 1.397 . S
C451 H432 0.929 . S
C451 C448 1.404 . S
C451 N449 1.334 . S
C452 H444 0.930 1_455 S
C452 C447 1.418 1_455 S
C452 C448 1.353 . S
C453 H423 0.930 . S
C453 N454 1.330 . S
C453 C455 1.446 1_565 S
N454 Co413 2.151 . S
N454 C453 1.330 . S
N454 C458 1.418 1_565 S
C455 H434 0.929 . S
C455 C453 1.446 1_545 S
C455 C456 1.332 . S
C456 H436 0.931 . S
C456 C455 1.332 . S
C456 C457 1.267 . S
C457 H425 0.929 . S
C457 C456 1.267 . S
C457 C458 1.251 . S
C458 H428 0.929 . S
C458 N454 1.418 1_545 S
C458 C457 1.251 . S
C459 H426 0.930 . S
C459 C461 1.406 . S
C459 C464 1.261 . S
C460 H427 0.930 . S
C460 N462 1.325 . S
C460 C463 1.357 1_565 S
C461 H429 0.928 . S
C461 C459 1.406 . S
C461 N462 1.261 1_545 S
N462 Co413 2.214 . S
N462 C460 1.325 . S
N462 C461 1.261 1_565 S
C463 H433 0.931 1_455 S
C463 C460 1.357 1_545 S
C463 C464 1.312 . S
C464 H435 0.930 . S
C464 C459 1.261 . S
C464 C463 1.312 . S
C465 O437 1.214 . S
C465 O445 1.234 . S
C466 H438 0.929 . S
C466 C469 1.391 . S
C466 C471 1.391 . S
C467 H439 0.929 . S
C467 C468 1.390 . S
C467 N470 1.391 . S
C468 H440 0.930 . S
C468 C467 1.390 . S
C468 C469 1.392 . S
C469 H441 0.929 . S
C469 C466 1.391 . S
C469 C468 1.392 . S
N470 Co414 2.257 . S
N470 C467 1.391 . S
N470 C471 1.388 . S
C471 H442 0.930 . S
C471 C466 1.391 . S
C471 N470 1.388 . S
C472 C473 1.363 . S
C472 C478 1.379 . S
C472 N480 1.356 . S
C473 C472 1.363 . S
C473 C479 1.363 . S
C474 C475 1.363 . S
C474 C479 1.379 . S
C474 N481 1.356 . S
C475 C474 1.363 . S
C475 C478 1.363 . S
N476 C478 1.356 . S
N476 H488 0.984 . S
N476 H489 0.985 . S
N477 C479 1.356 . S
N477 H482 0.984 . S
N477 H483 0.985 . S
C478 C472 1.379 . S
C478 C475 1.363 . S
C478 N476 1.356 . S
C479 C473 1.363 . S
C479 C474 1.379 . S
C479 N477 1.356 . S
N480 C472 1.356 . S
N480 H486 0.984 . S
N480 H487 0.984 . S
N481 C474 1.356 . S
N481 H484 0.984 . S
N481 H485 0.985 . S
H482 N477 0.984 . S
H483 N477 0.985 . S
H484 N481 0.984 . S
H485 N481 0.985 . S
H486 N480 0.984 . S
H487 N480 0.984 . S
H488 N476 0.984 . S
H489 N476 0.985 . S
C490 C491 1.363 . S
C490 C496 1.379 . S
C490 N498 1.356 . S
C491 C490 1.363 . S
C491 C497 1.363 . S
C492 C493 1.363 . S
C492 C497 1.379 . S
C492 N499 1.356 . S
C493 C492 1.363 . S
C493 C496 1.363 . S
N494 C496 1.356 . S
N494 H506 0.984 . S
N494 H507 0.985 . S
N495 C497 1.356 . S
N495 H500 0.984 . S
N495 H501 0.985 . S
C496 C490 1.379 . S
C496 C493 1.363 . S
C496 N494 1.356 . S
C497 C491 1.363 . S
C497 C492 1.379 . S
C497 N495 1.356 . S
N498 C490 1.356 . S
N498 H504 0.984 . S
N498 H505 0.984 . S
N499 C492 1.356 . S
N499 H502 0.984 . S
N499 H503 0.985 . S
H500 N495 0.984 . S
H501 N495 0.985 . S
H502 N499 0.984 . S
H503 N499 0.985 . S
H504 N498 0.984 . S
H505 N498 0.984 . S
H506 N494 0.984 . S
H507 N494 0.985 . S
C508 C509 1.363 . S
C508 C514 1.379 . S
C508 N516 1.356 . S
C509 C508 1.363 . S
C509 C515 1.363 . S
C510 C511 1.363 . S
C510 C515 1.379 . S
C510 N517 1.356 . S
C511 C510 1.363 . S
C511 C514 1.363 . S
N512 C514 1.356 . S
N512 H524 0.984 . S
N512 H525 0.985 . S
N513 C515 1.356 . S
N513 H518 0.984 . S
N513 H519 0.985 . S
C514 C508 1.379 . S
C514 C511 1.363 . S
C514 N512 1.356 . S
C515 C509 1.363 . S
C515 C510 1.379 . S
C515 N513 1.356 . S
N516 C508 1.356 . S
N516 H522 0.984 . S
N516 H523 0.984 . S
N517 C510 1.356 . S
N517 H520 0.984 . S
N517 H521 0.985 . S
H518 N513 0.984 . S
H519 N513 0.985 . S
H520 N517 0.984 . S
H521 N517 0.985 . S
H522 N516 0.984 . S
H523 N516 0.984 . S
H524 N512 0.984 . S
H525 N512 0.985 . S
C526 C527 1.363 . S
C526 C532 1.379 . S
C526 N534 1.356 . S
C527 C526 1.363 . S
C527 C533 1.363 . S
C528 C529 1.363 . S
C528 C533 1.379 . S
C528 N535 1.356 . S
C529 C528 1.363 . S
C529 C532 1.363 . S
N530 C532 1.356 . S
N530 H542 0.984 . S
N530 H543 0.985 . S
N531 C533 1.356 . S
N531 H536 0.984 . S
N531 H537 0.985 . S
C532 C526 1.379 . S
C532 C529 1.363 . S
C532 N530 1.356 . S
C533 C527 1.363 . S
C533 C528 1.379 . S
C533 N531 1.356 . S
N534 C526 1.356 . S
N534 H540 0.984 . S
N534 H541 0.984 . S
N535 C528 1.356 . S
N535 H538 0.984 . S
N535 H539 0.985 . S
H536 N531 0.984 . S
H537 N531 0.985 . S
H538 N535 0.984 . S
H539 N535 0.985 . S
H540 N534 0.984 . S
H541 N534 0.984 . S
H542 N530 0.984 . S
H543 N530 0.985 . S
C544 C545 1.363 . S
C544 C550 1.379 . S
C544 N552 1.356 . S
C545 C544 1.363 . S
C545 C551 1.363 . S
C546 C547 1.363 . S
C546 C551 1.379 . S
C546 N553 1.356 . S
C547 C546 1.363 . S
C547 C550 1.363 . S
N548 C550 1.356 . S
N548 H560 0.984 . S
N548 H561 0.985 . S
N549 C551 1.356 . S
N549 H554 0.984 . S
N549 H555 0.985 . S
C550 C544 1.379 . S
C550 C547 1.363 . S
C550 N548 1.356 . S
C551 C545 1.363 . S
C551 C546 1.379 . S
C551 N549 1.356 . S
N552 C544 1.356 . S
N552 H558 0.984 . S
N552 H559 0.984 . S
N553 C546 1.356 . S
N553 H556 0.984 . S
N553 H557 0.985 . S
H554 N549 0.984 . S
H555 N549 0.985 . S
H556 N553 0.984 . S
H557 N553 0.985 . S
H558 N552 0.984 . S
H559 N552 0.984 . S
H560 N548 0.984 . S
H561 N548 0.985 . S
C562 C563 1.363 . S
C562 C568 1.379 . S
C562 N570 1.356 . S
C563 C562 1.363 . S
C563 C569 1.363 . S
C564 C565 1.363 . S
C564 C569 1.379 . S
C564 N571 1.356 . S
C565 C564 1.363 . S
C565 C568 1.363 . S
N566 C568 1.356 . S
N566 H578 0.984 . S
N566 H579 0.985 . S
N567 C569 1.356 . S
N567 H572 0.984 . S
N567 H573 0.985 . S
C568 C562 1.379 . S
C568 C565 1.363 . S
C568 N566 1.356 . S
C569 C563 1.363 . S
C569 C564 1.379 . S
C569 N567 1.356 . S
N570 C562 1.356 . S
N570 H576 0.984 . S
N570 H577 0.984 . S
N571 C564 1.356 . S
N571 H574 0.984 . S
N571 H575 0.985 . S
H572 N567 0.984 . S
H573 N567 0.985 . S
H574 N571 0.984 . S
H575 N571 0.985 . S
H576 N570 0.984 . S
H577 N570 0.984 . S
H578 N566 0.984 . S
H579 N566 0.985 . S
C580 C581 1.363 . S
C580 C586 1.379 . S
C580 N588 1.356 . S
C581 C580 1.363 . S
C581 C587 1.363 . S
C582 C583 1.363 . S
C582 C587 1.379 . S
C582 N589 1.356 . S
C583 C582 1.363 . S
C583 C586 1.363 . S
N584 C586 1.356 . S
N584 H596 0.984 . S
N584 H597 0.985 . S
N585 C587 1.356 . S
N585 H590 0.984 . S
N585 H591 0.985 . S
C586 C580 1.379 . S
C586 C583 1.363 . S
C586 N584 1.356 . S
C587 C581 1.363 . S
C587 C582 1.379 . S
C587 N585 1.356 . S
N588 C580 1.356 . S
N588 H594 0.984 . S
N588 H595 0.984 . S
N589 C582 1.356 . S
N589 H592 0.984 . S
N589 H593 0.985 . S
H590 N585 0.984 . S
H591 N585 0.985 . S
H592 N589 0.984 . S
H593 N589 0.985 . S
H594 N588 0.984 . S
H595 N588 0.984 . S
H596 N584 0.984 . S
H597 N584 0.985 . S
C598 C599 1.363 . S
C598 C604 1.379 . S
C598 N606 1.356 . S
C599 C598 1.363 . S
C599 C605 1.363 . S
C600 C601 1.363 . S
C600 C605 1.379 . S
C600 N607 1.356 . S
C601 C600 1.363 . S
C601 C604 1.363 . S
N602 C604 1.356 . S
N602 H614 0.984 . S
N602 H615 0.985 . S
N603 C605 1.356 . S
N603 H608 0.984 . S
N603 H609 0.985 . S
C604 C598 1.379 . S
C604 C601 1.363 . S
C604 N602 1.356 . S
C605 C599 1.363 . S
C605 C600 1.379 . S
C605 N603 1.356 . S
N606 C598 1.356 . S
N606 H612 0.984 . S
N606 H613 0.984 . S
N607 C600 1.356 . S
N607 H610 0.984 . S
N607 H611 0.985 . S
H608 N603 0.984 . S
H609 N603 0.985 . S
H610 N607 0.984 . S
H611 N607 0.985 . S
H612 N606 0.984 . S
H613 N606 0.984 . S
H614 N602 0.984 . S
H615 N602 0.985 . S
C616 C617 1.363 . S
C616 C622 1.379 1_455 S
C616 N624 1.356 . S
C617 C616 1.363 . S
C617 C623 1.363 . S
C618 C619 1.363 . S
C618 C623 1.379 1_655 S
C618 N625 1.356 . S
C619 C618 1.363 . S
C619 C622 1.363 . S
N620 C622 1.356 . S
N620 H632 0.973 1_655 S
N620 H633 0.985 . S
N621 C623 1.356 . S
N621 H626 0.984 . S
N621 H627 0.973 1_455 S
C622 C616 1.379 1_655 S
C622 C619 1.363 . S
C622 N620 1.356 . S
C623 C617 1.363 . S
C623 C618 1.379 1_455 S
C623 N621 1.356 . S
N624 C616 1.356 . S
N624 H630 0.984 . S
N624 H631 0.984 . S
N625 C618 1.356 . S
N625 H628 0.984 . S
N625 H629 0.985 . S
H626 N621 0.984 . S
H627 N621 0.973 1_655 S
H628 N625 0.984 . S
H629 N625 0.985 . S
H630 N624 0.984 . S
H631 N624 0.984 . S
H632 N620 0.973 1_455 S
H633 N620 0.985 . S
C634 C635 1.363 . S
C634 C640 1.379 . S
C634 N642 1.356 . S
C635 C634 1.363 . S
C635 C641 1.363 . S
C636 C637 1.363 . S
C636 C641 1.379 . S
C636 N643 1.356 . S
C637 C636 1.363 . S
C637 C640 1.363 . S
N638 C640 1.356 . S
N638 H650 0.984 1_545 S
N638 H651 0.985 . S
N639 C641 1.356 . S
N639 H644 0.984 . S
N639 H645 0.985 . S
C640 C634 1.379 . S
C640 C637 1.363 . S
C640 N638 1.356 . S
C641 C635 1.363 . S
C641 C636 1.379 . S
C641 N639 1.356 . S
N642 C634 1.356 . S
N642 H648 0.984 1_545 S
N642 H649 0.984 . S
N643 C636 1.356 . S
N643 H646 0.984 . S
N643 H647 0.985 . S
H644 N639 0.984 . S
H645 N639 0.985 . S
H646 N643 0.984 . S
H647 N643 0.985 . S
H648 N642 0.984 1_565 S
H649 N642 0.984 . S
H650 N638 0.984 1_565 S
H651 N638 0.985 . S
C652 C653 1.363 . S
C652 C658 1.379 1_455 S
C652 N660 1.356 . S
C653 C652 1.363 . S
C653 C659 1.363 . S
C654 C655 1.363 . S
C654 C659 1.379 1_655 S
C654 N661 1.356 . S
C655 C654 1.363 . S
C655 C658 1.363 . S
N656 C658 1.356 . S
N656 H668 0.984 1_655 S
N656 H669 0.985 . S
N657 C659 1.356 . S
N657 H662 0.984 . S
N657 H663 0.985 1_455 S
C658 C652 1.379 1_655 S
C658 C655 1.363 . S
C658 N656 1.356 . S
C659 C653 1.363 . S
C659 C654 1.379 1_455 S
C659 N657 1.356 . S
N660 C652 1.356 . S
N660 H666 0.984 . S
N660 H667 0.984 . S
N661 C654 1.356 . S
N661 H664 0.984 . S
N661 H665 0.985 . S
H662 N657 0.984 . S
H663 N657 0.985 1_655 S
H664 N661 0.984 . S
H665 N661 0.985 . S
H666 N660 0.984 . S
H667 N660 0.984 . S
H668 N656 0.984 1_455 S
H669 N656 0.985 . S
C670 C671 1.363 . S
C670 C676 1.379 . S
C670 N678 1.356 . S
C671 C670 1.363 . S
C671 C677 1.363 . S
C672 C673 1.363 . S
C672 C677 1.379 . S
C672 N679 1.356 . S
C673 C672 1.363 . S
C673 C676 1.363 . S
N674 C676 1.356 . S
N674 H686 0.984 1_565 S
N674 H687 0.985 . S
N675 C677 1.356 . S
N675 H680 0.984 . S
N675 H681 0.985 . S
C676 C670 1.379 . S
C676 C673 1.363 . S
C676 N674 1.356 . S
C677 C671 1.363 . S
C677 C672 1.379 . S
C677 N675 1.356 . S
N678 C670 1.356 . S
N678 H684 0.984 1_565 S
N678 H685 0.984 . S
N679 C672 1.356 . S
N679 H682 0.984 . S
N679 H683 0.985 . S
H680 N675 0.984 . S
H681 N675 0.985 . S
H682 N679 0.984 . S
H683 N679 0.985 . S
H684 N678 0.984 1_545 S
H685 N678 0.984 . S
H686 N674 0.984 1_545 S
H687 N674 0.985 . S
C688 C689 1.363 1_655 S
C688 C694 1.379 1_554 S
C688 N696 1.356 1_655 S
C689 C688 1.363 1_455 S
C689 C695 1.363 1_545 S
C690 C691 1.363 1_455 S
C690 C695 1.379 1_556 S
C690 N697 1.356 1_455 S
C691 C690 1.363 1_655 S
C691 C694 1.363 1_565 S
N692 C694 1.356 . S
N692 H704 0.984 . S
N692 H705 0.985 . S
N693 C695 1.356 . S
N693 H698 0.984 . S
N693 H699 0.985 . S
C694 C688 1.379 1_556 S
C694 C691 1.363 1_545 S
C694 N692 1.356 . S
C695 C689 1.363 1_565 S
C695 C690 1.379 1_554 S
C695 N693 1.356 . S
N696 C688 1.356 1_455 S
N696 H702 0.984 1_455 S
N696 H703 0.984 . S
N697 C690 1.356 1_655 S
N697 H700 0.984 . S
N697 H701 0.985 1_655 S
H698 N693 0.984 . S
H699 N693 0.985 . S
H700 N697 0.984 . S
H701 N697 0.985 1_455 S
H702 N696 0.984 1_655 S
H703 N696 0.984 . S
H704 N692 0.984 . S
H705 N692 0.985 . S
C706 C707 1.363 . S
C706 C712 1.379 . S
C706 N714 1.356 . S
C707 C706 1.363 . S
C707 C713 1.363 . S
C708 C709 1.363 . S
C708 C713 1.379 . S
C708 N715 1.356 . S
C709 C708 1.363 . S
C709 C712 1.363 . S
N710 C712 1.356 . S
N710 H722 0.984 . S
N710 H723 0.985 . S
N711 C713 1.356 . S
N711 H716 0.984 . S
N711 H717 0.985 . S
C712 C706 1.379 . S
C712 C709 1.363 . S
C712 N710 1.356 . S
C713 C707 1.363 . S
C713 C708 1.379 . S
C713 N711 1.356 . S
N714 C706 1.356 . S
N714 H720 0.984 . S
N714 H721 0.984 . S
N715 C708 1.356 . S
N715 H718 0.984 . S
N715 H719 0.985 . S
H716 N711 0.984 . S
H717 N711 0.985 . S
H718 N715 0.984 . S
H719 N715 0.985 . S
H720 N714 0.984 . S
H721 N714 0.984 . S
H722 N710 0.984 . S
H723 N710 0.985 . S
C724 C725 1.363 . S
C724 C730 1.379 . S
C724 N732 1.356 . S
C725 C724 1.363 . S
C725 C731 1.363 1_554 S
C726 C727 1.363 . S
C726 C731 1.379 . S
C726 N733 1.356 . S
C727 C726 1.363 . S
C727 C730 1.363 1_556 S
N728 C730 1.356 . S
N728 H740 0.984 . S
N728 H741 0.985 1_554 S
N729 C731 1.356 . S
N729 H734 0.984 1_556 S
N729 H735 0.985 . S
C730 C724 1.379 . S
C730 C727 1.363 1_554 S
C730 N728 1.356 . S
C731 C725 1.363 1_556 S
C731 C726 1.379 . S
C731 N729 1.356 . S
N732 C724 1.356 . S
N732 H738 0.984 . S
N732 H739 0.984 . S
N733 C726 1.356 . S
N733 H736 0.984 . S
N733 H737 0.985 . S
H734 N729 0.984 1_554 S
H735 N729 0.985 . S
H736 N733 0.984 . S
H737 N733 0.985 . S
H738 N732 0.984 . S
H739 N732 0.984 . S
H740 N728 0.984 . S
H741 N728 0.985 1_556 S
C742 C743 1.363 . S
C742 C748 1.379 1_465 S
C742 N750 1.356 . S
C743 C742 1.363 . S
C743 C749 1.363 . S
C744 C745 1.363 . S
C744 C749 1.379 1_645 S
C744 N751 1.356 . S
C745 C744 1.363 . S
C745 C748 1.363 . S
N746 C748 1.356 . S
N746 H758 0.981 1_655 S
N746 H759 0.985 . S
N747 C749 1.356 . S
N747 H752 0.984 . S
N747 H753 0.982 1_455 S
C748 C742 1.379 1_645 S
C748 C745 1.363 . S
C748 N746 1.356 . S
C749 C743 1.363 . S
C749 C744 1.379 1_465 S
C749 N747 1.356 . S
N750 C742 1.356 . S
N750 H756 0.984 . S
N750 H757 0.984 . S
N751 C744 1.356 . S
N751 H754 0.984 . S
N751 H755 0.985 . S
H752 N747 0.984 . S
H753 N747 0.982 1_655 S
H754 N751 0.984 . S
H755 N751 0.985 . S
H756 N750 0.984 . S
H757 N750 0.984 . S
H758 N746 0.981 1_455 S
H759 N746 0.985 . S
C473 C64 1.617 . S
C475 C3 1.567 . S
C491 C5 1.617 . S
C493 C62 1.567 . S
C509 C182 1.617 . S
C511 C121 1.567 . S
C527 C123 1.617 . S
C529 C180 1.567 . S
C545 C241 1.580 . S
C547 C298 1.604 . S
C563 C300 1.580 . S
C565 C239 1.604 . S
C581 C359 1.580 . S
C583 C416 1.604 . S
C599 C357 1.604 . S
C601 C418 1.580 . S
C617 C33 1.008 . S
C619 C210 1.008 . S
C635 C92 1.008 . S
C637 C151 1.008 . S
C653 C465 1.016 . S
C655 C288 1.016 . S
C671 C406 1.016 . S
C673 C347 1.016 . S
C689 C52 1.540 . S
C691 C269 1.529 . S
C707 C328 1.529 . S
C709 C111 1.540 . S
C725 C387 1.529 . S
C727 C170 1.540 . S
C743 C446 1.529 . S
C745 C229 1.540 . S
