# Generated by pormake.
# Topology uku, (4)-cn, num edge types: 1
# Building blocks:
#     Node 0, Type 0, BuildingBlock: CEKHIL_clean_sbu_0, # of connection points: 4
#     Node 1, Type 0, BuildingBlock: CEKHIL_clean_sbu_0, # of connection points: 4
#     Node 2, Type 0, BuildingBlock: CEKHIL_clean_sbu_0, # of connection points: 4
#     Node 3, Type 0, BuildingBlock: CEKHIL_clean_sbu_0, # of connection points: 4
#     Node 4, Type 0, BuildingBlock: CEKHIL_clean_sbu_0, # of connection points: 4
#     Node 5, Type 0, BuildingBlock: CEKHIL_clean_sbu_0, # of connection points: 4
#     Node 6, Type 0, BuildingBlock: CEKHIL_clean_sbu_0, # of connection points: 4
#     Node 7, Type 0, BuildingBlock: CEKHIL_clean_sbu_0, # of connection points: 4
#     Node 8, Type 0, BuildingBlock: CEKHIL_clean_sbu_0, # of connection points: 4
#     Node 9, Type 0, BuildingBlock: CEKHIL_clean_sbu_0, # of connection points: 4
#     Node 10, Type 0, BuildingBlock: CEKHIL_clean_sbu_0, # of connection points: 4
#     Node 11, Type 0, BuildingBlock: CEKHIL_clean_sbu_0, # of connection points: 4
#     Edge 12, Type (0, 0), BuildingBlock: XUDNAN_clean_linker_2, # of connection points: 2
#     Edge 13, Type (0, 0), BuildingBlock: XUDNAN_clean_linker_2, # of connection points: 2
#     Edge 14, Type (0, 0), BuildingBlock: XUDNAN_clean_linker_2, # of connection points: 2
#     Edge 15, Type (0, 0), BuildingBlock: XUDNAN_clean_linker_2, # of connection points: 2
#     Edge 16, Type (0, 0), BuildingBlock: XUDNAN_clean_linker_2, # of connection points: 2
#     Edge 17, Type (0, 0), BuildingBlock: XUDNAN_clean_linker_2, # of connection points: 2
#     Edge 18, Type (0, 0), BuildingBlock: XUDNAN_clean_linker_2, # of connection points: 2
#     Edge 19, Type (0, 0), BuildingBlock: XUDNAN_clean_linker_2, # of connection points: 2
#     Edge 20, Type (0, 0), BuildingBlock: XUDNAN_clean_linker_2, # of connection points: 2
#     Edge 21, Type (0, 0), BuildingBlock: XUDNAN_clean_linker_2, # of connection points: 2
#     Edge 22, Type (0, 0), BuildingBlock: XUDNAN_clean_linker_2, # of connection points: 2
#     Edge 23, Type (0, 0), BuildingBlock: XUDNAN_clean_linker_2, # of connection points: 2
#     Edge 24, Type (0, 0), BuildingBlock: XUDNAN_clean_linker_2, # of connection points: 2
#     Edge 25, Type (0, 0), BuildingBlock: XUDNAN_clean_linker_2, # of connection points: 2
#     Edge 26, Type (0, 0), BuildingBlock: XUDNAN_clean_linker_2, # of connection points: 2
#     Edge 27, Type (0, 0), BuildingBlock: XUDNAN_clean_linker_2, # of connection points: 2
#     Edge 28, Type (0, 0), BuildingBlock: XUDNAN_clean_linker_2, # of connection points: 2
#     Edge 29, Type (0, 0), BuildingBlock: XUDNAN_clean_linker_2, # of connection points: 2
#     Edge 30, Type (0, 0), BuildingBlock: XUDNAN_clean_linker_2, # of connection points: 2
#     Edge 31, Type (0, 0), BuildingBlock: XUDNAN_clean_linker_2, # of connection points: 2
#     Edge 32, Type (0, 0), BuildingBlock: XUDNAN_clean_linker_2, # of connection points: 2
#     Edge 33, Type (0, 0), BuildingBlock: XUDNAN_clean_linker_2, # of connection points: 2
#     Edge 34, Type (0, 0), BuildingBlock: XUDNAN_clean_linker_2, # of connection points: 2
#     Edge 35, Type (0, 0), BuildingBlock: XUDNAN_clean_linker_2, # of connection points: 2
# Relax obj value: 0.371
# Max RMSD: 0.262
# Mean RMSD: 0.262
data_MOF--net-uku--node1-CEKHIL_clean_sbu_0--edge1-XUDNAN_clean_linker_2
_symmetry_space_group_name_H-M    P1
_symmetry_Int_Tables_number       1
_symmetry_cell_setting            triclinic
loop_
_symmetry_equiv_pos_as_xyz
'x, y, z'
_cell_length_a     41.454111
_cell_length_b     41.608118
_cell_length_c     41.691928
_cell_angle_alpha  90.135501
_cell_angle_beta   90.04907
_cell_angle_gamma 90.035481
loop_
_atom_site_label
_atom_site_type_symbol
_atom_site_fract_x
_atom_site_fract_y
_atom_site_fract_z
_atom_type_partial_charge
Co0 Co 0.02796 0.16751 0.65705 0.0
O1 O -0.01029 0.18273 0.63632 0.0
O2 O 0.03269 0.16307 0.61126 0.0
C3 C 0.03457 0.20845 0.69146 0.0
O4 O 0.07169 0.15013 0.67114 0.0
Co5 Co 0.02265 0.14936 0.72909 0.0
O6 O 0.06937 0.14091 0.72439 0.0
C7 C -0.00072 0.10372 0.68077 0.0
C8 C 0.00355 0.17463 0.60962 0.0
C9 C 0.08453 0.14119 0.6978 0.0
O10 O 0.00906 0.12301 0.65884 0.0
O11 O 0.00065 0.11044 0.7107 0.0
O12 O 0.0446 0.21097 0.6621 0.0
O13 O 0.01733 0.18333 0.69776 0.0
Co14 Co 0.92058 0.81577 0.62388 0.0
O15 O 0.95164 0.80506 0.59122 0.0
O16 O 0.90419 0.82813 0.58253 0.0
C17 C 0.92142 0.76896 0.65064 0.0
O18 O 0.88197 0.82928 0.6506 0.0
Co19 Co 0.94064 0.81929 0.69566 0.0
O20 O 0.89417 0.82767 0.70321 0.0
C21 C 0.9556 0.87366 0.65316 0.0
C22 C 0.93089 0.8166 0.57092 0.0
C23 C 0.87431 0.8323 0.68033 0.0
O24 O 0.94076 0.85956 0.62991 0.0
O25 O 0.96025 0.8605 0.68049 0.0
O26 O 0.90442 0.77182 0.62465 0.0
O27 O 0.94022 0.79285 0.65733 0.0
Co28 Co 0.03868 0.83157 0.30465 0.0
O29 O -0.00146 0.81786 0.32314 0.0
O30 O 0.04331 0.82791 0.35055 0.0
C31 C 0.03909 0.79635 0.26348 0.0
O32 O 0.08446 0.84566 0.29418 0.0
Co33 Co 0.04196 0.85887 0.23505 0.0
O34 O 0.08922 0.85379 0.24103 0.0
C35 C 0.01802 0.89965 0.28843 0.0
C36 C 0.01302 0.81969 0.35072 0.0
C37 C 0.10137 0.85116 0.26897 0.0
O38 O 0.02527 0.87795 0.30919 0.0
O39 O 0.02058 0.89539 0.25809 0.0
O40 O 0.04926 0.78734 0.29159 0.0
O41 O 0.02679 0.82467 0.26219 0.0
Co42 Co 0.91954 0.17992 0.33527 0.0
O43 O 0.94505 0.19503 0.3705 0.0
O44 O 0.90077 0.16519 0.37485 0.0
C45 C 0.91719 0.22638 0.30815 0.0
O46 O 0.88698 0.16016 0.30442 0.0
Co47 Co 0.94839 0.18005 0.26628 0.0
O48 O 0.9053 0.16361 0.25366 0.0
C49 C 0.9648 0.12753 0.31102 0.0
C50 C 0.92467 0.18 0.38873 0.0
C51 C 0.8839 0.1556 0.27406 0.0
O52 O 0.94632 0.13969 0.33259 0.0
O53 O 0.97033 0.14098 0.28398 0.0
O54 O 0.8975 0.22109 0.33179 0.0
O55 O 0.9397 0.20535 0.30419 0.0
Co56 Co 0.65335 0.04971 0.15224 0.0
O57 O 0.63655 0.00762 0.16094 0.0
O58 O 0.60692 0.05159 0.15513 0.0
C59 C 0.69359 0.04842 0.18861 0.0
O60 O 0.66194 0.09706 0.14375 0.0
Co61 Co 0.72369 0.05957 0.12784 0.0
O62 O 0.71559 0.10447 0.14179 0.0
C63 C 0.67175 0.04191 0.08209 0.0
C64 C 0.60816 0.02075 0.16015 0.0
C65 C 0.68691 0.11538 0.14325 0.0
O66 O 0.65049 0.04147 0.10456 0.0
O67 O 0.70176 0.04757 0.08669 0.0
O68 O 0.66459 0.05621 0.19758 0.0
O69 O 0.69652 0.03918 0.15926 0.0
Co70 Co 0.33905 0.91377 0.15242 0.0
O71 O 0.36933 0.94577 0.16723 0.0
O72 O 0.38222 0.89995 0.14311 0.0
C73 C 0.30829 0.91251 0.19681 0.0
O74 O 0.31608 0.87455 0.13466 0.0
Co75 Co 0.26617 0.92705 0.14345 0.0
O76 O 0.26238 0.8796 0.139 0.0
C77 C 0.31261 0.94943 0.09434 0.0
C78 C 0.39161 0.92661 0.15645 0.0
C79 C 0.28741 0.86304 0.13262 0.0
O80 O 0.33589 0.93569 0.10946 0.0
O81 O 0.28364 0.95036 0.10501 0.0
O82 O 0.3349 0.89609 0.19557 0.0
O83 O 0.30243 0.93092 0.17261 0.0
Co84 Co 0.63914 0.90996 0.82005 0.0
O85 O 0.61007 0.9408 0.80148 0.0
O86 O 0.59532 0.89777 0.82927 0.0
C87 C 0.6717 0.90297 0.77751 0.0
O88 O 0.66203 0.87247 0.84163 0.0
Co89 Co 0.71122 0.92815 0.8303 0.0
O90 O 0.71534 0.88277 0.84426 0.0
C91 C 0.66124 0.9584 0.86945 0.0
C92 C 0.58704 0.92334 0.81338 0.0
C93 C 0.69119 0.86426 0.84848 0.0
O94 O 0.64112 0.93658 0.8606 0.0
O95 O 0.68927 0.96161 0.85709 0.0
O96 O 0.64415 0.88811 0.7788 0.0
O97 O 0.67643 0.92434 0.79953 0.0
Co98 Co 0.32823 0.05181 0.80769 0.0
O99 O 0.34614 0.01227 0.7923 0.0
O100 O 0.3748 0.05353 0.81042 0.0
C101 C 0.29214 0.05926 0.76795 0.0
O102 O 0.31747 0.09636 0.82508 0.0
Co103 Co 0.25551 0.05247 0.82726 0.0
O104 O 0.26353 0.09917 0.8321 0.0
C105 C 0.30345 0.02484 0.87147 0.0
C106 C 0.37417 0.02425 0.7993 0.0
C107 C 0.29155 0.11181 0.83225 0.0
O108 O 0.32632 0.03363 0.85255 0.0
O109 O 0.27352 0.02805 0.86458 0.0
O110 O 0.32205 0.06773 0.76382 0.0
O111 O 0.28638 0.0434 0.79385 0.0
Co112 Co 0.16342 0.62994 0.05123 0.0
O113 O 0.17935 0.59132 0.03178 0.0
O114 O 0.14172 0.59339 0.0697 0.0
C115 C 0.21095 0.65425 0.06054 0.0
O116 O 0.14156 0.66497 0.07719 0.0
Co117 Co 0.17439 0.69544 0.0171 0.0
O118 O 0.15137 0.71332 0.05489 0.0
C119 C 0.12517 0.65111 -0.00764 0.0
C120 C 0.15901 0.57626 0.05005 0.0
C121 C 0.13887 0.69572 0.07657 0.0
O122 O 0.12901 0.63317 0.01714 0.0
O123 O 0.1433 0.67523 -0.01379 0.0
O124 O 0.20028 0.63256 0.08024 0.0
O125 O 0.19485 0.65736 0.03423 0.0
Co126 Co 0.15309 0.30856 0.94907 0.0
O127 O 0.1603 0.32874 -0.00987 0.0
O128 O 0.13531 0.35109 0.94864 0.0
C129 C 0.20322 0.28905 0.94157 0.0
O130 O 0.14148 0.29639 0.90344 0.0
Co131 Co 0.16005 0.23493 0.93856 0.0
O132 O 0.15644 0.24574 0.89228 0.0
C133 C 0.09958 0.26138 0.96612 0.0
C134 C 0.14587 0.35358 0.97789 0.0
C135 C 0.14509 0.27287 0.88378 0.0
O136 O 0.11066 0.29022 0.96403 0.0
O137 O 0.11623 0.23642 0.95902 0.0
O138 O 0.1969 0.31893 0.93521 0.0
O139 O 0.18034 0.27323 0.95542 0.0
Co140 Co 0.83739 0.63321 0.90691 0.0
O141 O 0.82928 0.60324 0.94138 0.0
O142 O 0.84379 0.59024 0.89178 0.0
C143 C 0.79329 0.66445 0.91338 0.0
O144 O 0.84735 0.65534 0.86486 0.0
Co145 Co 0.8485 0.70648 0.91613 0.0
O146 O 0.84387 0.70901 0.8688 0.0
C147 C 0.9027 0.66081 0.92515 0.0
C148 C 0.83584 0.58096 0.92038 0.0
C149 C 0.84744 0.68347 0.85234 0.0
O150 O 0.88433 0.63661 0.91919 0.0
O151 O 0.89291 0.68997 0.92586 0.0
O152 O 0.79122 0.63702 0.89856 0.0
O153 O 0.82086 0.67047 0.92664 0.0
Co154 Co 0.81939 0.31918 0.03964 0.0
O155 O 0.8069 0.33869 -0.0003 0.0
O156 O 0.83767 0.36153 0.03695 0.0
C157 C 0.77009 0.30053 0.05353 0.0
O158 O 0.83687 0.3079 0.08353 0.0
Co159 Co 0.81304 0.24545 0.05052 0.0
O160 O 0.82649 0.2561 0.095 0.0
C161 C 0.86771 0.27077 0.0128 0.0
C162 C 0.82331 0.36355 0.00932 0.0
C163 C 0.83719 0.2838 0.10262 0.0
O164 O 0.85908 0.29986 0.01908 0.0
O165 O 0.85098 0.24618 0.02079 0.0
O166 O 0.77777 0.33027 0.05914 0.0
O167 O 0.79094 0.28414 0.03738 0.0
H168 H 0.98174 0.18376 0.4203 0.0
H169 H 0.87876 0.17307 0.43528 0.0
H170 H 0.88772 0.17207 0.49407 0.0
H171 H 0.00523 0.12921 0.48268 0.0
H172 H 0.04059 0.15197 0.49365 0.0
H173 H 0.02572 0.15324 0.45308 0.0
H174 H 0.02218 0.21537 0.45639 0.0
H175 H 0.03694 0.21431 0.49701 0.0
H176 H -0.00084 0.2338 0.48815 0.0
H177 H 0.90805 0.1744 0.55088 0.0
H178 H 0.93847 0.17405 0.60183 0.0
H179 H 0.0285 0.17893 0.54904 0.0
C180 C 0.96106 0.18143 0.436 0.0
C181 C 0.92953 0.17889 0.42356 0.0
C182 C 0.90308 0.17515 0.44459 0.0
C183 C 0.90794 0.17467 0.47789 0.0
C184 C 0.93942 0.17738 0.48943 0.0
C185 C 0.96555 0.18019 0.4691 0.0
C186 C -0.00296 0.18111 0.48743 0.0
C187 C 0.0184 0.15215 0.47869 0.0
C188 C 0.01487 0.21305 0.48191 0.0
C189 C 0.98456 0.17867 0.52136 0.0
C190 C 0.95124 0.17695 0.52201 0.0
C191 C 0.93414 0.17549 0.55067 0.0
C192 C 0.9516 0.17546 0.57943 0.0
C193 C 0.98576 0.17636 0.57918 0.0
C194 C 0.00239 0.17799 0.54979 0.0
H195 H 0.03751 0.81458 0.41174 0.0
H196 H 0.94782 0.81526 0.35789 0.0
H197 H 0.9171 0.81305 0.40845 0.0
H198 H 0.00941 0.75922 0.47461 0.0
H199 H 0.03161 0.77973 0.50572 0.0
H200 H 0.04656 0.77965 0.46515 0.0
H201 H 0.04826 0.84191 0.4659 0.0
H202 H 0.03303 0.8422 0.50632 0.0
H203 H 0.01212 0.86406 0.47536 0.0
H204 H 0.89614 0.81614 0.46457 0.0
H205 H 0.88624 0.81866 0.52297 0.0
H206 H -0.01073 0.81289 0.54052 0.0
C207 C 0.01142 0.81384 0.4106 0.0
C208 C -0.00497 0.81516 0.38092 0.0
C209 C 0.96088 0.81416 0.38037 0.0
C210 C 0.9432 0.81299 0.40895 0.0
C211 C 0.96004 0.81238 0.43784 0.0
C212 C -0.00663 0.81223 0.43891 0.0
C213 C 0.0055 0.81178 0.4732 0.0
C214 C 0.02438 0.78074 0.48007 0.0
C215 C 0.02593 0.84177 0.48062 0.0
C216 C 0.97377 0.81242 0.49118 0.0
C217 C 0.94787 0.81292 0.47031 0.0
C218 C 0.91619 0.81529 0.48118 0.0
C219 C 0.91082 0.81691 0.51433 0.0
C220 C 0.93697 0.81577 0.53612 0.0
C221 C 0.96881 0.81341 0.52434 0.0
H222 H 0.41875 -0.01388 0.16483 0.0
H223 H 0.44224 0.8851 0.15356 0.0
H224 H 0.50025 0.89813 0.15694 0.0
H225 H 0.48216 0.01502 0.11547 0.0
H226 H 0.48997 0.05038 0.13931 0.0
H227 H 0.45022 0.03293 0.13876 0.0
H228 H 0.45143 0.02817 0.20072 0.0
H229 H 0.49124 0.04558 0.20146 0.0
H230 H 0.48417 0.00703 0.21978 0.0
H231 H 0.55531 0.92194 0.16039 0.0
H232 H 0.6044 0.95538 0.15979 0.0
H233 H 0.54549 0.04143 0.16617 0.0
C234 C 0.43614 0.96675 0.16347 0.0
C235 C 0.42613 0.93459 0.15918 0.0
C236 C 0.44949 0.9099 0.15688 0.0
C237 C 0.48244 0.91704 0.15892 0.0
C238 C 0.49158 0.94901 0.16297 0.0
C239 C 0.46918 0.97352 0.16497 0.0
C240 C 0.48554 0.00603 0.16719 0.0
C241 C 0.47643 0.02734 0.13847 0.0
C242 C 0.47762 0.02267 0.1992 0.0
C243 C 0.5206 -0.00406 0.16581 0.0
C244 C 0.5235 0.96291 0.16384 0.0
C245 C 0.55339 0.94783 0.16198 0.0
C246 C 0.58113 0.96705 0.1617 0.0
C247 C 0.57873 0.00099 0.1629 0.0
C248 C 0.54805 0.01554 0.16524 0.0
H249 H 0.56246 0.98378 0.80625 0.0
H250 H 0.53506 0.88333 0.81201 0.0
H251 H 0.47776 0.89844 0.8053 0.0
H252 H 0.49662 0.01282 0.85296 0.0
H253 H 0.49176 0.04939 0.83037 0.0
H254 H 0.53074 0.03052 0.83284 0.0
H255 H 0.53381 0.02843 0.77079 0.0
H256 H 0.49475 0.04722 0.76812 0.0
H257 H 0.50185 0.00924 0.74849 0.0
H258 H 0.42404 0.9242 0.79779 0.0
H259 H 0.37616 0.95913 0.79601 0.0
H260 H 0.43779 0.04349 0.79938 0.0
C261 C 0.54437 0.96499 0.80572 0.0
C262 C 0.553 0.93237 0.80926 0.0
C263 C 0.52878 0.90843 0.80923 0.0
C264 C 0.49628 0.91678 0.80528 0.0
C265 C 0.48851 0.94918 0.80189 0.0
C266 C 0.51176 0.97297 0.80252 0.0
C267 C 0.49668 0.00611 0.80074 0.0
C268 C 0.50441 0.02586 0.83104 0.0
C269 C 0.50741 0.02379 0.77021 0.0
C270 C 0.46128 -0.00279 0.7992 0.0
C271 C 0.45723 0.96422 0.79929 0.0
C272 C 0.42687 0.95006 0.79778 0.0
C273 C 0.39984 0.97014 0.79666 0.0
C274 C 0.40331 0.00401 0.7976 0.0
C275 C 0.43447 0.01768 0.79868 0.0
H276 H 0.14805 0.4132 0.95234 0.0
H277 H 0.14038 0.36263 0.04277 0.0
H278 H 0.13968 0.41481 0.07177 0.0
H279 H 0.20372 0.47075 0.98023 0.0
H280 H 0.18794 0.50305 0.95614 0.0
H281 H 0.1839 0.46213 0.94267 0.0
H282 H 0.12191 0.46933 0.93817 0.0
H283 H 0.12578 0.51037 0.95148 0.0
H284 H 0.09944 0.48317 0.97253 0.0
H285 H 0.13972 0.47334 0.09036 0.0
H286 H 0.1464 0.53232 0.09728 0.0
H287 H 0.16003 0.54245 -0.00524 0.0
C288 C 0.14559 0.41316 0.97821 0.0
C289 C 0.14371 0.38416 -0.00458 0.0
C290 C 0.14158 0.38482 0.02928 0.0
C291 C 0.14107 0.41425 0.04586 0.0
C292 C 0.14333 0.44256 0.02812 0.0
C293 C 0.14595 0.44214 -0.00495 0.0
C294 C 0.151 0.47545 0.98167 0.0
C295 C 0.18358 0.47798 0.96416 0.0
C296 C 0.12285 0.48514 0.95967 0.0
C297 C 0.15099 0.49477 0.01234 0.0
C298 C 0.14585 0.4756 0.03889 0.0
C299 C 0.144 0.48852 0.06976 0.0
C300 C 0.14778 0.5219 0.07349 0.0
C301 C 0.15418 0.54151 0.04659 0.0
C302 C 0.15571 0.52775 0.01575 0.0
H303 H 0.84018 0.55211 0.97943 0.0
H304 H 0.82632 0.53217 0.87812 0.0
H305 H 0.82168 0.47428 0.88983 0.0
H306 H 0.88968 0.48223 -0.00515 0.0
H307 H 0.87326 0.47547 0.03428 0.0
H308 H 0.87466 0.51557 0.01815 0.0
H309 H 0.81308 0.52148 0.02711 0.0
H310 H 0.8115 0.48142 0.04329 0.0
H311 H 0.78601 0.49217 0.00995 0.0
H312 H 0.81616 0.41905 0.91258 0.0
H313 H 0.81416 0.36924 0.94479 0.0
H314 H 0.83549 0.42442 0.03068 0.0
C315 C 0.83608 0.53551 0.9598 0.0
C316 C 0.83343 0.5465 0.92792 0.0
C317 C 0.82848 0.52414 0.90273 0.0
C318 C 0.82572 0.49126 0.90912 0.0
C319 C 0.82847 0.48111 0.94078 0.0
C320 C 0.8339 0.50246 0.96568 0.0
C321 C 0.8369 0.48505 -0.00261 0.0
C322 C 0.87064 0.48987 0.01202 0.0
C323 C 0.81028 0.49566 0.02081 0.0
C324 C 0.83196 0.45068 -0.01359 0.0
C325 C 0.82685 0.44899 0.9537 0.0
C326 C 0.82045 0.41998 0.93817 0.0
C327 C 0.81929 0.39189 0.95662 0.0
C328 C 0.82497 0.39307 -0.00995 0.0
C329 C 0.83153 0.42283 0.00504 0.0
H330 H 0.10853 0.09405 0.73493 0.0
H331 H 0.13628 0.16347 0.6627 0.0
H332 H 0.19361 0.14695 0.66896 0.0
H333 H 0.17276 0.10618 0.78655 0.0
H334 H 0.17652 0.06459 0.79798 0.0
H335 H 0.13811 0.08 0.78522 0.0
H336 H 0.13466 0.03597 0.74117 0.0
H337 H 0.1731 0.02026 0.75385 0.0
H338 H 0.16707 0.03185 0.71265 0.0
H339 H 0.24879 0.12578 0.68825 0.0
H340 H 0.29517 0.10149 0.71707 0.0
H341 H 0.22872 0.04522 0.77439 0.0
C342 C 0.12661 0.10552 0.72009 0.0
C343 C 0.11821 0.13 0.69839 0.0
C344 C 0.14239 0.14442 0.67928 0.0
C345 C 0.17491 0.13523 0.68275 0.0
C346 C 0.18244 0.11124 0.70494 0.0
C347 C 0.15875 0.09638 0.72293 0.0
C348 C 0.17265 0.07229 0.74608 0.0
C349 C 0.16453 0.08133 0.78101 0.0
C350 C 0.16119 0.03807 0.73794 0.0
C351 C 0.20808 0.07642 0.73916 0.0
C352 C 0.2135 0.0988 0.71529 0.0
C353 C 0.24473 0.10786 0.70658 0.0
C354 C 0.2709 0.09396 0.72303 0.0
C355 C 0.2655 0.0714 0.74786 0.0
C356 C 0.23369 0.06222 0.7554 0.0
H357 H 0.73639 0.9113 0.78611 0.0
H358 H 0.66608 0.86897 0.72151 0.0
H359 H 0.71051 0.84761 0.68791 0.0
H360 H 0.79717 0.93236 0.72831 0.0
H361 H 0.83004 0.92099 0.75422 0.0
H362 H 0.7927 0.93504 0.77125 0.0
H363 H 0.78825 0.88269 0.80473 0.0
H364 H 0.82554 0.8685 0.78773 0.0
H365 H 0.78958 0.84433 0.78458 0.0
H366 H 0.76321 0.8309 0.66172 0.0
H367 H 0.81946 0.81724 0.64703 0.0
H368 H 0.85396 0.86684 0.73202 0.0
C369 C 0.73022 0.89789 0.76475 0.0
C370 C 0.69782 0.89202 0.7562 0.0
C371 C 0.69083 0.87386 0.7283 0.0
C372 C 0.71586 0.86167 0.70913 0.0
C373 C 0.74761 0.86747 0.7186 0.0
C374 C 0.75478 0.88489 0.74595 0.0
C375 C 0.79067 0.88592 0.75228 0.0
C376 C 0.80338 0.92064 0.75145 0.0
C377 C 0.79898 0.86937 0.78422 0.0
C378 C 0.80271 0.86666 0.72398 0.0
C379 C 0.77761 0.85646 0.70462 0.0
C380 C 0.78303 0.8387 0.67675 0.0
C381 C 0.81498 0.83117 0.66855 0.0
C382 C 0.84088 0.84098 0.68845 0.0
C383 C 0.83455 0.85887 0.7165 0.0
H384 H 0.28137 0.855 0.21208 0.0
H385 H 0.2772 0.95685 0.23278 0.0
H386 H 0.22833 0.94837 0.26558 0.0
H387 H 0.20524 0.84649 0.19482 0.0
H388 H 0.19686 0.80771 0.21222 0.0
H389 H 0.23732 0.81772 0.20081 0.0
H390 H 0.25941 0.80691 0.2567 0.0
H391 H 0.21954 0.79495 0.26923 0.0
H392 H 0.24095 0.82576 0.29104 0.0
H393 H 0.17611 0.93108 0.28791 0.0
H394 H 0.12143 0.90787 0.29241 0.0
H395 H 0.15587 0.81825 0.25224 0.0
C396 C 0.27096 0.87509 0.22498 0.0
C397 C 0.28331 0.9064 0.22095 0.0
C398 C 0.26829 0.93263 0.23638 0.0
C399 C 0.2407 0.92797 0.25516 0.0
C400 C 0.22826 0.89694 0.2579 0.0
C401 C 0.24287 0.87086 0.24319 0.0
C402 C 0.22139 0.84135 0.2447 0.0
C403 C 0.21473 0.82758 0.21109 0.0
C404 C 0.23621 0.81573 0.26674 0.0
C405 C 0.19139 0.85567 0.25966 0.0
C406 C 0.19657 0.88726 0.26878 0.0
C407 C 0.17196 0.90621 0.28146 0.0
C408 C 0.14105 0.89289 0.28394 0.0
C409 C 0.13494 0.86134 0.27297 0.0
C410 C 0.16041 0.84225 0.26129 0.0
H411 H 0.70462 0.1003 0.22838 0.0
H412 H 0.74877 0.01459 0.18857 0.0
H413 H 0.80156 0.03155 0.20983 0.0
H414 H 0.76739 0.1524 0.2085 0.0
H415 H 0.76524 0.17694 0.24406 0.0
H416 H 0.72981 0.15623 0.22995 0.0
H417 H 0.72367 0.12853 0.28538 0.0
H418 H 0.75905 0.14944 0.29955 0.0
H419 H 0.75711 0.10622 0.30175 0.0
H420 H 0.84989 0.06057 0.22733 0.0
H421 H 0.89185 0.09831 0.24595 0.0
H422 H 0.81803 0.1653 0.27691 0.0
C423 C 0.72522 0.08458 0.2254 0.0
C424 C 0.72271 0.05584 0.2074 0.0
C425 C 0.75029 0.03645 0.20267 0.0
C426 C 0.78034 0.04593 0.21456 0.0
C427 C 0.78241 0.07492 0.23111 0.0
C428 C 0.75567 0.09388 0.237 0.0
C429 C 0.76538 0.1251 0.2534 0.0
C430 C 0.7564 0.15438 0.23274 0.0
C431 C 0.75041 0.12745 0.28702 0.0
C432 C 0.8017 0.12083 0.25518 0.0
C433 C 0.81084 0.09171 0.242 0.0
C434 C 0.84307 0.08315 0.23831 0.0
C435 C 0.86667 0.10478 0.24868 0.0
C436 C 0.85795 0.1344 0.26285 0.0
C437 C 0.8251 0.14253 0.26643 0.0
H438 H 0.72407 0.16313 0.16714 0.0
H439 H 0.64231 0.14473 0.10528 0.0
H440 H 0.64733 0.19927 0.08262 0.0
H441 H 0.71141 0.25451 0.1773 0.0
H442 H 0.75433 0.2609 0.17547 0.0
H443 H 0.73856 0.22488 0.19358 0.0
H444 H 0.77323 0.19041 0.15604 0.0
H445 H 0.78905 0.22478 0.13587 0.0
H446 H 0.76871 0.19424 0.11317 0.0
H447 H 0.67229 0.24626 0.05514 0.0
H448 H 0.71054 0.28489 0.03068 0.0
H449 H 0.77225 0.27721 0.11389 0.0
C450 C 0.70612 0.17142 0.15022 0.0
C451 C 0.68276 0.15008 0.13809 0.0
C452 C 0.66008 0.16105 0.11526 0.0
C453 C 0.66284 0.19198 0.10219 0.0
C454 C 0.68779 0.2118 0.11297 0.0
C455 C 0.70836 0.20231 0.13736 0.0
C456 C 0.73631 0.22534 0.14112 0.0
C457 C 0.73507 0.24242 0.17381 0.0
C458 C 0.76867 0.20767 0.13626 0.0
C459 C 0.72934 0.24837 0.11394 0.0
C460 C 0.70123 0.24024 0.09792 0.0
C461 C 0.69344 0.25393 0.06833 0.0
C462 C 0.71522 0.27582 0.05457 0.0
C463 C 0.74393 0.28422 0.07077 0.0
C464 C 0.75026 0.27141 0.10132 0.0
H465 H 0.19921 0.69455 0.1099 0.0
H466 H 0.26773 0.67397 0.0343 0.0
H467 H 0.29835 0.72329 0.04853 0.0
H468 H 0.19323 0.7757 0.0918 0.0
H469 H 0.18816 0.78943 0.13256 0.0
H470 H 0.17562 0.74963 0.12146 0.0
H471 H 0.21203 0.72442 0.16527 0.0
H472 H 0.22325 0.76439 0.17748 0.0
H473 H 0.25401 0.73557 0.16727 0.0
H474 H 0.31972 0.77599 0.06976 0.0
H475 H 0.3271 0.83077 0.09159 0.0
H476 H 0.23864 0.82082 0.146 0.0
C477 C 0.22117 0.70006 0.097 0.0
C478 C 0.23188 0.68031 0.07169 0.0
C479 C 0.25987 0.68863 0.05433 0.0
C480 C 0.27726 0.71651 0.06222 0.0
C481 C 0.26562 0.73605 0.08688 0.0
C482 C 0.23791 0.72841 0.10365 0.0
C483 C 0.22795 0.75537 0.12596 0.0
C484 C 0.19426 0.7683 0.11739 0.0
C485 C 0.22943 0.74429 0.16108 0.0
C486 C 0.25403 0.7797 0.11866 0.0
C487 C 0.2761 0.7677 0.09687 0.0
C488 C 0.3026 0.78563 0.08683 0.0
C489 C 0.30656 0.81668 0.09934 0.0
C490 C 0.28356 0.82983 0.12079 0.0
C491 C 0.25686 0.81113 0.13022 0.0
H492 H 0.80024 0.72862 0.92552 0.0
H493 H 0.7322 0.65837 0.88871 0.0
H494 H 0.69509 0.70238 0.87348 0.0
H495 H 0.74208 0.78967 0.95341 0.0
H496 H 0.76722 0.82223 0.93974 0.0
H497 H 0.78533 0.78516 0.9529 0.0
H498 H 0.81513 0.78022 0.89845 0.0
H499 H 0.79696 0.81703 0.88499 0.0
H500 H 0.79214 0.78076 0.86173 0.0
H501 H 0.66774 0.7547 0.85792 0.0
H502 H 0.65415 0.81003 0.84085 0.0
H503 H 0.74274 0.84485 0.88422 0.0
C504 C 0.7773 0.72232 0.91487 0.0
C505 C 0.76908 0.69003 0.90838 0.0
C506 C 0.7389 0.68297 0.89404 0.0
C507 C 0.71767 0.7078 0.88537 0.0
C508 C 0.72712 0.7395 0.89103 0.0
C509 C 0.7563 0.74674 0.90541 0.0
C510 C 0.7627 0.78253 0.90548 0.0
C511 C 0.76443 0.79566 0.93994 0.0
C512 C 0.79354 0.79059 0.88653 0.0
C513 C 0.73285 0.79434 0.88836 0.0
C514 C 0.71226 0.76932 0.88075 0.0
C515 C 0.68359 0.77448 0.86399 0.0
C516 C 0.67604 0.80596 0.85444 0.0
C517 C 0.69742 0.83169 0.86116 0.0
C518 C 0.72594 0.82568 0.87867 0.0
H519 H 0.28035 0.12615 0.89347 0.0
H520 H 0.30487 0.16908 0.80236 0.0
H521 H 0.29538 0.22338 0.8255 0.0
H522 H 0.21591 0.17077 0.9079 0.0
H523 H 0.22065 0.17423 0.95075 0.0
H524 H 0.23781 0.14059 0.92998 0.0
H525 H 0.29427 0.15445 0.95301 0.0
H526 H 0.27715 0.18822 0.97417 0.0
H527 H 0.3107 0.19416 0.94735 0.0
H528 H 0.27248 0.27113 0.85555 0.0
H529 H 0.23751 0.30666 0.8881 0.0
H530 H 0.22746 0.23143 0.95902 0.0
C531 C 0.28515 0.14719 0.87895 0.0
C532 C 0.29393 0.1439 0.84655 0.0
C533 C 0.29892 0.17149 0.82754 0.0
C534 C 0.29356 0.20229 0.84053 0.0
C535 C 0.2836 0.20475 0.87249 0.0
C536 C 0.27986 0.17779 0.89153 0.0
C537 C 0.26432 0.18587 0.9233 0.0
C538 C 0.23282 0.16675 0.92822 0.0
C539 C 0.28803 0.18035 0.9511 0.0
C540 C 0.25786 0.22122 0.91852 0.0
C541 C 0.26992 0.23203 0.88954 0.0
C542 C 0.2637 0.26312 0.87862 0.0
C543 C 0.24387 0.28317 0.89729 0.0
C544 C 0.23006 0.27172 0.92612 0.0
C545 C 0.23814 0.24085 0.93728 0.0
H546 H 0.08406 0.7483 0.25278 0.0
H547 H 0.01091 0.80643 0.20608 0.0
H548 H 0.02735 0.78505 0.15364 0.0
H549 H 0.14416 0.75861 0.19364 0.0
H550 H 0.15961 0.71821 0.19597 0.0
H551 H 0.1406 0.73616 0.23042 0.0
H552 H 0.10059 0.68808 0.23303 0.0
H553 H 0.11969 0.67032 0.19846 0.0
H554 H 0.0769 0.67799 0.19814 0.0
H555 H 0.05561 0.76387 0.10631 0.0
H556 H 0.09035 0.7375 0.06596 0.0
H557 H 0.14305 0.68947 0.14186 0.0
C558 C 0.071 0.75577 0.23157 0.0
C559 C 0.04619 0.77898 0.23345 0.0
C560 C 0.03002 0.78871 0.20516 0.0
C561 C 0.03917 0.77675 0.17523 0.0
C562 C 0.06438 0.75481 0.17395 0.0
C563 C 0.07979 0.7439 0.20127 0.0
C564 C 0.10696 0.72101 0.19265 0.0
C565 C 0.13976 0.73432 0.20384 0.0
C566 C 0.10065 0.68735 0.20639 0.0
C567 C 0.1044 0.72112 0.15635 0.0
C568 C 0.0799 0.74117 0.14618 0.0
C569 C 0.07442 0.74753 0.11386 0.0
C570 C 0.09431 0.73267 0.09119 0.0
C571 C 0.11885 0.71131 0.101 0.0
C572 C 0.12388 0.70525 0.13393 0.0
H573 H 0.09526 0.20362 0.71437 0.0
H574 H 0.00592 0.25615 0.726 0.0
H575 H 0.02993 0.28635 0.77158 0.0
H576 H 0.10505 0.18933 0.79534 0.0
H577 H 0.14849 0.19136 0.79521 0.0
H578 H 0.12728 0.17968 0.75944 0.0
H579 H 0.1555 0.2252 0.72798 0.0
H580 H 0.17683 0.23728 0.76374 0.0
H581 H 0.15272 0.26608 0.74217 0.0
H582 H 0.06201 0.30733 0.81782 0.0
H583 H 0.09485 0.31123 0.86687 0.0
H584 H 0.16058 0.23936 0.8291 0.0
C585 C 0.08096 0.22175 0.72633 0.0
C586 C 0.04896 0.22792 0.71692 0.0
C587 C 0.03065 0.25152 0.73301 0.0
C588 C 0.04417 0.26882 0.75864 0.0
C589 C 0.07573 0.26166 0.76793 0.0
C590 C 0.09369 0.23826 0.75258 0.0
C591 C 0.12481 0.23131 0.77027 0.0
C592 C 0.12647 0.19584 0.78069 0.0
C593 C 0.1542 0.24054 0.74981 0.0
C594 C 0.12107 0.25369 0.79868 0.0
C595 C 0.09324 0.27187 0.79616 0.0
C596 C 0.08395 0.29342 0.81998 0.0
C597 C 0.10288 0.29555 0.84771 0.0
C598 C 0.13023 0.27554 0.85175 0.0
C599 C 0.13988 0.25502 0.82653 0.0
H600 H 0.82308 0.72232 0.80503 0.0
H601 H 0.89748 0.65209 0.82555 0.0
H602 H 0.92203 0.66197 0.77259 0.0
H603 H 0.81666 0.70121 0.71728 0.0
H604 H 0.80927 0.74244 0.70629 0.0
H605 H 0.79583 0.72763 0.74463 0.0
H606 H 0.82754 0.77323 0.77334 0.0
H607 H 0.84052 0.78794 0.73502 0.0
H608 H 0.87 0.77804 0.7652 0.0
H609 H 0.94426 0.68736 0.72313 0.0
H610 H 0.95792 0.72094 0.67593 0.0
H611 H 0.86472 0.76741 0.68251 0.0
C612 C 0.84403 0.70852 0.79787 0.0
C613 C 0.85841 0.6864 0.81904 0.0
C614 C 0.88595 0.66883 0.8093 0.0
C615 C 0.90011 0.67434 0.77937 0.0
C616 C 0.88579 0.69674 0.75916 0.0
C617 C 0.85784 0.7129 0.76755 0.0
C618 C 0.84784 0.73624 0.7416 0.0
C619 C 0.81548 0.72626 0.72655 0.0
C620 C 0.84643 0.7709 0.75459 0.0
C621 C 0.8754 0.7318 0.71818 0.0
C622 C 0.89721 0.70912 0.72889 0.0
C623 C 0.92685 0.70428 0.71375 0.0
C624 C 0.93445 0.72336 0.6871 0.0
C625 C 0.91209 0.7461 0.67556 0.0
C626 C 0.88193 0.74972 0.6907 0.0
H627 H 0.85789 0.23663 0.2834 0.0
H628 H 0.95849 0.26239 0.27272 0.0
H629 H 0.94588 0.29013 0.22181 0.0
H630 H 0.8485 0.2125 0.20746 0.0
H631 H 0.80752 0.22582 0.20182 0.0
H632 H 0.82183 0.21659 0.24135 0.0
H633 H 0.80606 0.27339 0.26125 0.0
H634 H 0.79107 0.28282 0.22178 0.0
H635 H 0.82089 0.30831 0.2404 0.0
H636 H 0.92431 0.30704 0.16871 0.0
H637 H 0.89641 0.30819 0.11615 0.0
H638 H 0.81087 0.26816 0.16011 0.0
C639 C 0.87685 0.24961 0.27111 0.0
C640 C 0.90891 0.24846 0.28217 0.0
C641 C 0.93366 0.26387 0.26474 0.0
C642 C 0.92668 0.27968 0.23593 0.0
C643 C 0.89493 0.27937 0.22486 0.0
C644 C 0.87038 0.26466 0.24192 0.0
C645 C 0.83972 0.26246 0.22232 0.0
C646 C 0.8288 0.22727 0.21797 0.0
C647 C 0.81285 0.28298 0.23733 0.0
C648 C 0.85131 0.27681 0.19113 0.0
C649 C 0.88287 0.28736 0.19334 0.0
C650 C 0.89942 0.29941 0.16684 0.0
C651 C 0.88348 0.29998 0.13717 0.0
C652 C 0.85176 0.28788 0.13436 0.0
C653 C 0.83527 0.27703 0.16174 0.0
H654 H -0.0041 0.04934 0.71769 0.0
H655 H 0.98055 0.08425 0.62078 0.0
H656 H 0.96967 0.02881 0.60253 0.0
H657 H 0.0373 0.97801 0.69556 0.0
H658 H 0.01971 0.95371 0.72672 0.0
H659 H 0.02463 -0.00369 0.73271 0.0
H660 H 0.96357 0.00218 0.74477 0.0
H661 H 0.95859 0.95952 0.73941 0.0
H662 H 0.93452 -0.0129 0.71625 0.0
H663 H 0.96157 0.96925 0.59464 0.0
H664 H 0.95378 0.9105 0.59847 0.0
H665 H 0.97622 0.91496 0.70022 0.0
C666 C -0.01033 0.04546 0.69274 0.0
C667 C -0.0111 0.07119 0.67071 0.0
C668 C 0.98123 0.06492 0.63813 0.0
C669 C 0.97511 0.03351 0.6275 0.0
C670 C 0.97693 0.00861 0.64968 0.0
C671 C 0.98381 0.01426 0.68165 0.0
C672 C 0.98487 0.98325 0.7005 0.0
C673 C 0.01864 0.9775 0.7147 0.0
C674 C 0.95883 0.98301 0.72677 0.0
C675 C 0.97733 0.95931 0.67416 0.0
C676 C 0.97289 0.97435 0.64501 0.0
C677 C 0.96502 0.95717 0.61734 0.0
C678 C 0.96077 0.92379 0.61974 0.0
C679 C 0.96449 0.90797 0.64959 0.0
C680 C 0.97349 0.9261 0.67692 0.0
H681 H 0.97874 0.08421 0.2644 0.0
H682 H 0.97507 0.09538 0.36783 0.0
H683 H -0.01203 0.03751 0.37415 0.0
H684 H 0.93911 0.00913 0.26279 0.0
H685 H 0.96218 -0.00618 0.22948 0.0
H686 H 0.95542 0.03638 0.23342 0.0
H687 H 0.01712 0.04685 0.23201 0.0
H688 H 0.02404 0.00438 0.22749 0.0
H689 H 0.04302 0.0261 0.25987 0.0
H690 H 0.00026 0.97734 0.36823 0.0
H691 H 0.01157 0.92152 0.35077 0.0
H692 H 0.00347 0.95158 0.25136 0.0
C693 C 0.98143 0.07478 0.28845 0.0
C694 C 0.97651 0.09437 0.31565 0.0
C695 C 0.97913 0.08078 0.34667 0.0
C696 C 0.98632 0.04798 0.35047 0.0
C697 C -0.00971 0.02918 0.32299 0.0
C698 C -0.01211 0.04223 0.29262 0.0
C699 C -0.00865 0.01698 0.26683 0.0
C700 C 0.96016 0.01391 0.24697 0.0
C701 C 0.02063 0.02399 0.2453 0.0
C702 C -0.00327 -0.01235 0.28733 0.0
C703 C -0.00399 -0.00506 0.31966 0.0
C704 C 0.00083 0.9714 0.34295 0.0
C705 C 0.00713 0.93975 0.33281 0.0
C706 C 0.00843 0.93205 0.29968 0.0
C707 C 0.00264 0.95642 0.27688 0.0
H708 H 0.63325 0.94158 0.92629 0.0
H709 H 0.67326 0.02215 0.87403 0.0
H710 H 0.66952 0.05588 0.92256 0.0
H711 H 0.58048 -0.00945 -0.01586 0.0
H712 H 0.59001 0.96388 0.01681 0.0
H713 H 0.58756 0.94851 0.97639 0.0
H714 H 0.64535 0.92552 0.98183 0.0
H715 H 0.64812 0.94102 0.02198 0.0
H716 H 0.67801 0.95209 -0.00738 0.0
H717 H 0.67255 0.07695 0.97705 0.0
H718 H 0.68182 0.08458 0.03498 0.0
H719 H 0.64022 -0.00896 0.05407 0.0
C720 C 0.63978 0.96674 0.92488 0.0
C721 C 0.65306 0.97958 0.8965 0.0
C722 C 0.66275 0.01213 0.89559 0.0
C723 C 0.66054 0.03146 0.92296 0.0
C724 C 0.64867 0.01783 0.95106 0.0
C725 C 0.63821 -0.01373 0.95229 0.0
C726 C 0.63131 0.97618 -0.01342 0.0
C727 C 0.59519 0.96939 -0.00875 0.0
C728 C 0.65194 0.947 -0.0037 0.0
C729 C 0.64147 0.0063 0.0045 0.0
C730 C 0.65064 0.03023 0.98337 0.0
C731 C 0.66458 0.05884 -0.00614 0.0
C732 C 0.66991 0.06289 0.0267 0.0
C733 C 0.66125 0.03856 0.04866 0.0
C734 C 0.64611 0.01027 0.03762 0.0
H735 H 0.26838 0.97345 0.05177 0.0
H736 H 0.3709 0.955 0.06314 0.0
H737 H 0.38011 0.97272 0.00735 0.0
H738 H 0.2617 0.9443 0.97281 0.0
H739 H 0.23296 0.9742 0.96017 0.0
H740 H 0.23474 0.9623 0.00161 0.0
H741 H 0.2435 0.0216 0.0188 0.0
H742 H 0.24134 0.03374 0.97741 0.0
H743 H 0.27605 0.04431 0.00128 0.0
H744 H 0.37753 -0.00946 0.94914 0.0
H745 H 0.36355 0.00839 0.89433 0.0
H746 H 0.26264 0.01368 0.92189 0.0
C747 C 0.2929 0.9735 0.04283 0.0
C748 C 0.31891 0.96284 0.06199 0.0
C749 C 0.35053 0.96309 0.04902 0.0
C750 C 0.35602 0.97308 0.01732 0.0
C751 C 0.32967 0.98274 -0.00107 0.0
C752 C 0.29877 0.9832 0.01133 0.0
C753 C 0.27439 -0.00631 -0.01354 0.0
C754 C 0.24949 0.96703 0.97988 0.0
C755 C 0.25786 0.02521 -0.0034 0.0
C756 C 0.29631 -0.00127 0.95797 0.0
C757 C 0.32813 -0.00752 0.96558 0.0
C758 C 0.35268 -0.00444 0.94296 0.0
C759 C 0.34448 0.00564 0.91186 0.0
C760 C 0.31197 0.01232 0.90365 0.0
C761 C 0.2877 0.00856 0.92715 0.0
H762 H 0.93724 0.62562 0.96918 0.0
H763 H 0.94645 0.68566 0.88491 0.0
H764 H 0.00575 0.68136 0.88794 0.0
H765 H -0.00029 0.6618 0.01128 0.0
H766 H 0.0143 0.62585 0.03045 0.0
H767 H 0.97276 0.62854 0.01838 0.0
H768 H 0.97916 0.5764 -0.01516 0.0
H769 H 0.02092 0.57372 -0.00332 0.0
H770 H 0.01029 0.57405 0.95476 0.0
H771 H 0.06285 0.67632 0.90315 0.0
H772 H 0.11461 0.67449 0.93207 0.0
H773 H 0.06961 0.61878 0.00779 0.0
C774 C 0.95192 0.63705 0.95101 0.0
C775 C 0.93766 0.65567 0.92661 0.0
C776 C 0.95725 0.6712 0.90366 0.0
C777 C -0.00916 0.66868 0.90504 0.0
C778 C 0.00443 0.65065 0.92966 0.0
C779 C 0.9857 0.63521 0.95239 0.0
C780 C 0.00657 0.62093 0.97862 0.0
C781 C -0.00218 0.63515 0.01162 0.0
C782 C 0.00408 0.58408 0.97872 0.0
C783 C 0.0397 0.63187 0.96769 0.0
C784 C 0.0379 0.64831 0.93899 0.0
C785 C 0.06474 0.66306 0.92537 0.0
C786 C 0.09403 0.66195 0.94202 0.0
C787 C 0.09622 0.6464 0.97213 0.0
C788 C 0.06889 0.63029 -0.01547 0.0
H789 H 0.05462 0.30718 0.98372 0.0
H790 H 0.06564 0.20497 0.96473 0.0
H791 H 0.00713 0.19763 0.97051 0.0
H792 H -0.00778 0.29844 0.04397 0.0
H793 H 0.9709 0.33406 0.03159 0.0
H794 H 0.01386 0.33133 0.02587 0.0
H795 H 0.00608 0.34303 0.96532 0.0
H796 H 0.96302 0.34518 0.97076 0.0
H797 H 0.97983 0.31762 0.94186 0.0
H798 H 0.94771 0.20109 0.97658 0.0
H799 H 0.89137 0.21387 -0.01016 0.0
H800 H 0.91812 0.31361 0.00618 0.0
C801 C 0.04481 0.28319 0.98108 0.0
C802 C 0.06493 0.2567 0.9737 0.0
C803 C 0.05095 0.22572 0.97047 0.0
C804 C 0.01763 0.22127 0.97346 0.0
C805 C -0.00151 0.24796 0.97988 0.0
C806 C 0.01152 0.27822 -0.0158 0.0
C807 C 0.98545 0.3026 -0.00805 0.0
C808 C -0.00906 0.31748 0.02533 0.0
C809 C 0.98349 0.32865 0.96592 0.0
C810 C 0.95583 0.28121 -0.00856 0.0
C811 C 0.96396 0.24987 -0.01599 0.0
C812 C 0.941 0.22551 0.98254 0.0
C813 C 0.909 0.23309 -0.00996 0.0
C814 C 0.90019 0.26475 -0.00083 0.0
C815 C 0.92391 0.28925 -0.00097 0.0
loop_
_geom_bond_atom_site_label_1
_geom_bond_atom_site_label_2
_geom_bond_distance
_geom_bond_site_symmetry_2
_ccdc_geom_bond_type
Co0 O1 2.216 . S
Co0 O2 2.091 . S
Co0 O4 2.004 . S
Co0 O10 2.021 . S
Co0 O12 2.137 . S
Co0 O13 2.244 . S
O1 Co0 2.216 . S
O1 C8 1.247 . S
O2 Co0 2.091 . S
O2 C8 1.261 . S
C3 O12 1.247 . S
C3 O13 1.272 . S
O4 Co0 2.004 . S
O4 C9 1.259 . S
Co5 O6 2.061 . S
Co5 O11 2.052 . S
Co5 O13 2.135 . S
O6 Co5 2.061 . S
O6 C9 1.235 . S
C7 O10 1.238 . S
C7 O11 1.241 . S
C8 O1 1.247 . S
C8 O2 1.261 . S
C9 O4 1.259 . S
C9 O6 1.235 . S
O10 Co0 2.021 . S
O10 C7 1.238 . S
O11 Co5 2.052 . S
O11 C7 1.241 . S
O12 Co0 2.137 . S
O12 C3 1.247 . S
O13 Co0 2.244 . S
O13 C3 1.272 . S
O13 Co5 2.135 . S
Co14 O15 2.216 . S
Co14 O16 2.091 . S
Co14 O18 2.004 . S
Co14 O24 2.021 . S
Co14 O26 2.137 . S
Co14 O27 2.244 . S
O15 Co14 2.216 . S
O15 C22 1.247 . S
O16 Co14 2.091 . S
O16 C22 1.261 . S
C17 O26 1.247 . S
C17 O27 1.272 . S
O18 Co14 2.004 . S
O18 C23 1.259 . S
Co19 O20 2.061 . S
Co19 O25 2.052 . S
Co19 O27 2.135 . S
O20 Co19 2.061 . S
O20 C23 1.235 . S
C21 O24 1.238 . S
C21 O25 1.241 . S
C22 O15 1.247 . S
C22 O16 1.261 . S
C23 O18 1.259 . S
C23 O20 1.235 . S
O24 Co14 2.021 . S
O24 C21 1.238 . S
O25 Co19 2.052 . S
O25 C21 1.241 . S
O26 Co14 2.137 . S
O26 C17 1.247 . S
O27 Co14 2.244 . S
O27 C17 1.272 . S
O27 Co19 2.135 . S
Co28 O29 2.216 . S
Co28 O30 2.091 . S
Co28 O32 2.004 . S
Co28 O38 2.021 . S
Co28 O40 2.137 . S
Co28 O41 2.244 . S
O29 Co28 2.216 . S
O29 C36 1.247 . S
O30 Co28 2.091 . S
O30 C36 1.261 . S
C31 O40 1.247 . S
C31 O41 1.272 . S
O32 Co28 2.004 . S
O32 C37 1.259 . S
Co33 O34 2.061 . S
Co33 O39 2.052 . S
Co33 O41 2.135 . S
O34 Co33 2.061 . S
O34 C37 1.235 . S
C35 O38 1.238 . S
C35 O39 1.241 . S
C36 O29 1.247 . S
C36 O30 1.261 . S
C37 O32 1.259 . S
C37 O34 1.235 . S
O38 Co28 2.021 . S
O38 C35 1.238 . S
O39 Co33 2.052 . S
O39 C35 1.241 . S
O40 Co28 2.137 . S
O40 C31 1.247 . S
O41 Co28 2.244 . S
O41 C31 1.272 . S
O41 Co33 2.135 . S
Co42 O43 2.216 . S
Co42 O44 2.091 . S
Co42 O46 2.004 . S
Co42 O52 2.021 . S
Co42 O54 2.137 . S
Co42 O55 2.244 . S
O43 Co42 2.216 . S
O43 C50 1.247 . S
O44 Co42 2.091 . S
O44 C50 1.261 . S
C45 O54 1.247 . S
C45 O55 1.272 . S
O46 Co42 2.004 . S
O46 C51 1.259 . S
Co47 O48 2.061 . S
Co47 O53 2.052 . S
Co47 O55 2.135 . S
O48 Co47 2.061 . S
O48 C51 1.235 . S
C49 O52 1.238 . S
C49 O53 1.241 . S
C50 O43 1.247 . S
C50 O44 1.261 . S
C51 O46 1.259 . S
C51 O48 1.235 . S
O52 Co42 2.021 . S
O52 C49 1.238 . S
O53 Co47 2.052 . S
O53 C49 1.241 . S
O54 Co42 2.137 . S
O54 C45 1.247 . S
O55 Co42 2.244 . S
O55 C45 1.272 . S
O55 Co47 2.135 . S
Co56 O57 2.216 . S
Co56 O58 2.091 . S
Co56 O60 2.004 . S
Co56 O66 2.021 . S
Co56 O68 2.137 . S
Co56 O69 2.244 . S
O57 Co56 2.216 . S
O57 C64 1.247 . S
O58 Co56 2.091 . S
O58 C64 1.261 . S
C59 O68 1.247 . S
C59 O69 1.272 . S
O60 Co56 2.004 . S
O60 C65 1.259 . S
Co61 O62 2.061 . S
Co61 O67 2.052 . S
Co61 O69 2.135 . S
O62 Co61 2.061 . S
O62 C65 1.235 . S
C63 O66 1.238 . S
C63 O67 1.241 . S
C64 O57 1.247 . S
C64 O58 1.261 . S
C65 O60 1.259 . S
C65 O62 1.235 . S
O66 Co56 2.021 . S
O66 C63 1.238 . S
O67 Co61 2.052 . S
O67 C63 1.241 . S
O68 Co56 2.137 . S
O68 C59 1.247 . S
O69 Co56 2.244 . S
O69 C59 1.272 . S
O69 Co61 2.135 . S
Co70 O71 2.216 . S
Co70 O72 2.091 . S
Co70 O74 2.004 . S
Co70 O80 2.021 . S
Co70 O82 2.137 . S
Co70 O83 2.244 . S
O71 Co70 2.216 . S
O71 C78 1.247 . S
O72 Co70 2.091 . S
O72 C78 1.261 . S
C73 O82 1.247 . S
C73 O83 1.272 . S
O74 Co70 2.004 . S
O74 C79 1.259 . S
Co75 O76 2.061 . S
Co75 O81 2.052 . S
Co75 O83 2.135 . S
O76 Co75 2.061 . S
O76 C79 1.235 . S
C77 O80 1.238 . S
C77 O81 1.241 . S
C78 O71 1.247 . S
C78 O72 1.261 . S
C79 O74 1.259 . S
C79 O76 1.235 . S
O80 Co70 2.021 . S
O80 C77 1.238 . S
O81 Co75 2.052 . S
O81 C77 1.241 . S
O82 Co70 2.137 . S
O82 C73 1.247 . S
O83 Co70 2.244 . S
O83 C73 1.272 . S
O83 Co75 2.135 . S
Co84 O85 2.216 . S
Co84 O86 2.091 . S
Co84 O88 2.004 . S
Co84 O94 2.021 . S
Co84 O96 2.137 . S
Co84 O97 2.244 . S
O85 Co84 2.216 . S
O85 C92 1.247 . S
O86 Co84 2.091 . S
O86 C92 1.261 . S
C87 O96 1.247 . S
C87 O97 1.272 . S
O88 Co84 2.004 . S
O88 C93 1.259 . S
Co89 O90 2.061 . S
Co89 O95 2.052 . S
Co89 O97 2.135 . S
O90 Co89 2.061 . S
O90 C93 1.235 . S
C91 O94 1.238 . S
C91 O95 1.241 . S
C92 O85 1.247 . S
C92 O86 1.261 . S
C93 O88 1.259 . S
C93 O90 1.235 . S
O94 Co84 2.021 . S
O94 C91 1.238 . S
O95 Co89 2.052 . S
O95 C91 1.241 . S
O96 Co84 2.137 . S
O96 C87 1.247 . S
O97 Co84 2.244 . S
O97 C87 1.272 . S
O97 Co89 2.135 . S
Co98 O99 2.216 . S
Co98 O100 2.091 . S
Co98 O102 2.004 . S
Co98 O108 2.021 . S
Co98 O110 2.137 . S
Co98 O111 2.244 . S
O99 Co98 2.216 . S
O99 C106 1.247 . S
O100 Co98 2.091 . S
O100 C106 1.261 . S
C101 O110 1.247 . S
C101 O111 1.272 . S
O102 Co98 2.004 . S
O102 C107 1.259 . S
Co103 O104 2.061 . S
Co103 O109 2.052 . S
Co103 O111 2.135 . S
O104 Co103 2.061 . S
O104 C107 1.235 . S
C105 O108 1.238 . S
C105 O109 1.241 . S
C106 O99 1.247 . S
C106 O100 1.261 . S
C107 O102 1.259 . S
C107 O104 1.235 . S
O108 Co98 2.021 . S
O108 C105 1.238 . S
O109 Co103 2.052 . S
O109 C105 1.241 . S
O110 Co98 2.137 . S
O110 C101 1.247 . S
O111 Co98 2.244 . S
O111 C101 1.272 . S
O111 Co103 2.135 . S
Co112 O113 2.216 . S
Co112 O114 2.091 . S
Co112 O116 2.004 . S
Co112 O122 2.021 . S
Co112 O124 2.137 . S
Co112 O125 2.244 . S
O113 Co112 2.216 . S
O113 C120 1.247 . S
O114 Co112 2.091 . S
O114 C120 1.261 . S
C115 O124 1.247 . S
C115 O125 1.272 . S
O116 Co112 2.004 . S
O116 C121 1.259 . S
Co117 O118 2.061 . S
Co117 O123 2.052 . S
Co117 O125 2.135 . S
O118 Co117 2.061 . S
O118 C121 1.235 . S
C119 O122 1.238 . S
C119 O123 1.241 . S
C120 O113 1.247 . S
C120 O114 1.261 . S
C121 O116 1.259 . S
C121 O118 1.235 . S
O122 Co112 2.021 . S
O122 C119 1.238 . S
O123 Co117 2.052 . S
O123 C119 1.241 . S
O124 Co112 2.137 . S
O124 C115 1.247 . S
O125 Co112 2.244 . S
O125 C115 1.272 . S
O125 Co117 2.135 . S
Co126 O127 2.216 . S
Co126 O128 2.091 . S
Co126 O130 2.004 . S
Co126 O136 2.021 . S
Co126 O138 2.137 . S
Co126 O139 2.244 . S
O127 Co126 2.216 . S
O127 C134 1.247 . S
O128 Co126 2.091 . S
O128 C134 1.261 . S
C129 O138 1.247 . S
C129 O139 1.272 . S
O130 Co126 2.004 . S
O130 C135 1.259 . S
Co131 O132 2.061 . S
Co131 O137 2.052 . S
Co131 O139 2.135 . S
O132 Co131 2.061 . S
O132 C135 1.235 . S
C133 O136 1.238 . S
C133 O137 1.241 . S
C134 O127 1.247 . S
C134 O128 1.261 . S
C135 O130 1.259 . S
C135 O132 1.235 . S
O136 Co126 2.021 . S
O136 C133 1.238 . S
O137 Co131 2.052 . S
O137 C133 1.241 . S
O138 Co126 2.137 . S
O138 C129 1.247 . S
O139 Co126 2.244 . S
O139 C129 1.272 . S
O139 Co131 2.135 . S
Co140 O141 2.216 . S
Co140 O142 2.091 . S
Co140 O144 2.004 . S
Co140 O150 2.021 . S
Co140 O152 2.137 . S
Co140 O153 2.244 . S
O141 Co140 2.216 . S
O141 C148 1.247 . S
O142 Co140 2.091 . S
O142 C148 1.261 . S
C143 O152 1.247 . S
C143 O153 1.272 . S
O144 Co140 2.004 . S
O144 C149 1.259 . S
Co145 O146 2.061 . S
Co145 O151 2.052 . S
Co145 O153 2.135 . S
O146 Co145 2.061 . S
O146 C149 1.235 . S
C147 O150 1.238 . S
C147 O151 1.241 . S
C148 O141 1.247 . S
C148 O142 1.261 . S
C149 O144 1.259 . S
C149 O146 1.235 . S
O150 Co140 2.021 . S
O150 C147 1.238 . S
O151 Co145 2.052 . S
O151 C147 1.241 . S
O152 Co140 2.137 . S
O152 C143 1.247 . S
O153 Co140 2.244 . S
O153 C143 1.272 . S
O153 Co145 2.135 . S
Co154 O155 2.216 . S
Co154 O156 2.091 . S
Co154 O158 2.004 . S
Co154 O164 2.021 . S
Co154 O166 2.137 . S
Co154 O167 2.244 . S
O155 Co154 2.216 . S
O155 C162 1.247 . S
O156 Co154 2.091 . S
O156 C162 1.261 . S
C157 O166 1.247 . S
C157 O167 1.272 . S
O158 Co154 2.004 . S
O158 C163 1.259 . S
Co159 O160 2.061 . S
Co159 O165 2.052 . S
Co159 O167 2.135 . S
O160 Co159 2.061 . S
O160 C163 1.235 . S
C161 O164 1.238 . S
C161 O165 1.241 . S
C162 O155 1.247 . S
C162 O156 1.261 . S
C163 O158 1.259 . S
C163 O160 1.235 . S
O164 Co154 2.021 . S
O164 C161 1.238 . S
O165 Co159 2.052 . S
O165 C161 1.241 . S
O166 Co154 2.137 . S
O166 C157 1.247 . S
O167 Co154 2.244 . S
O167 C157 1.272 . S
O167 Co159 2.135 . S
H168 C180 0.930 . S
H169 C182 0.930 . S
H170 C183 0.930 . S
H171 C187 0.959 . S
H172 C187 0.959 . S
H173 C187 0.961 . S
H174 C188 0.960 . S
H175 C188 0.961 . S
H176 C188 0.974 . S
H177 C191 0.929 . S
H178 C192 0.931 . S
H179 C194 0.930 . S
C180 H168 0.930 . S
C180 C181 1.399 . S
C180 C185 1.399 . S
C181 C180 1.399 . S
C181 C182 1.376 . S
C182 H169 0.930 . S
C182 C181 1.376 . S
C182 C183 1.388 . S
C183 H170 0.930 . S
C183 C182 1.388 . S
C183 C184 1.390 . S
C184 C183 1.390 . S
C184 C185 1.394 . S
C184 C190 1.465 . S
C185 C180 1.399 . S
C185 C184 1.394 . S
C185 C186 1.516 1_655 S
C186 C185 1.516 1_455 S
C186 C187 1.502 . S
C186 C188 1.561 . S
C186 C189 1.526 . S
C187 H171 0.959 . S
C187 H172 0.959 . S
C187 H173 0.961 . S
C187 C186 1.502 . S
C188 H174 0.960 . S
C188 H175 0.961 . S
C188 H176 0.974 . S
C188 C186 1.561 . S
C189 C186 1.526 . S
C189 C190 1.396 1_455 S
C189 C194 1.390 . S
C190 C184 1.465 . S
C190 C189 1.396 1_655 S
C190 C191 1.399 . S
C191 H177 0.929 . S
C191 C190 1.399 . S
C191 C192 1.385 1_655 S
C192 H178 0.931 . S
C192 C191 1.385 1_455 S
C192 C193 1.389 . S
C193 C192 1.389 . S
C193 C194 1.387 . S
C194 H179 0.930 . S
C194 C189 1.390 . S
C194 C193 1.387 . S
H195 C207 0.930 . S
H196 C209 0.930 . S
H197 C210 0.930 . S
H198 C214 0.959 . S
H199 C214 0.959 . S
H200 C214 0.961 . S
H201 C215 0.960 . S
H202 C215 0.961 . S
H203 C215 0.959 1_655 S
H204 C218 0.929 . S
H205 C219 0.931 . S
H206 C221 0.930 . S
C207 H195 0.930 . S
C207 C208 1.399 . S
C207 C212 1.399 . S
C208 C207 1.399 . S
C208 C209 1.376 . S
C209 H196 0.930 . S
C209 C208 1.376 . S
C209 C210 1.388 1_455 S
C210 H197 0.930 . S
C210 C209 1.388 1_655 S
C210 C211 1.390 . S
C211 C210 1.390 . S
C211 C212 1.394 1_655 S
C211 C217 1.465 . S
C212 C207 1.399 . S
C212 C211 1.394 1_455 S
C212 C213 1.516 . S
C213 C212 1.516 . S
C213 C214 1.502 . S
C213 C215 1.561 . S
C213 C216 1.526 1_455 S
C214 H198 0.959 . S
C214 H199 0.959 . S
C214 H200 0.961 . S
C214 C213 1.502 . S
C215 H201 0.960 . S
C215 H202 0.961 . S
C215 H203 0.959 1_455 S
C215 C213 1.561 . S
C216 C213 1.526 1_655 S
C216 C217 1.396 . S
C216 C221 1.390 . S
C217 C211 1.465 . S
C217 C216 1.396 . S
C217 C218 1.399 . S
C218 H204 0.929 . S
C218 C217 1.399 . S
C218 C219 1.385 . S
C219 H205 0.931 . S
C219 C218 1.385 . S
C219 C220 1.389 . S
C220 C219 1.389 . S
C220 C221 1.387 . S
C221 H206 0.930 . S
C221 C216 1.390 . S
C221 C220 1.387 . S
H222 C234 0.930 . S
H223 C236 0.930 . S
H224 C237 0.930 . S
H225 C241 0.959 . S
H226 C241 0.959 . S
H227 C241 0.961 . S
H228 C242 0.960 . S
H229 C242 0.961 . S
H230 C242 0.959 . S
H231 C245 0.929 . S
H232 C246 0.931 . S
H233 C248 0.930 . S
C234 H222 0.930 . S
C234 C235 1.399 . S
C234 C239 1.399 . S
C235 C234 1.399 . S
C235 C236 1.376 . S
C236 H223 0.930 . S
C236 C235 1.376 . S
C236 C237 1.388 . S
C237 H224 0.930 . S
C237 C236 1.388 . S
C237 C238 1.390 . S
C238 C237 1.390 . S
C238 C239 1.394 . S
C238 C244 1.465 1_565 S
C239 C234 1.399 . S
C239 C238 1.394 . S
C239 C240 1.504 1_565 S
C240 C239 1.504 1_545 S
C240 C241 1.519 . S
C240 C242 1.545 1_545 S
C240 C243 1.537 . S
C241 H225 0.959 . S
C241 H226 0.959 . S
C241 H227 0.961 . S
C241 C240 1.519 . S
C242 H228 0.960 . S
C242 H229 0.961 . S
C242 H230 0.959 . S
C242 C240 1.545 1_565 S
C243 C240 1.537 . S
C243 C244 1.396 . S
C243 C248 1.390 . S
C244 C238 1.465 1_545 S
C244 C243 1.396 . S
C244 C245 1.399 . S
C245 H231 0.929 . S
C245 C244 1.399 . S
C245 C246 1.385 . S
C246 H232 0.931 . S
C246 C245 1.385 . S
C246 C247 1.389 . S
C247 C246 1.389 . S
C247 C248 1.387 . S
C248 H233 0.930 . S
C248 C243 1.390 . S
C248 C247 1.387 . S
H249 C261 0.930 . S
H250 C263 0.930 . S
H251 C264 0.930 . S
H252 C268 0.959 . S
H253 C268 0.959 . S
H254 C268 0.961 . S
H255 C269 0.960 . S
H256 C269 0.961 1_545 S
H257 C269 0.959 . S
H258 C272 0.929 1_565 S
H259 C273 0.931 . S
H260 C275 0.930 . S
C261 H249 0.930 . S
C261 C262 1.399 . S
C261 C266 1.399 . S
C262 C261 1.399 . S
C262 C263 1.376 . S
C263 H250 0.930 . S
C263 C262 1.376 . S
C263 C264 1.388 . S
C264 H251 0.930 . S
C264 C263 1.388 . S
C264 C265 1.390 . S
C265 C264 1.390 . S
C265 C266 1.394 . S
C265 C271 1.465 1_565 S
C266 C261 1.399 . S
C266 C265 1.394 . S
C266 C267 1.516 1_565 S
C267 C266 1.516 1_545 S
C267 C268 1.502 . S
C267 C269 1.561 1_545 S
C267 C270 1.526 . S
C268 H252 0.959 . S
C268 H253 0.959 . S
C268 H254 0.961 . S
C268 C267 1.502 . S
C269 H255 0.960 . S
C269 H256 0.961 1_565 S
C269 H257 0.959 . S
C269 C267 1.561 1_565 S
C270 C267 1.526 . S
C270 C271 1.396 . S
C270 C275 1.390 . S
C271 C265 1.465 1_545 S
C271 C270 1.396 . S
C271 C272 1.399 . S
C272 H258 0.929 1_545 S
C272 C271 1.399 . S
C272 C273 1.385 . S
C273 H259 0.931 . S
C273 C272 1.385 . S
C273 C274 1.389 . S
C274 C273 1.389 . S
C274 C275 1.387 . S
C275 H260 0.930 . S
C275 C270 1.390 . S
C275 C274 1.387 . S
H276 C288 0.930 . S
H277 C290 0.930 . S
H278 C291 0.930 . S
H279 C295 0.959 . S
H280 C295 0.959 . S
H281 C295 0.961 . S
H282 C296 0.960 . S
H283 C296 0.961 . S
H284 C296 0.959 . S
H285 C299 0.929 . S
H286 C300 0.931 . S
H287 C302 0.930 . S
C288 H276 0.930 . S
C288 C289 1.399 . S
C288 C293 1.399 . S
C289 C288 1.399 . S
C289 C290 1.376 . S
C290 H277 0.930 . S
C290 C289 1.376 . S
C290 C291 1.388 1_556 S
C291 H278 0.930 . S
C291 C290 1.388 1_554 S
C291 C292 1.386 1_554 S
C292 C291 1.386 1_556 S
C292 C293 1.419 . S
C292 C298 1.447 1_556 S
C293 C288 1.399 . S
C293 C292 1.419 . S
C293 C294 1.516 . S
C294 C293 1.516 . S
C294 C295 1.502 . S
C294 C296 1.561 . S
C294 C297 1.526 1_556 S
C295 H279 0.959 . S
C295 H280 0.959 . S
C295 H281 0.961 . S
C295 C294 1.502 . S
C296 H282 0.960 . S
C296 H283 0.961 . S
C296 H284 0.959 . S
C296 C294 1.561 . S
C297 C294 1.526 1_554 S
C297 C298 1.396 . S
C297 C302 1.390 . S
C298 C292 1.447 1_554 S
C298 C297 1.396 . S
C298 C299 1.399 . S
C299 H285 0.929 . S
C299 C298 1.399 . S
C299 C300 1.385 . S
C300 H286 0.931 . S
C300 C299 1.385 . S
C300 C301 1.389 . S
C301 C300 1.389 . S
C301 C302 1.387 . S
C302 H287 0.930 . S
C302 C297 1.390 . S
C302 C301 1.387 . S
H303 C315 0.930 . S
H304 C317 0.930 . S
H305 C318 0.930 . S
H306 C322 0.959 . S
H307 C322 0.959 . S
H308 C322 0.961 . S
H309 C323 0.960 . S
H310 C323 0.961 . S
H311 C323 0.959 . S
H312 C326 0.929 . S
H313 C327 0.931 . S
H314 C329 0.930 . S
C315 H303 0.930 . S
C315 C316 1.399 . S
C315 C320 1.399 . S
C316 C315 1.399 . S
C316 C317 1.376 . S
C317 H304 0.930 . S
C317 C316 1.376 . S
C317 C318 1.388 . S
C318 H305 0.930 . S
C318 C317 1.388 . S
C318 C319 1.390 . S
C319 C318 1.390 . S
C319 C320 1.394 . S
C319 C325 1.458 1_556 S
C320 C315 1.399 . S
C320 C319 1.394 . S
C320 C321 1.516 1_556 S
C321 C320 1.516 1_554 S
C321 C322 1.502 . S
C321 C323 1.561 . S
C321 C324 1.526 . S
C322 H306 0.959 . S
C322 H307 0.959 . S
C322 H308 0.961 . S
C322 C321 1.502 . S
C323 H309 0.960 . S
C323 H310 0.961 . S
C323 H311 0.959 . S
C323 C321 1.561 . S
C324 C321 1.526 . S
C324 C325 1.407 . S
C324 C329 1.390 . S
C325 C319 1.458 1_554 S
C325 C324 1.407 . S
C325 C326 1.397 1_554 S
C326 H312 0.929 . S
C326 C325 1.397 1_556 S
C326 C327 1.385 1_556 S
C327 H313 0.931 . S
C327 C326 1.385 1_554 S
C327 C328 1.389 . S
C328 C327 1.389 . S
C328 C329 1.387 . S
C329 H314 0.930 . S
C329 C324 1.390 . S
C329 C328 1.387 . S
H330 C342 0.930 . S
H331 C344 0.930 . S
H332 C345 0.930 . S
H333 C349 0.959 . S
H334 C349 0.959 . S
H335 C349 0.961 . S
H336 C350 0.960 . S
H337 C350 0.961 . S
H338 C350 0.959 . S
H339 C353 0.929 . S
H340 C354 0.931 . S
H341 C356 0.930 . S
C342 H330 0.930 . S
C342 C343 1.399 . S
C342 C347 1.399 . S
C343 C342 1.399 . S
C343 C344 1.376 . S
C344 H331 0.930 . S
C344 C343 1.376 . S
C344 C345 1.388 . S
C345 H332 0.930 . S
C345 C344 1.388 . S
C345 C346 1.390 . S
C346 C345 1.390 . S
C346 C347 1.394 . S
C346 C352 1.465 . S
C347 C342 1.399 . S
C347 C346 1.394 . S
C347 C348 1.516 . S
C348 C347 1.516 . S
C348 C349 1.502 . S
C348 C350 1.561 . S
C348 C351 1.526 . S
C349 H333 0.959 . S
C349 H334 0.959 . S
C349 H335 0.961 . S
C349 C348 1.502 . S
C350 H336 0.960 . S
C350 H337 0.961 . S
C350 H338 0.959 . S
C350 C348 1.561 . S
C351 C348 1.526 . S
C351 C352 1.396 . S
C351 C356 1.390 . S
C352 C346 1.465 . S
C352 C351 1.396 . S
C352 C353 1.399 . S
C353 H339 0.929 . S
C353 C352 1.399 . S
C353 C354 1.385 . S
C354 H340 0.931 . S
C354 C353 1.385 . S
C354 C355 1.389 . S
C355 C354 1.389 . S
C355 C356 1.387 . S
C356 H341 0.930 . S
C356 C351 1.390 . S
C356 C355 1.387 . S
H357 C369 0.930 . S
H358 C371 0.930 . S
H359 C372 0.930 . S
H360 C376 0.959 . S
H361 C376 0.959 . S
H362 C376 0.961 . S
H363 C377 0.960 . S
H364 C377 0.961 . S
H365 C377 0.959 . S
H366 C380 0.929 . S
H367 C381 0.931 . S
H368 C383 0.930 . S
C369 H357 0.930 . S
C369 C370 1.399 . S
C369 C374 1.399 . S
C370 C369 1.399 . S
C370 C371 1.376 . S
C371 H358 0.930 . S
C371 C370 1.376 . S
C371 C372 1.388 . S
C372 H359 0.930 . S
C372 C371 1.388 . S
C372 C373 1.390 . S
C373 C372 1.390 . S
C373 C374 1.394 . S
C373 C379 1.465 . S
C374 C369 1.399 . S
C374 C373 1.394 . S
C374 C375 1.516 . S
C375 C374 1.516 . S
C375 C376 1.502 . S
C375 C377 1.561 . S
C375 C378 1.526 . S
C376 H360 0.959 . S
C376 H361 0.959 . S
C376 H362 0.961 . S
C376 C375 1.502 . S
C377 H363 0.960 . S
C377 H364 0.961 . S
C377 H365 0.959 . S
C377 C375 1.561 . S
C378 C375 1.526 . S
C378 C379 1.396 . S
C378 C383 1.390 . S
C379 C373 1.465 . S
C379 C378 1.396 . S
C379 C380 1.399 . S
C380 H366 0.929 . S
C380 C379 1.399 . S
C380 C381 1.385 . S
C381 H367 0.931 . S
C381 C380 1.385 . S
C381 C382 1.389 . S
C382 C381 1.389 . S
C382 C383 1.387 . S
C383 H368 0.930 . S
C383 C378 1.390 . S
C383 C382 1.387 . S
H384 C396 0.930 . S
H385 C398 0.930 . S
H386 C399 0.930 . S
H387 C403 0.959 . S
H388 C403 0.959 . S
H389 C403 0.961 . S
H390 C404 0.960 . S
H391 C404 0.961 . S
H392 C404 0.959 . S
H393 C407 0.929 . S
H394 C408 0.931 . S
H395 C410 0.930 . S
C396 H384 0.930 . S
C396 C397 1.399 . S
C396 C401 1.399 . S
C397 C396 1.399 . S
C397 C398 1.376 . S
C398 H385 0.930 . S
C398 C397 1.376 . S
C398 C399 1.388 . S
C399 H386 0.930 . S
C399 C398 1.388 . S
C399 C400 1.390 . S
C400 C399 1.390 . S
C400 C401 1.394 . S
C400 C406 1.465 . S
C401 C396 1.399 . S
C401 C400 1.394 . S
C401 C402 1.516 . S
C402 C401 1.516 . S
C402 C403 1.502 . S
C402 C404 1.561 . S
C402 C405 1.526 . S
C403 H387 0.959 . S
C403 H388 0.959 . S
C403 H389 0.961 . S
C403 C402 1.502 . S
C404 H390 0.960 . S
C404 H391 0.961 . S
C404 H392 0.959 . S
C404 C402 1.561 . S
C405 C402 1.526 . S
C405 C406 1.396 . S
C405 C410 1.390 . S
C406 C400 1.465 . S
C406 C405 1.396 . S
C406 C407 1.399 . S
C407 H393 0.929 . S
C407 C406 1.399 . S
C407 C408 1.385 . S
C408 H394 0.931 . S
C408 C407 1.385 . S
C408 C409 1.389 . S
C409 C408 1.389 . S
C409 C410 1.387 . S
C410 H395 0.930 . S
C410 C405 1.390 . S
C410 C409 1.387 . S
H411 C423 0.930 . S
H412 C425 0.930 . S
H413 C426 0.930 . S
H414 C430 0.959 . S
H415 C430 0.959 . S
H416 C430 0.961 . S
H417 C431 0.960 . S
H418 C431 0.961 . S
H419 C431 0.959 . S
H420 C434 0.929 . S
H421 C435 0.931 . S
H422 C437 0.930 . S
C423 H411 0.930 . S
C423 C424 1.399 . S
C423 C428 1.399 . S
C424 C423 1.399 . S
C424 C425 1.376 . S
C425 H412 0.930 . S
C425 C424 1.376 . S
C425 C426 1.388 . S
C426 H413 0.930 . S
C426 C425 1.388 . S
C426 C427 1.390 . S
C427 C426 1.390 . S
C427 C428 1.394 . S
C427 C433 1.465 . S
C428 C423 1.399 . S
C428 C427 1.394 . S
C428 C429 1.516 . S
C429 C428 1.516 . S
C429 C430 1.502 . S
C429 C431 1.561 . S
C429 C432 1.526 . S
C430 H414 0.959 . S
C430 H415 0.959 . S
C430 H416 0.961 . S
C430 C429 1.502 . S
C431 H417 0.960 . S
C431 H418 0.961 . S
C431 H419 0.959 . S
C431 C429 1.561 . S
C432 C429 1.526 . S
C432 C433 1.396 . S
C432 C437 1.390 . S
C433 C427 1.465 . S
C433 C432 1.396 . S
C433 C434 1.399 . S
C434 H420 0.929 . S
C434 C433 1.399 . S
C434 C435 1.385 . S
C435 H421 0.931 . S
C435 C434 1.385 . S
C435 C436 1.389 . S
C436 C435 1.389 . S
C436 C437 1.387 . S
C437 H422 0.930 . S
C437 C432 1.390 . S
C437 C436 1.387 . S
H438 C450 0.930 . S
H439 C452 0.930 . S
H440 C453 0.930 . S
H441 C457 0.959 . S
H442 C457 0.959 . S
H443 C457 0.961 . S
H444 C458 0.960 . S
H445 C458 0.961 . S
H446 C458 0.959 . S
H447 C461 0.929 . S
H448 C462 0.931 . S
H449 C464 0.930 . S
C450 H438 0.930 . S
C450 C451 1.399 . S
C450 C455 1.399 . S
C451 C450 1.399 . S
C451 C452 1.376 . S
C452 H439 0.930 . S
C452 C451 1.376 . S
C452 C453 1.388 . S
C453 H440 0.930 . S
C453 C452 1.388 . S
C453 C454 1.390 . S
C454 C453 1.390 . S
C454 C455 1.394 . S
C454 C460 1.465 . S
C455 C450 1.399 . S
C455 C454 1.394 . S
C455 C456 1.516 . S
C456 C455 1.516 . S
C456 C457 1.502 . S
C456 C458 1.561 . S
C456 C459 1.526 . S
C457 H441 0.959 . S
C457 H442 0.959 . S
C457 H443 0.961 . S
C457 C456 1.502 . S
C458 H444 0.960 . S
C458 H445 0.961 . S
C458 H446 0.959 . S
C458 C456 1.561 . S
C459 C456 1.526 . S
C459 C460 1.396 . S
C459 C464 1.390 . S
C460 C454 1.465 . S
C460 C459 1.396 . S
C460 C461 1.399 . S
C461 H447 0.929 . S
C461 C460 1.399 . S
C461 C462 1.385 . S
C462 H448 0.931 . S
C462 C461 1.385 . S
C462 C463 1.389 . S
C463 C462 1.389 . S
C463 C464 1.387 . S
C464 H449 0.930 . S
C464 C459 1.390 . S
C464 C463 1.387 . S
H465 C477 0.930 . S
H466 C479 0.930 . S
H467 C480 0.930 . S
H468 C484 0.959 . S
H469 C484 0.959 . S
H470 C484 0.961 . S
H471 C485 0.960 . S
H472 C485 0.961 . S
H473 C485 0.959 . S
H474 C488 0.929 . S
H475 C489 0.931 . S
H476 C491 0.930 . S
C477 H465 0.930 . S
C477 C478 1.399 . S
C477 C482 1.399 . S
C478 C477 1.399 . S
C478 C479 1.376 . S
C479 H466 0.930 . S
C479 C478 1.376 . S
C479 C480 1.388 . S
C480 H467 0.930 . S
C480 C479 1.388 . S
C480 C481 1.390 . S
C481 C480 1.390 . S
C481 C482 1.394 . S
C481 C487 1.465 . S
C482 C477 1.399 . S
C482 C481 1.394 . S
C482 C483 1.516 . S
C483 C482 1.516 . S
C483 C484 1.502 . S
C483 C485 1.561 . S
C483 C486 1.526 . S
C484 H468 0.959 . S
C484 H469 0.959 . S
C484 H470 0.961 . S
C484 C483 1.502 . S
C485 H471 0.960 . S
C485 H472 0.961 . S
C485 H473 0.959 . S
C485 C483 1.561 . S
C486 C483 1.526 . S
C486 C487 1.396 . S
C486 C491 1.390 . S
C487 C481 1.465 . S
C487 C486 1.396 . S
C487 C488 1.399 . S
C488 H474 0.929 . S
C488 C487 1.399 . S
C488 C489 1.385 . S
C489 H475 0.931 . S
C489 C488 1.385 . S
C489 C490 1.389 . S
C490 C489 1.389 . S
C490 C491 1.387 . S
C491 H476 0.930 . S
C491 C486 1.390 . S
C491 C490 1.387 . S
H492 C504 0.930 . S
H493 C506 0.930 . S
H494 C507 0.930 . S
H495 C511 0.959 . S
H496 C511 0.959 . S
H497 C511 0.961 . S
H498 C512 0.960 . S
H499 C512 0.961 . S
H500 C512 0.959 . S
H501 C515 0.929 . S
H502 C516 0.931 . S
H503 C518 0.930 . S
C504 H492 0.930 . S
C504 C505 1.399 . S
C504 C509 1.399 . S
C505 C504 1.399 . S
C505 C506 1.376 . S
C506 H493 0.930 . S
C506 C505 1.376 . S
C506 C507 1.388 . S
C507 H494 0.930 . S
C507 C506 1.388 . S
C507 C508 1.390 . S
C508 C507 1.390 . S
C508 C509 1.394 . S
C508 C514 1.465 . S
C509 C504 1.399 . S
C509 C508 1.394 . S
C509 C510 1.516 . S
C510 C509 1.516 . S
C510 C511 1.502 . S
C510 C512 1.561 . S
C510 C513 1.526 . S
C511 H495 0.959 . S
C511 H496 0.959 . S
C511 H497 0.961 . S
C511 C510 1.502 . S
C512 H498 0.960 . S
C512 H499 0.961 . S
C512 H500 0.959 . S
C512 C510 1.561 . S
C513 C510 1.526 . S
C513 C514 1.396 . S
C513 C518 1.390 . S
C514 C508 1.465 . S
C514 C513 1.396 . S
C514 C515 1.399 . S
C515 H501 0.929 . S
C515 C514 1.399 . S
C515 C516 1.385 . S
C516 H502 0.931 . S
C516 C515 1.385 . S
C516 C517 1.389 . S
C517 C516 1.389 . S
C517 C518 1.387 . S
C518 H503 0.930 . S
C518 C513 1.390 . S
C518 C517 1.387 . S
H519 C531 0.930 . S
H520 C533 0.930 . S
H521 C534 0.930 . S
H522 C538 0.959 . S
H523 C538 0.959 . S
H524 C538 0.961 . S
H525 C539 0.960 . S
H526 C539 0.961 . S
H527 C539 0.959 . S
H528 C542 0.929 . S
H529 C543 0.931 . S
H530 C545 0.930 . S
C531 H519 0.930 . S
C531 C532 1.399 . S
C531 C536 1.399 . S
C532 C531 1.399 . S
C532 C533 1.376 . S
C533 H520 0.930 . S
C533 C532 1.376 . S
C533 C534 1.388 . S
C534 H521 0.930 . S
C534 C533 1.388 . S
C534 C535 1.390 . S
C535 C534 1.390 . S
C535 C536 1.394 . S
C535 C541 1.465 . S
C536 C531 1.399 . S
C536 C535 1.394 . S
C536 C537 1.516 . S
C537 C536 1.516 . S
C537 C538 1.502 . S
C537 C539 1.561 . S
C537 C540 1.526 . S
C538 H522 0.959 . S
C538 H523 0.959 . S
C538 H524 0.961 . S
C538 C537 1.502 . S
C539 H525 0.960 . S
C539 H526 0.961 . S
C539 H527 0.959 . S
C539 C537 1.561 . S
C540 C537 1.526 . S
C540 C541 1.396 . S
C540 C545 1.390 . S
C541 C535 1.465 . S
C541 C540 1.396 . S
C541 C542 1.399 . S
C542 H528 0.929 . S
C542 C541 1.399 . S
C542 C543 1.385 . S
C543 H529 0.931 . S
C543 C542 1.385 . S
C543 C544 1.389 . S
C544 C543 1.389 . S
C544 C545 1.387 . S
C545 H530 0.930 . S
C545 C540 1.390 . S
C545 C544 1.387 . S
H546 C558 0.930 . S
H547 C560 0.930 . S
H548 C561 0.930 . S
H549 C565 0.959 . S
H550 C565 0.959 . S
H551 C565 0.961 . S
H552 C566 0.960 . S
H553 C566 0.961 . S
H554 C566 0.959 . S
H555 C569 0.929 . S
H556 C570 0.931 . S
H557 C572 0.930 . S
C558 H546 0.930 . S
C558 C559 1.399 . S
C558 C563 1.399 . S
C559 C558 1.399 . S
C559 C560 1.376 . S
C560 H547 0.930 . S
C560 C559 1.376 . S
C560 C561 1.388 . S
C561 H548 0.930 . S
C561 C560 1.388 . S
C561 C562 1.390 . S
C562 C561 1.390 . S
C562 C563 1.394 . S
C562 C568 1.465 . S
C563 C558 1.399 . S
C563 C562 1.394 . S
C563 C564 1.516 . S
C564 C563 1.516 . S
C564 C565 1.502 . S
C564 C566 1.561 . S
C564 C567 1.526 . S
C565 H549 0.959 . S
C565 H550 0.959 . S
C565 H551 0.961 . S
C565 C564 1.502 . S
C566 H552 0.960 . S
C566 H553 0.961 . S
C566 H554 0.959 . S
C566 C564 1.561 . S
C567 C564 1.526 . S
C567 C568 1.396 . S
C567 C572 1.390 . S
C568 C562 1.465 . S
C568 C567 1.396 . S
C568 C569 1.399 . S
C569 H555 0.929 . S
C569 C568 1.399 . S
C569 C570 1.385 . S
C570 H556 0.931 . S
C570 C569 1.385 . S
C570 C571 1.389 . S
C571 C570 1.389 . S
C571 C572 1.387 . S
C572 H557 0.930 . S
C572 C567 1.390 . S
C572 C571 1.387 . S
H573 C585 0.930 . S
H574 C587 0.930 . S
H575 C588 0.930 . S
H576 C592 0.959 . S
H577 C592 0.959 . S
H578 C592 0.961 . S
H579 C593 0.960 . S
H580 C593 0.961 . S
H581 C593 0.959 . S
H582 C596 0.929 . S
H583 C597 0.931 . S
H584 C599 0.930 . S
C585 H573 0.930 . S
C585 C586 1.399 . S
C585 C590 1.399 . S
C586 C585 1.399 . S
C586 C587 1.376 . S
C587 H574 0.930 . S
C587 C586 1.376 . S
C587 C588 1.388 . S
C588 H575 0.930 . S
C588 C587 1.388 . S
C588 C589 1.390 . S
C589 C588 1.390 . S
C589 C590 1.394 . S
C589 C595 1.465 . S
C590 C585 1.399 . S
C590 C589 1.394 . S
C590 C591 1.516 . S
C591 C590 1.516 . S
C591 C592 1.502 . S
C591 C593 1.561 . S
C591 C594 1.526 . S
C592 H576 0.959 . S
C592 H577 0.959 . S
C592 H578 0.961 . S
C592 C591 1.502 . S
C593 H579 0.960 . S
C593 H580 0.961 . S
C593 H581 0.959 . S
C593 C591 1.561 . S
C594 C591 1.526 . S
C594 C595 1.396 . S
C594 C599 1.390 . S
C595 C589 1.465 . S
C595 C594 1.396 . S
C595 C596 1.399 . S
C596 H582 0.929 . S
C596 C595 1.399 . S
C596 C597 1.385 . S
C597 H583 0.931 . S
C597 C596 1.385 . S
C597 C598 1.389 . S
C598 C597 1.389 . S
C598 C599 1.387 . S
C599 H584 0.930 . S
C599 C594 1.390 . S
C599 C598 1.387 . S
H600 C612 0.930 . S
H601 C614 0.930 . S
H602 C615 0.930 . S
H603 C619 0.959 . S
H604 C619 0.959 . S
H605 C619 0.961 . S
H606 C620 0.960 . S
H607 C620 0.961 . S
H608 C620 0.959 . S
H609 C623 0.929 . S
H610 C624 0.931 . S
H611 C626 0.930 . S
C612 H600 0.930 . S
C612 C613 1.399 . S
C612 C617 1.399 . S
C613 C612 1.399 . S
C613 C614 1.376 . S
C614 H601 0.930 . S
C614 C613 1.376 . S
C614 C615 1.388 . S
C615 H602 0.930 . S
C615 C614 1.388 . S
C615 C616 1.390 . S
C616 C615 1.390 . S
C616 C617 1.394 . S
C616 C622 1.465 . S
C617 C612 1.399 . S
C617 C616 1.394 . S
C617 C618 1.516 . S
C618 C617 1.516 . S
C618 C619 1.502 . S
C618 C620 1.561 . S
C618 C621 1.526 . S
C619 H603 0.959 . S
C619 H604 0.959 . S
C619 H605 0.961 . S
C619 C618 1.502 . S
C620 H606 0.960 . S
C620 H607 0.961 . S
C620 H608 0.959 . S
C620 C618 1.561 . S
C621 C618 1.526 . S
C621 C622 1.396 . S
C621 C626 1.390 . S
C622 C616 1.465 . S
C622 C621 1.396 . S
C622 C623 1.399 . S
C623 H609 0.929 . S
C623 C622 1.399 . S
C623 C624 1.385 . S
C624 H610 0.931 . S
C624 C623 1.385 . S
C624 C625 1.389 . S
C625 C624 1.389 . S
C625 C626 1.387 . S
C626 H611 0.930 . S
C626 C621 1.390 . S
C626 C625 1.387 . S
H627 C639 0.930 . S
H628 C641 0.930 . S
H629 C642 0.930 . S
H630 C646 0.959 . S
H631 C646 0.959 . S
H632 C646 0.961 . S
H633 C647 0.960 . S
H634 C647 0.961 . S
H635 C647 0.959 . S
H636 C650 0.929 . S
H637 C651 0.931 . S
H638 C653 0.930 . S
C639 H627 0.930 . S
C639 C640 1.399 . S
C639 C644 1.399 . S
C640 C639 1.399 . S
C640 C641 1.376 . S
C641 H628 0.930 . S
C641 C640 1.376 . S
C641 C642 1.388 . S
C642 H629 0.930 . S
C642 C641 1.388 . S
C642 C643 1.390 . S
C643 C642 1.390 . S
C643 C644 1.394 . S
C643 C649 1.465 . S
C644 C639 1.399 . S
C644 C643 1.394 . S
C644 C645 1.516 . S
C645 C644 1.516 . S
C645 C646 1.502 . S
C645 C647 1.561 . S
C645 C648 1.526 . S
C646 H630 0.959 . S
C646 H631 0.959 . S
C646 H632 0.961 . S
C646 C645 1.502 . S
C647 H633 0.960 . S
C647 H634 0.961 . S
C647 H635 0.959 . S
C647 C645 1.561 . S
C648 C645 1.526 . S
C648 C649 1.396 . S
C648 C653 1.390 . S
C649 C643 1.465 . S
C649 C648 1.396 . S
C649 C650 1.399 . S
C650 H636 0.929 . S
C650 C649 1.399 . S
C650 C651 1.385 . S
C651 H637 0.931 . S
C651 C650 1.385 . S
C651 C652 1.389 . S
C652 C651 1.389 . S
C652 C653 1.387 . S
C653 H638 0.930 . S
C653 C648 1.390 . S
C653 C652 1.387 . S
H654 C666 0.930 . S
H655 C668 0.930 . S
H656 C669 0.930 . S
H657 C673 0.959 . S
H658 C673 0.959 . S
H659 C673 0.961 . S
H660 C674 0.960 1_455 S
H661 C674 0.961 1_565 S
H662 C674 0.959 . S
H663 C677 0.929 . S
H664 C678 0.931 . S
H665 C680 0.930 . S
C666 H654 0.930 . S
C666 C667 1.399 . S
C666 C671 1.399 . S
C667 C666 1.399 . S
C667 C668 1.376 . S
C668 H655 0.930 . S
C668 C667 1.376 . S
C668 C669 1.388 1_455 S
C669 H656 0.930 . S
C669 C668 1.388 1_655 S
C669 C670 1.390 . S
C670 C669 1.390 . S
C670 C671 1.394 1_655 S
C670 C676 1.465 1_545 S
C671 C666 1.399 . S
C671 C670 1.394 1_455 S
C671 C672 1.516 1_545 S
C672 C671 1.516 1_565 S
C672 C673 1.502 . S
C672 C674 1.561 1_465 S
C672 C675 1.526 1_455 S
C673 H657 0.959 . S
C673 H658 0.959 . S
C673 H659 0.961 . S
C673 C672 1.502 . S
C674 H660 0.960 1_655 S
C674 H661 0.961 1_545 S
C674 H662 0.959 . S
C674 C672 1.561 1_645 S
C675 C672 1.526 1_655 S
C675 C676 1.396 . S
C675 C680 1.390 . S
C676 C670 1.465 1_565 S
C676 C675 1.396 . S
C676 C677 1.399 . S
C677 H663 0.929 . S
C677 C676 1.399 . S
C677 C678 1.385 . S
C678 H664 0.931 . S
C678 C677 1.385 . S
C678 C679 1.389 . S
C679 C678 1.389 . S
C679 C680 1.387 . S
C680 H665 0.930 . S
C680 C675 1.390 . S
C680 C679 1.387 . S
H681 C693 0.930 . S
H682 C695 0.930 . S
H683 C696 0.930 . S
H684 C700 0.959 . S
H685 C700 0.959 . S
H686 C700 0.961 . S
H687 C701 0.960 1_655 S
H688 C701 0.961 1_565 S
H689 C701 0.959 . S
H690 C704 0.929 . S
H691 C705 0.931 . S
H692 C707 0.930 . S
C693 H681 0.930 . S
C693 C694 1.399 . S
C693 C698 1.399 . S
C694 C693 1.399 . S
C694 C695 1.376 . S
C695 H682 0.930 . S
C695 C694 1.376 . S
C695 C696 1.388 1_655 S
C696 H683 0.930 . S
C696 C695 1.388 1_455 S
C696 C697 1.390 . S
C697 C696 1.390 . S
C697 C698 1.394 1_455 S
C697 C703 1.465 1_545 S
C698 C693 1.399 . S
C698 C697 1.394 1_655 S
C698 C699 1.516 1_545 S
C699 C698 1.516 1_565 S
C699 C700 1.502 . S
C699 C701 1.561 1_665 S
C699 C702 1.526 1_655 S
C700 H684 0.959 . S
C700 H685 0.959 . S
C700 H686 0.961 . S
C700 C699 1.502 . S
C701 H687 0.960 1_455 S
C701 H688 0.961 1_545 S
C701 H689 0.959 . S
C701 C699 1.561 1_445 S
C702 C699 1.526 1_455 S
C702 C703 1.396 . S
C702 C707 1.390 . S
C703 C697 1.465 1_565 S
C703 C702 1.396 . S
C703 C704 1.399 . S
C704 H690 0.929 . S
C704 C703 1.399 . S
C704 C705 1.385 . S
C705 H691 0.931 . S
C705 C704 1.385 . S
C705 C706 1.389 . S
C706 C705 1.389 . S
C706 C707 1.387 . S
C707 H692 0.930 . S
C707 C702 1.390 . S
C707 C706 1.387 . S
H708 C720 0.930 . S
H709 C722 0.930 1_545 S
H710 C723 0.930 . S
H711 C727 0.959 . S
H712 C727 0.959 . S
H713 C727 0.961 . S
H714 C728 0.960 . S
H715 C728 0.961 . S
H716 C728 0.959 . S
H717 C731 0.929 . S
H718 C732 0.931 . S
H719 C734 0.930 1_565 S
C720 H708 0.930 . S
C720 C721 1.399 . S
C720 C725 1.399 . S
C721 C720 1.399 . S
C721 C722 1.376 . S
C722 H709 0.930 1_565 S
C722 C721 1.376 . S
C722 C723 1.388 1_565 S
C723 H710 0.930 . S
C723 C722 1.388 1_545 S
C723 C724 1.390 . S
C724 C723 1.390 . S
C724 C725 1.394 1_545 S
C724 C730 1.465 1_556 S
C725 C720 1.399 . S
C725 C724 1.394 1_565 S
C725 C726 1.516 1_556 S
C726 C725 1.516 1_554 S
C726 C727 1.502 . S
C726 C728 1.561 . S
C726 C729 1.552 . S
C727 H711 0.959 . S
C727 H712 0.959 . S
C727 H713 0.961 . S
C727 C726 1.502 . S
C728 H714 0.960 . S
C728 H715 0.961 . S
C728 H716 0.959 . S
C728 C726 1.561 . S
C729 C726 1.552 . S
C729 C730 1.378 1_565 S
C729 C734 1.381 1_565 S
C730 C724 1.465 1_554 S
C730 C729 1.378 1_545 S
C730 C731 1.399 . S
C731 H717 0.929 . S
C731 C730 1.399 . S
C731 C732 1.385 . S
C732 H718 0.931 . S
C732 C731 1.385 . S
C732 C733 1.389 . S
C733 C732 1.389 . S
C733 C734 1.387 . S
C734 H719 0.930 1_545 S
C734 C729 1.381 1_545 S
C734 C733 1.387 . S
H735 C747 0.930 . S
H736 C749 0.930 1_545 S
H737 C750 0.930 . S
H738 C754 0.959 . S
H739 C754 0.959 . S
H740 C754 0.961 . S
H741 C755 0.960 . S
H742 C755 0.961 . S
H743 C755 0.959 . S
H744 C758 0.950 . S
H745 C759 0.931 . S
H746 C761 0.930 1_565 S
C747 H735 0.930 . S
C747 C748 1.399 . S
C747 C752 1.399 . S
C748 C747 1.399 . S
C748 C749 1.376 . S
C749 H736 0.930 1_565 S
C749 C748 1.376 . S
C749 C750 1.388 1_565 S
C750 H737 0.930 . S
C750 C749 1.388 1_545 S
C750 C751 1.390 . S
C751 C750 1.390 . S
C751 C752 1.394 1_545 S
C751 C757 1.465 1_554 S
C752 C747 1.399 . S
C752 C751 1.394 1_565 S
C752 C753 1.516 1_554 S
C753 C752 1.516 1_556 S
C753 C754 1.502 . S
C753 C755 1.561 . S
C753 C756 1.526 . S
C754 H738 0.959 . S
C754 H739 0.959 . S
C754 H740 0.961 . S
C754 C753 1.502 . S
C755 H741 0.960 . S
C755 H742 0.961 . S
C755 H743 0.959 . S
C755 C753 1.561 . S
C756 C753 1.526 . S
C756 C757 1.396 1_565 S
C756 C761 1.390 1_565 S
C757 C751 1.465 1_556 S
C757 C756 1.396 1_545 S
C757 C758 1.399 . S
C758 H744 0.950 . S
C758 C757 1.399 . S
C758 C759 1.385 . S
C759 H745 0.931 . S
C759 C758 1.385 . S
C759 C760 1.389 . S
C760 C759 1.389 . S
C760 C761 1.387 . S
C761 H746 0.930 1_545 S
C761 C756 1.390 1_545 S
C761 C760 1.387 . S
H762 C774 0.930 . S
H763 C776 0.930 . S
H764 C777 0.930 . S
H765 C781 0.959 . S
H766 C781 0.959 . S
H767 C781 0.961 . S
H768 C782 0.960 . S
H769 C782 0.961 1_455 S
H770 C782 0.959 1_456 S
H771 C785 0.929 . S
H772 C786 0.931 . S
H773 C788 0.930 . S
C774 H762 0.930 . S
C774 C775 1.399 . S
C774 C779 1.399 . S
C775 C774 1.399 . S
C775 C776 1.376 . S
C776 H763 0.930 . S
C776 C775 1.376 . S
C776 C777 1.388 . S
C777 H764 0.930 . S
C777 C776 1.388 . S
C777 C778 1.390 . S
C778 C777 1.390 . S
C778 C779 1.394 . S
C778 C784 1.465 1_655 S
C779 C774 1.399 . S
C779 C778 1.394 . S
C779 C780 1.516 1_556 S
C780 C779 1.516 1_554 S
C780 C781 1.502 . S
C780 C782 1.561 . S
C780 C783 1.526 1_655 S
C781 H765 0.959 . S
C781 H766 0.959 . S
C781 H767 0.961 . S
C781 C780 1.502 . S
C782 H768 0.960 . S
C782 H769 0.961 1_655 S
C782 H770 0.959 1_654 S
C782 C780 1.561 . S
C783 C780 1.526 1_455 S
C783 C784 1.396 1_554 S
C783 C788 1.390 . S
C784 C778 1.465 1_455 S
C784 C783 1.396 1_556 S
C784 C785 1.399 . S
C785 H771 0.929 . S
C785 C784 1.399 . S
C785 C786 1.385 1_556 S
C786 H772 0.931 . S
C786 C785 1.385 1_554 S
C786 C787 1.389 . S
C787 C786 1.389 . S
C787 C788 1.387 . S
C788 H773 0.930 . S
C788 C783 1.390 . S
C788 C787 1.387 . S
H789 C801 0.930 . S
H790 C803 0.930 . S
H791 C804 0.930 . S
H792 C808 0.959 . S
H793 C808 0.950 1_655 S
H794 C808 0.961 . S
H795 C809 0.960 1_455 S
H796 C809 0.961 . S
H797 C809 0.959 . S
H798 C812 0.929 1_556 S
H799 C813 0.931 . S
H800 C815 0.930 . S
C801 H789 0.930 . S
C801 C802 1.399 . S
C801 C806 1.399 . S
C802 C801 1.399 . S
C802 C803 1.376 . S
C803 H790 0.930 . S
C803 C802 1.376 . S
C803 C804 1.388 . S
C804 H791 0.930 . S
C804 C803 1.388 . S
C804 C805 1.390 . S
C805 C804 1.390 . S
C805 C806 1.394 . S
C805 C811 1.465 1_456 S
C806 C801 1.399 . S
C806 C805 1.394 . S
C806 C807 1.516 1_556 S
C807 C806 1.516 1_554 S
C807 C808 1.502 . S
C807 C809 1.561 1_454 S
C807 C810 1.526 1_455 S
C808 H792 0.959 . S
C808 H793 0.950 1_455 S
C808 H794 0.961 . S
C808 C807 1.502 . S
C809 H795 0.960 1_655 S
C809 H796 0.961 . S
C809 H797 0.959 . S
C809 C807 1.561 1_656 S
C810 C807 1.526 1_655 S
C810 C811 1.396 . S
C810 C815 1.390 . S
C811 C805 1.465 1_654 S
C811 C810 1.396 . S
C811 C812 1.399 . S
C812 H798 0.929 1_554 S
C812 C811 1.399 . S
C812 C813 1.385 . S
C813 H799 0.931 . S
C813 C812 1.385 . S
C813 C814 1.389 . S
C814 C813 1.389 . S
C814 C815 1.387 . S
C815 H800 0.930 . S
C815 C810 1.390 . S
C815 C814 1.387 . S
C181 C50 0.970 . S
C193 C8 0.921 . S
C208 C36 0.940 . S
C220 C22 0.989 . S
C235 C78 0.941 . S
C247 C64 0.920 . S
C262 C92 0.952 . S
C274 C106 0.917 . S
C289 C134 0.917 . S
C301 C120 0.953 . S
C316 C148 0.993 . S
C328 C162 0.958 . S
C343 C9 0.923 . S
C355 C101 0.886 . S
C370 C87 0.890 . S
C382 C23 0.905 . S
C397 C73 0.949 . S
C409 C37 0.886 . S
C424 C59 0.944 . S
C436 C51 0.884 . S
C451 C65 0.927 . S
C463 C157 0.992 . S
C478 C115 0.999 . S
C490 C79 0.944 . S
C505 C143 0.933 . S
C517 C93 0.994 . S
C532 C107 0.957 . S
C544 C129 0.893 . S
C559 C31 0.947 . S
C571 C121 0.885 . S
C586 C3 0.973 . S
C598 C135 0.900 . S
C613 C149 0.922 . S
C625 C17 0.990 . S
C640 C45 0.954 . S
C652 C163 0.888 . S
C667 C7 1.258 . S
C679 C21 1.247 . S
C694 C49 1.258 . S
C706 C35 1.248 . S
C721 C91 1.220 . S
C733 C63 1.208 . S
C748 C77 1.230 . S
C760 C105 1.216 . S
C775 C147 1.212 . S
C787 C119 1.227 . S
C802 C133 1.202 . S
C814 C161 1.211 . S
