# Generated by pormake.
# Topology whe, (6)-cn, num edge types: 1
# Building blocks:
#     Node 0, Type 0, BuildingBlock: IZENUY_clean_sbu_0, # of connection points: 6
#     Node 1, Type 0, BuildingBlock: IZENUY_clean_sbu_0, # of connection points: 6
#     Node 2, Type 0, BuildingBlock: IZENUY_clean_sbu_0, # of connection points: 6
#     Node 3, Type 0, BuildingBlock: IZENUY_clean_sbu_0, # of connection points: 6
#     Node 4, Type 0, BuildingBlock: IZENUY_clean_sbu_0, # of connection points: 6
#     Node 5, Type 0, BuildingBlock: IZENUY_clean_sbu_0, # of connection points: 6
#     Node 6, Type 0, BuildingBlock: IZENUY_clean_sbu_0, # of connection points: 6
#     Node 7, Type 0, BuildingBlock: IZENUY_clean_sbu_0, # of connection points: 6
#     Node 8, Type 0, BuildingBlock: IZENUY_clean_sbu_0, # of connection points: 6
#     Node 9, Type 0, BuildingBlock: IZENUY_clean_sbu_0, # of connection points: 6
#     Node 10, Type 0, BuildingBlock: IZENUY_clean_sbu_0, # of connection points: 6
#     Node 11, Type 0, BuildingBlock: IZENUY_clean_sbu_0, # of connection points: 6
#     Node 12, Type 0, BuildingBlock: IZENUY_clean_sbu_0, # of connection points: 6
#     Node 13, Type 0, BuildingBlock: IZENUY_clean_sbu_0, # of connection points: 6
#     Node 14, Type 0, BuildingBlock: IZENUY_clean_sbu_0, # of connection points: 6
#     Node 15, Type 0, BuildingBlock: IZENUY_clean_sbu_0, # of connection points: 6
#     Edge 16, Type (0, 0), BuildingBlock: AJUNOK_clean_linker_0, # of connection points: 2
#     Edge 17, Type (0, 0), BuildingBlock: AJUNOK_clean_linker_0, # of connection points: 2
#     Edge 18, Type (0, 0), BuildingBlock: AJUNOK_clean_linker_0, # of connection points: 2
#     Edge 19, Type (0, 0), BuildingBlock: AJUNOK_clean_linker_0, # of connection points: 2
#     Edge 20, Type (0, 0), BuildingBlock: AJUNOK_clean_linker_0, # of connection points: 2
#     Edge 21, Type (0, 0), BuildingBlock: AJUNOK_clean_linker_0, # of connection points: 2
#     Edge 22, Type (0, 0), BuildingBlock: AJUNOK_clean_linker_0, # of connection points: 2
#     Edge 23, Type (0, 0), BuildingBlock: AJUNOK_clean_linker_0, # of connection points: 2
#     Edge 24, Type (0, 0), BuildingBlock: AJUNOK_clean_linker_0, # of connection points: 2
#     Edge 25, Type (0, 0), BuildingBlock: AJUNOK_clean_linker_0, # of connection points: 2
#     Edge 26, Type (0, 0), BuildingBlock: AJUNOK_clean_linker_0, # of connection points: 2
#     Edge 27, Type (0, 0), BuildingBlock: AJUNOK_clean_linker_0, # of connection points: 2
#     Edge 28, Type (0, 0), BuildingBlock: AJUNOK_clean_linker_0, # of connection points: 2
#     Edge 29, Type (0, 0), BuildingBlock: AJUNOK_clean_linker_0, # of connection points: 2
#     Edge 30, Type (0, 0), BuildingBlock: AJUNOK_clean_linker_0, # of connection points: 2
#     Edge 31, Type (0, 0), BuildingBlock: AJUNOK_clean_linker_0, # of connection points: 2
#     Edge 32, Type (0, 0), BuildingBlock: AJUNOK_clean_linker_0, # of connection points: 2
#     Edge 33, Type (0, 0), BuildingBlock: AJUNOK_clean_linker_0, # of connection points: 2
#     Edge 34, Type (0, 0), BuildingBlock: AJUNOK_clean_linker_0, # of connection points: 2
#     Edge 35, Type (0, 0), BuildingBlock: AJUNOK_clean_linker_0, # of connection points: 2
#     Edge 36, Type (0, 0), BuildingBlock: AJUNOK_clean_linker_0, # of connection points: 2
#     Edge 37, Type (0, 0), BuildingBlock: AJUNOK_clean_linker_0, # of connection points: 2
#     Edge 38, Type (0, 0), BuildingBlock: AJUNOK_clean_linker_0, # of connection points: 2
#     Edge 39, Type (0, 0), BuildingBlock: AJUNOK_clean_linker_0, # of connection points: 2
#     Edge 40, Type (0, 0), BuildingBlock: AJUNOK_clean_linker_0, # of connection points: 2
#     Edge 41, Type (0, 0), BuildingBlock: AJUNOK_clean_linker_0, # of connection points: 2
#     Edge 42, Type (0, 0), BuildingBlock: AJUNOK_clean_linker_0, # of connection points: 2
#     Edge 43, Type (0, 0), BuildingBlock: AJUNOK_clean_linker_0, # of connection points: 2
#     Edge 44, Type (0, 0), BuildingBlock: AJUNOK_clean_linker_0, # of connection points: 2
#     Edge 45, Type (0, 0), BuildingBlock: AJUNOK_clean_linker_0, # of connection points: 2
#     Edge 46, Type (0, 0), BuildingBlock: AJUNOK_clean_linker_0, # of connection points: 2
#     Edge 47, Type (0, 0), BuildingBlock: AJUNOK_clean_linker_0, # of connection points: 2
#     Edge 48, Type (0, 0), BuildingBlock: AJUNOK_clean_linker_0, # of connection points: 2
#     Edge 49, Type (0, 0), BuildingBlock: AJUNOK_clean_linker_0, # of connection points: 2
#     Edge 50, Type (0, 0), BuildingBlock: AJUNOK_clean_linker_0, # of connection points: 2
#     Edge 51, Type (0, 0), BuildingBlock: AJUNOK_clean_linker_0, # of connection points: 2
#     Edge 52, Type (0, 0), BuildingBlock: AJUNOK_clean_linker_0, # of connection points: 2
#     Edge 53, Type (0, 0), BuildingBlock: AJUNOK_clean_linker_0, # of connection points: 2
#     Edge 54, Type (0, 0), BuildingBlock: AJUNOK_clean_linker_0, # of connection points: 2
#     Edge 55, Type (0, 0), BuildingBlock: AJUNOK_clean_linker_0, # of connection points: 2
#     Edge 56, Type (0, 0), BuildingBlock: AJUNOK_clean_linker_0, # of connection points: 2
#     Edge 57, Type (0, 0), BuildingBlock: AJUNOK_clean_linker_0, # of connection points: 2
#     Edge 58, Type (0, 0), BuildingBlock: AJUNOK_clean_linker_0, # of connection points: 2
#     Edge 59, Type (0, 0), BuildingBlock: AJUNOK_clean_linker_0, # of connection points: 2
#     Edge 60, Type (0, 0), BuildingBlock: AJUNOK_clean_linker_0, # of connection points: 2
#     Edge 61, Type (0, 0), BuildingBlock: AJUNOK_clean_linker_0, # of connection points: 2
#     Edge 62, Type (0, 0), BuildingBlock: AJUNOK_clean_linker_0, # of connection points: 2
#     Edge 63, Type (0, 0), BuildingBlock: AJUNOK_clean_linker_0, # of connection points: 2
# Relax obj value: 0.462
# Max RMSD: 0.278
# Mean RMSD: 0.278
data_MOF--net-whe--node1-IZENUY_clean_sbu_0--edge1-AJUNOK_clean_linker_0
_symmetry_space_group_name_H-M    P1
_symmetry_Int_Tables_number       1
_symmetry_cell_setting            triclinic
loop_
_symmetry_equiv_pos_as_xyz
'x, y, z'
_cell_length_a     25.442117
_cell_length_b     25.124071
_cell_length_c     39.418629
_cell_angle_alpha  88.787752
_cell_angle_beta   90.056555
_cell_angle_gamma 90.111405
loop_
_atom_site_label
_atom_site_type_symbol
_atom_site_fract_x
_atom_site_fract_y
_atom_site_fract_z
_atom_type_partial_charge
Fe0 Fe 0.07047 0.27823 0.20464 0.0
Fe1 Fe 0.0456 0.36283 0.15113 0.0
O2 O 0.09089 0.33087 0.17809 0.0
Fe3 Fe 0.15482 0.35491 0.18058 0.0
O4 O 0.16854 0.34039 0.22726 0.0
O5 O 0.12847 0.26575 0.23073 0.0
O6 O 0.04563 0.32778 0.23202 0.0
C7 C 0.02268 0.37074 0.22151 0.0
C8 C 0.14663 0.2426 0.16252 0.0
O9 O 1.00884 0.38002 0.19032 0.0
C10 C 0.12835 0.35958 0.10916 0.0
O11 O 1.00338 0.26897 0.18978 0.0
O12 O 1.00711 0.30572 0.14084 0.0
O13 O 0.17505 0.28538 0.16803 0.0
O14 O 0.09963 0.23544 0.17424 0.0
C15 C 0.09261 0.44832 0.17725 0.0
O16 O 0.08143 0.34599 0.11406 0.0
O17 O 0.15742 0.37361 0.134 0.0
C18 C 0.9851 0.27507 0.16085 0.0
O19 O 0.07846 0.42617 0.15117 0.0
O20 O 0.12909 0.4238 0.19407 0.0
C21 C 0.16217 0.29595 0.24266 0.0
Fe22 Fe 0.68804 0.15865 0.17551 0.0
Fe23 Fe 0.79099 0.09483 0.17918 0.0
O24 O 0.72174 0.09669 0.17559 0.0
Fe25 Fe 0.68643 0.03742 0.17031 0.0
O26 O 0.64661 0.05103 0.2065 0.0
O27 O 0.62225 0.12927 0.19 0.0
O28 O 0.71041 0.17223 0.21974 0.0
C29 C 0.75996 0.17679 0.22611 0.0
C30 C 0.65066 0.10795 0.11925 0.0
O31 O 0.79337 0.15429 0.20677 0.0
C32 C 0.77138 1.00878 0.13465 0.0
O33 O 0.74508 0.19725 0.15884 0.0
O34 O 0.79473 0.13366 0.14026 0.0
O35 O 0.64107 0.06756 0.1385 0.0
O36 O 0.66964 0.14969 0.13169 0.0
C37 C 0.75381 0.02255 0.22472 0.0
O38 O 0.80103 0.03369 0.15467 0.0
O39 O 0.72353 1.0188 0.13381 0.0
C40 C 0.78415 0.18253 0.14116 0.0
O41 O 0.7889 0.05636 0.21778 0.0
O42 O 0.72898 1.00125 0.2005 0.0
C43 C 0.61082 0.08419 0.20405 0.0
Fe44 Fe 0.88475 0.71309 0.16806 0.0
Fe45 Fe 0.94807 0.81692 0.16663 0.0
O46 O 0.94572 0.74675 0.16677 0.0
Fe47 Fe 1.00422 0.71086 0.16347 0.0
O48 O 0.99027 0.67554 0.20228 0.0
O49 O 0.91376 0.64818 0.18721 0.0
O50 O 0.86876 0.7409 0.21084 0.0
C51 C 0.8648 0.79165 0.21489 0.0
C52 C 0.93699 0.66573 0.11513 0.0
O53 O 0.88674 0.82307 0.19295 0.0
C54 C 0.03492 0.79168 0.12377 0.0
O55 O 0.84841 0.76979 0.147 0.0
O56 O 0.91388 0.81683 0.12681 0.0
O57 O 0.97618 0.65999 0.13506 0.0
O58 O 0.89594 0.68864 0.12547 0.0
C59 C 0.01774 0.78517 0.21373 0.0
O60 O 1.01121 0.82376 0.14292 0.0
O61 O 0.02134 0.74419 0.12437 0.0
C62 C 0.86557 0.80654 0.12679 0.0
O63 O 0.98194 0.81745 0.20597 0.0
O64 O 0.03912 0.75784 0.19074 0.0
C65 C 0.9585 0.63825 0.20154 0.0
Fe66 Fe 0.33428 0.88732 0.16726 0.0
Fe67 Fe 0.23075 0.94316 0.18166 0.0
O68 O 0.2981 0.94685 0.17084 0.0
Fe69 Fe 0.32594 1.01 0.16306 0.0
O70 O 0.37772 0.99932 0.19264 0.0
O71 O 0.39997 0.91766 0.18113 0.0
O72 O 0.31711 0.8655 0.2125 0.0
C73 C 0.26915 0.8575 0.22185 0.0
C74 C 0.36542 0.94613 0.1092 0.0
O75 O 0.23348 0.87666 0.20276 0.0
C76 C 0.23078 0.03724 0.14119 0.0
O77 O 0.27569 0.85129 0.14924 0.0
O78 O 0.21821 0.91619 0.14115 0.0
O79 O 0.3641 0.98922 0.12557 0.0
O80 O 0.35128 0.90249 0.12311 0.0
C81 C 0.27243 1.0111 0.22532 0.0
O82 O 0.21154 1.00941 0.16502 0.0
O83 O 0.27653 0.02782 0.13224 0.0
C84 C 0.23578 0.87125 0.13326 0.0
O85 O 0.24496 0.97004 0.22151 0.0
O86 O 0.29166 0.0378 0.20028 0.0
C87 C 0.41225 0.96472 0.19098 0.0
Fe88 Fe 0.10011 0.80827 0.38771 0.0
Fe89 Fe 0.03203 0.72434 0.42191 0.0
O90 O 0.09444 0.74366 0.40706 0.0
Fe91 Fe 0.15072 0.70441 0.41102 0.0
O92 O 0.17129 0.71763 0.36498 0.0
O93 O 0.16622 0.80239 0.36949 0.0
O94 O 0.07256 0.78129 0.35082 0.0
C95 C 0.03199 0.75187 0.35152 0.0
C96 C 0.16906 0.80994 0.43854 0.0
O97 O 1.00542 0.74249 0.37886 0.0
C98 C 0.09821 0.68802 0.47528 0.0
O99 O 0.035 0.83427 0.39824 0.0
O100 O 0.02431 0.78736 0.44189 0.0
O101 O 0.18734 0.76482 0.42776 0.0
O102 O 0.1276 0.83074 0.42612 0.0
C103 C 0.06693 0.6276 0.39741 0.0
O104 O 0.05368 0.70168 0.46381 0.0
O105 O 0.13855 0.68701 0.4562 0.0
C106 C 1.00799 0.82442 0.424 0.0
O107 O 0.03253 0.65922 0.40655 0.0
O108 O 0.11623 0.64066 0.39696 0.0
C109 C 0.18288 0.76392 0.353 0.0
Fe110 Fe 0.34196 0.16107 0.41202 0.0
Fe111 Fe 0.23595 0.10387 0.41405 0.0
O112 O 0.30522 0.10121 0.4137 0.0
Fe113 Fe 0.33694 0.03967 0.41783 0.0
O114 O 0.37409 0.0518 0.37981 0.0
O115 O 0.40361 0.12904 0.39381 0.0
O116 O 0.31503 0.17846 0.36854 0.0
C117 C 0.26514 0.18476 0.36377 0.0
C118 C 0.38529 0.10473 0.46684 0.0
O119 O 0.23355 0.16582 0.38641 0.0
C120 C 0.25496 1.01125 0.45588 0.0
O121 O 0.28874 0.20156 0.43165 0.0
O122 O 0.24074 0.13833 0.45347 0.0
O123 O 0.38791 0.06403 0.44792 0.0
O124 O 0.36595 0.14787 0.4551 0.0
C125 C 0.25915 0.03183 0.36733 0.0
O126 O 0.22454 0.04002 0.43789 0.0
O127 O 0.3024 0.02251 0.45615 0.0
C128 C 0.2509 0.18715 0.45116 0.0
O129 O 0.23124 0.07036 0.3756 0.0
O130 O 0.28941 1.0084 0.38875 0.0
C131 C 0.4107 0.08449 0.37903 0.0
Fe132 Fe 0.96348 0.25659 0.37515 0.0
Fe133 Fe 1.00306 0.36034 0.40313 0.0
O134 O 0.9496 0.31911 0.39266 0.0
Fe135 Fe 0.88412 0.33987 0.39931 0.0
O136 O 0.86359 0.32892 0.35463 0.0
O137 O 0.90069 0.24989 0.35199 0.0
O138 O 0.98859 0.28962 0.33747 0.0
C139 C 0.02147 0.32707 0.33869 0.0
C140 C 0.8897 0.2305 0.42152 0.0
O141 O 0.04192 0.33826 0.36694 0.0
C142 C 0.93178 0.37288 0.45769 0.0
O143 O 0.02979 0.24974 0.39465 0.0
O144 O 0.02959 0.31158 0.43236 0.0
O145 O 0.86282 0.27093 0.41116 0.0
O146 O 0.93681 0.22428 0.41223 0.0
C147 C 0.94171 0.43735 0.37915 0.0
O148 O 0.97151 0.38913 0.4409 0.0
O149 O 0.89581 0.34743 0.44365 0.0
C150 C 0.04752 0.2687 0.42199 0.0
O151 O 0.98096 0.41002 0.37426 0.0
O152 O 0.89987 0.41453 0.39126 0.0
C153 C 0.86735 0.28334 0.34073 0.0
Fe154 Fe 0.77264 0.97181 0.37855 0.0
Fe155 Fe 0.6756 0.99738 0.41941 0.0
O156 O 0.7135 0.95035 0.39677 0.0
Fe157 Fe 0.68778 0.88538 0.39301 0.0
O158 O 0.71095 0.87348 0.34814 0.0
O159 O 0.76031 0.94364 0.33676 0.0
O160 O 0.74202 0.03376 0.36371 0.0
C161 C 0.69349 0.0413 0.35722 0.0
C162 C 0.79524 0.86894 0.40438 0.0
O163 O 0.65806 0.02825 0.37853 0.0
C164 C 0.68724 0.91471 0.46334 0.0
O165 O 0.79503 1.00044 0.41832 0.0
O166 O 0.72573 0.04736 0.4252 0.0
O167 O 0.74821 0.85313 0.40828 0.0
O168 O 0.80738 0.91348 0.39137 0.0
C169 C 0.59531 0.94618 0.39386 0.0
O170 O 0.69507 0.9643 0.45813 0.0
O171 O 0.66902 0.88467 0.43966 0.0
C172 C 0.77337 0.04009 0.43112 0.0
O173 O 0.61674 0.95788 0.4206 0.0
O174 O 0.62301 0.91531 0.37566 0.0
C175 C 0.74445 0.89761 0.32886 0.0
Fe176 Fe 0.97211 0.78952 0.90501 0.0
Fe177 Fe 0.02198 0.6819 0.91256 0.0
O178 O 0.9648 0.72041 0.90756 0.0
Fe179 Fe 0.90519 0.68662 0.9033 0.0
O180 O 0.88482 0.72072 0.86249 0.0
O181 O 0.92192 0.79924 0.87059 0.0
O182 O 0.02245 0.78009 0.87267 0.0
C183 C 0.02477 0.73981 0.85347 0.0
C184 C 0.87926 0.7808 0.94008 0.0
O185 O 0.02929 0.69219 0.86633 0.0
C186 C 0.96038 0.66118 0.9676 0.0
O187 O 0.02086 0.79211 0.94035 0.0
O188 O 0.06839 0.73344 0.91802 0.0
O189 O 0.86728 0.73675 0.92661 0.0
O190 O 0.92417 0.8011 0.9369 0.0
C191 C 0.97267 0.6029 0.88523 0.0
O192 O 1.00645 0.67609 0.95739 0.0
O193 O 0.92116 0.65439 0.94644 0.0
C194 C 0.06384 0.76759 0.93966 0.0
O195 O 0.99371 0.61767 0.91089 0.0
O196 O 0.93458 0.63188 0.87554 0.0
C197 C 0.88934 0.77028 0.85435 0.0
Fe198 Fe 0.3424 0.88268 0.90835 0.0
Fe199 Fe 0.23827 0.94177 0.90934 0.0
O200 O 0.30731 0.94318 0.90846 0.0
Fe201 Fe 0.34077 1.00375 0.90984 0.0
O202 O 0.37614 0.98889 0.87196 0.0
O203 O 0.40506 0.91297 0.88936 0.0
O204 O 0.31472 0.8676 0.86554 0.0
C205 C 0.26491 0.86182 0.8611 0.0
C206 C 0.38617 0.93809 0.96115 0.0
O207 O 0.23347 0.8789 0.88393 0.0
C208 C 0.26079 0.03147 0.94971 0.0
O209 O 0.28836 0.84402 0.93024 0.0
O210 O 0.24248 0.9093 0.94992 0.0
O211 O 0.39095 0.97807 0.94067 0.0
O212 O 0.36706 0.89493 0.95063 0.0
C213 C 0.25947 1.01516 0.86063 0.0
O214 O 0.22933 1.00527 0.93162 0.0
O215 O 0.30847 0.02274 0.94778 0.0
C216 C 0.25524 0.86139 0.9519 0.0
O217 O 0.23391 0.97488 0.87003 0.0
O218 O 0.29383 0.03659 0.87984 0.0
C219 C 0.41339 0.95739 0.8735 0.0
Fe220 Fe 0.15977 0.32537 0.90125 0.0
Fe221 Fe 0.09276 0.22557 0.89015 0.0
O222 O 0.09831 0.29233 0.90395 0.0
Fe223 Fe 0.04094 0.32138 0.921 0.0
O224 O 0.04703 0.38201 0.89796 0.0
O225 O 0.1302 0.38962 0.88207 0.0
O226 O 0.17689 0.30246 0.85741 0.0
C227 C 0.17864 0.25417 0.84829 0.0
C228 C 0.12015 0.35726 0.96529 0.0
O229 O 0.15442 0.22055 0.86632 0.0
C230 C 1.01027 0.22263 0.93673 0.0
O231 O 0.19121 0.26516 0.9218 0.0
O232 O 0.12584 0.20528 0.92781 0.0
O233 O 0.07261 0.34854 0.95819 0.0
O234 O 0.15642 0.35101 0.94404 0.0
C235 C 0.02235 0.28338 0.8553 0.0
O236 O 0.02903 0.20867 0.90905 0.0
O237 O 0.02676 0.26481 0.94852 0.0
C238 C 0.17009 0.22397 0.93684 0.0
O239 O 0.06003 0.2505 0.85325 0.0
O240 O 1.00335 0.29767 0.88385 0.0
C241 C 0.08229 0.40729 0.88268 0.0
Fe242 Fe 0.77302 0.05616 0.88117 0.0
Fe243 Fe 0.67305 0.0272 0.92031 0.0
O244 O 0.71608 0.07643 0.90242 0.0
Fe245 Fe 0.69645 0.1434 0.90593 0.0
O246 O 0.71917 0.16853 0.86271 0.0
O247 O 0.76839 0.10307 0.84483 0.0
O248 O 0.73382 1.00857 0.85668 0.0
C249 C 0.68376 1.00561 0.8534 0.0
C250 C 0.80574 0.14211 0.92117 0.0
O251 O 0.65216 1.01237 0.87774 0.0
C252 C 0.68687 0.09101 0.9732 0.0
O253 O 0.7909 1.00767 0.91471 0.0
O254 O 0.71534 0.97013 0.91901 0.0
O255 O 0.76048 0.16358 0.92367 0.0
O256 O 0.8143 0.10168 0.90343 0.0
C257 C 0.59796 0.0924 0.90188 0.0
O258 O 0.69559 0.04446 0.9621 0.0
O259 O 0.67755 0.13064 0.95226 0.0
C260 C 0.76328 0.96891 0.92427 0.0
O261 O 0.61915 0.07199 0.92666 0.0
O262 O 0.62851 0.1254 0.88635 0.0
C263 C 0.75205 0.15046 0.84116 0.0
Fe264 Fe 0.96346 0.25658 0.68935 0.0
Fe265 Fe 0.99528 0.36437 0.65888 0.0
O266 O 0.9457 0.31873 0.67263 0.0
Fe267 Fe 0.88083 0.34159 0.67055 0.0
O268 O 0.85782 0.31706 0.71387 0.0
O269 O 0.91114 0.2495 0.72133 0.0
O270 O 1.00335 0.29208 0.7204 0.0
C271 C 1.00453 0.34252 0.72586 0.0
C272 C 0.87994 0.23477 0.64651 0.0
O273 O 1.00597 0.37848 0.70274 0.0
C274 C 0.93421 0.35401 0.60446 0.0
O275 O 0.01739 0.24608 0.65939 0.0
O276 O 0.05263 0.32303 0.6615 0.0
O277 O 0.8572 0.27921 0.65185 0.0
O278 O 0.92382 0.22233 0.65948 0.0
C279 C 0.93271 0.43997 0.67702 0.0
O280 O 0.98069 0.34673 0.61616 0.0
O281 O 0.8943 0.36266 0.62448 0.0
C282 C 0.05672 0.27524 0.65551 0.0
O283 O 0.95189 0.42004 0.65206 0.0
O284 O 0.90117 0.40765 0.69196 0.0
C285 C 0.86961 0.2735 0.72961 0.0
Fe286 Fe 0.78289 0.96431 0.69333 0.0
Fe287 Fe 0.68332 0.98442 0.65128 0.0
O288 O 0.72544 0.93992 0.67432 0.0
Fe289 Fe 0.70491 0.87274 0.67733 0.0
O290 O 0.73035 0.8566 0.72146 0.0
O291 O 0.77853 0.9262 0.73354 0.0
O292 O 0.74465 1.01794 0.71287 0.0
C293 C 0.69461 0.02307 0.71508 0.0
C294 C 0.81229 0.87142 0.65945 0.0
O295 O 0.66362 1.01172 0.69117 0.0
C296 C 0.69951 0.9063 0.60702 0.0
O297 O 0.80144 1.00446 0.65602 0.0
O298 O 0.72644 0.04008 0.64595 0.0
O299 O 0.76721 0.84925 0.65992 0.0
O300 O 0.82276 0.9136 0.67514 0.0
C301 C 0.60803 0.92631 0.67787 0.0
O302 O 0.70568 0.95571 0.61251 0.0
O303 O 0.68443 0.8737 0.63096 0.0
C304 C 0.77473 0.04079 0.64244 0.0
O305 O 0.6285 0.93891 0.6508 0.0
O306 O 0.63831 0.89644 0.6961 0.0
C307 C 0.76399 0.8791 0.74072 0.0
Fe308 Fe 0.08327 0.80465 0.68802 0.0
Fe309 Fe 0.02634 0.70356 0.66856 0.0
O310 O 0.08446 0.73575 0.68146 0.0
Fe311 Fe 0.14411 0.7006 0.68545 0.0
O312 O 0.15224 0.72004 0.73099 0.0
O313 O 0.1392 0.80494 0.71897 0.0
O314 O 0.0403 0.79459 0.7229 0.0
C315 C 0.99599 0.77205 0.72085 0.0
C316 C 0.17056 0.79718 0.65051 0.0
O317 O 0.98339 0.74442 0.69544 0.0
C318 C 0.10286 0.66563 0.62438 0.0
O319 O 0.02718 0.81872 0.6597 0.0
O320 O 0.02082 0.74636 0.63153 0.0
O321 O 0.18506 0.75883 0.67038 0.0
O322 O 0.12476 0.8151 0.65239 0.0
C323 C 0.06299 0.62447 0.7086 0.0
O324 O 0.0598 0.65734 0.63989 0.0
O325 O 0.14165 0.68346 0.64062 0.0
C326 C 1.00879 0.79399 0.63469 0.0
O327 O 0.02846 0.65917 0.70474 0.0
O328 O 0.11028 0.63521 0.69864 0.0
C329 C 0.15697 0.76905 0.73929 0.0
Fe330 Fe 0.34978 0.02257 0.66727 0.0
Fe331 Fe 0.35169 0.14376 0.67333 0.0
O332 O 0.31642 0.08289 0.67266 0.0
Fe333 Fe 0.24735 0.08381 0.67562 0.0
O334 O 0.24813 0.04605 0.71329 0.0
O335 O 0.3084 0.98693 0.69913 0.0
O336 O 0.3903 0.0343 0.70342 0.0
C337 C 0.42648 0.06707 0.70211 0.0
C338 C 0.26408 0.99488 0.63259 0.0
O339 O 0.41646 0.11238 0.68791 0.0
C340 C 0.25599 0.17121 0.63875 0.0
O341 O 0.39533 0.05129 0.63425 0.0
O342 O 0.37081 0.1354 0.62927 0.0
O343 O 0.23509 0.02254 0.65137 0.0
O344 O 0.31173 1.00497 0.63103 0.0
C345 C 0.28059 0.15966 0.72532 0.0
O346 O 0.29526 0.18455 0.65698 0.0
O347 O 0.2453 0.12262 0.63684 0.0
C348 C 0.38997 0.09404 0.61619 0.0
O349 O 0.32979 0.15583 0.71792 0.0
O350 O 0.24625 0.14245 0.70435 0.0
C351 C 0.27426 1.00494 0.71956 0.0
C352 C 0.2244 0.18586 0.14947 0.0
C353 C 0.17021 0.19539 0.14668 0.0
C354 C 0.24473 0.13486 0.14421 0.0
C355 C 0.21138 0.09193 0.13636 0.0
H356 H 0.25059 0.21651 0.15851 0.0
H357 H 0.28608 0.12807 0.14925 0.0
S358 S 0.06918 0.09909 0.11777 0.0
N359 N 0.08549 0.16019 0.12836 0.0
N360 N 0.12385 0.06391 0.12047 0.0
C361 C 0.15835 0.10215 0.13003 0.0
C362 C 0.13776 0.15416 0.13453 0.0
C363 C 0.92486 0.21937 0.12734 0.0
C364 C 0.93226 0.25704 0.15256 0.0
C365 C 0.87452 0.20015 0.12021 0.0
C366 C 0.83019 0.21829 0.13806 0.0
H367 H 0.95835 0.20292 0.11424 0.0
H368 H 0.87082 0.16785 0.10257 0.0
S369 S 0.82924 0.32842 0.19958 0.0
N370 N 0.89195 0.31965 0.19058 0.0
N371 N 0.79674 0.28468 0.17687 0.0
C372 C 0.83696 0.26102 0.16029 0.0
C373 C 0.88834 0.2798 0.16788 0.0
C374 C 0.85599 0.89817 0.10208 0.0
C375 C 0.83172 0.85255 0.117 0.0
C376 C 0.83498 0.94913 0.10604 0.0
C377 C 0.78744 0.95586 0.12312 0.0
H378 H 0.89443 0.89537 0.09045 0.0
H379 H 0.85737 0.9835 0.09732 0.0
S380 S 0.70083 0.84895 0.15817 0.0
N381 N 0.75273 0.81715 0.14386 0.0
N382 N 0.71143 0.91254 0.14928 0.0
C383 C 0.75885 0.91017 0.1335 0.0
C384 C 0.78115 0.85843 0.13057 0.0
C385 C 0.15717 0.86575 0.09687 0.0
C386 C 0.19601 0.83831 0.11612 0.0
C387 C 0.10463 0.84902 0.09737 0.0
C388 C 0.09031 0.80217 0.11475 0.0
H389 H 0.16581 0.90462 0.08575 0.0
H390 H 0.07477 0.87458 0.08616 0.0
S391 S 0.18043 0.70613 0.15807 0.0
N392 N 0.21871 0.7562 0.14607 0.0
N393 N 0.12111 0.72148 0.14404 0.0
C394 C 0.13056 0.76918 0.12823 0.0
C395 C 0.18356 0.78762 0.12914 0.0
C396 C 0.19255 0.94068 0.47683 0.0
C397 C 0.24112 0.95458 0.46254 0.0
C398 C 0.17367 0.88831 0.47511 0.0
C399 C 0.20119 0.84894 0.4571 0.0
H400 H 0.16758 0.97103 0.48737 0.0
H401 H 0.13395 0.88048 0.48385 0.0
S402 S 0.33502 0.86263 0.42141 0.0
N403 N 0.32139 0.92204 0.43618 0.0
N404 N 0.28321 0.82519 0.43024 0.0
C405 C 0.25248 0.86062 0.44659 0.0
C406 C 0.27282 0.91339 0.44959 0.0
C407 C 0.15842 0.20076 0.4695 0.0
C408 C 0.20352 0.22155 0.45287 0.0
C409 C 0.10768 0.21653 0.45975 0.0
C410 C 0.1005 0.2544 0.43366 0.0
H411 H 0.16212 0.16838 0.48794 0.0
H412 H 0.07402 0.19748 0.4717 0.0
S413 S 0.20425 0.33188 0.38867 0.0
N414 N 0.23679 0.2901 0.41379 0.0
N415 N 0.14143 0.31982 0.3959 0.0
C416 C 0.14478 0.28031 0.41986 0.0
C417 C 0.19641 0.26434 0.42969 0.0
C418 C 0.85981 0.0855 0.43674 0.0
C419 C 0.80518 0.08633 0.44132 0.0
C420 C 0.88827 0.13295 0.43417 0.0
C421 C 0.86288 0.18279 0.43566 0.0
H422 H 0.88008 0.0485 0.43203 0.0
H423 H 0.92958 0.13021 0.42784 0.0
S424 S 0.72419 0.20529 0.45977 0.0
N425 N 0.72945 0.14004 0.45693 0.0
N426 N 0.7831 0.22947 0.45095 0.0
C427 C 0.81003 0.18376 0.44555 0.0
C428 C 0.78111 0.13533 0.44873 0.0
C429 C 0.92869 0.83206 0.38787 0.0
C430 C 0.95058 0.82953 0.42059 0.0
C431 C 0.8747 0.83157 0.38301 0.0
C432 C 0.84031 0.83465 0.41069 0.0
H433 H 0.9534 0.83528 0.36564 0.0
H434 H 0.86001 0.83676 0.35729 0.0
S435 S 0.87648 0.82233 0.50146 0.0
N436 N 0.9333 0.82099 0.48117 0.0
N437 N 0.83061 0.82865 0.47189 0.0
C438 C 0.86089 0.82891 0.44355 0.0
C439 C 0.91638 0.82541 0.44854 0.0
C440 C 0.79365 0.82208 0.9272 0.0
C441 C 0.83798 0.81942 0.94845 0.0
C442 C 0.76846 0.87066 0.92065 0.0
C443 C 0.78682 0.91799 0.93509 0.0
H444 H 0.78204 0.78806 0.91247 0.0
H445 H 0.7368 0.87179 0.90223 0.0
S446 S 0.8909 0.92923 1.0001 0.0
N447 N 0.89127 0.86578 0.98988 0.0
N448 N 0.84424 0.95749 0.97679 0.0
C449 C 0.82662 0.91477 0.95952 0.0
C450 C 0.85162 0.86512 0.96674 0.0
C451 C 0.1587 0.7532 0.95049 0.0
C452 C 0.11271 0.78295 0.95726 0.0
C453 C 0.2086 0.77506 0.95472 0.0
C454 C 0.21385 0.82664 0.96679 0.0
H455 H 0.15643 0.71521 0.93805 0.0
H456 H 0.24203 0.75449 0.94419 0.0
S457 S 0.10791 0.90729 1.00547 0.0
N458 N 0.07661 0.85733 0.98773 0.0
N459 N 0.17115 0.89665 0.99899 0.0
C460 C 0.16919 0.85014 0.982 0.0
C461 C 0.11803 0.82903 0.97608 0.0
C462 C 0.19519 0.09249 0.97427 0.0
C463 C 0.24583 0.08416 0.96184 0.0
C464 C 0.1739 0.14364 0.97366 0.0
C465 C 0.20125 0.18645 0.95779 0.0
H466 H 0.17038 0.059 0.98145 0.0
H467 H 0.13276 0.14768 0.98027 0.0
S468 S 0.34182 0.18831 0.93434 0.0
N469 N 0.32898 0.12558 0.94455 0.0
N470 N 0.2864 0.22083 0.94032 0.0
C471 C 0.255 0.18056 0.95186 0.0
C472 C 0.27775 0.12899 0.95409 0.0
C473 C 0.91416 0.23979 0.93853 0.0
C474 C 0.95662 0.20497 0.94491 0.0
C475 C 0.86279 0.22012 0.93459 0.0
C476 C 0.8528 0.16521 0.93718 0.0
H477 H 0.92138 0.28168 0.93332 0.0
H478 H 0.8321 0.24724 0.92628 0.0
S479 S 0.94891 0.05981 0.96117 0.0
N480 N 0.98426 0.11494 0.95865 0.0
N481 N 0.88779 0.07786 0.9528 0.0
C482 C 0.89404 0.13121 0.94774 0.0
C483 C 0.94611 0.15109 0.95108 0.0
C484 C 0.77081 0.13895 0.63501 0.0
C485 C 0.79931 0.09122 0.63148 0.0
C486 C 0.79642 0.1881 0.63491 0.0
C487 C 0.85106 0.19077 0.63098 0.0
H488 H 0.72937 0.13823 0.64133 0.0
H489 H 0.77416 0.22297 0.64181 0.0
S490 S 0.9394 0.07966 0.60793 0.0
N491 N 0.88187 0.05102 0.61509 0.0
N492 N 0.93017 0.14395 0.61353 0.0
C493 C 0.87812 0.14449 0.62132 0.0
C494 C 0.85221 0.09433 0.62213 0.0
C495 C 0.94587 0.86495 0.6209 0.0
C496 C 0.95628 0.81035 0.62319 0.0
C497 C 0.89624 0.8841 0.62902 0.0
C498 C 0.856 0.84916 0.64007 0.0
H499 H 0.97768 0.89321 0.61707 0.0
H500 H 0.89104 0.92686 0.62989 0.0
S501 S 0.85879 0.70215 0.63845 0.0
N502 N 0.91876 0.72091 0.62747 0.0
N503 N 0.82557 0.75764 0.64414 0.0
C504 C 0.86317 0.79443 0.6365 0.0
C505 C 0.91359 0.77476 0.62747 0.0
C506 C 0.25439 0.84764 0.65033 0.0
C507 C 0.20749 0.83471 0.63382 0.0
C508 C 0.27567 0.89888 0.64663 0.0
C509 C 0.24963 0.93892 0.62735 0.0
H510 H 0.27133 0.82051 0.66905 0.0
H511 H 0.31012 0.90831 0.66144 0.0
S512 S 0.13648 0.91912 0.57027 0.0
N513 N 0.14495 0.86072 0.58956 0.0
N514 N 0.1825 0.95864 0.5854 0.0
C515 C 0.20744 0.92423 0.607 0.0
C516 C 0.18739 0.87133 0.6093 0.0
C517 C 0.16389 0.18826 0.61963 0.0
C518 C 0.2098 0.20724 0.63569 0.0
C519 C 0.11444 0.21055 0.62581 0.0
C520 C 0.10917 0.25373 0.64745 0.0
H521 H 0.16555 0.15337 0.60397 0.0
H522 H 0.08004 0.19318 0.61414 0.0
S523 S 0.21697 0.32323 0.69238 0.0
N524 N 0.24669 0.27537 0.67178 0.0
N525 N 0.1541 0.318 0.68268 0.0
C526 C 0.15502 0.27602 0.66146 0.0
C527 C 0.2053 0.25289 0.65555 0.0
C528 C 0.24539 0.2762 0.28098 0.0
C529 C 0.19005 0.27615 0.27561 0.0
C530 C 0.26991 0.24766 0.30901 0.0
C531 C 0.24069 0.21727 0.33347 0.0
H532 H 0.27032 0.29664 0.26266 0.0
H533 H 0.31231 0.24888 0.31115 0.0
S534 S 0.09452 0.204 0.33138 0.0
N535 N 0.1076 0.24293 0.29829 0.0
N536 N 0.15178 0.19073 0.34914 0.0
C537 C 0.18534 0.21811 0.32836 0.0
C538 C 0.16083 0.24682 0.30021 0.0
C539 C 0.86343 0.24613 0.28202 0.0
C540 C 0.83587 0.26651 0.30986 0.0
C541 C 0.83802 0.21933 0.25545 0.0
C542 C 0.78294 0.21041 0.2547 0.0
H543 H 0.90589 0.24955 0.2812 0.0
H544 H 0.86271 0.20451 0.23539 0.0
S545 S 0.69134 0.25515 0.32173 0.0
N546 N 0.74945 0.27567 0.33511 0.0
N547 N 0.70155 0.22584 0.28515 0.0
C548 C 0.75434 0.23177 0.28205 0.0
C549 C 0.78064 0.25942 0.30944 0.0
C550 C 0.79383 0.7903 0.26381 0.0
C551 C 0.83236 0.81743 0.24378 0.0
C552 C 0.76404 0.81608 0.28989 0.0
C553 C 0.77072 0.87076 0.29783 0.0
H554 H 0.78646 0.74858 0.25938 0.0
H555 H 0.73619 0.79238 0.30447 0.0
S556 S 0.8686 0.96 0.25474 0.0
N557 N 0.87571 0.90293 0.23547 0.0
N558 N 0.82179 0.94978 0.28301 0.0
C559 C 0.80934 0.8979 0.27795 0.0
C560 C 0.83924 0.87195 0.25161 0.0
C561 C 0.19701 0.83281 0.26469 0.0
C562 C 0.25037 0.82746 0.25464 0.0
C563 C 0.17604 0.80936 0.29488 0.0
C564 C 0.20604 0.77736 0.31757 0.0
H565 H 0.17056 0.85708 0.24942 0.0
H566 H 0.13544 0.81776 0.30094 0.0
S567 S 0.3478 0.74766 0.30445 0.0
N568 N 0.33268 0.78498 0.27078 0.0
N569 N 0.2935 0.74158 0.32728 0.0
C570 C 0.2593 0.77019 0.30783 0.0
C571 C 0.28111 0.79462 0.27672 0.0
C572 C 0.79705 0.79412 0.77426 0.0
C573 C 0.78999 0.85031 0.77191 0.0
C574 C 0.82809 0.76846 0.80046 0.0
C575 C 0.85473 0.79712 0.8261 0.0
H576 H 0.77976 0.76955 0.75495 0.0
H577 H 0.83213 0.72559 0.8001 0.0
S578 S 0.84632 0.94454 0.83414 0.0
N579 N 0.81108 0.9328 0.79993 0.0
N580 N 0.86776 0.88597 0.84781 0.0
C581 C 0.8467 0.8531 0.82445 0.0
C582 C 0.81518 0.87903 0.79801 0.0
C583 C 0.22277 0.83202 0.76807 0.0
C584 C 0.18849 0.78731 0.77056 0.0
C585 C 0.24938 0.85349 0.79669 0.0
C586 C 0.24193 0.83328 0.8301 0.0
H587 H 0.22906 0.85109 0.74349 0.0
H588 H 0.27476 0.88765 0.79273 0.0
S589 S 0.15815 0.7159 0.85178 0.0
N590 N 0.15123 0.72241 0.81018 0.0
N591 N 0.19795 0.76426 0.86345 0.0
C592 C 0.20807 0.78847 0.83305 0.0
C593 C 0.18243 0.76529 0.80369 0.0
C594 C 0.19406 0.18242 0.80442 0.0
C595 C 0.20755 0.23341 0.81673 0.0
C596 C 0.21873 0.15953 0.77595 0.0
C597 C 0.2599 0.18503 0.75786 0.0
H598 H 0.16308 0.15957 0.81672 0.0
H599 H 0.2051 0.12088 0.76794 0.0
S600 S 0.31184 0.31919 0.77816 0.0
N601 N 0.26583 0.30896 0.80721 0.0
N602 N 0.3128 0.26553 0.75456 0.0
C603 C 0.27464 0.23582 0.7698 0.0
C604 C 0.24851 0.25992 0.79871 0.0
C605 C 0.83905 0.18972 0.7626 0.0
C606 C 0.83502 0.24574 0.75755 0.0
C607 C 0.81064 0.16055 0.78803 0.0
C608 C 0.77569 0.18458 0.8112 0.0
H609 H 0.86503 0.16735 0.7465 0.0
H610 H 0.81733 0.11804 0.78982 0.0
S611 S 0.7487 0.33048 0.81012 0.0
N612 N 0.79092 0.32401 0.7786 0.0
N613 N 0.73889 0.27008 0.82643 0.0
C614 C 0.77031 0.24071 0.80633 0.0
C615 C 0.7992 0.2707 0.77982 0.0
C616 C 0.10734 0.4058 0.05499 0.0
C617 C 0.14161 0.37176 0.07334 0.0
C618 C 0.10318 0.40377 1.01956 0.0
C619 C 0.134 0.36845 1.00101 0.0
H620 H 0.08008 0.43088 0.06844 0.0
H621 H 0.07352 0.42779 1.00682 0.0
S622 S 0.23318 0.27441 1.03657 0.0
N623 N 0.20904 0.30407 0.07017 0.0
N624 N 0.20321 0.30173 1.00332 0.0
C625 C 0.17178 0.33756 1.01873 0.0
C626 C 0.17519 0.33891 0.05499 0.0
C627 C 0.66322 0.14887 0.06088 0.0
C628 C 0.65032 0.10382 0.08139 0.0
C629 C 0.67422 0.1447 1.02602 0.0
C630 C 0.67351 0.0952 1.01008 0.0
H631 H 0.66673 0.18774 0.07205 0.0
H632 H 0.68489 0.18039 1.01172 0.0
S633 S 0.63631 0.96556 0.05119 0.0
N634 N 0.63298 1.00868 0.08208 0.0
N635 N 0.65409 1.00042 1.01715 0.0
C636 C 0.65829 0.0501 1.02993 0.0
C637 C 0.64644 0.05454 0.06531 0.0
C638 C 0.9039 0.66094 1.02036 0.0
C639 C 0.95291 0.6516 1.00505 0.0
C640 C 0.8984 0.66188 0.05598 0.0
C641 C 0.94152 0.65305 0.07807 0.0
H642 H 0.87006 0.67068 1.00474 0.0
H643 H 0.86032 0.67215 0.06618 0.0
S644 S 0.07702 0.6192 0.05089 0.0
N645 N 0.04439 0.62787 1.01498 0.0
N646 N 0.034 0.62912 0.08141 0.0
C647 C 0.98993 0.63991 0.06302 0.0
C648 C 0.99563 0.63944 1.02677 0.0
C649 C 0.38611 0.89799 0.05512 0.0
C650 C 0.38098 0.94654 0.07215 0.0
C651 C 0.39239 0.89617 1.01967 0.0
C652 C 0.39391 0.94276 0.99898 0.0
H653 H 0.38311 0.86054 0.06911 0.0
H654 H 0.39341 0.85737 1.00822 0.0
S655 S 0.38821 0.08084 1.03075 0.0
N656 N 0.38245 0.04307 0.06536 0.0
N657 N 0.39457 0.03952 0.999 0.0
C658 C 0.39254 0.99181 1.0158 0.0
C659 C 0.38593 0.99372 0.05214 0.0
C660 C 0.05791 0.6596 0.53156 0.0
C661 C 0.10275 0.67537 0.51274 0.0
C662 C 0.05918 0.65321 0.56723 0.0
C663 C 0.10526 0.66276 0.58614 0.0
H664 H 0.02087 0.65324 0.51868 0.0
H665 H 0.02291 0.64282 0.58014 0.0
S666 S 0.2342 0.70372 0.54929 0.0
N667 N 0.19522 0.69886 0.51599 0.0
N668 N 0.19776 0.68743 0.58257 0.0
C669 C 0.15093 0.67688 0.5675 0.0
C670 C 0.14965 0.683 0.53109 0.0
C671 C 0.39581 0.05177 0.52262 0.0
C672 C 0.3987 0.10082 0.50436 0.0
C673 C 0.39701 0.04912 0.55869 0.0
C674 C 0.40118 0.09539 0.57836 0.0
H675 H 0.38936 1.01527 0.50907 0.0
H676 H 0.39137 1.01076 0.57121 0.0
S677 S 0.41844 0.2329 0.54328 0.0
N678 N 0.41214 0.1961 0.50933 0.0
N679 N 0.4145 0.1912 0.5761 0.0
C680 C 0.40786 0.14411 0.56028 0.0
C681 C 0.40659 0.14679 0.52375 0.0
C682 C 0.97555 0.3854 0.51366 0.0
C683 C 0.92921 0.37776 0.49511 0.0
C684 C 0.97614 0.37882 0.54899 0.0
C685 C 0.93034 0.36468 0.56737 0.0
H686 H 1.0123 0.39382 0.50074 0.0
H687 H 1.0134 0.38385 0.56187 0.0
S688 S 0.79734 0.3461 0.53121 0.0
N689 N 0.83493 0.35999 0.49806 0.0
N690 N 0.83658 0.34754 0.56456 0.0
C691 C 0.88307 0.36009 0.54941 0.0
C692 C 0.88238 0.36664 0.51331 0.0
C693 C 0.65809 0.87019 0.55405 0.0
C694 C 0.70224 0.89073 0.57106 0.0
C695 C 0.6549 0.87238 0.51821 0.0
C696 C 0.69574 0.89532 0.49868 0.0
H697 H 0.62412 0.85686 0.56846 0.0
H698 H 0.61864 0.86058 0.50605 0.0
S699 S 0.82198 0.94815 0.53123 0.0
N700 N 0.78955 0.92882 0.56559 0.0
N701 N 0.78346 0.93369 0.49897 0.0
C702 C 0.74166 0.91149 0.51551 0.0
C703 C 0.74494 0.90899 0.55154 0.0
C704 C 0.0636 0.41714 0.26669 0.0
C705 C 0.01772 0.41225 0.24661 0.0
C706 C 0.06557 0.39067 0.29835 0.0
C707 C 0.01949 0.36784 0.31148 0.0
H708 H 0.10059 0.42784 0.25495 0.0
H709 H 0.10315 0.38379 0.31062 0.0
S710 S 0.88445 0.39631 0.27987 0.0
N711 N 0.92351 0.4179 0.24915 0.0
N712 N 0.92379 0.37325 0.3101 0.0
C713 C 0.97133 0.38294 0.29626 0.0
C714 C 0.97088 0.40814 0.2639 0.0
C715 C 0.7159 0.08809 0.30624 0.0
C716 C 0.68171 0.05139 0.32153 0.0
C717 C 0.74159 0.0754 0.27655 0.0
C718 C 0.72785 0.03027 0.25776 0.0
H719 H 0.73098 0.1212 0.32061 0.0
H720 H 0.77454 0.1002 0.26946 0.0
S721 S 0.62908 0.92879 0.28295 0.0
N722 N 0.62906 0.97164 0.31418 0.0
N723 N 0.67164 0.95231 0.25476 0.0
C724 C 0.68757 0.99732 0.27031 0.0
C725 C 0.66419 1.00812 0.30233 0.0
C726 C 0.97296 0.7649 0.30421 0.0
C727 C 1.01432 0.73596 0.31839 0.0
C728 C 0.97508 0.78083 0.2703 0.0
C729 C 0.01722 0.76587 0.24913 0.0
H730 H 0.94246 0.78108 0.32003 0.0
H731 H 0.9444 0.80721 0.26129 0.0
S732 S 0.12776 0.6776 0.27346 0.0
N733 N 0.09341 0.68438 0.30863 0.0
N734 N 0.09602 0.71217 0.24385 0.0
C735 C 0.05483 0.73045 0.26216 0.0
C736 C 0.05299 0.71497 0.29695 0.0
C737 C 0.24839 0.06793 0.30876 0.0
C738 C 0.26655 0.02646 0.33075 0.0
C739 C 0.25672 0.0668 0.27398 0.0
C740 C 0.28307 0.02407 0.26011 0.0
H741 H 0.22648 0.10137 0.31819 0.0
H742 H 0.23899 0.0972 0.25776 0.0
S743 S 0.33921 0.90666 0.30567 0.0
N744 N 0.31329 0.9427 0.33583 0.0
N745 N 0.32936 0.9405 0.26986 0.0
C746 C 0.30372 0.98375 0.2816 0.0
C747 C 0.29506 0.98476 0.31709 0.0
C748 C 0.96667 0.71545 0.76679 0.0
C749 C 0.96686 0.76693 0.7524 0.0
C750 C 0.98714 0.70623 0.79936 0.0
C751 C 1.00493 0.749 0.81875 0.0
H752 H 0.95813 0.6819 0.75103 0.0
H753 H 0.99034 0.66562 0.8089 0.0
S754 S 0.98891 0.89312 0.79607 0.0
N755 N 0.96678 0.86119 0.76283 0.0
N756 N 1.00728 0.84632 0.82353 0.0
C757 C 0.99511 0.80148 0.80637 0.0
C758 C 0.97268 0.80987 0.77384 0.0
C759 C 0.3167 1.01056 0.77426 0.0
C760 C 0.27425 0.99103 0.75532 0.0
C761 C 0.30986 0.02666 0.80767 0.0
C762 C 0.2609 0.02179 0.82368 0.0
H763 H 0.35456 1.01738 0.76249 0.0
H764 H 0.34349 0.04142 0.8213 0.0
S765 S 0.137 0.97404 0.78458 0.0
N766 N 0.18157 0.96872 0.75444 0.0
N767 N 0.16848 0.99813 0.81754 0.0
C768 C 0.21796 1.00291 0.80474 0.0
C769 C 0.22504 0.98633 0.77093 0.0
C770 C 0.95729 0.34265 0.77883 0.0
C771 C 1.002 0.35853 0.76028 0.0
C772 C 0.9628 0.32007 0.8112 0.0
C773 C 1.01291 0.3163 0.82542 0.0
H774 H 0.91926 0.34181 0.76682 0.0
H775 H 0.92899 0.30257 0.82391 0.0
S776 S 0.13714 0.37323 0.79048 0.0
N777 N 0.09308 0.38412 0.76055 0.0
N778 N 0.10461 0.34351 0.82172 0.0
C779 C 0.0555 0.34185 0.80899 0.0
C780 C 0.0495 0.36425 0.77635 0.0
C781 C 0.66839 0.96235 0.79945 0.0
C782 C 0.66327 1.00738 0.81916 0.0
C783 C 0.67118 0.96805 0.76437 0.0
C784 C 0.67259 1.01877 0.74877 0.0
H785 H 0.67473 0.92348 0.81118 0.0
H786 H 0.67691 0.93298 0.74971 0.0
S787 S 0.64358 0.14662 0.78848 0.0
N788 N 0.64487 0.10247 0.82016 0.0
N789 N 0.65588 0.11297 0.75385 0.0
C790 C 0.66046 0.06312 0.76755 0.0
C791 C 0.65463 0.05726 0.80316 0.0
C792 C 0.06898 0.53269 0.21202 0.0
C793 C 0.05614 0.49416 0.18792 0.0
C794 C 0.03493 0.57657 0.21831 0.0
C795 C 0.98528 0.58385 0.20188 0.0
H796 H 0.10641 0.53038 0.22504 0.0
H797 H 0.04878 0.60663 0.23543 0.0
S798 S 0.92971 0.49329 0.13828 0.0
N799 N 0.98712 0.46693 0.1481 0.0
N800 N 0.92462 0.54628 0.16191 0.0
C801 C 0.97069 0.54418 0.17939 0.0
C802 C 1.00555 0.50065 0.17195 0.0
C803 C 0.54395 1.01625 0.22564 0.0
C804 C 0.55665 0.05925 0.20309 0.0
C805 C 0.50009 0.98209 0.22049 0.0
C806 C 0.46709 0.98834 0.19201 0.0
H807 H 0.56861 1.00884 0.24753 0.0
H808 H 0.49136 0.95138 0.23928 0.0
S809 S 0.48227 0.09454 0.12499 0.0
N810 N 0.53123 0.10582 0.15132 0.0
N811 N 0.45078 0.04246 0.14112 0.0
C812 C 0.4796 0.03137 0.16937 0.0
C813 C 0.52342 0.0665 0.175 0.0
C814 C 0.01604 0.54901 0.41912 0.0
C815 C 0.04294 0.57358 0.39139 0.0
C816 C 0.97535 0.51094 0.41493 0.0
C817 C 0.95866 0.49444 0.38263 0.0
H818 H 0.02535 0.56099 0.4447 0.0
H819 H 0.95885 0.49209 0.43747 0.0
S820 S 1.01251 0.548 0.30119 0.0
N821 N 0.04594 0.58059 0.3301 0.0
N822 N 0.9722 0.50766 0.32217 0.0
C823 C 0.98418 0.51975 0.35468 0.0
C824 C 0.02533 0.55901 0.35898 0.0
C825 C 0.54569 0.03218 0.40263 0.0
C826 C 0.55205 0.98533 0.38307 0.0
C827 C 0.50356 0.06795 0.39825 0.0
C828 C 0.46418 0.05935 0.3742 0.0
H829 H 0.57283 0.04105 0.42293 0.0
H830 H 0.49975 0.10023 0.41588 0.0
S831 S 0.46495 0.94962 0.31204 0.0
N832 N 0.51741 0.93721 0.33553 0.0
N833 N 0.43767 1.00391 0.32714 0.0
C834 C 0.47165 1.01524 0.35255 0.0
C835 C 0.51532 0.97861 0.35697 0.0
C836 C 0.08647 0.50827 0.87216 0.0
C837 C 0.06107 0.45936 0.86741 0.0
C838 C 0.05777 0.55678 0.87182 0.0
C839 C 1.00199 0.55909 0.86754 0.0
H840 H 0.12739 0.50878 0.87974 0.0
H841 H 0.07885 0.59237 0.87894 0.0
S842 S 0.91803 0.44439 0.84703 0.0
N843 N 0.97729 0.41876 0.85186 0.0
N844 N 0.92492 0.5088 0.85299 0.0
C845 C 0.97753 0.51183 0.85857 0.0
C846 C 1.00661 0.46257 0.85817 0.0
C847 C 0.54279 1.0087 0.90697 0.0
C848 C 0.5531 0.05741 0.88852 0.0
C849 C 0.50193 0.97344 0.89917 0.0
C850 C 0.46673 0.98442 0.8728 0.0
H851 H 0.56614 0.99702 0.92886 0.0
H852 H 0.49563 0.93919 0.91585 0.0
S853 S 0.47675 0.10111 0.81288 0.0
N854 N 0.52582 0.11064 0.83964 0.0
N855 N 0.44747 0.04523 0.82537 0.0
C856 C 0.4774 0.03106 0.85258 0.0
C857 C 0.52043 0.06712 0.8603 0.0
C858 C 0.01685 0.49399 0.67463 0.0
C859 C 0.96858 0.48267 0.69206 0.0
C860 C 0.05148 0.53502 0.68356 0.0
C861 C 0.04035 0.56878 0.71028 0.0
H862 H 0.02812 0.47191 0.65251 0.0
H863 H 0.08487 0.54328 0.66721 0.0
S864 S 0.92625 0.55281 0.769 0.0
N865 N 0.9166 0.50558 0.74107 0.0
N866 N 0.98129 0.5835 0.75775 0.0
C867 C 0.99489 0.55581 0.72996 0.0
C868 C 0.95933 0.513 0.72096 0.0
C869 C 0.53255 0.95944 0.7175 0.0
C870 C 0.56524 0.966 0.68886 0.0
C871 C 0.4906 0.99569 0.72389 0.0
C872 C 0.48038 0.04152 0.70288 0.0
H873 H 0.53752 0.92488 0.73404 0.0
H874 H 0.46404 0.98623 0.74463 0.0
S875 S 0.55672 0.08211 0.62688 0.0
N876 N 0.58415 0.0261 0.64006 0.0
N877 N 0.50963 0.09329 0.65437 0.0
C878 C 0.51505 0.05077 0.67604 0.0
C879 C 0.5558 1.01334 0.6684 0.0
loop_
_geom_bond_atom_site_label_1
_geom_bond_atom_site_label_2
_geom_bond_distance
_geom_bond_site_symmetry_2
_ccdc_geom_bond_type
Fe0 O2 1.918 . S
Fe0 O5 1.997 . S
Fe0 O6 2.002 . S
Fe0 O11 1.976 . S
Fe0 O14 1.996 . S
Fe1 O2 1.918 . S
Fe1 O9 1.997 . S
Fe1 O12 1.996 1_455 S
Fe1 O16 1.976 . S
Fe1 O19 2.002 . S
O2 Fe0 1.918 . S
O2 Fe1 1.918 . S
O2 Fe3 1.918 . S
Fe3 O2 1.918 . S
Fe3 O4 2.002 . S
Fe3 O13 1.976 . S
Fe3 O17 1.996 . S
Fe3 O20 1.997 . S
O4 Fe3 2.002 . S
O4 C21 1.295 . S
O5 Fe0 1.997 . S
O5 C21 1.235 . S
O6 Fe0 2.002 . S
O6 C7 1.295 . S
C7 O6 1.295 . S
C7 O9 1.236 . S
C8 O13 1.287 . S
C8 O14 1.255 . S
O9 Fe1 1.997 . S
O9 C7 1.236 . S
C10 O16 1.287 . S
C10 O17 1.255 . S
O11 Fe0 1.976 . S
O11 C18 1.287 1_455 S
O12 Fe1 1.996 1_655 S
O12 C18 1.255 . S
O13 Fe3 1.976 . S
O13 C8 1.287 . S
O14 Fe0 1.996 . S
O14 C8 1.255 . S
C15 O19 1.295 . S
C15 O20 1.235 . S
O16 Fe1 1.976 . S
O16 C10 1.287 . S
O17 Fe3 1.996 . S
O17 C10 1.255 . S
C18 O11 1.287 1_655 S
C18 O12 1.255 . S
O19 Fe1 2.002 . S
O19 C15 1.295 . S
O20 Fe3 1.997 . S
O20 C15 1.235 . S
C21 O4 1.295 . S
C21 O5 1.235 . S
Fe22 O24 1.918 . S
Fe22 O27 1.997 . S
Fe22 O28 2.002 . S
Fe22 O33 1.976 . S
Fe22 O36 1.996 . S
Fe23 O24 1.918 . S
Fe23 O31 1.997 . S
Fe23 O34 1.996 . S
Fe23 O38 1.976 . S
Fe23 O41 2.002 . S
O24 Fe22 1.918 . S
O24 Fe23 1.918 . S
O24 Fe25 1.918 . S
Fe25 O24 1.918 . S
Fe25 O26 2.002 . S
Fe25 O35 1.976 . S
Fe25 O39 1.996 1_545 S
Fe25 O42 1.997 . S
O26 Fe25 2.002 . S
O26 C43 1.295 . S
O27 Fe22 1.997 . S
O27 C43 1.235 . S
O28 Fe22 2.002 . S
O28 C29 1.295 . S
C29 O28 1.295 . S
C29 O31 1.235 . S
C30 O35 1.287 . S
C30 O36 1.255 . S
O31 Fe23 1.997 . S
O31 C29 1.235 . S
C32 O38 1.287 1_565 S
C32 O39 1.255 . S
O33 Fe22 1.976 . S
O33 C40 1.287 . S
O34 Fe23 1.996 . S
O34 C40 1.255 . S
O35 Fe25 1.976 . S
O35 C30 1.287 . S
O36 Fe22 1.996 . S
O36 C30 1.255 . S
C37 O41 1.295 . S
C37 O42 1.236 . S
O38 Fe23 1.976 . S
O38 C32 1.287 1_545 S
O39 Fe25 1.996 1_565 S
O39 C32 1.255 . S
C40 O33 1.287 . S
C40 O34 1.255 . S
O41 Fe23 2.002 . S
O41 C37 1.295 . S
O42 Fe25 1.997 . S
O42 C37 1.236 . S
C43 O26 1.295 . S
C43 O27 1.235 . S
Fe44 O46 1.918 . S
Fe44 O49 1.997 . S
Fe44 O50 2.002 . S
Fe44 O55 1.976 . S
Fe44 O58 1.996 . S
Fe45 O46 1.918 . S
Fe45 O53 1.997 . S
Fe45 O56 1.996 . S
Fe45 O60 1.976 . S
Fe45 O63 2.002 . S
O46 Fe44 1.918 . S
O46 Fe45 1.918 . S
O46 Fe47 1.918 . S
Fe47 O46 1.918 . S
Fe47 O48 2.002 . S
Fe47 O57 1.976 . S
Fe47 O61 1.996 1_655 S
Fe47 O64 1.997 . S
O48 Fe47 2.002 . S
O48 C65 1.295 . S
O49 Fe44 1.997 . S
O49 C65 1.235 . S
O50 Fe44 2.002 . S
O50 C51 1.295 . S
C51 O50 1.295 . S
C51 O53 1.235 . S
C52 O57 1.287 . S
C52 O58 1.255 . S
O53 Fe45 1.997 . S
O53 C51 1.235 . S
C54 O60 1.287 1_455 S
C54 O61 1.255 . S
O55 Fe44 1.976 . S
O55 C62 1.287 . S
O56 Fe45 1.996 . S
O56 C62 1.255 . S
O57 Fe47 1.976 . S
O57 C52 1.287 . S
O58 Fe44 1.996 . S
O58 C52 1.255 . S
C59 O63 1.295 . S
C59 O64 1.236 . S
O60 Fe45 1.976 . S
O60 C54 1.287 1_655 S
O61 Fe47 1.996 1_455 S
O61 C54 1.255 . S
C62 O55 1.287 . S
C62 O56 1.255 . S
O63 Fe45 2.002 . S
O63 C59 1.295 . S
O64 Fe47 1.997 . S
O64 C59 1.236 . S
C65 O48 1.295 . S
C65 O49 1.235 . S
Fe66 O68 1.918 . S
Fe66 O71 1.997 . S
Fe66 O72 2.002 . S
Fe66 O77 1.976 . S
Fe66 O80 1.996 . S
Fe67 O68 1.918 . S
Fe67 O75 1.997 . S
Fe67 O78 1.996 . S
Fe67 O82 1.976 . S
Fe67 O85 2.002 . S
O68 Fe66 1.918 . S
O68 Fe67 1.918 . S
O68 Fe69 1.918 . S
Fe69 O68 1.918 . S
Fe69 O70 2.002 . S
Fe69 O79 1.976 . S
Fe69 O83 1.996 1_565 S
Fe69 O86 1.997 . S
O70 Fe69 2.002 . S
O70 C87 1.295 . S
O71 Fe66 1.997 . S
O71 C87 1.235 . S
O72 Fe66 2.002 . S
O72 C73 1.295 . S
C73 O72 1.295 . S
C73 O75 1.235 . S
C74 O79 1.287 . S
C74 O80 1.255 . S
O75 Fe67 1.997 . S
O75 C73 1.235 . S
C76 O82 1.287 1_545 S
C76 O83 1.255 . S
O77 Fe66 1.976 . S
O77 C84 1.287 . S
O78 Fe67 1.996 . S
O78 C84 1.255 . S
O79 Fe69 1.976 . S
O79 C74 1.287 . S
O80 Fe66 1.996 . S
O80 C74 1.255 . S
C81 O85 1.295 . S
C81 O86 1.236 . S
O82 Fe67 1.976 . S
O82 C76 1.287 1_565 S
O83 Fe69 1.996 1_545 S
O83 C76 1.255 . S
C84 O77 1.287 . S
C84 O78 1.255 . S
O85 Fe67 2.002 . S
O85 C81 1.295 . S
O86 Fe69 1.997 . S
O86 C81 1.236 . S
C87 O70 1.295 . S
C87 O71 1.235 . S
Fe88 O90 1.918 . S
Fe88 O93 1.997 . S
Fe88 O94 2.002 . S
Fe88 O99 1.976 . S
Fe88 O102 1.996 . S
Fe89 O90 1.918 . S
Fe89 O97 1.997 . S
Fe89 O100 1.996 1_455 S
Fe89 O104 1.976 . S
Fe89 O107 2.002 . S
O90 Fe88 1.918 . S
O90 Fe89 1.918 . S
O90 Fe91 1.918 . S
Fe91 O90 1.918 . S
Fe91 O92 2.002 . S
Fe91 O101 1.976 . S
Fe91 O105 1.996 . S
Fe91 O108 1.997 . S
O92 Fe91 2.002 . S
O92 C109 1.295 . S
O93 Fe88 1.997 . S
O93 C109 1.235 . S
O94 Fe88 2.002 . S
O94 C95 1.295 . S
C95 O94 1.295 . S
C95 O97 1.236 . S
C96 O101 1.287 . S
C96 O102 1.255 . S
O97 Fe89 1.997 . S
O97 C95 1.236 . S
C98 O104 1.287 . S
C98 O105 1.255 . S
O99 Fe88 1.976 . S
O99 C106 1.287 1_455 S
O100 Fe89 1.996 1_655 S
O100 C106 1.255 . S
O101 Fe91 1.976 . S
O101 C96 1.287 . S
O102 Fe88 1.996 . S
O102 C96 1.255 . S
C103 O107 1.295 . S
C103 O108 1.235 . S
O104 Fe89 1.976 . S
O104 C98 1.287 . S
O105 Fe91 1.996 . S
O105 C98 1.255 . S
C106 O99 1.287 1_655 S
C106 O100 1.255 . S
O107 Fe89 2.002 . S
O107 C103 1.295 . S
O108 Fe91 1.997 . S
O108 C103 1.235 . S
C109 O92 1.295 . S
C109 O93 1.235 . S
Fe110 O112 1.918 . S
Fe110 O115 1.997 . S
Fe110 O116 2.002 . S
Fe110 O121 1.976 . S
Fe110 O124 1.996 . S
Fe111 O112 1.918 . S
Fe111 O119 1.997 . S
Fe111 O122 1.996 . S
Fe111 O126 1.976 . S
Fe111 O129 2.002 . S
O112 Fe110 1.918 . S
O112 Fe111 1.918 . S
O112 Fe113 1.918 . S
Fe113 O112 1.918 . S
Fe113 O114 2.002 . S
Fe113 O123 1.976 . S
Fe113 O127 1.996 1_545 S
Fe113 O130 1.997 . S
O114 Fe113 2.002 . S
O114 C131 1.295 . S
O115 Fe110 1.997 . S
O115 C131 1.235 . S
O116 Fe110 2.002 . S
O116 C117 1.295 . S
C117 O116 1.295 . S
C117 O119 1.235 . S
C118 O123 1.287 . S
C118 O124 1.255 . S
O119 Fe111 1.997 . S
O119 C117 1.235 . S
C120 O126 1.287 1_565 S
C120 O127 1.255 . S
O121 Fe110 1.976 . S
O121 C128 1.287 . S
O122 Fe111 1.996 . S
O122 C128 1.255 . S
O123 Fe113 1.976 . S
O123 C118 1.287 . S
O124 Fe110 1.996 . S
O124 C118 1.255 . S
C125 O129 1.295 . S
C125 O130 1.236 . S
O126 Fe111 1.976 . S
O126 C120 1.287 1_545 S
O127 Fe113 1.996 1_565 S
O127 C120 1.255 . S
C128 O121 1.287 . S
C128 O122 1.255 . S
O129 Fe111 2.002 . S
O129 C125 1.295 . S
O130 Fe113 1.997 . S
O130 C125 1.236 . S
C131 O114 1.295 . S
C131 O115 1.235 . S
Fe132 O134 1.918 . S
Fe132 O137 1.997 . S
Fe132 O138 2.002 . S
Fe132 O143 1.976 . S
Fe132 O146 1.996 . S
Fe133 O134 1.918 . S
Fe133 O141 1.997 . S
Fe133 O144 1.996 1_655 S
Fe133 O148 1.976 . S
Fe133 O151 2.002 . S
O134 Fe132 1.918 . S
O134 Fe133 1.918 . S
O134 Fe135 1.918 . S
Fe135 O134 1.918 . S
Fe135 O136 2.002 . S
Fe135 O145 1.976 . S
Fe135 O149 1.996 . S
Fe135 O152 1.997 . S
O136 Fe135 2.002 . S
O136 C153 1.295 . S
O137 Fe132 1.997 . S
O137 C153 1.235 . S
O138 Fe132 2.002 . S
O138 C139 1.295 . S
C139 O138 1.295 . S
C139 O141 1.236 . S
C140 O145 1.287 . S
C140 O146 1.255 . S
O141 Fe133 1.997 . S
O141 C139 1.236 . S
C142 O148 1.287 . S
C142 O149 1.255 . S
O143 Fe132 1.976 . S
O143 C150 1.287 1_655 S
O144 Fe133 1.996 1_455 S
O144 C150 1.255 . S
O145 Fe135 1.976 . S
O145 C140 1.287 . S
O146 Fe132 1.996 . S
O146 C140 1.255 . S
C147 O151 1.295 . S
C147 O152 1.235 . S
O148 Fe133 1.976 . S
O148 C142 1.287 . S
O149 Fe135 1.996 . S
O149 C142 1.255 . S
C150 O143 1.287 1_455 S
C150 O144 1.255 . S
O151 Fe133 2.002 . S
O151 C147 1.295 . S
O152 Fe135 1.997 . S
O152 C147 1.235 . S
C153 O136 1.295 . S
C153 O137 1.235 . S
Fe154 O156 1.918 . S
Fe154 O159 1.997 . S
Fe154 O160 2.002 . S
Fe154 O165 1.976 . S
Fe154 O168 1.996 . S
Fe155 O156 1.918 . S
Fe155 O163 1.997 . S
Fe155 O166 1.996 1_565 S
Fe155 O170 1.976 . S
Fe155 O173 2.002 . S
O156 Fe154 1.918 . S
O156 Fe155 1.918 . S
O156 Fe157 1.918 . S
Fe157 O156 1.918 . S
Fe157 O158 2.002 . S
Fe157 O167 1.976 . S
Fe157 O171 1.996 . S
Fe157 O174 1.997 . S
O158 Fe157 2.002 . S
O158 C175 1.295 . S
O159 Fe154 1.997 . S
O159 C175 1.235 . S
O160 Fe154 2.002 . S
O160 C161 1.295 . S
C161 O160 1.295 . S
C161 O163 1.236 . S
C162 O167 1.287 . S
C162 O168 1.255 . S
O163 Fe155 1.997 . S
O163 C161 1.236 . S
C164 O170 1.287 . S
C164 O171 1.255 . S
O165 Fe154 1.976 . S
O165 C172 1.287 1_565 S
O166 Fe155 1.996 1_545 S
O166 C172 1.255 . S
O167 Fe157 1.976 . S
O167 C162 1.287 . S
O168 Fe154 1.996 . S
O168 C162 1.255 . S
C169 O173 1.295 . S
C169 O174 1.235 . S
O170 Fe155 1.976 . S
O170 C164 1.287 . S
O171 Fe157 1.996 . S
O171 C164 1.255 . S
C172 O165 1.287 1_545 S
C172 O166 1.255 . S
O173 Fe155 2.002 . S
O173 C169 1.295 . S
O174 Fe157 1.997 . S
O174 C169 1.235 . S
C175 O158 1.295 . S
C175 O159 1.235 . S
Fe176 O178 1.918 . S
Fe176 O181 1.997 . S
Fe176 O182 2.002 . S
Fe176 O187 1.976 . S
Fe176 O190 1.996 . S
Fe177 O178 1.918 . S
Fe177 O185 1.997 . S
Fe177 O188 1.996 1_655 S
Fe177 O192 1.976 . S
Fe177 O195 2.002 . S
O178 Fe176 1.918 . S
O178 Fe177 1.918 . S
O178 Fe179 1.918 . S
Fe179 O178 1.918 . S
Fe179 O180 2.002 . S
Fe179 O189 1.976 . S
Fe179 O193 1.996 . S
Fe179 O196 1.997 . S
O180 Fe179 2.002 . S
O180 C197 1.295 . S
O181 Fe176 1.997 . S
O181 C197 1.235 . S
O182 Fe176 2.002 . S
O182 C183 1.295 . S
C183 O182 1.295 . S
C183 O185 1.236 . S
C184 O189 1.287 . S
C184 O190 1.255 . S
O185 Fe177 1.997 . S
O185 C183 1.236 . S
C186 O192 1.287 . S
C186 O193 1.255 . S
O187 Fe176 1.976 . S
O187 C194 1.287 1_655 S
O188 Fe177 1.996 1_455 S
O188 C194 1.255 . S
O189 Fe179 1.976 . S
O189 C184 1.287 . S
O190 Fe176 1.996 . S
O190 C184 1.255 . S
C191 O195 1.295 . S
C191 O196 1.235 . S
O192 Fe177 1.976 . S
O192 C186 1.287 . S
O193 Fe179 1.996 . S
O193 C186 1.255 . S
C194 O187 1.287 1_455 S
C194 O188 1.255 . S
O195 Fe177 2.002 . S
O195 C191 1.295 . S
O196 Fe179 1.997 . S
O196 C191 1.235 . S
C197 O180 1.295 . S
C197 O181 1.235 . S
Fe198 O200 1.918 . S
Fe198 O203 1.997 . S
Fe198 O204 2.002 . S
Fe198 O209 1.976 . S
Fe198 O212 1.996 . S
Fe199 O200 1.918 . S
Fe199 O207 1.997 . S
Fe199 O210 1.996 . S
Fe199 O214 1.976 . S
Fe199 O217 2.002 . S
O200 Fe198 1.918 . S
O200 Fe199 1.918 . S
O200 Fe201 1.918 . S
Fe201 O200 1.918 . S
Fe201 O202 2.002 . S
Fe201 O211 1.976 . S
Fe201 O215 1.996 1_565 S
Fe201 O218 1.997 . S
O202 Fe201 2.002 . S
O202 C219 1.295 . S
O203 Fe198 1.997 . S
O203 C219 1.235 . S
O204 Fe198 2.002 . S
O204 C205 1.295 . S
C205 O204 1.295 . S
C205 O207 1.235 . S
C206 O211 1.287 . S
C206 O212 1.255 . S
O207 Fe199 1.997 . S
O207 C205 1.235 . S
C208 O214 1.287 1_545 S
C208 O215 1.255 . S
O209 Fe198 1.976 . S
O209 C216 1.287 . S
O210 Fe199 1.996 . S
O210 C216 1.255 . S
O211 Fe201 1.976 . S
O211 C206 1.287 . S
O212 Fe198 1.996 . S
O212 C206 1.255 . S
C213 O217 1.295 . S
C213 O218 1.236 . S
O214 Fe199 1.976 . S
O214 C208 1.287 1_565 S
O215 Fe201 1.996 1_545 S
O215 C208 1.255 . S
C216 O209 1.287 . S
C216 O210 1.255 . S
O217 Fe199 2.002 . S
O217 C213 1.295 . S
O218 Fe201 1.997 . S
O218 C213 1.236 . S
C219 O202 1.295 . S
C219 O203 1.235 . S
Fe220 O222 1.918 . S
Fe220 O225 1.997 . S
Fe220 O226 2.002 . S
Fe220 O231 1.976 . S
Fe220 O234 1.996 . S
Fe221 O222 1.918 . S
Fe221 O229 1.997 . S
Fe221 O232 1.996 . S
Fe221 O236 1.976 . S
Fe221 O239 2.002 . S
O222 Fe220 1.918 . S
O222 Fe221 1.918 . S
O222 Fe223 1.918 . S
Fe223 O222 1.918 . S
Fe223 O224 2.002 . S
Fe223 O233 1.976 . S
Fe223 O237 1.996 1_455 S
Fe223 O240 1.997 . S
O224 Fe223 2.002 . S
O224 C241 1.295 . S
O225 Fe220 1.997 . S
O225 C241 1.235 . S
O226 Fe220 2.002 . S
O226 C227 1.295 . S
C227 O226 1.295 . S
C227 O229 1.235 . S
C228 O233 1.287 . S
C228 O234 1.255 . S
O229 Fe221 1.997 . S
O229 C227 1.235 . S
C230 O236 1.287 1_655 S
C230 O237 1.255 . S
O231 Fe220 1.976 . S
O231 C238 1.287 . S
O232 Fe221 1.996 . S
O232 C238 1.255 . S
O233 Fe223 1.976 . S
O233 C228 1.287 . S
O234 Fe220 1.996 . S
O234 C228 1.255 . S
C235 O239 1.295 . S
C235 O240 1.236 . S
O236 Fe221 1.976 . S
O236 C230 1.287 1_455 S
O237 Fe223 1.996 1_655 S
O237 C230 1.255 . S
C238 O231 1.287 . S
C238 O232 1.255 . S
O239 Fe221 2.002 . S
O239 C235 1.295 . S
O240 Fe223 1.997 . S
O240 C235 1.236 . S
C241 O224 1.295 . S
C241 O225 1.235 . S
Fe242 O244 1.918 . S
Fe242 O247 1.997 . S
Fe242 O248 2.002 . S
Fe242 O253 1.976 . S
Fe242 O256 1.996 . S
Fe243 O244 1.918 . S
Fe243 O251 1.997 . S
Fe243 O254 1.996 1_545 S
Fe243 O258 1.976 . S
Fe243 O261 2.002 . S
O244 Fe242 1.918 . S
O244 Fe243 1.918 . S
O244 Fe245 1.918 . S
Fe245 O244 1.918 . S
Fe245 O246 2.002 . S
Fe245 O255 1.976 . S
Fe245 O259 1.996 . S
Fe245 O262 1.997 . S
O246 Fe245 2.002 . S
O246 C263 1.295 . S
O247 Fe242 1.997 . S
O247 C263 1.235 . S
O248 Fe242 2.002 . S
O248 C249 1.295 . S
C249 O248 1.295 . S
C249 O251 1.236 . S
C250 O255 1.287 . S
C250 O256 1.255 . S
O251 Fe243 1.997 . S
O251 C249 1.236 . S
C252 O258 1.287 . S
C252 O259 1.255 . S
O253 Fe242 1.976 . S
O253 C260 1.287 1_545 S
O254 Fe243 1.996 1_565 S
O254 C260 1.255 . S
O255 Fe245 1.976 . S
O255 C250 1.287 . S
O256 Fe242 1.996 . S
O256 C250 1.255 . S
C257 O261 1.295 . S
C257 O262 1.235 . S
O258 Fe243 1.976 . S
O258 C252 1.287 . S
O259 Fe245 1.996 . S
O259 C252 1.255 . S
C260 O253 1.287 1_565 S
C260 O254 1.255 . S
O261 Fe243 2.002 . S
O261 C257 1.295 . S
O262 Fe245 1.997 . S
O262 C257 1.235 . S
C263 O246 1.295 . S
C263 O247 1.235 . S
Fe264 O266 1.918 . S
Fe264 O269 1.997 . S
Fe264 O270 2.002 . S
Fe264 O275 1.976 . S
Fe264 O278 1.996 . S
Fe265 O266 1.918 . S
Fe265 O273 1.997 . S
Fe265 O276 1.996 1_655 S
Fe265 O280 1.976 . S
Fe265 O283 2.002 . S
O266 Fe264 1.918 . S
O266 Fe265 1.918 . S
O266 Fe267 1.918 . S
Fe267 O266 1.918 . S
Fe267 O268 2.002 . S
Fe267 O277 1.976 . S
Fe267 O281 1.996 . S
Fe267 O284 1.997 . S
O268 Fe267 2.002 . S
O268 C285 1.295 . S
O269 Fe264 1.997 . S
O269 C285 1.235 . S
O270 Fe264 2.002 . S
O270 C271 1.295 . S
C271 O270 1.295 . S
C271 O273 1.236 . S
C272 O277 1.287 . S
C272 O278 1.255 . S
O273 Fe265 1.997 . S
O273 C271 1.236 . S
C274 O280 1.287 . S
C274 O281 1.255 . S
O275 Fe264 1.976 . S
O275 C282 1.287 1_655 S
O276 Fe265 1.996 1_455 S
O276 C282 1.255 . S
O277 Fe267 1.976 . S
O277 C272 1.287 . S
O278 Fe264 1.996 . S
O278 C272 1.255 . S
C279 O283 1.295 . S
C279 O284 1.235 . S
O280 Fe265 1.976 . S
O280 C274 1.287 . S
O281 Fe267 1.996 . S
O281 C274 1.255 . S
C282 O275 1.287 1_455 S
C282 O276 1.255 . S
O283 Fe265 2.002 . S
O283 C279 1.295 . S
O284 Fe267 1.997 . S
O284 C279 1.235 . S
C285 O268 1.295 . S
C285 O269 1.235 . S
Fe286 O288 1.918 . S
Fe286 O291 1.997 . S
Fe286 O292 2.002 . S
Fe286 O297 1.976 . S
Fe286 O300 1.996 . S
Fe287 O288 1.918 . S
Fe287 O295 1.997 . S
Fe287 O298 1.996 1_565 S
Fe287 O302 1.976 . S
Fe287 O305 2.002 . S
O288 Fe286 1.918 . S
O288 Fe287 1.918 . S
O288 Fe289 1.918 . S
Fe289 O288 1.918 . S
Fe289 O290 2.002 . S
Fe289 O299 1.976 . S
Fe289 O303 1.996 . S
Fe289 O306 1.997 . S
O290 Fe289 2.002 . S
O290 C307 1.295 . S
O291 Fe286 1.997 . S
O291 C307 1.235 . S
O292 Fe286 2.002 . S
O292 C293 1.295 . S
C293 O292 1.295 . S
C293 O295 1.236 . S
C294 O299 1.287 . S
C294 O300 1.255 . S
O295 Fe287 1.997 . S
O295 C293 1.236 . S
C296 O302 1.287 . S
C296 O303 1.255 . S
O297 Fe286 1.976 . S
O297 C304 1.287 1_565 S
O298 Fe287 1.996 1_545 S
O298 C304 1.255 . S
O299 Fe289 1.976 . S
O299 C294 1.287 . S
O300 Fe286 1.996 . S
O300 C294 1.255 . S
C301 O305 1.295 . S
C301 O306 1.235 . S
O302 Fe287 1.976 . S
O302 C296 1.287 . S
O303 Fe289 1.996 . S
O303 C296 1.255 . S
C304 O297 1.287 1_545 S
C304 O298 1.255 . S
O305 Fe287 2.002 . S
O305 C301 1.295 . S
O306 Fe289 1.997 . S
O306 C301 1.235 . S
C307 O290 1.295 . S
C307 O291 1.235 . S
Fe308 O310 1.918 . S
Fe308 O313 1.997 . S
Fe308 O314 2.002 . S
Fe308 O319 1.976 . S
Fe308 O322 1.996 . S
Fe309 O310 1.918 . S
Fe309 O317 1.997 . S
Fe309 O320 1.996 1_455 S
Fe309 O324 1.976 . S
Fe309 O327 2.002 . S
O310 Fe308 1.918 . S
O310 Fe309 1.918 . S
O310 Fe311 1.918 . S
Fe311 O310 1.918 . S
Fe311 O312 2.002 . S
Fe311 O321 1.976 . S
Fe311 O325 1.996 . S
Fe311 O328 1.997 . S
O312 Fe311 2.002 . S
O312 C329 1.295 . S
O313 Fe308 1.997 . S
O313 C329 1.235 . S
O314 Fe308 2.002 . S
O314 C315 1.295 . S
C315 O314 1.295 . S
C315 O317 1.236 . S
C316 O321 1.287 . S
C316 O322 1.255 . S
O317 Fe309 1.997 . S
O317 C315 1.236 . S
C318 O324 1.287 . S
C318 O325 1.255 . S
O319 Fe308 1.976 . S
O319 C326 1.287 1_455 S
O320 Fe309 1.996 1_655 S
O320 C326 1.255 . S
O321 Fe311 1.976 . S
O321 C316 1.287 . S
O322 Fe308 1.996 . S
O322 C316 1.255 . S
C323 O327 1.295 . S
C323 O328 1.235 . S
O324 Fe309 1.976 . S
O324 C318 1.287 . S
O325 Fe311 1.996 . S
O325 C318 1.255 . S
C326 O319 1.287 1_655 S
C326 O320 1.255 . S
O327 Fe309 2.002 . S
O327 C323 1.295 . S
O328 Fe311 1.997 . S
O328 C323 1.235 . S
C329 O312 1.295 . S
C329 O313 1.235 . S
Fe330 O332 1.918 . S
Fe330 O335 1.997 . S
Fe330 O336 2.002 . S
Fe330 O341 1.976 . S
Fe330 O344 1.996 1_545 S
Fe331 O332 1.918 . S
Fe331 O339 1.997 . S
Fe331 O342 1.996 . S
Fe331 O346 1.976 . S
Fe331 O349 2.002 . S
O332 Fe330 1.918 . S
O332 Fe331 1.918 . S
O332 Fe333 1.918 . S
Fe333 O332 1.918 . S
Fe333 O334 2.002 . S
Fe333 O343 1.976 . S
Fe333 O347 1.996 . S
Fe333 O350 1.997 . S
O334 Fe333 2.002 . S
O334 C351 1.295 . S
O335 Fe330 1.997 . S
O335 C351 1.236 . S
O336 Fe330 2.002 . S
O336 C337 1.295 . S
C337 O336 1.295 . S
C337 O339 1.235 . S
C338 O343 1.287 1_565 S
C338 O344 1.255 . S
O339 Fe331 1.997 . S
O339 C337 1.235 . S
C340 O346 1.287 . S
C340 O347 1.255 . S
O341 Fe330 1.976 . S
O341 C348 1.287 . S
O342 Fe331 1.996 . S
O342 C348 1.255 . S
O343 Fe333 1.976 . S
O343 C338 1.287 1_545 S
O344 Fe330 1.996 1_565 S
O344 C338 1.255 . S
C345 O349 1.295 . S
C345 O350 1.235 . S
O346 Fe331 1.976 . S
O346 C340 1.287 . S
O347 Fe333 1.996 . S
O347 C340 1.255 . S
C348 O341 1.287 . S
C348 O342 1.255 . S
O349 Fe331 2.002 . S
O349 C345 1.295 . S
O350 Fe333 1.997 . S
O350 C345 1.235 . S
C351 O334 1.295 . S
C351 O335 1.236 . S
C352 C353 1.369 . S
C352 C354 1.419 . S
C352 H356 0.930 . S
C353 C352 1.369 . S
C353 C362 1.429 . S
C354 C352 1.419 . S
C354 C355 1.363 . S
C354 H357 0.929 . S
C355 C354 1.363 . S
C355 C361 1.428 . S
H356 C352 0.930 . S
H357 C354 0.929 . S
S358 N359 1.613 . S
S358 N360 1.610 . S
N359 S358 1.613 . S
N359 C362 1.350 . S
N360 S358 1.610 . S
N360 C361 1.351 . S
C361 C355 1.428 . S
C361 N360 1.351 . S
C361 C362 1.434 . S
C362 C353 1.429 . S
C362 N359 1.350 . S
C362 C361 1.434 . S
C363 C364 1.369 . S
C363 C365 1.419 . S
C363 H367 0.930 . S
C364 C363 1.369 . S
C364 C373 1.429 . S
C365 C363 1.419 . S
C365 C366 1.363 . S
C365 H368 0.929 . S
C366 C365 1.363 . S
C366 C372 1.428 . S
H367 C363 0.930 . S
H368 C365 0.929 . S
S369 N370 1.613 . S
S369 N371 1.610 . S
N370 S369 1.613 . S
N370 C373 1.350 . S
N371 S369 1.610 . S
N371 C372 1.351 . S
C372 C366 1.428 . S
C372 N371 1.351 . S
C372 C373 1.434 . S
C373 C364 1.429 . S
C373 N370 1.350 . S
C373 C372 1.434 . S
C374 C375 1.369 . S
C374 C376 1.419 . S
C374 H378 0.930 . S
C375 C374 1.369 . S
C375 C384 1.429 . S
C376 C374 1.419 . S
C376 C377 1.363 . S
C376 H379 0.929 . S
C377 C376 1.363 . S
C377 C383 1.428 . S
H378 C374 0.930 . S
H379 C376 0.929 . S
S380 N381 1.613 . S
S380 N382 1.610 . S
N381 S380 1.613 . S
N381 C384 1.350 . S
N382 S380 1.610 . S
N382 C383 1.351 . S
C383 C377 1.428 . S
C383 N382 1.351 . S
C383 C384 1.434 . S
C384 C375 1.429 . S
C384 N381 1.350 . S
C384 C383 1.434 . S
C385 C386 1.369 . S
C385 C387 1.419 . S
C385 H389 0.930 . S
C386 C385 1.369 . S
C386 C395 1.429 . S
C387 C385 1.419 . S
C387 C388 1.363 . S
C387 H390 0.929 . S
C388 C387 1.363 . S
C388 C394 1.428 . S
H389 C385 0.930 . S
H390 C387 0.929 . S
S391 N392 1.613 . S
S391 N393 1.610 . S
N392 S391 1.613 . S
N392 C395 1.350 . S
N393 S391 1.610 . S
N393 C394 1.351 . S
C394 C388 1.428 . S
C394 N393 1.351 . S
C394 C395 1.434 . S
C395 C386 1.429 . S
C395 N392 1.350 . S
C395 C394 1.434 . S
C396 C397 1.369 . S
C396 C398 1.419 . S
C396 H400 0.930 . S
C397 C396 1.369 . S
C397 C406 1.429 . S
C398 C396 1.419 . S
C398 C399 1.363 . S
C398 H401 0.929 . S
C399 C398 1.363 . S
C399 C405 1.428 . S
H400 C396 0.930 . S
H401 C398 0.929 . S
S402 N403 1.613 . S
S402 N404 1.610 . S
N403 S402 1.613 . S
N403 C406 1.350 . S
N404 S402 1.610 . S
N404 C405 1.351 . S
C405 C399 1.428 . S
C405 N404 1.351 . S
C405 C406 1.434 . S
C406 C397 1.429 . S
C406 N403 1.350 . S
C406 C405 1.434 . S
C407 C408 1.369 . S
C407 C409 1.419 . S
C407 H411 0.930 . S
C408 C407 1.369 . S
C408 C417 1.429 . S
C409 C407 1.419 . S
C409 C410 1.363 . S
C409 H412 0.929 . S
C410 C409 1.363 . S
C410 C416 1.428 . S
H411 C407 0.930 . S
H412 C409 0.929 . S
S413 N414 1.613 . S
S413 N415 1.610 . S
N414 S413 1.613 . S
N414 C417 1.350 . S
N415 S413 1.610 . S
N415 C416 1.351 . S
C416 C410 1.428 . S
C416 N415 1.351 . S
C416 C417 1.434 . S
C417 C408 1.429 . S
C417 N414 1.350 . S
C417 C416 1.434 . S
C418 C419 1.369 . S
C418 C420 1.419 . S
C418 H422 0.930 . S
C419 C418 1.369 . S
C419 C428 1.429 . S
C420 C418 1.419 . S
C420 C421 1.363 . S
C420 H423 0.929 . S
C421 C420 1.363 . S
C421 C427 1.428 . S
H422 C418 0.930 . S
H423 C420 0.929 . S
S424 N425 1.613 . S
S424 N426 1.610 . S
N425 S424 1.613 . S
N425 C428 1.350 . S
N426 S424 1.610 . S
N426 C427 1.351 . S
C427 C421 1.428 . S
C427 N426 1.351 . S
C427 C428 1.434 . S
C428 C419 1.429 . S
C428 N425 1.350 . S
C428 C427 1.434 . S
C429 C430 1.369 . S
C429 C431 1.419 . S
C429 H433 0.930 . S
C430 C429 1.369 . S
C430 C439 1.429 . S
C431 C429 1.419 . S
C431 C432 1.363 . S
C431 H434 0.929 . S
C432 C431 1.363 . S
C432 C438 1.428 . S
H433 C429 0.930 . S
H434 C431 0.929 . S
S435 N436 1.613 . S
S435 N437 1.610 . S
N436 S435 1.613 . S
N436 C439 1.350 . S
N437 S435 1.610 . S
N437 C438 1.351 . S
C438 C432 1.428 . S
C438 N437 1.351 . S
C438 C439 1.434 . S
C439 C430 1.429 . S
C439 N436 1.350 . S
C439 C438 1.434 . S
C440 C441 1.369 . S
C440 C442 1.419 . S
C440 H444 0.930 . S
C441 C440 1.369 . S
C441 C450 1.429 . S
C442 C440 1.419 . S
C442 C443 1.363 . S
C442 H445 0.929 . S
C443 C442 1.363 . S
C443 C449 1.428 . S
H444 C440 0.930 . S
H445 C442 0.929 . S
S446 N447 1.613 . S
S446 N448 1.610 . S
N447 S446 1.613 . S
N447 C450 1.350 . S
N448 S446 1.610 . S
N448 C449 1.351 . S
C449 C443 1.428 . S
C449 N448 1.351 . S
C449 C450 1.434 . S
C450 C441 1.429 . S
C450 N447 1.350 . S
C450 C449 1.434 . S
C451 C452 1.369 . S
C451 C453 1.419 . S
C451 H455 0.930 . S
C452 C451 1.369 . S
C452 C461 1.429 . S
C453 C451 1.419 . S
C453 C454 1.363 . S
C453 H456 0.929 . S
C454 C453 1.363 . S
C454 C460 1.428 . S
H455 C451 0.930 . S
H456 C453 0.929 . S
S457 N458 1.613 . S
S457 N459 1.610 . S
N458 S457 1.613 . S
N458 C461 1.350 . S
N459 S457 1.610 . S
N459 C460 1.351 . S
C460 C454 1.428 . S
C460 N459 1.351 . S
C460 C461 1.434 . S
C461 C452 1.429 . S
C461 N458 1.350 . S
C461 C460 1.434 . S
C462 C463 1.369 . S
C462 C464 1.419 . S
C462 H466 0.930 . S
C463 C462 1.369 . S
C463 C472 1.429 . S
C464 C462 1.419 . S
C464 C465 1.363 . S
C464 H467 0.929 . S
C465 C464 1.363 . S
C465 C471 1.428 . S
H466 C462 0.930 . S
H467 C464 0.929 . S
S468 N469 1.613 . S
S468 N470 1.610 . S
N469 S468 1.613 . S
N469 C472 1.350 . S
N470 S468 1.610 . S
N470 C471 1.351 . S
C471 C465 1.428 . S
C471 N470 1.351 . S
C471 C472 1.434 . S
C472 C463 1.429 . S
C472 N469 1.350 . S
C472 C471 1.434 . S
C473 C474 1.369 . S
C473 C475 1.419 . S
C473 H477 0.930 . S
C474 C473 1.369 . S
C474 C483 1.429 . S
C475 C473 1.419 . S
C475 C476 1.363 . S
C475 H478 0.929 . S
C476 C475 1.363 . S
C476 C482 1.428 . S
H477 C473 0.930 . S
H478 C475 0.929 . S
S479 N480 1.613 . S
S479 N481 1.610 . S
N480 S479 1.613 . S
N480 C483 1.350 . S
N481 S479 1.610 . S
N481 C482 1.351 . S
C482 C476 1.428 . S
C482 N481 1.351 . S
C482 C483 1.434 . S
C483 C474 1.429 . S
C483 N480 1.350 . S
C483 C482 1.434 . S
C484 C485 1.369 . S
C484 C486 1.419 . S
C484 H488 0.930 . S
C485 C484 1.369 . S
C485 C494 1.429 . S
C486 C484 1.419 . S
C486 C487 1.363 . S
C486 H489 0.929 . S
C487 C486 1.363 . S
C487 C493 1.428 . S
H488 C484 0.930 . S
H489 C486 0.929 . S
S490 N491 1.613 . S
S490 N492 1.610 . S
N491 S490 1.613 . S
N491 C494 1.350 . S
N492 S490 1.610 . S
N492 C493 1.351 . S
C493 C487 1.428 . S
C493 N492 1.351 . S
C493 C494 1.434 . S
C494 C485 1.429 . S
C494 N491 1.350 . S
C494 C493 1.434 . S
C495 C496 1.369 . S
C495 C497 1.419 . S
C495 H499 0.930 . S
C496 C495 1.369 . S
C496 C505 1.429 . S
C497 C495 1.419 . S
C497 C498 1.363 . S
C497 H500 0.929 . S
C498 C497 1.363 . S
C498 C504 1.428 . S
H499 C495 0.930 . S
H500 C497 0.929 . S
S501 N502 1.613 . S
S501 N503 1.610 . S
N502 S501 1.613 . S
N502 C505 1.350 . S
N503 S501 1.610 . S
N503 C504 1.351 . S
C504 C498 1.428 . S
C504 N503 1.351 . S
C504 C505 1.434 . S
C505 C496 1.429 . S
C505 N502 1.350 . S
C505 C504 1.434 . S
C506 C507 1.369 . S
C506 C508 1.419 . S
C506 H510 0.930 . S
C507 C506 1.369 . S
C507 C516 1.429 . S
C508 C506 1.419 . S
C508 C509 1.363 . S
C508 H511 0.929 . S
C509 C508 1.363 . S
C509 C515 1.428 . S
H510 C506 0.930 . S
H511 C508 0.929 . S
S512 N513 1.613 . S
S512 N514 1.610 . S
N513 S512 1.613 . S
N513 C516 1.350 . S
N514 S512 1.610 . S
N514 C515 1.351 . S
C515 C509 1.428 . S
C515 N514 1.351 . S
C515 C516 1.434 . S
C516 C507 1.429 . S
C516 N513 1.350 . S
C516 C515 1.434 . S
C517 C518 1.369 . S
C517 C519 1.419 . S
C517 H521 0.930 . S
C518 C517 1.369 . S
C518 C527 1.429 . S
C519 C517 1.419 . S
C519 C520 1.363 . S
C519 H522 0.929 . S
C520 C519 1.363 . S
C520 C526 1.428 . S
H521 C517 0.930 . S
H522 C519 0.929 . S
S523 N524 1.613 . S
S523 N525 1.610 . S
N524 S523 1.613 . S
N524 C527 1.350 . S
N525 S523 1.610 . S
N525 C526 1.351 . S
C526 C520 1.428 . S
C526 N525 1.351 . S
C526 C527 1.434 . S
C527 C518 1.429 . S
C527 N524 1.350 . S
C527 C526 1.434 . S
C528 C529 1.369 . S
C528 C530 1.419 . S
C528 H532 0.930 . S
C529 C528 1.369 . S
C529 C538 1.429 . S
C530 C528 1.419 . S
C530 C531 1.363 . S
C530 H533 0.929 . S
C531 C530 1.363 . S
C531 C537 1.428 . S
H532 C528 0.930 . S
H533 C530 0.929 . S
S534 N535 1.613 . S
S534 N536 1.610 . S
N535 S534 1.613 . S
N535 C538 1.350 . S
N536 S534 1.610 . S
N536 C537 1.351 . S
C537 C531 1.428 . S
C537 N536 1.351 . S
C537 C538 1.434 . S
C538 C529 1.429 . S
C538 N535 1.350 . S
C538 C537 1.434 . S
C539 C540 1.369 . S
C539 C541 1.419 . S
C539 H543 0.930 . S
C540 C539 1.369 . S
C540 C549 1.429 . S
C541 C539 1.419 . S
C541 C542 1.363 . S
C541 H544 0.929 . S
C542 C541 1.363 . S
C542 C548 1.428 . S
H543 C539 0.930 . S
H544 C541 0.929 . S
S545 N546 1.613 . S
S545 N547 1.610 . S
N546 S545 1.613 . S
N546 C549 1.350 . S
N547 S545 1.610 . S
N547 C548 1.351 . S
C548 C542 1.428 . S
C548 N547 1.351 . S
C548 C549 1.434 . S
C549 C540 1.429 . S
C549 N546 1.350 . S
C549 C548 1.434 . S
C550 C551 1.369 . S
C550 C552 1.419 . S
C550 H554 0.930 . S
C551 C550 1.369 . S
C551 C560 1.429 . S
C552 C550 1.419 . S
C552 C553 1.363 . S
C552 H555 0.929 . S
C553 C552 1.363 . S
C553 C559 1.428 . S
H554 C550 0.930 . S
H555 C552 0.929 . S
S556 N557 1.613 . S
S556 N558 1.610 . S
N557 S556 1.613 . S
N557 C560 1.350 . S
N558 S556 1.610 . S
N558 C559 1.351 . S
C559 C553 1.428 . S
C559 N558 1.351 . S
C559 C560 1.434 . S
C560 C551 1.429 . S
C560 N557 1.350 . S
C560 C559 1.434 . S
C561 C562 1.369 . S
C561 C563 1.419 . S
C561 H565 0.930 . S
C562 C561 1.369 . S
C562 C571 1.429 . S
C563 C561 1.419 . S
C563 C564 1.363 . S
C563 H566 0.929 . S
C564 C563 1.363 . S
C564 C570 1.428 . S
H565 C561 0.930 . S
H566 C563 0.929 . S
S567 N568 1.613 . S
S567 N569 1.610 . S
N568 S567 1.613 . S
N568 C571 1.350 . S
N569 S567 1.610 . S
N569 C570 1.351 . S
C570 C564 1.428 . S
C570 N569 1.351 . S
C570 C571 1.434 . S
C571 C562 1.429 . S
C571 N568 1.350 . S
C571 C570 1.434 . S
C572 C573 1.369 . S
C572 C574 1.419 . S
C572 H576 0.930 . S
C573 C572 1.369 . S
C573 C582 1.429 . S
C574 C572 1.419 . S
C574 C575 1.363 . S
C574 H577 0.929 . S
C575 C574 1.363 . S
C575 C581 1.428 . S
H576 C572 0.930 . S
H577 C574 0.929 . S
S578 N579 1.613 . S
S578 N580 1.610 . S
N579 S578 1.613 . S
N579 C582 1.350 . S
N580 S578 1.610 . S
N580 C581 1.351 . S
C581 C575 1.428 . S
C581 N580 1.351 . S
C581 C582 1.434 . S
C582 C573 1.429 . S
C582 N579 1.350 . S
C582 C581 1.434 . S
C583 C584 1.369 . S
C583 C585 1.419 . S
C583 H587 0.930 . S
C584 C583 1.369 . S
C584 C593 1.429 . S
C585 C583 1.419 . S
C585 C586 1.363 . S
C585 H588 0.929 . S
C586 C585 1.363 . S
C586 C592 1.428 . S
H587 C583 0.930 . S
H588 C585 0.929 . S
S589 N590 1.613 . S
S589 N591 1.610 . S
N590 S589 1.613 . S
N590 C593 1.350 . S
N591 S589 1.610 . S
N591 C592 1.351 . S
C592 C586 1.428 . S
C592 N591 1.351 . S
C592 C593 1.434 . S
C593 C584 1.429 . S
C593 N590 1.350 . S
C593 C592 1.434 . S
C594 C595 1.369 . S
C594 C596 1.419 . S
C594 H598 0.930 . S
C595 C594 1.369 . S
C595 C604 1.429 . S
C596 C594 1.419 . S
C596 C597 1.363 . S
C596 H599 0.929 . S
C597 C596 1.363 . S
C597 C603 1.428 . S
H598 C594 0.930 . S
H599 C596 0.929 . S
S600 N601 1.613 . S
S600 N602 1.610 . S
N601 S600 1.613 . S
N601 C604 1.350 . S
N602 S600 1.610 . S
N602 C603 1.351 . S
C603 C597 1.428 . S
C603 N602 1.351 . S
C603 C604 1.434 . S
C604 C595 1.429 . S
C604 N601 1.350 . S
C604 C603 1.434 . S
C605 C606 1.369 . S
C605 C607 1.419 . S
C605 H609 0.930 . S
C606 C605 1.369 . S
C606 C615 1.429 . S
C607 C605 1.419 . S
C607 C608 1.363 . S
C607 H610 0.929 . S
C608 C607 1.363 . S
C608 C614 1.428 . S
H609 C605 0.930 . S
H610 C607 0.929 . S
S611 N612 1.613 . S
S611 N613 1.610 . S
N612 S611 1.613 . S
N612 C615 1.350 . S
N613 S611 1.610 . S
N613 C614 1.351 . S
C614 C608 1.428 . S
C614 N613 1.351 . S
C614 C615 1.434 . S
C615 C606 1.429 . S
C615 N612 1.350 . S
C615 C614 1.434 . S
C616 C617 1.369 . S
C616 C618 1.419 1_554 S
C616 H620 0.930 . S
C617 C616 1.369 . S
C617 C626 1.429 . S
C618 C616 1.419 1_556 S
C618 C619 1.363 . S
C618 H621 0.929 . S
C619 C618 1.363 . S
C619 C625 1.428 . S
H620 C616 0.930 . S
H621 C618 0.929 . S
S622 N623 1.616 1_556 S
S622 N624 1.608 . S
N623 S622 1.616 1_554 S
N623 C626 1.350 . S
N624 S622 1.608 . S
N624 C625 1.351 . S
C625 C619 1.428 . S
C625 N624 1.351 . S
C625 C626 1.434 1_556 S
C626 C617 1.429 . S
C626 N623 1.350 . S
C626 C625 1.434 1_554 S
C627 C628 1.369 . S
C627 C629 1.419 1_554 S
C627 H631 0.930 . S
C628 C627 1.369 . S
C628 C637 1.429 . S
C629 C627 1.419 1_556 S
C629 C630 1.363 . S
C629 H632 0.929 . S
C630 C629 1.363 . S
C630 C636 1.428 . S
H631 C627 0.930 . S
H632 C629 0.929 . S
S633 N634 1.616 1_556 S
S633 N635 1.608 . S
N634 S633 1.616 1_554 S
N634 C637 1.350 1_565 S
N635 S633 1.608 . S
N635 C636 1.351 1_565 S
C636 C630 1.428 . S
C636 N635 1.351 1_545 S
C636 C637 1.434 1_556 S
C637 C628 1.429 . S
C637 N634 1.350 1_545 S
C637 C636 1.434 1_554 S
C638 C639 1.369 . S
C638 C640 1.419 1_556 S
C638 H642 0.930 . S
C639 C638 1.369 . S
C639 C648 1.429 . S
C640 C638 1.419 1_554 S
C640 C641 1.363 . S
C640 H643 0.929 . S
C641 C640 1.363 . S
C641 C647 1.428 . S
H642 C638 0.930 . S
H643 C640 0.929 . S
S644 N645 1.616 1_454 S
S644 N646 1.608 1_455 S
N645 S644 1.616 1_656 S
N645 C648 1.350 . S
N646 S644 1.608 1_655 S
N646 C647 1.351 . S
C647 C641 1.428 . S
C647 N646 1.351 . S
C647 C648 1.434 1_554 S
C648 C639 1.429 . S
C648 N645 1.350 . S
C648 C647 1.434 1_556 S
C649 C650 1.369 . S
C649 C651 1.419 1_554 S
C649 H653 0.930 . S
C650 C649 1.369 . S
C650 C659 1.429 . S
C651 C649 1.419 1_556 S
C651 C652 1.363 . S
C651 H654 0.929 . S
C652 C651 1.363 . S
C652 C658 1.428 . S
H653 C649 0.930 . S
H654 C651 0.929 . S
S655 N656 1.616 1_546 S
S655 N657 1.608 1_545 S
N656 S655 1.616 1_564 S
N656 C659 1.350 . S
N657 S655 1.608 1_565 S
N657 C658 1.351 . S
C658 C652 1.428 . S
C658 N657 1.351 . S
C658 C659 1.434 1_556 S
C659 C650 1.429 . S
C659 N656 1.350 . S
C659 C658 1.434 1_554 S
C660 C661 1.369 . S
C660 C662 1.419 . S
C660 H664 0.930 . S
C661 C660 1.369 . S
C661 C670 1.429 . S
C662 C660 1.419 . S
C662 C663 1.363 . S
C662 H665 0.929 . S
C663 C662 1.363 . S
C663 C669 1.428 . S
H664 C660 0.930 . S
H665 C662 0.929 . S
S666 N667 1.613 1_655 S
S666 N668 1.610 1_655 S
N667 S666 1.613 1_455 S
N667 C670 1.350 . S
N668 S666 1.610 1_455 S
N668 C669 1.351 . S
C669 C663 1.428 . S
C669 N668 1.351 . S
C669 C670 1.434 . S
C670 C661 1.429 . S
C670 N667 1.350 . S
C670 C669 1.434 . S
C671 C672 1.369 . S
C671 C673 1.419 . S
C671 H675 0.930 . S
C672 C671 1.369 . S
C672 C681 1.429 . S
C673 C671 1.419 . S
C673 C674 1.363 . S
C673 H676 0.929 . S
C674 C673 1.363 . S
C674 C680 1.428 . S
H675 C671 0.930 . S
H676 C673 0.929 . S
S677 N678 1.613 . S
S677 N679 1.610 . S
N678 S677 1.613 . S
N678 C681 1.350 . S
N679 S677 1.610 . S
N679 C680 1.351 . S
C680 C674 1.428 . S
C680 N679 1.351 . S
C680 C681 1.434 . S
C681 C672 1.429 . S
C681 N678 1.350 . S
C681 C680 1.434 . S
C682 C683 1.369 . S
C682 C684 1.419 . S
C682 H686 0.930 . S
C683 C682 1.369 . S
C683 C692 1.429 . S
C684 C682 1.419 . S
C684 C685 1.363 . S
C684 H687 0.929 . S
C685 C684 1.363 . S
C685 C691 1.428 . S
H686 C682 0.930 . S
H687 C684 0.929 . S
S688 N689 1.613 . S
S688 N690 1.610 . S
N689 S688 1.613 . S
N689 C692 1.350 . S
N690 S688 1.610 . S
N690 C691 1.351 . S
C691 C685 1.428 . S
C691 N690 1.351 . S
C691 C692 1.434 . S
C692 C683 1.429 . S
C692 N689 1.350 . S
C692 C691 1.434 . S
C693 C694 1.369 . S
C693 C695 1.419 . S
C693 H697 0.930 . S
C694 C693 1.369 . S
C694 C703 1.429 . S
C695 C693 1.419 . S
C695 C696 1.363 . S
C695 H698 0.929 . S
C696 C695 1.363 . S
C696 C702 1.428 . S
H697 C693 0.930 . S
H698 C695 0.929 . S
S699 N700 1.613 . S
S699 N701 1.610 . S
N700 S699 1.613 . S
N700 C703 1.350 1_545 S
N701 S699 1.610 . S
N701 C702 1.351 1_545 S
C702 C696 1.428 . S
C702 N701 1.351 1_565 S
C702 C703 1.434 . S
C703 C694 1.429 . S
C703 N700 1.350 1_565 S
C703 C702 1.434 . S
C704 C705 1.369 1_455 S
C704 C706 1.419 . S
C704 H708 0.930 . S
C705 C704 1.369 1_655 S
C705 C714 1.429 . S
C706 C704 1.419 . S
C706 C707 1.363 . S
C706 H709 0.929 . S
C707 C706 1.363 . S
C707 C713 1.428 1_455 S
H708 C704 0.930 . S
H709 C706 0.929 . S
S710 N711 1.613 . S
S710 N712 1.610 . S
N711 S710 1.613 . S
N711 C714 1.350 . S
N712 S710 1.610 . S
N712 C713 1.351 . S
C713 C707 1.428 1_655 S
C713 N712 1.351 . S
C713 C714 1.434 . S
C714 C705 1.429 . S
C714 N711 1.350 . S
C714 C713 1.434 . S
C715 C716 1.369 . S
C715 C717 1.419 . S
C715 H719 0.930 . S
C716 C715 1.369 . S
C716 C725 1.429 1_545 S
C717 C715 1.419 . S
C717 C718 1.363 1_545 S
C717 H720 0.929 . S
C718 C717 1.363 1_565 S
C718 C724 1.428 . S
H719 C715 0.930 . S
H720 C717 0.929 . S
S721 N722 1.613 . S
S721 N723 1.610 . S
N722 S721 1.613 . S
N722 C725 1.350 . S
N723 S721 1.610 . S
N723 C724 1.351 . S
C724 C718 1.428 . S
C724 N723 1.351 . S
C724 C725 1.434 . S
C725 C716 1.429 1_565 S
C725 N722 1.350 . S
C725 C724 1.434 . S
C726 C727 1.369 1_455 S
C726 C728 1.419 . S
C726 H730 0.930 . S
C727 C726 1.369 1_655 S
C727 C736 1.429 . S
C728 C726 1.419 . S
C728 C729 1.363 . S
C728 H731 0.929 . S
C729 C728 1.363 . S
C729 C735 1.428 1_455 S
H730 C726 0.930 . S
H731 C728 0.929 . S
S732 N733 1.613 . S
S732 N734 1.611 . S
N733 S732 1.613 . S
N733 C736 1.350 . S
N734 S732 1.611 . S
N734 C735 1.351 . S
C735 C729 1.428 1_655 S
C735 N734 1.351 . S
C735 C736 1.434 . S
C736 C727 1.429 . S
C736 N733 1.350 . S
C736 C735 1.434 . S
C737 C738 1.369 . S
C737 C739 1.419 . S
C737 H741 0.930 . S
C738 C737 1.369 . S
C738 C747 1.429 1_565 S
C739 C737 1.419 . S
C739 C740 1.363 1_565 S
C739 H742 0.929 . S
C740 C739 1.363 1_545 S
C740 C746 1.428 . S
H741 C737 0.930 . S
H742 C739 0.929 . S
S743 N744 1.613 . S
S743 N745 1.610 . S
N744 S743 1.613 . S
N744 C747 1.350 . S
N745 S743 1.610 . S
N745 C746 1.351 . S
C746 C740 1.428 . S
C746 N745 1.351 . S
C746 C747 1.434 . S
C747 C738 1.429 1_545 S
C747 N744 1.350 . S
C747 C746 1.434 . S
C748 C749 1.369 1_455 S
C748 C750 1.419 . S
C748 H752 0.930 . S
C749 C748 1.369 1_655 S
C749 C758 1.429 . S
C750 C748 1.419 . S
C750 C751 1.363 . S
C750 H753 0.929 . S
C751 C750 1.363 . S
C751 C757 1.428 1_455 S
H752 C748 0.930 . S
H753 C750 0.929 . S
S754 N755 1.613 . S
S754 N756 1.610 . S
N755 S754 1.613 . S
N755 C758 1.350 . S
N756 S754 1.610 . S
N756 C757 1.351 . S
C757 C751 1.428 1_655 S
C757 N756 1.351 . S
C757 C758 1.434 . S
C758 C749 1.429 . S
C758 N755 1.350 . S
C758 C757 1.434 . S
C759 C760 1.369 1_545 S
C759 C761 1.419 . S
C759 H763 0.930 . S
C760 C759 1.369 1_565 S
C760 C769 1.429 . S
C761 C759 1.419 . S
C761 C762 1.363 . S
C761 H764 0.929 . S
C762 C761 1.363 . S
C762 C768 1.428 1_545 S
H763 C759 0.930 . S
H764 C761 0.929 . S
S765 N766 1.613 . S
S765 N767 1.610 . S
N766 S765 1.613 . S
N766 C769 1.350 . S
N767 S765 1.610 . S
N767 C768 1.351 . S
C768 C762 1.428 1_565 S
C768 N767 1.351 . S
C768 C769 1.434 . S
C769 C760 1.429 . S
C769 N766 1.350 . S
C769 C768 1.434 . S
C770 C771 1.369 1_655 S
C770 C772 1.419 . S
C770 H774 0.930 . S
C771 C770 1.369 1_455 S
C771 C780 1.429 . S
C772 C770 1.419 . S
C772 C773 1.363 . S
C772 H775 0.929 . S
C773 C772 1.363 . S
C773 C779 1.428 1_655 S
H774 C770 0.930 . S
H775 C772 0.929 . S
S776 N777 1.613 . S
S776 N778 1.610 . S
N777 S776 1.613 . S
N777 C780 1.350 . S
N778 S776 1.610 . S
N778 C779 1.351 . S
C779 C773 1.428 1_455 S
C779 N778 1.351 . S
C779 C780 1.434 . S
C780 C771 1.429 . S
C780 N777 1.350 . S
C780 C779 1.434 . S
C781 C782 1.369 . S
C781 C783 1.419 . S
C781 H785 0.930 . S
C782 C781 1.369 . S
C782 C791 1.429 1_565 S
C783 C781 1.419 . S
C783 C784 1.363 1_565 S
C783 H786 0.929 . S
C784 C783 1.363 1_545 S
C784 C790 1.428 . S
H785 C781 0.930 . S
H786 C783 0.929 . S
S787 N788 1.613 . S
S787 N789 1.610 . S
N788 S787 1.613 . S
N788 C791 1.350 . S
N789 S787 1.610 . S
N789 C790 1.351 . S
C790 C784 1.428 . S
C790 N789 1.351 . S
C790 C791 1.434 . S
C791 C782 1.429 1_545 S
C791 N788 1.350 . S
C791 C790 1.434 . S
C792 C793 1.369 . S
C792 C794 1.419 1_455 S
C792 H796 0.930 . S
C793 C792 1.369 . S
C793 C802 1.429 . S
C794 C792 1.419 1_655 S
C794 C795 1.363 . S
C794 H797 0.929 . S
C795 C794 1.363 . S
C795 C801 1.428 . S
H796 C792 0.930 . S
H797 C794 0.929 . S
S798 N799 1.624 . S
S798 N800 1.610 . S
N799 S798 1.624 . S
N799 C802 1.349 1_655 S
N800 S798 1.610 . S
N800 C801 1.351 . S
C801 C795 1.428 . S
C801 N800 1.351 . S
C801 C802 1.434 1_655 S
C802 C793 1.429 . S
C802 N799 1.349 1_455 S
C802 C801 1.434 1_455 S
C803 C804 1.369 . S
C803 C805 1.419 1_545 S
C803 H807 0.930 . S
C804 C803 1.369 . S
C804 C813 1.429 . S
C805 C803 1.419 1_565 S
C805 C806 1.363 . S
C805 H808 0.929 . S
C806 C805 1.363 . S
C806 C812 1.428 . S
H807 C803 0.930 . S
H808 C805 0.929 . S
S809 N810 1.613 1_565 S
S809 N811 1.610 . S
N810 S809 1.613 1_545 S
N810 C813 1.350 . S
N811 S809 1.610 . S
N811 C812 1.351 . S
C812 C806 1.428 . S
C812 N811 1.351 . S
C812 C813 1.434 1_565 S
C813 C804 1.429 . S
C813 N810 1.350 . S
C813 C812 1.434 1_545 S
C814 C815 1.369 . S
C814 C816 1.419 1_455 S
C814 H818 0.930 . S
C815 C814 1.369 . S
C815 C824 1.429 . S
C816 C814 1.419 1_655 S
C816 C817 1.363 . S
C816 H819 0.929 . S
C817 C816 1.363 . S
C817 C823 1.428 . S
H818 C814 0.930 . S
H819 C816 0.929 . S
S820 N821 1.613 . S
S820 N822 1.610 . S
N821 S820 1.613 . S
N821 C824 1.350 . S
N822 S820 1.610 . S
N822 C823 1.351 1_455 S
C823 C817 1.428 . S
C823 N822 1.351 1_655 S
C823 C824 1.434 1_655 S
C824 C815 1.429 . S
C824 N821 1.350 . S
C824 C823 1.434 1_455 S
C825 C826 1.369 . S
C825 C827 1.419 1_565 S
C825 H829 0.930 . S
C826 C825 1.369 . S
C826 C835 1.429 . S
C827 C825 1.419 1_545 S
C827 C828 1.363 . S
C827 H830 0.929 . S
C828 C827 1.363 . S
C828 C834 1.428 . S
H829 C825 0.930 . S
H830 C827 0.929 . S
S831 N832 1.614 . S
S831 N833 1.609 1_565 S
N832 S831 1.614 . S
N832 C835 1.350 . S
N833 S831 1.609 1_545 S
N833 C834 1.351 . S
C834 C828 1.428 . S
C834 N833 1.351 . S
C834 C835 1.434 1_545 S
C835 C826 1.429 . S
C835 N832 1.350 . S
C835 C834 1.434 1_565 S
C836 C837 1.369 . S
C836 C838 1.419 1_455 S
C836 H840 0.930 . S
C837 C836 1.369 . S
C837 C846 1.429 . S
C838 C836 1.419 1_655 S
C838 C839 1.363 . S
C838 H841 0.929 . S
C839 C838 1.363 . S
C839 C845 1.428 . S
H840 C836 0.930 . S
H841 C838 0.929 . S
S842 N843 1.613 . S
S842 N844 1.610 1_455 S
N843 S842 1.613 . S
N843 C846 1.350 . S
N844 S842 1.610 1_655 S
N844 C845 1.351 . S
C845 C839 1.428 . S
C845 N844 1.351 . S
C845 C846 1.434 1_655 S
C846 C837 1.429 . S
C846 N843 1.350 . S
C846 C845 1.434 1_455 S
C847 C848 1.369 . S
C847 C849 1.419 1_545 S
C847 H851 0.930 . S
C848 C847 1.369 . S
C848 C857 1.429 . S
C849 C847 1.419 1_565 S
C849 C850 1.363 . S
C849 H852 0.929 . S
C850 C849 1.363 . S
C850 C856 1.428 . S
H851 C847 0.930 . S
H852 C849 0.929 . S
S853 N854 1.613 . S
S853 N855 1.610 . S
N854 S853 1.613 . S
N854 C857 1.350 . S
N855 S853 1.610 . S
N855 C856 1.351 1_545 S
C856 C850 1.428 . S
C856 N855 1.351 1_565 S
C856 C857 1.434 1_565 S
C857 C848 1.429 . S
C857 N854 1.350 . S
C857 C856 1.434 1_545 S
C858 C859 1.369 . S
C858 C860 1.419 1_655 S
C858 H862 0.930 . S
C859 C858 1.369 . S
C859 C868 1.429 . S
C860 C858 1.419 1_455 S
C860 C861 1.363 . S
C860 H863 0.929 . S
C861 C860 1.363 . S
C861 C867 1.428 . S
H862 C858 0.930 . S
H863 C860 0.929 . S
S864 N865 1.613 . S
S864 N866 1.610 . S
N865 S864 1.613 . S
N865 C868 1.350 . S
N866 S864 1.610 . S
N866 C867 1.351 1_655 S
C867 C861 1.428 . S
C867 N866 1.351 1_455 S
C867 C868 1.434 1_455 S
C868 C859 1.429 . S
C868 N865 1.350 . S
C868 C867 1.434 1_655 S
C869 C870 1.369 . S
C869 C871 1.419 1_565 S
C869 H873 0.930 . S
C870 C869 1.369 . S
C870 C879 1.429 . S
C871 C869 1.419 1_545 S
C871 C872 1.363 . S
C871 H874 0.929 . S
C872 C871 1.363 . S
C872 C878 1.428 . S
H873 C869 0.930 . S
H874 C871 0.929 . S
S875 N876 1.613 . S
S875 N877 1.610 1_565 S
N876 S875 1.613 . S
N876 C879 1.350 . S
N877 S875 1.610 1_545 S
N877 C878 1.351 . S
C878 C872 1.428 . S
C878 N877 1.351 . S
C878 C879 1.434 1_545 S
C879 C870 1.429 . S
C879 N876 1.350 . S
C879 C878 1.434 1_565 S
C353 C8 1.095 . S
C355 C76 1.116 . S
C364 C18 1.111 . S
C366 C40 1.098 . S
C375 C62 1.103 . S
C377 C32 1.111 . S
C386 C84 1.100 . S
C388 C54 1.111 . S
C397 C120 1.110 . S
C399 C96 1.099 . S
C408 C128 1.100 . S
C410 C150 1.111 . S
C419 C172 1.110 . S
C421 C140 1.103 . S
C430 C106 1.119 . S
C432 C162 1.100 . S
C441 C184 1.102 . S
C443 C260 1.118 . S
C452 C194 1.117 . S
C454 C216 1.104 . S
C463 C208 1.110 . S
C465 C238 1.102 . S
C474 C230 1.119 . S
C476 C250 1.100 . S
C485 C304 1.119 . S
C487 C272 1.101 . S
C496 C326 1.113 . S
C498 C294 1.105 . S
C507 C316 1.103 . S
C509 C338 1.117 . S
C518 C340 1.103 . S
C520 C282 1.111 . S
C529 C21 1.807 . S
C531 C117 1.811 . S
C540 C153 1.813 . S
C542 C29 1.809 . S
C551 C51 1.807 . S
C553 C175 1.807 . S
C562 C73 1.815 . S
C564 C109 1.811 . S
C573 C307 1.806 . S
C575 C197 1.809 . S
C584 C329 1.814 . S
C586 C205 1.811 . S
C595 C227 1.812 . S
C597 C345 1.808 . S
C606 C285 1.813 . S
C608 C263 1.814 . S
C617 C10 1.506 . S
C619 C228 1.505 . S
C628 C30 1.505 . S
C630 C252 1.505 . S
C639 C186 1.506 . S
C641 C52 1.506 . S
C650 C74 1.506 . S
C652 C206 1.506 . S
C661 C98 1.504 . S
C663 C318 1.504 . S
C672 C118 1.504 . S
C674 C348 1.504 . S
C683 C142 1.505 . S
C685 C274 1.505 . S
C694 C296 1.506 . S
C696 C164 1.505 . S
C705 C7 0.791 1_655 S
C707 C139 0.791 1_455 S
C716 C161 0.776 1_545 S
C718 C37 0.791 1_565 S
C727 C95 0.789 1_655 S
C729 C59 0.792 1_455 S
C738 C125 0.787 1_565 S
C740 C81 0.793 1_545 S
C749 C315 0.783 1_655 S
C751 C183 0.779 1_455 S
C760 C351 0.777 1_565 S
C762 C213 0.783 1_545 S
C771 C271 0.796 1_455 S
C773 C235 0.783 1_655 S
C782 C249 0.778 1_565 S
C784 C293 0.792 1_545 S
C793 C15 2.112 . S
C795 C65 2.122 . S
C804 C43 2.114 . S
C806 C87 2.120 . S
C815 C103 2.123 . S
C817 C147 2.114 . S
C826 C169 2.117 . S
C828 C131 2.120 . S
C837 C241 2.122 . S
C839 C191 2.116 . S
C848 C257 2.122 . S
C850 C219 2.113 . S
C859 C279 2.122 . S
C861 C323 2.113 . S
C870 C301 2.116 . S
C872 C337 2.116 . S
