# Generated by pormake.
# Topology yfg, (5)-cn, num edge types: 1
# Building blocks:
#     Node 0, Type 0, BuildingBlock: XOMCOT_clean_sbu_1, # of connection points: 5
#     Node 1, Type 0, BuildingBlock: XOMCOT_clean_sbu_1, # of connection points: 5
#     Node 2, Type 0, BuildingBlock: XOMCOT_clean_sbu_1, # of connection points: 5
#     Node 3, Type 0, BuildingBlock: XOMCOT_clean_sbu_1, # of connection points: 5
#     Node 4, Type 0, BuildingBlock: XOMCOT_clean_sbu_1, # of connection points: 5
#     Node 5, Type 0, BuildingBlock: XOMCOT_clean_sbu_1, # of connection points: 5
#     Node 6, Type 0, BuildingBlock: XOMCOT_clean_sbu_1, # of connection points: 5
#     Node 7, Type 0, BuildingBlock: XOMCOT_clean_sbu_1, # of connection points: 5
#     Edge 8, Type (0, 0), BuildingBlock: XUDNAN_clean_linker_2, # of connection points: 2
#     Edge 9, Type (0, 0), BuildingBlock: XUDNAN_clean_linker_2, # of connection points: 2
#     Edge 10, Type (0, 0), BuildingBlock: XUDNAN_clean_linker_2, # of connection points: 2
#     Edge 11, Type (0, 0), BuildingBlock: XUDNAN_clean_linker_2, # of connection points: 2
#     Edge 12, Type (0, 0), BuildingBlock: XUDNAN_clean_linker_2, # of connection points: 2
#     Edge 13, Type (0, 0), BuildingBlock: XUDNAN_clean_linker_2, # of connection points: 2
#     Edge 14, Type (0, 0), BuildingBlock: XUDNAN_clean_linker_2, # of connection points: 2
#     Edge 15, Type (0, 0), BuildingBlock: XUDNAN_clean_linker_2, # of connection points: 2
#     Edge 16, Type (0, 0), BuildingBlock: XUDNAN_clean_linker_2, # of connection points: 2
#     Edge 17, Type (0, 0), BuildingBlock: XUDNAN_clean_linker_2, # of connection points: 2
#     Edge 18, Type (0, 0), BuildingBlock: XUDNAN_clean_linker_2, # of connection points: 2
#     Edge 19, Type (0, 0), BuildingBlock: XUDNAN_clean_linker_2, # of connection points: 2
#     Edge 20, Type (0, 0), BuildingBlock: XUDNAN_clean_linker_2, # of connection points: 2
#     Edge 21, Type (0, 0), BuildingBlock: XUDNAN_clean_linker_2, # of connection points: 2
#     Edge 22, Type (0, 0), BuildingBlock: XUDNAN_clean_linker_2, # of connection points: 2
#     Edge 23, Type (0, 0), BuildingBlock: XUDNAN_clean_linker_2, # of connection points: 2
#     Edge 24, Type (0, 0), BuildingBlock: XUDNAN_clean_linker_2, # of connection points: 2
#     Edge 25, Type (0, 0), BuildingBlock: XUDNAN_clean_linker_2, # of connection points: 2
#     Edge 26, Type (0, 0), BuildingBlock: XUDNAN_clean_linker_2, # of connection points: 2
#     Edge 27, Type (0, 0), BuildingBlock: XUDNAN_clean_linker_2, # of connection points: 2
# Relax obj value: 0.434
# Max RMSD: 0.202
# Mean RMSD: 0.202
data_MOF--net-yfg--node1-XOMCOT_clean_sbu_1--edge1-XUDNAN_clean_linker_2
_symmetry_space_group_name_H-M    P1
_symmetry_Int_Tables_number       1
_symmetry_cell_setting            triclinic
loop_
_symmetry_equiv_pos_as_xyz
'x, y, z'
_cell_length_a     35.356638
_cell_length_b     35.428585
_cell_length_c     39.574268
_cell_angle_alpha  90.194224
_cell_angle_beta   89.792537
_cell_angle_gamma 89.983506
loop_
_atom_site_label
_atom_site_type_symbol
_atom_site_fract_x
_atom_site_fract_y
_atom_site_fract_z
_atom_type_partial_charge
C0 C 0.19361 0.51378 0.07421 0.0
C1 C 0.18672 0.51825 0.1083 0.0
N2 N 0.21995 0.51571 0.12469 0.0
N3 N 0.23092 0.50783 0.06936 0.0
C4 C 0.24616 0.5093 0.10055 0.0
H5 H 0.17291 0.51559 0.05422 0.0
Co6 Co 0.25757 0.50351 0.02889 0.0
C7 C 0.32528 0.46428 0.05265 0.0
O8 O 0.34578 0.49097 0.03866 0.0
N9 N 0.28466 0.50017 0.98838 0.0
C10 C 0.32141 0.48067 0.94614 0.0
C11 C 0.29895 0.46935 0.97282 0.0
C12 C 0.29782 0.52967 0.97026 0.0
N13 N 0.32063 0.51867 0.94467 0.0
O14 O 0.29075 0.54167 0.04456 0.0
H15 H 0.29476 0.44066 0.98129 0.0
H16 H 0.29259 0.55886 0.97686 0.0
O17 O 0.28932 0.46475 0.04937 0.0
C18 C 0.27719 0.57488 0.04533 0.0
O19 O 0.24376 0.58091 0.03195 0.0
N20 N 0.22249 0.46799 0.0136 0.0
C21 C 0.1509 0.43703 0.00414 0.0
C22 C 0.17616 0.42091 0.02732 0.0
C23 C 0.21208 0.4369 0.03172 0.0
C24 C 0.19994 0.48143 0.98858 0.0
C25 C 0.1641 0.46617 0.98324 0.0
H26 H 0.22952 0.42704 0.05225 0.0
H27 H 0.20818 0.50659 0.97501 0.0
H28 H 0.27614 0.50641 0.10538 0.0
H29 H 0.15963 0.52423 0.11999 0.0
H30 H 0.33787 0.46246 0.92971 0.0
H31 H 0.16709 0.39856 0.04409 0.0
H32 H 0.1458 0.47902 0.96463 0.0
C33 C 0.50647 0.19471 0.33178 0.0
C34 C 0.5089 0.18543 0.36545 0.0
N35 N 0.52153 0.21588 0.38261 0.0
N36 N 0.51813 0.23062 0.32765 0.0
C37 C 0.5266 0.24285 0.359 0.0
H38 H 0.49651 0.17663 0.31159 0.0
Co39 Co 0.51768 0.25921 0.28824 0.0
C40 C 0.59567 0.2935 0.29957 0.0
O41 O 0.61262 0.2738 0.27578 0.0
N42 N 0.51522 0.2888 0.24876 0.0
C43 C 0.52515 0.32235 0.2021 0.0
C44 C 0.54214 0.30363 0.2285 0.0
C45 C 0.48229 0.29872 0.23394 0.0
N46 N 0.48734 0.31923 0.20553 0.0
O47 O 0.48401 0.29371 0.31017 0.0
H48 H 0.57216 0.30056 0.23188 0.0
H49 H 0.45496 0.2909 0.24391 0.0
O50 O 0.56036 0.28917 0.30519 0.0
C51 C 0.45072 0.28023 0.31249 0.0
O52 O 0.44389 0.24715 0.29864 0.0
N53 N 0.54823 0.22206 0.26615 0.0
C54 C 0.55924 0.14674 0.24713 0.0
C55 C 0.57953 0.16228 0.27429 0.0
C56 C 0.57411 0.20045 0.28307 0.0
C57 C 0.53264 0.20859 0.237 0.0
C58 C 0.53868 0.17149 0.22658 0.0
H59 H 0.58628 0.21067 0.3064 0.0
H60 H 0.51147 0.22464 0.22374 0.0
H61 H 0.53459 0.27165 0.36445 0.0
H62 H 0.50161 0.15841 0.37631 0.0
H63 H 0.53971 0.33638 0.18159 0.0
H64 H 0.59601 0.14441 0.29078 0.0
H65 H 0.52355 0.16115 0.20467 0.0
C66 C 0.81769 0.48438 0.58609 0.0
C67 C 0.82905 0.48675 0.61917 0.0
N68 N 0.80006 0.50054 0.6375 0.0
N69 N 0.78199 0.49745 0.58354 0.0
C70 C 0.77174 0.50673 0.61547 0.0
H71 H 0.8347 0.47487 0.56494 0.0
Co72 Co 0.75662 0.50128 0.54259 0.0
C73 C 0.71381 0.57443 0.56183 0.0
O74 O 0.73327 0.5985 0.54359 0.0
N75 N 0.73107 0.50341 0.50091 0.0
C76 C 0.7086 0.52099 0.45087 0.0
C77 C 0.72444 0.53335 0.48074 0.0
C78 C 0.71859 0.47333 0.48287 0.0
N79 N 0.70473 0.48325 0.45245 0.0
O80 O 0.72218 0.46406 0.55792 0.0
H81 H 0.7323 0.56209 0.48654 0.0
H82 H 0.7214 0.44437 0.49097 0.0
O83 O 0.72224 0.53933 0.5616 0.0
C84 C 0.73504 0.43054 0.55775 0.0
O85 O 0.76871 0.42429 0.5447 0.0
N86 N 0.79368 0.53615 0.52765 0.0
C87 C 0.86632 0.56477 0.51526 0.0
C88 C 0.84399 0.57921 0.54174 0.0
C89 C 0.80788 0.56422 0.54775 0.0
C90 C 0.81407 0.5236 0.50051 0.0
C91 C 0.85021 0.53771 0.49372 0.0
H92 H 0.79325 0.57233 0.57067 0.0
H93 H 0.80381 0.50004 0.48572 0.0
H94 H 0.74473 0.51903 0.62228 0.0
H95 H 0.8567 0.47971 0.62898 0.0
H96 H 0.70139 0.53824 0.4293 0.0
H97 H 0.8555 0.59953 0.55943 0.0
H98 H 0.86629 0.52584 0.4729 0.0
C99 C 0.5409 0.81786 0.83123 0.0
C100 C 0.54189 0.83122 0.86372 0.0
N101 N 0.52163 0.80776 0.88347 0.0
N102 N 0.52016 0.78605 0.83021 0.0
C103 C 0.50895 0.78023 0.86257 0.0
H104 H 0.55398 0.83079 0.8094 0.0
Co105 Co 0.51188 0.76211 0.78902 0.0
C106 C 0.4396 0.71853 0.81025 0.0
O107 O 0.41416 0.73647 0.79231 0.0
N108 N 0.50586 0.7383 0.74683 0.0
C109 C 0.48474 0.70741 0.7016 0.0
C110 C 0.47454 0.72899 0.72928 0.0
C111 C 0.53471 0.72326 0.7286 0.0
N112 N 0.52267 0.70385 0.70129 0.0
O113 O 0.54757 0.72496 0.8009 0.0
H114 H 0.44606 0.73665 0.7363 0.0
H115 H 0.56405 0.72489 0.73608 0.0
O116 O 0.47435 0.72839 0.80921 0.0
C117 C 0.5829 0.72971 0.8046 0.0
O118 O 0.59803 0.76295 0.79888 0.0
N119 N 0.4771 0.80039 0.77804 0.0
C120 C 0.44559 0.87287 0.7744 0.0
C121 C 0.43203 0.84625 0.79772 0.0
C122 C 0.44891 0.81076 0.79983 0.0
C123 C 0.4884 0.82446 0.75316 0.0
C124 C 0.47313 0.8609 0.75093 0.0
H125 H 0.44183 0.79337 0.82124 0.0
H126 H 0.51197 0.81677 0.73704 0.0
H127 H 0.49081 0.75725 0.87041 0.0
H128 H 0.55624 0.85653 0.87212 0.0
H129 H 0.46571 0.69476 0.68344 0.0
H130 H 0.41038 0.85357 0.81601 0.0
H131 H 0.4851 0.88028 0.73272 0.0
C132 C 0.19348 0.50668 0.42078 0.0
C133 C 0.18677 0.51048 0.38676 0.0
N134 N 0.21979 0.51853 0.37115 0.0
N135 N 0.23045 0.51284 0.42677 0.0
C136 C 0.24577 0.51967 0.39611 0.0
H137 H 0.17279 0.4995 0.4399 0.0
Co138 Co 0.25524 0.50877 0.46806 0.0
C139 C 0.30065 0.58195 0.46547 0.0
O140 O 0.2879 0.59554 0.49419 0.0
N141 N 0.28051 0.50306 0.51019 0.0
C142 C 0.30134 0.50904 0.56317 0.0
C143 C 0.28213 0.52642 0.53726 0.0
C144 C 0.29824 0.47132 0.52087 0.0
N145 N 0.31132 0.47423 0.55283 0.0
O146 O 0.29012 0.47464 0.44742 0.0
H147 H 0.26826 0.55347 0.53916 0.0
H148 H 0.30101 0.44601 0.50581 0.0
O149 O 0.28893 0.55011 0.45456 0.0
C150 C 0.27646 0.44201 0.44184 0.0
O151 O 0.24185 0.43476 0.45219 0.0
N152 N 0.21817 0.54018 0.48781 0.0
C153 C 0.14519 0.56609 0.50262 0.0
C154 C 0.16948 0.58712 0.48168 0.0
C155 C 0.20594 0.5735 0.47435 0.0
C156 C 0.19597 0.52102 0.51015 0.0
C157 C 0.15963 0.53362 0.51813 0.0
H158 H 0.22252 0.58753 0.45515 0.0
H159 H 0.20516 0.49389 0.51953 0.0
H160 H 0.27575 0.52383 0.39216 0.0
H161 H 0.15959 0.50735 0.37463 0.0
H162 H 0.30586 0.52043 0.58825 0.0
H163 H 0.15936 0.61207 0.46883 0.0
H164 H 0.14212 0.51672 0.53473 0.0
C165 C 0.51229 0.18436 0.67934 0.0
C166 C 0.51501 0.17688 0.64519 0.0
N167 N 0.51287 0.20992 0.6286 0.0
N168 N 0.50782 0.22186 0.68394 0.0
C169 C 0.5082 0.23656 0.65258 0.0
H170 H 0.51492 0.16401 0.69952 0.0
Co171 Co 0.50836 0.24961 0.72391 0.0
C172 C 0.46613 0.31661 0.70208 0.0
O173 O 0.4934 0.33783 0.7142 0.0
N174 N 0.51031 0.27753 0.76394 0.0
C175 C 0.49909 0.31116 0.81038 0.0
C176 C 0.48279 0.29319 0.78303 0.0
C177 C 0.54274 0.2858 0.78026 0.0
N178 N 0.53693 0.30641 0.80857 0.0
O179 O 0.54489 0.28223 0.70417 0.0
H180 H 0.45291 0.29168 0.7774 0.0
H181 H 0.57027 0.27723 0.7711 0.0
O182 O 0.46745 0.28084 0.70613 0.0
C183 C 0.57772 0.26818 0.7003 0.0
O184 O 0.58457 0.23438 0.71244 0.0
N185 N 0.47451 0.21536 0.7434 0.0
C186 C 0.44165 0.14747 0.76316 0.0
C187 C 0.42548 0.16898 0.73723 0.0
C188 C 0.44212 0.20338 0.72797 0.0
C189 C 0.48933 0.19575 0.76977 0.0
C190 C 0.47298 0.16202 0.78041 0.0
H191 H 0.43121 0.21837 0.70634 0.0
H192 H 0.51574 0.20471 0.78091 0.0
H193 H 0.5067 0.26653 0.64749 0.0
H194 H 0.52031 0.14966 0.6336 0.0
H195 H 0.48413 0.32621 0.83016 0.0
H196 H 0.40138 0.15846 0.72325 0.0
H197 H 0.48659 0.14597 0.8002 0.0
C198 C 0.83428 0.50562 0.93496 0.0
C199 C 0.8458 0.50942 0.90204 0.0
N200 N 0.81542 0.50533 0.8819 0.0
N201 N 0.79682 0.49855 0.93579 0.0
C202 C 0.7861 0.49827 0.90298 0.0
H203 H 0.85181 0.50991 0.95695 0.0
Co204 Co 0.76738 0.50017 0.975 0.0
C205 C 0.70112 0.4561 0.9563 0.0
O206 O 0.68062 0.48366 0.96905 0.0
N207 N 0.73848 0.50382 0.0145 0.0
C208 C 0.70506 0.49435 0.06136 0.0
C209 C 0.72555 0.47713 0.03582 0.0
C210 C 0.72615 0.53679 0.02777 0.0
N211 N 0.70545 0.53201 0.05622 0.0
O212 O 0.73356 0.53294 0.9528 0.0
H213 H 0.73049 0.44717 0.03284 0.0
H214 H 0.73175 0.56384 0.01622 0.0
O215 O 0.73722 0.4575 0.95851 0.0
C216 C 0.74072 0.56622 0.94294 0.0
O217 O 0.77329 0.58188 0.95055 0.0
N218 N 0.80222 0.46861 0.99655 0.0
C219 C 0.87276 0.43933 0.01345 0.0
C220 C 0.84865 0.41946 0.99157 0.0
C221 C 0.81328 0.43465 0.98338 0.0
C222 C 0.82341 0.48616 0.02058 0.0
C223 C 0.85876 0.47187 0.02954 0.0
H224 H 0.79693 0.42128 0.96367 0.0
H225 H 0.81463 0.51337 0.03029 0.0
H226 H 0.75694 0.49608 0.89493 0.0
H227 H 0.87414 0.51634 0.89369 0.0
H228 H 0.69124 0.48016 0.08218 0.0
H229 H 0.85835 0.39438 0.97843 0.0
H230 H 0.87615 0.48775 0.04701 0.0
C231 C 0.46812 0.81698 0.18183 0.0
C232 C 0.46699 0.83191 0.14996 0.0
N233 N 0.4849 0.80808 0.12861 0.0
N234 N 0.48673 0.78385 0.18088 0.0
C235 C 0.49641 0.77887 0.14802 0.0
H236 H 0.45608 0.82941 0.20444 0.0
Co237 Co 0.49322 0.75479 0.21951 0.0
C238 C 0.53882 0.69182 0.19517 0.0
O239 O 0.51355 0.66969 0.20933 0.0
N240 N 0.49806 0.72607 0.259 0.0
C241 C 0.5196 0.70006 0.30621 0.0
C242 C 0.52962 0.71808 0.27666 0.0
C243 C 0.46935 0.7124 0.2781 0.0
N244 N 0.48167 0.6964 0.30694 0.0
O245 O 0.45853 0.71934 0.20152 0.0
H246 H 0.55792 0.7261 0.26912 0.0
H247 H 0.43979 0.71586 0.27192 0.0
O248 O 0.53546 0.72768 0.19812 0.0
C249 C 0.42399 0.72917 0.20287 0.0
O250 O 0.41492 0.76028 0.21918 0.0
N251 N 0.52497 0.79244 0.23716 0.0
C252 C 0.54341 0.86777 0.24874 0.0
C253 C 0.56316 0.8467 0.22429 0.0
C254 C 0.55355 0.80866 0.21891 0.0
C255 C 0.50894 0.81123 0.26365 0.0
C256 C 0.518 0.84886 0.27006 0.0
H257 H 0.5654 0.79406 0.1973 0.0
H258 H 0.48557 0.7986 0.27722 0.0
H259 H 0.51193 0.75466 0.13862 0.0
H260 H 0.45354 0.8582 0.14304 0.0
H261 H 0.53862 0.6911 0.32601 0.0
H262 H 0.58259 0.86046 0.20706 0.0
H263 H 0.50209 0.86423 0.28909 0.0
H264 H 0.17386 0.49552 0.31974 0.0
H265 H 0.28055 0.55173 0.34047 0.0
H266 H 0.29229 0.55737 0.27931 0.0
H267 H 0.20416 0.44299 0.24829 0.0
H268 H 0.16037 0.44859 0.22566 0.0
H269 H 0.16038 0.44914 0.27115 0.0
H270 H 0.12739 0.51449 0.27108 0.0
H271 H 0.12717 0.51412 0.22557 0.0
H272 H 0.1485 0.55295 0.24803 0.0
H273 H 0.29303 0.55523 0.21532 0.0
H274 H 0.28147 0.54748 0.15408 0.0
H275 H 0.17338 0.49497 0.17582 0.0
C276 C 0.19952 0.50948 0.3117 0.0
C277 C 0.22629 0.523 0.3353 0.0
C278 C 0.25976 0.54055 0.32316 0.0
C279 C 0.26662 0.54412 0.28836 0.0
C280 C 0.23965 0.53025 0.26593 0.0
C281 C 0.20667 0.51352 0.27715 0.0
C282 C 0.18215 0.5009 0.24795 0.0
C283 C 0.17645 0.45785 0.2483 0.0
C284 C 0.14405 0.52188 0.24818 0.0
C285 C 0.20656 0.51298 0.21846 0.0
C286 C 0.2397 0.52972 0.22931 0.0
C287 C 0.26712 0.54227 0.20657 0.0
C288 C 0.26043 0.53754 0.17188 0.0
C289 C 0.22651 0.52062 0.1603 0.0
C290 C 0.19929 0.50841 0.18399 0.0
H291 H 0.49201 0.17105 0.43222 0.0
H292 H 0.56257 0.26975 0.41552 0.0
H293 H 0.56809 0.27865 0.47689 0.0
H294 H 0.44205 0.20556 0.50347 0.0
H295 H 0.44139 0.16101 0.52532 0.0
H296 H 0.4432 0.16195 0.47986 0.0
H297 H 0.50392 0.12097 0.48048 0.0
H298 H 0.50221 0.11971 0.52597 0.0
H299 H 0.54416 0.13637 0.50474 0.0
H300 H 0.56369 0.27862 0.54011 0.0
H301 H 0.55256 0.26727 0.60092 0.0
H302 H 0.48786 0.16694 0.5766 0.0
C303 C 0.50908 0.19426 0.44124 0.0
C304 C 0.52648 0.21987 0.41866 0.0
C305 C 0.54823 0.2501 0.43199 0.0
C306 C 0.55179 0.2553 0.46694 0.0
C307 C 0.53386 0.2298 0.48833 0.0
C308 C 0.51326 0.19967 0.47604 0.0
C309 C 0.49676 0.17633 0.50449 0.0
C310 C 0.45327 0.17623 0.5032 0.0
C311 C 0.51273 0.13596 0.50388 0.0
C312 C 0.51105 0.19828 0.53473 0.0
C313 C 0.53224 0.22914 0.52483 0.0
C314 C 0.54735 0.25443 0.54817 0.0
C315 C 0.54067 0.24792 0.58257 0.0
C316 C 0.51933 0.21626 0.59324 0.0
C317 C 0.50457 0.19108 0.56899 0.0
H318 H 0.75825 0.47232 0.68913 0.0
H319 H 0.84718 0.55139 0.66412 0.0
H320 H 0.85626 0.5656 0.72481 0.0
H321 H 0.72046 0.52378 0.76492 0.0
H322 H 0.71243 0.4808 0.7881 0.0
H323 H 0.70897 0.48083 0.74266 0.0
H324 H 0.75834 0.42692 0.73936 0.0
H325 H 0.76213 0.42689 0.7847 0.0
H326 H 0.80385 0.4332 0.75902 0.0
H327 H 0.85983 0.56706 0.7869 0.0
H328 H 0.85878 0.5555 0.84806 0.0
H329 H 0.76893 0.4734 0.8348 0.0
C330 C 0.77877 0.49335 0.69669 0.0
C331 C 0.80175 0.51136 0.67236 0.0
C332 C 0.82926 0.53782 0.6827 0.0
C333 C 0.83447 0.54603 0.71697 0.0
C334 C 0.81203 0.52728 0.74055 0.0
C335 C 0.78467 0.50151 0.73103 0.0
C336 C 0.76696 0.48292 0.76181 0.0
C337 C 0.72469 0.49268 0.76453 0.0
C338 C 0.77321 0.43994 0.76117 0.0
C339 C 0.78939 0.50158 0.78994 0.0
C340 C 0.81482 0.52739 0.77694 0.0
C341 C 0.83991 0.54708 0.79744 0.0
C342 C 0.83935 0.54 0.83215 0.0
C343 C 0.81407 0.51323 0.84621 0.0
C344 C 0.78834 0.49421 0.82479 0.0
H345 H 0.51252 0.7543 0.93283 0.0
H346 H 0.51193 0.87496 0.91426 0.0
H347 H 0.50312 0.88707 0.97491 0.0
H348 H 0.44071 0.75622 1.00031 0.0
H349 H 0.46354 0.72019 0.02499 0.0
H350 H 0.46873 0.72034 0.97967 0.0
H351 H 0.54157 0.72123 0.98621 0.0
H352 H 0.53659 0.72142 0.03153 0.0
H353 H 0.56343 0.75801 0.01093 0.0
H354 H 0.49733 0.88723 0.03656 0.0
H355 H 0.49087 0.87545 0.09734 0.0
H356 H 0.49314 0.75459 0.07868 0.0
C357 C 0.51003 0.78316 0.94162 0.0
C358 C 0.51336 0.81374 0.91881 0.0
C359 C 0.51023 0.85115 0.93126 0.0
C360 C 0.50503 0.85834 0.96568 0.0
C361 C 0.50282 0.82782 0.98757 0.0
C362 C 0.50487 0.79094 0.97625 0.0
C363 C 0.50196 0.76364 0.00577 0.0
C364 C 0.46663 0.73862 1.00248 0.0
C365 C 0.53804 0.73966 0.00878 0.0
C366 C 0.49822 0.79112 0.03523 0.0
C367 C 0.49884 0.82792 0.02388 0.0
C368 C 0.49634 0.85854 0.04582 0.0
C369 C 0.49247 0.85151 0.08036 0.0
C370 C 0.49093 0.81412 0.09292 0.0
C371 C 0.49431 0.78348 0.06994 0.0
H372 H 0.09213 0.48675 1.00295 0.0
H373 H 0.11663 0.36704 0.00931 0.0
H374 H 0.04786 0.3537 0.01396 0.0
H375 H 0.01665 0.48798 0.06243 0.0
H376 H 0.98956 0.52266 0.0397 0.0
H377 H 0.04035 0.52221 0.03623 0.0
H378 H 0.03549 0.51672 0.97103 0.0
H379 H 0.9847 0.51761 0.97427 0.0
H380 H 1.00791 0.47912 0.9527 0.0
H381 H 0.97493 0.35437 0.01703 0.0
H382 H 0.90627 0.36899 0.01862 0.0
H383 H 0.93211 0.48831 0.01067 0.0
C384 C 0.08315 0.4576 0.00469 0.0
C385 C 0.10979 0.42786 0.00521 0.0
C386 C 0.09672 0.39025 0.00871 0.0
C387 C 0.05774 0.38245 0.01134 0.0
C388 C 0.03228 0.41261 0.01075 0.0
C389 C 0.04465 0.44942 0.00753 0.0
C390 C 0.01206 0.47704 0.00799 0.0
C391 C 0.01484 0.50405 0.0384 0.0
C392 C 0.00992 0.49889 0.9745 0.0
C393 C 0.9792 0.45014 0.01183 0.0
C394 C 0.99117 0.41305 0.01334 0.0
C395 C 0.96536 0.38337 0.01603 0.0
C396 C 0.92644 0.3919 0.0169 0.0
C397 C 0.91375 0.42982 0.01533 0.0
C398 C 0.94075 0.45909 0.01289 0.0
H399 H 0.61003 0.08636 0.25466 0.0
H400 H 0.49203 0.11258 0.23493 0.0
H401 H 0.47742 0.04531 0.23164 0.0
H402 H 0.615 1.00294 0.19943 0.0
H403 H 0.64453 0.97625 0.22769 0.0
H404 H 0.64722 0.02706 0.22733 0.0
H405 H 0.63326 0.02869 0.29157 0.0
H406 H 0.63045 0.97791 0.29211 0.0
H407 H 0.59139 1.0058 0.30763 0.0
H408 H 0.47342 0.97684 0.23242 0.0
H409 H 0.48076 0.90803 0.23641 0.0
H410 H 0.60084 0.9217 0.25533 0.0
C411 C 0.58125 0.07785 0.24937 0.0
C412 C 0.55246 0.10518 0.24414 0.0
C413 C 0.51501 0.09264 0.23781 0.0
C414 C 0.50621 0.0543 0.23621 0.0
C415 C 0.535 0.02828 0.24114 0.0
C416 C 0.5718 0.03917 0.24753 0.0
C417 C 0.5968 1.00453 0.25243 0.0
C418 C 0.62772 1.00259 0.22509 0.0
C419 C 0.61399 1.00423 0.28806 0.0
C420 C 0.56805 0.97284 0.24806 0.0
C421 C 0.53263 0.98761 0.24164 0.0
C422 C 0.50098 0.96483 0.23739 0.0
C423 C 0.50541 0.92579 0.23988 0.0
C424 C 0.54121 0.90958 0.24651 0.0
C425 C 0.57315 0.93341 0.25028 0.0
H426 H 0.08601 0.51666 0.4985 0.0
H427 H 0.11096 0.63561 0.51171 0.0
H428 H 0.04218 0.64921 0.5154 0.0
H429 H 1.00404 0.52854 0.44677 0.0
H430 H 0.9792 0.48914 0.4651 0.0
H431 H 0.03012 0.48926 0.46377 0.0
H432 H 0.03234 0.4796 0.52863 0.0
H433 H 0.98144 0.47922 0.53013 0.0
H434 H 1.0075 0.51211 0.55595 0.0
H435 H 0.96933 0.64872 0.51939 0.0
H436 H 0.90064 0.63452 0.52129 0.0
H437 H 0.92522 0.51599 0.50451 0.0
C438 C 0.07714 0.54558 0.50259 0.0
C439 C 0.10399 0.57503 0.50528 0.0
C440 C 0.09096 0.61258 0.50963 0.0
C441 C 0.05195 0.62052 0.51183 0.0
C442 C 0.02629 0.59066 0.50926 0.0
C443 C 0.03852 0.55396 0.50457 0.0
C444 C 1.00559 0.52679 0.50216 0.0
C445 C 1.0047 0.5073 0.46738 0.0
C446 C 1.0068 0.49773 0.53093 0.0
C447 C 0.97273 0.55378 0.50643 0.0
C448 C 0.98505 0.59052 0.51061 0.0
C449 C 0.95949 0.62005 0.51591 0.0
C450 C 0.92053 0.61173 0.51703 0.0
C451 C 0.90739 0.57424 0.51258 0.0
C452 C 0.93412 0.54509 0.50718 0.0
H453 H 0.4364 0.08921 0.71793 0.0
H454 H 0.42259 0.11687 0.824 0.0
H455 H 0.41426 0.04921 0.83713 0.0
H456 H 0.37027 1.00557 0.71626 0.0
H457 H 0.40079 0.97985 0.68778 0.0
H458 H 0.39878 0.03065 0.68587 0.0
H459 H 0.4714 0.03369 0.69367 0.0
H460 H 0.47363 0.98305 0.69603 0.0
H461 H 0.49252 0.01141 0.7299 0.0
H462 H 0.41721 0.97942 0.83994 0.0
H463 H 0.42949 0.91193 0.83281 0.0
H464 H 0.43994 0.92758 0.72423 0.0
C465 C 0.43005 0.08103 0.74368 0.0
C466 C 0.42939 0.1082 0.76995 0.0
C467 C 0.42266 0.09646 0.80356 0.0
C468 C 0.4179 0.05813 0.81119 0.0
C469 C 0.41997 0.03188 0.78492 0.0
C470 C 0.42555 0.04275 0.75176 0.0
C471 C 0.43054 0.00857 0.72888 0.0
C472 C 0.39816 1.00601 0.70317 0.0
C473 C 0.46932 0.00924 0.71109 0.0
C474 C 0.42821 0.9769 0.75453 0.0
C475 C 0.42163 0.99106 0.78658 0.0
C476 C 0.42129 0.96787 0.81484 0.0
C477 C 0.42803 0.92923 0.81038 0.0
C478 C 0.43491 0.91366 0.77777 0.0
C479 C 0.43456 0.93813 0.74948 0.0
H480 H 0.43022 0.66 0.17192 0.0
H481 H 0.35403 0.75501 0.18607 0.0
H482 H 0.30917 0.7264 0.14601 0.0
H483 H 0.41536 0.64683 0.08451 0.0
H484 H 0.41614 0.59598 0.08578 0.0
H485 H 0.44206 0.62285 0.11669 0.0
H486 H 0.40646 0.58869 0.16519 0.0
H487 H 0.38097 0.56124 0.13439 0.0
H488 H 0.35546 0.58844 0.16557 0.0
H489 H 0.27467 0.69011 0.10204 0.0
H490 H 0.24851 0.6441 0.06159 0.0
H491 H 0.34586 0.57142 0.07721 0.0
C492 C 0.40389 0.67453 0.16686 0.0
C493 C 0.3956 0.70974 0.182 0.0
C494 C 0.36087 0.72792 0.17486 0.0
C495 C 0.33529 0.71202 0.15201 0.0
C496 C 0.3447 0.67777 0.13689 0.0
C497 C 0.37776 0.65883 0.14443 0.0
C498 C 0.3807 0.62213 0.12487 0.0
C499 C 0.41564 0.62197 0.10158 0.0
C500 C 0.3809 0.58812 0.14894 0.0
C501 C 0.34443 0.62384 0.10475 0.0
C502 C 0.32422 0.65627 0.11197 0.0
C503 C 0.29003 0.66444 0.09632 0.0
C504 C 0.27554 0.63823 0.07323 0.0
C505 C 0.29514 0.6042 0.06628 0.0
C506 C 0.33027 0.59723 0.08197 0.0
H507 H 0.45191 0.35152 0.34125 0.0
H508 H 0.38074 0.25287 0.32649 0.0
H509 H 0.32969 0.28346 0.35863 0.0
H510 H 0.42091 0.37274 0.42625 0.0
H511 H 0.42142 0.42319 0.42053 0.0
H512 H 0.45317 0.39375 0.39636 0.0
H513 H 0.42704 0.42197 0.34081 0.0
H514 H 0.3953 0.45156 0.36481 0.0
H515 H 0.3769 0.42036 0.33277 0.0
H516 H 0.28662 0.32321 0.39223 0.0
H517 H 0.25221 0.37182 0.42439 0.0
H518 H 0.34962 0.44622 0.41746 0.0
C519 C 0.42556 0.33645 0.34479 0.0
C520 C 0.42036 0.29979 0.33134 0.0
C521 C 0.38544 0.28099 0.33645 0.0
C522 C 0.35622 0.29807 0.35475 0.0
C523 C 0.3622 0.33405 0.36773 0.0
C524 C 0.39581 0.35324 0.36294 0.0
C525 C 0.39427 0.39198 0.37939 0.0
C526 C 0.42422 0.39561 0.40729 0.0
C527 C 0.39863 0.42332 0.35285 0.0
C528 C 0.35458 0.39134 0.3941 0.0
C529 C 0.3368 0.35752 0.3871 0.0
C530 C 0.30013 0.34988 0.39789 0.0
C531 C 0.28085 0.37771 0.41619 0.0
C532 C 0.29819 0.41283 0.42345 0.0
C533 C 0.33564 0.41963 0.41231 0.0
H534 H 0.57415 0.33937 0.67326 0.0
H535 H 0.64497 0.23934 0.67841 0.0
H536 H 0.69085 0.26895 0.63977 0.0
H537 H 0.5912 0.36006 0.58536 0.0
H538 H 0.59235 0.41049 0.59153 0.0
H539 H 0.56429 0.38137 0.61918 0.0
H540 H 0.59928 0.40861 0.67127 0.0
H541 H 0.62715 0.43814 0.64387 0.0
H542 H 0.65019 0.40648 0.67282 0.0
H543 H 0.72874 0.30862 0.60077 0.0
H544 H 0.75939 0.35836 0.56711 0.0
H545 H 0.665 0.43355 0.58804 0.0
C546 C 0.59937 0.32376 0.66633 0.0
C547 C 0.60603 0.28707 0.67884 0.0
C548 C 0.63935 0.26755 0.66924 0.0
C549 C 0.66549 0.28401 0.64715 0.0
C550 C 0.65792 0.32003 0.63502 0.0
C551 C 0.62592 0.33988 0.64447 0.0
C552 C 0.62528 0.37868 0.62855 0.0
C553 C 0.59126 0.38288 0.60474 0.0
C554 C 0.6255 0.40981 0.65575 0.0
C555 C 0.66217 0.37763 0.60902 0.0
C556 C 0.68025 0.34334 0.61281 0.0
C557 C 0.71492 0.33563 0.59757 0.0
C558 C 0.73205 0.36406 0.57844 0.0
C559 C 0.71461 0.39984 0.57501 0.0
C560 C 0.67896 0.40645 0.59014 0.0
H561 H 0.74285 0.63912 0.91937 0.0
H562 H 0.67895 0.53454 0.91326 0.0
H563 H 0.63535 0.56383 0.87293 0.0
H564 H 0.66342 0.70029 0.91752 0.0
H565 H 0.68621 0.73594 0.89224 0.0
H566 H 0.71405 0.70603 0.91913 0.0
H567 H 0.75477 0.68586 0.86751 0.0
H568 H 0.72677 0.71549 0.84038 0.0
H569 H 0.73204 0.66598 0.83083 0.0
H570 H 0.59707 0.60432 0.83585 0.0
H571 H 0.56388 0.65539 0.8061 0.0
H572 H 0.65208 0.73414 0.83544 0.0
C573 C 0.71978 0.62239 0.90941 0.0
C574 C 0.71427 0.58462 0.91954 0.0
C575 C 0.68364 0.56364 0.90609 0.0
C576 C 0.65884 0.57989 0.88293 0.0
C577 C 0.66508 0.6171 0.87342 0.0
C578 C 0.6946 0.63823 0.88627 0.0
C579 C 0.69359 0.67828 0.87308 0.0
C580 C 0.68903 0.70681 0.90223 0.0
C581 C 0.72889 0.6869 0.85167 0.0
C582 C 0.65842 0.67646 0.85141 0.0
C583 C 0.64276 0.64073 0.85171 0.0
C584 C 0.60917 0.63236 0.83511 0.0
C585 C 0.59054 0.66155 0.81835 0.0
C586 C 0.60553 0.69862 0.81843 0.0
C587 C 0.64032 0.70594 0.83455 0.0
H588 H 0.40022 0.46007 0.07005 0.0
H589 H 0.29202 0.40478 0.08576 0.0
H590 H 0.32229 0.36021 0.12525 0.0
H591 H 0.45867 0.37544 0.07405 0.0
H592 H 0.49643 0.39912 0.09606 0.0
H593 H 0.46661 0.42517 0.06761 0.0
H594 H 0.45041 0.47245 0.11563 0.0
H595 H 0.48006 0.44653 0.14424 0.0
H596 H 0.43117 0.45506 0.15484 0.0
H597 H 0.36422 0.3229 0.1645 0.0
H598 H 0.41395 0.2959 0.2004 0.0
H599 H 0.49435 0.37712 0.16035 0.0
C600 C 0.38289 0.43831 0.08142 0.0
C601 C 0.34371 0.43582 0.07458 0.0
C602 C 0.32209 0.40716 0.0904 0.0
C603 C 0.33905 0.38171 0.1129 0.0
C604 C 0.37765 0.38527 0.11934 0.0
C605 C 0.3993 0.41281 0.10401 0.0
C606 C 0.43992 0.41146 0.11609 0.0
C607 C 0.467 0.40224 0.0867 0.0
C608 C 0.45102 0.44857 0.13376 0.0
C609 C 0.43769 0.37908 0.14095 0.0
C610 C 0.4016 0.36422 0.14229 0.0
C611 C 0.39258 0.33436 0.16365 0.0
C612 C 0.42111 0.31937 0.18421 0.0
C613 C 0.45836 0.33433 0.18359 0.0
C614 C 0.4665 0.36457 0.16139 0.0
H615 H 0.58758 0.31616 0.36597 0.0
H616 H 0.65187 0.33795 0.27458 0.0
H617 H 0.68606 0.38941 0.30373 0.0
H618 H 0.57873 0.41164 0.39504 0.0
H619 H 0.58556 0.40051 0.43901 0.0
H620 H 0.56547 0.36585 0.41093 0.0
H621 H 0.61757 0.31819 0.42749 0.0
H622 H 0.63779 0.35258 0.45576 0.0
H623 H 0.6666 0.33134 0.42319 0.0
H624 H 0.71044 0.44101 0.34164 0.0
H625 H 0.72896 0.48447 0.38787 0.0
H626 H 0.65384 0.42584 0.45655 0.0
C627 C 0.60884 0.33181 0.35215 0.0
C628 C 0.61691 0.32327 0.31789 0.0
C629 C 0.64532 0.34398 0.3008 0.0
C630 C 0.66475 0.37336 0.31712 0.0
C631 C 0.65607 0.38121 0.35082 0.0
C632 C 0.62929 0.36061 0.36838 0.0
C633 C 0.62658 0.37386 0.40488 0.0
C634 C 0.58671 0.38886 0.41292 0.0
C635 C 0.63781 0.3421 0.42926 0.0
C636 C 0.65563 0.40547 0.40493 0.0
C637 C 0.6719 0.40951 0.37332 0.0
C638 C 0.69823 0.43783 0.36658 0.0
C639 C 0.70846 0.46247 0.39286 0.0
C640 C 0.693 0.45827 0.42564 0.0
C641 C 0.66634 0.42928 0.43174 0.0
H642 H 0.59224 0.71931 0.67502 0.0
H643 H 0.50434 0.63424 0.67851 0.0
H644 H 0.54397 0.59156 0.64365 0.0
H645 H 0.61928 0.70153 0.58756 0.0
H646 H 0.66885 0.71009 0.59481 0.0
H647 H 0.63383 0.73359 0.62051 0.0
H648 H 0.66533 0.70707 0.67446 0.0
H649 H 0.70035 0.68337 0.64891 0.0
H650 H 0.67212 0.65685 0.67848 0.0
H651 H 0.59496 0.55665 0.61144 0.0
H652 H 0.65041 0.53464 0.57861 0.0
H653 H 0.70344 0.64409 0.59165 0.0
C654 C 0.58143 0.6917 0.66832 0.0
C655 C 0.54523 0.67999 0.67947 0.0
C656 C 0.53181 0.64383 0.66998 0.0
C657 C 0.55424 0.61935 0.65038 0.0
C658 C 0.58986 0.63163 0.63992 0.0
C659 C 0.60317 0.66719 0.64808 0.0
C660 C 0.64198 0.67385 0.63264 0.0
C661 C 0.64091 0.70671 0.60738 0.0
C662 C 0.6717 0.68068 0.66027 0.0
C663 C 0.64854 0.6364 0.61477 0.0
C664 C 0.61834 0.61227 0.61973 0.0
C665 C 0.61854 0.57549 0.60704 0.0
C666 C 0.65022 0.56318 0.58851 0.0
C667 C 0.68105 0.58775 0.58223 0.0
C668 C 0.68005 0.62486 0.59559 0.0
H669 H 0.30041 0.58598 0.91741 0.0
H670 H 0.39291 0.50622 0.92488 0.0
H671 H 0.43375 0.54914 0.89176 0.0
H672 H 0.32038 0.61443 0.83107 0.0
H673 H 0.3071 0.66295 0.83819 0.0
H674 H 0.28538 0.62603 0.86269 0.0
H675 H 0.30619 0.65955 0.91787 0.0
H676 H 0.32814 0.69647 0.89353 0.0
H677 H 0.35546 0.67061 0.92408 0.0
H678 H 0.46556 0.60249 0.86079 0.0
H679 H 0.48421 0.65927 0.82873 0.0
H680 H 0.36988 0.70281 0.83791 0.0
C681 C 0.32924 0.57763 0.91195 0.0
C682 C 0.34356 0.5428 0.92367 0.0
C683 C 0.38132 0.53257 0.91582 0.0
C684 C 0.40476 0.55689 0.89725 0.0
C685 C 0.38989 0.59115 0.88628 0.0
C686 C 0.35283 0.6013 0.89289 0.0
C687 C 0.34358 0.63929 0.8774 0.0
C688 C 0.31226 0.63543 0.85075 0.0
C689 C 0.33271 0.66818 0.90486 0.0
C690 C 0.38127 0.64903 0.86123 0.0
C691 C 0.40773 0.62109 0.86706 0.0
C692 C 0.44497 0.62435 0.85577 0.0
C693 C 0.45534 0.65678 0.8377 0.0
C694 C 0.42843 0.6853 0.8306 0.0
C695 C 0.39094 0.68126 0.84261 0.0
H696 H 0.3145 0.58185 0.3967 0.0
H697 H 0.35357 0.6296 0.49144 0.0
H698 H 0.40443 0.66322 0.46102 0.0
H699 H 0.40546 0.56905 0.35736 0.0
H700 H 0.38997 0.583 0.31589 0.0
H701 H 0.35693 0.56197 0.34502 0.0
H702 H 0.31265 0.61971 0.33905 0.0
H703 H 0.34548 0.64084 0.30979 0.0
H704 H 0.33088 0.66639 0.34709 0.0
H705 H 0.45295 0.68909 0.42105 0.0
H706 H 0.49227 0.71093 0.37314 0.0
H707 H 0.41961 0.65096 0.3033 0.0
C708 C 0.33384 0.5993 0.411 0.0
C709 C 0.33024 0.60288 0.44653 0.0
C710 C 0.35573 0.62649 0.46426 0.0
C711 C 0.38481 0.64558 0.44721 0.0
C712 C 0.38773 0.64135 0.41227 0.0
C713 C 0.36263 0.61928 0.39422 0.0
C714 C 0.37136 0.62076 0.35661 0.0
C715 C 0.38154 0.58135 0.34293 0.0
C716 C 0.33811 0.63796 0.33699 0.0
C717 C 0.4055 0.64684 0.35642 0.0
C718 C 0.41467 0.65795 0.3889 0.0
C719 C 0.44586 0.68085 0.39549 0.0
C720 C 0.46814 0.69297 0.3682 0.0
C721 C 0.45888 0.68276 0.33463 0.0
C722 C 0.42702 0.65947 0.32872 0.0
H723 H 0.36384 0.48409 0.60226 0.0
H724 H 0.30017 0.39851 0.5484 0.0
H725 H 0.33078 0.3489 0.58247 0.0
H726 H 0.45013 0.43103 0.60768 0.0
H727 H 0.46197 0.44829 0.6492 0.0
H728 H 0.43414 0.47699 0.62124 0.0
H729 H 0.38169 0.48206 0.66694 0.0
H730 H 0.40931 0.4532 0.69498 0.0
H731 H 0.36165 0.43959 0.68446 0.0
H732 H 0.36845 0.30839 0.6228 0.0
H733 H 0.41315 0.28009 0.66334 0.0
H734 H 0.45321 0.39201 0.69028 0.0
C735 C 0.35614 0.45494 0.59784 0.0
C736 C 0.32952 0.44524 0.57263 0.0
C737 C 0.3207 0.40666 0.56727 0.0
C738 C 0.33776 0.37827 0.5867 0.0
C739 C 0.36382 0.38881 0.61135 0.0
C740 C 0.3732 0.4262 0.61679 0.0
C741 C 0.40312 0.42987 0.64399 0.0
C742 C 0.43949 0.44759 0.62966 0.0
C743 C 0.38803 0.45252 0.67439 0.0
C744 C 0.40908 0.38872 0.65303 0.0
C745 C 0.38593 0.36549 0.6341 0.0
C746 C 0.38665 0.32635 0.63778 0.0
C747 C 0.41207 0.31052 0.66101 0.0
C748 C 0.43669 0.33373 0.68017 0.0
C749 C 0.43473 0.3734 0.6762 0.0
H750 H 0.62678 0.4533 0.9376 0.0
H751 H 0.73263 0.39193 0.92847 0.0
H752 H 0.7011 0.34489 0.89168 0.0
H753 H 0.56375 0.37209 0.93805 0.0
H754 H 0.52825 0.39561 0.91322 0.0
H755 H 0.55858 0.42265 0.94062 0.0
H756 H 0.57923 0.464 0.88991 0.0
H757 H 0.54905 0.43708 0.86236 0.0
H758 H 0.59869 0.4417 0.85271 0.0
H759 H 0.65805 0.30592 0.85405 0.0
H760 H 0.60809 0.27889 0.81811 0.0
H761 H 0.5312 0.36754 0.85056 0.0
C762 C 0.64333 0.42967 0.92837 0.0
C763 C 0.68219 0.42613 0.93624 0.0
C764 C 0.70281 0.39511 0.92302 0.0
C765 C 0.68511 0.36826 0.9021 0.0
C766 C 0.64683 0.37292 0.89458 0.0
C767 C 0.62624 0.40289 0.90734 0.0
C768 C 0.58603 0.40266 0.89417 0.0
C769 C 0.55747 0.39796 0.92325 0.0
C770 C 0.57778 0.43848 0.87356 0.0
C771 C 0.58715 0.36793 0.87179 0.0
C772 C 0.62239 0.35104 0.8725 0.0
C773 C 0.63039 0.31896 0.85334 0.0
C774 C 0.60178 0.30395 0.83276 0.0
C775 C 0.56552 0.32107 0.8312 0.0
C776 C 0.55828 0.35337 0.85135 0.0
H777 H 0.5486 0.61706 0.17962 0.0
H778 H 0.59798 0.72765 0.16298 0.0
H779 H 0.6473 0.69848 0.12672 0.0
H780 H 0.63601 0.56429 0.18259 0.0
H781 H 0.61664 0.52407 0.16066 0.0
H782 H 0.58631 0.5536 0.18613 0.0
H783 H 0.54256 0.56435 0.13466 0.0
H784 H 0.57272 0.53486 0.10903 0.0
H785 H 0.56236 0.58242 0.09591 0.0
H786 H 0.6907 0.65669 0.09134 0.0
H787 H 0.72383 0.60671 0.05945 0.0
H788 H 0.64452 0.52387 0.09832 0.0
C789 C 0.56993 0.63525 0.16865 0.0
C790 C 0.56951 0.67472 0.17439 0.0
C791 C 0.59779 0.69737 0.15913 0.0
C792 C 0.62591 0.68102 0.13849 0.0
C793 C 0.62531 0.64201 0.13327 0.0
C794 C 0.59799 0.61947 0.14792 0.0
C795 C 0.60284 0.57847 0.13765 0.0
C796 C 0.61094 0.55365 0.1686 0.0
C797 C 0.56806 0.5642 0.11815 0.0
C798 C 0.6372 0.58135 0.11483 0.0
C799 C 0.64982 0.61819 0.11269 0.0
C800 C 0.68095 0.62779 0.09282 0.0
C801 C 0.69949 0.59911 0.07458 0.0
C802 C 0.68688 0.5611 0.07608 0.0
C803 C 0.65533 0.55236 0.09677 0.0
loop_
_geom_bond_atom_site_label_1
_geom_bond_atom_site_label_2
_geom_bond_distance
_geom_bond_site_symmetry_2
_ccdc_geom_bond_type
C0 C1 1.351 . S
C0 N3 1.368 . S
C0 H5 0.931 . S
C1 C0 1.351 . S
C1 N2 1.373 . S
C1 H29 0.930 . S
N2 C1 1.373 . S
N2 C4 1.340 . S
N3 C0 1.368 . S
N3 C4 1.321 . S
N3 Co6 2.135 . S
C4 N2 1.340 . S
C4 N3 1.321 . S
C4 H28 0.930 . S
H5 C0 0.931 . S
Co6 N3 2.135 . S
Co6 N9 2.121 . S
Co6 O14 2.055 . S
Co6 O17 2.039 . S
Co6 N20 2.140 . S
C7 O8 1.227 . S
C7 O17 1.265 . S
O8 C7 1.227 . S
N9 Co6 2.121 . S
N9 C11 1.375 1_554 S
N9 C12 1.313 1_554 S
C10 C11 1.338 . S
C10 N13 1.377 . S
C10 H30 0.930 . S
C11 N9 1.375 1_556 S
C11 C10 1.338 . S
C11 H15 0.931 . S
C12 N9 1.313 1_556 S
C12 N13 1.344 . S
C12 H16 0.930 1_556 S
N13 C10 1.377 . S
N13 C12 1.344 . S
O14 Co6 2.055 . S
O14 C18 1.253 . S
H15 C11 0.931 . S
H16 C12 0.930 1_554 S
O17 Co6 2.039 . S
O17 C7 1.265 . S
C18 O14 1.253 . S
C18 O19 1.227 . S
O19 C18 1.227 . S
N20 Co6 2.140 . S
N20 C23 1.346 . S
N20 C24 1.345 . S
C21 C22 1.387 . S
C21 C25 1.391 . S
C22 C21 1.387 . S
C22 C23 1.369 . S
C22 H31 0.929 . S
C23 N20 1.346 . S
C23 C22 1.369 . S
C23 H26 0.928 . S
C24 N20 1.345 . S
C24 C25 1.371 . S
C24 H27 0.931 . S
C25 C21 1.391 . S
C25 C24 1.371 . S
C25 H32 0.930 1_554 S
H26 C23 0.928 . S
H27 C24 0.931 . S
H28 C4 0.930 . S
H29 C1 0.930 . S
H30 C10 0.930 . S
H31 C22 0.929 . S
H32 C25 0.930 1_556 S
C33 C34 1.351 . S
C33 N36 1.368 . S
C33 H38 0.931 . S
C34 C33 1.351 . S
C34 N35 1.373 . S
C34 H62 0.930 . S
N35 C34 1.373 . S
N35 C37 1.340 . S
N36 C33 1.368 . S
N36 C37 1.321 . S
N36 Co39 2.135 . S
C37 N35 1.340 . S
C37 N36 1.321 . S
C37 H61 0.930 . S
H38 C33 0.931 . S
Co39 N36 2.135 . S
Co39 N42 2.121 . S
Co39 O47 2.055 . S
Co39 O50 2.039 . S
Co39 N53 2.140 . S
C40 O41 1.227 . S
C40 O50 1.265 . S
O41 C40 1.227 . S
N42 Co39 2.121 . S
N42 C44 1.375 . S
N42 C45 1.313 . S
C43 C44 1.338 . S
C43 N46 1.377 . S
C43 H63 0.930 . S
C44 N42 1.375 . S
C44 C43 1.338 . S
C44 H48 0.931 . S
C45 N42 1.313 . S
C45 N46 1.344 . S
C45 H49 0.930 . S
N46 C43 1.377 . S
N46 C45 1.344 . S
O47 Co39 2.055 . S
O47 C51 1.253 . S
H48 C44 0.931 . S
H49 C45 0.930 . S
O50 Co39 2.039 . S
O50 C40 1.265 . S
C51 O47 1.253 . S
C51 O52 1.227 . S
O52 C51 1.227 . S
N53 Co39 2.140 . S
N53 C56 1.346 . S
N53 C57 1.345 . S
C54 C55 1.387 . S
C54 C58 1.391 . S
C55 C54 1.387 . S
C55 C56 1.369 . S
C55 H64 0.929 . S
C56 N53 1.346 . S
C56 C55 1.369 . S
C56 H59 0.928 . S
C57 N53 1.345 . S
C57 C58 1.371 . S
C57 H60 0.931 . S
C58 C54 1.391 . S
C58 C57 1.371 . S
C58 H65 0.930 . S
H59 C56 0.928 . S
H60 C57 0.931 . S
H61 C37 0.930 . S
H62 C34 0.930 . S
H63 C43 0.930 . S
H64 C55 0.929 . S
H65 C58 0.930 . S
C66 C67 1.351 . S
C66 N69 1.368 . S
C66 H71 0.931 . S
C67 C66 1.351 . S
C67 N68 1.373 . S
C67 H95 0.930 . S
N68 C67 1.373 . S
N68 C70 1.340 . S
N69 C66 1.368 . S
N69 C70 1.321 . S
N69 Co72 2.135 . S
C70 N68 1.340 . S
C70 N69 1.321 . S
C70 H94 0.930 . S
H71 C66 0.931 . S
Co72 N69 2.135 . S
Co72 N75 2.121 . S
Co72 O80 2.055 . S
Co72 O83 2.039 . S
Co72 N86 2.140 . S
C73 O74 1.227 . S
C73 O83 1.265 . S
O74 C73 1.227 . S
N75 Co72 2.121 . S
N75 C77 1.375 . S
N75 C78 1.313 . S
C76 C77 1.338 . S
C76 N79 1.377 . S
C76 H96 0.930 . S
C77 N75 1.375 . S
C77 C76 1.338 . S
C77 H81 0.931 . S
C78 N75 1.313 . S
C78 N79 1.344 . S
C78 H82 0.930 . S
N79 C76 1.377 . S
N79 C78 1.344 . S
O80 Co72 2.055 . S
O80 C84 1.253 . S
H81 C77 0.931 . S
H82 C78 0.930 . S
O83 Co72 2.039 . S
O83 C73 1.265 . S
C84 O80 1.253 . S
C84 O85 1.227 . S
O85 C84 1.227 . S
N86 Co72 2.140 . S
N86 C89 1.346 . S
N86 C90 1.345 . S
C87 C88 1.387 . S
C87 C91 1.391 . S
C88 C87 1.387 . S
C88 C89 1.369 . S
C88 H97 0.929 . S
C89 N86 1.346 . S
C89 C88 1.369 . S
C89 H92 0.928 . S
C90 N86 1.345 . S
C90 C91 1.371 . S
C90 H93 0.931 . S
C91 C87 1.391 . S
C91 C90 1.371 . S
C91 H98 0.930 . S
H92 C89 0.928 . S
H93 C90 0.931 . S
H94 C70 0.930 . S
H95 C67 0.930 . S
H96 C76 0.930 . S
H97 C88 0.929 . S
H98 C91 0.930 . S
C99 C100 1.351 . S
C99 N102 1.368 . S
C99 H104 0.931 . S
C100 C99 1.351 . S
C100 N101 1.373 . S
C100 H128 0.930 . S
N101 C100 1.373 . S
N101 C103 1.340 . S
N102 C99 1.368 . S
N102 C103 1.321 . S
N102 Co105 2.135 . S
C103 N101 1.340 . S
C103 N102 1.321 . S
C103 H127 0.930 . S
H104 C99 0.931 . S
Co105 N102 2.135 . S
Co105 N108 2.121 . S
Co105 O113 2.055 . S
Co105 O116 2.039 . S
Co105 N119 2.140 . S
C106 O107 1.227 . S
C106 O116 1.265 . S
O107 C106 1.227 . S
N108 Co105 2.121 . S
N108 C110 1.375 . S
N108 C111 1.313 . S
C109 C110 1.338 . S
C109 N112 1.377 . S
C109 H129 0.930 . S
C110 N108 1.375 . S
C110 C109 1.338 . S
C110 H114 0.931 . S
C111 N108 1.313 . S
C111 N112 1.344 . S
C111 H115 0.930 . S
N112 C109 1.377 . S
N112 C111 1.344 . S
O113 Co105 2.055 . S
O113 C117 1.253 . S
H114 C110 0.931 . S
H115 C111 0.930 . S
O116 Co105 2.039 . S
O116 C106 1.265 . S
C117 O113 1.253 . S
C117 O118 1.227 . S
O118 C117 1.227 . S
N119 Co105 2.140 . S
N119 C122 1.346 . S
N119 C123 1.345 . S
C120 C121 1.387 . S
C120 C124 1.391 . S
C121 C120 1.387 . S
C121 C122 1.369 . S
C121 H130 0.929 . S
C122 N119 1.346 . S
C122 C121 1.369 . S
C122 H125 0.928 . S
C123 N119 1.345 . S
C123 C124 1.371 . S
C123 H126 0.931 . S
C124 C120 1.391 . S
C124 C123 1.371 . S
C124 H131 0.930 . S
H125 C122 0.928 . S
H126 C123 0.931 . S
H127 C103 0.930 . S
H128 C100 0.930 . S
H129 C109 0.930 . S
H130 C121 0.929 . S
H131 C124 0.930 . S
C132 C133 1.351 . S
C132 N135 1.368 . S
C132 H137 0.931 . S
C133 C132 1.351 . S
C133 N134 1.373 . S
C133 H161 0.930 . S
N134 C133 1.373 . S
N134 C136 1.340 . S
N135 C132 1.368 . S
N135 C136 1.321 . S
N135 Co138 2.135 . S
C136 N134 1.340 . S
C136 N135 1.321 . S
C136 H160 0.930 . S
H137 C132 0.931 . S
Co138 N135 2.135 . S
Co138 N141 2.121 . S
Co138 O146 2.055 . S
Co138 O149 2.039 . S
Co138 N152 2.140 . S
C139 O140 1.227 . S
C139 O149 1.265 . S
O140 C139 1.227 . S
N141 Co138 2.121 . S
N141 C143 1.375 . S
N141 C144 1.313 . S
C142 C143 1.338 . S
C142 N145 1.377 . S
C142 H162 0.930 . S
C143 N141 1.375 . S
C143 C142 1.338 . S
C143 H147 0.931 . S
C144 N141 1.313 . S
C144 N145 1.344 . S
C144 H148 0.930 . S
N145 C142 1.377 . S
N145 C144 1.344 . S
O146 Co138 2.055 . S
O146 C150 1.253 . S
H147 C143 0.931 . S
H148 C144 0.930 . S
O149 Co138 2.039 . S
O149 C139 1.265 . S
C150 O146 1.253 . S
C150 O151 1.227 . S
O151 C150 1.227 . S
N152 Co138 2.140 . S
N152 C155 1.346 . S
N152 C156 1.345 . S
C153 C154 1.387 . S
C153 C157 1.391 . S
C154 C153 1.387 . S
C154 C155 1.369 . S
C154 H163 0.929 . S
C155 N152 1.346 . S
C155 C154 1.369 . S
C155 H158 0.928 . S
C156 N152 1.345 . S
C156 C157 1.371 . S
C156 H159 0.931 . S
C157 C153 1.391 . S
C157 C156 1.371 . S
C157 H164 0.930 . S
H158 C155 0.928 . S
H159 C156 0.931 . S
H160 C136 0.930 . S
H161 C133 0.930 . S
H162 C142 0.930 . S
H163 C154 0.929 . S
H164 C157 0.930 . S
C165 C166 1.351 . S
C165 N168 1.368 . S
C165 H170 0.931 . S
C166 C165 1.351 . S
C166 N167 1.373 . S
C166 H194 0.930 . S
N167 C166 1.373 . S
N167 C169 1.340 . S
N168 C165 1.368 . S
N168 C169 1.321 . S
N168 Co171 2.135 . S
C169 N167 1.340 . S
C169 N168 1.321 . S
C169 H193 0.930 . S
H170 C165 0.931 . S
Co171 N168 2.135 . S
Co171 N174 2.121 . S
Co171 O179 2.055 . S
Co171 O182 2.039 . S
Co171 N185 2.140 . S
C172 O173 1.227 . S
C172 O182 1.265 . S
O173 C172 1.227 . S
N174 Co171 2.121 . S
N174 C176 1.375 . S
N174 C177 1.313 . S
C175 C176 1.338 . S
C175 N178 1.377 . S
C175 H195 0.930 . S
C176 N174 1.375 . S
C176 C175 1.338 . S
C176 H180 0.931 . S
C177 N174 1.313 . S
C177 N178 1.344 . S
C177 H181 0.930 . S
N178 C175 1.377 . S
N178 C177 1.344 . S
O179 Co171 2.055 . S
O179 C183 1.253 . S
H180 C176 0.931 . S
H181 C177 0.930 . S
O182 Co171 2.039 . S
O182 C172 1.265 . S
C183 O179 1.253 . S
C183 O184 1.227 . S
O184 C183 1.227 . S
N185 Co171 2.140 . S
N185 C188 1.346 . S
N185 C189 1.345 . S
C186 C187 1.387 . S
C186 C190 1.391 . S
C187 C186 1.387 . S
C187 C188 1.369 . S
C187 H196 0.929 . S
C188 N185 1.346 . S
C188 C187 1.369 . S
C188 H191 0.928 . S
C189 N185 1.345 . S
C189 C190 1.371 . S
C189 H192 0.931 . S
C190 C186 1.391 . S
C190 C189 1.371 . S
C190 H197 0.930 . S
H191 C188 0.928 . S
H192 C189 0.931 . S
H193 C169 0.930 . S
H194 C166 0.930 . S
H195 C175 0.930 . S
H196 C187 0.929 . S
H197 C190 0.930 . S
C198 C199 1.351 . S
C198 N201 1.368 . S
C198 H203 0.931 . S
C199 C198 1.351 . S
C199 N200 1.373 . S
C199 H227 0.930 . S
N200 C199 1.373 . S
N200 C202 1.340 . S
N201 C198 1.368 . S
N201 C202 1.321 . S
N201 Co204 2.135 . S
C202 N200 1.340 . S
C202 N201 1.321 . S
C202 H226 0.930 . S
H203 C198 0.931 . S
Co204 N201 2.135 . S
Co204 N207 2.121 . S
Co204 O212 2.055 . S
Co204 O215 2.039 . S
Co204 N218 2.140 . S
C205 O206 1.227 . S
C205 O215 1.265 . S
O206 C205 1.227 . S
N207 Co204 2.121 . S
N207 C209 1.375 1_556 S
N207 C210 1.313 1_556 S
C208 C209 1.338 . S
C208 N211 1.377 . S
C208 H228 0.930 . S
C209 N207 1.375 1_554 S
C209 C208 1.338 . S
C209 H213 0.931 . S
C210 N207 1.313 1_554 S
C210 N211 1.344 . S
C210 H214 0.930 1_554 S
N211 C208 1.377 . S
N211 C210 1.344 . S
O212 Co204 2.055 . S
O212 C216 1.253 . S
H213 C209 0.931 . S
H214 C210 0.930 1_556 S
O215 Co204 2.039 . S
O215 C205 1.265 . S
C216 O212 1.253 . S
C216 O217 1.227 . S
O217 C216 1.227 . S
N218 Co204 2.140 . S
N218 C221 1.346 . S
N218 C222 1.345 . S
C219 C220 1.387 . S
C219 C223 1.391 . S
C220 C219 1.387 . S
C220 C221 1.369 . S
C220 H229 0.929 . S
C221 N218 1.346 . S
C221 C220 1.369 . S
C221 H224 0.928 . S
C222 N218 1.345 . S
C222 C223 1.371 . S
C222 H225 0.931 . S
C223 C219 1.391 . S
C223 C222 1.371 . S
C223 H230 0.930 1_556 S
H224 C221 0.928 . S
H225 C222 0.931 . S
H226 C202 0.930 . S
H227 C199 0.930 . S
H228 C208 0.930 . S
H229 C220 0.929 . S
H230 C223 0.930 1_554 S
C231 C232 1.351 . S
C231 N234 1.368 . S
C231 H236 0.931 . S
C232 C231 1.351 . S
C232 N233 1.373 . S
C232 H260 0.930 . S
N233 C232 1.373 . S
N233 C235 1.340 . S
N234 C231 1.368 . S
N234 C235 1.321 . S
N234 Co237 2.135 . S
C235 N233 1.340 . S
C235 N234 1.321 . S
C235 H259 0.930 . S
H236 C231 0.931 . S
Co237 N234 2.135 . S
Co237 N240 2.121 . S
Co237 O245 2.055 . S
Co237 O248 2.039 . S
Co237 N251 2.140 . S
C238 O239 1.227 . S
C238 O248 1.265 . S
O239 C238 1.227 . S
N240 Co237 2.121 . S
N240 C242 1.375 . S
N240 C243 1.313 . S
C241 C242 1.338 . S
C241 N244 1.377 . S
C241 H261 0.930 . S
C242 N240 1.375 . S
C242 C241 1.338 . S
C242 H246 0.931 . S
C243 N240 1.313 . S
C243 N244 1.344 . S
C243 H247 0.930 . S
N244 C241 1.377 . S
N244 C243 1.344 . S
O245 Co237 2.055 . S
O245 C249 1.253 . S
H246 C242 0.931 . S
H247 C243 0.930 . S
O248 Co237 2.039 . S
O248 C238 1.265 . S
C249 O245 1.253 . S
C249 O250 1.227 . S
O250 C249 1.227 . S
N251 Co237 2.140 . S
N251 C254 1.346 . S
N251 C255 1.345 . S
C252 C253 1.387 . S
C252 C256 1.391 . S
C253 C252 1.387 . S
C253 C254 1.369 . S
C253 H262 0.929 . S
C254 N251 1.346 . S
C254 C253 1.369 . S
C254 H257 0.928 . S
C255 N251 1.345 . S
C255 C256 1.371 . S
C255 H258 0.931 . S
C256 C252 1.391 . S
C256 C255 1.371 . S
C256 H263 0.930 . S
H257 C254 0.928 . S
H258 C255 0.931 . S
H259 C235 0.930 . S
H260 C232 0.930 . S
H261 C241 0.930 . S
H262 C253 0.929 . S
H263 C256 0.930 . S
H264 C276 0.930 . S
H265 C278 0.930 . S
H266 C279 0.930 . S
H267 C283 0.959 . S
H268 C283 0.959 . S
H269 C283 0.961 . S
H270 C284 0.960 . S
H271 C284 0.961 . S
H272 C284 0.959 . S
H273 C287 0.929 . S
H274 C288 0.931 . S
H275 C290 0.930 . S
C276 H264 0.930 . S
C276 C277 1.399 . S
C276 C281 1.399 . S
C277 C276 1.399 . S
C277 C278 1.376 . S
C278 H265 0.930 . S
C278 C277 1.376 . S
C278 C279 1.388 . S
C279 H266 0.930 . S
C279 C278 1.388 . S
C279 C280 1.390 . S
C280 C279 1.390 . S
C280 C281 1.394 . S
C280 C286 1.465 . S
C281 C276 1.399 . S
C281 C280 1.394 . S
C281 C282 1.516 . S
C282 C281 1.516 . S
C282 C283 1.502 . S
C282 C284 1.561 . S
C282 C285 1.526 . S
C283 H267 0.959 . S
C283 H268 0.959 . S
C283 H269 0.961 . S
C283 C282 1.502 . S
C284 H270 0.960 . S
C284 H271 0.961 . S
C284 H272 0.959 . S
C284 C282 1.561 . S
C285 C282 1.526 . S
C285 C286 1.396 . S
C285 C290 1.390 . S
C286 C280 1.465 . S
C286 C285 1.396 . S
C286 C287 1.399 . S
C287 H273 0.929 . S
C287 C286 1.399 . S
C287 C288 1.385 . S
C288 H274 0.931 . S
C288 C287 1.385 . S
C288 C289 1.389 . S
C289 C288 1.389 . S
C289 C290 1.387 . S
C290 H275 0.930 . S
C290 C285 1.390 . S
C290 C289 1.387 . S
H291 C303 0.930 . S
H292 C305 0.930 . S
H293 C306 0.930 . S
H294 C310 0.959 . S
H295 C310 0.959 . S
H296 C310 0.961 . S
H297 C311 0.960 . S
H298 C311 0.961 . S
H299 C311 0.959 . S
H300 C314 0.929 . S
H301 C315 0.931 . S
H302 C317 0.930 . S
C303 H291 0.930 . S
C303 C304 1.399 . S
C303 C308 1.399 . S
C304 C303 1.399 . S
C304 C305 1.376 . S
C305 H292 0.930 . S
C305 C304 1.376 . S
C305 C306 1.388 . S
C306 H293 0.930 . S
C306 C305 1.388 . S
C306 C307 1.390 . S
C307 C306 1.390 . S
C307 C308 1.394 . S
C307 C313 1.465 . S
C308 C303 1.399 . S
C308 C307 1.394 . S
C308 C309 1.516 . S
C309 C308 1.516 . S
C309 C310 1.502 . S
C309 C311 1.561 . S
C309 C312 1.526 . S
C310 H294 0.959 . S
C310 H295 0.959 . S
C310 H296 0.961 . S
C310 C309 1.502 . S
C311 H297 0.960 . S
C311 H298 0.961 . S
C311 H299 0.959 . S
C311 C309 1.561 . S
C312 C309 1.526 . S
C312 C313 1.396 . S
C312 C317 1.390 . S
C313 C307 1.465 . S
C313 C312 1.396 . S
C313 C314 1.399 . S
C314 H300 0.929 . S
C314 C313 1.399 . S
C314 C315 1.385 . S
C315 H301 0.931 . S
C315 C314 1.385 . S
C315 C316 1.389 . S
C316 C315 1.389 . S
C316 C317 1.387 . S
C317 H302 0.930 . S
C317 C312 1.390 . S
C317 C316 1.387 . S
H318 C330 0.930 . S
H319 C332 0.930 . S
H320 C333 0.930 . S
H321 C337 0.959 . S
H322 C337 0.959 . S
H323 C337 0.961 . S
H324 C338 0.960 . S
H325 C338 0.961 . S
H326 C338 0.959 . S
H327 C341 0.929 . S
H328 C342 0.931 . S
H329 C344 0.930 . S
C330 H318 0.930 . S
C330 C331 1.399 . S
C330 C335 1.399 . S
C331 C330 1.399 . S
C331 C332 1.376 . S
C332 H319 0.930 . S
C332 C331 1.376 . S
C332 C333 1.388 . S
C333 H320 0.930 . S
C333 C332 1.388 . S
C333 C334 1.390 . S
C334 C333 1.390 . S
C334 C335 1.394 . S
C334 C340 1.465 . S
C335 C330 1.399 . S
C335 C334 1.394 . S
C335 C336 1.516 . S
C336 C335 1.516 . S
C336 C337 1.502 . S
C336 C338 1.561 . S
C336 C339 1.526 . S
C337 H321 0.959 . S
C337 H322 0.959 . S
C337 H323 0.961 . S
C337 C336 1.502 . S
C338 H324 0.960 . S
C338 H325 0.961 . S
C338 H326 0.959 . S
C338 C336 1.561 . S
C339 C336 1.526 . S
C339 C340 1.396 . S
C339 C344 1.390 . S
C340 C334 1.465 . S
C340 C339 1.396 . S
C340 C341 1.399 . S
C341 H327 0.929 . S
C341 C340 1.399 . S
C341 C342 1.385 . S
C342 H328 0.931 . S
C342 C341 1.385 . S
C342 C343 1.389 . S
C343 C342 1.389 . S
C343 C344 1.387 . S
C344 H329 0.930 . S
C344 C339 1.390 . S
C344 C343 1.387 . S
H345 C357 0.930 . S
H346 C359 0.930 . S
H347 C360 0.930 . S
H348 C364 0.959 . S
H349 C364 0.959 1_554 S
H350 C364 0.961 . S
H351 C365 0.960 1_556 S
H352 C365 0.961 . S
H353 C365 0.959 . S
H354 C368 0.929 . S
H355 C369 0.931 . S
H356 C371 0.930 . S
C357 H345 0.930 . S
C357 C358 1.399 . S
C357 C362 1.399 . S
C358 C357 1.399 . S
C358 C359 1.376 . S
C359 H346 0.930 . S
C359 C358 1.376 . S
C359 C360 1.388 . S
C360 H347 0.930 . S
C360 C359 1.388 . S
C360 C361 1.390 . S
C361 C360 1.390 . S
C361 C362 1.394 . S
C361 C367 1.465 1_556 S
C362 C357 1.399 . S
C362 C361 1.394 . S
C362 C363 1.516 . S
C363 C362 1.516 . S
C363 C364 1.502 . S
C363 C365 1.561 1_556 S
C363 C366 1.526 1_556 S
C364 H348 0.959 . S
C364 H349 0.959 1_556 S
C364 H350 0.961 . S
C364 C363 1.502 . S
C365 H351 0.960 1_554 S
C365 H352 0.961 . S
C365 H353 0.959 . S
C365 C363 1.561 1_554 S
C366 C363 1.526 1_554 S
C366 C367 1.396 . S
C366 C371 1.390 . S
C367 C361 1.465 1_554 S
C367 C366 1.396 . S
C367 C368 1.399 . S
C368 H354 0.929 . S
C368 C367 1.399 . S
C368 C369 1.385 . S
C369 H355 0.931 . S
C369 C368 1.385 . S
C369 C370 1.389 . S
C370 C369 1.389 . S
C370 C371 1.387 . S
C371 H356 0.930 . S
C371 C366 1.390 . S
C371 C370 1.387 . S
H372 C384 0.930 . S
H373 C386 0.930 . S
H374 C387 0.930 . S
H375 C391 0.959 . S
H376 C391 0.959 . S
H377 C391 0.961 1_455 S
H378 C392 0.977 . S
H379 C392 0.945 1_655 S
H380 C392 0.959 . S
H381 C395 0.929 . S
H382 C396 0.931 . S
H383 C398 0.930 . S
C384 H372 0.930 . S
C384 C385 1.399 . S
C384 C389 1.399 . S
C385 C384 1.399 . S
C385 C386 1.376 1_554 S
C386 H373 0.930 . S
C386 C385 1.376 1_556 S
C386 C387 1.388 . S
C387 H374 0.930 . S
C387 C386 1.388 . S
C387 C388 1.390 . S
C388 C387 1.390 . S
C388 C389 1.394 1_556 S
C388 C394 1.465 1_455 S
C389 C384 1.399 . S
C389 C388 1.394 1_554 S
C389 C390 1.516 1_455 S
C390 C389 1.516 1_655 S
C390 C391 1.502 . S
C390 C392 1.561 1_654 S
C390 C393 1.526 . S
C391 H375 0.959 . S
C391 H376 0.959 . S
C391 H377 0.961 1_655 S
C391 C390 1.502 . S
C392 H378 0.977 . S
C392 H379 0.945 1_455 S
C392 H380 0.959 . S
C392 C390 1.561 1_456 S
C393 C390 1.526 . S
C393 C394 1.396 1_554 S
C393 C398 1.390 . S
C394 C388 1.465 1_655 S
C394 C393 1.396 1_556 S
C394 C395 1.399 . S
C395 H381 0.929 . S
C395 C394 1.399 . S
C395 C396 1.385 . S
C396 H382 0.931 . S
C396 C395 1.385 . S
C396 C397 1.389 . S
C397 C396 1.389 . S
C397 C398 1.387 1_556 S
C398 H383 0.930 . S
C398 C393 1.390 . S
C398 C397 1.387 1_554 S
H399 C411 0.930 . S
H400 C413 0.930 . S
H401 C414 0.930 . S
H402 C418 0.959 . S
H403 C418 0.959 . S
H404 C418 0.961 1_545 S
H405 C419 0.960 1_545 S
H406 C419 0.961 . S
H407 C419 0.959 . S
H408 C422 0.929 . S
H409 C423 0.931 . S
H410 C425 0.930 . S
C411 H399 0.930 . S
C411 C412 1.399 . S
C411 C416 1.399 . S
C412 C411 1.399 . S
C412 C413 1.376 . S
C413 H400 0.930 . S
C413 C412 1.376 . S
C413 C414 1.388 . S
C414 H401 0.930 . S
C414 C413 1.388 . S
C414 C415 1.390 . S
C415 C414 1.390 . S
C415 C416 1.394 . S
C415 C421 1.465 1_545 S
C416 C411 1.399 . S
C416 C415 1.394 . S
C416 C417 1.516 1_545 S
C417 C416 1.516 1_565 S
C417 C418 1.502 . S
C417 C419 1.561 . S
C417 C420 1.526 . S
C418 H402 0.959 . S
C418 H403 0.959 . S
C418 H404 0.961 1_565 S
C418 C417 1.502 . S
C419 H405 0.960 1_565 S
C419 H406 0.961 . S
C419 H407 0.959 . S
C419 C417 1.561 . S
C420 C417 1.526 . S
C420 C421 1.396 . S
C420 C425 1.390 . S
C421 C415 1.465 1_565 S
C421 C420 1.396 . S
C421 C422 1.399 . S
C422 H408 0.929 . S
C422 C421 1.399 . S
C422 C423 1.385 . S
C423 H409 0.931 . S
C423 C422 1.385 . S
C423 C424 1.389 . S
C424 C423 1.389 . S
C424 C425 1.387 . S
C425 H410 0.930 . S
C425 C420 1.390 . S
C425 C424 1.387 . S
H426 C438 0.930 . S
H427 C440 0.930 . S
H428 C441 0.930 . S
H429 C445 0.959 . S
H430 C445 0.959 . S
H431 C445 0.961 1_455 S
H432 C446 0.960 . S
H433 C446 0.961 1_655 S
H434 C446 0.960 . S
H435 C449 0.929 . S
H436 C450 0.931 . S
H437 C452 0.930 . S
C438 H426 0.930 . S
C438 C439 1.399 . S
C438 C443 1.399 . S
C439 C438 1.399 . S
C439 C440 1.376 . S
C440 H427 0.930 . S
C440 C439 1.376 . S
C440 C441 1.388 . S
C441 H428 0.930 . S
C441 C440 1.388 . S
C441 C442 1.390 . S
C442 C441 1.390 . S
C442 C443 1.394 . S
C442 C448 1.465 1_455 S
C443 C438 1.399 . S
C443 C442 1.394 . S
C443 C444 1.497 1_455 S
C444 C443 1.497 1_655 S
C444 C445 1.504 . S
C444 C446 1.560 1_655 S
C444 C447 1.544 . S
C445 H429 0.959 . S
C445 H430 0.959 . S
C445 H431 0.961 1_655 S
C445 C444 1.504 . S
C446 H432 0.960 . S
C446 H433 0.961 1_455 S
C446 H434 0.960 . S
C446 C444 1.560 1_455 S
C447 C444 1.544 . S
C447 C448 1.396 . S
C447 C452 1.390 . S
C448 C442 1.465 1_655 S
C448 C447 1.396 . S
C448 C449 1.399 . S
C449 H435 0.929 . S
C449 C448 1.399 . S
C449 C450 1.385 . S
C450 H436 0.931 . S
C450 C449 1.385 . S
C450 C451 1.389 . S
C451 C450 1.389 . S
C451 C452 1.387 . S
C452 H437 0.930 . S
C452 C447 1.390 . S
C452 C451 1.387 . S
H453 C465 0.930 . S
H454 C467 0.930 . S
H455 C468 0.930 . S
H456 C472 0.959 . S
H457 C472 0.959 . S
H458 C472 0.961 1_545 S
H459 C473 0.960 1_545 S
H460 C473 0.961 . S
H461 C473 0.959 . S
H462 C476 0.929 . S
H463 C477 0.931 . S
H464 C479 0.930 . S
C465 H453 0.930 . S
C465 C466 1.399 . S
C465 C470 1.399 . S
C466 C465 1.399 . S
C466 C467 1.376 . S
C467 H454 0.930 . S
C467 C466 1.376 . S
C467 C468 1.388 . S
C468 H455 0.930 . S
C468 C467 1.388 . S
C468 C469 1.390 . S
C469 C468 1.390 . S
C469 C470 1.394 . S
C469 C475 1.465 1_545 S
C470 C465 1.399 . S
C470 C469 1.394 . S
C470 C471 1.516 1_545 S
C471 C470 1.516 1_565 S
C471 C472 1.502 . S
C471 C473 1.561 . S
C471 C474 1.526 . S
C472 H456 0.959 . S
C472 H457 0.959 . S
C472 H458 0.961 1_565 S
C472 C471 1.502 . S
C473 H459 0.960 1_565 S
C473 H460 0.961 . S
C473 H461 0.959 . S
C473 C471 1.561 . S
C474 C471 1.526 . S
C474 C475 1.396 . S
C474 C479 1.390 . S
C475 C469 1.465 1_565 S
C475 C474 1.396 . S
C475 C476 1.399 . S
C476 H462 0.929 . S
C476 C475 1.399 . S
C476 C477 1.385 . S
C477 H463 0.931 . S
C477 C476 1.385 . S
C477 C478 1.389 . S
C478 C477 1.389 . S
C478 C479 1.387 . S
C479 H464 0.930 . S
C479 C474 1.390 . S
C479 C478 1.387 . S
H480 C492 0.930 . S
H481 C494 0.930 . S
H482 C495 0.930 . S
H483 C499 0.959 . S
H484 C499 0.959 . S
H485 C499 0.961 . S
H486 C500 0.960 . S
H487 C500 0.961 . S
H488 C500 0.959 . S
H489 C503 0.929 . S
H490 C504 0.931 . S
H491 C506 0.930 . S
C492 H480 0.930 . S
C492 C493 1.399 . S
C492 C497 1.399 . S
C493 C492 1.399 . S
C493 C494 1.376 . S
C494 H481 0.930 . S
C494 C493 1.376 . S
C494 C495 1.388 . S
C495 H482 0.930 . S
C495 C494 1.388 . S
C495 C496 1.390 . S
C496 C495 1.390 . S
C496 C497 1.394 . S
C496 C502 1.465 . S
C497 C492 1.399 . S
C497 C496 1.394 . S
C497 C498 1.516 . S
C498 C497 1.516 . S
C498 C499 1.502 . S
C498 C500 1.561 . S
C498 C501 1.526 . S
C499 H483 0.959 . S
C499 H484 0.959 . S
C499 H485 0.961 . S
C499 C498 1.502 . S
C500 H486 0.960 . S
C500 H487 0.961 . S
C500 H488 0.959 . S
C500 C498 1.561 . S
C501 C498 1.526 . S
C501 C502 1.396 . S
C501 C506 1.390 . S
C502 C496 1.465 . S
C502 C501 1.396 . S
C502 C503 1.399 . S
C503 H489 0.929 . S
C503 C502 1.399 . S
C503 C504 1.385 . S
C504 H490 0.931 . S
C504 C503 1.385 . S
C504 C505 1.389 . S
C505 C504 1.389 . S
C505 C506 1.387 . S
C506 H491 0.930 . S
C506 C501 1.390 . S
C506 C505 1.387 . S
H507 C519 0.930 . S
H508 C521 0.930 . S
H509 C522 0.930 . S
H510 C526 0.959 . S
H511 C526 0.959 . S
H512 C526 0.961 . S
H513 C527 0.960 . S
H514 C527 0.961 . S
H515 C527 0.959 . S
H516 C530 0.929 . S
H517 C531 0.931 . S
H518 C533 0.930 . S
C519 H507 0.930 . S
C519 C520 1.399 . S
C519 C524 1.399 . S
C520 C519 1.399 . S
C520 C521 1.376 . S
C521 H508 0.930 . S
C521 C520 1.376 . S
C521 C522 1.388 . S
C522 H509 0.930 . S
C522 C521 1.388 . S
C522 C523 1.390 . S
C523 C522 1.390 . S
C523 C524 1.394 . S
C523 C529 1.465 . S
C524 C519 1.399 . S
C524 C523 1.394 . S
C524 C525 1.516 . S
C525 C524 1.516 . S
C525 C526 1.502 . S
C525 C527 1.561 . S
C525 C528 1.526 . S
C526 H510 0.959 . S
C526 H511 0.959 . S
C526 H512 0.961 . S
C526 C525 1.502 . S
C527 H513 0.960 . S
C527 H514 0.961 . S
C527 H515 0.959 . S
C527 C525 1.561 . S
C528 C525 1.526 . S
C528 C529 1.396 . S
C528 C533 1.390 . S
C529 C523 1.465 . S
C529 C528 1.396 . S
C529 C530 1.399 . S
C530 H516 0.929 . S
C530 C529 1.399 . S
C530 C531 1.385 . S
C531 H517 0.931 . S
C531 C530 1.385 . S
C531 C532 1.389 . S
C532 C531 1.389 . S
C532 C533 1.387 . S
C533 H518 0.930 . S
C533 C528 1.390 . S
C533 C532 1.387 . S
H534 C546 0.930 . S
H535 C548 0.930 . S
H536 C549 0.930 . S
H537 C553 0.959 . S
H538 C553 0.959 . S
H539 C553 0.961 . S
H540 C554 0.960 . S
H541 C554 0.961 . S
H542 C554 0.959 . S
H543 C557 0.929 . S
H544 C558 0.931 . S
H545 C560 0.930 . S
C546 H534 0.930 . S
C546 C547 1.399 . S
C546 C551 1.399 . S
C547 C546 1.399 . S
C547 C548 1.376 . S
C548 H535 0.930 . S
C548 C547 1.376 . S
C548 C549 1.388 . S
C549 H536 0.930 . S
C549 C548 1.388 . S
C549 C550 1.390 . S
C550 C549 1.390 . S
C550 C551 1.394 . S
C550 C556 1.465 . S
C551 C546 1.399 . S
C551 C550 1.394 . S
C551 C552 1.516 . S
C552 C551 1.516 . S
C552 C553 1.502 . S
C552 C554 1.561 . S
C552 C555 1.526 . S
C553 H537 0.959 . S
C553 H538 0.959 . S
C553 H539 0.961 . S
C553 C552 1.502 . S
C554 H540 0.960 . S
C554 H541 0.961 . S
C554 H542 0.959 . S
C554 C552 1.561 . S
C555 C552 1.526 . S
C555 C556 1.396 . S
C555 C560 1.390 . S
C556 C550 1.465 . S
C556 C555 1.396 . S
C556 C557 1.399 . S
C557 H543 0.929 . S
C557 C556 1.399 . S
C557 C558 1.385 . S
C558 H544 0.931 . S
C558 C557 1.385 . S
C558 C559 1.389 . S
C559 C558 1.389 . S
C559 C560 1.387 . S
C560 H545 0.930 . S
C560 C555 1.390 . S
C560 C559 1.387 . S
H561 C573 0.930 . S
H562 C575 0.930 . S
H563 C576 0.930 . S
H564 C580 0.959 . S
H565 C580 0.959 . S
H566 C580 0.961 . S
H567 C581 0.960 . S
H568 C581 0.961 . S
H569 C581 0.959 . S
H570 C584 0.929 . S
H571 C585 0.931 . S
H572 C587 0.930 . S
C573 H561 0.930 . S
C573 C574 1.399 . S
C573 C578 1.399 . S
C574 C573 1.399 . S
C574 C575 1.376 . S
C575 H562 0.930 . S
C575 C574 1.376 . S
C575 C576 1.388 . S
C576 H563 0.930 . S
C576 C575 1.388 . S
C576 C577 1.390 . S
C577 C576 1.390 . S
C577 C578 1.394 . S
C577 C583 1.465 . S
C578 C573 1.399 . S
C578 C577 1.394 . S
C578 C579 1.516 . S
C579 C578 1.516 . S
C579 C580 1.502 . S
C579 C581 1.561 . S
C579 C582 1.526 . S
C580 H564 0.959 . S
C580 H565 0.959 . S
C580 H566 0.961 . S
C580 C579 1.502 . S
C581 H567 0.960 . S
C581 H568 0.961 . S
C581 H569 0.959 . S
C581 C579 1.561 . S
C582 C579 1.526 . S
C582 C583 1.396 . S
C582 C587 1.390 . S
C583 C577 1.465 . S
C583 C582 1.396 . S
C583 C584 1.399 . S
C584 H570 0.929 . S
C584 C583 1.399 . S
C584 C585 1.385 . S
C585 H571 0.931 . S
C585 C584 1.385 . S
C585 C586 1.389 . S
C586 C585 1.389 . S
C586 C587 1.387 . S
C587 H572 0.930 . S
C587 C582 1.390 . S
C587 C586 1.387 . S
H588 C600 0.930 . S
H589 C602 0.930 . S
H590 C603 0.930 . S
H591 C607 0.959 . S
H592 C607 0.959 . S
H593 C607 0.961 . S
H594 C608 0.960 . S
H595 C608 0.961 . S
H596 C608 0.959 . S
H597 C611 0.929 . S
H598 C612 0.931 . S
H599 C614 0.930 . S
C600 H588 0.930 . S
C600 C601 1.399 . S
C600 C605 1.399 . S
C601 C600 1.399 . S
C601 C602 1.376 . S
C602 H589 0.930 . S
C602 C601 1.376 . S
C602 C603 1.388 . S
C603 H590 0.930 . S
C603 C602 1.388 . S
C603 C604 1.390 . S
C604 C603 1.390 . S
C604 C605 1.394 . S
C604 C610 1.465 . S
C605 C600 1.399 . S
C605 C604 1.394 . S
C605 C606 1.516 . S
C606 C605 1.516 . S
C606 C607 1.502 . S
C606 C608 1.561 . S
C606 C609 1.526 . S
C607 H591 0.959 . S
C607 H592 0.959 . S
C607 H593 0.961 . S
C607 C606 1.502 . S
C608 H594 0.960 . S
C608 H595 0.961 . S
C608 H596 0.959 . S
C608 C606 1.561 . S
C609 C606 1.526 . S
C609 C610 1.396 . S
C609 C614 1.390 . S
C610 C604 1.465 . S
C610 C609 1.396 . S
C610 C611 1.399 . S
C611 H597 0.929 . S
C611 C610 1.399 . S
C611 C612 1.385 . S
C612 H598 0.931 . S
C612 C611 1.385 . S
C612 C613 1.389 . S
C613 C612 1.389 . S
C613 C614 1.387 . S
C614 H599 0.930 . S
C614 C609 1.390 . S
C614 C613 1.387 . S
H615 C627 0.930 . S
H616 C629 0.930 . S
H617 C630 0.930 . S
H618 C634 0.959 . S
H619 C634 0.959 . S
H620 C634 0.961 . S
H621 C635 0.960 . S
H622 C635 0.961 . S
H623 C635 0.959 . S
H624 C638 0.929 . S
H625 C639 0.931 . S
H626 C641 0.930 . S
C627 H615 0.930 . S
C627 C628 1.399 . S
C627 C632 1.399 . S
C628 C627 1.399 . S
C628 C629 1.376 . S
C629 H616 0.930 . S
C629 C628 1.376 . S
C629 C630 1.388 . S
C630 H617 0.930 . S
C630 C629 1.388 . S
C630 C631 1.390 . S
C631 C630 1.390 . S
C631 C632 1.394 . S
C631 C637 1.465 . S
C632 C627 1.399 . S
C632 C631 1.394 . S
C632 C633 1.516 . S
C633 C632 1.516 . S
C633 C634 1.502 . S
C633 C635 1.561 . S
C633 C636 1.526 . S
C634 H618 0.959 . S
C634 H619 0.959 . S
C634 H620 0.961 . S
C634 C633 1.502 . S
C635 H621 0.960 . S
C635 H622 0.961 . S
C635 H623 0.959 . S
C635 C633 1.561 . S
C636 C633 1.526 . S
C636 C637 1.396 . S
C636 C641 1.390 . S
C637 C631 1.465 . S
C637 C636 1.396 . S
C637 C638 1.399 . S
C638 H624 0.929 . S
C638 C637 1.399 . S
C638 C639 1.385 . S
C639 H625 0.931 . S
C639 C638 1.385 . S
C639 C640 1.389 . S
C640 C639 1.389 . S
C640 C641 1.387 . S
C641 H626 0.930 . S
C641 C636 1.390 . S
C641 C640 1.387 . S
H642 C654 0.930 . S
H643 C656 0.930 . S
H644 C657 0.930 . S
H645 C661 0.959 . S
H646 C661 0.959 . S
H647 C661 0.961 . S
H648 C662 0.960 . S
H649 C662 0.961 . S
H650 C662 0.959 . S
H651 C665 0.929 . S
H652 C666 0.931 . S
H653 C668 0.930 . S
C654 H642 0.930 . S
C654 C655 1.399 . S
C654 C659 1.399 . S
C655 C654 1.399 . S
C655 C656 1.376 . S
C656 H643 0.930 . S
C656 C655 1.376 . S
C656 C657 1.388 . S
C657 H644 0.930 . S
C657 C656 1.388 . S
C657 C658 1.390 . S
C658 C657 1.390 . S
C658 C659 1.394 . S
C658 C664 1.465 . S
C659 C654 1.399 . S
C659 C658 1.394 . S
C659 C660 1.516 . S
C660 C659 1.516 . S
C660 C661 1.502 . S
C660 C662 1.561 . S
C660 C663 1.526 . S
C661 H645 0.959 . S
C661 H646 0.959 . S
C661 H647 0.961 . S
C661 C660 1.502 . S
C662 H648 0.960 . S
C662 H649 0.961 . S
C662 H650 0.959 . S
C662 C660 1.561 . S
C663 C660 1.526 . S
C663 C664 1.396 . S
C663 C668 1.390 . S
C664 C658 1.465 . S
C664 C663 1.396 . S
C664 C665 1.399 . S
C665 H651 0.929 . S
C665 C664 1.399 . S
C665 C666 1.385 . S
C666 H652 0.931 . S
C666 C665 1.385 . S
C666 C667 1.389 . S
C667 C666 1.389 . S
C667 C668 1.387 . S
C668 H653 0.930 . S
C668 C663 1.390 . S
C668 C667 1.387 . S
H669 C681 0.930 . S
H670 C683 0.930 . S
H671 C684 0.930 . S
H672 C688 0.959 . S
H673 C688 0.959 . S
H674 C688 0.961 . S
H675 C689 0.960 . S
H676 C689 0.961 . S
H677 C689 0.959 . S
H678 C692 0.929 . S
H679 C693 0.931 . S
H680 C695 0.930 . S
C681 H669 0.930 . S
C681 C682 1.399 . S
C681 C686 1.399 . S
C682 C681 1.399 . S
C682 C683 1.376 . S
C683 H670 0.930 . S
C683 C682 1.376 . S
C683 C684 1.388 . S
C684 H671 0.930 . S
C684 C683 1.388 . S
C684 C685 1.390 . S
C685 C684 1.390 . S
C685 C686 1.394 . S
C685 C691 1.465 . S
C686 C681 1.399 . S
C686 C685 1.394 . S
C686 C687 1.516 . S
C687 C686 1.516 . S
C687 C688 1.502 . S
C687 C689 1.561 . S
C687 C690 1.526 . S
C688 H672 0.959 . S
C688 H673 0.959 . S
C688 H674 0.961 . S
C688 C687 1.502 . S
C689 H675 0.960 . S
C689 H676 0.961 . S
C689 H677 0.959 . S
C689 C687 1.561 . S
C690 C687 1.526 . S
C690 C691 1.396 . S
C690 C695 1.390 . S
C691 C685 1.465 . S
C691 C690 1.396 . S
C691 C692 1.399 . S
C692 H678 0.929 . S
C692 C691 1.399 . S
C692 C693 1.385 . S
C693 H679 0.931 . S
C693 C692 1.385 . S
C693 C694 1.389 . S
C694 C693 1.389 . S
C694 C695 1.387 . S
C695 H680 0.930 . S
C695 C690 1.390 . S
C695 C694 1.387 . S
H696 C708 0.930 . S
H697 C710 0.930 . S
H698 C711 0.930 . S
H699 C715 0.959 . S
H700 C715 0.959 . S
H701 C715 0.961 . S
H702 C716 0.960 . S
H703 C716 0.961 . S
H704 C716 0.959 . S
H705 C719 0.929 . S
H706 C720 0.931 . S
H707 C722 0.930 . S
C708 H696 0.930 . S
C708 C709 1.399 . S
C708 C713 1.399 . S
C709 C708 1.399 . S
C709 C710 1.376 . S
C710 H697 0.930 . S
C710 C709 1.376 . S
C710 C711 1.388 . S
C711 H698 0.930 . S
C711 C710 1.388 . S
C711 C712 1.390 . S
C712 C711 1.390 . S
C712 C713 1.394 . S
C712 C718 1.465 . S
C713 C708 1.399 . S
C713 C712 1.394 . S
C713 C714 1.516 . S
C714 C713 1.516 . S
C714 C715 1.502 . S
C714 C716 1.561 . S
C714 C717 1.526 . S
C715 H699 0.959 . S
C715 H700 0.959 . S
C715 H701 0.961 . S
C715 C714 1.502 . S
C716 H702 0.960 . S
C716 H703 0.961 . S
C716 H704 0.959 . S
C716 C714 1.561 . S
C717 C714 1.526 . S
C717 C718 1.396 . S
C717 C722 1.390 . S
C718 C712 1.465 . S
C718 C717 1.396 . S
C718 C719 1.399 . S
C719 H705 0.929 . S
C719 C718 1.399 . S
C719 C720 1.385 . S
C720 H706 0.931 . S
C720 C719 1.385 . S
C720 C721 1.389 . S
C721 C720 1.389 . S
C721 C722 1.387 . S
C722 H707 0.930 . S
C722 C717 1.390 . S
C722 C721 1.387 . S
H723 C735 0.930 . S
H724 C737 0.930 . S
H725 C738 0.930 . S
H726 C742 0.959 . S
H727 C742 0.959 . S
H728 C742 0.961 . S
H729 C743 0.960 . S
H730 C743 0.961 . S
H731 C743 0.959 . S
H732 C746 0.929 . S
H733 C747 0.931 . S
H734 C749 0.930 . S
C735 H723 0.930 . S
C735 C736 1.399 . S
C735 C740 1.399 . S
C736 C735 1.399 . S
C736 C737 1.376 . S
C737 H724 0.930 . S
C737 C736 1.376 . S
C737 C738 1.388 . S
C738 H725 0.930 . S
C738 C737 1.388 . S
C738 C739 1.390 . S
C739 C738 1.390 . S
C739 C740 1.394 . S
C739 C745 1.465 . S
C740 C735 1.399 . S
C740 C739 1.394 . S
C740 C741 1.516 . S
C741 C740 1.516 . S
C741 C742 1.502 . S
C741 C743 1.561 . S
C741 C744 1.526 . S
C742 H726 0.959 . S
C742 H727 0.959 . S
C742 H728 0.961 . S
C742 C741 1.502 . S
C743 H729 0.960 . S
C743 H730 0.961 . S
C743 H731 0.959 . S
C743 C741 1.561 . S
C744 C741 1.526 . S
C744 C745 1.396 . S
C744 C749 1.390 . S
C745 C739 1.465 . S
C745 C744 1.396 . S
C745 C746 1.399 . S
C746 H732 0.929 . S
C746 C745 1.399 . S
C746 C747 1.385 . S
C747 H733 0.931 . S
C747 C746 1.385 . S
C747 C748 1.389 . S
C748 C747 1.389 . S
C748 C749 1.387 . S
C749 H734 0.930 . S
C749 C744 1.390 . S
C749 C748 1.387 . S
H750 C762 0.930 . S
H751 C764 0.930 . S
H752 C765 0.930 . S
H753 C769 0.959 . S
H754 C769 0.959 . S
H755 C769 0.961 . S
H756 C770 0.960 . S
H757 C770 0.961 . S
H758 C770 0.959 . S
H759 C773 0.929 . S
H760 C774 0.931 . S
H761 C776 0.930 . S
C762 H750 0.930 . S
C762 C763 1.399 . S
C762 C767 1.399 . S
C763 C762 1.399 . S
C763 C764 1.376 . S
C764 H751 0.930 . S
C764 C763 1.376 . S
C764 C765 1.388 . S
C765 H752 0.930 . S
C765 C764 1.388 . S
C765 C766 1.390 . S
C766 C765 1.390 . S
C766 C767 1.394 . S
C766 C772 1.465 . S
C767 C762 1.399 . S
C767 C766 1.394 . S
C767 C768 1.516 . S
C768 C767 1.516 . S
C768 C769 1.502 . S
C768 C770 1.561 . S
C768 C771 1.526 . S
C769 H753 0.959 . S
C769 H754 0.959 . S
C769 H755 0.961 . S
C769 C768 1.502 . S
C770 H756 0.960 . S
C770 H757 0.961 . S
C770 H758 0.959 . S
C770 C768 1.561 . S
C771 C768 1.526 . S
C771 C772 1.396 . S
C771 C776 1.390 . S
C772 C766 1.465 . S
C772 C771 1.396 . S
C772 C773 1.399 . S
C773 H759 0.929 . S
C773 C772 1.399 . S
C773 C774 1.385 . S
C774 H760 0.931 . S
C774 C773 1.385 . S
C774 C775 1.389 . S
C775 C774 1.389 . S
C775 C776 1.387 . S
C776 H761 0.930 . S
C776 C771 1.390 . S
C776 C775 1.387 . S
H777 C789 0.930 . S
H778 C791 0.930 . S
H779 C792 0.930 . S
H780 C796 0.959 . S
H781 C796 0.959 . S
H782 C796 0.961 . S
H783 C797 0.960 . S
H784 C797 0.961 . S
H785 C797 0.959 . S
H786 C800 0.929 . S
H787 C801 0.931 . S
H788 C803 0.930 . S
C789 H777 0.930 . S
C789 C790 1.399 . S
C789 C794 1.399 . S
C790 C789 1.399 . S
C790 C791 1.376 . S
C791 H778 0.930 . S
C791 C790 1.376 . S
C791 C792 1.388 . S
C792 H779 0.930 . S
C792 C791 1.388 . S
C792 C793 1.390 . S
C793 C792 1.390 . S
C793 C794 1.394 . S
C793 C799 1.465 . S
C794 C789 1.399 . S
C794 C793 1.394 . S
C794 C795 1.516 . S
C795 C794 1.516 . S
C795 C796 1.502 . S
C795 C797 1.561 . S
C795 C798 1.526 . S
C796 H780 0.959 . S
C796 H781 0.959 . S
C796 H782 0.961 . S
C796 C795 1.502 . S
C797 H783 0.960 . S
C797 H784 0.961 . S
C797 H785 0.959 . S
C797 C795 1.561 . S
C798 C795 1.526 . S
C798 C799 1.396 . S
C798 C803 1.390 . S
C799 C793 1.465 . S
C799 C798 1.396 . S
C799 C800 1.399 . S
C800 H786 0.929 . S
C800 C799 1.399 . S
C800 C801 1.385 . S
C801 H787 0.931 . S
C801 C800 1.385 . S
C801 C802 1.389 . S
C802 C801 1.389 . S
C802 C803 1.387 . S
C803 H788 0.930 . S
C803 C798 1.390 . S
C803 C802 1.387 . S
C277 N134 0.524 . S
C289 N2 0.436 . S
C304 N35 0.559 . S
C316 N167 0.416 . S
C331 N68 0.653 . S
C343 N200 0.525 . S
C358 N101 0.533 . S
C370 N233 0.649 . S
C385 C21 1.027 . S
C397 C219 0.981 . S
C412 C54 1.007 . S
C424 C252 0.974 . S
C439 C153 1.024 . S
C451 C87 0.985 . S
C466 C186 1.023 . S
C478 C120 0.963 . S
C493 C249 0.542 . S
C505 C18 0.434 . S
C520 C51 0.392 . S
C532 C150 0.533 . S
C547 C183 0.537 . S
C559 C84 0.476 . S
C574 C216 0.308 . S
C586 C117 0.485 . S
C601 C7 1.842 . S
C613 N46 1.935 . S
C628 C40 1.907 . S
C640 N79 1.956 . S
C655 N112 1.933 . S
C667 C73 1.844 . S
C682 N13 1.941 . S
C694 C106 1.880 . S
C709 C139 1.905 . S
C721 N244 1.958 . S
C736 N145 1.949 . S
C748 C172 1.867 . S
C763 C205 1.845 . S
C775 N178 1.939 . S
C790 C238 1.842 . S
C802 N211 1.937 . S
