# Generated by pormake.
# Topology ilc, (8)-cn, num edge types: 1
# Building blocks:
#     Node 0, Type 0, BuildingBlock: TAGTUT_clean_sbu_3, # of connection points: 8
#     Node 1, Type 0, BuildingBlock: TAGTUT_clean_sbu_3, # of connection points: 8
#     Node 2, Type 0, BuildingBlock: TAGTUT_clean_sbu_3, # of connection points: 8
#     Edge 3, Type (0, 0), BuildingBlock: XUDNAN_clean_linker_2, # of connection points: 2
#     Edge 4, Type (0, 0), BuildingBlock: XUDNAN_clean_linker_2, # of connection points: 2
#     Edge 5, Type (0, 0), BuildingBlock: XUDNAN_clean_linker_2, # of connection points: 2
#     Edge 6, Type (0, 0), BuildingBlock: XUDNAN_clean_linker_2, # of connection points: 2
#     Edge 7, Type (0, 0), BuildingBlock: XUDNAN_clean_linker_2, # of connection points: 2
#     Edge 8, Type (0, 0), BuildingBlock: XUDNAN_clean_linker_2, # of connection points: 2
#     Edge 9, Type (0, 0), BuildingBlock: XUDNAN_clean_linker_2, # of connection points: 2
#     Edge 10, Type (0, 0), BuildingBlock: XUDNAN_clean_linker_2, # of connection points: 2
#     Edge 11, Type (0, 0), BuildingBlock: XUDNAN_clean_linker_2, # of connection points: 2
#     Edge 12, Type (0, 0), BuildingBlock: XUDNAN_clean_linker_2, # of connection points: 2
#     Edge 13, Type (0, 0), BuildingBlock: XUDNAN_clean_linker_2, # of connection points: 2
#     Edge 14, Type (0, 0), BuildingBlock: XUDNAN_clean_linker_2, # of connection points: 2
# Relax obj value: 0.199
# Max RMSD: 0.155
# Mean RMSD: 0.155
data_MOF--net-ilc--node1-TAGTUT_clean_sbu_3--edge1-XUDNAN_clean_linker_2
_symmetry_space_group_name_H-M    P1
_symmetry_Int_Tables_number       1
_symmetry_cell_setting            triclinic
loop_
_symmetry_equiv_pos_as_xyz
'x, y, z'
_cell_length_a     26.16027
_cell_length_b     26.244069
_cell_length_c     14.469781
_cell_angle_alpha  92.723753
_cell_angle_beta   86.762014
_cell_angle_gamma 132.96119
loop_
_atom_site_label
_atom_site_type_symbol
_atom_site_fract_x
_atom_site_fract_y
_atom_site_fract_z
_atom_type_partial_charge
C0 C 0.11282 0.1495 0.10691 0.0
C1 C 0.05741 0.99631 0.28767 0.0
C2 C 0.09326 0.88479 0.15738 0.0
Mg3 Mg 0.05388 0.12524 0.91165 0.0
Mg4 Mg 0.9473 0.9814 0.78914 0.0
O5 O 0.98837 0.02028 0.90223 0.0
Mg6 Mg 1.0088 0.99224 0.00937 0.0
O7 O 0.03699 0.97284 0.11853 0.0
Mg8 Mg 0.14936 0.04862 0.11211 0.0
Mg9 Mg 0.97445 0.88472 0.189 0.0
C10 C 0.92423 0.8534 0.85506 0.0
O11 O 0.89693 0.93218 0.08287 0.0
O12 O 0.07141 0.14453 0.75662 0.0
O13 O 0.87205 0.84426 0.16008 0.0
O14 O 0.95164 0.10628 0.89258 0.0
O15 O 0.04084 0.04594 0.70713 0.0
O16 O 0.89252 0.01622 0.78973 0.0
O17 O 0.12289 0.04578 0.95701 0.0
O18 O 0.14836 0.13773 0.899 0.0
C19 C 0.16583 0.10406 0.91447 0.0
C20 C 0.08278 0.11203 0.7058 0.0
O21 O 0.96217 0.88738 0.92686 0.0
O22 O 0.05426 1.00069 0.20078 0.0
O23 O 0.90674 0.87723 0.80271 0.0
O24 O 0.13774 0.95035 0.13683 0.0
O25 O 1.00941 0.93684 0.32354 0.0
O26 O 1.02719 0.84821 0.16623 0.0
O27 O 0.05311 0.103 0.06916 0.0
O28 O 0.15287 0.13851 0.11875 0.0
C29 C 0.90172 0.0652 0.83473 0.0
C30 C 0.85476 0.87616 0.13136 0.0
C31 C 0.80514 0.46859 0.46227 0.0
C32 C 0.731 0.26055 0.58641 0.0
C33 C 0.73866 0.1879 0.38474 0.0
Mg34 Mg 0.7419 0.46995 0.27871 0.0
Mg35 Mg 0.58697 0.33137 0.19203 0.0
O36 O 0.66948 0.36737 0.24696 0.0
Mg37 Mg 0.68242 0.32441 0.34408 0.0
O38 O 0.7063 0.28877 0.44084 0.0
Mg39 Mg 0.81832 0.35254 0.40273 0.0
Mg40 Mg 0.63144 0.18529 0.46977 0.0
C41 C 0.56858 0.19638 0.19045 0.0
O42 O 0.5801 0.27493 0.43426 0.0
O43 O 0.73469 0.49595 0.13403 0.0
O44 O 0.53939 0.17279 0.48579 0.0
O45 O 0.65412 0.47015 0.3246 0.0
O46 O 0.63653 0.39807 0.07359 0.0
O47 O 0.55253 0.36925 0.28448 0.0
O48 O 0.78305 0.36628 0.26961 0.0
O49 O 0.82348 0.46671 0.21663 0.0
C50 C 0.82761 0.421 0.22065 0.0
C51 C 0.69984 0.45643 0.06459 0.0
O52 O 0.6171 0.22284 0.24892 0.0
O53 O 0.73354 0.28728 0.51194 0.0
O54 O 0.54669 0.22599 0.17035 0.0
O55 O 0.79145 0.24944 0.35535 0.0
O56 O 0.67331 0.19909 0.60372 0.0
O57 O 0.67689 0.1615 0.36858 0.0
O58 O 0.7468 0.43311 0.42167 0.0
O59 O 0.83804 0.44836 0.45926 0.0
C60 C 0.59474 0.43559 0.28711 0.0
C61 C 0.53444 0.21802 0.48021 0.0
C62 C 0.44583 0.81067 0.79428 0.0
C63 C 0.37079 0.65379 0.94691 0.0
C64 C 0.45674 0.57345 0.8092 0.0
Mg65 Mg 0.38228 0.79717 0.61485 0.0
Mg66 Mg 0.23861 0.6501 0.52133 0.0
O67 O 0.32648 0.69777 0.56919 0.0
Mg68 Mg 0.34505 0.66161 0.67094 0.0
O69 O 0.37936 0.63792 0.76814 0.0
Mg70 Mg 0.49188 0.72144 0.76475 0.0
Mg71 Mg 0.31784 0.54923 0.83418 0.0
C72 C 0.24629 0.53291 0.50955 0.0
O73 O 0.23557 0.59485 0.75042 0.0
O74 O 0.37192 0.82509 0.47819 0.0
O75 O 0.21877 0.50072 0.77529 0.0
O76 O 0.28085 0.77899 0.65315 0.0
O77 O 0.27399 0.72628 0.41704 0.0
O78 O 0.1947 0.66657 0.63235 0.0
O79 O 0.45407 0.71962 0.61508 0.0
O80 O 0.47748 0.81093 0.55582 0.0
C81 C 0.49175 0.77308 0.56298 0.0
C82 C 0.32651 0.79252 0.41563 0.0
O83 O 0.29475 0.56482 0.57013 0.0
O84 O 0.40753 0.66404 0.87595 0.0
O85 O 0.21547 0.55341 0.48907 0.0
O86 O 0.49154 0.63062 0.76349 0.0
O87 O 0.31647 0.59102 0.96464 0.0
O88 O 0.39266 0.53669 0.83732 0.0
O89 O 0.38928 0.7625 0.75245 0.0
O90 O 0.49259 0.80824 0.79989 0.0
C91 C 0.21761 0.72762 0.62916 0.0
C92 C 0.19764 0.53292 0.78264 0.0
H93 H 0.15684 0.2248 0.59653 0.0
H94 H 0.16123 0.08143 0.71693 0.0
H95 H 0.25276 0.11498 0.60806 0.0
H96 H 0.115 0.18274 0.43955 0.0
H97 H 0.16455 0.23614 0.34061 0.0
H98 H 0.17931 0.27666 0.45144 0.0
H99 H 0.30779 0.34447 0.43446 0.0
H100 H 0.29739 0.30538 0.32268 0.0
H101 H 0.33931 0.30172 0.41245 0.0
H102 H 0.24053 0.07045 0.46215 0.0
H103 H 0.13799 0.98137 0.36958 0.0
H104 H 0.12653 0.13027 0.29767 0.0
C105 C 0.18094 0.20407 0.6005 0.0
C106 C 0.15192 0.15006 0.66208 0.0
C107 C 0.1828 0.12298 0.66936 0.0
C108 C 0.23558 0.14242 0.60717 0.0
C109 C 0.249 0.18001 0.52974 0.0
C110 C 0.22748 0.21654 0.52963 0.0
C111 C 0.22459 0.23045 0.43088 0.0
C112 C 0.16732 0.23144 0.41509 0.0
C113 C 0.29647 0.29951 0.39833 0.0
C114 C 0.21159 0.16967 0.3848 0.0
C115 C 0.23898 0.15024 0.43715 0.0
C116 C 0.21839 0.08515 0.42286 0.0
C117 C 0.15897 0.03398 0.37227 0.0
C118 C 0.12439 0.05008 0.33088 0.0
C119 C 0.15413 0.11907 0.33003 0.0
H120 H 0.723 0.22843 0.76586 0.0
H121 H 0.85629 0.39568 0.57075 0.0
H122 H 0.88399 0.4803 0.69163 0.0
H123 H 0.64251 0.26565 0.86568 0.0
H124 H 0.64279 0.24742 0.98414 0.0
H125 H 0.65262 0.2069 0.89202 0.0
H126 H 0.7733 0.25997 0.96058 0.0
H127 H 0.75848 0.29767 0.05311 0.0
H128 H 0.83814 0.35155 0.98274 0.0
H129 H 0.84742 0.52853 0.80316 0.0
H130 H 0.78965 0.5478 0.92302 0.0
H131 H 0.7013 0.35699 0.05591 0.0
C132 C 0.76166 0.28342 0.75028 0.0
C133 C 0.78218 0.3058 0.65818 0.0
C134 C 0.83527 0.37776 0.64014 0.0
C135 C 0.8513 0.42602 0.70808 0.0
C136 C 0.81863 0.40088 0.79481 0.0
C137 C 0.77994 0.33224 0.81863 0.0
C138 C 0.74661 0.31728 0.91404 0.0
C139 C 0.66654 0.25577 0.91385 0.0
C140 C 0.78097 0.30584 0.98186 0.0
C141 C 0.76538 0.38498 0.93454 0.0
C142 C 0.80698 0.43307 0.86541 0.0
C143 C 0.8175 0.49288 0.86015 0.0
C144 C 0.78414 0.50314 0.92731 0.0
C145 C 0.74066 0.45305 0.99663 0.0
C146 C 0.73425 0.39564 0.00255 0.0
H147 H 0.27096 0.65496 0.98369 0.0
H148 H 0.49249 0.77986 0.0036 0.0
H149 H 0.50424 0.87122 0.08694 0.0
H150 H 0.27689 0.81648 0.01449 0.0
H151 H 0.19367 0.75077 0.07109 0.0
H152 H 0.22111 0.72856 0.97179 0.0
H153 H 0.18973 0.63132 0.08748 0.0
H154 H 0.17404 0.66648 0.18072 0.0
H155 H 0.23986 0.66268 0.19013 0.0
H156 H 0.48958 0.93149 0.19782 0.0
H157 H 0.45224 0.91684 0.35883 0.0
H158 H 0.23706 0.75504 0.28386 0.0
C159 C 0.32207 0.70299 0.00375 0.0
C160 C 0.38056 0.71096 0.98973 0.0
C161 C 0.44707 0.77341 0.01499 0.0
C162 C 0.45423 0.82616 0.06021 0.0
C163 C 0.39478 0.81637 0.07677 0.0
C164 C 0.32952 0.75547 0.04955 0.0
C165 C 0.27161 0.74609 0.09983 0.0
C166 C 0.23873 0.7612 0.0355 0.0
C167 C 0.21573 0.67247 0.14204 0.0
C168 C 0.31359 0.80332 0.17186 0.0
C169 C 0.38489 0.84897 0.14961 0.0
C170 C 0.43448 0.89649 0.2146 0.0
C171 C 0.41259 0.88761 0.30708 0.0
C172 C 0.34203 0.83061 0.33179 0.0
C173 C 0.29149 0.79675 0.26408 0.0
H174 H 0.26041 0.8528 0.57112 0.0
H175 H 0.10993 0.6302 0.51397 0.0
H176 H 0.07347 0.64883 0.37676 0.0
H177 H 0.13854 0.87231 0.49646 0.0
H178 H 0.21301 0.95993 0.46043 0.0
H179 H 0.22002 0.92124 0.55251 0.0
H180 H 0.32786 0.95399 0.45464 0.0
H181 H 0.3119 0.98548 0.36314 0.0
H182 H 0.31262 0.91814 0.33905 0.0
H183 H 0.05364 0.69093 0.2418 0.0
H184 H 0.03786 0.75119 0.13789 0.0
H185 H 0.19838 0.9463 0.28045 0.0
C186 C 0.21957 0.80787 0.53012 0.0
C187 C 0.18943 0.73998 0.55378 0.0
C188 C 0.13495 0.68289 0.49824 0.0
C189 C 0.11393 0.69292 0.41912 0.0
C190 C 0.14647 0.76038 0.39598 0.0
C191 C 0.19679 0.81675 0.4511 0.0
C192 C 0.21857 0.88294 0.41474 0.0
C193 C 0.19628 0.91092 0.48509 0.0
C194 C 0.29743 0.93836 0.39161 0.0
C195 C 0.17589 0.85572 0.32793 0.0
C196 C 0.13423 0.78461 0.31881 0.0
C197 C 0.08638 0.74669 0.24818 0.0
C198 C 0.07825 0.78153 0.18857 0.0
C199 C 0.11814 0.85397 0.19865 0.0
C200 C 0.16909 0.8916 0.26794 0.0
H201 H 0.12268 0.41432 0.43074 0.0
H202 H 0.3439 0.53061 0.4455 0.0
H203 H 0.33263 0.45523 0.32341 0.0
H204 H 0.06786 0.24647 0.40568 0.0
H205 H 0.9997 0.21059 0.32567 0.0
H206 H 1.0243 0.27764 0.40681 0.0
H207 H 0.04714 0.35343 0.27476 0.0
H208 H 1.02291 0.28731 0.19152 0.0
H209 H 0.10677 0.37496 0.1804 0.0
H210 H 0.30119 0.37407 0.19979 0.0
H211 H 0.24832 0.26816 0.10805 0.0
H212 H 0.04201 0.18933 0.18047 0.0
C213 C 0.16849 0.42334 0.40855 0.0
C214 C 0.23449 0.47878 0.44786 0.0
C215 C 0.29293 0.48846 0.41749 0.0
C216 C 0.28723 0.44658 0.34684 0.0
C217 C 0.2224 0.39413 0.30767 0.0
C218 C 0.16332 0.38026 0.33935 0.0
C219 C 0.09895 0.31524 0.2908 0.0
C220 C 0.04454 0.25909 0.36141 0.0
C221 C 0.06707 0.33387 0.23084 0.0
C222 C 0.13116 0.29339 0.23019 0.0
C223 C 0.20291 0.34247 0.2381 0.0
C224 C 0.24545 0.33528 0.1916 0.0
C225 C 0.21448 0.2745 0.14013 0.0
C226 C 0.14082 0.21966 0.13714 0.0
C227 C 0.09842 0.23046 0.17995 0.0
H228 H 0.61298 0.89159 0.47357 0.0
H229 H 0.47818 0.66742 0.49151 0.0
H230 H 0.54786 0.67026 0.36747 0.0
H231 H 0.64984 0.90573 0.22306 0.0
H232 H 0.74074 0.98447 0.231 0.0
H233 H 0.67792 0.96638 0.31743 0.0
H234 H 0.74974 0.97827 0.44695 0.0
H235 H 0.81345 0.99766 0.36135 0.0
H236 H 0.77249 0.92694 0.44027 0.0
H237 H 0.63009 0.69438 0.24387 0.0
H238 H 0.73365 0.74159 0.14553 0.0
H239 H 0.82326 0.95149 0.20738 0.0
C240 C 0.59836 0.84328 0.4512 0.0
C241 C 0.53982 0.77923 0.49291 0.0
C242 C 0.52292 0.71727 0.46196 0.0
C243 C 0.56178 0.71811 0.39044 0.0
C244 C 0.61848 0.78147 0.35034 0.0
C245 C 0.63801 0.84328 0.38053 0.0
C246 C 0.70524 0.90454 0.32988 0.0
C247 C 0.69265 0.94251 0.2719 0.0
C248 C 0.76369 0.9548 0.39871 0.0
C249 C 0.72054 0.86721 0.26793 0.0
C250 C 0.66849 0.79603 0.2798 0.0
C251 C 0.6711 0.74999 0.23367 0.0
C252 C 0.73 0.77726 0.17734 0.0
C253 C 0.78615 0.85003 0.16746 0.0
C254 C 0.78031 0.89557 0.21128 0.0
H255 H 0.85587 0.25636 0.49136 0.0
H256 H 0.64234 0.05889 0.46235 0.0
H257 H 0.65584 1.01269 0.59386 0.0
H258 H 0.93005 0.19094 0.54066 0.0
H259 H 0.98911 0.25601 0.62612 0.0
H260 H 0.96046 0.27661 0.53741 0.0
H261 H 0.9143 0.31247 0.66097 0.0
H262 H 0.94399 0.29308 0.75044 0.0
H263 H 0.85408 0.2523 0.75106 0.0
H264 H 0.69553 0.98378 0.71852 0.0
H265 H 0.76095 0.97191 0.81695 0.0
H266 H 0.94808 0.18824 0.77117 0.0
C267 C 0.81165 0.2036 0.51313 0.0
C268 C 0.74772 0.16144 0.46599 0.0
C269 C 0.69155 0.09259 0.49721 0.0
C270 C 0.69863 0.06593 0.57243 0.0
C271 C 0.76199 0.10886 0.61748 0.0
C272 C 0.81751 0.17637 0.58926 0.0
C273 C 0.88124 0.21016 0.64638 0.0
C274 C 0.94389 0.23479 0.58391 0.0
C275 C 0.89948 0.27059 0.7057 0.0
C276 C 0.85434 0.14974 0.70698 0.0
C277 C 0.78475 0.09238 0.69076 0.0
C278 C 0.74958 0.02877 0.733 0.0
C279 C 0.78704 0.02261 0.78965 0.0
C280 C 0.85912 0.0796 0.80439 0.0
C281 C 0.89242 0.14462 0.76468 0.0
H282 H 0.74562 0.52326 0.51427 0.0
H283 H 0.92963 0.55509 0.54913 0.0
H284 H 0.97166 0.64628 0.66564 0.0
H285 H 0.83862 0.707 0.53069 0.0
H286 H 0.76755 0.69252 0.59107 0.0
H287 H 0.74967 0.62667 0.5134 0.0
H288 H 0.68073 0.53718 0.64607 0.0
H289 H 0.69974 0.60326 0.72468 0.0
H290 H 0.7232 0.55539 0.75287 0.0
H291 H 0.99243 0.73119 0.78524 0.0
H292 H 1.00294 0.82097 0.87317 0.0
H293 H 0.81244 0.74369 0.75335 0.0
C294 C 0.79496 0.54972 0.54588 0.0
C295 C 0.83331 0.53036 0.523 0.0
C296 C 0.8982 0.56747 0.56575 0.0
C297 C 0.92267 0.61948 0.63279 0.0
C298 C 0.88266 0.63554 0.65611 0.0
C299 C 0.82114 0.60319 0.61232 0.0
C300 C 0.79109 0.6343 0.64609 0.0
C301 C 0.78649 0.66708 0.56552 0.0
C302 C 0.71943 0.57924 0.69533 0.0
C303 C 0.84578 0.68949 0.71441 0.0
C304 C 0.89706 0.68786 0.72104 0.0
C305 C 0.95275 0.73325 0.7802 0.0
C306 C 0.95794 0.78371 0.83079 0.0
C307 C 0.90861 0.78958 0.82064 0.0
C308 C 0.85094 0.74051 0.76307 0.0
H309 H 0.43014 0.10714 0.59529 0.0
H310 H 0.51991 0.31156 0.51138 0.0
H311 H 0.44768 0.30844 0.63199 0.0
H312 H 0.30344 1.00487 0.65607 0.0
H313 H 0.2574 0.03193 0.63755 0.0
H314 H 0.23953 0.98574 0.74094 0.0
H315 H 0.39717 0.06596 0.77612 0.0
H316 H 0.33493 0.04703 0.86439 0.0
H317 H 0.41626 0.13548 0.84621 0.0
H318 H 0.37194 0.28768 0.76405 0.0
H319 H 0.27382 0.23937 0.87269 0.0
H320 H 0.21852 0.0411 0.8646 0.0
C321 C 0.43423 0.15108 0.60158 0.0
C322 C 0.48156 0.20994 0.54298 0.0
C323 C 0.48462 0.26591 0.55435 0.0
C324 C 0.44434 0.26506 0.62388 0.0
C325 C 0.40068 0.20783 0.68225 0.0
C326 C 0.39376 0.15096 0.67072 0.0
C327 C 0.33913 0.09443 0.74012 0.0
C328 C 0.2813 0.02519 0.6907 0.0
C329 C 0.37396 0.08519 0.81087 0.0
C330 C 0.3124 0.12626 0.7868 0.0
C331 C 0.35231 0.19348 0.75587 0.0
C332 C 0.34027 0.23515 0.78871 0.0
C333 C 0.28383 0.20673 0.85076 0.0
C334 C 0.23674 0.13559 0.87662 0.0
C335 C 0.25322 0.09555 0.84704 0.0
H336 H 0.48363 0.37592 0.17517 0.0
H337 H 0.69491 0.57147 0.22432 0.0
H338 H 0.68836 0.623 0.09191 0.0
H339 H 0.49335 0.38432 0.92249 0.0
H340 H 0.4055 0.34839 0.91552 0.0
H341 H 0.42768 0.32398 0.00882 0.0
H342 H 0.38342 0.36352 0.12838 0.0
H343 H 0.35885 0.3855 0.03513 0.0
H344 H 0.41645 0.45015 0.12192 0.0
H345 H 0.65643 0.65385 0.95284 0.0
H346 H 0.59764 0.6659 0.84065 0.0
H347 H 0.40566 0.45143 0.8875 0.0
C348 C 0.5289 0.42956 0.15813 0.0
C349 C 0.59013 0.46909 0.21055 0.0
C350 C 0.6474 0.53955 0.18579 0.0
C351 C 0.64435 0.56925 0.10991 0.0
C352 C 0.58354 0.52827 0.05904 0.0
C353 C 0.52667 0.46011 0.08305 0.0
C354 C 0.46564 0.42847 0.02201 0.0
C355 C 0.44704 0.36762 0.96381 0.0
C356 C 0.40233 0.40556 0.08035 0.0
C357 C 0.49577 0.4897 0.96137 0.0
C358 C 0.56457 0.54641 0.98199 0.0
C359 C 0.60262 0.60948 0.93635 0.0
C360 C 0.56872 0.6156 0.87163 0.0
C361 C 0.49666 0.55956 0.85399 0.0
C362 C 0.46079 0.49519 0.89797 0.0
H363 H 0.56557 0.93248 0.87265 0.0
H364 H 0.34884 0.82087 0.82278 0.0
H365 H 0.35944 0.90824 0.91674 0.0
H366 H 0.58342 0.99166 0.10685 0.0
H367 H 0.66625 0.07696 0.08398 0.0
H368 H 0.63887 1.00419 0.01307 0.0
H369 H 0.66351 0.0746 0.87274 0.0
H370 H 0.68363 0.14389 0.94399 0.0
H371 H 0.61594 0.10035 0.85996 0.0
H372 H 0.38493 0.99335 0.03582 0.0
H373 H 0.43418 0.09279 0.1415 0.0
H374 H 0.63667 0.15575 0.11389 0.0
C375 C 0.52018 0.92619 0.88182 0.0
C376 C 0.45589 0.86877 0.84106 0.0
C377 C 0.39851 0.86382 0.85305 0.0
C378 C 0.40354 0.91251 0.90792 0.0
C379 C 0.46594 0.96565 0.95161 0.0
C380 C 0.52398 0.97415 0.93746 0.0
C381 C 0.58671 0.04054 0.98512 0.0
C382 C 0.62057 0.02732 0.05108 0.0
C383 C 0.64063 0.09313 0.91111 0.0
C384 C 0.55248 0.06348 0.03692 0.0
C385 C 0.48295 0.01966 0.01474 0.0
C386 C 0.43944 0.02862 0.05303 0.0
C387 C 0.46774 0.08494 0.11375 0.0
C388 C 0.53887 0.1316 0.1373 0.0
C389 C 0.58169 0.12011 0.09896 0.0
H390 H 0.1313 0.58157 0.82403 0.0
H391 H 0.12767 0.41985 0.89387 0.0
H392 H 0.03847 0.37885 0.01594 0.0
H393 H 0.09665 0.62026 0.0531 0.0
H394 H 0.03714 0.6249 0.01016 0.0
H395 H 0.10581 0.64543 0.93445 0.0
H396 H 1.01362 0.55409 0.81828 0.0
H397 H 0.94617 0.53344 0.89679 0.0
H398 H 0.94425 0.4657 0.85554 0.0
H399 H 0.95324 0.35727 0.13584 0.0
H400 H 0.86619 0.34723 0.23242 0.0
H401 H 0.91553 0.51576 0.08117 0.0
C402 C 0.11176 0.53756 0.86498 0.0
C403 C 0.13744 0.50447 0.84874 0.0
C404 C 0.10937 0.4464 0.90375 0.0
C405 C 0.05887 0.42288 0.97434 0.0
C406 C 0.03564 0.45713 0.98943 0.0
C407 C 0.06029 0.51261 0.93571 0.0
C408 C 1.02026 0.5346 0.96047 0.0
C409 C 0.06815 0.61098 0.99136 0.0
C410 C 0.97832 0.52102 0.87776 0.0
C411 C 0.9728 0.48589 0.0402 0.0
C412 C 0.98262 0.44155 0.05529 0.0
C413 C 0.94506 0.39172 0.12462 0.0
C414 C 0.89574 0.38656 0.17965 0.0
C415 C 0.88407 0.43099 0.16585 0.0
C416 C 0.92369 0.48159 0.09496 0.0
loop_
_geom_bond_atom_site_label_1
_geom_bond_atom_site_label_2
_geom_bond_distance
_geom_bond_site_symmetry_2
_ccdc_geom_bond_type
C0 O27 1.312 . S
C0 O28 1.208 . S
C1 O22 1.331 1_565 S
C1 O25 1.244 1_455 S
C2 O24 1.264 . S
C2 O26 1.273 . S
Mg3 O5 1.936 1_455 S
Mg3 O12 2.081 . S
Mg3 O14 2.023 1_455 S
Mg3 O18 2.031 . S
Mg3 O27 2.291 1_556 S
Mg4 O5 1.963 1_565 S
Mg4 O15 1.942 . S
Mg4 O16 1.955 1_565 S
Mg4 O23 1.986 . S
O5 Mg3 1.936 1_655 S
O5 Mg4 1.963 1_545 S
O5 Mg6 1.915 1_546 S
Mg6 O5 1.915 1_564 S
Mg6 O7 1.915 1_655 S
Mg6 O11 2.013 . S
Mg6 O17 2.114 1_664 S
Mg6 O21 2.013 1_554 S
Mg6 O27 2.114 1_665 S
O7 Mg6 1.915 1_455 S
O7 Mg8 1.936 1_565 S
O7 Mg9 1.963 1_455 S
Mg8 O7 1.936 1_545 S
Mg8 O17 2.291 1_554 S
Mg8 O22 2.081 . S
Mg8 O24 2.023 1_545 S
Mg8 O28 2.031 . S
Mg9 O7 1.963 1_655 S
Mg9 O13 1.986 . S
Mg9 O25 1.942 . S
Mg9 O26 1.955 1_655 S
C10 O21 1.191 . S
C10 O23 1.307 . S
O11 Mg6 2.013 . S
O11 C30 1.191 . S
O12 Mg3 2.081 . S
O12 C20 1.331 1_455 S
O13 Mg9 1.986 . S
O13 C30 1.307 . S
O14 Mg3 2.023 1_655 S
O14 C29 1.264 . S
O15 Mg4 1.942 . S
O15 C20 1.244 1_565 S
O16 Mg4 1.955 1_545 S
O16 C29 1.273 . S
O17 Mg6 2.114 1_446 S
O17 Mg8 2.291 1_556 S
O17 C19 1.312 . S
O18 Mg3 2.031 . S
O18 C19 1.208 . S
C19 O17 1.312 . S
C19 O18 1.208 . S
C20 O12 1.331 1_655 S
C20 O15 1.244 1_545 S
O21 Mg6 2.013 1_556 S
O21 C10 1.191 . S
O22 C1 1.331 1_545 S
O22 Mg8 2.081 . S
O23 Mg4 1.986 . S
O23 C10 1.307 . S
O24 C2 1.264 . S
O24 Mg8 2.023 1_565 S
O25 C1 1.244 1_655 S
O25 Mg9 1.942 . S
O26 C2 1.273 . S
O26 Mg9 1.955 1_455 S
O27 C0 1.312 . S
O27 Mg3 2.291 1_554 S
O27 Mg6 2.114 1_445 S
O28 C0 1.208 . S
O28 Mg8 2.031 . S
C29 O14 1.264 . S
C29 O16 1.273 . S
C30 O11 1.191 . S
C30 O13 1.307 . S
C31 O58 1.312 . S
C31 O59 1.208 . S
C32 O53 1.331 . S
C32 O56 1.244 . S
C33 O55 1.264 . S
C33 O57 1.273 . S
Mg34 O36 1.936 . S
Mg34 O43 2.081 . S
Mg34 O45 2.023 . S
Mg34 O49 2.031 . S
Mg34 O58 2.291 . S
Mg35 O36 1.963 . S
Mg35 O46 1.942 . S
Mg35 O47 1.955 . S
Mg35 O54 1.986 . S
O36 Mg34 1.936 . S
O36 Mg35 1.963 . S
O36 Mg37 1.915 . S
Mg37 O36 1.915 . S
Mg37 O38 1.915 . S
Mg37 O42 2.013 . S
Mg37 O48 2.114 . S
Mg37 O52 2.013 . S
Mg37 O58 2.114 . S
O38 Mg37 1.915 . S
O38 Mg39 1.936 . S
O38 Mg40 1.963 . S
Mg39 O38 1.936 . S
Mg39 O48 2.291 . S
Mg39 O53 2.081 . S
Mg39 O55 2.023 . S
Mg39 O59 2.031 . S
Mg40 O38 1.963 . S
Mg40 O44 1.986 . S
Mg40 O56 1.942 . S
Mg40 O57 1.955 . S
C41 O52 1.191 . S
C41 O54 1.307 . S
O42 Mg37 2.013 . S
O42 C61 1.191 . S
O43 Mg34 2.081 . S
O43 C51 1.331 . S
O44 Mg40 1.986 . S
O44 C61 1.307 . S
O45 Mg34 2.023 . S
O45 C60 1.264 . S
O46 Mg35 1.942 . S
O46 C51 1.244 . S
O47 Mg35 1.955 . S
O47 C60 1.273 . S
O48 Mg37 2.114 . S
O48 Mg39 2.291 . S
O48 C50 1.312 . S
O49 Mg34 2.031 . S
O49 C50 1.208 . S
C50 O48 1.312 . S
C50 O49 1.208 . S
C51 O43 1.331 . S
C51 O46 1.244 . S
O52 Mg37 2.013 . S
O52 C41 1.191 . S
O53 C32 1.331 . S
O53 Mg39 2.081 . S
O54 Mg35 1.986 . S
O54 C41 1.307 . S
O55 C33 1.264 . S
O55 Mg39 2.023 . S
O56 C32 1.244 . S
O56 Mg40 1.942 . S
O57 C33 1.273 . S
O57 Mg40 1.955 . S
O58 C31 1.312 . S
O58 Mg34 2.291 . S
O58 Mg37 2.114 . S
O59 C31 1.208 . S
O59 Mg39 2.031 . S
C60 O45 1.264 . S
C60 O47 1.273 . S
C61 O42 1.191 . S
C61 O44 1.307 . S
C62 O89 1.312 . S
C62 O90 1.208 . S
C63 O84 1.331 . S
C63 O87 1.244 . S
C64 O86 1.264 . S
C64 O88 1.273 . S
Mg65 O67 1.936 . S
Mg65 O74 2.081 . S
Mg65 O76 2.023 . S
Mg65 O80 2.031 . S
Mg65 O89 2.291 . S
Mg66 O67 1.963 . S
Mg66 O77 1.942 . S
Mg66 O78 1.955 . S
Mg66 O85 1.986 . S
O67 Mg65 1.936 . S
O67 Mg66 1.963 . S
O67 Mg68 1.915 . S
Mg68 O67 1.915 . S
Mg68 O69 1.915 . S
Mg68 O73 2.013 . S
Mg68 O79 2.114 . S
Mg68 O83 2.013 . S
Mg68 O89 2.114 . S
O69 Mg68 1.915 . S
O69 Mg70 1.936 . S
O69 Mg71 1.963 . S
Mg70 O69 1.936 . S
Mg70 O79 2.291 . S
Mg70 O84 2.081 . S
Mg70 O86 2.023 . S
Mg70 O90 2.031 . S
Mg71 O69 1.963 . S
Mg71 O75 1.986 . S
Mg71 O87 1.942 . S
Mg71 O88 1.955 . S
C72 O83 1.191 . S
C72 O85 1.307 . S
O73 Mg68 2.013 . S
O73 C92 1.191 . S
O74 Mg65 2.081 . S
O74 C82 1.331 . S
O75 Mg71 1.986 . S
O75 C92 1.307 . S
O76 Mg65 2.023 . S
O76 C91 1.264 . S
O77 Mg66 1.942 . S
O77 C82 1.244 . S
O78 Mg66 1.955 . S
O78 C91 1.273 . S
O79 Mg68 2.114 . S
O79 Mg70 2.291 . S
O79 C81 1.312 . S
O80 Mg65 2.031 . S
O80 C81 1.208 . S
C81 O79 1.312 . S
C81 O80 1.208 . S
C82 O74 1.331 . S
C82 O77 1.244 . S
O83 Mg68 2.013 . S
O83 C72 1.191 . S
O84 C63 1.331 . S
O84 Mg70 2.081 . S
O85 Mg66 1.986 . S
O85 C72 1.307 . S
O86 C64 1.264 . S
O86 Mg70 2.023 . S
O87 C63 1.244 . S
O87 Mg71 1.942 . S
O88 C64 1.273 . S
O88 Mg71 1.955 . S
O89 C62 1.312 . S
O89 Mg65 2.291 . S
O89 Mg68 2.114 . S
O90 C62 1.208 . S
O90 Mg70 2.031 . S
C91 O76 1.264 . S
C91 O78 1.273 . S
C92 O73 1.191 . S
C92 O75 1.307 . S
H93 C105 0.930 . S
H94 C107 0.930 . S
H95 C108 0.930 . S
H96 C112 0.959 1_655 S
H97 C112 0.959 . S
H98 C112 0.961 . S
H99 C113 0.960 . S
H100 C113 0.961 . S
H101 C113 0.959 . S
H102 C116 0.929 . S
H103 C117 0.932 1_655 S
H104 C119 0.930 . S
C105 H93 0.930 . S
C105 C106 1.399 1_455 S
C105 C110 1.399 . S
C106 C105 1.399 1_655 S
C106 C107 1.376 1_545 S
C107 H94 0.930 . S
C107 C106 1.376 1_565 S
C107 C108 1.388 . S
C108 H95 0.930 . S
C108 C107 1.388 . S
C108 C109 1.390 1_655 S
C109 C108 1.390 1_455 S
C109 C110 1.394 1_565 S
C109 C115 1.465 . S
C110 C105 1.399 . S
C110 C109 1.394 1_545 S
C110 C111 1.516 . S
C111 C110 1.516 . S
C111 C112 1.502 . S
C111 C113 1.561 . S
C111 C114 1.526 . S
C112 H96 0.959 1_455 S
C112 H97 0.959 . S
C112 H98 0.961 . S
C112 C111 1.502 . S
C113 H99 0.960 . S
C113 H100 0.961 . S
C113 H101 0.959 . S
C113 C111 1.561 . S
C114 C111 1.526 . S
C114 C115 1.396 1_545 S
C114 C119 1.390 . S
C115 C109 1.465 . S
C115 C114 1.396 1_565 S
C115 C116 1.399 1_455 S
C116 H102 0.929 . S
C116 C115 1.399 1_655 S
C116 C117 1.385 1_655 S
C117 H103 0.932 1_455 S
C117 C116 1.385 1_455 S
C117 C118 1.388 . S
C118 C117 1.388 . S
C118 C119 1.387 1_565 S
C119 H104 0.930 . S
C119 C114 1.390 . S
C119 C118 1.387 1_545 S
H120 C132 0.930 . S
H121 C134 0.930 . S
H122 C135 0.930 . S
H123 C139 0.959 . S
H124 C139 0.959 . S
H125 C139 0.961 . S
H126 C140 0.960 . S
H127 C140 0.961 . S
H128 C140 0.959 . S
H129 C143 0.929 . S
H130 C144 0.931 . S
H131 C146 0.930 . S
C132 H120 0.930 . S
C132 C133 1.399 . S
C132 C137 1.399 . S
C133 C132 1.399 . S
C133 C134 1.376 . S
C134 H121 0.930 . S
C134 C133 1.376 . S
C134 C135 1.388 . S
C135 H122 0.930 . S
C135 C134 1.388 . S
C135 C136 1.390 . S
C136 C135 1.390 . S
C136 C137 1.394 . S
C136 C142 1.465 . S
C137 C132 1.399 . S
C137 C136 1.394 . S
C137 C138 1.516 . S
C138 C137 1.516 . S
C138 C139 1.502 . S
C138 C140 1.561 . S
C138 C141 1.526 . S
C139 H123 0.959 . S
C139 H124 0.959 . S
C139 H125 0.961 . S
C139 C138 1.502 . S
C140 H126 0.960 . S
C140 H127 0.961 . S
C140 H128 0.959 . S
C140 C138 1.561 . S
C141 C138 1.526 . S
C141 C142 1.396 . S
C141 C146 1.390 1_556 S
C142 C136 1.465 . S
C142 C141 1.396 . S
C142 C143 1.399 . S
C143 H129 0.929 . S
C143 C142 1.399 . S
C143 C144 1.385 1_556 S
C144 H130 0.931 . S
C144 C143 1.385 1_554 S
C144 C145 1.389 . S
C145 C144 1.389 . S
C145 C146 1.387 . S
C146 H131 0.930 . S
C146 C141 1.390 1_554 S
C146 C145 1.387 . S
H147 C159 0.930 . S
H148 C161 0.930 . S
H149 C162 0.930 . S
H150 C166 0.959 . S
H151 C166 0.959 . S
H152 C166 0.961 . S
H153 C167 0.960 . S
H154 C167 0.961 . S
H155 C167 0.959 . S
H156 C170 0.929 . S
H157 C171 0.931 . S
H158 C173 0.930 . S
C159 H147 0.930 . S
C159 C160 1.399 . S
C159 C164 1.399 1_556 S
C160 C159 1.399 . S
C160 C161 1.376 . S
C161 H148 0.930 . S
C161 C160 1.376 . S
C161 C162 1.388 1_556 S
C162 H149 0.930 . S
C162 C161 1.388 1_554 S
C162 C163 1.390 . S
C163 C162 1.390 . S
C163 C164 1.394 . S
C163 C169 1.465 . S
C164 C159 1.399 1_554 S
C164 C163 1.394 . S
C164 C165 1.516 . S
C165 C164 1.516 . S
C165 C166 1.502 . S
C165 C167 1.561 . S
C165 C168 1.526 . S
C166 H150 0.959 . S
C166 H151 0.959 . S
C166 H152 0.961 . S
C166 C165 1.502 . S
C167 H153 0.960 . S
C167 H154 0.961 . S
C167 H155 0.959 . S
C167 C165 1.561 . S
C168 C165 1.526 . S
C168 C169 1.396 . S
C168 C173 1.390 . S
C169 C163 1.465 . S
C169 C168 1.396 . S
C169 C170 1.399 . S
C170 H156 0.929 . S
C170 C169 1.399 . S
C170 C171 1.385 . S
C171 H157 0.931 . S
C171 C170 1.385 . S
C171 C172 1.389 . S
C172 C171 1.389 . S
C172 C173 1.387 . S
C173 H158 0.930 . S
C173 C168 1.390 . S
C173 C172 1.387 . S
H174 C186 0.930 . S
H175 C188 0.930 . S
H176 C189 0.930 . S
H177 C193 0.959 . S
H178 C193 0.959 . S
H179 C193 0.961 . S
H180 C194 0.960 . S
H181 C194 0.961 . S
H182 C194 0.959 . S
H183 C197 0.929 . S
H184 C198 0.931 . S
H185 C200 0.930 . S
C186 H174 0.930 . S
C186 C187 1.399 . S
C186 C191 1.399 . S
C187 C186 1.399 . S
C187 C188 1.376 . S
C188 H175 0.930 . S
C188 C187 1.376 . S
C188 C189 1.388 . S
C189 H176 0.930 . S
C189 C188 1.388 . S
C189 C190 1.390 . S
C190 C189 1.390 . S
C190 C191 1.394 . S
C190 C196 1.465 . S
C191 C186 1.399 . S
C191 C190 1.394 . S
C191 C192 1.516 . S
C192 C191 1.516 . S
C192 C193 1.502 . S
C192 C194 1.561 . S
C192 C195 1.526 . S
C193 H177 0.959 . S
C193 H178 0.959 . S
C193 H179 0.961 . S
C193 C192 1.502 . S
C194 H180 0.960 . S
C194 H181 0.961 . S
C194 H182 0.959 . S
C194 C192 1.561 . S
C195 C192 1.526 . S
C195 C196 1.396 . S
C195 C200 1.390 . S
C196 C190 1.465 . S
C196 C195 1.396 . S
C196 C197 1.399 . S
C197 H183 0.929 . S
C197 C196 1.399 . S
C197 C198 1.385 . S
C198 H184 0.931 . S
C198 C197 1.385 . S
C198 C199 1.389 . S
C199 C198 1.389 . S
C199 C200 1.387 . S
C200 H185 0.930 . S
C200 C195 1.390 . S
C200 C199 1.387 . S
H201 C213 0.930 . S
H202 C215 0.930 . S
H203 C216 0.930 . S
H204 C220 0.959 . S
H205 C220 0.959 . S
H206 C220 0.961 . S
H207 C221 0.960 . S
H208 C221 0.961 . S
H209 C221 0.959 . S
H210 C224 0.929 . S
H211 C225 0.931 . S
H212 C227 0.930 . S
C213 H201 0.930 . S
C213 C214 1.399 . S
C213 C218 1.399 . S
C214 C213 1.399 . S
C214 C215 1.376 . S
C215 H202 0.930 . S
C215 C214 1.376 . S
C215 C216 1.388 . S
C216 H203 0.930 . S
C216 C215 1.388 . S
C216 C217 1.390 . S
C217 C216 1.390 . S
C217 C218 1.394 . S
C217 C223 1.465 . S
C218 C213 1.399 . S
C218 C217 1.394 . S
C218 C219 1.516 . S
C219 C218 1.516 . S
C219 C220 1.502 . S
C219 C221 1.561 . S
C219 C222 1.526 . S
C220 H204 0.959 . S
C220 H205 0.959 . S
C220 H206 0.961 . S
C220 C219 1.502 . S
C221 H207 0.960 . S
C221 H208 0.961 . S
C221 H209 0.959 . S
C221 C219 1.561 . S
C222 C219 1.526 . S
C222 C223 1.396 . S
C222 C227 1.390 . S
C223 C217 1.465 . S
C223 C222 1.396 . S
C223 C224 1.399 . S
C224 H210 0.929 . S
C224 C223 1.399 . S
C224 C225 1.385 . S
C225 H211 0.931 . S
C225 C224 1.385 . S
C225 C226 1.389 . S
C226 C225 1.389 . S
C226 C227 1.387 . S
C227 H212 0.930 . S
C227 C222 1.390 . S
C227 C226 1.387 . S
H228 C240 0.930 . S
H229 C242 0.930 . S
H230 C243 0.930 . S
H231 C247 0.959 . S
H232 C247 0.959 . S
H233 C247 0.961 . S
H234 C248 0.960 . S
H235 C248 0.961 . S
H236 C248 0.959 . S
H237 C251 0.929 . S
H238 C252 0.931 . S
H239 C254 0.930 . S
C240 H228 0.930 . S
C240 C241 1.399 . S
C240 C245 1.399 . S
C241 C240 1.399 . S
C241 C242 1.376 . S
C242 H229 0.930 . S
C242 C241 1.376 . S
C242 C243 1.388 . S
C243 H230 0.930 . S
C243 C242 1.388 . S
C243 C244 1.390 . S
C244 C243 1.390 . S
C244 C245 1.394 . S
C244 C250 1.465 . S
C245 C240 1.399 . S
C245 C244 1.394 . S
C245 C246 1.516 . S
C246 C245 1.516 . S
C246 C247 1.502 . S
C246 C248 1.561 . S
C246 C249 1.526 . S
C247 H231 0.959 . S
C247 H232 0.959 . S
C247 H233 0.961 . S
C247 C246 1.502 . S
C248 H234 0.960 . S
C248 H235 0.961 . S
C248 H236 0.959 . S
C248 C246 1.561 . S
C249 C246 1.526 . S
C249 C250 1.396 . S
C249 C254 1.390 . S
C250 C244 1.465 . S
C250 C249 1.396 . S
C250 C251 1.399 . S
C251 H237 0.929 . S
C251 C250 1.399 . S
C251 C252 1.385 . S
C252 H238 0.931 . S
C252 C251 1.385 . S
C252 C253 1.389 . S
C253 C252 1.389 . S
C253 C254 1.387 . S
C254 H239 0.930 . S
C254 C249 1.390 . S
C254 C253 1.387 . S
H255 C267 0.930 . S
H256 C269 0.930 . S
H257 C270 0.930 . S
H258 C274 0.959 . S
H259 C274 0.959 . S
H260 C274 0.961 . S
H261 C275 0.960 . S
H262 C275 0.961 . S
H263 C275 0.959 . S
H264 C278 0.929 . S
H265 C279 0.931 . S
H266 C281 0.930 . S
C267 H255 0.930 . S
C267 C268 1.399 . S
C267 C272 1.399 . S
C268 C267 1.399 . S
C268 C269 1.376 . S
C269 H256 0.930 . S
C269 C268 1.376 . S
C269 C270 1.388 . S
C270 H257 0.930 . S
C270 C269 1.388 . S
C270 C271 1.390 . S
C271 C270 1.390 . S
C271 C272 1.394 . S
C271 C277 1.465 . S
C272 C267 1.399 . S
C272 C271 1.394 . S
C272 C273 1.516 . S
C273 C272 1.516 . S
C273 C274 1.502 . S
C273 C275 1.561 . S
C273 C276 1.526 . S
C274 H258 0.959 . S
C274 H259 0.959 . S
C274 H260 0.961 . S
C274 C273 1.502 . S
C275 H261 0.960 . S
C275 H262 0.961 . S
C275 H263 0.959 . S
C275 C273 1.561 . S
C276 C273 1.526 . S
C276 C277 1.396 . S
C276 C281 1.390 . S
C277 C271 1.465 . S
C277 C276 1.396 . S
C277 C278 1.399 . S
C278 H264 0.929 . S
C278 C277 1.399 . S
C278 C279 1.385 . S
C279 H265 0.931 . S
C279 C278 1.385 . S
C279 C280 1.389 . S
C280 C279 1.389 . S
C280 C281 1.387 . S
C281 H266 0.930 . S
C281 C276 1.390 . S
C281 C280 1.387 . S
H282 C294 0.930 . S
H283 C296 0.930 . S
H284 C297 0.930 . S
H285 C301 0.959 . S
H286 C301 0.959 . S
H287 C301 0.961 . S
H288 C302 0.960 . S
H289 C302 0.961 . S
H290 C302 0.959 . S
H291 C305 0.929 . S
H292 C306 0.931 . S
H293 C308 0.930 . S
C294 H282 0.930 . S
C294 C295 1.399 . S
C294 C299 1.399 . S
C295 C294 1.399 . S
C295 C296 1.376 . S
C296 H283 0.930 . S
C296 C295 1.376 . S
C296 C297 1.388 . S
C297 H284 0.930 . S
C297 C296 1.388 . S
C297 C298 1.390 . S
C298 C297 1.390 . S
C298 C299 1.394 . S
C298 C304 1.465 . S
C299 C294 1.399 . S
C299 C298 1.394 . S
C299 C300 1.516 . S
C300 C299 1.516 . S
C300 C301 1.502 . S
C300 C302 1.561 . S
C300 C303 1.526 . S
C301 H285 0.959 . S
C301 H286 0.959 . S
C301 H287 0.961 . S
C301 C300 1.502 . S
C302 H288 0.960 . S
C302 H289 0.961 . S
C302 H290 0.959 . S
C302 C300 1.561 . S
C303 C300 1.526 . S
C303 C304 1.396 . S
C303 C308 1.390 . S
C304 C298 1.465 . S
C304 C303 1.396 . S
C304 C305 1.399 . S
C305 H291 0.929 . S
C305 C304 1.399 . S
C305 C306 1.385 . S
C306 H292 0.931 . S
C306 C305 1.385 . S
C306 C307 1.389 . S
C307 C306 1.389 . S
C307 C308 1.387 . S
C308 H293 0.930 . S
C308 C303 1.390 . S
C308 C307 1.387 . S
H309 C321 0.930 . S
H310 C323 0.930 . S
H311 C324 0.930 . S
H312 C328 0.959 . S
H313 C328 0.959 . S
H314 C328 0.961 . S
H315 C329 0.960 . S
H316 C329 0.960 1_565 S
H317 C329 0.959 . S
H318 C332 0.929 . S
H319 C333 0.931 . S
H320 C335 0.930 . S
C321 H309 0.930 . S
C321 C322 1.399 . S
C321 C326 1.399 . S
C322 C321 1.399 . S
C322 C323 1.376 . S
C323 H310 0.930 . S
C323 C322 1.376 . S
C323 C324 1.388 . S
C324 H311 0.930 . S
C324 C323 1.388 . S
C324 C325 1.390 . S
C325 C324 1.390 . S
C325 C326 1.394 . S
C325 C331 1.465 . S
C326 C321 1.399 . S
C326 C325 1.394 . S
C326 C327 1.516 . S
C327 C326 1.516 . S
C327 C328 1.502 . S
C327 C329 1.561 . S
C327 C330 1.526 . S
C328 H312 0.959 . S
C328 H313 0.959 . S
C328 H314 0.961 . S
C328 C327 1.502 . S
C329 H315 0.960 . S
C329 H316 0.960 1_545 S
C329 H317 0.959 . S
C329 C327 1.561 . S
C330 C327 1.526 . S
C330 C331 1.396 . S
C330 C335 1.390 . S
C331 C325 1.465 . S
C331 C330 1.396 . S
C331 C332 1.399 . S
C332 H318 0.929 . S
C332 C331 1.399 . S
C332 C333 1.385 . S
C333 H319 0.931 . S
C333 C332 1.385 . S
C333 C334 1.389 . S
C334 C333 1.389 . S
C334 C335 1.387 . S
C335 H320 0.930 . S
C335 C330 1.390 . S
C335 C334 1.387 . S
H336 C348 0.930 . S
H337 C350 0.930 . S
H338 C351 0.930 . S
H339 C355 0.959 . S
H340 C355 0.959 . S
H341 C355 0.961 . S
H342 C356 0.960 . S
H343 C356 0.961 . S
H344 C356 0.959 . S
H345 C359 0.929 . S
H346 C360 0.931 . S
H347 C362 0.930 . S
C348 H336 0.930 . S
C348 C349 1.399 . S
C348 C353 1.399 . S
C349 C348 1.399 . S
C349 C350 1.376 . S
C350 H337 0.930 . S
C350 C349 1.376 . S
C350 C351 1.388 1_554 S
C351 H338 0.930 . S
C351 C350 1.388 1_556 S
C351 C352 1.390 . S
C352 C351 1.390 . S
C352 C353 1.389 1_556 S
C352 C358 1.469 . S
C353 C348 1.399 . S
C353 C352 1.389 1_554 S
C353 C354 1.516 . S
C354 C353 1.516 . S
C354 C355 1.502 . S
C354 C356 1.561 . S
C354 C357 1.526 1_554 S
C355 H339 0.959 . S
C355 H340 0.959 . S
C355 H341 0.961 . S
C355 C354 1.502 . S
C356 H342 0.960 . S
C356 H343 0.961 . S
C356 H344 0.959 . S
C356 C354 1.561 . S
C357 C354 1.526 1_556 S
C357 C358 1.396 . S
C357 C362 1.390 . S
C358 C352 1.469 . S
C358 C357 1.396 . S
C358 C359 1.399 . S
C359 H345 0.929 . S
C359 C358 1.399 . S
C359 C360 1.385 . S
C360 H346 0.931 . S
C360 C359 1.385 . S
C360 C361 1.389 . S
C361 C360 1.389 . S
C361 C362 1.387 . S
C362 H347 0.930 . S
C362 C357 1.390 . S
C362 C361 1.387 . S
H363 C375 0.930 . S
H364 C377 0.930 . S
H365 C378 0.930 1_554 S
H366 C382 0.959 . S
H367 C382 0.959 . S
H368 C382 0.961 . S
H369 C383 0.960 . S
H370 C383 0.961 . S
H371 C383 0.959 . S
H372 C386 0.938 . S
H373 C387 0.931 . S
H374 C389 0.930 . S
C375 H363 0.930 . S
C375 C376 1.399 . S
C375 C380 1.399 . S
C376 C375 1.399 . S
C376 C377 1.376 . S
C377 H364 0.930 . S
C377 C376 1.376 . S
C377 C378 1.388 . S
C378 H365 0.930 1_556 S
C378 C377 1.388 . S
C378 C379 1.390 . S
C379 C378 1.390 . S
C379 C380 1.394 . S
C379 C385 1.465 1_566 S
C380 C375 1.399 . S
C380 C379 1.394 . S
C380 C381 1.516 1_565 S
C381 C380 1.516 1_545 S
C381 C382 1.502 . S
C381 C383 1.561 . S
C381 C384 1.526 1_556 S
C382 H366 0.959 . S
C382 H367 0.959 . S
C382 H368 0.961 . S
C382 C381 1.502 . S
C383 H369 0.960 . S
C383 H370 0.961 . S
C383 H371 0.959 . S
C383 C381 1.561 . S
C384 C381 1.526 1_554 S
C384 C385 1.396 . S
C384 C389 1.390 . S
C385 C379 1.465 1_544 S
C385 C384 1.396 . S
C385 C386 1.402 1_545 S
C386 H372 0.938 . S
C386 C385 1.402 1_565 S
C386 C387 1.373 1_565 S
C387 H373 0.931 . S
C387 C386 1.373 1_545 S
C387 C388 1.389 . S
C388 C387 1.389 . S
C388 C389 1.387 . S
C389 H374 0.930 . S
C389 C384 1.390 . S
C389 C388 1.387 . S
H390 C402 0.930 . S
H391 C404 0.930 . S
H392 C405 0.930 1_655 S
H393 C409 0.959 . S
H394 C409 0.959 . S
H395 C409 0.961 . S
H396 C410 0.960 1_556 S
H397 C410 0.961 . S
H398 C410 0.959 1_656 S
H399 C413 0.929 1_556 S
H400 C414 0.931 . S
H401 C416 0.930 . S
C402 H390 0.930 . S
C402 C403 1.399 . S
C402 C407 1.399 . S
C403 C402 1.399 . S
C403 C404 1.376 . S
C404 H391 0.930 . S
C404 C403 1.376 . S
C404 C405 1.388 . S
C405 H392 0.930 1_455 S
C405 C404 1.388 . S
C405 C406 1.390 . S
C406 C405 1.390 . S
C406 C407 1.394 . S
C406 C412 1.465 1_456 S
C407 C402 1.399 . S
C407 C406 1.394 . S
C407 C408 1.516 1_556 S
C408 C407 1.516 1_554 S
C408 C409 1.502 . S
C408 C410 1.561 . S
C408 C411 1.526 1_455 S
C409 H393 0.959 . S
C409 H394 0.959 . S
C409 H395 0.961 . S
C409 C408 1.502 . S
C410 H396 0.960 1_554 S
C410 H397 0.961 . S
C410 H398 0.959 1_454 S
C410 C408 1.561 . S
C411 C408 1.526 1_655 S
C411 C412 1.396 . S
C411 C416 1.390 . S
C412 C406 1.465 1_654 S
C412 C411 1.396 . S
C412 C413 1.399 . S
C413 H399 0.929 1_554 S
C413 C412 1.399 . S
C413 C414 1.385 . S
C414 H400 0.931 . S
C414 C413 1.385 . S
C414 C415 1.389 . S
C415 C414 1.389 . S
C415 C416 1.387 . S
C416 H401 0.930 . S
C416 C411 1.390 . S
C416 C415 1.387 . S
C106 C20 0.919 . S
C118 C1 0.890 . S
C133 C32 0.922 . S
C145 C51 0.930 . S
C160 C63 0.907 . S
C172 C82 0.934 . S
C187 C91 2.137 . S
C199 C2 2.194 . S
C214 C72 1.915 . S
C226 C0 1.837 . S
C241 C81 1.898 . S
C253 C30 1.867 . S
C268 C33 2.135 . S
C280 C29 2.198 . S
C295 C31 1.860 . S
C307 C10 1.872 . S
C322 C61 1.855 . S
C334 C19 1.879 . S
C349 C60 2.141 . S
C361 C64 2.197 . S
C376 C62 1.877 . S
C388 C41 1.891 . S
C403 C92 1.892 . S
C415 C50 1.875 . S
