# Generated by pormake.
# Topology cag, (4)-cn, num edge types: 1
# Building blocks:
#     Node 0, Type 0, BuildingBlock: TATPOV_clean_sbu_0, # of connection points: 4
#     Node 1, Type 0, BuildingBlock: TATPOV_clean_sbu_0, # of connection points: 4
#     Node 2, Type 0, BuildingBlock: TATPOV_clean_sbu_0, # of connection points: 4
#     Node 3, Type 0, BuildingBlock: TATPOV_clean_sbu_0, # of connection points: 4
#     Node 4, Type 0, BuildingBlock: TATPOV_clean_sbu_0, # of connection points: 4
#     Node 5, Type 0, BuildingBlock: TATPOV_clean_sbu_0, # of connection points: 4
#     Node 6, Type 0, BuildingBlock: TATPOV_clean_sbu_0, # of connection points: 4
#     Node 7, Type 0, BuildingBlock: TATPOV_clean_sbu_0, # of connection points: 4
#     Node 8, Type 0, BuildingBlock: TATPOV_clean_sbu_0, # of connection points: 4
#     Node 9, Type 0, BuildingBlock: TATPOV_clean_sbu_0, # of connection points: 4
#     Node 10, Type 0, BuildingBlock: TATPOV_clean_sbu_0, # of connection points: 4
#     Node 11, Type 0, BuildingBlock: TATPOV_clean_sbu_0, # of connection points: 4
#     Node 12, Type 0, BuildingBlock: TATPOV_clean_sbu_0, # of connection points: 4
#     Node 13, Type 0, BuildingBlock: TATPOV_clean_sbu_0, # of connection points: 4
#     Node 14, Type 0, BuildingBlock: TATPOV_clean_sbu_0, # of connection points: 4
#     Node 15, Type 0, BuildingBlock: TATPOV_clean_sbu_0, # of connection points: 4
#     Edge 16, Type (0, 0), BuildingBlock: ZUJKAS_clean_linker_0, # of connection points: 2
#     Edge 17, Type (0, 0), BuildingBlock: ZUJKAS_clean_linker_0, # of connection points: 2
#     Edge 18, Type (0, 0), BuildingBlock: ZUJKAS_clean_linker_0, # of connection points: 2
#     Edge 19, Type (0, 0), BuildingBlock: ZUJKAS_clean_linker_0, # of connection points: 2
#     Edge 20, Type (0, 0), BuildingBlock: ZUJKAS_clean_linker_0, # of connection points: 2
#     Edge 21, Type (0, 0), BuildingBlock: ZUJKAS_clean_linker_0, # of connection points: 2
#     Edge 22, Type (0, 0), BuildingBlock: ZUJKAS_clean_linker_0, # of connection points: 2
#     Edge 23, Type (0, 0), BuildingBlock: ZUJKAS_clean_linker_0, # of connection points: 2
#     Edge 24, Type (0, 0), BuildingBlock: ZUJKAS_clean_linker_0, # of connection points: 2
#     Edge 25, Type (0, 0), BuildingBlock: ZUJKAS_clean_linker_0, # of connection points: 2
#     Edge 26, Type (0, 0), BuildingBlock: ZUJKAS_clean_linker_0, # of connection points: 2
#     Edge 27, Type (0, 0), BuildingBlock: ZUJKAS_clean_linker_0, # of connection points: 2
#     Edge 28, Type (0, 0), BuildingBlock: ZUJKAS_clean_linker_0, # of connection points: 2
#     Edge 29, Type (0, 0), BuildingBlock: ZUJKAS_clean_linker_0, # of connection points: 2
#     Edge 30, Type (0, 0), BuildingBlock: ZUJKAS_clean_linker_0, # of connection points: 2
#     Edge 31, Type (0, 0), BuildingBlock: ZUJKAS_clean_linker_0, # of connection points: 2
#     Edge 32, Type (0, 0), BuildingBlock: ZUJKAS_clean_linker_0, # of connection points: 2
#     Edge 33, Type (0, 0), BuildingBlock: ZUJKAS_clean_linker_0, # of connection points: 2
#     Edge 34, Type (0, 0), BuildingBlock: ZUJKAS_clean_linker_0, # of connection points: 2
#     Edge 35, Type (0, 0), BuildingBlock: ZUJKAS_clean_linker_0, # of connection points: 2
#     Edge 36, Type (0, 0), BuildingBlock: ZUJKAS_clean_linker_0, # of connection points: 2
#     Edge 37, Type (0, 0), BuildingBlock: ZUJKAS_clean_linker_0, # of connection points: 2
#     Edge 38, Type (0, 0), BuildingBlock: ZUJKAS_clean_linker_0, # of connection points: 2
#     Edge 39, Type (0, 0), BuildingBlock: ZUJKAS_clean_linker_0, # of connection points: 2
#     Edge 40, Type (0, 0), BuildingBlock: ZUJKAS_clean_linker_0, # of connection points: 2
#     Edge 41, Type (0, 0), BuildingBlock: ZUJKAS_clean_linker_0, # of connection points: 2
#     Edge 42, Type (0, 0), BuildingBlock: ZUJKAS_clean_linker_0, # of connection points: 2
#     Edge 43, Type (0, 0), BuildingBlock: ZUJKAS_clean_linker_0, # of connection points: 2
#     Edge 44, Type (0, 0), BuildingBlock: ZUJKAS_clean_linker_0, # of connection points: 2
#     Edge 45, Type (0, 0), BuildingBlock: ZUJKAS_clean_linker_0, # of connection points: 2
#     Edge 46, Type (0, 0), BuildingBlock: ZUJKAS_clean_linker_0, # of connection points: 2
#     Edge 47, Type (0, 0), BuildingBlock: ZUJKAS_clean_linker_0, # of connection points: 2
# Relax obj value: 0.024
# Max RMSD: 0.072
# Mean RMSD: 0.062
data_MOF--net-cag--node1-TATPOV_clean_sbu_0--edge1-ZUJKAS_clean_linker_0
_symmetry_space_group_name_H-M    P1
_symmetry_Int_Tables_number       1
_symmetry_cell_setting            triclinic
loop_
_symmetry_equiv_pos_as_xyz
'x, y, z'
_cell_length_a     55.797102
_cell_length_b     62.562478
_cell_length_c     55.638181
_cell_angle_alpha  90.005167
_cell_angle_beta   90.007853
_cell_angle_gamma 89.993012
loop_
_atom_site_label
_atom_site_type_symbol
_atom_site_fract_x
_atom_site_fract_y
_atom_site_fract_z
_atom_type_partial_charge
Zn0 Zn 0.30562 0.14776 0.03478 0.0
Zn1 Zn 0.28859 0.14207 0.07888 0.0
O2 O 0.3249 0.1476 0.08356 0.0
O3 O 0.33845 0.15463 0.04728 0.0
O4 O 0.27715 0.13975 0.11353 0.0
O5 O 0.28215 0.17104 0.02839 0.0
O6 O 0.26864 0.16765 0.06537 0.0
C7 C 0.34212 0.15269 0.06961 0.0
C8 C 0.28614 0.10565 0.04176 0.0
O9 O 0.28134 0.1127 0.06277 0.0
O10 O 0.29673 0.11755 0.02673 0.0
C11 C 0.27473 0.12232 0.12507 0.0
O12 O 0.27895 0.10412 0.11407 0.0
C13 C 0.26804 0.1769 0.0449 0.0
Zn14 Zn 0.19496 0.85577 0.53458 0.0
Zn15 Zn 0.21043 0.85858 0.57924 0.0
O16 O 0.17354 0.85652 0.58284 0.0
O17 O 0.16075 0.85783 0.54544 0.0
O18 O 0.22143 0.85986 0.61405 0.0
O19 O 0.21052 0.82727 0.53045 0.0
O20 O 0.22697 0.83105 0.56615 0.0
C21 C 0.15636 0.85715 0.56773 0.0
C22 C 0.22214 0.89368 0.54207 0.0
O23 O 0.22194 0.88721 0.56384 0.0
O24 O 0.2128 0.88237 0.52571 0.0
C25 C 0.21945 0.8767 0.62674 0.0
O26 O 0.21071 0.8941 0.61683 0.0
C27 C 0.22439 0.82043 0.54671 0.0
Zn28 Zn 0.30926 0.84773 0.9687 0.0
Zn29 Zn 0.28986 0.85442 0.92533 0.0
O30 O 0.32621 0.85115 0.91891 0.0
O31 O 0.34223 0.84556 0.9545 0.0
O32 O 0.27681 0.85749 0.8914 0.0
O33 O 0.28977 0.82122 0.97303 0.0
O34 O 0.27223 0.82742 0.93826 0.0
C35 C 0.34458 0.84776 0.93201 0.0
C36 C 0.28526 0.88856 0.9647 0.0
O37 O 0.28144 0.88257 0.94309 0.0
O38 O 0.29629 0.87636 0.97913 0.0
C39 C 0.27797 0.87478 0.87941 0.0
O40 O 0.28699 0.89193 0.88963 0.0
C41 C 0.27456 0.81607 0.95719 0.0
Zn42 Zn 0.19175 0.14824 0.46944 0.0
Zn43 Zn 0.21015 0.14321 0.4254 0.0
O44 O 0.17358 0.14593 0.41995 0.0
O45 O 0.15837 0.15009 0.45614 0.0
O46 O 0.22255 0.14082 0.3912 0.0
O47 O 0.21076 0.175 0.47408 0.0
O48 O 0.2273 0.17037 0.43853 0.0
C49 C 0.15548 0.14856 0.43365 0.0
C50 C 0.21699 0.1083 0.46367 0.0
O51 O 0.22001 0.11495 0.44218 0.0
O52 O 0.20581 0.11974 0.47874 0.0
C53 C 0.21751 0.12482 0.37801 0.0
O54 O 0.20486 0.10909 0.38716 0.0
C55 C 0.22526 0.18105 0.45798 0.0
Zn56 Zn 0.62945 0.90976 0.86419 0.0
Zn57 Zn 0.64237 0.8765 0.89248 0.0
O58 O 0.60621 0.87172 0.88834 0.0
O59 O 0.59547 0.89832 0.86471 0.0
O60 O 0.65321 0.85239 0.91384 0.0
O61 O 0.6526 0.8994 0.83896 0.0
O62 O 0.6625 0.87208 0.86182 0.0
C63 C 0.59009 0.88174 0.87663 0.0
C64 C 0.64923 0.92307 0.90939 0.0
O65 O 0.65078 0.90295 0.9126 0.0
O66 O 0.64075 0.93035 0.88992 0.0
C67 C 0.64502 0.8498 0.93498 0.0
O68 O 0.62838 0.86284 0.94298 0.0
C69 C 0.66468 0.88252 0.84227 0.0
Zn70 Zn 0.86881 0.09358 0.36368 0.0
Zn71 Zn 0.85617 0.12652 0.3926 0.0
O72 O 0.89262 0.13025 0.38906 0.0
O73 O 0.90307 0.10409 0.36471 0.0
O74 O 0.84646 0.15062 0.41469 0.0
O75 O 0.84619 0.10497 0.33858 0.0
O76 O 0.8365 0.13212 0.36182 0.0
C77 C 0.90867 0.12022 0.37728 0.0
C78 C 0.8477 0.07969 0.40799 0.0
O79 O 0.84632 0.09976 0.41161 0.0
O80 O 0.85678 0.07267 0.38868 0.0
C81 C 0.85052 0.14972 0.43718 0.0
O82 O 0.86162 0.13295 0.44601 0.0
C83 C 0.8344 0.12199 0.34204 0.0
Zn84 Zn 0.62707 0.09359 0.1397 0.0
Zn85 Zn 0.64174 0.12488 0.10942 0.0
O86 O 0.60562 0.13033 0.11232 0.0
O87 O 0.59321 0.10511 0.13695 0.0
O88 O 0.65296 0.14799 0.08683 0.0
O89 O 0.64942 0.10526 0.16493 0.0
O90 O 0.66131 0.1306 0.1402 0.0
C91 C 0.58876 0.12119 0.12384 0.0
C92 C 0.6482 0.07738 0.09623 0.0
O93 O 0.65012 0.09721 0.09139 0.0
O94 O 0.63915 0.07147 0.11603 0.0
C95 C 0.6488 0.14724 0.06436 0.0
O96 O 0.63663 0.13104 0.05558 0.0
C97 C 0.66235 0.12145 0.16065 0.0
Zn98 Zn 0.86782 0.91054 0.63573 0.0
Zn99 Zn 0.85451 0.87798 0.60717 0.0
O100 O 0.89094 0.87342 0.60985 0.0
O101 O 0.90225 0.90136 0.63115 0.0
O102 O 0.84312 0.8543 0.5854 0.0
O103 O 0.8478 0.89827 0.66246 0.0
O104 O 0.83566 0.87249 0.63846 0.0
C105 C 0.90744 0.88453 0.6196 0.0
C106 C 0.84485 0.92494 0.59289 0.0
O107 O 0.84481 0.90498 0.58826 0.0
O108 O 0.85311 0.93165 0.6127 0.0
C109 C 0.85242 0.8506 0.56495 0.0
O110 O 0.87069 0.8622 0.55775 0.0
C111 C 0.83515 0.88178 0.65885 0.0
Zn112 Zn 0.8015 0.64449 0.03326 0.0
Zn113 Zn 0.78542 0.64228 0.07807 0.0
O114 O 0.82204 0.64659 0.08195 0.0
O115 O 0.83553 0.64574 0.04477 0.0
O116 O 0.77413 0.64106 0.11279 0.0
O117 O 0.78304 0.67145 0.02788 0.0
O118 O 0.76742 0.66862 0.06406 0.0
C119 C 0.83947 0.6471 0.06712 0.0
C120 C 0.77717 0.60525 0.04207 0.0
O121 O 0.77579 0.61282 0.06336 0.0
O122 O 0.78671 0.61619 0.02552 0.0
C123 C 0.77703 0.62447 0.12571 0.0
O124 O 0.78694 0.60744 0.1161 0.0
C125 C 0.76903 0.67839 0.04398 0.0
Zn126 Zn 0.6915 0.34969 0.53693 0.0
Zn127 Zn 0.7103 0.35656 0.5804 0.0
O128 O 0.67385 0.35354 0.58646 0.0
O129 O 0.65831 0.34799 0.55064 0.0
O130 O 0.72314 0.35982 0.61436 0.0
O131 O 0.71051 0.32289 0.53309 0.0
O132 O 0.72785 0.32931 0.5679 0.0
C133 C 0.65566 0.35023 0.57308 0.0
C134 C 0.71601 0.39025 0.54075 0.0
O135 O 0.71919 0.38457 0.56257 0.0
O136 O 0.70521 0.37795 0.52626 0.0
C137 C 0.71873 0.37617 0.62723 0.0
O138 O 0.70636 0.392 0.6179 0.0
C139 C 0.72552 0.31777 0.54911 0.0
Zn140 Zn 0.80714 0.3498 0.96975 0.0
Zn141 Zn 0.78948 0.35628 0.92575 0.0
O142 O 0.82616 0.35359 0.92085 0.0
O143 O 0.84078 0.34874 0.95717 0.0
O144 O 0.77766 0.35927 0.89135 0.0
O145 O 0.78858 0.32268 0.97295 0.0
O146 O 0.77213 0.32877 0.93764 0.0
C147 C 0.84404 0.35073 0.93478 0.0
C148 C 0.78177 0.38979 0.9654 0.0
O149 O 0.77938 0.38409 0.94348 0.0
O150 O 0.79248 0.37769 0.98015 0.0
C151 C 0.77679 0.37685 0.87988 0.0
O152 O 0.78298 0.3946 0.89087 0.0
C153 C 0.77415 0.31728 0.9565 0.0
Zn154 Zn 0.69287 0.64676 0.47073 0.0
Zn155 Zn 0.70887 0.64266 0.42581 0.0
O156 O 0.67221 0.64693 0.42202 0.0
O157 O 0.65921 0.65119 0.45907 0.0
O158 O 0.71997 0.64105 0.39103 0.0
O159 O 0.71385 0.67207 0.47617 0.0
O160 O 0.72763 0.66893 0.43927 0.0
C161 C 0.65508 0.65029 0.43673 0.0
C162 C 0.71509 0.606 0.46233 0.0
O163 O 0.71792 0.61342 0.44113 0.0
O164 O 0.705 0.61728 0.47829 0.0
C165 C 0.71992 0.62392 0.37868 0.0
O166 O 0.71304 0.60599 0.38886 0.0
C167 C 0.72742 0.67859 0.4595 0.0
Zn168 Zn 0.12935 0.40645 0.86422 0.0
Zn169 Zn 0.14366 0.37531 0.89441 0.0
O170 O 0.10721 0.37048 0.89132 0.0
O171 O 0.09593 0.39434 0.8645 0.0
O172 O 0.15422 0.35183 0.9169 0.0
O173 O 0.15325 0.39587 0.83984 0.0
O174 O 0.16318 0.36925 0.86371 0.0
C175 C 0.09089 0.37897 0.87842 0.0
C176 C 0.14923 0.42259 0.90827 0.0
O177 O 0.15302 0.40284 0.91238 0.0
O178 O 0.13873 0.42838 0.88917 0.0
C179 C 0.15052 0.35252 0.93945 0.0
O180 O 0.13931 0.36908 0.94865 0.0
C181 C 0.1653 0.37908 0.84376 0.0
Zn182 Zn 0.3711 0.59183 0.36631 0.0
Zn183 Zn 0.35464 0.62384 0.39465 0.0
O184 O 0.39075 0.63022 0.39228 0.0
O185 O 0.40443 0.60416 0.36946 0.0
O186 O 0.34172 0.64717 0.41601 0.0
O187 O 0.34942 0.60212 0.33975 0.0
O188 O 0.33519 0.62734 0.3634 0.0
C189 C 0.40814 0.6209 0.38172 0.0
C190 C 0.34933 0.57687 0.41012 0.0
O191 O 0.34685 0.59683 0.41386 0.0
O192 O 0.35893 0.57034 0.39083 0.0
C193 C 0.35 0.65029 0.43703 0.0
O194 O 0.36782 0.63838 0.44472 0.0
C195 C 0.33534 0.6177 0.34321 0.0
Zn196 Zn 0.12168 0.59134 0.13748 0.0
Zn197 Zn 0.1383 0.62356 0.10987 0.0
O198 O 0.10191 0.6296 0.1125 0.0
O199 O 0.08824 0.60269 0.13405 0.0
O200 O 0.15024 0.64749 0.08866 0.0
O201 O 0.14296 0.60188 0.16436 0.0
O202 O 0.15743 0.62737 0.14121 0.0
C203 C 0.0845 0.61973 0.12238 0.0
C204 C 0.14412 0.57656 0.09423 0.0
O205 O 0.14731 0.59649 0.09075 0.0
O206 O 0.13359 0.57006 0.11301 0.0
C207 C 0.1465 0.64727 0.0661 0.0
O208 O 0.13453 0.63126 0.05664 0.0
C209 C 0.15694 0.6176 0.16131 0.0
Zn210 Zn 0.36844 0.40797 0.64076 0.0
Zn211 Zn 0.35662 0.3755 0.611 0.0
O212 O 0.39303 0.37188 0.61478 0.0
O213 O 0.40291 0.39806 0.63934 0.0
O214 O 0.34693 0.35149 0.5888 0.0
O215 O 0.3464 0.39591 0.66582 0.0
O216 O 0.33679 0.36942 0.64163 0.0
C217 C 0.40884 0.38207 0.6267 0.0
C218 C 0.3476 0.42241 0.59653 0.0
O219 O 0.34707 0.40244 0.5921 0.0
O220 O 0.3557 0.42911 0.61642 0.0
C221 C 0.35031 0.35231 0.56621 0.0
O222 O 0.36095 0.36913 0.55693 0.0
C223 C 0.33469 0.37896 0.66178 0.0
H224 H 0.24312 0.20231 0.07689 0.0
H225 H 0.21669 0.23265 0.06696 0.0
H226 H 0.2283 0.22107 0.99146 0.0
H227 H 0.25448 0.19123 1.00102 0.0
H228 H 0.23115 0.2698 0.03668 0.0
H229 H 0.15401 0.22525 0.99919 0.0
H230 H 0.17528 0.21333 0.01973 0.0
H231 H 0.18242 0.21583 0.98833 0.0
C232 C 0.23979 0.20615 0.05821 0.0
C233 C 0.25093 0.1944 0.03975 0.0
C234 C 0.22476 0.22346 0.05258 0.0
C235 C 0.22036 0.22887 0.02848 0.0
C236 C 0.23118 0.21694 0.01016 0.0
H237 H 0.17236 0.3154 0.92578 0.0
H238 H 0.18668 0.28648 0.9515 0.0
C239 C 0.24629 0.19995 0.0157 0.0
C240 C 0.20567 0.24765 0.02179 0.0
H241 H 0.15899 0.26151 0.98539 0.0
C242 C 0.21497 0.26814 0.02603 0.0
C243 C 0.18463 0.24533 0.00789 0.0
C244 C 0.17334 0.22375 0.00369 0.0
C245 C 0.20479 0.28626 0.01512 0.0
C246 C 0.1847 0.28371 0.99986 0.0
C247 C 0.1745 0.26338 0.99695 0.0
C248 C 0.17559 0.30143 0.98475 0.0
C249 C 0.21652 0.30776 0.01862 0.0
C250 C 0.16445 0.31937 0.99495 0.0
C251 C 0.1562 0.33599 0.98025 0.0
C252 C 0.15896 0.33491 0.95512 0.0
C253 C 0.16998 0.3168 0.94504 0.0
C254 C 0.17814 0.30022 0.95971 0.0
H255 H 0.23379 0.30653 0.02847 0.0
H256 H 0.21984 0.31551 1.00098 0.0
H257 H 0.20435 0.31829 0.02905 0.0
H258 H 0.16206 0.32047 0.01423 0.0
H259 H 0.14773 0.34968 0.98859 0.0
H260 H 0.31043 0.67477 0.42815 0.0
H261 H 0.29197 0.70127 0.45456 0.0
H262 H 0.34608 0.68941 0.50824 0.0
H263 H 0.36478 0.66275 0.48191 0.0
H264 H 0.2754 0.69333 0.50491 0.0
H265 H 0.34566 0.75627 0.49629 0.0
H266 H 0.34223 0.73538 0.47414 0.0
H267 H 0.35479 0.7293 0.50299 0.0
C268 C 0.31851 0.67781 0.44552 0.0
C269 C 0.33913 0.66667 0.45288 0.0
C270 C 0.30789 0.69292 0.46061 0.0
C271 C 0.31775 0.69734 0.48325 0.0
C272 C 0.33834 0.68632 0.49072 0.0
H273 H 0.26315 0.80431 0.57159 0.0
H274 H 0.28677 0.77234 0.5614 0.0
C275 C 0.34894 0.67108 0.47567 0.0
C276 C 0.30614 0.71341 0.4989 0.0
H277 H 0.3107 0.76525 0.51749 0.0
C278 C 0.28324 0.70895 0.50799 0.0
C279 C 0.31658 0.73365 0.50314 0.0
C280 C 0.34113 0.73914 0.49362 0.0
C281 C 0.27003 0.72456 0.52032 0.0
C282 C 0.27978 0.74529 0.52311 0.0
C283 C 0.30326 0.74935 0.5153 0.0
C284 C 0.26478 0.76357 0.53091 0.0
C285 C 0.24547 0.71888 0.52968 0.0
C286 C 0.24474 0.76921 0.51712 0.0
C287 C 0.2314 0.78733 0.52278 0.0
C288 C 0.23783 0.80038 0.54234 0.0
C289 C 0.25768 0.79453 0.55649 0.0
C290 C 0.27119 0.77633 0.55068 0.0
H291 H 0.24413 0.70153 0.53372 0.0
H292 H 0.24107 0.72806 0.54618 0.0
H293 H 0.23189 0.72267 0.51574 0.0
H294 H 0.23977 0.7599 0.50148 0.0
H295 H 0.21623 0.79131 0.51148 0.0
H296 H 0.28377 0.78317 0.98759 0.0
H297 H 0.25778 0.75327 0.99781 0.0
H298 H 0.20487 0.77576 0.9473 0.0
H299 H 0.23107 0.806 0.93673 0.0
H300 H 0.18796 0.76747 0.99603 0.0
H301 H 0.23902 0.6992 0.95868 0.0
H302 H 0.25727 0.71751 0.97553 0.0
H303 H 0.24303 0.72634 0.94828 0.0
C304 C 0.26674 0.78169 0.97838 0.0
C305 C 0.25943 0.797 0.96139 0.0
C306 C 0.25198 0.76448 0.98414 0.0
C307 C 0.22955 0.76219 0.97312 0.0
C308 C 0.22224 0.7772 0.95584 0.0
H309 H 0.14611 0.64941 0.01694 0.0
H310 H 0.16295 0.67758 0.99145 0.0
C311 C 0.23721 0.79439 0.9498 0.0
C312 C 0.21331 0.745 0.98142 0.0
H313 H 0.2114 0.69111 0.99066 0.0
C314 C 0.19276 0.75073 0.99444 0.0
C315 C 0.21952 0.72319 0.97916 0.0
C316 C 0.2408 0.71613 0.96445 0.0
C317 C 0.17912 0.73527 0.00658 0.0
C318 C 0.18641 0.71363 0.00582 0.0
C319 C 0.20601 0.70775 0.99147 0.0
C320 C 0.17506 0.69711 0.02113 0.0
C321 C 0.15739 0.74228 0.02064 0.0
C322 C 0.17649 0.69869 0.04625 0.0
C323 C 0.16704 0.6826 0.06086 0.0
C324 C 0.15597 0.66458 0.05062 0.0
C325 C 0.15444 0.66311 0.02542 0.0
C326 C 0.16404 0.67917 0.01081 0.0
H327 H 0.15026 0.75775 0.01391 0.0
H328 H 0.14295 0.73009 0.01974 0.0
H329 H 0.16246 0.74446 0.03977 0.0
H330 H 0.18536 0.7122 0.05457 0.0
H331 H 0.16859 0.68423 0.08018 0.0
H332 H 0.35015 0.35092 0.51696 0.0
H333 H 0.33323 0.32296 0.49117 0.0
H334 H 0.31311 0.28675 0.55393 0.0
H335 H 0.32998 0.31447 0.57982 0.0
H336 H 0.33581 0.26244 0.5153 0.0
H337 H 0.2593 0.31297 0.48494 0.0
H338 H 0.28904 0.32374 0.48173 0.0
H339 H 0.27685 0.31953 0.51119 0.0
C340 C 0.34225 0.33695 0.52528 0.0
C341 C 0.34128 0.33499 0.55047 0.0
C342 C 0.33254 0.32103 0.5105 0.0
C343 C 0.32176 0.30292 0.52068 0.0
C344 C 0.32136 0.30065 0.54575 0.0
H345 H 0.21801 0.21116 0.49236 0.0
H346 H 0.24344 0.24141 0.50255 0.0
C347 C 0.33094 0.31654 0.56052 0.0
C348 C 0.31008 0.28652 0.50547 0.0
H349 H 0.25948 0.27711 0.47263 0.0
C350 C 0.31936 0.26567 0.50557 0.0
C351 C 0.28859 0.29087 0.49292 0.0
C352 C 0.27766 0.31293 0.49267 0.0
C353 C 0.30715 0.24882 0.49424 0.0
C354 C 0.28519 0.25302 0.48247 0.0
C355 C 0.27645 0.27404 0.4815 0.0
C356 C 0.26933 0.23547 0.47443 0.0
C357 C 0.31702 0.22643 0.49613 0.0
C358 C 0.27526 0.22229 0.45487 0.0
C359 C 0.26061 0.20486 0.44886 0.0
C360 C 0.23998 0.20034 0.4625 0.0
C361 C 0.23386 0.21403 0.4816 0.0
C362 C 0.24833 0.23141 0.48742 0.0
H363 H 0.33315 0.22561 0.5078 0.0
H364 H 0.30317 0.21547 0.50344 0.0
H365 H 0.32197 0.2206 0.47796 0.0
H366 H 0.29134 0.22531 0.44451 0.0
H367 H 0.26576 0.19463 0.43404 0.0
H368 H 0.77396 0.70525 0.00597 0.0
H369 H 0.75011 0.73648 0.99606 0.0
H370 H 0.70767 0.72728 0.05998 0.0
H371 H 0.73168 0.69553 0.0702 0.0
H372 H 0.68082 0.73397 0.01623 0.0
H373 H 0.75071 0.79569 0.02831 0.0
H374 H 0.76109 0.77356 0.01062 0.0
H375 H 0.75291 0.76939 0.04157 0.0
C376 C 0.75968 0.70983 0.01811 0.0
C377 C 0.75476 0.69785 0.03892 0.0
C378 C 0.74616 0.72783 0.01246 0.0
C379 C 0.7274 0.7344 0.02748 0.0
C380 C 0.72226 0.72255 0.04829 0.0
H381 H 0.63083 0.8388 0.98056 0.0
H382 H 0.64859 0.81155 0.00683 0.0
C383 C 0.73598 0.70447 0.0541 0.0
C384 C 0.71269 0.75302 0.02025 0.0
H385 H 0.71838 0.80459 1.00113 0.0
C386 C 0.68875 0.74961 0.01351 0.0
C387 C 0.72312 0.77339 0.01679 0.0
C388 C 0.74831 0.77831 0.02494 0.0
C389 C 0.67557 0.76561 0.00168 0.0
C390 C 0.68665 0.78543 0.99668 0.0
C391 C 0.71004 0.78928 0.00481 0.0
C392 C 0.67526 0.80156 0.98097 0.0
C393 C 0.65045 0.76085 0.99324 0.0
C394 C 0.68447 0.80493 0.95784 0.0
C395 C 0.6744 0.82037 0.94281 0.0
C396 C 0.655 0.83288 0.9507 0.0
C397 C 0.64573 0.82941 0.97392 0.0
C398 C 0.65579 0.81384 0.98893 0.0
H399 H 0.6451 0.74406 0.99692 0.0
H400 H 0.63765 0.77166 0.00248 0.0
H401 H 0.64894 0.76388 0.97363 0.0
H402 H 0.69952 0.7956 0.95141 0.0
H403 H 0.68202 0.82263 0.92508 0.0
H404 H 0.82991 0.18775 0.42454 0.0
H405 H 0.81416 0.2154 0.45121 0.0
H406 H 0.83575 0.17847 0.51296 0.0
H407 H 0.85154 0.1506 0.48638 0.0
H408 H 0.78802 0.19274 0.51471 0.0
H409 H 0.8498 0.25928 0.49319 0.0
H410 H 0.83722 0.24704 0.46687 0.0
H411 H 0.85661 0.23174 0.48615 0.0
C412 C 0.83153 0.18556 0.44378 0.0
C413 C 0.84201 0.16697 0.45332 0.0
C414 C 0.82267 0.20147 0.45901 0.0
C415 C 0.82413 0.19913 0.48405 0.0
C416 C 0.83465 0.18065 0.49367 0.0
H417 H 0.76902 0.30771 0.56959 0.0
H418 H 0.79512 0.27736 0.55914 0.0
C419 C 0.84366 0.16476 0.47844 0.0
C420 C 0.81313 0.21539 0.49998 0.0
H421 H 0.81199 0.26905 0.51103 0.0
C422 C 0.79355 0.20936 0.51429 0.0
C423 C 0.8206 0.23699 0.49976 0.0
C424 C 0.84237 0.24414 0.48585 0.0
C425 C 0.78019 0.22464 0.527 0.0
C426 C 0.7865 0.24647 0.52517 0.0
C427 C 0.80709 0.2523 0.51228 0.0
C428 C 0.77024 0.2636 0.53362 0.0
C429 C 0.75893 0.21741 0.54163 0.0
C430 C 0.74773 0.26583 0.52276 0.0
C431 C 0.73303 0.28309 0.52847 0.0
C432 C 0.74049 0.29855 0.54522 0.0
C433 C 0.76276 0.29599 0.55671 0.0
C434 C 0.77767 0.27873 0.55074 0.0
H435 H 0.76088 0.20049 0.54737 0.0
H436 H 0.75652 0.22757 0.55782 0.0
H437 H 0.74249 0.21863 0.53049 0.0
H438 H 0.74183 0.25456 0.50921 0.0
H439 H 0.71595 0.28454 0.51934 0.0
H440 H 0.7328 0.3054 0.9329 0.0
H441 H 0.70689 0.27469 0.94241 0.0
H442 H 0.75648 0.25494 0.99755 0.0
H443 H 0.78223 0.28521 0.98829 0.0
H444 H 0.73787 0.22086 0.96697 0.0
H445 H 0.66775 0.2734 0.00716 0.0
H446 H 0.67776 0.2789 0.97702 0.0
H447 H 0.69785 0.28285 0.00178 0.0
C448 C 0.73827 0.29433 0.94682 0.0
C449 C 0.75942 0.29786 0.96001 0.0
C450 C 0.72344 0.27688 0.95228 0.0
C451 C 0.72973 0.26271 0.97082 0.0
C452 C 0.75132 0.26572 0.9832 0.0
H453 H 0.67204 0.18394 0.07712 0.0
H454 H 0.68873 0.21124 0.05059 0.0
C455 C 0.76596 0.28311 0.97793 0.0
C456 C 0.71352 0.24537 0.97876 0.0
H457 H 0.66431 0.23654 0.01383 0.0
C458 C 0.72146 0.22416 0.97673 0.0
C459 C 0.6923 0.24987 0.99169 0.0
C460 C 0.68331 0.27246 0.99475 0.0
C461 C 0.70933 0.2074 0.98829 0.0
C462 C 0.68871 0.21204 0.0021 0.0
C463 C 0.68012 0.2331 0.00316 0.0
C464 C 0.67746 0.19574 0.01773 0.0
C465 C 0.71947 0.18507 0.98692 0.0
C466 C 0.66536 0.1781 0.00799 0.0
C467 C 0.65576 0.16242 0.02314 0.0
C468 C 0.65815 0.16414 0.04826 0.0
C469 C 0.66995 0.18206 0.05788 0.0
C470 C 0.67944 0.19772 0.04276 0.0
H471 H 0.73725 0.18466 0.97795 0.0
H472 H 0.7213 0.17819 0.00523 0.0
H473 H 0.707 0.17472 0.97662 0.0
H474 H 0.66347 0.17642 0.98871 0.0
H475 H 0.64671 0.14885 0.01515 0.0
H476 H 0.86939 0.83645 0.52145 0.0
H477 H 0.85142 0.80936 0.49509 0.0
H478 H 0.79434 0.8001 0.54626 0.0
H479 H 0.81202 0.82698 0.57261 0.0
H480 H 0.8401 0.76512 0.50665 0.0
H481 H 0.75973 0.81196 0.48144 0.0
H482 H 0.78644 0.82416 0.49368 0.0
H483 H 0.76507 0.8115 0.51327 0.0
C484 C 0.85299 0.82865 0.52707 0.0
C485 C 0.84208 0.83394 0.5491 0.0
C486 C 0.84278 0.8132 0.51199 0.0
C487 C 0.82137 0.80302 0.51857 0.0
C488 C 0.81064 0.80808 0.54066 0.0
H489 H 0.7261 0.70463 0.49851 0.0
H490 H 0.75109 0.73543 0.50724 0.0
C491 C 0.82087 0.82336 0.55577 0.0
C492 C 0.81025 0.78666 0.50291 0.0
H493 H 0.75693 0.7738 0.47662 0.0
C494 C 0.82215 0.76712 0.49951 0.0
C495 C 0.78694 0.78945 0.49346 0.0
C496 C 0.77387 0.81049 0.49541 0.0
C497 C 0.81052 0.7497 0.4886 0.0
C498 C 0.78656 0.75207 0.48079 0.0
C499 C 0.77531 0.77205 0.48269 0.0
C500 C 0.77162 0.73338 0.47439 0.0
C501 C 0.82323 0.72847 0.48701 0.0
C502 C 0.77483 0.72204 0.45283 0.0
C503 C 0.76039 0.70423 0.44766 0.0
C504 C 0.74269 0.69756 0.46405 0.0
C505 C 0.73959 0.70918 0.48548 0.0
C506 C 0.75383 0.72687 0.49052 0.0
H507 H 0.84144 0.72902 0.49507 0.0
H508 H 0.81259 0.71598 0.49635 0.0
H509 H 0.82489 0.72366 0.46789 0.0
H510 H 0.78841 0.72696 0.44008 0.0
H511 H 0.7632 0.69564 0.43099 0.0
H512 H 0.2899 0.0883 0.99712 0.0
H513 H 0.2838 0.05132 0.9852 0.0
H514 H 0.26339 0.03519 0.0577 0.0
H515 H 0.26935 0.07258 0.06996 0.0
H516 H 0.30975 0.01714 0.00548 0.0
H517 H 0.21122 0.0062 0.01494 0.0
H518 H 0.22497 0.03227 0.01262 0.0
H519 H 0.22662 0.01762 0.0403 0.0
C520 C 0.28387 0.07703 0.01059 0.0
C521 C 0.28026 0.08342 0.03459 0.0
C522 C 0.28035 0.05586 0.00368 0.0
C523 C 0.27303 0.04055 0.0205 0.0
C524 C 0.26872 0.04686 0.04436 0.0
H525 H 0.28482 0.90346 0.01073 0.0
H526 H 0.27903 0.94023 0.0242 0.0
C527 C 0.27223 0.06819 0.05135 0.0
C528 C 0.27193 0.01779 0.01316 0.0
H529 H 0.23401 0.97556 0.00442 0.0
C530 C 0.29318 0.00807 0.00524 0.0
C531 C 0.25026 0.00605 0.01279 0.0
C532 C 0.22687 0.01602 0.02043 0.0
C533 C 0.29338 0.9869 0.99703 0.0
C534 C 0.27178 0.97516 0.99668 0.0
C535 C 0.25049 0.98475 0.00465 0.0
C536 C 0.27156 0.95263 0.98875 0.0
C537 C 0.31667 0.97705 0.98883 0.0
C538 C 0.26876 0.94745 0.96437 0.0
C539 C 0.27207 0.92636 0.95652 0.0
C540 C 0.27842 0.91025 0.97297 0.0
C541 C 0.28011 0.91547 0.99754 0.0
C542 C 0.2767 0.93645 0.00533 0.0
H543 H 0.33187 0.98849 0.98976 0.0
H544 H 0.32095 0.96299 1.00023 0.0
H545 H 0.31486 0.9713 0.97004 0.0
H546 H 0.26493 0.95984 0.95133 0.0
H547 H 0.27067 0.92289 0.93749 0.0
H548 H 0.22486 0.92952 0.57043 0.0
H549 H 0.23157 0.96633 0.55654 0.0
H550 H 0.24632 0.94296 0.48515 0.0
H551 H 0.23914 0.9064 0.49867 0.0
H552 H 0.26905 0.98896 0.53181 0.0
H553 H 0.18681 0.98067 0.47626 0.0
H554 H 0.1948 0.96164 0.49925 0.0
H555 H 0.20932 0.96084 0.47041 0.0
C556 C 0.23007 0.93223 0.55192 0.0
C557 C 0.23111 0.91515 0.53554 0.0
C558 C 0.23384 0.95324 0.544 0.0
C559 C 0.23885 0.95736 0.51968 0.0
C560 C 0.24191 0.94015 0.50385 0.0
H561 H 0.23247 0.07513 0.43518 0.0
H562 H 0.24183 0.03853 0.44803 0.0
C563 C 0.23789 0.91928 0.51164 0.0
C564 C 0.23877 0.97955 0.51031 0.0
H565 H 0.20857 0.01273 0.4721 0.0
C566 C 0.25588 0.99418 0.51873 0.0
C567 C 0.22152 0.98632 0.49324 0.0
C568 C 0.20192 0.97164 0.48439 0.0
C569 C 0.25626 0.01541 0.51041 0.0
C570 C 0.2389 0.02216 0.49349 0.0
C571 C 0.22202 0.00744 0.48487 0.0
C572 C 0.23648 0.04479 0.48591 0.0
C573 C 0.27528 0.03041 0.51972 0.0
C574 C 0.23052 0.06041 0.50294 0.0
C575 C 0.22505 0.08119 0.49568 0.0
C576 C 0.22536 0.08682 0.47118 0.0
C577 C 0.23214 0.07134 0.45417 0.0
C578 C 0.23748 0.05044 0.46148 0.0
H579 H 0.29109 0.02154 0.52664 0.0
H580 H 0.28129 0.04162 0.50547 0.0
H581 H 0.26777 0.03995 0.53475 0.0
H582 H 0.22911 0.05632 0.52181 0.0
H583 H 0.21995 0.09271 0.50928 0.0
H584 H 0.65317 0.96656 0.90687 0.0
H585 H 0.66037 0.99144 0.93993 0.0
H586 H 0.66768 0.93853 0.98903 0.0
H587 H 0.6605 0.91342 0.95605 0.0
H588 H 0.63264 0.97016 0.00162 0.0
H589 H 0.7208 0.00665 0.98029 0.0
H590 H 0.7 0.0056 0.95564 0.0
H591 H 0.71139 0.98118 0.9682 0.0
C592 C 0.65668 0.96016 0.92462 0.0
C593 C 0.65612 0.938 0.92885 0.0
C594 C 0.66098 0.97442 0.94345 0.0
C595 C 0.66481 0.96679 0.96683 0.0
C596 C 0.66496 0.94468 0.97103 0.0
H597 H 0.65552 0.03473 0.10355 0.0
H598 H 0.66273 0.00727 0.07317 0.0
C599 C 0.66083 0.93038 0.95217 0.0
C600 C 0.66587 0.98195 0.9872 0.0
H601 H 0.69713 0.02425 0.01001 0.0
C602 C 0.64689 0.98181 0.00369 0.0
C603 C 0.68436 0.99723 0.98959 0.0
C604 C 0.70543 0.99765 0.97262 0.0
C605 C 0.64542 0.99705 0.0221 0.0
C606 C 0.66385 0.01247 0.02448 0.0
C607 C 0.68308 0.01237 0.0082 0.0
C608 C 0.6628 0.02931 0.04319 0.0
C609 C 0.62358 0.99702 0.03814 0.0
C610 C 0.66184 0.05094 0.03656 0.0
C611 C 0.6581 0.06674 0.05394 0.0
C612 C 0.65512 0.06112 0.07823 0.0
C613 C 0.65736 0.03954 0.08494 0.0
C614 C 0.66139 0.02381 0.0676 0.0
H615 H 0.60848 0.98796 0.03002 0.0
H616 H 0.62814 0.9893 0.05549 0.0
H617 H 0.61741 0.01357 0.04188 0.0
H618 H 0.66304 0.05553 0.01782 0.0
H619 H 0.65657 0.08323 0.04821 0.0
H620 H 0.83104 0.08884 0.45318 0.0
H621 H 0.82248 0.06349 0.48557 0.0
H622 H 0.8386 0.01094 0.43812 0.0
H623 H 0.847 0.03605 0.40558 0.0
H624 H 0.79719 0.00471 0.46976 0.0
H625 H 0.8799 0.03142 0.51707 0.0
H626 H 0.85875 0.05196 0.5093 0.0
H627 H 0.87416 0.03771 0.48594 0.0
C628 C 0.83247 0.0719 0.44952 0.0
C629 C 0.84001 0.06449 0.42687 0.0
C630 C 0.8276 0.05744 0.46806 0.0
C631 C 0.83021 0.0354 0.46426 0.0
C632 C 0.83652 0.02791 0.44138 0.0
H633 H 0.83774 0.9184 0.54473 0.0
H634 H 0.83009 0.9456 0.5141 0.0
C635 C 0.84142 0.04231 0.42285 0.0
C636 C 0.82837 0.02017 0.48449 0.0
H637 H 0.85745 0.00425 0.53531 0.0
C638 C 0.81021 0.00465 0.48424 0.0
C639 C 0.84545 0.02017 0.50325 0.0
C640 C 0.86581 0.03607 0.50396 0.0
C641 C 0.80871 0.98904 0.50234 0.0
C642 C 0.82616 0.98875 0.5208 0.0
C643 C 0.84403 0.00454 0.52121 0.0
C644 C 0.82714 0.97179 0.53939 0.0
C645 C 0.78841 0.97314 0.50161 0.0
C646 C 0.82803 0.97743 0.56378 0.0
C647 C 0.83282 0.962 0.58125 0.0
C648 C 0.83675 0.94059 0.57468 0.0
C649 C 0.83468 0.93475 0.55037 0.0
C650 C 0.83013 0.95026 0.53285 0.0
H651 H 0.77283 0.97951 0.49143 0.0
H652 H 0.79457 0.9584 0.4924 0.0
H653 H 0.78242 0.96878 0.52 0.0
H654 H 0.82584 0.99394 0.56924 0.0
H655 H 0.83411 0.967 0.59985 0.0
H656 H 0.77418 0.40211 0.01163 0.0
H657 H 0.76531 0.43787 0.02653 0.0
H658 H 0.76232 0.46142 0.95373 0.0
H659 H 0.77072 0.42537 0.93857 0.0
H660 H 0.79453 0.47144 0.01987 0.0
H661 H 0.7046 0.49067 0.98355 0.0
H662 H 0.71631 0.46376 0.98422 0.0
H663 H 0.72542 0.482 0.96097 0.0
C664 C 0.77123 0.4148 0.99872 0.0
C665 C 0.7733 0.41092 0.97389 0.0
C666 C 0.76612 0.43524 0.00729 0.0
C667 C 0.76299 0.45232 0.99129 0.0
C668 C 0.76417 0.44841 0.96643 0.0
H669 H 0.77042 0.58781 0.99779 0.0
H670 H 0.76365 0.55039 0.98786 0.0
C671 C 0.76909 0.42782 0.95777 0.0
C672 C 0.7611 0.47444 1.00081 0.0
H673 H 0.72742 0.52003 0.99908 0.0
C674 C 0.77967 0.48197 0.0156 0.0
C675 C 0.74174 0.48816 0.99519 0.0
C676 C 0.72076 0.4807 0.9803 0.0
C677 C 0.77988 0.50303 0.02423 0.0
C678 C 0.76078 0.51689 0.01822 0.0
C679 C 0.74195 0.5093 0.0038 0.0
C680 C 0.7614 0.53986 0.02479 0.0
C681 C 0.80109 0.51054 0.03883 0.0
C682 C 0.76154 0.5465 0.04893 0.0
C683 C 0.76547 0.56802 0.05476 0.0
C684 C 0.76935 0.58316 0.03648 0.0
C685 C 0.76777 0.57655 0.01234 0.0
C686 C 0.76379 0.55516 0.00658 0.0
H687 H 0.81629 0.49908 0.03806 0.0
H688 H 0.80744 0.52635 0.03237 0.0
H689 H 0.79564 0.5123 0.0579 0.0
H690 H 0.75938 0.53494 0.06325 0.0
H691 H 0.76649 0.57261 0.0735 0.0
H692 H 0.7227 0.40275 0.49443 0.0
H693 H 0.73011 0.43875 0.47944 0.0
H694 H 0.73266 0.46242 0.55222 0.0
H695 H 0.72586 0.42615 0.56744 0.0
H696 H 0.70016 0.47141 0.48564 0.0
H697 H 0.78891 0.49344 0.52274 0.0
H698 H 0.77815 0.46622 0.52236 0.0
H699 H 0.76831 0.48446 0.54534 0.0
C700 C 0.72527 0.41553 0.5073 0.0
C701 C 0.72359 0.41161 0.53214 0.0
C702 C 0.72953 0.43612 0.49868 0.0
C703 C 0.73212 0.4533 0.51466 0.0
C704 C 0.73126 0.44936 0.53953 0.0
H705 H 0.71895 0.58869 0.50704 0.0
H706 H 0.72607 0.55143 0.5176 0.0
C707 C 0.72724 0.42864 0.54822 0.0
C708 C 0.73321 0.47547 0.50513 0.0
H709 H 0.76494 0.52215 0.50729 0.0
C710 C 0.71453 0.4824 0.4901 0.0
C711 C 0.75193 0.48983 0.51098 0.0
C712 C 0.77308 0.48307 0.52605 0.0
C713 C 0.7136 0.50343 0.48141 0.0
C714 C 0.732 0.51791 0.4877 0.0
C715 C 0.75093 0.51095 0.50239 0.0
C716 C 0.73063 0.54078 0.48093 0.0
C717 C 0.6924 0.51025 0.46639 0.0
C718 C 0.73151 0.54727 0.45676 0.0
C719 C 0.72744 0.56869 0.45058 0.0
C720 C 0.72233 0.58388 0.46851 0.0
C721 C 0.72259 0.57739 0.49274 0.0
C722 C 0.72677 0.5561 0.49886 0.0
H723 H 0.67777 0.4982 0.46662 0.0
H724 H 0.68514 0.52573 0.4729 0.0
H725 H 0.69823 0.51246 0.44748 0.0
H726 H 0.73473 0.53568 0.44267 0.0
H727 H 0.72744 0.57318 0.43178 0.0
H728 H 0.18118 0.5793 0.06199 0.0
H729 H 0.19199 0.55313 0.03096 0.0
H730 H 0.13279 0.51324 0.05301 0.0
H731 H 0.12311 0.53846 0.08485 0.0
H732 H 0.16863 0.4893 0.04379 0.0
H733 H 0.16024 0.54682 0.96813 0.0
H734 H 0.18314 0.55352 0.98943 0.0
H735 H 0.15213 0.55382 0.99844 0.0
C736 C 0.17063 0.56485 0.0602 0.0
C737 C 0.15127 0.5609 0.07573 0.0
C738 C 0.17668 0.54999 0.04235 0.0
C739 C 0.1629 0.53138 0.03921 0.0
C740 C 0.14377 0.52742 0.05501 0.0
H741 H 0.12686 0.46034 0.91629 0.0
H742 H 0.1349 0.48621 0.94795 0.0
C743 C 0.13819 0.54188 0.0732 0.0
C744 C 0.16765 0.51599 0.01938 0.0
H745 H 0.1694 0.51136 0.95827 0.0
C746 C 0.16888 0.49413 0.02506 0.0
C747 C 0.16808 0.52229 0.99493 0.0
C748 C 0.16563 0.54535 0.98729 0.0
C749 C 0.1688 0.47836 0.00712 0.0
C750 C 0.16882 0.48464 0.98266 0.0
C751 C 0.16932 0.50654 0.977 0.0
C752 C 0.16529 0.46909 0.96274 0.0
C753 C 0.16701 0.45523 0.01472 0.0
C754 C 0.17986 0.45088 0.96016 0.0
C755 C 0.17474 0.43564 0.94243 0.0
C756 C 0.15557 0.43881 0.92645 0.0
C757 C 0.1418 0.45751 0.92832 0.0
C758 C 0.14645 0.47235 0.9464 0.0
H759 H 0.16111 0.45361 0.03371 0.0
H760 H 0.1542 0.44635 0.00319 0.0
H761 H 0.18489 0.4476 0.01314 0.0
H762 H 0.195 0.44831 0.97196 0.0
H763 H 0.18582 0.42147 0.94114 0.0
H764 H 0.34834 0.53325 0.40667 0.0
H765 H 0.34044 0.50757 0.43882 0.0
H766 H 0.32652 0.55934 0.48802 0.0
H767 H 0.33439 0.58522 0.45601 0.0
H768 H 0.36264 0.52937 0.50245 0.0
H769 H 0.27844 0.48887 0.47486 0.0
H770 H 0.30081 0.49132 0.45175 0.0
H771 H 0.28698 0.51494 0.46376 0.0
C772 C 0.34323 0.53921 0.42423 0.0
C773 C 0.34214 0.5613 0.42882 0.0
C774 C 0.33854 0.52449 0.44251 0.0
C775 C 0.33265 0.53158 0.46567 0.0
C776 C 0.33084 0.55358 0.47017 0.0
H777 H 0.33651 0.46451 0.60283 0.0
H778 H 0.32943 0.4913 0.57168 0.0
C779 C 0.33539 0.56833 0.45186 0.0
C780 C 0.33119 0.51616 0.48575 0.0
H781 H 0.30079 0.47249 0.50637 0.0
C782 C 0.34896 0.51708 0.50352 0.0
C783 C 0.31347 0.50005 0.48682 0.0
C784 C 0.29369 0.49874 0.4684 0.0
C785 C 0.34997 0.50192 0.52201 0.0
C786 C 0.33226 0.48574 0.52315 0.0
C787 C 0.31427 0.48496 0.50552 0.0
C788 C 0.33284 0.46908 0.54207 0.0
C789 C 0.37061 0.50289 0.53956 0.0
C790 C 0.33563 0.44749 0.53579 0.0
C791 C 0.33928 0.43204 0.5536 0.0
C792 C 0.34037 0.43802 0.57794 0.0
C793 C 0.33617 0.45947 0.58421 0.0
C794 C 0.3322 0.47481 0.56644 0.0
H795 H 0.38575 0.51254 0.53246 0.0
H796 H 0.36444 0.51048 0.55649 0.0
H797 H 0.37735 0.48664 0.54385 0.0
H798 H 0.33601 0.44271 0.51708 0.0
H799 H 0.34236 0.41563 0.54821 0.0
H800 H 0.54919 0.10723 0.1482 0.0
H801 H 0.50744 0.11743 0.14142 0.0
H802 H 0.5297 0.16213 0.08686 0.0
H803 H 0.5716 0.15204 0.09341 0.0
H804 H 0.48386 0.16014 0.14194 0.0
H805 H 0.48277 0.11879 0.05332 0.0
H806 H 0.50545 0.11363 0.07573 0.0
H807 H 0.50659 0.13767 0.05817 0.0
C808 C 0.54528 0.11937 0.13487 0.0
C809 C 0.56373 0.12868 0.12117 0.0
C810 C 0.52142 0.12522 0.13112 0.0
C811 C 0.51556 0.14035 0.11352 0.0
C812 C 0.53393 0.15026 0.1004 0.0
H813 H 0.37982 0.17224 0.04769 0.0
H814 H 0.42169 0.17212 0.06029 0.0
C815 C 0.55784 0.1445 0.10419 0.0
C816 C 0.49015 0.14475 0.10792 0.0
H817 H 0.44753 0.13649 0.06502 0.0
C818 C 0.47585 0.15508 0.12511 0.0
C819 C 0.47988 0.13804 0.08598 0.0
C820 C 0.49433 0.12627 0.06724 0.0
C821 C 0.45144 0.1591 0.12077 0.0
C822 C 0.44108 0.15215 0.09891 0.0
C823 C 0.45551 0.14191 0.08173 0.0
C824 C 0.41526 0.15486 0.09336 0.0
C825 C 0.43713 0.17103 0.13945 0.0
C826 C 0.3976 0.14559 0.10804 0.0
C827 C 0.37352 0.14583 0.10098 0.0
C828 C 0.36681 0.155 0.07892 0.0
C829 C 0.38443 0.16491 0.06471 0.0
C830 C 0.40838 0.16488 0.07189 0.0
H831 H 0.44889 0.18071 0.15134 0.0
H832 H 0.42374 0.18177 0.13096 0.0
H833 H 0.42743 0.15935 0.15089 0.0
H834 H 0.40254 0.13733 0.12441 0.0
H835 H 0.36038 0.13793 0.11222 0.0
H836 H 0.94622 0.91056 0.62287 0.0
H837 H 0.98818 0.90133 0.61682 0.0
H838 H 0.96848 0.83538 0.60541 0.0
H839 H 0.92608 0.84484 0.61017 0.0
H840 H 0.01794 0.87676 0.63964 0.0
H841 H 0.00764 0.84525 0.54691 0.0
H842 H 0.98362 0.85867 0.5624 0.0
H843 H 0.99029 0.8311 0.56886 0.0
C844 C 0.95079 0.89408 0.61903 0.0
C845 C 0.93286 0.87845 0.61679 0.0
C846 C 0.97482 0.8888 0.61563 0.0
C847 C 0.98154 0.86771 0.61027 0.0
C848 C 0.96372 0.85188 0.60882 0.0
H849 H 0.13755 0.84143 0.60975 0.0
H850 H 0.09524 0.84114 0.62181 0.0
C851 C 0.93953 0.85726 0.61169 0.0
C852 C 0.00723 0.86273 0.60596 0.0
H853 H 0.04621 0.84364 0.56385 0.0
C854 C 0.02414 0.86946 0.62309 0.0
C855 C 0.01531 0.8533 0.5843 0.0
C856 C 0.99831 0.84684 0.56446 0.0
C857 C 0.04887 0.86786 0.61878 0.0
C858 C 0.05695 0.85841 0.59712 0.0
C859 C 0.04001 0.85084 0.58047 0.0
C860 C 0.08266 0.85799 0.59019 0.0
C861 C 0.06596 0.87737 0.6369 0.0
C862 C 0.08963 0.86693 0.56813 0.0
C863 C 0.11355 0.86656 0.56097 0.0
C864 C 0.13117 0.85754 0.57587 0.0
C865 C 0.12434 0.8487 0.59805 0.0
C866 C 0.1002 0.84865 0.60501 0.0
H867 H 0.0568 0.88882 0.6491 0.0
H868 H 0.07359 0.86439 0.64812 0.0
H869 H 0.08093 0.88584 0.62786 0.0
H870 H 0.0765 0.8743 0.55641 0.0
H871 H 0.11827 0.87359 0.54382 0.0
H872 H 0.38591 0.83437 0.95335 0.0
H873 H 0.42665 0.83703 0.93769 0.0
H874 H 0.39946 0.86305 0.87133 0.0
H875 H 0.35839 0.86043 0.88685 0.0
H876 H 0.44803 0.82035 0.89181 0.0
H877 H 0.44666 0.90906 0.90118 0.0
H878 H 0.42558 0.89209 0.91674 0.0
H879 H 0.42238 0.89665 0.88508 0.0
C880 C 0.3885 0.84048 0.93532 0.0
C881 C 0.36891 0.84739 0.92142 0.0
C882 C 0.4118 0.84189 0.92639 0.0
C883 C 0.41599 0.85039 0.90349 0.0
C884 C 0.3965 0.85657 0.88914 0.0
H885 H 0.55315 0.89475 0.848 0.0
H886 H 0.51088 0.88514 0.85136 0.0
C887 C 0.37309 0.85502 0.89801 0.0
C888 C 0.44092 0.854 0.8955 0.0
H889 H 0.48267 0.89332 0.8887 0.0
C890 C 0.45562 0.83629 0.89086 0.0
C891 C 0.45065 0.87482 0.89433 0.0
C892 C 0.43565 0.89432 0.8997 0.0
C893 C 0.47999 0.83886 0.88523 0.0
C894 C 0.48995 0.85967 0.8849 0.0
C895 C 0.47503 0.87738 0.88897 0.0
C896 C 0.51593 0.86357 0.88134 0.0
C897 C 0.49475 0.81929 0.8796 0.0
C898 C 0.5329 0.85452 0.89698 0.0
C899 C 0.55716 0.85984 0.89498 0.0
C900 C 0.56482 0.87462 0.87756 0.0
C901 C 0.54783 0.88338 0.86169 0.0
C902 C 0.52366 0.87789 0.86355 0.0
H903 H 0.48335 0.806 0.87292 0.0
H904 H 0.50871 0.8228 0.86593 0.0
H905 H 0.50377 0.81373 0.89624 0.0
H906 H 0.5273 0.84387 0.91126 0.0
H907 H 0.56976 0.85294 0.90759 0.0
H908 H 0.11452 0.16063 0.45661 0.0
H909 H 0.07349 0.15883 0.44152 0.0
H910 H 0.09939 0.13583 0.37327 0.0
H911 H 0.14076 0.13762 0.38819 0.0
H912 H 0.05211 0.17811 0.39645 0.0
H913 H 0.05146 0.08911 0.40136 0.0
H914 H 0.07283 0.10506 0.41788 0.0
H915 H 0.07606 0.10179 0.38603 0.0
C916 C 0.11158 0.15534 0.43831 0.0
C917 C 0.13091 0.1491 0.42365 0.0
C918 C 0.08812 0.15441 0.42971 0.0
C919 C 0.08349 0.14707 0.4064 0.0
C920 C 0.10269 0.14144 0.39139 0.0
H921 H 0.94561 0.10752 0.34849 0.0
H922 H 0.98807 0.1161 0.35278 0.0
C923 C 0.12627 0.14251 0.39992 0.0
C924 C 0.05842 0.14422 0.3985 0.0
H925 H 0.01575 0.10599 0.38987 0.0
C926 C 0.04413 0.16237 0.39476 0.0
C927 C 0.0482 0.12366 0.39636 0.0
C928 C 0.06278 0.10371 0.40071 0.0
C929 C 0.0197 0.16047 0.38904 0.0
C930 C 0.00926 0.13988 0.38768 0.0
C931 C 0.02376 0.12176 0.39092 0.0
C932 C 0.98322 0.13661 0.38372 0.0
C933 C 0.00542 0.18051 0.38434 0.0
C934 C 0.96631 0.14541 0.3996 0.0
C935 C 0.94194 0.14069 0.39706 0.0
C936 C 0.93411 0.12676 0.37886 0.0
C937 C 0.95105 0.11824 0.36278 0.0
C938 C 0.97534 0.12314 0.36517 0.0
H939 H 0.01715 0.19385 0.37839 0.0
H940 H 0.99146 0.1778 0.37044 0.0
H941 H 0.99645 0.18556 0.4012 0.0
H942 H 0.97202 0.15538 0.41444 0.0
H943 H 0.92937 0.14738 0.40985 0.0
H944 H 0.06902 0.66038 0.11187 0.0
H945 H 0.02735 0.67257 0.10799 0.0
H946 H 0.00266 0.6083 0.12148 0.0
H947 H 0.04378 0.59641 0.12653 0.0
H948 H 0.99445 0.66345 0.07761 0.0
H949 H 0.9594 0.63896 0.16563 0.0
H950 H 0.9911 0.6392 0.15928 0.0
H951 H 0.97303 0.61618 0.1518 0.0
C952 C 0.05462 0.64897 0.11427 0.0
C953 C 0.05963 0.6275 0.11977 0.0
C954 C 0.03084 0.65594 0.1121 0.0
C955 C 0.01176 0.6415 0.11517 0.0
C956 C 0.01691 0.61998 0.12008 0.0
H957 H 0.87964 0.63452 0.04362 0.0
H958 H 0.92099 0.63718 0.05705 0.0
C959 C 0.04051 0.61314 0.12271 0.0
C960 C 0.98649 0.64824 0.11146 0.0
H961 H 0.93001 0.63976 0.13292 0.0
C962 C 0.98041 0.65869 0.08998 0.0
C963 C 0.96807 0.64277 0.12788 0.0
C964 C 0.97334 0.63391 0.15254 0.0
C965 C 0.9564 0.66219 0.08362 0.0
C966 C 0.93796 0.65418 0.09864 0.0
C967 C 0.94405 0.64538 0.12102 0.0
C968 C 0.91258 0.65309 0.0906 0.0
C969 C 0.95116 0.6742 0.0607 0.0
C970 C 0.8938 0.66009 0.10551 0.0
C971 C 0.8699 0.65795 0.09814 0.0
C972 C 0.86446 0.64897 0.07563 0.0
C973 C 0.88327 0.64183 0.06089 0.0
C974 C 0.907 0.64358 0.06845 0.0
H975 H 0.9653 0.68629 0.05706 0.0
H976 H 0.95111 0.66284 0.04538 0.0
H977 H 0.93356 0.68245 0.06144 0.0
H978 H 0.89761 0.66723 0.12283 0.0
H979 H 0.85574 0.66356 0.10986 0.0
H980 H 0.64075 0.36495 0.61706 0.0
H981 H 0.59934 0.36725 0.63181 0.0
H982 H 0.57412 0.33711 0.56688 0.0
H983 H 0.61517 0.33485 0.55197 0.0
H984 H 0.56197 0.38965 0.60439 0.0
H985 H 0.53911 0.30481 0.62266 0.0
H986 H 0.56964 0.31447 0.62181 0.0
H987 H 0.55362 0.3097 0.59433 0.0
C988 C 0.62641 0.35851 0.60612 0.0
C989 C 0.6312 0.3498 0.58332 0.0
C990 C 0.60282 0.35984 0.61456 0.0
C991 C 0.58379 0.35213 0.60051 0.0
C992 C 0.58862 0.34284 0.57812 0.0
H993 H 0.43012 0.35502 0.59438 0.0
H994 H 0.47296 0.34736 0.59021 0.0
C995 C 0.61208 0.3417 0.56958 0.0
C996 C 0.55866 0.35555 0.60798 0.0
H997 H 0.50649 0.32933 0.62041 0.0
C998 C 0.54986 0.37653 0.60827 0.0
C999 C 0.54299 0.33833 0.61269 0.0
C1000 C 0.55178 0.31554 0.61307 0.0
C1001 C 0.5255 0.38074 0.61227 0.0
C1002 C 0.50969 0.36349 0.61676 0.0
C1003 C 0.51864 0.34251 0.61698 0.0
C1004 C 0.48367 0.36692 0.62045 0.0
C1005 C 0.51678 0.40354 0.61054 0.0
C1006 C 0.47547 0.37996 0.63923 0.0
C1007 C 0.45109 0.38454 0.64149 0.0
C1008 C 0.43439 0.37588 0.62525 0.0
C1009 C 0.44253 0.36199 0.60713 0.0
C1010 C 0.46699 0.35759 0.60474 0.0
H1011 H 0.52973 0.41389 0.60081 0.0
H1012 H 0.49922 0.40441 0.6012 0.0
H1013 H 0.51453 0.41014 0.62891 0.0
H1014 H 0.48797 0.38686 0.65193 0.0
H1015 H 0.44538 0.39506 0.65586 0.0
H1016 H 0.07069 0.35383 0.91331 0.0
H1017 H 0.02817 0.34539 0.91839 0.0
H1018 H 0.01176 0.37919 0.85284 0.0
H1019 H 0.05403 0.38816 0.84797 0.0
H1020 H 0.98409 0.39218 0.88919 0.0
H1021 H 0.98349 0.3037 0.88593 0.0
H1022 H 0.00416 0.31401 0.90773 0.0
H1023 H 0.00894 0.31933 0.8763 0.0
C1024 C 0.05807 0.35916 0.89978 0.0
C1025 C 0.06571 0.37175 0.8803 0.0
C1026 C 0.03379 0.35421 0.90262 0.0
C1027 C 0.01682 0.36143 0.88582 0.0
C1028 C 0.02455 0.3734 0.86598 0.0
H1029 H 0.85937 0.36085 0.88927 0.0
H1030 H 0.9009 0.36226 0.87481 0.0
C1031 C 0.04873 0.37853 0.86325 0.0
C1032 C 0.99082 0.35827 0.89004 0.0
H1033 H 0.94818 0.32052 0.90176 0.0
C1034 C 0.97618 0.37648 0.89158 0.0
C1035 C 0.98054 0.33779 0.89317 0.0
C1036 C 0.99505 0.31759 0.89046 0.0
C1037 C 0.95171 0.37483 0.897 0.0
C1038 C 0.9416 0.35441 0.90077 0.0
C1039 C 0.95607 0.33614 0.89879 0.0
C1040 C 0.91642 0.35191 0.9085 0.0
C1041 C 0.93703 0.39497 0.89957 0.0
C1042 C 0.9115 0.34516 0.93198 0.0
C1043 C 0.88793 0.34441 0.94029 0.0
C1044 C 0.86878 0.35026 0.9252 0.0
C1045 C 0.87371 0.35632 0.90135 0.0
C1046 C 0.89739 0.35717 0.89309 0.0
H1047 H 0.94838 0.40956 0.89979 0.0
H1048 H 0.92439 0.39621 0.88423 0.0
H1049 H 0.92629 0.39448 0.91636 0.0
H1050 H 0.92597 0.34102 0.9441 0.0
H1051 H 0.88478 0.33952 0.9587 0.0
H1052 H 0.63622 0.63746 0.39354 0.0
H1053 H 0.59388 0.63736 0.38185 0.0
H1054 H 0.57533 0.66799 0.4488 0.0
H1055 H 0.61734 0.66753 0.46086 0.0
H1056 H 0.54881 0.63349 0.44143 0.0
H1057 H 0.5481 0.68261 0.35858 0.0
H1058 H 0.56911 0.66093 0.35721 0.0
H1059 H 0.57339 0.682 0.37881 0.0
C1060 C 0.62314 0.64449 0.40556 0.0
C1061 C 0.63009 0.65238 0.42817 0.0
C1062 C 0.59897 0.64456 0.3988 0.0
C1063 C 0.58144 0.6529 0.41434 0.0
C1064 C 0.58853 0.66149 0.43651 0.0
H1065 H 0.42462 0.65135 0.41312 0.0
H1066 H 0.46644 0.66149 0.42045 0.0
C1067 C 0.61256 0.66119 0.44339 0.0
C1068 C 0.55554 0.65087 0.40868 0.0
H1069 H 0.51287 0.66181 0.36636 0.0
C1070 C 0.54093 0.63994 0.42515 0.0
C1071 C 0.54526 0.65922 0.3874 0.0
C1072 C 0.55973 0.67203 0.3696 0.0
C1073 C 0.51648 0.63669 0.4207 0.0
C1074 C 0.50633 0.64469 0.39926 0.0
C1075 C 0.52079 0.65577 0.38282 0.0
C1076 C 0.48097 0.64056 0.39316 0.0
C1077 C 0.50179 0.62417 0.4386 0.0
C1078 C 0.4754 0.6259 0.37497 0.0
C1079 C 0.45163 0.62001 0.37081 0.0
C1080 C 0.43297 0.62881 0.38467 0.0
C1081 C 0.43856 0.64425 0.40218 0.0
C1082 C 0.46241 0.65003 0.40642 0.0
H1083 H 0.51313 0.61624 0.45239 0.0
H1084 H 0.48923 0.63514 0.44793 0.0
H1085 H 0.49095 0.61179 0.42929 0.0
H1086 H 0.48952 0.61844 0.36457 0.0
H1087 H 0.44795 0.60819 0.35707 0.0
H1088 H 0.27218 0.15689 0.15521 0.0
H1089 H 0.26337 0.15702 0.19828 0.0
H1090 H 0.25326 0.0887 0.19657 0.0
H1091 H 0.26272 0.08834 0.15367 0.0
H1092 H 0.22408 0.14557 0.22298 0.0
H1093 H 0.29993 0.09419 0.25126 0.0
H1094 H 0.29777 0.10528 0.22141 0.0
H1095 H 0.28107 0.08167 0.22927 0.0
C1096 C 0.26812 0.14187 0.16399 0.0
C1097 C 0.26834 0.12257 0.15099 0.0
C1098 C 0.26309 0.14198 0.18864 0.0
C1099 C 0.25814 0.12282 0.20084 0.0
C1100 C 0.25771 0.10361 0.18776 0.0
H1101 H 0.21307 0.09174 0.34611 0.0
H1102 H 0.22319 0.0916 0.30328 0.0
C1103 C 0.26295 0.10346 0.16315 0.0
C1104 C 0.25299 0.12304 0.22711 0.0
H1105 H 0.27031 0.1016 0.28094 0.0
C1106 C 0.23431 0.13605 0.23565 0.0
C1107 C 0.26636 0.11067 0.24372 0.0
C1108 C 0.28755 0.09733 0.23602 0.0
C1109 C 0.22837 0.13672 0.26019 0.0
C1110 C 0.24152 0.12414 0.27667 0.0
C1111 C 0.26021 0.11116 0.26822 0.0
C1112 C 0.23604 0.1242 0.30277 0.0
C1113 C 0.20777 0.15057 0.26832 0.0
C1114 C 0.2403 0.14247 0.31676 0.0
C1115 C 0.2347 0.14258 0.3413 0.0
C1116 C 0.22462 0.12442 0.35228 0.0
C1117 C 0.22073 0.10603 0.33824 0.0
C1118 C 0.22651 0.1059 0.31375 0.0
H1119 H 0.19666 0.15615 0.25298 0.0
H1120 H 0.19613 0.14173 0.2811 0.0
H1121 H 0.21492 0.16482 0.27779 0.0
H1122 H 0.24792 0.15668 0.30868 0.0
H1123 H 0.23796 0.157 0.35156 0.0
H1124 H 0.26621 0.84091 0.85049 0.0
H1125 H 0.25657 0.84158 0.80761 0.0
H1126 H 0.2629 0.91028 0.80742 0.0
H1127 H 0.27324 0.9097 0.85012 0.0
H1128 H 0.22057 0.85967 0.78279 0.0
H1129 H 0.30661 0.89491 0.75265 0.0
H1130 H 0.30219 0.88511 0.78282 0.0
H1131 H 0.29135 0.91115 0.77436 0.0
C1132 C 0.26555 0.85618 0.84134 0.0
C1133 C 0.27071 0.87524 0.85372 0.0
C1134 C 0.26004 0.85653 0.81679 0.0
C1135 C 0.25951 0.87593 0.8041 0.0
C1136 C 0.26388 0.89505 0.8166 0.0
H1137 H 0.22198 0.91074 0.65755 0.0
H1138 H 0.2316 0.91028 0.7005 0.0
C1139 C 0.26962 0.8947 0.8411 0.0
C1140 C 0.25412 0.87612 0.77787 0.0
H1141 H 0.27572 0.89239 0.72331 0.0
C1142 C 0.23271 0.86672 0.7698 0.0
C1143 C 0.26999 0.88527 0.76083 0.0
C1144 C 0.29393 0.89449 0.76804 0.0
C1145 C 0.22656 0.86654 0.74529 0.0
C1146 C 0.24228 0.8759 0.72838 0.0
C1147 C 0.26367 0.8853 0.73636 0.0
C1148 C 0.23681 0.87608 0.70227 0.0
C1149 C 0.20312 0.85665 0.73764 0.0
C1150 C 0.23691 0.85702 0.68897 0.0
C1151 C 0.2316 0.85722 0.66437 0.0
C1152 C 0.22598 0.87651 0.65262 0.0
C1153 C 0.22614 0.8956 0.66601 0.0
C1154 C 0.23165 0.89539 0.69056 0.0
H1155 H 0.19107 0.85363 0.75316 0.0
H1156 H 0.19372 0.86716 0.7246 0.0
H1157 H 0.20671 0.84117 0.72859 0.0
H1158 H 0.24112 0.84197 0.69763 0.0
H1159 H 0.23165 0.84223 0.65463 0.0
H1160 H 0.69012 0.84487 0.83993 0.0
H1161 H 0.7186 0.83397 0.8086 0.0
H1162 H 0.70615 0.89335 0.7712 0.0
H1163 H 0.67745 0.90402 0.80177 0.0
H1164 H 0.70689 0.85912 0.74074 0.0
H1165 H 0.78599 0.85784 0.80187 0.0
H1166 H 0.76137 0.84061 0.80947 0.0
H1167 H 0.75764 0.86909 0.81091 0.0
C1168 C 0.69344 0.85555 0.82497 0.0
C1169 C 0.68161 0.87537 0.82342 0.0
C1170 C 0.70977 0.84932 0.80715 0.0
C1171 C 0.71469 0.86296 0.78771 0.0
C1172 C 0.70259 0.88254 0.786 0.0
H1173 H 0.8268 0.90063 0.70211 0.0
H1174 H 0.79821 0.89004 0.73278 0.0
C1175 C 0.68621 0.88867 0.80358 0.0
C1176 C 0.73288 0.8576 0.76925 0.0
H1177 H 0.79334 0.85459 0.76067 0.0
C1178 C 0.72579 0.85772 0.74503 0.0
C1179 C 0.75748 0.85572 0.77501 0.0
C1180 C 0.76623 0.85592 0.80068 0.0
C1181 C 0.74271 0.8577 0.72638 0.0
C1182 C 0.7674 0.85698 0.73217 0.0
C1183 C 0.77439 0.85515 0.75634 0.0
C1184 C 0.78611 0.86172 0.71401 0.0
C1185 C 0.73406 0.86015 0.70082 0.0
C1186 C 0.78917 0.84909 0.69336 0.0
C1187 C 0.80543 0.85531 0.67548 0.0
C1188 C 0.81905 0.87409 0.67816 0.0
C1189 C 0.81659 0.88613 0.69936 0.0
C1190 C 0.80027 0.88003 0.71701 0.0
H1191 H 0.71464 0.864 0.69988 0.0
H1192 H 0.74417 0.87297 0.69147 0.0
H1193 H 0.73705 0.84497 0.69095 0.0
H1194 H 0.77875 0.83466 0.6909 0.0
H1195 H 0.80708 0.84557 0.65945 0.0
H1196 H 0.80859 0.15953 0.34041 0.0
H1197 H 0.78006 0.17067 0.30919 0.0
H1198 H 0.7938 0.11228 0.2703 0.0
H1199 H 0.82252 0.1014 0.30069 0.0
H1200 H 0.79191 0.14687 0.24059 0.0
H1201 H 0.71329 0.14562 0.30235 0.0
H1202 H 0.73753 0.16326 0.31001 0.0
H1203 H 0.74199 0.13485 0.31102 0.0
C1204 C 0.80557 0.14914 0.32511 0.0
C1205 C 0.81772 0.1295 0.32313 0.0
C1206 C 0.78921 0.1555 0.30736 0.0
C1207 C 0.78459 0.14218 0.28757 0.0
C1208 C 0.79711 0.12285 0.28538 0.0
H1209 H 0.67277 0.10223 0.20323 0.0
H1210 H 0.7018 0.11327 0.2333 0.0
C1211 C 0.8135 0.1166 0.30288 0.0
C1212 C 0.76613 0.14744 0.26934 0.0
H1213 H 0.70553 0.14877 0.26126 0.0
C1214 C 0.77301 0.14773 0.24506 0.0
C1215 C 0.74152 0.1486 0.2753 0.0
C1216 C 0.73298 0.14795 0.30104 0.0
C1217 C 0.75593 0.14735 0.22654 0.0
C1218 C 0.73129 0.14727 0.23254 0.0
C1219 C 0.72445 0.14879 0.25677 0.0
C1220 C 0.7126 0.14201 0.21454 0.0
C1221 C 0.76444 0.14531 0.20089 0.0
C1222 C 0.70875 0.15465 0.19403 0.0
C1223 C 0.69225 0.14817 0.17648 0.0
C1224 C 0.67914 0.12912 0.17938 0.0
C1225 C 0.68254 0.11696 0.20035 0.0
C1226 C 0.6991 0.12331 0.21766 0.0
H1227 H 0.78399 0.1421 0.19974 0.0
H1228 H 0.75477 0.13222 0.19154 0.0
H1229 H 0.76073 0.16043 0.19115 0.0
H1230 H 0.71865 0.16935 0.19147 0.0
H1231 H 0.68987 0.158 0.16062 0.0
H1232 H 0.72691 0.58981 0.34868 0.0
H1233 H 0.73716 0.59043 0.30595 0.0
H1234 H 0.73741 0.65936 0.30718 0.0
H1235 H 0.72784 0.65887 0.35005 0.0
H1236 H 0.71274 0.60646 0.26854 0.0
H1237 H 0.80039 0.64776 0.27472 0.0
H1238 H 0.78513 0.63735 0.30079 0.0
H1239 H 0.77644 0.66268 0.28817 0.0
C1240 C 0.72935 0.60512 0.33992 0.0
C1241 C 0.72669 0.62429 0.35286 0.0
C1242 C 0.73518 0.60544 0.31546 0.0
C1243 C 0.73847 0.62493 0.30336 0.0
C1244 C 0.73562 0.64411 0.31619 0.0
H1245 H 0.76236 0.65849 0.15315 0.0
H1246 H 0.75236 0.65856 0.19605 0.0
C1247 C 0.72999 0.6438 0.34072 0.0
C1248 C 0.74402 0.62514 0.27717 0.0
H1249 H 0.78403 0.64359 0.23547 0.0
C1250 C 0.72841 0.61449 0.26136 0.0
C1251 C 0.76448 0.63561 0.26772 0.0
C1252 C 0.7827 0.64631 0.28374 0.0
C1253 C 0.73251 0.61426 0.23643 0.0
C1254 C 0.75281 0.62487 0.22703 0.0
C1255 C 0.76839 0.63557 0.24275 0.0
C1256 C 0.75842 0.6247 0.20095 0.0
C1257 C 0.71493 0.60293 0.22024 0.0
C1258 C 0.76526 0.60566 0.18954 0.0
C1259 C 0.77111 0.60557 0.16508 0.0
C1260 C 0.77016 0.62453 0.15151 0.0
C1261 C 0.76317 0.64358 0.16301 0.0
C1262 C 0.75751 0.64368 0.18754 0.0
H1263 H 0.69783 0.5993 0.22961 0.0
H1264 H 0.71099 0.61274 0.20408 0.0
H1265 H 0.7229 0.58762 0.2141 0.0
H1266 H 0.76635 0.59088 0.19964 0.0
H1267 H 0.77645 0.59062 0.15684 0.0
H1268 H 0.7162 0.41 0.65835 0.0
H1269 H 0.72715 0.41071 0.70092 0.0
H1270 H 0.74803 0.34442 0.69699 0.0
H1271 H 0.73778 0.34376 0.65429 0.0
H1272 H 0.70896 0.38847 0.73778 0.0
H1273 H 0.8056 0.36956 0.72973 0.0
H1274 H 0.78748 0.37674 0.70412 0.0
H1275 H 0.78695 0.34986 0.71567 0.0
C1276 C 0.72336 0.39563 0.66647 0.0
C1277 C 0.72625 0.37686 0.65283 0.0
C1278 C 0.72958 0.39605 0.69084 0.0
C1279 C 0.73879 0.37773 0.70215 0.0
C1280 C 0.74158 0.35894 0.68859 0.0
H1281 H 0.77037 0.34268 0.84976 0.0
H1282 H 0.7607 0.34334 0.80682 0.0
C1283 C 0.73557 0.35855 0.66417 0.0
C1284 C 0.74453 0.37805 0.7283 0.0
H1285 H 0.78884 0.36762 0.76914 0.0
C1286 C 0.72649 0.38407 0.74459 0.0
C1287 C 0.76743 0.37235 0.73726 0.0
C1288 C 0.78804 0.36697 0.72077 0.0
C1289 C 0.73058 0.38412 0.76952 0.0
C1290 C 0.75329 0.37806 0.77842 0.0
C1291 C 0.77138 0.37213 0.76223 0.0
C1292 C 0.75865 0.37779 0.80455 0.0
C1293 C 0.71048 0.39029 0.78628 0.0
C1294 C 0.76076 0.39696 0.81745 0.0
C1295 C 0.76644 0.39667 0.84197 0.0
C1296 C 0.76999 0.37717 0.85407 0.0
C1297 C 0.76765 0.35798 0.84106 0.0
C1298 C 0.76219 0.3583 0.81651 0.0
H1299 H 0.69295 0.3912 0.77686 0.0
H1300 H 0.70904 0.3786 0.80123 0.0
H1301 H 0.71437 0.40617 0.79424 0.0
H1302 H 0.7583 0.41217 0.80848 0.0
H1303 H 0.76814 0.41174 0.8514 0.0
H1304 H 0.30838 0.34165 0.66176 0.0
H1305 H 0.28011 0.32952 0.69275 0.0
H1306 H 0.29535 0.38598 0.73457 0.0
H1307 H 0.32376 0.39782 0.70439 0.0
H1308 H 0.29316 0.34983 0.76237 0.0
H1309 H 0.21393 0.35568 0.70163 0.0
H1310 H 0.23779 0.33803 0.69285 0.0
H1311 H 0.24276 0.36638 0.69328 0.0
C1312 C 0.30576 0.35138 0.67765 0.0
C1313 C 0.3182 0.37079 0.6805 0.0
C1314 C 0.28956 0.34446 0.69528 0.0
C1315 C 0.28545 0.35696 0.71584 0.0
C1316 C 0.29829 0.37602 0.7189 0.0
H1317 H 0.17777 0.39922 0.80231 0.0
H1318 H 0.20604 0.38744 0.77187 0.0
C1319 C 0.31449 0.38284 0.70151 0.0
C1320 C 0.26705 0.35128 0.73396 0.0
H1321 H 0.20655 0.35211 0.74271 0.0
C1322 C 0.27418 0.34983 0.75811 0.0
C1323 C 0.24235 0.3512 0.72824 0.0
C1324 C 0.23359 0.35301 0.70265 0.0
C1325 C 0.25734 0.35027 0.77684 0.0
C1326 C 0.23268 0.35166 0.77114 0.0
C1327 C 0.22549 0.35113 0.74695 0.0
C1328 C 0.21458 0.35754 0.78947 0.0
C1329 C 0.26618 0.35105 0.80247 0.0
C1330 C 0.2098 0.34455 0.8095 0.0
C1331 C 0.19373 0.35142 0.82725 0.0
C1332 C 0.18201 0.37125 0.82505 0.0
C1333 C 0.18646 0.38388 0.80464 0.0
C1334 C 0.20257 0.37711 0.78712 0.0
H1335 H 0.28595 0.35294 0.80354 0.0
H1336 H 0.25766 0.36449 0.81231 0.0
H1337 H 0.26128 0.33597 0.81174 0.0
H1338 H 0.21858 0.32922 0.81147 0.0
H1339 H 0.19052 0.34124 0.84267 0.0
H1340 H 0.29492 0.64251 0.34704 0.0
H1341 H 0.26398 0.64788 0.31626 0.0
H1342 H 0.30629 0.61204 0.26546 0.0
H1343 H 0.33697 0.60629 0.29601 0.0
H1344 H 0.26374 0.66469 0.26762 0.0
H1345 H 0.24325 0.57796 0.27206 0.0
H1346 H 0.26133 0.59133 0.29435 0.0
H1347 H 0.27416 0.58378 0.26593 0.0
C1348 C 0.29777 0.63604 0.3292 0.0
C1349 C 0.31819 0.62366 0.32407 0.0
C1350 C 0.28012 0.63916 0.31166 0.0
C1351 C 0.28271 0.63001 0.28878 0.0
C1352 C 0.30379 0.61889 0.28317 0.0
H1353 H 0.19863 0.64064 0.15825 0.0
H1354 H 0.22809 0.64644 0.19025 0.0
C1355 C 0.32129 0.61562 0.30067 0.0
C1356 C 0.26271 0.63045 0.27134 0.0
H1357 H 0.22493 0.59751 0.24061 0.0
C1358 C 0.25509 0.65006 0.26176 0.0
C1359 C 0.25126 0.61135 0.26409 0.0
C1360 C 0.25772 0.58992 0.27479 0.0
C1361 C 0.23663 0.65098 0.24456 0.0
C1362 C 0.22588 0.63175 0.23661 0.0
C1363 C 0.23325 0.61224 0.24661 0.0
C1364 C 0.20691 0.63113 0.21795 0.0
C1365 C 0.22864 0.67249 0.23532 0.0
C1366 C 0.18524 0.62062 0.22285 0.0
C1367 C 0.16867 0.61692 0.20456 0.0
C1368 C 0.17334 0.62379 0.18098 0.0
C1369 C 0.1945 0.63525 0.17628 0.0
C1370 C 0.21128 0.63871 0.19459 0.0
H1371 H 0.23348 0.68553 0.24799 0.0
H1372 H 0.23767 0.67577 0.21794 0.0
H1373 H 0.20898 0.67284 0.2323 0.0
H1374 H 0.18149 0.61463 0.24074 0.0
H1375 H 0.15243 0.60822 0.20881 0.0
loop_
_geom_bond_atom_site_label_1
_geom_bond_atom_site_label_2
_geom_bond_distance
_geom_bond_site_symmetry_2
_ccdc_geom_bond_type
Zn0 O3 2.031 . S
Zn0 O5 2.049 . S
Zn0 O10 2.067 . S
Zn1 O2 1.962 . S
Zn1 O4 1.986 . S
Zn1 O6 1.996 . S
Zn1 O9 1.943 . S
O2 Zn1 1.962 . S
O2 C7 1.254 . S
O3 Zn0 2.031 . S
O3 C7 1.269 . S
O4 Zn1 1.986 . S
O4 C11 1.262 . S
O5 Zn0 2.049 . S
O5 C13 1.260 . S
O6 Zn1 1.996 . S
O6 C13 1.257 . S
C7 O2 1.254 . S
C7 O3 1.269 . S
C8 O9 1.249 . S
C8 O10 1.270 . S
O9 Zn1 1.943 . S
O9 C8 1.249 . S
O10 Zn0 2.067 . S
O10 C8 1.270 . S
C11 O4 1.262 . S
C11 O12 1.232 . S
O12 C11 1.232 . S
C13 O5 1.260 . S
C13 O6 1.257 . S
Zn14 O17 2.031 . S
Zn14 O19 2.049 . S
Zn14 O24 2.067 . S
Zn15 O16 1.962 . S
Zn15 O18 1.986 . S
Zn15 O20 1.996 . S
Zn15 O23 1.943 . S
O16 Zn15 1.962 . S
O16 C21 1.254 . S
O17 Zn14 2.031 . S
O17 C21 1.269 . S
O18 Zn15 1.986 . S
O18 C25 1.262 . S
O19 Zn14 2.049 . S
O19 C27 1.260 . S
O20 Zn15 1.996 . S
O20 C27 1.257 . S
C21 O16 1.254 . S
C21 O17 1.269 . S
C22 O23 1.249 . S
C22 O24 1.270 . S
O23 Zn15 1.943 . S
O23 C22 1.249 . S
O24 Zn14 2.067 . S
O24 C22 1.270 . S
C25 O18 1.262 . S
C25 O26 1.232 . S
O26 C25 1.232 . S
C27 O19 1.260 . S
C27 O20 1.257 . S
Zn28 O31 2.031 . S
Zn28 O33 2.049 . S
Zn28 O38 2.067 . S
Zn29 O30 1.962 . S
Zn29 O32 1.986 . S
Zn29 O34 1.996 . S
Zn29 O37 1.943 . S
O30 Zn29 1.962 . S
O30 C35 1.254 . S
O31 Zn28 2.031 . S
O31 C35 1.269 . S
O32 Zn29 1.986 . S
O32 C39 1.262 . S
O33 Zn28 2.049 . S
O33 C41 1.260 . S
O34 Zn29 1.996 . S
O34 C41 1.257 . S
C35 O30 1.254 . S
C35 O31 1.269 . S
C36 O37 1.249 . S
C36 O38 1.270 . S
O37 Zn29 1.943 . S
O37 C36 1.249 . S
O38 Zn28 2.067 . S
O38 C36 1.270 . S
C39 O32 1.262 . S
C39 O40 1.232 . S
O40 C39 1.232 . S
C41 O33 1.260 . S
C41 O34 1.257 . S
Zn42 O45 2.031 . S
Zn42 O47 2.049 . S
Zn42 O52 2.067 . S
Zn43 O44 1.962 . S
Zn43 O46 1.986 . S
Zn43 O48 1.996 . S
Zn43 O51 1.943 . S
O44 Zn43 1.962 . S
O44 C49 1.254 . S
O45 Zn42 2.031 . S
O45 C49 1.269 . S
O46 Zn43 1.986 . S
O46 C53 1.262 . S
O47 Zn42 2.049 . S
O47 C55 1.260 . S
O48 Zn43 1.996 . S
O48 C55 1.257 . S
C49 O44 1.254 . S
C49 O45 1.269 . S
C50 O51 1.249 . S
C50 O52 1.270 . S
O51 Zn43 1.943 . S
O51 C50 1.249 . S
O52 Zn42 2.067 . S
O52 C50 1.270 . S
C53 O46 1.262 . S
C53 O54 1.232 . S
O54 C53 1.232 . S
C55 O47 1.260 . S
C55 O48 1.257 . S
Zn56 O59 2.031 . S
Zn56 O61 2.049 . S
Zn56 O66 2.067 . S
Zn57 O58 1.962 . S
Zn57 O60 1.986 . S
Zn57 O62 1.996 . S
Zn57 O65 1.943 . S
O58 Zn57 1.962 . S
O58 C63 1.254 . S
O59 Zn56 2.031 . S
O59 C63 1.269 . S
O60 Zn57 1.986 . S
O60 C67 1.262 . S
O61 Zn56 2.049 . S
O61 C69 1.260 . S
O62 Zn57 1.996 . S
O62 C69 1.257 . S
C63 O58 1.254 . S
C63 O59 1.269 . S
C64 O65 1.249 . S
C64 O66 1.270 . S
O65 Zn57 1.943 . S
O65 C64 1.249 . S
O66 Zn56 2.067 . S
O66 C64 1.270 . S
C67 O60 1.262 . S
C67 O68 1.232 . S
O68 C67 1.232 . S
C69 O61 1.260 . S
C69 O62 1.257 . S
Zn70 O73 2.031 . S
Zn70 O75 2.049 . S
Zn70 O80 2.067 . S
Zn71 O72 1.962 . S
Zn71 O74 1.986 . S
Zn71 O76 1.996 . S
Zn71 O79 1.943 . S
O72 Zn71 1.962 . S
O72 C77 1.254 . S
O73 Zn70 2.031 . S
O73 C77 1.269 . S
O74 Zn71 1.986 . S
O74 C81 1.262 . S
O75 Zn70 2.049 . S
O75 C83 1.260 . S
O76 Zn71 1.996 . S
O76 C83 1.257 . S
C77 O72 1.254 . S
C77 O73 1.269 . S
C78 O79 1.249 . S
C78 O80 1.270 . S
O79 Zn71 1.943 . S
O79 C78 1.249 . S
O80 Zn70 2.067 . S
O80 C78 1.270 . S
C81 O74 1.262 . S
C81 O82 1.232 . S
O82 C81 1.232 . S
C83 O75 1.260 . S
C83 O76 1.257 . S
Zn84 O87 2.031 . S
Zn84 O89 2.049 . S
Zn84 O94 2.067 . S
Zn85 O86 1.962 . S
Zn85 O88 1.986 . S
Zn85 O90 1.996 . S
Zn85 O93 1.943 . S
O86 Zn85 1.962 . S
O86 C91 1.254 . S
O87 Zn84 2.031 . S
O87 C91 1.269 . S
O88 Zn85 1.986 . S
O88 C95 1.262 . S
O89 Zn84 2.049 . S
O89 C97 1.260 . S
O90 Zn85 1.996 . S
O90 C97 1.257 . S
C91 O86 1.254 . S
C91 O87 1.269 . S
C92 O93 1.249 . S
C92 O94 1.270 . S
O93 Zn85 1.943 . S
O93 C92 1.249 . S
O94 Zn84 2.067 . S
O94 C92 1.270 . S
C95 O88 1.262 . S
C95 O96 1.232 . S
O96 C95 1.232 . S
C97 O89 1.260 . S
C97 O90 1.257 . S
Zn98 O101 2.031 . S
Zn98 O103 2.049 . S
Zn98 O108 2.067 . S
Zn99 O100 1.962 . S
Zn99 O102 1.986 . S
Zn99 O104 1.996 . S
Zn99 O107 1.943 . S
O100 Zn99 1.962 . S
O100 C105 1.254 . S
O101 Zn98 2.031 . S
O101 C105 1.269 . S
O102 Zn99 1.986 . S
O102 C109 1.262 . S
O103 Zn98 2.049 . S
O103 C111 1.260 . S
O104 Zn99 1.996 . S
O104 C111 1.257 . S
C105 O100 1.254 . S
C105 O101 1.269 . S
C106 O107 1.249 . S
C106 O108 1.270 . S
O107 Zn99 1.943 . S
O107 C106 1.249 . S
O108 Zn98 2.067 . S
O108 C106 1.270 . S
C109 O102 1.262 . S
C109 O110 1.232 . S
O110 C109 1.232 . S
C111 O103 1.260 . S
C111 O104 1.257 . S
Zn112 O115 2.031 . S
Zn112 O117 2.049 . S
Zn112 O122 2.067 . S
Zn113 O114 1.962 . S
Zn113 O116 1.986 . S
Zn113 O118 1.996 . S
Zn113 O121 1.943 . S
O114 Zn113 1.962 . S
O114 C119 1.254 . S
O115 Zn112 2.031 . S
O115 C119 1.269 . S
O116 Zn113 1.986 . S
O116 C123 1.262 . S
O117 Zn112 2.049 . S
O117 C125 1.260 . S
O118 Zn113 1.996 . S
O118 C125 1.257 . S
C119 O114 1.254 . S
C119 O115 1.269 . S
C120 O121 1.249 . S
C120 O122 1.270 . S
O121 Zn113 1.943 . S
O121 C120 1.249 . S
O122 Zn112 2.067 . S
O122 C120 1.270 . S
C123 O116 1.262 . S
C123 O124 1.232 . S
O124 C123 1.232 . S
C125 O117 1.260 . S
C125 O118 1.257 . S
Zn126 O129 2.031 . S
Zn126 O131 2.049 . S
Zn126 O136 2.067 . S
Zn127 O128 1.962 . S
Zn127 O130 1.986 . S
Zn127 O132 1.996 . S
Zn127 O135 1.943 . S
O128 Zn127 1.962 . S
O128 C133 1.254 . S
O129 Zn126 2.031 . S
O129 C133 1.269 . S
O130 Zn127 1.986 . S
O130 C137 1.262 . S
O131 Zn126 2.049 . S
O131 C139 1.260 . S
O132 Zn127 1.996 . S
O132 C139 1.257 . S
C133 O128 1.254 . S
C133 O129 1.269 . S
C134 O135 1.249 . S
C134 O136 1.270 . S
O135 Zn127 1.943 . S
O135 C134 1.249 . S
O136 Zn126 2.067 . S
O136 C134 1.270 . S
C137 O130 1.262 . S
C137 O138 1.232 . S
O138 C137 1.232 . S
C139 O131 1.260 . S
C139 O132 1.257 . S
Zn140 O143 2.031 . S
Zn140 O145 2.049 . S
Zn140 O150 2.067 . S
Zn141 O142 1.962 . S
Zn141 O144 1.986 . S
Zn141 O146 1.996 . S
Zn141 O149 1.943 . S
O142 Zn141 1.962 . S
O142 C147 1.254 . S
O143 Zn140 2.031 . S
O143 C147 1.269 . S
O144 Zn141 1.986 . S
O144 C151 1.262 . S
O145 Zn140 2.049 . S
O145 C153 1.260 . S
O146 Zn141 1.996 . S
O146 C153 1.257 . S
C147 O142 1.254 . S
C147 O143 1.269 . S
C148 O149 1.249 . S
C148 O150 1.270 . S
O149 Zn141 1.943 . S
O149 C148 1.249 . S
O150 Zn140 2.067 . S
O150 C148 1.270 . S
C151 O144 1.262 . S
C151 O152 1.232 . S
O152 C151 1.232 . S
C153 O145 1.260 . S
C153 O146 1.257 . S
Zn154 O157 2.031 . S
Zn154 O159 2.049 . S
Zn154 O164 2.067 . S
Zn155 O156 1.962 . S
Zn155 O158 1.986 . S
Zn155 O160 1.996 . S
Zn155 O163 1.943 . S
O156 Zn155 1.962 . S
O156 C161 1.254 . S
O157 Zn154 2.031 . S
O157 C161 1.269 . S
O158 Zn155 1.986 . S
O158 C165 1.262 . S
O159 Zn154 2.049 . S
O159 C167 1.260 . S
O160 Zn155 1.996 . S
O160 C167 1.257 . S
C161 O156 1.254 . S
C161 O157 1.269 . S
C162 O163 1.249 . S
C162 O164 1.270 . S
O163 Zn155 1.943 . S
O163 C162 1.249 . S
O164 Zn154 2.067 . S
O164 C162 1.270 . S
C165 O158 1.262 . S
C165 O166 1.232 . S
O166 C165 1.232 . S
C167 O159 1.260 . S
C167 O160 1.257 . S
Zn168 O171 2.031 . S
Zn168 O173 2.049 . S
Zn168 O178 2.067 . S
Zn169 O170 1.962 . S
Zn169 O172 1.986 . S
Zn169 O174 1.996 . S
Zn169 O177 1.943 . S
O170 Zn169 1.962 . S
O170 C175 1.254 . S
O171 Zn168 2.031 . S
O171 C175 1.269 . S
O172 Zn169 1.986 . S
O172 C179 1.262 . S
O173 Zn168 2.049 . S
O173 C181 1.260 . S
O174 Zn169 1.996 . S
O174 C181 1.257 . S
C175 O170 1.254 . S
C175 O171 1.269 . S
C176 O177 1.249 . S
C176 O178 1.270 . S
O177 Zn169 1.943 . S
O177 C176 1.249 . S
O178 Zn168 2.067 . S
O178 C176 1.270 . S
C179 O172 1.262 . S
C179 O180 1.232 . S
O180 C179 1.232 . S
C181 O173 1.260 . S
C181 O174 1.257 . S
Zn182 O185 2.031 . S
Zn182 O187 2.049 . S
Zn182 O192 2.067 . S
Zn183 O184 1.962 . S
Zn183 O186 1.986 . S
Zn183 O188 1.996 . S
Zn183 O191 1.943 . S
O184 Zn183 1.962 . S
O184 C189 1.254 . S
O185 Zn182 2.031 . S
O185 C189 1.269 . S
O186 Zn183 1.986 . S
O186 C193 1.262 . S
O187 Zn182 2.049 . S
O187 C195 1.260 . S
O188 Zn183 1.996 . S
O188 C195 1.257 . S
C189 O184 1.254 . S
C189 O185 1.269 . S
C190 O191 1.249 . S
C190 O192 1.270 . S
O191 Zn183 1.943 . S
O191 C190 1.249 . S
O192 Zn182 2.067 . S
O192 C190 1.270 . S
C193 O186 1.262 . S
C193 O194 1.232 . S
O194 C193 1.232 . S
C195 O187 1.260 . S
C195 O188 1.257 . S
Zn196 O199 2.031 . S
Zn196 O201 2.049 . S
Zn196 O206 2.067 . S
Zn197 O198 1.962 . S
Zn197 O200 1.986 . S
Zn197 O202 1.996 . S
Zn197 O205 1.943 . S
O198 Zn197 1.962 . S
O198 C203 1.254 . S
O199 Zn196 2.031 . S
O199 C203 1.269 . S
O200 Zn197 1.986 . S
O200 C207 1.262 . S
O201 Zn196 2.049 . S
O201 C209 1.260 . S
O202 Zn197 1.996 . S
O202 C209 1.257 . S
C203 O198 1.254 . S
C203 O199 1.269 . S
C204 O205 1.249 . S
C204 O206 1.270 . S
O205 Zn197 1.943 . S
O205 C204 1.249 . S
O206 Zn196 2.067 . S
O206 C204 1.270 . S
C207 O200 1.262 . S
C207 O208 1.232 . S
O208 C207 1.232 . S
C209 O201 1.260 . S
C209 O202 1.257 . S
Zn210 O213 2.031 . S
Zn210 O215 2.049 . S
Zn210 O220 2.067 . S
Zn211 O212 1.962 . S
Zn211 O214 1.986 . S
Zn211 O216 1.996 . S
Zn211 O219 1.943 . S
O212 Zn211 1.962 . S
O212 C217 1.254 . S
O213 Zn210 2.031 . S
O213 C217 1.269 . S
O214 Zn211 1.986 . S
O214 C221 1.262 . S
O215 Zn210 2.049 . S
O215 C223 1.260 . S
O216 Zn211 1.996 . S
O216 C223 1.257 . S
C217 O212 1.254 . S
C217 O213 1.269 . S
C218 O219 1.249 . S
C218 O220 1.270 . S
O219 Zn211 1.943 . S
O219 C218 1.249 . S
O220 Zn210 2.067 . S
O220 C218 1.270 . S
C221 O214 1.262 . S
C221 O222 1.232 . S
O222 C221 1.232 . S
C223 O215 1.260 . S
C223 O216 1.257 . S
H224 C232 0.929 . S
H225 C234 0.930 . S
H226 C236 0.930 . S
H227 C239 0.929 . S
H228 C242 0.930 . S
H229 C244 0.960 . S
H230 C244 0.960 . S
H231 C244 0.960 . S
C232 H224 0.929 . S
C232 C233 1.377 . S
C232 C234 1.384 . S
C233 C232 1.377 . S
C233 C239 1.390 . S
C234 H225 0.930 . S
C234 C232 1.384 . S
C234 C235 1.372 . S
C235 C234 1.372 . S
C235 C236 1.400 . S
C235 C240 1.490 . S
C236 H226 0.930 . S
C236 C235 1.400 . S
C236 C239 1.386 . S
H237 C253 0.930 . S
H238 C254 0.931 . S
C239 H227 0.929 . S
C239 C233 1.390 . S
C239 C236 1.386 . S
C240 C235 1.490 . S
C240 C242 1.395 . S
C240 C243 1.403 . S
H241 C247 0.930 . S
C242 H228 0.930 . S
C242 C240 1.395 . S
C242 C245 1.403 1_554 S
C243 C240 1.403 . S
C243 C244 1.524 . S
C243 C247 1.400 1_554 S
C244 H229 0.960 . S
C244 H230 0.960 . S
C244 H231 0.960 . S
C244 C243 1.524 . S
C245 C242 1.403 1_556 S
C245 C246 1.392 . S
C245 C249 1.495 . S
C246 C245 1.392 . S
C246 C247 1.385 . S
C246 C248 1.478 . S
C247 H241 0.930 . S
C247 C243 1.400 1_556 S
C247 C246 1.385 . S
C248 C246 1.478 . S
C248 C250 1.381 . S
C248 C254 1.383 . S
C249 C245 1.495 . S
C249 H255 0.959 . S
C249 H256 0.961 . S
C249 H257 0.960 . S
C250 C248 1.381 . S
C250 C251 1.394 . S
C250 H258 0.930 . S
C251 C250 1.394 . S
C251 C252 1.383 . S
C251 H259 0.929 . S
C252 C251 1.383 . S
C252 C253 1.377 . S
C253 H237 0.930 . S
C253 C252 1.377 . S
C253 C254 1.379 . S
C254 H238 0.931 . S
C254 C248 1.383 . S
C254 C253 1.379 . S
H255 C249 0.959 . S
H256 C249 0.961 . S
H257 C249 0.960 . S
H258 C250 0.930 . S
H259 C251 0.929 . S
H260 C268 0.929 . S
H261 C270 0.930 . S
H262 C272 0.930 . S
H263 C275 0.929 . S
H264 C278 0.930 . S
H265 C280 0.960 . S
H266 C280 0.960 . S
H267 C280 0.960 . S
C268 H260 0.929 . S
C268 C269 1.377 . S
C268 C270 1.384 . S
C269 C268 1.377 . S
C269 C275 1.390 . S
C270 H261 0.930 . S
C270 C268 1.384 . S
C270 C271 1.372 . S
C271 C270 1.372 . S
C271 C272 1.400 . S
C271 C276 1.490 . S
C272 H262 0.930 . S
C272 C271 1.400 . S
C272 C275 1.386 . S
H273 C289 0.930 . S
H274 C290 0.931 . S
C275 H263 0.929 . S
C275 C269 1.390 . S
C275 C272 1.386 . S
C276 C271 1.490 . S
C276 C278 1.395 . S
C276 C279 1.403 . S
H277 C283 0.930 . S
C278 H264 0.930 . S
C278 C276 1.395 . S
C278 C281 1.403 . S
C279 C276 1.403 . S
C279 C280 1.524 . S
C279 C283 1.400 . S
C280 H265 0.960 . S
C280 H266 0.960 . S
C280 H267 0.960 . S
C280 C279 1.524 . S
C281 C278 1.403 . S
C281 C282 1.392 . S
C281 C285 1.495 . S
C282 C281 1.392 . S
C282 C283 1.385 . S
C282 C284 1.478 . S
C283 H277 0.930 . S
C283 C279 1.400 . S
C283 C282 1.385 . S
C284 C282 1.478 . S
C284 C286 1.381 . S
C284 C290 1.383 . S
C285 C281 1.495 . S
C285 H291 0.959 . S
C285 H292 0.961 . S
C285 H293 0.960 . S
C286 C284 1.381 . S
C286 C287 1.394 . S
C286 H294 0.930 . S
C287 C286 1.394 . S
C287 C288 1.383 . S
C287 H295 0.929 . S
C288 C287 1.383 . S
C288 C289 1.377 . S
C289 H273 0.930 . S
C289 C288 1.377 . S
C289 C290 1.379 . S
C290 H274 0.931 . S
C290 C284 1.383 . S
C290 C289 1.379 . S
H291 C285 0.959 . S
H292 C285 0.961 . S
H293 C285 0.960 . S
H294 C286 0.930 . S
H295 C287 0.929 . S
H296 C304 0.929 . S
H297 C306 0.921 1_554 S
H298 C308 0.930 . S
H299 C311 0.929 . S
H300 C314 0.930 . S
H301 C316 0.960 . S
H302 C316 0.960 . S
H303 C316 0.960 . S
C304 H296 0.929 . S
C304 C305 1.377 . S
C304 C306 1.384 . S
C305 C304 1.377 . S
C305 C311 1.390 . S
C306 H297 0.921 1_556 S
C306 C304 1.384 . S
C306 C307 1.372 . S
C307 C306 1.372 . S
C307 C308 1.400 . S
C307 C312 1.490 . S
C308 H298 0.930 . S
C308 C307 1.400 . S
C308 C311 1.386 . S
H309 C325 0.930 . S
H310 C326 0.931 . S
C311 H299 0.929 . S
C311 C305 1.390 . S
C311 C308 1.386 . S
C312 C307 1.490 . S
C312 C314 1.395 1_556 S
C312 C315 1.403 . S
H313 C319 0.930 . S
C314 H300 0.930 . S
C314 C312 1.395 1_554 S
C314 C317 1.403 . S
C315 C312 1.403 . S
C315 C316 1.524 . S
C315 C319 1.400 . S
C316 H301 0.960 . S
C316 H302 0.960 . S
C316 H303 0.960 . S
C316 C315 1.524 . S
C317 C314 1.403 . S
C317 C318 1.392 . S
C317 C321 1.495 . S
C318 C317 1.392 . S
C318 C319 1.385 1_554 S
C318 C320 1.478 . S
C319 H313 0.930 . S
C319 C315 1.400 . S
C319 C318 1.385 1_556 S
C320 C318 1.478 . S
C320 C322 1.381 . S
C320 C326 1.383 . S
C321 C317 1.495 . S
C321 H327 0.959 . S
C321 H328 0.961 . S
C321 H329 0.960 . S
C322 C320 1.381 . S
C322 C323 1.394 . S
C322 H330 0.930 . S
C323 C322 1.394 . S
C323 C324 1.383 . S
C323 H331 0.929 . S
C324 C323 1.383 . S
C324 C325 1.377 . S
C325 H309 0.930 . S
C325 C324 1.377 . S
C325 C326 1.379 . S
C326 H310 0.931 . S
C326 C320 1.383 . S
C326 C325 1.379 . S
H327 C321 0.959 . S
H328 C321 0.961 . S
H329 C321 0.960 . S
H330 C322 0.930 . S
H331 C323 0.929 . S
H332 C340 0.929 . S
H333 C342 0.930 . S
H334 C344 0.930 . S
H335 C347 0.929 . S
H336 C350 0.930 . S
H337 C352 0.960 . S
H338 C352 0.960 . S
H339 C352 0.960 . S
C340 H332 0.929 . S
C340 C341 1.377 . S
C340 C342 1.384 . S
C341 C340 1.377 . S
C341 C347 1.390 . S
C342 H333 0.930 . S
C342 C340 1.384 . S
C342 C343 1.372 . S
C343 C342 1.372 . S
C343 C344 1.400 . S
C343 C348 1.490 . S
C344 H334 0.930 . S
C344 C343 1.400 . S
C344 C347 1.386 . S
H345 C361 0.930 . S
H346 C362 0.931 . S
C347 H335 0.929 . S
C347 C341 1.390 . S
C347 C344 1.386 . S
C348 C343 1.490 . S
C348 C350 1.395 . S
C348 C351 1.403 . S
H349 C355 0.930 . S
C350 H336 0.930 . S
C350 C348 1.395 . S
C350 C353 1.403 . S
C351 C348 1.403 . S
C351 C352 1.524 . S
C351 C355 1.400 . S
C352 H337 0.960 . S
C352 H338 0.960 . S
C352 H339 0.960 . S
C352 C351 1.524 . S
C353 C350 1.403 . S
C353 C354 1.392 . S
C353 C357 1.495 . S
C354 C353 1.392 . S
C354 C355 1.385 . S
C354 C356 1.478 . S
C355 H349 0.930 . S
C355 C351 1.400 . S
C355 C354 1.385 . S
C356 C354 1.478 . S
C356 C358 1.381 . S
C356 C362 1.383 . S
C357 C353 1.495 . S
C357 H363 0.959 . S
C357 H364 0.961 . S
C357 H365 0.960 . S
C358 C356 1.381 . S
C358 C359 1.394 . S
C358 H366 0.930 . S
C359 C358 1.394 . S
C359 C360 1.383 . S
C359 H367 0.929 . S
C360 C359 1.383 . S
C360 C361 1.377 . S
C361 H345 0.930 . S
C361 C360 1.377 . S
C361 C362 1.379 . S
C362 H346 0.931 . S
C362 C356 1.383 . S
C362 C361 1.379 . S
H363 C357 0.959 . S
H364 C357 0.961 . S
H365 C357 0.960 . S
H366 C358 0.930 . S
H367 C359 0.929 . S
H368 C376 0.929 . S
H369 C378 0.930 . S
H370 C380 0.930 . S
H371 C383 0.929 . S
H372 C386 0.930 . S
H373 C388 0.960 . S
H374 C388 0.960 . S
H375 C388 0.960 1_554 S
C376 H368 0.929 . S
C376 C377 1.377 . S
C376 C378 1.384 . S
C377 C376 1.377 . S
C377 C383 1.390 . S
C378 H369 0.930 . S
C378 C376 1.384 . S
C378 C379 1.372 . S
C379 C378 1.372 . S
C379 C380 1.400 . S
C379 C384 1.490 . S
C380 H370 0.930 . S
C380 C379 1.400 . S
C380 C383 1.386 . S
H381 C397 0.930 . S
H382 C398 0.931 . S
C383 H371 0.929 . S
C383 C377 1.390 . S
C383 C380 1.386 . S
C384 C379 1.490 . S
C384 C386 1.395 . S
C384 C387 1.396 1_554 S
H385 C391 0.930 . S
C386 H372 0.930 . S
C386 C384 1.395 . S
C386 C389 1.403 1_554 S
C387 C384 1.396 1_556 S
C387 C388 1.524 . S
C387 C391 1.407 . S
C388 H373 0.960 . S
C388 H374 0.960 . S
C388 H375 0.960 1_556 S
C388 C387 1.524 . S
C389 C386 1.403 1_556 S
C389 C390 1.392 . S
C389 C393 1.495 . S
C390 C389 1.392 . S
C390 C391 1.385 . S
C390 C392 1.478 . S
C391 H385 0.930 . S
C391 C387 1.407 . S
C391 C390 1.385 . S
C392 C390 1.478 . S
C392 C394 1.381 . S
C392 C398 1.383 . S
C393 C389 1.495 . S
C393 H399 0.959 1_556 S
C393 H400 0.961 1_556 S
C393 H401 0.960 . S
C394 C392 1.381 . S
C394 C395 1.394 . S
C394 H402 0.930 . S
C395 C394 1.394 . S
C395 C396 1.383 . S
C395 H403 0.929 . S
C396 C395 1.383 . S
C396 C397 1.377 . S
C397 H381 0.930 . S
C397 C396 1.377 . S
C397 C398 1.379 . S
C398 H382 0.931 . S
C398 C392 1.383 . S
C398 C397 1.379 . S
H399 C393 0.959 1_554 S
H400 C393 0.961 1_554 S
H401 C393 0.960 . S
H402 C394 0.930 . S
H403 C395 0.929 . S
H404 C412 0.929 . S
H405 C414 0.930 . S
H406 C416 0.930 . S
H407 C419 0.929 . S
H408 C422 0.930 . S
H409 C424 0.960 . S
H410 C424 0.960 . S
H411 C424 0.960 . S
C412 H404 0.929 . S
C412 C413 1.377 . S
C412 C414 1.384 . S
C413 C412 1.377 . S
C413 C419 1.390 . S
C414 H405 0.930 . S
C414 C412 1.384 . S
C414 C415 1.372 . S
C415 C414 1.372 . S
C415 C416 1.400 . S
C415 C420 1.490 . S
C416 H406 0.930 . S
C416 C415 1.400 . S
C416 C419 1.386 . S
H417 C433 0.930 . S
H418 C434 0.931 . S
C419 H407 0.929 . S
C419 C413 1.390 . S
C419 C416 1.386 . S
C420 C415 1.490 . S
C420 C422 1.395 . S
C420 C423 1.403 . S
H421 C427 0.930 . S
C422 H408 0.930 . S
C422 C420 1.395 . S
C422 C425 1.403 . S
C423 C420 1.403 . S
C423 C424 1.524 . S
C423 C427 1.400 . S
C424 H409 0.960 . S
C424 H410 0.960 . S
C424 H411 0.960 . S
C424 C423 1.524 . S
C425 C422 1.403 . S
C425 C426 1.392 . S
C425 C429 1.495 . S
C426 C425 1.392 . S
C426 C427 1.385 . S
C426 C428 1.478 . S
C427 H421 0.930 . S
C427 C423 1.400 . S
C427 C426 1.385 . S
C428 C426 1.478 . S
C428 C430 1.381 . S
C428 C434 1.383 . S
C429 C425 1.495 . S
C429 H435 0.959 . S
C429 H436 0.961 . S
C429 H437 0.960 . S
C430 C428 1.381 . S
C430 C431 1.394 . S
C430 H438 0.930 . S
C431 C430 1.394 . S
C431 C432 1.383 . S
C431 H439 0.929 . S
C432 C431 1.383 . S
C432 C433 1.377 . S
C433 H417 0.930 . S
C433 C432 1.377 . S
C433 C434 1.379 . S
C434 H418 0.931 . S
C434 C428 1.383 . S
C434 C433 1.379 . S
H435 C429 0.959 . S
H436 C429 0.961 . S
H437 C429 0.960 . S
H438 C430 0.930 . S
H439 C431 0.929 . S
H440 C448 0.929 . S
H441 C450 0.930 . S
H442 C452 0.930 1_554 S
H443 C455 0.929 . S
H444 C458 0.930 . S
H445 C460 0.960 . S
H446 C460 0.960 1_556 S
H447 C460 0.960 . S
C448 H440 0.929 . S
C448 C449 1.377 . S
C448 C450 1.384 . S
C449 C448 1.377 . S
C449 C455 1.390 . S
C450 H441 0.930 . S
C450 C448 1.384 . S
C450 C451 1.372 . S
C451 C450 1.372 . S
C451 C452 1.400 . S
C451 C456 1.490 . S
C452 H442 0.930 1_556 S
C452 C451 1.400 . S
C452 C455 1.386 . S
H453 C469 0.930 . S
H454 C470 0.931 . S
C455 H443 0.929 . S
C455 C449 1.390 . S
C455 C452 1.386 . S
C456 C451 1.490 . S
C456 C458 1.395 . S
C456 C459 1.403 1_556 S
H457 C463 0.930 . S
C458 H444 0.930 . S
C458 C456 1.395 . S
C458 C461 1.403 . S
C459 C456 1.403 1_554 S
C459 C460 1.524 . S
C459 C463 1.400 . S
C460 H445 0.960 . S
C460 H446 0.960 1_554 S
C460 H447 0.960 . S
C460 C459 1.524 . S
C461 C458 1.403 . S
C461 C462 1.392 1_556 S
C461 C465 1.495 . S
C462 C461 1.392 1_554 S
C462 C463 1.385 . S
C462 C464 1.478 . S
C463 H457 0.930 . S
C463 C459 1.400 . S
C463 C462 1.385 . S
C464 C462 1.478 . S
C464 C466 1.381 . S
C464 C470 1.383 . S
C465 C461 1.495 . S
C465 H471 0.959 . S
C465 H472 0.961 1_556 S
C465 H473 0.960 . S
C466 C464 1.381 . S
C466 C467 1.394 . S
C466 H474 0.930 1_554 S
C467 C466 1.394 . S
C467 C468 1.383 . S
C467 H475 0.929 . S
C468 C467 1.383 . S
C468 C469 1.377 . S
C469 H453 0.930 . S
C469 C468 1.377 . S
C469 C470 1.379 . S
C470 H454 0.931 . S
C470 C464 1.383 . S
C470 C469 1.379 . S
H471 C465 0.959 . S
H472 C465 0.961 1_554 S
H473 C465 0.960 . S
H474 C466 0.930 1_556 S
H475 C467 0.929 . S
H476 C484 0.929 . S
H477 C486 0.930 . S
H478 C488 0.930 . S
H479 C491 0.929 . S
H480 C494 0.930 . S
H481 C496 0.960 . S
H482 C496 0.960 . S
H483 C496 0.960 . S
C484 H476 0.929 . S
C484 C485 1.377 . S
C484 C486 1.384 . S
C485 C484 1.377 . S
C485 C491 1.390 . S
C486 H477 0.930 . S
C486 C484 1.384 . S
C486 C487 1.372 . S
C487 C486 1.372 . S
C487 C488 1.400 . S
C487 C492 1.490 . S
C488 H478 0.930 . S
C488 C487 1.400 . S
C488 C491 1.386 . S
H489 C505 0.930 . S
H490 C506 0.931 . S
C491 H479 0.929 . S
C491 C485 1.390 . S
C491 C488 1.386 . S
C492 C487 1.490 . S
C492 C494 1.395 . S
C492 C495 1.403 . S
H493 C499 0.930 . S
C494 H480 0.930 . S
C494 C492 1.395 . S
C494 C497 1.403 . S
C495 C492 1.403 . S
C495 C496 1.524 . S
C495 C499 1.400 . S
C496 H481 0.960 . S
C496 H482 0.960 . S
C496 H483 0.960 . S
C496 C495 1.524 . S
C497 C494 1.403 . S
C497 C498 1.392 . S
C497 C501 1.495 . S
C498 C497 1.392 . S
C498 C499 1.385 . S
C498 C500 1.478 . S
C499 H493 0.930 . S
C499 C495 1.400 . S
C499 C498 1.385 . S
C500 C498 1.478 . S
C500 C502 1.381 . S
C500 C506 1.383 . S
C501 C497 1.495 . S
C501 H507 0.959 . S
C501 H508 0.961 . S
C501 H509 0.960 . S
C502 C500 1.381 . S
C502 C503 1.394 . S
C502 H510 0.930 . S
C503 C502 1.394 . S
C503 C504 1.383 . S
C503 H511 0.929 . S
C504 C503 1.383 . S
C504 C505 1.377 . S
C505 H489 0.930 . S
C505 C504 1.377 . S
C505 C506 1.379 . S
C506 H490 0.931 . S
C506 C500 1.383 . S
C506 C505 1.379 . S
H507 C501 0.959 . S
H508 C501 0.961 . S
H509 C501 0.960 . S
H510 C502 0.930 . S
H511 C503 0.929 . S
H512 C520 0.929 . S
H513 C522 0.930 . S
H514 C524 0.930 . S
H515 C527 0.929 . S
H516 C530 0.930 . S
H517 C532 0.960 . S
H518 C532 0.960 . S
H519 C532 0.960 1_554 S
C520 H512 0.929 . S
C520 C521 1.377 . S
C520 C522 1.384 . S
C521 C520 1.377 . S
C521 C527 1.390 . S
C522 H513 0.930 . S
C522 C520 1.384 . S
C522 C523 1.372 . S
C523 C522 1.372 . S
C523 C524 1.400 . S
C523 C528 1.490 . S
C524 H514 0.930 . S
C524 C523 1.400 . S
C524 C527 1.386 . S
H525 C541 0.930 . S
H526 C542 0.931 . S
C527 H515 0.929 . S
C527 C521 1.390 . S
C527 C524 1.386 . S
C528 C523 1.490 . S
C528 C530 1.395 . S
C528 C531 1.402 1_554 S
H529 C535 0.930 . S
C530 H516 0.930 . S
C530 C528 1.395 . S
C530 C533 1.386 1_544 S
C531 C528 1.402 1_556 S
C531 C532 1.524 . S
C531 C535 1.401 1_545 S
C532 H517 0.960 . S
C532 H518 0.960 . S
C532 H519 0.960 1_556 S
C532 C531 1.524 . S
C533 C530 1.386 1_566 S
C533 C534 1.410 . S
C533 C537 1.495 . S
C534 C533 1.410 . S
C534 C535 1.385 . S
C534 C536 1.478 . S
C535 H529 0.930 . S
C535 C531 1.401 1_565 S
C535 C534 1.385 . S
C536 C534 1.478 . S
C536 C538 1.381 . S
C536 C542 1.383 . S
C537 C533 1.495 . S
C537 H543 0.950 1_556 S
C537 H544 0.954 1_556 S
C537 H545 0.976 . S
C538 C536 1.381 . S
C538 C539 1.394 . S
C538 H546 0.930 . S
C539 C538 1.394 . S
C539 C540 1.383 . S
C539 H547 0.929 . S
C540 C539 1.383 . S
C540 C541 1.377 . S
C541 H525 0.930 . S
C541 C540 1.377 . S
C541 C542 1.379 . S
C542 H526 0.931 . S
C542 C536 1.383 . S
C542 C541 1.379 . S
H543 C537 0.950 1_554 S
H544 C537 0.954 1_554 S
H545 C537 0.976 . S
H546 C538 0.930 . S
H547 C539 0.929 . S
H548 C556 0.929 . S
H549 C558 0.930 . S
H550 C560 0.930 . S
H551 C563 0.929 . S
H552 C566 0.930 . S
H553 C568 0.960 . S
H554 C568 0.960 . S
H555 C568 0.960 . S
C556 H548 0.929 . S
C556 C557 1.377 . S
C556 C558 1.384 . S
C557 C556 1.377 . S
C557 C563 1.390 . S
C558 H549 0.930 . S
C558 C556 1.384 . S
C558 C559 1.372 . S
C559 C558 1.372 . S
C559 C560 1.400 . S
C559 C564 1.490 . S
C560 H550 0.930 . S
C560 C559 1.400 . S
C560 C563 1.386 . S
H561 C577 0.930 . S
H562 C578 0.931 . S
C563 H551 0.929 . S
C563 C557 1.390 . S
C563 C560 1.386 . S
C564 C559 1.490 . S
C564 C566 1.395 . S
C564 C567 1.403 . S
H565 C571 0.930 . S
C566 H552 0.930 . S
C566 C564 1.395 . S
C566 C569 1.403 1_565 S
C567 C564 1.403 . S
C567 C568 1.524 . S
C567 C571 1.400 1_565 S
C568 H553 0.960 . S
C568 H554 0.960 . S
C568 H555 0.960 . S
C568 C567 1.524 . S
C569 C566 1.403 1_545 S
C569 C570 1.392 . S
C569 C573 1.495 . S
C570 C569 1.392 . S
C570 C571 1.385 . S
C570 C572 1.478 . S
C571 H565 0.930 . S
C571 C567 1.400 1_545 S
C571 C570 1.385 . S
C572 C570 1.478 . S
C572 C574 1.381 . S
C572 C578 1.383 . S
C573 C569 1.495 . S
C573 H579 0.959 . S
C573 H580 0.961 . S
C573 H581 0.960 . S
C574 C572 1.381 . S
C574 C575 1.394 . S
C574 H582 0.930 . S
C575 C574 1.394 . S
C575 C576 1.383 . S
C575 H583 0.929 . S
C576 C575 1.383 . S
C576 C577 1.377 . S
C577 H561 0.930 . S
C577 C576 1.377 . S
C577 C578 1.379 . S
C578 H562 0.931 . S
C578 C572 1.383 . S
C578 C577 1.379 . S
H579 C573 0.959 . S
H580 C573 0.961 . S
H581 C573 0.960 . S
H582 C574 0.930 . S
H583 C575 0.929 . S
H584 C592 0.929 . S
H585 C594 0.930 . S
H586 C596 0.930 . S
H587 C599 0.929 . S
H588 C602 0.930 . S
H589 C604 0.960 . S
H590 C604 0.960 . S
H591 C604 0.960 1_565 S
C592 H584 0.929 . S
C592 C593 1.377 . S
C592 C594 1.384 . S
C593 C592 1.377 . S
C593 C599 1.390 . S
C594 H585 0.930 . S
C594 C592 1.384 . S
C594 C595 1.372 . S
C595 C594 1.372 . S
C595 C596 1.400 . S
C595 C600 1.490 . S
C596 H586 0.930 . S
C596 C595 1.400 . S
C596 C599 1.386 . S
H597 C613 0.930 . S
H598 C614 0.931 . S
C599 H587 0.929 . S
C599 C593 1.390 . S
C599 C596 1.386 . S
C600 C595 1.490 . S
C600 C602 1.395 1_556 S
C600 C603 1.360 1_565 S
H601 C607 0.930 . S
C602 H588 0.930 . S
C602 C600 1.395 1_554 S
C602 C605 1.403 . S
C603 C600 1.360 1_545 S
C603 C604 1.531 . S
C603 C607 1.438 . S
C604 H589 0.960 . S
C604 H590 0.960 . S
C604 H591 0.960 1_545 S
C604 C603 1.531 . S
C605 C602 1.403 . S
C605 C606 1.392 1_565 S
C605 C609 1.495 . S
C606 C605 1.392 1_545 S
C606 C607 1.385 1_554 S
C606 C608 1.478 . S
C607 H601 0.930 . S
C607 C603 1.438 . S
C607 C606 1.385 1_556 S
C608 C606 1.478 . S
C608 C610 1.381 . S
C608 C614 1.383 . S
C609 C605 1.495 . S
C609 H615 0.959 . S
C609 H616 0.961 . S
C609 H617 0.960 1_565 S
C610 C608 1.381 . S
C610 C611 1.394 . S
C610 H618 0.930 . S
C611 C610 1.394 . S
C611 C612 1.383 . S
C611 H619 0.929 . S
C612 C611 1.383 . S
C612 C613 1.377 . S
C613 H597 0.930 . S
C613 C612 1.377 . S
C613 C614 1.379 . S
C614 H598 0.931 . S
C614 C608 1.383 . S
C614 C613 1.379 . S
H615 C609 0.959 . S
H616 C609 0.961 . S
H617 C609 0.960 1_545 S
H618 C610 0.930 . S
H619 C611 0.929 . S
H620 C628 0.929 . S
H621 C630 0.930 . S
H622 C632 0.930 . S
H623 C635 0.929 . S
H624 C638 0.930 . S
H625 C640 0.960 . S
H626 C640 0.960 . S
H627 C640 0.960 . S
C628 H620 0.929 . S
C628 C629 1.377 . S
C628 C630 1.384 . S
C629 C628 1.377 . S
C629 C635 1.390 . S
C630 H621 0.930 . S
C630 C628 1.384 . S
C630 C631 1.372 . S
C631 C630 1.372 . S
C631 C632 1.400 . S
C631 C636 1.490 . S
C632 H622 0.930 . S
C632 C631 1.400 . S
C632 C635 1.386 . S
H633 C649 0.930 . S
H634 C650 0.931 . S
C635 H623 0.929 . S
C635 C629 1.390 . S
C635 C632 1.386 . S
C636 C631 1.490 . S
C636 C638 1.395 . S
C636 C639 1.403 . S
H637 C643 0.930 . S
C638 H624 0.930 . S
C638 C636 1.395 . S
C638 C641 1.403 1_545 S
C639 C636 1.403 . S
C639 C640 1.524 . S
C639 C643 1.400 1_545 S
C640 H625 0.960 . S
C640 H626 0.960 . S
C640 H627 0.960 . S
C640 C639 1.524 . S
C641 C638 1.403 1_565 S
C641 C642 1.392 . S
C641 C645 1.495 . S
C642 C641 1.392 . S
C642 C643 1.385 . S
C642 C644 1.478 . S
C643 H637 0.930 . S
C643 C639 1.400 1_565 S
C643 C642 1.385 . S
C644 C642 1.478 . S
C644 C646 1.381 . S
C644 C650 1.383 . S
C645 C641 1.495 . S
C645 H651 0.959 . S
C645 H652 0.961 . S
C645 H653 0.960 . S
C646 C644 1.381 . S
C646 C647 1.394 . S
C646 H654 0.930 . S
C647 C646 1.394 . S
C647 C648 1.383 . S
C647 H655 0.929 . S
C648 C647 1.383 . S
C648 C649 1.377 . S
C649 H633 0.930 . S
C649 C648 1.377 . S
C649 C650 1.379 . S
C650 H634 0.931 . S
C650 C644 1.383 . S
C650 C649 1.379 . S
H651 C645 0.959 . S
H652 C645 0.961 . S
H653 C645 0.960 . S
H654 C646 0.930 . S
H655 C647 0.929 . S
H656 C664 0.929 . S
H657 C666 0.930 . S
H658 C668 0.930 . S
H659 C671 0.929 . S
H660 C674 0.930 . S
H661 C676 0.960 . S
H662 C676 0.960 . S
H663 C676 0.960 . S
C664 H656 0.929 . S
C664 C665 1.377 . S
C664 C666 1.384 . S
C665 C664 1.377 . S
C665 C671 1.390 . S
C666 H657 0.930 . S
C666 C664 1.384 . S
C666 C667 1.372 . S
C667 C666 1.372 . S
C667 C668 1.400 . S
C667 C672 1.490 . S
C668 H658 0.930 . S
C668 C667 1.400 . S
C668 C671 1.386 . S
H669 C685 0.930 . S
H670 C686 0.931 . S
C671 H659 0.929 . S
C671 C665 1.390 . S
C671 C668 1.386 . S
C672 C667 1.490 . S
C672 C674 1.395 1_556 S
C672 C675 1.403 . S
H673 C679 0.930 . S
C674 H660 0.930 . S
C674 C672 1.395 1_554 S
C674 C677 1.403 . S
C675 C672 1.403 . S
C675 C676 1.524 . S
C675 C679 1.400 . S
C676 H661 0.960 . S
C676 H662 0.960 . S
C676 H663 0.960 . S
C676 C675 1.524 . S
C677 C674 1.403 . S
C677 C678 1.392 . S
C677 C681 1.495 . S
C678 C677 1.392 . S
C678 C679 1.385 1_554 S
C678 C680 1.478 . S
C679 H673 0.930 . S
C679 C675 1.400 . S
C679 C678 1.385 1_556 S
C680 C678 1.478 . S
C680 C682 1.381 . S
C680 C686 1.383 . S
C681 C677 1.495 . S
C681 H687 0.959 . S
C681 H688 0.961 . S
C681 H689 0.960 . S
C682 C680 1.381 . S
C682 C683 1.394 . S
C682 H690 0.930 . S
C683 C682 1.394 . S
C683 C684 1.383 . S
C683 H691 0.929 . S
C684 C683 1.383 . S
C684 C685 1.377 . S
C685 H669 0.930 . S
C685 C684 1.377 . S
C685 C686 1.379 . S
C686 H670 0.931 . S
C686 C680 1.383 . S
C686 C685 1.379 . S
H687 C681 0.959 . S
H688 C681 0.961 . S
H689 C681 0.960 . S
H690 C682 0.930 . S
H691 C683 0.929 . S
H692 C700 0.929 . S
H693 C702 0.930 . S
H694 C704 0.930 . S
H695 C707 0.929 . S
H696 C710 0.930 . S
H697 C712 0.960 . S
H698 C712 0.960 . S
H699 C712 0.960 . S
C700 H692 0.929 . S
C700 C701 1.377 . S
C700 C702 1.384 . S
C701 C700 1.377 . S
C701 C707 1.390 . S
C702 H693 0.930 . S
C702 C700 1.384 . S
C702 C703 1.372 . S
C703 C702 1.372 . S
C703 C704 1.400 . S
C703 C708 1.490 . S
C704 H694 0.930 . S
C704 C703 1.400 . S
C704 C707 1.386 . S
H705 C721 0.930 . S
H706 C722 0.931 . S
C707 H695 0.929 . S
C707 C701 1.390 . S
C707 C704 1.386 . S
C708 C703 1.490 . S
C708 C710 1.395 . S
C708 C711 1.403 . S
H709 C715 0.930 . S
C710 H696 0.930 . S
C710 C708 1.395 . S
C710 C713 1.403 . S
C711 C708 1.403 . S
C711 C712 1.524 . S
C711 C715 1.400 . S
C712 H697 0.960 . S
C712 H698 0.960 . S
C712 H699 0.960 . S
C712 C711 1.524 . S
C713 C710 1.403 . S
C713 C714 1.392 . S
C713 C717 1.495 . S
C714 C713 1.392 . S
C714 C715 1.385 . S
C714 C716 1.478 . S
C715 H709 0.930 . S
C715 C711 1.400 . S
C715 C714 1.385 . S
C716 C714 1.478 . S
C716 C718 1.381 . S
C716 C722 1.383 . S
C717 C713 1.495 . S
C717 H723 0.959 . S
C717 H724 0.961 . S
C717 H725 0.960 . S
C718 C716 1.381 . S
C718 C719 1.394 . S
C718 H726 0.930 . S
C719 C718 1.394 . S
C719 C720 1.383 . S
C719 H727 0.929 . S
C720 C719 1.383 . S
C720 C721 1.377 . S
C721 H705 0.930 . S
C721 C720 1.377 . S
C721 C722 1.379 . S
C722 H706 0.931 . S
C722 C716 1.383 . S
C722 C721 1.379 . S
H723 C717 0.959 . S
H724 C717 0.961 . S
H725 C717 0.960 . S
H726 C718 0.930 . S
H727 C719 0.929 . S
H728 C736 0.929 . S
H729 C738 0.930 . S
H730 C740 0.930 . S
H731 C743 0.929 . S
H732 C746 0.930 . S
H733 C748 0.960 . S
H734 C748 0.960 . S
H735 C748 0.960 . S
C736 H728 0.929 . S
C736 C737 1.377 . S
C736 C738 1.384 . S
C737 C736 1.377 . S
C737 C743 1.390 . S
C738 H729 0.930 . S
C738 C736 1.384 . S
C738 C739 1.372 . S
C739 C738 1.372 . S
C739 C740 1.400 . S
C739 C744 1.490 . S
C740 H730 0.930 . S
C740 C739 1.400 . S
C740 C743 1.386 . S
H741 C757 0.930 . S
H742 C758 0.931 . S
C743 H731 0.929 . S
C743 C737 1.390 . S
C743 C740 1.386 . S
C744 C739 1.490 . S
C744 C746 1.395 . S
C744 C747 1.403 1_554 S
H745 C751 0.930 . S
C746 H732 0.930 . S
C746 C744 1.395 . S
C746 C749 1.403 . S
C747 C744 1.403 1_556 S
C747 C748 1.524 . S
C747 C751 1.400 . S
C748 H733 0.960 . S
C748 H734 0.960 . S
C748 H735 0.960 . S
C748 C747 1.524 . S
C749 C746 1.403 . S
C749 C750 1.392 1_554 S
C749 C753 1.495 . S
C750 C749 1.392 1_556 S
C750 C751 1.385 . S
C750 C752 1.478 . S
C751 H745 0.930 . S
C751 C747 1.400 . S
C751 C750 1.385 . S
C752 C750 1.478 . S
C752 C754 1.381 . S
C752 C758 1.383 . S
C753 C749 1.495 . S
C753 H759 0.959 . S
C753 H760 0.961 . S
C753 H761 0.960 . S
C754 C752 1.381 . S
C754 C755 1.394 . S
C754 H762 0.930 . S
C755 C754 1.394 . S
C755 C756 1.383 . S
C755 H763 0.929 . S
C756 C755 1.383 . S
C756 C757 1.377 . S
C757 H741 0.930 . S
C757 C756 1.377 . S
C757 C758 1.379 . S
C758 H742 0.931 . S
C758 C752 1.383 . S
C758 C757 1.379 . S
H759 C753 0.959 . S
H760 C753 0.961 . S
H761 C753 0.960 . S
H762 C754 0.930 . S
H763 C755 0.929 . S
H764 C772 0.929 . S
H765 C774 0.930 . S
H766 C776 0.930 . S
H767 C779 0.929 . S
H768 C782 0.930 . S
H769 C784 0.960 . S
H770 C784 0.960 . S
H771 C784 0.960 . S
C772 H764 0.929 . S
C772 C773 1.377 . S
C772 C774 1.384 . S
C773 C772 1.377 . S
C773 C779 1.390 . S
C774 H765 0.930 . S
C774 C772 1.384 . S
C774 C775 1.372 . S
C775 C774 1.372 . S
C775 C776 1.400 . S
C775 C780 1.490 . S
C776 H766 0.930 . S
C776 C775 1.400 . S
C776 C779 1.386 . S
H777 C793 0.930 . S
H778 C794 0.931 . S
C779 H767 0.929 . S
C779 C773 1.390 . S
C779 C776 1.386 . S
C780 C775 1.490 . S
C780 C782 1.395 . S
C780 C783 1.403 . S
H781 C787 0.930 . S
C782 H768 0.930 . S
C782 C780 1.395 . S
C782 C785 1.403 . S
C783 C780 1.403 . S
C783 C784 1.524 . S
C783 C787 1.400 . S
C784 H769 0.960 . S
C784 H770 0.960 . S
C784 H771 0.960 . S
C784 C783 1.524 . S
C785 C782 1.403 . S
C785 C786 1.392 . S
C785 C789 1.495 . S
C786 C785 1.392 . S
C786 C787 1.385 . S
C786 C788 1.478 . S
C787 H781 0.930 . S
C787 C783 1.400 . S
C787 C786 1.385 . S
C788 C786 1.478 . S
C788 C790 1.381 . S
C788 C794 1.383 . S
C789 C785 1.495 . S
C789 H795 0.959 . S
C789 H796 0.961 . S
C789 H797 0.960 . S
C790 C788 1.381 . S
C790 C791 1.394 . S
C790 H798 0.930 . S
C791 C790 1.394 . S
C791 C792 1.383 . S
C791 H799 0.929 . S
C792 C791 1.383 . S
C792 C793 1.377 . S
C793 H777 0.930 . S
C793 C792 1.377 . S
C793 C794 1.379 . S
C794 H778 0.931 . S
C794 C788 1.383 . S
C794 C793 1.379 . S
H795 C789 0.959 . S
H796 C789 0.961 . S
H797 C789 0.960 . S
H798 C790 0.930 . S
H799 C791 0.929 . S
H800 C808 0.929 . S
H801 C810 0.930 . S
H802 C812 0.930 . S
H803 C815 0.929 . S
H804 C818 0.930 . S
H805 C820 0.960 . S
H806 C820 0.960 . S
H807 C820 0.960 . S
C808 H800 0.929 . S
C808 C809 1.377 . S
C808 C810 1.384 . S
C809 C808 1.377 . S
C809 C815 1.390 . S
C810 H801 0.930 . S
C810 C808 1.384 . S
C810 C811 1.372 . S
C811 C810 1.372 . S
C811 C812 1.400 . S
C811 C816 1.490 . S
C812 H802 0.930 . S
C812 C811 1.400 . S
C812 C815 1.386 . S
H813 C829 0.930 . S
H814 C830 0.931 . S
C815 H803 0.929 . S
C815 C809 1.390 . S
C815 C812 1.386 . S
C816 C811 1.490 . S
C816 C818 1.395 . S
C816 C819 1.403 . S
H817 C823 0.930 . S
C818 H804 0.930 . S
C818 C816 1.395 . S
C818 C821 1.403 . S
C819 C816 1.403 . S
C819 C820 1.524 . S
C819 C823 1.400 . S
C820 H805 0.960 . S
C820 H806 0.960 . S
C820 H807 0.960 . S
C820 C819 1.524 . S
C821 C818 1.403 . S
C821 C822 1.392 . S
C821 C825 1.495 . S
C822 C821 1.392 . S
C822 C823 1.385 . S
C822 C824 1.478 . S
C823 H817 0.930 . S
C823 C819 1.400 . S
C823 C822 1.385 . S
C824 C822 1.478 . S
C824 C826 1.381 . S
C824 C830 1.383 . S
C825 C821 1.495 . S
C825 H831 0.959 . S
C825 H832 0.961 . S
C825 H833 0.960 . S
C826 C824 1.381 . S
C826 C827 1.394 . S
C826 H834 0.930 . S
C827 C826 1.394 . S
C827 C828 1.383 . S
C827 H835 0.929 . S
C828 C827 1.383 . S
C828 C829 1.377 . S
C829 H813 0.930 . S
C829 C828 1.377 . S
C829 C830 1.379 . S
C830 H814 0.931 . S
C830 C824 1.383 . S
C830 C829 1.379 . S
H831 C825 0.959 . S
H832 C825 0.961 . S
H833 C825 0.960 . S
H834 C826 0.930 . S
H835 C827 0.929 . S
H836 C844 0.929 . S
H837 C846 0.930 . S
H838 C848 0.930 . S
H839 C851 0.929 . S
H840 C854 0.930 . S
H841 C856 0.960 . S
H842 C856 0.960 . S
H843 C856 0.960 . S
C844 H836 0.929 . S
C844 C845 1.377 . S
C844 C846 1.384 . S
C845 C844 1.377 . S
C845 C851 1.390 . S
C846 H837 0.930 . S
C846 C844 1.384 . S
C846 C847 1.372 . S
C847 C846 1.372 . S
C847 C848 1.400 . S
C847 C852 1.490 . S
C848 H838 0.930 . S
C848 C847 1.400 . S
C848 C851 1.386 . S
H849 C865 0.930 . S
H850 C866 0.931 . S
C851 H839 0.929 . S
C851 C845 1.390 . S
C851 C848 1.386 . S
C852 C847 1.490 . S
C852 C854 1.395 . S
C852 C855 1.403 . S
H853 C859 0.930 . S
C854 H840 0.930 . S
C854 C852 1.395 . S
C854 C857 1.403 1_655 S
C855 C852 1.403 . S
C855 C856 1.524 . S
C855 C859 1.400 1_655 S
C856 H841 0.960 . S
C856 H842 0.960 . S
C856 H843 0.960 . S
C856 C855 1.524 . S
C857 C854 1.403 1_455 S
C857 C858 1.392 . S
C857 C861 1.495 . S
C858 C857 1.392 . S
C858 C859 1.385 . S
C858 C860 1.478 . S
C859 H853 0.930 . S
C859 C855 1.400 1_455 S
C859 C858 1.385 . S
C860 C858 1.478 . S
C860 C862 1.381 . S
C860 C866 1.383 . S
C861 C857 1.495 . S
C861 H867 0.959 . S
C861 H868 0.961 . S
C861 H869 0.960 . S
C862 C860 1.381 . S
C862 C863 1.394 . S
C862 H870 0.930 . S
C863 C862 1.394 . S
C863 C864 1.383 . S
C863 H871 0.929 . S
C864 C863 1.383 . S
C864 C865 1.377 . S
C865 H849 0.930 . S
C865 C864 1.377 . S
C865 C866 1.379 . S
C866 H850 0.931 . S
C866 C860 1.383 . S
C866 C865 1.379 . S
H867 C861 0.959 . S
H868 C861 0.961 . S
H869 C861 0.960 . S
H870 C862 0.930 . S
H871 C863 0.929 . S
H872 C880 0.929 . S
H873 C882 0.930 . S
H874 C884 0.930 . S
H875 C887 0.929 . S
H876 C890 0.930 . S
H877 C892 0.960 . S
H878 C892 0.960 . S
H879 C892 0.960 . S
C880 H872 0.929 . S
C880 C881 1.377 . S
C880 C882 1.384 . S
C881 C880 1.377 . S
C881 C887 1.390 . S
C882 H873 0.930 . S
C882 C880 1.384 . S
C882 C883 1.372 . S
C883 C882 1.372 . S
C883 C884 1.400 . S
C883 C888 1.490 . S
C884 H874 0.930 . S
C884 C883 1.400 . S
C884 C887 1.386 . S
H885 C901 0.930 . S
H886 C902 0.931 . S
C887 H875 0.929 . S
C887 C881 1.390 . S
C887 C884 1.386 . S
C888 C883 1.490 . S
C888 C890 1.395 . S
C888 C891 1.403 . S
H889 C895 0.930 . S
C890 H876 0.930 . S
C890 C888 1.395 . S
C890 C893 1.403 . S
C891 C888 1.403 . S
C891 C892 1.524 . S
C891 C895 1.400 . S
C892 H877 0.960 . S
C892 H878 0.960 . S
C892 H879 0.960 . S
C892 C891 1.524 . S
C893 C890 1.403 . S
C893 C894 1.392 . S
C893 C897 1.495 . S
C894 C893 1.392 . S
C894 C895 1.385 . S
C894 C896 1.478 . S
C895 H889 0.930 . S
C895 C891 1.400 . S
C895 C894 1.385 . S
C896 C894 1.478 . S
C896 C898 1.381 . S
C896 C902 1.383 . S
C897 C893 1.495 . S
C897 H903 0.959 . S
C897 H904 0.961 . S
C897 H905 0.960 . S
C898 C896 1.381 . S
C898 C899 1.394 . S
C898 H906 0.930 . S
C899 C898 1.394 . S
C899 C900 1.383 . S
C899 H907 0.929 . S
C900 C899 1.383 . S
C900 C901 1.377 . S
C901 H885 0.930 . S
C901 C900 1.377 . S
C901 C902 1.379 . S
C902 H886 0.931 . S
C902 C896 1.383 . S
C902 C901 1.379 . S
H903 C897 0.959 . S
H904 C897 0.961 . S
H905 C897 0.960 . S
H906 C898 0.930 . S
H907 C899 0.929 . S
H908 C916 0.929 . S
H909 C918 0.930 . S
H910 C920 0.930 . S
H911 C923 0.929 . S
H912 C926 0.930 . S
H913 C928 0.960 . S
H914 C928 0.960 . S
H915 C928 0.960 . S
C916 H908 0.929 . S
C916 C917 1.377 . S
C916 C918 1.384 . S
C917 C916 1.377 . S
C917 C923 1.390 . S
C918 H909 0.930 . S
C918 C916 1.384 . S
C918 C919 1.372 . S
C919 C918 1.372 . S
C919 C920 1.400 . S
C919 C924 1.490 . S
C920 H910 0.930 . S
C920 C919 1.400 . S
C920 C923 1.386 . S
H921 C937 0.930 . S
H922 C938 0.931 . S
C923 H911 0.929 . S
C923 C917 1.390 . S
C923 C920 1.386 . S
C924 C919 1.490 . S
C924 C926 1.395 . S
C924 C927 1.403 . S
H925 C931 0.930 . S
C926 H912 0.930 . S
C926 C924 1.395 . S
C926 C929 1.403 1_455 S
C927 C924 1.403 . S
C927 C928 1.524 . S
C927 C931 1.400 1_455 S
C928 H913 0.960 . S
C928 H914 0.960 . S
C928 H915 0.960 . S
C928 C927 1.524 . S
C929 C926 1.403 1_655 S
C929 C930 1.392 . S
C929 C933 1.495 . S
C930 C929 1.392 . S
C930 C931 1.385 . S
C930 C932 1.478 . S
C931 H925 0.930 . S
C931 C927 1.400 1_655 S
C931 C930 1.385 . S
C932 C930 1.478 . S
C932 C934 1.381 . S
C932 C938 1.383 . S
C933 C929 1.495 . S
C933 H939 0.959 . S
C933 H940 0.961 . S
C933 H941 0.960 . S
C934 C932 1.381 . S
C934 C935 1.394 . S
C934 H942 0.930 . S
C935 C934 1.394 . S
C935 C936 1.383 . S
C935 H943 0.929 . S
C936 C935 1.383 . S
C936 C937 1.377 . S
C937 H921 0.930 . S
C937 C936 1.377 . S
C937 C938 1.379 . S
C938 H922 0.931 . S
C938 C932 1.383 . S
C938 C937 1.379 . S
H939 C933 0.959 . S
H940 C933 0.961 . S
H941 C933 0.960 . S
H942 C934 0.930 . S
H943 C935 0.929 . S
H944 C952 0.929 . S
H945 C954 0.930 . S
H946 C956 0.930 . S
H947 C959 0.929 . S
H948 C962 0.930 . S
H949 C964 0.960 . S
H950 C964 0.960 . S
H951 C964 0.960 . S
C952 H944 0.929 . S
C952 C953 1.377 . S
C952 C954 1.384 . S
C953 C952 1.377 . S
C953 C959 1.390 . S
C954 H945 0.930 . S
C954 C952 1.384 . S
C954 C955 1.372 . S
C955 C954 1.372 . S
C955 C956 1.400 . S
C955 C960 1.490 . S
C956 H946 0.930 . S
C956 C955 1.400 . S
C956 C959 1.386 . S
H957 C973 0.930 . S
H958 C974 0.931 . S
C959 H947 0.929 . S
C959 C953 1.390 . S
C959 C956 1.386 . S
C960 C955 1.490 . S
C960 C962 1.395 . S
C960 C963 1.403 . S
H961 C967 0.930 . S
C962 H948 0.930 . S
C962 C960 1.395 . S
C962 C965 1.403 1_455 S
C963 C960 1.403 . S
C963 C964 1.524 . S
C963 C967 1.400 1_455 S
C964 H949 0.960 . S
C964 H950 0.960 . S
C964 H951 0.960 . S
C964 C963 1.524 . S
C965 C962 1.403 1_655 S
C965 C966 1.392 . S
C965 C969 1.495 . S
C966 C965 1.392 . S
C966 C967 1.385 . S
C966 C968 1.478 . S
C967 H961 0.930 . S
C967 C963 1.400 1_655 S
C967 C966 1.385 . S
C968 C966 1.478 . S
C968 C970 1.381 . S
C968 C974 1.383 . S
C969 C965 1.495 . S
C969 H975 0.959 . S
C969 H976 0.961 . S
C969 H977 0.960 . S
C970 C968 1.381 . S
C970 C971 1.394 . S
C970 H978 0.930 . S
C971 C970 1.394 . S
C971 C972 1.383 . S
C971 H979 0.929 . S
C972 C971 1.383 . S
C972 C973 1.377 . S
C973 H957 0.930 . S
C973 C972 1.377 . S
C973 C974 1.379 . S
C974 H958 0.931 . S
C974 C968 1.383 . S
C974 C973 1.379 . S
H975 C969 0.959 . S
H976 C969 0.961 . S
H977 C969 0.960 . S
H978 C970 0.930 . S
H979 C971 0.929 . S
H980 C988 0.929 . S
H981 C990 0.930 . S
H982 C992 0.930 . S
H983 C995 0.929 . S
H984 C998 0.930 . S
H985 C1000 0.960 . S
H986 C1000 0.960 . S
H987 C1000 0.960 . S
C988 H980 0.929 . S
C988 C989 1.377 . S
C988 C990 1.384 . S
C989 C988 1.377 . S
C989 C995 1.390 . S
C990 H981 0.930 . S
C990 C988 1.384 . S
C990 C991 1.372 . S
C991 C990 1.372 . S
C991 C992 1.400 . S
C991 C996 1.490 . S
C992 H982 0.930 . S
C992 C991 1.400 . S
C992 C995 1.386 . S
H993 C1009 0.930 . S
H994 C1010 0.931 . S
C995 H983 0.929 . S
C995 C989 1.390 . S
C995 C992 1.386 . S
C996 C991 1.490 . S
C996 C998 1.395 . S
C996 C999 1.403 . S
H997 C1003 0.930 . S
C998 H984 0.930 . S
C998 C996 1.395 . S
C998 C1001 1.403 . S
C999 C996 1.403 . S
C999 C1000 1.524 . S
C999 C1003 1.400 . S
C1000 H985 0.960 . S
C1000 H986 0.960 . S
C1000 H987 0.960 . S
C1000 C999 1.524 . S
C1001 C998 1.403 . S
C1001 C1002 1.392 . S
C1001 C1005 1.495 . S
C1002 C1001 1.392 . S
C1002 C1003 1.385 . S
C1002 C1004 1.478 . S
C1003 H997 0.930 . S
C1003 C999 1.400 . S
C1003 C1002 1.385 . S
C1004 C1002 1.478 . S
C1004 C1006 1.381 . S
C1004 C1010 1.383 . S
C1005 C1001 1.495 . S
C1005 H1011 0.959 . S
C1005 H1012 0.961 . S
C1005 H1013 0.960 . S
C1006 C1004 1.381 . S
C1006 C1007 1.394 . S
C1006 H1014 0.930 . S
C1007 C1006 1.394 . S
C1007 C1008 1.383 . S
C1007 H1015 0.929 . S
C1008 C1007 1.383 . S
C1008 C1009 1.377 . S
C1009 H993 0.930 . S
C1009 C1008 1.377 . S
C1009 C1010 1.379 . S
C1010 H994 0.931 . S
C1010 C1004 1.383 . S
C1010 C1009 1.379 . S
H1011 C1005 0.959 . S
H1012 C1005 0.961 . S
H1013 C1005 0.960 . S
H1014 C1006 0.930 . S
H1015 C1007 0.929 . S
H1016 C1024 0.929 . S
H1017 C1026 0.930 . S
H1018 C1028 0.930 . S
H1019 C1031 0.929 . S
H1020 C1034 0.930 . S
H1021 C1036 0.960 . S
H1022 C1036 0.960 . S
H1023 C1036 0.960 . S
C1024 H1016 0.929 . S
C1024 C1025 1.377 . S
C1024 C1026 1.384 . S
C1025 C1024 1.377 . S
C1025 C1031 1.390 . S
C1026 H1017 0.930 . S
C1026 C1024 1.384 . S
C1026 C1027 1.372 . S
C1027 C1026 1.372 . S
C1027 C1028 1.400 . S
C1027 C1032 1.490 . S
C1028 H1018 0.930 . S
C1028 C1027 1.400 . S
C1028 C1031 1.386 . S
H1029 C1045 0.930 . S
H1030 C1046 0.931 . S
C1031 H1019 0.929 . S
C1031 C1025 1.390 . S
C1031 C1028 1.386 . S
C1032 C1027 1.490 . S
C1032 C1034 1.395 . S
C1032 C1035 1.403 . S
H1033 C1039 0.930 . S
C1034 H1020 0.930 . S
C1034 C1032 1.395 . S
C1034 C1037 1.403 1_455 S
C1035 C1032 1.403 . S
C1035 C1036 1.524 . S
C1035 C1039 1.400 1_455 S
C1036 H1021 0.960 . S
C1036 H1022 0.960 . S
C1036 H1023 0.960 . S
C1036 C1035 1.524 . S
C1037 C1034 1.403 1_655 S
C1037 C1038 1.392 . S
C1037 C1041 1.495 . S
C1038 C1037 1.392 . S
C1038 C1039 1.385 . S
C1038 C1040 1.478 . S
C1039 H1033 0.930 . S
C1039 C1035 1.400 1_655 S
C1039 C1038 1.385 . S
C1040 C1038 1.478 . S
C1040 C1042 1.381 . S
C1040 C1046 1.383 . S
C1041 C1037 1.495 . S
C1041 H1047 0.959 . S
C1041 H1048 0.961 . S
C1041 H1049 0.960 . S
C1042 C1040 1.381 . S
C1042 C1043 1.394 . S
C1042 H1050 0.930 . S
C1043 C1042 1.394 . S
C1043 C1044 1.383 . S
C1043 H1051 0.929 . S
C1044 C1043 1.383 . S
C1044 C1045 1.377 . S
C1045 H1029 0.930 . S
C1045 C1044 1.377 . S
C1045 C1046 1.379 . S
C1046 H1030 0.931 . S
C1046 C1040 1.383 . S
C1046 C1045 1.379 . S
H1047 C1041 0.959 . S
H1048 C1041 0.961 . S
H1049 C1041 0.960 . S
H1050 C1042 0.930 . S
H1051 C1043 0.929 . S
H1052 C1060 0.929 . S
H1053 C1062 0.930 . S
H1054 C1064 0.930 . S
H1055 C1067 0.929 . S
H1056 C1070 0.930 . S
H1057 C1072 0.960 . S
H1058 C1072 0.960 . S
H1059 C1072 0.960 . S
C1060 H1052 0.929 . S
C1060 C1061 1.377 . S
C1060 C1062 1.384 . S
C1061 C1060 1.377 . S
C1061 C1067 1.390 . S
C1062 H1053 0.930 . S
C1062 C1060 1.384 . S
C1062 C1063 1.372 . S
C1063 C1062 1.372 . S
C1063 C1064 1.400 . S
C1063 C1068 1.490 . S
C1064 H1054 0.930 . S
C1064 C1063 1.400 . S
C1064 C1067 1.386 . S
H1065 C1081 0.930 . S
H1066 C1082 0.931 . S
C1067 H1055 0.929 . S
C1067 C1061 1.390 . S
C1067 C1064 1.386 . S
C1068 C1063 1.490 . S
C1068 C1070 1.395 . S
C1068 C1071 1.403 . S
H1069 C1075 0.930 . S
C1070 H1056 0.930 . S
C1070 C1068 1.395 . S
C1070 C1073 1.403 . S
C1071 C1068 1.403 . S
C1071 C1072 1.524 . S
C1071 C1075 1.400 . S
C1072 H1057 0.960 . S
C1072 H1058 0.960 . S
C1072 H1059 0.960 . S
C1072 C1071 1.524 . S
C1073 C1070 1.403 . S
C1073 C1074 1.392 . S
C1073 C1077 1.495 . S
C1074 C1073 1.392 . S
C1074 C1075 1.385 . S
C1074 C1076 1.478 . S
C1075 H1069 0.930 . S
C1075 C1071 1.400 . S
C1075 C1074 1.385 . S
C1076 C1074 1.478 . S
C1076 C1078 1.381 . S
C1076 C1082 1.383 . S
C1077 C1073 1.495 . S
C1077 H1083 0.959 . S
C1077 H1084 0.961 . S
C1077 H1085 0.960 . S
C1078 C1076 1.381 . S
C1078 C1079 1.394 . S
C1078 H1086 0.930 . S
C1079 C1078 1.394 . S
C1079 C1080 1.383 . S
C1079 H1087 0.929 . S
C1080 C1079 1.383 . S
C1080 C1081 1.377 . S
C1081 H1065 0.930 . S
C1081 C1080 1.377 . S
C1081 C1082 1.379 . S
C1082 H1066 0.931 . S
C1082 C1076 1.383 . S
C1082 C1081 1.379 . S
H1083 C1077 0.959 . S
H1084 C1077 0.961 . S
H1085 C1077 0.960 . S
H1086 C1078 0.930 . S
H1087 C1079 0.929 . S
H1088 C1096 0.929 . S
H1089 C1098 0.930 . S
H1090 C1100 0.930 . S
H1091 C1103 0.929 . S
H1092 C1106 0.930 . S
H1093 C1108 0.960 . S
H1094 C1108 0.960 . S
H1095 C1108 0.960 . S
C1096 H1088 0.929 . S
C1096 C1097 1.377 . S
C1096 C1098 1.384 . S
C1097 C1096 1.377 . S
C1097 C1103 1.390 . S
C1098 H1089 0.930 . S
C1098 C1096 1.384 . S
C1098 C1099 1.372 . S
C1099 C1098 1.372 . S
C1099 C1100 1.400 . S
C1099 C1104 1.490 . S
C1100 H1090 0.930 . S
C1100 C1099 1.400 . S
C1100 C1103 1.386 . S
H1101 C1117 0.930 . S
H1102 C1118 0.931 . S
C1103 H1091 0.929 . S
C1103 C1097 1.390 . S
C1103 C1100 1.386 . S
C1104 C1099 1.490 . S
C1104 C1106 1.395 . S
C1104 C1107 1.403 . S
H1105 C1111 0.930 . S
C1106 H1092 0.930 . S
C1106 C1104 1.395 . S
C1106 C1109 1.403 . S
C1107 C1104 1.403 . S
C1107 C1108 1.524 . S
C1107 C1111 1.400 . S
C1108 H1093 0.960 . S
C1108 H1094 0.960 . S
C1108 H1095 0.960 . S
C1108 C1107 1.524 . S
C1109 C1106 1.403 . S
C1109 C1110 1.392 . S
C1109 C1113 1.495 . S
C1110 C1109 1.392 . S
C1110 C1111 1.385 . S
C1110 C1112 1.478 . S
C1111 H1105 0.930 . S
C1111 C1107 1.400 . S
C1111 C1110 1.385 . S
C1112 C1110 1.478 . S
C1112 C1114 1.381 . S
C1112 C1118 1.383 . S
C1113 C1109 1.495 . S
C1113 H1119 0.959 . S
C1113 H1120 0.961 . S
C1113 H1121 0.960 . S
C1114 C1112 1.381 . S
C1114 C1115 1.394 . S
C1114 H1122 0.930 . S
C1115 C1114 1.394 . S
C1115 C1116 1.383 . S
C1115 H1123 0.929 . S
C1116 C1115 1.383 . S
C1116 C1117 1.377 . S
C1117 H1101 0.930 . S
C1117 C1116 1.377 . S
C1117 C1118 1.379 . S
C1118 H1102 0.931 . S
C1118 C1112 1.383 . S
C1118 C1117 1.379 . S
H1119 C1113 0.959 . S
H1120 C1113 0.961 . S
H1121 C1113 0.960 . S
H1122 C1114 0.930 . S
H1123 C1115 0.929 . S
H1124 C1132 0.929 . S
H1125 C1134 0.930 . S
H1126 C1136 0.930 . S
H1127 C1139 0.929 . S
H1128 C1142 0.930 . S
H1129 C1144 0.960 . S
H1130 C1144 0.960 . S
H1131 C1144 0.960 . S
C1132 H1124 0.929 . S
C1132 C1133 1.377 . S
C1132 C1134 1.384 . S
C1133 C1132 1.377 . S
C1133 C1139 1.390 . S
C1134 H1125 0.930 . S
C1134 C1132 1.384 . S
C1134 C1135 1.372 . S
C1135 C1134 1.372 . S
C1135 C1136 1.400 . S
C1135 C1140 1.490 . S
C1136 H1126 0.930 . S
C1136 C1135 1.400 . S
C1136 C1139 1.386 . S
H1137 C1153 0.930 . S
H1138 C1154 0.931 . S
C1139 H1127 0.929 . S
C1139 C1133 1.390 . S
C1139 C1136 1.386 . S
C1140 C1135 1.490 . S
C1140 C1142 1.395 . S
C1140 C1143 1.403 . S
H1141 C1147 0.930 . S
C1142 H1128 0.930 . S
C1142 C1140 1.395 . S
C1142 C1145 1.403 . S
C1143 C1140 1.403 . S
C1143 C1144 1.524 . S
C1143 C1147 1.400 . S
C1144 H1129 0.960 . S
C1144 H1130 0.960 . S
C1144 H1131 0.960 . S
C1144 C1143 1.524 . S
C1145 C1142 1.403 . S
C1145 C1146 1.392 . S
C1145 C1149 1.495 . S
C1146 C1145 1.392 . S
C1146 C1147 1.385 . S
C1146 C1148 1.478 . S
C1147 H1141 0.930 . S
C1147 C1143 1.400 . S
C1147 C1146 1.385 . S
C1148 C1146 1.478 . S
C1148 C1150 1.381 . S
C1148 C1154 1.383 . S
C1149 C1145 1.495 . S
C1149 H1155 0.959 . S
C1149 H1156 0.961 . S
C1149 H1157 0.960 . S
C1150 C1148 1.381 . S
C1150 C1151 1.394 . S
C1150 H1158 0.930 . S
C1151 C1150 1.394 . S
C1151 C1152 1.383 . S
C1151 H1159 0.929 . S
C1152 C1151 1.383 . S
C1152 C1153 1.377 . S
C1153 H1137 0.930 . S
C1153 C1152 1.377 . S
C1153 C1154 1.379 . S
C1154 H1138 0.931 . S
C1154 C1148 1.383 . S
C1154 C1153 1.379 . S
H1155 C1149 0.959 . S
H1156 C1149 0.961 . S
H1157 C1149 0.960 . S
H1158 C1150 0.930 . S
H1159 C1151 0.929 . S
H1160 C1168 0.929 . S
H1161 C1170 0.930 . S
H1162 C1172 0.930 . S
H1163 C1175 0.929 . S
H1164 C1178 0.930 . S
H1165 C1180 0.960 . S
H1166 C1180 0.960 . S
H1167 C1180 0.960 . S
C1168 H1160 0.929 . S
C1168 C1169 1.377 . S
C1168 C1170 1.384 . S
C1169 C1168 1.377 . S
C1169 C1175 1.390 . S
C1170 H1161 0.930 . S
C1170 C1168 1.384 . S
C1170 C1171 1.372 . S
C1171 C1170 1.372 . S
C1171 C1172 1.400 . S
C1171 C1176 1.490 . S
C1172 H1162 0.930 . S
C1172 C1171 1.400 . S
C1172 C1175 1.386 . S
H1173 C1189 0.930 . S
H1174 C1190 0.931 . S
C1175 H1163 0.929 . S
C1175 C1169 1.390 . S
C1175 C1172 1.386 . S
C1176 C1171 1.490 . S
C1176 C1178 1.395 . S
C1176 C1179 1.403 . S
H1177 C1183 0.930 . S
C1178 H1164 0.930 . S
C1178 C1176 1.395 . S
C1178 C1181 1.403 . S
C1179 C1176 1.403 . S
C1179 C1180 1.524 . S
C1179 C1183 1.400 . S
C1180 H1165 0.960 . S
C1180 H1166 0.960 . S
C1180 H1167 0.960 . S
C1180 C1179 1.524 . S
C1181 C1178 1.403 . S
C1181 C1182 1.392 . S
C1181 C1185 1.495 . S
C1182 C1181 1.392 . S
C1182 C1183 1.385 . S
C1182 C1184 1.478 . S
C1183 H1177 0.930 . S
C1183 C1179 1.400 . S
C1183 C1182 1.385 . S
C1184 C1182 1.478 . S
C1184 C1186 1.381 . S
C1184 C1190 1.383 . S
C1185 C1181 1.495 . S
C1185 H1191 0.959 . S
C1185 H1192 0.961 . S
C1185 H1193 0.960 . S
C1186 C1184 1.381 . S
C1186 C1187 1.394 . S
C1186 H1194 0.930 . S
C1187 C1186 1.394 . S
C1187 C1188 1.383 . S
C1187 H1195 0.929 . S
C1188 C1187 1.383 . S
C1188 C1189 1.377 . S
C1189 H1173 0.930 . S
C1189 C1188 1.377 . S
C1189 C1190 1.379 . S
C1190 H1174 0.931 . S
C1190 C1184 1.383 . S
C1190 C1189 1.379 . S
H1191 C1185 0.959 . S
H1192 C1185 0.961 . S
H1193 C1185 0.960 . S
H1194 C1186 0.930 . S
H1195 C1187 0.929 . S
H1196 C1204 0.929 . S
H1197 C1206 0.930 . S
H1198 C1208 0.930 . S
H1199 C1211 0.929 . S
H1200 C1214 0.930 . S
H1201 C1216 0.960 . S
H1202 C1216 0.960 . S
H1203 C1216 0.960 . S
C1204 H1196 0.929 . S
C1204 C1205 1.377 . S
C1204 C1206 1.384 . S
C1205 C1204 1.377 . S
C1205 C1211 1.390 . S
C1206 H1197 0.930 . S
C1206 C1204 1.384 . S
C1206 C1207 1.372 . S
C1207 C1206 1.372 . S
C1207 C1208 1.400 . S
C1207 C1212 1.490 . S
C1208 H1198 0.930 . S
C1208 C1207 1.400 . S
C1208 C1211 1.386 . S
H1209 C1225 0.930 . S
H1210 C1226 0.931 . S
C1211 H1199 0.929 . S
C1211 C1205 1.390 . S
C1211 C1208 1.386 . S
C1212 C1207 1.490 . S
C1212 C1214 1.395 . S
C1212 C1215 1.403 . S
H1213 C1219 0.930 . S
C1214 H1200 0.930 . S
C1214 C1212 1.395 . S
C1214 C1217 1.403 . S
C1215 C1212 1.403 . S
C1215 C1216 1.524 . S
C1215 C1219 1.400 . S
C1216 H1201 0.960 . S
C1216 H1202 0.960 . S
C1216 H1203 0.960 . S
C1216 C1215 1.524 . S
C1217 C1214 1.403 . S
C1217 C1218 1.392 . S
C1217 C1221 1.495 . S
C1218 C1217 1.392 . S
C1218 C1219 1.385 . S
C1218 C1220 1.478 . S
C1219 H1213 0.930 . S
C1219 C1215 1.400 . S
C1219 C1218 1.385 . S
C1220 C1218 1.478 . S
C1220 C1222 1.381 . S
C1220 C1226 1.383 . S
C1221 C1217 1.495 . S
C1221 H1227 0.959 . S
C1221 H1228 0.961 . S
C1221 H1229 0.960 . S
C1222 C1220 1.381 . S
C1222 C1223 1.394 . S
C1222 H1230 0.930 . S
C1223 C1222 1.394 . S
C1223 C1224 1.383 . S
C1223 H1231 0.929 . S
C1224 C1223 1.383 . S
C1224 C1225 1.377 . S
C1225 H1209 0.930 . S
C1225 C1224 1.377 . S
C1225 C1226 1.379 . S
C1226 H1210 0.931 . S
C1226 C1220 1.383 . S
C1226 C1225 1.379 . S
H1227 C1221 0.959 . S
H1228 C1221 0.961 . S
H1229 C1221 0.960 . S
H1230 C1222 0.930 . S
H1231 C1223 0.929 . S
H1232 C1240 0.929 . S
H1233 C1242 0.930 . S
H1234 C1244 0.930 . S
H1235 C1247 0.929 . S
H1236 C1250 0.930 . S
H1237 C1252 0.960 . S
H1238 C1252 0.960 . S
H1239 C1252 0.960 . S
C1240 H1232 0.929 . S
C1240 C1241 1.377 . S
C1240 C1242 1.384 . S
C1241 C1240 1.377 . S
C1241 C1247 1.390 . S
C1242 H1233 0.930 . S
C1242 C1240 1.384 . S
C1242 C1243 1.372 . S
C1243 C1242 1.372 . S
C1243 C1244 1.400 . S
C1243 C1248 1.490 . S
C1244 H1234 0.930 . S
C1244 C1243 1.400 . S
C1244 C1247 1.386 . S
H1245 C1261 0.930 . S
H1246 C1262 0.931 . S
C1247 H1235 0.929 . S
C1247 C1241 1.390 . S
C1247 C1244 1.386 . S
C1248 C1243 1.490 . S
C1248 C1250 1.395 . S
C1248 C1251 1.403 . S
H1249 C1255 0.930 . S
C1250 H1236 0.930 . S
C1250 C1248 1.395 . S
C1250 C1253 1.403 . S
C1251 C1248 1.403 . S
C1251 C1252 1.524 . S
C1251 C1255 1.400 . S
C1252 H1237 0.960 . S
C1252 H1238 0.960 . S
C1252 H1239 0.960 . S
C1252 C1251 1.524 . S
C1253 C1250 1.403 . S
C1253 C1254 1.392 . S
C1253 C1257 1.495 . S
C1254 C1253 1.392 . S
C1254 C1255 1.385 . S
C1254 C1256 1.478 . S
C1255 H1249 0.930 . S
C1255 C1251 1.400 . S
C1255 C1254 1.385 . S
C1256 C1254 1.478 . S
C1256 C1258 1.381 . S
C1256 C1262 1.383 . S
C1257 C1253 1.495 . S
C1257 H1263 0.959 . S
C1257 H1264 0.961 . S
C1257 H1265 0.960 . S
C1258 C1256 1.381 . S
C1258 C1259 1.394 . S
C1258 H1266 0.930 . S
C1259 C1258 1.394 . S
C1259 C1260 1.383 . S
C1259 H1267 0.929 . S
C1260 C1259 1.383 . S
C1260 C1261 1.377 . S
C1261 H1245 0.930 . S
C1261 C1260 1.377 . S
C1261 C1262 1.379 . S
C1262 H1246 0.931 . S
C1262 C1256 1.383 . S
C1262 C1261 1.379 . S
H1263 C1257 0.959 . S
H1264 C1257 0.961 . S
H1265 C1257 0.960 . S
H1266 C1258 0.930 . S
H1267 C1259 0.929 . S
H1268 C1276 0.929 . S
H1269 C1278 0.930 . S
H1270 C1280 0.930 . S
H1271 C1283 0.929 . S
H1272 C1286 0.930 . S
H1273 C1288 0.960 . S
H1274 C1288 0.960 . S
H1275 C1288 0.960 . S
C1276 H1268 0.929 . S
C1276 C1277 1.377 . S
C1276 C1278 1.384 . S
C1277 C1276 1.377 . S
C1277 C1283 1.390 . S
C1278 H1269 0.930 . S
C1278 C1276 1.384 . S
C1278 C1279 1.372 . S
C1279 C1278 1.372 . S
C1279 C1280 1.400 . S
C1279 C1284 1.490 . S
C1280 H1270 0.930 . S
C1280 C1279 1.400 . S
C1280 C1283 1.386 . S
H1281 C1297 0.930 . S
H1282 C1298 0.931 . S
C1283 H1271 0.929 . S
C1283 C1277 1.390 . S
C1283 C1280 1.386 . S
C1284 C1279 1.490 . S
C1284 C1286 1.395 . S
C1284 C1287 1.403 . S
H1285 C1291 0.930 . S
C1286 H1272 0.930 . S
C1286 C1284 1.395 . S
C1286 C1289 1.403 . S
C1287 C1284 1.403 . S
C1287 C1288 1.524 . S
C1287 C1291 1.400 . S
C1288 H1273 0.960 . S
C1288 H1274 0.960 . S
C1288 H1275 0.960 . S
C1288 C1287 1.524 . S
C1289 C1286 1.403 . S
C1289 C1290 1.392 . S
C1289 C1293 1.495 . S
C1290 C1289 1.392 . S
C1290 C1291 1.385 . S
C1290 C1292 1.478 . S
C1291 H1285 0.930 . S
C1291 C1287 1.400 . S
C1291 C1290 1.385 . S
C1292 C1290 1.478 . S
C1292 C1294 1.381 . S
C1292 C1298 1.383 . S
C1293 C1289 1.495 . S
C1293 H1299 0.959 . S
C1293 H1300 0.961 . S
C1293 H1301 0.960 . S
C1294 C1292 1.381 . S
C1294 C1295 1.394 . S
C1294 H1302 0.930 . S
C1295 C1294 1.394 . S
C1295 C1296 1.383 . S
C1295 H1303 0.929 . S
C1296 C1295 1.383 . S
C1296 C1297 1.377 . S
C1297 H1281 0.930 . S
C1297 C1296 1.377 . S
C1297 C1298 1.379 . S
C1298 H1282 0.931 . S
C1298 C1292 1.383 . S
C1298 C1297 1.379 . S
H1299 C1293 0.959 . S
H1300 C1293 0.961 . S
H1301 C1293 0.960 . S
H1302 C1294 0.930 . S
H1303 C1295 0.929 . S
H1304 C1312 0.929 . S
H1305 C1314 0.930 . S
H1306 C1316 0.930 . S
H1307 C1319 0.929 . S
H1308 C1322 0.930 . S
H1309 C1324 0.960 . S
H1310 C1324 0.960 . S
H1311 C1324 0.960 . S
C1312 H1304 0.929 . S
C1312 C1313 1.377 . S
C1312 C1314 1.384 . S
C1313 C1312 1.377 . S
C1313 C1319 1.390 . S
C1314 H1305 0.930 . S
C1314 C1312 1.384 . S
C1314 C1315 1.372 . S
C1315 C1314 1.372 . S
C1315 C1316 1.400 . S
C1315 C1320 1.490 . S
C1316 H1306 0.930 . S
C1316 C1315 1.400 . S
C1316 C1319 1.386 . S
H1317 C1333 0.930 . S
H1318 C1334 0.931 . S
C1319 H1307 0.929 . S
C1319 C1313 1.390 . S
C1319 C1316 1.386 . S
C1320 C1315 1.490 . S
C1320 C1322 1.395 . S
C1320 C1323 1.403 . S
H1321 C1327 0.930 . S
C1322 H1308 0.930 . S
C1322 C1320 1.395 . S
C1322 C1325 1.403 . S
C1323 C1320 1.403 . S
C1323 C1324 1.524 . S
C1323 C1327 1.400 . S
C1324 H1309 0.960 . S
C1324 H1310 0.960 . S
C1324 H1311 0.960 . S
C1324 C1323 1.524 . S
C1325 C1322 1.403 . S
C1325 C1326 1.392 . S
C1325 C1329 1.495 . S
C1326 C1325 1.392 . S
C1326 C1327 1.385 . S
C1326 C1328 1.478 . S
C1327 H1321 0.930 . S
C1327 C1323 1.400 . S
C1327 C1326 1.385 . S
C1328 C1326 1.478 . S
C1328 C1330 1.381 . S
C1328 C1334 1.383 . S
C1329 C1325 1.495 . S
C1329 H1335 0.959 . S
C1329 H1336 0.961 . S
C1329 H1337 0.960 . S
C1330 C1328 1.381 . S
C1330 C1331 1.394 . S
C1330 H1338 0.930 . S
C1331 C1330 1.394 . S
C1331 C1332 1.383 . S
C1331 H1339 0.929 . S
C1332 C1331 1.383 . S
C1332 C1333 1.377 . S
C1333 H1317 0.930 . S
C1333 C1332 1.377 . S
C1333 C1334 1.379 . S
C1334 H1318 0.931 . S
C1334 C1328 1.383 . S
C1334 C1333 1.379 . S
H1335 C1329 0.959 . S
H1336 C1329 0.961 . S
H1337 C1329 0.960 . S
H1338 C1330 0.930 . S
H1339 C1331 0.929 . S
H1340 C1348 0.929 . S
H1341 C1350 0.930 . S
H1342 C1352 0.930 . S
H1343 C1355 0.929 . S
H1344 C1358 0.930 . S
H1345 C1360 0.960 . S
H1346 C1360 0.960 . S
H1347 C1360 0.960 . S
C1348 H1340 0.929 . S
C1348 C1349 1.377 . S
C1348 C1350 1.384 . S
C1349 C1348 1.377 . S
C1349 C1355 1.390 . S
C1350 H1341 0.930 . S
C1350 C1348 1.384 . S
C1350 C1351 1.372 . S
C1351 C1350 1.372 . S
C1351 C1352 1.400 . S
C1351 C1356 1.490 . S
C1352 H1342 0.930 . S
C1352 C1351 1.400 . S
C1352 C1355 1.386 . S
H1353 C1369 0.930 . S
H1354 C1370 0.931 . S
C1355 H1343 0.929 . S
C1355 C1349 1.390 . S
C1355 C1352 1.386 . S
C1356 C1351 1.490 . S
C1356 C1358 1.395 . S
C1356 C1359 1.403 . S
H1357 C1363 0.930 . S
C1358 H1344 0.930 . S
C1358 C1356 1.395 . S
C1358 C1361 1.403 . S
C1359 C1356 1.403 . S
C1359 C1360 1.524 . S
C1359 C1363 1.400 . S
C1360 H1345 0.960 . S
C1360 H1346 0.960 . S
C1360 H1347 0.960 . S
C1360 C1359 1.524 . S
C1361 C1358 1.403 . S
C1361 C1362 1.392 . S
C1361 C1365 1.495 . S
C1362 C1361 1.392 . S
C1362 C1363 1.385 . S
C1362 C1364 1.478 . S
C1363 H1357 0.930 . S
C1363 C1359 1.400 . S
C1363 C1362 1.385 . S
C1364 C1362 1.478 . S
C1364 C1366 1.381 . S
C1364 C1370 1.383 . S
C1365 C1361 1.495 . S
C1365 H1371 0.959 . S
C1365 H1372 0.961 . S
C1365 H1373 0.960 . S
C1366 C1364 1.381 . S
C1366 C1367 1.394 . S
C1366 H1374 0.930 . S
C1367 C1366 1.394 . S
C1367 C1368 1.383 . S
C1367 H1375 0.929 . S
C1368 C1367 1.383 . S
C1368 C1369 1.377 . S
C1369 H1353 0.930 . S
C1369 C1368 1.377 . S
C1369 C1370 1.379 . S
C1370 H1354 0.931 . S
C1370 C1364 1.383 . S
C1370 C1369 1.379 . S
H1371 C1365 0.959 . S
H1372 C1365 0.961 . S
H1373 C1365 0.960 . S
H1374 C1366 0.930 . S
H1375 C1367 0.929 . S
C233 C13 1.338 . S
C252 C179 1.424 . S
C269 C193 1.418 . S
C288 C27 1.316 . S
C305 C41 1.326 . S
C324 C207 1.412 . S
C341 C221 1.419 . S
C360 C55 1.366 . S
C377 C125 1.325 . S
C396 C67 1.405 . S
C413 C81 1.418 . S
C432 C139 1.315 . S
C449 C153 1.339 . S
C468 C95 1.422 . S
C485 C109 1.416 . S
C504 C167 1.312 . S
C521 C8 1.338 . S
C540 C36 1.330 . S
C557 C22 1.345 . S
C576 C50 1.331 . S
C593 C64 1.497 . S
C612 C92 1.481 . S
C629 C78 1.502 . S
C648 C106 1.505 . S
C665 C148 1.343 . S
C684 C120 1.359 . S
C701 C134 1.341 . S
C720 C162 1.351 . S
C737 C204 1.502 . S
C756 C176 1.509 . S
C773 C190 1.496 . S
C792 C218 1.488 . S
C809 C91 1.492 . S
C828 C7 1.499 . S
C845 C105 1.496 . S
C864 C21 1.501 . S
C881 C35 1.494 . S
C900 C63 1.504 . S
C917 C49 1.492 . S
C936 C77 1.498 . S
C953 C203 1.493 . S
C972 C119 1.482 . S
C989 C133 1.496 . S
C1008 C217 1.482 . S
C1025 C175 1.497 . S
C1044 C147 1.494 . S
C1061 C161 1.497 . S
C1080 C189 1.494 . S
C1097 C11 1.276 . S
C1116 C53 1.268 . S
C1133 C39 1.276 . S
C1152 C25 1.267 . S
C1169 C69 1.457 . S
C1188 C111 1.477 . S
C1205 C83 1.458 . S
C1224 C97 1.482 . S
C1241 C165 1.281 . S
C1260 C123 1.285 . S
C1277 C137 1.280 . S
C1296 C151 1.287 . S
C1313 C223 1.456 . S
C1332 C181 1.469 . S
C1349 C195 1.447 . S
C1368 C209 1.433 . S
