# Generated by pormake.
# Topology tzs, (4)-cn, num edge types: 1
# Building blocks:
#     Node 0, Type 0, BuildingBlock: AZAVOO_clean_sbu_0, # of connection points: 4
#     Node 1, Type 0, BuildingBlock: AZAVOO_clean_sbu_0, # of connection points: 4
#     Node 2, Type 0, BuildingBlock: AZAVOO_clean_sbu_0, # of connection points: 4
#     Node 3, Type 0, BuildingBlock: AZAVOO_clean_sbu_0, # of connection points: 4
#     Node 4, Type 0, BuildingBlock: AZAVOO_clean_sbu_0, # of connection points: 4
#     Node 5, Type 0, BuildingBlock: AZAVOO_clean_sbu_0, # of connection points: 4
#     Node 6, Type 0, BuildingBlock: AZAVOO_clean_sbu_0, # of connection points: 4
#     Node 7, Type 0, BuildingBlock: AZAVOO_clean_sbu_0, # of connection points: 4
#     Node 8, Type 0, BuildingBlock: AZAVOO_clean_sbu_0, # of connection points: 4
#     Node 9, Type 0, BuildingBlock: AZAVOO_clean_sbu_0, # of connection points: 4
#     Node 10, Type 0, BuildingBlock: AZAVOO_clean_sbu_0, # of connection points: 4
#     Node 11, Type 0, BuildingBlock: AZAVOO_clean_sbu_0, # of connection points: 4
#     Node 12, Type 0, BuildingBlock: AZAVOO_clean_sbu_0, # of connection points: 4
#     Node 13, Type 0, BuildingBlock: AZAVOO_clean_sbu_0, # of connection points: 4
#     Node 14, Type 0, BuildingBlock: AZAVOO_clean_sbu_0, # of connection points: 4
#     Node 15, Type 0, BuildingBlock: AZAVOO_clean_sbu_0, # of connection points: 4
#     Edge 16, Type (0, 0), BuildingBlock: KIFKEQ_clean_linker_1, # of connection points: 2
#     Edge 17, Type (0, 0), BuildingBlock: KIFKEQ_clean_linker_1, # of connection points: 2
#     Edge 18, Type (0, 0), BuildingBlock: KIFKEQ_clean_linker_1, # of connection points: 2
#     Edge 19, Type (0, 0), BuildingBlock: KIFKEQ_clean_linker_1, # of connection points: 2
#     Edge 20, Type (0, 0), BuildingBlock: KIFKEQ_clean_linker_1, # of connection points: 2
#     Edge 21, Type (0, 0), BuildingBlock: KIFKEQ_clean_linker_1, # of connection points: 2
#     Edge 22, Type (0, 0), BuildingBlock: KIFKEQ_clean_linker_1, # of connection points: 2
#     Edge 23, Type (0, 0), BuildingBlock: KIFKEQ_clean_linker_1, # of connection points: 2
#     Edge 24, Type (0, 0), BuildingBlock: KIFKEQ_clean_linker_1, # of connection points: 2
#     Edge 25, Type (0, 0), BuildingBlock: KIFKEQ_clean_linker_1, # of connection points: 2
#     Edge 26, Type (0, 0), BuildingBlock: KIFKEQ_clean_linker_1, # of connection points: 2
#     Edge 27, Type (0, 0), BuildingBlock: KIFKEQ_clean_linker_1, # of connection points: 2
#     Edge 28, Type (0, 0), BuildingBlock: KIFKEQ_clean_linker_1, # of connection points: 2
#     Edge 29, Type (0, 0), BuildingBlock: KIFKEQ_clean_linker_1, # of connection points: 2
#     Edge 30, Type (0, 0), BuildingBlock: KIFKEQ_clean_linker_1, # of connection points: 2
#     Edge 31, Type (0, 0), BuildingBlock: KIFKEQ_clean_linker_1, # of connection points: 2
#     Edge 32, Type (0, 0), BuildingBlock: KIFKEQ_clean_linker_1, # of connection points: 2
#     Edge 33, Type (0, 0), BuildingBlock: KIFKEQ_clean_linker_1, # of connection points: 2
#     Edge 34, Type (0, 0), BuildingBlock: KIFKEQ_clean_linker_1, # of connection points: 2
#     Edge 35, Type (0, 0), BuildingBlock: KIFKEQ_clean_linker_1, # of connection points: 2
#     Edge 36, Type (0, 0), BuildingBlock: KIFKEQ_clean_linker_1, # of connection points: 2
#     Edge 37, Type (0, 0), BuildingBlock: KIFKEQ_clean_linker_1, # of connection points: 2
#     Edge 38, Type (0, 0), BuildingBlock: KIFKEQ_clean_linker_1, # of connection points: 2
#     Edge 39, Type (0, 0), BuildingBlock: KIFKEQ_clean_linker_1, # of connection points: 2
#     Edge 40, Type (0, 0), BuildingBlock: KIFKEQ_clean_linker_1, # of connection points: 2
#     Edge 41, Type (0, 0), BuildingBlock: KIFKEQ_clean_linker_1, # of connection points: 2
#     Edge 42, Type (0, 0), BuildingBlock: KIFKEQ_clean_linker_1, # of connection points: 2
#     Edge 43, Type (0, 0), BuildingBlock: KIFKEQ_clean_linker_1, # of connection points: 2
#     Edge 44, Type (0, 0), BuildingBlock: KIFKEQ_clean_linker_1, # of connection points: 2
#     Edge 45, Type (0, 0), BuildingBlock: KIFKEQ_clean_linker_1, # of connection points: 2
#     Edge 46, Type (0, 0), BuildingBlock: KIFKEQ_clean_linker_1, # of connection points: 2
#     Edge 47, Type (0, 0), BuildingBlock: KIFKEQ_clean_linker_1, # of connection points: 2
# Relax obj value: 0.109
# Max RMSD: 0.118
# Mean RMSD: 0.118
data_MOF--net-tzs--node1-AZAVOO_clean_sbu_0--edge1-KIFKEQ_clean_linker_1
_symmetry_space_group_name_H-M    P1
_symmetry_Int_Tables_number       1
_symmetry_cell_setting            triclinic
loop_
_symmetry_equiv_pos_as_xyz
'x, y, z'
_cell_length_a     47.968547
_cell_length_b     48.121254
_cell_length_c     43.079099
_cell_angle_alpha  89.933876
_cell_angle_beta   90.021212
_cell_angle_gamma 90.006936
loop_
_atom_site_label
_atom_site_type_symbol
_atom_site_fract_x
_atom_site_fract_y
_atom_site_fract_z
_atom_type_partial_charge
Mg0 Mg 0.15749 0.36386 0.14469 0.0
O1 O 0.11346 0.35623 0.16424 0.0
O2 O 0.09544 0.32006 0.13868 0.0
Mg3 Mg 0.12814 0.30424 0.10418 0.0
C4 C 0.09355 0.33922 0.15905 0.0
C5 C 0.17741 0.4169 0.17087 0.0
O6 O 0.18311 0.41722 0.14105 0.0
O7 O 0.17406 0.32708 0.17179 0.0
O8 O 0.15727 0.29115 0.14469 0.0
O9 O 0.14084 0.39112 0.10786 0.0
O10 O 0.14713 0.34591 0.10217 0.0
C11 C 0.17194 0.30099 0.16695 0.0
C12 C 0.13924 0.36932 0.09045 0.0
O13 O 0.16694 0.39504 0.18269 0.0
Mg14 Mg 0.65062 0.14896 0.14603 0.0
O15 O 0.65879 0.10662 0.16932 0.0
O16 O 0.69939 0.09101 0.1507 0.0
Mg17 Mg 0.71516 0.12143 0.11385 0.0
C18 C 0.67824 0.08853 0.16844 0.0
C19 C 0.59343 0.16462 0.16669 0.0
O20 O 0.59296 0.16524 0.13622 0.0
O21 O 0.68449 0.16991 0.17481 0.0
O22 O 0.72335 0.15324 0.15272 0.0
O23 O 0.62771 0.12809 0.10816 0.0
O24 O 0.67269 0.13786 0.10633 0.0
C25 C 0.71102 0.16865 0.17257 0.0
C26 C 0.65092 0.12768 0.09292 0.0
O27 O 0.61616 0.15882 0.18047 0.0
Mg28 Mg 0.85177 0.64314 0.14818 0.0
O29 O 0.89504 0.65167 0.16943 0.0
O30 O 0.91358 0.68699 0.14272 0.0
Mg31 Mg 0.88216 0.70127 0.10595 0.0
C32 C 0.91497 0.66867 0.16414 0.0
C33 C 0.82851 0.59244 0.17526 0.0
O34 O 0.82268 0.5926 0.14545 0.0
O35 O 0.83406 0.68077 0.17241 0.0
O36 O 0.85139 0.71581 0.14423 0.0
O37 O 0.8698 0.61433 0.11387 0.0
O38 O 0.86389 0.65929 0.10544 0.0
C39 C 0.83603 0.70665 0.16628 0.0
C40 C 0.87227 0.63543 0.09547 0.0
O41 O 0.84049 0.61353 0.187 0.0
Mg42 Mg 0.35776 0.85788 0.146 0.0
O43 O 0.35 0.90053 0.16854 0.0
O44 O 0.31094 0.91726 0.14706 0.0
Mg45 Mg 0.29669 0.88775 0.10847 0.0
C46 C 0.33111 0.91913 0.16628 0.0
C47 C 0.41136 0.83681 0.16953 0.0
O48 O 0.41112 0.8332 0.13931 0.0
O49 O 0.32127 0.83872 0.17217 0.0
O50 O 0.28476 0.85534 0.1457 0.0
O51 O 0.38448 0.87738 0.11058 0.0
O52 O 0.33922 0.87068 0.10465 0.0
C53 C 0.29506 0.83992 0.16702 0.0
C54 C 0.36246 0.87983 0.09351 0.0
O55 O 0.38965 0.84633 0.18269 0.0
Mg56 Mg 0.15173 0.65146 0.31401 0.0
O57 O 0.10827 0.65847 0.29291 0.0
O58 O 0.08994 0.69596 0.31561 0.0
Mg59 Mg 0.12233 0.71364 0.3494 0.0
C60 C 0.08832 0.67574 0.29652 0.0
C61 C 0.16851 0.59539 0.29159 0.0
O62 O 0.17068 0.5947 0.32196 0.0
O63 O 0.16963 0.68644 0.28465 0.0
O64 O 0.15223 0.72375 0.30879 0.0
O65 O 0.13335 0.62718 0.35272 0.0
O66 O 0.14133 0.67232 0.35479 0.0
C67 C 0.16742 0.71276 0.28769 0.0
C68 C 0.13249 0.6501 0.36829 0.0
O69 O 0.16135 0.61797 0.27844 0.0
Mg70 Mg 0.36011 0.1564 0.3114 0.0
O71 O 0.35186 0.11253 0.2922 0.0
O72 O 0.31282 0.09744 0.31513 0.0
Mg73 Mg 0.29917 0.12926 0.35162 0.0
C74 C 0.33282 0.09426 0.29592 0.0
C75 C 0.41337 0.17602 0.28528 0.0
O76 O 0.41344 0.182 0.31502 0.0
O77 O 0.3235 0.17395 0.2842 0.0
O78 O 0.28694 0.15931 0.312 0.0
O79 O 0.38713 0.13917 0.34796 0.0
O80 O 0.3419 0.14623 0.3538 0.0
C81 C 0.2973 0.17323 0.28947 0.0
C82 C 0.36524 0.13776 0.36538 0.0
O83 O 0.39155 0.16539 0.27343 0.0
Mg84 Mg 0.8589 0.3574 0.31412 0.0
O85 O 0.90102 0.34985 0.28977 0.0
O86 O 0.92009 0.31231 0.31171 0.0
Mg87 Mg 0.88921 0.29467 0.34706 0.0
C88 C 0.92099 0.33244 0.29242 0.0
C89 C 0.84022 0.41313 0.29344 0.0
O90 O 0.83938 0.41324 0.32391 0.0
O91 O 0.83831 0.32299 0.28659 0.0
O92 O 0.85729 0.28503 0.30813 0.0
O93 O 0.88001 0.38134 0.35104 0.0
O94 O 0.87124 0.33634 0.35411 0.0
C95 C 0.84077 0.29665 0.28875 0.0
C96 C 0.88122 0.35848 0.36677 0.0
O97 O 0.84736 0.39099 0.27946 0.0
Mg98 Mg 0.64764 0.85077 0.31142 0.0
O99 O 0.65617 0.89515 0.29391 0.0
O100 O 0.6958 0.90893 0.31653 0.0
Mg101 Mg 0.70995 0.87547 0.35098 0.0
C102 C 0.67548 0.91305 0.29794 0.0
C103 C 0.5927 0.83438 0.28666 0.0
O104 O 0.59268 0.8288 0.31651 0.0
O105 O 0.68324 0.8337 0.28212 0.0
O106 O 0.72054 0.8472 0.30947 0.0
O107 O 0.62235 0.86725 0.35007 0.0
O108 O 0.66742 0.85827 0.35358 0.0
C109 C 0.70958 0.83422 0.28662 0.0
C110 C 0.64478 0.86671 0.36669 0.0
O111 O 0.61483 0.8438 0.27426 0.0
Mg112 Mg 0.8679 0.65407 0.81431 0.0
O113 O 0.85953 0.61118 0.79214 0.0
O114 O 0.8222 0.59381 0.81636 0.0
Mg115 Mg 0.80811 0.62401 0.8541 0.0
C116 C 0.84136 0.59201 0.79589 0.0
C117 C 0.91765 0.68071 0.78866 0.0
O118 O 0.91492 0.68854 0.81772 0.0
O119 O 0.83078 0.67303 0.7896 0.0
O120 O 0.79469 0.65532 0.8161 0.0
O121 O 0.89583 0.63549 0.84915 0.0
O122 O 0.85055 0.64157 0.85616 0.0
C123 C 0.80468 0.67098 0.79483 0.0
C124 C 0.87418 0.63299 0.86683 0.0
O125 O 0.89861 0.66575 0.77672 0.0
Mg126 Mg 0.35156 0.8641 0.81036 0.0
O127 O 0.39691 0.8572 0.79459 0.0
O128 O 0.41275 0.82171 0.82312 0.0
Mg129 Mg 0.37985 0.80916 0.85921 0.0
C130 C 0.41604 0.83981 0.80169 0.0
C131 C 0.32337 0.90908 0.77816 0.0
O132 O 0.31188 0.90557 0.80559 0.0
O133 O 0.33838 0.82437 0.78609 0.0
O134 O 0.35183 0.7918 0.82009 0.0
O135 O 0.36409 0.89543 0.84518 0.0
O136 O 0.36082 0.85043 0.85478 0.0
C137 C 0.33927 0.79911 0.79518 0.0
C138 C 0.36643 0.87509 0.86464 0.0
O139 O 0.3418 0.89181 0.7694 0.0
Mg140 Mg 0.15038 0.35256 0.80628 0.0
O141 O 0.15765 0.39676 0.78729 0.0
O142 O 0.195 0.41323 0.81224 0.0
Mg143 Mg 0.20936 0.38142 0.84846 0.0
C144 C 0.17567 0.41587 0.79204 0.0
C145 C 0.10142 0.32616 0.77882 0.0
O146 O 0.10476 0.31642 0.8071 0.0
O147 O 0.18802 0.33658 0.78001 0.0
O148 O 0.2235 0.35207 0.80893 0.0
O149 O 0.12187 0.36807 0.84238 0.0
O150 O 0.1673 0.36301 0.84908 0.0
C151 C 0.21406 0.33802 0.78603 0.0
C152 C 0.14341 0.3702 0.86029 0.0
O153 O 0.11989 0.34241 0.76792 0.0
Mg154 Mg 0.65784 0.14733 0.80862 0.0
O155 O 0.61376 0.1537 0.78898 0.0
O156 O 0.59467 0.1894 0.81427 0.0
Mg157 Mg 0.62699 0.20618 0.84879 0.0
C158 C 0.59335 0.17012 0.79399 0.0
C159 C 0.67949 0.09502 0.78333 0.0
O160 O 0.68578 0.09585 0.813 0.0
O161 O 0.67385 0.18439 0.78147 0.0
O162 O 0.6561 0.21983 0.80865 0.0
O163 O 0.64148 0.12006 0.84573 0.0
O164 O 0.64763 0.16532 0.85104 0.0
C165 C 0.67116 0.21042 0.78649 0.0
C166 C 0.64015 0.14193 0.86307 0.0
O167 O 0.66787 0.11606 0.771 0.0
Mg168 Mg 0.86391 0.3546 0.6512 0.0
O169 O 0.857 0.39911 0.66908 0.0
O170 O 0.81958 0.41544 0.64421 0.0
Mg171 Mg 0.80434 0.38274 0.60948 0.0
C172 C 0.83921 0.41834 0.66398 0.0
C173 C 0.9135 0.32894 0.67779 0.0
O174 O 0.90964 0.31911 0.64966 0.0
O175 O 0.82669 0.33881 0.67868 0.0
O176 O 0.79096 0.35419 0.65 0.0
O177 O 0.89142 0.36985 0.61374 0.0
O178 O 0.84599 0.36361 0.6086 0.0
C179 C 0.80059 0.34034 0.673 0.0
C180 C 0.86944 0.37085 0.59638 0.0
O181 O 0.89525 0.34526 0.68899 0.0
Mg182 Mg 0.6531 0.85592 0.65078 0.0
O183 O 0.61029 0.84829 0.67349 0.0
O184 O 0.59371 0.80873 0.65381 0.0
Mg185 Mg 0.62523 0.79175 0.61881 0.0
C186 C 0.59137 0.82967 0.67178 0.0
C187 C 0.66962 0.91264 0.6706 0.0
O188 O 0.67124 0.91226 0.64018 0.0
O189 O 0.67339 0.8224 0.68023 0.0
O190 O 0.6564 0.78354 0.65871 0.0
O191 O 0.63286 0.87864 0.61244 0.0
O192 O 0.64248 0.83374 0.61093 0.0
C193 C 0.67181 0.79596 0.67855 0.0
C194 C 0.63259 0.85548 0.59726 0.0
O195 O 0.66282 0.89052 0.6849 0.0
Mg196 Mg 0.15214 0.65631 0.65394 0.0
O197 O 0.15885 0.61126 0.66993 0.0
O198 O 0.19608 0.5956 0.6442 0.0
Mg199 Mg 0.21065 0.62904 0.60973 0.0
C200 C 0.17664 0.59221 0.66413 0.0
C201 C 0.10339 0.6817 0.68303 0.0
O202 O 0.10665 0.69265 0.6553 0.0
O203 O 0.19009 0.67034 0.6815 0.0
O204 O 0.22492 0.65677 0.65043 0.0
O205 O 0.12375 0.6427 0.6163 0.0
O206 O 0.16918 0.64832 0.6107 0.0
C207 C 0.21597 0.66944 0.67454 0.0
C208 C 0.14551 0.64176 0.59861 0.0
O209 O 0.12167 0.66468 0.69282 0.0
Mg210 Mg 0.35374 0.14425 0.64977 0.0
O211 O 0.39816 0.14993 0.66924 0.0
O212 O 0.41712 0.18551 0.64336 0.0
Mg213 Mg 0.38526 0.20223 0.60836 0.0
C214 C 0.41852 0.16639 0.66388 0.0
C215 C 0.32608 0.09556 0.6758 0.0
O216 O 0.31712 0.09936 0.64727 0.0
O217 O 0.33897 0.18188 0.67647 0.0
O218 O 0.35653 0.21693 0.64845 0.0
O219 O 0.36846 0.11583 0.61315 0.0
O220 O 0.36476 0.16132 0.60717 0.0
C221 C 0.34175 0.20782 0.67103 0.0
C222 C 0.3711 0.13744 0.59553 0.0
O223 O 0.34234 0.1136 0.68751 0.0
H224 H 0.24038 0.17014 0.28563 0.0
H225 H 0.31136 0.21509 0.24943 0.0
H226 H 0.20911 0.20049 0.25633 0.0
H227 H 0.28001 0.24537 0.22032 0.0
H228 H 0.21442 0.31387 0.2067 0.0
H229 H 0.24421 0.28192 0.23549 0.0
H230 H 0.19732 0.21235 0.19986 0.0
H231 H 0.16741 0.24427 0.17082 0.0
C232 C 0.24933 0.18636 0.27131 0.0
C233 C 0.27839 0.19024 0.26997 0.0
C234 C 0.23141 0.20365 0.25447 0.0
C235 C 0.24215 0.22539 0.23628 0.0
C236 C 0.27117 0.22897 0.23448 0.0
C237 C 0.28911 0.21149 0.25098 0.0
C238 C 0.21025 0.29179 0.20514 0.0
C239 C 0.18854 0.28164 0.18635 0.0
C240 C 0.22748 0.2735 0.22145 0.0
C241 C 0.22321 0.24468 0.21967 0.0
C242 C 0.20102 0.2345 0.20168 0.0
C243 C 0.18397 0.25278 0.18501 0.0
H244 H 0.85353 0.24852 0.25877 0.0
H245 H 0.78567 0.30455 0.27826 0.0
H246 H 0.8219 0.2181 0.23056 0.0
H247 H 0.7533 0.27318 0.25281 0.0
H248 H 0.70381 0.22377 0.18267 0.0
H249 H 0.73555 0.25539 0.20884 0.0
H250 H 0.78815 0.18566 0.23391 0.0
H251 H 0.7575 0.15479 0.20501 0.0
C252 C 0.83171 0.25414 0.25711 0.0
C253 C 0.82201 0.27889 0.27036 0.0
C254 C 0.81337 0.23654 0.24132 0.0
C255 C 0.78467 0.24277 0.23943 0.0
C256 C 0.77517 0.26771 0.25292 0.0
C257 C 0.7937 0.28574 0.26774 0.0
C258 C 0.72212 0.21535 0.19404 0.0
C259 C 0.7283 0.18697 0.19195 0.0
C260 C 0.74037 0.23344 0.20925 0.0
C261 C 0.76481 0.22338 0.22362 0.0
C262 C 0.77019 0.19458 0.22244 0.0
C263 C 0.75242 0.1767 0.20628 0.0
H264 H 0.8396 0.76355 0.16751 0.0
H265 H 0.79252 0.69455 0.20484 0.0
H266 H 0.80883 0.79597 0.19463 0.0
H267 H 0.76191 0.72694 0.23168 0.0
H268 H 0.69491 0.79305 0.24598 0.0
H269 H 0.726 0.76322 0.21596 0.0
H270 H 0.79715 0.80845 0.25076 0.0
H271 H 0.76619 0.83831 0.28086 0.0
C272 C 0.8228 0.75529 0.18155 0.0
C273 C 0.81855 0.72644 0.184 0.0
C274 C 0.80524 0.77385 0.19708 0.0
C275 C 0.78287 0.76394 0.21499 0.0
C276 C 0.77876 0.73515 0.21765 0.0
C277 C 0.79648 0.71661 0.20249 0.0
C278 C 0.71714 0.79687 0.24697 0.0
C279 C 0.72807 0.81795 0.26598 0.0
C280 C 0.73493 0.77966 0.22995 0.0
C281 C 0.76396 0.78341 0.23127 0.0
C282 C 0.77484 0.80517 0.24925 0.0
C283 C 0.7571 0.82217 0.26657 0.0
H284 H 0.23811 0.84228 0.16931 0.0
H285 H 0.30865 0.79677 0.20574 0.0
H286 H 0.20652 0.81131 0.19706 0.0
H287 H 0.27691 0.76589 0.23356 0.0
H288 H 0.21074 0.69836 0.2495 0.0
H289 H 0.24126 0.7294 0.22026 0.0
H290 H 0.19367 0.80004 0.2519 0.0
H291 H 0.16305 0.76914 0.28105 0.0
C292 C 0.24691 0.82576 0.18333 0.0
C293 C 0.27596 0.82202 0.18527 0.0
C294 C 0.22878 0.80809 0.19929 0.0
C295 C 0.23924 0.78611 0.21733 0.0
C296 C 0.26825 0.78245 0.2195 0.0
C297 C 0.28642 0.8003 0.20377 0.0
C298 C 0.20658 0.72047 0.24999 0.0
C299 C 0.18446 0.73124 0.26771 0.0
C300 C 0.22423 0.73826 0.23345 0.0
C301 C 0.21996 0.76714 0.23399 0.0
C302 C 0.19738 0.77785 0.25093 0.0
C303 C 0.1799 0.76012 0.2677 0.0
H304 H 0.65887 0.74881 0.71043 0.0
H305 H 0.72663 0.80461 0.68965 0.0
H306 H 0.69039 0.7193 0.74011 0.0
H307 H 0.7589 0.7741 0.71644 0.0
H308 H 0.80977 0.72625 0.78545 0.0
H309 H 0.77676 0.75734 0.76057 0.0
H310 H 0.72416 0.68684 0.73835 0.0
H311 H 0.75621 0.65647 0.76621 0.0
C312 C 0.68064 0.7546 0.71219 0.0
C313 C 0.69036 0.77901 0.69812 0.0
C314 C 0.69891 0.73751 0.72883 0.0
C315 C 0.72757 0.7439 0.73073 0.0
C316 C 0.73706 0.76854 0.71644 0.0
C317 C 0.71858 0.78609 0.70082 0.0
C318 C 0.79109 0.71756 0.77513 0.0
C319 C 0.78547 0.68908 0.77752 0.0
C320 C 0.77214 0.73534 0.7606 0.0
C321 C 0.74751 0.72489 0.74704 0.0
C322 C 0.74235 0.69606 0.74904 0.0
C323 C 0.76088 0.67846 0.76463 0.0
H324 H 0.20917 0.68875 0.73389 0.0
H325 H 0.26827 0.68625 0.65819 0.0
H326 H 0.24122 0.71818 0.76342 0.0
H327 H 0.29995 0.71592 0.68761 0.0
H328 H 0.32317 0.80149 0.73436 0.0
H329 H 0.29507 0.76764 0.70592 0.0
H330 H 0.2918 0.71525 0.78721 0.0
H331 H 0.32027 0.74883 0.81566 0.0
C332 C 0.22904 0.69427 0.72366 0.0
C333 C 0.23613 0.68522 0.69367 0.0
C334 C 0.24739 0.711 0.74061 0.0
C335 C 0.27293 0.71935 0.72765 0.0
C336 C 0.28028 0.70988 0.69798 0.0
C337 C 0.26218 0.69279 0.68127 0.0
C338 C 0.31668 0.78264 0.74609 0.0
C339 C 0.32393 0.77784 0.77725 0.0
C340 C 0.30071 0.76325 0.72978 0.0
C341 C 0.29128 0.73893 0.74446 0.0
C342 C 0.29874 0.73394 0.77547 0.0
C343 C 0.31515 0.75307 0.79163 0.0
H344 H 0.2711 0.34162 0.7843 0.0
H345 H 0.20156 0.29607 0.74569 0.0
H346 H 0.30346 0.31093 0.75693 0.0
H347 H 0.23392 0.2655 0.71866 0.0
H348 H 0.29911 0.19637 0.71102 0.0
H349 H 0.26914 0.2293 0.73793 0.0
H350 H 0.31693 0.29754 0.70051 0.0
H351 H 0.34705 0.26459 0.67322 0.0
C352 C 0.26271 0.32524 0.76982 0.0
C353 C 0.23373 0.32124 0.76731 0.0
C354 C 0.28124 0.30776 0.75413 0.0
C355 C 0.27115 0.28571 0.736 0.0
C356 C 0.24224 0.28213 0.73285 0.0
C357 C 0.22372 0.29979 0.74816 0.0
C358 C 0.30349 0.21836 0.7087 0.0
C359 C 0.32544 0.22783 0.68981 0.0
C360 C 0.28616 0.2372 0.72394 0.0
C361 C 0.29056 0.26593 0.72099 0.0
C362 C 0.31312 0.27547 0.70315 0.0
C363 C 0.33029 0.2566 0.68751 0.0
H364 H 0.66606 0.26711 0.78364 0.0
H365 H 0.71469 0.19865 0.74775 0.0
H366 H 0.6969 0.29988 0.75716 0.0
H367 H 0.7454 0.23146 0.72149 0.0
H368 H 0.81299 0.29823 0.71339 0.0
H369 H 0.78044 0.26752 0.74014 0.0
H370 H 0.71117 0.31352 0.70198 0.0
H371 H 0.74366 0.34432 0.67505 0.0
C372 C 0.68314 0.25903 0.76991 0.0
C373 C 0.68794 0.23023 0.76792 0.0
C374 C 0.70075 0.27781 0.75473 0.0
C375 C 0.72369 0.26819 0.7376 0.0
C376 C 0.72809 0.23944 0.73495 0.0
C377 C 0.71033 0.22066 0.74978 0.0
C378 C 0.79084 0.30205 0.71095 0.0
C379 C 0.78094 0.32368 0.69194 0.0
C380 C 0.77222 0.2843 0.72606 0.0
C381 C 0.74331 0.28798 0.72283 0.0
C382 C 0.73336 0.31024 0.70488 0.0
C383 C 0.75198 0.32781 0.68943 0.0
H384 H 0.0952 0.36864 0.89323 0.0
H385 H 0.18349 0.38481 0.90256 0.0
H386 H 0.09004 0.37061 0.94961 0.0
H387 H 0.17788 0.38761 0.95905 0.0
H388 H 0.13946 0.41689 0.05648 0.0
H389 H 0.13811 0.421 -4e-05 0.0
H390 H 0.124 0.3328 -0.00773 0.0
H391 H 0.12619 0.32827 0.04892 0.0
C392 C 0.11337 0.37334 0.90722 0.0
C393 C 0.13982 0.3765 0.89351 0.0
C394 C 0.11034 0.37432 0.9394 0.0
C395 C 0.13357 0.37915 0.95827 0.0
C396 C 0.15972 0.38391 0.94466 0.0
C397 C 0.1629 0.38233 0.91247 0.0
C398 C 0.13549 0.39841 0.04284 0.0
C399 C 0.13302 0.37219 0.0571 0.0
C400 C 0.13488 0.40083 0.01058 0.0
C401 C 0.13108 0.37721 -0.00783 0.0
C402 C 0.12691 0.35125 0.00629 0.0
C403 C 0.12812 0.34869 0.03858 0.0
H404 H 0.64941 0.18093 0.90767 0.0
H405 H 0.62209 0.09611 0.8947 0.0
H406 H 0.65248 0.17296 0.96346 0.0
H407 H 0.62505 0.0883 0.95072 0.0
H408 H 0.6092 0.10393 0.05898 0.0
H409 H 0.60389 0.10598 0.00261 0.0
H410 H 0.68621 0.1415 -0.00537 0.0
H411 H 0.6917 0.13939 0.05086 0.0
C412 C 0.64345 0.16079 0.91676 0.0
C413 C 0.63573 0.13908 0.89679 0.0
C414 C 0.64556 0.15614 0.94863 0.0
C415 C 0.63965 0.12983 0.96115 0.0
C416 C 0.62995 0.10869 0.94153 0.0
C417 C 0.62815 0.11323 0.90954 0.0
C418 C 0.62647 0.11147 0.04513 0.0
C419 C 0.65074 0.12182 0.05934 0.0
C420 C 0.62335 0.11271 0.01291 0.0
C421 C 0.64436 0.12454 -0.00548 0.0
C422 C 0.66947 0.13285 0.00849 0.0
C423 C 0.67272 0.13133 0.04062 0.0
H424 H 0.92225 0.63238 0.90013 0.0
H425 H 0.83367 0.61725 0.90798 0.0
H426 H 0.92676 0.6296 0.95654 0.0
H427 H 0.83861 0.6136 0.96445 0.0
H428 H 0.8889 0.67464 0.05329 0.0
H429 H 0.89343 0.6683 -0.00291 0.0
H430 H 0.87591 0.58089 0.00741 0.0
H431 H 0.87224 0.5868 0.06359 0.0
C432 C 0.9039 0.6276 0.91377 0.0
C433 C 0.87753 0.62519 0.8997 0.0
C434 C 0.90656 0.62614 0.94597 0.0
C435 C 0.88303 0.6215 0.96444 0.0
C436 C 0.85701 0.61711 0.95039 0.0
C437 C 0.85421 0.61919 0.9182 0.0
C438 C 0.88676 0.65397 0.04368 0.0
C439 C 0.88015 0.63126 0.06277 0.0
C440 C 0.88936 0.65037 0.01164 0.0
C441 C 0.88486 0.62415 -0.00168 0.0
C442 C 0.87947 0.60123 0.01741 0.0
C443 C 0.8775 0.60469 0.04947 0.0
H444 H 0.32072 0.89149 0.05202 0.0
H445 H 0.41038 0.88583 0.06062 0.0
H446 H 0.32561 0.8954 -0.00446 0.0
H447 H 0.41491 0.88884 0.00433 0.0
H448 H 0.38634 0.8391 0.9085 0.0
H449 H 0.38799 0.84676 0.96468 0.0
H450 H 0.35808 0.93049 0.95175 0.0
H451 H 0.35722 0.92332 0.89553 0.0
C452 C 0.34141 0.89174 0.04199 0.0
C453 C 0.36511 0.88816 0.06071 0.0
C454 C 0.34418 0.89397 0.00978 0.0
C455 C 0.37062 0.89218 -0.00403 0.0
C456 C 0.39437 0.89021 0.01468 0.0
C457 C 0.39168 0.88858 0.04685 0.0
C458 C 0.38072 0.8593 0.91759 0.0
C459 C 0.37166 0.88058 0.89773 0.0
C460 C 0.3817 0.86368 0.9496 0.0
C461 C 0.37305 0.88916 0.96216 0.0
C462 C 0.36484 0.91073 0.94236 0.0
C463 C 0.36451 0.9066 0.91031 0.0
H464 H 0.09953 0.62373 0.56697 0.0
H465 H 0.18449 0.65141 0.55402 0.0
H466 H 0.0921 0.62562 0.51075 0.0
H467 H 0.17684 0.65356 0.49813 0.0
H468 H 0.14219 0.69142 0.41004 0.0
H469 H 0.14377 0.6867 0.46637 0.0
H470 H 0.11235 0.60292 0.45918 0.0
H471 H 0.11099 0.60739 0.40261 0.0
C472 C 0.11673 0.62972 0.55211 0.0
C473 C 0.14256 0.63758 0.56487 0.0
C474 C 0.11242 0.63088 0.52004 0.0
C475 C 0.13373 0.6403 0.50039 0.0
C476 C 0.15994 0.64675 0.51298 0.0
C477 C 0.16438 0.64522 0.54491 0.0
C478 C 0.13496 0.67222 0.42044 0.0
C479 C 0.12677 0.64966 0.40191 0.0
C480 C 0.13614 0.66945 0.45263 0.0
C481 C 0.12874 0.64425 0.46687 0.0
C482 C 0.11832 0.62248 0.44863 0.0
C483 C 0.11749 0.6251 0.41633 0.0
H484 H 0.36709 0.08995 0.56178 0.0
H485 H 0.38615 0.17749 0.55358 0.0
H486 H 0.36722 0.08575 0.50523 0.0
H487 H 0.38705 0.17282 0.49692 0.0
H488 H 0.41336 0.13319 0.39822 0.0
H489 H 0.41837 0.13043 0.45454 0.0
H490 H 0.32915 0.1241 0.46422 0.0
H491 H 0.32377 0.12767 0.40771 0.0
C492 C 0.37205 0.10812 0.54798 0.0
C493 C 0.37656 0.13412 0.56208 0.0
C494 C 0.37194 0.10566 0.51571 0.0
C495 C 0.377 0.12898 0.49715 0.0
C496 C 0.38311 0.15461 0.51108 0.0
C497 C 0.38265 0.15724 0.54337 0.0
C498 C 0.39477 0.13065 0.41222 0.0
C499 C 0.3681 0.13077 0.39856 0.0
C500 C 0.39774 0.1292 0.44437 0.0
C501 C 0.37415 0.12719 0.46329 0.0
C502 C 0.34758 0.12561 0.44977 0.0
C503 C 0.34453 0.1276 0.41757 0.0
H504 H 0.90415 0.40132 0.39956 0.0
H505 H 0.87198 0.31786 0.40963 0.0
H506 H 0.90304 0.40708 0.45594 0.0
H507 H 0.87072 0.32384 0.4658 0.0
H508 H 0.83021 0.36097 0.55208 0.0
H509 H 0.8379 0.35774 0.49628 0.0
H510 H 0.9226 0.38602 0.50828 0.0
H511 H 0.91512 0.38906 0.56438 0.0
C512 C 0.89755 0.38397 0.41382 0.0
C513 C 0.8878 0.35926 0.40018 0.0
C514 C 0.89685 0.38734 0.44603 0.0
C515 C 0.88614 0.36615 0.46494 0.0
C516 C 0.87851 0.34068 0.45152 0.0
C517 C 0.87953 0.33717 0.41941 0.0
C518 C 0.8503 0.36706 0.54283 0.0
C519 C 0.87213 0.37504 0.56262 0.0
C520 C 0.85478 0.36489 0.51096 0.0
C521 C 0.88103 0.37102 0.49826 0.0
C522 C 0.90227 0.38096 0.51766 0.0
C523 C 0.89791 0.38279 0.54967 0.0
H524 H 0.60974 0.89729 0.56292 0.0
H525 H 0.64445 0.81468 0.55539 0.0
H526 H 0.61212 0.90247 0.50664 0.0
H527 H 0.64669 0.81991 0.49911 0.0
H528 H 0.60087 0.88681 0.39995 0.0
H529 H 0.59412 0.88344 0.45599 0.0
H530 H 0.6775 0.8508 0.46601 0.0
H531 H 0.68429 0.85404 0.41 0.0
C532 C 0.61721 0.87997 0.5492 0.0
C533 C 0.62719 0.85568 0.56357 0.0
C534 C 0.61864 0.883 0.517 0.0
C535 C 0.63022 0.86185 0.4987 0.0
C536 C 0.63829 0.83679 0.51285 0.0
C537 C 0.63665 0.83366 0.54501 0.0
C538 C 0.61796 0.87944 0.41419 0.0
C539 C 0.64306 0.87051 0.40059 0.0
C540 C 0.61403 0.87743 0.44622 0.0
C541 C 0.63505 0.86627 0.46515 0.0
C542 C 0.66071 0.85887 0.45178 0.0
C543 C 0.66474 0.86109 0.41979 0.0
H544 H 0.18856 0.58934 0.23262 0.0
H545 H 0.15653 0.54336 0.31088 0.0
H546 H 0.19494 0.54601 0.20414 0.0
H547 H 0.16058 0.5004 0.28198 0.0
H548 H 0.18679 0.42297 0.23312 0.0
H549 H 0.18848 0.46634 0.26234 0.0
H550 H 0.17161 0.5122 0.17781 0.0
H551 H 0.17227 0.4692 0.14876 0.0
C552 C 0.18261 0.56993 0.24351 0.0
C553 C 0.17211 0.56957 0.27384 0.0
C554 C 0.18605 0.54505 0.2272 0.0
C555 C 0.17822 0.51943 0.24059 0.0
C556 C 0.16757 0.5194 0.27101 0.0
C557 C 0.16493 0.54412 0.28755 0.0
C558 C 0.1838 0.44245 0.22094 0.0
C559 C 0.17946 0.44282 0.18879 0.0
C560 C 0.1845 0.46735 0.23763 0.0
C561 C 0.17996 0.49303 0.22261 0.0
C562 C 0.17584 0.49313 0.19028 0.0
C563 C 0.17597 0.46837 0.17356 0.0
H564 H 0.54146 0.15145 0.14757 0.0
H565 H 0.5867 0.18699 0.22447 0.0
H566 H 0.49809 0.15637 0.17585 0.0
H567 H 0.54296 0.19414 0.25221 0.0
H568 H 0.46575 0.17246 0.30804 0.0
H569 H 0.50911 0.17139 0.27939 0.0
H570 H 0.46356 0.18479 0.19384 0.0
H571 H 0.41985 0.18359 0.22275 0.0
C572 C 0.54197 0.16079 0.17044 0.0
C573 C 0.56734 0.1687 0.18399 0.0
C574 C 0.51702 0.16392 0.1866 0.0
C575 C 0.51673 0.17577 0.21644 0.0
C576 C 0.54226 0.18434 0.22962 0.0
C577 C 0.56736 0.18044 0.21373 0.0
C578 C 0.46506 0.17533 0.2831 0.0
C579 C 0.43949 0.17797 0.26753 0.0
C580 C 0.49002 0.17496 0.2666 0.0
C581 C 0.49012 0.17795 0.23412 0.0
C582 C 0.46442 0.18169 0.2187 0.0
C583 C 0.43933 0.18127 0.23521 0.0
H584 H 0.83045 0.54022 0.15251 0.0
H585 H 0.82034 0.5862 0.23771 0.0
H586 H 0.83088 0.49703 0.18122 0.0
H587 H 0.81837 0.54266 0.26671 0.0
H588 H 0.85251 0.46502 0.31278 0.0
H589 H 0.84671 0.50826 0.2847 0.0
H590 H 0.80862 0.46329 0.20863 0.0
H591 H 0.8168 0.4197 0.23612 0.0
C592 C 0.82758 0.54097 0.17744 0.0
C593 C 0.82554 0.56649 0.19299 0.0
C594 C 0.82758 0.5161 0.19399 0.0
C595 C 0.82476 0.51607 0.22649 0.0
C596 C 0.82137 0.54174 0.24184 0.0
C597 C 0.82222 0.56673 0.22529 0.0
C598 C 0.84289 0.46447 0.29003 0.0
C599 C 0.83527 0.43913 0.27642 0.0
C600 C 0.83923 0.48935 0.27398 0.0
C601 C 0.82709 0.48957 0.24424 0.0
C602 C 0.81866 0.46406 0.23111 0.0
C603 C 0.82314 0.43904 0.24685 0.0
H604 H 0.58557 0.82092 0.22555 0.0
H605 H 0.54087 0.84343 0.30867 0.0
H606 H 0.54155 0.81738 0.19741 0.0
H607 H 0.49722 0.8423 0.28045 0.0
H608 H 0.41865 0.82136 0.23009 0.0
H609 H 0.46273 0.81689 0.25793 0.0
H610 H 0.507 0.84298 0.17524 0.0
H611 H 0.46329 0.84503 0.14724 0.0
C612 C 0.56628 0.82539 0.23762 0.0
C613 C 0.56648 0.83238 0.26916 0.0
C614 C 0.54101 0.82358 0.22154 0.0
C615 C 0.51554 0.82964 0.23649 0.0
C616 C 0.51608 0.83676 0.26815 0.0
C617 C 0.5412 0.83771 0.28435 0.0
C618 C 0.43794 0.8258 0.21799 0.0
C619 C 0.43768 0.83347 0.18662 0.0
C620 C 0.46325 0.8235 0.23392 0.0
C621 C 0.4887 0.82975 0.21902 0.0
C622 C 0.48814 0.83733 0.18749 0.0
C623 C 0.46298 0.83877 0.17141 0.0
H624 H 0.88385 0.57388 0.7581 0.0
H625 H 0.80043 0.55325 0.78827 0.0
H626 H 0.88441 0.53228 0.72533 0.0
H627 H 0.80109 0.51203 0.75565 0.0
H628 H 0.80015 0.45957 0.66753 0.0
H629 H 0.80179 0.50189 0.69841 0.0
H630 H 0.8834 0.47929 0.73226 0.0
H631 H 0.88188 0.43669 0.70132 0.0
C632 C 0.86565 0.56056 0.75773 0.0
C633 C 0.84209 0.56695 0.77583 0.0
C634 C 0.86605 0.53668 0.7391 0.0
C635 C 0.84275 0.51898 0.73785 0.0
C636 C 0.81923 0.52543 0.75586 0.0
C637 C 0.81895 0.54901 0.77471 0.0
C638 C 0.81855 0.46358 0.6814 0.0
C639 C 0.84084 0.44459 0.68201 0.0
C640 C 0.8194 0.48781 0.69922 0.0
C641 C 0.84266 0.49384 0.71785 0.0
C642 C 0.86527 0.47525 0.71797 0.0
C643 C 0.8643 0.45079 0.70038 0.0
H644 H 0.57275 0.87522 0.70417 0.0
H645 H 0.55233 0.78971 0.68355 0.0
H646 H 0.53076 0.87879 0.73624 0.0
H647 H 0.51064 0.79337 0.71551 0.0
H648 H 0.4573 0.80064 0.80284 0.0
H649 H 0.49987 0.79928 0.77214 0.0
H650 H 0.47784 0.87736 0.72929 0.0
H651 H 0.43499 0.87886 0.76006 0.0
C652 C 0.55938 0.8572 0.70648 0.0
C653 C 0.56597 0.83216 0.69129 0.0
C654 C 0.53527 0.85931 0.72471 0.0
C655 C 0.51748 0.83633 0.72847 0.0
C656 C 0.5241 0.81135 0.71333 0.0
C657 C 0.54794 0.80932 0.69486 0.0
C658 C 0.4615 0.81765 0.78703 0.0
C659 C 0.44258 0.83982 0.78388 0.0
C660 C 0.48586 0.81676 0.76931 0.0
C661 C 0.49212 0.83813 0.74819 0.0
C662 C 0.47363 0.86067 0.74551 0.0
C663 C 0.44903 0.86143 0.76303 0.0
H664 H 0.13317 0.43479 0.75476 0.0
H665 H 0.21614 0.45547 0.78642 0.0
H666 H 0.13246 0.4771 0.72312 0.0
H667 H 0.21534 0.49746 0.75484 0.0
H668 H 0.21621 0.5514 0.66728 0.0
H669 H 0.21497 0.50866 0.69765 0.0
H670 H 0.1329 0.52984 0.73118 0.0
H671 H 0.13405 0.57281 0.70082 0.0
C672 C 0.15123 0.44831 0.755 0.0
C673 C 0.17472 0.44168 0.77314 0.0
C674 C 0.15075 0.47258 0.737 0.0
C675 C 0.1739 0.4905 0.73641 0.0
C676 C 0.19731 0.48389 0.75456 0.0
C677 C 0.19767 0.45989 0.77281 0.0
C678 C 0.1978 0.54696 0.68097 0.0
C679 C 0.17527 0.56565 0.68166 0.0
C680 C 0.19718 0.52252 0.69851 0.0
C681 C 0.1739 0.51598 0.7169 0.0
C682 C 0.15106 0.53427 0.71708 0.0
C683 C 0.15181 0.55894 0.69981 0.0
H684 H 0.471 0.18287 0.64777 0.0
H685 H 0.42448 0.14465 0.7223 0.0
H686 H 0.51325 0.18127 0.67946 0.0
H687 H 0.46679 0.14362 0.75423 0.0
H688 H 0.54077 0.18747 0.80894 0.0
H689 H 0.49845 0.1838 0.7775 0.0
H690 H 0.54517 0.14284 0.70527 0.0
H691 H 0.58748 0.14595 0.73688 0.0
C692 C 0.46982 0.17405 0.67087 0.0
C693 C 0.44438 0.16392 0.68255 0.0
C694 C 0.49403 0.17302 0.68893 0.0
C695 C 0.49323 0.16237 0.71927 0.0
C696 C 0.4679 0.15203 0.73093 0.0
C697 C 0.44377 0.15251 0.71261 0.0
C698 C 0.542 0.17753 0.78643 0.0
C699 C 0.56751 0.16706 0.77538 0.0
C700 C 0.51775 0.1753 0.76855 0.0
C701 C 0.51859 0.16305 0.73899 0.0
C702 C 0.54401 0.15245 0.72795 0.0
C703 C 0.56816 0.15416 0.7461 0.0
H704 H 0.68738 0.08708 0.7211 0.0
H705 H 0.67647 0.04342 0.8078 0.0
H706 H 0.68908 0.04279 0.69364 0.0
H707 H 0.67579 0.99949 0.7806 0.0
H708 H 0.69161 0.92082 0.72837 0.0
H709 H 0.69857 0.96513 0.75471 0.0
H710 H 0.66103 0.00778 0.67656 0.0
H711 H 0.65641 0.96384 0.64967 0.0
C712 C 0.68522 0.06796 0.73418 0.0
C713 C 0.68184 0.06858 0.76646 0.0
C714 C 0.68592 0.04254 0.71851 0.0
C715 C 0.68232 0.0173 0.73474 0.0
C716 C 0.67926 0.0182 0.76719 0.0
C717 C 0.67942 0.0435 0.78287 0.0
C718 C 0.68508 0.9398 0.71695 0.0
C719 C 0.67351 0.93905 0.68711 0.0
C720 C 0.68887 0.96524 0.73203 0.0
C721 C 0.68031 0.99031 0.71793 0.0
C722 C 0.6686 0.98923 0.68801 0.0
C723 C 0.66563 0.96395 0.67264 0.0
H724 H 0.96538 0.70229 0.81282 0.0
H725 H 0.93009 0.67016 0.72773 0.0
H726 H 0.01083 0.70582 0.7879 0.0
H727 H 0.97573 0.67399 0.70277 0.0
H728 H 0.05693 0.70824 0.66214 0.0
H729 H 0.01167 0.7114 0.68752 0.0
H730 H 0.04471 0.66847 0.76751 0.0
H731 H 0.09016 0.66501 0.74205 0.0
C732 C 0.96721 0.69633 0.78867 0.0
C733 C 0.94417 0.68579 0.77225 0.0
C734 C 0.99328 0.69822 0.77453 0.0
C735 C 0.99674 0.69001 0.74357 0.0
C736 C 0.97351 0.68058 0.72668 0.0
C737 C 0.94745 0.67833 0.74096 0.0
C738 C 0.05471 0.69972 0.68529 0.0
C739 C 0.07709 0.68622 0.70007 0.0
C740 C 0.02874 0.70143 0.69968 0.0
C741 C 0.02474 0.69004 0.7293 0.0
C742 C 0.04736 0.67754 0.74467 0.0
C743 C 0.0733 0.6755 0.7301 0.0
H744 H 0.30385 0.04881 0.65044 0.0
H745 H 0.33665 0.0817 0.73639 0.0
H746 H 0.29971 1.00301 0.67421 0.0
H747 H 0.33203 0.03572 0.76025 0.0
H748 H 0.29517 0.95462 0.79839 0.0
H749 H 0.29247 1.00009 0.77365 0.0
H750 H 0.33789 0.96856 0.69473 0.0
H751 H 0.34106 0.92291 0.71964 0.0
C752 C 0.3098 0.04639 0.67455 0.0
C753 C 0.32071 0.06884 0.69155 0.0
C754 C 0.30754 0.02012 0.68802 0.0
C755 C 0.31568 0.01592 0.7189 0.0
C756 C 0.32551 0.03855 0.73637 0.0
C757 C 0.3282 0.06479 0.72274 0.0
C758 C 0.30429 0.95719 0.77557 0.0
C759 C 0.31851 0.93521 0.76101 0.0
C760 C 0.30285 0.98328 0.76156 0.0
C761 C 0.31515 0.98777 0.7325 0.0
C762 C 0.32817 0.96551 0.71717 0.0
C763 C 0.33001 0.93945 0.73141 0.0
H764 H 0.08769 0.34062 0.71919 0.0
H765 H 0.05449 0.30218 0.80209 0.0
H766 H 0.0416 0.33789 0.69501 0.0
H767 H 0.0086 0.2998 0.778 0.0
H768 H 0.92786 0.34259 0.73745 0.0
H769 H 0.97394 0.33835 0.76142 0.0
H770 H 0.00578 0.30074 0.67771 0.0
H771 H 0.95991 0.30462 0.65382 0.0
C772 C 0.07069 0.33131 0.73207 0.0
C773 C 0.07469 0.32174 0.76256 0.0
C774 C 0.04438 0.3297 0.71825 0.0
C775 C 0.02161 0.31883 0.73483 0.0
C776 C 0.02579 0.30853 0.76491 0.0
C777 C 0.05212 0.30977 0.77856 0.0
C778 C 0.94461 0.3331 0.72434 0.0
C779 C 0.94029 0.32405 0.69374 0.0
C780 C 0.9709 0.33062 0.73806 0.0
C781 C 0.99334 0.31938 0.72125 0.0
C782 C 0.98885 0.30971 0.69099 0.0
C783 C 0.96254 0.31182 0.67745 0.0
H784 H 0.28936 0.06995 0.26643 0.0
H785 H 0.37758 0.06136 0.2827 0.0
H786 H 0.28967 0.0283 0.23478 0.0
H787 H 0.37784 0.01801 0.25346 0.0
H788 H 0.37576 0.95271 0.17728 0.0
H789 H 0.37671 0.99544 0.20759 0.0
H790 H 0.29047 0.98186 0.23345 0.0
H791 H 0.28925 0.94086 0.20068 0.0
C792 C 0.30878 0.05875 0.26354 0.0
C793 C 0.33343 0.06877 0.27694 0.0
C794 C 0.309 0.03456 0.24564 0.0
C795 C 0.33373 0.01911 0.24157 0.0
C796 C 0.35842 0.0293 0.25531 0.0
C797 C 0.35833 0.05409 0.27235 0.0
C798 C 0.3571 0.95908 0.18952 0.0
C799 C 0.33239 0.94374 0.18657 0.0
C800 C 0.3576 0.98351 0.20717 0.0
C801 C 0.33359 0.99267 0.22311 0.0
C802 C 0.30919 0.97641 0.22087 0.0
C803 C 0.30848 0.95259 0.20236 0.0
H804 H 0.92512 0.35743 0.2354 0.0
H805 H 0.97375 0.31465 0.30505 0.0
H806 H 0.96668 0.36113 0.20246 0.0
H807 H 0.01523 0.31899 0.27247 0.0
H808 H 0.08747 0.36098 0.21729 0.0
H809 H 0.0454 0.36119 0.24953 0.0
H810 H 0.99918 0.32237 0.1754 0.0
H811 H 0.0413 0.32151 0.14335 0.0
C812 C 0.94469 0.34905 0.24377 0.0
C813 C 0.94614 0.33565 0.27276 0.0
C814 C 0.96839 0.3511 0.22491 0.0
C815 C 0.9941 0.34041 0.23503 0.0
C816 C 0.99568 0.32757 0.26424 0.0
C817 C 0.97191 0.32495 0.28277 0.0
C818 C 0.06829 0.35268 0.20778 0.0
C819 C 0.06773 0.34112 0.17783 0.0
C820 C 0.04429 0.35272 0.22627 0.0
C821 C 0.01913 0.3418 0.21489 0.0
C822 C 0.01831 0.33105 0.18462 0.0
C823 C 0.04243 0.33044 0.16639 0.0
H824 H 0.6306 0.94567 0.28379 0.0
H825 H 0.71939 0.93867 0.27069 0.0
H826 H 0.63046 0.98921 0.25477 0.0
H827 H 0.71928 0.98054 0.23936 0.0
H828 H 0.71919 0.06781 0.20495 0.0
H829 H 0.7176 0.02701 0.23809 0.0
H830 H 0.63261 0.01162 0.20862 0.0
H831 H 0.63382 0.05416 0.17784 0.0
C832 C 0.65003 0.95336 0.27428 0.0
C833 C 0.67503 0.93902 0.27966 0.0
C834 C 0.65001 0.97825 0.25735 0.0
C835 C 0.6749 0.9889 0.24453 0.0
C836 C 0.69976 0.97389 0.2495 0.0
C837 C 0.69988 0.94959 0.26726 0.0
C838 C 0.70015 0.05572 0.20589 0.0
C839 C 0.67666 0.06399 0.1889 0.0
C840 C 0.69924 0.03203 0.22463 0.0
C841 C 0.6751 0.01531 0.22595 0.0
C842 C 0.65149 0.02391 0.20888 0.0
C843 C 0.65215 0.04822 0.19096 0.0
H844 H 0.03597 0.69457 0.31003 0.0
H845 H 0.08261 0.64975 0.24043 0.0
H846 H 0.99387 0.69053 0.27825 0.0
H847 H 0.04054 0.64631 0.20842 0.0
H848 H 0.96741 0.68558 0.14853 0.0
H849 H 0.00927 0.68506 0.18091 0.0
H850 H 0.96208 0.6492 0.2562 0.0
H851 H 0.92017 0.64909 0.22359 0.0
C852 C 0.03723 0.68385 0.28798 0.0
C853 C 0.06264 0.67253 0.27771 0.0
C854 C 0.01311 0.68141 0.26992 0.0
C855 C 0.01403 0.66813 0.24094 0.0
C856 C 0.03935 0.65672 0.23066 0.0
C857 C 0.06335 0.65862 0.24903 0.0
C858 C 0.96596 0.67744 0.17193 0.0
C859 C 0.94047 0.66742 0.18353 0.0
C860 C 0.98996 0.67702 0.19036 0.0
C861 C 0.98885 0.66711 0.221 0.0
C862 C 0.96342 0.65703 0.23266 0.0
C863 C 0.93952 0.65687 0.21397 0.0
loop_
_geom_bond_atom_site_label_1
_geom_bond_atom_site_label_2
_geom_bond_distance
_geom_bond_site_symmetry_2
_ccdc_geom_bond_type
Mg0 O1 2.028 . S
Mg0 O7 1.986 . S
Mg0 O9 2.114 . S
Mg0 O10 2.251 . S
Mg0 O13 2.010 . S
O1 Mg0 2.028 . S
O1 C4 1.250 . S
O2 Mg3 2.028 . S
O2 C4 1.248 . S
Mg3 O2 2.028 . S
Mg3 O8 2.032 . S
Mg3 O10 2.079 . S
C4 O1 1.250 . S
C4 O2 1.248 . S
C5 O6 1.264 . S
C5 O13 1.249 . S
O6 C5 1.264 . S
O7 Mg0 1.986 . S
O7 C11 1.246 . S
O8 Mg3 2.032 . S
O8 C11 1.259 . S
O9 Mg0 2.114 . S
O9 C12 1.252 . S
O10 Mg0 2.251 . S
O10 Mg3 2.079 . S
O10 C12 1.273 . S
C11 O7 1.246 . S
C11 O8 1.259 . S
C12 O9 1.252 . S
C12 O10 1.273 . S
O13 Mg0 2.010 . S
O13 C5 1.249 . S
Mg14 O15 2.028 . S
Mg14 O21 1.986 . S
Mg14 O23 2.114 . S
Mg14 O24 2.251 . S
Mg14 O27 2.010 . S
O15 Mg14 2.028 . S
O15 C18 1.250 . S
O16 Mg17 2.028 . S
O16 C18 1.248 . S
Mg17 O16 2.028 . S
Mg17 O22 2.032 . S
Mg17 O24 2.079 . S
C18 O15 1.250 . S
C18 O16 1.248 . S
C19 O20 1.264 . S
C19 O27 1.249 . S
O20 C19 1.264 . S
O21 Mg14 1.986 . S
O21 C25 1.246 . S
O22 Mg17 2.032 . S
O22 C25 1.259 . S
O23 Mg14 2.114 . S
O23 C26 1.252 . S
O24 Mg14 2.251 . S
O24 Mg17 2.079 . S
O24 C26 1.273 . S
C25 O21 1.246 . S
C25 O22 1.259 . S
C26 O23 1.252 . S
C26 O24 1.273 . S
O27 Mg14 2.010 . S
O27 C19 1.249 . S
Mg28 O29 2.028 . S
Mg28 O35 1.986 . S
Mg28 O37 2.114 . S
Mg28 O38 2.251 . S
Mg28 O41 2.010 . S
O29 Mg28 2.028 . S
O29 C32 1.250 . S
O30 Mg31 2.028 . S
O30 C32 1.248 . S
Mg31 O30 2.028 . S
Mg31 O36 2.032 . S
Mg31 O38 2.079 . S
C32 O29 1.250 . S
C32 O30 1.248 . S
C33 O34 1.264 . S
C33 O41 1.249 . S
O34 C33 1.264 . S
O35 Mg28 1.986 . S
O35 C39 1.246 . S
O36 Mg31 2.032 . S
O36 C39 1.259 . S
O37 Mg28 2.114 . S
O37 C40 1.252 . S
O38 Mg28 2.251 . S
O38 Mg31 2.079 . S
O38 C40 1.273 . S
C39 O35 1.246 . S
C39 O36 1.259 . S
C40 O37 1.252 . S
C40 O38 1.273 . S
O41 Mg28 2.010 . S
O41 C33 1.249 . S
Mg42 O43 2.028 . S
Mg42 O49 1.986 . S
Mg42 O51 2.114 . S
Mg42 O52 2.251 . S
Mg42 O55 2.010 . S
O43 Mg42 2.028 . S
O43 C46 1.250 . S
O44 Mg45 2.028 . S
O44 C46 1.248 . S
Mg45 O44 2.028 . S
Mg45 O50 2.032 . S
Mg45 O52 2.079 . S
C46 O43 1.250 . S
C46 O44 1.248 . S
C47 O48 1.264 . S
C47 O55 1.249 . S
O48 C47 1.264 . S
O49 Mg42 1.986 . S
O49 C53 1.246 . S
O50 Mg45 2.032 . S
O50 C53 1.259 . S
O51 Mg42 2.114 . S
O51 C54 1.252 . S
O52 Mg42 2.251 . S
O52 Mg45 2.079 . S
O52 C54 1.273 . S
C53 O49 1.246 . S
C53 O50 1.259 . S
C54 O51 1.252 . S
C54 O52 1.273 . S
O55 Mg42 2.010 . S
O55 C47 1.249 . S
Mg56 O57 2.028 . S
Mg56 O63 1.986 . S
Mg56 O65 2.114 . S
Mg56 O66 2.251 . S
Mg56 O69 2.010 . S
O57 Mg56 2.028 . S
O57 C60 1.250 . S
O58 Mg59 2.028 . S
O58 C60 1.248 . S
Mg59 O58 2.028 . S
Mg59 O64 2.032 . S
Mg59 O66 2.079 . S
C60 O57 1.250 . S
C60 O58 1.248 . S
C61 O62 1.264 . S
C61 O69 1.249 . S
O62 C61 1.264 . S
O63 Mg56 1.986 . S
O63 C67 1.246 . S
O64 Mg59 2.032 . S
O64 C67 1.259 . S
O65 Mg56 2.114 . S
O65 C68 1.252 . S
O66 Mg56 2.251 . S
O66 Mg59 2.079 . S
O66 C68 1.273 . S
C67 O63 1.246 . S
C67 O64 1.259 . S
C68 O65 1.252 . S
C68 O66 1.273 . S
O69 Mg56 2.010 . S
O69 C61 1.249 . S
Mg70 O71 2.028 . S
Mg70 O77 1.986 . S
Mg70 O79 2.114 . S
Mg70 O80 2.251 . S
Mg70 O83 2.010 . S
O71 Mg70 2.028 . S
O71 C74 1.250 . S
O72 Mg73 2.028 . S
O72 C74 1.248 . S
Mg73 O72 2.028 . S
Mg73 O78 2.032 . S
Mg73 O80 2.079 . S
C74 O71 1.250 . S
C74 O72 1.248 . S
C75 O76 1.264 . S
C75 O83 1.249 . S
O76 C75 1.264 . S
O77 Mg70 1.986 . S
O77 C81 1.246 . S
O78 Mg73 2.032 . S
O78 C81 1.259 . S
O79 Mg70 2.114 . S
O79 C82 1.252 . S
O80 Mg70 2.251 . S
O80 Mg73 2.079 . S
O80 C82 1.273 . S
C81 O77 1.246 . S
C81 O78 1.259 . S
C82 O79 1.252 . S
C82 O80 1.273 . S
O83 Mg70 2.010 . S
O83 C75 1.249 . S
Mg84 O85 2.028 . S
Mg84 O91 1.986 . S
Mg84 O93 2.114 . S
Mg84 O94 2.251 . S
Mg84 O97 2.010 . S
O85 Mg84 2.028 . S
O85 C88 1.250 . S
O86 Mg87 2.028 . S
O86 C88 1.248 . S
Mg87 O86 2.028 . S
Mg87 O92 2.032 . S
Mg87 O94 2.079 . S
C88 O85 1.250 . S
C88 O86 1.248 . S
C89 O90 1.264 . S
C89 O97 1.249 . S
O90 C89 1.264 . S
O91 Mg84 1.986 . S
O91 C95 1.246 . S
O92 Mg87 2.032 . S
O92 C95 1.259 . S
O93 Mg84 2.114 . S
O93 C96 1.252 . S
O94 Mg84 2.251 . S
O94 Mg87 2.079 . S
O94 C96 1.273 . S
C95 O91 1.246 . S
C95 O92 1.259 . S
C96 O93 1.252 . S
C96 O94 1.273 . S
O97 Mg84 2.010 . S
O97 C89 1.249 . S
Mg98 O99 2.028 . S
Mg98 O105 1.986 . S
Mg98 O107 2.114 . S
Mg98 O108 2.251 . S
Mg98 O111 2.010 . S
O99 Mg98 2.028 . S
O99 C102 1.250 . S
O100 Mg101 2.028 . S
O100 C102 1.248 . S
Mg101 O100 2.028 . S
Mg101 O106 2.032 . S
Mg101 O108 2.079 . S
C102 O99 1.250 . S
C102 O100 1.248 . S
C103 O104 1.264 . S
C103 O111 1.249 . S
O104 C103 1.264 . S
O105 Mg98 1.986 . S
O105 C109 1.246 . S
O106 Mg101 2.032 . S
O106 C109 1.259 . S
O107 Mg98 2.114 . S
O107 C110 1.252 . S
O108 Mg98 2.251 . S
O108 Mg101 2.079 . S
O108 C110 1.273 . S
C109 O105 1.246 . S
C109 O106 1.259 . S
C110 O107 1.252 . S
C110 O108 1.273 . S
O111 Mg98 2.010 . S
O111 C103 1.249 . S
Mg112 O113 2.028 . S
Mg112 O119 1.986 . S
Mg112 O121 2.114 . S
Mg112 O122 2.251 . S
Mg112 O125 2.010 . S
O113 Mg112 2.028 . S
O113 C116 1.250 . S
O114 Mg115 2.028 . S
O114 C116 1.248 . S
Mg115 O114 2.028 . S
Mg115 O120 2.032 . S
Mg115 O122 2.079 . S
C116 O113 1.250 . S
C116 O114 1.248 . S
C117 O118 1.264 . S
C117 O125 1.249 . S
O118 C117 1.264 . S
O119 Mg112 1.986 . S
O119 C123 1.246 . S
O120 Mg115 2.032 . S
O120 C123 1.259 . S
O121 Mg112 2.114 . S
O121 C124 1.252 . S
O122 Mg112 2.251 . S
O122 Mg115 2.079 . S
O122 C124 1.273 . S
C123 O119 1.246 . S
C123 O120 1.259 . S
C124 O121 1.252 . S
C124 O122 1.273 . S
O125 Mg112 2.010 . S
O125 C117 1.249 . S
Mg126 O127 2.028 . S
Mg126 O133 1.986 . S
Mg126 O135 2.114 . S
Mg126 O136 2.251 . S
Mg126 O139 2.010 . S
O127 Mg126 2.028 . S
O127 C130 1.250 . S
O128 Mg129 2.028 . S
O128 C130 1.248 . S
Mg129 O128 2.028 . S
Mg129 O134 2.032 . S
Mg129 O136 2.079 . S
C130 O127 1.250 . S
C130 O128 1.248 . S
C131 O132 1.264 . S
C131 O139 1.249 . S
O132 C131 1.264 . S
O133 Mg126 1.986 . S
O133 C137 1.246 . S
O134 Mg129 2.032 . S
O134 C137 1.259 . S
O135 Mg126 2.114 . S
O135 C138 1.252 . S
O136 Mg126 2.251 . S
O136 Mg129 2.079 . S
O136 C138 1.273 . S
C137 O133 1.246 . S
C137 O134 1.259 . S
C138 O135 1.252 . S
C138 O136 1.273 . S
O139 Mg126 2.010 . S
O139 C131 1.249 . S
Mg140 O141 2.028 . S
Mg140 O147 1.986 . S
Mg140 O149 2.114 . S
Mg140 O150 2.251 . S
Mg140 O153 2.010 . S
O141 Mg140 2.028 . S
O141 C144 1.250 . S
O142 Mg143 2.028 . S
O142 C144 1.248 . S
Mg143 O142 2.028 . S
Mg143 O148 2.032 . S
Mg143 O150 2.079 . S
C144 O141 1.250 . S
C144 O142 1.248 . S
C145 O146 1.264 . S
C145 O153 1.249 . S
O146 C145 1.264 . S
O147 Mg140 1.986 . S
O147 C151 1.246 . S
O148 Mg143 2.032 . S
O148 C151 1.259 . S
O149 Mg140 2.114 . S
O149 C152 1.252 . S
O150 Mg140 2.251 . S
O150 Mg143 2.079 . S
O150 C152 1.273 . S
C151 O147 1.246 . S
C151 O148 1.259 . S
C152 O149 1.252 . S
C152 O150 1.273 . S
O153 Mg140 2.010 . S
O153 C145 1.249 . S
Mg154 O155 2.028 . S
Mg154 O161 1.986 . S
Mg154 O163 2.114 . S
Mg154 O164 2.251 . S
Mg154 O167 2.010 . S
O155 Mg154 2.028 . S
O155 C158 1.250 . S
O156 Mg157 2.028 . S
O156 C158 1.248 . S
Mg157 O156 2.028 . S
Mg157 O162 2.032 . S
Mg157 O164 2.079 . S
C158 O155 1.250 . S
C158 O156 1.248 . S
C159 O160 1.264 . S
C159 O167 1.249 . S
O160 C159 1.264 . S
O161 Mg154 1.986 . S
O161 C165 1.246 . S
O162 Mg157 2.032 . S
O162 C165 1.259 . S
O163 Mg154 2.114 . S
O163 C166 1.252 . S
O164 Mg154 2.251 . S
O164 Mg157 2.079 . S
O164 C166 1.273 . S
C165 O161 1.246 . S
C165 O162 1.259 . S
C166 O163 1.252 . S
C166 O164 1.273 . S
O167 Mg154 2.010 . S
O167 C159 1.249 . S
Mg168 O169 2.028 . S
Mg168 O175 1.986 . S
Mg168 O177 2.114 . S
Mg168 O178 2.251 . S
Mg168 O181 2.010 . S
O169 Mg168 2.028 . S
O169 C172 1.250 . S
O170 Mg171 2.028 . S
O170 C172 1.248 . S
Mg171 O170 2.028 . S
Mg171 O176 2.032 . S
Mg171 O178 2.079 . S
C172 O169 1.250 . S
C172 O170 1.248 . S
C173 O174 1.264 . S
C173 O181 1.249 . S
O174 C173 1.264 . S
O175 Mg168 1.986 . S
O175 C179 1.246 . S
O176 Mg171 2.032 . S
O176 C179 1.259 . S
O177 Mg168 2.114 . S
O177 C180 1.252 . S
O178 Mg168 2.251 . S
O178 Mg171 2.079 . S
O178 C180 1.273 . S
C179 O175 1.246 . S
C179 O176 1.259 . S
C180 O177 1.252 . S
C180 O178 1.273 . S
O181 Mg168 2.010 . S
O181 C173 1.249 . S
Mg182 O183 2.028 . S
Mg182 O189 1.986 . S
Mg182 O191 2.114 . S
Mg182 O192 2.251 . S
Mg182 O195 2.010 . S
O183 Mg182 2.028 . S
O183 C186 1.250 . S
O184 Mg185 2.028 . S
O184 C186 1.248 . S
Mg185 O184 2.028 . S
Mg185 O190 2.032 . S
Mg185 O192 2.079 . S
C186 O183 1.250 . S
C186 O184 1.248 . S
C187 O188 1.264 . S
C187 O195 1.249 . S
O188 C187 1.264 . S
O189 Mg182 1.986 . S
O189 C193 1.246 . S
O190 Mg185 2.032 . S
O190 C193 1.259 . S
O191 Mg182 2.114 . S
O191 C194 1.252 . S
O192 Mg182 2.251 . S
O192 Mg185 2.079 . S
O192 C194 1.273 . S
C193 O189 1.246 . S
C193 O190 1.259 . S
C194 O191 1.252 . S
C194 O192 1.273 . S
O195 Mg182 2.010 . S
O195 C187 1.249 . S
Mg196 O197 2.028 . S
Mg196 O203 1.986 . S
Mg196 O205 2.114 . S
Mg196 O206 2.251 . S
Mg196 O209 2.010 . S
O197 Mg196 2.028 . S
O197 C200 1.250 . S
O198 Mg199 2.028 . S
O198 C200 1.248 . S
Mg199 O198 2.028 . S
Mg199 O204 2.032 . S
Mg199 O206 2.079 . S
C200 O197 1.250 . S
C200 O198 1.248 . S
C201 O202 1.264 . S
C201 O209 1.249 . S
O202 C201 1.264 . S
O203 Mg196 1.986 . S
O203 C207 1.246 . S
O204 Mg199 2.032 . S
O204 C207 1.259 . S
O205 Mg196 2.114 . S
O205 C208 1.252 . S
O206 Mg196 2.251 . S
O206 Mg199 2.079 . S
O206 C208 1.273 . S
C207 O203 1.246 . S
C207 O204 1.259 . S
C208 O205 1.252 . S
C208 O206 1.273 . S
O209 Mg196 2.010 . S
O209 C201 1.249 . S
Mg210 O211 2.028 . S
Mg210 O217 1.986 . S
Mg210 O219 2.114 . S
Mg210 O220 2.251 . S
Mg210 O223 2.010 . S
O211 Mg210 2.028 . S
O211 C214 1.250 . S
O212 Mg213 2.028 . S
O212 C214 1.248 . S
Mg213 O212 2.028 . S
Mg213 O218 2.032 . S
Mg213 O220 2.079 . S
C214 O211 1.250 . S
C214 O212 1.248 . S
C215 O216 1.264 . S
C215 O223 1.249 . S
O216 C215 1.264 . S
O217 Mg210 1.986 . S
O217 C221 1.246 . S
O218 Mg213 2.032 . S
O218 C221 1.259 . S
O219 Mg210 2.114 . S
O219 C222 1.252 . S
O220 Mg210 2.251 . S
O220 Mg213 2.079 . S
O220 C222 1.273 . S
C221 O217 1.246 . S
C221 O218 1.259 . S
C222 O219 1.252 . S
C222 O220 1.273 . S
O223 Mg210 2.010 . S
O223 C215 1.249 . S
H224 C232 0.950 . S
H225 C237 0.950 . S
H226 C234 0.950 . S
H227 C236 0.950 . S
H228 C238 0.950 . S
H229 C240 0.950 . S
H230 C242 0.950 . S
H231 C243 0.950 . S
C232 H224 0.950 . S
C232 C233 1.386 . S
C232 C234 1.391 . S
C233 C232 1.386 . S
C233 C237 1.393 . S
C234 H226 0.950 . S
C234 C232 1.391 . S
C234 C235 1.400 . S
C235 C234 1.400 . S
C235 C236 1.398 . S
C235 C241 1.491 . S
C236 H227 0.950 . S
C236 C235 1.398 . S
C236 C237 1.391 . S
C237 H225 0.950 . S
C237 C233 1.393 . S
C237 C236 1.391 . S
C238 H228 0.950 . S
C238 C239 1.386 . S
C238 C240 1.391 . S
C239 C238 1.386 . S
C239 C243 1.393 . S
C240 H229 0.950 . S
C240 C238 1.391 . S
C240 C241 1.400 . S
C241 C235 1.491 . S
C241 C240 1.400 . S
C241 C242 1.398 . S
C242 H230 0.950 . S
C242 C241 1.398 . S
C242 C243 1.391 . S
C243 H231 0.950 . S
C243 C239 1.393 . S
C243 C242 1.391 . S
H244 C252 0.950 . S
H245 C257 0.950 . S
H246 C254 0.950 . S
H247 C256 0.950 . S
H248 C258 0.950 . S
H249 C260 0.950 . S
H250 C262 0.950 . S
H251 C263 0.950 . S
C252 H244 0.950 . S
C252 C253 1.386 . S
C252 C254 1.391 . S
C253 C252 1.386 . S
C253 C257 1.393 . S
C254 H246 0.950 . S
C254 C252 1.391 . S
C254 C255 1.400 . S
C255 C254 1.400 . S
C255 C256 1.398 . S
C255 C261 1.491 . S
C256 H247 0.950 . S
C256 C255 1.398 . S
C256 C257 1.391 . S
C257 H245 0.950 . S
C257 C253 1.393 . S
C257 C256 1.391 . S
C258 H248 0.950 . S
C258 C259 1.386 . S
C258 C260 1.391 . S
C259 C258 1.386 . S
C259 C263 1.393 . S
C260 H249 0.950 . S
C260 C258 1.391 . S
C260 C261 1.400 . S
C261 C255 1.491 . S
C261 C260 1.400 . S
C261 C262 1.398 . S
C262 H250 0.950 . S
C262 C261 1.398 . S
C262 C263 1.391 . S
C263 H251 0.950 . S
C263 C259 1.393 . S
C263 C262 1.391 . S
H264 C272 0.950 . S
H265 C277 0.950 . S
H266 C274 0.950 . S
H267 C276 0.950 . S
H268 C278 0.950 . S
H269 C280 0.950 . S
H270 C282 0.950 . S
H271 C283 0.950 . S
C272 H264 0.950 . S
C272 C273 1.386 . S
C272 C274 1.391 . S
C273 C272 1.386 . S
C273 C277 1.393 . S
C274 H266 0.950 . S
C274 C272 1.391 . S
C274 C275 1.400 . S
C275 C274 1.400 . S
C275 C276 1.398 . S
C275 C281 1.491 . S
C276 H267 0.950 . S
C276 C275 1.398 . S
C276 C277 1.391 . S
C277 H265 0.950 . S
C277 C273 1.393 . S
C277 C276 1.391 . S
C278 H268 0.950 . S
C278 C279 1.386 . S
C278 C280 1.391 . S
C279 C278 1.386 . S
C279 C283 1.393 . S
C280 H269 0.950 . S
C280 C278 1.391 . S
C280 C281 1.400 . S
C281 C275 1.491 . S
C281 C280 1.400 . S
C281 C282 1.398 . S
C282 H270 0.950 . S
C282 C281 1.398 . S
C282 C283 1.391 . S
C283 H271 0.950 . S
C283 C279 1.393 . S
C283 C282 1.391 . S
H284 C292 0.950 . S
H285 C297 0.950 . S
H286 C294 0.950 . S
H287 C296 0.950 . S
H288 C298 0.950 . S
H289 C300 0.950 . S
H290 C302 0.950 . S
H291 C303 0.950 . S
C292 H284 0.950 . S
C292 C293 1.386 . S
C292 C294 1.391 . S
C293 C292 1.386 . S
C293 C297 1.393 . S
C294 H286 0.950 . S
C294 C292 1.391 . S
C294 C295 1.400 . S
C295 C294 1.400 . S
C295 C296 1.398 . S
C295 C301 1.491 . S
C296 H287 0.950 . S
C296 C295 1.398 . S
C296 C297 1.391 . S
C297 H285 0.950 . S
C297 C293 1.393 . S
C297 C296 1.391 . S
C298 H288 0.950 . S
C298 C299 1.386 . S
C298 C300 1.391 . S
C299 C298 1.386 . S
C299 C303 1.393 . S
C300 H289 0.950 . S
C300 C298 1.391 . S
C300 C301 1.400 . S
C301 C295 1.491 . S
C301 C300 1.400 . S
C301 C302 1.398 . S
C302 H290 0.950 . S
C302 C301 1.398 . S
C302 C303 1.391 . S
C303 H291 0.950 . S
C303 C299 1.393 . S
C303 C302 1.391 . S
H304 C312 0.950 . S
H305 C317 0.950 . S
H306 C314 0.950 . S
H307 C316 0.950 . S
H308 C318 0.950 . S
H309 C320 0.950 . S
H310 C322 0.950 . S
H311 C323 0.950 . S
C312 H304 0.950 . S
C312 C313 1.386 . S
C312 C314 1.391 . S
C313 C312 1.386 . S
C313 C317 1.393 . S
C314 H306 0.950 . S
C314 C312 1.391 . S
C314 C315 1.400 . S
C315 C314 1.400 . S
C315 C316 1.398 . S
C315 C321 1.491 . S
C316 H307 0.950 . S
C316 C315 1.398 . S
C316 C317 1.391 . S
C317 H305 0.950 . S
C317 C313 1.393 . S
C317 C316 1.391 . S
C318 H308 0.950 . S
C318 C319 1.386 . S
C318 C320 1.391 . S
C319 C318 1.386 . S
C319 C323 1.393 . S
C320 H309 0.950 . S
C320 C318 1.391 . S
C320 C321 1.400 . S
C321 C315 1.491 . S
C321 C320 1.400 . S
C321 C322 1.398 . S
C322 H310 0.950 . S
C322 C321 1.398 . S
C322 C323 1.391 . S
C323 H311 0.950 . S
C323 C319 1.393 . S
C323 C322 1.391 . S
H324 C332 0.950 . S
H325 C337 0.950 . S
H326 C334 0.950 . S
H327 C336 0.950 . S
H328 C338 0.950 . S
H329 C340 0.950 . S
H330 C342 0.950 . S
H331 C343 0.950 . S
C332 H324 0.950 . S
C332 C333 1.386 . S
C332 C334 1.391 . S
C333 C332 1.386 . S
C333 C337 1.393 . S
C334 H326 0.950 . S
C334 C332 1.391 . S
C334 C335 1.400 . S
C335 C334 1.400 . S
C335 C336 1.398 . S
C335 C341 1.491 . S
C336 H327 0.950 . S
C336 C335 1.398 . S
C336 C337 1.391 . S
C337 H325 0.950 . S
C337 C333 1.393 . S
C337 C336 1.391 . S
C338 H328 0.950 . S
C338 C339 1.386 . S
C338 C340 1.391 . S
C339 C338 1.386 . S
C339 C343 1.393 . S
C340 H329 0.950 . S
C340 C338 1.391 . S
C340 C341 1.400 . S
C341 C335 1.491 . S
C341 C340 1.400 . S
C341 C342 1.398 . S
C342 H330 0.950 . S
C342 C341 1.398 . S
C342 C343 1.391 . S
C343 H331 0.950 . S
C343 C339 1.393 . S
C343 C342 1.391 . S
H344 C352 0.950 . S
H345 C357 0.950 . S
H346 C354 0.950 . S
H347 C356 0.950 . S
H348 C358 0.950 . S
H349 C360 0.950 . S
H350 C362 0.950 . S
H351 C363 0.950 . S
C352 H344 0.950 . S
C352 C353 1.386 . S
C352 C354 1.391 . S
C353 C352 1.386 . S
C353 C357 1.393 . S
C354 H346 0.950 . S
C354 C352 1.391 . S
C354 C355 1.400 . S
C355 C354 1.400 . S
C355 C356 1.398 . S
C355 C361 1.491 . S
C356 H347 0.950 . S
C356 C355 1.398 . S
C356 C357 1.391 . S
C357 H345 0.950 . S
C357 C353 1.393 . S
C357 C356 1.391 . S
C358 H348 0.950 . S
C358 C359 1.386 . S
C358 C360 1.391 . S
C359 C358 1.386 . S
C359 C363 1.393 . S
C360 H349 0.950 . S
C360 C358 1.391 . S
C360 C361 1.400 . S
C361 C355 1.491 . S
C361 C360 1.400 . S
C361 C362 1.398 . S
C362 H350 0.950 . S
C362 C361 1.398 . S
C362 C363 1.391 . S
C363 H351 0.950 . S
C363 C359 1.393 . S
C363 C362 1.391 . S
H364 C372 0.950 . S
H365 C377 0.950 . S
H366 C374 0.950 . S
H367 C376 0.950 . S
H368 C378 0.950 . S
H369 C380 0.950 . S
H370 C382 0.950 . S
H371 C383 0.950 . S
C372 H364 0.950 . S
C372 C373 1.386 . S
C372 C374 1.391 . S
C373 C372 1.386 . S
C373 C377 1.393 . S
C374 H366 0.950 . S
C374 C372 1.391 . S
C374 C375 1.400 . S
C375 C374 1.400 . S
C375 C376 1.398 . S
C375 C381 1.491 . S
C376 H367 0.950 . S
C376 C375 1.398 . S
C376 C377 1.391 . S
C377 H365 0.950 . S
C377 C373 1.393 . S
C377 C376 1.391 . S
C378 H368 0.950 . S
C378 C379 1.386 . S
C378 C380 1.391 . S
C379 C378 1.386 . S
C379 C383 1.393 . S
C380 H369 0.950 . S
C380 C378 1.391 . S
C380 C381 1.400 . S
C381 C375 1.491 . S
C381 C380 1.400 . S
C381 C382 1.398 . S
C382 H370 0.950 . S
C382 C381 1.398 . S
C382 C383 1.391 . S
C383 H371 0.950 . S
C383 C379 1.393 . S
C383 C382 1.391 . S
H384 C392 0.950 . S
H385 C397 0.950 . S
H386 C394 0.950 . S
H387 C396 0.950 . S
H388 C398 0.950 . S
H389 C400 0.950 . S
H390 C402 0.950 . S
H391 C403 0.950 . S
C392 H384 0.950 . S
C392 C393 1.386 . S
C392 C394 1.391 . S
C393 C392 1.386 . S
C393 C397 1.393 . S
C394 H386 0.950 . S
C394 C392 1.391 . S
C394 C395 1.400 . S
C395 C394 1.400 . S
C395 C396 1.398 . S
C395 C401 1.491 1_556 S
C396 H387 0.950 . S
C396 C395 1.398 . S
C396 C397 1.391 . S
C397 H385 0.950 . S
C397 C393 1.393 . S
C397 C396 1.391 . S
C398 H388 0.950 . S
C398 C399 1.386 . S
C398 C400 1.391 . S
C399 C398 1.386 . S
C399 C403 1.393 . S
C400 H389 0.950 . S
C400 C398 1.391 . S
C400 C401 1.400 . S
C401 C395 1.491 1_554 S
C401 C400 1.400 . S
C401 C402 1.398 . S
C402 H390 0.950 . S
C402 C401 1.398 . S
C402 C403 1.391 . S
C403 H391 0.950 . S
C403 C399 1.393 . S
C403 C402 1.391 . S
H404 C412 0.950 . S
H405 C417 0.950 . S
H406 C414 0.950 . S
H407 C416 0.950 . S
H408 C418 0.950 . S
H409 C420 0.950 . S
H410 C422 0.950 . S
H411 C423 0.950 . S
C412 H404 0.950 . S
C412 C413 1.386 . S
C412 C414 1.391 . S
C413 C412 1.386 . S
C413 C417 1.393 . S
C414 H406 0.950 . S
C414 C412 1.391 . S
C414 C415 1.400 . S
C415 C414 1.400 . S
C415 C416 1.398 . S
C415 C421 1.491 1_556 S
C416 H407 0.950 . S
C416 C415 1.398 . S
C416 C417 1.391 . S
C417 H405 0.950 . S
C417 C413 1.393 . S
C417 C416 1.391 . S
C418 H408 0.950 . S
C418 C419 1.386 . S
C418 C420 1.391 . S
C419 C418 1.386 . S
C419 C423 1.393 . S
C420 H409 0.950 . S
C420 C418 1.391 . S
C420 C421 1.400 . S
C421 C415 1.491 1_554 S
C421 C420 1.400 . S
C421 C422 1.398 . S
C422 H410 0.950 . S
C422 C421 1.398 . S
C422 C423 1.391 . S
C423 H411 0.950 . S
C423 C419 1.393 . S
C423 C422 1.391 . S
H424 C432 0.950 . S
H425 C437 0.950 . S
H426 C434 0.950 . S
H427 C436 0.950 . S
H428 C438 0.950 . S
H429 C440 0.950 . S
H430 C442 0.950 . S
H431 C443 0.950 . S
C432 H424 0.950 . S
C432 C433 1.386 . S
C432 C434 1.391 . S
C433 C432 1.386 . S
C433 C437 1.393 . S
C434 H426 0.950 . S
C434 C432 1.391 . S
C434 C435 1.400 . S
C435 C434 1.400 . S
C435 C436 1.398 . S
C435 C441 1.491 1_556 S
C436 H427 0.950 . S
C436 C435 1.398 . S
C436 C437 1.391 . S
C437 H425 0.950 . S
C437 C433 1.393 . S
C437 C436 1.391 . S
C438 H428 0.950 . S
C438 C439 1.386 . S
C438 C440 1.391 . S
C439 C438 1.386 . S
C439 C443 1.393 . S
C440 H429 0.950 . S
C440 C438 1.391 . S
C440 C441 1.400 . S
C441 C435 1.491 1_554 S
C441 C440 1.400 . S
C441 C442 1.398 . S
C442 H430 0.950 . S
C442 C441 1.398 . S
C442 C443 1.391 . S
C443 H431 0.950 . S
C443 C439 1.393 . S
C443 C442 1.391 . S
H444 C452 0.950 . S
H445 C457 0.950 . S
H446 C454 0.950 . S
H447 C456 0.950 . S
H448 C458 0.950 . S
H449 C460 0.950 . S
H450 C462 0.950 . S
H451 C463 0.950 . S
C452 H444 0.950 . S
C452 C453 1.386 . S
C452 C454 1.391 . S
C453 C452 1.386 . S
C453 C457 1.393 . S
C454 H446 0.950 . S
C454 C452 1.391 . S
C454 C455 1.400 . S
C455 C454 1.400 . S
C455 C456 1.398 . S
C455 C461 1.491 1_554 S
C456 H447 0.950 . S
C456 C455 1.398 . S
C456 C457 1.391 . S
C457 H445 0.950 . S
C457 C453 1.393 . S
C457 C456 1.391 . S
C458 H448 0.950 . S
C458 C459 1.386 . S
C458 C460 1.391 . S
C459 C458 1.386 . S
C459 C463 1.393 . S
C460 H449 0.950 . S
C460 C458 1.391 . S
C460 C461 1.400 . S
C461 C455 1.491 1_556 S
C461 C460 1.400 . S
C461 C462 1.398 . S
C462 H450 0.950 . S
C462 C461 1.398 . S
C462 C463 1.391 . S
C463 H451 0.950 . S
C463 C459 1.393 . S
C463 C462 1.391 . S
H464 C472 0.950 . S
H465 C477 0.950 . S
H466 C474 0.950 . S
H467 C476 0.950 . S
H468 C478 0.950 . S
H469 C480 0.950 . S
H470 C482 0.950 . S
H471 C483 0.950 . S
C472 H464 0.950 . S
C472 C473 1.386 . S
C472 C474 1.391 . S
C473 C472 1.386 . S
C473 C477 1.393 . S
C474 H466 0.950 . S
C474 C472 1.391 . S
C474 C475 1.400 . S
C475 C474 1.400 . S
C475 C476 1.398 . S
C475 C481 1.491 . S
C476 H467 0.950 . S
C476 C475 1.398 . S
C476 C477 1.391 . S
C477 H465 0.950 . S
C477 C473 1.393 . S
C477 C476 1.391 . S
C478 H468 0.950 . S
C478 C479 1.386 . S
C478 C480 1.391 . S
C479 C478 1.386 . S
C479 C483 1.393 . S
C480 H469 0.950 . S
C480 C478 1.391 . S
C480 C481 1.400 . S
C481 C475 1.491 . S
C481 C480 1.400 . S
C481 C482 1.398 . S
C482 H470 0.950 . S
C482 C481 1.398 . S
C482 C483 1.391 . S
C483 H471 0.950 . S
C483 C479 1.393 . S
C483 C482 1.391 . S
H484 C492 0.950 . S
H485 C497 0.950 . S
H486 C494 0.950 . S
H487 C496 0.950 . S
H488 C498 0.950 . S
H489 C500 0.950 . S
H490 C502 0.950 . S
H491 C503 0.950 . S
C492 H484 0.950 . S
C492 C493 1.386 . S
C492 C494 1.391 . S
C493 C492 1.386 . S
C493 C497 1.393 . S
C494 H486 0.950 . S
C494 C492 1.391 . S
C494 C495 1.400 . S
C495 C494 1.400 . S
C495 C496 1.398 . S
C495 C501 1.491 . S
C496 H487 0.950 . S
C496 C495 1.398 . S
C496 C497 1.391 . S
C497 H485 0.950 . S
C497 C493 1.393 . S
C497 C496 1.391 . S
C498 H488 0.950 . S
C498 C499 1.386 . S
C498 C500 1.391 . S
C499 C498 1.386 . S
C499 C503 1.393 . S
C500 H489 0.950 . S
C500 C498 1.391 . S
C500 C501 1.400 . S
C501 C495 1.491 . S
C501 C500 1.400 . S
C501 C502 1.398 . S
C502 H490 0.950 . S
C502 C501 1.398 . S
C502 C503 1.391 . S
C503 H491 0.950 . S
C503 C499 1.393 . S
C503 C502 1.391 . S
H504 C512 0.950 . S
H505 C517 0.950 . S
H506 C514 0.950 . S
H507 C516 0.950 . S
H508 C518 0.950 . S
H509 C520 0.950 . S
H510 C522 0.950 . S
H511 C523 0.950 . S
C512 H504 0.950 . S
C512 C513 1.386 . S
C512 C514 1.391 . S
C513 C512 1.386 . S
C513 C517 1.393 . S
C514 H506 0.950 . S
C514 C512 1.391 . S
C514 C515 1.400 . S
C515 C514 1.400 . S
C515 C516 1.398 . S
C515 C521 1.491 . S
C516 H507 0.950 . S
C516 C515 1.398 . S
C516 C517 1.391 . S
C517 H505 0.950 . S
C517 C513 1.393 . S
C517 C516 1.391 . S
C518 H508 0.950 . S
C518 C519 1.386 . S
C518 C520 1.391 . S
C519 C518 1.386 . S
C519 C523 1.393 . S
C520 H509 0.950 . S
C520 C518 1.391 . S
C520 C521 1.400 . S
C521 C515 1.491 . S
C521 C520 1.400 . S
C521 C522 1.398 . S
C522 H510 0.950 . S
C522 C521 1.398 . S
C522 C523 1.391 . S
C523 H511 0.950 . S
C523 C519 1.393 . S
C523 C522 1.391 . S
H524 C532 0.950 . S
H525 C537 0.950 . S
H526 C534 0.950 . S
H527 C536 0.950 . S
H528 C538 0.950 . S
H529 C540 0.950 . S
H530 C542 0.950 . S
H531 C543 0.950 . S
C532 H524 0.950 . S
C532 C533 1.386 . S
C532 C534 1.391 . S
C533 C532 1.386 . S
C533 C537 1.393 . S
C534 H526 0.950 . S
C534 C532 1.391 . S
C534 C535 1.400 . S
C535 C534 1.400 . S
C535 C536 1.398 . S
C535 C541 1.491 . S
C536 H527 0.950 . S
C536 C535 1.398 . S
C536 C537 1.391 . S
C537 H525 0.950 . S
C537 C533 1.393 . S
C537 C536 1.391 . S
C538 H528 0.950 . S
C538 C539 1.386 . S
C538 C540 1.391 . S
C539 C538 1.386 . S
C539 C543 1.393 . S
C540 H529 0.950 . S
C540 C538 1.391 . S
C540 C541 1.400 . S
C541 C535 1.491 . S
C541 C540 1.400 . S
C541 C542 1.398 . S
C542 H530 0.950 . S
C542 C541 1.398 . S
C542 C543 1.391 . S
C543 H531 0.950 . S
C543 C539 1.393 . S
C543 C542 1.391 . S
H544 C552 0.950 . S
H545 C557 0.950 . S
H546 C554 0.950 . S
H547 C556 0.950 . S
H548 C558 0.950 . S
H549 C560 0.950 . S
H550 C562 0.950 . S
H551 C563 0.950 . S
C552 H544 0.950 . S
C552 C553 1.386 . S
C552 C554 1.391 . S
C553 C552 1.386 . S
C553 C557 1.393 . S
C554 H546 0.950 . S
C554 C552 1.391 . S
C554 C555 1.400 . S
C555 C554 1.400 . S
C555 C556 1.398 . S
C555 C561 1.491 . S
C556 H547 0.950 . S
C556 C555 1.398 . S
C556 C557 1.391 . S
C557 H545 0.950 . S
C557 C553 1.393 . S
C557 C556 1.391 . S
C558 H548 0.950 . S
C558 C559 1.386 . S
C558 C560 1.391 . S
C559 C558 1.386 . S
C559 C563 1.393 . S
C560 H549 0.950 . S
C560 C558 1.391 . S
C560 C561 1.400 . S
C561 C555 1.491 . S
C561 C560 1.400 . S
C561 C562 1.398 . S
C562 H550 0.950 . S
C562 C561 1.398 . S
C562 C563 1.391 . S
C563 H551 0.950 . S
C563 C559 1.393 . S
C563 C562 1.391 . S
H564 C572 0.950 . S
H565 C577 0.950 . S
H566 C574 0.950 . S
H567 C576 0.950 . S
H568 C578 0.950 . S
H569 C580 0.950 . S
H570 C582 0.950 . S
H571 C583 0.950 . S
C572 H564 0.950 . S
C572 C573 1.386 . S
C572 C574 1.391 . S
C573 C572 1.386 . S
C573 C577 1.393 . S
C574 H566 0.950 . S
C574 C572 1.391 . S
C574 C575 1.400 . S
C575 C574 1.400 . S
C575 C576 1.398 . S
C575 C581 1.491 . S
C576 H567 0.950 . S
C576 C575 1.398 . S
C576 C577 1.391 . S
C577 H565 0.950 . S
C577 C573 1.393 . S
C577 C576 1.391 . S
C578 H568 0.950 . S
C578 C579 1.386 . S
C578 C580 1.391 . S
C579 C578 1.386 . S
C579 C583 1.393 . S
C580 H569 0.950 . S
C580 C578 1.391 . S
C580 C581 1.400 . S
C581 C575 1.491 . S
C581 C580 1.400 . S
C581 C582 1.398 . S
C582 H570 0.950 . S
C582 C581 1.398 . S
C582 C583 1.391 . S
C583 H571 0.950 . S
C583 C579 1.393 . S
C583 C582 1.391 . S
H584 C592 0.950 . S
H585 C597 0.950 . S
H586 C594 0.950 . S
H587 C596 0.950 . S
H588 C598 0.950 . S
H589 C600 0.950 . S
H590 C602 0.950 . S
H591 C603 0.950 . S
C592 H584 0.950 . S
C592 C593 1.386 . S
C592 C594 1.391 . S
C593 C592 1.386 . S
C593 C597 1.393 . S
C594 H586 0.950 . S
C594 C592 1.391 . S
C594 C595 1.400 . S
C595 C594 1.400 . S
C595 C596 1.398 . S
C595 C601 1.491 . S
C596 H587 0.950 . S
C596 C595 1.398 . S
C596 C597 1.391 . S
C597 H585 0.950 . S
C597 C593 1.393 . S
C597 C596 1.391 . S
C598 H588 0.950 . S
C598 C599 1.386 . S
C598 C600 1.391 . S
C599 C598 1.386 . S
C599 C603 1.393 . S
C600 H589 0.950 . S
C600 C598 1.391 . S
C600 C601 1.400 . S
C601 C595 1.491 . S
C601 C600 1.400 . S
C601 C602 1.398 . S
C602 H590 0.950 . S
C602 C601 1.398 . S
C602 C603 1.391 . S
C603 H591 0.950 . S
C603 C599 1.393 . S
C603 C602 1.391 . S
H604 C612 0.950 . S
H605 C617 0.950 . S
H606 C614 0.950 . S
H607 C616 0.950 . S
H608 C618 0.950 . S
H609 C620 0.950 . S
H610 C622 0.950 . S
H611 C623 0.950 . S
C612 H604 0.950 . S
C612 C613 1.386 . S
C612 C614 1.391 . S
C613 C612 1.386 . S
C613 C617 1.393 . S
C614 H606 0.950 . S
C614 C612 1.391 . S
C614 C615 1.400 . S
C615 C614 1.400 . S
C615 C616 1.398 . S
C615 C621 1.491 . S
C616 H607 0.950 . S
C616 C615 1.398 . S
C616 C617 1.391 . S
C617 H605 0.950 . S
C617 C613 1.393 . S
C617 C616 1.391 . S
C618 H608 0.950 . S
C618 C619 1.386 . S
C618 C620 1.391 . S
C619 C618 1.386 . S
C619 C623 1.393 . S
C620 H609 0.950 . S
C620 C618 1.391 . S
C620 C621 1.400 . S
C621 C615 1.491 . S
C621 C620 1.400 . S
C621 C622 1.398 . S
C622 H610 0.950 . S
C622 C621 1.398 . S
C622 C623 1.391 . S
C623 H611 0.950 . S
C623 C619 1.393 . S
C623 C622 1.391 . S
H624 C632 0.950 . S
H625 C637 0.950 . S
H626 C634 0.950 . S
H627 C636 0.950 . S
H628 C638 0.950 . S
H629 C640 0.950 . S
H630 C642 0.950 . S
H631 C643 0.950 . S
C632 H624 0.950 . S
C632 C633 1.386 . S
C632 C634 1.391 . S
C633 C632 1.386 . S
C633 C637 1.393 . S
C634 H626 0.950 . S
C634 C632 1.391 . S
C634 C635 1.400 . S
C635 C634 1.400 . S
C635 C636 1.398 . S
C635 C641 1.491 . S
C636 H627 0.950 . S
C636 C635 1.398 . S
C636 C637 1.391 . S
C637 H625 0.950 . S
C637 C633 1.393 . S
C637 C636 1.391 . S
C638 H628 0.950 . S
C638 C639 1.386 . S
C638 C640 1.391 . S
C639 C638 1.386 . S
C639 C643 1.393 . S
C640 H629 0.950 . S
C640 C638 1.391 . S
C640 C641 1.400 . S
C641 C635 1.491 . S
C641 C640 1.400 . S
C641 C642 1.398 . S
C642 H630 0.950 . S
C642 C641 1.398 . S
C642 C643 1.391 . S
C643 H631 0.950 . S
C643 C639 1.393 . S
C643 C642 1.391 . S
H644 C652 0.950 . S
H645 C657 0.950 . S
H646 C654 0.950 . S
H647 C656 0.950 . S
H648 C658 0.950 . S
H649 C660 0.950 . S
H650 C662 0.950 . S
H651 C663 0.950 . S
C652 H644 0.950 . S
C652 C653 1.386 . S
C652 C654 1.391 . S
C653 C652 1.386 . S
C653 C657 1.393 . S
C654 H646 0.950 . S
C654 C652 1.391 . S
C654 C655 1.400 . S
C655 C654 1.400 . S
C655 C656 1.398 . S
C655 C661 1.491 . S
C656 H647 0.950 . S
C656 C655 1.398 . S
C656 C657 1.391 . S
C657 H645 0.950 . S
C657 C653 1.393 . S
C657 C656 1.391 . S
C658 H648 0.950 . S
C658 C659 1.386 . S
C658 C660 1.391 . S
C659 C658 1.386 . S
C659 C663 1.393 . S
C660 H649 0.950 . S
C660 C658 1.391 . S
C660 C661 1.400 . S
C661 C655 1.491 . S
C661 C660 1.400 . S
C661 C662 1.398 . S
C662 H650 0.950 . S
C662 C661 1.398 . S
C662 C663 1.391 . S
C663 H651 0.950 . S
C663 C659 1.393 . S
C663 C662 1.391 . S
H664 C672 0.950 . S
H665 C677 0.950 . S
H666 C674 0.950 . S
H667 C676 0.950 . S
H668 C678 0.950 . S
H669 C680 0.950 . S
H670 C682 0.950 . S
H671 C683 0.950 . S
C672 H664 0.950 . S
C672 C673 1.386 . S
C672 C674 1.391 . S
C673 C672 1.386 . S
C673 C677 1.393 . S
C674 H666 0.950 . S
C674 C672 1.391 . S
C674 C675 1.400 . S
C675 C674 1.400 . S
C675 C676 1.398 . S
C675 C681 1.491 . S
C676 H667 0.950 . S
C676 C675 1.398 . S
C676 C677 1.391 . S
C677 H665 0.950 . S
C677 C673 1.393 . S
C677 C676 1.391 . S
C678 H668 0.950 . S
C678 C679 1.386 . S
C678 C680 1.391 . S
C679 C678 1.386 . S
C679 C683 1.393 . S
C680 H669 0.950 . S
C680 C678 1.391 . S
C680 C681 1.400 . S
C681 C675 1.491 . S
C681 C680 1.400 . S
C681 C682 1.398 . S
C682 H670 0.950 . S
C682 C681 1.398 . S
C682 C683 1.391 . S
C683 H671 0.950 . S
C683 C679 1.393 . S
C683 C682 1.391 . S
H684 C692 0.950 . S
H685 C697 0.950 . S
H686 C694 0.950 . S
H687 C696 0.950 . S
H688 C698 0.950 . S
H689 C700 0.950 . S
H690 C702 0.950 . S
H691 C703 0.950 . S
C692 H684 0.950 . S
C692 C693 1.386 . S
C692 C694 1.391 . S
C693 C692 1.386 . S
C693 C697 1.393 . S
C694 H686 0.950 . S
C694 C692 1.391 . S
C694 C695 1.400 . S
C695 C694 1.400 . S
C695 C696 1.398 . S
C695 C701 1.491 . S
C696 H687 0.950 . S
C696 C695 1.398 . S
C696 C697 1.391 . S
C697 H685 0.950 . S
C697 C693 1.393 . S
C697 C696 1.391 . S
C698 H688 0.950 . S
C698 C699 1.386 . S
C698 C700 1.391 . S
C699 C698 1.386 . S
C699 C703 1.393 . S
C700 H689 0.950 . S
C700 C698 1.391 . S
C700 C701 1.400 . S
C701 C695 1.491 . S
C701 C700 1.400 . S
C701 C702 1.398 . S
C702 H690 0.950 . S
C702 C701 1.398 . S
C702 C703 1.391 . S
C703 H691 0.950 . S
C703 C699 1.393 . S
C703 C702 1.391 . S
H704 C712 0.950 . S
H705 C717 0.950 . S
H706 C714 0.950 . S
H707 C716 0.950 . S
H708 C718 0.950 . S
H709 C720 0.950 . S
H710 C722 0.950 . S
H711 C723 0.950 . S
C712 H704 0.950 . S
C712 C713 1.386 . S
C712 C714 1.391 . S
C713 C712 1.386 . S
C713 C717 1.393 . S
C714 H706 0.950 . S
C714 C712 1.391 . S
C714 C715 1.400 . S
C715 C714 1.400 . S
C715 C716 1.398 . S
C715 C721 1.491 1_545 S
C716 H707 0.950 . S
C716 C715 1.398 . S
C716 C717 1.391 . S
C717 H705 0.950 . S
C717 C713 1.393 . S
C717 C716 1.391 . S
C718 H708 0.950 . S
C718 C719 1.386 . S
C718 C720 1.391 . S
C719 C718 1.386 . S
C719 C723 1.393 . S
C720 H709 0.950 . S
C720 C718 1.391 . S
C720 C721 1.400 . S
C721 C715 1.491 1_565 S
C721 C720 1.400 . S
C721 C722 1.398 . S
C722 H710 0.950 . S
C722 C721 1.398 . S
C722 C723 1.391 . S
C723 H711 0.950 . S
C723 C719 1.393 . S
C723 C722 1.391 . S
H724 C732 0.950 . S
H725 C737 0.950 . S
H726 C734 0.950 . S
H727 C736 0.950 . S
H728 C738 0.950 . S
H729 C740 0.950 . S
H730 C742 0.950 . S
H731 C743 0.950 . S
C732 H724 0.950 . S
C732 C733 1.386 . S
C732 C734 1.391 . S
C733 C732 1.386 . S
C733 C737 1.393 . S
C734 H726 0.950 . S
C734 C732 1.391 . S
C734 C735 1.400 . S
C735 C734 1.400 . S
C735 C736 1.398 . S
C735 C741 1.491 1_655 S
C736 H727 0.950 . S
C736 C735 1.398 . S
C736 C737 1.391 . S
C737 H725 0.950 . S
C737 C733 1.393 . S
C737 C736 1.391 . S
C738 H728 0.950 . S
C738 C739 1.386 . S
C738 C740 1.391 . S
C739 C738 1.386 . S
C739 C743 1.393 . S
C740 H729 0.950 . S
C740 C738 1.391 . S
C740 C741 1.400 . S
C741 C735 1.491 1_455 S
C741 C740 1.400 . S
C741 C742 1.398 . S
C742 H730 0.950 . S
C742 C741 1.398 . S
C742 C743 1.391 . S
C743 H731 0.950 . S
C743 C739 1.393 . S
C743 C742 1.391 . S
H744 C752 0.950 . S
H745 C757 0.950 . S
H746 C754 0.950 . S
H747 C756 0.950 . S
H748 C758 0.950 . S
H749 C760 0.950 . S
H750 C762 0.950 . S
H751 C763 0.950 . S
C752 H744 0.950 . S
C752 C753 1.386 . S
C752 C754 1.391 . S
C753 C752 1.386 . S
C753 C757 1.393 . S
C754 H746 0.950 . S
C754 C752 1.391 . S
C754 C755 1.400 . S
C755 C754 1.400 . S
C755 C756 1.398 . S
C755 C761 1.491 1_545 S
C756 H747 0.950 . S
C756 C755 1.398 . S
C756 C757 1.391 . S
C757 H745 0.950 . S
C757 C753 1.393 . S
C757 C756 1.391 . S
C758 H748 0.950 . S
C758 C759 1.386 . S
C758 C760 1.391 . S
C759 C758 1.386 . S
C759 C763 1.393 . S
C760 H749 0.950 . S
C760 C758 1.391 . S
C760 C761 1.400 . S
C761 C755 1.491 1_565 S
C761 C760 1.400 . S
C761 C762 1.398 . S
C762 H750 0.950 . S
C762 C761 1.398 . S
C762 C763 1.391 . S
C763 H751 0.950 . S
C763 C759 1.393 . S
C763 C762 1.391 . S
H764 C772 0.950 . S
H765 C777 0.950 . S
H766 C774 0.950 . S
H767 C776 0.950 . S
H768 C778 0.950 . S
H769 C780 0.950 . S
H770 C782 0.950 . S
H771 C783 0.950 . S
C772 H764 0.950 . S
C772 C773 1.386 . S
C772 C774 1.391 . S
C773 C772 1.386 . S
C773 C777 1.393 . S
C774 H766 0.950 . S
C774 C772 1.391 . S
C774 C775 1.400 . S
C775 C774 1.400 . S
C775 C776 1.398 . S
C775 C781 1.491 1_455 S
C776 H767 0.950 . S
C776 C775 1.398 . S
C776 C777 1.391 . S
C777 H765 0.950 . S
C777 C773 1.393 . S
C777 C776 1.391 . S
C778 H768 0.950 . S
C778 C779 1.386 . S
C778 C780 1.391 . S
C779 C778 1.386 . S
C779 C783 1.393 . S
C780 H769 0.950 . S
C780 C778 1.391 . S
C780 C781 1.400 . S
C781 C775 1.491 1_655 S
C781 C780 1.400 . S
C781 C782 1.398 . S
C782 H770 0.950 . S
C782 C781 1.398 . S
C782 C783 1.391 . S
C783 H771 0.950 . S
C783 C779 1.393 . S
C783 C782 1.391 . S
H784 C792 0.950 . S
H785 C797 0.950 . S
H786 C794 0.950 . S
H787 C796 0.950 . S
H788 C798 0.950 . S
H789 C800 0.950 . S
H790 C802 0.950 . S
H791 C803 0.950 . S
C792 H784 0.950 . S
C792 C793 1.386 . S
C792 C794 1.391 . S
C793 C792 1.386 . S
C793 C797 1.393 . S
C794 H786 0.950 . S
C794 C792 1.391 . S
C794 C795 1.400 . S
C795 C794 1.400 . S
C795 C796 1.398 . S
C795 C801 1.491 1_545 S
C796 H787 0.950 . S
C796 C795 1.398 . S
C796 C797 1.391 . S
C797 H785 0.950 . S
C797 C793 1.393 . S
C797 C796 1.391 . S
C798 H788 0.950 . S
C798 C799 1.386 . S
C798 C800 1.391 . S
C799 C798 1.386 . S
C799 C803 1.393 . S
C800 H789 0.950 . S
C800 C798 1.391 . S
C800 C801 1.400 . S
C801 C795 1.491 1_565 S
C801 C800 1.400 . S
C801 C802 1.398 . S
C802 H790 0.950 . S
C802 C801 1.398 . S
C802 C803 1.391 . S
C803 H791 0.950 . S
C803 C799 1.393 . S
C803 C802 1.391 . S
H804 C812 0.950 . S
H805 C817 0.950 . S
H806 C814 0.950 . S
H807 C816 0.950 . S
H808 C818 0.950 . S
H809 C820 0.950 . S
H810 C822 0.950 . S
H811 C823 0.950 . S
C812 H804 0.950 . S
C812 C813 1.386 . S
C812 C814 1.391 . S
C813 C812 1.386 . S
C813 C817 1.393 . S
C814 H806 0.950 . S
C814 C812 1.391 . S
C814 C815 1.400 . S
C815 C814 1.400 . S
C815 C816 1.398 . S
C815 C821 1.491 1_655 S
C816 H807 0.950 . S
C816 C815 1.398 . S
C816 C817 1.391 . S
C817 H805 0.950 . S
C817 C813 1.393 . S
C817 C816 1.391 . S
C818 H808 0.950 . S
C818 C819 1.386 . S
C818 C820 1.391 . S
C819 C818 1.386 . S
C819 C823 1.393 . S
C820 H809 0.950 . S
C820 C818 1.391 . S
C820 C821 1.400 . S
C821 C815 1.491 1_455 S
C821 C820 1.400 . S
C821 C822 1.398 . S
C822 H810 0.950 . S
C822 C821 1.398 . S
C822 C823 1.391 . S
C823 H811 0.950 . S
C823 C819 1.393 . S
C823 C822 1.391 . S
H824 C832 0.950 . S
H825 C837 0.950 . S
H826 C834 0.950 . S
H827 C836 0.950 . S
H828 C838 0.950 . S
H829 C840 0.950 . S
H830 C842 0.950 . S
H831 C843 0.950 . S
C832 H824 0.950 . S
C832 C833 1.386 . S
C832 C834 1.391 . S
C833 C832 1.386 . S
C833 C837 1.393 . S
C834 H826 0.950 . S
C834 C832 1.391 . S
C834 C835 1.400 . S
C835 C834 1.400 . S
C835 C836 1.398 . S
C835 C841 1.491 1_565 S
C836 H827 0.950 . S
C836 C835 1.398 . S
C836 C837 1.391 . S
C837 H825 0.950 . S
C837 C833 1.393 . S
C837 C836 1.391 . S
C838 H828 0.950 . S
C838 C839 1.386 . S
C838 C840 1.391 . S
C839 C838 1.386 . S
C839 C843 1.393 . S
C840 H829 0.950 . S
C840 C838 1.391 . S
C840 C841 1.400 . S
C841 C835 1.491 1_545 S
C841 C840 1.400 . S
C841 C842 1.398 . S
C842 H830 0.950 . S
C842 C841 1.398 . S
C842 C843 1.391 . S
C843 H831 0.950 . S
C843 C839 1.393 . S
C843 C842 1.391 . S
H844 C852 0.950 . S
H845 C857 0.950 . S
H846 C854 0.950 . S
H847 C856 0.950 . S
H848 C858 0.950 . S
H849 C860 0.950 . S
H850 C862 0.950 . S
H851 C863 0.950 . S
C852 H844 0.950 . S
C852 C853 1.386 . S
C852 C854 1.391 . S
C853 C852 1.386 . S
C853 C857 1.393 . S
C854 H846 0.950 . S
C854 C852 1.391 . S
C854 C855 1.400 . S
C855 C854 1.400 . S
C855 C856 1.398 . S
C855 C861 1.491 1_455 S
C856 H847 0.950 . S
C856 C855 1.398 . S
C856 C857 1.391 . S
C857 H845 0.950 . S
C857 C853 1.393 . S
C857 C856 1.391 . S
C858 H848 0.950 . S
C858 C859 1.386 . S
C858 C860 1.391 . S
C859 C858 1.386 . S
C859 C863 1.393 . S
C860 H849 0.950 . S
C860 C858 1.391 . S
C860 C861 1.400 . S
C861 C855 1.491 1_655 S
C861 C860 1.400 . S
C861 C862 1.398 . S
C862 H850 0.950 . S
C862 C861 1.398 . S
C862 C863 1.391 . S
C863 H851 0.950 . S
C863 C859 1.393 . S
C863 C862 1.391 . S
C233 C81 1.200 . S
C239 C11 1.186 . S
C253 C95 1.194 . S
C259 C25 1.186 . S
C273 C39 1.201 . S
C279 C109 1.186 . S
C293 C53 1.199 . S
C299 C67 1.186 . S
C313 C193 1.190 . S
C319 C123 1.188 . S
C333 C207 1.198 . S
C339 C137 1.206 . S
C353 C151 1.199 . S
C359 C221 1.186 . S
C373 C165 1.203 . S
C379 C179 1.187 . S
C393 C152 1.531 . S
C399 C12 1.530 . S
C413 C166 1.530 . S
C419 C26 1.531 . S
C433 C124 1.522 . S
C439 C40 1.521 . S
C453 C54 1.522 . S
C459 C138 1.524 . S
C473 C208 1.523 . S
C479 C68 1.522 . S
C493 C222 1.529 . S
C499 C82 1.527 . S
C513 C96 1.521 . S
C519 C180 1.522 . S
C533 C194 1.531 . S
C539 C110 1.530 . S
C553 C61 1.054 . S
C559 C5 1.104 . S
C573 C19 1.103 . S
C579 C75 1.052 . S
C593 C33 1.096 . S
C599 C89 1.049 . S
C613 C103 1.051 . S
C619 C47 1.102 . S
C633 C116 1.598 . S
C639 C172 1.605 . S
C653 C186 1.602 . S
C659 C130 1.600 . S
C673 C144 1.602 . S
C679 C200 1.600 . S
C693 C214 1.601 . S
C699 C158 1.607 . S
C713 C159 1.052 . S
C719 C187 1.103 . S
C733 C117 1.104 . S
C739 C201 1.074 . S
C753 C215 1.103 . S
C759 C131 1.075 . S
C773 C145 1.076 . S
C779 C173 1.102 . S
C793 C74 1.604 . S
C799 C46 1.604 . S
C813 C88 1.607 . S
C819 C4 1.599 . S
C833 C102 1.600 . S
C839 C18 1.602 . S
C853 C60 1.600 . S
C859 C32 1.607 . S
