# Generated by pormake.
# Topology mmt, (4)-cn, num edge types: 1
# Building blocks:
#     Node 0, Type 0, BuildingBlock: CEKHIL_clean_sbu_0, # of connection points: 4
#     Node 1, Type 0, BuildingBlock: CEKHIL_clean_sbu_0, # of connection points: 4
#     Node 2, Type 0, BuildingBlock: CEKHIL_clean_sbu_0, # of connection points: 4
#     Node 3, Type 0, BuildingBlock: CEKHIL_clean_sbu_0, # of connection points: 4
#     Node 4, Type 0, BuildingBlock: CEKHIL_clean_sbu_0, # of connection points: 4
#     Node 5, Type 0, BuildingBlock: CEKHIL_clean_sbu_0, # of connection points: 4
#     Node 6, Type 0, BuildingBlock: CEKHIL_clean_sbu_0, # of connection points: 4
#     Node 7, Type 0, BuildingBlock: CEKHIL_clean_sbu_0, # of connection points: 4
#     Edge 8, Type (0, 0), BuildingBlock: MIFKUJ_clean_linker_0, # of connection points: 2
#     Edge 9, Type (0, 0), BuildingBlock: MIFKUJ_clean_linker_0, # of connection points: 2
#     Edge 10, Type (0, 0), BuildingBlock: MIFKUJ_clean_linker_0, # of connection points: 2
#     Edge 11, Type (0, 0), BuildingBlock: MIFKUJ_clean_linker_0, # of connection points: 2
#     Edge 12, Type (0, 0), BuildingBlock: MIFKUJ_clean_linker_0, # of connection points: 2
#     Edge 13, Type (0, 0), BuildingBlock: MIFKUJ_clean_linker_0, # of connection points: 2
#     Edge 14, Type (0, 0), BuildingBlock: MIFKUJ_clean_linker_0, # of connection points: 2
#     Edge 15, Type (0, 0), BuildingBlock: MIFKUJ_clean_linker_0, # of connection points: 2
#     Edge 16, Type (0, 0), BuildingBlock: MIFKUJ_clean_linker_0, # of connection points: 2
#     Edge 17, Type (0, 0), BuildingBlock: MIFKUJ_clean_linker_0, # of connection points: 2
#     Edge 18, Type (0, 0), BuildingBlock: MIFKUJ_clean_linker_0, # of connection points: 2
#     Edge 19, Type (0, 0), BuildingBlock: MIFKUJ_clean_linker_0, # of connection points: 2
#     Edge 20, Type (0, 0), BuildingBlock: MIFKUJ_clean_linker_0, # of connection points: 2
#     Edge 21, Type (0, 0), BuildingBlock: MIFKUJ_clean_linker_0, # of connection points: 2
#     Edge 22, Type (0, 0), BuildingBlock: MIFKUJ_clean_linker_0, # of connection points: 2
#     Edge 23, Type (0, 0), BuildingBlock: MIFKUJ_clean_linker_0, # of connection points: 2
# Relax obj value: 0.033
# Max RMSD: 0.050
# Mean RMSD: 0.050
data_MOF--net-mmt--node1-CEKHIL_clean_sbu_0--edge1-MIFKUJ_clean_linker_0
_symmetry_space_group_name_H-M    P1
_symmetry_Int_Tables_number       1
_symmetry_cell_setting            triclinic
loop_
_symmetry_equiv_pos_as_xyz
'x, y, z'
_cell_length_a     29.005207
_cell_length_b     47.654639
_cell_length_c     57.199504
_cell_angle_alpha  89.982917
_cell_angle_beta   89.980875
_cell_angle_gamma 89.996615
loop_
_atom_site_label
_atom_site_type_symbol
_atom_site_fract_x
_atom_site_fract_y
_atom_site_fract_z
_atom_type_partial_charge
Co0 Co 0.10032 0.57655 0.35923 0.0
O1 O 0.0597 0.58072 0.38582 0.0
O2 O 0.10008 0.54257 0.37819 0.0
C3 C 0.13636 0.61857 0.36318 0.0
O4 O 0.1475 0.5651 0.3342 0.0
Co5 Co 0.09289 0.61768 0.31707 0.0
O6 O 0.14938 0.59828 0.30615 0.0
C7 C 0.02321 0.5732 0.32281 0.0
C8 C 0.07174 0.55561 0.3921 0.0
C9 C 0.16446 0.57562 0.31523 0.0
O10 O 0.04749 0.56189 0.33923 0.0
O11 O 0.03321 0.59689 0.31355 0.0
O12 O 0.14882 0.59723 0.37582 0.0
O13 O 0.10015 0.61458 0.35051 0.0
Co14 Co 0.40832 0.92712 0.35725 0.0
O15 O 0.45108 0.92337 0.38307 0.0
O16 O 0.40856 0.96089 0.3764 0.0
C17 C 0.37431 0.88458 0.36184 0.0
O18 O 0.35875 0.93833 0.33328 0.0
Co19 Co 0.41209 0.88629 0.31466 0.0
O20 O 0.3543 0.90522 0.3053 0.0
C21 C 0.47947 0.93283 0.31782 0.0
C22 C 0.43817 0.94816 0.3898 0.0
C23 C 0.34004 0.92784 0.31472 0.0
O24 O 0.45904 0.94261 0.33619 0.0
O25 O 0.4679 0.9097 0.30806 0.0
O26 O 0.36209 0.90562 0.37484 0.0
O27 O 0.40901 0.88912 0.34825 0.0
Co28 Co 0.5995 0.43048 0.14976 0.0
O29 O 0.55613 0.42656 0.12425 0.0
O30 O 0.59836 0.46428 0.13065 0.0
C31 C 0.63333 0.38792 0.14483 0.0
O32 O 0.64967 0.44195 0.17328 0.0
Co33 Co 0.59993 0.39001 0.19242 0.0
O34 O 0.66204 0.40599 0.19796 0.0
C35 C 0.53106 0.43607 0.19023 0.0
C36 C 0.56857 0.45142 0.11745 0.0
C37 C 0.67328 0.42977 0.18952 0.0
O38 O 0.54922 0.4456 0.17118 0.0
O39 O 0.54479 0.41354 0.20029 0.0
O40 O 0.64549 0.40912 0.13195 0.0
O41 O 0.59918 0.39252 0.15876 0.0
Co42 Co 0.90729 0.07976 0.15136 0.0
O43 O 0.94938 0.08255 0.12519 0.0
O44 O 0.90676 0.04536 0.13296 0.0
C45 C 0.87355 0.1223 0.146 0.0
O46 O 0.8583 0.06954 0.17595 0.0
Co47 Co 0.91188 0.12205 0.19284 0.0
O48 O 0.85324 0.10428 0.20249 0.0
C49 C 0.97911 0.07529 0.19045 0.0
C50 C 0.93621 0.05757 0.11912 0.0
C51 C 0.83923 0.08108 0.19398 0.0
O52 O 0.95852 0.06493 0.17237 0.0
O53 O 0.96756 0.09869 0.19978 0.0
O54 O 0.86053 0.10075 0.13376 0.0
O55 O 0.9087 0.11804 0.15934 0.0
Co56 Co 0.90311 0.42477 0.65041 0.0
O57 O 0.94335 0.42063 0.62368 0.0
O58 O 0.90285 0.4587 0.63138 0.0
C59 C 0.86735 0.38262 0.64662 0.0
O60 O 0.85624 0.43618 0.67559 0.0
Co61 Co 0.91119 0.38394 0.69262 0.0
O62 O 0.85359 0.40247 0.70313 0.0
C63 C 0.98032 0.42877 0.68675 0.0
C64 C 0.93112 0.4457 0.61741 0.0
C65 C 0.83869 0.4253 0.69428 0.0
O66 O 0.9561 0.43966 0.67012 0.0
O67 O 0.97041 0.40523 0.69633 0.0
O68 O 0.85445 0.40397 0.63411 0.0
O69 O 0.90376 0.3867 0.65914 0.0
Co70 Co 0.59344 0.07407 0.6517 0.0
O71 O 0.55134 0.07754 0.62559 0.0
O72 O 0.59361 0.04006 0.6328 0.0
C73 C 0.62765 0.1166 0.64688 0.0
O74 O 0.64245 0.06316 0.67603 0.0
Co75 Co 0.5898 0.11531 0.69383 0.0
O76 O 0.64995 0.09832 0.70197 0.0
C77 C 0.52257 0.0685 0.69123 0.0
C78 C 0.56435 0.05268 0.61912 0.0
C79 C 0.66309 0.07492 0.69349 0.0
O80 O 0.5422 0.05887 0.67258 0.0
O81 O 0.5348 0.09144 0.70111 0.0
O82 O 0.64029 0.09524 0.63433 0.0
O83 O 0.59251 0.11225 0.66024 0.0
Co84 Co 0.40353 0.57559 0.85668 0.0
O85 O 0.44567 0.57997 0.88266 0.0
O86 O 0.4046 0.54187 0.8759 0.0
C87 C 0.36871 0.61796 0.8612 0.0
O88 O 0.35474 0.56356 0.83267 0.0
Co89 Co 0.40411 0.61587 0.814 0.0
O90 O 0.34317 0.59885 0.80726 0.0
C91 C 0.47453 0.5708 0.81733 0.0
C92 C 0.43359 0.55501 0.88937 0.0
C93 C 0.33198 0.57514 0.81584 0.0
O94 O 0.45507 0.56082 0.83589 0.0
O95 O 0.46101 0.59337 0.80728 0.0
O96 O 0.35617 0.59663 0.87384 0.0
O97 O 0.40356 0.61357 0.84767 0.0
Co98 Co 0.09295 0.92544 0.85956 0.0
O99 O 0.0524 0.92222 0.8863 0.0
O100 O 0.09304 0.95999 0.87778 0.0
C101 C 0.12881 0.8835 0.86457 0.0
O102 O 0.14012 0.93612 0.83426 0.0
Co103 Co 0.08702 0.88283 0.81841 0.0
O104 O 0.144 0.90158 0.80747 0.0
C105 C 0.01761 0.92814 0.82207 0.0
C106 C 0.06474 0.94745 0.89204 0.0
C107 C 0.1581 0.92483 0.81584 0.0
O108 O 0.04 0.93937 0.83923 0.0
O109 O 0.02893 0.90458 0.81298 0.0
O110 O 0.14161 0.90533 0.87652 0.0
O111 O 0.09261 0.88709 0.85183 0.0
H112 H 0.19047 0.58254 0.26978 0.0
H113 H 0.25216 0.55894 0.24862 0.0
H114 H 0.28637 0.51151 0.31041 0.0
H115 H 0.22388 0.53503 0.33191 0.0
H116 H 0.36402 0.53551 0.28727 0.0
H117 H 0.23285 0.4789 0.26893 0.0
H118 H 0.15346 0.46943 0.25574 0.0
H119 H 0.18501 0.50421 0.18835 0.0
H120 H 0.26447 0.51429 0.20126 0.0
H121 H 0.50343 0.43131 0.23555 0.0
H122 H 0.44216 0.45647 0.2556 0.0
H123 H 0.41145 0.50212 0.19242 0.0
H124 H 0.47365 0.47692 0.17196 0.0
H125 H 0.33226 0.48006 0.21561 0.0
H126 H 0.46398 0.53585 0.23367 0.0
H127 H 0.54343 0.54516 0.24684 0.0
H128 H 0.51099 0.51198 0.31468 0.0
H129 H 0.43147 0.50205 0.3018 0.0
C130 C 0.211 0.56711 0.279 0.0
C131 C 0.20213 0.56073 0.30263 0.0
C132 C 0.24621 0.55354 0.26678 0.0
C133 C 0.27374 0.53335 0.27786 0.0
C134 C 0.26545 0.52702 0.30151 0.0
C135 C 0.22965 0.54038 0.31374 0.0
C136 C 0.31125 0.51918 0.2646 0.0
C137 C 0.35705 0.52304 0.27181 0.0
C138 C 0.30224 0.50363 0.244 0.0
C139 C 0.25448 0.49764 0.23616 0.0
C140 C 0.22275 0.48479 0.25137 0.0
C141 C 0.17776 0.47925 0.24393 0.0
C142 C 0.16416 0.48629 0.22125 0.0
C143 C 0.19557 0.49881 0.20594 0.0
C144 C 0.24061 0.50443 0.2133 0.0
C145 C 0.48377 0.44665 0.22576 0.0
C146 C 0.49352 0.45199 0.20203 0.0
C147 C 0.4488 0.46114 0.23736 0.0
C148 C 0.42239 0.4813 0.22559 0.0
C149 C 0.43153 0.48666 0.20185 0.0
C150 C 0.46714 0.47233 0.19021 0.0
C151 C 0.38503 0.49631 0.23831 0.0
C152 C 0.33925 0.49261 0.23102 0.0
C153 C 0.39406 0.51202 0.25884 0.0
C154 C 0.44186 0.51795 0.26669 0.0
C155 C 0.47389 0.53029 0.25133 0.0
C156 C 0.51892 0.53572 0.25876 0.0
C157 C 0.53228 0.52909 0.28156 0.0
C158 C 0.5006 0.51707 0.29701 0.0
C159 C 0.45552 0.51155 0.28966 0.0
H160 H 0.56716 0.53333 0.28728 0.0
H161 H 0.12931 0.48198 0.21552 0.0
H162 H 0.03038 0.03064 0.17362 0.0
H163 H 0.09199 0.00516 0.19407 0.0
H164 H 0.07233 0.05767 0.2547 0.0
H165 H 0.01259 0.08353 0.23436 0.0
H166 H 0.15914 0.05218 0.24792 0.0
H167 H 0.0311 0.98735 0.25023 0.0
H168 H 0.96985 0.95784 0.23319 0.0
H169 H 0.07111 0.9115 0.19434 0.0
H170 H 0.13292 0.94096 0.21095 0.0
H171 H 0.2866 0.97169 0.33107 0.0
H172 H 0.22439 0.99611 0.31029 0.0
H173 H 0.24614 0.94305 0.25019 0.0
H174 H 0.30663 0.91816 0.27091 0.0
H175 H 0.15875 0.94864 0.25627 0.0
H176 H 0.28677 0.01345 0.2542 0.0
H177 H 0.34788 0.043 0.27132 0.0
H178 H 0.24628 0.08948 0.30983 0.0
H179 H 0.18462 0.05997 0.29315 0.0
C180 C 0.03931 0.03673 0.19129 0.0
C181 C 0.01656 0.05926 0.20223 0.0
C182 C 0.07439 0.02206 0.20304 0.0
C183 C 0.0867 0.02928 0.2261 0.0
C184 C 0.06387 0.05171 0.23694 0.0
C185 C 0.02949 0.06652 0.22518 0.0
C186 C 0.12344 0.01392 0.23918 0.0
C187 C 0.15868 0.02954 0.24993 0.0
C188 C 0.12367 0.98433 0.24152 0.0
C189 C 0.08656 0.96653 0.23165 0.0
C190 C 0.04026 0.97098 0.23793 0.0
C191 C 0.00545 0.95425 0.22837 0.0
C192 C 0.01657 0.93286 0.21264 0.0
C193 C 0.06254 0.9281 0.2065 0.0
C194 C 0.09747 0.94479 0.21599 0.0
C195 C 0.27801 0.96522 0.31346 0.0
C196 C 0.30177 0.94293 0.30274 0.0
C197 C 0.24256 0.97929 0.30152 0.0
C198 C 0.2308 0.97171 0.27847 0.0
C199 C 0.25427 0.94933 0.26792 0.0
C200 C 0.2891 0.9351 0.27987 0.0
C201 C 0.19431 0.98692 0.26509 0.0
C202 C 0.15918 0.97127 0.25426 0.0
C203 C 0.19413 0.0165 0.26268 0.0
C204 C 0.23116 0.03434 0.2726 0.0
C205 C 0.27751 0.02986 0.26643 0.0
C206 C 0.31224 0.04662 0.27604 0.0
C207 C 0.30098 0.06806 0.2917 0.0
C208 C 0.25496 0.07284 0.29773 0.0
C209 C 0.22011 0.05613 0.28818 0.0
H210 H 0.32791 0.081 0.29912 0.0
H211 H 0.98957 0.91993 0.20525 0.0
H212 H 0.74698 0.40624 0.21166 0.0
H213 H 0.80737 0.42994 0.23385 0.0
H214 H 0.74881 0.51021 0.21552 0.0
H215 H 0.68901 0.4865 0.19252 0.0
H216 H 0.83927 0.51367 0.21505 0.0
H217 H 0.72848 0.47692 0.27001 0.0
H218 H 0.68104 0.43993 0.28823 0.0
H219 H 0.80334 0.39412 0.30648 0.0
H220 H 0.85149 0.43068 0.28811 0.0
H221 H 0.94804 0.59505 0.30084 0.0
H222 H 0.88889 0.57 0.27891 0.0
H223 H 0.95087 0.49104 0.29824 0.0
H224 H 0.00958 0.51613 0.32099 0.0
H225 H 0.8601 0.48607 0.29806 0.0
H226 H 0.97104 0.5227 0.24379 0.0
H227 H 0.01907 0.5594 0.22558 0.0
H228 H 0.89741 0.60496 0.20586 0.0
H229 H 0.84865 0.5687 0.22423 0.0
C230 C 0.74718 0.42897 0.21215 0.0
C231 C 0.71289 0.44449 0.20049 0.0
C232 C 0.78161 0.44251 0.225 0.0
C233 C 0.78202 0.47189 0.22698 0.0
C234 C 0.74909 0.48751 0.21445 0.0
C235 C 0.71495 0.47395 0.20125 0.0
C236 C 0.81605 0.48621 0.24253 0.0
C237 C 0.84334 0.50785 0.23328 0.0
C238 C 0.82244 0.47823 0.26622 0.0
C239 C 0.79354 0.45642 0.27752 0.0
C240 C 0.74523 0.45889 0.27781 0.0
C241 C 0.71822 0.438 0.28817 0.0
C242 C 0.73916 0.41466 0.29846 0.0
C243 C 0.78717 0.4122 0.29849 0.0
C244 C 0.81433 0.43301 0.28813 0.0
C245 C 0.94881 0.57232 0.30069 0.0
C246 C 0.98381 0.5576 0.31251 0.0
C247 C 0.91509 0.558 0.28798 0.0
C248 C 0.91609 0.52861 0.28628 0.0
C249 C 0.94954 0.51373 0.29908 0.0
C250 C 0.98303 0.52809 0.31215 0.0
C251 C 0.88307 0.51365 0.27061 0.0
C252 C 0.85604 0.49187 0.27983 0.0
C253 C 0.87699 0.52145 0.24687 0.0
C254 C 0.90622 0.54309 0.23554 0.0
C255 C 0.95455 0.54062 0.23568 0.0
C256 C 0.9819 0.56134 0.22532 0.0
C257 C 0.96131 0.58453 0.21461 0.0
C258 C 0.91331 0.587 0.21417 0.0
C259 C 0.8858 0.56635 0.22453 0.0
H260 H 0.98254 0.60056 0.20662 0.0
H261 H 0.71819 0.39851 0.30646 0.0
H262 H 0.78656 0.03622 0.17911 0.0
H263 H 0.72437 0.01256 0.20062 0.0
H264 H 0.74364 0.06919 0.25855 0.0
H265 H 0.80512 0.09292 0.23736 0.0
H266 H 0.73679 0.0145 0.27312 0.0
H267 H 0.654 0.07843 0.22447 0.0
H268 H 0.63143 0.10134 0.18759 0.0
H269 H 0.58375 0.02243 0.16064 0.0
H270 H 0.6066 0.99894 0.19732 0.0
H271 H 0.52761 0.97877 0.33464 0.0
H272 H 0.58808 0.00554 0.31432 0.0
H273 H 0.57512 0.9512 0.25444 0.0
H274 H 0.51551 0.92452 0.27434 0.0
H275 H 0.57793 0.00667 0.2417 0.0
H276 H 0.66333 0.94285 0.29072 0.0
H277 H 0.68562 0.92083 0.32806 0.0
H278 H 0.72786 1.001 0.3548 0.0
H279 H 0.70519 0.02356 0.31769 0.0
C280 C 0.77748 0.04366 0.1964 0.0
C281 C 0.80087 0.06657 0.20639 0.0
C282 C 0.74186 0.03016 0.20866 0.0
C283 C 0.72926 0.03916 0.2312 0.0
C284 C 0.75277 0.06183 0.24123 0.0
C285 C 0.78785 0.07548 0.22895 0.0
C286 C 0.69172 0.02498 0.24449 0.0
C287 C 0.70192 0.01309 0.26637 0.0
C288 C 0.64631 0.02289 0.23563 0.0
C289 C 0.63252 0.03687 0.21354 0.0
C290 C 0.63911 0.06591 0.2106 0.0
C291 C 0.62619 0.07901 0.18974 0.0
C292 C 0.60633 0.06334 0.17173 0.0
C293 C 0.59923 0.03453 0.17458 0.0
C294 C 0.61212 0.02131 0.19542 0.0
C295 C 0.53773 0.97251 0.31718 0.0
C296 C 0.51674 0.94933 0.30627 0.0
C297 C 0.57232 0.9878 0.30559 0.0
C298 C 0.58621 0.98033 0.28284 0.0
C299 C 0.56497 0.95743 0.27192 0.0
C300 C 0.53097 0.94205 0.28349 0.0
C301 C 0.62309 0.99597 0.27024 0.0
C302 C 0.61277 0.00816 0.24848 0.0
C303 C 0.66834 0.99845 0.27926 0.0
C304 C 0.68206 0.98494 0.30154 0.0
C305 C 0.67698 0.95582 0.30464 0.0
C306 C 0.68976 0.94323 0.32574 0.0
C307 C 0.70801 0.95952 0.34382 0.0
C308 C 0.71364 0.98842 0.3408 0.0
C309 C 0.70085 1.00112 0.31973 0.0
H310 H 0.7179 0.94974 0.36014 0.0
H311 H 0.59634 0.07353 0.1556 0.0
H312 H 0.52107 0.52375 0.83314 0.0
H313 H 0.58298 0.49811 0.81303 0.0
H314 H 0.57683 0.55691 0.75582 0.0
H315 H 0.51562 0.58243 0.77548 0.0
H316 H 0.57905 0.50339 0.74007 0.0
H317 H 0.66293 0.56039 0.79493 0.0
H318 H 0.683 0.5786 0.83396 0.0
H319 H 0.71836 0.49544 0.85666 0.0
H320 H 0.69786 0.47667 0.81781 0.0
H321 H 0.78947 0.47203 0.6804 0.0
H322 H 0.72752 0.49587 0.70181 0.0
H323 H 0.73986 0.43577 0.75782 0.0
H324 H 0.80146 0.41198 0.73679 0.0
H325 H 0.73375 0.48844 0.77483 0.0
H326 H 0.65171 0.43147 0.71986 0.0
H327 H 0.63129 0.41302 0.68096 0.0
H328 H 0.59188 0.49564 0.65863 0.0
H329 H 0.61273 0.51468 0.69732 0.0
C330 C 0.53303 0.53127 0.81633 0.0
C331 C 0.51322 0.55526 0.80605 0.0
C332 C 0.56849 0.51662 0.80487 0.0
C333 C 0.58465 0.52562 0.7829 0.0
C334 C 0.56491 0.54948 0.77268 0.0
C335 C 0.52991 0.56417 0.78411 0.0
C336 C 0.6219 0.51033 0.77027 0.0
C337 C 0.61303 0.50038 0.74759 0.0
C338 C 0.66596 0.50585 0.78022 0.0
C339 C 0.67835 0.51708 0.80356 0.0
C340 C 0.67459 0.54595 0.8083 0.0
C341 C 0.68612 0.55638 0.83038 0.0
C342 C 0.7018 0.53818 0.8478 0.0
C343 C 0.70611 0.50951 0.84316 0.0
C344 C 0.69457 0.49896 0.82111 0.0
C345 C 0.77897 0.46385 0.69725 0.0
C346 C 0.80054 0.43998 0.70675 0.0
C347 C 0.74344 0.47747 0.70946 0.0
C348 C 0.72881 0.46753 0.73141 0.0
C349 C 0.75051 0.44388 0.74097 0.0
C350 C 0.78571 0.43021 0.72878 0.0
C351 C 0.691 0.48167 0.74455 0.0
C352 C 0.69975 0.49139 0.76732 0.0
C353 C 0.64677 0.4859 0.73471 0.0
C354 C 0.63427 0.47455 0.71141 0.0
C355 C 0.63909 0.44575 0.70659 0.0
C356 C 0.62737 0.43518 0.68459 0.0
C357 C 0.61043 0.45316 0.66731 0.0
C358 C 0.60509 0.48175 0.67202 0.0
C359 C 0.61683 0.49244 0.69398 0.0
H360 H 0.60134 0.44493 0.65029 0.0
H361 H 0.71073 0.5463 0.86488 0.0
H362 H 0.71512 0.09436 0.7299 0.0
H363 H 0.7748 0.06989 0.75162 0.0
H364 H 0.76006 0.99802 0.70644 0.0
H365 H 0.69905 0.02231 0.68467 0.0
H366 H 0.76287 0.98229 0.7514 0.0
H367 H 0.85443 0.04244 0.7028 0.0
H368 H 0.87863 0.08734 0.68523 0.0
H369 H 0.90878 0.12028 0.7534 0.0
H370 H 0.88416 0.07568 0.77141 0.0
H371 H 0.96314 0.91023 0.78612 0.0
H372 H 0.90349 0.93585 0.7655 0.0
H373 H 0.92223 0.00647 0.81165 0.0
H374 H 0.98356 0.98099 0.83232 0.0
H375 H 0.9169 0.02347 0.76705 0.0
H376 H 0.82631 0.96321 0.81566 0.0
H377 H 0.80217 0.91832 0.83328 0.0
H378 H 0.77002 0.88572 0.76524 0.0
H379 H 0.79455 0.93029 0.74717 0.0
C380 C 0.72458 0.07341 0.72435 0.0
C381 C 0.70202 0.06036 0.70542 0.0
C382 C 0.75907 0.05947 0.73681 0.0
C383 C 0.77244 0.03219 0.73058 0.0
C384 C 0.75042 0.0191 0.71157 0.0
C385 C 0.71566 0.03307 0.69906 0.0
C386 C 0.80815 0.01712 0.74452 0.0
C387 C 0.7968 0.99111 0.7545 0.0
C388 C 0.85197 0.029 0.74927 0.0
C389 C 0.86705 0.05579 0.73847 0.0
C390 C 0.8659 0.05932 0.71406 0.0
C391 C 0.87975 0.08471 0.70402 0.0
C392 C 0.89513 0.10667 0.71819 0.0
C393 C 0.89681 0.10326 0.74244 0.0
C394 C 0.88297 0.07792 0.75257 0.0
C395 C 0.9546 0.93113 0.79217 0.0
C396 C 0.9784 0.94345 0.81104 0.0
C397 C 0.92009 0.94575 0.78032 0.0
C398 C 0.90776 0.97299 0.78714 0.0
C399 C 0.93102 0.98541 0.80609 0.0
C400 C 0.96592 0.97076 0.81798 0.0
C401 C 0.87168 0.98858 0.77384 0.0
C402 C 0.88293 0.01469 0.76399 0.0
C403 C 0.82772 0.97681 0.76922 0.0
C404 C 0.81261 0.95003 0.78005 0.0
C405 C 0.81438 0.9464 0.80444 0.0
C406 C 0.80058 0.92102 0.81451 0.0
C407 C 0.78466 0.89916 0.80038 0.0
C408 C 0.78238 0.90267 0.77616 0.0
C409 C 0.79617 0.928 0.76599 0.0
H410 H 0.77401 0.87952 0.80821 0.0
H411 H 0.90582 0.12631 0.71038 0.0
H412 H 0.26026 0.59746 0.79123 0.0
H413 H 0.20033 0.57257 0.76954 0.0
H414 H 0.25625 0.49341 0.79252 0.0
H415 H 0.31628 0.51828 0.81461 0.0
H416 H 0.24055 0.49646 0.74363 0.0
H417 H 0.15897 0.51325 0.8149 0.0
H418 H 0.12881 0.54128 0.84772 0.0
H419 H 0.05087 0.59191 0.79982 0.0
H420 H 0.08114 0.56442 0.76664 0.0
H421 H 0.05466 0.40769 0.71004 0.0
H422 H 0.11481 0.43363 0.73062 0.0
H423 H 0.05508 0.51174 0.70762 0.0
H424 H 0.99468 0.48579 0.68666 0.0
H425 H 0.07267 0.50993 0.75604 0.0
H426 H 0.15323 0.49306 0.68481 0.0
H427 H 0.18317 0.46518 0.65185 0.0
H428 H 0.26291 0.41508 0.69937 0.0
H429 H 0.23289 0.44241 0.73269 0.0
C430 C 0.2596 0.57475 0.7919 0.0
C431 C 0.29313 0.55986 0.80466 0.0
C432 C 0.22522 0.56055 0.77951 0.0
C433 C 0.22378 0.53113 0.77939 0.0
C434 C 0.25675 0.51614 0.79236 0.0
C435 C 0.29083 0.53037 0.8051 0.0
C436 C 0.18876 0.51619 0.76501 0.0
C437 C 0.20384 0.49905 0.74657 0.0
C438 C 0.14087 0.52028 0.76837 0.0
C439 C 0.12276 0.53697 0.78825 0.0
C440 C 0.13579 0.53054 0.81133 0.0
C441 C 0.11858 0.5463 0.83001 0.0
C442 C 0.08806 0.56842 0.82586 0.0
C443 C 0.07459 0.57479 0.80301 0.0
C444 C 0.09174 0.55912 0.78426 0.0
C445 C 0.05458 0.43039 0.70907 0.0
C446 C 0.01981 0.44466 0.69668 0.0
C447 C 0.08909 0.44519 0.72083 0.0
C448 C 0.08949 0.47463 0.72069 0.0
C449 C 0.05541 0.48902 0.70797 0.0
C450 C 0.02114 0.47416 0.69586 0.0
C451 C 0.12445 0.49014 0.73469 0.0
C452 C 0.10938 0.50738 0.75307 0.0
C453 C 0.17236 0.48619 0.73125 0.0
C454 C 0.19042 0.46961 0.71128 0.0
C455 C 0.1768 0.47592 0.68827 0.0
C456 C 0.19386 0.46025 0.66951 0.0
C457 C 0.22483 0.43832 0.67352 0.0
C458 C 0.23887 0.43205 0.6963 0.0
C459 C 0.22186 0.44764 0.71513 0.0
H460 H 0.23803 0.42623 0.65897 0.0
H461 H 0.07474 0.58057 0.84034 0.0
H462 H 0.18668 0.91552 0.77108 0.0
H463 H 0.24744 0.93924 0.74947 0.0
H464 H 0.27662 0.99093 0.80957 0.0
H465 H 0.21418 0.96779 0.83121 0.0
H466 H 0.27867 0.02172 0.77165 0.0
H467 H 0.34598 0.93307 0.7926 0.0
H468 H 0.348 0.88142 0.79521 0.0
H469 H 0.3448 0.87549 0.72033 0.0
H470 H 0.34202 0.92711 0.71727 0.0
H471 H 0.49295 0.07375 0.73614 0.0
H472 H 0.43198 0.0483 0.75595 0.0
H473 H 0.40548 1.00072 0.69326 0.0
H474 H 0.46825 0.02585 0.67321 0.0
H475 H 0.40096 0.96747 0.73114 0.0
H476 H 0.33454 0.05624 0.71035 0.0
H477 H 0.33102 0.10787 0.70793 0.0
H478 H 0.3323 0.11341 0.78285 0.0
H479 H 0.33643 0.06182 0.78572 0.0
C480 C 0.20604 0.93185 0.77984 0.0
C481 C 0.19566 0.93957 0.80303 0.0
C482 C 0.24107 0.94536 0.76741 0.0
C483 C 0.26752 0.96651 0.77797 0.0
C484 C 0.25693 0.97456 0.80104 0.0
C485 C 0.22127 0.96129 0.81343 0.0
C486 C 0.30559 0.98045 0.76475 0.0
C487 C 0.30576 0.00983 0.7631 0.0
C488 C 0.34034 0.96499 0.75293 0.0
C489 C 0.34342 0.93397 0.75472 0.0
C490 C 0.34553 0.92075 0.77669 0.0
C491 C 0.3468 0.89148 0.77825 0.0
C492 C 0.34642 0.87518 0.75795 0.0
C493 C 0.34504 0.88814 0.73604 0.0
C494 C 0.34367 0.9174 0.73438 0.0
C495 C 0.47419 0.05799 0.72637 0.0
C496 C 0.48522 0.0522 0.70287 0.0
C497 C 0.43908 0.04344 0.73781 0.0
C498 C 0.41318 0.02302 0.72601 0.0
C499 C 0.4247 0.01656 0.7027 0.0
C500 C 0.4605 0.03097 0.69124 0.0
C501 C 0.37419 0.00874 0.73824 0.0
C502 C 0.37382 0.97932 0.73967 0.0
C503 C 0.33923 0.02414 0.74992 0.0
C504 C 0.3361 0.05517 0.74823 0.0
C505 C 0.33431 0.06848 0.7263 0.0
C506 C 0.33218 0.09774 0.72486 0.0
C507 C 0.33152 0.11391 0.74522 0.0
C508 C 0.33283 0.10086 0.76709 0.0
C509 C 0.33499 0.07161 0.76864 0.0
H510 H 0.32992 0.13656 0.74407 0.0
H511 H 0.34725 0.85252 0.7592 0.0
H512 H 0.08969 0.50325 0.41034 0.0
H513 H 0.06568 0.48461 0.44844 0.0
H514 H 0.99387 0.56186 0.46314 0.0
H515 H 0.01784 0.58059 0.42528 0.0
H516 H 0.04356 0.54567 0.50041 0.0
H517 H 0.93521 0.50242 0.44839 0.0
H518 H 0.9105 0.47466 0.41425 0.0
H519 H 0.9822 0.40268 0.44104 0.0
H520 H 0.00791 0.43015 0.4752 0.0
H521 H 0.91306 0.49809 0.59922 0.0
H522 H 0.93706 0.5168 0.56113 0.0
H523 H 0.00883 0.43957 0.54634 0.0
H524 H 0.98489 0.42078 0.58418 0.0
H525 H 0.95914 0.45577 0.50912 0.0
H526 H 0.06754 0.49889 0.56109 0.0
H527 H 0.09245 0.52657 0.59523 0.0
H528 H 0.02094 0.59868 0.56856 0.0
H529 H 0.99503 0.5713 0.5344 0.0
C530 C 0.06854 0.51619 0.42162 0.0
C531 C 0.05561 0.5434 0.41466 0.0
C532 C 0.05473 0.50549 0.44342 0.0
C533 C 0.02767 0.52174 0.45872 0.0
C534 C 0.01475 0.54888 0.45174 0.0
C535 C 0.02834 0.55952 0.42997 0.0
C536 C 0.01326 0.51074 0.48211 0.0
C537 C 0.02456 0.52618 0.50226 0.0
C538 C 0.98932 0.48501 0.48472 0.0
C539 C 0.9739 0.46843 0.46422 0.0
C540 C 0.94604 0.48074 0.4469 0.0
C541 C 0.93179 0.46505 0.42757 0.0
C542 C 0.94488 0.43695 0.42544 0.0
C543 C 0.97215 0.42446 0.44269 0.0
C544 C 0.98655 0.44008 0.46205 0.0
C545 C 0.93419 0.48517 0.58792 0.0
C546 C 0.94712 0.45795 0.59484 0.0
C547 C 0.948 0.49591 0.56613 0.0
C548 C 0.97504 0.47967 0.5508 0.0
C549 C 0.98796 0.45252 0.55775 0.0
C550 C 0.97438 0.44185 0.5795 0.0
C551 C 0.98943 0.4907 0.52741 0.0
C552 C 0.97813 0.47525 0.50727 0.0
C553 C 0.01339 0.51642 0.52481 0.0
C554 C 0.02893 0.53295 0.54531 0.0
C555 C 0.05679 0.52058 0.5626 0.0
C556 C 0.07115 0.53623 0.58194 0.0
C557 C 0.05817 0.56434 0.5841 0.0
C558 C 0.0309 0.57689 0.56689 0.0
C559 C 0.01639 0.56132 0.54752 0.0
H560 H 0.06934 0.57643 0.59908 0.0
H561 H 0.9338 0.42483 0.41047 0.0
H562 H 0.41315 0.99816 0.41021 0.0
H563 H 0.43492 0.01575 0.44892 0.0
H564 H 0.52019 0.94275 0.45972 0.0
H565 H 0.49812 0.92494 0.42124 0.0
H566 H 0.47028 0.95252 0.49771 0.0
H567 H 0.56679 0.00823 0.44796 0.0
H568 H 0.58442 0.04038 0.41537 0.0
H569 H 0.49819 0.10361 0.44617 0.0
H570 H 0.47953 0.07168 0.47879 0.0
H571 H 0.59002 0.0026 0.59899 0.0
H572 H 0.56891 0.98477 0.56024 0.0
H573 H 0.48335 0.05752 0.5489 0.0
H574 H 0.50475 0.07557 0.58738 0.0
H575 H 0.53389 0.04774 0.51115 0.0
H576 H 0.43716 0.9919 0.56082 0.0
H577 H 0.41958 0.95971 0.59339 0.0
H578 H 0.50641 0.8967 0.56271 0.0
H579 H 0.52502 0.92867 0.53011 0.0
C580 C 0.4369 0.98599 0.42072 0.0
C581 C 0.45396 0.96016 0.41251 0.0
C582 C 0.44942 0.9961 0.44289 0.0
C583 C 0.47953 0.98072 0.45734 0.0
C584 C 0.49688 0.95505 0.44904 0.0
C585 C 0.48438 0.94494 0.42691 0.0
C586 C 0.49216 0.99095 0.48126 0.0
C587 C 0.4848 0.97322 0.50057 0.0
C588 C 0.51015 0.01819 0.48526 0.0
C589 C 0.5214 0.03745 0.46569 0.0
C590 C 0.55129 0.02891 0.44769 0.0
C591 C 0.56153 0.04711 0.42923 0.0
C592 C 0.54234 0.07399 0.42867 0.0
C593 C 0.51297 0.08276 0.44661 0.0
C594 C 0.50258 0.06463 0.46509 0.0
C595 C 0.56635 0.01467 0.58834 0.0
C596 C 0.549 0.04049 0.5964 0.0
C597 C 0.55422 0.00442 0.56615 0.0
C598 C 0.52422 0.01967 0.55154 0.0
C599 C 0.50659 0.04533 0.5597 0.0
C600 C 0.5187 0.05557 0.58183 0.0
C601 C 0.51196 0.00933 0.5276 0.0
C602 C 0.51939 0.02704 0.50829 0.0
C603 C 0.49405 0.98208 0.5236 0.0
C604 C 0.48285 0.96279 0.54315 0.0
C605 C 0.4528 0.97126 0.56112 0.0
C606 C 0.44259 0.95304 0.57956 0.0
C607 C 0.46197 0.9262 0.58015 0.0
C608 C 0.49149 0.91751 0.56225 0.0
C609 C 0.50185 0.93566 0.54378 0.0
H610 H 0.45402 0.91212 0.59445 0.0
H611 H 0.55031 0.08805 0.41436 0.0
H612 H 0.51297 0.42638 0.08501 0.0
H613 H 0.49048 0.4441 0.04658 0.0
H614 H 0.56466 0.52088 0.05976 0.0
H615 H 0.58735 0.50322 0.09841 0.0
H616 H 0.48108 0.531 0.03891 0.0
H617 H 0.61103 0.47139 0.02505 0.0
H618 H 0.65675 0.42786 0.02734 0.0
H619 H 0.5501 0.38305 0.99109 0.0
H620 H 0.5034 0.42625 0.98888 0.0
H621 H 0.48841 0.58034 0.92199 0.0
H622 H 0.51068 0.56274 0.96048 0.0
H623 H 0.43728 0.48571 0.9472 0.0
H624 H 0.41489 0.50322 0.90846 0.0
H625 H 0.52045 0.47576 0.96813 0.0
H626 H 0.39052 0.53544 0.98195 0.0
H627 H 0.34496 0.57903 0.97957 0.0
H628 H 0.45166 0.62376 0.01585 0.0
H629 H 0.4982 0.5805 0.01815 0.0
C630 C 0.52429 0.44714 0.07986 0.0
C631 C 0.55212 0.46334 0.09484 0.0
C632 C 0.51157 0.45719 0.05777 0.0
C633 C 0.52634 0.4837 0.05004 0.0
C634 C 0.55293 0.50032 0.06524 0.0
C635 C 0.56591 0.49019 0.08735 0.0
C636 C 0.51454 0.49379 0.02601 0.0
C637 C 0.49027 0.5191 0.02343 0.0
C638 C 0.52553 0.47802 0.00573 0.0
C639 C 0.5535 0.452 0.00702 0.0
C640 C 0.59714 0.4522 0.01774 0.0
C641 C 0.62327 0.4276 0.01899 0.0
C642 C 0.60629 0.40269 0.00942 0.0
C643 C 0.56317 0.40235 0.99853 0.0
C644 C 0.53687 0.4269 0.99726 0.0
C645 C 0.47719 0.55956 0.92713 0.0
C646 C 0.4497 0.54324 0.91209 0.0
C647 C 0.48978 0.54957 0.94927 0.0
C648 C 0.47517 0.52303 0.95698 0.0
C649 C 0.44888 0.5063 0.94173 0.0
C650 C 0.43606 0.51635 0.91957 0.0
C651 C 0.48696 0.51297 0.98103 0.0
C652 C 0.51123 0.48765 0.98361 0.0
C653 C 0.47598 0.52874 1.0013 0.0
C654 C 0.44805 0.55479 1.00001 0.0
C655 C 0.40445 0.55462 0.98925 0.0
C656 C 0.37841 0.57926 0.98795 0.0
C657 C 0.39546 0.60417 0.99749 0.0
C658 C 0.43854 0.60446 0.00843 0.0
C659 C 0.46474 0.57988 0.00975 0.0
H660 H 0.37525 0.62322 0.99647 0.0
H661 H 0.62658 0.38366 0.0104 0.0
H662 H 0.09339 0.99691 0.9122 0.0
H663 H 0.0717 0.0157 0.9506 0.0
H664 H 0.98042 0.94545 0.96134 0.0
H665 H 1.00165 0.92672 0.92305 0.0
H666 H 0.94033 0.99316 0.97585 0.0
H667 H 0.0864 0.94791 0.98736 0.0
H668 H 0.16864 0.9384 0.97983 0.0
H669 H 0.20196 0.02396 0.99619 0.0
H670 H 0.11977 0.03409 1.0035 0.0
H671 H 0.9072 0.00836 0.09871 0.0
H672 H 0.92901 0.98966 0.06032 0.0
H673 H 0.02133 0.05952 0.05006 0.0
H674 H 1.00005 0.07811 0.0884 0.0
H675 H 0.06092 0.01212 0.03525 0.0
H676 H 0.91501 0.05743 0.02379 0.0
H677 H 0.83278 0.06707 0.03123 0.0
H678 H 0.79912 0.98161 0.01469 0.0
H679 H 0.8813 0.97135 0.00746 0.0
C680 C 0.06841 0.98559 0.92266 0.0
C681 C 0.04939 0.96025 0.91452 0.0
C682 C 0.05623 0.99627 0.9447 0.0
C683 C 0.02479 0.98185 0.95911 0.0
C684 C 0.00478 0.95699 0.95067 0.0
C685 C 0.01706 0.94627 0.92873 0.0
C686 C 0.01315 0.9923 0.98308 0.0
C687 C 0.9667 0.99697 0.98891 0.0
C688 C 0.04746 0.99785 1.00011 0.0
C689 C 0.09688 0.99183 0.99573 0.0
C690 C 0.11121 0.96476 0.98915 0.0
C691 C 0.15783 0.95925 0.98496 0.0
C692 C 0.19049 0.98059 0.98746 0.0
C693 C 0.17661 0.00747 0.99422 0.0
C694 C 0.13002 0.0131 0.9984 0.0
C695 C 0.93244 0.01961 0.08837 0.0
C696 C 0.95175 0.0448 0.09667 0.0
C697 C 0.94469 0.00899 0.06632 0.0
C698 C 0.97643 0.02334 0.05203 0.0
C699 C 0.99673 0.04803 0.06063 0.0
C700 C 0.98443 0.05868 0.0826 0.0
C701 C 0.98808 0.01298 0.02803 0.0
C702 C 0.03453 0.00832 0.0222 0.0
C703 C 0.95377 0.00746 0.01098 0.0
C704 C 0.90436 0.01355 0.01533 0.0
C705 C 0.89012 0.04063 0.02193 0.0
C706 C 0.84352 0.04622 0.02608 0.0
C707 C 0.81076 0.02494 0.0235 0.0
C708 C 0.82455 0.99805 0.01672 0.0
C709 C 0.87113 0.99234 0.01258 0.0
H710 H 0.77469 0.02931 0.0267 0.0
H711 H 0.22656 0.97627 0.98422 0.0
H712 H 0.19729 0.63796 0.39584 0.0
H713 H 0.23816 0.6831 0.39593 0.0
H714 H 0.17579 0.70442 0.3299 0.0
H715 H 0.13379 0.65978 0.33001 0.0
H716 H 0.28061 0.71217 0.3359 0.0
H717 H 0.13085 0.73447 0.37037 0.0
H718 H 0.0691 0.72725 0.39941 0.0
H719 H 0.16509 0.74258 0.4551 0.0
H720 H 0.22757 0.74947 0.42637 0.0
H721 H 0.34689 0.85348 0.32445 0.0
H722 H 0.30548 0.80893 0.32476 0.0
H723 H 0.30862 0.80873 0.40029 0.0
H724 H 0.34571 0.8549 0.39979 0.0
H725 H 0.23474 0.78829 0.39027 0.0
H726 H 0.38414 0.76628 0.3603 0.0
H727 H 0.45195 0.77015 0.33445 0.0
H728 H 0.3679 0.75003 0.27499 0.0
H729 H 0.29948 0.74637 0.30044 0.0
C730 C 0.19237 0.65225 0.38133 0.0
C731 C 0.16225 0.64537 0.36294 0.0
C732 C 0.21567 0.67801 0.38143 0.0
C733 C 0.20991 0.69706 0.36293 0.0
C734 C 0.18067 0.68998 0.34432 0.0
C735 C 0.15662 0.66451 0.34445 0.0
C736 C 0.23386 0.72457 0.36314 0.0
C737 C 0.27046 0.72901 0.34759 0.0
C738 C 0.22165 0.746 0.37903 0.0
C739 C 0.18395 0.74219 0.39624 0.0
C740 C 0.13886 0.73605 0.38881 0.0
C741 C 0.10371 0.73207 0.40521 0.0
C742 C 0.11319 0.73438 0.42909 0.0
C743 C 0.1578 0.74076 0.4366 0.0
C744 C 0.19308 0.74472 0.42027 0.0
C745 C 0.33842 0.84396 0.34108 0.0
C746 C 0.34952 0.85752 0.36209 0.0
C747 C 0.31523 0.81821 0.34129 0.0
C748 C 0.30495 0.80464 0.36255 0.0
C749 C 0.316 0.81846 0.38359 0.0
C750 C 0.33739 0.84482 0.38335 0.0
C751 C 0.28217 0.77639 0.36287 0.0
C752 C 0.24556 0.77165 0.37856 0.0
C753 C 0.29548 0.75429 0.34759 0.0
C754 C 0.33663 0.75629 0.33226 0.0
C755 C 0.38009 0.76283 0.34169 0.0
C756 C 0.41863 0.76497 0.32712 0.0
C757 C 0.41421 0.7604 0.30309 0.0
C758 C 0.37127 0.75359 0.2936 0.0
C759 C 0.33261 0.75144 0.30809 0.0
H760 H 0.44409 0.76209 0.29183 0.0
H761 H 0.08593 0.73128 0.44176 0.0
H762 H 0.88655 0.16727 0.17477 0.0
H763 H 0.84521 0.21191 0.17466 0.0
H764 H 0.76421 0.184 0.11582 0.0
H765 H 0.80448 0.13885 0.11641 0.0
H766 H 0.83882 0.25277 0.14555 0.0
H767 H 0.65787 0.21334 0.11712 0.0
H768 H 0.61001 0.17072 0.12055 0.0
H769 H 0.68272 0.1471 0.18291 0.0
H770 H 0.73051 0.18975 0.18004 0.0
H771 H 0.70182 0.3708 0.11503 0.0
H772 H 0.74211 0.32561 0.11486 0.0
H773 H 0.66225 0.29885 0.17449 0.0
H774 H 0.62104 0.34351 0.17427 0.0
H775 H 0.66798 0.25743 0.14564 0.0
H776 H 0.77633 0.32091 0.17927 0.0
H777 H 0.82421 0.36356 0.1817 0.0
H778 H 0.89681 0.33904 0.11953 0.0
H779 H 0.84884 0.29643 0.11653 0.0
C780 C 0.85979 0.17057 0.16186 0.0
C781 C 0.84859 0.14944 0.14568 0.0
C782 C 0.83629 0.1962 0.16175 0.0
C783 C 0.80119 0.20137 0.14539 0.0
C784 C 0.79049 0.18042 0.12893 0.0
C785 C 0.81366 0.15462 0.12921 0.0
C786 C 0.77596 0.22865 0.14562 0.0
C787 C 0.80145 0.25374 0.14551 0.0
C788 C 0.72716 0.23011 0.14611 0.0
C789 C 0.6981 0.20459 0.14819 0.0
C790 C 0.66351 0.1991 0.13161 0.0
C791 C 0.63641 0.17493 0.13345 0.0
C792 C 0.64342 0.15616 0.15189 0.0
C793 C 0.67742 0.16159 0.16859 0.0
C794 C 0.70455 0.18575 0.16685 0.0
C795 C 0.6929 0.35527 0.12809 0.0
C796 C 0.65835 0.36078 0.1447 0.0
C797 C 0.71607 0.32946 0.12804 0.0
C798 C 0.70565 0.30882 0.14483 0.0
C799 C 0.67092 0.31431 0.16132 0.0
C800 C 0.6475 0.33996 0.16124 0.0
C801 C 0.73085 0.28153 0.14532 0.0
C802 C 0.70534 0.25645 0.14555 0.0
C803 C 0.77963 0.28008 0.14577 0.0
C804 C 0.80867 0.30562 0.14755 0.0
C805 C 0.80227 0.32472 0.16602 0.0
C806 C 0.82946 0.34887 0.16751 0.0
C807 C 0.86346 0.35404 0.15074 0.0
C808 C 0.87041 0.33503 0.13248 0.0
C809 C 0.84325 0.31087 0.13089 0.0
H810 H 0.88449 0.37275 0.15193 0.0
H811 H 0.62245 0.13745 0.15325 0.0
H812 H 0.61724 0.16086 0.6768 0.0
H813 H 0.65823 0.20563 0.67638 0.0
H814 H 0.73507 0.17888 0.61573 0.0
H815 H 0.69525 0.13359 0.61664 0.0
H816 H 0.79053 0.20486 0.64336 0.0
H817 H 0.64163 0.22624 0.6125 0.0
H818 H 0.55665 0.22763 0.61166 0.0
H819 H 0.55557 0.27674 0.67458 0.0
H820 H 0.64056 0.27533 0.67597 0.0
H821 H 0.79615 0.36677 0.61822 0.0
H822 H 0.75612 0.32158 0.61743 0.0
H823 H 0.83981 0.29259 0.67493 0.0
H824 H 0.88087 0.3374 0.67527 0.0
H825 H 0.70393 0.29457 0.64624 0.0
H826 H 0.85763 0.22274 0.67153 0.0
H827 H 0.94226 0.22147 0.66725 0.0
H828 H 0.93315 0.27355 0.60615 0.0
H829 H 0.84847 0.27482 0.60989 0.0
C830 C 0.64291 0.16448 0.66339 0.0
C831 C 0.65284 0.1437 0.64669 0.0
C832 C 0.6662 0.1902 0.66308 0.0
C833 C 0.6993 0.19598 0.64577 0.0
C834 C 0.70969 0.17505 0.62926 0.0
C835 C 0.68679 0.14917 0.62974 0.0
C836 C 0.72312 0.22376 0.64493 0.0
C837 C 0.77152 0.22445 0.644 0.0
C838 C 0.69854 0.24948 0.64527 0.0
C839 C 0.64744 0.25046 0.64445 0.0
C840 C 0.62325 0.23717 0.62625 0.0
C841 C 0.57509 0.23799 0.62566 0.0
C842 C 0.55072 0.25221 0.64309 0.0
C843 C 0.57448 0.26571 0.66111 0.0
C844 C 0.62265 0.26493 0.6618 0.0
C845 C 0.80605 0.35075 0.63068 0.0
C846 C 0.84191 0.35561 0.6467 0.0
C847 C 0.78303 0.32491 0.63026 0.0
C848 C 0.79525 0.3034 0.64589 0.0
C849 C 0.83032 0.30853 0.66232 0.0
C850 C 0.85365 0.33425 0.66259 0.0
C851 C 0.77134 0.27566 0.645 0.0
C852 C 0.72294 0.27498 0.64563 0.0
C853 C 0.79587 0.24997 0.64369 0.0
C854 C 0.84675 0.2491 0.64115 0.0
C855 C 0.87369 0.23383 0.65714 0.0
C856 C 0.92167 0.23313 0.65481 0.0
C857 C 0.94308 0.2475 0.63649 0.0
C858 C 0.91654 0.26252 0.62039 0.0
C859 C 0.86856 0.26326 0.62262 0.0
H860 H 0.98022 0.24695 0.63473 0.0
H861 H 0.51343 0.25282 0.6426 0.0
H862 H 0.39428 0.66643 0.8395 0.0
H863 H 0.35592 0.712 0.84077 0.0
H864 H 0.24885 0.67694 0.88429 0.0
H865 H 0.28807 0.6314 0.88367 0.0
H866 H 0.2786 0.73092 0.82621 0.0
H867 H 0.20566 0.7263 0.92082 0.0
H868 H 0.2257 0.70542 0.95897 0.0
H869 H 0.36851 0.70322 0.93927 0.0
H870 H 0.34942 0.72443 0.90115 0.0
H871 H 0.10879 0.83554 0.84059 0.0
H872 H 0.15161 0.79139 0.84046 0.0
H873 H 0.25106 0.82669 0.88818 0.0
H874 H 0.20785 0.87092 0.88864 0.0
H875 H 0.23048 0.77469 0.90103 0.0
H876 H 0.2774 0.81906 0.83064 0.0
H877 H 0.26795 0.84356 0.79296 0.0
H878 H 0.19581 0.77236 0.76508 0.0
H879 H 0.20432 0.74756 0.80271 0.0
C880 C 0.36259 0.66841 0.84939 0.0
C881 C 0.34435 0.64532 0.86161 0.0
C882 C 0.34057 0.6945 0.85004 0.0
C883 C 0.29966 0.69815 0.86284 0.0
C884 C 0.28084 0.67492 0.87467 0.0
C885 C 0.30316 0.64882 0.87422 0.0
C886 C 0.27689 0.72624 0.86369 0.0
C887 C 0.26804 0.7404 0.8426 0.0
C888 C 0.26411 0.73917 0.88505 0.0
C889 C 0.27599 0.72667 0.90804 0.0
C890 C 0.24135 0.72145 0.92467 0.0
C891 C 0.25254 0.70954 0.94628 0.0
C892 C 0.29832 0.7029 0.95151 0.0
C893 C 0.33304 0.70826 0.93516 0.0
C894 C 0.32204 0.7202 0.91355 0.0
C895 C 0.13979 0.83395 0.85106 0.0
C896 C 0.15501 0.85678 0.86457 0.0
C897 C 0.16435 0.80869 0.8509 0.0
C898 C 0.20489 0.80575 0.86411 0.0
C899 C 0.2199 0.82843 0.87784 0.0
C900 C 0.19527 0.85373 0.87802 0.0
C901 C 0.23144 0.77898 0.86355 0.0
C902 C 0.24097 0.76511 0.88467 0.0
C903 C 0.24629 0.76676 0.84227 0.0
C904 C 0.24114 0.78154 0.81957 0.0
C905 C 0.25922 0.8087 0.81653 0.0
C906 C 0.25409 0.82264 0.79517 0.0
C907 C 0.23121 0.80955 0.77666 0.0
C908 C 0.2135 0.78248 0.77945 0.0
C909 C 0.21851 0.76846 0.80078 0.0
H910 H 0.22728 0.82037 0.76014 0.0
H911 H 0.30691 0.69366 0.96824 0.0
loop_
_geom_bond_atom_site_label_1
_geom_bond_atom_site_label_2
_geom_bond_distance
_geom_bond_site_symmetry_2
_ccdc_geom_bond_type
Co0 O1 2.216 . S
Co0 O2 2.091 . S
Co0 O4 2.004 . S
Co0 O10 2.021 . S
Co0 O12 2.137 . S
Co0 O13 2.244 . S
O1 Co0 2.216 . S
O1 C8 1.247 . S
O2 Co0 2.091 . S
O2 C8 1.261 . S
C3 O12 1.247 . S
C3 O13 1.272 . S
O4 Co0 2.004 . S
O4 C9 1.259 . S
Co5 O6 2.061 . S
Co5 O11 2.052 . S
Co5 O13 2.135 . S
O6 Co5 2.061 . S
O6 C9 1.235 . S
C7 O10 1.238 . S
C7 O11 1.241 . S
C8 O1 1.247 . S
C8 O2 1.261 . S
C9 O4 1.259 . S
C9 O6 1.235 . S
O10 Co0 2.021 . S
O10 C7 1.238 . S
O11 Co5 2.052 . S
O11 C7 1.241 . S
O12 Co0 2.137 . S
O12 C3 1.247 . S
O13 Co0 2.244 . S
O13 C3 1.272 . S
O13 Co5 2.135 . S
Co14 O15 2.216 . S
Co14 O16 2.091 . S
Co14 O18 2.004 . S
Co14 O24 2.021 . S
Co14 O26 2.137 . S
Co14 O27 2.244 . S
O15 Co14 2.216 . S
O15 C22 1.247 . S
O16 Co14 2.091 . S
O16 C22 1.261 . S
C17 O26 1.247 . S
C17 O27 1.272 . S
O18 Co14 2.004 . S
O18 C23 1.259 . S
Co19 O20 2.061 . S
Co19 O25 2.052 . S
Co19 O27 2.135 . S
O20 Co19 2.061 . S
O20 C23 1.235 . S
C21 O24 1.238 . S
C21 O25 1.241 . S
C22 O15 1.247 . S
C22 O16 1.261 . S
C23 O18 1.259 . S
C23 O20 1.235 . S
O24 Co14 2.021 . S
O24 C21 1.238 . S
O25 Co19 2.052 . S
O25 C21 1.241 . S
O26 Co14 2.137 . S
O26 C17 1.247 . S
O27 Co14 2.244 . S
O27 C17 1.272 . S
O27 Co19 2.135 . S
Co28 O29 2.216 . S
Co28 O30 2.091 . S
Co28 O32 2.004 . S
Co28 O38 2.021 . S
Co28 O40 2.137 . S
Co28 O41 2.244 . S
O29 Co28 2.216 . S
O29 C36 1.247 . S
O30 Co28 2.091 . S
O30 C36 1.261 . S
C31 O40 1.247 . S
C31 O41 1.272 . S
O32 Co28 2.004 . S
O32 C37 1.259 . S
Co33 O34 2.061 . S
Co33 O39 2.052 . S
Co33 O41 2.135 . S
O34 Co33 2.061 . S
O34 C37 1.235 . S
C35 O38 1.238 . S
C35 O39 1.241 . S
C36 O29 1.247 . S
C36 O30 1.261 . S
C37 O32 1.259 . S
C37 O34 1.235 . S
O38 Co28 2.021 . S
O38 C35 1.238 . S
O39 Co33 2.052 . S
O39 C35 1.241 . S
O40 Co28 2.137 . S
O40 C31 1.247 . S
O41 Co28 2.244 . S
O41 C31 1.272 . S
O41 Co33 2.135 . S
Co42 O43 2.216 . S
Co42 O44 2.091 . S
Co42 O46 2.004 . S
Co42 O52 2.021 . S
Co42 O54 2.137 . S
Co42 O55 2.244 . S
O43 Co42 2.216 . S
O43 C50 1.247 . S
O44 Co42 2.091 . S
O44 C50 1.261 . S
C45 O54 1.247 . S
C45 O55 1.272 . S
O46 Co42 2.004 . S
O46 C51 1.259 . S
Co47 O48 2.061 . S
Co47 O53 2.052 . S
Co47 O55 2.135 . S
O48 Co47 2.061 . S
O48 C51 1.235 . S
C49 O52 1.238 . S
C49 O53 1.241 . S
C50 O43 1.247 . S
C50 O44 1.261 . S
C51 O46 1.259 . S
C51 O48 1.235 . S
O52 Co42 2.021 . S
O52 C49 1.238 . S
O53 Co47 2.052 . S
O53 C49 1.241 . S
O54 Co42 2.137 . S
O54 C45 1.247 . S
O55 Co42 2.244 . S
O55 C45 1.272 . S
O55 Co47 2.135 . S
Co56 O57 2.216 . S
Co56 O58 2.091 . S
Co56 O60 2.004 . S
Co56 O66 2.021 . S
Co56 O68 2.137 . S
Co56 O69 2.244 . S
O57 Co56 2.216 . S
O57 C64 1.247 . S
O58 Co56 2.091 . S
O58 C64 1.261 . S
C59 O68 1.247 . S
C59 O69 1.272 . S
O60 Co56 2.004 . S
O60 C65 1.259 . S
Co61 O62 2.061 . S
Co61 O67 2.052 . S
Co61 O69 2.135 . S
O62 Co61 2.061 . S
O62 C65 1.235 . S
C63 O66 1.238 . S
C63 O67 1.241 . S
C64 O57 1.247 . S
C64 O58 1.261 . S
C65 O60 1.259 . S
C65 O62 1.235 . S
O66 Co56 2.021 . S
O66 C63 1.238 . S
O67 Co61 2.052 . S
O67 C63 1.241 . S
O68 Co56 2.137 . S
O68 C59 1.247 . S
O69 Co56 2.244 . S
O69 C59 1.272 . S
O69 Co61 2.135 . S
Co70 O71 2.216 . S
Co70 O72 2.091 . S
Co70 O74 2.004 . S
Co70 O80 2.021 . S
Co70 O82 2.137 . S
Co70 O83 2.244 . S
O71 Co70 2.216 . S
O71 C78 1.247 . S
O72 Co70 2.091 . S
O72 C78 1.261 . S
C73 O82 1.247 . S
C73 O83 1.272 . S
O74 Co70 2.004 . S
O74 C79 1.259 . S
Co75 O76 2.061 . S
Co75 O81 2.052 . S
Co75 O83 2.135 . S
O76 Co75 2.061 . S
O76 C79 1.235 . S
C77 O80 1.238 . S
C77 O81 1.241 . S
C78 O71 1.247 . S
C78 O72 1.261 . S
C79 O74 1.259 . S
C79 O76 1.235 . S
O80 Co70 2.021 . S
O80 C77 1.238 . S
O81 Co75 2.052 . S
O81 C77 1.241 . S
O82 Co70 2.137 . S
O82 C73 1.247 . S
O83 Co70 2.244 . S
O83 C73 1.272 . S
O83 Co75 2.135 . S
Co84 O85 2.216 . S
Co84 O86 2.091 . S
Co84 O88 2.004 . S
Co84 O94 2.021 . S
Co84 O96 2.137 . S
Co84 O97 2.244 . S
O85 Co84 2.216 . S
O85 C92 1.247 . S
O86 Co84 2.091 . S
O86 C92 1.261 . S
C87 O96 1.247 . S
C87 O97 1.272 . S
O88 Co84 2.004 . S
O88 C93 1.259 . S
Co89 O90 2.061 . S
Co89 O95 2.052 . S
Co89 O97 2.135 . S
O90 Co89 2.061 . S
O90 C93 1.235 . S
C91 O94 1.238 . S
C91 O95 1.241 . S
C92 O85 1.247 . S
C92 O86 1.261 . S
C93 O88 1.259 . S
C93 O90 1.235 . S
O94 Co84 2.021 . S
O94 C91 1.238 . S
O95 Co89 2.052 . S
O95 C91 1.241 . S
O96 Co84 2.137 . S
O96 C87 1.247 . S
O97 Co84 2.244 . S
O97 C87 1.272 . S
O97 Co89 2.135 . S
Co98 O99 2.216 . S
Co98 O100 2.091 . S
Co98 O102 2.004 . S
Co98 O108 2.021 . S
Co98 O110 2.137 . S
Co98 O111 2.244 . S
O99 Co98 2.216 . S
O99 C106 1.247 . S
O100 Co98 2.091 . S
O100 C106 1.261 . S
C101 O110 1.247 . S
C101 O111 1.272 . S
O102 Co98 2.004 . S
O102 C107 1.259 . S
Co103 O104 2.061 . S
Co103 O109 2.052 . S
Co103 O111 2.135 . S
O104 Co103 2.061 . S
O104 C107 1.235 . S
C105 O108 1.238 . S
C105 O109 1.241 . S
C106 O99 1.247 . S
C106 O100 1.261 . S
C107 O102 1.259 . S
C107 O104 1.235 . S
O108 Co98 2.021 . S
O108 C105 1.238 . S
O109 Co103 2.052 . S
O109 C105 1.241 . S
O110 Co98 2.137 . S
O110 C101 1.247 . S
O111 Co98 2.244 . S
O111 C101 1.272 . S
O111 Co103 2.135 . S
H112 C130 0.951 . S
H113 C132 0.951 . S
H114 C134 0.950 . S
H115 C135 0.950 . S
H116 C137 0.950 . S
H117 C140 0.950 . S
H118 C141 0.950 . S
H119 C143 0.950 . S
H120 C144 0.950 . S
H121 C145 0.951 . S
H122 C147 0.951 . S
H123 C149 0.950 . S
H124 C150 0.950 . S
H125 C152 0.950 . S
H126 C155 0.950 . S
H127 C156 0.950 . S
H128 C158 0.950 . S
H129 C159 0.950 . S
C130 H112 0.951 . S
C130 C131 1.366 . S
C130 C132 1.388 . S
C131 C130 1.366 . S
C131 C135 1.385 . S
C132 H113 0.951 . S
C132 C130 1.388 . S
C132 C133 1.366 . S
C133 C132 1.366 . S
C133 C134 1.414 . S
C133 C136 1.499 . S
C134 H114 0.950 . S
C134 C133 1.414 . S
C134 C135 1.374 . S
C135 H115 0.950 . S
C135 C131 1.385 . S
C135 C134 1.374 . S
C136 C133 1.499 . S
C136 C137 1.373 . S
C136 C138 1.389 . S
C137 H116 0.950 . S
C137 C136 1.373 . S
C137 C153 1.377 . S
C138 C136 1.389 . S
C138 C139 1.524 . S
C138 C152 1.377 . S
C139 C138 1.524 . S
C139 C140 1.397 . S
C139 C144 1.363 . S
C140 H117 0.950 . S
C140 C139 1.397 . S
C140 C141 1.334 . S
C141 H118 0.950 . S
C141 C140 1.334 . S
C141 C142 1.287 . S
C142 C141 1.287 . S
C142 C143 1.524 . S
C142 H161 0.913 . S
C143 H119 0.950 . S
C143 C142 1.524 . S
C143 C144 1.415 . S
C144 H120 0.950 . S
C144 C139 1.363 . S
C144 C143 1.415 . S
C145 H121 0.951 . S
C145 C146 1.366 . S
C145 C147 1.388 . S
C146 C145 1.366 . S
C146 C150 1.385 . S
C147 H122 0.951 . S
C147 C145 1.388 . S
C147 C148 1.366 . S
C148 C147 1.366 . S
C148 C149 1.414 . S
C148 C151 1.499 . S
C149 H123 0.950 . S
C149 C148 1.414 . S
C149 C150 1.374 . S
C150 H124 0.950 . S
C150 C146 1.385 . S
C150 C149 1.374 . S
C151 C148 1.499 . S
C151 C152 1.373 . S
C151 C153 1.389 . S
C152 H125 0.950 . S
C152 C138 1.377 . S
C152 C151 1.373 . S
C153 C137 1.377 . S
C153 C151 1.389 . S
C153 C154 1.524 . S
C154 C153 1.524 . S
C154 C155 1.397 . S
C154 C159 1.363 . S
C155 H126 0.950 . S
C155 C154 1.397 . S
C155 C156 1.334 . S
C156 H127 0.950 . S
C156 C155 1.334 . S
C156 C157 1.287 . S
C157 C156 1.287 . S
C157 C158 1.524 . S
C157 H160 0.999 . S
C158 H128 0.950 . S
C158 C157 1.524 . S
C158 C159 1.415 . S
C159 H129 0.950 . S
C159 C154 1.363 . S
C159 C158 1.415 . S
H160 C157 0.999 . S
H161 C142 0.913 . S
H162 C180 0.951 . S
H163 C182 0.951 . S
H164 C184 0.950 . S
H165 C185 0.950 . S
H166 C187 0.950 . S
H167 C190 0.950 . S
H168 C191 0.950 . S
H169 C193 0.950 . S
H170 C194 0.950 . S
H171 C195 0.951 . S
H172 C197 0.951 . S
H173 C199 0.950 . S
H174 C200 0.950 . S
H175 C202 0.950 . S
H176 C205 0.950 . S
H177 C206 0.950 . S
H178 C208 0.950 . S
H179 C209 0.950 . S
C180 H162 0.951 . S
C180 C181 1.366 1_455 S
C180 C182 1.388 . S
C181 C180 1.366 1_655 S
C181 C185 1.385 . S
C182 H163 0.951 . S
C182 C180 1.388 . S
C182 C183 1.366 . S
C183 C182 1.366 . S
C183 C184 1.414 1_455 S
C183 C186 1.499 . S
C184 H164 0.950 . S
C184 C183 1.414 1_655 S
C184 C185 1.374 . S
C185 H165 0.950 . S
C185 C181 1.385 . S
C185 C184 1.374 . S
C186 C183 1.499 . S
C186 C187 1.373 . S
C186 C188 1.389 1_545 S
C187 H166 0.950 . S
C187 C186 1.373 . S
C187 C203 1.377 . S
C188 C186 1.389 1_565 S
C188 C189 1.524 . S
C188 C202 1.377 . S
C189 C188 1.524 . S
C189 C190 1.397 . S
C189 C194 1.363 . S
C190 H167 0.950 . S
C190 C189 1.397 . S
C190 C191 1.334 . S
C191 H168 0.950 . S
C191 C190 1.334 . S
C191 C192 1.287 . S
C192 C191 1.287 . S
C192 C193 1.524 . S
C192 H211 0.913 . S
C193 H169 0.950 . S
C193 C192 1.524 . S
C193 C194 1.415 . S
C194 H170 0.950 . S
C194 C189 1.363 . S
C194 C193 1.415 . S
C195 H171 0.951 . S
C195 C196 1.366 . S
C195 C197 1.388 . S
C196 C195 1.366 . S
C196 C200 1.385 . S
C197 H172 0.951 . S
C197 C195 1.388 . S
C197 C198 1.366 . S
C198 C197 1.366 . S
C198 C199 1.414 . S
C198 C201 1.499 . S
C199 H173 0.950 . S
C199 C198 1.414 . S
C199 C200 1.374 . S
C200 H174 0.950 . S
C200 C196 1.385 . S
C200 C199 1.374 . S
C201 C198 1.499 . S
C201 C202 1.373 . S
C201 C203 1.389 1_565 S
C202 H175 0.950 . S
C202 C188 1.377 . S
C202 C201 1.373 . S
C203 C187 1.377 . S
C203 C201 1.389 1_545 S
C203 C204 1.524 . S
C204 C203 1.524 . S
C204 C205 1.397 . S
C204 C209 1.363 . S
C205 H176 0.950 . S
C205 C204 1.397 . S
C205 C206 1.334 . S
C206 H177 0.950 . S
C206 C205 1.334 . S
C206 C207 1.287 . S
C207 C206 1.287 . S
C207 C208 1.524 . S
C207 H210 0.999 . S
C208 H178 0.950 . S
C208 C207 1.524 . S
C208 C209 1.415 . S
C209 H179 0.950 . S
C209 C204 1.363 . S
C209 C208 1.415 . S
H210 C207 0.999 . S
H211 C192 0.913 . S
H212 C230 0.951 . S
H213 C232 0.951 . S
H214 C234 0.950 . S
H215 C235 0.950 . S
H216 C237 0.950 . S
H217 C240 0.950 . S
H218 C241 0.950 . S
H219 C243 0.950 . S
H220 C244 0.950 . S
H221 C245 0.951 . S
H222 C247 0.951 . S
H223 C249 0.950 . S
H224 C250 0.950 . S
H225 C252 0.950 . S
H226 C255 0.950 . S
H227 C256 0.950 . S
H228 C258 0.950 . S
H229 C259 0.950 . S
C230 H212 0.951 . S
C230 C231 1.366 . S
C230 C232 1.388 . S
C231 C230 1.366 . S
C231 C235 1.385 . S
C232 H213 0.951 . S
C232 C230 1.388 . S
C232 C233 1.366 . S
C233 C232 1.366 . S
C233 C234 1.414 . S
C233 C236 1.499 . S
C234 H214 0.950 . S
C234 C233 1.414 . S
C234 C235 1.374 . S
C235 H215 0.950 . S
C235 C231 1.385 . S
C235 C234 1.374 . S
C236 C233 1.499 . S
C236 C237 1.373 . S
C236 C238 1.389 . S
C237 H216 0.950 . S
C237 C236 1.373 . S
C237 C253 1.377 . S
C238 C236 1.389 . S
C238 C239 1.524 . S
C238 C252 1.377 . S
C239 C238 1.524 . S
C239 C240 1.397 . S
C239 C244 1.363 . S
C240 H217 0.950 . S
C240 C239 1.397 . S
C240 C241 1.334 . S
C241 H218 0.950 . S
C241 C240 1.334 . S
C241 C242 1.287 . S
C242 C241 1.287 . S
C242 C243 1.524 . S
C242 H261 0.913 . S
C243 H219 0.950 . S
C243 C242 1.524 . S
C243 C244 1.415 . S
C244 H220 0.950 . S
C244 C239 1.363 . S
C244 C243 1.415 . S
C245 H221 0.951 . S
C245 C246 1.366 1_655 S
C245 C247 1.388 . S
C246 C245 1.366 1_455 S
C246 C250 1.385 . S
C247 H222 0.951 . S
C247 C245 1.388 . S
C247 C248 1.366 . S
C248 C247 1.366 . S
C248 C249 1.414 1_655 S
C248 C251 1.499 . S
C249 H223 0.950 . S
C249 C248 1.414 1_455 S
C249 C250 1.374 . S
C250 H224 0.950 . S
C250 C246 1.385 . S
C250 C249 1.374 . S
C251 C248 1.499 . S
C251 C252 1.373 . S
C251 C253 1.389 . S
C252 H225 0.950 . S
C252 C238 1.377 . S
C252 C251 1.373 . S
C253 C237 1.377 . S
C253 C251 1.389 . S
C253 C254 1.524 . S
C254 C253 1.524 . S
C254 C255 1.397 . S
C254 C259 1.363 . S
C255 H226 0.950 . S
C255 C254 1.397 . S
C255 C256 1.334 . S
C256 H227 0.950 . S
C256 C255 1.334 . S
C256 C257 1.287 . S
C257 C256 1.287 . S
C257 C258 1.524 . S
C257 H260 0.999 . S
C258 H228 0.950 . S
C258 C257 1.524 . S
C258 C259 1.415 . S
C259 H229 0.950 . S
C259 C254 1.363 . S
C259 C258 1.415 . S
H260 C257 0.999 . S
H261 C242 0.913 . S
H262 C280 0.951 . S
H263 C282 0.951 . S
H264 C284 0.950 . S
H265 C285 0.950 . S
H266 C287 0.950 . S
H267 C290 0.950 . S
H268 C291 0.950 . S
H269 C293 0.950 . S
H270 C294 0.950 . S
H271 C295 0.951 . S
H272 C297 0.951 . S
H273 C299 0.950 . S
H274 C300 0.950 . S
H275 C302 0.950 . S
H276 C305 0.950 . S
H277 C306 0.950 . S
H278 C308 0.950 . S
H279 C309 0.950 . S
C280 H262 0.951 . S
C280 C281 1.366 . S
C280 C282 1.388 . S
C281 C280 1.366 . S
C281 C285 1.385 . S
C282 H263 0.951 . S
C282 C280 1.388 . S
C282 C283 1.366 . S
C283 C282 1.366 . S
C283 C284 1.414 . S
C283 C286 1.499 . S
C284 H264 0.950 . S
C284 C283 1.414 . S
C284 C285 1.374 . S
C285 H265 0.950 . S
C285 C281 1.385 . S
C285 C284 1.374 . S
C286 C283 1.499 . S
C286 C287 1.373 1_545 S
C286 C288 1.389 . S
C287 H266 0.950 . S
C287 C286 1.373 1_565 S
C287 C303 1.377 . S
C288 C286 1.389 . S
C288 C289 1.524 . S
C288 C302 1.377 . S
C289 C288 1.524 . S
C289 C290 1.397 . S
C289 C294 1.363 . S
C290 H267 0.950 . S
C290 C289 1.397 . S
C290 C291 1.334 . S
C291 H268 0.950 . S
C291 C290 1.334 . S
C291 C292 1.287 . S
C292 C291 1.287 . S
C292 C293 1.524 . S
C292 H311 0.913 . S
C293 H269 0.950 . S
C293 C292 1.524 . S
C293 C294 1.415 . S
C294 H270 0.950 . S
C294 C289 1.363 . S
C294 C293 1.415 . S
C295 H271 0.951 . S
C295 C296 1.366 . S
C295 C297 1.388 . S
C296 C295 1.366 . S
C296 C300 1.385 . S
C297 H272 0.951 . S
C297 C295 1.388 . S
C297 C298 1.366 . S
C298 C297 1.366 . S
C298 C299 1.414 . S
C298 C301 1.499 . S
C299 H273 0.950 . S
C299 C298 1.414 . S
C299 C300 1.374 . S
C300 H274 0.950 . S
C300 C296 1.385 . S
C300 C299 1.374 . S
C301 C298 1.499 . S
C301 C302 1.373 1_565 S
C301 C303 1.389 . S
C302 H275 0.950 . S
C302 C288 1.377 . S
C302 C301 1.373 1_545 S
C303 C287 1.377 . S
C303 C301 1.389 . S
C303 C304 1.524 . S
C304 C303 1.524 . S
C304 C305 1.397 . S
C304 C309 1.363 . S
C305 H276 0.950 . S
C305 C304 1.397 . S
C305 C306 1.334 . S
C306 H277 0.950 . S
C306 C305 1.334 . S
C306 C307 1.287 . S
C307 C306 1.287 . S
C307 C308 1.524 . S
C307 H310 0.999 . S
C308 H278 0.950 . S
C308 C307 1.524 . S
C308 C309 1.415 . S
C309 H279 0.950 . S
C309 C304 1.363 . S
C309 C308 1.415 . S
H310 C307 0.999 . S
H311 C292 0.913 . S
H312 C330 0.951 . S
H313 C332 0.951 . S
H314 C334 0.950 . S
H315 C335 0.950 . S
H316 C337 0.950 . S
H317 C340 0.950 . S
H318 C341 0.950 . S
H319 C343 0.950 . S
H320 C344 0.950 . S
H321 C345 0.951 . S
H322 C347 0.951 . S
H323 C349 0.950 . S
H324 C350 0.950 . S
H325 C352 0.950 . S
H326 C355 0.950 . S
H327 C356 0.950 . S
H328 C358 0.950 . S
H329 C359 0.950 . S
C330 H312 0.951 . S
C330 C331 1.366 . S
C330 C332 1.388 . S
C331 C330 1.366 . S
C331 C335 1.385 . S
C332 H313 0.951 . S
C332 C330 1.388 . S
C332 C333 1.366 . S
C333 C332 1.366 . S
C333 C334 1.414 . S
C333 C336 1.499 . S
C334 H314 0.950 . S
C334 C333 1.414 . S
C334 C335 1.374 . S
C335 H315 0.950 . S
C335 C331 1.385 . S
C335 C334 1.374 . S
C336 C333 1.499 . S
C336 C337 1.373 . S
C336 C338 1.389 . S
C337 H316 0.950 . S
C337 C336 1.373 . S
C337 C353 1.377 . S
C338 C336 1.389 . S
C338 C339 1.524 . S
C338 C352 1.377 . S
C339 C338 1.524 . S
C339 C340 1.397 . S
C339 C344 1.363 . S
C340 H317 0.950 . S
C340 C339 1.397 . S
C340 C341 1.334 . S
C341 H318 0.950 . S
C341 C340 1.334 . S
C341 C342 1.287 . S
C342 C341 1.287 . S
C342 C343 1.524 . S
C342 H361 0.913 . S
C343 H319 0.950 . S
C343 C342 1.524 . S
C343 C344 1.415 . S
C344 H320 0.950 . S
C344 C339 1.363 . S
C344 C343 1.415 . S
C345 H321 0.951 . S
C345 C346 1.366 . S
C345 C347 1.388 . S
C346 C345 1.366 . S
C346 C350 1.385 . S
C347 H322 0.951 . S
C347 C345 1.388 . S
C347 C348 1.366 . S
C348 C347 1.366 . S
C348 C349 1.414 . S
C348 C351 1.499 . S
C349 H323 0.950 . S
C349 C348 1.414 . S
C349 C350 1.374 . S
C350 H324 0.950 . S
C350 C346 1.385 . S
C350 C349 1.374 . S
C351 C348 1.499 . S
C351 C352 1.373 . S
C351 C353 1.389 . S
C352 H325 0.950 . S
C352 C338 1.377 . S
C352 C351 1.373 . S
C353 C337 1.377 . S
C353 C351 1.389 . S
C353 C354 1.524 . S
C354 C353 1.524 . S
C354 C355 1.397 . S
C354 C359 1.363 . S
C355 H326 0.950 . S
C355 C354 1.397 . S
C355 C356 1.334 . S
C356 H327 0.950 . S
C356 C355 1.334 . S
C356 C357 1.287 . S
C357 C356 1.287 . S
C357 C358 1.524 . S
C357 H360 0.999 . S
C358 H328 0.950 . S
C358 C357 1.524 . S
C358 C359 1.415 . S
C359 H329 0.950 . S
C359 C354 1.363 . S
C359 C358 1.415 . S
H360 C357 0.999 . S
H361 C342 0.913 . S
H362 C380 0.951 . S
H363 C382 0.951 . S
H364 C384 0.950 1_565 S
H365 C385 0.950 . S
H366 C387 0.950 . S
H367 C390 0.950 . S
H368 C391 0.950 . S
H369 C393 0.950 . S
H370 C394 0.950 . S
H371 C395 0.951 . S
H372 C397 0.951 . S
H373 C399 0.950 1_545 S
H374 C400 0.950 1_455 S
H375 C402 0.950 . S
H376 C405 0.950 . S
H377 C406 0.950 . S
H378 C408 0.950 . S
H379 C409 0.950 . S
C380 H362 0.951 . S
C380 C381 1.366 . S
C380 C382 1.388 . S
C381 C380 1.366 . S
C381 C385 1.385 . S
C382 H363 0.951 . S
C382 C380 1.388 . S
C382 C383 1.366 . S
C383 C382 1.366 . S
C383 C384 1.414 . S
C383 C386 1.499 . S
C384 H364 0.950 1_545 S
C384 C383 1.414 . S
C384 C385 1.374 . S
C385 H365 0.950 . S
C385 C381 1.385 . S
C385 C384 1.374 . S
C386 C383 1.499 . S
C386 C387 1.373 1_545 S
C386 C388 1.389 . S
C387 H366 0.950 . S
C387 C386 1.373 1_565 S
C387 C403 1.377 . S
C388 C386 1.389 . S
C388 C389 1.524 . S
C388 C402 1.377 . S
C389 C388 1.524 . S
C389 C390 1.397 . S
C389 C394 1.363 . S
C390 H367 0.950 . S
C390 C389 1.397 . S
C390 C391 1.334 . S
C391 H368 0.950 . S
C391 C390 1.334 . S
C391 C392 1.287 . S
C392 C391 1.287 . S
C392 C393 1.524 . S
C392 H411 0.913 . S
C393 H369 0.950 . S
C393 C392 1.524 . S
C393 C394 1.415 . S
C394 H370 0.950 . S
C394 C389 1.363 . S
C394 C393 1.415 . S
C395 H371 0.951 . S
C395 C396 1.366 . S
C395 C397 1.388 1_455 S
C396 C395 1.366 . S
C396 C400 1.386 1_455 S
C397 H372 0.951 . S
C397 C395 1.388 1_655 S
C397 C398 1.366 . S
C398 C397 1.366 . S
C398 C399 1.414 . S
C398 C401 1.499 . S
C399 H373 0.950 1_565 S
C399 C398 1.414 . S
C399 C400 1.372 . S
C400 H374 0.950 1_655 S
C400 C396 1.386 1_655 S
C400 C399 1.372 . S
C401 C398 1.499 . S
C401 C402 1.373 1_565 S
C401 C403 1.389 . S
C402 H375 0.950 . S
C402 C388 1.377 . S
C402 C401 1.373 1_545 S
C403 C387 1.377 . S
C403 C401 1.389 . S
C403 C404 1.524 . S
C404 C403 1.524 . S
C404 C405 1.397 . S
C404 C409 1.363 . S
C405 H376 0.950 . S
C405 C404 1.397 . S
C405 C406 1.334 . S
C406 H377 0.950 . S
C406 C405 1.334 . S
C406 C407 1.287 . S
C407 C406 1.287 . S
C407 C408 1.524 . S
C407 H410 0.999 . S
C408 H378 0.950 . S
C408 C407 1.524 . S
C408 C409 1.415 . S
C409 H379 0.950 . S
C409 C404 1.363 . S
C409 C408 1.415 . S
H410 C407 0.999 . S
H411 C392 0.913 . S
H412 C430 0.951 . S
H413 C432 0.951 . S
H414 C434 0.950 . S
H415 C435 0.950 . S
H416 C437 0.950 . S
H417 C440 0.950 . S
H418 C441 0.950 . S
H419 C443 0.950 . S
H420 C444 0.950 . S
H421 C445 0.951 . S
H422 C447 0.951 . S
H423 C449 0.950 . S
H424 C450 0.950 . S
H425 C452 0.950 . S
H426 C455 0.950 . S
H427 C456 0.950 . S
H428 C458 0.950 . S
H429 C459 0.950 . S
C430 H412 0.951 . S
C430 C431 1.366 . S
C430 C432 1.388 . S
C431 C430 1.366 . S
C431 C435 1.385 . S
C432 H413 0.951 . S
C432 C430 1.388 . S
C432 C433 1.366 . S
C433 C432 1.366 . S
C433 C434 1.414 . S
C433 C436 1.499 . S
C434 H414 0.950 . S
C434 C433 1.414 . S
C434 C435 1.374 . S
C435 H415 0.950 . S
C435 C431 1.385 . S
C435 C434 1.374 . S
C436 C433 1.499 . S
C436 C437 1.373 . S
C436 C438 1.389 . S
C437 H416 0.950 . S
C437 C436 1.373 . S
C437 C453 1.377 . S
C438 C436 1.389 . S
C438 C439 1.524 . S
C438 C452 1.377 . S
C439 C438 1.524 . S
C439 C440 1.397 . S
C439 C444 1.363 . S
C440 H417 0.950 . S
C440 C439 1.397 . S
C440 C441 1.334 . S
C441 H418 0.950 . S
C441 C440 1.334 . S
C441 C442 1.287 . S
C442 C441 1.287 . S
C442 C443 1.524 . S
C442 H461 0.913 . S
C443 H419 0.950 . S
C443 C442 1.524 . S
C443 C444 1.415 . S
C444 H420 0.950 . S
C444 C439 1.363 . S
C444 C443 1.415 . S
C445 H421 0.951 . S
C445 C446 1.366 1_455 S
C445 C447 1.388 . S
C446 C445 1.366 1_655 S
C446 C450 1.385 . S
C447 H422 0.951 . S
C447 C445 1.388 . S
C447 C448 1.366 . S
C448 C447 1.366 . S
C448 C449 1.414 1_455 S
C448 C451 1.499 . S
C449 H423 0.950 . S
C449 C448 1.414 1_655 S
C449 C450 1.374 . S
C450 H424 0.950 . S
C450 C446 1.385 . S
C450 C449 1.374 . S
C451 C448 1.499 . S
C451 C452 1.373 . S
C451 C453 1.389 . S
C452 H425 0.950 . S
C452 C438 1.377 . S
C452 C451 1.373 . S
C453 C437 1.377 . S
C453 C451 1.389 . S
C453 C454 1.524 . S
C454 C453 1.524 . S
C454 C455 1.397 . S
C454 C459 1.363 . S
C455 H426 0.950 . S
C455 C454 1.397 . S
C455 C456 1.334 . S
C456 H427 0.950 . S
C456 C455 1.334 . S
C456 C457 1.287 . S
C457 C456 1.287 . S
C457 C458 1.524 . S
C457 H460 0.999 . S
C458 H428 0.950 . S
C458 C457 1.524 . S
C458 C459 1.415 . S
C459 H429 0.950 . S
C459 C454 1.363 . S
C459 C458 1.415 . S
H460 C457 0.999 . S
H461 C442 0.913 . S
H462 C480 0.951 . S
H463 C482 0.951 . S
H464 C484 0.950 . S
H465 C485 0.950 . S
H466 C487 0.950 . S
H467 C490 0.950 . S
H468 C491 0.950 . S
H469 C493 0.950 . S
H470 C494 0.950 . S
H471 C495 0.951 . S
H472 C497 0.951 . S
H473 C499 0.950 . S
H474 C500 0.950 . S
H475 C502 0.950 . S
H476 C505 0.950 . S
H477 C506 0.950 . S
H478 C508 0.950 . S
H479 C509 0.950 . S
C480 H462 0.951 . S
C480 C481 1.366 . S
C480 C482 1.388 . S
C481 C480 1.366 . S
C481 C485 1.385 . S
C482 H463 0.951 . S
C482 C480 1.388 . S
C482 C483 1.366 . S
C483 C482 1.366 . S
C483 C484 1.414 . S
C483 C486 1.499 . S
C484 H464 0.950 . S
C484 C483 1.414 . S
C484 C485 1.374 . S
C485 H465 0.950 . S
C485 C481 1.385 . S
C485 C484 1.374 . S
C486 C483 1.499 . S
C486 C487 1.373 1_565 S
C486 C488 1.389 . S
C487 H466 0.950 . S
C487 C486 1.373 1_545 S
C487 C503 1.377 . S
C488 C486 1.389 . S
C488 C489 1.524 . S
C488 C502 1.377 . S
C489 C488 1.524 . S
C489 C490 1.397 . S
C489 C494 1.363 . S
C490 H467 0.950 . S
C490 C489 1.397 . S
C490 C491 1.334 . S
C491 H468 0.950 . S
C491 C490 1.334 . S
C491 C492 1.287 . S
C492 C491 1.287 . S
C492 C493 1.524 . S
C492 H511 0.913 . S
C493 H469 0.950 . S
C493 C492 1.524 . S
C493 C494 1.415 . S
C494 H470 0.950 . S
C494 C489 1.363 . S
C494 C493 1.415 . S
C495 H471 0.951 . S
C495 C496 1.366 . S
C495 C497 1.388 . S
C496 C495 1.366 . S
C496 C500 1.385 . S
C497 H472 0.951 . S
C497 C495 1.388 . S
C497 C498 1.366 . S
C498 C497 1.366 . S
C498 C499 1.414 . S
C498 C501 1.499 . S
C499 H473 0.950 . S
C499 C498 1.414 . S
C499 C500 1.374 . S
C500 H474 0.950 . S
C500 C496 1.385 . S
C500 C499 1.374 . S
C501 C498 1.499 . S
C501 C502 1.373 1_545 S
C501 C503 1.389 . S
C502 H475 0.950 . S
C502 C488 1.377 . S
C502 C501 1.373 1_565 S
C503 C487 1.377 . S
C503 C501 1.389 . S
C503 C504 1.524 . S
C504 C503 1.524 . S
C504 C505 1.397 . S
C504 C509 1.363 . S
C505 H476 0.950 . S
C505 C504 1.397 . S
C505 C506 1.334 . S
C506 H477 0.950 . S
C506 C505 1.334 . S
C506 C507 1.287 . S
C507 C506 1.287 . S
C507 C508 1.524 . S
C507 H510 0.999 . S
C508 H478 0.950 . S
C508 C507 1.524 . S
C508 C509 1.415 . S
C509 H479 0.950 . S
C509 C504 1.363 . S
C509 C508 1.415 . S
H510 C507 0.999 . S
H511 C492 0.913 . S
H512 C530 0.951 . S
H513 C532 0.951 . S
H514 C534 0.950 . S
H515 C535 0.950 . S
H516 C537 0.950 . S
H517 C540 0.950 . S
H518 C541 0.950 . S
H519 C543 0.950 . S
H520 C544 0.950 . S
H521 C545 0.951 . S
H522 C547 0.951 . S
H523 C549 0.950 . S
H524 C550 0.950 . S
H525 C552 0.950 . S
H526 C555 0.950 . S
H527 C556 0.950 . S
H528 C558 0.950 . S
H529 C559 0.950 . S
C530 H512 0.951 . S
C530 C531 1.366 . S
C530 C532 1.388 . S
C531 C530 1.366 . S
C531 C535 1.385 . S
C532 H513 0.951 . S
C532 C530 1.388 . S
C532 C533 1.366 . S
C533 C532 1.366 . S
C533 C534 1.414 . S
C533 C536 1.499 . S
C534 H514 0.950 . S
C534 C533 1.414 . S
C534 C535 1.374 . S
C535 H515 0.950 . S
C535 C531 1.385 . S
C535 C534 1.374 . S
C536 C533 1.499 . S
C536 C537 1.373 . S
C536 C538 1.389 1_455 S
C537 H516 0.950 . S
C537 C536 1.373 . S
C537 C553 1.377 . S
C538 C536 1.389 1_655 S
C538 C539 1.524 . S
C538 C552 1.377 . S
C539 C538 1.524 . S
C539 C540 1.397 . S
C539 C544 1.363 . S
C540 H517 0.950 . S
C540 C539 1.397 . S
C540 C541 1.334 . S
C541 H518 0.950 . S
C541 C540 1.334 . S
C541 C542 1.287 . S
C542 C541 1.287 . S
C542 C543 1.524 . S
C542 H561 0.913 . S
C543 H519 0.950 . S
C543 C542 1.524 . S
C543 C544 1.415 . S
C544 H520 0.950 . S
C544 C539 1.363 . S
C544 C543 1.415 . S
C545 H521 0.951 . S
C545 C546 1.366 . S
C545 C547 1.388 . S
C546 C545 1.366 . S
C546 C550 1.385 . S
C547 H522 0.951 . S
C547 C545 1.388 . S
C547 C548 1.366 . S
C548 C547 1.366 . S
C548 C549 1.414 . S
C548 C551 1.499 . S
C549 H523 0.950 . S
C549 C548 1.414 . S
C549 C550 1.374 . S
C550 H524 0.950 . S
C550 C546 1.385 . S
C550 C549 1.374 . S
C551 C548 1.499 . S
C551 C552 1.373 . S
C551 C553 1.389 1_655 S
C552 H525 0.950 . S
C552 C538 1.377 . S
C552 C551 1.373 . S
C553 C537 1.377 . S
C553 C551 1.389 1_455 S
C553 C554 1.524 . S
C554 C553 1.524 . S
C554 C555 1.397 . S
C554 C559 1.363 . S
C555 H526 0.950 . S
C555 C554 1.397 . S
C555 C556 1.334 . S
C556 H527 0.950 . S
C556 C555 1.334 . S
C556 C557 1.287 . S
C557 C556 1.287 . S
C557 C558 1.524 . S
C557 H560 0.999 . S
C558 H528 0.950 . S
C558 C557 1.524 . S
C558 C559 1.415 . S
C559 H529 0.950 . S
C559 C554 1.363 . S
C559 C558 1.415 . S
H560 C557 0.999 . S
H561 C542 0.913 . S
H562 C580 0.951 1_545 S
H563 C582 0.951 1_545 S
H564 C584 0.950 . S
H565 C585 0.950 . S
H566 C587 0.950 . S
H567 C590 0.950 1_565 S
H568 C591 0.950 . S
H569 C593 0.950 . S
H570 C594 0.950 . S
H571 C595 0.951 1_565 S
H572 C597 0.951 1_565 S
H573 C599 0.950 . S
H574 C600 0.950 . S
H575 C602 0.950 . S
H576 C605 0.950 1_545 S
H577 C606 0.950 . S
H578 C608 0.950 . S
H579 C609 0.950 . S
C580 H562 0.951 1_565 S
C580 C581 1.366 . S
C580 C582 1.388 . S
C581 C580 1.366 . S
C581 C585 1.385 . S
C582 H563 0.951 1_565 S
C582 C580 1.388 . S
C582 C583 1.366 . S
C583 C582 1.366 . S
C583 C584 1.414 . S
C583 C586 1.499 . S
C584 H564 0.950 . S
C584 C583 1.414 . S
C584 C585 1.374 . S
C585 H565 0.950 . S
C585 C581 1.385 . S
C585 C584 1.374 . S
C586 C583 1.499 . S
C586 C587 1.373 . S
C586 C588 1.389 1_565 S
C587 H566 0.950 . S
C587 C586 1.373 . S
C587 C603 1.377 . S
C588 C586 1.389 1_545 S
C588 C589 1.524 . S
C588 C602 1.377 . S
C589 C588 1.524 . S
C589 C590 1.397 . S
C589 C594 1.363 . S
C590 H567 0.950 1_545 S
C590 C589 1.397 . S
C590 C591 1.334 . S
C591 H568 0.950 . S
C591 C590 1.334 . S
C591 C592 1.287 . S
C592 C591 1.287 . S
C592 C593 1.524 . S
C592 H611 0.913 . S
C593 H569 0.950 . S
C593 C592 1.524 . S
C593 C594 1.415 . S
C594 H570 0.950 . S
C594 C589 1.363 . S
C594 C593 1.415 . S
C595 H571 0.951 1_545 S
C595 C596 1.366 . S
C595 C597 1.388 . S
C596 C595 1.366 . S
C596 C600 1.385 . S
C597 H572 0.951 1_545 S
C597 C595 1.388 . S
C597 C598 1.366 . S
C598 C597 1.366 . S
C598 C599 1.414 . S
C598 C601 1.499 . S
C599 H573 0.950 . S
C599 C598 1.414 . S
C599 C600 1.374 . S
C600 H574 0.950 . S
C600 C596 1.385 . S
C600 C599 1.374 . S
C601 C598 1.499 . S
C601 C602 1.373 . S
C601 C603 1.389 1_545 S
C602 H575 0.950 . S
C602 C588 1.377 . S
C602 C601 1.373 . S
C603 C587 1.377 . S
C603 C601 1.389 1_565 S
C603 C604 1.524 . S
C604 C603 1.524 . S
C604 C605 1.397 . S
C604 C609 1.363 . S
C605 H576 0.950 1_565 S
C605 C604 1.397 . S
C605 C606 1.334 . S
C606 H577 0.950 . S
C606 C605 1.334 . S
C606 C607 1.287 . S
C607 C606 1.287 . S
C607 C608 1.524 . S
C607 H610 0.999 . S
C608 H578 0.950 . S
C608 C607 1.524 . S
C608 C609 1.415 . S
C609 H579 0.950 . S
C609 C604 1.363 . S
C609 C608 1.415 . S
H610 C607 0.999 . S
H611 C592 0.913 . S
H612 C630 0.951 . S
H613 C632 0.951 . S
H614 C634 0.950 . S
H615 C635 0.950 . S
H616 C637 0.950 . S
H617 C640 0.950 . S
H618 C641 0.950 . S
H619 C643 0.950 . S
H620 C644 0.950 . S
H621 C645 0.951 . S
H622 C647 0.951 . S
H623 C649 0.950 . S
H624 C650 0.950 . S
H625 C652 0.950 . S
H626 C655 0.950 . S
H627 C656 0.950 . S
H628 C658 0.950 . S
H629 C659 0.950 . S
C630 H612 0.951 . S
C630 C631 1.366 . S
C630 C632 1.388 . S
C631 C630 1.366 . S
C631 C635 1.385 . S
C632 H613 0.951 . S
C632 C630 1.388 . S
C632 C633 1.366 . S
C633 C632 1.366 . S
C633 C634 1.414 . S
C633 C636 1.499 . S
C634 H614 0.950 . S
C634 C633 1.414 . S
C634 C635 1.374 . S
C635 H615 0.950 . S
C635 C631 1.385 . S
C635 C634 1.374 . S
C636 C633 1.499 . S
C636 C637 1.373 . S
C636 C638 1.374 1_554 S
C637 H616 0.950 . S
C637 C636 1.373 . S
C637 C653 1.392 . S
C638 C636 1.374 1_556 S
C638 C639 1.526 . S
C638 C652 1.392 . S
C639 C638 1.526 . S
C639 C640 1.397 1_556 S
C639 C644 1.363 . S
C640 H617 0.950 . S
C640 C639 1.397 1_554 S
C640 C641 1.334 . S
C641 H618 0.950 . S
C641 C640 1.334 . S
C641 C642 1.287 1_554 S
C642 C641 1.287 1_556 S
C642 C643 1.524 . S
C642 H661 0.913 . S
C643 H619 0.950 . S
C643 C642 1.524 . S
C643 C644 1.415 . S
C644 H620 0.950 . S
C644 C639 1.363 . S
C644 C643 1.415 . S
C645 H621 0.951 . S
C645 C646 1.366 . S
C645 C647 1.388 . S
C646 C645 1.366 . S
C646 C650 1.385 . S
C647 H622 0.951 . S
C647 C645 1.388 . S
C647 C648 1.366 . S
C648 C647 1.366 . S
C648 C649 1.414 . S
C648 C651 1.499 . S
C649 H623 0.950 . S
C649 C648 1.414 . S
C649 C650 1.374 . S
C650 H624 0.950 . S
C650 C646 1.385 . S
C650 C649 1.374 . S
C651 C648 1.499 . S
C651 C652 1.373 . S
C651 C653 1.374 1_556 S
C652 H625 0.950 . S
C652 C638 1.392 . S
C652 C651 1.373 . S
C653 C637 1.392 . S
C653 C651 1.374 1_554 S
C653 C654 1.526 . S
C654 C653 1.526 . S
C654 C655 1.397 1_554 S
C654 C659 1.363 . S
C655 H626 0.950 . S
C655 C654 1.397 1_556 S
C655 C656 1.334 . S
C656 H627 0.950 . S
C656 C655 1.334 . S
C656 C657 1.287 1_556 S
C657 C656 1.287 1_554 S
C657 C658 1.524 . S
C657 H660 0.999 . S
C658 H628 0.950 . S
C658 C657 1.524 . S
C658 C659 1.415 . S
C659 H629 0.950 . S
C659 C654 1.363 . S
C659 C658 1.415 . S
H660 C657 0.999 . S
H661 C642 0.913 . S
H662 C680 0.951 . S
H663 C682 0.951 . S
H664 C684 0.950 1_655 S
H665 C685 0.950 . S
H666 C687 0.950 . S
H667 C690 0.950 . S
H668 C691 0.950 . S
H669 C693 0.950 . S
H670 C694 0.950 . S
H671 C695 0.951 . S
H672 C697 0.951 . S
H673 C699 0.950 1_455 S
H674 C700 0.950 . S
H675 C702 0.950 . S
H676 C705 0.950 . S
H677 C706 0.950 . S
H678 C708 0.950 . S
H679 C709 0.950 . S
C680 H662 0.951 . S
C680 C681 1.366 . S
C680 C682 1.388 . S
C681 C680 1.366 . S
C681 C685 1.385 . S
C682 H663 0.951 . S
C682 C680 1.388 . S
C682 C683 1.366 . S
C683 C682 1.366 . S
C683 C684 1.414 . S
C683 C686 1.499 . S
C684 H664 0.950 1_455 S
C684 C683 1.414 . S
C684 C685 1.374 . S
C685 H665 0.950 . S
C685 C681 1.385 . S
C685 C684 1.374 . S
C686 C683 1.499 . S
C686 C687 1.373 1_465 S
C686 C688 1.344 1_556 S
C687 H666 0.950 . S
C687 C686 1.373 1_645 S
C687 C703 1.420 . S
C688 C686 1.344 1_554 S
C688 C689 1.531 . S
C688 C702 1.420 . S
C689 C688 1.531 . S
C689 C690 1.397 1_554 S
C689 C694 1.363 . S
C690 H667 0.950 . S
C690 C689 1.397 1_556 S
C690 C691 1.334 . S
C691 H668 0.950 . S
C691 C690 1.334 . S
C691 C692 1.287 1_556 S
C692 C691 1.287 1_554 S
C692 C693 1.524 . S
C692 H711 0.913 . S
C693 H669 0.950 . S
C693 C692 1.524 . S
C693 C694 1.415 . S
C694 H670 0.950 . S
C694 C689 1.363 . S
C694 C693 1.415 . S
C695 H671 0.951 . S
C695 C696 1.366 . S
C695 C697 1.388 . S
C696 C695 1.366 . S
C696 C700 1.385 . S
C697 H672 0.951 . S
C697 C695 1.388 . S
C697 C698 1.366 . S
C698 C697 1.366 . S
C698 C699 1.414 . S
C698 C701 1.499 . S
C699 H673 0.950 1_655 S
C699 C698 1.414 . S
C699 C700 1.374 . S
C700 H674 0.950 . S
C700 C696 1.385 . S
C700 C699 1.374 . S
C701 C698 1.499 . S
C701 C702 1.373 1_645 S
C701 C703 1.344 1_554 S
C702 H675 0.950 . S
C702 C688 1.420 . S
C702 C701 1.373 1_465 S
C703 C687 1.420 . S
C703 C701 1.344 1_556 S
C703 C704 1.531 . S
C704 C703 1.531 . S
C704 C705 1.397 1_556 S
C704 C709 1.363 . S
C705 H676 0.950 . S
C705 C704 1.397 1_554 S
C705 C706 1.334 . S
C706 H677 0.950 . S
C706 C705 1.334 . S
C706 C707 1.287 1_554 S
C707 C706 1.287 1_556 S
C707 C708 1.524 . S
C707 H710 0.999 . S
C708 H678 0.950 . S
C708 C707 1.524 . S
C708 C709 1.415 . S
C709 H679 0.950 . S
C709 C704 1.363 . S
C709 C708 1.415 . S
H710 C707 0.999 . S
H711 C692 0.913 . S
H712 C730 0.951 . S
H713 C732 0.951 . S
H714 C734 0.950 . S
H715 C735 0.950 . S
H716 C737 0.950 . S
H717 C740 0.950 . S
H718 C741 0.950 . S
H719 C743 0.950 . S
H720 C744 0.950 . S
H721 C745 0.951 . S
H722 C747 0.951 . S
H723 C749 0.950 . S
H724 C750 0.950 . S
H725 C752 0.950 . S
H726 C755 0.950 . S
H727 C756 0.950 . S
H728 C758 0.950 . S
H729 C759 0.950 . S
C730 H712 0.951 . S
C730 C731 1.366 . S
C730 C732 1.388 . S
C731 C730 1.366 . S
C731 C735 1.385 . S
C732 H713 0.951 . S
C732 C730 1.388 . S
C732 C733 1.366 . S
C733 C732 1.366 . S
C733 C734 1.414 . S
C733 C736 1.499 . S
C734 H714 0.950 . S
C734 C733 1.414 . S
C734 C735 1.374 . S
C735 H715 0.950 . S
C735 C731 1.385 . S
C735 C734 1.374 . S
C736 C733 1.499 . S
C736 C737 1.373 . S
C736 C738 1.389 . S
C737 H716 0.950 . S
C737 C736 1.373 . S
C737 C753 1.377 . S
C738 C736 1.389 . S
C738 C739 1.524 . S
C738 C752 1.377 . S
C739 C738 1.524 . S
C739 C740 1.397 . S
C739 C744 1.363 . S
C740 H717 0.950 . S
C740 C739 1.397 . S
C740 C741 1.334 . S
C741 H718 0.950 . S
C741 C740 1.334 . S
C741 C742 1.287 . S
C742 C741 1.287 . S
C742 C743 1.524 . S
C742 H761 0.913 . S
C743 H719 0.950 . S
C743 C742 1.524 . S
C743 C744 1.415 . S
C744 H720 0.950 . S
C744 C739 1.363 . S
C744 C743 1.415 . S
C745 H721 0.951 . S
C745 C746 1.366 . S
C745 C747 1.388 . S
C746 C745 1.366 . S
C746 C750 1.385 . S
C747 H722 0.951 . S
C747 C745 1.388 . S
C747 C748 1.366 . S
C748 C747 1.366 . S
C748 C749 1.414 . S
C748 C751 1.499 . S
C749 H723 0.950 . S
C749 C748 1.414 . S
C749 C750 1.374 . S
C750 H724 0.950 . S
C750 C746 1.385 . S
C750 C749 1.374 . S
C751 C748 1.499 . S
C751 C752 1.373 . S
C751 C753 1.389 . S
C752 H725 0.950 . S
C752 C738 1.377 . S
C752 C751 1.373 . S
C753 C737 1.377 . S
C753 C751 1.389 . S
C753 C754 1.524 . S
C754 C753 1.524 . S
C754 C755 1.397 . S
C754 C759 1.363 . S
C755 H726 0.950 . S
C755 C754 1.397 . S
C755 C756 1.334 . S
C756 H727 0.950 . S
C756 C755 1.334 . S
C756 C757 1.287 . S
C757 C756 1.287 . S
C757 C758 1.524 . S
C757 H760 0.999 . S
C758 H728 0.950 . S
C758 C757 1.524 . S
C758 C759 1.415 . S
C759 H729 0.950 . S
C759 C754 1.363 . S
C759 C758 1.415 . S
H760 C757 0.999 . S
H761 C742 0.913 . S
H762 C780 0.951 . S
H763 C782 0.951 . S
H764 C784 0.950 . S
H765 C785 0.950 . S
H766 C787 0.950 . S
H767 C790 0.950 . S
H768 C791 0.950 . S
H769 C793 0.950 . S
H770 C794 0.950 . S
H771 C795 0.951 . S
H772 C797 0.951 . S
H773 C799 0.950 . S
H774 C800 0.950 . S
H775 C802 0.950 . S
H776 C805 0.950 . S
H777 C806 0.950 . S
H778 C808 0.950 . S
H779 C809 0.950 . S
C780 H762 0.951 . S
C780 C781 1.366 . S
C780 C782 1.388 . S
C781 C780 1.366 . S
C781 C785 1.385 . S
C782 H763 0.951 . S
C782 C780 1.388 . S
C782 C783 1.366 . S
C783 C782 1.366 . S
C783 C784 1.414 . S
C783 C786 1.499 . S
C784 H764 0.950 . S
C784 C783 1.414 . S
C784 C785 1.374 . S
C785 H765 0.950 . S
C785 C781 1.385 . S
C785 C784 1.374 . S
C786 C783 1.499 . S
C786 C787 1.373 . S
C786 C788 1.389 . S
C787 H766 0.950 . S
C787 C786 1.373 . S
C787 C803 1.377 . S
C788 C786 1.389 . S
C788 C789 1.524 . S
C788 C802 1.377 . S
C789 C788 1.524 . S
C789 C790 1.397 . S
C789 C794 1.363 . S
C790 H767 0.950 . S
C790 C789 1.397 . S
C790 C791 1.334 . S
C791 H768 0.950 . S
C791 C790 1.334 . S
C791 C792 1.287 . S
C792 C791 1.287 . S
C792 C793 1.524 . S
C792 H811 0.913 . S
C793 H769 0.950 . S
C793 C792 1.524 . S
C793 C794 1.415 . S
C794 H770 0.950 . S
C794 C789 1.363 . S
C794 C793 1.415 . S
C795 H771 0.951 . S
C795 C796 1.366 . S
C795 C797 1.388 . S
C796 C795 1.366 . S
C796 C800 1.385 . S
C797 H772 0.951 . S
C797 C795 1.388 . S
C797 C798 1.366 . S
C798 C797 1.366 . S
C798 C799 1.414 . S
C798 C801 1.499 . S
C799 H773 0.950 . S
C799 C798 1.414 . S
C799 C800 1.374 . S
C800 H774 0.950 . S
C800 C796 1.385 . S
C800 C799 1.374 . S
C801 C798 1.499 . S
C801 C802 1.373 . S
C801 C803 1.389 . S
C802 H775 0.950 . S
C802 C788 1.377 . S
C802 C801 1.373 . S
C803 C787 1.377 . S
C803 C801 1.389 . S
C803 C804 1.524 . S
C804 C803 1.524 . S
C804 C805 1.397 . S
C804 C809 1.363 . S
C805 H776 0.950 . S
C805 C804 1.397 . S
C805 C806 1.334 . S
C806 H777 0.950 . S
C806 C805 1.334 . S
C806 C807 1.287 . S
C807 C806 1.287 . S
C807 C808 1.524 . S
C807 H810 0.999 . S
C808 H778 0.950 . S
C808 C807 1.524 . S
C808 C809 1.415 . S
C809 H779 0.950 . S
C809 C804 1.363 . S
C809 C808 1.415 . S
H810 C807 0.999 . S
H811 C792 0.913 . S
H812 C830 0.951 . S
H813 C832 0.951 . S
H814 C834 0.950 . S
H815 C835 0.950 . S
H816 C837 0.950 . S
H817 C840 0.950 . S
H818 C841 0.950 . S
H819 C843 0.950 . S
H820 C844 0.950 . S
H821 C845 0.951 . S
H822 C847 0.951 . S
H823 C849 0.950 . S
H824 C850 0.950 . S
H825 C852 0.950 . S
H826 C855 0.950 . S
H827 C856 0.950 . S
H828 C858 0.950 . S
H829 C859 0.950 . S
C830 H812 0.951 . S
C830 C831 1.366 . S
C830 C832 1.388 . S
C831 C830 1.366 . S
C831 C835 1.385 . S
C832 H813 0.951 . S
C832 C830 1.388 . S
C832 C833 1.366 . S
C833 C832 1.366 . S
C833 C834 1.414 . S
C833 C836 1.499 . S
C834 H814 0.950 . S
C834 C833 1.414 . S
C834 C835 1.374 . S
C835 H815 0.950 . S
C835 C831 1.385 . S
C835 C834 1.374 . S
C836 C833 1.499 . S
C836 C837 1.373 . S
C836 C838 1.389 . S
C837 H816 0.950 . S
C837 C836 1.373 . S
C837 C853 1.377 . S
C838 C836 1.389 . S
C838 C839 1.524 . S
C838 C852 1.377 . S
C839 C838 1.524 . S
C839 C840 1.397 . S
C839 C844 1.363 . S
C840 H817 0.950 . S
C840 C839 1.397 . S
C840 C841 1.334 . S
C841 H818 0.950 . S
C841 C840 1.334 . S
C841 C842 1.287 . S
C842 C841 1.287 . S
C842 C843 1.524 . S
C842 H861 0.913 . S
C843 H819 0.950 . S
C843 C842 1.524 . S
C843 C844 1.415 . S
C844 H820 0.950 . S
C844 C839 1.363 . S
C844 C843 1.415 . S
C845 H821 0.951 . S
C845 C846 1.366 . S
C845 C847 1.388 . S
C846 C845 1.366 . S
C846 C850 1.385 . S
C847 H822 0.951 . S
C847 C845 1.388 . S
C847 C848 1.366 . S
C848 C847 1.366 . S
C848 C849 1.414 . S
C848 C851 1.499 . S
C849 H823 0.950 . S
C849 C848 1.414 . S
C849 C850 1.374 . S
C850 H824 0.950 . S
C850 C846 1.385 . S
C850 C849 1.374 . S
C851 C848 1.499 . S
C851 C852 1.373 . S
C851 C853 1.389 . S
C852 H825 0.950 . S
C852 C838 1.377 . S
C852 C851 1.373 . S
C853 C837 1.377 . S
C853 C851 1.389 . S
C853 C854 1.524 . S
C854 C853 1.524 . S
C854 C855 1.397 . S
C854 C859 1.363 . S
C855 H826 0.950 . S
C855 C854 1.397 . S
C855 C856 1.334 . S
C856 H827 0.950 . S
C856 C855 1.334 . S
C856 C857 1.287 . S
C857 C856 1.287 . S
C857 C858 1.524 . S
C857 H860 0.999 . S
C858 H828 0.950 . S
C858 C857 1.524 . S
C858 C859 1.415 . S
C859 H829 0.950 . S
C859 C854 1.363 . S
C859 C858 1.415 . S
H860 C857 0.999 . S
H861 C842 0.913 . S
H862 C880 0.951 . S
H863 C882 0.951 . S
H864 C884 0.950 . S
H865 C885 0.950 . S
H866 C887 0.950 . S
H867 C890 0.950 . S
H868 C891 0.950 . S
H869 C893 0.950 . S
H870 C894 0.950 . S
H871 C895 0.951 . S
H872 C897 0.951 . S
H873 C899 0.950 . S
H874 C900 0.950 . S
H875 C902 0.950 . S
H876 C905 0.950 . S
H877 C906 0.950 . S
H878 C908 0.950 . S
H879 C909 0.950 . S
C880 H862 0.951 . S
C880 C881 1.366 . S
C880 C882 1.388 . S
C881 C880 1.366 . S
C881 C885 1.385 . S
C882 H863 0.951 . S
C882 C880 1.388 . S
C882 C883 1.366 . S
C883 C882 1.366 . S
C883 C884 1.414 . S
C883 C886 1.499 . S
C884 H864 0.950 . S
C884 C883 1.414 . S
C884 C885 1.374 . S
C885 H865 0.950 . S
C885 C881 1.385 . S
C885 C884 1.374 . S
C886 C883 1.499 . S
C886 C887 1.373 . S
C886 C888 1.389 . S
C887 H866 0.950 . S
C887 C886 1.373 . S
C887 C903 1.377 . S
C888 C886 1.389 . S
C888 C889 1.524 . S
C888 C902 1.377 . S
C889 C888 1.524 . S
C889 C890 1.397 . S
C889 C894 1.363 . S
C890 H867 0.950 . S
C890 C889 1.397 . S
C890 C891 1.334 . S
C891 H868 0.950 . S
C891 C890 1.334 . S
C891 C892 1.287 . S
C892 C891 1.287 . S
C892 C893 1.524 . S
C892 H911 0.913 . S
C893 H869 0.950 . S
C893 C892 1.524 . S
C893 C894 1.415 . S
C894 H870 0.950 . S
C894 C889 1.363 . S
C894 C893 1.415 . S
C895 H871 0.951 . S
C895 C896 1.366 . S
C895 C897 1.388 . S
C896 C895 1.366 . S
C896 C900 1.385 . S
C897 H872 0.951 . S
C897 C895 1.388 . S
C897 C898 1.366 . S
C898 C897 1.366 . S
C898 C899 1.414 . S
C898 C901 1.499 . S
C899 H873 0.950 . S
C899 C898 1.414 . S
C899 C900 1.374 . S
C900 H874 0.950 . S
C900 C896 1.385 . S
C900 C899 1.374 . S
C901 C898 1.499 . S
C901 C902 1.373 . S
C901 C903 1.389 . S
C902 H875 0.950 . S
C902 C888 1.377 . S
C902 C901 1.373 . S
C903 C887 1.377 . S
C903 C901 1.389 . S
C903 C904 1.524 . S
C904 C903 1.524 . S
C904 C905 1.397 . S
C904 C909 1.363 . S
C905 H876 0.950 . S
C905 C904 1.397 . S
C905 C906 1.334 . S
C906 H877 0.950 . S
C906 C905 1.334 . S
C906 C907 1.287 . S
C907 C906 1.287 . S
C907 C908 1.524 . S
C907 H910 0.999 . S
C908 H878 0.950 . S
C908 C907 1.524 . S
C908 C909 1.415 . S
C909 H879 0.950 . S
C909 C904 1.363 . S
C909 C908 1.415 . S
H910 C907 0.999 . S
H911 C892 0.913 . S
C131 C9 1.372 . S
C146 C35 1.360 . S
C181 C49 1.360 . S
C196 C23 1.372 . S
C231 C37 1.373 . S
C246 C7 1.361 . S
C281 C51 1.373 . S
C296 C21 1.360 . S
C331 C91 1.360 . S
C346 C65 1.373 . S
C381 C79 1.373 . S
C396 C105 1.360 . S
C431 C93 1.372 . S
C446 C63 1.360 . S
C481 C107 1.373 . S
C496 C77 1.361 . S
C531 C8 1.521 . S
C546 C64 1.521 . S
C581 C22 1.521 . S
C596 C78 1.521 . S
C631 C36 1.521 . S
C646 C92 1.521 . S
C681 C106 1.521 . S
C696 C50 1.521 . S
C731 C3 1.530 . S
C746 C17 1.530 . S
C781 C45 1.530 . S
C796 C31 1.530 . S
C831 C73 1.530 . S
C846 C59 1.530 . S
C881 C87 1.530 . S
C896 C101 1.530 . S
