# Generated by pormake.
# Topology umh, (4)-cn, num edge types: 1
# Building blocks:
#     Node 0, Type 0, BuildingBlock: QUQFOY_clean_sbu_1, # of connection points: 4
#     Node 1, Type 0, BuildingBlock: QUQFOY_clean_sbu_1, # of connection points: 4
#     Node 2, Type 0, BuildingBlock: QUQFOY_clean_sbu_1, # of connection points: 4
#     Node 3, Type 0, BuildingBlock: QUQFOY_clean_sbu_1, # of connection points: 4
#     Node 4, Type 0, BuildingBlock: QUQFOY_clean_sbu_1, # of connection points: 4
#     Node 5, Type 0, BuildingBlock: QUQFOY_clean_sbu_1, # of connection points: 4
#     Node 6, Type 0, BuildingBlock: QUQFOY_clean_sbu_1, # of connection points: 4
#     Node 7, Type 0, BuildingBlock: QUQFOY_clean_sbu_1, # of connection points: 4
#     Node 8, Type 0, BuildingBlock: QUQFOY_clean_sbu_1, # of connection points: 4
#     Node 9, Type 0, BuildingBlock: QUQFOY_clean_sbu_1, # of connection points: 4
#     Node 10, Type 0, BuildingBlock: QUQFOY_clean_sbu_1, # of connection points: 4
#     Node 11, Type 0, BuildingBlock: QUQFOY_clean_sbu_1, # of connection points: 4
#     Node 12, Type 0, BuildingBlock: QUQFOY_clean_sbu_1, # of connection points: 4
#     Node 13, Type 0, BuildingBlock: QUQFOY_clean_sbu_1, # of connection points: 4
#     Node 14, Type 0, BuildingBlock: QUQFOY_clean_sbu_1, # of connection points: 4
#     Node 15, Type 0, BuildingBlock: QUQFOY_clean_sbu_1, # of connection points: 4
#     Edge 16, Type (0, 0), BuildingBlock: TEMPAE_clean_linker_10, # of connection points: 2
#     Edge 17, Type (0, 0), BuildingBlock: TEMPAE_clean_linker_10, # of connection points: 2
#     Edge 18, Type (0, 0), BuildingBlock: TEMPAE_clean_linker_10, # of connection points: 2
#     Edge 19, Type (0, 0), BuildingBlock: TEMPAE_clean_linker_10, # of connection points: 2
#     Edge 20, Type (0, 0), BuildingBlock: TEMPAE_clean_linker_10, # of connection points: 2
#     Edge 21, Type (0, 0), BuildingBlock: TEMPAE_clean_linker_10, # of connection points: 2
#     Edge 22, Type (0, 0), BuildingBlock: TEMPAE_clean_linker_10, # of connection points: 2
#     Edge 23, Type (0, 0), BuildingBlock: TEMPAE_clean_linker_10, # of connection points: 2
#     Edge 24, Type (0, 0), BuildingBlock: TEMPAE_clean_linker_10, # of connection points: 2
#     Edge 25, Type (0, 0), BuildingBlock: TEMPAE_clean_linker_10, # of connection points: 2
#     Edge 26, Type (0, 0), BuildingBlock: TEMPAE_clean_linker_10, # of connection points: 2
#     Edge 27, Type (0, 0), BuildingBlock: TEMPAE_clean_linker_10, # of connection points: 2
#     Edge 28, Type (0, 0), BuildingBlock: TEMPAE_clean_linker_10, # of connection points: 2
#     Edge 29, Type (0, 0), BuildingBlock: TEMPAE_clean_linker_10, # of connection points: 2
#     Edge 30, Type (0, 0), BuildingBlock: TEMPAE_clean_linker_10, # of connection points: 2
#     Edge 31, Type (0, 0), BuildingBlock: TEMPAE_clean_linker_10, # of connection points: 2
#     Edge 32, Type (0, 0), BuildingBlock: TEMPAE_clean_linker_10, # of connection points: 2
#     Edge 33, Type (0, 0), BuildingBlock: TEMPAE_clean_linker_10, # of connection points: 2
#     Edge 34, Type (0, 0), BuildingBlock: TEMPAE_clean_linker_10, # of connection points: 2
#     Edge 35, Type (0, 0), BuildingBlock: TEMPAE_clean_linker_10, # of connection points: 2
#     Edge 36, Type (0, 0), BuildingBlock: TEMPAE_clean_linker_10, # of connection points: 2
#     Edge 37, Type (0, 0), BuildingBlock: TEMPAE_clean_linker_10, # of connection points: 2
#     Edge 38, Type (0, 0), BuildingBlock: TEMPAE_clean_linker_10, # of connection points: 2
#     Edge 39, Type (0, 0), BuildingBlock: TEMPAE_clean_linker_10, # of connection points: 2
#     Edge 40, Type (0, 0), BuildingBlock: TEMPAE_clean_linker_10, # of connection points: 2
#     Edge 41, Type (0, 0), BuildingBlock: TEMPAE_clean_linker_10, # of connection points: 2
#     Edge 42, Type (0, 0), BuildingBlock: TEMPAE_clean_linker_10, # of connection points: 2
#     Edge 43, Type (0, 0), BuildingBlock: TEMPAE_clean_linker_10, # of connection points: 2
#     Edge 44, Type (0, 0), BuildingBlock: TEMPAE_clean_linker_10, # of connection points: 2
#     Edge 45, Type (0, 0), BuildingBlock: TEMPAE_clean_linker_10, # of connection points: 2
#     Edge 46, Type (0, 0), BuildingBlock: TEMPAE_clean_linker_10, # of connection points: 2
#     Edge 47, Type (0, 0), BuildingBlock: TEMPAE_clean_linker_10, # of connection points: 2
# Relax obj value: 0.066
# Max RMSD: 0.411
# Mean RMSD: 0.288
data_MOF--net-umh--node1-QUQFOY_clean_sbu_1--edge1-TEMPAE_clean_linker_10
_symmetry_space_group_name_H-M    P1
_symmetry_Int_Tables_number       1
_symmetry_cell_setting            triclinic
loop_
_symmetry_equiv_pos_as_xyz
'x, y, z'
_cell_length_a     41.739176
_cell_length_b     41.705796
_cell_length_c     53.247961
_cell_angle_alpha  92.747712
_cell_angle_beta   87.450353
_cell_angle_gamma 89.69808
loop_
_atom_site_label
_atom_site_type_symbol
_atom_site_fract_x
_atom_site_fract_y
_atom_site_fract_z
_atom_type_partial_charge
O0 O 0.3863 0.11359 0.12824 0.0
Cd1 Cd 0.38219 0.12154 0.16694 0.0
Cd2 Cd 0.32578 0.09232 0.15793 0.0
O3 O 0.34606 0.0802 0.12237 0.0
O4 O 0.42787 0.1269 0.17718 0.0
O5 O 0.39714 0.08646 0.18823 0.0
C6 C 0.42483 0.09995 0.18797 0.0
C7 C 0.30835 0.06229 0.1916 0.0
C8 C 0.37047 0.0951 0.11378 0.0
C9 C 0.32278 0.16164 0.17379 0.0
O10 O 0.3095 0.13853 0.16194 0.0
O11 O 0.35153 0.15893 0.18074 0.0
O12 O 0.29133 0.06351 0.17193 0.0
O13 O 0.33641 0.07511 0.1907 0.0
O14 O 0.38624 0.38186 0.63745 0.0
Cd15 Cd 0.38518 0.38239 0.6761 0.0
Cd16 Cd 0.42237 0.33145 0.66453 0.0
O17 O 0.43095 0.35382 0.63028 0.0
O18 O 0.37861 0.42885 0.68819 0.0
O19 O 0.42344 0.4015 0.69235 0.0
C20 C 0.40802 0.42836 0.69484 0.0
C21 C 0.45421 0.31709 0.69728 0.0
C22 C 0.40868 0.37129 0.6223 0.0
C23 C 0.35552 0.31934 0.68304 0.0
O24 O 0.37869 0.30958 0.66825 0.0
O25 O 0.35507 0.34823 0.6922 0.0
O26 O 0.45542 0.30028 0.67617 0.0
O27 O 0.43819 0.34365 0.69832 0.0
O28 O 0.13089 0.4064 0.13995 0.0
Cd29 Cd 0.13038 0.39997 0.17813 0.0
Cd30 Cd 0.18469 0.43295 0.17234 0.0
O31 O 0.16809 0.44374 0.13726 0.0
O32 O 0.084 0.39153 0.18688 0.0
O33 O 0.10929 0.43527 0.19994 0.0
C34 C 0.08279 0.41972 0.19806 0.0
C35 C 0.19762 0.46395 0.20805 0.0
C36 C 0.14644 0.42661 0.12718 0.0
C37 C 0.19119 0.36424 0.18386 0.0
O38 O 0.20406 0.38806 0.17347 0.0
O39 O 0.16139 0.365 0.19045 0.0
O40 O 0.21628 0.46341 0.18796 0.0
O41 O 0.17008 0.45015 0.2066 0.0
O42 O 0.11373 0.12142 0.63853 0.0
Cd43 Cd 0.12011 0.12283 0.67693 0.0
Cd44 Cd 0.09102 0.17874 0.67231 0.0
O45 O 0.07987 0.16201 0.63637 0.0
O46 O 0.12261 0.07639 0.68481 0.0
O47 O 0.08269 0.10868 0.69858 0.0
C48 C 0.09475 0.08007 0.69618 0.0
C49 C 0.05885 0.20191 0.70538 0.0
C50 C 0.09526 0.13811 0.62586 0.0
C51 C 0.16071 0.17958 0.68441 0.0
O52 O 0.1374 0.1935 0.67484 0.0
O53 O 0.15825 0.15036 0.69024 0.0
O54 O 0.06632 0.21766 0.68567 0.0
O55 O 0.06661 0.17187 0.70505 0.0
O56 O 0.38127 0.38209 0.42293 0.0
Cd57 Cd 0.37914 0.3868 0.38501 0.0
Cd58 Cd 0.32966 0.42223 0.39886 0.0
O59 O 0.35657 0.42852 0.43153 0.0
O60 O 0.42346 0.38708 0.36751 0.0
O61 O 0.3943 0.43068 0.37735 0.0
C62 C 0.421 0.41807 0.36863 0.0
C63 C 0.31287 0.45341 0.3663 0.0
C64 C 0.37312 0.40492 0.43865 0.0
C65 C 0.31505 0.35828 0.37919 0.0
O66 O 0.30693 0.37931 0.39637 0.0
O67 O 0.34274 0.3597 0.36802 0.0
O68 O 0.29882 0.4566 0.38847 0.0
O69 O 0.33829 0.43567 0.36376 0.0
O70 O 0.12638 0.39716 0.92727 0.0
Cd71 Cd 0.12656 0.39223 0.88838 0.0
Cd72 Cd 0.09655 0.33704 0.89937 0.0
O73 O 0.0927 0.35783 0.93588 0.0
O74 O 0.12271 0.43568 0.87361 0.0
O75 O 0.08346 0.40022 0.87533 0.0
C76 C 0.0931 0.42855 0.87004 0.0
C77 C 0.05969 0.31028 0.87423 0.0
C78 C 0.10959 0.38172 0.94315 0.0
C79 C 0.16303 0.33231 0.87504 0.0
O80 O 0.14107 0.31992 0.88856 0.0
O81 O 0.16124 0.36182 0.87002 0.0
O82 O 0.07064 0.29712 0.89362 0.0
O83 O 0.06621 0.34007 0.87121 0.0
O84 O 0.11477 0.11817 0.42602 0.0
Cd85 Cd 0.11673 0.12439 0.38767 0.0
Cd86 Cd 0.17338 0.09474 0.39306 0.0
O87 O 0.15455 0.08342 0.42836 0.0
O88 O 0.07029 0.12831 0.37914 0.0
O89 O 0.10155 0.08746 0.36582 0.0
C90 C 0.07341 0.10043 0.36761 0.0
C91 C 0.19063 0.06368 0.35744 0.0
C92 C 0.13089 0.09927 0.43873 0.0
C93 C 0.17572 0.16363 0.38091 0.0
O94 O 0.18935 0.14074 0.39131 0.0
O95 O 0.14664 0.16103 0.37456 0.0
O96 O 0.20797 0.06551 0.377 0.0
O97 O 0.16237 0.07647 0.35938 0.0
O98 O 0.39166 0.12911 0.91758 0.0
Cd99 Cd 0.39281 0.13178 0.87905 0.0
Cd100 Cd 0.42219 0.18608 0.89073 0.0
O101 O 0.43137 0.16309 0.92376 0.0
O102 O 0.39152 0.08645 0.86383 0.0
O103 O 0.43524 0.11619 0.86459 0.0
C104 C 0.4222 0.08875 0.85988 0.0
C105 C 0.45296 0.20241 0.85597 0.0
C106 C 0.41217 0.14179 0.9319 0.0
C107 C 0.35706 0.19287 0.87459 0.0
O108 O 0.37689 0.20402 0.8901 0.0
O109 O 0.3616 0.16503 0.8639 0.0
O110 O 0.45321 0.21894 0.87718 0.0
O111 O 0.43831 0.17526 0.85563 0.0
O112 O 0.61284 0.89374 0.92501 0.0
Cd113 Cd 0.61608 0.88519 0.88637 0.0
Cd114 Cd 0.67234 0.91714 0.89392 0.0
O115 O 0.65329 0.92712 0.93021 0.0
O116 O 0.57023 0.88048 0.87623 0.0
O117 O 0.60174 0.92023 0.86498 0.0
C118 C 0.5738 0.90729 0.86529 0.0
C119 C 0.68834 0.95056 0.86188 0.0
C120 C 0.62915 0.91214 0.93919 0.0
C121 C 0.67678 0.84727 0.87731 0.0
O122 O 0.69007 0.87155 0.88764 0.0
O123 O 0.64708 0.84818 0.8725 0.0
O124 O 0.70602 0.94761 0.88099 0.0
O125 O 0.66051 0.93731 0.86255 0.0
O126 O 0.60838 0.62462 0.41992 0.0
Cd127 Cd 0.61533 0.6259 0.38135 0.0
Cd128 Cd 0.58328 0.6818 0.39157 0.0
O129 O 0.57235 0.66347 0.42668 0.0
O130 O 0.62111 0.57929 0.36998 0.0
O131 O 0.57918 0.60863 0.36121 0.0
C132 C 0.59309 0.58093 0.36071 0.0
C133 C 0.55208 0.69663 0.35871 0.0
C134 C 0.58869 0.64044 0.43468 0.0
C135 C 0.65234 0.6864 0.37533 0.0
O136 O 0.62856 0.69959 0.38758 0.0
O137 O 0.65116 0.65684 0.3679 0.0
O138 O 0.55292 0.71474 0.37909 0.0
O139 O 0.56589 0.66886 0.35843 0.0
O140 O 0.86981 0.61297 0.91464 0.0
Cd141 Cd 0.87283 0.6141 0.87608 0.0
Cd142 Cd 0.82193 0.5793 0.88273 0.0
O143 O 0.84288 0.5678 0.91638 0.0
O144 O 0.9197 0.62029 0.86709 0.0
O145 O 0.89333 0.57566 0.85783 0.0
C146 C 0.92012 0.59085 0.85829 0.0
C147 C 0.80792 0.5497 0.84655 0.0
C148 C 0.85927 0.5898 0.92717 0.0
C149 C 0.81205 0.6469 0.87029 0.0
O150 O 0.80139 0.62418 0.88334 0.0
O151 O 0.84077 0.64566 0.86098 0.0
O152 O 0.79056 0.54822 0.86721 0.0
O153 O 0.83479 0.56475 0.84752 0.0
O154 O 0.89157 0.88188 0.42025 0.0
Cd155 Cd 0.88918 0.87957 0.38173 0.0
Cd156 Cd 0.92055 0.82472 0.38709 0.0
O157 O 0.93099 0.8464 0.42194 0.0
O158 O 0.88756 0.92499 0.36985 0.0
O159 O 0.93068 0.89376 0.36609 0.0
C160 C 0.91784 0.92162 0.36402 0.0
C161 C 0.95092 0.80745 0.35099 0.0
C162 C 0.91261 0.86807 0.43261 0.0
C163 C 0.85312 0.81859 0.37417 0.0
O164 O 0.87548 0.80665 0.38624 0.0
O165 O 0.85565 0.84711 0.36652 0.0
O166 O 0.95116 0.79109 0.37104 0.0
O167 O 0.93644 0.8349 0.35261 0.0
O168 O 0.61732 0.6214 0.63065 0.0
Cd169 Cd 0.62066 0.62162 0.66904 0.0
Cd170 Cd 0.67497 0.59004 0.65599 0.0
O171 O 0.65188 0.58146 0.62216 0.0
O172 O 0.57585 0.62214 0.68557 0.0
O173 O 0.60706 0.57905 0.68108 0.0
C174 C 0.57946 0.59156 0.68755 0.0
C175 C 0.69255 0.55871 0.68806 0.0
C176 C 0.6304 0.60064 0.6151 0.0
C177 C 0.68246 0.65643 0.67505 0.0
O178 O 0.69369 0.63473 0.65952 0.0
O179 O 0.65412 0.65376 0.68488 0.0
O180 O 0.70826 0.55831 0.66652 0.0
O181 O 0.6655 0.57386 0.69008 0.0
O182 O 0.87127 0.61313 0.12878 0.0
Cd183 Cd 0.87629 0.61791 0.16678 0.0
Cd184 Cd 0.91057 0.66729 0.15467 0.0
O185 O 0.91664 0.63858 0.12093 0.0
O186 O 0.87795 0.57532 0.18386 0.0
O187 O 0.92063 0.60372 0.17338 0.0
C188 C 0.90884 0.57806 0.18245 0.0
C189 C 0.94195 0.68466 0.18809 0.0
C190 C 0.89356 0.62108 0.11325 0.0
C191 C 0.84696 0.68278 0.17525 0.0
O192 O 0.86754 0.69028 0.15828 0.0
O193 O 0.84908 0.65557 0.18518 0.0
O194 O 0.94522 0.69786 0.1666 0.0
O195 O 0.92377 0.65991 0.18941 0.0
O196 O 0.88337 0.8894 0.63161 0.0
Cd197 Cd 0.87929 0.88942 0.67022 0.0
Cd198 Cd 0.82481 0.9205 0.66249 0.0
O199 O 0.84855 0.92902 0.62806 0.0
O200 O 0.9236 0.88949 0.68459 0.0
O201 O 0.89226 0.93234 0.68425 0.0
C202 C 0.91966 0.9201 0.68876 0.0
C203 C 0.80713 0.95172 0.69797 0.0
C204 C 0.87032 0.90999 0.61835 0.0
C205 C 0.81722 0.85453 0.67761 0.0
O206 O 0.80615 0.87586 0.66407 0.0
O207 O 0.84547 0.85744 0.68582 0.0
O208 O 0.79159 0.9524 0.67749 0.0
O209 O 0.83407 0.93641 0.69709 0.0
O210 O 0.61395 0.88401 0.13608 0.0
Cd211 Cd 0.61453 0.88253 0.17456 0.0
Cd212 Cd 0.58456 0.82753 0.16506 0.0
O213 O 0.57463 0.84909 0.13153 0.0
O214 O 0.61424 0.9282 0.18925 0.0
O215 O 0.57195 0.8964 0.18964 0.0
C216 C 0.58381 0.92452 0.19377 0.0
C217 C 0.55384 0.81048 0.19961 0.0
C218 C 0.59316 0.8704 0.12252 0.0
C219 C 0.65107 0.822 0.17977 0.0
O220 O 0.62995 0.80986 0.16581 0.0
O221 O 0.64745 0.85062 0.18918 0.0
O222 O 0.5542 0.79396 0.17838 0.0
O223 O 0.56781 0.83798 0.20009 0.0
C224 C 0.40803 0.1002 0.964 0.0
C225 C 0.41196 0.13249 0.95838 0.0
C226 C 0.40377 0.09109 0.989 0.0
C227 C 0.40205 0.11498 1.00884 0.0
C228 C 0.40657 0.14764 1.00325 0.0
C229 C 0.41204 0.15594 0.9781 0.0
C230 C 0.40038 0.05595 0.99412 0.0
C231 C 0.40409 0.17398 1.02372 0.0
C232 C 0.35422 0.09746 0.06931 0.0
C233 C 0.37856 0.0947 0.08639 0.0
C234 C 0.36155 0.10367 0.04395 0.0
C235 C 0.39404 0.10608 0.03527 0.0
C236 C 0.41872 0.10132 0.05217 0.0
C237 C 0.41067 0.09635 0.07762 0.0
C238 C 0.33446 0.10937 1.02679 0.0
C239 C 0.45362 0.10239 0.04355 0.0
H240 H 0.408 0.08203 0.94873 0.0
H241 H 0.41461 0.18095 0.97374 0.0
H242 H 0.41668 0.04935 1.00898 0.0
H243 H 0.37554 0.05111 1.00112 0.0
H244 H 0.4058 0.04023 0.977 0.0
H245 H 0.40852 0.1981 1.01633 0.0
H246 H 0.37981 0.17392 0.0331 0.0
H247 H 0.42158 0.16971 0.03829 0.0
H248 H 0.32938 0.09677 0.07613 0.0
H249 H 0.42954 0.09431 0.09082 0.0
H250 H 0.33658 0.0927 1.00994 0.0
H251 H 0.33588 0.13415 1.02012 0.0
H252 H 0.31054 0.10615 0.0363 0.0
H253 H 0.45803 0.08681 1.02624 0.0
H254 H 0.46971 0.09456 0.05819 0.0
H255 H 0.4601 0.12722 0.03883 0.0
C256 C 0.38387 0.42936 0.48184 0.0
C257 C 0.38152 0.4023 0.46537 0.0
C258 C 0.39161 0.42616 0.50715 0.0
C259 C 0.39615 0.39514 0.51637 0.0
C260 C 0.39396 0.36785 0.49971 0.0
C261 C 0.38711 0.37179 0.47447 0.0
C262 C 0.39448 0.45592 0.52413 0.0
C263 C 0.39756 0.33428 0.50875 0.0
C264 C 0.43388 0.38003 0.57906 0.0
C265 C 0.40658 0.37781 0.59519 0.0
C266 C 0.43103 0.38698 0.55354 0.0
C267 C 0.40017 0.39076 0.54381 0.0
C268 C 0.37264 0.38826 0.56007 0.0
C269 C 0.37622 0.38228 0.5855 0.0
C270 C 0.46099 0.39022 0.53697 0.0
C271 C 0.33925 0.39101 0.55049 0.0
H272 H 0.37988 0.45301 0.47492 0.0
H273 H 0.38515 0.35067 0.46196 0.0
H274 H 0.37459 0.45683 0.53867 0.0
H275 H 0.41726 0.45527 0.53409 0.0
H276 H 0.39371 0.47823 0.51357 0.0
H277 H 0.3962 0.31561 0.49324 0.0
H278 H 0.42082 0.33164 0.51774 0.0
H279 H 0.37834 0.32976 0.52321 0.0
H280 H 0.4574 0.37687 0.58647 0.0
H281 H 0.35494 0.38032 0.59776 0.0
H282 H 0.46049 0.41334 0.52749 0.0
H283 H 0.46207 0.37075 0.52201 0.0
H284 H 0.48313 0.3891 0.54774 0.0
H285 H 0.32032 0.38858 0.5656 0.0
H286 H 0.33567 0.3721 0.53551 0.0
H287 H 0.33607 0.41453 0.54201 0.0
C288 C 0.1116 0.36736 0.98825 0.0
C289 C 0.11154 0.39089 0.97033 0.0
C290 C 0.11719 0.37548 1.01365 0.0
C291 C 0.12177 0.40808 1.0215 0.0
C292 C 0.12044 0.43204 1.0036 0.0
C293 C 0.11593 0.42311 0.97819 0.0
C294 C 0.11918 0.34905 0.03194 0.0
C295 C 0.12399 0.46712 1.01125 0.0
C296 C 0.10888 0.42612 0.09205 0.0
C297 C 0.14043 0.42758 0.10002 0.0
C298 C 0.10247 0.42151 0.06644 0.0
C299 C 0.12825 0.41691 0.04839 0.0
C300 C 0.16023 0.41918 0.0563 0.0
C301 C 0.16593 0.425 0.08201 0.0
C302 C 0.06807 0.42048 0.05882 0.0
C303 C 0.18843 0.41365 0.03784 0.0
H304 H 0.10863 0.3424 0.98221 0.0
H305 H 0.11579 0.44141 0.9644 0.0
H306 H 0.14291 0.34958 0.04055 0.0
H307 H 0.1007 0.35285 0.04742 0.0
H308 H 0.11575 0.32489 1.02278 0.0
H309 H 0.12026 0.48294 0.99542 0.0
H310 H 0.10647 0.474 1.0269 0.0
H311 H 0.14829 0.47153 1.01824 0.0
H312 H 0.08913 0.42799 0.106 0.0
H313 H 0.19033 0.4255 0.08819 0.0
H314 H 0.06196 0.39569 0.05231 0.0
H315 H 0.06467 0.4362 0.04291 0.0
H316 H 0.05102 0.42816 0.07461 0.0
H317 H 0.18781 0.38872 0.02958 0.0
H318 H 0.21175 0.41736 0.04679 0.0
H319 H 0.18701 0.43001 1.02211 0.0
C320 C 0.09618 0.09863 0.58906 0.0
C321 C 0.09425 0.13064 0.59842 0.0
C322 C 0.09968 0.09098 0.56307 0.0
C323 C 0.10257 0.11596 0.54603 0.0
C324 C 0.09995 0.14836 0.55538 0.0
C325 C 0.09531 0.15529 0.58144 0.0
C326 C 0.10111 0.05615 0.55392 0.0
C327 C 0.10362 0.17577 0.53798 0.0
C328 C 0.1483 0.09892 0.48309 0.0
C329 C 0.1235 0.09871 0.46619 0.0
C330 C 0.1418 0.10419 0.50914 0.0
C331 C 0.10964 0.10833 0.51859 0.0
C332 C 0.08442 0.1063 0.50165 0.0
C333 C 0.09169 0.10213 0.47565 0.0
C334 C 0.16947 0.10689 0.52642 0.0
C335 C 0.04978 0.10936 0.51092 0.0
H336 H 0.09533 0.0795 0.60216 0.0
H337 H 0.0943 0.18005 0.58864 0.0
H338 H 0.08421 0.05174 0.53864 0.0
H339 H 0.12554 0.05011 0.54599 0.0
H340 H 0.09517 0.03972 0.56924 0.0
H341 H 0.10051 0.19956 0.54812 0.0
H342 H 0.12779 0.17468 0.52838 0.0
H343 H 0.08581 0.17369 0.52315 0.0
H344 H 0.17294 0.09679 0.47581 0.0
H345 H 0.07245 0.10198 0.46262 0.0
H346 H 0.16678 0.08932 0.54134 0.0
H347 H 0.16947 0.13118 0.53589 0.0
H348 H 0.19302 0.10269 0.5162 0.0
H349 H 0.04476 0.09285 0.52633 0.0
H350 H 0.03298 0.10396 0.4957 0.0
H351 H 0.04488 0.13412 0.51872 0.0
C352 C 0.59541 0.91077 0.08947 0.0
C353 C 0.59228 0.87867 0.09585 0.0
C354 C 0.5988 0.91901 0.0642 0.0
C355 C 0.60045 0.89444 0.04488 0.0
C356 C 0.59668 0.86197 0.05125 0.0
C357 C 0.59207 0.85453 0.07667 0.0
C358 C 0.60145 0.95395 0.05826 0.0
C359 C 0.59909 0.83496 0.03133 0.0
C360 C 0.58984 0.91072 0.97592 0.0
C361 C 0.62173 0.91271 0.96667 0.0
C362 C 0.58249 0.90631 1.00155 0.0
C363 C 0.60767 0.90249 1.01816 0.0
C364 C 0.63993 0.90518 1.00898 0.0
C365 C 0.64654 0.9108 0.98342 0.0
C366 C 0.5478 0.90489 1.0107 0.0
C367 C 0.66754 0.9005 1.02585 0.0
H368 H 0.59553 0.92947 0.10433 0.0
H369 H 0.59013 0.82968 0.08163 0.0
H370 H 0.62605 0.95896 0.05081 0.0
H371 H 0.58468 0.95969 0.04348 0.0
H372 H 0.59614 0.97019 0.0751 0.0
H373 H 0.59514 0.81109 0.03931 0.0
H374 H 0.58124 0.83845 1.01688 0.0
H375 H 0.62319 0.83501 1.02165 0.0
H376 H 0.57061 0.91215 0.96297 0.0
H377 H 0.67122 0.91178 0.97624 0.0
H378 H 0.5435 0.92109 1.02768 0.0
H379 H 0.54193 0.88019 1.01614 0.0
H380 H 0.53119 0.91176 0.9961 0.0
H381 H 0.66561 0.91776 0.04235 0.0
H382 H 0.69119 0.90366 1.01591 0.0
H383 H 0.66662 0.876 0.03312 0.0
C384 C 0.58969 0.60604 0.58258 0.0
C385 C 0.62168 0.60084 0.58844 0.0
C386 C 0.58128 0.61045 0.55769 0.0
C387 C 0.6056 0.611 0.5383 0.0
C388 C 0.63793 0.60523 0.5441 0.0
C389 C 0.6455 0.59967 0.56905 0.0
C390 C 0.54643 0.6152 0.55225 0.0
C391 C 0.66473 0.60639 0.52418 0.0
C392 C 0.58836 0.6013 0.46868 0.0
C393 C 0.58761 0.63327 0.46166 0.0
C394 C 0.59255 0.59374 0.49379 0.0
C395 C 0.59748 0.61872 0.51216 0.0
C396 C 0.59601 0.65112 0.50523 0.0
C397 C 0.59055 0.65801 0.48013 0.0
C398 C 0.59263 0.55897 0.50047 0.0
C399 C 0.60193 0.67847 0.52402 0.0
H400 H 0.57122 0.60695 0.59758 0.0
H401 H 0.67029 0.59615 0.57361 0.0
H402 H 0.54243 0.64008 0.54656 0.0
H403 H 0.53972 0.59878 0.53635 0.0
H404 H 0.53023 0.61086 0.56884 0.0
H405 H 0.68854 0.60129 0.53169 0.0
H406 H 0.66045 0.58871 0.50849 0.0
H407 H 0.66535 0.6305 0.51622 0.0
H408 H 0.58618 0.58214 0.45437 0.0
H409 H 0.59056 0.68271 0.47464 0.0
H410 H 0.57654 0.55559 0.51729 0.0
H411 H 0.61712 0.5517 0.50526 0.0
H412 H 0.58482 0.54277 0.48477 0.0
H413 H 0.58495 0.67735 0.54056 0.0
H414 H 0.59938 0.70229 0.5158 0.0
H415 H 0.62651 0.67636 0.53094 0.0
C416 C 0.86553 0.62056 0.96775 0.0
C417 C 0.86462 0.59065 0.95457 0.0
C418 C 0.87143 0.62305 0.99348 0.0
C419 C 0.87753 0.59496 1.00643 0.0
C420 C 0.87702 0.56459 0.99319 0.0
C421 C 0.87005 0.56274 0.96744 0.0
C422 C 0.87066 0.65584 1.00688 0.0
C423 C 0.88414 0.53416 1.00618 0.0
C424 C 0.91716 0.61229 0.06889 0.0
C425 C 0.89074 0.61175 0.08609 0.0
C426 C 0.91362 0.60492 0.04302 0.0
C427 C 0.88282 0.59774 0.03406 0.0
C428 C 0.85627 0.59657 0.05146 0.0
C429 C 0.86062 0.60319 0.07717 0.0
C430 C 0.94269 0.60569 1.02518 0.0
C431 C 0.82285 0.58997 0.0428 0.0
H432 H 0.86111 0.64223 0.95794 0.0
H433 H 0.8697 0.53962 0.95726 0.0
H434 H 0.85237 0.65642 1.02268 0.0
H435 H 0.89418 0.66101 1.01504 0.0
H436 H 0.86503 0.67526 0.99416 0.0
H437 H 0.88423 0.51263 0.99305 0.0
H438 H 0.90785 0.536 1.01476 0.0
H439 H 0.86599 0.53077 1.02166 0.0
H440 H 0.94054 0.61861 0.07561 0.0
H441 H 0.83996 0.60284 0.09023 0.0
H442 H 0.94093 0.62655 1.01314 0.0
H443 H 0.94379 0.58373 1.01255 0.0
H444 H 0.96536 0.60761 0.03531 0.0
H445 H 0.81516 0.60963 0.03104 0.0
H446 H 0.80506 0.58807 0.0588 0.0
H447 H 0.82254 0.56738 0.03096 0.0
C448 C 0.91148 0.85147 0.47704 0.0
C449 C 0.91338 0.87592 0.45993 0.0
C450 C 0.90606 0.85872 0.50297 0.0
C451 C 0.90364 0.89124 0.51203 0.0
C452 C 0.90753 0.916 0.49487 0.0
C453 C 0.91163 0.90803 0.46898 0.0
C454 C 0.90118 0.83157 0.52048 0.0
C455 C 0.90644 0.95092 0.50377 0.0
C456 C 0.85525 0.9098 0.57349 0.0
C457 C 0.87913 0.90961 0.59113 0.0
C458 C 0.86293 0.90409 0.54765 0.0
C459 C 0.8954 0.89924 0.53923 0.0
C460 C 0.91974 0.90083 0.55694 0.0
C461 C 0.91124 0.9053 0.58272 0.0
C462 C 0.83614 0.90172 0.52953 0.0
C463 C 0.9547 0.89712 0.54873 0.0
H464 H 0.91227 0.82664 0.46998 0.0
H465 H 0.91303 0.92694 0.45569 0.0
H466 H 0.91829 0.83355 0.53581 0.0
H467 H 0.87664 0.83309 0.52939 0.0
H468 H 0.90437 0.80764 0.51056 0.0
H469 H 0.91368 0.96703 0.48852 0.0
H470 H 0.88177 0.95759 0.51078 0.0
H471 H 0.92249 0.95514 0.51965 0.0
H472 H 0.83037 0.91263 0.58002 0.0
H473 H 0.92973 0.90515 0.5964 0.0
H474 H 0.83629 0.87745 0.52001 0.0
H475 H 0.83977 0.91929 0.5147 0.0
H476 H 0.8122 0.90617 0.53906 0.0
H477 H 0.95953 0.87222 0.54121 0.0
H478 H 0.97078 0.90239 0.56446 0.0
H479 H 0.9608 0.9134 0.53336 0.0
C480 C 0.24285 0.33412 0.17677 0.0
C481 C 0.21132 0.33543 0.1872 0.0
C482 C 0.26186 0.3065 0.17773 0.0
C483 C 0.24929 0.27946 0.1897 0.0
C484 C 0.21814 0.2811 0.20147 0.0
C485 C 0.19938 0.30902 0.19993 0.0
C486 C 0.29474 0.30568 0.16461 0.0
C487 C 0.20418 0.2529 0.21481 0.0
C488 C 0.28031 0.19932 0.16213 0.0
C489 C 0.30434 0.19186 0.17854 0.0
C490 C 0.26196 0.22745 0.16588 0.0
C491 C 0.26723 0.24847 0.18692 0.0
C492 C 0.29099 0.24082 0.20393 0.0
C493 C 0.30964 0.21272 0.19935 0.0
C494 C 0.23747 0.23503 0.14691 0.0
C495 C 0.29677 0.26236 0.22684 0.0
H496 H 0.25249 0.35441 0.16702 0.0
H497 H 0.17522 0.30993 0.20829 0.0
H498 H 0.31299 0.29739 0.17739 0.0
H499 H 0.29485 0.28833 0.14813 0.0
H500 H 0.30199 0.32952 0.15795 0.0
H501 H 0.18174 0.25944 0.22593 0.0
H502 H 0.19873 0.2334 0.20077 0.0
H503 H 0.22176 0.24321 0.22757 0.0
H504 H 0.27623 0.18337 0.14592 0.0
H505 H 0.32795 0.20681 0.21222 0.0
H506 H 0.24369 0.25789 0.1381 0.0
H507 H 0.2134 0.23827 0.15641 0.0
H508 H 0.23601 0.21587 0.13178 0.0
H509 H 0.30573 0.28596 0.22096 0.0
H510 H 0.31447 0.25189 0.23917 0.0
H511 H 0.27392 0.26685 0.23795 0.0
C512 C 0.32896 0.26633 0.676 0.0
C513 C 0.32884 0.29684 0.68843 0.0
C514 C 0.30298 0.24545 0.67874 0.0
C515 C 0.27615 0.25502 0.69453 0.0
C516 C 0.27663 0.28491 0.70839 0.0
C517 C 0.30289 0.3056 0.70505 0.0
C518 C 0.30341 0.21404 0.66336 0.0
C519 C 0.2487 0.29572 0.72577 0.0
C520 C 0.19646 0.22429 0.67253 0.0
C521 C 0.19063 0.19807 0.68762 0.0
C522 C 0.22386 0.24314 0.67499 0.0
C523 C 0.24603 0.23605 0.69331 0.0
C524 C 0.24021 0.20988 0.70893 0.0
C525 C 0.21266 0.1909 0.70571 0.0
C526 C 0.22934 0.27034 0.65754 0.0
C527 C 0.26304 0.20201 0.72897 0.0
H528 H 0.34895 0.25905 0.66328 0.0
H529 H 0.30273 0.3289 0.71499 0.0
H530 H 0.29657 0.19395 0.67536 0.0
H531 H 0.28556 0.21509 0.64857 0.0
H532 H 0.32731 0.20861 0.65407 0.0
H533 H 0.25473 0.31694 0.73802 0.0
H534 H 0.22813 0.30215 0.71446 0.0
H535 H 0.24082 0.27599 0.73782 0.0
H536 H 0.17968 0.22991 0.65837 0.0
H537 H 0.2081 0.17088 0.71759 0.0
H538 H 0.25201 0.26618 0.64614 0.0
H539 H 0.23179 0.29333 0.66862 0.0
H540 H 0.2095 0.27293 0.64453 0.0
H541 H 0.28694 0.19555 0.72018 0.0
H542 H 0.25443 0.18182 0.74029 0.0
H543 H 0.26631 0.2234 0.7418 0.0
C544 C 0.26199 0.33201 0.38597 0.0
C545 C 0.29237 0.33182 0.37347 0.0
C546 C 0.24127 0.30585 0.38356 0.0
C547 C 0.25089 0.27873 0.36804 0.0
C548 C 0.28052 0.27921 0.35395 0.0
C549 C 0.30104 0.30573 0.35691 0.0
C550 C 0.21006 0.30638 0.39909 0.0
C551 C 0.29136 0.25097 0.33684 0.0
C552 C 0.22096 0.19957 0.39161 0.0
C553 C 0.19441 0.19326 0.37693 0.0
C554 C 0.23976 0.22689 0.38845 0.0
C555 C 0.23226 0.24844 0.36981 0.0
C556 C 0.20583 0.24204 0.35453 0.0
C557 C 0.18694 0.21463 0.35845 0.0
C558 C 0.26726 0.23302 0.40555 0.0
C559 C 0.19748 0.26421 0.33419 0.0
H560 H 0.25473 0.35221 0.39855 0.0
H561 H 0.32426 0.30548 0.34695 0.0
H562 H 0.1899 0.29894 0.38731 0.0
H563 H 0.21151 0.289 0.41416 0.0
H564 H 0.20449 0.33049 0.40804 0.0
H565 H 0.31206 0.25707 0.32416 0.0
H566 H 0.29861 0.23092 0.34837 0.0
H567 H 0.27144 0.24228 0.32524 0.0
H568 H 0.22685 0.1833 0.40604 0.0
H569 H 0.16667 0.2097 0.34686 0.0
H570 H 0.26312 0.25593 0.41673 0.0
H571 H 0.28998 0.23543 0.39422 0.0
H572 H 0.27029 0.21352 0.41877 0.0
H573 H 0.19028 0.28809 0.34273 0.0
H574 H 0.17762 0.25477 0.32281 0.0
H575 H 0.2188 0.26786 0.32147 0.0
C576 C 0.31446 0.21155 0.84643 0.0
C577 C 0.32867 0.21271 0.86982 0.0
C578 C 0.2884 0.23189 0.84204 0.0
C579 C 0.27588 0.25306 0.86177 0.0
C580 C 0.29025 0.25414 0.88537 0.0
C581 C 0.31659 0.23427 0.88898 0.0
C582 C 0.27421 0.23069 0.81644 0.0
C583 C 0.27728 0.27568 0.90717 0.0
C584 C 0.22002 0.32464 0.85767 0.0
C585 C 0.19097 0.31172 0.86659 0.0
C586 C 0.24761 0.3051 0.85368 0.0
C587 C 0.24605 0.27212 0.85902 0.0
C588 C 0.21619 0.2586 0.86606 0.0
C589 C 0.18909 0.27847 0.86957 0.0
C590 C 0.27887 0.3202 0.84546 0.0
C591 C 0.21329 0.22368 0.87215 0.0
H592 H 0.32407 0.19524 0.83147 0.0
H593 H 0.32746 0.23519 0.90712 0.0
H594 H 0.24942 0.22131 0.81783 0.0
H595 H 0.27273 0.25523 0.80936 0.0
H596 H 0.28849 0.2152 0.8025 0.0
H597 H 0.29156 0.27398 0.92417 0.0
H598 H 0.27714 0.30104 0.90178 0.0
H599 H 0.25213 0.26912 0.91213 0.0
H600 H 0.22162 0.35019 0.85499 0.0
H601 H 0.16659 0.26801 0.87589 0.0
H602 H 0.29227 0.30426 0.83133 0.0
H603 H 0.29407 0.32378 0.86192 0.0
H604 H 0.27505 0.34389 0.83732 0.0
H605 H 0.22549 0.20802 0.85723 0.0
H606 H 0.18789 0.21607 0.87438 0.0
H607 H 0.22519 0.21973 0.88999 0.0
C608 C 0.68559 0.79189 0.85683 0.0
C609 C 0.69637 0.81769 0.87202 0.0
C610 C 0.70412 0.76362 0.85281 0.0
C611 C 0.73371 0.76096 0.86466 0.0
C612 C 0.74493 0.7872 0.87953 0.0
C613 C 0.72631 0.81521 0.88285 0.0
C614 C 0.69171 0.73634 0.83641 0.0
C615 C 0.77604 0.78526 0.89289 0.0
C616 C 0.76423 0.68046 0.88379 0.0
C617 C 0.79105 0.67511 0.86724 0.0
C618 C 0.74468 0.70767 0.88246 0.0
C619 C 0.75168 0.72994 0.86379 0.0
C620 C 0.77786 0.72402 0.84626 0.0
C621 C 0.79752 0.69682 0.84838 0.0
C622 C 0.71745 0.71333 0.90186 0.0
C623 C 0.78562 0.74687 0.82576 0.0
H624 H 0.66266 0.79372 0.8482 0.0
H625 H 0.73494 0.83494 0.89464 0.0
H626 H 0.71068 0.72762 0.82243 0.0
H627 H 0.68511 0.71594 0.84817 0.0
H628 H 0.67031 0.74346 0.82625 0.0
H629 H 0.78206 0.8083 0.90287 0.0
H630 H 0.77432 0.76634 0.90685 0.0
H631 H 0.79608 0.77848 0.87927 0.0
H632 H 0.75902 0.66385 0.89845 0.0
H633 H 0.81797 0.69262 0.83535 0.0
H634 H 0.69469 0.71752 0.89251 0.0
H635 H 0.72226 0.73517 0.91379 0.0
H636 H 0.7141 0.69282 0.91425 0.0
H637 H 0.76367 0.7527 0.81582 0.0
H638 H 0.80402 0.73685 0.81178 0.0
H639 H 0.79474 0.7697 0.83417 0.0
C640 C 0.68407 0.736 0.38368 0.0
C641 C 0.68146 0.70604 0.37072 0.0
C642 C 0.71163 0.75473 0.38098 0.0
C643 C 0.73733 0.74361 0.36459 0.0
C644 C 0.73443 0.71406 0.35056 0.0
C645 C 0.70662 0.69543 0.35396 0.0
C646 C 0.71383 0.78575 0.39668 0.0
C647 C 0.7611 0.70171 0.33254 0.0
C648 C 0.80168 0.80639 0.35237 0.0
C649 C 0.824 0.79897 0.37019 0.0
C650 C 0.77404 0.78753 0.34927 0.0
C651 C 0.76837 0.76118 0.36472 0.0
C652 C 0.79113 0.75338 0.3824 0.0
C653 C 0.81864 0.77214 0.38475 0.0
C654 C 0.7506 0.79619 0.32987 0.0
C655 C 0.78584 0.72596 0.39964 0.0
H656 H 0.66483 0.74456 0.39668 0.0
H657 H 0.70469 0.67253 0.34365 0.0
H658 H 0.73298 0.78362 0.41032 0.0
H659 H 0.72036 0.80581 0.38456 0.0
H660 H 0.69098 0.79201 0.40732 0.0
H661 H 0.75359 0.68066 0.3207 0.0
H662 H 0.76931 0.7209 0.32008 0.0
H663 H 0.78193 0.69451 0.34328 0.0
H664 H 0.8058 0.82685 0.34087 0.0
H665 H 0.83565 0.76616 0.39863 0.0
H666 H 0.72798 0.80532 0.33943 0.0
H667 H 0.74455 0.77459 0.31808 0.0
H668 H 0.76018 0.81486 0.31743 0.0
H669 H 0.76421 0.73089 0.41214 0.0
H670 H 0.80656 0.72215 0.41158 0.0
H671 H 0.78152 0.70337 0.3885 0.0
C672 C 0.76723 0.82318 0.67142 0.0
C673 C 0.79681 0.82627 0.68289 0.0
C674 C 0.74812 0.796 0.67424 0.0
C675 C 0.75848 0.77115 0.68917 0.0
C676 C 0.78744 0.77474 0.70197 0.0
C677 C 0.80645 0.80219 0.69853 0.0
C678 C 0.71768 0.79313 0.65995 0.0
C679 C 0.79895 0.74903 0.71848 0.0
C680 C 0.69465 0.70758 0.70021 0.0
C681 C 0.70271 0.6849 0.6806 0.0
C682 C 0.71376 0.73496 0.7044 0.0
C683 C 0.74109 0.73999 0.6883 0.0
C684 C 0.74976 0.71666 0.66902 0.0
C685 C 0.73068 0.68945 0.66555 0.0
C686 C 0.70415 0.75898 0.72551 0.0
C687 C 0.77834 0.72117 0.6511 0.0
H688 H 0.75926 0.84166 0.65944 0.0
H689 H 0.82903 0.80449 0.70772 0.0
H690 H 0.72037 0.77335 0.64529 0.0
H691 H 0.69717 0.78712 0.67277 0.0
H692 H 0.71178 0.81556 0.65064 0.0
H693 H 0.81895 0.75749 0.73013 0.0
H694 H 0.77901 0.74096 0.73109 0.0
H695 H 0.80743 0.72787 0.70657 0.0
H696 H 0.67334 0.7041 0.71212 0.0
H697 H 0.7373 0.67212 0.65036 0.0
H698 H 0.69469 0.78106 0.71758 0.0
H699 H 0.72529 0.76598 0.7364 0.0
H700 H 0.6854 0.74943 0.73854 0.0
H701 H 0.77417 0.74227 0.63971 0.0
H702 H 0.78296 0.69987 0.63808 0.0
H703 H 0.80019 0.72598 0.66173 0.0
C704 C 0.79571 0.69824 0.19995 0.0
C705 C 0.82013 0.70552 0.18221 0.0
C706 C 0.76883 0.71864 0.20438 0.0
C707 C 0.7662 0.74664 0.19049 0.0
C708 C 0.79166 0.75496 0.17368 0.0
C709 C 0.81828 0.73446 0.16987 0.0
C710 C 0.74248 0.70933 0.22288 0.0
C711 C 0.78985 0.78438 0.15828 0.0
C712 C 0.68523 0.7735 0.16986 0.0
C713 C 0.67987 0.80233 0.1842 0.0
C714 C 0.71257 0.75465 0.17255 0.0
C715 C 0.73523 0.76453 0.19027 0.0
C716 C 0.7295 0.79292 0.20558 0.0
C717 C 0.70197 0.81171 0.20221 0.0
C718 C 0.71782 0.7248 0.15557 0.0
C719 C 0.75284 0.80386 0.22501 0.0
H720 H 0.79709 0.67618 0.20982 0.0
H721 H 0.83715 0.74064 0.15635 0.0
H722 H 0.73395 0.73053 0.23476 0.0
H723 H 0.72177 0.70002 0.21248 0.0
H724 H 0.75048 0.69046 0.23529 0.0
H725 H 0.8129 0.78917 0.14794 0.0
H726 H 0.77097 0.78101 0.14438 0.0
H727 H 0.78315 0.80585 0.17051 0.0
H728 H 0.66836 0.76588 0.15592 0.0
H729 H 0.69785 0.83373 0.21356 0.0
H730 H 0.72193 0.7037 0.16694 0.0
H731 H 0.73954 0.72769 0.14311 0.0
H732 H 0.69716 0.71966 0.14359 0.0
H733 H 0.75929 0.78362 0.23665 0.0
H734 H 0.74296 0.82388 0.23758 0.0
H735 H 0.77527 0.81206 0.21546 0.0
C736 C 0.19492 0.06828 0.31109 0.0
C737 C 0.20468 0.05291 0.33236 0.0
C738 C 0.21194 0.0641 0.28784 0.0
C739 C 0.23863 0.04286 0.2854 0.0
C740 C 0.24686 0.0251 0.30628 0.0
C741 C 0.23031 0.03097 0.32973 0.0
C742 C 0.20286 0.08444 0.26648 0.0
C743 C 0.27402 1.001 0.30418 0.0
C744 C 0.26883 0.03013 0.21701 0.0
C745 C 0.29413 0.05208 0.21592 0.0
C746 C 0.25221 0.02464 0.24003 0.0
C747 C 0.26002 0.04277 0.26212 0.0
C748 C 0.28633 0.06407 0.26117 0.0
C749 C 0.30344 0.06788 0.23825 0.0
C750 C 0.22545 1.00048 0.24045 0.0
C751 C 0.29494 0.0848 0.28391 0.0
H752 H 0.17534 0.08553 0.31304 0.0
H753 H 0.23786 0.01892 0.34609 0.0
H754 H 0.22287 0.10083 0.26175 0.0
H755 H 0.19868 0.06909 0.24939 0.0
H756 H 0.18094 0.09913 0.27121 0.0
H757 H 0.27274 0.98436 0.31987 0.0
H758 H 0.27377 0.98674 0.28604 0.0
H759 H 0.29726 0.01373 0.30473 0.0
H760 H 0.26162 0.01775 0.19983 0.0
H761 H 0.32276 0.08513 0.23751 0.0
H762 H 0.20202 0.01314 0.24057 0.0
H763 H 0.22578 0.98656 0.25769 0.0
H764 H 0.22717 0.98353 0.22369 0.0
H765 H 0.27455 0.10108 0.28975 0.0
H766 H 0.31651 0.09962 0.28017 0.0
H767 H 0.29948 0.06971 0.29997 0.0
C768 C 0.48716 0.27817 0.7205 0.0
C769 C 0.4652 0.30378 0.72085 0.0
C770 C 0.49282 0.26205 0.74261 0.0
C771 C 0.47496 0.27079 0.76523 0.0
C772 C 0.45393 0.29761 0.76584 0.0
C773 C 0.44987 0.31411 0.74384 0.0
C774 C 0.51669 0.23469 0.74141 0.0
C775 C 0.43357 0.30732 0.78918 0.0
C776 C 0.44817 0.20702 0.80992 0.0
C777 C 0.46374 0.21634 0.8319 0.0
C778 C 0.45271 0.2237 0.7878 0.0
C779 C 0.47446 0.24964 0.78716 0.0
C780 C 0.49232 0.25746 0.80866 0.0
C781 C 0.48616 0.24124 0.83101 0.0
C782 C 0.4323 0.21505 0.76576 0.0
C783 C 0.51689 0.28384 0.80842 0.0
H784 H 0.49925 0.27015 0.70286 0.0
H785 H 0.43269 0.33374 0.74433 0.0
H786 H 0.53059 0.23494 0.75871 0.0
H787 H 0.5038 0.21154 0.74002 0.0
H788 H 0.53363 0.23575 0.72478 0.0
H789 H 0.41931 0.32946 0.78685 0.0
H790 H 0.41679 0.28763 0.7937 0.0
H791 H 0.44882 0.31142 0.80552 0.0
H792 H 0.43058 0.188 0.81048 0.0
H793 H 0.49841 0.24846 0.84787 0.0
H794 H 0.44763 0.21005 0.74848 0.0
H795 H 0.41639 0.23561 0.76221 0.0
H796 H 0.41713 0.19372 0.76905 0.0
H797 H 0.53102 0.28311 0.79024 0.0
H798 H 0.53359 0.28201 0.82398 0.0
H799 H 0.5046 0.30751 0.81067 0.0
C800 C 0.23654 0.49436 0.23489 0.0
C801 C 0.20983 0.47425 0.23296 0.0
C802 C 0.25224 0.49849 0.25771 0.0
C803 C 0.24186 0.48101 0.27874 0.0
C804 C 0.21372 0.46226 0.27726 0.0
C805 C 0.19777 0.45962 0.25457 0.0
C806 C 0.28113 0.52001 0.25881 0.0
C807 C 0.20211 0.44249 0.29885 0.0
C808 C 0.30476 0.44827 0.32029 0.0
C809 C 0.29777 0.46475 0.34351 0.0
C810 C 0.28732 0.45404 0.29903 0.0
C811 C 0.26291 0.47787 0.30056 0.0
C812 C 0.25719 0.49623 0.32349 0.0
C813 C 0.27417 0.48894 0.34488 0.0
C814 C 0.29378 0.43313 0.27534 0.0
C815 C 0.23243 0.5228 0.32569 0.0
H816 H 0.24589 0.50594 0.21833 0.0
H817 H 0.17726 0.44387 0.25326 0.0
H818 H 0.28112 0.53396 0.2771 0.0
H819 H 0.30332 0.50518 0.25713 0.0
H820 H 0.28191 0.53696 0.24333 0.0
H821 H 0.17861 0.4311 0.29543 0.0
H822 H 0.21993 0.42329 0.30168 0.0
H823 H 0.1998 0.45757 0.31655 0.0
H824 H 0.32271 0.42931 0.31903 0.0
H825 H 0.26866 0.50185 0.36272 0.0
H826 H 0.30004 0.44818 0.25926 0.0
H827 H 0.27184 0.41959 0.27067 0.0
H828 H 0.31361 0.41566 0.27724 0.0
H829 H 0.23336 0.53701 0.30857 0.0
H830 H 0.23589 0.5392 0.3424 0.0
H831 H 0.20813 0.51234 0.32757 0.0
C832 C 0.02748 0.20469 0.74689 0.0
C833 C 0.04806 0.21908 0.72928 0.0
C834 C 0.02169 0.21899 0.77122 0.0
C835 C 0.03844 0.2472 0.77853 0.0
C836 C 0.05859 0.26215 0.76048 0.0
C837 C 0.06247 0.24833 0.73596 0.0
C838 C 0.99863 0.20317 0.78933 0.0
C839 C 0.078 0.29146 0.7675 0.0
C840 C 0.02493 0.30229 0.83717 0.0
C841 C 0.04766 0.29031 0.85297 0.0
C842 C 0.01917 0.28653 0.81381 0.0
C843 C 0.03803 0.25937 0.80545 0.0
C844 C 0.05996 0.24643 0.82192 0.0
C845 C 0.06388 0.26161 0.84569 0.0
C846 C 0.99417 0.30001 0.79756 0.0
C847 C 0.08152 0.21833 0.81362 0.0
H848 H 0.01632 0.18202 0.74179 0.0
H849 H 0.07882 0.25924 0.72252 0.0
H850 H 0.0122 0.18849 0.8021 0.0
H851 H 0.98456 0.22141 0.80108 0.0
H852 H 0.9818 0.1871 0.77926 0.0
H853 H 0.09267 0.30006 0.75129 0.0
H854 H 0.06197 0.3113 0.77492 0.0
H855 H 0.0943 0.28581 0.78264 0.0
H856 H 0.01239 0.32453 0.84271 0.0
H857 H 0.08191 0.25259 0.85766 0.0
H858 H 0.98094 0.28039 0.78781 0.0
H859 H 0.00596 0.31454 0.78295 0.0
H860 H 0.97671 0.31568 0.80878 0.0
H861 H 0.06709 0.1976 0.80706 0.0
H862 H 0.09662 0.21059 0.82893 0.0
H863 H 0.09754 0.22503 0.79754 0.0
C864 C 0.69051 0.95049 0.81519 0.0
C865 C 0.70166 0.96314 0.83805 0.0
C866 C 0.70724 0.95541 0.79228 0.0
C867 C 0.73509 0.97467 0.79203 0.0
C868 C 0.74442 0.99036 0.81474 0.0
C869 C 0.72809 0.98375 0.83763 0.0
C870 C 0.69677 0.93744 0.76876 0.0
C871 C 0.77276 0.01265 0.81509 0.0
C872 C 0.79944 0.94537 0.74386 0.0
C873 C 0.79216 0.96242 0.72274 0.0
C874 C 0.78178 0.95005 0.76674 0.0
C875 C 0.75704 0.97353 0.76906 0.0
C876 C 0.75133 0.99276 0.74841 0.0
C877 C 0.76836 0.98635 0.72522 0.0
C878 C 0.78811 0.9281 0.78779 0.0
C879 C 0.72641 0.01918 0.7504 0.0
H880 H 0.67015 0.93445 0.81534 0.0
H881 H 0.73662 0.99389 0.85521 0.0
H882 H 0.69383 0.95416 0.75347 0.0
H883 H 0.7155 0.9196 0.76216 0.0
H884 H 0.67381 0.92458 0.77193 0.0
H885 H 0.77213 0.02861 0.83242 0.0
H886 H 0.7953 0.99839 0.81443 0.0
H887 H 0.77339 0.02766 0.79841 0.0
H888 H 0.81758 0.92659 0.74204 0.0
H889 H 0.76274 0.99971 0.70899 0.0
H890 H 0.76626 0.91404 0.79227 0.0
H891 H 0.79389 0.94236 0.80508 0.0
H892 H 0.80822 0.91106 0.78291 0.0
H893 H 0.70252 0.00891 0.74674 0.0
H894 H 0.73157 0.03751 0.73633 0.0
H895 H 0.72514 0.03115 0.7695 0.0
C896 C 0.51956 0.73524 0.33502 0.0
C897 C 0.54125 0.70944 0.33496 0.0
C898 C 0.51403 0.75096 0.31274 0.0
C899 C 0.53183 0.74168 0.29022 0.0
C900 C 0.55257 0.71465 0.28989 0.0
C901 C 0.55647 0.69851 0.31209 0.0
C902 C 0.4904 0.77852 0.31363 0.0
C903 C 0.57288 0.70439 0.26666 0.0
C904 C 0.52086 0.77132 0.2244 0.0
C905 C 0.54328 0.79622 0.22358 0.0
C906 C 0.51475 0.75496 0.24669 0.0
C907 C 0.53269 0.76262 0.26816 0.0
C908 C 0.55457 0.78846 0.26756 0.0
C909 C 0.55902 0.8053 0.24552 0.0
C910 C 0.49004 0.72871 0.24689 0.0
C911 C 0.57509 0.79691 0.28957 0.0
H912 H 0.50756 0.74369 0.3526 0.0
H913 H 0.57347 0.67875 0.3119 0.0
H914 H 0.50349 0.80158 0.3146 0.0
H915 H 0.47639 0.77796 0.29637 0.0
H916 H 0.47353 0.778 0.33034 0.0
H917 H 0.58677 0.68207 0.26918 0.0
H918 H 0.55765 0.70036 0.2503 0.0
H919 H 0.58998 0.72377 0.26204 0.0
H920 H 0.50852 0.76427 0.20754 0.0
H921 H 0.57663 0.82431 0.245 0.0
H922 H 0.47607 0.72929 0.26515 0.0
H923 H 0.50219 0.705 0.24439 0.0
H924 H 0.4732 0.73082 0.23146 0.0
H925 H 0.5598 0.80236 0.30681 0.0
H926 H 0.59069 0.81791 0.28618 0.0
H927 H 0.59059 0.7761 0.29329 0.0
C928 C 0.80555 0.55618 0.80044 0.0
C929 C 0.79498 0.54004 0.82178 0.0
C930 C 0.78927 0.55338 0.77794 0.0
C931 C 0.76241 0.53289 0.77628 0.0
C932 C 0.75345 0.51422 0.79701 0.0
C933 C 0.76937 0.51857 0.81973 0.0
C934 C 0.79922 0.57452 0.75673 0.0
C935 C 0.726 0.49092 0.79566 0.0
C936 C 0.69837 0.56246 0.73437 0.0
C937 C 0.70723 0.54732 0.71097 0.0
C938 C 0.71543 0.55704 0.7559 0.0
C939 C 0.74133 0.53485 0.75438 0.0
C940 C 0.74884 0.51757 0.73123 0.0
C941 C 0.73221 0.52458 0.70962 0.0
C942 C 0.70707 0.57685 0.77983 0.0
C943 C 0.77522 0.49261 0.72903 0.0
H944 H 0.82517 0.57301 0.80185 0.0
H945 H 0.76117 0.50586 0.83608 0.0
H946 H 0.80302 0.55999 0.73887 0.0
H947 H 0.7798 0.59213 0.75396 0.0
H948 H 0.82157 0.58793 0.76049 0.0
H949 H 0.72658 0.47348 0.81077 0.0
H950 H 0.70292 0.50426 0.79779 0.0
H951 H 0.7266 0.4775 0.77712 0.0
H952 H 0.6793 0.5803 0.73558 0.0
H953 H 0.7391 0.51268 0.69163 0.0
H954 H 0.72778 0.59206 0.7849 0.0
H955 H 0.70196 0.56101 0.79563 0.0
H956 H 0.68591 0.59271 0.77801 0.0
H957 H 0.79885 0.50462 0.72801 0.0
H958 H 0.77337 0.47661 0.71187 0.0
H959 H 0.77457 0.47774 0.74579 0.0
C960 C 0.94698 0.80359 0.30447 0.0
C961 C 0.96147 0.79304 0.32591 0.0
C962 C 0.95034 0.78622 0.28127 0.0
C963 C 0.96975 0.75818 0.27909 0.0
C964 C 0.98704 0.74923 0.30003 0.0
C965 C 0.98211 0.76632 0.32339 0.0
C966 C 0.93068 0.79631 0.2598 0.0
C967 C 0.00932 0.72054 0.29816 0.0
C968 C 0.93795 0.69349 0.2346 0.0
C969 C 0.95382 0.70001 0.21163 0.0
C970 C 0.94391 0.71142 0.25681 0.0
C971 C 0.96737 0.73581 0.25645 0.0
C972 C 0.98539 0.74083 0.23375 0.0
C973 C 0.97788 0.72337 0.21143 0.0
C974 C 0.92332 0.70573 0.28024 0.0
C975 C 0.01166 0.76548 0.23275 0.0
H976 H 0.93088 0.82414 0.30621 0.0
H977 H 0.99363 0.75818 0.33981 0.0
H978 H 0.94612 0.79834 0.24249 0.0
H979 H 0.9124 0.77777 0.25572 0.0
H980 H 0.91819 0.81965 0.26408 0.0
H981 H 0.02626 0.72119 0.31369 0.0
H982 H 0.99512 0.69821 0.29923 0.0
H983 H 0.02325 0.71938 0.27989 0.0
H984 H 0.91918 0.67563 0.235 0.0
H985 H 0.99039 0.72844 0.1938 0.0
H986 H 0.9092 0.72773 0.28589 0.0
H987 H 0.93857 0.70043 0.29606 0.0
H988 H 0.90641 0.68552 0.27746 0.0
H989 H 1.00096 0.78967 0.23125 0.0
H990 H 0.02847 0.76074 0.21621 0.0
H991 H 0.02542 0.76587 0.25013 0.0
C992 C 0.45003 0.06246 0.21667 0.0
C993 C 0.45296 0.08226 0.19618 0.0
C994 C 0.47425 0.04019 0.22121 0.0
C995 C 0.50114 0.03655 0.20408 0.0
C996 C 0.50505 0.05793 0.18427 0.0
C997 C 0.48115 0.08097 0.18088 0.0
C998 C 0.46989 0.019 0.24327 0.0
C999 C 0.53271 0.05436 0.16507 0.0
C1000 C 0.57218 0.9804 0.21221 0.0
C1001 C 0.56207 0.95233 0.19943 0.0
C1002 C 0.55194 0.00764 0.21519 0.0
C1003 C 0.52172 0.00717 0.20401 0.0
C1004 C 0.51146 0.97869 0.1913 0.0
C1005 C 0.53144 0.95152 0.18967 0.0
C1006 C 0.56315 0.03701 0.22985 0.0
C1007 C 0.47992 0.97723 0.17838 0.0
H1008 H 0.42827 0.06356 0.22859 0.0
H1009 H 0.48325 0.09604 0.16485 0.0
H1010 H 0.46137 0.99506 0.23663 0.0
H1011 H 0.49301 0.01547 0.25233 0.0
H1012 H 0.45203 0.02926 0.25758 0.0
H1013 H 0.53408 0.07478 0.15242 0.0
H1014 H 0.55577 0.05247 0.17444 0.0
H1015 H 0.5298 0.03188 0.15338 0.0
H1016 H 0.59584 0.98107 0.2198 0.0
H1017 H 0.52366 0.93003 0.17947 0.0
H1018 H 0.54353 0.04699 0.24271 0.0
H1019 H 0.57009 0.05585 0.2167 0.0
H1020 H 0.58417 0.03164 0.24107 0.0
H1021 H 0.45973 0.98201 0.19231 0.0
H1022 H 0.47602 0.95354 0.1686 0.0
H1023 H 0.47916 0.99603 0.16435 0.0
C1024 C 0.52601 0.58097 0.70955 0.0
C1025 C 0.55205 0.57044 0.69368 0.0
C1026 C 0.49954 0.56077 0.71406 0.0
C1027 C 0.49861 0.53002 0.70153 0.0
C1028 C 0.52485 0.51956 0.68534 0.0
C1029 C 0.55138 0.5396 0.68204 0.0
C1030 C 0.47266 0.57226 0.73221 0.0
C1031 C 0.52465 0.48742 0.67095 0.0
C1032 C 0.44959 0.45761 0.71898 0.0
C1033 C 0.4255 0.45807 0.70149 0.0
C1034 C 0.47159 0.48289 0.72118 0.0
C1035 C 0.47036 0.50848 0.70466 0.0
C1036 C 0.44476 0.51 0.68809 0.0
C1037 C 0.42229 0.485 0.68704 0.0
C1038 C 0.49763 0.48088 0.73982 0.0
C1039 C 0.44296 0.5362 0.6696 0.0
H1040 H 0.52648 0.60479 0.7186 0.0
H1041 H 0.57125 0.53151 0.66946 0.0
H1042 H 0.45019 0.57465 0.72209 0.0
H1043 H 0.46822 0.55436 0.74671 0.0
H1044 H 0.47799 0.59578 0.74174 0.0
H1045 H 0.54622 0.48363 0.65815 0.0
H1046 H 0.52361 0.46777 0.68426 0.0
H1047 H 0.50302 0.4855 0.65959 0.0
H1048 H 0.45208 0.43679 0.7302 0.0
H1049 H 0.40394 0.48518 0.67325 0.0
H1050 H 0.50196 0.50479 0.74906 0.0
H1051 H 0.52034 0.47277 0.72983 0.0
H1052 H 0.49152 0.46364 0.75454 0.0
H1053 H 0.44687 0.56008 0.67895 0.0
H1054 H 0.41951 0.53651 0.66051 0.0
H1055 H 0.46221 0.53231 0.65468 0.0
C1056 C 0.05026 0.46393 0.22027 0.0
C1057 C 0.05169 0.43614 0.20435 0.0
C1058 C 0.02324 0.48429 0.22136 0.0
C1059 C 0.9975 0.47718 0.20557 0.0
C1060 C 0.9977 0.44774 0.19113 0.0
C1061 C 0.02464 0.42737 0.19096 0.0
C1062 C 0.02358 0.51486 0.23769 0.0
C1063 C 0.97115 0.43935 0.17367 0.0
C1064 C 0.92211 0.52999 0.20721 0.0
C1065 C 0.93075 0.55205 0.18907 0.0
C1066 C 0.94372 0.5057 0.21328 0.0
C1067 C 0.97412 0.50295 0.20031 0.0
C1068 C 0.98256 0.52494 0.18171 0.0
C1069 C 0.96102 0.54938 0.17663 0.0
C1070 C 0.93428 0.4833 0.23371 0.0
C1071 C 0.01432 0.52256 0.16691 0.0
H1072 H 0.07097 0.47069 0.23086 0.0
H1073 H 0.02558 0.40597 0.17854 0.0
H1074 H 0.02979 0.5353 0.22583 0.0
H1075 H 0.99957 0.5199 0.24686 0.0
H1076 H 0.04149 0.5137 0.25245 0.0
H1077 H 0.97209 0.41366 0.16708 0.0
H1078 H 0.9473 0.4446 0.18298 0.0
H1079 H 0.97351 0.45424 0.15696 0.0
H1080 H 0.89877 0.5321 0.21694 0.0
H1081 H 0.9677 0.56615 0.16239 0.0
H1082 H 0.95179 0.48511 0.24879 0.0
H1083 H 0.93489 0.45809 0.22606 0.0
H1084 H 0.90992 0.48873 0.24216 0.0
H1085 H 0.03431 0.526 0.1798 0.0
H1086 H 0.01655 0.5407 0.15234 0.0
H1087 H 0.01724 0.49832 0.15751 0.0
C1088 C 0.97169 0.93164 0.70972 0.0
C1089 C 0.94657 0.94153 0.6952 0.0
C1090 C 0.99779 0.95209 0.71446 0.0
C1091 C 0.9994 0.98237 0.70341 0.0
C1092 C 0.974 0.99226 0.68872 0.0
C1093 C 0.94771 0.97203 0.68525 0.0
C1094 C 0.0237 0.94125 0.73109 0.0
C1095 C 0.97503 0.02379 0.67584 0.0
C1096 C 0.05016 0.0545 0.721 0.0
C1097 C 0.07488 0.05194 0.7023 0.0
C1098 C 0.02713 0.03017 0.72334 0.0
C1099 C 0.02804 1.00343 0.70584 0.0
C1100 C 0.05407 0.99993 0.68788 0.0
C1101 C 0.07748 0.02395 0.68666 0.0
C1102 C 1.00063 0.03418 0.74348 0.0
C1103 C 0.05557 0.97249 0.66829 0.0
H1104 H 0.97079 0.9081 0.71751 0.0
H1105 H 0.92854 0.97963 0.67374 0.0
H1106 H 0.04624 0.93657 0.71967 0.0
H1107 H 0.02871 0.96043 0.74553 0.0
H1108 H 0.01701 0.91903 0.74069 0.0
H1109 H 0.95382 0.02739 0.66438 0.0
H1110 H 0.97607 0.04405 0.69004 0.0
H1111 H 0.99698 0.02481 0.66335 0.0
H1112 H 0.04815 0.07604 0.73322 0.0
H1113 H 0.09637 0.022 0.672 0.0
H1114 H 0.99532 0.01095 0.75206 0.0
H1115 H 0.97843 0.04243 0.735 0.0
H1116 H 0.00689 0.05211 0.75855 0.0
H1117 H 0.05155 0.94925 0.67712 0.0
H1118 H 0.07895 0.97131 0.65744 0.0
H1119 H 0.03625 0.97557 0.65492 0.0
C1120 C 0.57902 0.52376 0.36702 0.0
C1121 C 0.57492 0.55164 0.35377 0.0
C1122 C 0.55649 0.49883 0.36593 0.0
C1123 C 0.52977 0.50143 0.3506 0.0
C1124 C 0.52748 0.52804 0.33517 0.0
C1125 C 0.54973 0.55312 0.3373 0.0
C1126 C 0.55959 0.47141 0.38318 0.0
C1127 C 0.50009 0.53129 0.31787 0.0
C1128 C 0.4734 0.42952 0.34531 0.0
C1129 C 0.44856 0.43912 0.3627 0.0
C1130 C 0.4997 0.44983 0.34052 0.0
C1131 C 0.50167 0.47978 0.35416 0.0
C1132 C 0.47671 0.48927 0.37189 0.0
C1133 C 0.45034 0.46912 0.3756 0.0
C1134 C 0.52526 0.43938 0.32087 0.0
C1135 C 0.47806 0.52052 0.3874 0.0
H1136 H 0.59827 0.52261 0.37997 0.0
H1137 H 0.54656 0.57457 0.32692 0.0
H1138 H 0.54145 0.47446 0.39902 0.0
H1139 H 0.55489 0.44812 0.37316 0.0
H1140 H 0.58373 0.47039 0.39111 0.0
H1141 H 0.50515 0.54948 0.30367 0.0
H1142 H 0.49511 0.50795 0.30797 0.0
H1143 H 0.47806 0.53881 0.3291 0.0
H1144 H 0.47206 0.40639 0.33525 0.0
H1145 H 0.43142 0.47653 0.3893 0.0
H1146 H 0.54862 0.43678 0.32973 0.0
H1147 H 0.52828 0.45799 0.30675 0.0
H1148 H 0.51943 0.41621 0.311 0.0
H1149 H 0.50049 0.52156 0.39784 0.0
H1150 H 0.45736 0.52367 0.40117 0.0
H1151 H 0.4783 0.54104 0.37489 0.0
C1152 C 0.07915 0.47844 0.848 0.0
C1153 C 0.06982 0.45307 0.86298 0.0
C1154 C 0.05716 0.5028 0.84289 0.0
C1155 C 0.02565 0.50243 0.85399 0.0
C1156 C 0.01624 0.47671 0.86907 0.0
C1157 C 0.03822 0.45209 0.87294 0.0
C1158 C 0.06767 0.52902 0.82586 0.0
C1159 C 0.98327 0.47574 0.88194 0.0
C1160 C 0.9761 0.5781 0.86873 0.0
C1161 C 0.95057 0.57309 0.85282 0.0
C1162 C 0.00184 0.5562 0.86835 0.0
C1163 C 0.00259 0.52932 0.85099 0.0
C1164 C 0.97839 0.52601 0.83323 0.0
C1165 C 0.95225 0.54752 0.83474 0.0
C1166 C 0.02649 0.56021 0.88815 0.0
C1167 C 0.97895 0.49853 0.81371 0.0
H1168 H 0.10356 0.47917 0.84021 0.0
H1169 H 0.03103 0.43271 0.88478 0.0
H1170 H 0.04998 0.53198 0.81117 0.0
H1171 H 0.06877 0.55219 0.83688 0.0
H1172 H 0.09163 0.52396 0.81653 0.0
H1173 H 0.98011 0.45457 0.89367 0.0
H1174 H 0.97903 0.49781 0.89415 0.0
H1175 H 0.96463 0.47503 0.86772 0.0
H1176 H 0.97463 0.59761 0.88295 0.0
H1177 H 0.93253 0.54365 0.82238 0.0
H1178 H 0.0511 0.55754 0.87958 0.0
H1179 H 0.02321 0.54115 0.90187 0.0
H1180 H 0.02443 0.58393 0.89855 0.0
H1181 H 0.00354 0.49457 0.80531 0.0
H1182 H 0.96241 0.50288 0.79842 0.0
H1183 H 0.97149 0.47616 0.82271 0.0
C1184 C 0.92713 0.97649 0.34719 0.0
C1185 C 0.9385 0.94955 0.35892 0.0
C1186 C 0.94662 1.00374 0.34431 0.0
C1187 C 0.97744 1.00453 0.35452 0.0
C1188 C 0.98888 0.97725 0.36633 0.0
C1189 C 0.96957 0.94997 0.36788 0.0
C1190 C 0.93412 0.03174 0.33063 0.0
C1191 C 0.02109 0.97723 0.37824 0.0
C1192 C 0.04732 0.05926 0.33976 0.0
C1193 C 0.04519 0.08135 0.36045 0.0
C1194 C 0.02338 0.03611 0.33603 0.0
C1195 C 0.99762 0.03402 0.35412 0.0
C1196 C 0.99449 0.0575 0.37425 0.0
C1197 C 0.01802 0.08127 0.37687 0.0
C1198 C 0.0269 0.01254 0.31367 0.0
C1199 C 0.96814 0.05567 0.39449 0.0
H1200 H 0.90312 0.97621 0.34022 0.0
H1201 H 0.97831 0.92938 0.37729 0.0
H1202 H 0.929 0.05235 0.34416 0.0
H1203 H 0.95248 0.03962 0.31655 0.0
H1204 H 0.91178 0.02572 0.32089 0.0
H1205 H 0.02587 0.95451 0.38753 0.0
H1206 H 0.04053 0.98072 0.36378 0.0
H1207 H 0.02222 0.99745 0.3925 0.0
H1208 H 0.06829 0.05934 0.32699 0.0
H1209 H 0.01655 0.09807 0.39308 0.0
H1210 H 0.00332 0.00789 0.30541 0.0
H1211 H 0.03623 0.98935 0.31978 0.0
H1212 H 0.0438 0.02132 0.29886 0.0
H1213 H 0.94451 0.05234 0.38607 0.0
H1214 H 0.96699 0.07752 0.40729 0.0
H1215 H 0.97246 0.03457 0.40585 0.0
C1216 C 0.51808 0.92797 0.87245 0.0
C1217 C 0.54612 0.92556 0.85701 0.0
C1218 C 0.49506 0.95192 0.8691 0.0
C1219 C 0.4997 0.97309 0.84923 0.0
C1220 C 0.52627 0.9683 0.83193 0.0
C1221 C 0.54962 0.9451 0.8364 0.0
C1222 C 0.46769 0.95665 0.88846 0.0
C1223 C 0.53135 0.98928 0.80981 0.0
C1224 C 0.43127 0.03249 0.84137 0.0
C1225 C 0.4427 0.06003 0.8541 0.0
C1226 C 0.45019 1.00434 0.83836 0.0
C1227 C 0.48046 1.00338 0.84942 0.0
C1228 C 0.49209 0.03133 0.86204 0.0
C1229 C 0.47339 0.05939 0.86375 0.0
C1230 C 0.43755 0.97553 0.82381 0.0
C1231 C 0.52376 0.03131 0.87477 0.0
H1232 H 0.51555 0.91311 0.88858 0.0
H1233 H 0.57128 0.94315 0.82438 0.0
H1234 H 0.47176 0.97884 0.90021 0.0
H1235 H 0.44468 0.95975 0.87923 0.0
H1236 H 0.46542 0.93619 0.90102 0.0
H1237 H 0.54863 0.97824 0.79539 0.0
H1238 H 0.50832 0.99385 0.80091 0.0
H1239 H 0.54101 0.0128 0.81635 0.0
H1240 H 0.40756 0.03293 0.83387 0.0
H1241 H 0.4822 0.08047 0.8739 0.0
H1242 H 0.42999 0.95695 0.83702 0.0
H1243 H 0.45659 0.96476 0.81078 0.0
H1244 H 0.41663 0.98182 0.81279 0.0
H1245 H 0.52374 0.01249 0.88883 0.0
H1246 H 0.52882 0.05478 0.8845 0.0
H1247 H 0.54363 0.0256 0.86074 0.0
loop_
_geom_bond_atom_site_label_1
_geom_bond_atom_site_label_2
_geom_bond_distance
_geom_bond_site_symmetry_2
_ccdc_geom_bond_type
O0 Cd1 2.223 . S
O0 C8 1.315 . S
Cd1 O0 2.223 . S
Cd1 O4 2.297 . S
Cd1 O5 2.439 . S
Cd1 O11 2.240 . S
Cd2 O3 2.240 . S
Cd2 O10 2.223 . S
Cd2 O12 2.297 . S
Cd2 O13 2.439 . S
O3 Cd2 2.240 . S
O3 C8 1.279 . S
O4 Cd1 2.297 . S
O4 C6 1.247 . S
O5 Cd1 2.439 . S
O5 C6 1.208 . S
C6 O4 1.247 . S
C6 O5 1.208 . S
C7 O12 1.247 . S
C7 O13 1.208 . S
C8 O0 1.315 . S
C8 O3 1.279 . S
C9 O10 1.315 . S
C9 O11 1.279 . S
O10 Cd2 2.223 . S
O10 C9 1.315 . S
O11 Cd1 2.240 . S
O11 C9 1.279 . S
O12 Cd2 2.297 . S
O12 C7 1.247 . S
O13 Cd2 2.439 . S
O13 C7 1.208 . S
O14 Cd15 2.223 . S
O14 C22 1.315 . S
Cd15 O14 2.223 . S
Cd15 O18 2.297 . S
Cd15 O19 2.439 . S
Cd15 O25 2.240 . S
Cd16 O17 2.240 . S
Cd16 O24 2.223 . S
Cd16 O26 2.297 . S
Cd16 O27 2.439 . S
O17 Cd16 2.240 . S
O17 C22 1.279 . S
O18 Cd15 2.297 . S
O18 C20 1.247 . S
O19 Cd15 2.439 . S
O19 C20 1.208 . S
C20 O18 1.247 . S
C20 O19 1.208 . S
C21 O26 1.247 . S
C21 O27 1.208 . S
C22 O14 1.315 . S
C22 O17 1.279 . S
C23 O24 1.315 . S
C23 O25 1.279 . S
O24 Cd16 2.223 . S
O24 C23 1.315 . S
O25 Cd15 2.240 . S
O25 C23 1.279 . S
O26 Cd16 2.297 . S
O26 C21 1.247 . S
O27 Cd16 2.439 . S
O27 C21 1.208 . S
O28 Cd29 2.223 . S
O28 C36 1.315 . S
Cd29 O28 2.223 . S
Cd29 O32 2.297 . S
Cd29 O33 2.439 . S
Cd29 O39 2.240 . S
Cd30 O31 2.240 . S
Cd30 O38 2.223 . S
Cd30 O40 2.297 . S
Cd30 O41 2.439 . S
O31 Cd30 2.240 . S
O31 C36 1.279 . S
O32 Cd29 2.297 . S
O32 C34 1.247 . S
O33 Cd29 2.439 . S
O33 C34 1.208 . S
C34 O32 1.247 . S
C34 O33 1.208 . S
C35 O40 1.247 . S
C35 O41 1.208 . S
C36 O28 1.315 . S
C36 O31 1.279 . S
C37 O38 1.315 . S
C37 O39 1.279 . S
O38 Cd30 2.223 . S
O38 C37 1.315 . S
O39 Cd29 2.240 . S
O39 C37 1.279 . S
O40 Cd30 2.297 . S
O40 C35 1.247 . S
O41 Cd30 2.439 . S
O41 C35 1.208 . S
O42 Cd43 2.223 . S
O42 C50 1.315 . S
Cd43 O42 2.223 . S
Cd43 O46 2.297 . S
Cd43 O47 2.439 . S
Cd43 O53 2.240 . S
Cd44 O45 2.240 . S
Cd44 O52 2.223 . S
Cd44 O54 2.297 . S
Cd44 O55 2.439 . S
O45 Cd44 2.240 . S
O45 C50 1.279 . S
O46 Cd43 2.297 . S
O46 C48 1.247 . S
O47 Cd43 2.439 . S
O47 C48 1.208 . S
C48 O46 1.247 . S
C48 O47 1.208 . S
C49 O54 1.247 . S
C49 O55 1.208 . S
C50 O42 1.315 . S
C50 O45 1.279 . S
C51 O52 1.315 . S
C51 O53 1.279 . S
O52 Cd44 2.223 . S
O52 C51 1.315 . S
O53 Cd43 2.240 . S
O53 C51 1.279 . S
O54 Cd44 2.297 . S
O54 C49 1.247 . S
O55 Cd44 2.439 . S
O55 C49 1.208 . S
O56 Cd57 2.223 . S
O56 C64 1.315 . S
Cd57 O56 2.223 . S
Cd57 O60 2.297 . S
Cd57 O61 2.439 . S
Cd57 O67 2.240 . S
Cd58 O59 2.240 . S
Cd58 O66 2.223 . S
Cd58 O68 2.297 . S
Cd58 O69 2.439 . S
O59 Cd58 2.240 . S
O59 C64 1.279 . S
O60 Cd57 2.297 . S
O60 C62 1.247 . S
O61 Cd57 2.439 . S
O61 C62 1.208 . S
C62 O60 1.247 . S
C62 O61 1.208 . S
C63 O68 1.247 . S
C63 O69 1.208 . S
C64 O56 1.315 . S
C64 O59 1.279 . S
C65 O66 1.315 . S
C65 O67 1.279 . S
O66 Cd58 2.223 . S
O66 C65 1.315 . S
O67 Cd57 2.240 . S
O67 C65 1.279 . S
O68 Cd58 2.297 . S
O68 C63 1.247 . S
O69 Cd58 2.439 . S
O69 C63 1.208 . S
O70 Cd71 2.223 . S
O70 C78 1.315 . S
Cd71 O70 2.223 . S
Cd71 O74 2.297 . S
Cd71 O75 2.439 . S
Cd71 O81 2.240 . S
Cd72 O73 2.240 . S
Cd72 O80 2.223 . S
Cd72 O82 2.297 . S
Cd72 O83 2.439 . S
O73 Cd72 2.240 . S
O73 C78 1.279 . S
O74 Cd71 2.297 . S
O74 C76 1.247 . S
O75 Cd71 2.439 . S
O75 C76 1.208 . S
C76 O74 1.247 . S
C76 O75 1.208 . S
C77 O82 1.247 . S
C77 O83 1.208 . S
C78 O70 1.315 . S
C78 O73 1.279 . S
C79 O80 1.315 . S
C79 O81 1.279 . S
O80 Cd72 2.223 . S
O80 C79 1.315 . S
O81 Cd71 2.240 . S
O81 C79 1.279 . S
O82 Cd72 2.297 . S
O82 C77 1.247 . S
O83 Cd72 2.439 . S
O83 C77 1.208 . S
O84 Cd85 2.223 . S
O84 C92 1.315 . S
Cd85 O84 2.223 . S
Cd85 O88 2.297 . S
Cd85 O89 2.439 . S
Cd85 O95 2.240 . S
Cd86 O87 2.240 . S
Cd86 O94 2.223 . S
Cd86 O96 2.297 . S
Cd86 O97 2.439 . S
O87 Cd86 2.240 . S
O87 C92 1.279 . S
O88 Cd85 2.297 . S
O88 C90 1.247 . S
O89 Cd85 2.439 . S
O89 C90 1.208 . S
C90 O88 1.247 . S
C90 O89 1.208 . S
C91 O96 1.247 . S
C91 O97 1.208 . S
C92 O84 1.315 . S
C92 O87 1.279 . S
C93 O94 1.315 . S
C93 O95 1.279 . S
O94 Cd86 2.223 . S
O94 C93 1.315 . S
O95 Cd85 2.240 . S
O95 C93 1.279 . S
O96 Cd86 2.297 . S
O96 C91 1.247 . S
O97 Cd86 2.439 . S
O97 C91 1.208 . S
O98 Cd99 2.223 . S
O98 C106 1.315 . S
Cd99 O98 2.223 . S
Cd99 O102 2.297 . S
Cd99 O103 2.439 . S
Cd99 O109 2.240 . S
Cd100 O101 2.240 . S
Cd100 O108 2.223 . S
Cd100 O110 2.297 . S
Cd100 O111 2.439 . S
O101 Cd100 2.240 . S
O101 C106 1.279 . S
O102 Cd99 2.297 . S
O102 C104 1.247 . S
O103 Cd99 2.439 . S
O103 C104 1.208 . S
C104 O102 1.247 . S
C104 O103 1.208 . S
C105 O110 1.247 . S
C105 O111 1.208 . S
C106 O98 1.315 . S
C106 O101 1.279 . S
C107 O108 1.315 . S
C107 O109 1.279 . S
O108 Cd100 2.223 . S
O108 C107 1.315 . S
O109 Cd99 2.240 . S
O109 C107 1.279 . S
O110 Cd100 2.297 . S
O110 C105 1.247 . S
O111 Cd100 2.439 . S
O111 C105 1.208 . S
O112 Cd113 2.223 . S
O112 C120 1.315 . S
Cd113 O112 2.223 . S
Cd113 O116 2.297 . S
Cd113 O117 2.439 . S
Cd113 O123 2.240 . S
Cd114 O115 2.240 . S
Cd114 O122 2.223 . S
Cd114 O124 2.297 . S
Cd114 O125 2.439 . S
O115 Cd114 2.240 . S
O115 C120 1.279 . S
O116 Cd113 2.297 . S
O116 C118 1.247 . S
O117 Cd113 2.439 . S
O117 C118 1.208 . S
C118 O116 1.247 . S
C118 O117 1.208 . S
C119 O124 1.247 . S
C119 O125 1.208 . S
C120 O112 1.315 . S
C120 O115 1.279 . S
C121 O122 1.315 . S
C121 O123 1.279 . S
O122 Cd114 2.223 . S
O122 C121 1.315 . S
O123 Cd113 2.240 . S
O123 C121 1.279 . S
O124 Cd114 2.297 . S
O124 C119 1.247 . S
O125 Cd114 2.439 . S
O125 C119 1.208 . S
O126 Cd127 2.223 . S
O126 C134 1.315 . S
Cd127 O126 2.223 . S
Cd127 O130 2.297 . S
Cd127 O131 2.439 . S
Cd127 O137 2.240 . S
Cd128 O129 2.240 . S
Cd128 O136 2.223 . S
Cd128 O138 2.297 . S
Cd128 O139 2.439 . S
O129 Cd128 2.240 . S
O129 C134 1.279 . S
O130 Cd127 2.297 . S
O130 C132 1.247 . S
O131 Cd127 2.439 . S
O131 C132 1.208 . S
C132 O130 1.247 . S
C132 O131 1.208 . S
C133 O138 1.247 . S
C133 O139 1.208 . S
C134 O126 1.315 . S
C134 O129 1.279 . S
C135 O136 1.315 . S
C135 O137 1.279 . S
O136 Cd128 2.223 . S
O136 C135 1.315 . S
O137 Cd127 2.240 . S
O137 C135 1.279 . S
O138 Cd128 2.297 . S
O138 C133 1.247 . S
O139 Cd128 2.439 . S
O139 C133 1.208 . S
O140 Cd141 2.223 . S
O140 C148 1.315 . S
Cd141 O140 2.223 . S
Cd141 O144 2.297 . S
Cd141 O145 2.439 . S
Cd141 O151 2.240 . S
Cd142 O143 2.240 . S
Cd142 O150 2.223 . S
Cd142 O152 2.297 . S
Cd142 O153 2.439 . S
O143 Cd142 2.240 . S
O143 C148 1.279 . S
O144 Cd141 2.297 . S
O144 C146 1.247 . S
O145 Cd141 2.439 . S
O145 C146 1.208 . S
C146 O144 1.247 . S
C146 O145 1.208 . S
C147 O152 1.247 . S
C147 O153 1.208 . S
C148 O140 1.315 . S
C148 O143 1.279 . S
C149 O150 1.315 . S
C149 O151 1.279 . S
O150 Cd142 2.223 . S
O150 C149 1.315 . S
O151 Cd141 2.240 . S
O151 C149 1.279 . S
O152 Cd142 2.297 . S
O152 C147 1.247 . S
O153 Cd142 2.439 . S
O153 C147 1.208 . S
O154 Cd155 2.223 . S
O154 C162 1.315 . S
Cd155 O154 2.223 . S
Cd155 O158 2.297 . S
Cd155 O159 2.439 . S
Cd155 O165 2.240 . S
Cd156 O157 2.240 . S
Cd156 O164 2.223 . S
Cd156 O166 2.297 . S
Cd156 O167 2.439 . S
O157 Cd156 2.240 . S
O157 C162 1.279 . S
O158 Cd155 2.297 . S
O158 C160 1.247 . S
O159 Cd155 2.439 . S
O159 C160 1.208 . S
C160 O158 1.247 . S
C160 O159 1.208 . S
C161 O166 1.247 . S
C161 O167 1.208 . S
C162 O154 1.315 . S
C162 O157 1.279 . S
C163 O164 1.315 . S
C163 O165 1.279 . S
O164 Cd156 2.223 . S
O164 C163 1.315 . S
O165 Cd155 2.240 . S
O165 C163 1.279 . S
O166 Cd156 2.297 . S
O166 C161 1.247 . S
O167 Cd156 2.439 . S
O167 C161 1.208 . S
O168 Cd169 2.223 . S
O168 C176 1.315 . S
Cd169 O168 2.223 . S
Cd169 O172 2.297 . S
Cd169 O173 2.439 . S
Cd169 O179 2.240 . S
Cd170 O171 2.240 . S
Cd170 O178 2.223 . S
Cd170 O180 2.297 . S
Cd170 O181 2.439 . S
O171 Cd170 2.240 . S
O171 C176 1.279 . S
O172 Cd169 2.297 . S
O172 C174 1.247 . S
O173 Cd169 2.439 . S
O173 C174 1.208 . S
C174 O172 1.247 . S
C174 O173 1.208 . S
C175 O180 1.247 . S
C175 O181 1.208 . S
C176 O168 1.315 . S
C176 O171 1.279 . S
C177 O178 1.315 . S
C177 O179 1.279 . S
O178 Cd170 2.223 . S
O178 C177 1.315 . S
O179 Cd169 2.240 . S
O179 C177 1.279 . S
O180 Cd170 2.297 . S
O180 C175 1.247 . S
O181 Cd170 2.439 . S
O181 C175 1.208 . S
O182 Cd183 2.223 . S
O182 C190 1.315 . S
Cd183 O182 2.223 . S
Cd183 O186 2.297 . S
Cd183 O187 2.439 . S
Cd183 O193 2.240 . S
Cd184 O185 2.240 . S
Cd184 O192 2.223 . S
Cd184 O194 2.297 . S
Cd184 O195 2.439 . S
O185 Cd184 2.240 . S
O185 C190 1.279 . S
O186 Cd183 2.297 . S
O186 C188 1.247 . S
O187 Cd183 2.439 . S
O187 C188 1.208 . S
C188 O186 1.247 . S
C188 O187 1.208 . S
C189 O194 1.247 . S
C189 O195 1.208 . S
C190 O182 1.315 . S
C190 O185 1.279 . S
C191 O192 1.315 . S
C191 O193 1.279 . S
O192 Cd184 2.223 . S
O192 C191 1.315 . S
O193 Cd183 2.240 . S
O193 C191 1.279 . S
O194 Cd184 2.297 . S
O194 C189 1.247 . S
O195 Cd184 2.439 . S
O195 C189 1.208 . S
O196 Cd197 2.223 . S
O196 C204 1.315 . S
Cd197 O196 2.223 . S
Cd197 O200 2.297 . S
Cd197 O201 2.439 . S
Cd197 O207 2.240 . S
Cd198 O199 2.240 . S
Cd198 O206 2.223 . S
Cd198 O208 2.297 . S
Cd198 O209 2.439 . S
O199 Cd198 2.240 . S
O199 C204 1.279 . S
O200 Cd197 2.297 . S
O200 C202 1.247 . S
O201 Cd197 2.439 . S
O201 C202 1.208 . S
C202 O200 1.247 . S
C202 O201 1.208 . S
C203 O208 1.247 . S
C203 O209 1.208 . S
C204 O196 1.315 . S
C204 O199 1.279 . S
C205 O206 1.315 . S
C205 O207 1.279 . S
O206 Cd198 2.223 . S
O206 C205 1.315 . S
O207 Cd197 2.240 . S
O207 C205 1.279 . S
O208 Cd198 2.297 . S
O208 C203 1.247 . S
O209 Cd198 2.439 . S
O209 C203 1.208 . S
O210 Cd211 2.223 . S
O210 C218 1.315 . S
Cd211 O210 2.223 . S
Cd211 O214 2.297 . S
Cd211 O215 2.439 . S
Cd211 O221 2.240 . S
Cd212 O213 2.240 . S
Cd212 O220 2.223 . S
Cd212 O222 2.297 . S
Cd212 O223 2.439 . S
O213 Cd212 2.240 . S
O213 C218 1.279 . S
O214 Cd211 2.297 . S
O214 C216 1.247 . S
O215 Cd211 2.439 . S
O215 C216 1.208 . S
C216 O214 1.247 . S
C216 O215 1.208 . S
C217 O222 1.247 . S
C217 O223 1.208 . S
C218 O210 1.315 . S
C218 O213 1.279 . S
C219 O220 1.315 . S
C219 O221 1.279 . S
O220 Cd212 2.223 . S
O220 C219 1.315 . S
O221 Cd211 2.240 . S
O221 C219 1.279 . S
O222 Cd212 2.297 . S
O222 C217 1.247 . S
O223 Cd212 2.439 . S
O223 C217 1.208 . S
C224 C225 1.391 . S
C224 C226 1.394 . S
C224 H240 0.931 . S
C225 C224 1.391 . S
C225 C229 1.376 . S
C226 C224 1.394 . S
C226 C227 1.369 . S
C226 C230 1.531 . S
C227 C226 1.369 . S
C227 C228 1.410 . S
C227 C235 1.503 1_556 S
C228 C227 1.410 . S
C228 C229 1.392 . S
C228 C231 1.511 1_556 S
C229 C225 1.376 . S
C229 C228 1.392 . S
C229 H241 0.929 . S
C230 C226 1.531 . S
C230 H242 0.960 . S
C230 H243 0.962 . S
C230 H244 0.960 . S
C231 C228 1.511 1_554 S
C231 H245 0.961 . S
C231 H246 0.961 . S
C231 H247 0.961 . S
C232 C233 1.370 . S
C232 C234 1.363 . S
C232 H248 0.931 . S
C233 C232 1.370 . S
C233 C237 1.408 . S
C234 C232 1.363 . S
C234 C235 1.370 . S
C234 C238 1.524 1_554 S
C235 C227 1.503 1_554 S
C235 C234 1.370 . S
C235 C236 1.403 . S
C236 C235 1.403 . S
C236 C237 1.404 . S
C236 C239 1.539 . S
C237 C233 1.408 . S
C237 C236 1.404 . S
C237 H249 0.930 . S
C238 C234 1.524 1_556 S
C238 H250 0.956 . S
C238 H251 0.961 . S
C238 H252 0.961 . S
C239 C236 1.539 . S
C239 H253 0.958 . S
C239 H254 0.961 . S
C239 H255 0.960 . S
H240 C224 0.931 . S
H241 C229 0.929 . S
H242 C230 0.960 . S
H243 C230 0.962 . S
H244 C230 0.960 . S
H245 C231 0.961 . S
H246 C231 0.961 . S
H247 C231 0.961 . S
H248 C232 0.931 . S
H249 C237 0.930 . S
H250 C238 0.956 . S
H251 C238 0.961 . S
H252 C238 0.961 . S
H253 C239 0.958 . S
H254 C239 0.961 . S
H255 C239 0.960 . S
C256 C257 1.391 . S
C256 C258 1.394 . S
C256 H272 0.931 . S
C257 C256 1.391 . S
C257 C261 1.376 . S
C258 C256 1.394 . S
C258 C259 1.369 . S
C258 C262 1.531 . S
C259 C258 1.369 . S
C259 C260 1.410 . S
C259 C267 1.503 . S
C260 C259 1.410 . S
C260 C261 1.392 . S
C260 C263 1.511 . S
C261 C257 1.376 . S
C261 C260 1.392 . S
C261 H273 0.929 . S
C262 C258 1.531 . S
C262 H274 0.960 . S
C262 H275 0.962 . S
C262 H276 0.960 . S
C263 C260 1.511 . S
C263 H277 0.961 . S
C263 H278 0.961 . S
C263 H279 0.961 . S
C264 C265 1.370 . S
C264 C266 1.363 . S
C264 H280 0.931 . S
C265 C264 1.370 . S
C265 C269 1.408 . S
C266 C264 1.363 . S
C266 C267 1.370 . S
C266 C270 1.524 . S
C267 C259 1.503 . S
C267 C266 1.370 . S
C267 C268 1.403 . S
C268 C267 1.403 . S
C268 C269 1.404 . S
C268 C271 1.539 . S
C269 C265 1.408 . S
C269 C268 1.404 . S
C269 H281 0.930 . S
C270 C266 1.524 . S
C270 H282 0.956 . S
C270 H283 0.961 . S
C270 H284 0.961 . S
C271 C268 1.539 . S
C271 H285 0.958 . S
C271 H286 0.961 . S
C271 H287 0.960 . S
H272 C256 0.931 . S
H273 C261 0.929 . S
H274 C262 0.960 . S
H275 C262 0.962 . S
H276 C262 0.960 . S
H277 C263 0.961 . S
H278 C263 0.961 . S
H279 C263 0.961 . S
H280 C264 0.931 . S
H281 C269 0.930 . S
H282 C270 0.956 . S
H283 C270 0.961 . S
H284 C270 0.961 . S
H285 C271 0.958 . S
H286 C271 0.961 . S
H287 C271 0.960 . S
C288 C289 1.391 . S
C288 C290 1.394 . S
C288 H304 0.931 . S
C289 C288 1.391 . S
C289 C293 1.376 . S
C290 C288 1.394 . S
C290 C291 1.369 . S
C290 C294 1.531 1_556 S
C291 C290 1.369 . S
C291 C292 1.410 . S
C291 C299 1.503 1_556 S
C292 C291 1.410 . S
C292 C293 1.392 . S
C292 C295 1.511 . S
C293 C289 1.376 . S
C293 C292 1.392 . S
C293 H305 0.929 . S
C294 C290 1.531 1_554 S
C294 H306 0.960 . S
C294 H307 0.962 . S
C294 H308 0.960 . S
C295 C292 1.511 . S
C295 H309 0.961 . S
C295 H310 0.961 . S
C295 H311 0.961 . S
C296 C297 1.370 . S
C296 C298 1.363 . S
C296 H312 0.931 . S
C297 C296 1.370 . S
C297 C301 1.408 . S
C298 C296 1.363 . S
C298 C299 1.370 . S
C298 C302 1.524 . S
C299 C291 1.503 1_554 S
C299 C298 1.370 . S
C299 C300 1.403 . S
C300 C299 1.403 . S
C300 C301 1.404 . S
C300 C303 1.539 . S
C301 C297 1.408 . S
C301 C300 1.404 . S
C301 H313 0.930 . S
C302 C298 1.524 . S
C302 H314 0.956 . S
C302 H315 0.961 . S
C302 H316 0.961 . S
C303 C300 1.539 . S
C303 H317 0.958 . S
C303 H318 0.960 1_554 S
C303 H319 0.960 1_554 S
H304 C288 0.931 . S
H305 C293 0.929 . S
H306 C294 0.960 . S
H307 C294 0.962 . S
H308 C294 0.960 . S
H309 C295 0.961 . S
H310 C295 0.961 . S
H311 C295 0.961 . S
H312 C296 0.931 . S
H313 C301 0.930 . S
H314 C302 0.956 . S
H315 C302 0.961 . S
H316 C302 0.961 . S
H317 C303 0.958 . S
H318 C303 0.960 1_556 S
H319 C303 0.960 1_556 S
C320 C321 1.391 . S
C320 C322 1.394 . S
C320 H336 0.931 . S
C321 C320 1.391 . S
C321 C325 1.376 . S
C322 C320 1.394 . S
C322 C323 1.369 . S
C322 C326 1.531 . S
C323 C322 1.369 . S
C323 C324 1.410 . S
C323 C331 1.503 . S
C324 C323 1.410 . S
C324 C325 1.392 . S
C324 C327 1.511 . S
C325 C321 1.376 . S
C325 C324 1.392 . S
C325 H337 0.929 . S
C326 C322 1.531 . S
C326 H338 0.960 . S
C326 H339 0.962 . S
C326 H340 0.960 . S
C327 C324 1.511 . S
C327 H341 0.961 . S
C327 H342 0.961 . S
C327 H343 0.961 . S
C328 C329 1.370 . S
C328 C330 1.363 . S
C328 H344 0.931 . S
C329 C328 1.370 . S
C329 C333 1.408 . S
C330 C328 1.363 . S
C330 C331 1.370 . S
C330 C334 1.524 . S
C331 C323 1.503 . S
C331 C330 1.370 . S
C331 C332 1.403 . S
C332 C331 1.403 . S
C332 C333 1.404 . S
C332 C335 1.539 . S
C333 C329 1.408 . S
C333 C332 1.404 . S
C333 H345 0.930 . S
C334 C330 1.524 . S
C334 H346 0.956 . S
C334 H347 0.961 . S
C334 H348 0.961 . S
C335 C332 1.539 . S
C335 H349 0.958 . S
C335 H350 0.961 . S
C335 H351 0.960 . S
H336 C320 0.931 . S
H337 C325 0.929 . S
H338 C326 0.960 . S
H339 C326 0.962 . S
H340 C326 0.960 . S
H341 C327 0.961 . S
H342 C327 0.961 . S
H343 C327 0.961 . S
H344 C328 0.931 . S
H345 C333 0.930 . S
H346 C334 0.956 . S
H347 C334 0.961 . S
H348 C334 0.961 . S
H349 C335 0.958 . S
H350 C335 0.961 . S
H351 C335 0.960 . S
C352 C353 1.391 . S
C352 C354 1.394 . S
C352 H368 0.931 . S
C353 C352 1.391 . S
C353 C357 1.376 . S
C354 C352 1.394 . S
C354 C355 1.369 . S
C354 C358 1.531 . S
C355 C354 1.369 . S
C355 C356 1.410 . S
C355 C363 1.503 1_554 S
C356 C355 1.410 . S
C356 C357 1.392 . S
C356 C359 1.511 . S
C357 C353 1.376 . S
C357 C356 1.392 . S
C357 H369 0.929 . S
C358 C354 1.531 . S
C358 H370 0.960 . S
C358 H371 0.962 . S
C358 H372 0.960 . S
C359 C356 1.511 . S
C359 H373 0.961 . S
C359 H374 0.961 1_554 S
C359 H375 0.961 . S
C360 C361 1.370 . S
C360 C362 1.363 . S
C360 H376 0.931 . S
C361 C360 1.370 . S
C361 C365 1.408 . S
C362 C360 1.363 . S
C362 C363 1.370 . S
C362 C366 1.524 . S
C363 C355 1.503 1_556 S
C363 C362 1.370 . S
C363 C364 1.403 1_556 S
C364 C363 1.403 1_554 S
C364 C365 1.404 1_554 S
C364 C367 1.539 . S
C365 C361 1.408 . S
C365 C364 1.404 1_556 S
C365 H377 0.930 . S
C366 C362 1.524 . S
C366 H378 0.956 . S
C366 H379 0.961 . S
C366 H380 0.961 . S
C367 C364 1.539 . S
C367 H381 0.958 . S
C367 H382 0.961 . S
C367 H383 0.960 . S
H368 C352 0.931 . S
H369 C357 0.929 . S
H370 C358 0.960 . S
H371 C358 0.962 . S
H372 C358 0.960 . S
H373 C359 0.961 . S
H374 C359 0.961 1_556 S
H375 C359 0.961 . S
H376 C360 0.931 . S
H377 C365 0.930 . S
H378 C366 0.956 . S
H379 C366 0.961 . S
H380 C366 0.961 . S
H381 C367 0.958 . S
H382 C367 0.961 . S
H383 C367 0.960 . S
C384 C385 1.391 . S
C384 C386 1.394 . S
C384 H400 0.931 . S
C385 C384 1.391 . S
C385 C389 1.376 . S
C386 C384 1.394 . S
C386 C387 1.369 . S
C386 C390 1.531 . S
C387 C386 1.369 . S
C387 C388 1.410 . S
C387 C395 1.503 . S
C388 C387 1.410 . S
C388 C389 1.392 . S
C388 C391 1.511 . S
C389 C385 1.376 . S
C389 C388 1.392 . S
C389 H401 0.929 . S
C390 C386 1.531 . S
C390 H402 0.960 . S
C390 H403 0.962 . S
C390 H404 0.960 . S
C391 C388 1.511 . S
C391 H405 0.961 . S
C391 H406 0.961 . S
C391 H407 0.961 . S
C392 C393 1.370 . S
C392 C394 1.363 . S
C392 H408 0.931 . S
C393 C392 1.370 . S
C393 C397 1.408 . S
C394 C392 1.363 . S
C394 C395 1.370 . S
C394 C398 1.524 . S
C395 C387 1.503 . S
C395 C394 1.370 . S
C395 C396 1.403 . S
C396 C395 1.403 . S
C396 C397 1.404 . S
C396 C399 1.539 . S
C397 C393 1.408 . S
C397 C396 1.404 . S
C397 H409 0.930 . S
C398 C394 1.524 . S
C398 H410 0.956 . S
C398 H411 0.961 . S
C398 H412 0.961 . S
C399 C396 1.539 . S
C399 H413 0.958 . S
C399 H414 0.961 . S
C399 H415 0.960 . S
H400 C384 0.931 . S
H401 C389 0.929 . S
H402 C390 0.960 . S
H403 C390 0.962 . S
H404 C390 0.960 . S
H405 C391 0.961 . S
H406 C391 0.961 . S
H407 C391 0.961 . S
H408 C392 0.931 . S
H409 C397 0.930 . S
H410 C398 0.956 . S
H411 C398 0.961 . S
H412 C398 0.961 . S
H413 C399 0.958 . S
H414 C399 0.961 . S
H415 C399 0.960 . S
C416 C417 1.391 . S
C416 C418 1.394 . S
C416 H432 0.931 . S
C417 C416 1.391 . S
C417 C421 1.376 . S
C418 C416 1.394 . S
C418 C419 1.369 . S
C418 C422 1.531 . S
C419 C418 1.369 . S
C419 C420 1.410 . S
C419 C427 1.503 1_556 S
C420 C419 1.410 . S
C420 C421 1.392 . S
C420 C423 1.511 1_556 S
C421 C417 1.376 . S
C421 C420 1.392 . S
C421 H433 0.929 . S
C422 C418 1.531 . S
C422 H434 0.960 . S
C422 H435 0.962 . S
C422 H436 0.960 . S
C423 C420 1.511 1_554 S
C423 H437 0.961 . S
C423 H438 0.961 . S
C423 H439 0.961 . S
C424 C425 1.370 . S
C424 C426 1.363 . S
C424 H440 0.931 . S
C425 C424 1.370 . S
C425 C429 1.408 . S
C426 C424 1.363 . S
C426 C427 1.370 . S
C426 C430 1.524 . S
C427 C419 1.503 1_554 S
C427 C426 1.370 . S
C427 C428 1.403 . S
C428 C427 1.403 . S
C428 C429 1.404 . S
C428 C431 1.539 . S
C429 C425 1.408 . S
C429 C428 1.404 . S
C429 H441 0.930 . S
C430 C426 1.524 . S
C430 H442 0.956 1_554 S
C430 H443 0.961 . S
C430 H444 0.961 . S
C431 C428 1.539 . S
C431 H445 0.958 1_554 S
C431 H446 0.961 . S
C431 H447 0.960 . S
H432 C416 0.931 . S
H433 C421 0.929 . S
H434 C422 0.960 . S
H435 C422 0.962 . S
H436 C422 0.960 . S
H437 C423 0.961 . S
H438 C423 0.961 . S
H439 C423 0.961 . S
H440 C424 0.931 . S
H441 C429 0.930 . S
H442 C430 0.956 1_556 S
H443 C430 0.961 . S
H444 C430 0.961 . S
H445 C431 0.958 1_556 S
H446 C431 0.961 . S
H447 C431 0.960 . S
C448 C449 1.391 . S
C448 C450 1.394 . S
C448 H464 0.931 . S
C449 C448 1.391 . S
C449 C453 1.376 . S
C450 C448 1.394 . S
C450 C451 1.369 . S
C450 C454 1.531 . S
C451 C450 1.369 . S
C451 C452 1.410 . S
C451 C459 1.503 . S
C452 C451 1.410 . S
C452 C453 1.392 . S
C452 C455 1.511 . S
C453 C449 1.376 . S
C453 C452 1.392 . S
C453 H465 0.929 . S
C454 C450 1.531 . S
C454 H466 0.960 . S
C454 H467 0.962 . S
C454 H468 0.960 . S
C455 C452 1.511 . S
C455 H469 0.961 . S
C455 H470 0.961 . S
C455 H471 0.961 . S
C456 C457 1.370 . S
C456 C458 1.363 . S
C456 H472 0.931 . S
C457 C456 1.370 . S
C457 C461 1.408 . S
C458 C456 1.363 . S
C458 C459 1.370 . S
C458 C462 1.524 . S
C459 C451 1.503 . S
C459 C458 1.370 . S
C459 C460 1.403 . S
C460 C459 1.403 . S
C460 C461 1.404 . S
C460 C463 1.539 . S
C461 C457 1.408 . S
C461 C460 1.404 . S
C461 H473 0.930 . S
C462 C458 1.524 . S
C462 H474 0.956 . S
C462 H475 0.961 . S
C462 H476 0.961 . S
C463 C460 1.539 . S
C463 H477 0.958 . S
C463 H478 0.961 . S
C463 H479 0.960 . S
H464 C448 0.931 . S
H465 C453 0.929 . S
H466 C454 0.960 . S
H467 C454 0.962 . S
H468 C454 0.960 . S
H469 C455 0.961 . S
H470 C455 0.961 . S
H471 C455 0.961 . S
H472 C456 0.931 . S
H473 C461 0.930 . S
H474 C462 0.956 . S
H475 C462 0.961 . S
H476 C462 0.961 . S
H477 C463 0.958 . S
H478 C463 0.961 . S
H479 C463 0.960 . S
C480 C481 1.391 . S
C480 C482 1.394 . S
C480 H496 0.931 . S
C481 C480 1.391 . S
C481 C485 1.376 . S
C482 C480 1.394 . S
C482 C483 1.369 . S
C482 C486 1.531 . S
C483 C482 1.369 . S
C483 C484 1.410 . S
C483 C491 1.503 . S
C484 C483 1.410 . S
C484 C485 1.392 . S
C484 C487 1.511 . S
C485 C481 1.376 . S
C485 C484 1.392 . S
C485 H497 0.929 . S
C486 C482 1.531 . S
C486 H498 0.960 . S
C486 H499 0.962 . S
C486 H500 0.960 . S
C487 C484 1.511 . S
C487 H501 0.961 . S
C487 H502 0.961 . S
C487 H503 0.961 . S
C488 C489 1.370 . S
C488 C490 1.363 . S
C488 H504 0.931 . S
C489 C488 1.370 . S
C489 C493 1.408 . S
C490 C488 1.363 . S
C490 C491 1.370 . S
C490 C494 1.524 . S
C491 C483 1.503 . S
C491 C490 1.370 . S
C491 C492 1.403 . S
C492 C491 1.403 . S
C492 C493 1.404 . S
C492 C495 1.539 . S
C493 C489 1.408 . S
C493 C492 1.404 . S
C493 H505 0.930 . S
C494 C490 1.524 . S
C494 H506 0.956 . S
C494 H507 0.961 . S
C494 H508 0.961 . S
C495 C492 1.539 . S
C495 H509 0.958 . S
C495 H510 0.961 . S
C495 H511 0.960 . S
H496 C480 0.931 . S
H497 C485 0.929 . S
H498 C486 0.960 . S
H499 C486 0.962 . S
H500 C486 0.960 . S
H501 C487 0.961 . S
H502 C487 0.961 . S
H503 C487 0.961 . S
H504 C488 0.931 . S
H505 C493 0.930 . S
H506 C494 0.956 . S
H507 C494 0.961 . S
H508 C494 0.961 . S
H509 C495 0.958 . S
H510 C495 0.961 . S
H511 C495 0.960 . S
C512 C513 1.391 . S
C512 C514 1.394 . S
C512 H528 0.931 . S
C513 C512 1.391 . S
C513 C517 1.376 . S
C514 C512 1.394 . S
C514 C515 1.369 . S
C514 C518 1.531 . S
C515 C514 1.369 . S
C515 C516 1.410 . S
C515 C523 1.503 . S
C516 C515 1.410 . S
C516 C517 1.392 . S
C516 C519 1.511 . S
C517 C513 1.376 . S
C517 C516 1.392 . S
C517 H529 0.929 . S
C518 C514 1.531 . S
C518 H530 0.960 . S
C518 H531 0.962 . S
C518 H532 0.960 . S
C519 C516 1.511 . S
C519 H533 0.961 . S
C519 H534 0.961 . S
C519 H535 0.961 . S
C520 C521 1.370 . S
C520 C522 1.363 . S
C520 H536 0.931 . S
C521 C520 1.370 . S
C521 C525 1.408 . S
C522 C520 1.363 . S
C522 C523 1.370 . S
C522 C526 1.524 . S
C523 C515 1.503 . S
C523 C522 1.370 . S
C523 C524 1.403 . S
C524 C523 1.403 . S
C524 C525 1.404 . S
C524 C527 1.539 . S
C525 C521 1.408 . S
C525 C524 1.404 . S
C525 H537 0.930 . S
C526 C522 1.524 . S
C526 H538 0.956 . S
C526 H539 0.961 . S
C526 H540 0.961 . S
C527 C524 1.539 . S
C527 H541 0.958 . S
C527 H542 0.961 . S
C527 H543 0.960 . S
H528 C512 0.931 . S
H529 C517 0.929 . S
H530 C518 0.960 . S
H531 C518 0.962 . S
H532 C518 0.960 . S
H533 C519 0.961 . S
H534 C519 0.961 . S
H535 C519 0.961 . S
H536 C520 0.931 . S
H537 C525 0.930 . S
H538 C526 0.956 . S
H539 C526 0.961 . S
H540 C526 0.961 . S
H541 C527 0.958 . S
H542 C527 0.961 . S
H543 C527 0.960 . S
C544 C545 1.391 . S
C544 C546 1.394 . S
C544 H560 0.931 . S
C545 C544 1.391 . S
C545 C549 1.376 . S
C546 C544 1.394 . S
C546 C547 1.369 . S
C546 C550 1.531 . S
C547 C546 1.369 . S
C547 C548 1.410 . S
C547 C555 1.503 . S
C548 C547 1.410 . S
C548 C549 1.392 . S
C548 C551 1.511 . S
C549 C545 1.376 . S
C549 C548 1.392 . S
C549 H561 0.929 . S
C550 C546 1.531 . S
C550 H562 0.960 . S
C550 H563 0.962 . S
C550 H564 0.960 . S
C551 C548 1.511 . S
C551 H565 0.961 . S
C551 H566 0.961 . S
C551 H567 0.961 . S
C552 C553 1.370 . S
C552 C554 1.363 . S
C552 H568 0.931 . S
C553 C552 1.370 . S
C553 C557 1.408 . S
C554 C552 1.363 . S
C554 C555 1.370 . S
C554 C558 1.524 . S
C555 C547 1.503 . S
C555 C554 1.370 . S
C555 C556 1.403 . S
C556 C555 1.403 . S
C556 C557 1.404 . S
C556 C559 1.539 . S
C557 C553 1.408 . S
C557 C556 1.404 . S
C557 H569 0.930 . S
C558 C554 1.524 . S
C558 H570 0.956 . S
C558 H571 0.961 . S
C558 H572 0.961 . S
C559 C556 1.539 . S
C559 H573 0.958 . S
C559 H574 0.961 . S
C559 H575 0.960 . S
H560 C544 0.931 . S
H561 C549 0.929 . S
H562 C550 0.960 . S
H563 C550 0.962 . S
H564 C550 0.960 . S
H565 C551 0.961 . S
H566 C551 0.961 . S
H567 C551 0.961 . S
H568 C552 0.931 . S
H569 C557 0.930 . S
H570 C558 0.956 . S
H571 C558 0.961 . S
H572 C558 0.961 . S
H573 C559 0.958 . S
H574 C559 0.961 . S
H575 C559 0.960 . S
C576 C577 1.391 . S
C576 C578 1.394 . S
C576 H592 0.931 . S
C577 C576 1.391 . S
C577 C581 1.376 . S
C578 C576 1.394 . S
C578 C579 1.369 . S
C578 C582 1.531 . S
C579 C578 1.369 . S
C579 C580 1.410 . S
C579 C587 1.503 . S
C580 C579 1.410 . S
C580 C581 1.392 . S
C580 C583 1.511 . S
C581 C577 1.376 . S
C581 C580 1.392 . S
C581 H593 0.929 . S
C582 C578 1.531 . S
C582 H594 0.960 . S
C582 H595 0.962 . S
C582 H596 0.960 . S
C583 C580 1.511 . S
C583 H597 0.961 . S
C583 H598 0.961 . S
C583 H599 0.961 . S
C584 C585 1.370 . S
C584 C586 1.363 . S
C584 H600 0.931 . S
C585 C584 1.370 . S
C585 C589 1.408 . S
C586 C584 1.363 . S
C586 C587 1.370 . S
C586 C590 1.524 . S
C587 C579 1.503 . S
C587 C586 1.370 . S
C587 C588 1.403 . S
C588 C587 1.403 . S
C588 C589 1.404 . S
C588 C591 1.539 . S
C589 C585 1.408 . S
C589 C588 1.404 . S
C589 H601 0.930 . S
C590 C586 1.524 . S
C590 H602 0.956 . S
C590 H603 0.961 . S
C590 H604 0.961 . S
C591 C588 1.539 . S
C591 H605 0.958 . S
C591 H606 0.961 . S
C591 H607 0.960 . S
H592 C576 0.931 . S
H593 C581 0.929 . S
H594 C582 0.960 . S
H595 C582 0.962 . S
H596 C582 0.960 . S
H597 C583 0.961 . S
H598 C583 0.961 . S
H599 C583 0.961 . S
H600 C584 0.931 . S
H601 C589 0.930 . S
H602 C590 0.956 . S
H603 C590 0.961 . S
H604 C590 0.961 . S
H605 C591 0.958 . S
H606 C591 0.961 . S
H607 C591 0.960 . S
C608 C609 1.391 . S
C608 C610 1.394 . S
C608 H624 0.931 . S
C609 C608 1.391 . S
C609 C613 1.376 . S
C610 C608 1.394 . S
C610 C611 1.369 . S
C610 C614 1.531 . S
C611 C610 1.369 . S
C611 C612 1.410 . S
C611 C619 1.503 . S
C612 C611 1.410 . S
C612 C613 1.392 . S
C612 C615 1.511 . S
C613 C609 1.376 . S
C613 C612 1.392 . S
C613 H625 0.929 . S
C614 C610 1.531 . S
C614 H626 0.960 . S
C614 H627 0.962 . S
C614 H628 0.960 . S
C615 C612 1.511 . S
C615 H629 0.961 . S
C615 H630 0.961 . S
C615 H631 0.961 . S
C616 C617 1.370 . S
C616 C618 1.363 . S
C616 H632 0.931 . S
C617 C616 1.370 . S
C617 C621 1.408 . S
C618 C616 1.363 . S
C618 C619 1.370 . S
C618 C622 1.524 . S
C619 C611 1.503 . S
C619 C618 1.370 . S
C619 C620 1.403 . S
C620 C619 1.403 . S
C620 C621 1.404 . S
C620 C623 1.539 . S
C621 C617 1.408 . S
C621 C620 1.404 . S
C621 H633 0.930 . S
C622 C618 1.524 . S
C622 H634 0.956 . S
C622 H635 0.961 . S
C622 H636 0.961 . S
C623 C620 1.539 . S
C623 H637 0.958 . S
C623 H638 0.961 . S
C623 H639 0.960 . S
H624 C608 0.931 . S
H625 C613 0.929 . S
H626 C614 0.960 . S
H627 C614 0.962 . S
H628 C614 0.960 . S
H629 C615 0.961 . S
H630 C615 0.961 . S
H631 C615 0.961 . S
H632 C616 0.931 . S
H633 C621 0.930 . S
H634 C622 0.956 . S
H635 C622 0.961 . S
H636 C622 0.961 . S
H637 C623 0.958 . S
H638 C623 0.961 . S
H639 C623 0.960 . S
C640 C641 1.391 . S
C640 C642 1.394 . S
C640 H656 0.931 . S
C641 C640 1.391 . S
C641 C645 1.376 . S
C642 C640 1.394 . S
C642 C643 1.369 . S
C642 C646 1.531 . S
C643 C642 1.369 . S
C643 C644 1.410 . S
C643 C651 1.503 . S
C644 C643 1.410 . S
C644 C645 1.392 . S
C644 C647 1.511 . S
C645 C641 1.376 . S
C645 C644 1.392 . S
C645 H657 0.929 . S
C646 C642 1.531 . S
C646 H658 0.960 . S
C646 H659 0.962 . S
C646 H660 0.960 . S
C647 C644 1.511 . S
C647 H661 0.961 . S
C647 H662 0.961 . S
C647 H663 0.961 . S
C648 C649 1.370 . S
C648 C650 1.363 . S
C648 H664 0.931 . S
C649 C648 1.370 . S
C649 C653 1.408 . S
C650 C648 1.363 . S
C650 C651 1.370 . S
C650 C654 1.524 . S
C651 C643 1.503 . S
C651 C650 1.370 . S
C651 C652 1.403 . S
C652 C651 1.403 . S
C652 C653 1.404 . S
C652 C655 1.539 . S
C653 C649 1.408 . S
C653 C652 1.404 . S
C653 H665 0.930 . S
C654 C650 1.524 . S
C654 H666 0.956 . S
C654 H667 0.961 . S
C654 H668 0.961 . S
C655 C652 1.539 . S
C655 H669 0.958 . S
C655 H670 0.961 . S
C655 H671 0.960 . S
H656 C640 0.931 . S
H657 C645 0.929 . S
H658 C646 0.960 . S
H659 C646 0.962 . S
H660 C646 0.960 . S
H661 C647 0.961 . S
H662 C647 0.961 . S
H663 C647 0.961 . S
H664 C648 0.931 . S
H665 C653 0.930 . S
H666 C654 0.956 . S
H667 C654 0.961 . S
H668 C654 0.961 . S
H669 C655 0.958 . S
H670 C655 0.961 . S
H671 C655 0.960 . S
C672 C673 1.391 . S
C672 C674 1.394 . S
C672 H688 0.931 . S
C673 C672 1.391 . S
C673 C677 1.376 . S
C674 C672 1.394 . S
C674 C675 1.369 . S
C674 C678 1.531 . S
C675 C674 1.369 . S
C675 C676 1.410 . S
C675 C683 1.503 . S
C676 C675 1.410 . S
C676 C677 1.392 . S
C676 C679 1.511 . S
C677 C673 1.376 . S
C677 C676 1.392 . S
C677 H689 0.929 . S
C678 C674 1.531 . S
C678 H690 0.960 . S
C678 H691 0.962 . S
C678 H692 0.960 . S
C679 C676 1.511 . S
C679 H693 0.961 . S
C679 H694 0.961 . S
C679 H695 0.961 . S
C680 C681 1.370 . S
C680 C682 1.363 . S
C680 H696 0.931 . S
C681 C680 1.370 . S
C681 C685 1.408 . S
C682 C680 1.363 . S
C682 C683 1.370 . S
C682 C686 1.524 . S
C683 C675 1.503 . S
C683 C682 1.370 . S
C683 C684 1.403 . S
C684 C683 1.403 . S
C684 C685 1.404 . S
C684 C687 1.539 . S
C685 C681 1.408 . S
C685 C684 1.404 . S
C685 H697 0.930 . S
C686 C682 1.524 . S
C686 H698 0.956 . S
C686 H699 0.961 . S
C686 H700 0.961 . S
C687 C684 1.539 . S
C687 H701 0.958 . S
C687 H702 0.961 . S
C687 H703 0.960 . S
H688 C672 0.931 . S
H689 C677 0.929 . S
H690 C678 0.960 . S
H691 C678 0.962 . S
H692 C678 0.960 . S
H693 C679 0.961 . S
H694 C679 0.961 . S
H695 C679 0.961 . S
H696 C680 0.931 . S
H697 C685 0.930 . S
H698 C686 0.956 . S
H699 C686 0.961 . S
H700 C686 0.961 . S
H701 C687 0.958 . S
H702 C687 0.961 . S
H703 C687 0.960 . S
C704 C705 1.391 . S
C704 C706 1.394 . S
C704 H720 0.931 . S
C705 C704 1.391 . S
C705 C709 1.376 . S
C706 C704 1.394 . S
C706 C707 1.369 . S
C706 C710 1.531 . S
C707 C706 1.369 . S
C707 C708 1.410 . S
C707 C715 1.503 . S
C708 C707 1.410 . S
C708 C709 1.392 . S
C708 C711 1.511 . S
C709 C705 1.376 . S
C709 C708 1.392 . S
C709 H721 0.929 . S
C710 C706 1.531 . S
C710 H722 0.960 . S
C710 H723 0.962 . S
C710 H724 0.960 . S
C711 C708 1.511 . S
C711 H725 0.961 . S
C711 H726 0.961 . S
C711 H727 0.961 . S
C712 C713 1.370 . S
C712 C714 1.363 . S
C712 H728 0.931 . S
C713 C712 1.370 . S
C713 C717 1.408 . S
C714 C712 1.363 . S
C714 C715 1.370 . S
C714 C718 1.524 . S
C715 C707 1.503 . S
C715 C714 1.370 . S
C715 C716 1.403 . S
C716 C715 1.403 . S
C716 C717 1.404 . S
C716 C719 1.539 . S
C717 C713 1.408 . S
C717 C716 1.404 . S
C717 H729 0.930 . S
C718 C714 1.524 . S
C718 H730 0.956 . S
C718 H731 0.961 . S
C718 H732 0.961 . S
C719 C716 1.539 . S
C719 H733 0.958 . S
C719 H734 0.961 . S
C719 H735 0.960 . S
H720 C704 0.931 . S
H721 C709 0.929 . S
H722 C710 0.960 . S
H723 C710 0.962 . S
H724 C710 0.960 . S
H725 C711 0.961 . S
H726 C711 0.961 . S
H727 C711 0.961 . S
H728 C712 0.931 . S
H729 C717 0.930 . S
H730 C718 0.956 . S
H731 C718 0.961 . S
H732 C718 0.961 . S
H733 C719 0.958 . S
H734 C719 0.961 . S
H735 C719 0.960 . S
C736 C737 1.391 . S
C736 C738 1.394 . S
C736 H752 0.931 . S
C737 C736 1.391 . S
C737 C741 1.376 . S
C738 C736 1.394 . S
C738 C739 1.369 . S
C738 C742 1.531 . S
C739 C738 1.369 . S
C739 C740 1.410 . S
C739 C747 1.503 . S
C740 C739 1.410 . S
C740 C741 1.392 . S
C740 C743 1.511 . S
C741 C737 1.376 . S
C741 C740 1.392 . S
C741 H753 0.929 . S
C742 C738 1.531 . S
C742 H754 0.960 . S
C742 H755 0.962 . S
C742 H756 0.960 . S
C743 C740 1.511 . S
C743 H757 0.961 . S
C743 H758 0.961 . S
C743 H759 0.961 . S
C744 C745 1.370 . S
C744 C746 1.363 . S
C744 H760 0.931 . S
C745 C744 1.370 . S
C745 C749 1.408 . S
C746 C744 1.363 . S
C746 C747 1.370 . S
C746 C750 1.524 . S
C747 C739 1.503 . S
C747 C746 1.370 . S
C747 C748 1.403 . S
C748 C747 1.403 . S
C748 C749 1.404 . S
C748 C751 1.539 . S
C749 C745 1.408 . S
C749 C748 1.404 . S
C749 H761 0.930 . S
C750 C746 1.524 . S
C750 H762 0.956 . S
C750 H763 0.961 . S
C750 H764 0.961 . S
C751 C748 1.539 . S
C751 H765 0.958 . S
C751 H766 0.961 . S
C751 H767 0.960 . S
H752 C736 0.931 . S
H753 C741 0.929 . S
H754 C742 0.960 . S
H755 C742 0.962 . S
H756 C742 0.960 . S
H757 C743 0.961 . S
H758 C743 0.961 . S
H759 C743 0.961 . S
H760 C744 0.931 . S
H761 C749 0.930 . S
H762 C750 0.956 . S
H763 C750 0.961 . S
H764 C750 0.961 . S
H765 C751 0.958 . S
H766 C751 0.961 . S
H767 C751 0.960 . S
C768 C769 1.391 . S
C768 C770 1.394 . S
C768 H784 0.931 . S
C769 C768 1.391 . S
C769 C773 1.376 . S
C770 C768 1.394 . S
C770 C771 1.369 . S
C770 C774 1.531 . S
C771 C770 1.369 . S
C771 C772 1.410 . S
C771 C779 1.503 . S
C772 C771 1.410 . S
C772 C773 1.392 . S
C772 C775 1.511 . S
C773 C769 1.376 . S
C773 C772 1.392 . S
C773 H785 0.929 . S
C774 C770 1.531 . S
C774 H786 0.960 . S
C774 H787 0.962 . S
C774 H788 0.960 . S
C775 C772 1.511 . S
C775 H789 0.961 . S
C775 H790 0.961 . S
C775 H791 0.961 . S
C776 C777 1.370 . S
C776 C778 1.363 . S
C776 H792 0.931 . S
C777 C776 1.370 . S
C777 C781 1.408 . S
C778 C776 1.363 . S
C778 C779 1.370 . S
C778 C782 1.524 . S
C779 C771 1.503 . S
C779 C778 1.370 . S
C779 C780 1.403 . S
C780 C779 1.403 . S
C780 C781 1.404 . S
C780 C783 1.539 . S
C781 C777 1.408 . S
C781 C780 1.404 . S
C781 H793 0.930 . S
C782 C778 1.524 . S
C782 H794 0.956 . S
C782 H795 0.961 . S
C782 H796 0.961 . S
C783 C780 1.539 . S
C783 H797 0.958 . S
C783 H798 0.961 . S
C783 H799 0.960 . S
H784 C768 0.931 . S
H785 C773 0.929 . S
H786 C774 0.960 . S
H787 C774 0.962 . S
H788 C774 0.960 . S
H789 C775 0.961 . S
H790 C775 0.961 . S
H791 C775 0.961 . S
H792 C776 0.931 . S
H793 C781 0.930 . S
H794 C782 0.956 . S
H795 C782 0.961 . S
H796 C782 0.961 . S
H797 C783 0.958 . S
H798 C783 0.961 . S
H799 C783 0.960 . S
C800 C801 1.391 . S
C800 C802 1.394 . S
C800 H816 0.931 . S
C801 C800 1.391 . S
C801 C805 1.376 . S
C802 C800 1.394 . S
C802 C803 1.369 . S
C802 C806 1.531 . S
C803 C802 1.369 . S
C803 C804 1.410 . S
C803 C811 1.503 . S
C804 C803 1.410 . S
C804 C805 1.392 . S
C804 C807 1.511 . S
C805 C801 1.376 . S
C805 C804 1.392 . S
C805 H817 0.929 . S
C806 C802 1.531 . S
C806 H818 0.960 . S
C806 H819 0.962 . S
C806 H820 0.960 . S
C807 C804 1.511 . S
C807 H821 0.961 . S
C807 H822 0.961 . S
C807 H823 0.961 . S
C808 C809 1.370 . S
C808 C810 1.363 . S
C808 H824 0.931 . S
C809 C808 1.370 . S
C809 C813 1.408 . S
C810 C808 1.363 . S
C810 C811 1.370 . S
C810 C814 1.524 . S
C811 C803 1.503 . S
C811 C810 1.370 . S
C811 C812 1.403 . S
C812 C811 1.403 . S
C812 C813 1.404 . S
C812 C815 1.539 . S
C813 C809 1.408 . S
C813 C812 1.404 . S
C813 H825 0.930 . S
C814 C810 1.524 . S
C814 H826 0.956 . S
C814 H827 0.961 . S
C814 H828 0.961 . S
C815 C812 1.539 . S
C815 H829 0.958 . S
C815 H830 0.961 . S
C815 H831 0.960 . S
H816 C800 0.931 . S
H817 C805 0.929 . S
H818 C806 0.960 . S
H819 C806 0.962 . S
H820 C806 0.960 . S
H821 C807 0.961 . S
H822 C807 0.961 . S
H823 C807 0.961 . S
H824 C808 0.931 . S
H825 C813 0.930 . S
H826 C814 0.956 . S
H827 C814 0.961 . S
H828 C814 0.961 . S
H829 C815 0.958 . S
H830 C815 0.961 . S
H831 C815 0.960 . S
C832 C833 1.391 . S
C832 C834 1.394 . S
C832 H848 0.931 . S
C833 C832 1.391 . S
C833 C837 1.376 . S
C834 C832 1.394 . S
C834 C835 1.369 . S
C834 C838 1.531 . S
C835 C834 1.369 . S
C835 C836 1.410 . S
C835 C843 1.503 . S
C836 C835 1.410 . S
C836 C837 1.392 . S
C836 C839 1.511 . S
C837 C833 1.376 . S
C837 C836 1.392 . S
C837 H849 0.929 . S
C838 C834 1.531 . S
C838 H850 0.960 . S
C838 H851 0.962 . S
C838 H852 0.960 . S
C839 C836 1.511 . S
C839 H853 0.961 . S
C839 H854 0.961 . S
C839 H855 0.961 . S
C840 C841 1.370 . S
C840 C842 1.363 . S
C840 H856 0.931 . S
C841 C840 1.370 . S
C841 C845 1.408 . S
C842 C840 1.363 . S
C842 C843 1.370 . S
C842 C846 1.524 . S
C843 C835 1.503 . S
C843 C842 1.370 . S
C843 C844 1.403 . S
C844 C843 1.403 . S
C844 C845 1.404 . S
C844 C847 1.539 . S
C845 C841 1.408 . S
C845 C844 1.404 . S
C845 H857 0.930 . S
C846 C842 1.524 . S
C846 H858 0.956 . S
C846 H859 0.961 . S
C846 H860 0.961 . S
C847 C844 1.539 . S
C847 H861 0.958 . S
C847 H862 0.961 . S
C847 H863 0.960 . S
H848 C832 0.931 . S
H849 C837 0.929 . S
H850 C838 0.960 . S
H851 C838 0.962 . S
H852 C838 0.960 . S
H853 C839 0.961 . S
H854 C839 0.961 . S
H855 C839 0.961 . S
H856 C840 0.931 . S
H857 C845 0.930 . S
H858 C846 0.956 . S
H859 C846 0.961 . S
H860 C846 0.961 . S
H861 C847 0.958 . S
H862 C847 0.961 . S
H863 C847 0.960 . S
C864 C865 1.391 . S
C864 C866 1.394 . S
C864 H880 0.931 . S
C865 C864 1.391 . S
C865 C869 1.376 . S
C866 C864 1.394 . S
C866 C867 1.369 . S
C866 C870 1.531 . S
C867 C866 1.369 . S
C867 C868 1.410 . S
C867 C875 1.503 . S
C868 C867 1.410 . S
C868 C869 1.392 . S
C868 C871 1.511 . S
C869 C865 1.376 . S
C869 C868 1.392 . S
C869 H881 0.929 . S
C870 C866 1.531 . S
C870 H882 0.960 . S
C870 H883 0.962 . S
C870 H884 0.960 . S
C871 C868 1.511 . S
C871 H885 0.961 . S
C871 H886 0.961 . S
C871 H887 0.961 . S
C872 C873 1.370 . S
C872 C874 1.363 . S
C872 H888 0.931 . S
C873 C872 1.370 . S
C873 C877 1.408 . S
C874 C872 1.363 . S
C874 C875 1.370 . S
C874 C878 1.524 . S
C875 C867 1.503 . S
C875 C874 1.370 . S
C875 C876 1.403 . S
C876 C875 1.403 . S
C876 C877 1.404 . S
C876 C879 1.539 . S
C877 C873 1.408 . S
C877 C876 1.404 . S
C877 H889 0.930 . S
C878 C874 1.524 . S
C878 H890 0.956 . S
C878 H891 0.961 . S
C878 H892 0.961 . S
C879 C876 1.539 . S
C879 H893 0.958 . S
C879 H894 0.961 . S
C879 H895 0.960 . S
H880 C864 0.931 . S
H881 C869 0.929 . S
H882 C870 0.960 . S
H883 C870 0.962 . S
H884 C870 0.960 . S
H885 C871 0.961 . S
H886 C871 0.961 . S
H887 C871 0.961 . S
H888 C872 0.931 . S
H889 C877 0.930 . S
H890 C878 0.956 . S
H891 C878 0.961 . S
H892 C878 0.961 . S
H893 C879 0.958 . S
H894 C879 0.961 . S
H895 C879 0.960 . S
C896 C897 1.391 . S
C896 C898 1.394 . S
C896 H912 0.931 . S
C897 C896 1.391 . S
C897 C901 1.376 . S
C898 C896 1.394 . S
C898 C899 1.369 . S
C898 C902 1.531 . S
C899 C898 1.369 . S
C899 C900 1.410 . S
C899 C907 1.503 . S
C900 C899 1.410 . S
C900 C901 1.392 . S
C900 C903 1.511 . S
C901 C897 1.376 . S
C901 C900 1.392 . S
C901 H913 0.929 . S
C902 C898 1.531 . S
C902 H914 0.960 . S
C902 H915 0.962 . S
C902 H916 0.960 . S
C903 C900 1.511 . S
C903 H917 0.961 . S
C903 H918 0.961 . S
C903 H919 0.961 . S
C904 C905 1.370 . S
C904 C906 1.363 . S
C904 H920 0.931 . S
C905 C904 1.370 . S
C905 C909 1.408 . S
C906 C904 1.363 . S
C906 C907 1.370 . S
C906 C910 1.524 . S
C907 C899 1.503 . S
C907 C906 1.370 . S
C907 C908 1.403 . S
C908 C907 1.403 . S
C908 C909 1.404 . S
C908 C911 1.539 . S
C909 C905 1.408 . S
C909 C908 1.404 . S
C909 H921 0.930 . S
C910 C906 1.524 . S
C910 H922 0.956 . S
C910 H923 0.961 . S
C910 H924 0.961 . S
C911 C908 1.539 . S
C911 H925 0.958 . S
C911 H926 0.961 . S
C911 H927 0.960 . S
H912 C896 0.931 . S
H913 C901 0.929 . S
H914 C902 0.960 . S
H915 C902 0.962 . S
H916 C902 0.960 . S
H917 C903 0.961 . S
H918 C903 0.961 . S
H919 C903 0.961 . S
H920 C904 0.931 . S
H921 C909 0.930 . S
H922 C910 0.956 . S
H923 C910 0.961 . S
H924 C910 0.961 . S
H925 C911 0.958 . S
H926 C911 0.961 . S
H927 C911 0.960 . S
C928 C929 1.391 . S
C928 C930 1.394 . S
C928 H944 0.931 . S
C929 C928 1.391 . S
C929 C933 1.376 . S
C930 C928 1.394 . S
C930 C931 1.369 . S
C930 C934 1.531 . S
C931 C930 1.369 . S
C931 C932 1.410 . S
C931 C939 1.503 . S
C932 C931 1.410 . S
C932 C933 1.392 . S
C932 C935 1.511 . S
C933 C929 1.376 . S
C933 C932 1.392 . S
C933 H945 0.929 . S
C934 C930 1.531 . S
C934 H946 0.960 . S
C934 H947 0.962 . S
C934 H948 0.960 . S
C935 C932 1.511 . S
C935 H949 0.961 . S
C935 H950 0.961 . S
C935 H951 0.961 . S
C936 C937 1.370 . S
C936 C938 1.363 . S
C936 H952 0.931 . S
C937 C936 1.370 . S
C937 C941 1.408 . S
C938 C936 1.363 . S
C938 C939 1.370 . S
C938 C942 1.524 . S
C939 C931 1.503 . S
C939 C938 1.370 . S
C939 C940 1.403 . S
C940 C939 1.403 . S
C940 C941 1.404 . S
C940 C943 1.539 . S
C941 C937 1.408 . S
C941 C940 1.404 . S
C941 H953 0.930 . S
C942 C938 1.524 . S
C942 H954 0.956 . S
C942 H955 0.961 . S
C942 H956 0.961 . S
C943 C940 1.539 . S
C943 H957 0.958 . S
C943 H958 0.961 . S
C943 H959 0.960 . S
H944 C928 0.931 . S
H945 C933 0.929 . S
H946 C934 0.960 . S
H947 C934 0.962 . S
H948 C934 0.960 . S
H949 C935 0.961 . S
H950 C935 0.961 . S
H951 C935 0.961 . S
H952 C936 0.931 . S
H953 C941 0.930 . S
H954 C942 0.956 . S
H955 C942 0.961 . S
H956 C942 0.961 . S
H957 C943 0.958 . S
H958 C943 0.961 . S
H959 C943 0.960 . S
C960 C961 1.391 . S
C960 C962 1.394 . S
C960 H976 0.931 . S
C961 C960 1.391 . S
C961 C965 1.376 . S
C962 C960 1.394 . S
C962 C963 1.369 . S
C962 C966 1.531 . S
C963 C962 1.369 . S
C963 C964 1.410 . S
C963 C971 1.503 . S
C964 C963 1.410 . S
C964 C965 1.392 . S
C964 C967 1.511 . S
C965 C961 1.376 . S
C965 C964 1.392 . S
C965 H977 0.929 . S
C966 C962 1.531 . S
C966 H978 0.960 . S
C966 H979 0.962 . S
C966 H980 0.960 . S
C967 C964 1.511 . S
C967 H981 0.961 . S
C967 H982 0.961 . S
C967 H983 0.961 . S
C968 C969 1.370 . S
C968 C970 1.363 . S
C968 H984 0.931 . S
C969 C968 1.370 . S
C969 C973 1.408 . S
C970 C968 1.363 . S
C970 C971 1.370 . S
C970 C974 1.524 . S
C971 C963 1.503 . S
C971 C970 1.370 . S
C971 C972 1.403 . S
C972 C971 1.403 . S
C972 C973 1.404 . S
C972 C975 1.539 . S
C973 C969 1.408 . S
C973 C972 1.404 . S
C973 H985 0.930 . S
C974 C970 1.524 . S
C974 H986 0.956 . S
C974 H987 0.961 . S
C974 H988 0.961 . S
C975 C972 1.539 . S
C975 H989 0.958 . S
C975 H990 0.961 . S
C975 H991 0.960 . S
H976 C960 0.931 . S
H977 C965 0.929 . S
H978 C966 0.960 . S
H979 C966 0.962 . S
H980 C966 0.960 . S
H981 C967 0.961 . S
H982 C967 0.961 . S
H983 C967 0.961 . S
H984 C968 0.931 . S
H985 C973 0.930 . S
H986 C974 0.956 . S
H987 C974 0.961 . S
H988 C974 0.961 . S
H989 C975 0.958 . S
H990 C975 0.961 . S
H991 C975 0.960 . S
C992 C993 1.391 . S
C992 C994 1.394 1_545 S
C992 H1008 0.931 . S
C993 C992 1.391 . S
C993 C997 1.376 . S
C994 C992 1.394 1_565 S
C994 C995 1.369 . S
C994 C998 1.531 . S
C995 C994 1.369 . S
C995 C996 1.410 . S
C995 C1003 1.503 . S
C996 C995 1.410 . S
C996 C997 1.392 1_565 S
C996 C999 1.511 . S
C997 C993 1.376 . S
C997 C996 1.392 1_545 S
C997 H1009 0.929 . S
C998 C994 1.531 . S
C998 H1010 0.960 . S
C998 H1011 0.962 . S
C998 H1012 0.960 . S
C999 C996 1.511 . S
C999 H1013 0.961 1_565 S
C999 H1014 0.961 . S
C999 H1015 0.961 . S
C1000 C1001 1.370 . S
C1000 C1002 1.363 . S
C1000 H1016 0.931 . S
C1001 C1000 1.370 . S
C1001 C1005 1.408 . S
C1002 C1000 1.363 . S
C1002 C1003 1.370 . S
C1002 C1006 1.524 . S
C1003 C995 1.503 . S
C1003 C1002 1.370 . S
C1003 C1004 1.403 . S
C1004 C1003 1.403 . S
C1004 C1005 1.404 . S
C1004 C1007 1.539 . S
C1005 C1001 1.408 . S
C1005 C1004 1.404 . S
C1005 H1017 0.930 . S
C1006 C1002 1.524 . S
C1006 H1018 0.956 . S
C1006 H1019 0.960 . S
C1006 H1020 0.961 . S
C1007 C1004 1.539 . S
C1007 H1021 0.958 . S
C1007 H1022 0.961 . S
C1007 H1023 0.960 . S
H1008 C992 0.931 . S
H1009 C997 0.929 . S
H1010 C998 0.960 . S
H1011 C998 0.962 . S
H1012 C998 0.960 . S
H1013 C999 0.961 1_545 S
H1014 C999 0.961 . S
H1015 C999 0.961 . S
H1016 C1000 0.931 . S
H1017 C1005 0.930 . S
H1018 C1006 0.956 . S
H1019 C1006 0.960 . S
H1020 C1006 0.961 . S
H1021 C1007 0.958 . S
H1022 C1007 0.961 . S
H1023 C1007 0.960 . S
C1024 C1025 1.391 . S
C1024 C1026 1.394 . S
C1024 H1040 0.931 . S
C1025 C1024 1.391 . S
C1025 C1029 1.376 . S
C1026 C1024 1.394 . S
C1026 C1027 1.369 . S
C1026 C1030 1.531 . S
C1027 C1026 1.369 . S
C1027 C1028 1.410 . S
C1027 C1035 1.503 . S
C1028 C1027 1.410 . S
C1028 C1029 1.392 . S
C1028 C1031 1.511 . S
C1029 C1025 1.376 . S
C1029 C1028 1.392 . S
C1029 H1041 0.929 . S
C1030 C1026 1.531 . S
C1030 H1042 0.960 . S
C1030 H1043 0.962 . S
C1030 H1044 0.960 . S
C1031 C1028 1.511 . S
C1031 H1045 0.961 . S
C1031 H1046 0.961 . S
C1031 H1047 0.961 . S
C1032 C1033 1.370 . S
C1032 C1034 1.363 . S
C1032 H1048 0.931 . S
C1033 C1032 1.370 . S
C1033 C1037 1.408 . S
C1034 C1032 1.363 . S
C1034 C1035 1.370 . S
C1034 C1038 1.524 . S
C1035 C1027 1.503 . S
C1035 C1034 1.370 . S
C1035 C1036 1.403 . S
C1036 C1035 1.403 . S
C1036 C1037 1.404 . S
C1036 C1039 1.539 . S
C1037 C1033 1.408 . S
C1037 C1036 1.404 . S
C1037 H1049 0.930 . S
C1038 C1034 1.524 . S
C1038 H1050 0.956 . S
C1038 H1051 0.961 . S
C1038 H1052 0.961 . S
C1039 C1036 1.539 . S
C1039 H1053 0.958 . S
C1039 H1054 0.961 . S
C1039 H1055 0.960 . S
H1040 C1024 0.931 . S
H1041 C1029 0.929 . S
H1042 C1030 0.960 . S
H1043 C1030 0.962 . S
H1044 C1030 0.960 . S
H1045 C1031 0.961 . S
H1046 C1031 0.961 . S
H1047 C1031 0.961 . S
H1048 C1032 0.931 . S
H1049 C1037 0.930 . S
H1050 C1038 0.956 . S
H1051 C1038 0.961 . S
H1052 C1038 0.961 . S
H1053 C1039 0.958 . S
H1054 C1039 0.961 . S
H1055 C1039 0.960 . S
C1056 C1057 1.391 . S
C1056 C1058 1.394 . S
C1056 H1072 0.931 . S
C1057 C1056 1.391 . S
C1057 C1061 1.376 . S
C1058 C1056 1.394 . S
C1058 C1059 1.369 . S
C1058 C1062 1.531 . S
C1059 C1058 1.369 . S
C1059 C1060 1.410 . S
C1059 C1067 1.503 . S
C1060 C1059 1.410 . S
C1060 C1061 1.392 . S
C1060 C1063 1.511 . S
C1061 C1057 1.376 . S
C1061 C1060 1.392 . S
C1061 H1073 0.929 . S
C1062 C1058 1.531 . S
C1062 H1074 0.960 . S
C1062 H1075 0.962 . S
C1062 H1076 0.960 . S
C1063 C1060 1.511 . S
C1063 H1077 0.961 . S
C1063 H1078 0.961 1_455 S
C1063 H1079 0.961 . S
C1064 C1065 1.370 . S
C1064 C1066 1.363 1_655 S
C1064 H1080 0.931 . S
C1065 C1064 1.370 . S
C1065 C1069 1.408 . S
C1066 C1064 1.363 1_455 S
C1066 C1067 1.370 . S
C1066 C1070 1.524 . S
C1067 C1059 1.503 . S
C1067 C1066 1.370 . S
C1067 C1068 1.403 . S
C1068 C1067 1.403 . S
C1068 C1069 1.404 1_455 S
C1068 C1071 1.539 . S
C1069 C1065 1.408 . S
C1069 C1068 1.404 1_655 S
C1069 H1081 0.930 . S
C1070 C1066 1.524 . S
C1070 H1082 0.956 . S
C1070 H1083 0.961 . S
C1070 H1084 0.961 . S
C1071 C1068 1.539 . S
C1071 H1085 0.958 . S
C1071 H1086 0.961 . S
C1071 H1087 0.960 . S
H1072 C1056 0.931 . S
H1073 C1061 0.929 . S
H1074 C1062 0.960 . S
H1075 C1062 0.962 . S
H1076 C1062 0.960 . S
H1077 C1063 0.961 . S
H1078 C1063 0.961 1_655 S
H1079 C1063 0.961 . S
H1080 C1064 0.931 . S
H1081 C1069 0.930 . S
H1082 C1070 0.956 . S
H1083 C1070 0.961 . S
H1084 C1070 0.961 . S
H1085 C1071 0.958 . S
H1086 C1071 0.961 . S
H1087 C1071 0.960 . S
C1088 C1089 1.391 . S
C1088 C1090 1.394 1_655 S
C1088 H1104 0.931 1_655 S
C1089 C1088 1.391 . S
C1089 C1093 1.376 . S
C1090 C1088 1.394 1_455 S
C1090 C1091 1.369 . S
C1090 C1094 1.531 . S
C1091 C1090 1.369 . S
C1091 C1092 1.410 1_455 S
C1091 C1099 1.503 . S
C1092 C1091 1.410 1_655 S
C1092 C1093 1.392 . S
C1092 C1095 1.511 1_565 S
C1093 C1089 1.376 . S
C1093 C1092 1.392 . S
C1093 H1105 0.929 . S
C1094 C1090 1.531 . S
C1094 H1106 0.960 . S
C1094 H1107 0.962 . S
C1094 H1108 0.960 . S
C1095 C1092 1.511 1_545 S
C1095 H1109 0.961 . S
C1095 H1110 0.961 . S
C1095 H1111 0.961 . S
C1096 C1097 1.370 . S
C1096 C1098 1.363 . S
C1096 H1112 0.931 . S
C1097 C1096 1.370 . S
C1097 C1101 1.408 . S
C1098 C1096 1.363 . S
C1098 C1099 1.370 1_545 S
C1098 C1102 1.524 1_545 S
C1099 C1091 1.503 . S
C1099 C1098 1.370 1_565 S
C1099 C1100 1.403 . S
C1100 C1099 1.403 . S
C1100 C1101 1.404 1_565 S
C1100 C1103 1.539 . S
C1101 C1097 1.408 . S
C1101 C1100 1.404 1_545 S
C1101 H1113 0.930 . S
C1102 C1098 1.524 1_565 S
C1102 H1114 0.956 . S
C1102 H1115 0.942 1_455 S
C1102 H1116 0.961 1_565 S
C1103 C1100 1.539 . S
C1103 H1117 0.958 . S
C1103 H1118 0.961 . S
C1103 H1119 0.960 . S
H1104 C1088 0.931 1_455 S
H1105 C1093 0.929 . S
H1106 C1094 0.960 . S
H1107 C1094 0.962 . S
H1108 C1094 0.960 . S
H1109 C1095 0.961 . S
H1110 C1095 0.961 . S
H1111 C1095 0.961 . S
H1112 C1096 0.931 . S
H1113 C1101 0.930 . S
H1114 C1102 0.956 . S
H1115 C1102 0.942 1_655 S
H1116 C1102 0.961 1_545 S
H1117 C1103 0.958 . S
H1118 C1103 0.961 . S
H1119 C1103 0.960 . S
C1120 C1121 1.391 . S
C1120 C1122 1.394 . S
C1120 H1136 0.931 . S
C1121 C1120 1.391 . S
C1121 C1125 1.376 . S
C1122 C1120 1.394 . S
C1122 C1123 1.369 . S
C1122 C1126 1.531 . S
C1123 C1122 1.369 . S
C1123 C1124 1.410 . S
C1123 C1131 1.503 . S
C1124 C1123 1.410 . S
C1124 C1125 1.392 . S
C1124 C1127 1.511 . S
C1125 C1121 1.376 . S
C1125 C1124 1.392 . S
C1125 H1137 0.929 . S
C1126 C1122 1.531 . S
C1126 H1138 0.960 . S
C1126 H1139 0.962 . S
C1126 H1140 0.960 . S
C1127 C1124 1.511 . S
C1127 H1141 0.961 . S
C1127 H1142 0.961 . S
C1127 H1143 0.961 . S
C1128 C1129 1.370 . S
C1128 C1130 1.363 . S
C1128 H1144 0.931 . S
C1129 C1128 1.370 . S
C1129 C1133 1.408 . S
C1130 C1128 1.363 . S
C1130 C1131 1.370 . S
C1130 C1134 1.524 . S
C1131 C1123 1.503 . S
C1131 C1130 1.370 . S
C1131 C1132 1.403 . S
C1132 C1131 1.403 . S
C1132 C1133 1.404 . S
C1132 C1135 1.539 . S
C1133 C1129 1.408 . S
C1133 C1132 1.404 . S
C1133 H1145 0.930 . S
C1134 C1130 1.524 . S
C1134 H1146 0.956 . S
C1134 H1147 0.961 . S
C1134 H1148 0.961 . S
C1135 C1132 1.539 . S
C1135 H1149 0.958 . S
C1135 H1150 0.961 . S
C1135 H1151 0.960 . S
H1136 C1120 0.931 . S
H1137 C1125 0.929 . S
H1138 C1126 0.960 . S
H1139 C1126 0.962 . S
H1140 C1126 0.960 . S
H1141 C1127 0.961 . S
H1142 C1127 0.961 . S
H1143 C1127 0.961 . S
H1144 C1128 0.931 . S
H1145 C1133 0.930 . S
H1146 C1134 0.956 . S
H1147 C1134 0.961 . S
H1148 C1134 0.961 . S
H1149 C1135 0.958 . S
H1150 C1135 0.961 . S
H1151 C1135 0.960 . S
C1152 C1153 1.391 . S
C1152 C1154 1.394 . S
C1152 H1168 0.931 . S
C1153 C1152 1.391 . S
C1153 C1157 1.376 . S
C1154 C1152 1.394 . S
C1154 C1155 1.369 1_455 S
C1154 C1158 1.531 . S
C1155 C1154 1.369 1_655 S
C1155 C1156 1.410 . S
C1155 C1163 1.503 . S
C1156 C1155 1.410 . S
C1156 C1157 1.392 1_655 S
C1156 C1159 1.511 . S
C1157 C1153 1.376 . S
C1157 C1156 1.392 1_455 S
C1157 H1169 0.929 . S
C1158 C1154 1.531 . S
C1158 H1170 0.960 1_455 S
C1158 H1171 0.962 . S
C1158 H1172 0.960 . S
C1159 C1156 1.511 . S
C1159 H1173 0.961 . S
C1159 H1174 0.961 . S
C1159 H1175 0.961 . S
C1160 C1161 1.370 . S
C1160 C1162 1.363 . S
C1160 H1176 0.931 . S
C1161 C1160 1.370 . S
C1161 C1165 1.408 . S
C1162 C1160 1.363 . S
C1162 C1163 1.370 . S
C1162 C1166 1.524 . S
C1163 C1155 1.503 . S
C1163 C1162 1.370 . S
C1163 C1164 1.403 . S
C1164 C1163 1.403 . S
C1164 C1165 1.404 . S
C1164 C1167 1.539 . S
C1165 C1161 1.408 . S
C1165 C1164 1.404 . S
C1165 H1177 0.930 . S
C1166 C1162 1.524 . S
C1166 H1178 0.956 . S
C1166 H1179 0.961 . S
C1166 H1180 0.961 . S
C1167 C1164 1.539 . S
C1167 H1181 0.958 . S
C1167 H1182 0.961 . S
C1167 H1183 0.960 . S
H1168 C1152 0.931 . S
H1169 C1157 0.929 . S
H1170 C1158 0.960 1_655 S
H1171 C1158 0.962 . S
H1172 C1158 0.960 . S
H1173 C1159 0.961 . S
H1174 C1159 0.961 . S
H1175 C1159 0.961 . S
H1176 C1160 0.931 . S
H1177 C1165 0.930 . S
H1178 C1166 0.956 . S
H1179 C1166 0.961 . S
H1180 C1166 0.961 . S
H1181 C1167 0.958 . S
H1182 C1167 0.961 . S
H1183 C1167 0.960 . S
C1184 C1185 1.391 . S
C1184 C1186 1.394 1_565 S
C1184 H1200 0.931 1_565 S
C1185 C1184 1.391 . S
C1185 C1189 1.376 . S
C1186 C1184 1.394 1_545 S
C1186 C1187 1.369 . S
C1186 C1190 1.531 . S
C1187 C1186 1.369 . S
C1187 C1188 1.410 1_545 S
C1187 C1195 1.503 . S
C1188 C1187 1.410 1_565 S
C1188 C1189 1.392 . S
C1188 C1191 1.515 . S
C1189 C1185 1.376 . S
C1189 C1188 1.392 . S
C1189 H1201 0.929 . S
C1190 C1186 1.531 . S
C1190 H1202 0.960 . S
C1190 H1203 0.962 . S
C1190 H1204 0.960 . S
C1191 C1188 1.515 . S
C1191 H1205 0.960 1_655 S
C1191 H1206 0.958 1_655 S
C1191 H1207 0.961 . S
C1192 C1193 1.370 . S
C1192 C1194 1.363 . S
C1192 H1208 0.931 . S
C1193 C1192 1.370 . S
C1193 C1197 1.408 . S
C1194 C1192 1.363 . S
C1194 C1195 1.370 1_455 S
C1194 C1198 1.524 . S
C1195 C1187 1.503 . S
C1195 C1194 1.370 1_655 S
C1195 C1196 1.403 . S
C1196 C1195 1.403 . S
C1196 C1197 1.404 1_655 S
C1196 C1199 1.539 . S
C1197 C1193 1.408 . S
C1197 C1196 1.404 1_455 S
C1197 H1209 0.930 . S
C1198 C1194 1.524 . S
C1198 H1210 0.956 1_455 S
C1198 H1211 0.961 1_545 S
C1198 H1212 0.961 . S
C1199 C1196 1.539 . S
C1199 H1213 0.958 . S
C1199 H1214 0.961 . S
C1199 H1215 0.960 . S
H1200 C1184 0.931 1_545 S
H1201 C1189 0.929 . S
H1202 C1190 0.960 . S
H1203 C1190 0.962 . S
H1204 C1190 0.960 . S
H1205 C1191 0.960 1_455 S
H1206 C1191 0.958 1_455 S
H1207 C1191 0.961 . S
H1208 C1192 0.931 . S
H1209 C1197 0.930 . S
H1210 C1198 0.956 1_655 S
H1211 C1198 0.961 1_565 S
H1212 C1198 0.961 . S
H1213 C1199 0.958 . S
H1214 C1199 0.961 . S
H1215 C1199 0.960 . S
C1216 C1217 1.391 . S
C1216 C1218 1.394 1_565 S
C1216 H1232 0.931 . S
C1217 C1216 1.391 . S
C1217 C1221 1.376 . S
C1218 C1216 1.394 1_545 S
C1218 C1219 1.369 . S
C1218 C1222 1.531 . S
C1219 C1218 1.369 . S
C1219 C1220 1.410 . S
C1219 C1227 1.503 . S
C1220 C1219 1.410 . S
C1220 C1221 1.392 1_545 S
C1220 C1223 1.511 . S
C1221 C1217 1.376 . S
C1221 C1220 1.392 1_565 S
C1221 H1233 0.929 . S
C1222 C1218 1.531 . S
C1222 H1234 0.960 . S
C1222 H1235 0.962 . S
C1222 H1236 0.960 . S
C1223 C1220 1.511 . S
C1223 H1237 0.961 . S
C1223 H1238 0.961 . S
C1223 H1239 0.961 . S
C1224 C1225 1.370 . S
C1224 C1226 1.363 . S
C1224 H1240 0.931 . S
C1225 C1224 1.370 . S
C1225 C1229 1.408 . S
C1226 C1224 1.363 . S
C1226 C1227 1.370 . S
C1226 C1230 1.524 . S
C1227 C1219 1.503 . S
C1227 C1226 1.370 . S
C1227 C1228 1.403 . S
C1228 C1227 1.403 . S
C1228 C1229 1.404 . S
C1228 C1231 1.539 . S
C1229 C1225 1.408 . S
C1229 C1228 1.404 . S
C1229 H1241 0.930 . S
C1230 C1226 1.524 . S
C1230 H1242 0.946 1_545 S
C1230 H1243 0.961 . S
C1230 H1244 0.961 . S
C1231 C1228 1.539 . S
C1231 H1245 0.958 . S
C1231 H1246 0.961 . S
C1231 H1247 0.960 . S
H1232 C1216 0.931 . S
H1233 C1221 0.929 . S
H1234 C1222 0.960 . S
H1235 C1222 0.962 . S
H1236 C1222 0.960 . S
H1237 C1223 0.961 . S
H1238 C1223 0.961 . S
H1239 C1223 0.961 . S
H1240 C1224 0.931 . S
H1241 C1229 0.930 . S
H1242 C1230 0.946 1_565 S
H1243 C1230 0.961 . S
H1244 C1230 0.961 . S
H1245 C1231 0.958 . S
H1246 C1231 0.961 . S
H1247 C1231 0.960 . S
C225 C106 1.446 . S
C233 C8 1.465 . S
C257 C64 2.095 . S
C265 C22 2.065 . S
C289 C78 1.480 . S
C297 C36 1.458 . S
C321 C50 1.074 . S
C329 C92 1.096 . S
C353 C218 1.387 . S
C361 C120 1.506 . S
C385 C176 2.030 . S
C393 C134 2.084 . S
C417 C148 1.457 . S
C425 C190 1.487 . S
C449 C162 1.129 . S
C457 C204 1.086 . S
C481 C37 1.168 . S
C489 C9 1.147 . S
C513 C23 1.142 . S
C521 C51 1.215 . S
C545 C65 1.208 . S
C553 C93 1.186 . S
C577 C107 1.208 . S
C585 C79 1.134 . S
C609 C121 1.149 . S
C617 C149 1.172 . S
C641 C135 1.211 . S
C649 C163 1.192 . S
C673 C205 1.222 . S
C681 C177 1.183 . S
C705 C191 1.123 . S
C713 C219 1.181 . S
C737 C91 1.492 . S
C745 C7 1.463 . S
C769 C21 2.155 . S
C777 C105 2.228 . S
C801 C35 2.227 . S
C809 C63 2.192 . S
C833 C49 1.500 . S
C841 C77 1.472 . S
C865 C119 1.483 . S
C873 C203 1.498 . S
C897 C133 2.194 . S
C905 C217 2.221 . S
C929 C147 2.228 . S
C937 C175 2.190 . S
C961 C161 1.499 . S
C969 C189 1.478 . S
C993 C6 1.448 . S
C1001 C216 1.438 . S
C1025 C174 1.441 . S
C1033 C20 1.451 . S
C1057 C34 1.423 . S
C1065 C188 1.443 . S
C1089 C202 1.361 . S
C1097 C48 1.372 . S
C1121 C132 1.455 . S
C1129 C62 1.457 . S
C1153 C76 1.455 . S
C1161 C146 1.443 . S
C1185 C160 1.360 . S
C1193 C90 1.372 . S
C1217 C118 1.452 . S
C1225 C104 1.442 . S
