# Generated by pormake.
# Topology gan, (5)-cn, num edge types: 1
# Building blocks:
#     Node 0, Type 0, BuildingBlock: XOMCOT_clean_sbu_0, # of connection points: 5
#     Node 1, Type 0, BuildingBlock: XOMCOT_clean_sbu_0, # of connection points: 5
#     Node 2, Type 0, BuildingBlock: XOMCOT_clean_sbu_0, # of connection points: 5
#     Node 3, Type 0, BuildingBlock: XOMCOT_clean_sbu_0, # of connection points: 5
#     Node 4, Type 0, BuildingBlock: XOMCOT_clean_sbu_0, # of connection points: 5
#     Node 5, Type 0, BuildingBlock: XOMCOT_clean_sbu_0, # of connection points: 5
#     Node 6, Type 0, BuildingBlock: XOMCOT_clean_sbu_0, # of connection points: 5
#     Node 7, Type 0, BuildingBlock: XOMCOT_clean_sbu_0, # of connection points: 5
#     Node 8, Type 0, BuildingBlock: XOMCOT_clean_sbu_0, # of connection points: 5
#     Node 9, Type 0, BuildingBlock: XOMCOT_clean_sbu_0, # of connection points: 5
#     Node 10, Type 0, BuildingBlock: XOMCOT_clean_sbu_0, # of connection points: 5
#     Node 11, Type 0, BuildingBlock: XOMCOT_clean_sbu_0, # of connection points: 5
#     Node 12, Type 0, BuildingBlock: XOMCOT_clean_sbu_0, # of connection points: 5
#     Node 13, Type 0, BuildingBlock: XOMCOT_clean_sbu_0, # of connection points: 5
#     Node 14, Type 0, BuildingBlock: XOMCOT_clean_sbu_0, # of connection points: 5
#     Node 15, Type 0, BuildingBlock: XOMCOT_clean_sbu_0, # of connection points: 5
#     Edge 16, Type (0, 0), BuildingBlock: EZIPEK_clean_linker_0, # of connection points: 2
#     Edge 17, Type (0, 0), BuildingBlock: EZIPEK_clean_linker_0, # of connection points: 2
#     Edge 18, Type (0, 0), BuildingBlock: EZIPEK_clean_linker_0, # of connection points: 2
#     Edge 19, Type (0, 0), BuildingBlock: EZIPEK_clean_linker_0, # of connection points: 2
#     Edge 20, Type (0, 0), BuildingBlock: EZIPEK_clean_linker_0, # of connection points: 2
#     Edge 21, Type (0, 0), BuildingBlock: EZIPEK_clean_linker_0, # of connection points: 2
#     Edge 22, Type (0, 0), BuildingBlock: EZIPEK_clean_linker_0, # of connection points: 2
#     Edge 23, Type (0, 0), BuildingBlock: EZIPEK_clean_linker_0, # of connection points: 2
#     Edge 24, Type (0, 0), BuildingBlock: EZIPEK_clean_linker_0, # of connection points: 2
#     Edge 25, Type (0, 0), BuildingBlock: EZIPEK_clean_linker_0, # of connection points: 2
#     Edge 26, Type (0, 0), BuildingBlock: EZIPEK_clean_linker_0, # of connection points: 2
#     Edge 27, Type (0, 0), BuildingBlock: EZIPEK_clean_linker_0, # of connection points: 2
#     Edge 28, Type (0, 0), BuildingBlock: EZIPEK_clean_linker_0, # of connection points: 2
#     Edge 29, Type (0, 0), BuildingBlock: EZIPEK_clean_linker_0, # of connection points: 2
#     Edge 30, Type (0, 0), BuildingBlock: EZIPEK_clean_linker_0, # of connection points: 2
#     Edge 31, Type (0, 0), BuildingBlock: EZIPEK_clean_linker_0, # of connection points: 2
#     Edge 32, Type (0, 0), BuildingBlock: EZIPEK_clean_linker_0, # of connection points: 2
#     Edge 33, Type (0, 0), BuildingBlock: EZIPEK_clean_linker_0, # of connection points: 2
#     Edge 34, Type (0, 0), BuildingBlock: EZIPEK_clean_linker_0, # of connection points: 2
#     Edge 35, Type (0, 0), BuildingBlock: EZIPEK_clean_linker_0, # of connection points: 2
#     Edge 36, Type (0, 0), BuildingBlock: EZIPEK_clean_linker_0, # of connection points: 2
#     Edge 37, Type (0, 0), BuildingBlock: EZIPEK_clean_linker_0, # of connection points: 2
#     Edge 38, Type (0, 0), BuildingBlock: EZIPEK_clean_linker_0, # of connection points: 2
#     Edge 39, Type (0, 0), BuildingBlock: EZIPEK_clean_linker_0, # of connection points: 2
#     Edge 40, Type (0, 0), BuildingBlock: EZIPEK_clean_linker_0, # of connection points: 2
#     Edge 41, Type (0, 0), BuildingBlock: EZIPEK_clean_linker_0, # of connection points: 2
#     Edge 42, Type (0, 0), BuildingBlock: EZIPEK_clean_linker_0, # of connection points: 2
#     Edge 43, Type (0, 0), BuildingBlock: EZIPEK_clean_linker_0, # of connection points: 2
#     Edge 44, Type (0, 0), BuildingBlock: EZIPEK_clean_linker_0, # of connection points: 2
#     Edge 45, Type (0, 0), BuildingBlock: EZIPEK_clean_linker_0, # of connection points: 2
#     Edge 46, Type (0, 0), BuildingBlock: EZIPEK_clean_linker_0, # of connection points: 2
#     Edge 47, Type (0, 0), BuildingBlock: EZIPEK_clean_linker_0, # of connection points: 2
#     Edge 48, Type (0, 0), BuildingBlock: EZIPEK_clean_linker_0, # of connection points: 2
#     Edge 49, Type (0, 0), BuildingBlock: EZIPEK_clean_linker_0, # of connection points: 2
#     Edge 50, Type (0, 0), BuildingBlock: EZIPEK_clean_linker_0, # of connection points: 2
#     Edge 51, Type (0, 0), BuildingBlock: EZIPEK_clean_linker_0, # of connection points: 2
#     Edge 52, Type (0, 0), BuildingBlock: EZIPEK_clean_linker_0, # of connection points: 2
#     Edge 53, Type (0, 0), BuildingBlock: EZIPEK_clean_linker_0, # of connection points: 2
#     Edge 54, Type (0, 0), BuildingBlock: EZIPEK_clean_linker_0, # of connection points: 2
#     Edge 55, Type (0, 0), BuildingBlock: EZIPEK_clean_linker_0, # of connection points: 2
# Relax obj value: 0.085
# Max RMSD: 0.113
# Mean RMSD: 0.099
data_MOF--net-gan--node1-XOMCOT_clean_sbu_0--edge1-EZIPEK_clean_linker_0
_symmetry_space_group_name_H-M    P1
_symmetry_Int_Tables_number       1
_symmetry_cell_setting            triclinic
loop_
_symmetry_equiv_pos_as_xyz
'x, y, z'
_cell_length_a     32.472487
_cell_length_b     33.0716
_cell_length_c     32.060724
_cell_angle_alpha  91.209899
_cell_angle_beta   91.278177
_cell_angle_gamma 91.167853
loop_
_atom_site_label
_atom_site_type_symbol
_atom_site_fract_x
_atom_site_fract_y
_atom_site_fract_z
_atom_type_partial_charge
Co0 Co 0.11675 0.16328 0.11626 0.0
C1 C 0.158 0.22418 0.1757 0.0
C2 C 0.17543 0.23349 0.11247 0.0
C3 C 0.19845 0.25962 0.13836 0.0
N4 N 0.15093 0.21011 0.1359 0.0
N5 N 0.18777 0.2536 0.17823 0.0
H6 H 0.14311 0.21218 0.20275 0.0
H7 H 0.17879 0.22973 0.07917 0.0
C8 C 0.20426 0.13559 0.10363 0.0
O9 O 0.22095 0.16537 0.12622 0.0
N10 N 0.08323 0.11581 0.09751 0.0
C11 C 0.08412 0.07945 0.1161 0.0
C12 C 0.05872 0.0523 0.09455 0.0
C13 C 0.05818 0.1093 0.06335 0.0
N14 N 0.04238 0.071 0.06153 0.0
C15 C 0.07746 0.14587 0.19167 0.0
C16 C 0.14334 0.10882 0.22976 0.0
C17 C 0.10468 0.10751 0.24786 0.0
C18 C 0.07192 0.12797 0.22995 0.0
C19 C 0.14781 0.12785 0.19203 0.0
N20 N 0.11461 0.14433 0.17254 0.0
H21 H 0.05109 0.15878 0.17633 0.0
H22 H 0.17752 0.12792 0.17823 0.0
H23 H 0.10237 0.07246 0.14345 0.0
H24 H 0.05154 0.1317 0.04021 0.0
O25 O 0.0696 0.1972 0.11754 0.0
O26 O 0.10862 0.18753 0.06248 0.0
O27 O 0.1654 0.12964 0.10154 0.0
C28 C 0.07712 0.20499 0.07892 0.0
H29 H 0.2225 0.28035 0.12878 0.0
H30 H 0.05241 0.02118 0.10259 0.0
H31 H 0.16934 0.09371 0.24381 0.0
H32 H 0.04181 0.12747 0.24385 0.0
Co33 Co 0.15326 0.94868 0.41824 0.0
C34 C 0.08973 0.99385 0.47222 0.0
C35 C 0.15174 1.0134 0.48565 0.0
C36 C 0.1256 0.03753 0.5083 0.0
N37 N 0.12995 0.98478 0.46331 0.0
N38 N 0.08632 0.02562 0.50008 0.0
H39 H 0.0632 0.9794 0.45703 0.0
H40 H 0.1846 1.01822 0.48402 0.0
C41 C 0.21225 0.93993 0.48939 0.0
O42 O 0.17996 0.93724 0.51323 0.0
N43 N 0.1738 0.91313 0.37156 0.0
C44 C 0.14702 0.88952 0.34875 0.0
C45 C 0.16748 0.86606 0.32037 0.0
C46 C 0.21149 0.90285 0.35585 0.0
N47 N 0.2082 0.87385 0.32423 0.0
C48 C 0.09023 0.89299 0.44238 0.0
C49 C 0.1432 0.8287 0.44921 0.0
C50 C 0.10094 0.82128 0.44562 0.0
C51 C 0.07408 0.85372 0.44403 0.0
C52 C 0.15804 0.86826 0.4471 0.0
N53 N 0.13177 0.89982 0.44263 0.0
H54 H 0.06939 0.91697 0.43579 0.0
H55 H 0.19079 0.8726 0.44381 0.0
H56 H 0.11408 0.88877 0.35295 0.0
H57 H 0.24049 0.91603 0.36721 0.0
O58 O 0.10667 0.96226 0.38368 0.0
O59 O 0.16677 0.99607 0.38788 0.0
O60 O 0.20748 0.94409 0.45001 0.0
C61 C 0.12956 0.99258 0.37211 0.0
H62 H 0.1348 0.06312 0.52823 0.0
H63 H 0.15329 0.84462 0.29816 0.0
H64 H 0.16459 0.80397 0.44939 0.0
H65 H 0.04114 0.84849 0.44031 0.0
Co66 Co 0.44739 0.89546 0.6067 0.0
C67 C 0.38668 0.84807 0.66481 0.0
C68 C 0.40024 0.81661 0.60815 0.0
C69 C 0.37574 0.79181 0.63159 0.0
N70 N 0.40822 0.85241 0.62847 0.0
N71 N 0.36711 0.81114 0.66748 0.0
H72 H 0.38458 0.87118 0.68887 0.0
H73 H 0.41134 0.80832 0.57772 0.0
C74 C 0.36376 0.9224 0.58332 0.0
O75 O 0.35413 0.91683 0.62231 0.0
N76 N 0.48701 0.93656 0.58481 0.0
C77 C 0.51814 0.95315 0.60839 0.0
C78 C 0.54242 0.97785 0.58446 0.0
C79 C 0.49345 0.95183 0.54585 0.0
N80 N 0.52737 0.97741 0.54493 0.0
C81 C 0.45002 0.91565 0.69228 0.0
C82 C 0.42139 0.99355 0.68814 0.0
C83 C 0.43152 0.97724 0.72704 0.0
C84 C 0.44629 0.93813 0.72877 0.0
C85 C 0.42522 0.96948 0.65185 0.0
N86 N 0.43801 0.93049 0.65462 0.0
H87 H 0.46145 0.88539 0.69463 0.0
H88 H 0.41833 0.98209 0.62174 0.0
H89 H 0.52331 0.94727 0.64113 0.0
H90 H 0.47404 0.9443 0.51882 0.0
O91 O 0.49305 0.86755 0.63066 0.0
O92 O 0.46691 0.85585 0.56696 0.0
O93 O 0.40081 0.91783 0.5717 0.0
C94 C 0.49205 0.84536 0.59698 0.0
H95 H 0.36497 0.76155 0.62281 0.0
H96 H 0.56936 0.99512 0.59542 0.0
H97 H 0.41068 0.02425 0.68599 0.0
H98 H 0.4549 0.92499 0.75833 0.0
Co99 Co 0.37492 0.09007 0.95554 0.0
C100 C 0.32157 0.15098 0.90525 0.0
C101 C 0.30857 0.08862 0.89059 0.0
C102 C 0.2842 0.11191 0.86507 0.0
N103 N 0.33241 0.11254 0.91631 0.0
N104 N 0.29215 0.1513 0.87396 0.0
H105 H 0.33472 0.17843 0.91901 0.0
H106 H 0.3092 0.05594 0.88993 0.0
C107 C 0.42299 0.03463 0.89671 0.0
O108 O 0.44831 0.02146 0.92551 0.0
N109 N 0.41733 0.068 0.99535 0.0
C110 C 0.44243 0.09211 1.01978 0.0
C111 C 0.46685 0.06921 0.04534 0.0
C112 C 0.42641 0.02977 1.00858 0.0
N113 N 0.45736 0.02986 0.03857 0.0
C114 C 0.40086 0.17229 0.96473 0.0
C115 C 0.47567 0.1643 0.92625 0.0
C116 C 0.46549 0.20122 0.94465 0.0
C117 C 0.42763 0.20546 0.96369 0.0
C118 C 0.44777 0.13199 0.92762 0.0
N119 N 0.41081 0.1362 0.9465 0.0
H120 H 0.37236 0.17551 0.98099 0.0
H121 H 0.45712 0.10337 0.9155 0.0
H122 H 0.44291 0.12474 1.01987 0.0
H123 H 0.4111 1.00253 0.99635 0.0
O124 O 0.34671 0.11092 1.00263 0.0
O125 O 0.33485 0.05015 0.97319 0.0
O126 O 0.39567 0.0605 0.90504 0.0
C127 C 0.32568 0.07717 1.00146 0.0
H128 H 0.26239 0.10067 0.84133 0.0
H129 H 0.49012 0.08072 0.06747 0.0
H130 H 0.50523 0.16034 0.91184 0.0
H131 H 0.41934 0.23384 0.97842 0.0
Co132 Co 0.64829 0.45383 0.90829 0.0
C133 C 0.5915 0.51452 0.95251 0.0
C134 C 0.63501 0.48774 0.99402 0.0
C135 C 0.60856 0.51097 1.01719 0.0
N136 N 0.62515 0.48982 0.95299 0.0
N137 N 0.58084 0.5281 0.99149 0.0
H138 H 0.57407 0.52131 0.92446 0.0
H139 H 0.65852 0.46878 1.00703 0.0
C140 C 0.72828 0.46534 0.95226 0.0
O141 O 0.73118 0.50026 0.93376 0.0
N142 N 0.66877 0.41612 0.86342 0.0
C143 C 0.64269 0.38967 0.84317 0.0
C144 C 0.6637 0.36572 0.81557 0.0
C145 C 0.7063 0.40769 0.84626 0.0
N146 N 0.70391 0.37643 0.81704 0.0
C147 C 0.57626 0.41163 0.93159 0.0
C148 C 0.61487 0.33982 0.94924 0.0
C149 C 0.57194 0.34117 0.94743 0.0
C150 C 0.55242 0.37765 0.94011 0.0
C151 C 0.63761 0.37465 0.9409 0.0
N152 N 0.61805 0.40939 0.93086 0.0
H153 H 0.56115 0.4391 0.92299 0.0
H154 H 0.6707 0.37277 0.93924 0.0
H155 H 0.60991 0.38777 0.8482 0.0
H156 H 0.73454 0.42415 0.8545 0.0
O157 O 0.60749 0.47294 0.8692 0.0
O158 O 0.67041 0.49951 0.88003 0.0
O159 O 0.69697 0.44202 0.94547 0.0
C160 C 0.63518 0.50019 0.86026 0.0
H161 H 0.60888 0.51401 0.05089 0.0
H162 H 0.65019 0.34213 0.79536 0.0
H163 H 0.63044 0.31163 0.95437 0.0
H164 H 0.51912 0.3791 0.93826 0.0
Co165 Co 0.93909 0.38299 0.08497 0.0
C166 C 0.88927 0.32698 0.14349 0.0
C167 C 0.86937 0.32212 0.07958 0.0
C168 C 0.84541 0.29615 0.10261 0.0
N169 N 0.89708 0.34231 0.10475 0.0
N170 N 0.85765 0.29896 0.14299 0.0
H171 H 0.90617 0.33535 0.17172 0.0
H172 H 0.86659 0.32575 0.0463 0.0
C173 C 0.85683 0.41834 0.06842 0.0
O174 O 0.84369 0.40384 0.10365 0.0
N175 N 0.98185 0.42232 0.06648 0.0
C176 C 1.01631 0.43123 0.08942 0.0
C177 C 0.04127 0.45757 0.0683 0.0
C178 C 0.98687 0.4439 0.0308 0.0
N179 N 0.02327 0.46582 0.03131 0.0
C180 C 0.9585 0.39374 0.17126 0.0
C181 C 0.91934 0.46632 0.18292 0.0
C182 C 0.93617 0.4465 0.21721 0.0
C183 C 0.95706 0.4106 0.21114 0.0
C184 C 0.92171 0.44839 0.1433 0.0
N185 N 0.93879 0.41124 0.13841 0.0
H186 H 0.97384 0.36536 0.16734 0.0
H187 H 0.9095 0.46432 0.11695 0.0
H188 H 0.02342 0.41873 0.11955 0.0
H189 H 0.96482 0.44326 1.00497 0.0
O190 O 0.9816 0.34528 0.09658 0.0
O191 O 0.94776 0.34983 0.03579 0.0
O192 O 0.89485 0.417 0.05949 0.0
C193 C 0.97569 0.33244 0.05832 0.0
H194 H 0.821 0.27617 0.09041 0.0
H195 H 0.07095 0.4696 0.0792 0.0
H196 H 0.90381 0.49477 0.18693 0.0
H197 H 0.97077 0.39502 0.23724 0.0
Co198 Co 0.89833 0.58668 0.4287 0.0
C199 C 0.84481 0.64856 0.38039 0.0
C200 C 0.8326 0.58679 0.3626 0.0
C201 C 0.8065 0.61087 0.33979 0.0
N202 N 0.85712 0.60983 0.38847 0.0
N203 N 0.8138 0.64991 0.35082 0.0
H204 H 0.85672 0.67534 0.39656 0.0
H205 H 0.83284 0.55423 0.36096 0.0
C206 C 0.9064 0.51147 0.38055 0.0
O207 O 0.88749 0.49306 0.41071 0.0
N208 N 0.9397 0.56438 0.4691 0.0
C209 C 0.9668 0.5883 0.49133 0.0
C210 C 0.99031 0.5655 0.51777 0.0
C211 C 0.94705 0.52647 0.48404 0.0
N212 N 0.97815 0.52649 0.51369 0.0
C213 C 0.93417 0.66515 0.42806 0.0
C214 C 1.0083 0.64259 0.39449 0.0
C215 C 1.00402 0.68145 0.41145 0.0
C216 C 0.96629 0.69321 0.42703 0.0
C217 C 0.975 0.6154 0.39557 0.0
N218 N 0.9389 0.62662 0.41325 0.0
H219 H 0.90671 0.67361 0.44402 0.0
H220 H 0.97968 0.58462 0.38538 0.0
H221 H 0.96875 0.62083 0.48979 0.0
H222 H 0.92921 0.49969 0.4751 0.0
O223 O 0.87416 0.61531 0.47438 0.0
O224 O 0.8555 0.55358 0.45127 0.0
O225 O 0.91552 0.54906 0.38342 0.0
C226 C 0.85022 0.58358 0.47714 0.0
H227 H 0.78301 0.60034 0.31741 0.0
H228 H 1.01355 0.57705 0.53992 0.0
H229 H 0.03754 0.63289 0.3826 0.0
H230 H 0.96254 0.72315 0.44067 0.0
Co231 Co 0.85203 0.90129 0.89262 0.0
C232 C 0.91318 0.95306 0.94357 0.0
C233 C 0.8613 0.9856 0.92014 0.0
C234 C 0.88681 1.01235 0.94215 0.0
N235 N 0.87775 0.94848 0.92058 0.0
N236 N 0.91932 0.99201 0.95688 0.0
H237 H 0.9337 0.92868 0.95075 0.0
H238 H 0.83238 0.99273 0.90491 0.0
C239 C 0.8377 0.93704 0.8053 0.0
O240 O 0.84384 0.90341 0.78394 0.0
N241 N 0.82531 0.85428 0.86429 0.0
C242 C 0.83504 0.81549 0.87106 0.0
C243 C 0.81017 0.79035 0.84637 0.0
C244 C 0.79399 0.85195 0.83538 0.0
N245 N 0.78474 0.81312 0.82335 0.0
C246 C 0.92572 0.85607 0.89533 0.0
C247 C 0.9548 0.87451 0.81766 0.0
C248 C 0.97191 0.84271 0.83947 0.0
C249 C 0.95844 0.8347 0.87942 0.0
C250 C 0.92214 0.89546 0.835 0.0
N251 N 0.90569 0.88415 0.87208 0.0
H252 H 0.9154 0.84793 0.9257 0.0
H253 H 0.91056 0.91992 0.81759 0.0
H254 H 0.85861 0.80578 0.89269 0.0
H255 H 0.77862 0.8779 0.82288 0.0
O256 O 0.85286 0.87286 0.94445 0.0
O257 O 0.80194 0.9112 0.92289 0.0
O258 O 0.83974 0.93782 0.84496 0.0
C259 C 0.81746 0.88848 0.95167 0.0
H260 H 0.88164 0.04424 0.94763 0.0
H261 H 0.81169 0.75769 0.8442 0.0
H262 H 0.96578 0.8823 0.78714 0.0
H263 H 0.97201 0.81087 0.89753 0.0
Co264 Co 0.87207 0.19543 0.6335 0.0
C265 C 0.81709 0.24813 0.69401 0.0
C266 C 0.85707 0.28085 0.6542 0.0
C267 C 0.83668 0.30826 0.67889 0.0
N268 N 0.84528 0.24257 0.6628 0.0
N269 N 0.81123 0.28823 0.7042 0.0
H270 H 0.8014 0.22394 0.70963 0.0
H271 H 0.87996 0.28861 0.63156 0.0
C272 C 0.93309 0.22292 0.69803 0.0
O273 O 0.90341 0.21749 0.72465 0.0
N274 N 0.90021 0.1502 0.60354 0.0
C275 C 0.88188 0.11432 0.59293 0.0
C276 C 0.90975 0.08944 0.57362 0.0
C277 C 0.93977 0.14623 0.58982 0.0
N278 N 0.94636 0.1091 0.57142 0.0
C279 C 0.8208 0.14886 0.68602 0.0
C280 C 0.88302 0.10031 0.71479 0.0
C281 C 0.84206 0.08966 0.72242 0.0
C282 C 0.81066 0.11481 0.70894 0.0
C283 C 0.89178 0.13488 0.69261 0.0
N284 N 0.86097 0.15875 0.67833 0.0
H285 H 0.79613 0.16572 0.6721 0.0
H286 H 0.92311 0.14058 0.68408 0.0
H287 H 0.85021 0.10637 0.59936 0.0
H288 H 0.9633 0.16975 0.59345 0.0
O289 O 0.82242 0.18306 0.60194 0.0
O290 O 0.87147 0.22516 0.58134 0.0
O291 O 0.92662 0.21475 0.65917 0.0
C292 C 0.83628 0.20637 0.57339 0.0
H293 H 0.84031 0.34085 0.67823 0.0
H294 H 0.9036 0.05881 0.56224 0.0
H295 H 0.90798 0.08122 0.7247 0.0
H296 H 0.77866 0.10716 0.7144 0.0
Co297 Co 0.696 0.14211 0.34932 0.0
C298 C 0.74424 0.19084 0.2824 0.0
C299 C 0.78203 0.15851 0.32515 0.0
C300 C 0.80729 0.17948 0.2986 0.0
N301 N 0.74206 0.16531 0.31575 0.0
N302 N 0.78386 0.20009 0.27155 0.0
H303 H 0.71804 0.20262 0.26589 0.0
H304 H 0.7924 0.13946 0.35008 0.0
C305 C 0.72315 0.1629 0.44063 0.0
O306 O 0.68903 0.14805 0.45579 0.0
N307 N 0.64957 0.11805 0.38212 0.0
C308 C 0.6096 0.1267 0.37465 0.0
C309 C 0.58436 0.10344 0.39901 0.0
C310 C 0.64721 0.08759 0.41075 0.0
N311 N 0.60752 0.07874 0.4222 0.0
C312 C 0.64937 0.20161 0.30632 0.0
C313 C 0.63148 0.24833 0.37568 0.0
C314 C 0.61425 0.25809 0.33696 0.0
C315 C 0.62454 0.23524 0.30165 0.0
C316 C 0.65735 0.21539 0.37862 0.0
N317 N 0.66608 0.19231 0.34435 0.0
H318 H 0.65392 0.18217 0.27944 0.0
H319 H 0.66775 0.20704 0.40887 0.0
H320 H 0.59888 0.14818 0.35216 0.0
H321 H 0.67391 0.07271 0.42349 0.0
O322 O 0.67275 0.11379 0.30098 0.0
O323 O 0.71977 0.08885 0.34357 0.0
O324 O 0.72852 0.16331 0.4011 0.0
C325 C 0.6957 0.08355 0.31072 0.0
H326 H 0.84064 0.17952 0.29909 0.0
H327 H 0.5511 0.10474 0.39979 0.0
H328 H 0.62348 0.26494 0.40375 0.0
H329 H 0.61116 0.24165 0.27131 0.0
Co330 Co 0.63582 0.84763 0.20772 0.0
C331 C 0.69645 0.78912 0.24847 0.0
C332 C 0.67744 0.83648 0.28996 0.0
C333 C 0.70278 0.81093 0.31187 0.0
N334 N 0.67349 0.8235 0.2499 0.0
N335 N 0.71494 0.78092 0.28612 0.0
H336 H 0.69855 0.76986 0.22092 0.0
H337 H 0.66175 0.86222 0.30292 0.0
C338 C 0.66553 0.93505 0.21221 0.0
O339 O 0.67195 0.93325 0.17192 0.0
N340 N 0.59588 0.87073 0.16525 0.0
C341 C 0.57389 0.84766 0.13679 0.0
C342 C 0.54821 0.87104 0.11319 0.0
C343 C 0.58077 0.90879 0.15872 0.0
N344 N 0.55222 0.90965 0.12648 0.0
C345 C 0.67182 0.83123 0.12955 0.0
C346 C 0.74702 0.86933 0.14653 0.0
C347 C 0.73638 0.85702 0.10556 0.0
C348 C 0.69929 0.83608 0.09755 0.0
C349 C 0.71824 0.86381 0.17783 0.0
N350 N 0.67986 0.84817 0.16804 0.0
H351 H 0.64372 0.81446 0.12297 0.0
H352 H 0.72577 0.87435 0.20922 0.0
H353 H 0.57546 0.81521 0.13315 0.0
H354 H 0.58934 0.93514 0.17756 0.0
O355 O 0.61455 0.79453 0.19454 0.0
O356 O 0.58983 0.83609 0.2429 0.0
O357 O 0.65086 0.90403 0.23059 0.0
C358 C 0.5868 0.8018 0.22213 0.0
H359 H 0.71067 0.81349 0.34482 0.0
H360 H 0.5276 0.86032 0.08816 0.0
H361 H 0.77631 0.88441 0.15374 0.0
H362 H 0.69111 0.82464 0.06647 0.0
Co363 Co 0.37021 0.69372 0.13652 0.0
C364 C 0.31494 0.7462 0.1942 0.0
C365 C 0.35656 0.77954 0.15639 0.0
C366 C 0.33707 0.80639 0.18248 0.0
N367 N 0.34309 0.74141 0.163 0.0
N368 N 0.3106 0.78602 0.20657 0.0
H369 H 0.29853 0.72127 0.20809 0.0
H370 H 0.3804 0.78738 0.13479 0.0
C371 C 0.45239 0.69432 0.18156 0.0
O372 O 0.44963 0.65482 0.18417 0.0
N373 N 0.40005 0.64732 0.10984 0.0
C374 C 0.3921 0.60733 0.11388 0.0
C375 C 0.4204 0.58504 0.09229 0.0
C376 C 0.43364 0.64801 0.08436 0.0
N377 N 0.44686 0.61011 0.07322 0.0
C378 C 0.32005 0.63452 0.17588 0.0
C379 C 0.36717 0.6272 0.24768 0.0
C380 C 0.33943 0.59606 0.23531 0.0
C381 C 0.31327 0.60155 0.20108 0.0
C382 C 0.3724 0.66021 0.22158 0.0
N383 N 0.35306 0.66034 0.18326 0.0
H384 H 0.30134 0.63578 0.1479 0.0
H385 H 0.3937 0.68385 0.23143 0.0
H386 H 0.36749 0.59413 0.13114 0.0
H387 H 0.44831 0.67572 0.07437 0.0
O388 O 0.32296 0.68209 0.10118 0.0
O389 O 0.3743 0.72222 0.08349 0.0
O390 O 0.42327 0.71342 0.16391 0.0
C391 C 0.33937 0.70415 0.07306 0.0
H392 H 0.34223 0.83884 0.18387 0.0
H393 H 0.42125 0.55233 0.09049 0.0
H394 H 0.38633 0.62473 0.27556 0.0
H395 H 0.29033 0.57868 0.19169 0.0
Co396 Co 0.20198 0.65044 0.86723 0.0
C397 C 0.13628 0.59782 0.91332 0.0
C398 C 0.1981 0.57745 0.9195 0.0
C399 C 0.17267 0.55142 0.94056 0.0
N400 N 0.176 0.60721 0.90208 0.0
N401 N 0.13364 0.56388 0.93693 0.0
H402 H 0.10947 0.61421 0.90357 0.0
H403 H 0.23094 0.57408 0.91667 0.0
C404 C 0.17485 0.58494 0.80847 0.0
O405 O 0.13838 0.58943 0.82447 0.0
N406 N 0.22831 0.69379 0.83394 0.0
C407 C 0.21929 0.73316 0.83994 0.0
C408 C 0.2417 0.75684 0.81353 0.0
C409 C 0.25706 0.69446 0.80325 0.0
N410 N 0.26566 0.73298 0.79033 0.0
C411 C 0.12467 0.68699 0.87711 0.0
C412 C 0.11127 0.70204 0.79327 0.0
C413 C 0.0872 0.72104 0.82316 0.0
C414 C 0.09311 0.71236 0.86527 0.0
C415 C 0.14256 0.67664 0.8065 0.0
N416 N 0.1492 0.66976 0.84802 0.0
H417 H 0.1313 0.6834 0.90999 0.0
H418 H 0.16396 0.66569 0.7838 0.0
H419 H 0.19733 0.74416 0.86213 0.0
H420 H 0.27119 0.66765 0.79061 0.0
O421 O 0.20862 0.68543 0.91584 0.0
O422 O 0.25488 0.64161 0.89523 0.0
O423 O 0.20478 0.60912 0.81949 0.0
C424 C 0.24425 0.66941 0.92218 0.0
H425 H 0.18215 0.5248 0.95704 0.0
H426 H 0.24037 0.78942 0.81134 0.0
H427 H 0.10783 0.70905 0.76055 0.0
H428 H 0.0752 0.7272 0.88902 0.0
Co429 Co 0.13084 0.34931 0.71026 0.0
C430 C 0.18797 0.287 0.75176 0.0
C431 C 0.18935 0.34512 0.78242 0.0
C432 C 0.21285 0.31923 0.80575 0.0
N433 N 0.17364 0.32563 0.74799 0.0
N434 N 0.21221 0.28247 0.78694 0.0
H435 H 0.17969 0.26242 0.73022 0.0
H436 H 0.18252 0.3758 0.79164 0.0
C437 C 0.16245 0.43673 0.71115 0.0
O438 O 0.16937 0.43466 0.67109 0.0
N439 N 0.08586 0.37374 0.67422 0.0
C440 C 0.04497 0.36858 0.68071 0.0
C441 C 0.02205 0.39029 0.6529 0.0
C442 C 0.08617 0.40001 0.64133 0.0
N443 N 0.0475 0.41073 0.62813 0.0
C444 C 0.15287 0.33426 0.62679 0.0
C445 C 0.23306 0.36376 0.63342 0.0
C446 C 0.21607 0.3529 0.59409 0.0
C447 C 0.17612 0.33665 0.59105 0.0
C448 C 0.20854 0.3608 0.66857 0.0
N449 N 0.16814 0.34896 0.66422 0.0
H450 H 0.12169 0.32226 0.62416 0.0
H451 H 0.22114 0.3703 0.69875 0.0
H452 H 0.03142 0.35143 0.70511 0.0
H453 H 0.11371 0.41124 0.62699 0.0
O454 O 0.10759 0.29622 0.70001 0.0
O455 O 0.09067 0.33706 0.75206 0.0
O456 O 0.1483 0.40608 0.73051 0.0
C457 C 0.0855 0.30205 0.73281 0.0
H458 H 0.22809 0.32651 0.83542 0.0
H459 H 0.9888 0.39243 0.65221 0.0
H460 H 0.26424 0.37587 0.63659 0.0
H461 H 0.16254 0.32735 0.5611 0.0
Co462 Co 0.60406 0.64527 0.64653 0.0
C463 C 0.5376 0.59841 0.59715 0.0
C464 C 0.55384 0.56937 0.65412 0.0
C465 C 0.52513 0.54531 0.63269 0.0
N466 N 0.56231 0.60275 0.63191 0.0
N467 N 0.51514 0.56341 0.59686 0.0
H468 H 0.53695 0.61952 0.57184 0.0
H469 H 0.5676 0.56209 0.68381 0.0
C470 C 0.63359 0.62015 0.73487 0.0
O471 O 0.66697 0.643 0.73779 0.0
N472 N 0.64448 0.68886 0.66052 0.0
C473 C 0.67057 0.70511 0.63305 0.0
C474 C 0.69454 0.73477 0.65289 0.0
C475 C 0.65145 0.71095 0.6963 0.0
N476 N 0.6835 0.73762 0.69312 0.0
C477 C 0.64101 0.5927 0.58753 0.0
C478 C 0.71801 0.59291 0.62603 0.0
C479 C 0.71282 0.57778 0.58541 0.0
C480 C 0.67355 0.57521 0.56691 0.0
C481 C 0.68474 0.6102 0.64536 0.0
N482 N 0.647 0.611 0.6258 0.0
H483 H 0.61225 0.59522 0.57062 0.0
H484 H 0.691 0.62673 0.6737 0.0
H485 H 0.6725 0.69553 0.60079 0.0
H486 H 0.63439 0.70687 0.72457 0.0
O487 O 0.59196 0.67231 0.59549 0.0
O488 O 0.56151 0.68301 0.65597 0.0
O489 O 0.6084 0.62085 0.7037 0.0
C490 C 0.56578 0.69268 0.61692 0.0
H491 H 0.51287 0.51638 0.64235 0.0
H492 H 0.72002 0.75123 0.6395 0.0
H493 H 0.74848 0.59639 0.64033 0.0
H494 H 0.66917 0.56468 0.53485 0.0
Co495 Co 0.3484 0.40561 0.39436 0.0
C496 C 0.39775 0.45399 0.45911 0.0
C497 C 0.3548 0.48977 0.42472 0.0
C498 C 0.3768 0.51493 0.45216 0.0
N499 N 0.36783 0.45157 0.42891 0.0
N500 N 0.40377 0.49253 0.47366 0.0
H501 H 0.41506 0.42844 0.46981 0.0
H502 H 0.33091 0.49884 0.40303 0.0
C503 C 0.34567 0.43894 0.3075 0.0
O504 O 0.35354 0.4038 0.28997 0.0
N505 N 0.32795 0.35993 0.35833 0.0
C506 C 0.34959 0.32827 0.3439 0.0
C507 C 0.32598 0.30623 0.31516 0.0
C508 C 0.29062 0.35575 0.33811 0.0
N509 N 0.2889 0.32333 0.31113 0.0
C510 C 0.42304 0.36277 0.40498 0.0
C511 C 0.46775 0.40129 0.34452 0.0
C512 C 0.48324 0.36658 0.36285 0.0
C513 C 0.4616 0.34863 0.39495 0.0
C514 C 0.42914 0.41507 0.35631 0.0
N515 N 0.40566 0.3934 0.38322 0.0
H516 H 0.40596 0.34665 0.42801 0.0
H517 H 0.41828 0.44267 0.34325 0.0
H518 H 0.38101 0.32167 0.35185 0.0
H519 H 0.26583 0.3768 0.34184 0.0
O520 O 0.34173 0.37378 0.44334 0.0
O521 O 0.29357 0.41224 0.41556 0.0
O522 O 0.34353 0.44331 0.34688 0.0
C523 C 0.30501 0.3883 0.44517 0.0
H524 H 0.37341 0.54728 0.45606 0.0
H525 H 0.33566 0.2798 0.29774 0.0
H526 H 0.48458 0.41664 0.32051 0.0
H527 H 0.47324 0.32212 0.41023 0.0
C528 C 0.21281 0.31484 0.21886 0.0
C529 C 0.20785 0.27207 0.21535 0.0
C530 C 0.24437 0.26696 0.28311 0.0
C531 C 0.25624 0.30847 0.2824 0.0
N532 N 0.255 0.37133 0.24552 0.0
N533 N 0.22669 0.2069 0.24173 0.0
C534 C 0.24096 0.33248 0.2494 0.0
C535 C 0.22528 0.2479 0.24712 0.0
N536 N 0.18995 0.33867 0.19341 0.0
N537 N 0.25161 0.24569 0.31843 0.0
H538 H 0.21665 0.19187 0.21442 0.0
H539 H 0.2423 0.18834 0.26236 0.0
H540 H 0.26451 0.25932 0.34547 0.0
H541 H 0.24066 0.21617 0.32221 0.0
H542 H 0.18949 0.37006 0.19676 0.0
H543 H 0.16809 0.32663 0.17201 0.0
H544 H 0.24835 0.38868 0.21956 0.0
H545 H 0.27603 0.38515 0.26647 0.0
C546 C 1.01107 0.0692 0.57933 0.0
C547 C 0.9837 0.09138 0.55369 0.0
C548 C 0.02369 0.06948 0.49188 0.0
C549 C 0.04967 0.04535 0.51724 0.0
N550 N 0.0645 1.01842 0.58464 0.0
N551 N 0.96123 0.10902 0.48491 0.0
C552 C 0.04235 0.04446 0.56094 0.0
C553 C 0.98942 0.09042 0.50974 0.0
N554 N 1.00708 0.07207 0.62158 0.0
N555 N 0.03273 0.07358 0.45081 0.0
H556 H 0.93735 0.12576 0.49727 0.0
H557 H 0.96011 0.10618 0.45251 0.0
H558 H 0.0566 0.05811 0.43688 0.0
H559 H 1.01841 0.09395 0.43121 0.0
H560 H 0.0278 0.06009 0.64298 0.0
H561 H 0.98418 0.08916 0.63539 0.0
H562 H 0.05906 1.01305 0.61591 0.0
H563 H 0.08647 0.9995 0.57187 0.0
C564 C 0.33405 0.7611 0.76876 0.0
C565 C 0.29295 0.74842 0.75816 0.0
C566 C 0.29928 0.78361 0.6909 0.0
C567 C 0.34134 0.79392 0.70015 0.0
N568 N 0.40001 0.78881 0.74654 0.0
N569 N 0.23753 0.74435 0.70769 0.0
C570 C 0.35898 0.78172 0.73887 0.0
C571 C 0.27605 0.75875 0.71864 0.0
N572 N 0.34876 0.75442 0.80818 0.0
N573 N 0.28117 0.79917 0.65607 0.0
H574 H 0.22016 0.72652 0.72757 0.0
H575 H 0.22403 0.7473 0.67821 0.0
H576 H 0.29704 0.81845 0.63637 0.0
H577 H 0.24993 0.79608 0.64852 0.0
H578 H 0.37652 0.76648 0.82017 0.0
H579 H 0.33175 0.73834 0.82981 0.0
H580 H 0.41627 0.77693 0.77163 0.0
H581 H 0.41838 0.80506 0.72633 0.0
C582 C 0.46415 0.97925 0.0958 0.0
C583 C 0.47942 0.99684 0.05891 0.0
C584 C 0.54581 0.96225 0.07183 0.0
C585 C 0.52972 0.94299 0.1074 0.0
N586 N 0.472 0.92958 0.15063 0.0
N587 N 0.53357 1.00247 1.00975 0.0
C588 C 0.48838 0.95064 0.11859 0.0
C589 C 0.52006 0.98752 0.04651 0.0
N590 N 0.4268 0.99104 0.10977 0.0
N591 N 0.58611 0.95634 0.06257 0.0
H592 H 0.51522 1.02049 0.99089 0.0
H593 H 0.56139 0.9951 0.9964 0.0
H594 H 0.60504 0.93794 0.08041 0.0
H595 H 0.60164 0.97134 0.03926 0.0
H596 H 0.41515 0.98322 0.13855 0.0
H597 H 0.40832 1.0107 0.09307 0.0
H598 H 0.44097 0.9298 0.15805 0.0
H599 H 0.48951 0.91007 0.16865 0.0
C600 C 0.25511 0.83516 0.22344 0.0
C601 C 0.28359 0.80578 0.2372 0.0
C602 C 0.26435 0.82332 0.31037 0.0
C603 C 0.23846 0.85492 0.29647 0.0
N604 N 0.21517 0.89493 0.23953 0.0
N605 N 0.31977 0.77665 0.295 0.0
C606 C 0.23582 0.86188 0.25284 0.0
C607 C 0.28935 0.80117 0.28112 0.0
N608 N 0.24521 0.83641 0.18188 0.0
N609 N 0.26394 0.81348 0.35145 0.0
H610 H 0.33811 0.7603 0.27466 0.0
H611 H 0.3287 0.77481 0.32629 0.0
H612 H 0.24676 0.82943 0.37318 0.0
H613 H 0.27835 0.7882 0.36331 0.0
H614 H 0.22199 0.85421 0.16964 0.0
H615 H 0.25749 0.81641 0.16008 0.0
H616 H 0.21494 0.90448 0.20879 0.0
H617 H 0.20157 0.91511 0.2603 0.0
C618 C 0.56746 0.98416 0.47833 0.0
C619 C 0.54488 1.00201 0.5114 0.0
C620 C 0.57093 0.06943 0.48944 0.0
C621 C 0.5907 0.05206 0.45436 0.0
N622 N 0.60279 0.99277 0.4124 0.0
N623 N 0.52007 0.06252 0.54377 0.0
C624 C 0.58761 1.00928 0.44809 0.0
C625 C 0.54535 0.04497 0.51548 0.0
N626 N 0.57083 0.94313 0.47668 0.0
N627 N 0.57773 0.10955 0.49855 0.0
H628 H 0.50047 0.0455 0.56226 0.0
H629 H 0.51554 0.09354 0.54611 0.0
H630 H 0.59694 0.12771 0.48077 0.0
H631 H 0.56776 0.12385 0.52563 0.0
H632 H 0.59008 0.928 0.45633 0.0
H633 H 0.55624 0.92438 0.49782 0.0
H634 H 0.59822 0.96257 0.40335 0.0
H635 H 0.61774 1.01025 0.3904 0.0
C636 C 0.29437 0.20824 0.82288 0.0
C637 C 0.27261 0.18537 0.85276 0.0
C638 C 0.20899 0.22197 0.83289 0.0
C639 C 0.23134 0.24661 0.80501 0.0
N640 N 0.29627 0.26602 0.77664 0.0
N641 N 0.21011 0.17337 0.88934 0.0
C642 C 0.27436 0.24038 0.80098 0.0
C643 C 0.23002 0.193 0.85835 0.0
N644 N 0.33389 0.19815 0.81434 0.0
N645 N 0.16737 0.22641 0.83482 0.0
H646 H 0.22495 0.15294 0.90864 0.0
H647 H 0.18016 0.17929 0.89813 0.0
H648 H 0.15174 0.24767 0.81722 0.0
H649 H 0.14794 0.20755 0.85139 0.0
H650 H 0.35063 0.21041 0.79018 0.0
H651 H 0.34913 0.17524 0.82991 0.0
H652 H 0.32828 0.26673 0.7755 0.0
H653 H 0.28214 0.28825 0.75902 0.0
C654 C 0.9705 0.04826 0.0478 0.0
C655 C 1.01115 0.05346 0.03345 0.0
C656 C 0.99142 1.01725 0.968 0.0
C657 C 0.95165 1.00943 0.98379 0.0
N658 N 0.90498 1.01169 0.04075 0.0
N659 N 0.06238 0.03925 0.98273 0.0
C660 C 0.9417 0.02339 0.02436 0.0
C661 C 0.02219 0.03694 0.99423 0.0
N662 N 0.95943 0.06794 0.08358 0.0
N663 N 0.99914 1.00713 0.92747 0.0
H664 H 0.08507 0.05428 1.00109 0.0
H665 H 0.07363 0.02437 0.95656 0.0
H666 H 0.97719 0.99259 0.90783 0.0
H667 H 0.02607 1.01543 0.91254 0.0
H668 H 0.92934 0.06869 0.09405 0.0
H669 H 0.98001 0.08652 0.10103 0.0
H670 H 0.89697 1.01772 0.07148 0.0
H671 H 0.88389 0.99265 0.0245 0.0
C672 C 0.75215 0.33424 0.71808 0.0
C673 C 0.78316 0.30825 0.73362 0.0
C674 C 0.76351 0.32927 0.8057 0.0
C675 C 0.73475 0.35753 0.7899 0.0
N676 N 0.70701 0.39117 0.73043 0.0
N677 N 0.82247 0.28622 0.7929 0.0
C678 C 0.73082 0.36112 0.74581 0.0
C679 C 0.7899 0.30723 0.77772 0.0
N680 N 0.74198 0.33205 0.67654 0.0
N681 N 0.76449 0.32229 0.84747 0.0
H682 H 0.84172 0.26987 0.77346 0.0
H683 H 0.83208 0.28734 0.82411 0.0
H684 H 0.74594 0.33791 0.86822 0.0
H685 H 0.78136 0.29936 0.86101 0.0
H686 H 0.71723 0.34703 0.66321 0.0
H687 H 0.75597 0.31195 0.656 0.0
H688 H 0.7054 0.39845 0.69902 0.0
H689 H 0.69187 0.41143 0.74991 0.0
C690 C 0.08688 0.50295 0.94016 0.0
C691 C 0.09795 0.5428 0.95459 0.0
C692 C 0.04828 0.5346 1.01164 0.0
C693 C 0.0419 0.49292 1.00085 0.0
N694 N 0.05683 0.43683 0.95539 0.0
N695 N 0.09053 0.59597 1.00576 0.0
C696 C 0.06121 0.47713 0.96478 0.0
C697 C 0.07841 0.55868 0.99046 0.0
N698 N 0.10103 0.49 0.90251 0.0
N699 N 0.02521 0.55099 0.04251 0.0
H700 H 0.11212 0.61412 0.99094 0.0
H701 H 0.08122 0.60792 0.03424 0.0
H702 H 1.00308 0.53394 0.05795 0.0
H703 H 0.02524 0.58173 0.05016 0.0
H704 H 0.09184 0.46278 0.88792 0.0
H705 H 0.11934 0.50848 0.88413 0.0
H706 H 0.0736 0.42197 0.93264 0.0
H707 H 0.03774 0.4177 0.97213 0.0
C708 C 0.74777 0.68796 0.34639 0.0
C709 C 0.78988 0.68431 0.33571 0.0
C710 C 0.7822 0.74426 0.29062 0.0
C711 C 0.73947 0.74624 0.29934 0.0
N712 N 0.68045 0.71644 0.33123 0.0
N713 N 0.84578 0.70596 0.29334 0.0
C714 C 0.72208 0.71698 0.3261 0.0
C715 C 0.80668 0.71179 0.30665 0.0
N716 N 0.73268 0.6643 0.37715 0.0
N717 N 0.79967 0.77434 0.26802 0.0
H718 H 0.86418 0.68304 0.30487 0.0
H719 H 0.85896 0.72191 0.26921 0.0
H720 H 0.78242 0.79764 0.2555 0.0
H721 H 0.83124 0.77764 0.26383 0.0
H722 H 0.7037 0.66764 0.38982 0.0
H723 H 0.75073 0.64331 0.39256 0.0
H724 H 0.66459 0.69391 0.34684 0.0
H725 H 0.66122 0.737 0.31665 0.0
C726 C 1.01961 0.46394 0.5261 0.0
C727 C 0.993 0.49449 0.54101 0.0
C728 C 1.00994 0.47416 0.61321 0.0
C729 C 0.03355 0.44122 0.59847 0.0
N730 N 0.0564 0.40175 0.54003 0.0
N731 N 0.95696 0.52319 0.5986 0.0
C732 C 0.03725 0.43538 0.55457 0.0
C733 C 0.98657 0.49786 0.58461 0.0
N734 N 0.02899 0.46304 0.48484 0.0
N735 N 1.01097 0.48365 0.65487 0.0
H736 H 0.9387 0.53986 0.57832 0.0
H737 H 0.94768 0.52452 0.62947 0.0
H738 H 0.0287 0.4678 0.6763 0.0
H739 H 0.99787 0.50951 0.66751 0.0
H740 H 0.05131 0.44452 0.47227 0.0
H741 H 1.01605 0.48293 0.46363 0.0
H742 H 0.05675 0.39319 0.5086 0.0
H743 H 0.06968 0.38091 0.55996 0.0
C744 C 0.50462 0.5422 0.99773 0.0
C745 C 0.54666 0.55361 1.00556 0.0
C746 C 0.52276 0.6067 0.05547 0.0
C747 C 0.48065 0.59615 0.0465 0.0
N748 N 0.43278 0.56181 0.99908 0.0
N749 N 0.59421 0.60411 0.03382 0.0
C750 C 0.47217 0.5664 1.01437 0.0
C751 C 0.55508 0.58825 0.03194 0.0
N752 N 0.49534 0.50683 0.97663 0.0
N753 N 0.53234 0.63277 0.0879 0.0
H754 H 0.61782 0.59215 1.0161 0.0
H755 H 0.60211 0.6313 0.04924 0.0
H756 H 0.51001 0.64688 0.10544 0.0
H757 H 0.5623 0.63808 0.09928 0.0
H758 H 0.46553 0.49469 0.97373 0.0
H759 H 0.51781 0.48766 0.96545 0.0
H760 H 0.4248 0.54334 0.97332 0.0
H761 H 0.40905 0.58011 1.00933 0.0
C762 C 0.69066 0.78609 0.75423 0.0
C763 C 0.70795 0.75711 0.72673 0.0
C764 C 0.77631 0.77315 0.75758 0.0
C765 C 0.75868 0.79788 0.78877 0.0
N766 N 0.6976 0.82337 0.82037 0.0
N767 N 0.76579 0.71509 0.71145 0.0
C768 C 0.71535 0.80331 0.78803 0.0
C769 C 0.75043 0.74842 0.731 0.0
N770 N 0.65114 0.79792 0.74738 0.0
N771 N 0.81796 0.77402 0.75266 0.0
H772 H 0.74712 0.69414 0.69472 0.0
H773 H 0.79591 0.70563 0.71632 0.0
H774 H 0.83757 0.79364 0.77005 0.0
H775 H 0.83218 0.75894 0.72818 0.0
H776 H 0.63791 0.82159 0.76394 0.0
H777 H 0.63282 0.78623 0.72266 0.0
H778 H 0.66584 0.82497 0.82369 0.0
H779 H 0.71473 0.83557 0.84566 0.0
C780 C 0.7987 0.26849 0.2408 0.0
C781 C 0.79983 0.22546 0.23796 0.0
C782 C 0.84434 0.23199 0.1762 0.0
C783 C 0.84058 0.27482 0.17697 0.0
N784 N 0.80939 0.33339 0.2072 0.0
N785 N 0.81878 0.16636 0.1989 0.0
C786 C 0.81648 0.29291 0.20866 0.0
C787 C 0.82137 0.20738 0.20443 0.0
N788 N 0.78185 0.28609 0.27512 0.0
N789 N 0.87127 0.21492 0.14923 0.0
H790 H 0.80168 0.14795 0.21845 0.0
H791 H 0.83021 0.15103 0.17308 0.0
H792 H 0.88909 0.23215 0.12924 0.0
H793 H 0.87883 0.18448 0.14932 0.0
H794 H 0.78361 0.31702 0.28181 0.0
H795 H 0.76851 0.26916 0.29856 0.0
H796 H 0.78893 0.34822 0.22649 0.0
H797 H 0.82197 0.35173 0.18445 0.0
C798 C 0.47517 0.5117 0.49699 0.0
C799 C 0.43259 0.50802 0.5055 0.0
C800 C 0.44436 0.54558 0.57186 0.0
C801 C 0.48726 0.54682 0.56474 0.0
N802 N 0.54461 0.52567 0.52421 0.0
N803 N 0.37729 0.51558 0.55326 0.0
C804 C 0.50299 0.52839 0.52822 0.0
C805 C 0.4174 0.52338 0.54367 0.0
N806 N 0.48865 0.50055 0.45847 0.0
N807 N 0.42952 0.5666 0.60522 0.0
H808 H 0.35731 0.49874 0.53342 0.0
H809 H 0.36481 0.52266 0.58208 0.0
H810 H 0.44873 0.58328 0.62596 0.0
H811 H 0.39826 0.57024 0.61044 0.0
H812 H 0.51853 0.50616 0.4486 0.0
H813 H 0.469 0.48825 0.43516 0.0
H814 H 0.5583 0.5091 0.50046 0.0
H815 H 0.56551 0.53751 0.54662 0.0
C816 C 0.11436 0.09373 0.32295 0.0
C817 C 0.09857 0.08116 0.28333 0.0
C818 C 0.09679 1.0107 0.30366 0.0
C819 C 0.11386 0.02291 0.34323 0.0
N820 N 0.12758 0.07633 0.39462 0.0
N821 N 0.0635 0.03074 0.23933 0.0
C822 C 0.11899 0.06462 0.35422 0.0
C823 C 0.08551 0.04068 0.27508 0.0
N824 N 0.12647 0.13319 0.32991 0.0
N825 N 0.09467 0.97077 0.29176 0.0
H826 H 0.05604 0.05168 0.2167 0.0
H827 H 0.04931 1.00253 0.23389 0.0
H828 H 0.1032 0.94746 0.31106 0.0
H829 H 0.08768 0.9607 0.26139 0.0
H830 H 0.14337 0.1433 0.35622 0.0
H831 H 0.12112 0.15566 0.30817 0.0
H832 H 0.1278 0.1063 0.40525 0.0
H833 H 0.13027 0.05577 0.4185 0.0
C834 C 0.26274 0.89756 0.5283 0.0
C835 C 0.25392 0.93434 0.50819 0.0
C836 C 0.32095 0.9629 0.53301 0.0
C837 C 0.32964 0.92571 0.55204 0.0
N838 N 0.31573 0.85424 0.55437 0.0
N839 N 0.2783 0.99914 0.48384 0.0
C840 C 0.30255 0.89204 0.54561 0.0
C841 C 0.28434 0.96604 0.50784 0.0
N842 N 0.23321 0.8678 0.53154 0.0
N843 N 0.34678 0.99552 0.54032 0.0
H844 H 0.25175 1.0031 0.46574 0.0
H845 H 0.30098 0.02119 0.47919 0.0
H846 H 0.37444 0.99357 0.55727 0.0
H847 H 0.33983 0.0248 0.53162 0.0
H848 H 0.2368 0.84292 0.55062 0.0
H849 H 0.20397 0.86905 0.51793 0.0
H850 H 0.29888 0.8278 0.547 0.0
H851 H 0.34596 0.84939 0.56363 0.0
C852 C 0.46349 1.0164 0.78725 0.0
C853 C 0.42753 0.99975 0.76706 0.0
C854 C 0.39055 1.00259 0.83264 0.0
C855 C 0.42597 1.02068 0.85274 0.0
N856 N 0.49439 0.05023 0.84834 0.0
N857 N 0.35487 0.9841 0.76752 0.0
C858 C 0.46202 0.02913 0.82984 0.0
C859 C 0.39033 0.99542 0.78883 0.0
N860 N 0.49945 1.01865 0.76592 0.0
N861 N 0.35803 0.99008 0.85589 0.0
H862 H 0.35394 0.97801 0.73545 0.0
H863 H 0.32586 0.9843 0.78069 0.0
H864 H 0.35768 0.9933 0.88832 0.0
H865 H 0.33306 0.97306 0.84375 0.0
H866 H 0.52807 0.02524 0.77998 0.0
H867 H 0.50091 1.01203 0.73402 0.0
H868 H 0.51914 0.06186 0.832 0.0
H869 H 0.49571 0.05821 0.87991 0.0
C870 C 0.29767 0.07713 0.07261 0.0
C871 C 0.29041 0.07302 0.02907 0.0
C872 C 0.22321 0.10329 0.03519 0.0
C873 C 0.2309 0.10908 0.07886 0.0
N874 N 0.26873 0.08967 0.14062 0.0
N875 N 0.24125 0.06674 0.97212 0.0
C876 C 0.26595 0.09191 0.09816 0.0
C877 C 0.25109 0.08026 1.01167 0.0
N878 N 0.33564 0.0688 0.08896 0.0
N879 N 0.19185 0.12271 1.0153 0.0
H880 H 0.26125 0.04914 0.95481 0.0
H881 H 0.21184 0.06879 0.95876 0.0
H882 H 0.172 0.14228 0.03026 0.0
H883 H 0.18808 0.12274 0.98294 0.0
H884 H 0.34475 0.07563 0.1197 0.0
H885 H 0.3586 0.05642 0.07067 0.0
H886 H 0.29213 0.07464 0.15625 0.0
H887 H 0.24536 0.09944 0.15998 0.0
C888 C 1.00673 0.22725 0.05772 0.0
C889 C 0.05027 0.23266 0.0558 0.0
C890 C 0.04185 0.30319 0.03717 0.0
C891 C 0.99908 0.29816 0.04269 0.0
N892 N 0.9398 0.25379 0.0396 0.0
N893 N 0.10741 0.27105 0.02804 0.0
C894 C 0.98119 0.25938 0.04615 0.0
C895 C 0.06728 0.26893 0.03976 0.0
N896 N 0.98977 0.19258 0.07295 0.0
N897 N 0.0581 0.34104 0.03157 0.0
H898 H 0.12656 0.24626 0.02803 0.0
H899 H 0.12037 0.29611 1.01377 0.0
H900 H 0.03945 0.366 0.02729 0.0
H901 H 0.08956 0.34784 0.03268 0.0
H902 H 0.95868 0.18932 0.07979 0.0
H903 H 1.00706 0.16786 0.08136 0.0
H904 H 0.9251 0.22548 0.03906 0.0
H905 H 0.92123 0.2772 0.02964 0.0
C906 C 0.53095 0.28846 0.90802 0.0
C907 C 0.54735 0.30349 0.94681 0.0
C908 C 0.51571 0.24712 0.98287 0.0
C909 C 0.49494 0.23541 0.94501 0.0
N910 N 0.47782 0.24757 0.87273 0.0
N911 N 0.55292 0.30036 1.02177 0.0
C912 C 0.50127 0.25667 0.90778 0.0
C913 C 0.53925 0.28364 0.9845 0.0
N914 N 0.54447 0.304 0.87143 0.0
N915 N 0.51367 0.22284 1.0168 0.0
H916 H 0.57084 0.3269 0.02397 0.0
H917 H 0.54409 0.28961 0.0506 0.0
H918 H 0.49682 0.19563 1.01658 0.0
H919 H 0.53145 0.2278 0.04392 0.0
H920 H 0.53672 0.29133 0.84222 0.0
H921 H 0.56657 0.32725 0.87029 0.0
H922 H 0.47795 0.26516 0.84617 0.0
H923 H 0.45556 0.22436 0.87127 0.0
C924 C 0.05658 0.71558 0.45761 0.0
C925 C 0.03934 0.70957 0.4169 0.0
C926 C 0.07555 0.76958 0.3933 0.0
C927 C 0.08519 0.7801 0.43559 0.0
N928 N 0.08721 0.76335 0.50833 0.0
N929 N 0.03228 0.72929 0.34527 0.0
C930 C 0.07707 0.75281 0.46789 0.0
C931 C 0.04946 0.73568 0.38423 0.0
N932 N 0.05271 0.68575 0.4862 0.0
N933 N 0.09156 0.79197 0.36201 0.0
H934 H 1.01416 0.70376 0.33729 0.0
H935 H 0.03424 0.75016 0.32149 0.0
H936 H 0.1114 0.8166 0.36796 0.0
H937 H 0.08864 0.78387 0.33051 0.0
H938 H 0.06715 0.68683 0.51553 0.0
H939 H 0.03796 0.65808 0.47895 0.0
H940 H 0.07804 0.74672 0.53385 0.0
H941 H 0.10324 0.7901 0.51659 0.0
C942 C 0.50541 0.73511 0.61876 0.0
C943 C 0.54275 0.72684 0.59948 0.0
C944 C 0.5412 0.7943 0.56881 0.0
C945 C 0.51037 0.80497 0.59735 0.0
N946 N 0.47219 0.78562 0.65883 0.0
N947 N 0.597 0.74948 0.55353 0.0
C948 C 0.49477 0.77553 0.62493 0.0
C949 C 0.56073 0.7563 0.57298 0.0
N950 N 0.48083 0.70439 0.6325 0.0
N951 N 0.55252 0.82061 0.53863 0.0
H952 H 0.61103 0.72161 0.55186 0.0
H953 H 0.614 0.77231 0.53952 0.0
H954 H 0.54051 0.84952 0.53636 0.0
H955 H 0.57168 0.81268 0.51426 0.0
H956 H 0.45179 0.70939 0.64468 0.0
H957 H 0.48768 0.67404 0.627 0.0
H958 H 0.46348 0.76441 0.68077 0.0
H959 H 0.4664 0.8151 0.66815 0.0
C960 C 0.85002 0.04948 0.78589 0.0
C961 C 0.83334 0.0522 0.7452 0.0
C962 C 0.81181 0.98088 0.74699 0.0
C963 C 0.83594 0.97654 0.7841 0.0
N964 N 0.88822 1.00724 0.83138 0.0
N965 N 0.80252 1.01899 0.68392 0.0
C966 C 0.85765 1.01099 0.80185 0.0
C967 C 0.8151 1.01755 0.72479 0.0
N968 N 0.85956 0.08373 0.80899 0.0
N969 N 0.78485 0.95085 0.73362 0.0
H970 H 0.80459 0.04517 0.66649 0.0
H971 H 0.79311 0.99333 0.66653 0.0
H972 H 0.78007 0.92435 0.75002 0.0
H973 H 0.76409 0.95425 0.70874 0.0
H974 H 0.86871 0.083 0.84036 0.0
H975 H 0.85396 0.11267 0.79807 0.0
H976 H 0.90698 0.03153 0.84179 0.0
H977 H 0.89854 0.97976 0.84195 0.0
C978 C 0.82613 0.18458 0.49879 0.0
C979 C 0.81276 0.20796 0.5332 0.0
C980 C 0.74377 0.2109 0.50052 0.0
C981 C 0.75509 0.18126 0.47015 0.0
N982 N 0.8067 0.13638 0.4436 0.0
N983 N 0.75956 0.24468 0.5672 0.0
C984 C 0.79644 0.16776 0.46954 0.0
C985 C 0.77187 0.22195 0.53378 0.0
N986 N 0.86712 0.17759 0.49467 0.0
N987 N 0.70646 0.22906 0.4973 0.0
H988 H 0.78023 0.25565 0.59038 0.0
H989 H 0.72895 0.25126 0.5729 0.0
H990 H 0.68471 0.22165 0.474 0.0
H991 H 0.69829 0.25386 0.51562 0.0
H992 H 0.87928 0.16426 0.46805 0.0
H993 H 0.88937 0.18909 0.51593 0.0
H994 H 0.83512 0.12238 0.44499 0.0
H995 H 0.78561 0.12148 0.42339 0.0
C996 C 0.68498 0.04692 0.24167 0.0
C997 C 0.69311 0.04503 0.28532 0.0
C998 C 0.6936 0.9711 0.27776 0.0
C999 C 0.67628 0.97311 0.23672 0.0
N1000 N 0.64757 1.01599 0.18325 0.0
N1001 N 0.69681 1.00258 0.34618 0.0
C1002 C 0.66982 1.01187 0.21952 0.0
C1003 C 0.69522 1.00639 0.30387 0.0
N1004 N 0.69298 0.08173 0.22084 0.0
N1005 N 0.71061 0.93623 0.29136 0.0
H1006 H 0.69583 0.02691 0.36712 0.0
H1007 H 0.69438 0.97459 0.36042 0.0
H1008 H 0.71414 0.91107 0.27184 0.0
H1009 H 0.72628 0.93444 0.31999 0.0
H1010 H 0.69045 0.08335 0.18844 0.0
H1011 H 0.70727 0.1071 0.23515 0.0
H1012 H 0.63942 0.04414 0.17199 0.0
H1013 H 0.63304 0.99191 0.16709 0.0
C1014 C 0.78113 0.83498 0.04795 0.0
C1015 C 0.76241 0.86691 0.06993 0.0
C1016 C 0.78394 0.91436 1.01679 0.0
C1017 C 0.79706 0.8813 0.99173 0.0
N1018 N 0.80039 0.80891 0.98055 0.0
N1019 N 0.74023 0.93621 0.07264 0.0
C1020 C 0.79383 0.84122 1.00662 0.0
C1021 C 0.76231 0.90648 0.05377 0.0
N1022 N 0.78661 0.79866 0.06664 0.0
N1023 N 0.79357 0.95323 1.0065 0.0
H1024 H 0.72427 0.93199 0.10011 0.0
H1025 H 0.73514 0.96414 0.05921 0.0
H1026 H 0.8102 0.96051 0.98029 0.0
H1027 H 0.78864 0.97801 0.02624 0.0
H1028 H 0.80361 0.77544 0.0535 0.0
H1029 H 0.77768 0.79335 0.09716 0.0
H1030 H 0.79466 0.77903 0.98872 0.0
H1031 H 0.80687 0.81207 0.94917 0.0
C1032 C 1.01695 0.745 0.80402 0.0
C1033 C 0.05921 0.75393 0.81207 0.0
C1034 C 0.04483 0.8253 0.82502 0.0
C1035 C 1.00228 0.81567 0.82061 0.0
N1036 N 0.94795 0.77085 0.79437 0.0
N1037 N 0.11508 0.80286 0.81758 0.0
C1038 C 0.98845 0.77692 0.80581 0.0
C1039 C 0.07371 0.79441 0.81795 0.0
N1040 N 1.00411 0.70578 0.79705 0.0
N1041 N 0.05729 0.86318 0.83847 0.0
H1042 H 0.1368 0.78053 0.8127 0.0
H1043 H 0.12771 0.83204 0.81845 0.0
H1044 H 0.03677 0.88673 0.84253 0.0
H1045 H 0.08752 0.87098 0.84721 0.0
H1046 H 0.97333 0.69637 0.79576 0.0
H1047 H 0.0247 0.68214 0.79399 0.0
H1048 H 0.9362 0.74421 0.78047 0.0
H1049 H 0.92658 0.79398 0.79564 0.0
C1050 C 0.52763 0.70462 0.20636 0.0
C1051 C 0.48627 0.71833 0.20341 0.0
C1052 C 0.51024 0.78721 0.22177 0.0
C1053 C 0.55124 0.77351 0.22503 0.0
N1054 N 0.59602 0.71754 0.23617 0.0
N1055 N 0.43886 0.76862 0.22885 0.0
C1056 C 0.55881 0.73155 0.22282 0.0
C1057 C 0.47774 0.75824 0.21796 0.0
N1058 N 0.53836 0.66744 0.1913 0.0
N1059 N 0.50177 0.82741 0.21914 0.0
H1060 H 0.41444 0.74784 0.22947 0.0
H1061 H 0.43227 0.7966 0.24246 0.0
H1062 H 0.52397 0.85049 0.22039 0.0
H1063 H 0.47237 0.83761 0.21174 0.0
H1064 H 0.56894 0.65908 0.18819 0.0
H1065 H 0.51783 0.64575 0.17892 0.0
H1066 H 0.60207 0.68685 0.23877 0.0
H1067 H 0.61905 0.73674 0.24909 0.0
C1068 C 1.01083 0.21884 0.70478 0.0
C1069 C 0.97367 0.23928 0.71382 0.0
C1070 C 1.01342 0.2891 0.75695 0.0
C1071 C 0.05001 0.27398 0.74035 0.0
N1072 N 0.08502 0.21523 0.71683 0.0
N1073 N 0.94043 0.29696 0.7456 0.0
C1074 C 0.0491 0.23576 0.71987 0.0
C1075 C 0.97504 0.27481 0.73987 0.0
N1076 N 1.00979 0.18414 0.68087 0.0
N1077 N 1.01538 0.3162 0.78964 0.0
H1078 H 0.91195 0.28951 0.73163 0.0
H1079 H 0.94094 0.32522 0.7606 0.0
H1080 H 0.04315 0.32389 0.80505 0.0
H1081 H 0.98944 0.32618 0.80506 0.0
H1082 H 0.0358 0.17063 0.66894 0.0
H1083 H 0.98267 0.16936 0.67117 0.0
H1084 H 0.08714 0.18582 0.70504 0.0
H1085 H 0.11245 0.22658 0.73057 0.0
C1086 C 0.51013 0.30749 0.32457 0.0
C1087 C 0.51861 0.34484 0.34561 0.0
C1088 C 0.592 0.32981 0.34752 0.0
C1089 C 0.5821 0.28928 0.33481 0.0
N1090 N 0.52985 0.23796 0.31704 0.0
N1091 N 0.56723 0.39232 0.37801 0.0
C1092 C 0.54075 0.27772 0.32413 0.0
C1093 C 0.55959 0.35661 0.35681 0.0
N1094 N 0.47236 0.30023 0.30595 0.0
N1095 N 0.63227 0.3425 0.35052 0.0
H1096 H 0.54417 0.41296 0.38426 0.0
H1097 H 0.59586 0.40041 0.3913 0.0
H1098 H 0.65655 0.32356 0.3433 0.0
H1099 H 0.64134 0.37252 0.35629 0.0
H1100 H 0.46563 0.27481 0.28706 0.0
H1101 H 0.44927 0.32174 0.30583 0.0
H1102 H 0.49934 0.22784 0.31362 0.0
H1103 H 0.55055 0.21438 0.31879 0.0
C1104 C 0.6249 0.51821 0.78596 0.0
C1105 C 0.62775 0.53063 0.82848 0.0
C1106 C 0.62405 0.6015 0.80869 0.0
C1107 C 0.62766 0.58922 0.76646 0.0
N1108 N 0.63927 0.53606 0.71525 0.0
N1109 N 0.63461 0.58422 0.8809 0.0
C1110 C 0.62965 0.54761 0.75499 0.0
C1111 C 0.62846 0.57234 0.84011 0.0
N1112 N 0.61871 0.47835 0.77496 0.0
N1113 N 0.61583 0.64088 0.81864 0.0
H1114 H 0.63728 0.56394 0.90512 0.0
H1115 H 0.64014 0.61419 0.8904 0.0
H1116 H 0.61214 0.66294 0.79613 0.0
H1117 H 0.6088 0.65082 0.84864 0.0
H1118 H 0.61191 0.46849 0.74445 0.0
H1119 H 0.61678 0.45537 0.7965 0.0
H1120 H 0.6464 0.5065 0.70669 0.0
H1121 H 0.6436 0.55638 0.6914 0.0
C1122 C 0.769 0.47728 1.01926 0.0
C1123 C 0.76119 0.45366 0.98222 0.0
C1124 C 0.82104 0.41232 0.99818 0.0
C1125 C 0.82648 0.43315 0.03728 0.0
N1126 N 0.80514 0.48442 0.0863 0.0
N1127 N 0.77509 0.39416 0.94031 0.0
C1128 C 0.80025 0.46536 0.04817 0.0
C1129 C 0.78578 0.41986 0.97288 0.0
N1130 N 0.74654 0.51111 0.02681 0.0
N1131 N 0.84974 0.38574 0.98442 0.0
H1132 H 0.75031 0.39884 0.92011 0.0
H1133 H 0.78848 0.36613 0.93553 0.0
H1134 H 0.87587 0.37806 1.00144 0.0
H1135 H 0.84983 0.37397 0.95403 0.0
H1136 H 0.75382 0.53237 0.05035 0.0
H1137 H 0.72144 0.51923 1.00823 0.0
H1138 H 0.78401 0.50439 0.09864 0.0
H1139 H 0.82982 0.47907 0.10668 0.0
C1140 C 0.9614 0.48123 0.2831 0.0
C1141 C 0.92911 0.46124 0.25997 0.0
C1142 C 0.88198 0.47096 0.3174 0.0
C1143 C 0.9148 0.48966 0.34129 0.0
N1144 N 0.98767 0.50266 0.35149 0.0
N1145 N 0.8622 0.42796 0.258 0.0
C1146 C 0.95518 0.49182 0.32549 0.0
C1147 C 0.89046 0.45323 0.27804 0.0
N1148 N 0.99753 0.49097 0.26428 0.0
N1149 N 0.84238 0.47189 0.33097 0.0
H1150 H 0.86701 0.41466 0.22876 0.0
H1151 H 0.83554 0.41728 0.27193 0.0
H1152 H 0.83419 0.48369 0.35987 0.0
H1153 H 0.81693 0.46354 0.31214 0.0
H1154 H 1.02049 0.50935 0.27839 0.0
H1155 H 1.00323 0.48333 0.23322 0.0
H1156 H 1.01831 0.50134 0.34272 0.0
H1157 H 0.98421 0.50892 0.38326 0.0
C1158 C 0.7754 0.54561 0.55677 0.0
C1159 C 0.74858 0.57863 0.5585 0.0
C1160 C 0.78757 0.61419 0.50622 0.0
C1161 C 0.81639 0.5826 0.5065 0.0
N1162 N 0.84283 0.52238 0.538 0.0
N1163 N 0.73431 0.64841 0.54293 0.0
C1164 C 0.81177 0.5493 0.5334 0.0
C1165 C 0.75629 0.61419 0.53575 0.0
N1166 N 0.76583 0.51079 0.57695 0.0
N1167 N 0.78842 0.64307 0.47637 0.0
H1168 H 0.71012 0.64983 0.56358 0.0
H1169 H 0.74246 0.67651 0.53114 0.0
H1170 H 0.81032 0.64429 0.45339 0.0
H1171 H 0.76493 0.66364 0.47186 0.0
H1172 H 0.78206 0.48416 0.57332 0.0
H1173 H 0.73966 0.5077 0.59504 0.0
H1174 H 0.84283 0.49977 0.56011 0.0
H1175 H 0.87056 0.52507 0.52249 0.0
C1176 C 0.30857 0.54144 0.27818 0.0
C1177 C 0.34131 0.55551 0.25359 0.0
C1178 C 0.37567 0.49054 0.25976 0.0
C1179 C 0.34192 0.47586 0.28284 0.0
N1180 N 0.27213 0.4834 0.30536 0.0
N1181 N 0.40116 0.54097 0.21272 0.0
C1182 C 0.30704 0.50019 0.28934 0.0
C1183 C 0.37345 0.52932 0.2419 0.0
N1184 N 0.27961 0.56779 0.29176 0.0
N1185 N 0.4107 0.46856 0.25653 0.0
H1186 H 0.40132 0.56937 0.19925 0.0
H1187 H 0.42197 0.52129 0.19926 0.0
H1188 H 0.4135 0.43936 0.26757 0.0
H1189 H 0.43816 0.48034 0.24518 0.0
H1190 H 0.25737 0.56029 0.31335 0.0
H1191 H 0.28 0.59832 0.28416 0.0
H1192 H 0.24438 0.49848 0.30734 0.0
H1193 H 0.26974 0.45288 0.31281 0.0
C1194 C 0.25111 0.68913 0.99823 0.0
C1195 C 0.27027 0.6819 0.95944 0.0
C1196 C 0.33783 0.69635 0.99357 0.0
C1197 C 0.31793 0.70602 0.0315 0.0
N1198 N 0.25521 0.72558 0.06436 0.0
N1199 N 0.33114 0.69043 0.91818 0.0
C1200 C 0.27439 0.70732 0.03171 0.0
C1201 C 0.31347 0.68904 0.9564 0.0
N1202 N 0.21155 0.67603 1.00446 0.0
N1203 N 0.37954 0.69225 0.99299 0.0
H1204 H 0.31425 0.68708 0.89025 0.0
H1205 H 0.36176 0.69927 0.91418 0.0
H1206 H 0.39882 0.6988 1.01866 0.0
H1207 H 0.39469 0.68008 0.96745 0.0
H1208 H 0.19778 0.67775 0.03349 0.0
H1209 H 0.19435 0.65883 0.98245 0.0
H1210 H 0.22353 0.73007 0.06451 0.0
H1211 H 0.27167 0.74024 0.08884 0.0
C1212 C 0.20361 0.51668 0.78998 0.0
C1213 C 0.17981 0.55046 0.77857 0.0
C1214 C 0.14528 0.50978 0.72266 0.0
C1215 C 0.16944 0.47614 0.73362 0.0
N1216 N 0.22856 0.45042 0.77035 0.0
N1217 N 0.13624 0.58227 0.72783 0.0
C1218 C 0.20075 0.48045 0.7651 0.0
C1219 C 0.15332 0.54791 0.74281 0.0
N1220 N 0.22742 0.5184 0.82566 0.0
N1221 N 0.11324 0.5049 0.69448 0.0
H1222 H 0.14218 0.61067 0.7416 0.0
H1223 H 0.11986 0.58332 0.69959 0.0
H1224 H 0.1061 0.4775 0.67911 0.0
H1225 H 0.09158 0.52702 0.68882 0.0
H1226 H 0.24092 0.49316 0.83866 0.0
H1227 H 0.23195 0.54477 0.84362 0.0
H1228 H 0.25458 0.45336 0.78984 0.0
H1229 H 0.22772 0.42384 0.75225 0.0
C1230 C 0.2718 0.33858 0.49206 0.0
C1231 C 0.27889 0.37945 0.48111 0.0
C1232 C 0.24056 0.4023 0.5418 0.0
C1233 C 0.23831 0.36187 0.55553 0.0
N1234 N 0.25573 0.29175 0.54684 0.0
N1235 N 0.27613 0.4507 0.49958 0.0
C1236 C 0.255 0.32999 0.53149 0.0
C1237 C 0.26472 0.41152 0.50687 0.0
N1238 N 0.27981 0.30808 0.46413 0.0
N1239 N 0.21871 0.43177 0.56142 0.0
H1240 H 0.294 0.45918 0.47462 0.0
H1241 H 0.27092 0.47452 0.52047 0.0
H1242 H 0.20058 0.42639 0.58724 0.0
H1243 H 0.21554 0.46074 0.54976 0.0
H1244 H 0.2716 0.27792 0.46871 0.0
H1245 H 0.29094 0.31338 0.43441 0.0
H1246 H 0.27138 0.26813 0.53274 0.0
H1247 H 0.24355 0.28442 0.57562 0.0
loop_
_geom_bond_atom_site_label_1
_geom_bond_atom_site_label_2
_geom_bond_distance
_geom_bond_site_symmetry_2
_ccdc_geom_bond_type
Co0 N4 2.148 . S
Co0 N10 2.128 . S
Co0 N20 2.194 . S
Co0 O25 2.351 . S
Co0 O26 2.155 . S
Co0 O27 2.096 . S
C1 N4 1.301 . S
C1 N5 1.328 . S
C1 H6 0.930 . S
C2 C3 1.333 . S
C2 N4 1.317 . S
C2 H7 0.930 . S
C3 C2 1.333 . S
C3 N5 1.350 . S
C3 H29 0.931 . S
N4 Co0 2.148 . S
N4 C1 1.301 . S
N4 C2 1.317 . S
N5 C1 1.328 . S
N5 C3 1.350 . S
H6 C1 0.930 . S
H7 C2 0.930 . S
C8 O9 1.224 . S
C8 O27 1.247 . S
O9 C8 1.224 . S
N10 Co0 2.128 . S
N10 C11 1.355 . S
N10 C13 1.311 . S
C11 N10 1.355 . S
C11 C12 1.363 . S
C11 H23 0.929 . S
C12 C11 1.363 . S
C12 N14 1.375 . S
C12 H30 0.931 1_455 S
C13 N10 1.311 . S
C13 N14 1.347 . S
C13 H24 0.929 . S
N14 C12 1.375 . S
N14 C13 1.347 . S
C15 C18 1.365 . S
C15 N20 1.328 . S
C15 H21 0.929 . S
C16 C17 1.362 . S
C16 C19 1.378 . S
C16 H31 0.929 . S
C17 C16 1.362 . S
C17 C18 1.366 . S
C18 C15 1.365 . S
C18 C17 1.366 . S
C18 H32 0.930 . S
C19 C16 1.378 . S
C19 N20 1.315 . S
C19 H22 0.930 . S
N20 Co0 2.194 . S
N20 C15 1.328 . S
N20 C19 1.315 . S
H21 C15 0.929 . S
H22 C19 0.930 . S
H23 C11 0.929 . S
H24 C13 0.929 . S
O25 Co0 2.351 . S
O25 C28 1.244 . S
O26 Co0 2.155 . S
O26 C28 1.240 . S
O27 Co0 2.096 . S
O27 C8 1.247 . S
C28 O25 1.244 . S
C28 O26 1.240 . S
H29 C3 0.931 . S
H30 C12 0.931 1_655 S
H31 C16 0.929 . S
H32 C18 0.930 . S
Co33 N37 2.148 . S
Co33 N43 2.128 . S
Co33 N53 2.194 . S
Co33 O58 2.351 . S
Co33 O59 2.155 . S
Co33 O60 2.096 . S
C34 N37 1.301 . S
C34 N38 1.328 . S
C34 H39 0.930 . S
C35 C36 1.333 . S
C35 N37 1.317 . S
C35 H40 0.930 . S
C36 C35 1.333 . S
C36 N38 1.350 . S
C36 H62 0.931 . S
N37 Co33 2.148 . S
N37 C34 1.301 . S
N37 C35 1.317 . S
N38 C34 1.328 . S
N38 C36 1.350 . S
H39 C34 0.930 . S
H40 C35 0.930 . S
C41 O42 1.224 . S
C41 O60 1.247 . S
O42 C41 1.224 . S
N43 Co33 2.128 . S
N43 C44 1.355 . S
N43 C46 1.311 . S
C44 N43 1.355 . S
C44 C45 1.363 . S
C44 H56 0.929 . S
C45 C44 1.363 . S
C45 N47 1.375 . S
C45 H63 0.931 . S
C46 N43 1.311 . S
C46 N47 1.347 . S
C46 H57 0.929 . S
N47 C45 1.375 . S
N47 C46 1.347 . S
C48 C51 1.365 . S
C48 N53 1.328 . S
C48 H54 0.929 . S
C49 C50 1.362 . S
C49 C52 1.378 . S
C49 H64 0.929 . S
C50 C49 1.362 . S
C50 C51 1.366 . S
C51 C48 1.365 . S
C51 C50 1.366 . S
C51 H65 0.930 . S
C52 C49 1.378 . S
C52 N53 1.315 . S
C52 H55 0.930 . S
N53 Co33 2.194 . S
N53 C48 1.328 . S
N53 C52 1.315 . S
H54 C48 0.929 . S
H55 C52 0.930 . S
H56 C44 0.929 . S
H57 C46 0.929 . S
O58 Co33 2.351 . S
O58 C61 1.244 . S
O59 Co33 2.155 . S
O59 C61 1.240 . S
O60 Co33 2.096 . S
O60 C41 1.247 . S
C61 O58 1.244 . S
C61 O59 1.240 . S
H62 C36 0.931 . S
H63 C45 0.931 . S
H64 C49 0.929 . S
H65 C51 0.930 . S
Co66 N70 2.148 . S
Co66 N76 2.128 . S
Co66 N86 2.194 . S
Co66 O91 2.351 . S
Co66 O92 2.155 . S
Co66 O93 2.096 . S
C67 N70 1.301 . S
C67 N71 1.328 . S
C67 H72 0.930 . S
C68 C69 1.333 . S
C68 N70 1.317 . S
C68 H73 0.930 . S
C69 C68 1.333 . S
C69 N71 1.350 . S
C69 H95 0.931 . S
N70 Co66 2.148 . S
N70 C67 1.301 . S
N70 C68 1.317 . S
N71 C67 1.328 . S
N71 C69 1.350 . S
H72 C67 0.930 . S
H73 C68 0.930 . S
C74 O75 1.224 . S
C74 O93 1.247 . S
O75 C74 1.224 . S
N76 Co66 2.128 . S
N76 C77 1.355 . S
N76 C79 1.311 . S
C77 N76 1.355 . S
C77 C78 1.363 . S
C77 H89 0.929 . S
C78 C77 1.363 . S
C78 N80 1.375 . S
C78 H96 0.931 . S
C79 N76 1.311 . S
C79 N80 1.347 . S
C79 H90 0.929 . S
N80 C78 1.375 . S
N80 C79 1.347 . S
C81 C84 1.365 . S
C81 N86 1.328 . S
C81 H87 0.929 . S
C82 C83 1.362 . S
C82 C85 1.378 . S
C82 H97 0.929 . S
C83 C82 1.362 . S
C83 C84 1.366 . S
C84 C81 1.365 . S
C84 C83 1.366 . S
C84 H98 0.930 . S
C85 C82 1.378 . S
C85 N86 1.315 . S
C85 H88 0.930 . S
N86 Co66 2.194 . S
N86 C81 1.328 . S
N86 C85 1.315 . S
H87 C81 0.929 . S
H88 C85 0.930 . S
H89 C77 0.929 . S
H90 C79 0.929 . S
O91 Co66 2.351 . S
O91 C94 1.244 . S
O92 Co66 2.155 . S
O92 C94 1.240 . S
O93 Co66 2.096 . S
O93 C74 1.247 . S
C94 O91 1.244 . S
C94 O92 1.240 . S
H95 C69 0.931 . S
H96 C78 0.931 . S
H97 C82 0.929 . S
H98 C84 0.930 . S
Co99 N103 2.148 . S
Co99 N109 2.128 . S
Co99 N119 2.194 . S
Co99 O124 2.351 . S
Co99 O125 2.155 . S
Co99 O126 2.096 . S
C100 N103 1.301 . S
C100 N104 1.328 . S
C100 H105 0.930 . S
C101 C102 1.333 . S
C101 N103 1.317 . S
C101 H106 0.930 . S
C102 C101 1.333 . S
C102 N104 1.350 . S
C102 H128 0.931 . S
N103 Co99 2.148 . S
N103 C100 1.301 . S
N103 C101 1.317 . S
N104 C100 1.328 . S
N104 C102 1.350 . S
H105 C100 0.930 . S
H106 C101 0.930 . S
C107 O108 1.224 . S
C107 O126 1.247 . S
O108 C107 1.224 . S
N109 Co99 2.128 . S
N109 C110 1.355 . S
N109 C112 1.311 . S
C110 N109 1.355 . S
C110 C111 1.363 . S
C110 H122 0.929 . S
C111 C110 1.363 . S
C111 N113 1.375 . S
C111 H129 0.931 . S
C112 N109 1.311 . S
C112 N113 1.347 . S
C112 H123 0.929 . S
N113 C111 1.375 . S
N113 C112 1.347 . S
C114 C117 1.365 . S
C114 N119 1.328 . S
C114 H120 0.929 . S
C115 C116 1.362 . S
C115 C118 1.378 . S
C115 H130 0.929 . S
C116 C115 1.362 . S
C116 C117 1.366 . S
C117 C114 1.365 . S
C117 C116 1.366 . S
C117 H131 0.930 . S
C118 C115 1.378 . S
C118 N119 1.315 . S
C118 H121 0.930 . S
N119 Co99 2.194 . S
N119 C114 1.328 . S
N119 C118 1.315 . S
H120 C114 0.929 . S
H121 C118 0.930 . S
H122 C110 0.929 . S
H123 C112 0.929 . S
O124 Co99 2.351 . S
O124 C127 1.244 . S
O125 Co99 2.155 . S
O125 C127 1.240 . S
O126 Co99 2.096 . S
O126 C107 1.247 . S
C127 O124 1.244 . S
C127 O125 1.240 . S
H128 C102 0.931 . S
H129 C111 0.931 . S
H130 C115 0.929 . S
H131 C117 0.930 . S
Co132 N136 2.148 . S
Co132 N142 2.128 . S
Co132 N152 2.194 . S
Co132 O157 2.351 . S
Co132 O158 2.155 . S
Co132 O159 2.096 . S
C133 N136 1.301 . S
C133 N137 1.328 . S
C133 H138 0.930 . S
C134 C135 1.333 . S
C134 N136 1.317 . S
C134 H139 0.930 . S
C135 C134 1.333 . S
C135 N137 1.350 . S
C135 H161 0.931 . S
N136 Co132 2.148 . S
N136 C133 1.301 . S
N136 C134 1.317 . S
N137 C133 1.328 . S
N137 C135 1.350 . S
H138 C133 0.930 . S
H139 C134 0.930 . S
C140 O141 1.224 . S
C140 O159 1.247 . S
O141 C140 1.224 . S
N142 Co132 2.128 . S
N142 C143 1.355 . S
N142 C145 1.311 . S
C143 N142 1.355 . S
C143 C144 1.363 . S
C143 H155 0.929 . S
C144 C143 1.363 . S
C144 N146 1.375 . S
C144 H162 0.931 . S
C145 N142 1.311 . S
C145 N146 1.347 . S
C145 H156 0.929 . S
N146 C144 1.375 . S
N146 C145 1.347 . S
C147 C150 1.365 . S
C147 N152 1.328 . S
C147 H153 0.929 . S
C148 C149 1.362 . S
C148 C151 1.378 . S
C148 H163 0.929 . S
C149 C148 1.362 . S
C149 C150 1.366 . S
C150 C147 1.365 . S
C150 C149 1.366 . S
C150 H164 0.930 . S
C151 C148 1.378 . S
C151 N152 1.315 . S
C151 H154 0.930 . S
N152 Co132 2.194 . S
N152 C147 1.328 . S
N152 C151 1.315 . S
H153 C147 0.929 . S
H154 C151 0.930 . S
H155 C143 0.929 . S
H156 C145 0.929 . S
O157 Co132 2.351 . S
O157 C160 1.244 . S
O158 Co132 2.155 . S
O158 C160 1.240 . S
O159 Co132 2.096 . S
O159 C140 1.247 . S
C160 O157 1.244 . S
C160 O158 1.240 . S
H161 C135 0.931 . S
H162 C144 0.931 . S
H163 C148 0.929 . S
H164 C150 0.930 . S
Co165 N169 2.148 . S
Co165 N175 2.128 . S
Co165 N185 2.194 . S
Co165 O190 2.351 . S
Co165 O191 2.155 . S
Co165 O192 2.096 . S
C166 N169 1.301 . S
C166 N170 1.328 . S
C166 H171 0.930 . S
C167 C168 1.333 . S
C167 N169 1.317 . S
C167 H172 0.930 . S
C168 C167 1.333 . S
C168 N170 1.350 . S
C168 H194 0.931 . S
N169 Co165 2.148 . S
N169 C166 1.301 . S
N169 C167 1.317 . S
N170 C166 1.328 . S
N170 C168 1.350 . S
H171 C166 0.930 . S
H172 C167 0.930 . S
C173 O174 1.224 . S
C173 O192 1.247 . S
O174 C173 1.224 . S
N175 Co165 2.128 . S
N175 C176 1.355 . S
N175 C178 1.311 . S
C176 N175 1.355 . S
C176 C177 1.363 . S
C176 H188 0.929 . S
C177 C176 1.363 . S
C177 N179 1.375 . S
C177 H195 0.931 1_655 S
C178 N175 1.311 . S
C178 N179 1.347 . S
C178 H189 0.929 . S
N179 C177 1.375 . S
N179 C178 1.347 . S
C180 C183 1.365 . S
C180 N185 1.328 . S
C180 H186 0.929 . S
C181 C182 1.362 . S
C181 C184 1.378 . S
C181 H196 0.929 . S
C182 C181 1.362 . S
C182 C183 1.366 . S
C183 C180 1.365 . S
C183 C182 1.366 . S
C183 H197 0.930 . S
C184 C181 1.378 . S
C184 N185 1.315 . S
C184 H187 0.930 . S
N185 Co165 2.194 . S
N185 C180 1.328 . S
N185 C184 1.315 . S
H186 C180 0.929 . S
H187 C184 0.930 . S
H188 C176 0.929 . S
H189 C178 0.929 . S
O190 Co165 2.351 . S
O190 C193 1.244 . S
O191 Co165 2.155 . S
O191 C193 1.240 . S
O192 Co165 2.096 . S
O192 C173 1.247 . S
C193 O190 1.244 . S
C193 O191 1.240 . S
H194 C168 0.931 . S
H195 C177 0.931 1_455 S
H196 C181 0.929 . S
H197 C183 0.930 . S
Co198 N202 2.148 . S
Co198 N208 2.128 . S
Co198 N218 2.194 . S
Co198 O223 2.351 . S
Co198 O224 2.155 . S
Co198 O225 2.096 . S
C199 N202 1.301 . S
C199 N203 1.328 . S
C199 H204 0.930 . S
C200 C201 1.333 . S
C200 N202 1.317 . S
C200 H205 0.930 . S
C201 C200 1.333 . S
C201 N203 1.350 . S
C201 H227 0.931 . S
N202 Co198 2.148 . S
N202 C199 1.301 . S
N202 C200 1.317 . S
N203 C199 1.328 . S
N203 C201 1.350 . S
H204 C199 0.930 . S
H205 C200 0.930 . S
C206 O207 1.224 . S
C206 O225 1.247 . S
O207 C206 1.224 . S
N208 Co198 2.128 . S
N208 C209 1.355 . S
N208 C211 1.311 . S
C209 N208 1.355 . S
C209 C210 1.363 . S
C209 H221 0.929 . S
C210 C209 1.363 . S
C210 N212 1.375 . S
C210 H228 0.931 . S
C211 N208 1.311 . S
C211 N212 1.347 . S
C211 H222 0.929 . S
N212 C210 1.375 . S
N212 C211 1.347 . S
C213 C216 1.365 . S
C213 N218 1.328 . S
C213 H219 0.929 . S
C214 C215 1.362 . S
C214 C217 1.378 . S
C214 H229 0.929 . S
C215 C214 1.362 . S
C215 C216 1.366 . S
C216 C213 1.365 . S
C216 C215 1.366 . S
C216 H230 0.930 . S
C217 C214 1.378 . S
C217 N218 1.315 . S
C217 H220 0.930 . S
N218 Co198 2.194 . S
N218 C213 1.328 . S
N218 C217 1.315 . S
H219 C213 0.929 . S
H220 C217 0.930 . S
H221 C209 0.929 . S
H222 C211 0.929 . S
O223 Co198 2.351 . S
O223 C226 1.244 . S
O224 Co198 2.155 . S
O224 C226 1.240 . S
O225 Co198 2.096 . S
O225 C206 1.247 . S
C226 O223 1.244 . S
C226 O224 1.240 . S
H227 C201 0.931 . S
H228 C210 0.931 . S
H229 C214 0.929 . S
H230 C216 0.930 . S
Co231 N235 2.148 . S
Co231 N241 2.128 . S
Co231 N251 2.194 . S
Co231 O256 2.351 . S
Co231 O257 2.155 . S
Co231 O258 2.096 . S
C232 N235 1.301 . S
C232 N236 1.328 . S
C232 H237 0.930 . S
C233 C234 1.333 . S
C233 N235 1.317 . S
C233 H238 0.930 . S
C234 C233 1.333 . S
C234 N236 1.350 . S
C234 H260 0.931 1_565 S
N235 Co231 2.148 . S
N235 C232 1.301 . S
N235 C233 1.317 . S
N236 C232 1.328 . S
N236 C234 1.350 . S
H237 C232 0.930 . S
H238 C233 0.930 . S
C239 O240 1.224 . S
C239 O258 1.247 . S
O240 C239 1.224 . S
N241 Co231 2.128 . S
N241 C242 1.355 . S
N241 C244 1.311 . S
C242 N241 1.355 . S
C242 C243 1.363 . S
C242 H254 0.929 . S
C243 C242 1.363 . S
C243 N245 1.375 . S
C243 H261 0.931 . S
C244 N241 1.311 . S
C244 N245 1.347 . S
C244 H255 0.929 . S
N245 C243 1.375 . S
N245 C244 1.347 . S
C246 C249 1.365 . S
C246 N251 1.328 . S
C246 H252 0.929 . S
C247 C248 1.362 . S
C247 C250 1.378 . S
C247 H262 0.929 . S
C248 C247 1.362 . S
C248 C249 1.366 . S
C249 C246 1.365 . S
C249 C248 1.366 . S
C249 H263 0.930 . S
C250 C247 1.378 . S
C250 N251 1.315 . S
C250 H253 0.930 . S
N251 Co231 2.194 . S
N251 C246 1.328 . S
N251 C250 1.315 . S
H252 C246 0.929 . S
H253 C250 0.930 . S
H254 C242 0.929 . S
H255 C244 0.929 . S
O256 Co231 2.351 . S
O256 C259 1.244 . S
O257 Co231 2.155 . S
O257 C259 1.240 . S
O258 Co231 2.096 . S
O258 C239 1.247 . S
C259 O256 1.244 . S
C259 O257 1.240 . S
H260 C234 0.931 1_545 S
H261 C243 0.931 . S
H262 C247 0.929 . S
H263 C249 0.930 . S
Co264 N268 2.148 . S
Co264 N274 2.128 . S
Co264 N284 2.194 . S
Co264 O289 2.351 . S
Co264 O290 2.155 . S
Co264 O291 2.096 . S
C265 N268 1.301 . S
C265 N269 1.328 . S
C265 H270 0.930 . S
C266 C267 1.333 . S
C266 N268 1.317 . S
C266 H271 0.930 . S
C267 C266 1.333 . S
C267 N269 1.350 . S
C267 H293 0.931 . S
N268 Co264 2.148 . S
N268 C265 1.301 . S
N268 C266 1.317 . S
N269 C265 1.328 . S
N269 C267 1.350 . S
H270 C265 0.930 . S
H271 C266 0.930 . S
C272 O273 1.224 . S
C272 O291 1.247 . S
O273 C272 1.224 . S
N274 Co264 2.128 . S
N274 C275 1.355 . S
N274 C277 1.311 . S
C275 N274 1.355 . S
C275 C276 1.363 . S
C275 H287 0.929 . S
C276 C275 1.363 . S
C276 N278 1.375 . S
C276 H294 0.931 . S
C277 N274 1.311 . S
C277 N278 1.347 . S
C277 H288 0.929 . S
N278 C276 1.375 . S
N278 C277 1.347 . S
C279 C282 1.365 . S
C279 N284 1.328 . S
C279 H285 0.929 . S
C280 C281 1.362 . S
C280 C283 1.378 . S
C280 H295 0.929 . S
C281 C280 1.362 . S
C281 C282 1.366 . S
C282 C279 1.365 . S
C282 C281 1.366 . S
C282 H296 0.930 . S
C283 C280 1.378 . S
C283 N284 1.315 . S
C283 H286 0.930 . S
N284 Co264 2.194 . S
N284 C279 1.328 . S
N284 C283 1.315 . S
H285 C279 0.929 . S
H286 C283 0.930 . S
H287 C275 0.929 . S
H288 C277 0.929 . S
O289 Co264 2.351 . S
O289 C292 1.244 . S
O290 Co264 2.155 . S
O290 C292 1.240 . S
O291 Co264 2.096 . S
O291 C272 1.247 . S
C292 O289 1.244 . S
C292 O290 1.240 . S
H293 C267 0.931 . S
H294 C276 0.931 . S
H295 C280 0.929 . S
H296 C282 0.930 . S
Co297 N301 2.148 . S
Co297 N307 2.128 . S
Co297 N317 2.194 . S
Co297 O322 2.351 . S
Co297 O323 2.155 . S
Co297 O324 2.096 . S
C298 N301 1.301 . S
C298 N302 1.328 . S
C298 H303 0.930 . S
C299 C300 1.333 . S
C299 N301 1.317 . S
C299 H304 0.930 . S
C300 C299 1.333 . S
C300 N302 1.350 . S
C300 H326 0.931 . S
N301 Co297 2.148 . S
N301 C298 1.301 . S
N301 C299 1.317 . S
N302 C298 1.328 . S
N302 C300 1.350 . S
H303 C298 0.930 . S
H304 C299 0.930 . S
C305 O306 1.224 . S
C305 O324 1.247 . S
O306 C305 1.224 . S
N307 Co297 2.128 . S
N307 C308 1.355 . S
N307 C310 1.311 . S
C308 N307 1.355 . S
C308 C309 1.363 . S
C308 H320 0.929 . S
C309 C308 1.363 . S
C309 N311 1.375 . S
C309 H327 0.931 . S
C310 N307 1.311 . S
C310 N311 1.347 . S
C310 H321 0.929 . S
N311 C309 1.375 . S
N311 C310 1.347 . S
C312 C315 1.365 . S
C312 N317 1.328 . S
C312 H318 0.929 . S
C313 C314 1.362 . S
C313 C316 1.378 . S
C313 H328 0.929 . S
C314 C313 1.362 . S
C314 C315 1.366 . S
C315 C312 1.365 . S
C315 C314 1.366 . S
C315 H329 0.930 . S
C316 C313 1.378 . S
C316 N317 1.315 . S
C316 H319 0.930 . S
N317 Co297 2.194 . S
N317 C312 1.328 . S
N317 C316 1.315 . S
H318 C312 0.929 . S
H319 C316 0.930 . S
H320 C308 0.929 . S
H321 C310 0.929 . S
O322 Co297 2.351 . S
O322 C325 1.244 . S
O323 Co297 2.155 . S
O323 C325 1.240 . S
O324 Co297 2.096 . S
O324 C305 1.247 . S
C325 O322 1.244 . S
C325 O323 1.240 . S
H326 C300 0.931 . S
H327 C309 0.931 . S
H328 C313 0.929 . S
H329 C315 0.930 . S
Co330 N334 2.148 . S
Co330 N340 2.128 . S
Co330 N350 2.194 . S
Co330 O355 2.351 . S
Co330 O356 2.155 . S
Co330 O357 2.096 . S
C331 N334 1.301 . S
C331 N335 1.328 . S
C331 H336 0.930 . S
C332 C333 1.333 . S
C332 N334 1.317 . S
C332 H337 0.930 . S
C333 C332 1.333 . S
C333 N335 1.350 . S
C333 H359 0.931 . S
N334 Co330 2.148 . S
N334 C331 1.301 . S
N334 C332 1.317 . S
N335 C331 1.328 . S
N335 C333 1.350 . S
H336 C331 0.930 . S
H337 C332 0.930 . S
C338 O339 1.224 . S
C338 O357 1.247 . S
O339 C338 1.224 . S
N340 Co330 2.128 . S
N340 C341 1.355 . S
N340 C343 1.311 . S
C341 N340 1.355 . S
C341 C342 1.363 . S
C341 H353 0.929 . S
C342 C341 1.363 . S
C342 N344 1.375 . S
C342 H360 0.931 . S
C343 N340 1.311 . S
C343 N344 1.347 . S
C343 H354 0.929 . S
N344 C342 1.375 . S
N344 C343 1.347 . S
C345 C348 1.365 . S
C345 N350 1.328 . S
C345 H351 0.929 . S
C346 C347 1.362 . S
C346 C349 1.378 . S
C346 H361 0.929 . S
C347 C346 1.362 . S
C347 C348 1.366 . S
C348 C345 1.365 . S
C348 C347 1.366 . S
C348 H362 0.930 . S
C349 C346 1.378 . S
C349 N350 1.315 . S
C349 H352 0.930 . S
N350 Co330 2.194 . S
N350 C345 1.328 . S
N350 C349 1.315 . S
H351 C345 0.929 . S
H352 C349 0.930 . S
H353 C341 0.929 . S
H354 C343 0.929 . S
O355 Co330 2.351 . S
O355 C358 1.244 . S
O356 Co330 2.155 . S
O356 C358 1.240 . S
O357 Co330 2.096 . S
O357 C338 1.247 . S
C358 O355 1.244 . S
C358 O356 1.240 . S
H359 C333 0.931 . S
H360 C342 0.931 . S
H361 C346 0.929 . S
H362 C348 0.930 . S
Co363 N367 2.148 . S
Co363 N373 2.128 . S
Co363 N383 2.194 . S
Co363 O388 2.351 . S
Co363 O389 2.155 . S
Co363 O390 2.096 . S
C364 N367 1.301 . S
C364 N368 1.328 . S
C364 H369 0.930 . S
C365 C366 1.333 . S
C365 N367 1.317 . S
C365 H370 0.930 . S
C366 C365 1.333 . S
C366 N368 1.350 . S
C366 H392 0.931 . S
N367 Co363 2.148 . S
N367 C364 1.301 . S
N367 C365 1.317 . S
N368 C364 1.328 . S
N368 C366 1.350 . S
H369 C364 0.930 . S
H370 C365 0.930 . S
C371 O372 1.224 . S
C371 O390 1.247 . S
O372 C371 1.224 . S
N373 Co363 2.128 . S
N373 C374 1.355 . S
N373 C376 1.311 . S
C374 N373 1.355 . S
C374 C375 1.363 . S
C374 H386 0.929 . S
C375 C374 1.363 . S
C375 N377 1.375 . S
C375 H393 0.931 . S
C376 N373 1.311 . S
C376 N377 1.347 . S
C376 H387 0.929 . S
N377 C375 1.375 . S
N377 C376 1.347 . S
C378 C381 1.365 . S
C378 N383 1.328 . S
C378 H384 0.929 . S
C379 C380 1.362 . S
C379 C382 1.378 . S
C379 H394 0.929 . S
C380 C379 1.362 . S
C380 C381 1.366 . S
C381 C378 1.365 . S
C381 C380 1.366 . S
C381 H395 0.930 . S
C382 C379 1.378 . S
C382 N383 1.315 . S
C382 H385 0.930 . S
N383 Co363 2.194 . S
N383 C378 1.328 . S
N383 C382 1.315 . S
H384 C378 0.929 . S
H385 C382 0.930 . S
H386 C374 0.929 . S
H387 C376 0.929 . S
O388 Co363 2.351 . S
O388 C391 1.244 . S
O389 Co363 2.155 . S
O389 C391 1.240 . S
O390 Co363 2.096 . S
O390 C371 1.247 . S
C391 O388 1.244 . S
C391 O389 1.240 . S
H392 C366 0.931 . S
H393 C375 0.931 . S
H394 C379 0.929 . S
H395 C381 0.930 . S
Co396 N400 2.148 . S
Co396 N406 2.128 . S
Co396 N416 2.194 . S
Co396 O421 2.351 . S
Co396 O422 2.155 . S
Co396 O423 2.096 . S
C397 N400 1.301 . S
C397 N401 1.328 . S
C397 H402 0.930 . S
C398 C399 1.333 . S
C398 N400 1.317 . S
C398 H403 0.930 . S
C399 C398 1.333 . S
C399 N401 1.350 . S
C399 H425 0.931 . S
N400 Co396 2.148 . S
N400 C397 1.301 . S
N400 C398 1.317 . S
N401 C397 1.328 . S
N401 C399 1.350 . S
H402 C397 0.930 . S
H403 C398 0.930 . S
C404 O405 1.224 . S
C404 O423 1.247 . S
O405 C404 1.224 . S
N406 Co396 2.128 . S
N406 C407 1.355 . S
N406 C409 1.311 . S
C407 N406 1.355 . S
C407 C408 1.363 . S
C407 H419 0.929 . S
C408 C407 1.363 . S
C408 N410 1.375 . S
C408 H426 0.931 . S
C409 N406 1.311 . S
C409 N410 1.347 . S
C409 H420 0.929 . S
N410 C408 1.375 . S
N410 C409 1.347 . S
C411 C414 1.365 . S
C411 N416 1.328 . S
C411 H417 0.929 . S
C412 C413 1.362 . S
C412 C415 1.378 . S
C412 H427 0.929 . S
C413 C412 1.362 . S
C413 C414 1.366 . S
C414 C411 1.365 . S
C414 C413 1.366 . S
C414 H428 0.930 . S
C415 C412 1.378 . S
C415 N416 1.315 . S
C415 H418 0.930 . S
N416 Co396 2.194 . S
N416 C411 1.328 . S
N416 C415 1.315 . S
H417 C411 0.929 . S
H418 C415 0.930 . S
H419 C407 0.929 . S
H420 C409 0.929 . S
O421 Co396 2.351 . S
O421 C424 1.244 . S
O422 Co396 2.155 . S
O422 C424 1.240 . S
O423 Co396 2.096 . S
O423 C404 1.247 . S
C424 O421 1.244 . S
C424 O422 1.240 . S
H425 C399 0.931 . S
H426 C408 0.931 . S
H427 C412 0.929 . S
H428 C414 0.930 . S
Co429 N433 2.148 . S
Co429 N439 2.128 . S
Co429 N449 2.194 . S
Co429 O454 2.351 . S
Co429 O455 2.155 . S
Co429 O456 2.096 . S
C430 N433 1.301 . S
C430 N434 1.328 . S
C430 H435 0.930 . S
C431 C432 1.333 . S
C431 N433 1.317 . S
C431 H436 0.930 . S
C432 C431 1.333 . S
C432 N434 1.350 . S
C432 H458 0.931 . S
N433 Co429 2.148 . S
N433 C430 1.301 . S
N433 C431 1.317 . S
N434 C430 1.328 . S
N434 C432 1.350 . S
H435 C430 0.930 . S
H436 C431 0.930 . S
C437 O438 1.224 . S
C437 O456 1.247 . S
O438 C437 1.224 . S
N439 Co429 2.128 . S
N439 C440 1.355 . S
N439 C442 1.311 . S
C440 N439 1.355 . S
C440 C441 1.363 . S
C440 H452 0.929 . S
C441 C440 1.363 . S
C441 N443 1.375 . S
C441 H459 0.931 . S
C442 N439 1.311 . S
C442 N443 1.347 . S
C442 H453 0.929 . S
N443 C441 1.375 . S
N443 C442 1.347 . S
C444 C447 1.365 . S
C444 N449 1.328 . S
C444 H450 0.929 . S
C445 C446 1.362 . S
C445 C448 1.378 . S
C445 H460 0.929 . S
C446 C445 1.362 . S
C446 C447 1.366 . S
C447 C444 1.365 . S
C447 C446 1.366 . S
C447 H461 0.930 . S
C448 C445 1.378 . S
C448 N449 1.315 . S
C448 H451 0.930 . S
N449 Co429 2.194 . S
N449 C444 1.328 . S
N449 C448 1.315 . S
H450 C444 0.929 . S
H451 C448 0.930 . S
H452 C440 0.929 . S
H453 C442 0.929 . S
O454 Co429 2.351 . S
O454 C457 1.244 . S
O455 Co429 2.155 . S
O455 C457 1.240 . S
O456 Co429 2.096 . S
O456 C437 1.247 . S
C457 O454 1.244 . S
C457 O455 1.240 . S
H458 C432 0.931 . S
H459 C441 0.931 . S
H460 C445 0.929 . S
H461 C447 0.930 . S
Co462 N466 2.148 . S
Co462 N472 2.128 . S
Co462 N482 2.194 . S
Co462 O487 2.351 . S
Co462 O488 2.155 . S
Co462 O489 2.096 . S
C463 N466 1.301 . S
C463 N467 1.328 . S
C463 H468 0.930 . S
C464 C465 1.333 . S
C464 N466 1.317 . S
C464 H469 0.930 . S
C465 C464 1.333 . S
C465 N467 1.350 . S
C465 H491 0.931 . S
N466 Co462 2.148 . S
N466 C463 1.301 . S
N466 C464 1.317 . S
N467 C463 1.328 . S
N467 C465 1.350 . S
H468 C463 0.930 . S
H469 C464 0.930 . S
C470 O471 1.224 . S
C470 O489 1.247 . S
O471 C470 1.224 . S
N472 Co462 2.128 . S
N472 C473 1.355 . S
N472 C475 1.311 . S
C473 N472 1.355 . S
C473 C474 1.363 . S
C473 H485 0.929 . S
C474 C473 1.363 . S
C474 N476 1.375 . S
C474 H492 0.931 . S
C475 N472 1.311 . S
C475 N476 1.347 . S
C475 H486 0.929 . S
N476 C474 1.375 . S
N476 C475 1.347 . S
C477 C480 1.365 . S
C477 N482 1.328 . S
C477 H483 0.929 . S
C478 C479 1.362 . S
C478 C481 1.378 . S
C478 H493 0.929 . S
C479 C478 1.362 . S
C479 C480 1.366 . S
C480 C477 1.365 . S
C480 C479 1.366 . S
C480 H494 0.930 . S
C481 C478 1.378 . S
C481 N482 1.315 . S
C481 H484 0.930 . S
N482 Co462 2.194 . S
N482 C477 1.328 . S
N482 C481 1.315 . S
H483 C477 0.929 . S
H484 C481 0.930 . S
H485 C473 0.929 . S
H486 C475 0.929 . S
O487 Co462 2.351 . S
O487 C490 1.244 . S
O488 Co462 2.155 . S
O488 C490 1.240 . S
O489 Co462 2.096 . S
O489 C470 1.247 . S
C490 O487 1.244 . S
C490 O488 1.240 . S
H491 C465 0.931 . S
H492 C474 0.931 . S
H493 C478 0.929 . S
H494 C480 0.930 . S
Co495 N499 2.148 . S
Co495 N505 2.128 . S
Co495 N515 2.194 . S
Co495 O520 2.351 . S
Co495 O521 2.155 . S
Co495 O522 2.096 . S
C496 N499 1.301 . S
C496 N500 1.328 . S
C496 H501 0.930 . S
C497 C498 1.333 . S
C497 N499 1.317 . S
C497 H502 0.930 . S
C498 C497 1.333 . S
C498 N500 1.350 . S
C498 H524 0.931 . S
N499 Co495 2.148 . S
N499 C496 1.301 . S
N499 C497 1.317 . S
N500 C496 1.328 . S
N500 C498 1.350 . S
H501 C496 0.930 . S
H502 C497 0.930 . S
C503 O504 1.224 . S
C503 O522 1.247 . S
O504 C503 1.224 . S
N505 Co495 2.128 . S
N505 C506 1.355 . S
N505 C508 1.311 . S
C506 N505 1.355 . S
C506 C507 1.363 . S
C506 H518 0.929 . S
C507 C506 1.363 . S
C507 N509 1.375 . S
C507 H525 0.931 . S
C508 N505 1.311 . S
C508 N509 1.347 . S
C508 H519 0.929 . S
N509 C507 1.375 . S
N509 C508 1.347 . S
C510 C513 1.365 . S
C510 N515 1.328 . S
C510 H516 0.929 . S
C511 C512 1.362 . S
C511 C514 1.378 . S
C511 H526 0.929 . S
C512 C511 1.362 . S
C512 C513 1.366 . S
C513 C510 1.365 . S
C513 C512 1.366 . S
C513 H527 0.930 . S
C514 C511 1.378 . S
C514 N515 1.315 . S
C514 H517 0.930 . S
N515 Co495 2.194 . S
N515 C510 1.328 . S
N515 C514 1.315 . S
H516 C510 0.929 . S
H517 C514 0.930 . S
H518 C506 0.929 . S
H519 C508 0.929 . S
O520 Co495 2.351 . S
O520 C523 1.244 . S
O521 Co495 2.155 . S
O521 C523 1.240 . S
O522 Co495 2.096 . S
O522 C503 1.247 . S
C523 O520 1.244 . S
C523 O521 1.240 . S
H524 C498 0.931 . S
H525 C507 0.931 . S
H526 C511 0.929 . S
H527 C513 0.930 . S
C528 C529 1.363 . S
C528 C534 1.379 . S
C528 N536 1.356 . S
C529 C528 1.363 . S
C529 C535 1.363 . S
C530 C531 1.363 . S
C530 C535 1.379 . S
C530 N537 1.356 . S
C531 C530 1.363 . S
C531 C534 1.363 . S
N532 C534 1.356 . S
N532 H544 0.984 . S
N532 H545 0.985 . S
N533 C535 1.356 . S
N533 H538 0.984 . S
N533 H539 0.985 . S
C534 C528 1.379 . S
C534 C531 1.363 . S
C534 N532 1.356 . S
C535 C529 1.363 . S
C535 C530 1.379 . S
C535 N533 1.356 . S
N536 C528 1.356 . S
N536 H542 0.984 . S
N536 H543 0.984 . S
N537 C530 1.356 . S
N537 H540 0.984 . S
N537 H541 0.985 . S
H538 N533 0.984 . S
H539 N533 0.985 . S
H540 N537 0.984 . S
H541 N537 0.985 . S
H542 N536 0.984 . S
H543 N536 0.984 . S
H544 N532 0.984 . S
H545 N532 0.985 . S
C546 C547 1.363 . S
C546 C552 1.379 1_645 S
C546 N554 1.356 1_545 S
C547 C546 1.363 . S
C547 C553 1.363 1_655 S
C548 C549 1.363 . S
C548 C553 1.379 . S
C548 N555 1.356 . S
C549 C548 1.363 . S
C549 C552 1.363 1_545 S
N550 C552 1.356 . S
N550 H562 0.984 . S
N550 H563 0.985 . S
N551 C553 1.356 . S
N551 H556 0.984 1_455 S
N551 H557 0.985 . S
C552 C546 1.379 1_465 S
C552 C549 1.363 1_565 S
C552 N550 1.356 . S
C553 C547 1.363 1_455 S
C553 C548 1.379 . S
C553 N551 1.356 . S
N554 C546 1.356 1_565 S
N554 H560 0.984 . S
N554 H561 0.984 1_565 S
N555 C548 1.356 . S
N555 H558 0.984 . S
N555 H559 0.985 . S
H556 N551 0.984 1_655 S
H557 N551 0.985 . S
H558 N555 0.984 . S
H559 N555 0.985 . S
H560 N554 0.984 . S
H561 N554 0.984 1_545 S
H562 N550 0.984 . S
H563 N550 0.985 . S
C564 C565 1.363 . S
C564 C570 1.379 . S
C564 N572 1.356 . S
C565 C564 1.363 . S
C565 C571 1.363 . S
C566 C567 1.363 . S
C566 C571 1.379 . S
C566 N573 1.356 . S
C567 C566 1.363 . S
C567 C570 1.363 . S
N568 C570 1.356 . S
N568 H580 0.984 . S
N568 H581 0.985 . S
N569 C571 1.356 . S
N569 H574 0.984 . S
N569 H575 0.985 . S
C570 C564 1.379 . S
C570 C567 1.363 . S
C570 N568 1.356 . S
C571 C565 1.363 . S
C571 C566 1.379 . S
C571 N569 1.356 . S
N572 C564 1.356 . S
N572 H578 0.984 . S
N572 H579 0.984 . S
N573 C566 1.356 . S
N573 H576 0.984 . S
N573 H577 0.985 . S
H574 N569 0.984 . S
H575 N569 0.985 . S
H576 N573 0.984 . S
H577 N573 0.985 . S
H578 N572 0.984 . S
H579 N572 0.984 . S
H580 N568 0.984 . S
H581 N568 0.985 . S
C582 C583 1.363 1_554 S
C582 C588 1.379 1_545 S
C582 N590 1.356 . S
C583 C582 1.363 1_556 S
C583 C589 1.363 1_545 S
C584 C585 1.363 1_556 S
C584 C589 1.379 . S
C584 N591 1.356 . S
C585 C584 1.363 1_554 S
C585 C588 1.363 . S
N586 C588 1.356 . S
N586 H598 0.984 . S
N586 H599 0.985 . S
N587 C589 1.356 1_545 S
N587 H592 0.984 . S
N587 H593 0.985 1_545 S
C588 C582 1.379 1_565 S
C588 C585 1.363 . S
C588 N586 1.356 . S
C589 C583 1.363 1_565 S
C589 C584 1.379 . S
C589 N587 1.356 1_565 S
N590 C582 1.356 . S
N590 H596 0.984 . S
N590 H597 0.984 1_554 S
N591 C584 1.356 . S
N591 H594 0.984 1_556 S
N591 H595 0.985 . S
H592 N587 0.984 . S
H593 N587 0.985 1_565 S
H594 N591 0.984 1_554 S
H595 N591 0.985 . S
H596 N590 0.984 . S
H597 N590 0.984 1_556 S
H598 N586 0.984 . S
H599 N586 0.985 . S
C600 C601 1.363 . S
C600 C606 1.379 . S
C600 N608 1.356 . S
C601 C600 1.363 . S
C601 C607 1.363 . S
C602 C603 1.363 . S
C602 C607 1.379 . S
C602 N609 1.356 . S
C603 C602 1.363 . S
C603 C606 1.363 . S
N604 C606 1.356 . S
N604 H616 0.984 . S
N604 H617 0.985 . S
N605 C607 1.356 . S
N605 H610 0.984 . S
N605 H611 0.985 . S
C606 C600 1.379 . S
C606 C603 1.363 . S
C606 N604 1.356 . S
C607 C601 1.363 . S
C607 C602 1.379 . S
C607 N605 1.356 . S
N608 C600 1.356 . S
N608 H614 0.984 . S
N608 H615 0.984 . S
N609 C602 1.356 . S
N609 H612 0.984 . S
N609 H613 0.985 . S
H610 N605 0.984 . S
H611 N605 0.985 . S
H612 N609 0.984 . S
H613 N609 0.985 . S
H614 N608 0.984 . S
H615 N608 0.984 . S
H616 N604 0.984 . S
H617 N604 0.985 . S
C618 C619 1.363 . S
C618 C624 1.379 . S
C618 N626 1.356 . S
C619 C618 1.363 . S
C619 C625 1.363 . S
C620 C621 1.363 . S
C620 C625 1.379 1_545 S
C620 N627 1.356 . S
C621 C620 1.363 . S
C621 C624 1.363 1_545 S
N622 C624 1.356 . S
N622 H634 0.984 . S
N622 H635 0.985 . S
N623 C625 1.356 . S
N623 H628 0.984 . S
N623 H629 0.985 1_565 S
C624 C618 1.379 . S
C624 C621 1.363 1_565 S
C624 N622 1.356 . S
C625 C619 1.363 . S
C625 C620 1.379 1_565 S
C625 N623 1.356 . S
N626 C618 1.356 . S
N626 H632 0.984 . S
N626 H633 0.984 . S
N627 C620 1.356 . S
N627 H630 0.984 . S
N627 H631 0.985 . S
H628 N623 0.984 . S
H629 N623 0.985 1_545 S
H630 N627 0.984 . S
H631 N627 0.985 . S
H632 N626 0.984 . S
H633 N626 0.984 . S
H634 N622 0.984 . S
H635 N622 0.985 . S
C636 C637 1.363 . S
C636 C642 1.379 . S
C636 N644 1.356 . S
C637 C636 1.363 . S
C637 C643 1.363 . S
C638 C639 1.363 . S
C638 C643 1.379 . S
C638 N645 1.356 . S
C639 C638 1.363 . S
C639 C642 1.363 . S
N640 C642 1.356 . S
N640 H652 0.984 . S
N640 H653 0.985 . S
N641 C643 1.356 . S
N641 H646 0.984 . S
N641 H647 0.985 . S
C642 C636 1.379 . S
C642 C639 1.363 . S
C642 N640 1.356 . S
C643 C637 1.363 . S
C643 C638 1.379 . S
C643 N641 1.356 . S
N644 C636 1.356 . S
N644 H650 0.984 . S
N644 H651 0.984 . S
N645 C638 1.356 . S
N645 H648 0.984 . S
N645 H649 0.985 . S
H646 N641 0.984 . S
H647 N641 0.985 . S
H648 N645 0.984 . S
H649 N645 0.985 . S
H650 N644 0.984 . S
H651 N644 0.984 . S
H652 N640 0.984 . S
H653 N640 0.985 . S
C654 C655 1.363 1_655 S
C654 C660 1.379 1_554 S
C654 N662 1.356 . S
C655 C654 1.363 1_455 S
C655 C661 1.363 . S
C656 C657 1.381 . S
C656 C661 1.367 1_666 S
C656 N663 1.355 . S
C657 C656 1.381 . S
C657 C660 1.363 1_565 S
N658 C660 1.356 . S
N658 H670 0.984 . S
N658 H671 0.985 1_545 S
N659 C661 1.356 . S
N659 H664 0.984 . S
N659 H665 0.985 1_545 S
C660 C654 1.379 1_556 S
C660 C657 1.363 1_545 S
C660 N658 1.356 . S
C661 C655 1.363 . S
C661 C656 1.367 1_444 S
C661 N659 1.356 . S
N662 C654 1.356 . S
N662 H668 0.984 . S
N662 H669 0.984 1_655 S
N663 C656 1.355 . S
N663 H666 0.984 . S
N663 H667 0.985 1_655 S
H664 N659 0.984 . S
H665 N659 0.985 1_565 S
H666 N663 0.984 . S
H667 N663 0.985 1_455 S
H668 N662 0.984 . S
H669 N662 0.984 1_455 S
H670 N658 0.984 . S
H671 N658 0.985 1_565 S
C672 C673 1.363 . S
C672 C678 1.379 . S
C672 N680 1.356 . S
C673 C672 1.363 . S
C673 C679 1.363 . S
C674 C675 1.363 . S
C674 C679 1.379 . S
C674 N681 1.356 . S
C675 C674 1.363 . S
C675 C678 1.363 . S
N676 C678 1.356 . S
N676 H688 0.984 . S
N676 H689 0.985 . S
N677 C679 1.356 . S
N677 H682 0.984 . S
N677 H683 0.985 . S
C678 C672 1.379 . S
C678 C675 1.363 . S
C678 N676 1.356 . S
C679 C673 1.363 . S
C679 C674 1.379 . S
C679 N677 1.356 . S
N680 C672 1.356 . S
N680 H686 0.984 . S
N680 H687 0.984 . S
N681 C674 1.356 . S
N681 H684 0.984 . S
N681 H685 0.985 . S
H682 N677 0.984 . S
H683 N677 0.985 . S
H684 N681 0.984 . S
H685 N681 0.985 . S
H686 N680 0.984 . S
H687 N680 0.984 . S
H688 N676 0.984 . S
H689 N676 0.985 . S
C690 C691 1.363 . S
C690 C696 1.379 1_455 S
C690 N698 1.356 . S
C691 C690 1.363 . S
C691 C697 1.363 1_556 S
C692 C693 1.363 1_455 S
C692 C697 1.379 . S
C692 N699 1.356 . S
C693 C692 1.363 1_655 S
C693 C696 1.363 1_554 S
N694 C696 1.356 . S
N694 H706 0.984 . S
N694 H707 0.985 . S
N695 C697 1.356 . S
N695 H700 0.984 . S
N695 H701 0.985 . S
C696 C690 1.379 1_655 S
C696 C693 1.363 1_556 S
C696 N694 1.356 . S
C697 C691 1.363 1_554 S
C697 C692 1.379 . S
C697 N695 1.356 . S
N698 C690 1.356 . S
N698 H704 0.984 . S
N698 H705 0.984 . S
N699 C692 1.356 . S
N699 H702 0.984 1_455 S
N699 H703 0.985 . S
H700 N695 0.984 . S
H701 N695 0.985 . S
H702 N699 0.984 1_655 S
H703 N699 0.985 . S
H704 N698 0.984 . S
H705 N698 0.984 . S
H706 N694 0.984 . S
H707 N694 0.985 . S
C708 C709 1.363 . S
C708 C714 1.379 . S
C708 N716 1.356 . S
C709 C708 1.363 . S
C709 C715 1.363 . S
C710 C711 1.363 . S
C710 C715 1.379 . S
C710 N717 1.356 . S
C711 C710 1.363 . S
C711 C714 1.363 . S
N712 C714 1.356 . S
N712 H724 0.984 . S
N712 H725 0.985 . S
N713 C715 1.356 . S
N713 H718 0.984 . S
N713 H719 0.985 . S
C714 C708 1.379 . S
C714 C711 1.363 . S
C714 N712 1.356 . S
C715 C709 1.363 . S
C715 C710 1.379 . S
C715 N713 1.356 . S
N716 C708 1.356 . S
N716 H722 0.984 . S
N716 H723 0.984 . S
N717 C710 1.356 . S
N717 H720 0.984 . S
N717 H721 0.985 . S
H718 N713 0.984 . S
H719 N713 0.985 . S
H720 N717 0.984 . S
H721 N717 0.985 . S
H722 N716 0.984 . S
H723 N716 0.984 . S
H724 N712 0.984 . S
H725 N712 0.985 . S
C726 C727 1.363 . S
C726 C732 1.379 1_655 S
C726 N734 1.356 . S
C727 C726 1.363 . S
C727 C733 1.363 . S
C728 C729 1.363 1_655 S
C728 C733 1.379 . S
C728 N735 1.356 . S
C729 C728 1.363 1_455 S
C729 C732 1.363 . S
N730 C732 1.356 . S
N730 H742 0.984 . S
N730 H743 0.985 . S
N731 C733 1.356 . S
N731 H736 0.984 . S
N731 H737 0.985 . S
C732 C726 1.379 1_455 S
C732 C729 1.363 . S
C732 N730 1.356 . S
C733 C727 1.363 . S
C733 C728 1.379 . S
C733 N731 1.356 . S
N734 C726 1.356 . S
N734 H740 0.984 1_655 S
N734 H741 0.984 . S
N735 C728 1.356 . S
N735 H738 0.984 1_655 S
N735 H739 0.985 . S
H736 N731 0.984 . S
H737 N731 0.985 . S
H738 N735 0.984 1_455 S
H739 N735 0.985 . S
H740 N734 0.984 1_455 S
H741 N734 0.984 . S
H742 N730 0.984 . S
H743 N730 0.985 . S
C744 C745 1.363 . S
C744 C750 1.379 1_556 S
C744 N752 1.356 . S
C745 C744 1.363 . S
C745 C751 1.363 . S
C746 C747 1.363 . S
C746 C751 1.379 1_554 S
C746 N753 1.356 . S
C747 C746 1.363 . S
C747 C750 1.363 . S
N748 C750 1.356 . S
N748 H760 0.984 . S
N748 H761 0.985 . S
N749 C751 1.356 . S
N749 H754 0.984 . S
N749 H755 0.985 . S
C750 C744 1.379 1_554 S
C750 C747 1.363 . S
C750 N748 1.356 . S
C751 C745 1.363 . S
C751 C746 1.379 1_556 S
C751 N749 1.356 . S
N752 C744 1.356 . S
N752 H758 0.984 . S
N752 H759 0.984 . S
N753 C746 1.356 . S
N753 H756 0.984 . S
N753 H757 0.985 . S
H754 N749 0.984 . S
H755 N749 0.985 . S
H756 N753 0.984 . S
H757 N753 0.985 . S
H758 N752 0.984 . S
H759 N752 0.984 . S
H760 N748 0.984 . S
H761 N748 0.985 . S
C762 C763 1.363 . S
C762 C768 1.379 . S
C762 N770 1.356 . S
C763 C762 1.363 . S
C763 C769 1.363 . S
C764 C765 1.363 . S
C764 C769 1.379 . S
C764 N771 1.356 . S
C765 C764 1.363 . S
C765 C768 1.363 . S
N766 C768 1.356 . S
N766 H778 0.984 . S
N766 H779 0.985 . S
N767 C769 1.356 . S
N767 H772 0.984 . S
N767 H773 0.985 . S
C768 C762 1.379 . S
C768 C765 1.363 . S
C768 N766 1.356 . S
C769 C763 1.363 . S
C769 C764 1.379 . S
C769 N767 1.356 . S
N770 C762 1.356 . S
N770 H776 0.984 . S
N770 H777 0.984 . S
N771 C764 1.356 . S
N771 H774 0.984 . S
N771 H775 0.985 . S
H772 N767 0.984 . S
H773 N767 0.985 . S
H774 N771 0.984 . S
H775 N771 0.985 . S
H776 N770 0.984 . S
H777 N770 0.984 . S
H778 N766 0.984 . S
H779 N766 0.985 . S
C780 C781 1.363 . S
C780 C786 1.379 . S
C780 N788 1.356 . S
C781 C780 1.363 . S
C781 C787 1.363 . S
C782 C783 1.363 . S
C782 C787 1.379 . S
C782 N789 1.356 . S
C783 C782 1.363 . S
C783 C786 1.363 . S
N784 C786 1.356 . S
N784 H796 0.984 . S
N784 H797 0.985 . S
N785 C787 1.356 . S
N785 H790 0.984 . S
N785 H791 0.985 . S
C786 C780 1.379 . S
C786 C783 1.363 . S
C786 N784 1.356 . S
C787 C781 1.363 . S
C787 C782 1.379 . S
C787 N785 1.356 . S
N788 C780 1.356 . S
N788 H794 0.984 . S
N788 H795 0.984 . S
N789 C782 1.356 . S
N789 H792 0.984 . S
N789 H793 0.985 . S
H790 N785 0.984 . S
H791 N785 0.985 . S
H792 N789 0.984 . S
H793 N789 0.985 . S
H794 N788 0.984 . S
H795 N788 0.984 . S
H796 N784 0.984 . S
H797 N784 0.985 . S
C798 C799 1.363 . S
C798 C804 1.379 . S
C798 N806 1.356 . S
C799 C798 1.363 . S
C799 C805 1.363 . S
C800 C801 1.363 . S
C800 C805 1.379 . S
C800 N807 1.356 . S
C801 C800 1.363 . S
C801 C804 1.363 . S
N802 C804 1.356 . S
N802 H814 0.984 . S
N802 H815 0.985 . S
N803 C805 1.356 . S
N803 H808 0.984 . S
N803 H809 0.985 . S
C804 C798 1.379 . S
C804 C801 1.363 . S
C804 N802 1.356 . S
C805 C799 1.363 . S
C805 C800 1.379 . S
C805 N803 1.356 . S
N806 C798 1.356 . S
N806 H812 0.984 . S
N806 H813 0.984 . S
N807 C800 1.356 . S
N807 H810 0.984 . S
N807 H811 0.985 . S
H808 N803 0.984 . S
H809 N803 0.985 . S
H810 N807 0.984 . S
H811 N807 0.985 . S
H812 N806 0.984 . S
H813 N806 0.984 . S
H814 N802 0.984 . S
H815 N802 0.985 . S
C816 C817 1.363 . S
C816 C822 1.379 . S
C816 N824 1.356 . S
C817 C816 1.363 . S
C817 C823 1.364 1_545 S
C818 C819 1.363 . S
C818 C823 1.378 . S
C818 N825 1.356 . S
C819 C818 1.363 . S
C819 C822 1.363 1_565 S
N820 C822 1.356 . S
N820 H832 0.984 . S
N820 H833 0.985 1_545 S
N821 C823 1.356 1_545 S
N821 H826 0.984 . S
N821 H827 0.985 1_545 S
C822 C816 1.379 . S
C822 C819 1.363 1_545 S
C822 N820 1.356 . S
C823 C817 1.364 1_565 S
C823 C818 1.378 . S
C823 N821 1.356 1_565 S
N824 C816 1.356 . S
N824 H830 0.984 . S
N824 H831 0.984 . S
N825 C818 1.356 . S
N825 H828 0.984 . S
N825 H829 0.985 . S
H826 N821 0.984 . S
H827 N821 0.985 1_565 S
H828 N825 0.984 . S
H829 N825 0.985 . S
H830 N824 0.984 . S
H831 N824 0.984 . S
H832 N820 0.984 . S
H833 N820 0.985 1_565 S
C834 C835 1.363 . S
C834 C840 1.379 . S
C834 N842 1.356 . S
C835 C834 1.363 . S
C835 C841 1.363 . S
C836 C837 1.363 . S
C836 C841 1.379 . S
C836 N843 1.356 . S
C837 C836 1.363 . S
C837 C840 1.363 . S
N838 C840 1.356 . S
N838 H850 0.984 . S
N838 H851 0.985 . S
N839 C841 1.356 . S
N839 H844 0.984 . S
N839 H845 0.985 . S
C840 C834 1.379 . S
C840 C837 1.363 . S
C840 N838 1.356 . S
C841 C835 1.363 . S
C841 C836 1.379 . S
C841 N839 1.356 . S
N842 C834 1.356 . S
N842 H848 0.984 . S
N842 H849 0.984 . S
N843 C836 1.356 . S
N843 H846 0.984 . S
N843 H847 0.985 . S
H844 N839 0.984 . S
H845 N839 0.985 . S
H846 N843 0.984 . S
H847 N843 0.985 . S
H848 N842 0.984 . S
H849 N842 0.984 . S
H850 N838 0.984 . S
H851 N838 0.985 . S
C852 C853 1.363 1_545 S
C852 C858 1.379 . S
C852 N860 1.356 . S
C853 C852 1.363 1_565 S
C853 C859 1.363 . S
C854 C855 1.363 1_565 S
C854 C859 1.379 . S
C854 N861 1.356 . S
C855 C854 1.363 1_545 S
C855 C858 1.363 . S
N856 C858 1.356 . S
N856 H868 0.984 . S
N856 H869 0.985 . S
N857 C859 1.356 . S
N857 H862 0.984 . S
N857 H863 0.985 . S
C858 C852 1.379 . S
C858 C855 1.363 . S
C858 N856 1.356 . S
C859 C853 1.363 . S
C859 C854 1.379 . S
C859 N857 1.356 . S
N860 C852 1.356 . S
N860 H866 0.984 . S
N860 H867 0.984 1_545 S
N861 C854 1.356 . S
N861 H864 0.984 1_565 S
N861 H865 0.985 . S
H862 N857 0.984 . S
H863 N857 0.985 . S
H864 N861 0.984 1_545 S
H865 N861 0.985 . S
H866 N860 0.984 . S
H867 N860 0.984 1_565 S
H868 N856 0.984 . S
H869 N856 0.985 . S
C870 C871 1.363 . S
C870 C876 1.378 1_556 S
C870 N878 1.356 . S
C871 C870 1.363 . S
C871 C877 1.363 . S
C872 C873 1.363 . S
C872 C877 1.379 1_554 S
C872 N879 1.356 . S
C873 C872 1.363 . S
C873 C876 1.364 . S
N874 C876 1.357 . S
N874 H886 0.989 . S
N874 H887 0.985 . S
N875 C877 1.356 . S
N875 H880 0.984 . S
N875 H881 0.985 . S
C876 C870 1.378 1_554 S
C876 C873 1.364 . S
C876 N874 1.357 . S
C877 C871 1.363 . S
C877 C872 1.379 1_556 S
C877 N875 1.356 . S
N878 C870 1.356 . S
N878 H884 0.984 . S
N878 H885 0.984 . S
N879 C872 1.356 . S
N879 H882 0.984 . S
N879 H883 0.985 . S
H880 N875 0.984 . S
H881 N875 0.985 . S
H882 N879 0.984 . S
H883 N879 0.985 . S
H884 N878 0.984 . S
H885 N878 0.984 . S
H886 N874 0.989 . S
H887 N874 0.985 . S
C888 C889 1.363 . S
C888 C894 1.379 1_455 S
C888 N896 1.356 . S
C889 C888 1.363 . S
C889 C895 1.363 . S
C890 C891 1.363 . S
C890 C895 1.379 1_655 S
C890 N897 1.356 . S
C891 C890 1.363 . S
C891 C894 1.363 . S
N892 C894 1.356 . S
N892 H904 0.984 . S
N892 H905 0.985 . S
N893 C895 1.356 . S
N893 H898 0.984 . S
N893 H899 0.985 . S
C894 C888 1.379 1_655 S
C894 C891 1.363 . S
C894 N892 1.356 . S
C895 C889 1.363 . S
C895 C890 1.379 1_455 S
C895 N893 1.356 . S
N896 C888 1.356 . S
N896 H902 0.971 1_455 S
N896 H903 0.984 . S
N897 C890 1.356 . S
N897 H900 0.984 . S
N897 H901 0.985 . S
H898 N893 0.984 . S
H899 N893 0.985 . S
H900 N897 0.984 . S
H901 N897 0.985 . S
H902 N896 0.971 1_655 S
H903 N896 0.984 . S
H904 N892 0.984 . S
H905 N892 0.985 . S
C906 C907 1.363 . S
C906 C912 1.379 . S
C906 N914 1.356 . S
C907 C906 1.363 . S
C907 C913 1.363 . S
C908 C909 1.363 . S
C908 C913 1.379 . S
C908 N915 1.356 . S
C909 C908 1.363 . S
C909 C912 1.363 . S
N910 C912 1.356 . S
N910 H922 0.984 . S
N910 H923 0.985 . S
N911 C913 1.356 . S
N911 H916 0.984 . S
N911 H917 0.985 . S
C912 C906 1.379 . S
C912 C909 1.363 . S
C912 N910 1.356 . S
C913 C907 1.363 . S
C913 C908 1.379 . S
C913 N911 1.356 . S
N914 C906 1.356 . S
N914 H920 0.984 . S
N914 H921 0.984 . S
N915 C908 1.356 . S
N915 H918 0.984 . S
N915 H919 0.985 . S
H916 N911 0.984 . S
H917 N911 0.985 . S
H918 N915 0.984 . S
H919 N915 0.985 . S
H920 N914 0.984 . S
H921 N914 0.984 . S
H922 N910 0.984 . S
H923 N910 0.985 . S
C924 C925 1.363 . S
C924 C930 1.379 1_655 S
C924 N932 1.356 . S
C925 C924 1.363 . S
C925 C931 1.363 1_655 S
C926 C927 1.363 . S
C926 C931 1.379 . S
C926 N933 1.356 . S
C927 C926 1.363 . S
C927 C930 1.363 . S
N928 C930 1.356 . S
N928 H940 0.966 1_455 S
N928 H941 0.985 . S
N929 C931 1.356 1_655 S
N929 H934 0.984 . S
N929 H935 0.985 1_655 S
C930 C924 1.379 1_455 S
C930 C927 1.363 . S
C930 N928 1.356 . S
C931 C925 1.363 1_455 S
C931 C926 1.379 . S
C931 N929 1.356 1_455 S
N932 C924 1.356 . S
N932 H938 0.984 . S
N932 H939 0.984 . S
N933 C926 1.356 . S
N933 H936 0.984 . S
N933 H937 0.985 . S
H934 N929 0.984 . S
H935 N929 0.985 1_455 S
H936 N933 0.984 . S
H937 N933 0.985 . S
H938 N932 0.984 . S
H939 N932 0.984 . S
H940 N928 0.966 1_655 S
H941 N928 0.985 . S
C942 C943 1.363 . S
C942 C948 1.379 . S
C942 N950 1.356 . S
C943 C942 1.363 . S
C943 C949 1.363 . S
C944 C945 1.363 . S
C944 C949 1.379 . S
C944 N951 1.356 . S
C945 C944 1.363 . S
C945 C948 1.363 . S
N946 C948 1.356 . S
N946 H958 0.984 . S
N946 H959 0.985 . S
N947 C949 1.356 . S
N947 H952 0.984 . S
N947 H953 0.985 . S
C948 C942 1.379 . S
C948 C945 1.363 . S
C948 N946 1.356 . S
C949 C943 1.363 . S
C949 C944 1.379 . S
C949 N947 1.356 . S
N950 C942 1.356 . S
N950 H956 0.984 . S
N950 H957 0.984 . S
N951 C944 1.356 . S
N951 H954 0.984 . S
N951 H955 0.985 . S
H952 N947 0.984 . S
H953 N947 0.985 . S
H954 N951 0.984 . S
H955 N951 0.985 . S
H956 N950 0.984 . S
H957 N950 0.984 . S
H958 N946 0.984 . S
H959 N946 0.985 . S
C960 C961 1.363 . S
C960 C966 1.379 1_545 S
C960 N968 1.356 . S
C961 C960 1.363 . S
C961 C967 1.363 1_545 S
C962 C963 1.363 . S
C962 C967 1.379 . S
C962 N969 1.356 . S
C963 C962 1.363 . S
C963 C966 1.363 . S
N964 C966 1.356 . S
N964 H976 0.984 . S
N964 H977 0.985 . S
N965 C967 1.356 . S
N965 H970 0.984 1_565 S
N965 H971 0.985 . S
C966 C960 1.379 1_565 S
C966 C963 1.363 . S
C966 N964 1.356 . S
C967 C961 1.363 1_565 S
C967 C962 1.379 . S
C967 N965 1.356 . S
N968 C960 1.356 . S
N968 H974 0.984 . S
N968 H975 0.984 . S
N969 C962 1.356 . S
N969 H972 0.984 . S
N969 H973 0.985 . S
H970 N965 0.984 1_545 S
H971 N965 0.985 . S
H972 N969 0.984 . S
H973 N969 0.985 . S
H974 N968 0.984 . S
H975 N968 0.984 . S
H976 N964 0.984 . S
H977 N964 0.985 . S
C978 C979 1.363 . S
C978 C984 1.379 . S
C978 N986 1.356 . S
C979 C978 1.363 . S
C979 C985 1.363 . S
C980 C981 1.363 . S
C980 C985 1.379 . S
C980 N987 1.356 . S
C981 C980 1.363 . S
C981 C984 1.363 . S
N982 C984 1.356 . S
N982 H994 0.984 . S
N982 H995 0.985 . S
N983 C985 1.356 . S
N983 H988 0.984 . S
N983 H989 0.985 . S
C984 C978 1.379 . S
C984 C981 1.363 . S
C984 N982 1.356 . S
C985 C979 1.363 . S
C985 C980 1.379 . S
C985 N983 1.356 . S
N986 C978 1.356 . S
N986 H992 0.984 . S
N986 H993 0.984 . S
N987 C980 1.356 . S
N987 H990 0.984 . S
N987 H991 0.985 . S
H988 N983 0.984 . S
H989 N983 0.985 . S
H990 N987 0.984 . S
H991 N987 0.985 . S
H992 N986 0.984 . S
H993 N986 0.984 . S
H994 N982 0.984 . S
H995 N982 0.985 . S
C996 C997 1.363 . S
C996 C1002 1.369 1_545 S
C996 N1004 1.356 . S
C997 C996 1.363 . S
C997 C1003 1.363 1_545 S
C998 C999 1.363 . S
C998 C1003 1.379 . S
C998 N1005 1.356 . S
C999 C998 1.363 . S
C999 C1002 1.375 . S
N1000 C1002 1.359 . S
N1000 H1012 0.984 1_565 S
N1000 H1013 0.985 . S
N1001 C1003 1.356 1_545 S
N1001 H1006 0.984 . S
N1001 H1007 0.985 1_545 S
C1002 C996 1.369 1_565 S
C1002 C999 1.375 . S
C1002 N1000 1.359 . S
C1003 C997 1.363 1_565 S
C1003 C998 1.379 . S
C1003 N1001 1.356 1_565 S
N1004 C996 1.356 . S
N1004 H1010 0.984 . S
N1004 H1011 0.984 . S
N1005 C998 1.356 . S
N1005 H1008 0.984 . S
N1005 H1009 0.985 . S
H1006 N1001 0.984 . S
H1007 N1001 0.985 1_565 S
H1008 N1005 0.984 . S
H1009 N1005 0.985 . S
H1010 N1004 0.984 . S
H1011 N1004 0.984 . S
H1012 N1000 0.984 1_545 S
H1013 N1000 0.985 . S
C1014 C1015 1.363 . S
C1014 C1020 1.379 1_554 S
C1014 N1022 1.356 . S
C1015 C1014 1.363 . S
C1015 C1021 1.363 1_554 S
C1016 C1017 1.363 . S
C1016 C1021 1.379 . S
C1016 N1023 1.356 . S
C1017 C1016 1.363 . S
C1017 C1020 1.363 . S
N1018 C1020 1.356 . S
N1018 H1030 0.984 . S
N1018 H1031 0.985 . S
N1019 C1021 1.356 1_554 S
N1019 H1024 0.984 . S
N1019 H1025 0.985 1_554 S
C1020 C1014 1.379 1_556 S
C1020 C1017 1.363 . S
C1020 N1018 1.356 . S
C1021 C1015 1.363 1_556 S
C1021 C1016 1.379 . S
C1021 N1019 1.356 1_556 S
N1022 C1014 1.356 . S
N1022 H1028 0.984 . S
N1022 H1029 0.984 . S
N1023 C1016 1.356 . S
N1023 H1026 0.984 . S
N1023 H1027 0.985 . S
H1024 N1019 0.984 . S
H1025 N1019 0.985 1_556 S
H1026 N1023 0.984 . S
H1027 N1023 0.985 . S
H1028 N1022 0.984 . S
H1029 N1022 0.984 . S
H1030 N1018 0.984 . S
H1031 N1018 0.985 . S
C1032 C1033 1.363 . S
C1032 C1038 1.379 1_455 S
C1032 N1040 1.356 . S
C1033 C1032 1.363 . S
C1033 C1039 1.363 . S
C1034 C1035 1.363 1_455 S
C1034 C1039 1.379 . S
C1034 N1041 1.356 1_455 S
C1035 C1034 1.363 1_655 S
C1035 C1038 1.363 . S
N1036 C1038 1.356 . S
N1036 H1048 0.984 . S
N1036 H1049 0.985 . S
N1037 C1039 1.356 . S
N1037 H1042 0.984 . S
N1037 H1043 0.985 . S
C1038 C1032 1.379 1_655 S
C1038 C1035 1.363 . S
C1038 N1036 1.356 . S
C1039 C1033 1.363 . S
C1039 C1034 1.379 . S
C1039 N1037 1.356 . S
N1040 C1032 1.356 . S
N1040 H1046 0.984 1_455 S
N1040 H1047 0.984 . S
N1041 C1034 1.356 1_655 S
N1041 H1044 0.984 . S
N1041 H1045 0.985 1_655 S
H1042 N1037 0.984 . S
H1043 N1037 0.985 . S
H1044 N1041 0.984 . S
H1045 N1041 0.985 1_455 S
H1046 N1040 0.984 1_655 S
H1047 N1040 0.984 . S
H1048 N1036 0.984 . S
H1049 N1036 0.985 . S
C1050 C1051 1.363 . S
C1050 C1056 1.379 . S
C1050 N1058 1.356 . S
C1051 C1050 1.363 . S
C1051 C1057 1.363 . S
C1052 C1053 1.363 . S
C1052 C1057 1.379 . S
C1052 N1059 1.356 . S
C1053 C1052 1.363 . S
C1053 C1056 1.363 . S
N1054 C1056 1.356 . S
N1054 H1066 0.984 . S
N1054 H1067 0.985 . S
N1055 C1057 1.356 . S
N1055 H1060 0.984 . S
N1055 H1061 0.985 . S
C1056 C1050 1.379 . S
C1056 C1053 1.363 . S
C1056 N1054 1.356 . S
C1057 C1051 1.363 . S
C1057 C1052 1.379 . S
C1057 N1055 1.356 . S
N1058 C1050 1.356 . S
N1058 H1064 0.984 . S
N1058 H1065 0.984 . S
N1059 C1052 1.356 . S
N1059 H1062 0.984 . S
N1059 H1063 0.985 . S
H1060 N1055 0.984 . S
H1061 N1055 0.985 . S
H1062 N1059 0.984 . S
H1063 N1059 0.985 . S
H1064 N1058 0.984 . S
H1065 N1058 0.984 . S
H1066 N1054 0.984 . S
H1067 N1054 0.985 . S
C1068 C1069 1.363 1_455 S
C1068 C1074 1.379 . S
C1068 N1076 1.356 1_455 S
C1069 C1068 1.363 1_655 S
C1069 C1075 1.363 . S
C1070 C1071 1.363 . S
C1070 C1075 1.379 1_455 S
C1070 N1077 1.356 . S
C1071 C1070 1.363 . S
C1071 C1074 1.363 . S
N1072 C1074 1.356 . S
N1072 H1084 0.984 . S
N1072 H1085 0.985 . S
N1073 C1075 1.356 . S
N1073 H1078 0.984 . S
N1073 H1079 0.985 . S
C1074 C1068 1.379 . S
C1074 C1071 1.363 . S
C1074 N1072 1.356 . S
C1075 C1069 1.363 . S
C1075 C1070 1.379 1_655 S
C1075 N1073 1.356 . S
N1076 C1068 1.356 1_655 S
N1076 H1082 0.984 1_655 S
N1076 H1083 0.984 . S
N1077 C1070 1.356 . S
N1077 H1080 0.984 . S
N1077 H1081 0.985 1_455 S
H1078 N1073 0.984 . S
H1079 N1073 0.985 . S
H1080 N1077 0.984 . S
H1081 N1077 0.985 1_655 S
H1082 N1076 0.984 1_455 S
H1083 N1076 0.984 . S
H1084 N1072 0.984 . S
H1085 N1072 0.985 . S
C1086 C1087 1.363 . S
C1086 C1092 1.379 . S
C1086 N1094 1.356 . S
C1087 C1086 1.363 . S
C1087 C1093 1.363 . S
C1088 C1089 1.363 . S
C1088 C1093 1.379 . S
C1088 N1095 1.356 . S
C1089 C1088 1.363 . S
C1089 C1092 1.363 . S
N1090 C1092 1.356 . S
N1090 H1102 0.984 . S
N1090 H1103 0.985 . S
N1091 C1093 1.356 . S
N1091 H1096 0.984 . S
N1091 H1097 0.985 . S
C1092 C1086 1.379 . S
C1092 C1089 1.363 . S
C1092 N1090 1.356 . S
C1093 C1087 1.363 . S
C1093 C1088 1.379 . S
C1093 N1091 1.356 . S
N1094 C1086 1.356 . S
N1094 H1100 0.984 . S
N1094 H1101 0.984 . S
N1095 C1088 1.356 . S
N1095 H1098 0.984 . S
N1095 H1099 0.985 . S
H1096 N1091 0.984 . S
H1097 N1091 0.985 . S
H1098 N1095 0.984 . S
H1099 N1095 0.985 . S
H1100 N1094 0.984 . S
H1101 N1094 0.984 . S
H1102 N1090 0.984 . S
H1103 N1090 0.985 . S
C1104 C1105 1.363 . S
C1104 C1110 1.379 . S
C1104 N1112 1.356 . S
C1105 C1104 1.363 . S
C1105 C1111 1.363 . S
C1106 C1107 1.363 . S
C1106 C1111 1.379 . S
C1106 N1113 1.356 . S
C1107 C1106 1.363 . S
C1107 C1110 1.363 . S
N1108 C1110 1.356 . S
N1108 H1120 0.984 . S
N1108 H1121 0.985 . S
N1109 C1111 1.356 . S
N1109 H1114 0.984 . S
N1109 H1115 0.985 . S
C1110 C1104 1.379 . S
C1110 C1107 1.363 . S
C1110 N1108 1.356 . S
C1111 C1105 1.363 . S
C1111 C1106 1.379 . S
C1111 N1109 1.356 . S
N1112 C1104 1.356 . S
N1112 H1118 0.984 . S
N1112 H1119 0.984 . S
N1113 C1106 1.356 . S
N1113 H1116 0.984 . S
N1113 H1117 0.985 . S
H1114 N1109 0.984 . S
H1115 N1109 0.985 . S
H1116 N1113 0.984 . S
H1117 N1113 0.985 . S
H1118 N1112 0.984 . S
H1119 N1112 0.984 . S
H1120 N1108 0.984 . S
H1121 N1108 0.985 . S
C1122 C1123 1.363 . S
C1122 C1128 1.379 . S
C1122 N1130 1.356 . S
C1123 C1122 1.363 . S
C1123 C1129 1.363 . S
C1124 C1125 1.363 . S
C1124 C1129 1.379 1_554 S
C1124 N1131 1.356 . S
C1125 C1124 1.363 . S
C1125 C1128 1.363 1_554 S
N1126 C1128 1.356 1_554 S
N1126 H1138 0.984 1_554 S
N1126 H1139 0.985 . S
N1127 C1129 1.356 . S
N1127 H1132 0.984 . S
N1127 H1133 0.985 . S
C1128 C1122 1.379 . S
C1128 C1125 1.363 1_556 S
C1128 N1126 1.356 1_556 S
C1129 C1123 1.363 . S
C1129 C1124 1.379 1_556 S
C1129 N1127 1.356 . S
N1130 C1122 1.356 . S
N1130 H1136 0.984 . S
N1130 H1137 0.984 . S
N1131 C1124 1.356 . S
N1131 H1134 0.984 . S
N1131 H1135 0.985 . S
H1132 N1127 0.984 . S
H1133 N1127 0.985 . S
H1134 N1131 0.984 . S
H1135 N1131 0.985 . S
H1136 N1130 0.984 . S
H1137 N1130 0.984 . S
H1138 N1126 0.984 1_556 S
H1139 N1126 0.985 . S
C1140 C1141 1.363 . S
C1140 C1146 1.379 . S
C1140 N1148 1.356 . S
C1141 C1140 1.363 . S
C1141 C1147 1.363 . S
C1142 C1143 1.363 . S
C1142 C1147 1.379 . S
C1142 N1149 1.356 . S
C1143 C1142 1.363 . S
C1143 C1146 1.363 . S
N1144 C1146 1.356 . S
N1144 H1156 0.984 . S
N1144 H1157 0.985 . S
N1145 C1147 1.356 . S
N1145 H1150 0.984 . S
N1145 H1151 0.985 . S
C1146 C1140 1.379 . S
C1146 C1143 1.363 . S
C1146 N1144 1.356 . S
C1147 C1141 1.363 . S
C1147 C1142 1.379 . S
C1147 N1145 1.356 . S
N1148 C1140 1.356 . S
N1148 H1154 0.984 . S
N1148 H1155 0.984 . S
N1149 C1142 1.356 . S
N1149 H1152 0.984 . S
N1149 H1153 0.985 . S
H1150 N1145 0.984 . S
H1151 N1145 0.985 . S
H1152 N1149 0.984 . S
H1153 N1149 0.985 . S
H1154 N1148 0.984 . S
H1155 N1148 0.984 . S
H1156 N1144 0.984 . S
H1157 N1144 0.985 . S
C1158 C1159 1.363 . S
C1158 C1164 1.379 . S
C1158 N1166 1.356 . S
C1159 C1158 1.363 . S
C1159 C1165 1.363 . S
C1160 C1161 1.363 . S
C1160 C1165 1.379 . S
C1160 N1167 1.356 . S
C1161 C1160 1.363 . S
C1161 C1164 1.363 . S
N1162 C1164 1.356 . S
N1162 H1174 0.984 . S
N1162 H1175 0.985 . S
N1163 C1165 1.356 . S
N1163 H1168 0.984 . S
N1163 H1169 0.985 . S
C1164 C1158 1.379 . S
C1164 C1161 1.363 . S
C1164 N1162 1.356 . S
C1165 C1159 1.363 . S
C1165 C1160 1.379 . S
C1165 N1163 1.356 . S
N1166 C1158 1.356 . S
N1166 H1172 0.984 . S
N1166 H1173 0.984 . S
N1167 C1160 1.356 . S
N1167 H1170 0.984 . S
N1167 H1171 0.985 . S
H1168 N1163 0.984 . S
H1169 N1163 0.985 . S
H1170 N1167 0.984 . S
H1171 N1167 0.985 . S
H1172 N1166 0.984 . S
H1173 N1166 0.984 . S
H1174 N1162 0.984 . S
H1175 N1162 0.985 . S
C1176 C1177 1.363 . S
C1176 C1182 1.379 . S
C1176 N1184 1.356 . S
C1177 C1176 1.363 . S
C1177 C1183 1.363 . S
C1178 C1179 1.363 . S
C1178 C1183 1.379 . S
C1178 N1185 1.356 . S
C1179 C1178 1.363 . S
C1179 C1182 1.363 . S
N1180 C1182 1.356 . S
N1180 H1192 0.984 . S
N1180 H1193 0.985 . S
N1181 C1183 1.356 . S
N1181 H1186 0.984 . S
N1181 H1187 0.985 . S
C1182 C1176 1.379 . S
C1182 C1179 1.363 . S
C1182 N1180 1.356 . S
C1183 C1177 1.363 . S
C1183 C1178 1.379 . S
C1183 N1181 1.356 . S
N1184 C1176 1.356 . S
N1184 H1190 0.984 . S
N1184 H1191 0.984 . S
N1185 C1178 1.356 . S
N1185 H1188 0.984 . S
N1185 H1189 0.985 . S
H1186 N1181 0.984 . S
H1187 N1181 0.985 . S
H1188 N1185 0.984 . S
H1189 N1185 0.985 . S
H1190 N1184 0.984 . S
H1191 N1184 0.984 . S
H1192 N1180 0.984 . S
H1193 N1180 0.985 . S
C1194 C1195 1.363 1_554 S
C1194 C1200 1.379 . S
C1194 N1202 1.356 1_554 S
C1195 C1194 1.363 1_556 S
C1195 C1201 1.363 . S
C1196 C1197 1.363 1_556 S
C1196 C1201 1.379 . S
C1196 N1203 1.356 1_556 S
C1197 C1196 1.363 1_554 S
C1197 C1200 1.363 . S
N1198 C1200 1.356 . S
N1198 H1210 0.984 . S
N1198 H1211 0.985 . S
N1199 C1201 1.356 . S
N1199 H1204 0.984 . S
N1199 H1205 0.985 . S
C1200 C1194 1.379 . S
C1200 C1197 1.363 . S
C1200 N1198 1.356 . S
C1201 C1195 1.363 . S
C1201 C1196 1.379 . S
C1201 N1199 1.356 . S
N1202 C1194 1.356 1_556 S
N1202 H1208 0.984 1_556 S
N1202 H1209 0.984 . S
N1203 C1196 1.356 1_554 S
N1203 H1206 0.984 . S
N1203 H1207 0.985 1_554 S
H1204 N1199 0.984 . S
H1205 N1199 0.985 . S
H1206 N1203 0.984 . S
H1207 N1203 0.985 1_556 S
H1208 N1202 0.984 1_554 S
H1209 N1202 0.984 . S
H1210 N1198 0.984 . S
H1211 N1198 0.985 . S
C1212 C1213 1.363 . S
C1212 C1218 1.379 . S
C1212 N1220 1.356 . S
C1213 C1212 1.363 . S
C1213 C1219 1.363 . S
C1214 C1215 1.363 . S
C1214 C1219 1.379 . S
C1214 N1221 1.356 . S
C1215 C1214 1.363 . S
C1215 C1218 1.363 . S
N1216 C1218 1.356 . S
N1216 H1228 0.984 . S
N1216 H1229 0.985 . S
N1217 C1219 1.356 . S
N1217 H1222 0.984 . S
N1217 H1223 0.985 . S
C1218 C1212 1.379 . S
C1218 C1215 1.363 . S
C1218 N1216 1.356 . S
C1219 C1213 1.363 . S
C1219 C1214 1.379 . S
C1219 N1217 1.356 . S
N1220 C1212 1.356 . S
N1220 H1226 0.984 . S
N1220 H1227 0.984 . S
N1221 C1214 1.356 . S
N1221 H1224 0.984 . S
N1221 H1225 0.985 . S
H1222 N1217 0.984 . S
H1223 N1217 0.985 . S
H1224 N1221 0.984 . S
H1225 N1221 0.985 . S
H1226 N1220 0.984 . S
H1227 N1220 0.984 . S
H1228 N1216 0.984 . S
H1229 N1216 0.985 . S
C1230 C1231 1.363 . S
C1230 C1236 1.379 . S
C1230 N1238 1.356 . S
C1231 C1230 1.363 . S
C1231 C1237 1.363 . S
C1232 C1233 1.363 . S
C1232 C1237 1.379 . S
C1232 N1239 1.356 . S
C1233 C1232 1.363 . S
C1233 C1236 1.363 . S
N1234 C1236 1.356 . S
N1234 H1246 0.984 . S
N1234 H1247 0.985 . S
N1235 C1237 1.356 . S
N1235 H1240 0.984 . S
N1235 H1241 0.985 . S
C1236 C1230 1.379 . S
C1236 C1233 1.363 . S
C1236 N1234 1.356 . S
C1237 C1231 1.363 . S
C1237 C1232 1.379 . S
C1237 N1235 1.356 . S
N1238 C1230 1.356 . S
N1238 H1244 0.984 . S
N1238 H1245 0.984 . S
N1239 C1232 1.356 . S
N1239 H1242 0.984 . S
N1239 H1243 0.985 . S
H1240 N1235 0.984 . S
H1241 N1235 0.985 . S
H1242 N1239 0.984 . S
H1243 N1239 0.985 . S
H1244 N1238 0.984 . S
H1245 N1238 0.984 . S
H1246 N1234 0.984 . S
H1247 N1234 0.985 . S
C529 N5 1.393 . S
C531 N509 1.385 . S
C547 N278 1.931 . S
C549 N38 1.928 1_545 S
C565 N410 1.641 . S
C567 N71 1.646 . S
C583 N113 1.955 . S
C585 N344 1.948 . S
C601 N368 1.907 . S
C603 N47 1.913 . S
C619 N80 1.781 . S
C621 N311 1.773 . S
C637 N104 1.809 . S
C639 N434 1.809 . S
C655 N14 1.398 . S
C657 N236 1.393 . S
C673 N269 1.983 . S
C675 N146 2.001 . S
C691 N401 1.649 . S
C693 N179 1.641 . S
C709 N203 1.845 . S
C711 N335 1.846 . S
C727 N212 1.860 . S
C729 N443 1.851 . S
C745 N137 1.857 . S
C747 N377 1.869 . S
C763 N476 1.432 . S
C765 N245 1.425 . S
C781 N302 1.711 . S
C783 N170 1.715 . S
C799 N500 1.352 . S
C801 N467 1.352 . S
C817 C17 1.087 . S
C819 C61 1.095 . S
C835 C41 1.445 . S
C837 C74 1.445 . S
C853 C83 1.316 . S
C855 C107 1.318 . S
C871 C127 1.597 . S
C873 C8 1.591 . S
C889 C28 1.132 . S
C891 C193 1.132 . S
C907 C149 1.012 . S
C909 C116 1.013 . S
C925 C215 0.729 . S
C927 C50 0.729 . S
C943 C490 1.094 . S
C945 C94 1.096 . S
C961 C281 1.120 . S
C963 C239 1.115 . S
C979 C292 1.512 . S
C981 C305 1.513 . S
C997 C325 1.408 . S
C999 C338 1.411 . S
C1015 C347 0.921 . S
C1017 C259 0.918 . S
C1033 C413 0.824 . S
C1035 C248 0.825 . S
C1051 C371 1.404 . S
C1053 C358 1.406 . S
C1069 C272 1.458 . S
C1071 C457 1.462 . S
C1087 C512 1.002 . S
C1089 C314 1.000 . S
C1105 C160 1.517 . S
C1107 C470 1.506 . S
C1123 C140 1.587 . S
C1125 C173 1.592 . S
C1141 C182 1.139 . S
C1143 C206 1.141 . S
C1159 C479 1.134 . S
C1161 C226 1.136 . S
C1177 C380 0.999 . S
C1179 C503 0.997 . S
C1195 C424 1.469 . S
C1197 C391 1.465 . S
C1213 C404 1.431 . S
C1215 C437 1.431 . S
C1231 C523 0.850 . S
C1233 C446 0.853 . S
