# Generated by pormake.
# Topology wkf, (6)-cn, num edge types: 1
# Building blocks:
#     Node 0, Type 0, BuildingBlock: IZENUY_clean_sbu_0, # of connection points: 6
#     Node 1, Type 0, BuildingBlock: IZENUY_clean_sbu_0, # of connection points: 6
#     Node 2, Type 0, BuildingBlock: IZENUY_clean_sbu_0, # of connection points: 6
#     Node 3, Type 0, BuildingBlock: IZENUY_clean_sbu_0, # of connection points: 6
#     Node 4, Type 0, BuildingBlock: IZENUY_clean_sbu_0, # of connection points: 6
#     Node 5, Type 0, BuildingBlock: IZENUY_clean_sbu_0, # of connection points: 6
#     Node 6, Type 0, BuildingBlock: IZENUY_clean_sbu_0, # of connection points: 6
#     Node 7, Type 0, BuildingBlock: IZENUY_clean_sbu_0, # of connection points: 6
#     Node 8, Type 0, BuildingBlock: IZENUY_clean_sbu_0, # of connection points: 6
#     Node 9, Type 0, BuildingBlock: IZENUY_clean_sbu_0, # of connection points: 6
#     Node 10, Type 0, BuildingBlock: IZENUY_clean_sbu_0, # of connection points: 6
#     Node 11, Type 0, BuildingBlock: IZENUY_clean_sbu_0, # of connection points: 6
#     Edge 12, Type (0, 0), BuildingBlock: ZUJKAS_clean_linker_0, # of connection points: 2
#     Edge 13, Type (0, 0), BuildingBlock: ZUJKAS_clean_linker_0, # of connection points: 2
#     Edge 14, Type (0, 0), BuildingBlock: ZUJKAS_clean_linker_0, # of connection points: 2
#     Edge 15, Type (0, 0), BuildingBlock: ZUJKAS_clean_linker_0, # of connection points: 2
#     Edge 16, Type (0, 0), BuildingBlock: ZUJKAS_clean_linker_0, # of connection points: 2
#     Edge 17, Type (0, 0), BuildingBlock: ZUJKAS_clean_linker_0, # of connection points: 2
#     Edge 18, Type (0, 0), BuildingBlock: ZUJKAS_clean_linker_0, # of connection points: 2
#     Edge 19, Type (0, 0), BuildingBlock: ZUJKAS_clean_linker_0, # of connection points: 2
#     Edge 20, Type (0, 0), BuildingBlock: ZUJKAS_clean_linker_0, # of connection points: 2
#     Edge 21, Type (0, 0), BuildingBlock: ZUJKAS_clean_linker_0, # of connection points: 2
#     Edge 22, Type (0, 0), BuildingBlock: ZUJKAS_clean_linker_0, # of connection points: 2
#     Edge 23, Type (0, 0), BuildingBlock: ZUJKAS_clean_linker_0, # of connection points: 2
#     Edge 24, Type (0, 0), BuildingBlock: ZUJKAS_clean_linker_0, # of connection points: 2
#     Edge 25, Type (0, 0), BuildingBlock: ZUJKAS_clean_linker_0, # of connection points: 2
#     Edge 26, Type (0, 0), BuildingBlock: ZUJKAS_clean_linker_0, # of connection points: 2
#     Edge 27, Type (0, 0), BuildingBlock: ZUJKAS_clean_linker_0, # of connection points: 2
#     Edge 28, Type (0, 0), BuildingBlock: ZUJKAS_clean_linker_0, # of connection points: 2
#     Edge 29, Type (0, 0), BuildingBlock: ZUJKAS_clean_linker_0, # of connection points: 2
#     Edge 30, Type (0, 0), BuildingBlock: ZUJKAS_clean_linker_0, # of connection points: 2
#     Edge 31, Type (0, 0), BuildingBlock: ZUJKAS_clean_linker_0, # of connection points: 2
#     Edge 32, Type (0, 0), BuildingBlock: ZUJKAS_clean_linker_0, # of connection points: 2
#     Edge 33, Type (0, 0), BuildingBlock: ZUJKAS_clean_linker_0, # of connection points: 2
#     Edge 34, Type (0, 0), BuildingBlock: ZUJKAS_clean_linker_0, # of connection points: 2
#     Edge 35, Type (0, 0), BuildingBlock: ZUJKAS_clean_linker_0, # of connection points: 2
#     Edge 36, Type (0, 0), BuildingBlock: ZUJKAS_clean_linker_0, # of connection points: 2
#     Edge 37, Type (0, 0), BuildingBlock: ZUJKAS_clean_linker_0, # of connection points: 2
#     Edge 38, Type (0, 0), BuildingBlock: ZUJKAS_clean_linker_0, # of connection points: 2
#     Edge 39, Type (0, 0), BuildingBlock: ZUJKAS_clean_linker_0, # of connection points: 2
#     Edge 40, Type (0, 0), BuildingBlock: ZUJKAS_clean_linker_0, # of connection points: 2
#     Edge 41, Type (0, 0), BuildingBlock: ZUJKAS_clean_linker_0, # of connection points: 2
#     Edge 42, Type (0, 0), BuildingBlock: ZUJKAS_clean_linker_0, # of connection points: 2
#     Edge 43, Type (0, 0), BuildingBlock: ZUJKAS_clean_linker_0, # of connection points: 2
#     Edge 44, Type (0, 0), BuildingBlock: ZUJKAS_clean_linker_0, # of connection points: 2
#     Edge 45, Type (0, 0), BuildingBlock: ZUJKAS_clean_linker_0, # of connection points: 2
#     Edge 46, Type (0, 0), BuildingBlock: ZUJKAS_clean_linker_0, # of connection points: 2
#     Edge 47, Type (0, 0), BuildingBlock: ZUJKAS_clean_linker_0, # of connection points: 2
# Relax obj value: 0.283
# Max RMSD: 0.255
# Mean RMSD: 0.255
data_MOF--net-wkf--node1-IZENUY_clean_sbu_0--edge1-ZUJKAS_clean_linker_0
_symmetry_space_group_name_H-M    P1
_symmetry_Int_Tables_number       1
_symmetry_cell_setting            triclinic
loop_
_symmetry_equiv_pos_as_xyz
'x, y, z'
_cell_length_a     34.424555
_cell_length_b     34.419028
_cell_length_c     95.514746
_cell_angle_alpha  89.906838
_cell_angle_beta   89.996393
_cell_angle_gamma 120.05161
loop_
_atom_site_label
_atom_site_type_symbol
_atom_site_fract_x
_atom_site_fract_y
_atom_site_fract_z
_atom_type_partial_charge
Fe0 Fe 0.4038 0.13884 0.34837 0.0
Fe1 Fe 0.30827 0.11084 0.35741 0.0
O2 O 0.35835 0.1091 0.35993 0.0
Fe3 Fe 0.3624 0.07787 0.37397 0.0
O4 O 0.40998 0.1265 0.38125 0.0
O5 O 0.4478 0.15349 0.3617 0.0
O6 O 0.40679 0.1911 0.35269 0.0
C7 C 0.37537 0.19899 0.35068 0.0
C8 C 0.40725 0.06203 0.35158 0.0
O9 O 0.33559 0.16689 0.34913 0.0
C10 C 0.27584 0.02162 0.36702 0.0
O11 O 0.36756 0.12893 0.33299 0.0
O12 O 0.29926 0.083 0.34076 0.0
O13 O 0.39837 0.06105 0.36451 0.0
O14 O 0.40387 0.08872 0.34338 0.0
C15 C 0.32094 0.12355 0.38547 0.0
O16 O 0.27105 0.0555 0.36535 0.0
O17 O 0.31457 0.02662 0.36772 0.0
C18 C 0.32758 0.09739 0.33092 0.0
O19 O 0.31604 0.13866 0.37396 0.0
O20 O 0.32803 0.09068 0.38587 0.0
C21 C 0.44566 0.15295 0.37496 0.0
Fe22 Fe 0.27445 0.39497 0.5469 0.0
Fe23 Fe 0.27646 0.42042 0.5161 0.0
O24 O 0.25311 0.38046 0.52973 0.0
Fe25 Fe 0.20808 0.32593 0.52624 0.0
O26 O 0.1717 0.3337 0.53808 0.0
O27 O 0.21997 0.35849 0.55545 0.0
O28 O 0.25974 0.43798 0.54757 0.0
C29 C 0.27155 0.4694 0.53892 0.0
C30 C 0.26135 0.31081 0.54587 0.0
O31 O 0.28939 0.46918 0.52733 0.0
C32 C 0.26228 0.33955 0.50388 0.0
O33 O 0.33296 0.43468 0.54147 0.0
O34 O 0.33083 0.42644 0.51867 0.0
O35 O 0.22407 0.29835 0.53983 0.0
O36 O 0.28958 0.35188 0.54724 0.0
C37 C 0.18817 0.38154 0.50932 0.0
O38 O 0.26758 0.37863 0.50254 0.0
O39 O 0.24224 0.31553 0.51434 0.0
C40 C 0.35263 0.43807 0.52991 0.0
O41 O 0.2235 0.41683 0.51266 0.0
O42 O 0.18369 0.34336 0.51196 0.0
C43 C 0.18041 0.3434 0.55083 0.0
Fe44 Fe 0.92059 0.28322 0.7101 0.0
Fe45 Fe 0.85462 0.26106 0.68595 0.0
O46 O 0.8882 0.24732 0.69639 0.0
Fe47 Fe 0.88922 0.19709 0.69326 0.0
O48 O 0.86568 0.17597 0.71036 0.0
O49 O 0.91435 0.23711 0.72146 0.0
O50 O 0.87173 0.27716 0.71877 0.0
C51 C 0.84239 0.28398 0.71341 0.0
C52 C 0.9793 0.25933 0.70049 0.0
O53 O 0.8403 0.28775 0.70025 0.0
C54 C 0.89453 0.22855 0.66679 0.0
O55 O 0.93148 0.33548 0.70134 0.0
O56 O 0.90209 0.3133 0.68047 0.0
O57 O 0.94704 0.21923 0.69968 0.0
O58 O 0.97152 0.29105 0.70215 0.0
C59 C 0.79864 0.17131 0.68842 0.0
O60 O 0.86346 0.2368 0.66988 0.0
O61 O 0.91241 0.21633 0.67604 0.0
C62 C 0.92828 0.34389 0.68861 0.0
O63 O 0.80484 0.20986 0.69078 0.0
O64 O 0.83166 0.16551 0.68626 0.0
C65 C 0.88243 0.1967 0.72164 0.0
Fe66 Fe 0.56203 0.86485 0.84918 0.0
Fe67 Fe 0.64973 0.89953 0.8654 0.0
O68 O 0.59214 0.8825 0.86509 0.0
Fe69 Fe 0.56418 0.88236 0.88063 0.0
O70 O 0.51028 0.83402 0.87555 0.0
O71 O 0.52561 0.80902 0.85635 0.0
O72 O 0.59604 0.84302 0.84161 0.0
C73 C 0.61902 0.82857 0.84759 0.0
C74 C 0.52639 0.91372 0.86216 0.0
O75 O 0.63866 0.84528 0.85899 0.0
C76 C 0.64904 0.96135 0.88306 0.0
O77 O 0.59741 0.91967 0.84128 0.0
O78 O 0.6608 0.92382 0.84775 0.0
O79 O 0.54937 0.92176 0.87318 0.0
O80 O 0.52237 0.88359 0.85374 0.0
C81 C 0.61631 0.84859 0.89019 0.0
O82 O 0.66445 0.9546 0.87193 0.0
O83 O 0.61318 0.93051 0.88846 0.0
C84 C 0.63957 0.93755 0.84031 0.0
O85 O 0.64856 0.87832 0.88307 0.0
O86 O 0.57725 0.84279 0.88897 0.0
C87 C 0.50263 0.80221 0.86732 0.0
Fe88 Fe 0.70743 0.56719 0.01434 0.0
Fe89 Fe 0.78285 0.6592 0.02395 0.0
O90 O 0.72985 0.61072 0.02685 0.0
Fe91 Fe 0.69953 0.60631 0.04226 0.0
O92 O 0.69993 0.55649 0.04761 0.0
O93 O 0.67974 0.52162 0.02735 0.0
O94 O 0.75523 0.55935 0.01576 0.0
C95 C 0.79516 0.58945 0.01358 0.0
C96 C 0.63107 0.56684 0.02168 0.0
O97 O 0.80613 0.63044 0.01372 0.0
C98 C 0.73242 0.6943 0.03655 0.0
O99 O 0.73107 0.60534 -0.00075 0.0
O100 O 0.76211 0.67296 0.00846 0.0
O101 O 0.64366 0.57312 0.03433 0.0
O102 O 0.65803 0.57193 0.01204 0.0
C103 C 0.78871 0.64237 0.05148 0.0
O104 O 0.76966 0.69713 0.03365 0.0
O105 O 0.69754 0.65642 0.03784 0.0
C106 C 0.74322 0.64668 -0.00168 0.0
O107 O 0.80571 0.64749 0.03943 0.0
O108 O 0.74995 0.63749 0.05309 0.0
C109 C 0.68557 0.52129 0.04046 0.0
Fe110 Fe 0.11134 0.76708 0.19255 0.0
Fe111 Fe 0.11063 0.70175 0.21461 0.0
O112 O 0.11571 0.71955 0.19701 0.0
Fe113 Fe 0.12566 0.68944 0.18384 0.0
O114 O 0.15706 0.73756 0.17226 0.0
O115 O 0.16703 0.795 0.18483 0.0
O116 O 0.13778 0.79773 0.20867 0.0
C117 C 0.16203 0.79279 0.21766 0.0
C118 C 0.0633 0.704 0.17109 0.0
O119 O 0.15819 0.75486 0.21991 0.0
C120 C 0.06397 0.62128 0.2016 0.0
O121 O 0.05545 0.74301 0.20008 0.0
O122 O 0.07129 0.71995 0.21961 0.0
O123 O 0.0733 0.67521 0.17523 0.0
O124 O 0.08407 0.74401 0.17565 0.0
C125 C 0.18195 0.6926 0.20433 0.0
O126 O 0.06237 0.64766 0.21039 0.0
O127 O 0.09575 0.63521 0.19285 0.0
C128 C 0.04553 0.7283 0.21245 0.0
O129 O 0.14957 0.68052 0.21277 0.0
O130 O 0.17883 0.70272 0.19184 0.0
C131 C 0.1791 0.77889 0.17505 0.0
Fe132 Fe 0.8447 0.55116 0.47776 0.0
Fe133 Fe 0.86932 0.64684 0.46939 0.0
O134 O 0.86377 0.5943 0.46506 0.0
Fe135 Fe 0.87738 0.58534 0.44798 0.0
O136 O 0.82135 0.53992 0.44513 0.0
O137 O 0.8137 0.50494 0.46512 0.0
O138 O 0.79294 0.55157 0.48023 0.0
C139 C 0.7906 0.58525 0.48409 0.0
C140 C 0.90901 0.53943 0.46511 0.0
O141 O 0.82374 0.62445 0.48247 0.0
C142 C 0.94432 0.67088 0.45154 0.0
O143 O 0.87264 0.58998 0.49253 0.0
O144 O 0.9107 0.65647 0.48252 0.0
O145 O 0.89707 0.5466 0.4533 0.0
O146 O 0.89495 0.54756 0.47624 0.0
C147 C 0.83211 0.63406 0.44357 0.0
O148 O 0.91608 0.67948 0.45716 0.0
O149 O 0.93466 0.63078 0.44972 0.0
C150 C 0.90459 0.63048 0.49265 0.0
O151 O 0.82808 0.63979 0.45641 0.0
O152 O 0.85931 0.6217 0.43947 0.0
C153 C 0.80103 0.50542 0.45266 0.0
Fe154 Fe 0.26595 0.84551 0.648 0.0
Fe155 Fe 0.20809 0.88158 0.63551 0.0
O156 O 0.25369 0.87178 0.63416 0.0
Fe157 Fe 0.28718 0.88727 0.61891 0.0
O158 O 0.29968 0.84168 0.62026 0.0
O159 O 0.2545 0.79808 0.63681 0.0
O160 O 0.20862 0.81316 0.65455 0.0
C161 C 0.172 0.7995 0.64821 0.0
C162 C 0.35149 0.91121 0.63862 0.0
O163 O 0.1686 0.82246 0.63856 0.0
C164 C 0.26823 0.958 0.62178 0.0
O165 O 0.27773 0.89144 0.65954 0.0
O166 O 0.21704 0.89505 0.65438 0.0
O167 O 0.33707 0.92528 0.62882 0.0
O168 O 0.32613 0.87364 0.64434 0.0
C169 C 0.2023 0.84891 0.60795 0.0
O170 O 0.24362 0.94131 0.63239 0.0
O171 O 0.28019 0.93508 0.61456 0.0
C172 C 0.25154 0.90638 0.66194 0.0
O173 O 0.19244 0.86989 0.6169 0.0
O174 O 0.23938 0.84985 0.60838 0.0
C175 C 0.27617 0.80316 0.62562 0.0
Fe176 Fe 0.45007 0.31326 0.80955 0.0
Fe177 Fe 0.35698 0.25369 0.79681 0.0
O178 O 0.41332 0.29723 0.79502 0.0
Fe179 Fe 0.43323 0.32482 0.77878 0.0
O180 O 0.49009 0.33466 0.78119 0.0
O181 O 0.48683 0.29799 0.80043 0.0
O182 O 0.42297 0.25756 0.81761 0.0
C183 C 0.39931 0.21922 0.81222 0.0
C184 C 0.47484 0.39588 0.79645 0.0
O185 O 0.37429 0.21385 0.80191 0.0
C186 C 0.34535 0.31185 0.78035 0.0
O187 O 0.41524 0.32941 0.8194 0.0
O188 O 0.35202 0.26702 0.81503 0.0
O189 O 0.44766 0.37873 0.78642 0.0
O190 O 0.48415 0.37193 0.80422 0.0
C191 C 0.3817 0.23782 0.77009 0.0
O192 O 0.33563 0.29031 0.79173 0.0
O193 O 0.3799 0.31955 0.7735 0.0
C194 C 0.37416 0.30305 0.8219 0.0
O195 O 0.35216 0.23289 0.77892 0.0
O196 O 0.42001 0.27269 0.77009 0.0
C197 C 0.50456 0.31434 0.78871 0.0
Fe198 Fe 0.10024 0.30156 0.9648 0.0
Fe199 Fe 0.08463 0.36696 0.94724 0.0
O200 O 0.10971 0.3566 0.96183 0.0
Fe201 Fe 0.1446 0.40058 0.97324 0.0
O202 O 0.19101 0.39162 0.96996 0.0
O203 O 0.15412 0.31921 0.97362 0.0
O204 O 0.12783 0.3037 0.94845 0.0
C205 C 0.117 0.31288 0.9368 0.0
C206 C 0.0905 0.32653 0.99099 0.0
O207 O 0.08788 0.32509 0.93617 0.0
C208 C 0.07882 0.42125 0.96843 0.0
O209 O 0.04416 0.27305 0.95669 0.0
O210 O 0.02924 0.32729 0.9536 0.0
O211 O 0.12575 0.36434 0.98895 0.0
O212 O 0.07304 0.29818 0.98124 0.0
C213 C 0.16931 0.43997 0.94627 0.0
O214 O 0.07778 0.41101 0.95567 0.0
O215 O 0.10093 0.41306 0.97723 0.0
C216 C 0.01596 0.28628 0.95536 0.0
O217 O 0.13816 0.407 0.94 0.0
O218 O 0.16886 0.44382 0.95946 0.0
C219 C 0.19077 0.35567 0.97235 0.0
Fe220 Fe 0.77414 0.12366 0.13236 0.0
Fe221 Fe 0.69924 0.09819 0.11095 0.0
O222 O 0.72118 0.11681 0.12789 0.0
Fe223 Fe 0.69013 0.12785 0.14038 0.0
O224 O 0.73446 0.18507 0.14232 0.0
O225 O 0.78858 0.16956 0.1449 0.0
O226 O 0.80168 0.16604 0.11901 0.0
C227 C 0.79186 0.15918 0.10619 0.0
C228 C 0.7262 0.0829 0.15588 0.0
O229 O 0.75462 0.12623 0.10229 0.0
C230 C 0.62277 0.05253 0.12834 0.0
O231 O 0.76962 0.07897 0.12067 0.0
O232 O 0.69993 0.04668 0.11343 0.0
O233 O 0.70973 0.10866 0.15546 0.0
O234 O 0.74931 0.08155 0.14586 0.0
C235 C 0.67594 0.16189 0.11489 0.0
O236 O 0.64002 0.06739 0.11644 0.0
O237 O 0.64379 0.07126 0.13935 0.0
C238 C 0.73508 0.04515 0.11574 0.0
O239 O 0.69694 0.14817 0.10754 0.0
O240 O 0.66507 0.14897 0.12747 0.0
C241 C 0.7735 0.19623 0.14627 0.0
Fe242 Fe 0.615 0.71425 0.28484 0.0
Fe243 Fe 0.58092 0.73689 0.3113 0.0
O244 O 0.62561 0.74914 0.29959 0.0
Fe245 Fe 0.67956 0.79612 0.30256 0.0
O246 O 0.69164 0.81068 0.28394 0.0
O247 O 0.63049 0.76064 0.27298 0.0
O248 O 0.55714 0.70174 0.28279 0.0
C249 C 0.54082 0.72631 0.28595 0.0
C250 C 0.70309 0.73618 0.29264 0.0
O251 O 0.55019 0.74671 0.29754 0.0
C252 C 0.64938 0.75491 0.32929 0.0
O253 O 0.59859 0.66543 0.29592 0.0
O254 O 0.55103 0.67641 0.30809 0.0
O255 O 0.70668 0.76256 0.30232 0.0
O256 O 0.67097 0.72139 0.28406 0.0
C257 C 0.62772 0.83096 0.31103 0.0
O258 O 0.60997 0.72717 0.32534 0.0
O259 O 0.67568 0.78846 0.32175 0.0
C260 C 0.56624 0.6513 0.30442 0.0
O261 O 0.60208 0.79442 0.31709 0.0
O262 O 0.65769 0.8344 0.3028 0.0
C263 C 0.66585 0.79844 0.27338 0.0
H264 H 0.19326 0.78964 0.24371 0.0
H265 H 0.23057 0.85162 0.26029 0.0
H266 H 0.23351 0.94382 0.22908 0.0
H267 H 0.19478 0.88175 0.21259 0.0
H268 H 0.30877 0.93148 0.26096 0.0
H269 H 0.16287 0.95905 0.2602 0.0
H270 H 0.16136 0.91116 0.25203 0.0
H271 H 0.18898 0.96498 0.24347 0.0
C272 C 0.20231 0.82319 0.24033 0.0
C273 C 0.19035 0.83076 0.22696 0.0
C274 C 0.22366 0.85857 0.2498 0.0
C275 C 0.23375 0.90208 0.24601 0.0
C276 C 0.22481 0.91026 0.23233 0.0
H277 H 0.37823 0.12011 0.30693 0.0
H278 H 0.35844 0.07865 0.28482 0.0
C279 C 0.20287 0.87482 0.22292 0.0
C280 C 0.25089 0.93797 0.25669 0.0
H281 H 0.22353 0.00661 0.27463 0.0
C282 C 0.29041 0.94825 0.26389 0.0
C283 C 0.22645 0.95933 0.26057 0.0
C284 C 0.18236 0.94788 0.25377 0.0
C285 C 0.30561 0.97848 0.27514 0.0
C286 C 0.28114 -0.00021 0.279 0.0
C287 C 0.24238 0.9905 0.27153 0.0
C288 C 0.29224 0.02791 0.29169 0.0
C289 C 0.34635 0.98555 0.28321 0.0
C290 C 0.26076 0.01433 0.30259 0.0
C291 C 0.27161 0.03821 0.3151 0.0
C292 C 0.31429 0.07615 0.31699 0.0
C293 C 0.34515 0.09089 0.30583 0.0
C294 C 0.33407 0.06706 0.29324 0.0
H295 H 0.35545 0.95956 0.28075 0.0
H296 H 0.37538 0.01879 0.28046 0.0
H297 H 0.34056 0.98505 0.29467 0.0
H298 H 0.22819 0.9843 0.30157 0.0
H299 H 0.24702 0.0259 0.32346 0.0
H300 H 0.28545 0.36942 0.47688 0.0
H301 H 0.30152 0.33182 0.45784 0.0
H302 H 0.28644 0.22804 0.48644 0.0
H303 H 0.26967 0.26469 0.50541 0.0
H304 H 0.36755 0.30547 0.45499 0.0
H305 H 0.19377 0.15936 0.45572 0.0
H306 H 0.20894 0.21133 0.46457 0.0
H307 H 0.22253 0.17187 0.47222 0.0
C308 C 0.28581 0.33873 0.47911 0.0
C309 C 0.27551 0.31954 0.49255 0.0
C310 C 0.29504 0.31739 0.46826 0.0
C311 C 0.29423 0.27681 0.47075 0.0
C312 C 0.28618 0.25882 0.48429 0.0
H313 H 0.3173 0.09391 0.41237 0.0
H314 H 0.31454 0.13089 0.43398 0.0
C315 C 0.27665 0.27986 0.49509 0.0
C316 C 0.30007 0.25227 0.45908 0.0
H317 H 0.24516 0.15532 0.44028 0.0
C318 C 0.34091 0.27261 0.45177 0.0
C319 C 0.26514 0.20936 0.45501 0.0
C320 C 0.21997 0.18675 0.46219 0.0
C321 C 0.34765 0.25112 0.44037 0.0
C322 C 0.31245 0.20863 0.43618 0.0
C323 C 0.27204 0.18784 0.44366 0.0
C324 C 0.31544 0.18684 0.42333 0.0
C325 C 0.39215 0.27396 0.43282 0.0
C326 C 0.31598 0.20589 0.41033 0.0
C327 C 0.31703 0.1848 0.39804 0.0
C328 C 0.31757 0.14424 0.39856 0.0
C329 C 0.31682 0.12508 0.41164 0.0
C330 C 0.31542 0.14614 0.42397 0.0
H331 H 0.41892 0.30091 0.43927 0.0
H332 H 0.40269 0.24933 0.42995 0.0
H333 H 0.38876 0.28935 0.42302 0.0
H334 H 0.31525 0.23695 0.40969 0.0
H335 H 0.31786 0.2006 0.38814 0.0
H336 H 0.87478 0.26655 0.64471 0.0
H337 H 0.90821 0.28187 0.62128 0.0
H338 H 0.9838 0.21755 0.6326 0.0
H339 H 0.95046 0.20173 0.65587 0.0
H340 H -0.0008 0.33477 0.61664 0.0
H341 H 0.93757 0.16654 0.59376 0.0
H342 H 0.91068 0.17602 0.60856 0.0
H343 H 0.95942 0.17029 0.61107 0.0
C344 C 0.89774 0.25477 0.6421 0.0
C345 C 0.91005 0.233 0.65215 0.0
C346 C 0.9168 0.26359 0.62872 0.0
C347 C 0.94794 0.25027 0.62517 0.0
C348 C 0.95904 0.22718 0.63503 0.0
H349 H 0.1861 0.35986 0.57893 0.0
H350 H 0.12445 0.33965 0.59532 0.0
C351 C 0.94022 0.21853 0.64838 0.0
C352 C 0.97308 0.26483 0.61186 0.0
H353 H 0.00832 0.22615 0.58466 0.0
C354 C 0.00047 0.31105 0.60945 0.0
C355 C 0.97424 0.23386 0.60242 0.0
C356 C 0.94351 0.18391 0.604 0.0
C357 C 0.03143 0.32708 0.5984 0.0
C358 C 0.03535 0.29602 0.58972 0.0
C359 C 0.00566 0.24988 0.59149 0.0
C360 C 0.0724 0.31046 0.57957 0.0
C361 C 0.06054 0.37709 0.59636 0.0
C362 C 0.06339 0.30006 0.56533 0.0
C363 C 0.09855 0.31134 0.55594 0.0
C364 C 0.14327 0.33275 0.56067 0.0
C365 C 0.15209 0.34337 0.57494 0.0
C366 C 0.11694 0.33219 0.58431 0.0
H367 H 0.04437 0.39541 0.60074 0.0
H368 H 0.09284 0.3889 0.60193 0.0
H369 H 0.06789 0.38578 0.5851 0.0
H370 H 0.02915 0.28298 0.56153 0.0
H371 H 0.09059 0.30275 0.545 0.0
H372 H 0.83151 0.10692 0.72688 0.0
H373 H 0.79029 0.07115 0.74832 0.0
H374 H 0.84408 0.20097 0.76787 0.0
H375 H 0.88714 0.23679 0.74667 0.0
H376 H 0.84262 0.14344 0.78588 0.0
H377 H 0.67681 0.06608 0.76033 0.0
H378 H 0.71193 0.04862 0.75185 0.0
H379 H 0.7274 0.10702 0.7516 0.0
C380 C 0.83498 0.12778 0.73581 0.0
C381 C 0.8624 0.17464 0.73509 0.0
C382 C 0.81094 0.10737 0.74799 0.0
C383 C 0.81287 0.13349 0.75953 0.0
C384 C 0.84167 0.18017 0.75904 0.0
H385 H 0.61404 0.99046 0.82602 0.0
H386 H 0.65617 0.04519 0.8075 0.0
C387 C 0.86643 0.20057 0.74694 0.0
C388 C 0.78534 0.11186 0.77216 0.0
H389 H 0.67961 0.034 0.78256 0.0
C390 C 0.80685 0.11999 0.78518 0.0
C391 C 0.73836 0.08249 0.77139 0.0
C392 C 0.71225 0.07599 0.75806 0.0
C393 C 0.78319 0.09738 0.79728 0.0
C394 C 0.73718 0.06449 0.7962 0.0
C395 C 0.71507 0.05851 0.78336 0.0
C396 C 0.71241 0.03349 0.8079 0.0
C397 C 0.80794 0.10897 0.81106 0.0
C398 C 0.72968 0.00837 0.81411 0.0
C399 C 0.70615 0.97781 0.82474 0.0
C400 C 0.66416 0.97073 0.82917 0.0
C401 C 0.64633 0.99525 0.8228 0.0
C402 C 0.67038 0.02652 0.81226 0.0
H403 H 0.8353 0.14461 0.81119 0.0
H404 H 0.78511 0.10323 0.82002 0.0
H405 H 0.82363 0.08787 0.8125 0.0
H406 H 0.76113 0.01178 0.81056 0.0
H407 H 0.72055 0.95899 0.82927 0.0
H408 H 0.55639 0.77897 0.90683 0.0
H409 H 0.57361 0.73713 0.92419 0.0
H410 H 0.71453 0.81809 0.91453 0.0
H411 H 0.69787 0.85943 0.89715 0.0
H412 H 0.68513 0.72651 0.91636 0.0
H413 H 0.63204 0.7877 0.96239 0.0
H414 H 0.59056 0.76059 0.94893 0.0
H415 H 0.64048 0.81306 0.94528 0.0
C416 C 0.59104 0.78791 0.90845 0.0
C417 C 0.62579 0.82285 0.90071 0.0
C418 C 0.6008 0.76403 0.91836 0.0
C419 C 0.64539 0.77493 0.92072 0.0
C420 C 0.67991 0.80921 0.91286 0.0
H421 H 0.77238 0.73411 0.9915 0.0
H422 H 0.74816 0.76203 0.9718 0.0
C423 C 0.67027 0.83293 0.90296 0.0
C424 C 0.65685 0.75156 0.93154 0.0
H425 H 0.65929 0.73839 0.96687 0.0
C426 C 0.67921 0.72874 0.92741 0.0
C427 C 0.64946 0.75508 0.94592 0.0
C428 C 0.62715 0.78069 0.95098 0.0
C429 C 0.69513 0.70994 0.93733 0.0
C430 C 0.68785 0.71361 0.9517 0.0
C431 C 0.66474 0.73567 0.95581 0.0
C432 C 0.70543 0.69648 0.96277 0.0
C433 C 0.72095 0.68776 0.93238 0.0
C434 C 0.68999 0.65042 0.96405 0.0
C435 C 0.70404 0.63431 0.97526 0.0
C436 C 0.73342 0.66404 0.98543 0.0
C437 C 0.74978 0.71031 0.98386 0.0
C438 C 0.73588 0.72633 0.97263 0.0
H439 H 0.7322 0.69655 0.92134 0.0
H440 H 0.7508 0.69755 0.93908 0.0
H441 H 0.69906 0.65078 0.93306 0.0
H442 H 0.66591 0.62677 0.95667 0.0
H443 H 0.69043 0.59844 0.97625 0.0
H444 H 0.04957 0.76187 0.15525 0.0
H445 H -0.00207 0.744 0.13574 0.0
H446 H 0.95105 0.60293 0.14137 0.0
H447 H 0.00382 0.62063 0.16079 0.0
H448 H 0.96767 0.62755 0.11416 0.0
H449 H 0.86423 0.69287 0.13705 0.0
H450 H 0.92263 0.73461 0.13713 0.0
H451 H 0.90317 0.68416 0.14735 0.0
C452 C 0.02808 0.72696 0.15244 0.0
C453 C 0.0307 0.69263 0.1596 0.0
C454 C -0.00164 0.71681 0.14132 0.0
C455 C 0.97003 0.67211 0.1373 0.0
C456 C 0.97248 0.63765 0.14439 0.0
H457 H 0.7564 0.61158 0.07756 0.0
H458 H 0.79858 0.61355 0.09833 0.0
C459 C 0.0026 0.64781 0.15547 0.0
C460 C 0.93932 0.66192 0.12529 0.0
H461 H 0.85988 0.68323 0.11208 0.0
C462 C 0.94365 0.63917 0.11375 0.0
C463 C 0.90747 0.67641 0.12489 0.0
C464 C 0.89873 0.69792 0.13734 0.0
C465 C 0.91819 0.63211 0.10157 0.0
C466 C 0.88864 0.64943 0.10082 0.0
C467 C 0.88308 0.6706 0.11258 0.0
C468 C 0.86322 0.64633 0.08797 0.0
C469 C 0.92304 0.60596 0.08971 0.0
C470 C 0.88561 0.6643 0.07525 0.0
C471 C 0.86149 0.66279 0.06329 0.0
C472 C 0.81473 0.64421 0.06397 0.0
C473 C 0.79249 0.62655 0.07675 0.0
C474 C 0.8165 0.62749 0.08861 0.0
H475 H 0.93498 0.58323 0.09352 0.0
H476 H 0.89076 0.58561 0.08411 0.0
H477 H 0.94822 0.62972 0.08213 0.0
H478 H 0.92179 0.68014 0.0746 0.0
H479 H 0.87952 0.67683 0.0536 0.0
H480 H 0.20226 0.78464 0.59132 0.0
H481 H 0.14973 0.74224 0.57263 0.0
H482 H 0.07812 0.81334 0.58005 0.0
H483 H 0.12993 0.85518 0.59909 0.0
H484 H 0.02149 0.72323 0.57622 0.0
H485 H 0.1502 0.79178 0.53418 0.0
H486 H 0.16301 0.76486 0.54807 0.0
H487 H 0.16088 0.81509 0.55159 0.0
C488 C 0.17552 0.79153 0.58892 0.0
C489 C 0.17062 0.82379 0.59654 0.0
C490 C 0.14556 0.76727 0.57822 0.0
C491 C 0.1106 0.7753 0.57476 0.0
C492 C 0.10507 0.80683 0.58251 0.0
H493 H 0.9649 0.71826 0.49798 0.0
H494 H 0.01268 0.74975 0.51842 0.0
C495 C 0.13475 0.8308 0.59335 0.0
C496 C 0.08 0.75114 0.56298 0.0
H497 H 0.07782 0.73378 0.52776 0.0
C498 C 0.03372 0.72546 0.56562 0.0
C499 C 0.09612 0.75444 0.54915 0.0
C500 C 0.1452 0.78335 0.54551 0.0
C501 C 0.00302 0.7032 0.55476 0.0
C502 C 0.01924 0.70606 0.54097 0.0
C503 C 0.06554 0.73137 0.53838 0.0
C504 C 0.98879 0.6859 0.52885 0.0
C505 C 0.95348 0.67809 0.55806 0.0
C506 C 0.95945 0.63938 0.52791 0.0
C507 C 0.93162 0.62112 0.51621 0.0
C508 C 0.93314 0.64911 0.50522 0.0
C509 C 0.96282 0.69564 0.50622 0.0
C510 C 0.99025 0.71377 0.51791 0.0
H511 H 0.94623 0.6877 0.56842 0.0
H512 H 0.93424 0.68439 0.54992 0.0
H513 H 0.94134 0.64154 0.55827 0.0
H514 H 0.95849 0.61718 0.53612 0.0
H515 H 0.9094 0.58513 0.51569 0.0
H516 H 0.20742 0.95087 0.66977 0.0
H517 H 0.2287 0.00671 0.68842 0.0
H518 H 0.34036 0.98891 0.69934 0.0
H519 H 0.31924 0.9329 0.68096 0.0
H520 H 0.29216 0.99109 0.72243 0.0
H521 H 0.33782 0.13468 0.68641 0.0
H522 H 0.28198 0.08796 0.68422 0.0
H523 H 0.32941 0.08127 0.68042 0.0
C524 C 0.23626 0.95855 0.67622 0.0
C525 C 0.26166 0.93748 0.67384 0.0
C526 C 0.24857 0.99071 0.68679 0.0
C527 C 0.28653 0.00239 0.69507 0.0
C528 C 0.3111 0.98049 0.69299 0.0
H529 H 0.4338 0.23657 0.74846 0.0
H530 H 0.41171 0.17904 0.73027 0.0
C531 C 0.29889 0.94845 0.68247 0.0
C532 C 0.30108 0.03755 0.70592 0.0
H533 H 0.34002 0.14935 0.71072 0.0
C534 C 0.30262 0.0257 0.71988 0.0
C535 C 0.31544 0.08276 0.7025 0.0
C536 C 0.31655 0.0977 0.68757 0.0
C537 C 0.31754 0.0578 0.73058 0.0
C538 C 0.33062 0.10275 0.72722 0.0
C539 C 0.32974 0.11477 0.71324 0.0
C540 C 0.34419 0.13749 0.73816 0.0
C541 C 0.31973 0.04347 0.74537 0.0
C542 C 0.31335 0.13327 0.74845 0.0
C543 C 0.32577 0.16582 0.75881 0.0
C544 C 0.36928 0.20354 0.75903 0.0
C545 C 0.40009 0.20793 0.7486 0.0
C546 C 0.38753 0.17518 0.73821 0.0
H547 H 0.32022 0.01144 0.74561 0.0
H548 H 0.34998 0.06962 0.75087 0.0
H549 H 0.28967 0.0383 0.75123 0.0
H550 H 0.27948 0.10485 0.74843 0.0
H551 H 0.30107 0.16138 0.76662 0.0
H552 H 0.17117 0.27682 0.93299 0.0
H553 H 0.21874 0.28681 0.91275 0.0
H554 H 0.16867 0.36435 0.89198 0.0
H555 H 0.11995 0.3533 0.91195 0.0
H556 H 0.17205 0.3071 0.87449 0.0
H557 H 0.33423 0.39807 0.90214 0.0
H558 H 0.29779 0.34554 0.91058 0.0
H559 H 0.28222 0.3883 0.90986 0.0
C560 C 0.16994 0.29558 0.92405 0.0
C561 C 0.14167 0.31407 0.92404 0.0
C562 C 0.19762 0.30183 0.91258 0.0
C563 C 0.19815 0.32741 0.90104 0.0
C564 C 0.16907 0.34486 0.90084 0.0
H565 H 0.39956 0.38307 0.83514 0.0
H566 H 0.3584 0.39664 0.85375 0.0
C567 C 0.14099 0.33818 0.91222 0.0
C568 C 0.22762 0.33412 0.88892 0.0
H569 H 0.33499 0.36339 0.88017 0.0
C570 C 0.2078 0.32008 0.8757 0.0
C571 C 0.27451 0.35249 0.89038 0.0
C572 C 0.29849 0.37246 0.90398 0.0
C573 C 0.23308 0.32092 0.8641 0.0
C574 C 0.27899 0.33473 0.86592 0.0
C575 C 0.29955 0.35187 0.87888 0.0
C576 C 0.30477 0.32744 0.85489 0.0
C577 C 0.21008 0.30625 0.85008 0.0
C578 C 0.28891 0.28397 0.84974 0.0
C579 C 0.3119 0.27626 0.83915 0.0
C580 C 0.35183 0.31176 0.83365 0.0
C581 C 0.36881 0.35512 0.83918 0.0
C582 C 0.34534 0.36292 0.84975 0.0
H583 H 0.18171 0.31287 0.84927 0.0
H584 H 0.23378 0.32369 0.84132 0.0
H585 H 0.19611 0.26956 0.84888 0.0
H586 H 0.25851 0.25586 0.8539 0.0
H587 H 0.29829 0.24233 0.83528 0.0
H588 H 0.88016 0.22141 0.11076 0.0
H589 H 0.93876 0.2609 0.09319 0.0
H590 H 0.84147 0.1966 0.06029 0.0
H591 H 0.78255 0.1569 0.07774 0.0
H592 H 0.96197 0.21618 0.07226 0.0
H593 H 0.91072 0.33174 0.04917 0.0
H594 H 0.89182 0.30609 0.0662 0.0
H595 H 0.86609 0.27447 0.05059 0.0
C596 C 0.87104 0.21603 0.09979 0.0
C597 C 0.82667 0.18581 0.09564 0.0
C598 C 0.90461 0.23863 0.08978 0.0
C599 C 0.89427 0.23193 0.07549 0.0
C600 C 0.84991 0.2027 0.0713 0.0
H601 H 0.03009 0.2435 0.00092 0.0
H602 H 0.98906 0.22527 0.02302 0.0
C603 C 0.81636 0.17984 0.08128 0.0
C604 C 0.93027 0.25273 0.0649 0.0
H605 H 0.96294 0.3199 0.03594 0.0
C606 C 0.96266 0.2394 0.06444 0.0
C607 C 0.93127 0.28334 0.05483 0.0
C608 C 0.89838 0.30015 0.05525 0.0
C609 C -0.0053 0.25411 0.05369 0.0
C610 C -0.00599 0.28261 0.04316 0.0
C611 C 0.96315 0.29783 0.04403 0.0
C612 C 0.02226 0.29374 0.0305 0.0
C613 C 0.0284 0.2383 0.05349 0.0
C614 C 0.05455 0.33833 0.02744 0.0
C615 C 0.07833 0.3489 0.01482 0.0
C616 C 0.06951 0.31506 0.005 0.0
C617 C 0.03769 0.27033 0.00826 0.0
C618 C 0.01436 0.25979 0.02091 0.0
H619 H 0.03225 0.22672 0.06399 0.0
H620 H 0.0168 0.2097 0.04612 0.0
H621 H 0.0617 0.26544 0.04985 0.0
H622 H 0.06075 0.36497 0.03471 0.0
H623 H 0.10233 0.38372 0.01254 0.0
H624 H 0.72839 0.88788 0.27224 0.0
H625 H 0.74045 0.94035 0.25319 0.0
H626 H 0.64023 0.83162 0.22841 0.0
H627 H 0.62706 0.77918 0.24749 0.0
H628 H 0.76712 0.94496 0.22636 0.0
H629 H 0.5952 0.91977 0.22777 0.0
H630 H 0.61663 0.8991 0.24136 0.0
H631 H 0.59525 0.86814 0.22532 0.0
C632 C 0.70913 0.87507 0.2627 0.0
C633 C 0.67659 0.8294 0.26141 0.0
C634 C 0.71597 0.90512 0.25185 0.0
C635 C 0.69046 0.89002 0.23954 0.0
C636 C 0.65933 0.84417 0.23799 0.0
H637 H 0.74566 0.01576 0.15882 0.0
H638 H 0.73834 0.97211 0.17977 0.0
C639 C 0.65215 0.81419 0.24886 0.0
C640 C 0.69654 0.92209 0.22825 0.0
H641 H 0.63951 0.95777 0.20765 0.0
C642 C 0.73933 0.94809 0.22234 0.0
C643 C 0.66043 0.92682 0.22324 0.0
C644 C 0.61442 0.90233 0.22985 0.0
C645 C 0.74665 0.9775 0.21118 0.0
C646 C 0.70992 0.98004 0.20558 0.0
C647 C 0.6675 0.95532 0.21184 0.0
C648 C 0.71443 0.00691 0.19294 0.0
C649 C 0.79371 0.00569 0.20556 0.0
C650 C 0.7018 0.03987 0.19325 0.0
C651 C 0.7053 0.06454 0.18119 0.0
C652 C 0.72158 0.05663 0.16865 0.0
C653 C 0.73361 0.02315 0.16836 0.0
C654 C 0.72974 -0.00166 0.18036 0.0
H655 H 0.81919 0.01082 0.21359 0.0
H656 H 0.79846 0.98819 0.19654 0.0
H657 H 0.79997 0.03903 0.20195 0.0
H658 H 0.68948 0.04668 0.20284 0.0
H659 H 0.69565 0.09 0.18174 0.0
H660 H 0.77482 0.66629 0.44828 0.0
H661 H 0.7375 0.68824 0.43074 0.0
H662 H 0.80018 0.65349 0.39777 0.0
H663 H 0.83712 0.63101 0.41512 0.0
H664 H 0.77686 0.75387 0.40954 0.0
H665 H 0.66654 0.58443 0.38754 0.0
H666 H 0.69483 0.59321 0.40413 0.0
H667 H 0.72455 0.59951 0.38803 0.0
C668 C 0.78049 0.66311 0.4373 0.0
C669 C 0.80885 0.64677 0.4331 0.0
C670 C 0.75922 0.67573 0.42731 0.0
C671 C 0.7657 0.67188 0.41301 0.0
C672 C 0.79414 0.65589 0.40879 0.0
H673 H 0.73515 0.79526 0.33937 0.0
H674 H 0.76058 0.77801 0.36117 0.0
C675 C 0.81537 0.64326 0.41873 0.0
C676 C 0.74356 0.68535 0.40238 0.0
H677 H 0.67567 0.64651 0.37377 0.0
C678 C 0.75427 0.73038 0.4018 0.0
C679 C 0.71359 0.65441 0.39248 0.0
C680 C 0.6988 0.60509 0.39313 0.0
C681 C 0.73721 0.74573 0.39114 0.0
C682 C 0.70945 0.7153 0.38073 0.0
C683 C 0.6973 0.6699 0.38169 0.0
C684 C 0.69384 0.72973 0.36841 0.0
C685 C 0.74913 0.7943 0.39113 0.0
C686 C 0.64795 0.70809 0.36521 0.0
C687 C 0.6334 0.71733 0.35267 0.0
C688 C 0.66452 0.74851 0.34312 0.0
C689 C 0.71035 0.77133 0.34657 0.0
C690 C 0.72492 0.76174 0.35907 0.0
H691 H 0.75786 0.80891 0.40182 0.0
H692 H 0.77884 0.81386 0.38432 0.0
H693 H 0.72106 0.79821 0.38706 0.0
H694 H 0.62346 0.68315 0.37226 0.0
H695 H 0.59782 0.69932 0.35036 0.0
H696 H 0.63138 0.89367 0.29276 0.0
H697 H 0.6049 0.94691 0.29742 0.0
H698 H 0.58445 0.90679 0.34085 0.0
H699 H 0.60995 0.85351 0.33622 0.0
H700 H 0.51422 0.90917 0.30855 0.0
H701 H 0.64018 0.04544 0.34203 0.0
H702 H 0.65427 0.01305 0.33034 0.0
H703 H 0.62893 0.99044 0.34706 0.0
C704 C 0.62265 0.89753 0.30336 0.0
C705 C 0.62236 0.86965 0.31415 0.0
C706 C 0.6075 0.9277 0.306 0.0
C707 C 0.59319 0.93088 0.31949 0.0
C708 C 0.5961 0.90531 0.33043 0.0
H709 H 0.4378 0.01431 0.36639 0.0
H710 H 0.48225 0.98232 0.35727 0.0
C711 C 0.61037 0.87475 0.32776 0.0
C712 C 0.56826 0.95465 0.32194 0.0
H713 H 0.56443 0.03106 0.34365 0.0
C714 C 0.52543 0.93653 0.31598 0.0
C715 C 0.58301 0.9898 0.33175 0.0
C716 C 0.6293 0.01114 0.33809 0.0
C717 C 0.49576 0.95094 0.32023 0.0
C718 C 0.50992 0.98499 0.33047 0.0
C719 C 0.55354 0.00451 0.33594 0.0
C720 C 0.47997 0.00079 0.33574 0.0
C721 C 0.44886 0.92801 0.31425 0.0
C722 C 0.46346 0.02088 0.32658 0.0
C723 C 0.43775 0.0386 0.3317 0.0
C724 C 0.4287 0.03723 0.34613 0.0
C725 C 0.44412 0.0158 0.35524 0.0
C726 C 0.46971 -0.00218 0.35007 0.0
H727 H 0.43975 0.89515 0.30945 0.0
H728 H 0.42374 0.92249 0.32246 0.0
H729 H 0.44683 0.94958 0.30598 0.0
H730 H 0.47158 0.02411 0.31553 0.0
H731 H 0.42628 0.05476 0.32437 0.0
H732 H 0.41564 0.47816 0.55093 0.0
H733 H 0.49791 0.51686 0.54837 0.0
H734 H 0.48286 0.4854 0.50433 0.0
H735 H 0.40195 0.44719 0.50669 0.0
H736 H 0.55268 0.4814 0.53745 0.0
H737 H 0.56892 0.62274 0.5055 0.0
H738 H 0.52029 0.58849 0.51626 0.0
H739 H 0.52522 0.56972 0.49911 0.0
C740 C 0.43 0.47956 0.54073 0.0
C741 C 0.40216 0.45997 0.529 0.0
C742 C 0.47688 0.50173 0.53928 0.0
C743 C 0.49629 0.50487 0.52609 0.0
C744 C 0.46853 0.48438 0.51452 0.0
H745 H 0.71286 0.50619 0.48837 0.0
H746 H 0.64704 0.49364 0.50153 0.0
C747 C 0.42214 0.46229 0.51594 0.0
C748 C 0.54547 0.52781 0.52408 0.0
H749 H 0.62647 0.60258 0.50203 0.0
C750 C 0.56931 0.50873 0.53 0.0
C751 C 0.56735 0.56403 0.51458 0.0
C752 C 0.54422 0.58776 0.50861 0.0
C753 C 0.61327 0.52224 0.52567 0.0
C754 C 0.63325 0.55495 0.51497 0.0
C755 C 0.6109 0.57693 0.51005 0.0
C756 C 0.67462 0.56311 0.50762 0.0
C757 C 0.63722 0.50022 0.53225 0.0
C758 C 0.71149 0.60668 0.5062 0.0
C759 C 0.74918 0.61415 0.49846 0.0
C760 C 0.75049 0.57814 0.49197 0.0
C761 C 0.71323 0.53467 0.49332 0.0
C762 C 0.67568 0.52731 0.50099 0.0
H763 H 0.6257 0.48971 0.54319 0.0
H764 H 0.62947 0.46962 0.52623 0.0
H765 H 0.67415 0.52303 0.53228 0.0
H766 H 0.71106 0.63489 0.51106 0.0
H767 H 0.77729 0.64805 0.49762 0.0
H768 H 0.15776 0.75721 0.67322 0.0
H769 H 0.10375 0.67888 0.67837 0.0
H770 H 0.04684 0.663 0.63711 0.0
H771 H 0.1012 0.74195 0.63181 0.0
H772 H 0.00508 0.62414 0.67645 0.0
H773 H 0.09961 0.57595 0.63964 0.0
H774 H 0.12281 0.6325 0.64613 0.0
H775 H 0.07944 0.61173 0.63313 0.0
C776 C 0.13318 0.73733 0.66533 0.0
C777 C 0.13389 0.7554 0.65207 0.0
C778 C 0.1023 0.69269 0.66831 0.0
C779 C 0.07189 0.66528 0.65805 0.0
C780 C 0.07043 0.68381 0.6451 0.0
H781 H 0.92597 0.37296 0.66218 0.0
H782 H 0.95679 0.45019 0.65419 0.0
C783 C 0.10123 0.72881 0.64213 0.0
C784 C 0.04537 0.61658 0.66064 0.0
H785 H 0.04387 0.51885 0.65341 0.0
C786 C 0.01297 0.60087 0.67129 0.0
C787 C 0.0561 0.58663 0.6539 0.0
C788 C 0.09152 0.6023 0.6426 0.0
C789 C 0.99154 0.55589 0.6756 0.0
C790 C 0.00378 0.5264 0.6693 0.0
C791 C 0.0349 0.54175 0.65827 0.0
C792 C 0.9856 0.47976 0.67422 0.0
C793 C 0.95621 0.54043 0.6869 0.0
C794 C 0.99274 0.47095 0.68805 0.0
C795 C 0.97511 0.42678 0.6927 0.0
C796 C 0.95033 0.39075 0.68354 0.0
C797 C 0.94463 0.39989 0.66956 0.0
C798 C 0.96214 0.44399 0.66495 0.0
H799 H 0.94159 0.56273 0.68764 0.0
H800 H 0.92871 0.50557 0.68496 0.0
H801 H 0.97173 0.54116 0.69715 0.0
H802 H 0.01188 0.49826 0.69526 0.0
H803 H 0.98035 0.42089 0.7035 0.0
H804 H 0.44618 0.21964 0.83521 0.0
H805 H 0.45265 0.15755 0.84476 0.0
H806 H 0.3603 0.06883 0.8136 0.0
H807 H 0.35398 0.13124 0.80373 0.0
H808 H 0.38835 0.0715 0.8552 0.0
H809 H 0.47629 0.06387 0.80721 0.0
H810 H 0.46739 0.1103 0.81074 0.0
H811 H 0.42183 0.05786 0.80465 0.0
C812 C 0.4269 0.18691 0.83041 0.0
C813 C 0.39992 0.18047 0.8186 0.0
C814 C 0.4305 0.15143 0.83594 0.0
C815 C 0.40732 0.1089 0.82978 0.0
C816 C 0.37885 0.10169 0.81836 0.0
H817 H 0.45842 0.88958 0.84353 0.0
H818 H 0.42178 0.93178 0.83692 0.0
C819 C 0.37525 0.1373 0.81277 0.0
C820 C 0.41593 0.0734 0.8348 0.0
H821 H 0.46868 0.01576 0.82569 0.0
C822 C 0.40544 0.05881 0.84874 0.0
C823 C 0.43847 0.05733 0.82631 0.0
C824 C 0.45205 0.07327 0.81143 0.0
C825 C 0.41751 0.02883 0.85449 0.0
C826 C 0.44116 0.0138 0.84611 0.0
C827 C 0.45044 0.02739 0.83206 0.0
C828 C 0.45856 0.98548 0.8517 0.0
C829 C 0.40506 0.01369 0.86946 0.0
C830 C 0.49096 0.0015 0.86236 0.0
C831 C 0.512 0.97735 0.86622 0.0
C832 C 0.50129 0.93721 0.85931 0.0
C833 C 0.46772 0.92062 0.84897 0.0
C834 C 0.44658 0.94454 0.84521 0.0
H835 H 0.37645 0.01751 0.87305 0.0
H836 H 0.39608 0.97808 0.87077 0.0
H837 H 0.4342 0.03461 0.87632 0.0
H838 H 0.50135 0.03357 0.86728 0.0
H839 H 0.53786 0.991 0.87418 0.0
H840 H 0.20526 0.30869 0.99277 0.0
H841 H 0.27841 0.32893 0.00313 0.0
H842 H 0.34486 0.43118 0.97158 0.0
H843 H 0.27231 0.41171 0.96136 0.0
H844 H 0.38709 0.3725 0.98176 0.0
H845 H 0.34377 0.46323 0.02162 0.0
H846 H 0.3039 0.40575 0.01729 0.0
H847 H 0.31675 0.44925 0.00471 0.0
C848 C 0.23563 0.33439 0.9878 0.0
C849 C 0.23345 0.35903 0.97639 0.0
C850 C 0.27719 0.34597 0.99373 0.0
C851 C 0.31662 0.38168 0.98813 0.0
C852 C 0.31461 0.4035 0.976 0.0
H853 H 0.59303 0.56212 0.99632 0.0
H854 H 0.51482 0.51254 0.98974 0.0
C855 C 0.27328 0.39244 0.97021 0.0
C856 C 0.35933 0.40113 0.99578 0.0
H857 H 0.41883 0.4808 0.02037 0.0
C858 C 0.39397 0.39545 0.99041 0.0
C859 C 0.36781 0.43089 0.00705 0.0
C860 C 0.3313 0.43797 0.01308 0.0
C861 C 0.43771 0.42039 0.99567 0.0
C862 C 0.44693 0.4527 0.00623 0.0
C863 C 0.41166 0.45634 0.01217 0.0
C864 C 0.49329 0.48506 0.01056 0.0
C865 C 0.47372 0.41248 0.98967 0.0
C866 C 0.50625 0.48826 0.02462 0.0
C867 C 0.55077 0.51731 0.02848 0.0
C868 C 0.58287 0.54339 0.01829 0.0
C869 C 0.5691 0.54203 0.00437 0.0
C870 C 0.5246 0.51335 0.00056 0.0
H871 H 0.45923 0.37788 0.98548 0.0
H872 H 0.49061 0.43621 0.98089 0.0
H873 H 0.49936 0.41788 -0.00233 0.0
H874 H 0.48229 0.46719 0.03251 0.0
H875 H 0.56045 0.51756 0.03928 0.0
H876 H 0.07343 0.55237 0.1921 0.0
H877 H 0.01399 0.47532 0.188 0.0
H878 H 0.91719 0.50484 0.20632 0.0
H879 H 0.97696 0.58258 0.2106 0.0
H880 H 0.94013 0.40427 0.20702 0.0
H881 H 0.8862 0.47244 0.16274 0.0
H882 H 0.94147 0.50419 0.17031 0.0
H883 H 0.89349 0.49697 0.17987 0.0
C884 C 0.03966 0.54229 0.19552 0.0
C885 C 0.02957 0.57344 0.20151 0.0
C886 C 0.00587 0.49825 0.19325 0.0
C887 C 0.96144 0.4848 0.19679 0.0
C888 C 0.95148 0.51492 0.20354 0.0
H889 H 0.74318 0.25057 0.15618 0.0
H890 H 0.78378 0.31772 0.17048 0.0
C891 C 0.98553 0.5591 0.20598 0.0
C892 C 0.92567 0.44114 0.19168 0.0
H893 H 0.85603 0.39468 0.16375 0.0
C894 C 0.92095 0.40188 0.19773 0.0
C895 C 0.901 0.43855 0.17956 0.0
C896 C 0.90563 0.48014 0.17264 0.0
C897 C 0.89301 0.35983 0.19165 0.0
C898 C 0.87049 0.3575 0.17901 0.0
C899 C 0.87359 0.39665 0.17338 0.0
C900 C 0.84541 0.31538 0.171 0.0
C901 C 0.88834 0.31848 0.19872 0.0
C902 C 0.8669 0.29221 0.16635 0.0
C903 C 0.84372 0.25357 0.15822 0.0
C904 C 0.79888 0.23794 0.15441 0.0
C905 C 0.77775 0.26174 0.15889 0.0
C906 C 0.80079 0.30003 0.16713 0.0
H907 H 0.89467 0.32386 0.21016 0.0
H908 H 0.85438 0.28899 0.19708 0.0
H909 H 0.91349 0.31074 0.19429 0.0
H910 H 0.9018 0.30435 0.16885 0.0
H911 H 0.86097 0.23615 0.15485 0.0
H912 H 0.92708 0.49567 0.44427 0.0
H913 H 0.96417 0.45092 0.44685 0.0
H914 H 0.98603 0.48518 0.49067 0.0
H915 H 0.9488 0.52906 0.48828 0.0
H916 H 0.04894 0.47489 0.45511 0.0
H917 H 0.92829 0.34981 0.49215 0.0
H918 H 0.91548 0.38643 0.48206 0.0
H919 H 0.94588 0.40535 0.49832 0.0
C920 C 0.93993 0.49371 0.45444 0.0
C921 C 0.93463 0.51557 0.4661 0.0
C922 C 0.96082 0.46793 0.4559 0.0
C923 C 0.97651 0.46357 0.46904 0.0
C924 C 0.97269 0.48673 0.48054 0.0
H925 H 0.19077 0.45892 0.50182 0.0
H926 H 0.13552 0.46803 0.48881 0.0
C927 C 0.95178 0.51221 0.47912 0.0
C928 C -0.00071 0.4371 0.47087 0.0
H929 H 0.00549 0.36453 0.49387 0.0
C930 C 0.03882 0.44983 0.46332 0.0
C931 C 0.98541 0.40332 0.48125 0.0
C932 C 0.94112 0.38508 0.48877 0.0
C933 C 0.06729 0.43325 0.46696 0.0
C934 C 0.05628 0.40412 0.47861 0.0
C935 C 0.01439 0.38758 0.48511 0.0
C936 C 0.09048 0.39695 0.48565 0.0
C937 C 0.10998 0.44886 0.45873 0.0
C938 C 0.08286 0.3537 0.48866 0.0
C939 C 0.11456 0.3482 0.49632 0.0
C940 C 0.154 0.38593 0.50117 0.0
C941 C 0.16106 0.42903 0.49817 0.0
C942 C 0.12964 0.4344 0.49057 0.0
H943 H 0.10528 0.45513 0.44761 0.0
H944 H 0.13672 0.48099 0.46316 0.0
H945 H 0.12143 0.42391 0.45911 0.0
H946 H 0.05239 0.32434 0.48515 0.0
H947 H 0.10808 0.31458 0.4985 0.0
H948 H 0.39693 0.8761 0.6516 0.0
H949 H 0.47403 0.91551 0.65989 0.0
H950 H 0.49155 0.03971 0.64309 0.0
H951 H 0.41385 3e-05 0.63443 0.0
H952 H 0.56488 0.02559 0.63836 0.0
H953 H 0.51111 -0.00176 0.69403 0.0
H954 H 0.48805 0.9476 0.68391 0.0
H955 H 0.47299 0.98939 0.67982 0.0
C956 C 0.41711 0.91181 0.64961 0.0
C957 C 0.39925 0.93522 0.64252 0.0
C958 C 0.46112 0.93422 0.65438 0.0
C959 C 0.48792 0.98053 0.65237 0.0
C960 C 0.471 0.00388 0.64481 0.0
H961 H 0.7218 0.16987 0.69568 0.0
H962 H 0.64644 0.1186 0.68723 0.0
C963 C 0.42681 0.9813 0.63988 0.0
C964 C 0.53319 0.00443 0.65852 0.0
H965 H 0.58875 0.02818 0.68968 0.0
C966 C 0.57027 0.02628 0.64957 0.0
C967 C 0.53972 0.00528 0.67316 0.0
C968 C 0.50087 0.98425 0.68331 0.0
C969 C 0.61405 0.0492 0.6549 0.0
C970 C 0.62062 0.04928 0.66953 0.0
C971 C 0.58348 0.02728 0.67846 0.0
C972 C 0.66537 0.07624 0.67588 0.0
C973 C 0.65272 0.07436 0.64489 0.0
C974 C 0.70053 0.06812 0.67277 0.0
C975 C 0.74395 0.09762 0.67755 0.0
C976 C 0.75244 0.13542 0.68549 0.0
C977 C 0.71641 0.1414 0.6894 0.0
C978 C 0.67329 0.1121 0.68462 0.0
H979 H 0.64121 0.07836 0.6344 0.0
H980 H 0.67677 0.10816 0.64904 0.0
H981 H 0.67088 0.05555 0.64358 0.0
H982 H 0.69467 0.03991 0.66629 0.0
H983 H 0.77104 0.09205 0.67447 0.0
H984 H 0.63762 0.76829 0.86013 0.0
H985 H 0.6279 0.69882 0.84974 0.0
H986 H 0.59593 0.73562 0.80999 0.0
H987 H 0.60568 0.80476 0.8202 0.0
H988 H 0.54246 0.63731 0.83856 0.0
H989 H 0.67711 0.68397 0.79907 0.0
H990 H 0.68194 0.72038 0.8134 0.0
H991 H 0.64961 0.71659 0.79816 0.0
C992 C 0.62989 0.76214 0.84908 0.0
C993 C 0.62199 0.79158 0.84099 0.0
C994 C 0.62431 0.72254 0.84318 0.0
C995 C 0.61156 0.71245 0.8291 0.0
C996 C 0.60655 0.74323 0.82081 0.0
H997 H 0.45003 0.45671 0.78829 0.0
H998 H 0.48641 0.53623 0.79503 0.0
C999 C 0.61172 0.78249 0.8267 0.0
C1000 C 0.59654 0.66716 0.8236 0.0
H1001 H 0.61307 0.61011 0.79725 0.0
C1002 C 0.55817 0.63125 0.82963 0.0
C1003 C 0.617 0.65969 0.81188 0.0
C1004 C 0.65894 0.69712 0.8053 0.0
C1005 C 0.53907 0.58801 0.82404 0.0
C1006 C 0.55883 0.58075 0.81213 0.0
C1007 C 0.59777 0.61631 0.80626 0.0
C1008 C 0.54057 0.53548 0.80629 0.0
C1009 C 0.49785 0.5502 0.83086 0.0
C1010 C 0.55979 0.50969 0.8102 0.0
C1011 C 0.53903 0.46458 0.80653 0.0
C1012 C 0.49887 0.44468 0.79879 0.0
C1013 C 0.48094 0.47127 0.79424 0.0
C1014 C 0.5016 0.5165 0.79806 0.0
H1015 H 0.48881 0.56079 0.84074 0.0
H1016 H 0.46904 0.53785 0.82354 0.0
H1017 H 0.50338 0.5217 0.83318 0.0
H1018 H 0.58981 0.524 0.81659 0.0
H1019 H 0.5539 0.44502 0.81006 0.0
H1020 H 0.88618 0.64334 0.01099 0.0
H1021 H 0.94049 0.62072 0.00408 0.0
H1022 H 0.83315 0.48367 -0.00012 0.0
H1023 H 0.77899 0.50557 0.00711 0.0
H1024 H 0.90425 0.48982 0.01395 0.0
H1025 H 0.96018 0.58938 0.96472 0.0
H1026 H 0.96661 0.62161 0.9802 0.0
H1027 H 0.91137 0.5808 0.97433 0.0
C1028 C 0.87419 0.60842 0.00856 0.0
C1029 C 0.82829 0.57629 0.0095 0.0
C1030 C 0.90521 0.59562 0.00455 0.0
C1031 C 0.89066 0.55069 0.00125 0.0
C1032 C 0.84498 0.51856 0.00234 0.0
H1033 H 0.01413 0.42927 0.95437 0.0
H1034 H 0.97129 0.46364 0.96285 0.0
C1035 C 0.81409 0.53118 0.00646 0.0
C1036 C 0.92272 0.53649 -0.00321 0.0
H1037 H -0.00322 0.54932 0.97099 0.0
C1038 C 0.92464 0.50291 0.00459 0.0
C1039 C 0.94882 0.5534 0.9845 0.0
C1040 C 0.94649 0.588 0.97536 0.0
C1041 C 0.95144 0.48514 0.00029 0.0
C1042 C 0.97798 0.50243 0.98809 0.0
C1043 C 0.97657 0.53646 0.9804 0.0
C1044 C 0.00573 0.48405 0.98277 0.0
C1045 C 0.94973 0.44689 0.00858 0.0
C1046 C 0.0398 0.48505 0.99106 0.0
C1047 C 0.06391 0.46501 0.98632 0.0
C1048 C 0.05487 0.44437 0.9731 0.0
C1049 C 0.02186 0.44494 0.9646 0.0
C1050 C -0.00259 0.46456 0.96942 0.0
H1051 H 0.91943 0.43017 0.01534 0.0
H1052 H 0.94989 0.42133 0.00153 0.0
H1053 H 0.97965 0.4601 0.01546 0.0
H1054 H 0.04742 0.5009 0.00125 0.0
H1055 H 0.0895 0.46555 0.99306 0.0
H1056 H 0.5581 0.01995 0.10789 0.0
H1057 H 0.47744 0.96802 0.11112 0.0
H1058 H 0.49997 0.95463 0.15485 0.0
H1059 H 0.58007 0.00561 0.15173 0.0
H1060 H 0.43966 0.87304 0.14139 0.0
H1061 H 0.39858 0.0086 0.13255 0.0
H1062 H 0.42933 -0.00077 0.11902 0.0
H1063 H 0.45519 0.02051 0.13571 0.0
C1064 C 0.54587 0.00537 0.11813 0.0
C1065 C 0.57528 0.01726 0.1296 0.0
C1066 C 0.49986 0.97602 0.11997 0.0
C1067 C 0.48293 0.95825 0.13326 0.0
C1068 C 0.51251 0.96827 0.14452 0.0
H1069 H 0.24639 0.86399 0.18105 0.0
H1070 H 0.31745 0.90724 0.16842 0.0
C1071 C 0.55823 -0.00248 0.14272 0.0
C1072 C 0.43431 0.93082 0.13589 0.0
H1073 H 0.34005 0.93868 0.14015 0.0
C1074 C 0.41755 0.88698 0.14089 0.0
C1075 C 0.40605 0.94963 0.13538 0.0
C1076 C 0.42301 -0.00284 0.13047 0.0
C1077 C 0.37357 0.86188 0.14594 0.0
C1078 C 0.34554 0.88101 0.14569 0.0
C1079 C 0.36176 0.92425 0.14023 0.0
C1080 C 0.30052 0.85776 0.15209 0.0
C1081 C 0.35828 0.81611 0.15219 0.0
C1082 C 0.26719 0.81655 0.14678 0.0
C1083 C 0.22689 0.79171 0.154 0.0
C1084 C 0.21913 0.80797 0.16657 0.0
C1085 C 0.25149 0.85061 0.1714 0.0
C1086 C 0.29199 0.87532 0.16421 0.0
H1087 H 0.38677 0.81022 0.15408 0.0
H1088 H 0.34044 0.81202 0.16225 0.0
H1089 H 0.33464 0.7899 0.14487 0.0
H1090 H 0.27296 0.80293 0.1373 0.0
H1091 H 0.20233 0.75921 0.1499 0.0
H1092 H 0.58714 0.58554 0.2989 0.0
H1093 H 0.54712 0.50766 0.30725 0.0
H1094 H 0.45164 0.53271 0.32873 0.0
H1095 H 0.49144 0.61024 0.32072 0.0
H1096 H 0.48397 0.49022 0.34525 0.0
H1097 H 0.42576 0.40459 0.29401 0.0
H1098 H 0.48518 0.44281 0.29481 0.0
H1099 H 0.44703 0.46398 0.2962 0.0
C1100 C 0.55749 0.57434 0.30533 0.0
C1101 C 0.54239 0.60402 0.30909 0.0
C1102 C 0.53454 0.52984 0.31002 0.0
C1103 C 0.49607 0.5144 0.31842 0.0
C1104 C 0.4811 0.54397 0.32219 0.0
H1105 H 0.32324 0.22952 0.33861 0.0
H1106 H 0.34713 0.3072 0.33189 0.0
C1107 C 0.50397 0.5883 0.31758 0.0
C1108 C 0.47229 0.46792 0.3238 0.0
H1109 H 0.41818 0.35829 0.31364 0.0
C1110 C 0.46924 0.46134 0.33835 0.0
C1111 C 0.45232 0.43044 0.31476 0.0
C1112 C 0.45226 0.43566 0.29908 0.0
C1113 C 0.44822 0.4181 0.34412 0.0
C1114 C 0.43053 0.38065 0.33507 0.0
C1115 C 0.43198 0.38717 0.32053 0.0
C1116 C 0.41407 0.33474 0.3404 0.0
C1117 C 0.44541 0.41291 0.35984 0.0
C1118 C 0.44372 0.32488 0.34748 0.0
C1119 C 0.43029 0.2809 0.3513 0.0
C1120 C 0.38701 0.2458 0.348 0.0
C1121 C 0.35675 0.25589 0.3413 0.0
C1122 C 0.37035 0.30011 0.33744 0.0
H1123 H 0.44692 0.44252 0.36501 0.0
H1124 H 0.41401 0.3823 0.36309 0.0
H1125 H 0.47432 0.41 0.36363 0.0
H1126 H 0.47786 0.351 0.34963 0.0
H1127 H 0.45435 0.27428 0.35651 0.0
H1128 H 0.01195 0.66538 0.43824 0.0
H1129 H 0.06951 0.72155 0.42279 0.0
H1130 H 0.02219 0.81339 0.43195 0.0
H1131 H 0.96465 0.75773 0.44744 0.0
H1132 H 0.02835 0.79209 0.40168 0.0
H1133 H 0.18428 0.84675 0.43271 0.0
H1134 H 0.14519 0.78743 0.43143 0.0
H1135 H 0.12958 0.82261 0.44082 0.0
C1136 C 0.01427 0.69782 0.43718 0.0
C1137 C 0.98353 0.70696 0.44404 0.0
C1138 C 0.04717 0.72982 0.42835 0.0
C1139 C 0.04989 0.77143 0.42625 0.0
C1140 C 0.02047 0.78135 0.43346 0.0
H1141 H 0.19265 0.00548 0.37483 0.0
H1142 H 0.13572 0.94048 0.3876 0.0
C1143 C 0.98777 0.74955 0.44236 0.0
C1144 C 0.0816 0.80367 0.4159 0.0
H1145 H 0.19245 0.87789 0.41021 0.0
C1146 C 0.06428 0.81084 0.40349 0.0
C1147 C 0.12832 0.82748 0.41827 0.0
C1148 C 0.14824 0.82109 0.43154 0.0
C1149 C 0.09261 0.8416 0.39336 0.0
C1150 C 0.13934 0.86659 0.39592 0.0
C1151 C 0.15665 0.85866 0.40824 0.0
C1152 C 0.17077 0.90302 0.38643 0.0
C1153 C 0.07219 0.84661 0.37999 0.0
C1154 C 0.20937 0.90359 0.38141 0.0
C1155 C 0.24237 0.94106 0.37423 0.0
C1156 C 0.2374 0.97875 0.37197 0.0
C1157 C 0.19748 0.97698 0.3763 0.0
C1158 C 0.16471 0.93966 0.38357 0.0
H1159 H 0.04009 0.81557 0.37756 0.0
H1160 H 0.06479 0.87431 0.38121 0.0
H1161 H 0.09537 0.85457 0.37097 0.0
H1162 H 0.21474 0.87568 0.3835 0.0
H1163 H 0.27264 0.94127 0.371 0.0
H1164 H 0.21504 0.21935 0.54338 0.0
H1165 H 0.22244 0.165 0.55802 0.0
H1166 H 0.32906 0.27338 0.58123 0.0
H1167 H 0.32312 0.32776 0.56635 0.0
H1168 H 0.34884 0.21018 0.57654 0.0
H1169 H 0.17565 0.1316 0.59723 0.0
H1170 H 0.17628 0.12883 0.5785 0.0
H1171 H 0.20035 0.18261 0.58703 0.0
C1172 C 0.24026 0.23155 0.55154 0.0
C1173 C 0.26822 0.27781 0.55377 0.0
C1174 C 0.24416 0.20049 0.55998 0.0
C1175 C 0.27542 0.21517 0.57098 0.0
C1176 C 0.30443 0.26131 0.57289 0.0
H1177 H 0.24961 0.01884 0.63418 0.0
H1178 H 0.25722 0.08727 0.62363 0.0
C1179 C 0.30101 0.29235 0.56434 0.0
C1180 C 0.27814 0.1825 0.58045 0.0
H1181 H 0.21486 0.09147 0.60119 0.0
C1182 C 0.31964 0.18449 0.58204 0.0
C1183 C 0.24038 0.14984 0.58797 0.0
C1184 C 0.19581 0.14837 0.58773 0.0
C1185 C 0.32393 0.15343 0.59045 0.0
C1186 C 0.28537 0.11861 0.59707 0.0
C1187 C 0.24434 0.11786 0.59599 0.0
C1188 C 0.28586 0.08065 0.60422 0.0
C1189 C 0.36978 0.15838 0.59215 0.0
C1190 C 0.29985 0.05457 0.59687 0.0
C1191 C 0.29604 0.01595 0.6029 0.0
C1192 C 0.27722 0.00196 0.61631 0.0
C1193 C 0.26417 0.02867 0.62382 0.0
C1194 C 0.26846 0.06772 0.61781 0.0
H1195 H 0.39664 0.19405 0.59111 0.0
H1196 H 0.37335 0.14558 0.60247 0.0
H1197 H 0.37505 0.13917 0.58378 0.0
H1198 H 0.31214 0.06307 0.58623 0.0
H1199 H 0.30621 -0.0039 0.59676 0.0
H1200 H 0.25567 0.27341 0.78629 0.0
H1201 H 0.19832 0.27286 0.771 0.0
H1202 H 0.30138 0.36588 0.74298 0.0
H1203 H 0.3589 0.36656 0.7581 0.0
H1204 H 0.18367 0.34203 0.75902 0.0
H1205 H 0.22511 0.2494 0.7196 0.0
H1206 H 0.24362 0.25591 0.73756 0.0
H1207 H 0.27143 0.30179 0.72547 0.0
C1208 C 0.26619 0.29463 0.77707 0.0
C1209 C 0.31169 0.31937 0.77324 0.0
C1210 C 0.23342 0.29414 0.76833 0.0
C1211 C 0.24584 0.31844 0.75574 0.0
C1212 C 0.29131 0.34619 0.75253 0.0
H1213 H 0.05676 0.34028 0.70082 0.0
H1214 H 0.12671 0.35694 0.7124 0.0
C1215 C 0.32403 0.34663 0.7612 0.0
C1216 C 0.21125 0.31207 0.74547 0.0
H1217 H 0.16953 0.2673 0.71334 0.0
C1218 C 0.18065 0.326 0.74899 0.0
C1219 C 0.20731 0.29049 0.73251 0.0
C1220 C 0.23832 0.27314 0.72854 0.0
C1221 C 0.14593 0.31889 0.73983 0.0
C1222 C 0.14238 0.29793 0.72678 0.0
C1223 C 0.17296 0.28395 0.72327 0.0
C1224 C 0.10503 0.28757 0.71715 0.0
C1225 C 0.11249 0.3326 0.74438 0.0
C1226 C 0.07131 0.24284 0.71515 0.0
C1227 C 0.03143 0.23312 0.70845 0.0
C1228 C 0.02485 0.26814 0.70377 0.0
C1229 C 0.06061 0.31264 0.70454 0.0
C1230 C 0.10049 0.32227 0.71118 0.0
H1231 H 0.11482 0.34003 0.75576 0.0
H1232 H 0.11908 0.36329 0.73859 0.0
H1233 H 0.0777 0.30578 0.74196 0.0
H1234 H 0.07459 0.21565 0.71961 0.0
H1235 H 0.00463 0.19848 0.70794 0.0
H1236 H 0.62682 0.98745 0.90736 0.0
H1237 H 0.67658 0.04987 0.92252 0.0
H1238 H 0.7842 0.08976 0.8927 0.0
H1239 H 0.73467 0.02818 0.87738 0.0
H1240 H 0.75049 0.05779 0.93459 0.0
H1241 H 0.79766 0.20937 0.903 0.0
H1242 H 0.75004 0.15535 0.8987 0.0
H1243 H 0.80572 0.16963 0.89317 0.0
C1244 C 0.66084 0.01007 0.90388 0.0
C1245 C 0.67691 0.00264 0.8912 0.0
C1246 C 0.68916 0.04571 0.91257 0.0
C1247 C 0.7339 0.07467 0.90868 0.0
C1248 C 0.74949 0.06845 0.89577 0.0
H1249 H 0.97831 0.1964 0.95047 0.0
H1250 H 0.9026 0.14552 0.94211 0.0
C1251 C 0.72118 0.03297 0.88705 0.0
C1252 C 0.76588 0.10807 0.9187 0.0
H1253 H 0.85179 0.21609 0.92058 0.0
C1254 C 0.77201 0.0927 0.93168 0.0
C1255 C 0.79326 0.15374 0.91504 0.0
C1256 C 0.78597 0.17305 0.90177 0.0
C1257 C 0.80713 0.12104 0.94062 0.0
C1258 C 0.83734 0.16547 0.93628 0.0
C1259 C 0.82902 0.18178 0.92382 0.0
C1260 C 0.88029 0.19411 0.9436 0.0
C1261 C 0.81213 0.10271 0.95444 0.0
C1262 C 0.89293 0.23833 0.94726 0.0
C1263 C 0.93652 0.26776 0.95184 0.0
C1264 C 0.96822 0.25346 0.95278 0.0
C1265 C 0.95469 0.20844 0.94989 0.0
C1266 C 0.91122 0.17916 0.94521 0.0
H1267 H 0.779 0.0764 0.95849 0.0
H1268 H 0.83314 0.08694 0.95292 0.0
H1269 H 0.82831 0.12957 0.96242 0.0
H1270 H 0.8696 0.25055 0.94606 0.0
H1271 H 0.94585 0.30219 0.95411 0.0
H1272 H 0.8109 0.04254 0.10877 0.0
H1273 H 0.8144 0.98374 0.09532 0.0
H1274 H 0.66991 0.90438 0.09563 0.0
H1275 H 0.66598 0.9626 0.10906 0.0
H1276 H 0.71957 0.8566 0.10101 0.0
H1277 H 0.77273 0.96338 0.05303 0.0
H1278 H 0.80457 0.98743 0.06876 0.0
H1279 H 0.74737 0.9748 0.06784 0.0
C1280 C 0.77995 0.01217 0.10621 0.0
C1281 C 0.73813 0.00729 0.10982 0.0
C1282 C 0.78202 0.97888 0.09845 0.0
C1283 C 0.74237 0.94034 0.09433 0.0
C1284 C 0.70079 0.93416 0.09866 0.0
H1285 H 0.66061 0.7002 0.04619 0.0
H1286 H 0.66343 0.7624 0.05935 0.0
C1287 C 0.69865 0.96743 0.10631 0.0
C1288 C 0.74362 0.90719 0.08492 0.0
H1289 H 0.76254 0.89066 0.05096 0.0
C1290 C 0.72913 0.86396 0.09008 0.0
C1291 C 0.75608 0.91725 0.0707 0.0
C1292 C 0.77084 0.96311 0.06465 0.0
C1293 C 0.7268 0.83023 0.08135 0.0
C1294 C 0.73819 0.83992 0.06703 0.0
C1295 C 0.75344 0.88341 0.06192 0.0
C1296 C 0.73532 0.80534 0.05732 0.0
C1297 C 0.71275 0.7847 0.08757 0.0
C1298 C 0.77439 0.81031 0.05109 0.0
C1299 C 0.77288 0.77511 0.04344 0.0
C1300 C 0.73223 0.73435 0.04197 0.0
C1301 C 0.69254 0.7309 0.0473 0.0
C1302 C 0.69411 0.76624 0.0549 0.0
H1303 H 0.71622 0.78619 0.09915 0.0
H1304 H 0.67698 0.76131 0.08502 0.0
H1305 H 0.73302 0.77069 0.08318 0.0
H1306 H 0.80641 0.84055 0.05272 0.0
H1307 H 0.804 0.77907 0.03934 0.0
H1308 H 0.79214 0.7971 0.29554 0.0
H1309 H 0.85332 0.79571 0.28287 0.0
H1310 H 0.76136 0.66135 0.26865 0.0
H1311 H 0.69992 0.66309 0.28091 0.0
H1312 H 0.89265 0.74279 0.28117 0.0
H1313 H 0.80143 0.73364 0.23234 0.0
H1314 H 0.78537 0.74465 0.24921 0.0
H1315 H 0.76875 0.68809 0.24413 0.0
C1316 C 0.78535 0.76676 0.29009 0.0
C1317 C 0.74135 0.7304 0.28901 0.0
C1318 C 0.82021 0.76612 0.28279 0.0
C1319 C 0.81135 0.729 0.27447 0.0
C1320 C 0.76845 0.69081 0.27468 0.0
H1321 H -0.00319 0.67079 0.23307 0.0
H1322 H 0.93994 0.67304 0.2477 0.0
C1323 C 0.73356 0.69166 0.28179 0.0
C1324 C 0.84565 0.73151 0.26464 0.0
H1325 H 0.8643 0.72288 0.22999 0.0
C1326 C 0.88661 0.73864 0.26998 0.0
C1327 C 0.83813 0.7275 0.25 0.0
C1328 C 0.79625 0.72354 0.24355 0.0
C1329 C 0.91966 0.74002 0.26107 0.0
C1330 C 0.91083 0.7329 0.24654 0.0
C1331 C 0.87061 0.72759 0.24116 0.0
C1332 C 0.94235 0.72942 0.23683 0.0
C1333 C 0.96381 0.74945 0.26732 0.0
C1334 C 0.96027 0.75846 0.22528 0.0
C1335 C 0.99221 0.75662 0.21668 0.0
C1336 C 0.00662 0.72587 0.21963 0.0
C1337 C 0.9867 0.69527 0.23071 0.0
C1338 C 0.95457 0.69677 0.23915 0.0
H1339 H 0.9706 0.76796 0.27737 0.0
H1340 H 0.96258 0.71717 0.26951 0.0
H1341 H 0.99213 0.76934 0.26004 0.0
H1342 H 0.95068 0.78348 0.22322 0.0
H1343 H 0.00719 0.7806 0.20821 0.0
H1344 H 0.74376 0.4238 0.46501 0.0
H1345 H 0.68428 0.35626 0.45343 0.0
H1346 H 0.71729 0.42691 0.41402 0.0
H1347 H 0.77593 0.49387 0.42529 0.0
H1348 H 0.6092 0.35261 0.43631 0.0
H1349 H 0.71965 0.30779 0.40652 0.0
H1350 H 0.73804 0.34223 0.42208 0.0
H1351 H 0.73529 0.366 0.4056 0.0
C1352 C 0.73837 0.42481 0.45388 0.0
C1353 C 0.76475 0.46421 0.44609 0.0
C1354 C 0.70449 0.3863 0.4473 0.0
C1355 C 0.69707 0.38661 0.43285 0.0
C1356 C 0.72308 0.42586 0.42513 0.0
H1357 H 0.52234 0.22861 0.36639 0.0
H1358 H 0.5838 0.28263 0.38125 0.0
C1359 C 0.75648 0.46421 0.43165 0.0
C1360 C 0.66115 0.34684 0.42568 0.0
H1361 H 0.64346 0.27391 0.39902 0.0
C1362 C 0.61646 0.33476 0.42832 0.0
C1363 C 0.67106 0.32421 0.41518 0.0
C1364 C 0.71859 0.33537 0.41221 0.0
C1365 C 0.58131 0.30176 0.42029 0.0
C1366 C 0.5913 0.27969 0.40956 0.0
C1367 C 0.63597 0.29098 0.40721 0.0
C1368 C 0.55586 0.24556 0.40047 0.0
C1369 C 0.5341 0.29232 0.42292 0.0
C1370 C 0.52068 0.20631 0.40631 0.0
C1371 C 0.48558 0.17569 0.3979 0.0
C1372 C 0.48529 0.1834 0.38343 0.0
C1373 C 0.52167 0.22172 0.37748 0.0
C1374 C 0.55669 0.2526 0.38596 0.0
H1375 H 0.53372 0.31972 0.42894 0.0
H1376 H 0.51588 0.28782 0.41292 0.0
H1377 H 0.51557 0.26091 0.4291 0.0
H1378 H 0.51999 0.19968 0.41742 0.0
H1379 H 0.45831 0.14623 0.4028 0.0
H1380 H 0.34347 0.80595 0.6104 0.0
H1381 H 0.33924 0.74836 0.59468 0.0
H1382 H 0.20419 0.65739 0.60871 0.0
H1383 H 0.20805 0.71567 0.62452 0.0
H1384 H 0.32105 0.66039 0.59944 0.0
H1385 H 0.19304 0.6677 0.56567 0.0
H1386 H 0.22462 0.70973 0.57873 0.0
H1387 H 0.17895 0.656 0.58391 0.0
C1388 C 0.31307 0.77344 0.61031 0.0
C1389 C 0.27593 0.76519 0.61857 0.0
C1390 C 0.31073 0.74065 0.60132 0.0
C1391 C 0.27114 0.69916 0.60036 0.0
C1392 C 0.23475 0.68968 0.60918 0.0
H1393 H 0.20165 0.46592 0.55245 0.0
H1394 H 0.20104 0.52661 0.56542 0.0
C1395 C 0.23717 0.72261 0.6183 0.0
C1396 C 0.26823 0.6669 0.5897 0.0
H1397 H 0.21678 0.6166 0.55905 0.0
C1398 C 0.29831 0.65078 0.5906 0.0
C1399 C 0.23882 0.6551 0.57813 0.0
C1400 C 0.20721 0.67322 0.57641 0.0
C1401 C 0.29929 0.62236 0.58032 0.0
C1402 C 0.26989 0.61047 0.56875 0.0
C1403 C 0.2397 0.6265 0.56785 0.0
C1404 C 0.26693 0.57743 0.5584 0.0
C1405 C 0.33095 0.6043 0.58209 0.0
C1406 C 0.3033 0.5867 0.54959 0.0
C1407 C 0.3036 0.552 0.54206 0.0
C1408 C 0.26768 0.50796 0.54345 0.0
C1409 C 0.22985 0.49971 0.55133 0.0
C1410 C 0.22939 0.53426 0.5587 0.0
H1411 H 0.34611 0.611 0.5927 0.0
H1412 H 0.31316 0.56754 0.5802 0.0
H1413 H 0.3585 0.62048 0.5743 0.0
H1414 H 0.33241 0.62011 0.5492 0.0
H1415 H 0.33312 0.55892 0.53607 0.0
H1416 H 0.54728 0.2739 0.80131 0.0
H1417 H 0.61261 0.27089 0.79227 0.0
H1418 H 0.61609 0.34788 0.75612 0.0
H1419 H 0.5522 0.35167 0.76499 0.0
H1420 H 0.61766 0.23417 0.76676 0.0
H1421 H 0.74604 0.41415 0.76888 0.0
H1422 H 0.6941 0.39081 0.7786 0.0
H1423 H 0.6959 0.40576 0.76043 0.0
C1424 C 0.56243 0.29064 0.79154 0.0
C1425 C 0.54473 0.31324 0.78392 0.0
C1426 C 0.59963 0.2889 0.78641 0.0
C1427 C 0.61963 0.31005 0.7737 0.0
C1428 C 0.60193 0.33248 0.76614 0.0
H1429 H 0.78049 0.30921 0.70684 0.0
H1430 H 0.72793 0.31475 0.72296 0.0
C1431 C 0.56507 0.33425 0.77121 0.0
C1432 C 0.65689 0.30635 0.76755 0.0
H1433 H 0.75874 0.36955 0.75181 0.0
C1434 C 0.64898 0.26363 0.76376 0.0
C1435 C 0.69767 0.34494 0.7637 0.0
C1436 C 0.70912 0.39144 0.76826 0.0
C1437 C 0.67974 0.25873 0.75542 0.0
C1438 C 0.71898 0.29752 0.75083 0.0
C1439 C 0.72804 0.34004 0.7552 0.0
C1440 C 0.75069 0.29458 0.74122 0.0
C1441 C 0.66944 0.21244 0.75104 0.0
C1442 C 0.7807 0.28182 0.74632 0.0
C1443 C 0.81073 0.2789 0.73724 0.0
C1444 C 0.81115 0.28863 0.72288 0.0
C1445 C 0.78099 0.30158 0.71782 0.0
C1446 C 0.75106 0.30476 0.72698 0.0
H1447 H 0.63583 0.18588 0.75467 0.0
H1448 H 0.67099 0.21074 0.73945 0.0
H1449 H 0.69514 0.2054 0.75544 0.0
H1450 H 0.7808 0.27406 0.75731 0.0
H1451 H 0.83333 0.26859 0.74149 0.0
H1452 H 0.41759 0.77855 0.87414 0.0
H1453 H 0.36318 0.7096 0.88608 0.0
H1454 H 0.45357 0.65751 0.88214 0.0
H1455 H 0.50734 0.72597 0.86954 0.0
H1456 H 0.36542 0.59073 0.8804 0.0
H1457 H 0.39116 0.69789 0.92647 0.0
H1458 H 0.37177 0.71569 0.91172 0.0
H1459 H 0.42549 0.71863 0.91096 0.0
C1460 C 0.42506 0.75168 0.87543 0.0
C1461 C 0.46634 0.7572 0.87099 0.0
C1462 C 0.39431 0.71262 0.88236 0.0
C1463 C 0.4051 0.67923 0.88541 0.0
C1464 C 0.44487 0.68314 0.88001 0.0
H1465 H 0.2547 0.49963 0.95478 0.0
H1466 H 0.31693 0.55404 0.9402 0.0
C1467 C 0.47534 0.72198 0.87275 0.0
C1468 C 0.37646 0.64247 0.89517 0.0
H1469 H 0.32704 0.62384 0.92729 0.0
C1470 C 0.35732 0.5978 0.89071 0.0
C1471 C 0.36734 0.65168 0.90884 0.0
C1472 C 0.39047 0.69855 0.91484 0.0
C1473 C 0.32707 0.56221 0.89928 0.0
C1474 C 0.31464 0.57188 0.9124 0.0
C1475 C 0.33586 0.61638 0.91714 0.0
C1476 C 0.27798 0.53703 0.92107 0.0
C1477 C 0.30897 0.51474 0.89417 0.0
C1478 C 0.23532 0.50993 0.91523 0.0
C1479 C 0.20004 0.47867 0.92348 0.0
C1480 C 0.20635 0.47469 0.93784 0.0
C1481 C 0.24879 0.50237 0.94377 0.0
C1482 C 0.28438 0.53318 0.93544 0.0
H1483 H 0.33339 0.51235 0.88713 0.0
H1484 H 0.30102 0.49089 0.903 0.0
H1485 H 0.27788 0.50432 0.88805 0.0
H1486 H 0.22902 0.51337 0.90432 0.0
H1487 H 0.16763 0.45791 0.91862 0.0
H1488 H 0.6659 0.22894 0.1266 0.0
H1489 H 0.65366 0.28411 0.11392 0.0
H1490 H 0.64037 0.21391 0.07523 0.0
H1491 H 0.65371 0.1599 0.08769 0.0
H1492 H 0.7056 0.30141 0.07426 0.0
H1493 H 0.54777 0.28574 0.0951 0.0
H1494 H 0.58778 0.29201 0.10827 0.0
H1495 H 0.56247 0.24261 0.0975 0.0
C1496 C 0.65928 0.22487 0.11546 0.0
C1497 C 0.66128 0.19069 0.10807 0.0
C1498 C 0.65208 0.25615 0.10824 0.0
C1499 C 0.64592 0.25287 0.09365 0.0
C1500 C 0.64511 0.21702 0.08648 0.0
H1501 H 0.65749 0.43825 0.02905 0.0
H1502 H 0.64231 0.36972 0.04153 0.0
C1503 C 0.65289 0.18633 0.0936 0.0
C1504 C 0.64637 0.28959 0.0855 0.0
H1505 H 0.59331 0.34993 0.08088 0.0
C1506 C 0.68073 0.31168 0.07559 0.0
C1507 C 0.61404 0.30298 0.08736 0.0
C1508 C 0.57567 0.27939 0.09755 0.0
C1509 C 0.6842 0.34741 0.06763 0.0
C1510 C 0.65209 0.36102 0.06954 0.0
C1511 C 0.61756 0.33894 0.0794 0.0
C1512 C 0.65608 0.40032 0.06205 0.0
C1513 C 0.72302 0.37131 0.05758 0.0
C1514 C 0.66767 0.43952 0.06955 0.0
C1515 C 0.67641 0.47852 0.0625 0.0
C1516 C 0.67349 0.47893 0.04781 0.0
C1517 C 0.66023 0.43905 0.04035 0.0
C1518 C 0.65157 0.39996 0.04745 0.0
H1519 H 0.74919 0.36187 0.05924 0.0
H1520 H 0.71053 0.36239 0.04668 0.0
H1521 H 0.73875 0.40827 0.05869 0.0
H1522 H 0.67138 0.44033 0.08083 0.0
H1523 H 0.6863 0.50856 0.0686 0.0
H1524 H 0.47629 0.74925 0.2912 0.0
H1525 H 0.42156 0.74782 0.27435 0.0
H1526 H 0.48227 0.7103 0.24148 0.0
H1527 H 0.53593 0.71061 0.25814 0.0
H1528 H 0.43107 0.79231 0.24824 0.0
H1529 H 0.35185 0.60738 0.24217 0.0
H1530 H 0.39078 0.63772 0.25607 0.0
H1531 H 0.41105 0.63819 0.23869 0.0
C1532 C 0.4779 0.74084 0.28037 0.0
C1533 C 0.50948 0.72889 0.27604 0.0
C1534 C 0.44687 0.74021 0.27077 0.0
C1535 C 0.44749 0.72803 0.25678 0.0
C1536 C 0.48065 0.71869 0.25231 0.0
H1537 H 0.26656 0.73702 0.19291 0.0
H1538 H 0.33575 0.74652 0.20363 0.0
C1539 C 0.51115 0.71879 0.26186 0.0
C1540 C 0.41204 0.72258 0.24697 0.0
H1541 H 0.32422 0.6439 0.22785 0.0
C1542 C 0.40779 0.76 0.24369 0.0
C1543 C 0.38184 0.68023 0.24113 0.0
C1544 C 0.38371 0.63846 0.24476 0.0
C1545 C 0.37332 0.75596 0.2349 0.0
C1546 C 0.34301 0.71354 0.22914 0.0
C1547 C 0.34802 0.67644 0.23215 0.0
C1548 C 0.30205 0.70541 0.22174 0.0
C1549 C 0.36829 0.7965 0.23234 0.0
C1550 C 0.26049 0.67784 0.22813 0.0
C1551 C 0.22133 0.67216 0.22206 0.0
C1552 C 0.22294 0.69388 0.20942 0.0
C1553 C 0.26441 0.71984 0.20264 0.0
C1554 C 0.30387 0.72563 0.2088 0.0
H1555 H 0.39073 0.82521 0.23915 0.0
H1556 H 0.37669 0.80728 0.22126 0.0
H1557 H 0.33307 0.78809 0.23419 0.0
H1558 H 0.25847 0.6618 0.2381 0.0
H1559 H 0.18988 0.65166 0.2275 0.0
loop_
_geom_bond_atom_site_label_1
_geom_bond_atom_site_label_2
_geom_bond_distance
_geom_bond_site_symmetry_2
_ccdc_geom_bond_type
Fe0 O2 1.918 . S
Fe0 O5 1.997 . S
Fe0 O6 2.002 . S
Fe0 O11 1.976 . S
Fe0 O14 1.996 . S
Fe1 O2 1.918 . S
Fe1 O9 1.997 . S
Fe1 O12 1.996 . S
Fe1 O16 1.976 . S
Fe1 O19 2.002 . S
O2 Fe0 1.918 . S
O2 Fe1 1.918 . S
O2 Fe3 1.918 . S
Fe3 O2 1.918 . S
Fe3 O4 2.002 . S
Fe3 O13 1.976 . S
Fe3 O17 1.996 . S
Fe3 O20 1.997 . S
O4 Fe3 2.002 . S
O4 C21 1.295 . S
O5 Fe0 1.997 . S
O5 C21 1.235 . S
O6 Fe0 2.002 . S
O6 C7 1.295 . S
C7 O6 1.295 . S
C7 O9 1.235 . S
C8 O13 1.287 . S
C8 O14 1.255 . S
O9 Fe1 1.997 . S
O9 C7 1.235 . S
C10 O16 1.287 . S
C10 O17 1.255 . S
O11 Fe0 1.976 . S
O11 C18 1.287 . S
O12 Fe1 1.996 . S
O12 C18 1.255 . S
O13 Fe3 1.976 . S
O13 C8 1.287 . S
O14 Fe0 1.996 . S
O14 C8 1.255 . S
C15 O19 1.295 . S
C15 O20 1.235 . S
O16 Fe1 1.976 . S
O16 C10 1.287 . S
O17 Fe3 1.996 . S
O17 C10 1.255 . S
C18 O11 1.287 . S
C18 O12 1.255 . S
O19 Fe1 2.002 . S
O19 C15 1.295 . S
O20 Fe3 1.997 . S
O20 C15 1.235 . S
C21 O4 1.295 . S
C21 O5 1.235 . S
Fe22 O24 1.918 . S
Fe22 O27 1.997 . S
Fe22 O28 2.002 . S
Fe22 O33 1.976 . S
Fe22 O36 1.996 . S
Fe23 O24 1.918 . S
Fe23 O31 1.997 . S
Fe23 O34 1.996 . S
Fe23 O38 1.976 . S
Fe23 O41 2.002 . S
O24 Fe22 1.918 . S
O24 Fe23 1.918 . S
O24 Fe25 1.918 . S
Fe25 O24 1.918 . S
Fe25 O26 2.002 . S
Fe25 O35 1.976 . S
Fe25 O39 1.996 . S
Fe25 O42 1.997 . S
O26 Fe25 2.002 . S
O26 C43 1.295 . S
O27 Fe22 1.997 . S
O27 C43 1.235 . S
O28 Fe22 2.002 . S
O28 C29 1.295 . S
C29 O28 1.295 . S
C29 O31 1.235 . S
C30 O35 1.287 . S
C30 O36 1.255 . S
O31 Fe23 1.997 . S
O31 C29 1.235 . S
C32 O38 1.287 . S
C32 O39 1.255 . S
O33 Fe22 1.976 . S
O33 C40 1.287 . S
O34 Fe23 1.996 . S
O34 C40 1.255 . S
O35 Fe25 1.976 . S
O35 C30 1.287 . S
O36 Fe22 1.996 . S
O36 C30 1.255 . S
C37 O41 1.295 . S
C37 O42 1.235 . S
O38 Fe23 1.976 . S
O38 C32 1.287 . S
O39 Fe25 1.996 . S
O39 C32 1.255 . S
C40 O33 1.287 . S
C40 O34 1.255 . S
O41 Fe23 2.002 . S
O41 C37 1.295 . S
O42 Fe25 1.997 . S
O42 C37 1.235 . S
C43 O26 1.295 . S
C43 O27 1.235 . S
Fe44 O46 1.918 . S
Fe44 O49 1.997 . S
Fe44 O50 2.002 . S
Fe44 O55 1.976 . S
Fe44 O58 1.996 . S
Fe45 O46 1.918 . S
Fe45 O53 1.997 . S
Fe45 O56 1.996 . S
Fe45 O60 1.976 . S
Fe45 O63 2.002 . S
O46 Fe44 1.918 . S
O46 Fe45 1.918 . S
O46 Fe47 1.918 . S
Fe47 O46 1.918 . S
Fe47 O48 2.002 . S
Fe47 O57 1.976 . S
Fe47 O61 1.996 . S
Fe47 O64 1.997 . S
O48 Fe47 2.002 . S
O48 C65 1.295 . S
O49 Fe44 1.997 . S
O49 C65 1.235 . S
O50 Fe44 2.002 . S
O50 C51 1.295 . S
C51 O50 1.295 . S
C51 O53 1.235 . S
C52 O57 1.287 . S
C52 O58 1.255 . S
O53 Fe45 1.997 . S
O53 C51 1.235 . S
C54 O60 1.287 . S
C54 O61 1.255 . S
O55 Fe44 1.976 . S
O55 C62 1.287 . S
O56 Fe45 1.996 . S
O56 C62 1.255 . S
O57 Fe47 1.976 . S
O57 C52 1.287 . S
O58 Fe44 1.996 . S
O58 C52 1.255 . S
C59 O63 1.295 . S
C59 O64 1.235 . S
O60 Fe45 1.976 . S
O60 C54 1.287 . S
O61 Fe47 1.996 . S
O61 C54 1.255 . S
C62 O55 1.287 . S
C62 O56 1.255 . S
O63 Fe45 2.002 . S
O63 C59 1.295 . S
O64 Fe47 1.997 . S
O64 C59 1.235 . S
C65 O48 1.295 . S
C65 O49 1.235 . S
Fe66 O68 1.918 . S
Fe66 O71 1.997 . S
Fe66 O72 2.002 . S
Fe66 O77 1.976 . S
Fe66 O80 1.996 . S
Fe67 O68 1.918 . S
Fe67 O75 1.997 . S
Fe67 O78 1.996 . S
Fe67 O82 1.976 . S
Fe67 O85 2.002 . S
O68 Fe66 1.918 . S
O68 Fe67 1.918 . S
O68 Fe69 1.918 . S
Fe69 O68 1.918 . S
Fe69 O70 2.002 . S
Fe69 O79 1.976 . S
Fe69 O83 1.996 . S
Fe69 O86 1.997 . S
O70 Fe69 2.002 . S
O70 C87 1.295 . S
O71 Fe66 1.997 . S
O71 C87 1.235 . S
O72 Fe66 2.002 . S
O72 C73 1.295 . S
C73 O72 1.295 . S
C73 O75 1.235 . S
C74 O79 1.287 . S
C74 O80 1.255 . S
O75 Fe67 1.997 . S
O75 C73 1.235 . S
C76 O82 1.287 . S
C76 O83 1.255 . S
O77 Fe66 1.976 . S
O77 C84 1.287 . S
O78 Fe67 1.996 . S
O78 C84 1.255 . S
O79 Fe69 1.976 . S
O79 C74 1.287 . S
O80 Fe66 1.996 . S
O80 C74 1.255 . S
C81 O85 1.295 . S
C81 O86 1.235 . S
O82 Fe67 1.976 . S
O82 C76 1.287 . S
O83 Fe69 1.996 . S
O83 C76 1.255 . S
C84 O77 1.287 . S
C84 O78 1.255 . S
O85 Fe67 2.002 . S
O85 C81 1.295 . S
O86 Fe69 1.997 . S
O86 C81 1.235 . S
C87 O70 1.295 . S
C87 O71 1.235 . S
Fe88 O90 1.918 . S
Fe88 O93 1.997 . S
Fe88 O94 2.002 . S
Fe88 O99 1.976 . S
Fe88 O102 1.996 . S
Fe89 O90 1.918 . S
Fe89 O97 1.997 . S
Fe89 O100 1.996 . S
Fe89 O104 1.976 . S
Fe89 O107 2.002 . S
O90 Fe88 1.918 . S
O90 Fe89 1.918 . S
O90 Fe91 1.918 . S
Fe91 O90 1.918 . S
Fe91 O92 2.002 . S
Fe91 O101 1.976 . S
Fe91 O105 1.996 . S
Fe91 O108 1.997 . S
O92 Fe91 2.002 . S
O92 C109 1.295 . S
O93 Fe88 1.997 . S
O93 C109 1.235 . S
O94 Fe88 2.002 . S
O94 C95 1.295 . S
C95 O94 1.295 . S
C95 O97 1.235 . S
C96 O101 1.287 . S
C96 O102 1.255 . S
O97 Fe89 1.997 . S
O97 C95 1.235 . S
C98 O104 1.287 . S
C98 O105 1.255 . S
O99 Fe88 1.976 . S
O99 C106 1.287 . S
O100 Fe89 1.996 . S
O100 C106 1.255 . S
O101 Fe91 1.976 . S
O101 C96 1.287 . S
O102 Fe88 1.996 . S
O102 C96 1.255 . S
C103 O107 1.295 . S
C103 O108 1.235 . S
O104 Fe89 1.976 . S
O104 C98 1.287 . S
O105 Fe91 1.996 . S
O105 C98 1.255 . S
C106 O99 1.287 . S
C106 O100 1.255 . S
O107 Fe89 2.002 . S
O107 C103 1.295 . S
O108 Fe91 1.997 . S
O108 C103 1.235 . S
C109 O92 1.295 . S
C109 O93 1.235 . S
Fe110 O112 1.918 . S
Fe110 O115 1.997 . S
Fe110 O116 2.002 . S
Fe110 O121 1.976 . S
Fe110 O124 1.996 . S
Fe111 O112 1.918 . S
Fe111 O119 1.997 . S
Fe111 O122 1.996 . S
Fe111 O126 1.976 . S
Fe111 O129 2.002 . S
O112 Fe110 1.918 . S
O112 Fe111 1.918 . S
O112 Fe113 1.918 . S
Fe113 O112 1.918 . S
Fe113 O114 2.002 . S
Fe113 O123 1.976 . S
Fe113 O127 1.996 . S
Fe113 O130 1.997 . S
O114 Fe113 2.002 . S
O114 C131 1.295 . S
O115 Fe110 1.997 . S
O115 C131 1.235 . S
O116 Fe110 2.002 . S
O116 C117 1.295 . S
C117 O116 1.295 . S
C117 O119 1.235 . S
C118 O123 1.287 . S
C118 O124 1.255 . S
O119 Fe111 1.997 . S
O119 C117 1.235 . S
C120 O126 1.287 . S
C120 O127 1.255 . S
O121 Fe110 1.976 . S
O121 C128 1.287 . S
O122 Fe111 1.996 . S
O122 C128 1.255 . S
O123 Fe113 1.976 . S
O123 C118 1.287 . S
O124 Fe110 1.996 . S
O124 C118 1.255 . S
C125 O129 1.295 . S
C125 O130 1.235 . S
O126 Fe111 1.976 . S
O126 C120 1.287 . S
O127 Fe113 1.996 . S
O127 C120 1.255 . S
C128 O121 1.287 . S
C128 O122 1.255 . S
O129 Fe111 2.002 . S
O129 C125 1.295 . S
O130 Fe113 1.997 . S
O130 C125 1.235 . S
C131 O114 1.295 . S
C131 O115 1.235 . S
Fe132 O134 1.918 . S
Fe132 O137 1.997 . S
Fe132 O138 2.002 . S
Fe132 O143 1.976 . S
Fe132 O146 1.996 . S
Fe133 O134 1.918 . S
Fe133 O141 1.997 . S
Fe133 O144 1.996 . S
Fe133 O148 1.976 . S
Fe133 O151 2.002 . S
O134 Fe132 1.918 . S
O134 Fe133 1.918 . S
O134 Fe135 1.918 . S
Fe135 O134 1.918 . S
Fe135 O136 2.002 . S
Fe135 O145 1.976 . S
Fe135 O149 1.996 . S
Fe135 O152 1.997 . S
O136 Fe135 2.002 . S
O136 C153 1.295 . S
O137 Fe132 1.997 . S
O137 C153 1.235 . S
O138 Fe132 2.002 . S
O138 C139 1.295 . S
C139 O138 1.295 . S
C139 O141 1.235 . S
C140 O145 1.287 . S
C140 O146 1.255 . S
O141 Fe133 1.997 . S
O141 C139 1.235 . S
C142 O148 1.287 . S
C142 O149 1.255 . S
O143 Fe132 1.976 . S
O143 C150 1.287 . S
O144 Fe133 1.996 . S
O144 C150 1.255 . S
O145 Fe135 1.976 . S
O145 C140 1.287 . S
O146 Fe132 1.996 . S
O146 C140 1.255 . S
C147 O151 1.295 . S
C147 O152 1.235 . S
O148 Fe133 1.976 . S
O148 C142 1.287 . S
O149 Fe135 1.996 . S
O149 C142 1.255 . S
C150 O143 1.287 . S
C150 O144 1.255 . S
O151 Fe133 2.002 . S
O151 C147 1.295 . S
O152 Fe135 1.997 . S
O152 C147 1.235 . S
C153 O136 1.295 . S
C153 O137 1.235 . S
Fe154 O156 1.918 . S
Fe154 O159 1.997 . S
Fe154 O160 2.002 . S
Fe154 O165 1.976 . S
Fe154 O168 1.996 . S
Fe155 O156 1.918 . S
Fe155 O163 1.997 . S
Fe155 O166 1.996 . S
Fe155 O170 1.976 . S
Fe155 O173 2.002 . S
O156 Fe154 1.918 . S
O156 Fe155 1.918 . S
O156 Fe157 1.918 . S
Fe157 O156 1.918 . S
Fe157 O158 2.002 . S
Fe157 O167 1.976 . S
Fe157 O171 1.996 . S
Fe157 O174 1.997 . S
O158 Fe157 2.002 . S
O158 C175 1.295 . S
O159 Fe154 1.997 . S
O159 C175 1.235 . S
O160 Fe154 2.002 . S
O160 C161 1.295 . S
C161 O160 1.295 . S
C161 O163 1.235 . S
C162 O167 1.287 . S
C162 O168 1.255 . S
O163 Fe155 1.997 . S
O163 C161 1.235 . S
C164 O170 1.287 . S
C164 O171 1.255 . S
O165 Fe154 1.976 . S
O165 C172 1.287 . S
O166 Fe155 1.996 . S
O166 C172 1.255 . S
O167 Fe157 1.976 . S
O167 C162 1.287 . S
O168 Fe154 1.996 . S
O168 C162 1.255 . S
C169 O173 1.295 . S
C169 O174 1.235 . S
O170 Fe155 1.976 . S
O170 C164 1.287 . S
O171 Fe157 1.996 . S
O171 C164 1.255 . S
C172 O165 1.287 . S
C172 O166 1.255 . S
O173 Fe155 2.002 . S
O173 C169 1.295 . S
O174 Fe157 1.997 . S
O174 C169 1.235 . S
C175 O158 1.295 . S
C175 O159 1.235 . S
Fe176 O178 1.918 . S
Fe176 O181 1.997 . S
Fe176 O182 2.002 . S
Fe176 O187 1.976 . S
Fe176 O190 1.996 . S
Fe177 O178 1.918 . S
Fe177 O185 1.997 . S
Fe177 O188 1.996 . S
Fe177 O192 1.976 . S
Fe177 O195 2.002 . S
O178 Fe176 1.918 . S
O178 Fe177 1.918 . S
O178 Fe179 1.918 . S
Fe179 O178 1.918 . S
Fe179 O180 2.002 . S
Fe179 O189 1.976 . S
Fe179 O193 1.996 . S
Fe179 O196 1.997 . S
O180 Fe179 2.002 . S
O180 C197 1.295 . S
O181 Fe176 1.997 . S
O181 C197 1.235 . S
O182 Fe176 2.002 . S
O182 C183 1.295 . S
C183 O182 1.295 . S
C183 O185 1.235 . S
C184 O189 1.287 . S
C184 O190 1.255 . S
O185 Fe177 1.997 . S
O185 C183 1.235 . S
C186 O192 1.287 . S
C186 O193 1.255 . S
O187 Fe176 1.976 . S
O187 C194 1.287 . S
O188 Fe177 1.996 . S
O188 C194 1.255 . S
O189 Fe179 1.976 . S
O189 C184 1.287 . S
O190 Fe176 1.996 . S
O190 C184 1.255 . S
C191 O195 1.295 . S
C191 O196 1.235 . S
O192 Fe177 1.976 . S
O192 C186 1.287 . S
O193 Fe179 1.996 . S
O193 C186 1.255 . S
C194 O187 1.287 . S
C194 O188 1.255 . S
O195 Fe177 2.002 . S
O195 C191 1.295 . S
O196 Fe179 1.997 . S
O196 C191 1.235 . S
C197 O180 1.295 . S
C197 O181 1.235 . S
Fe198 O200 1.918 . S
Fe198 O203 1.997 . S
Fe198 O204 2.002 . S
Fe198 O209 1.976 . S
Fe198 O212 1.996 . S
Fe199 O200 1.918 . S
Fe199 O207 1.997 . S
Fe199 O210 1.996 . S
Fe199 O214 1.976 . S
Fe199 O217 2.002 . S
O200 Fe198 1.918 . S
O200 Fe199 1.918 . S
O200 Fe201 1.918 . S
Fe201 O200 1.918 . S
Fe201 O202 2.002 . S
Fe201 O211 1.976 . S
Fe201 O215 1.996 . S
Fe201 O218 1.997 . S
O202 Fe201 2.002 . S
O202 C219 1.295 . S
O203 Fe198 1.997 . S
O203 C219 1.235 . S
O204 Fe198 2.002 . S
O204 C205 1.295 . S
C205 O204 1.295 . S
C205 O207 1.235 . S
C206 O211 1.287 . S
C206 O212 1.255 . S
O207 Fe199 1.997 . S
O207 C205 1.235 . S
C208 O214 1.287 . S
C208 O215 1.255 . S
O209 Fe198 1.976 . S
O209 C216 1.287 . S
O210 Fe199 1.996 . S
O210 C216 1.255 . S
O211 Fe201 1.976 . S
O211 C206 1.287 . S
O212 Fe198 1.996 . S
O212 C206 1.255 . S
C213 O217 1.295 . S
C213 O218 1.235 . S
O214 Fe199 1.976 . S
O214 C208 1.287 . S
O215 Fe201 1.996 . S
O215 C208 1.255 . S
C216 O209 1.287 . S
C216 O210 1.255 . S
O217 Fe199 2.002 . S
O217 C213 1.295 . S
O218 Fe201 1.997 . S
O218 C213 1.235 . S
C219 O202 1.295 . S
C219 O203 1.235 . S
Fe220 O222 1.918 . S
Fe220 O225 1.997 . S
Fe220 O226 2.002 . S
Fe220 O231 1.976 . S
Fe220 O234 1.996 . S
Fe221 O222 1.918 . S
Fe221 O229 1.997 . S
Fe221 O232 1.996 . S
Fe221 O236 1.976 . S
Fe221 O239 2.002 . S
O222 Fe220 1.918 . S
O222 Fe221 1.918 . S
O222 Fe223 1.918 . S
Fe223 O222 1.918 . S
Fe223 O224 2.002 . S
Fe223 O233 1.976 . S
Fe223 O237 1.996 . S
Fe223 O240 1.997 . S
O224 Fe223 2.002 . S
O224 C241 1.295 . S
O225 Fe220 1.997 . S
O225 C241 1.235 . S
O226 Fe220 2.002 . S
O226 C227 1.295 . S
C227 O226 1.295 . S
C227 O229 1.235 . S
C228 O233 1.287 . S
C228 O234 1.255 . S
O229 Fe221 1.997 . S
O229 C227 1.235 . S
C230 O236 1.287 . S
C230 O237 1.255 . S
O231 Fe220 1.976 . S
O231 C238 1.287 . S
O232 Fe221 1.996 . S
O232 C238 1.255 . S
O233 Fe223 1.976 . S
O233 C228 1.287 . S
O234 Fe220 1.996 . S
O234 C228 1.255 . S
C235 O239 1.295 . S
C235 O240 1.235 . S
O236 Fe221 1.976 . S
O236 C230 1.287 . S
O237 Fe223 1.996 . S
O237 C230 1.255 . S
C238 O231 1.287 . S
C238 O232 1.255 . S
O239 Fe221 2.002 . S
O239 C235 1.295 . S
O240 Fe223 1.997 . S
O240 C235 1.235 . S
C241 O224 1.295 . S
C241 O225 1.235 . S
Fe242 O244 1.918 . S
Fe242 O247 1.997 . S
Fe242 O248 2.002 . S
Fe242 O253 1.976 . S
Fe242 O256 1.996 . S
Fe243 O244 1.918 . S
Fe243 O251 1.997 . S
Fe243 O254 1.996 . S
Fe243 O258 1.976 . S
Fe243 O261 2.002 . S
O244 Fe242 1.918 . S
O244 Fe243 1.918 . S
O244 Fe245 1.918 . S
Fe245 O244 1.918 . S
Fe245 O246 2.002 . S
Fe245 O255 1.976 . S
Fe245 O259 1.996 . S
Fe245 O262 1.997 . S
O246 Fe245 2.002 . S
O246 C263 1.295 . S
O247 Fe242 1.997 . S
O247 C263 1.235 . S
O248 Fe242 2.002 . S
O248 C249 1.295 . S
C249 O248 1.295 . S
C249 O251 1.235 . S
C250 O255 1.287 . S
C250 O256 1.255 . S
O251 Fe243 1.997 . S
O251 C249 1.235 . S
C252 O258 1.287 . S
C252 O259 1.255 . S
O253 Fe242 1.976 . S
O253 C260 1.287 . S
O254 Fe243 1.996 . S
O254 C260 1.255 . S
O255 Fe245 1.976 . S
O255 C250 1.287 . S
O256 Fe242 1.996 . S
O256 C250 1.255 . S
C257 O261 1.295 . S
C257 O262 1.235 . S
O258 Fe243 1.976 . S
O258 C252 1.287 . S
O259 Fe245 1.996 . S
O259 C252 1.255 . S
C260 O253 1.287 . S
C260 O254 1.255 . S
O261 Fe243 2.002 . S
O261 C257 1.295 . S
O262 Fe245 1.997 . S
O262 C257 1.235 . S
C263 O246 1.295 . S
C263 O247 1.235 . S
H264 C272 0.929 . S
H265 C274 0.930 . S
H266 C276 0.930 . S
H267 C279 0.929 . S
H268 C282 0.930 . S
H269 C284 0.960 1_545 S
H270 C284 0.960 . S
H271 C284 0.960 1_545 S
C272 H264 0.929 . S
C272 C273 1.377 . S
C272 C274 1.384 . S
C273 C272 1.377 . S
C273 C279 1.390 . S
C274 H265 0.930 . S
C274 C272 1.384 . S
C274 C275 1.372 . S
C275 C274 1.372 . S
C275 C276 1.400 . S
C275 C280 1.490 . S
C276 H266 0.930 . S
C276 C275 1.400 . S
C276 C279 1.386 . S
H277 C293 0.930 . S
H278 C294 0.931 . S
C279 H267 0.929 . S
C279 C273 1.390 . S
C279 C276 1.386 . S
C280 C275 1.490 . S
C280 C282 1.395 . S
C280 C283 1.403 . S
H281 C287 0.930 . S
C282 H268 0.930 . S
C282 C280 1.395 . S
C282 C285 1.403 . S
C283 C280 1.403 . S
C283 C284 1.524 . S
C283 C287 1.400 1_565 S
C284 H269 0.960 1_565 S
C284 H270 0.960 . S
C284 H271 0.960 1_565 S
C284 C283 1.524 . S
C285 C282 1.403 . S
C285 C286 1.392 1_565 S
C285 C289 1.495 . S
C286 C285 1.392 1_545 S
C286 C287 1.385 . S
C286 C288 1.478 . S
C287 H281 0.930 . S
C287 C283 1.400 1_545 S
C287 C286 1.385 . S
C288 C286 1.478 . S
C288 C290 1.381 . S
C288 C294 1.383 . S
C289 C285 1.495 . S
C289 H295 0.959 . S
C289 H296 0.961 . S
C289 H297 0.960 . S
C290 C288 1.381 . S
C290 C291 1.394 . S
C290 H298 0.930 1_545 S
C291 C290 1.394 . S
C291 C292 1.383 . S
C291 H299 0.929 . S
C292 C291 1.383 . S
C292 C293 1.377 . S
C293 H277 0.930 . S
C293 C292 1.377 . S
C293 C294 1.379 . S
C294 H278 0.931 . S
C294 C288 1.383 . S
C294 C293 1.379 . S
H295 C289 0.959 . S
H296 C289 0.961 . S
H297 C289 0.960 . S
H298 C290 0.930 1_565 S
H299 C291 0.929 . S
H300 C308 0.929 . S
H301 C310 0.930 . S
H302 C312 0.930 . S
H303 C315 0.929 . S
H304 C318 0.930 . S
H305 C320 0.960 . S
H306 C320 0.960 . S
H307 C320 0.960 . S
C308 H300 0.929 . S
C308 C309 1.377 . S
C308 C310 1.384 . S
C309 C308 1.377 . S
C309 C315 1.390 . S
C310 H301 0.930 . S
C310 C308 1.384 . S
C310 C311 1.372 . S
C311 C310 1.372 . S
C311 C312 1.400 . S
C311 C316 1.490 . S
C312 H302 0.930 . S
C312 C311 1.400 . S
C312 C315 1.386 . S
H313 C329 0.930 . S
H314 C330 0.931 . S
C315 H303 0.929 . S
C315 C309 1.390 . S
C315 C312 1.386 . S
C316 C311 1.490 . S
C316 C318 1.395 . S
C316 C319 1.403 . S
H317 C323 0.930 . S
C318 H304 0.930 . S
C318 C316 1.395 . S
C318 C321 1.403 . S
C319 C316 1.403 . S
C319 C320 1.524 . S
C319 C323 1.400 . S
C320 H305 0.960 . S
C320 H306 0.960 . S
C320 H307 0.960 . S
C320 C319 1.524 . S
C321 C318 1.403 . S
C321 C322 1.392 . S
C321 C325 1.495 . S
C322 C321 1.392 . S
C322 C323 1.385 . S
C322 C324 1.478 . S
C323 H317 0.930 . S
C323 C319 1.400 . S
C323 C322 1.385 . S
C324 C322 1.478 . S
C324 C326 1.381 . S
C324 C330 1.383 . S
C325 C321 1.495 . S
C325 H331 0.959 . S
C325 H332 0.961 . S
C325 H333 0.960 . S
C326 C324 1.381 . S
C326 C327 1.394 . S
C326 H334 0.930 . S
C327 C326 1.394 . S
C327 C328 1.383 . S
C327 H335 0.929 . S
C328 C327 1.383 . S
C328 C329 1.377 . S
C329 H313 0.930 . S
C329 C328 1.377 . S
C329 C330 1.379 . S
C330 H314 0.931 . S
C330 C324 1.383 . S
C330 C329 1.379 . S
H331 C325 0.959 . S
H332 C325 0.961 . S
H333 C325 0.960 . S
H334 C326 0.930 . S
H335 C327 0.929 . S
H336 C344 0.929 . S
H337 C346 0.930 . S
H338 C348 0.930 1_455 S
H339 C351 0.929 . S
H340 C354 0.930 . S
H341 C356 0.960 . S
H342 C356 0.960 . S
H343 C356 0.960 . S
C344 H336 0.929 . S
C344 C345 1.377 . S
C344 C346 1.384 . S
C345 C344 1.377 . S
C345 C351 1.390 . S
C346 H337 0.930 . S
C346 C344 1.384 . S
C346 C347 1.372 . S
C347 C346 1.372 . S
C347 C348 1.400 . S
C347 C352 1.490 . S
C348 H338 0.930 1_655 S
C348 C347 1.400 . S
C348 C351 1.386 . S
H349 C365 0.930 . S
H350 C366 0.931 . S
C351 H339 0.929 . S
C351 C345 1.390 . S
C351 C348 1.386 . S
C352 C347 1.490 . S
C352 C354 1.395 . S
C352 C355 1.403 1_655 S
H353 C359 0.930 . S
C354 H340 0.930 . S
C354 C352 1.395 . S
C354 C357 1.403 1_655 S
C355 C352 1.403 1_455 S
C355 C356 1.524 . S
C355 C359 1.400 . S
C356 H341 0.960 . S
C356 H342 0.960 . S
C356 H343 0.960 . S
C356 C355 1.524 . S
C357 C354 1.403 1_455 S
C357 C358 1.392 . S
C357 C361 1.495 1_455 S
C358 C357 1.392 . S
C358 C359 1.385 . S
C358 C360 1.478 . S
C359 H353 0.930 . S
C359 C355 1.400 . S
C359 C358 1.385 . S
C360 C358 1.478 . S
C360 C362 1.381 . S
C360 C366 1.383 . S
C361 C357 1.495 1_655 S
C361 H367 0.959 . S
C361 H368 0.961 1_655 S
C361 H369 0.960 . S
C362 C360 1.381 . S
C362 C363 1.394 . S
C362 H370 0.930 . S
C363 C362 1.394 . S
C363 C364 1.383 . S
C363 H371 0.929 . S
C364 C363 1.383 . S
C364 C365 1.377 . S
C365 H349 0.930 . S
C365 C364 1.377 . S
C365 C366 1.379 . S
C366 H350 0.931 . S
C366 C360 1.383 . S
C366 C365 1.379 . S
H367 C361 0.959 . S
H368 C361 0.961 1_455 S
H369 C361 0.960 . S
H370 C362 0.930 . S
H371 C363 0.929 . S
H372 C380 0.929 . S
H373 C382 0.930 . S
H374 C384 0.930 . S
H375 C387 0.929 . S
H376 C390 0.930 . S
H377 C392 0.960 . S
H378 C392 0.960 . S
H379 C392 0.960 . S
C380 H372 0.929 . S
C380 C381 1.377 . S
C380 C382 1.384 . S
C381 C380 1.377 . S
C381 C387 1.390 . S
C382 H373 0.930 . S
C382 C380 1.384 . S
C382 C383 1.372 . S
C383 C382 1.372 . S
C383 C384 1.400 . S
C383 C388 1.490 . S
C384 H374 0.930 . S
C384 C383 1.400 . S
C384 C387 1.386 . S
H385 C401 0.930 . S
H386 C402 0.931 1_545 S
C387 H375 0.929 . S
C387 C381 1.390 . S
C387 C384 1.386 . S
C388 C383 1.490 . S
C388 C390 1.395 . S
C388 C391 1.403 . S
H389 C395 0.930 1_565 S
C390 H376 0.930 . S
C390 C388 1.395 . S
C390 C393 1.403 . S
C391 C388 1.403 . S
C391 C392 1.524 . S
C391 C395 1.400 . S
C392 H377 0.960 . S
C392 H378 0.960 . S
C392 H379 0.960 . S
C392 C391 1.524 . S
C393 C390 1.403 . S
C393 C394 1.392 1_545 S
C393 C397 1.495 1_545 S
C394 C393 1.392 1_565 S
C394 C395 1.385 1_565 S
C394 C396 1.478 . S
C395 H389 0.930 1_545 S
C395 C391 1.400 . S
C395 C394 1.385 1_545 S
C396 C394 1.478 . S
C396 C398 1.381 . S
C396 C402 1.383 . S
C397 C393 1.495 1_565 S
C397 H403 0.959 1_565 S
C397 H404 0.961 1_565 S
C397 H405 0.960 . S
C398 C396 1.381 . S
C398 C399 1.394 . S
C398 H406 0.930 . S
C399 C398 1.394 . S
C399 C400 1.383 . S
C399 H407 0.929 . S
C400 C399 1.383 . S
C400 C401 1.377 . S
C401 H385 0.930 . S
C401 C400 1.377 . S
C401 C402 1.379 . S
C402 H386 0.931 1_565 S
C402 C396 1.383 . S
C402 C401 1.379 . S
H403 C397 0.959 1_545 S
H404 C397 0.961 1_545 S
H405 C397 0.960 . S
H406 C398 0.930 . S
H407 C399 0.929 . S
H408 C416 0.929 . S
H409 C418 0.930 . S
H410 C420 0.930 . S
H411 C423 0.929 . S
H412 C426 0.930 . S
H413 C428 0.960 . S
H414 C428 0.960 . S
H415 C428 0.960 . S
C416 H408 0.929 . S
C416 C417 1.377 . S
C416 C418 1.384 . S
C417 C416 1.377 . S
C417 C423 1.390 . S
C418 H409 0.930 . S
C418 C416 1.384 . S
C418 C419 1.372 . S
C419 C418 1.372 . S
C419 C420 1.400 . S
C419 C424 1.490 . S
C420 H410 0.930 . S
C420 C419 1.400 . S
C420 C423 1.386 . S
H421 C437 0.882 1_554 S
H422 C438 0.931 . S
C423 H411 0.929 . S
C423 C417 1.390 . S
C423 C420 1.386 . S
C424 C419 1.490 . S
C424 C426 1.395 . S
C424 C427 1.403 . S
H425 C431 0.930 . S
C426 H412 0.930 . S
C426 C424 1.395 . S
C426 C429 1.403 . S
C427 C424 1.403 . S
C427 C428 1.524 . S
C427 C431 1.400 . S
C428 H413 0.960 . S
C428 H414 0.960 . S
C428 H415 0.960 . S
C428 C427 1.524 . S
C429 C426 1.403 . S
C429 C430 1.392 . S
C429 C433 1.495 . S
C430 C429 1.392 . S
C430 C431 1.385 . S
C430 C432 1.478 . S
C431 H425 0.930 . S
C431 C427 1.400 . S
C431 C430 1.385 . S
C432 C430 1.478 . S
C432 C434 1.381 . S
C432 C438 1.383 . S
C433 C429 1.495 . S
C433 H439 0.959 . S
C433 H440 0.961 . S
C433 H441 0.960 . S
C434 C432 1.381 . S
C434 C435 1.394 . S
C434 H442 0.930 . S
C435 C434 1.394 . S
C435 C436 1.383 . S
C435 H443 0.929 . S
C436 C435 1.383 . S
C436 C437 1.377 . S
C437 H421 0.882 1_556 S
C437 C436 1.377 . S
C437 C438 1.379 . S
C438 H422 0.931 . S
C438 C432 1.383 . S
C438 C437 1.379 . S
H439 C433 0.959 . S
H440 C433 0.961 . S
H441 C433 0.960 . S
H442 C434 0.930 . S
H443 C435 0.929 . S
H444 C452 0.929 . S
H445 C454 0.930 . S
H446 C456 0.926 1_655 S
H447 C459 0.929 . S
H448 C462 0.930 . S
H449 C464 0.960 . S
H450 C464 0.960 . S
H451 C464 0.960 . S
C452 H444 0.929 . S
C452 C453 1.377 . S
C452 C454 1.384 . S
C453 C452 1.377 . S
C453 C459 1.390 . S
C454 H445 0.930 . S
C454 C452 1.384 . S
C454 C455 1.372 . S
C455 C454 1.372 . S
C455 C456 1.400 . S
C455 C460 1.490 . S
C456 H446 0.926 1_455 S
C456 C455 1.400 . S
C456 C459 1.386 . S
H457 C473 0.930 . S
H458 C474 0.931 . S
C459 H447 0.929 . S
C459 C453 1.390 . S
C459 C456 1.386 . S
C460 C455 1.490 . S
C460 C462 1.395 . S
C460 C463 1.403 1_455 S
H461 C467 0.930 . S
C462 H448 0.930 . S
C462 C460 1.395 . S
C462 C465 1.404 1_455 S
C463 C460 1.403 1_655 S
C463 C464 1.524 . S
C463 C467 1.400 . S
C464 H449 0.960 . S
C464 H450 0.960 . S
C464 H451 0.960 . S
C464 C463 1.524 . S
C465 C462 1.404 1_655 S
C465 C466 1.392 . S
C465 C469 1.495 1_655 S
C466 C465 1.392 . S
C466 C467 1.385 . S
C466 C468 1.478 . S
C467 H461 0.930 . S
C467 C463 1.400 . S
C467 C466 1.385 . S
C468 C466 1.478 . S
C468 C470 1.381 . S
C468 C474 1.383 . S
C469 C465 1.495 1_455 S
C469 H475 0.959 . S
C469 H476 0.964 . S
C469 H477 0.960 . S
C470 C468 1.381 . S
C470 C471 1.394 . S
C470 H478 0.930 . S
C471 C470 1.394 . S
C471 C472 1.383 . S
C471 H479 0.929 . S
C472 C471 1.383 . S
C472 C473 1.377 . S
C473 H457 0.930 . S
C473 C472 1.377 . S
C473 C474 1.379 . S
C474 H458 0.931 . S
C474 C468 1.383 . S
C474 C473 1.379 . S
H475 C469 0.959 . S
H476 C469 0.964 . S
H477 C469 0.960 . S
H478 C470 0.930 . S
H479 C471 0.929 . S
H480 C488 0.929 . S
H481 C490 0.930 . S
H482 C492 0.930 . S
H483 C495 0.929 . S
H484 C498 0.930 . S
H485 C500 0.960 . S
H486 C500 0.960 . S
H487 C500 0.960 . S
C488 H480 0.929 . S
C488 C489 1.377 . S
C488 C490 1.384 . S
C489 C488 1.377 . S
C489 C495 1.390 . S
C490 H481 0.930 . S
C490 C488 1.384 . S
C490 C491 1.372 . S
C491 C490 1.372 . S
C491 C492 1.400 . S
C491 C496 1.490 . S
C492 H482 0.930 . S
C492 C491 1.400 . S
C492 C495 1.386 . S
H493 C509 0.930 . S
H494 C510 0.931 . S
C495 H483 0.929 . S
C495 C489 1.390 . S
C495 C492 1.386 . S
C496 C491 1.490 . S
C496 C498 1.395 . S
C496 C499 1.403 . S
H497 C503 0.930 . S
C498 H484 0.930 . S
C498 C496 1.395 . S
C498 C501 1.403 1_455 S
C499 C496 1.403 . S
C499 C500 1.524 . S
C499 C503 1.400 . S
C500 H485 0.960 . S
C500 H486 0.960 . S
C500 H487 0.960 . S
C500 C499 1.524 . S
C501 C498 1.403 1_655 S
C501 C502 1.392 . S
C501 C505 1.495 . S
C502 C501 1.392 . S
C502 C503 1.385 1_655 S
C502 C504 1.478 . S
C503 H497 0.930 . S
C503 C499 1.400 . S
C503 C502 1.385 1_455 S
C504 C502 1.478 . S
C504 C506 1.381 . S
C504 C510 1.383 . S
C505 C501 1.495 . S
C505 H511 0.959 . S
C505 H512 0.961 . S
C505 H513 0.960 . S
C506 C504 1.381 . S
C506 C507 1.394 . S
C506 H514 0.930 . S
C507 C506 1.394 . S
C507 C508 1.383 . S
C507 H515 0.929 . S
C508 C507 1.383 . S
C508 C509 1.377 . S
C509 H493 0.930 . S
C509 C508 1.377 . S
C509 C510 1.379 . S
C510 H494 0.931 . S
C510 C504 1.383 . S
C510 C509 1.379 . S
H511 C505 0.959 . S
H512 C505 0.961 . S
H513 C505 0.960 . S
H514 C506 0.930 . S
H515 C507 0.929 . S
H516 C524 0.929 . S
H517 C526 0.930 . S
H518 C528 0.930 1_545 S
H519 C531 0.929 . S
H520 C534 0.930 . S
H521 C536 0.960 . S
H522 C536 0.960 . S
H523 C536 0.960 . S
C524 H516 0.929 . S
C524 C525 1.377 . S
C524 C526 1.384 . S
C525 C524 1.377 . S
C525 C531 1.390 . S
C526 H517 0.930 . S
C526 C524 1.384 . S
C526 C527 1.372 . S
C527 C526 1.372 . S
C527 C528 1.400 . S
C527 C532 1.490 . S
C528 H518 0.930 1_565 S
C528 C527 1.400 . S
C528 C531 1.386 . S
H529 C545 0.930 . S
H530 C546 0.931 . S
C531 H519 0.929 . S
C531 C525 1.390 . S
C531 C528 1.386 . S
C532 C527 1.490 . S
C532 C534 1.395 . S
C532 C535 1.403 1_565 S
H533 C539 0.930 . S
C534 H520 0.930 . S
C534 C532 1.395 . S
C534 C537 1.403 1_565 S
C535 C532 1.403 1_545 S
C535 C536 1.524 . S
C535 C539 1.400 . S
C536 H521 0.960 . S
C536 H522 0.960 . S
C536 H523 0.960 . S
C536 C535 1.524 . S
C537 C534 1.403 1_545 S
C537 C538 1.392 . S
C537 C541 1.495 . S
C538 C537 1.392 . S
C538 C539 1.385 . S
C538 C540 1.478 . S
C539 H533 0.930 . S
C539 C535 1.400 . S
C539 C538 1.385 . S
C540 C538 1.478 . S
C540 C542 1.381 . S
C540 C546 1.383 . S
C541 C537 1.495 . S
C541 H547 0.959 1_545 S
C541 H548 0.961 . S
C541 H549 0.960 1_545 S
C542 C540 1.381 . S
C542 C543 1.394 . S
C542 H550 0.930 . S
C543 C542 1.394 . S
C543 C544 1.383 . S
C543 H551 0.929 . S
C544 C543 1.383 . S
C544 C545 1.377 . S
C545 H529 0.930 . S
C545 C544 1.377 . S
C545 C546 1.379 . S
C546 H530 0.931 . S
C546 C540 1.383 . S
C546 C545 1.379 . S
H547 C541 0.959 1_565 S
H548 C541 0.961 . S
H549 C541 0.960 1_565 S
H550 C542 0.930 . S
H551 C543 0.929 . S
H552 C560 0.929 . S
H553 C562 0.930 . S
H554 C564 0.930 . S
H555 C567 0.929 . S
H556 C570 0.930 . S
H557 C572 0.960 . S
H558 C572 0.960 . S
H559 C572 0.960 . S
C560 H552 0.929 . S
C560 C561 1.377 . S
C560 C562 1.384 . S
C561 C560 1.377 . S
C561 C567 1.390 . S
C562 H553 0.930 . S
C562 C560 1.384 . S
C562 C563 1.372 . S
C563 C562 1.372 . S
C563 C564 1.400 . S
C563 C568 1.490 . S
C564 H554 0.930 . S
C564 C563 1.400 . S
C564 C567 1.386 . S
H565 C581 0.930 . S
H566 C582 0.931 . S
C567 H555 0.929 . S
C567 C561 1.390 . S
C567 C564 1.386 . S
C568 C563 1.490 . S
C568 C570 1.395 . S
C568 C571 1.403 . S
H569 C575 0.930 . S
C570 H556 0.930 . S
C570 C568 1.395 . S
C570 C573 1.403 . S
C571 C568 1.403 . S
C571 C572 1.524 . S
C571 C575 1.400 . S
C572 H557 0.960 . S
C572 H558 0.960 . S
C572 H559 0.960 . S
C572 C571 1.524 . S
C573 C570 1.403 . S
C573 C574 1.392 . S
C573 C577 1.495 . S
C574 C573 1.392 . S
C574 C575 1.385 . S
C574 C576 1.478 . S
C575 H569 0.930 . S
C575 C571 1.400 . S
C575 C574 1.385 . S
C576 C574 1.478 . S
C576 C578 1.381 . S
C576 C582 1.383 . S
C577 C573 1.495 . S
C577 H583 0.959 . S
C577 H584 0.961 . S
C577 H585 0.960 . S
C578 C576 1.381 . S
C578 C579 1.394 . S
C578 H586 0.930 . S
C579 C578 1.394 . S
C579 C580 1.383 . S
C579 H587 0.929 . S
C580 C579 1.383 . S
C580 C581 1.377 . S
C581 H565 0.930 . S
C581 C580 1.377 . S
C581 C582 1.379 . S
C582 H566 0.931 . S
C582 C576 1.383 . S
C582 C581 1.379 . S
H583 C577 0.959 . S
H584 C577 0.961 . S
H585 C577 0.960 . S
H586 C578 0.930 . S
H587 C579 0.929 . S
H588 C596 0.929 . S
H589 C598 0.930 . S
H590 C600 0.930 . S
H591 C603 0.929 . S
H592 C606 0.930 1_455 S
H593 C608 0.960 . S
H594 C608 0.960 . S
H595 C608 0.960 . S
C596 H588 0.929 . S
C596 C597 1.377 . S
C596 C598 1.384 . S
C597 C596 1.377 . S
C597 C603 1.390 . S
C598 H589 0.930 . S
C598 C596 1.384 . S
C598 C599 1.372 . S
C599 C598 1.372 . S
C599 C600 1.400 . S
C599 C604 1.490 . S
C600 H590 0.930 . S
C600 C599 1.400 . S
C600 C603 1.386 . S
H601 C617 0.930 1_556 S
H602 C618 0.931 . S
C603 H591 0.929 . S
C603 C597 1.390 . S
C603 C600 1.386 . S
C604 C599 1.490 . S
C604 C606 1.395 . S
C604 C607 1.403 . S
H605 C611 0.930 . S
C606 H592 0.930 1_655 S
C606 C604 1.395 . S
C606 C609 1.403 1_655 S
C607 C604 1.403 . S
C607 C608 1.524 . S
C607 C611 1.400 . S
C608 H593 0.960 . S
C608 H594 0.960 . S
C608 H595 0.960 . S
C608 C607 1.524 . S
C609 C606 1.403 1_455 S
C609 C610 1.392 . S
C609 C613 1.495 . S
C610 C609 1.392 . S
C610 C611 1.385 1_455 S
C610 C612 1.478 . S
C611 H605 0.930 . S
C611 C607 1.400 . S
C611 C610 1.385 1_655 S
C612 C610 1.478 . S
C612 C614 1.381 . S
C612 C618 1.383 . S
C613 C609 1.495 . S
C613 H619 0.959 . S
C613 H620 0.961 . S
C613 H621 0.960 . S
C614 C612 1.381 . S
C614 C615 1.394 . S
C614 H622 0.930 . S
C615 C614 1.394 . S
C615 C616 1.383 . S
C615 H623 0.929 . S
C616 C615 1.383 . S
C616 C617 1.377 . S
C617 H601 0.930 1_554 S
C617 C616 1.377 . S
C617 C618 1.379 . S
C618 H602 0.931 . S
C618 C612 1.383 . S
C618 C617 1.379 . S
H619 C613 0.959 . S
H620 C613 0.961 . S
H621 C613 0.960 . S
H622 C614 0.930 . S
H623 C615 0.929 . S
H624 C632 0.929 . S
H625 C634 0.930 . S
H626 C636 0.930 . S
H627 C639 0.929 . S
H628 C642 0.930 1_545 S
H629 C644 0.960 . S
H630 C644 0.960 . S
H631 C644 0.960 . S
C632 H624 0.929 . S
C632 C633 1.377 . S
C632 C634 1.384 . S
C633 C632 1.377 . S
C633 C639 1.390 . S
C634 H625 0.930 . S
C634 C632 1.384 . S
C634 C635 1.372 . S
C635 C634 1.372 . S
C635 C636 1.400 . S
C635 C640 1.490 . S
C636 H626 0.930 . S
C636 C635 1.400 . S
C636 C639 1.386 . S
H637 C653 0.930 . S
H638 C654 0.931 . S
C639 H627 0.929 . S
C639 C633 1.390 . S
C639 C636 1.386 . S
C640 C635 1.490 . S
C640 C642 1.395 . S
C640 C643 1.403 . S
H641 C647 0.930 . S
C642 H628 0.930 1_565 S
C642 C640 1.395 . S
C642 C645 1.403 1_565 S
C643 C640 1.403 . S
C643 C644 1.524 . S
C643 C647 1.400 . S
C644 H629 0.960 . S
C644 H630 0.960 . S
C644 H631 0.960 . S
C644 C643 1.524 . S
C645 C642 1.403 1_545 S
C645 C646 1.392 . S
C645 C649 1.495 . S
C646 C645 1.392 . S
C646 C647 1.385 1_545 S
C646 C648 1.478 . S
C647 H641 0.930 . S
C647 C643 1.400 . S
C647 C646 1.385 1_565 S
C648 C646 1.478 . S
C648 C650 1.381 . S
C648 C654 1.383 . S
C649 C645 1.495 . S
C649 H655 0.959 . S
C649 H656 0.961 . S
C649 H657 0.960 . S
C650 C648 1.381 . S
C650 C651 1.394 . S
C650 H658 0.930 . S
C651 C650 1.394 . S
C651 C652 1.383 . S
C651 H659 0.929 . S
C652 C651 1.383 . S
C652 C653 1.377 . S
C653 H637 0.930 . S
C653 C652 1.377 . S
C653 C654 1.379 . S
C654 H638 0.931 . S
C654 C648 1.383 . S
C654 C653 1.379 . S
H655 C649 0.959 . S
H656 C649 0.961 . S
H657 C649 0.960 . S
H658 C650 0.930 . S
H659 C651 0.929 . S
H660 C668 0.929 . S
H661 C670 0.930 . S
H662 C672 0.930 . S
H663 C675 0.929 . S
H664 C678 0.930 . S
H665 C680 0.960 . S
H666 C680 0.960 . S
H667 C680 0.960 . S
C668 H660 0.929 . S
C668 C669 1.377 . S
C668 C670 1.384 . S
C669 C668 1.377 . S
C669 C675 1.390 . S
C670 H661 0.930 . S
C670 C668 1.384 . S
C670 C671 1.372 . S
C671 C670 1.372 . S
C671 C672 1.400 . S
C671 C676 1.490 . S
C672 H662 0.930 . S
C672 C671 1.400 . S
C672 C675 1.386 . S
H673 C689 0.930 . S
H674 C690 0.931 . S
C675 H663 0.929 . S
C675 C669 1.390 . S
C675 C672 1.386 . S
C676 C671 1.490 . S
C676 C678 1.395 . S
C676 C679 1.403 . S
H677 C683 0.930 . S
C678 H664 0.930 . S
C678 C676 1.395 . S
C678 C681 1.403 . S
C679 C676 1.403 . S
C679 C680 1.524 . S
C679 C683 1.400 . S
C680 H665 0.960 . S
C680 H666 0.960 . S
C680 H667 0.960 . S
C680 C679 1.524 . S
C681 C678 1.403 . S
C681 C682 1.392 . S
C681 C685 1.495 . S
C682 C681 1.392 . S
C682 C683 1.385 . S
C682 C684 1.478 . S
C683 H677 0.930 . S
C683 C679 1.400 . S
C683 C682 1.385 . S
C684 C682 1.478 . S
C684 C686 1.381 . S
C684 C690 1.383 . S
C685 C681 1.495 . S
C685 H691 0.959 . S
C685 H692 0.961 . S
C685 H693 0.960 . S
C686 C684 1.381 . S
C686 C687 1.394 . S
C686 H694 0.930 . S
C687 C686 1.394 . S
C687 C688 1.383 . S
C687 H695 0.929 . S
C688 C687 1.383 . S
C688 C689 1.377 . S
C689 H673 0.930 . S
C689 C688 1.377 . S
C689 C690 1.379 . S
C690 H674 0.931 . S
C690 C684 1.383 . S
C690 C689 1.379 . S
H691 C685 0.959 . S
H692 C685 0.961 . S
H693 C685 0.960 . S
H694 C686 0.930 . S
H695 C687 0.929 . S
H696 C704 0.929 . S
H697 C706 0.930 . S
H698 C708 0.930 . S
H699 C711 0.929 . S
H700 C714 0.930 . S
H701 C716 0.960 . S
H702 C716 0.960 . S
H703 C716 0.960 . S
C704 H696 0.929 . S
C704 C705 1.377 . S
C704 C706 1.384 . S
C705 C704 1.377 . S
C705 C711 1.390 . S
C706 H697 0.930 . S
C706 C704 1.384 . S
C706 C707 1.372 . S
C707 C706 1.372 . S
C707 C708 1.400 . S
C707 C712 1.490 . S
C708 H698 0.930 . S
C708 C707 1.400 . S
C708 C711 1.386 . S
H709 C725 0.930 . S
H710 C726 0.931 . S
C711 H699 0.929 . S
C711 C705 1.390 . S
C711 C708 1.386 . S
C712 C707 1.490 . S
C712 C714 1.395 . S
C712 C715 1.403 . S
H713 C719 0.930 . S
C714 H700 0.930 . S
C714 C712 1.395 . S
C714 C717 1.403 . S
C715 C712 1.403 . S
C715 C716 1.524 1_565 S
C715 C719 1.400 1_565 S
C716 H701 0.960 . S
C716 H702 0.960 . S
C716 H703 0.960 . S
C716 C715 1.524 1_545 S
C717 C714 1.403 . S
C717 C718 1.392 . S
C717 C721 1.495 . S
C718 C717 1.392 . S
C718 C719 1.385 1_565 S
C718 C720 1.478 1_565 S
C719 H713 0.930 . S
C719 C715 1.400 1_545 S
C719 C718 1.385 1_545 S
C720 C718 1.478 1_545 S
C720 C722 1.381 . S
C720 C726 1.383 . S
C721 C717 1.495 . S
C721 H727 0.959 . S
C721 H728 0.961 . S
C721 H729 0.960 . S
C722 C720 1.381 . S
C722 C723 1.394 . S
C722 H730 0.930 . S
C723 C722 1.394 . S
C723 C724 1.383 . S
C723 H731 0.929 . S
C724 C723 1.383 . S
C724 C725 1.377 . S
C725 H709 0.930 . S
C725 C724 1.377 . S
C725 C726 1.379 . S
C726 H710 0.931 . S
C726 C720 1.383 . S
C726 C725 1.379 . S
H727 C721 0.959 . S
H728 C721 0.961 . S
H729 C721 0.960 . S
H730 C722 0.930 . S
H731 C723 0.929 . S
H732 C740 0.929 . S
H733 C742 0.930 . S
H734 C744 0.930 . S
H735 C747 0.929 . S
H736 C750 0.930 . S
H737 C752 0.960 . S
H738 C752 0.960 . S
H739 C752 0.960 . S
C740 H732 0.929 . S
C740 C741 1.377 . S
C740 C742 1.384 . S
C741 C740 1.377 . S
C741 C747 1.390 . S
C742 H733 0.930 . S
C742 C740 1.384 . S
C742 C743 1.372 . S
C743 C742 1.372 . S
C743 C744 1.400 . S
C743 C748 1.490 . S
C744 H734 0.930 . S
C744 C743 1.400 . S
C744 C747 1.386 . S
H745 C761 0.930 . S
H746 C762 0.931 . S
C747 H735 0.929 . S
C747 C741 1.390 . S
C747 C744 1.386 . S
C748 C743 1.490 . S
C748 C750 1.395 . S
C748 C751 1.403 . S
H749 C755 0.930 . S
C750 H736 0.930 . S
C750 C748 1.395 . S
C750 C753 1.403 . S
C751 C748 1.403 . S
C751 C752 1.524 . S
C751 C755 1.400 . S
C752 H737 0.960 . S
C752 H738 0.960 . S
C752 H739 0.960 . S
C752 C751 1.524 . S
C753 C750 1.403 . S
C753 C754 1.392 . S
C753 C757 1.495 . S
C754 C753 1.392 . S
C754 C755 1.385 . S
C754 C756 1.478 . S
C755 H749 0.930 . S
C755 C751 1.400 . S
C755 C754 1.385 . S
C756 C754 1.478 . S
C756 C758 1.381 . S
C756 C762 1.383 . S
C757 C753 1.495 . S
C757 H763 0.959 . S
C757 H764 0.961 . S
C757 H765 0.960 . S
C758 C756 1.381 . S
C758 C759 1.394 . S
C758 H766 0.930 . S
C759 C758 1.394 . S
C759 C760 1.383 . S
C759 H767 0.929 . S
C760 C759 1.383 . S
C760 C761 1.377 . S
C761 H745 0.930 . S
C761 C760 1.377 . S
C761 C762 1.379 . S
C762 H746 0.931 . S
C762 C756 1.383 . S
C762 C761 1.379 . S
H763 C757 0.959 . S
H764 C757 0.961 . S
H765 C757 0.960 . S
H766 C758 0.930 . S
H767 C759 0.929 . S
H768 C776 0.929 . S
H769 C778 0.930 . S
H770 C780 0.930 . S
H771 C783 0.929 . S
H772 C786 0.930 . S
H773 C788 0.960 1_655 S
H774 C788 0.960 . S
H775 C788 0.960 . S
C776 H768 0.929 . S
C776 C777 1.377 . S
C776 C778 1.384 . S
C777 C776 1.377 . S
C777 C783 1.390 . S
C778 H769 0.930 . S
C778 C776 1.384 . S
C778 C779 1.372 . S
C779 C778 1.372 . S
C779 C780 1.400 . S
C779 C784 1.490 . S
C780 H770 0.930 . S
C780 C779 1.400 . S
C780 C783 1.386 . S
H781 C797 0.930 . S
H782 C798 0.931 . S
C783 H771 0.929 . S
C783 C777 1.390 . S
C783 C780 1.386 . S
C784 C779 1.490 . S
C784 C786 1.395 . S
C784 C787 1.403 . S
H785 C791 0.930 1_655 S
C786 H772 0.930 . S
C786 C784 1.395 . S
C786 C789 1.403 . S
C787 C784 1.403 . S
C787 C788 1.524 . S
C787 C791 1.400 . S
C788 H773 0.960 1_455 S
C788 H774 0.960 . S
C788 H775 0.960 . S
C788 C787 1.524 . S
C789 C786 1.403 . S
C789 C790 1.392 . S
C789 C793 1.495 . S
C790 C789 1.392 . S
C790 C791 1.385 . S
C790 C792 1.478 1_455 S
C791 H785 0.930 1_455 S
C791 C787 1.400 . S
C791 C790 1.385 . S
C792 C790 1.478 1_655 S
C792 C794 1.381 1_655 S
C792 C798 1.383 . S
C793 C789 1.495 . S
C793 H799 0.959 . S
C793 H800 0.961 . S
C793 H801 0.960 . S
C794 C792 1.381 1_455 S
C794 C795 1.394 1_455 S
C794 H802 0.930 . S
C795 C794 1.394 1_655 S
C795 C796 1.383 . S
C795 H803 0.929 . S
C796 C795 1.383 . S
C796 C797 1.377 . S
C797 H781 0.930 . S
C797 C796 1.377 . S
C797 C798 1.379 . S
C798 H782 0.931 . S
C798 C792 1.383 . S
C798 C797 1.379 . S
H799 C793 0.959 . S
H800 C793 0.961 . S
H801 C793 0.960 . S
H802 C794 0.930 . S
H803 C795 0.929 . S
H804 C812 0.929 . S
H805 C814 0.930 . S
H806 C816 0.930 . S
H807 C819 0.929 . S
H808 C822 0.930 . S
H809 C824 0.960 . S
H810 C824 0.960 . S
H811 C824 0.960 . S
C812 H804 0.929 . S
C812 C813 1.377 . S
C812 C814 1.384 . S
C813 C812 1.377 . S
C813 C819 1.390 . S
C814 H805 0.930 . S
C814 C812 1.384 . S
C814 C815 1.372 . S
C815 C814 1.372 . S
C815 C816 1.400 . S
C815 C820 1.490 . S
C816 H806 0.930 . S
C816 C815 1.400 . S
C816 C819 1.386 . S
H817 C833 0.930 . S
H818 C834 0.931 . S
C819 H807 0.929 . S
C819 C813 1.390 . S
C819 C816 1.386 . S
C820 C815 1.490 . S
C820 C822 1.395 . S
C820 C823 1.403 . S
H821 C827 0.930 . S
C822 H808 0.930 . S
C822 C820 1.395 . S
C822 C825 1.403 . S
C823 C820 1.403 . S
C823 C824 1.524 . S
C823 C827 1.400 . S
C824 H809 0.960 . S
C824 H810 0.960 . S
C824 H811 0.960 . S
C824 C823 1.524 . S
C825 C822 1.403 . S
C825 C826 1.392 . S
C825 C829 1.495 . S
C826 C825 1.392 . S
C826 C827 1.385 . S
C826 C828 1.478 1_545 S
C827 H821 0.930 . S
C827 C823 1.400 . S
C827 C826 1.385 . S
C828 C826 1.478 1_565 S
C828 C830 1.381 1_565 S
C828 C834 1.383 . S
C829 C825 1.495 . S
C829 H835 0.959 . S
C829 H836 0.961 1_545 S
C829 H837 0.960 . S
C830 C828 1.381 1_545 S
C830 C831 1.394 1_545 S
C830 H838 0.930 . S
C831 C830 1.394 1_565 S
C831 C832 1.383 . S
C831 H839 0.929 . S
C832 C831 1.383 . S
C832 C833 1.377 . S
C833 H817 0.930 . S
C833 C832 1.377 . S
C833 C834 1.379 . S
C834 H818 0.931 . S
C834 C828 1.383 . S
C834 C833 1.379 . S
H835 C829 0.959 . S
H836 C829 0.961 1_565 S
H837 C829 0.960 . S
H838 C830 0.930 . S
H839 C831 0.929 . S
H840 C848 0.920 1_554 S
H841 C850 0.930 . S
H842 C852 0.930 . S
H843 C855 0.929 . S
H844 C858 0.917 1_556 S
H845 C860 0.960 . S
H846 C860 0.960 . S
H847 C860 1.035 . S
C848 H840 0.920 1_556 S
C848 C849 1.377 . S
C848 C850 1.384 1_556 S
C849 C848 1.377 . S
C849 C855 1.390 . S
C850 H841 0.930 . S
C850 C848 1.384 1_554 S
C850 C851 1.372 1_554 S
C851 C850 1.372 1_556 S
C851 C852 1.400 . S
C851 C856 1.490 1_556 S
C852 H842 0.930 . S
C852 C851 1.400 . S
C852 C855 1.386 . S
H853 C869 0.930 . S
H854 C870 0.931 . S
C855 H843 0.929 . S
C855 C849 1.390 . S
C855 C852 1.386 . S
C856 C851 1.490 1_554 S
C856 C858 1.395 . S
C856 C859 1.403 . S
H857 C863 0.930 . S
C858 H844 0.917 1_554 S
C858 C856 1.395 . S
C858 C861 1.403 . S
C859 C856 1.403 . S
C859 C860 1.524 . S
C859 C863 1.400 . S
C860 H845 0.960 . S
C860 H846 0.960 . S
C860 H847 1.035 . S
C860 C859 1.524 . S
C861 C858 1.403 . S
C861 C862 1.392 . S
C861 C865 1.495 . S
C862 C861 1.392 . S
C862 C863 1.385 . S
C862 C864 1.478 . S
C863 H857 0.930 . S
C863 C859 1.400 . S
C863 C862 1.385 . S
C864 C862 1.478 . S
C864 C866 1.381 . S
C864 C870 1.383 . S
C865 C861 1.495 . S
C865 H871 0.959 . S
C865 H872 0.961 . S
C865 H873 0.960 . S
C866 C864 1.381 . S
C866 C867 1.394 . S
C866 H874 0.930 . S
C867 C866 1.394 . S
C867 C868 1.383 . S
C867 H875 0.929 . S
C868 C867 1.383 . S
C868 C869 1.377 . S
C869 H853 0.930 . S
C869 C868 1.377 . S
C869 C870 1.379 . S
C870 H854 0.931 . S
C870 C864 1.383 . S
C870 C869 1.379 . S
H871 C865 0.959 . S
H872 C865 0.961 . S
H873 C865 0.960 . S
H874 C866 0.930 . S
H875 C867 0.929 . S
H876 C884 0.929 . S
H877 C886 0.930 . S
H878 C888 0.938 . S
H879 C891 0.929 . S
H880 C894 0.936 . S
H881 C896 0.960 . S
H882 C896 0.960 1_455 S
H883 C896 0.960 . S
C884 H876 0.929 . S
C884 C885 1.377 . S
C884 C886 1.384 . S
C885 C884 1.377 . S
C885 C891 1.390 . S
C886 H877 0.930 . S
C886 C884 1.384 . S
C886 C887 1.372 . S
C887 C886 1.372 . S
C887 C888 1.392 1_455 S
C887 C892 1.490 1_455 S
C888 H878 0.938 . S
C888 C887 1.392 1_655 S
C888 C891 1.385 1_655 S
H889 C905 0.930 . S
H890 C906 0.931 . S
C891 H879 0.929 . S
C891 C885 1.390 . S
C891 C888 1.385 1_455 S
C892 C887 1.490 1_655 S
C892 C894 1.395 . S
C892 C895 1.403 . S
H893 C899 0.930 . S
C894 H880 0.936 . S
C894 C892 1.395 . S
C894 C897 1.403 . S
C895 C892 1.403 . S
C895 C896 1.524 . S
C895 C899 1.400 . S
C896 H881 0.960 . S
C896 H882 0.960 1_655 S
C896 H883 0.960 . S
C896 C895 1.524 . S
C897 C894 1.403 . S
C897 C898 1.392 . S
C897 C901 1.495 . S
C898 C897 1.392 . S
C898 C899 1.385 . S
C898 C900 1.478 . S
C899 H893 0.930 . S
C899 C895 1.400 . S
C899 C898 1.385 . S
C900 C898 1.478 . S
C900 C902 1.381 . S
C900 C906 1.383 . S
C901 C897 1.495 . S
C901 H907 0.959 . S
C901 H908 0.961 . S
C901 H909 0.960 . S
C902 C900 1.381 . S
C902 C903 1.394 . S
C902 H910 0.930 . S
C903 C902 1.394 . S
C903 C904 1.383 . S
C903 H911 0.929 . S
C904 C903 1.383 . S
C904 C905 1.377 . S
C905 H889 0.930 . S
C905 C904 1.377 . S
C905 C906 1.379 . S
C906 H890 0.931 . S
C906 C900 1.383 . S
C906 C905 1.379 . S
H907 C901 0.959 . S
H908 C901 0.961 . S
H909 C901 0.960 . S
H910 C902 0.930 . S
H911 C903 0.929 . S
H912 C920 0.929 . S
H913 C922 0.930 1_455 S
H914 C924 0.930 . S
H915 C927 0.929 . S
H916 C930 0.930 . S
H917 C932 0.960 . S
H918 C932 0.960 . S
H919 C932 0.960 . S
C920 H912 0.929 . S
C920 C921 1.377 . S
C920 C922 1.384 . S
C921 C920 1.377 . S
C921 C927 1.390 . S
C922 H913 0.930 1_655 S
C922 C920 1.384 . S
C922 C923 1.372 . S
C923 C922 1.372 . S
C923 C924 1.400 . S
C923 C928 1.490 1_655 S
C924 H914 0.930 . S
C924 C923 1.400 . S
C924 C927 1.386 . S
H925 C941 0.930 . S
H926 C942 0.931 . S
C927 H915 0.929 . S
C927 C921 1.390 . S
C927 C924 1.386 . S
C928 C923 1.490 1_455 S
C928 C930 1.395 . S
C928 C931 1.403 1_455 S
H929 C935 0.930 . S
C930 H916 0.930 . S
C930 C928 1.395 . S
C930 C933 1.403 . S
C931 C928 1.403 1_655 S
C931 C932 1.524 . S
C931 C935 1.400 1_655 S
C932 H917 0.960 . S
C932 H918 0.960 . S
C932 H919 0.960 . S
C932 C931 1.524 . S
C933 C930 1.403 . S
C933 C934 1.392 . S
C933 C937 1.495 . S
C934 C933 1.392 . S
C934 C935 1.385 . S
C934 C936 1.478 . S
C935 H929 0.930 . S
C935 C931 1.400 1_455 S
C935 C934 1.385 . S
C936 C934 1.478 . S
C936 C938 1.381 . S
C936 C942 1.383 . S
C937 C933 1.495 . S
C937 H943 0.959 . S
C937 H944 0.961 . S
C937 H945 0.960 . S
C938 C936 1.381 . S
C938 C939 1.394 . S
C938 H946 0.930 . S
C939 C938 1.394 . S
C939 C940 1.383 . S
C939 H947 0.929 . S
C940 C939 1.383 . S
C940 C941 1.377 . S
C941 H925 0.930 . S
C941 C940 1.377 . S
C941 C942 1.379 . S
C942 H926 0.931 . S
C942 C936 1.383 . S
C942 C941 1.379 . S
H943 C937 0.959 . S
H944 C937 0.961 . S
H945 C937 0.960 . S
H946 C938 0.930 . S
H947 C939 0.929 . S
H948 C956 0.929 . S
H949 C958 0.930 . S
H950 C960 0.930 1_545 S
H951 C963 0.929 . S
H952 C966 0.930 . S
H953 C968 0.960 . S
H954 C968 0.960 . S
H955 C968 0.960 . S
C956 H948 0.929 . S
C956 C957 1.377 . S
C956 C958 1.384 . S
C957 C956 1.377 . S
C957 C963 1.390 . S
C958 H949 0.930 . S
C958 C956 1.384 . S
C958 C959 1.372 . S
C959 C958 1.372 . S
C959 C960 1.400 . S
C959 C964 1.490 1_565 S
C960 H950 0.930 1_565 S
C960 C959 1.400 . S
C960 C963 1.386 . S
H961 C977 0.930 . S
H962 C978 0.931 . S
C963 H951 0.929 . S
C963 C957 1.390 . S
C963 C960 1.386 . S
C964 C959 1.490 1_545 S
C964 C966 1.395 1_545 S
C964 C967 1.403 . S
H965 C971 0.930 . S
C966 H952 0.930 . S
C966 C964 1.395 1_565 S
C966 C969 1.404 1_565 S
C967 C964 1.403 . S
C967 C968 1.524 . S
C967 C971 1.400 . S
C968 H953 0.960 . S
C968 H954 0.960 . S
C968 H955 0.960 . S
C968 C967 1.524 . S
C969 C966 1.404 1_545 S
C969 C970 1.408 . S
C969 C973 1.480 1_545 S
C970 C969 1.408 . S
C970 C971 1.385 . S
C970 C972 1.478 . S
C971 H965 0.930 . S
C971 C967 1.400 . S
C971 C970 1.385 . S
C972 C970 1.478 . S
C972 C974 1.381 . S
C972 C978 1.383 . S
C973 C969 1.480 1_565 S
C973 H979 0.959 . S
C973 H980 0.961 . S
C973 H981 0.960 . S
C974 C972 1.381 . S
C974 C975 1.394 . S
C974 H982 0.930 . S
C975 C974 1.394 . S
C975 C976 1.383 . S
C975 H983 0.929 . S
C976 C975 1.383 . S
C976 C977 1.377 . S
C977 H961 0.930 . S
C977 C976 1.377 . S
C977 C978 1.379 . S
C978 H962 0.931 . S
C978 C972 1.383 . S
C978 C977 1.379 . S
H979 C973 0.959 . S
H980 C973 0.961 . S
H981 C973 0.960 . S
H982 C974 0.930 . S
H983 C975 0.929 . S
H984 C992 0.929 . S
H985 C994 0.930 . S
H986 C996 0.930 . S
H987 C999 0.929 . S
H988 C1002 0.930 . S
H989 C1004 0.960 . S
H990 C1004 0.960 . S
H991 C1004 0.960 . S
C992 H984 0.929 . S
C992 C993 1.377 . S
C992 C994 1.384 . S
C993 C992 1.377 . S
C993 C999 1.390 . S
C994 H985 0.930 . S
C994 C992 1.384 . S
C994 C995 1.372 . S
C995 C994 1.372 . S
C995 C996 1.400 . S
C995 C1000 1.490 . S
C996 H986 0.930 . S
C996 C995 1.400 . S
C996 C999 1.386 . S
H997 C1013 0.930 . S
H998 C1014 0.931 . S
C999 H987 0.929 . S
C999 C993 1.390 . S
C999 C996 1.386 . S
C1000 C995 1.490 . S
C1000 C1002 1.395 . S
C1000 C1003 1.403 . S
H1001 C1007 0.930 . S
C1002 H988 0.930 . S
C1002 C1000 1.395 . S
C1002 C1005 1.403 . S
C1003 C1000 1.403 . S
C1003 C1004 1.524 . S
C1003 C1007 1.400 . S
C1004 H989 0.960 . S
C1004 H990 0.960 . S
C1004 H991 0.960 . S
C1004 C1003 1.524 . S
C1005 C1002 1.403 . S
C1005 C1006 1.392 . S
C1005 C1009 1.495 . S
C1006 C1005 1.392 . S
C1006 C1007 1.385 . S
C1006 C1008 1.478 . S
C1007 H1001 0.930 . S
C1007 C1003 1.400 . S
C1007 C1006 1.385 . S
C1008 C1006 1.478 . S
C1008 C1010 1.381 . S
C1008 C1014 1.383 . S
C1009 C1005 1.495 . S
C1009 H1015 0.959 . S
C1009 H1016 0.961 . S
C1009 H1017 0.960 . S
C1010 C1008 1.381 . S
C1010 C1011 1.394 . S
C1010 H1018 0.930 . S
C1011 C1010 1.394 . S
C1011 C1012 1.383 . S
C1011 H1019 0.929 . S
C1012 C1011 1.383 . S
C1012 C1013 1.377 . S
C1013 H997 0.930 . S
C1013 C1012 1.377 . S
C1013 C1014 1.379 . S
C1014 H998 0.931 . S
C1014 C1008 1.383 . S
C1014 C1013 1.379 . S
H1015 C1009 0.959 . S
H1016 C1009 0.961 . S
H1017 C1009 0.960 . S
H1018 C1010 0.930 . S
H1019 C1011 0.929 . S
H1020 C1028 0.929 . S
H1021 C1030 0.930 . S
H1022 C1032 0.930 1_556 S
H1023 C1035 0.929 . S
H1024 C1038 0.930 . S
H1025 C1040 0.960 . S
H1026 C1040 0.960 . S
H1027 C1040 0.960 . S
C1028 H1020 0.929 . S
C1028 C1029 1.377 . S
C1028 C1030 1.384 . S
C1029 C1028 1.377 . S
C1029 C1035 1.390 . S
C1030 H1021 0.930 . S
C1030 C1028 1.384 . S
C1030 C1031 1.372 . S
C1031 C1030 1.372 . S
C1031 C1032 1.400 . S
C1031 C1036 1.490 1_554 S
C1032 H1022 0.930 1_554 S
C1032 C1031 1.400 . S
C1032 C1035 1.386 . S
H1033 C1049 0.930 . S
H1034 C1050 0.931 . S
C1035 H1023 0.929 . S
C1035 C1029 1.390 . S
C1035 C1032 1.386 . S
C1036 C1031 1.490 1_556 S
C1036 C1038 1.395 1_556 S
C1036 C1039 1.403 . S
H1037 C1043 0.930 . S
C1038 H1024 0.930 . S
C1038 C1036 1.395 1_554 S
C1038 C1041 1.408 . S
C1039 C1036 1.403 . S
C1039 C1040 1.524 . S
C1039 C1043 1.400 . S
C1040 H1025 0.960 . S
C1040 H1026 0.960 . S
C1040 H1027 0.960 . S
C1040 C1039 1.524 . S
C1041 C1038 1.408 . S
C1041 C1042 1.392 1_554 S
C1041 C1045 1.491 1_655 S
C1042 C1041 1.392 1_556 S
C1042 C1043 1.385 . S
C1042 C1044 1.478 1_655 S
C1043 H1037 0.930 . S
C1043 C1039 1.400 . S
C1043 C1042 1.385 . S
C1044 C1042 1.478 1_455 S
C1044 C1046 1.381 . S
C1044 C1050 1.383 1_455 S
C1045 C1041 1.491 1_455 S
C1045 H1051 0.959 . S
C1045 H1052 0.961 . S
C1045 H1053 0.960 . S
C1046 C1044 1.381 . S
C1046 C1047 1.394 . S
C1046 H1054 0.930 . S
C1047 C1046 1.394 . S
C1047 C1048 1.383 . S
C1047 H1055 0.929 . S
C1048 C1047 1.383 . S
C1048 C1049 1.377 . S
C1049 H1033 0.930 . S
C1049 C1048 1.377 . S
C1049 C1050 1.379 1_455 S
C1050 H1034 0.931 . S
C1050 C1044 1.383 1_655 S
C1050 C1049 1.379 1_655 S
H1051 C1045 0.959 . S
H1052 C1045 0.961 . S
H1053 C1045 0.960 . S
H1054 C1046 0.930 . S
H1055 C1047 0.929 . S
H1056 C1064 0.929 . S
H1057 C1066 0.941 . S
H1058 C1068 0.930 . S
H1059 C1071 0.929 . S
H1060 C1074 0.930 . S
H1061 C1076 0.960 . S
H1062 C1076 0.960 . S
H1063 C1076 0.960 . S
C1064 H1056 0.929 . S
C1064 C1065 1.377 . S
C1064 C1066 1.383 1_545 S
C1065 C1064 1.377 . S
C1065 C1071 1.390 . S
C1066 H1057 0.941 . S
C1066 C1064 1.383 1_565 S
C1066 C1067 1.362 1_565 S
C1067 C1066 1.362 1_545 S
C1067 C1068 1.400 . S
C1067 C1072 1.490 1_545 S
C1068 H1058 0.930 . S
C1068 C1067 1.400 . S
C1068 C1071 1.386 . S
H1069 C1085 0.930 . S
H1070 C1086 0.931 . S
C1071 H1059 0.929 . S
C1071 C1065 1.390 . S
C1071 C1068 1.386 . S
C1072 C1067 1.490 1_565 S
C1072 C1074 1.395 . S
C1072 C1075 1.403 1_565 S
H1073 C1079 0.930 . S
C1074 H1060 0.930 . S
C1074 C1072 1.395 . S
C1074 C1077 1.403 . S
C1075 C1072 1.403 1_545 S
C1075 C1076 1.524 . S
C1075 C1079 1.400 1_545 S
C1076 H1061 0.960 . S
C1076 H1062 0.960 . S
C1076 H1063 0.960 . S
C1076 C1075 1.524 . S
C1077 C1074 1.403 . S
C1077 C1078 1.392 . S
C1077 C1081 1.495 . S
C1078 C1077 1.392 . S
C1078 C1079 1.385 . S
C1078 C1080 1.478 . S
C1079 H1073 0.930 . S
C1079 C1075 1.400 1_565 S
C1079 C1078 1.385 . S
C1080 C1078 1.478 . S
C1080 C1082 1.381 . S
C1080 C1086 1.383 . S
C1081 C1077 1.495 . S
C1081 H1087 0.959 . S
C1081 H1088 0.961 . S
C1081 H1089 0.960 . S
C1082 C1080 1.381 . S
C1082 C1083 1.394 . S
C1082 H1090 0.930 . S
C1083 C1082 1.394 . S
C1083 C1084 1.383 . S
C1083 H1091 0.929 . S
C1084 C1083 1.383 . S
C1084 C1085 1.377 . S
C1085 H1069 0.930 . S
C1085 C1084 1.377 . S
C1085 C1086 1.379 . S
C1086 H1070 0.931 . S
C1086 C1080 1.383 . S
C1086 C1085 1.379 . S
H1087 C1081 0.959 . S
H1088 C1081 0.961 . S
H1089 C1081 0.960 . S
H1090 C1082 0.930 . S
H1091 C1083 0.929 . S
H1092 C1100 0.929 . S
H1093 C1102 0.930 . S
H1094 C1104 0.930 . S
H1095 C1107 0.929 . S
H1096 C1110 0.930 . S
H1097 C1112 0.960 . S
H1098 C1112 0.960 . S
H1099 C1112 0.960 . S
C1100 H1092 0.929 . S
C1100 C1101 1.377 . S
C1100 C1102 1.384 . S
C1101 C1100 1.377 . S
C1101 C1107 1.390 . S
C1102 H1093 0.930 . S
C1102 C1100 1.384 . S
C1102 C1103 1.372 . S
C1103 C1102 1.372 . S
C1103 C1104 1.400 . S
C1103 C1108 1.490 . S
C1104 H1094 0.930 . S
C1104 C1103 1.400 . S
C1104 C1107 1.386 . S
H1105 C1121 0.930 . S
H1106 C1122 0.931 . S
C1107 H1095 0.929 . S
C1107 C1101 1.390 . S
C1107 C1104 1.386 . S
C1108 C1103 1.490 . S
C1108 C1110 1.395 . S
C1108 C1111 1.403 . S
H1109 C1115 0.930 . S
C1110 H1096 0.930 . S
C1110 C1108 1.395 . S
C1110 C1113 1.403 . S
C1111 C1108 1.403 . S
C1111 C1112 1.524 . S
C1111 C1115 1.400 . S
C1112 H1097 0.960 . S
C1112 H1098 0.960 . S
C1112 H1099 0.960 . S
C1112 C1111 1.524 . S
C1113 C1110 1.403 . S
C1113 C1114 1.392 . S
C1113 C1117 1.495 . S
C1114 C1113 1.392 . S
C1114 C1115 1.385 . S
C1114 C1116 1.478 . S
C1115 H1109 0.930 . S
C1115 C1111 1.400 . S
C1115 C1114 1.385 . S
C1116 C1114 1.478 . S
C1116 C1118 1.381 . S
C1116 C1122 1.383 . S
C1117 C1113 1.495 . S
C1117 H1123 0.959 . S
C1117 H1124 0.961 . S
C1117 H1125 0.960 . S
C1118 C1116 1.381 . S
C1118 C1119 1.394 . S
C1118 H1126 0.930 . S
C1119 C1118 1.394 . S
C1119 C1120 1.383 . S
C1119 H1127 0.929 . S
C1120 C1119 1.383 . S
C1120 C1121 1.377 . S
C1121 H1105 0.930 . S
C1121 C1120 1.377 . S
C1121 C1122 1.379 . S
C1122 H1106 0.931 . S
C1122 C1116 1.383 . S
C1122 C1121 1.379 . S
H1123 C1117 0.959 . S
H1124 C1117 0.961 . S
H1125 C1117 0.960 . S
H1126 C1118 0.930 . S
H1127 C1119 0.929 . S
H1128 C1136 0.929 . S
H1129 C1138 0.930 . S
H1130 C1140 0.930 . S
H1131 C1143 0.929 1_655 S
H1132 C1146 0.930 . S
H1133 C1148 0.960 . S
H1134 C1148 0.960 . S
H1135 C1148 0.960 . S
C1136 H1128 0.929 . S
C1136 C1137 1.377 . S
C1136 C1138 1.384 1_655 S
C1137 C1136 1.377 . S
C1137 C1143 1.390 1_655 S
C1138 H1129 0.930 . S
C1138 C1136 1.384 1_455 S
C1138 C1139 1.372 . S
C1139 C1138 1.372 . S
C1139 C1140 1.400 . S
C1139 C1144 1.490 . S
C1140 H1130 0.930 . S
C1140 C1139 1.400 . S
C1140 C1143 1.386 . S
H1141 C1157 0.930 . S
H1142 C1158 0.931 1_545 S
C1143 H1131 0.929 1_455 S
C1143 C1137 1.390 1_455 S
C1143 C1140 1.386 . S
C1144 C1139 1.490 . S
C1144 C1146 1.395 . S
C1144 C1147 1.403 . S
H1145 C1151 0.930 . S
C1146 H1132 0.930 . S
C1146 C1144 1.395 . S
C1146 C1149 1.403 . S
C1147 C1144 1.403 . S
C1147 C1148 1.524 . S
C1147 C1151 1.400 . S
C1148 H1133 0.960 . S
C1148 H1134 0.960 . S
C1148 H1135 0.960 . S
C1148 C1147 1.524 . S
C1149 C1146 1.403 . S
C1149 C1150 1.392 . S
C1149 C1153 1.495 . S
C1150 C1149 1.392 . S
C1150 C1151 1.385 . S
C1150 C1152 1.478 . S
C1151 H1145 0.930 . S
C1151 C1147 1.400 . S
C1151 C1150 1.385 . S
C1152 C1150 1.478 . S
C1152 C1154 1.381 . S
C1152 C1158 1.383 . S
C1153 C1149 1.495 . S
C1153 H1159 0.959 . S
C1153 H1160 0.961 . S
C1153 H1161 0.960 . S
C1154 C1152 1.381 . S
C1154 C1155 1.394 . S
C1154 H1162 0.930 . S
C1155 C1154 1.394 . S
C1155 C1156 1.383 1_565 S
C1155 H1163 0.929 . S
C1156 C1155 1.383 1_545 S
C1156 C1157 1.377 . S
C1157 H1141 0.930 . S
C1157 C1156 1.377 . S
C1157 C1158 1.379 1_545 S
C1158 H1142 0.931 1_565 S
C1158 C1152 1.383 . S
C1158 C1157 1.379 1_565 S
H1159 C1153 0.959 . S
H1160 C1153 0.961 . S
H1161 C1153 0.960 . S
H1162 C1154 0.930 . S
H1163 C1155 0.929 . S
H1164 C1172 0.929 . S
H1165 C1174 0.930 . S
H1166 C1176 0.930 . S
H1167 C1179 0.929 . S
H1168 C1182 0.930 . S
H1169 C1184 0.960 . S
H1170 C1184 0.960 . S
H1171 C1184 0.960 . S
C1172 H1164 0.929 . S
C1172 C1173 1.377 . S
C1172 C1174 1.384 . S
C1173 C1172 1.377 . S
C1173 C1179 1.390 . S
C1174 H1165 0.930 . S
C1174 C1172 1.384 . S
C1174 C1175 1.372 . S
C1175 C1174 1.372 . S
C1175 C1176 1.400 . S
C1175 C1180 1.490 . S
C1176 H1166 0.930 . S
C1176 C1175 1.400 . S
C1176 C1179 1.386 . S
H1177 C1193 0.930 . S
H1178 C1194 0.931 . S
C1179 H1167 0.929 . S
C1179 C1173 1.390 . S
C1179 C1176 1.386 . S
C1180 C1175 1.490 . S
C1180 C1182 1.395 . S
C1180 C1183 1.403 . S
H1181 C1187 0.930 . S
C1182 H1168 0.930 . S
C1182 C1180 1.395 . S
C1182 C1185 1.403 . S
C1183 C1180 1.403 . S
C1183 C1184 1.524 . S
C1183 C1187 1.400 . S
C1184 H1169 0.960 . S
C1184 H1170 0.960 . S
C1184 H1171 0.960 . S
C1184 C1183 1.524 . S
C1185 C1182 1.403 . S
C1185 C1186 1.392 . S
C1185 C1189 1.495 . S
C1186 C1185 1.392 . S
C1186 C1187 1.385 . S
C1186 C1188 1.478 . S
C1187 H1181 0.930 . S
C1187 C1183 1.400 . S
C1187 C1186 1.385 . S
C1188 C1186 1.478 . S
C1188 C1190 1.392 . S
C1188 C1194 1.383 . S
C1189 C1185 1.495 . S
C1189 H1195 0.959 . S
C1189 H1196 0.961 . S
C1189 H1197 0.960 . S
C1190 C1188 1.392 . S
C1190 C1191 1.384 1_545 S
C1190 H1198 0.930 1_545 S
C1191 C1190 1.384 1_565 S
C1191 C1192 1.383 . S
C1191 H1199 0.929 . S
C1192 C1191 1.383 . S
C1192 C1193 1.377 1_565 S
C1193 H1177 0.930 . S
C1193 C1192 1.377 1_545 S
C1193 C1194 1.379 . S
C1194 H1178 0.931 . S
C1194 C1188 1.383 . S
C1194 C1193 1.379 . S
H1195 C1189 0.959 . S
H1196 C1189 0.961 . S
H1197 C1189 0.960 . S
H1198 C1190 0.930 1_565 S
H1199 C1191 0.929 . S
H1200 C1208 0.929 . S
H1201 C1210 0.930 . S
H1202 C1212 0.930 . S
H1203 C1215 0.929 . S
H1204 C1218 0.930 . S
H1205 C1220 0.960 . S
H1206 C1220 0.960 . S
H1207 C1220 0.960 . S
C1208 H1200 0.929 . S
C1208 C1209 1.377 . S
C1208 C1210 1.384 . S
C1209 C1208 1.377 . S
C1209 C1215 1.390 . S
C1210 H1201 0.930 . S
C1210 C1208 1.384 . S
C1210 C1211 1.372 . S
C1211 C1210 1.372 . S
C1211 C1212 1.400 . S
C1211 C1216 1.490 . S
C1212 H1202 0.930 . S
C1212 C1211 1.400 . S
C1212 C1215 1.386 . S
H1213 C1229 0.930 . S
H1214 C1230 0.931 . S
C1215 H1203 0.929 . S
C1215 C1209 1.390 . S
C1215 C1212 1.386 . S
C1216 C1211 1.490 . S
C1216 C1218 1.395 . S
C1216 C1219 1.403 . S
H1217 C1223 0.930 . S
C1218 H1204 0.930 . S
C1218 C1216 1.395 . S
C1218 C1221 1.403 . S
C1219 C1216 1.403 . S
C1219 C1220 1.524 . S
C1219 C1223 1.400 . S
C1220 H1205 0.960 . S
C1220 H1206 0.960 . S
C1220 H1207 0.960 . S
C1220 C1219 1.524 . S
C1221 C1218 1.403 . S
C1221 C1222 1.392 . S
C1221 C1225 1.495 . S
C1222 C1221 1.392 . S
C1222 C1223 1.385 . S
C1222 C1224 1.478 . S
C1223 H1217 0.930 . S
C1223 C1219 1.400 . S
C1223 C1222 1.385 . S
C1224 C1222 1.478 . S
C1224 C1226 1.381 1_455 S
C1224 C1230 1.383 . S
C1225 C1221 1.495 . S
C1225 H1231 0.959 . S
C1225 H1232 0.961 . S
C1225 H1233 0.960 . S
C1226 C1224 1.381 1_655 S
C1226 C1227 1.394 . S
C1226 H1234 0.930 . S
C1227 C1226 1.394 . S
C1227 C1228 1.383 . S
C1227 H1235 0.929 . S
C1228 C1227 1.383 . S
C1228 C1229 1.377 1_655 S
C1229 H1213 0.930 . S
C1229 C1228 1.377 1_455 S
C1229 C1230 1.379 . S
C1230 H1214 0.931 . S
C1230 C1224 1.383 . S
C1230 C1229 1.379 . S
H1231 C1225 0.959 . S
H1232 C1225 0.961 . S
H1233 C1225 0.960 . S
H1234 C1226 0.930 . S
H1235 C1227 0.929 . S
H1236 C1244 0.929 . S
H1237 C1246 0.930 . S
H1238 C1248 0.930 . S
H1239 C1251 0.929 . S
H1240 C1254 0.930 . S
H1241 C1256 0.960 . S
H1242 C1256 0.960 . S
H1243 C1256 0.960 . S
C1244 H1236 0.929 . S
C1244 C1245 1.377 . S
C1244 C1246 1.384 1_565 S
C1245 C1244 1.377 . S
C1245 C1251 1.390 . S
C1246 H1237 0.930 . S
C1246 C1244 1.384 1_545 S
C1246 C1247 1.372 . S
C1247 C1246 1.372 . S
C1247 C1248 1.400 . S
C1247 C1252 1.490 . S
C1248 H1238 0.930 . S
C1248 C1247 1.400 . S
C1248 C1251 1.386 1_545 S
H1249 C1265 0.930 . S
H1250 C1266 0.918 1_455 S
C1251 H1239 0.929 . S
C1251 C1245 1.390 . S
C1251 C1248 1.386 1_565 S
C1252 C1247 1.490 . S
C1252 C1254 1.395 . S
C1252 C1255 1.403 . S
H1253 C1259 0.930 . S
C1254 H1240 0.930 . S
C1254 C1252 1.395 . S
C1254 C1257 1.403 . S
C1255 C1252 1.403 . S
C1255 C1256 1.524 . S
C1255 C1259 1.400 . S
C1256 H1241 0.960 . S
C1256 H1242 0.960 . S
C1256 H1243 0.960 . S
C1256 C1255 1.524 . S
C1257 C1254 1.403 . S
C1257 C1258 1.392 . S
C1257 C1261 1.495 . S
C1258 C1257 1.392 . S
C1258 C1259 1.385 . S
C1258 C1260 1.478 . S
C1259 H1253 0.930 . S
C1259 C1255 1.400 . S
C1259 C1258 1.385 . S
C1260 C1258 1.478 . S
C1260 C1262 1.381 . S
C1260 C1266 1.408 . S
C1261 C1257 1.495 . S
C1261 H1267 0.959 . S
C1261 H1268 0.961 . S
C1261 H1269 0.960 . S
C1262 C1260 1.381 . S
C1262 C1263 1.394 . S
C1262 H1270 0.930 . S
C1263 C1262 1.394 . S
C1263 C1264 1.383 1_655 S
C1263 H1271 0.929 . S
C1264 C1263 1.383 1_455 S
C1264 C1265 1.377 . S
C1265 H1249 0.930 . S
C1265 C1264 1.377 . S
C1265 C1266 1.368 1_455 S
C1266 H1250 0.918 1_655 S
C1266 C1260 1.408 . S
C1266 C1265 1.368 1_655 S
H1267 C1261 0.959 . S
H1268 C1261 0.961 . S
H1269 C1261 0.960 . S
H1270 C1262 0.930 . S
H1271 C1263 0.929 . S
H1272 C1280 0.929 . S
H1273 C1282 0.930 . S
H1274 C1284 0.930 . S
H1275 C1287 0.929 . S
H1276 C1290 0.930 . S
H1277 C1292 0.960 . S
H1278 C1292 0.960 . S
H1279 C1292 0.960 . S
C1280 H1272 0.929 . S
C1280 C1281 1.377 . S
C1280 C1282 1.384 1_545 S
C1281 C1280 1.377 . S
C1281 C1287 1.390 . S
C1282 H1273 0.930 . S
C1282 C1280 1.384 1_565 S
C1282 C1283 1.372 . S
C1283 C1282 1.372 . S
C1283 C1284 1.400 . S
C1283 C1288 1.490 . S
C1284 H1274 0.930 . S
C1284 C1283 1.400 . S
C1284 C1287 1.386 1_565 S
H1285 C1301 0.930 . S
H1286 C1302 0.931 . S
C1287 H1275 0.929 . S
C1287 C1281 1.390 . S
C1287 C1284 1.386 1_545 S
C1288 C1283 1.490 . S
C1288 C1290 1.395 . S
C1288 C1291 1.403 . S
H1289 C1295 0.930 . S
C1290 H1276 0.930 . S
C1290 C1288 1.395 . S
C1290 C1293 1.403 . S
C1291 C1288 1.403 . S
C1291 C1292 1.524 . S
C1291 C1295 1.400 . S
C1292 H1277 0.960 . S
C1292 H1278 0.960 . S
C1292 H1279 0.960 . S
C1292 C1291 1.524 . S
C1293 C1290 1.403 . S
C1293 C1294 1.392 . S
C1293 C1297 1.495 . S
C1294 C1293 1.392 . S
C1294 C1295 1.385 . S
C1294 C1296 1.478 . S
C1295 H1289 0.930 . S
C1295 C1291 1.400 . S
C1295 C1294 1.385 . S
C1296 C1294 1.478 . S
C1296 C1298 1.381 . S
C1296 C1302 1.383 . S
C1297 C1293 1.495 . S
C1297 H1303 0.959 . S
C1297 H1304 0.961 . S
C1297 H1305 0.960 . S
C1298 C1296 1.381 . S
C1298 C1299 1.394 . S
C1298 H1306 0.930 . S
C1299 C1298 1.394 . S
C1299 C1300 1.383 . S
C1299 H1307 0.929 . S
C1300 C1299 1.383 . S
C1300 C1301 1.377 . S
C1301 H1285 0.930 . S
C1301 C1300 1.377 . S
C1301 C1302 1.379 . S
C1302 H1286 0.931 . S
C1302 C1296 1.383 . S
C1302 C1301 1.379 . S
H1303 C1297 0.959 . S
H1304 C1297 0.961 . S
H1305 C1297 0.960 . S
H1306 C1298 0.930 . S
H1307 C1299 0.929 . S
H1308 C1316 0.929 . S
H1309 C1318 0.930 . S
H1310 C1320 0.930 . S
H1311 C1323 0.929 . S
H1312 C1326 0.930 . S
H1313 C1328 0.960 . S
H1314 C1328 0.960 . S
H1315 C1328 0.960 . S
C1316 H1308 0.929 . S
C1316 C1317 1.377 . S
C1316 C1318 1.384 . S
C1317 C1316 1.377 . S
C1317 C1323 1.390 . S
C1318 H1309 0.930 . S
C1318 C1316 1.384 . S
C1318 C1319 1.372 . S
C1319 C1318 1.372 . S
C1319 C1320 1.400 . S
C1319 C1324 1.490 . S
C1320 H1310 0.930 . S
C1320 C1319 1.400 . S
C1320 C1323 1.386 . S
H1321 C1337 0.930 . S
H1322 C1338 0.931 . S
C1323 H1311 0.929 . S
C1323 C1317 1.390 . S
C1323 C1320 1.386 . S
C1324 C1319 1.490 . S
C1324 C1326 1.395 . S
C1324 C1327 1.403 . S
H1325 C1331 0.930 . S
C1326 H1312 0.930 . S
C1326 C1324 1.395 . S
C1326 C1329 1.403 . S
C1327 C1324 1.403 . S
C1327 C1328 1.524 . S
C1327 C1331 1.400 . S
C1328 H1313 0.960 . S
C1328 H1314 0.960 . S
C1328 H1315 0.960 . S
C1328 C1327 1.524 . S
C1329 C1326 1.403 . S
C1329 C1330 1.392 . S
C1329 C1333 1.495 . S
C1330 C1329 1.392 . S
C1330 C1331 1.385 . S
C1330 C1332 1.478 . S
C1331 H1325 0.930 . S
C1331 C1327 1.400 . S
C1331 C1330 1.385 . S
C1332 C1330 1.478 . S
C1332 C1334 1.381 . S
C1332 C1338 1.383 . S
C1333 C1329 1.495 . S
C1333 H1339 0.959 . S
C1333 H1340 0.961 . S
C1333 H1341 0.960 . S
C1334 C1332 1.381 . S
C1334 C1335 1.394 1_655 S
C1334 H1342 0.922 . S
C1335 C1334 1.394 1_455 S
C1335 C1336 1.383 . S
C1335 H1343 0.929 . S
C1336 C1335 1.383 . S
C1336 C1337 1.377 1_455 S
C1337 H1321 0.930 . S
C1337 C1336 1.377 1_655 S
C1337 C1338 1.379 . S
C1338 H1322 0.931 . S
C1338 C1332 1.383 . S
C1338 C1337 1.379 . S
H1339 C1333 0.959 . S
H1340 C1333 0.961 . S
H1341 C1333 0.960 . S
H1342 C1334 0.922 . S
H1343 C1335 0.929 . S
H1344 C1352 0.929 . S
H1345 C1354 0.930 . S
H1346 C1356 0.930 . S
H1347 C1359 0.929 . S
H1348 C1362 0.930 . S
H1349 C1364 0.960 . S
H1350 C1364 0.960 . S
H1351 C1364 0.960 . S
C1352 H1344 0.929 . S
C1352 C1353 1.377 . S
C1352 C1354 1.384 . S
C1353 C1352 1.377 . S
C1353 C1359 1.390 . S
C1354 H1345 0.930 . S
C1354 C1352 1.384 . S
C1354 C1355 1.372 . S
C1355 C1354 1.372 . S
C1355 C1356 1.400 . S
C1355 C1360 1.490 . S
C1356 H1346 0.930 . S
C1356 C1355 1.400 . S
C1356 C1359 1.386 . S
H1357 C1373 0.930 . S
H1358 C1374 0.931 . S
C1359 H1347 0.929 . S
C1359 C1353 1.390 . S
C1359 C1356 1.386 . S
C1360 C1355 1.490 . S
C1360 C1362 1.395 . S
C1360 C1363 1.403 . S
H1361 C1367 0.930 . S
C1362 H1348 0.930 . S
C1362 C1360 1.395 . S
C1362 C1365 1.403 . S
C1363 C1360 1.403 . S
C1363 C1364 1.524 . S
C1363 C1367 1.400 . S
C1364 H1349 0.960 . S
C1364 H1350 0.960 . S
C1364 H1351 0.960 . S
C1364 C1363 1.524 . S
C1365 C1362 1.403 . S
C1365 C1366 1.392 . S
C1365 C1369 1.495 . S
C1366 C1365 1.392 . S
C1366 C1367 1.385 . S
C1366 C1368 1.478 . S
C1367 H1361 0.930 . S
C1367 C1363 1.400 . S
C1367 C1366 1.385 . S
C1368 C1366 1.478 . S
C1368 C1370 1.381 . S
C1368 C1374 1.383 . S
C1369 C1365 1.495 . S
C1369 H1375 0.959 . S
C1369 H1376 0.961 . S
C1369 H1377 0.960 . S
C1370 C1368 1.381 . S
C1370 C1371 1.394 . S
C1370 H1378 0.930 . S
C1371 C1370 1.394 . S
C1371 C1372 1.383 . S
C1371 H1379 0.929 . S
C1372 C1371 1.383 . S
C1372 C1373 1.377 . S
C1373 H1357 0.930 . S
C1373 C1372 1.377 . S
C1373 C1374 1.379 . S
C1374 H1358 0.931 . S
C1374 C1368 1.383 . S
C1374 C1373 1.379 . S
H1375 C1369 0.959 . S
H1376 C1369 0.961 . S
H1377 C1369 0.960 . S
H1378 C1370 0.930 . S
H1379 C1371 0.929 . S
H1380 C1388 0.929 . S
H1381 C1390 0.930 . S
H1382 C1392 0.930 . S
H1383 C1395 0.929 . S
H1384 C1398 0.930 . S
H1385 C1400 0.960 . S
H1386 C1400 0.960 . S
H1387 C1400 0.960 . S
C1388 H1380 0.929 . S
C1388 C1389 1.377 . S
C1388 C1390 1.384 . S
C1389 C1388 1.377 . S
C1389 C1395 1.390 . S
C1390 H1381 0.930 . S
C1390 C1388 1.384 . S
C1390 C1391 1.372 . S
C1391 C1390 1.372 . S
C1391 C1392 1.400 . S
C1391 C1396 1.490 . S
C1392 H1382 0.930 . S
C1392 C1391 1.400 . S
C1392 C1395 1.386 . S
H1393 C1409 0.930 . S
H1394 C1410 0.931 . S
C1395 H1383 0.929 . S
C1395 C1389 1.390 . S
C1395 C1392 1.386 . S
C1396 C1391 1.490 . S
C1396 C1398 1.395 . S
C1396 C1399 1.403 . S
H1397 C1403 0.930 . S
C1398 H1384 0.930 . S
C1398 C1396 1.395 . S
C1398 C1401 1.403 . S
C1399 C1396 1.403 . S
C1399 C1400 1.524 . S
C1399 C1403 1.400 . S
C1400 H1385 0.960 . S
C1400 H1386 0.960 . S
C1400 H1387 0.960 . S
C1400 C1399 1.524 . S
C1401 C1398 1.403 . S
C1401 C1402 1.392 . S
C1401 C1405 1.495 . S
C1402 C1401 1.392 . S
C1402 C1403 1.385 . S
C1402 C1404 1.478 . S
C1403 H1397 0.930 . S
C1403 C1399 1.400 . S
C1403 C1402 1.385 . S
C1404 C1402 1.478 . S
C1404 C1406 1.381 . S
C1404 C1410 1.383 . S
C1405 C1401 1.495 . S
C1405 H1411 0.959 . S
C1405 H1412 0.961 . S
C1405 H1413 0.960 . S
C1406 C1404 1.381 . S
C1406 C1407 1.394 . S
C1406 H1414 0.930 . S
C1407 C1406 1.394 . S
C1407 C1408 1.383 . S
C1407 H1415 0.929 . S
C1408 C1407 1.383 . S
C1408 C1409 1.377 . S
C1409 H1393 0.930 . S
C1409 C1408 1.377 . S
C1409 C1410 1.379 . S
C1410 H1394 0.931 . S
C1410 C1404 1.383 . S
C1410 C1409 1.379 . S
H1411 C1405 0.959 . S
H1412 C1405 0.961 . S
H1413 C1405 0.960 . S
H1414 C1406 0.930 . S
H1415 C1407 0.929 . S
H1416 C1424 0.929 . S
H1417 C1426 0.930 . S
H1418 C1428 0.930 . S
H1419 C1431 0.929 . S
H1420 C1434 0.930 . S
H1421 C1436 0.960 . S
H1422 C1436 0.960 . S
H1423 C1436 0.960 . S
C1424 H1416 0.929 . S
C1424 C1425 1.377 . S
C1424 C1426 1.384 . S
C1425 C1424 1.377 . S
C1425 C1431 1.390 . S
C1426 H1417 0.930 . S
C1426 C1424 1.384 . S
C1426 C1427 1.372 . S
C1427 C1426 1.372 . S
C1427 C1428 1.400 . S
C1427 C1432 1.490 . S
C1428 H1418 0.930 . S
C1428 C1427 1.400 . S
C1428 C1431 1.386 . S
H1429 C1445 0.930 . S
H1430 C1446 0.931 . S
C1431 H1419 0.929 . S
C1431 C1425 1.390 . S
C1431 C1428 1.386 . S
C1432 C1427 1.490 . S
C1432 C1434 1.395 . S
C1432 C1435 1.403 . S
H1433 C1439 0.930 . S
C1434 H1420 0.930 . S
C1434 C1432 1.395 . S
C1434 C1437 1.403 . S
C1435 C1432 1.403 . S
C1435 C1436 1.524 . S
C1435 C1439 1.400 . S
C1436 H1421 0.960 . S
C1436 H1422 0.960 . S
C1436 H1423 0.960 . S
C1436 C1435 1.524 . S
C1437 C1434 1.403 . S
C1437 C1438 1.392 . S
C1437 C1441 1.495 . S
C1438 C1437 1.392 . S
C1438 C1439 1.385 . S
C1438 C1440 1.478 . S
C1439 H1433 0.930 . S
C1439 C1435 1.400 . S
C1439 C1438 1.385 . S
C1440 C1438 1.478 . S
C1440 C1442 1.381 . S
C1440 C1446 1.383 . S
C1441 C1437 1.495 . S
C1441 H1447 0.959 . S
C1441 H1448 0.961 . S
C1441 H1449 0.960 . S
C1442 C1440 1.381 . S
C1442 C1443 1.394 . S
C1442 H1450 0.930 . S
C1443 C1442 1.394 . S
C1443 C1444 1.383 . S
C1443 H1451 0.929 . S
C1444 C1443 1.383 . S
C1444 C1445 1.377 . S
C1445 H1429 0.930 . S
C1445 C1444 1.377 . S
C1445 C1446 1.379 . S
C1446 H1430 0.931 . S
C1446 C1440 1.383 . S
C1446 C1445 1.379 . S
H1447 C1441 0.959 . S
H1448 C1441 0.961 . S
H1449 C1441 0.960 . S
H1450 C1442 0.930 . S
H1451 C1443 0.929 . S
H1452 C1460 0.929 . S
H1453 C1462 0.930 . S
H1454 C1464 0.930 . S
H1455 C1467 0.929 . S
H1456 C1470 0.930 . S
H1457 C1472 0.960 . S
H1458 C1472 0.960 . S
H1459 C1472 0.960 . S
C1460 H1452 0.929 . S
C1460 C1461 1.377 . S
C1460 C1462 1.384 . S
C1461 C1460 1.377 . S
C1461 C1467 1.390 . S
C1462 H1453 0.930 . S
C1462 C1460 1.384 . S
C1462 C1463 1.372 . S
C1463 C1462 1.372 . S
C1463 C1464 1.400 . S
C1463 C1468 1.490 . S
C1464 H1454 0.930 . S
C1464 C1463 1.400 . S
C1464 C1467 1.386 . S
H1465 C1481 0.930 . S
H1466 C1482 0.931 . S
C1467 H1455 0.929 . S
C1467 C1461 1.390 . S
C1467 C1464 1.386 . S
C1468 C1463 1.490 . S
C1468 C1470 1.395 . S
C1468 C1471 1.403 . S
H1469 C1475 0.930 . S
C1470 H1456 0.930 . S
C1470 C1468 1.395 . S
C1470 C1473 1.403 . S
C1471 C1468 1.403 . S
C1471 C1472 1.524 . S
C1471 C1475 1.400 . S
C1472 H1457 0.960 . S
C1472 H1458 0.960 . S
C1472 H1459 0.960 . S
C1472 C1471 1.524 . S
C1473 C1470 1.403 . S
C1473 C1474 1.392 . S
C1473 C1477 1.495 . S
C1474 C1473 1.392 . S
C1474 C1475 1.385 . S
C1474 C1476 1.478 . S
C1475 H1469 0.930 . S
C1475 C1471 1.400 . S
C1475 C1474 1.385 . S
C1476 C1474 1.478 . S
C1476 C1478 1.381 . S
C1476 C1482 1.383 . S
C1477 C1473 1.495 . S
C1477 H1483 0.959 . S
C1477 H1484 0.961 . S
C1477 H1485 0.960 . S
C1478 C1476 1.381 . S
C1478 C1479 1.394 . S
C1478 H1486 0.930 . S
C1479 C1478 1.394 . S
C1479 C1480 1.383 . S
C1479 H1487 0.929 . S
C1480 C1479 1.383 . S
C1480 C1481 1.377 . S
C1481 H1465 0.930 . S
C1481 C1480 1.377 . S
C1481 C1482 1.379 . S
C1482 H1466 0.931 . S
C1482 C1476 1.383 . S
C1482 C1481 1.379 . S
H1483 C1477 0.959 . S
H1484 C1477 0.961 . S
H1485 C1477 0.960 . S
H1486 C1478 0.930 . S
H1487 C1479 0.929 . S
H1488 C1496 0.929 . S
H1489 C1498 0.930 . S
H1490 C1500 0.930 . S
H1491 C1503 0.929 . S
H1492 C1506 0.930 . S
H1493 C1508 0.960 . S
H1494 C1508 0.960 . S
H1495 C1508 0.960 . S
C1496 H1488 0.929 . S
C1496 C1497 1.377 . S
C1496 C1498 1.384 . S
C1497 C1496 1.377 . S
C1497 C1503 1.390 . S
C1498 H1489 0.930 . S
C1498 C1496 1.384 . S
C1498 C1499 1.372 . S
C1499 C1498 1.372 . S
C1499 C1500 1.400 . S
C1499 C1504 1.490 . S
C1500 H1490 0.930 . S
C1500 C1499 1.400 . S
C1500 C1503 1.386 . S
H1501 C1517 0.930 . S
H1502 C1518 0.931 . S
C1503 H1491 0.929 . S
C1503 C1497 1.390 . S
C1503 C1500 1.386 . S
C1504 C1499 1.490 . S
C1504 C1506 1.395 . S
C1504 C1507 1.403 . S
H1505 C1511 0.930 . S
C1506 H1492 0.930 . S
C1506 C1504 1.395 . S
C1506 C1509 1.403 . S
C1507 C1504 1.403 . S
C1507 C1508 1.524 . S
C1507 C1511 1.400 . S
C1508 H1493 0.960 . S
C1508 H1494 0.960 . S
C1508 H1495 0.960 . S
C1508 C1507 1.524 . S
C1509 C1506 1.403 . S
C1509 C1510 1.392 . S
C1509 C1513 1.495 . S
C1510 C1509 1.392 . S
C1510 C1511 1.385 . S
C1510 C1512 1.478 . S
C1511 H1505 0.930 . S
C1511 C1507 1.400 . S
C1511 C1510 1.385 . S
C1512 C1510 1.478 . S
C1512 C1514 1.381 . S
C1512 C1518 1.383 . S
C1513 C1509 1.495 . S
C1513 H1519 0.959 . S
C1513 H1520 0.961 . S
C1513 H1521 0.960 . S
C1514 C1512 1.381 . S
C1514 C1515 1.394 . S
C1514 H1522 0.930 . S
C1515 C1514 1.394 . S
C1515 C1516 1.383 . S
C1515 H1523 0.929 . S
C1516 C1515 1.383 . S
C1516 C1517 1.377 . S
C1517 H1501 0.930 . S
C1517 C1516 1.377 . S
C1517 C1518 1.379 . S
C1518 H1502 0.931 . S
C1518 C1512 1.383 . S
C1518 C1517 1.379 . S
H1519 C1513 0.959 . S
H1520 C1513 0.961 . S
H1521 C1513 0.960 . S
H1522 C1514 0.930 . S
H1523 C1515 0.929 . S
H1524 C1532 0.929 . S
H1525 C1534 0.930 . S
H1526 C1536 0.930 . S
H1527 C1539 0.929 . S
H1528 C1542 0.930 . S
H1529 C1544 0.960 . S
H1530 C1544 0.960 . S
H1531 C1544 0.960 . S
C1532 H1524 0.929 . S
C1532 C1533 1.377 . S
C1532 C1534 1.384 . S
C1533 C1532 1.377 . S
C1533 C1539 1.390 . S
C1534 H1525 0.930 . S
C1534 C1532 1.384 . S
C1534 C1535 1.372 . S
C1535 C1534 1.372 . S
C1535 C1536 1.400 . S
C1535 C1540 1.490 . S
C1536 H1526 0.930 . S
C1536 C1535 1.400 . S
C1536 C1539 1.386 . S
H1537 C1553 0.930 . S
H1538 C1554 0.931 . S
C1539 H1527 0.929 . S
C1539 C1533 1.390 . S
C1539 C1536 1.386 . S
C1540 C1535 1.490 . S
C1540 C1542 1.395 . S
C1540 C1543 1.403 . S
H1541 C1547 0.930 . S
C1542 H1528 0.930 . S
C1542 C1540 1.395 . S
C1542 C1545 1.403 . S
C1543 C1540 1.403 . S
C1543 C1544 1.524 . S
C1543 C1547 1.400 . S
C1544 H1529 0.960 . S
C1544 H1530 0.960 . S
C1544 H1531 0.960 . S
C1544 C1543 1.524 . S
C1545 C1542 1.403 . S
C1545 C1546 1.392 . S
C1545 C1549 1.495 . S
C1546 C1545 1.392 . S
C1546 C1547 1.385 . S
C1546 C1548 1.478 . S
C1547 H1541 0.930 . S
C1547 C1543 1.400 . S
C1547 C1546 1.385 . S
C1548 C1546 1.478 . S
C1548 C1550 1.381 . S
C1548 C1554 1.383 . S
C1549 C1545 1.495 . S
C1549 H1555 0.959 . S
C1549 H1556 0.961 . S
C1549 H1557 0.960 . S
C1550 C1548 1.381 . S
C1550 C1551 1.394 . S
C1550 H1558 0.930 . S
C1551 C1550 1.394 . S
C1551 C1552 1.383 . S
C1551 H1559 0.929 . S
C1552 C1551 1.383 . S
C1552 C1553 1.377 . S
C1553 H1537 0.930 . S
C1553 C1552 1.377 . S
C1553 C1554 1.379 . S
C1554 H1538 0.931 . S
C1554 C1548 1.383 . S
C1554 C1553 1.379 . S
H1555 C1549 0.959 . S
H1556 C1549 0.961 . S
H1557 C1549 0.960 . S
H1558 C1550 0.930 . S
H1559 C1551 0.929 . S
C273 C117 0.891 . S
C292 C18 0.872 . S
C309 C32 0.896 . S
C328 C15 0.908 . S
C345 C54 0.897 . S
C364 C43 0.910 . S
C381 C65 0.897 . S
C400 C84 0.901 . S
C417 C81 0.898 . S
C436 C106 0.912 1_556 S
C453 C118 0.896 . S
C472 C103 0.906 . S
C489 C169 0.894 . S
C508 C150 0.892 . S
C525 C172 0.897 . S
C544 C191 0.910 . S
C561 C205 0.895 . S
C580 C194 0.891 . S
C597 C227 0.898 . S
C616 C206 0.913 1_554 S
C633 C263 0.898 . S
C652 C228 0.914 . S
C669 C147 0.898 . S
C688 C252 0.913 . S
C705 C257 1.255 . S
C724 C8 1.255 . S
C741 C40 1.246 . S
C760 C139 1.247 . S
C777 C161 1.251 . S
C796 C62 1.268 . S
C813 C183 1.250 . S
C832 C74 1.265 . S
C849 C219 1.251 . S
C868 C96 1.236 . S
C885 C120 1.246 . S
C904 C241 1.248 . S
C921 C140 1.252 . S
C940 C37 1.232 . S
C957 C162 1.247 . S
C976 C59 1.266 . S
C993 C73 1.255 . S
C1012 C184 1.227 . S
C1029 C95 1.255 . S
C1048 C208 1.227 . S
C1065 C230 1.254 . S
C1084 C131 1.237 . S
C1101 C260 1.254 . S
C1120 C7 1.239 . S
C1137 C142 0.958 . S
C1156 C10 0.964 . S
C1173 C30 0.958 . S
C1192 C164 0.949 . S
C1209 C186 0.955 . S
C1228 C52 0.937 . S
C1245 C76 0.960 . S
C1264 C216 0.972 . S
C1281 C238 0.958 . S
C1300 C98 0.946 . S
C1317 C250 0.954 . S
C1336 C128 0.936 . S
C1353 C153 0.694 . S
C1372 C21 0.672 . S
C1389 C175 0.694 . S
C1408 C29 0.670 . S
C1425 C197 0.696 . S
C1444 C51 0.673 . S
C1461 C87 0.694 . S
C1480 C213 0.671 . S
C1497 C235 0.697 . S
C1516 C109 0.702 . S
C1533 C249 0.697 . S
C1552 C125 0.678 . S
