# Generated by pormake.
# Topology qdl, (4)-cn, num edge types: 1
# Building blocks:
#     Node 0, Type 0, BuildingBlock: NAWXER_clean_sbu_0, # of connection points: 4
#     Node 1, Type 0, BuildingBlock: NAWXER_clean_sbu_0, # of connection points: 4
#     Node 2, Type 0, BuildingBlock: NAWXER_clean_sbu_0, # of connection points: 4
#     Node 3, Type 0, BuildingBlock: NAWXER_clean_sbu_0, # of connection points: 4
#     Node 4, Type 0, BuildingBlock: NAWXER_clean_sbu_0, # of connection points: 4
#     Node 5, Type 0, BuildingBlock: NAWXER_clean_sbu_0, # of connection points: 4
#     Edge 6, Type (0, 0), BuildingBlock: XUDNAN_clean_linker_2, # of connection points: 2
#     Edge 7, Type (0, 0), BuildingBlock: XUDNAN_clean_linker_2, # of connection points: 2
#     Edge 8, Type (0, 0), BuildingBlock: XUDNAN_clean_linker_2, # of connection points: 2
#     Edge 9, Type (0, 0), BuildingBlock: XUDNAN_clean_linker_2, # of connection points: 2
#     Edge 10, Type (0, 0), BuildingBlock: XUDNAN_clean_linker_2, # of connection points: 2
#     Edge 11, Type (0, 0), BuildingBlock: XUDNAN_clean_linker_2, # of connection points: 2
#     Edge 12, Type (0, 0), BuildingBlock: XUDNAN_clean_linker_2, # of connection points: 2
#     Edge 13, Type (0, 0), BuildingBlock: XUDNAN_clean_linker_2, # of connection points: 2
#     Edge 14, Type (0, 0), BuildingBlock: XUDNAN_clean_linker_2, # of connection points: 2
#     Edge 15, Type (0, 0), BuildingBlock: XUDNAN_clean_linker_2, # of connection points: 2
#     Edge 16, Type (0, 0), BuildingBlock: XUDNAN_clean_linker_2, # of connection points: 2
#     Edge 17, Type (0, 0), BuildingBlock: XUDNAN_clean_linker_2, # of connection points: 2
# Relax obj value: 0.000
# Max RMSD: 0.024
# Mean RMSD: 0.019
data_MOF--net-qdl--node1-NAWXER_clean_sbu_0--edge1-XUDNAN_clean_linker_2
_symmetry_space_group_name_H-M    P1
_symmetry_Int_Tables_number       1
_symmetry_cell_setting            triclinic
loop_
_symmetry_equiv_pos_as_xyz
'x, y, z'
_cell_length_a     14.648338
_cell_length_b     14.689844
_cell_length_c     87.280434
_cell_angle_alpha  94.900129
_cell_angle_beta   94.740125
_cell_angle_gamma 119.98717
loop_
_atom_site_label
_atom_site_type_symbol
_atom_site_fract_x
_atom_site_fract_y
_atom_site_fract_z
_atom_type_partial_charge
C0 C 0.37615 0.03323 0.10596 0.0
C1 C 0.37565 0.36357 0.10664 0.0
O2 O 0.45173 0.12824 0.11017 0.0
Zn3 Zn 0.37243 0.19612 0.10614 0.0
O4 O 0.28276 1.01529 0.10096 0.0
Zn5 Zn 0.21105 0.11255 0.09744 0.0
O6 O 0.1603 0.0797 0.07562 0.0
O7 O 0.33558 0.16507 0.08092 0.0
O8 O 0.28235 0.28367 0.1016 0.0
O9 O 0.45125 0.34772 0.11058 0.0
O10 O 0.26685 0.14926 0.12373 0.0
O11 O 0.1042 0.06451 0.11079 0.0
C12 C 0.25041 0.12017 0.07094 0.0
C13 C 0.16556 0.09887 0.12367 0.0
C14 C 0.34793 0.19812 0.4329 0.0
C15 C 1.01315 0.19802 0.4323 0.0
O16 O 0.26502 0.10504 0.43092 0.0
Zn17 Zn 0.09601 0.0339 0.42743 0.0
O18 O 0.33748 0.27902 0.43298 0.0
Zn19 Zn 0.18118 0.20106 0.43066 0.0
O20 O 0.15003 0.12375 0.45187 0.0
O21 O 0.06069 0.9506 0.4438 0.0
O22 O 0.1049 0.27906 0.43249 0.0
O23 O 1.00112 0.10505 0.43043 0.0
O24 O 0.04812 0.95678 0.40698 0.0
O25 O 0.13484 0.12908 0.40648 0.0
C26 C 0.10273 0.02756 0.4549 0.0
C27 C 0.08348 0.03362 0.39924 0.0
C28 C 0.04905 0.11541 0.78981 0.0
C29 C 0.06242 0.0423 0.73455 0.0
O30 O 1.00225 0.14966 0.78096 0.0
Zn31 Zn 0.97005 0.15267 0.7567 0.0
O32 O 0.09332 0.06833 0.7838 0.0
Zn33 Zn 0.05556 0.07672 0.76223 0.0
O34 O 0.15204 0.24623 0.76087 0.0
O35 O 0.03855 0.30031 0.75546 0.0
O36 O 0.09695 1.01298 0.74581 0.0
O37 O 1.0147 0.09389 0.73717 0.0
O38 O 0.81833 0.0763 0.75275 0.0
O39 O 0.8834 0.97512 0.75875 0.0
C40 C 0.13394 0.32089 0.75814 0.0
C41 C 0.80295 0.98616 0.75521 0.0
C42 C 0.1287 1.0181 0.6236 0.0
C43 C 0.10958 1.01632 0.56759 0.0
O44 O 0.17224 0.11254 0.61996 0.0
Zn45 Zn 0.20289 0.18605 0.59868 0.0
O46 O 0.08877 0.93811 0.61299 0.0
Zn47 Zn 0.11944 1.01747 0.59589 0.0
O48 O 0.28851 0.0917 0.5993 0.0
O49 O 0.35934 0.2654 0.60108 0.0
O50 O 0.07347 0.939 0.57528 0.0
O51 O 0.1588 0.11151 0.57488 0.0
O52 O 0.12425 0.26148 0.59991 0.0
O53 O 1.02257 0.08741 0.59846 0.0
C54 C 0.37076 0.18512 0.60115 0.0
C55 C 0.0332 0.17992 0.59994 0.0
C56 C 0.17316 0.13812 0.95876 0.0
C57 C 0.08713 0.1435 0.90356 0.0
O58 O 0.12026 0.18472 0.95641 0.0
Zn59 Zn 0.05599 0.22668 0.9374 0.0
O60 O 0.19992 0.1024 0.94728 0.0
Zn61 Zn 0.13273 0.14012 0.93083 0.0
O62 O 0.22926 0.30818 0.93258 0.0
O63 O 0.14 0.38319 0.94057 0.0
O64 O 0.1375 0.10122 0.90921 0.0
O65 O 0.05379 0.1901 0.91273 0.0
O66 O 0.90373 0.14939 0.93913 0.0
O67 O 0.96501 0.04532 0.93144 0.0
C68 C 0.22438 0.39179 0.9362 0.0
C69 C 0.8873 0.05696 0.93468 0.0
C70 C 0.9858 1.01052 0.28588 0.0
C71 C 0.98385 1.014 0.22978 0.0
O72 O 0.89222 0.96136 0.27804 0.0
Zn73 Zn 0.81972 0.93209 0.25455 0.0
O74 O 0.06653 0.06061 0.27905 0.0
Zn75 Zn 0.98788 1.01917 0.258 0.0
O76 O 0.91392 0.11538 0.25777 0.0
O77 O 0.7408 1.00342 0.25473 0.0
O78 O 0.06529 0.05603 0.24019 0.0
O79 O 0.8907 0.96693 0.23382 0.0
O80 O 0.73924 0.78091 0.25111 0.0
O81 O 0.91298 0.84579 0.25497 0.0
C82 C 0.81842 0.09821 0.25638 0.0
C83 C 0.8173 0.76552 0.25251 0.0
H84 H 0.23275 0.81836 0.09842 0.0
H85 H 0.56512 0.04727 0.11594 0.0
H86 H 0.59991 0.90092 0.11804 0.0
H87 H 0.20409 0.62316 0.1229 0.0
H88 H 0.11884 0.51113 0.10811 0.0
H89 H 0.11934 0.63385 0.10785 0.0
H90 H 0.16382 0.63983 0.0797 0.0
H91 H 0.16331 0.51705 0.07986 0.0
H92 H 0.27887 0.63301 0.07549 0.0
H93 H 0.59962 0.73144 0.11838 0.0
H94 H 0.56448 0.54819 0.11674 0.0
H95 H 0.23239 0.4277 0.09898 0.0
C96 C 0.31284 0.83773 0.10267 0.0
C97 C 0.39617 0.94448 0.10701 0.0
C98 C 0.49989 0.96628 0.11254 0.0
C99 C 0.52058 0.88369 0.11379 0.0
C100 C 0.43679 0.77957 0.10946 0.0
C101 C 0.33502 0.75612 0.104 0.0
C102 C 0.25943 0.63708 0.10014 0.0
C103 C 0.17017 0.5991 0.11036 0.0
C104 C 0.21369 0.60488 0.08277 0.0
C105 C 0.33482 0.59757 0.10429 0.0
C106 C 0.43665 0.68123 0.10965 0.0
C107 C 0.52025 0.66516 0.1142 0.0
C108 C 0.49936 0.56065 0.11323 0.0
C109 C 0.39567 0.47337 0.10773 0.0
C110 C 0.31245 0.49253 0.10323 0.0
H111 H 0.53648 0.31866 0.42105 0.0
H112 H 0.39285 0.09558 0.45342 0.0
H113 H 0.55768 0.09083 0.45888 0.0
H114 H 0.66249 0.19417 0.40448 0.0
H115 H 0.78263 0.31325 0.40205 0.0
H116 H 0.66029 0.31404 0.40229 0.0
H117 H 0.75158 0.47168 0.4248 0.0
H118 H 0.87457 0.47167 0.42459 0.0
H119 H 0.81711 0.46023 0.44232 0.0
H120 H 0.72342 0.09081 0.45872 0.0
H121 H 0.88694 0.09541 0.45292 0.0
H122 H 0.93259 0.31838 0.42062 0.0
C123 C 0.54154 0.27148 0.4296 0.0
C124 C 0.45266 0.20816 0.43696 0.0
C125 C 0.46034 0.14474 0.44772 0.0
C126 C 0.55374 0.14191 0.45095 0.0
C127 C 0.63911 0.20269 0.44328 0.0
C128 C 0.63473 0.2666 0.43284 0.0
C129 C 0.73532 0.31546 0.42519 0.0
C130 C 0.70854 0.28221 0.40745 0.0
C131 C 0.79838 0.437 0.42948 0.0
C132 C 0.79455 0.26598 0.4326 0.0
C133 C 0.73741 0.20241 0.44314 0.0
C134 C 0.76995 0.14165 0.4507 0.0
C135 C 0.86263 0.14441 0.44728 0.0
C136 C 0.92244 0.20777 0.43644 0.0
C137 C 0.88924 0.27107 0.42919 0.0
H138 H 0.73952 0.78123 0.76001 0.0
H139 H 0.61752 0.98719 0.74905 0.0
H140 H 0.43442 0.83983 0.7489 0.0
H141 H 0.52686 0.54279 0.73607 0.0
H142 H 0.52452 0.45619 0.74967 0.0
H143 H 0.64656 0.5777 0.74878 0.0
H144 H 0.66212 0.63572 0.77822 0.0
H145 H 0.53985 0.51464 0.77918 0.0
H146 H 0.55341 0.64127 0.78562 0.0
H147 H 0.26558 0.67286 0.75035 0.0
H148 H 0.11954 0.49355 0.75242 0.0
H149 H 0.34936 0.3939 0.7623 0.0
C150 C 0.67432 0.79525 0.75751 0.0
C151 C 0.69305 0.89593 0.75454 0.0
C152 C 0.60538 0.91088 0.75134 0.0
C153 C 0.50097 0.82771 0.75126 0.0
C154 C 0.48539 0.72993 0.75435 0.0
C155 C 0.56935 0.71294 0.75735 0.0
C156 C 0.53019 0.59984 0.76029 0.0
C157 C 0.55872 0.54065 0.74796 0.0
C158 C 0.574 0.5978 0.77681 0.0
C159 C 0.41114 0.55623 0.75852 0.0
C160 C 0.38731 0.63283 0.75512 0.0
C161 C 0.28309 0.61204 0.75298 0.0
C162 C 0.2007 0.50985 0.7542 0.0
C163 C 0.22281 0.42944 0.75753 0.0
C164 C 0.32975 0.45351 0.75978 0.0
H165 H 0.55743 0.30216 0.58869 0.0
H166 H 0.41807 0.08751 0.62224 0.0
H167 H 0.58235 0.08146 0.62748 0.0
H168 H 0.67877 0.17266 0.57228 0.0
H169 H 0.79877 0.28975 0.56926 0.0
H170 H 0.67759 0.29258 0.56971 0.0
H171 H 0.77292 0.45362 0.59167 0.0
H172 H 0.89485 0.45176 0.59123 0.0
H173 H 0.84052 0.44458 0.60918 0.0
H174 H 0.74635 0.07812 0.62692 0.0
H175 H 0.90832 0.0801 0.62088 0.0
H176 H 0.95102 0.29755 0.58777 0.0
C177 C 0.56346 0.2568 0.59746 0.0
C178 C 0.47589 0.19611 0.60522 0.0
C179 C 0.48466 0.13479 0.61626 0.0
C180 C 0.57771 0.13116 0.61935 0.0
C181 C 0.66166 0.18909 0.61127 0.0
C182 C 0.65636 0.25126 0.60059 0.0
C183 C 0.75538 0.29726 0.59258 0.0
C184 C 0.72581 0.26085 0.57491 0.0
C185 C 0.81974 0.41906 0.5964 0.0
C186 C 0.81473 0.24817 0.60007 0.0
C187 C 0.75899 0.18709 0.61094 0.0
C188 C 0.79182 0.12703 0.61864 0.0
C189 C 0.88352 0.12819 0.61507 0.0
C190 C 0.94211 0.18937 0.60396 0.0
C191 C 0.9085 0.25177 0.59653 0.0
H192 H 0.33179 0.59215 0.95425 0.0
H193 H 0.31447 0.41838 0.91027 0.0
H194 H 0.47012 0.57761 0.9042 0.0
H195 H 0.43129 0.85699 0.94041 0.0
H196 H 0.52029 0.92944 0.95824 0.0
H197 H 0.39799 0.80649 0.95851 0.0
H198 H 0.50468 0.73117 0.97202 0.0
H199 H 0.62711 0.85355 0.97176 0.0
H200 H 0.61056 0.7294 0.96309 0.0
H201 H 0.63545 0.74261 0.90382 0.0
H202 H 0.80685 0.91122 0.90912 0.0
H203 H 0.72604 0.98822 0.95319 0.0
C204 C 0.3596 0.58916 0.94321 0.0
C205 C 0.31098 0.49332 0.93266 0.0
C206 C 0.35078 0.49104 0.91849 0.0
C207 C 0.43881 0.5812 0.91489 0.0
C208 C 0.48691 0.67366 0.9256 0.0
C209 C 0.44925 0.6792 0.93946 0.0
C210 C 0.52284 0.78699 0.94935 0.0
C211 C 0.46461 0.84863 0.95177 0.0
C212 C 0.56902 0.77448 0.96498 0.0
C213 C 0.60872 0.83902 0.93904 0.0
C214 C 0.58491 0.77184 0.92534 0.0
C215 C 0.65433 0.79688 0.91436 0.0
C216 C 0.75162 0.89258 0.9175 0.0
C217 C 0.77885 0.96283 0.93145 0.0
C218 C 0.70577 0.93676 0.94228 0.0
H219 H 0.96533 0.31253 0.2592 0.0
H220 H 0.62509 0.08528 0.25238 0.0
H221 H 0.58926 0.231 0.25033 0.0
H222 H 0.9546 0.52256 0.28255 0.0
H223 H 0.05794 0.62745 0.27415 0.0
H224 H 0.05749 0.50536 0.27527 0.0
H225 H 0.05952 0.48169 0.24557 0.0
H226 H 0.0593 0.60336 0.24434 0.0
H227 H 0.95744 0.48169 0.23252 0.0
H228 H 0.58899 0.39895 0.24844 0.0
H229 H 0.62432 0.58102 0.24795 0.0
H230 H 0.96472 0.7016 0.25622 0.0
C231 C 0.88333 0.29347 0.25736 0.0
C232 C 0.79806 0.18723 0.25595 0.0
C233 C 0.69187 0.16585 0.25352 0.0
C234 C 0.67054 0.24807 0.25231 0.0
C235 C 0.75619 0.35149 0.25359 0.0
C236 C 0.86047 0.37479 0.25616 0.0
C237 C 0.93762 0.49315 0.25712 0.0
C238 C 1.00592 0.53986 0.27323 0.0
C239 C 1.00758 0.51629 0.24411 0.0
C240 C 0.8602 0.5324 0.25464 0.0
C241 C 0.75603 0.44915 0.25259 0.0
C242 C 0.6702 0.46493 0.25006 0.0
C243 C 0.69124 0.56879 0.24978 0.0
C244 C 0.79732 0.65589 0.25204 0.0
C245 C 0.88278 0.63691 0.25441 0.0
H246 H 0.16712 0.10516 0.21581 0.0
H247 H 0.8214 0.93276 0.20574 0.0
H248 H 0.83204 0.93832 0.1779 0.0
H249 H 0.21387 0.27739 0.18644 0.0
H250 H 0.32922 0.27438 0.18135 0.0
H251 H 0.29619 0.258 0.20075 0.0
H252 H 0.29326 0.07956 0.19823 0.0
H253 H 0.32643 0.09545 0.17884 0.0
H254 H 0.20908 0.97694 0.18218 0.0
H255 H 0.87694 0.96052 0.1513 0.0
H256 H 0.95512 0.9973 0.12708 0.0
H257 H 0.27247 0.15541 0.15364 0.0
C258 C 0.09381 0.06868 0.20775 0.0
C259 C 0.99346 1.01856 0.21304 0.0
C260 C 0.89937 0.97168 0.20206 0.0
C261 C 0.90435 0.97438 0.18617 0.0
C262 C 1.00401 0.02424 0.18134 0.0
C263 C 0.0972 0.07053 0.19173 0.0
C264 C 0.1937 0.11832 0.18326 0.0
C265 C 0.26227 0.23921 0.18825 0.0
C266 C 0.25948 0.06432 0.18578 0.0
C267 C 0.1397 0.09122 0.16655 0.0
C268 C 0.03024 0.03709 0.16578 0.0
C269 C 0.9626 1.00293 0.15172 0.0
C270 C 1.0079 0.02427 0.138 0.0
C271 C 0.11997 0.07928 0.13841 0.0
C272 C 0.18653 0.11335 0.15293 0.0
H273 H 0.17879 0.1643 0.54749 0.0
H274 H 1.01135 0.82426 0.54875 0.0
H275 H 0.99238 0.79118 0.52016 0.0
H276 H 1.02152 0.15455 0.51258 0.0
H277 H 0.1332 0.25977 0.50551 0.0
H278 H 0.13318 0.25706 0.5261 0.0
H279 H 0.31315 0.26195 0.52838 0.0
H280 H 0.31358 0.26438 0.50779 0.0
H281 H 0.32439 0.16252 0.51648 0.0
H282 H 0.99277 0.79439 0.4916 0.0
H283 H 1.00994 0.83327 0.46475 0.0
H284 H 0.17709 0.17151 0.48184 0.0
C285 C 0.13789 0.08283 0.54177 0.0
C286 C 0.09655 0.99683 0.5504 0.0
C287 C 0.04367 0.89147 0.54242 0.0
C288 C 0.03252 0.87181 0.52618 0.0
C289 C 0.07457 0.95829 0.51805 0.0
C290 C 0.12597 0.0617 0.52554 0.0
C291 C 0.16395 0.14023 0.51402 0.0
C292 C 0.1097 0.20681 0.51459 0.0
C293 C 0.28601 0.21145 0.51684 0.0
C294 C 0.12606 0.06469 0.49889 0.0
C295 C 0.07473 0.96016 0.50151 0.0
C296 C 0.03272 0.87591 0.48939 0.0
C297 C 0.04301 0.89896 0.47417 0.0
C298 C 0.09495 1.0055 0.47115 0.0
C299 C 0.13713 0.08928 0.48374 0.0
H300 H 0.13547 0.05085 0.81306 0.0
H301 H 0.95755 0.21081 0.80505 0.0
H302 H 0.94695 0.23103 0.83291 0.0
H303 H 0.99182 0.90749 0.84289 0.0
H304 H 0.10755 0.92283 0.85452 0.0
H305 H 0.10288 0.92013 0.83378 0.0
H306 H 0.2789 0.10188 0.83785 0.0
H307 H 0.28435 0.10489 0.8586 0.0
H308 H 0.28848 0.21341 0.84983 0.0
H309 H 0.952 0.23349 0.86108 0.0
H310 H 0.97834 0.22402 0.88888 0.0
H311 H 0.15483 0.06427 0.87979 0.0
C312 C 0.09464 0.09036 0.8172 0.0
C313 C 0.04728 0.1291 0.80679 0.0
C314 C 0.99451 0.18032 0.8127 0.0
C315 C 0.9878 0.19218 0.82855 0.0
C316 C 0.03438 0.1527 0.83843 0.0
C317 C 0.08725 0.10326 0.83311 0.0
C318 C 0.13063 0.06906 0.84646 0.0
C319 C 0.08018 0.94766 0.84428 0.0
C320 C 0.25285 0.12571 0.84829 0.0
C321 C 0.09364 0.10724 0.86005 0.0
C322 C 0.03801 0.15483 0.85503 0.0
C323 C 0.99557 0.19661 0.8652 0.0
C324 C 1.01103 0.19066 0.88101 0.0
C325 C 0.06879 0.14347 0.8866 0.0
C326 C 0.11015 0.10062 0.87591 0.0
H327 H 0.10743 0.11331 0.04811 0.0
H328 H 0.40877 0.12336 0.0559 0.0
H329 H 0.4185 0.11949 0.02765 0.0
H330 H 1.00332 0.94271 1.01101 0.0
H331 H 0.94535 1.01503 1.00316 0.0
H332 H 0.95931 1.01141 0.02377 0.0
H333 H 0.06584 0.21733 0.02902 0.0
H334 H 0.05197 0.22155 1.00845 0.0
H335 H 0.18255 0.28935 0.01983 0.0
H336 H 0.39246 0.11202 0.99819 0.0
H337 H 0.34248 0.1205 0.9707 0.0
H338 H 0.06561 0.12857 0.98307 0.0
C339 C 0.17492 0.11355 0.04385 0.0
C340 C 0.25682 0.11744 0.05412 0.0
C341 C 0.34508 0.12012 0.04817 0.0
C342 C 0.35099 0.11747 0.03216 0.0
C343 C 0.26876 0.11376 0.02233 0.0
C344 C 0.1831 0.11319 0.028 0.0
C345 C 0.10857 0.11597 0.01523 0.0
C346 C 0.99759 1.01527 1.01317 0.0
C347 C 0.10191 0.21707 0.01832 0.0
C348 C 0.16552 0.11824 1.00146 0.0
C349 C 0.25688 0.11522 1.00568 0.0
C350 C 0.32136 0.11496 0.99478 0.0
C351 C 0.29231 0.11943 0.97921 0.0
C352 C 0.20085 0.1261 0.97483 0.0
C353 C 0.13667 0.1247 0.98612 0.0
H354 H 0.11947 0.15975 0.31123 0.0
H355 H 0.87493 0.8284 0.29744 0.0
H356 H 0.88122 0.79832 0.32472 0.0
H357 H 0.27048 0.12107 0.34333 0.0
H358 H 0.29648 0.23827 0.35579 0.0
H359 H 0.2807 0.23337 0.33499 0.0
H360 H 0.13075 0.27735 0.33643 0.0
H361 H 0.14582 0.282 0.35722 0.0
H362 H 1.01755 0.19463 0.34567 0.0
H363 H 0.90813 0.80271 0.35293 0.0
H364 H 0.9488 0.84279 0.3814 0.0
H365 H 0.16999 0.17402 0.3781 0.0
C366 C 0.06873 0.08083 0.31402 0.0
C367 C 0.99705 0.99607 0.30229 0.0
C368 C 0.93011 0.89424 0.3063 0.0
C369 C 0.93338 0.87625 0.32174 0.0
C370 C 1.00326 0.96126 0.33309 0.0
C371 C 0.06943 0.06176 0.32954 0.0
C372 C 0.13163 0.13997 0.34428 0.0
C373 C 0.25198 0.18586 0.34461 0.0
C374 C 0.1048 0.22872 0.34599 0.0
C375 C 0.08922 0.06749 0.35655 0.0
C376 C 1.01626 0.96464 0.34973 0.0
C377 C 0.96529 0.88288 0.35846 0.0
C378 C 0.9891 0.90663 0.37465 0.0
C379 C 0.06253 1.0116 0.38203 0.0
C380 C 0.11338 0.0931 0.37281 0.0
H381 H 0.11804 0.14636 0.64693 0.0
H382 H 0.12381 0.85493 0.6373 0.0
H383 H 0.11401 0.83113 0.66501 0.0
H384 H 0.27191 0.23864 0.68513 0.0
H385 H 0.19164 0.28797 0.69275 0.0
H386 H 0.20469 0.28405 0.6724 0.0
H387 H 0.99917 0.17156 0.66523 0.0
H388 H 0.98551 0.17543 0.68555 0.0
H389 H 0.92596 0.04949 0.67312 0.0
H390 H 0.10794 0.84312 0.69424 0.0
H391 H 0.08844 0.8805 0.72168 0.0
H392 H 0.07391 0.15666 0.71115 0.0
C393 C 0.1183 0.07809 0.6507 0.0
C394 C 0.12296 1.00308 0.64008 0.0
C395 C 0.12058 0.91341 0.64531 0.0
C396 C 0.11543 0.89951 0.66102 0.0
C397 C 0.11098 0.97516 0.67123 0.0
C398 C 0.11096 0.06193 0.6662 0.0
C399 C 0.09956 0.12871 0.67922 0.0
C400 C 0.19782 0.24151 0.68257 0.0
C401 C 0.99641 0.13139 0.67556 0.0
C402 C 0.09373 0.06644 0.6924 0.0
C403 C 0.10182 0.97886 0.68767 0.0
C404 C 0.1008 0.9111 0.69803 0.0
C405 C 0.09006 0.933 0.71358 0.0
C406 C 0.07868 1.02074 0.71846 0.0
C407 C 0.08108 0.08815 0.7077 0.0
loop_
_geom_bond_atom_site_label_1
_geom_bond_atom_site_label_2
_geom_bond_distance
_geom_bond_site_symmetry_2
_ccdc_geom_bond_type
C0 O2 1.247 1_565 S
C0 O4 1.258 . S
C1 O8 1.247 . S
C1 O9 1.258 . S
O2 C0 1.247 1_545 S
O2 Zn3 2.028 . S
Zn3 O2 2.028 . S
Zn3 O7 2.035 . S
Zn3 O9 2.035 . S
Zn3 O10 2.028 . S
O4 C0 1.258 . S
O4 Zn5 2.035 1_565 S
Zn5 O4 2.035 1_545 S
Zn5 O6 2.028 . S
Zn5 O8 2.028 . S
Zn5 O11 2.035 . S
O6 Zn5 2.028 . S
O6 C12 1.247 . S
O7 Zn3 2.035 . S
O7 C12 1.258 . S
O8 C1 1.247 . S
O8 Zn5 2.028 . S
O9 C1 1.258 . S
O9 Zn3 2.035 . S
O10 Zn3 2.028 . S
O10 C13 1.247 . S
O11 Zn5 2.035 . S
O11 C13 1.258 . S
C12 O6 1.247 . S
C12 O7 1.258 . S
C13 O10 1.247 . S
C13 O11 1.258 . S
C14 O16 1.247 1_545 S
C14 O18 1.258 . S
C15 O22 1.247 . S
C15 O23 1.258 1_545 S
O16 C14 1.247 1_565 S
O16 Zn17 2.028 . S
Zn17 O16 2.028 . S
Zn17 O21 2.035 . S
Zn17 O23 2.035 1_455 S
Zn17 O24 2.028 . S
O18 C14 1.258 . S
O18 Zn19 2.035 . S
Zn19 O18 2.035 . S
Zn19 O20 2.028 . S
Zn19 O22 2.028 1_455 S
Zn19 O25 2.035 . S
O20 Zn19 2.028 . S
O20 C26 1.247 . S
O21 Zn17 2.035 . S
O21 C26 1.258 1_565 S
O22 C15 1.247 . S
O22 Zn19 2.028 1_655 S
O23 C15 1.258 1_565 S
O23 Zn17 2.035 1_655 S
O24 Zn17 2.028 . S
O24 C27 1.247 1_565 S
O25 Zn19 2.035 . S
O25 C27 1.258 . S
C26 O20 1.247 . S
C26 O21 1.258 1_545 S
C27 O24 1.247 1_545 S
C27 O25 1.258 . S
C28 O30 1.247 1_455 S
C28 O32 1.258 . S
C29 O36 1.247 . S
C29 O37 1.258 1_455 S
O30 C28 1.247 1_655 S
O30 Zn31 2.028 . S
Zn31 O30 2.028 . S
Zn31 O35 2.035 1_655 S
Zn31 O37 2.035 . S
Zn31 O38 2.028 . S
O32 C28 1.258 . S
O32 Zn33 2.035 . S
Zn33 O32 2.035 . S
Zn33 O34 2.028 . S
Zn33 O36 2.028 . S
Zn33 O39 2.035 1_445 S
O34 Zn33 2.028 . S
O34 C40 1.247 . S
O35 Zn31 2.035 1_455 S
O35 C40 1.258 . S
O36 C29 1.247 . S
O36 Zn33 2.028 . S
O37 C29 1.258 1_655 S
O37 Zn31 2.035 . S
O38 Zn31 2.028 . S
O38 C41 1.247 1_545 S
O39 Zn33 2.035 1_665 S
O39 C41 1.258 . S
C40 O34 1.247 . S
C40 O35 1.258 . S
C41 O38 1.247 1_565 S
C41 O39 1.258 . S
C42 O44 1.247 . S
C42 O46 1.258 1_445 S
C43 O50 1.247 1_455 S
C43 O51 1.258 1_565 S
O44 C42 1.247 . S
O44 Zn45 2.028 . S
Zn45 O44 2.028 . S
Zn45 O49 2.035 . S
Zn45 O51 2.035 . S
Zn45 O52 2.028 1_455 S
O46 C42 1.258 1_665 S
O46 Zn47 2.035 . S
Zn47 O46 2.035 . S
Zn47 O48 2.028 1_655 S
Zn47 O50 2.028 . S
Zn47 O53 2.035 . S
O48 Zn47 2.028 1_455 S
O48 C54 1.247 1_565 S
O49 Zn45 2.035 . S
O49 C54 1.258 . S
O50 C43 1.247 1_655 S
O50 Zn47 2.028 . S
O51 C43 1.258 1_545 S
O51 Zn45 2.035 . S
O52 Zn45 2.028 1_655 S
O52 C55 1.247 . S
O53 Zn47 2.035 . S
O53 C55 1.258 1_565 S
C54 O48 1.247 1_545 S
C54 O49 1.258 . S
C55 O52 1.247 . S
C55 O53 1.258 1_545 S
C56 O58 1.247 . S
C56 O60 1.258 . S
C57 O64 1.247 . S
C57 O65 1.247 1_455 S
O58 C56 1.247 . S
O58 Zn59 2.028 . S
Zn59 O58 2.028 . S
Zn59 O63 2.035 . S
Zn59 O65 2.037 1_455 S
Zn59 O66 2.028 1_455 S
O60 C56 1.258 . S
O60 Zn61 2.035 . S
Zn61 O60 2.035 . S
Zn61 O62 2.028 . S
Zn61 O64 2.028 . S
Zn61 O67 2.035 1_445 S
O62 Zn61 2.028 . S
O62 C68 1.247 . S
O63 Zn59 2.035 . S
O63 C68 1.258 . S
O64 C57 1.247 . S
O64 Zn61 2.028 . S
O65 C57 1.247 1_655 S
O65 Zn59 2.037 1_655 S
O66 Zn59 2.028 1_655 S
O66 C69 1.247 1_545 S
O67 Zn61 2.035 1_665 S
O67 C69 1.258 . S
C68 O62 1.247 . S
C68 O63 1.258 . S
C69 O66 1.247 1_565 S
C69 O67 1.258 . S
C70 O72 1.247 . S
C70 O74 1.258 . S
C71 O78 1.247 . S
C71 O79 1.258 . S
O72 C70 1.247 . S
O72 Zn73 2.028 . S
Zn73 O72 2.028 . S
Zn73 O77 2.035 . S
Zn73 O79 2.035 . S
Zn73 O80 2.028 1_545 S
O74 C70 1.258 . S
O74 Zn75 2.035 . S
Zn75 O74 2.035 . S
Zn75 O76 2.028 . S
Zn75 O78 2.028 . S
Zn75 O81 2.035 . S
O76 Zn75 2.028 . S
O76 C82 1.247 . S
O77 Zn73 2.035 . S
O77 C82 1.258 . S
O78 C71 1.247 . S
O78 Zn75 2.028 . S
O79 C71 1.258 . S
O79 Zn73 2.035 . S
O80 Zn73 2.028 1_565 S
O80 C83 1.247 . S
O81 Zn75 2.035 . S
O81 C83 1.258 1_545 S
C82 O76 1.247 . S
C82 O77 1.258 . S
C83 O80 1.247 . S
C83 O81 1.258 1_565 S
H84 C96 0.930 . S
H85 C98 0.930 . S
H86 C99 0.930 . S
H87 C103 0.959 . S
H88 C103 0.959 . S
H89 C103 0.961 . S
H90 C104 0.960 . S
H91 C104 0.961 . S
H92 C104 0.959 . S
H93 C107 0.929 . S
H94 C108 0.931 . S
H95 C110 0.930 . S
C96 H84 0.930 . S
C96 C97 1.399 . S
C96 C101 1.399 . S
C97 C96 1.399 . S
C97 C98 1.376 . S
C98 H85 0.930 . S
C98 C97 1.376 . S
C98 C99 1.388 . S
C99 H86 0.930 . S
C99 C98 1.388 . S
C99 C100 1.390 . S
C100 C99 1.390 . S
C100 C101 1.394 . S
C100 C106 1.465 . S
C101 C96 1.399 . S
C101 C100 1.394 . S
C101 C102 1.516 . S
C102 C101 1.516 . S
C102 C103 1.502 1_455 S
C102 C104 1.561 . S
C102 C105 1.526 . S
C103 H87 0.959 . S
C103 H88 0.959 . S
C103 H89 0.961 . S
C103 C102 1.502 1_655 S
C104 H90 0.960 . S
C104 H91 0.961 . S
C104 H92 0.959 . S
C104 C102 1.561 . S
C105 C102 1.526 . S
C105 C106 1.396 . S
C105 C110 1.390 . S
C106 C100 1.465 . S
C106 C105 1.396 . S
C106 C107 1.399 . S
C107 H93 0.929 . S
C107 C106 1.399 . S
C107 C108 1.385 . S
C108 H94 0.931 . S
C108 C107 1.385 . S
C108 C109 1.389 . S
C109 C108 1.389 . S
C109 C110 1.387 . S
C110 H95 0.930 . S
C110 C105 1.390 . S
C110 C109 1.387 . S
H111 C123 0.930 . S
H112 C125 0.930 . S
H113 C126 0.930 . S
H114 C130 0.959 . S
H115 C130 0.959 . S
H116 C130 0.961 . S
H117 C131 0.960 . S
H118 C131 0.961 . S
H119 C131 0.959 . S
H120 C134 0.929 . S
H121 C135 0.931 . S
H122 C137 0.930 . S
C123 H111 0.930 . S
C123 C124 1.399 . S
C123 C128 1.399 . S
C124 C123 1.399 . S
C124 C125 1.376 1_545 S
C125 H112 0.930 . S
C125 C124 1.376 1_565 S
C125 C126 1.388 . S
C126 H113 0.930 . S
C126 C125 1.388 . S
C126 C127 1.390 . S
C127 C126 1.390 . S
C127 C128 1.394 1_565 S
C127 C133 1.465 . S
C128 C123 1.399 . S
C128 C127 1.394 1_545 S
C128 C129 1.516 . S
C129 C128 1.516 . S
C129 C130 1.502 . S
C129 C131 1.561 . S
C129 C132 1.526 . S
C130 H114 0.959 . S
C130 H115 0.959 . S
C130 H116 0.961 . S
C130 C129 1.502 . S
C131 H117 0.960 . S
C131 H118 0.961 . S
C131 H119 0.959 . S
C131 C129 1.561 . S
C132 C129 1.526 . S
C132 C133 1.396 1_545 S
C132 C137 1.390 . S
C133 C127 1.465 . S
C133 C132 1.396 1_565 S
C133 C134 1.399 . S
C134 H120 0.929 . S
C134 C133 1.399 . S
C134 C135 1.385 . S
C135 H121 0.931 . S
C135 C134 1.385 . S
C135 C136 1.389 1_565 S
C136 C135 1.389 1_545 S
C136 C137 1.387 . S
C137 H122 0.930 . S
C137 C132 1.390 . S
C137 C136 1.387 . S
H138 C150 0.930 . S
H139 C152 0.930 . S
H140 C153 0.930 . S
H141 C157 0.959 . S
H142 C157 0.959 . S
H143 C157 0.961 . S
H144 C158 0.960 . S
H145 C158 0.961 . S
H146 C158 0.959 . S
H147 C161 0.929 . S
H148 C162 0.931 . S
H149 C164 0.930 . S
C150 H138 0.930 . S
C150 C151 1.399 . S
C150 C155 1.399 . S
C151 C150 1.399 . S
C151 C152 1.376 . S
C152 H139 0.930 . S
C152 C151 1.376 . S
C152 C153 1.388 . S
C153 H140 0.930 . S
C153 C152 1.388 . S
C153 C154 1.390 . S
C154 C153 1.390 . S
C154 C155 1.394 . S
C154 C160 1.465 . S
C155 C150 1.399 . S
C155 C154 1.394 . S
C155 C156 1.516 . S
C156 C155 1.516 . S
C156 C157 1.502 . S
C156 C158 1.561 . S
C156 C159 1.526 . S
C157 H141 0.959 . S
C157 H142 0.959 . S
C157 H143 0.961 . S
C157 C156 1.502 . S
C158 H144 0.960 . S
C158 H145 0.961 . S
C158 H146 0.959 . S
C158 C156 1.561 . S
C159 C156 1.526 . S
C159 C160 1.396 . S
C159 C164 1.390 . S
C160 C154 1.465 . S
C160 C159 1.396 . S
C160 C161 1.399 . S
C161 H147 0.929 . S
C161 C160 1.399 . S
C161 C162 1.385 . S
C162 H148 0.931 . S
C162 C161 1.385 . S
C162 C163 1.389 . S
C163 C162 1.389 . S
C163 C164 1.387 . S
C164 H149 0.930 . S
C164 C159 1.390 . S
C164 C163 1.387 . S
H165 C177 0.930 . S
H166 C179 0.930 . S
H167 C180 0.930 . S
H168 C184 0.959 . S
H169 C184 0.959 . S
H170 C184 0.961 . S
H171 C185 0.960 . S
H172 C185 0.961 . S
H173 C185 0.959 . S
H174 C188 0.929 . S
H175 C189 0.931 . S
H176 C191 0.930 . S
C177 H165 0.930 . S
C177 C178 1.399 1_545 S
C177 C182 1.399 . S
C178 C177 1.399 1_565 S
C178 C179 1.376 . S
C179 H166 0.930 . S
C179 C178 1.376 . S
C179 C180 1.388 . S
C180 H167 0.930 . S
C180 C179 1.388 . S
C180 C181 1.390 . S
C181 C180 1.390 . S
C181 C182 1.394 1_565 S
C181 C187 1.465 . S
C182 C177 1.399 . S
C182 C181 1.394 1_545 S
C182 C183 1.516 . S
C183 C182 1.516 . S
C183 C184 1.502 . S
C183 C185 1.561 . S
C183 C186 1.526 . S
C184 H168 0.959 . S
C184 H169 0.959 . S
C184 H170 0.961 . S
C184 C183 1.502 . S
C185 H171 0.960 . S
C185 H172 0.961 . S
C185 H173 0.959 . S
C185 C183 1.561 . S
C186 C183 1.526 . S
C186 C187 1.396 1_545 S
C186 C191 1.390 . S
C187 C181 1.465 . S
C187 C186 1.396 1_565 S
C187 C188 1.399 . S
C188 H174 0.929 . S
C188 C187 1.399 . S
C188 C189 1.385 . S
C189 H175 0.931 . S
C189 C188 1.385 . S
C189 C190 1.389 . S
C190 C189 1.389 . S
C190 C191 1.387 1_565 S
C191 H176 0.930 . S
C191 C186 1.390 . S
C191 C190 1.387 1_545 S
H192 C204 0.930 . S
H193 C206 0.930 . S
H194 C207 0.930 . S
H195 C211 0.959 . S
H196 C211 0.959 . S
H197 C211 0.961 . S
H198 C212 0.960 . S
H199 C212 0.961 . S
H200 C212 0.959 . S
H201 C215 0.929 . S
H202 C216 0.931 . S
H203 C218 0.930 . S
C204 H192 0.930 . S
C204 C205 1.399 . S
C204 C209 1.399 . S
C205 C204 1.399 . S
C205 C206 1.376 . S
C206 H193 0.930 . S
C206 C205 1.376 . S
C206 C207 1.388 . S
C207 H194 0.930 . S
C207 C206 1.388 . S
C207 C208 1.390 . S
C208 C207 1.390 . S
C208 C209 1.394 . S
C208 C214 1.465 . S
C209 C204 1.399 . S
C209 C208 1.394 . S
C209 C210 1.516 . S
C210 C209 1.516 . S
C210 C211 1.502 . S
C210 C212 1.561 . S
C210 C213 1.526 . S
C211 H195 0.959 . S
C211 H196 0.959 . S
C211 H197 0.961 . S
C211 C210 1.502 . S
C212 H198 0.960 . S
C212 H199 0.961 . S
C212 H200 0.959 . S
C212 C210 1.561 . S
C213 C210 1.526 . S
C213 C214 1.396 . S
C213 C218 1.390 . S
C214 C208 1.465 . S
C214 C213 1.396 . S
C214 C215 1.399 . S
C215 H201 0.929 . S
C215 C214 1.399 . S
C215 C216 1.385 . S
C216 H202 0.931 . S
C216 C215 1.385 . S
C216 C217 1.389 . S
C217 C216 1.389 . S
C217 C218 1.387 . S
C218 H203 0.930 . S
C218 C213 1.390 . S
C218 C217 1.387 . S
H219 C231 0.930 . S
H220 C233 0.930 . S
H221 C234 0.930 . S
H222 C238 0.959 . S
H223 C238 0.959 . S
H224 C238 0.961 . S
H225 C239 0.960 . S
H226 C239 0.961 . S
H227 C239 0.959 . S
H228 C242 0.929 . S
H229 C243 0.931 . S
H230 C245 0.930 . S
C231 H219 0.930 . S
C231 C232 1.399 . S
C231 C236 1.399 . S
C232 C231 1.399 . S
C232 C233 1.376 . S
C233 H220 0.930 . S
C233 C232 1.376 . S
C233 C234 1.388 . S
C234 H221 0.930 . S
C234 C233 1.388 . S
C234 C235 1.390 . S
C235 C234 1.390 . S
C235 C236 1.394 . S
C235 C241 1.465 . S
C236 C231 1.399 . S
C236 C235 1.394 . S
C236 C237 1.516 . S
C237 C236 1.516 . S
C237 C238 1.502 . S
C237 C239 1.561 . S
C237 C240 1.526 . S
C238 H222 0.959 . S
C238 H223 0.959 . S
C238 H224 0.961 . S
C238 C237 1.502 . S
C239 H225 0.960 . S
C239 H226 0.961 . S
C239 H227 0.959 . S
C239 C237 1.561 . S
C240 C237 1.526 . S
C240 C241 1.396 . S
C240 C245 1.390 . S
C241 C235 1.465 . S
C241 C240 1.396 . S
C241 C242 1.399 . S
C242 H228 0.929 . S
C242 C241 1.399 . S
C242 C243 1.385 . S
C243 H229 0.931 . S
C243 C242 1.385 . S
C243 C244 1.389 . S
C244 C243 1.389 . S
C244 C245 1.387 . S
C245 H230 0.930 . S
C245 C240 1.390 . S
C245 C244 1.387 . S
H246 C258 0.930 . S
H247 C260 0.930 1_565 S
H248 C261 0.930 1_565 S
H249 C265 0.959 . S
H250 C265 0.959 . S
H251 C265 0.961 . S
H252 C266 0.960 . S
H253 C266 0.961 . S
H254 C266 0.959 . S
H255 C269 0.929 1_565 S
H256 C270 0.931 1_565 S
H257 C272 0.930 . S
C258 H246 0.930 . S
C258 C259 1.399 . S
C258 C263 1.399 . S
C259 C258 1.399 . S
C259 C260 1.376 . S
C260 H247 0.930 1_545 S
C260 C259 1.376 . S
C260 C261 1.388 . S
C261 H248 0.930 1_545 S
C261 C260 1.388 . S
C261 C262 1.390 . S
C262 C261 1.390 . S
C262 C263 1.394 . S
C262 C268 1.465 . S
C263 C258 1.399 . S
C263 C262 1.394 . S
C263 C264 1.516 . S
C264 C263 1.516 . S
C264 C265 1.502 . S
C264 C266 1.561 . S
C264 C267 1.526 . S
C265 H249 0.959 . S
C265 H250 0.959 . S
C265 H251 0.961 . S
C265 C264 1.502 . S
C266 H252 0.960 . S
C266 H253 0.961 . S
C266 H254 0.959 . S
C266 C264 1.561 . S
C267 C264 1.526 . S
C267 C268 1.396 . S
C267 C272 1.390 . S
C268 C262 1.465 . S
C268 C267 1.396 . S
C268 C269 1.399 . S
C269 H255 0.929 1_545 S
C269 C268 1.399 . S
C269 C270 1.385 . S
C270 H256 0.931 1_545 S
C270 C269 1.385 . S
C270 C271 1.389 . S
C271 C270 1.389 . S
C271 C272 1.387 . S
C272 H257 0.930 . S
C272 C267 1.390 . S
C272 C271 1.387 . S
H273 C285 0.930 . S
H274 C287 0.930 1_655 S
H275 C288 0.930 1_655 S
H276 C292 0.959 1_655 S
H277 C292 0.959 . S
H278 C292 0.961 . S
H279 C293 0.960 . S
H280 C293 0.961 . S
H281 C293 0.959 . S
H282 C296 0.929 . S
H283 C297 0.931 . S
H284 C299 0.930 . S
C285 H273 0.930 . S
C285 C286 1.399 1_545 S
C285 C290 1.399 . S
C286 C285 1.399 1_565 S
C286 C287 1.376 . S
C287 H274 0.930 1_455 S
C287 C286 1.376 . S
C287 C288 1.388 . S
C288 H275 0.930 1_455 S
C288 C287 1.388 . S
C288 C289 1.390 . S
C289 C288 1.390 . S
C289 C290 1.394 1_565 S
C289 C295 1.465 . S
C290 C285 1.399 . S
C290 C289 1.394 1_545 S
C290 C291 1.516 . S
C291 C290 1.516 . S
C291 C292 1.502 . S
C291 C293 1.561 . S
C291 C294 1.526 . S
C292 H276 0.959 1_455 S
C292 H277 0.959 . S
C292 H278 0.961 . S
C292 C291 1.502 . S
C293 H279 0.960 . S
C293 H280 0.961 . S
C293 H281 0.959 . S
C293 C291 1.561 . S
C294 C291 1.526 . S
C294 C295 1.396 1_545 S
C294 C299 1.390 . S
C295 C289 1.465 . S
C295 C294 1.396 1_565 S
C295 C296 1.399 . S
C296 H282 0.929 . S
C296 C295 1.399 . S
C296 C297 1.385 . S
C297 H283 0.931 . S
C297 C296 1.385 . S
C297 C298 1.389 . S
C298 C297 1.389 . S
C298 C299 1.387 1_565 S
C299 H284 0.930 . S
C299 C294 1.390 . S
C299 C298 1.387 1_545 S
H300 C312 0.930 1_565 S
H301 C314 0.930 . S
H302 C315 0.930 . S
H303 C319 0.959 1_545 S
H304 C319 0.959 . S
H305 C319 0.961 . S
H306 C320 0.960 . S
H307 C320 0.961 . S
H308 C320 0.959 1_455 S
H309 C323 0.929 . S
H310 C324 0.931 . S
H311 C326 0.930 . S
C312 H300 0.930 1_545 S
C312 C313 1.399 1_655 S
C312 C317 1.399 . S
C313 C312 1.399 1_455 S
C313 C314 1.376 . S
C314 H301 0.930 . S
C314 C313 1.376 . S
C314 C315 1.388 . S
C315 H302 0.930 . S
C315 C314 1.388 . S
C315 C316 1.390 . S
C316 C315 1.390 . S
C316 C317 1.394 1_455 S
C316 C322 1.465 . S
C317 C312 1.399 . S
C317 C316 1.394 1_655 S
C317 C318 1.516 . S
C318 C317 1.516 . S
C318 C319 1.502 1_545 S
C318 C320 1.561 1_545 S
C318 C321 1.525 1_655 S
C319 H303 0.959 1_565 S
C319 H304 0.959 . S
C319 H305 0.961 . S
C319 C318 1.502 1_565 S
C320 H306 0.960 . S
C320 H307 0.961 . S
C320 H308 0.959 1_655 S
C320 C318 1.561 1_565 S
C321 C318 1.525 1_455 S
C321 C322 1.398 . S
C321 C326 1.389 1_455 S
C322 C316 1.465 . S
C322 C321 1.398 . S
C322 C323 1.399 . S
C323 H309 0.929 . S
C323 C322 1.399 . S
C323 C324 1.385 . S
C324 H310 0.931 . S
C324 C323 1.385 . S
C324 C325 1.389 . S
C325 C324 1.389 . S
C325 C326 1.387 1_455 S
C326 H311 0.930 . S
C326 C321 1.389 1_655 S
C326 C325 1.387 1_655 S
H327 C339 0.930 . S
H328 C341 0.930 . S
H329 C342 0.930 . S
H330 C346 0.959 . S
H331 C346 0.959 1_565 S
H332 C346 0.961 1_564 S
H333 C347 0.960 1_554 S
H334 C347 0.961 . S
H335 C347 0.959 . S
H336 C350 0.929 . S
H337 C351 0.931 . S
H338 C353 0.930 . S
C339 H327 0.930 . S
C339 C340 1.399 . S
C339 C344 1.399 . S
C340 C339 1.399 . S
C340 C341 1.376 . S
C341 H328 0.930 . S
C341 C340 1.376 . S
C341 C342 1.388 . S
C342 H329 0.930 . S
C342 C341 1.388 . S
C342 C343 1.390 . S
C343 C342 1.390 . S
C343 C344 1.394 . S
C343 C349 1.465 1_554 S
C344 C339 1.399 . S
C344 C343 1.394 . S
C344 C345 1.516 1_554 S
C345 C344 1.516 1_556 S
C345 C346 1.502 . S
C345 C347 1.561 1_445 S
C345 C348 1.526 . S
C346 H330 0.959 . S
C346 H331 0.959 1_545 S
C346 H332 0.961 1_546 S
C346 C345 1.502 . S
C347 H333 0.960 1_556 S
C347 H334 0.961 . S
C347 H335 0.959 . S
C347 C345 1.561 1_665 S
C348 C345 1.526 . S
C348 C349 1.396 . S
C348 C353 1.390 . S
C349 C343 1.465 1_556 S
C349 C348 1.396 . S
C349 C350 1.399 . S
C350 H336 0.929 . S
C350 C349 1.399 . S
C350 C351 1.385 . S
C351 H337 0.931 . S
C351 C350 1.385 . S
C351 C352 1.389 . S
C352 C351 1.389 . S
C352 C353 1.387 . S
C353 H338 0.930 . S
C353 C348 1.390 . S
C353 C352 1.387 . S
H354 C366 0.930 . S
H355 C368 0.930 . S
H356 C369 0.930 1_655 S
H357 C373 0.959 . S
H358 C373 0.959 . S
H359 C373 0.961 . S
H360 C374 0.960 . S
H361 C374 0.961 . S
H362 C374 0.959 . S
H363 C377 0.929 . S
H364 C378 0.931 1_655 S
H365 C380 0.930 . S
C366 H354 0.930 . S
C366 C367 1.399 . S
C366 C371 1.399 . S
C367 C366 1.399 . S
C367 C368 1.376 1_545 S
C368 H355 0.930 . S
C368 C367 1.376 1_565 S
C368 C369 1.388 . S
C369 H356 0.930 1_455 S
C369 C368 1.388 . S
C369 C370 1.390 1_565 S
C370 C369 1.390 1_545 S
C370 C371 1.394 . S
C370 C376 1.465 . S
C371 C366 1.399 . S
C371 C370 1.394 . S
C371 C372 1.516 . S
C372 C371 1.516 . S
C372 C373 1.502 . S
C372 C374 1.561 . S
C372 C375 1.526 . S
C373 H357 0.959 . S
C373 H358 0.959 . S
C373 H359 0.961 . S
C373 C372 1.502 . S
C374 H360 0.960 . S
C374 H361 0.961 . S
C374 H362 0.959 . S
C374 C372 1.561 . S
C375 C372 1.526 . S
C375 C376 1.396 . S
C375 C380 1.390 . S
C376 C370 1.465 . S
C376 C375 1.396 . S
C376 C377 1.399 1_445 S
C377 H363 0.929 . S
C377 C376 1.399 1_665 S
C377 C378 1.385 1_655 S
C378 H364 0.931 1_455 S
C378 C377 1.385 1_455 S
C378 C379 1.389 1_565 S
C379 C378 1.389 1_545 S
C379 C380 1.387 . S
C380 H365 0.930 . S
C380 C375 1.390 . S
C380 C379 1.387 . S
H381 C393 0.930 . S
H382 C395 0.930 . S
H383 C396 0.930 . S
H384 C400 0.959 . S
H385 C400 0.959 . S
H386 C400 0.961 . S
H387 C401 0.960 . S
H388 C401 0.961 . S
H389 C401 0.959 1_455 S
H390 C404 0.929 . S
H391 C405 0.931 . S
H392 C407 0.930 . S
C393 H381 0.930 . S
C393 C394 1.399 1_665 S
C393 C398 1.399 . S
C394 C393 1.399 1_445 S
C394 C395 1.376 . S
C395 H382 0.930 . S
C395 C394 1.376 . S
C395 C396 1.388 . S
C396 H383 0.930 . S
C396 C395 1.388 . S
C396 C397 1.390 . S
C397 C396 1.390 . S
C397 C398 1.394 1_445 S
C397 C403 1.465 . S
C398 C393 1.399 . S
C398 C397 1.394 1_665 S
C398 C399 1.516 . S
C399 C398 1.516 . S
C399 C400 1.502 . S
C399 C401 1.561 . S
C399 C402 1.526 1_565 S
C400 H384 0.959 . S
C400 H385 0.959 . S
C400 H386 0.961 . S
C400 C399 1.502 . S
C401 H387 0.960 . S
C401 H388 0.961 . S
C401 H389 0.959 1_655 S
C401 C399 1.561 . S
C402 C399 1.526 1_545 S
C402 C403 1.396 1_655 S
C402 C407 1.390 1_545 S
C403 C397 1.465 . S
C403 C402 1.396 1_455 S
C403 C404 1.399 . S
C404 H390 0.929 . S
C404 C403 1.399 . S
C404 C405 1.385 . S
C405 H391 0.931 . S
C405 C404 1.385 . S
C405 C406 1.389 . S
C406 C405 1.389 . S
C406 C407 1.387 1_445 S
C407 H392 0.930 . S
C407 C402 1.390 1_565 S
C407 C406 1.387 1_665 S
C97 C0 1.495 . S
C109 C1 1.486 . S
C124 C14 1.486 . S
C136 C15 1.495 . S
C151 C41 1.486 . S
C163 C40 1.498 . S
C178 C54 1.487 1_565 S
C190 C55 1.495 1_565 S
C205 C68 1.494 . S
C217 C69 1.487 . S
C232 C82 1.486 . S
C244 C83 1.497 . S
C259 C71 1.492 . S
C271 C13 1.504 . S
C286 C43 1.505 . S
C298 C26 1.497 1_565 S
C313 C28 1.490 . S
C325 C57 1.504 . S
C340 C12 1.502 . S
C352 C56 1.499 . S
C367 C70 1.494 . S
C379 C27 1.499 . S
C394 C42 1.492 . S
C406 C29 1.508 . S
