# Generated by pormake.
# Topology fcp, (5)-cn, num edge types: 1
# Building blocks:
#     Node 0, Type 0, BuildingBlock: BEQFEK_clean_sbu_0, # of connection points: 5
#     Node 1, Type 0, BuildingBlock: BEQFEK_clean_sbu_0, # of connection points: 5
#     Node 2, Type 0, BuildingBlock: BEQFEK_clean_sbu_0, # of connection points: 5
#     Node 3, Type 0, BuildingBlock: BEQFEK_clean_sbu_0, # of connection points: 5
#     Node 4, Type 0, BuildingBlock: BEQFEK_clean_sbu_0, # of connection points: 5
#     Node 5, Type 0, BuildingBlock: BEQFEK_clean_sbu_0, # of connection points: 5
#     Node 6, Type 0, BuildingBlock: BEQFEK_clean_sbu_0, # of connection points: 5
#     Node 7, Type 0, BuildingBlock: BEQFEK_clean_sbu_0, # of connection points: 5
#     Node 8, Type 0, BuildingBlock: BEQFEK_clean_sbu_0, # of connection points: 5
#     Node 9, Type 0, BuildingBlock: BEQFEK_clean_sbu_0, # of connection points: 5
#     Node 10, Type 0, BuildingBlock: BEQFEK_clean_sbu_0, # of connection points: 5
#     Node 11, Type 0, BuildingBlock: BEQFEK_clean_sbu_0, # of connection points: 5
#     Node 12, Type 0, BuildingBlock: BEQFEK_clean_sbu_0, # of connection points: 5
#     Node 13, Type 0, BuildingBlock: BEQFEK_clean_sbu_0, # of connection points: 5
#     Node 14, Type 0, BuildingBlock: BEQFEK_clean_sbu_0, # of connection points: 5
#     Node 15, Type 0, BuildingBlock: BEQFEK_clean_sbu_0, # of connection points: 5
#     Node 16, Type 0, BuildingBlock: BEQFEK_clean_sbu_0, # of connection points: 5
#     Node 17, Type 0, BuildingBlock: BEQFEK_clean_sbu_0, # of connection points: 5
#     Node 18, Type 0, BuildingBlock: BEQFEK_clean_sbu_0, # of connection points: 5
#     Node 19, Type 0, BuildingBlock: BEQFEK_clean_sbu_0, # of connection points: 5
#     Node 20, Type 0, BuildingBlock: BEQFEK_clean_sbu_0, # of connection points: 5
#     Node 21, Type 0, BuildingBlock: BEQFEK_clean_sbu_0, # of connection points: 5
#     Node 22, Type 0, BuildingBlock: BEQFEK_clean_sbu_0, # of connection points: 5
#     Node 23, Type 0, BuildingBlock: BEQFEK_clean_sbu_0, # of connection points: 5
#     Edge 24, Type (0, 0), BuildingBlock: EZIPEK_clean_linker_0, # of connection points: 2
#     Edge 25, Type (0, 0), BuildingBlock: EZIPEK_clean_linker_0, # of connection points: 2
#     Edge 26, Type (0, 0), BuildingBlock: EZIPEK_clean_linker_0, # of connection points: 2
#     Edge 27, Type (0, 0), BuildingBlock: EZIPEK_clean_linker_0, # of connection points: 2
#     Edge 28, Type (0, 0), BuildingBlock: EZIPEK_clean_linker_0, # of connection points: 2
#     Edge 29, Type (0, 0), BuildingBlock: EZIPEK_clean_linker_0, # of connection points: 2
#     Edge 30, Type (0, 0), BuildingBlock: EZIPEK_clean_linker_0, # of connection points: 2
#     Edge 31, Type (0, 0), BuildingBlock: EZIPEK_clean_linker_0, # of connection points: 2
#     Edge 32, Type (0, 0), BuildingBlock: EZIPEK_clean_linker_0, # of connection points: 2
#     Edge 33, Type (0, 0), BuildingBlock: EZIPEK_clean_linker_0, # of connection points: 2
#     Edge 34, Type (0, 0), BuildingBlock: EZIPEK_clean_linker_0, # of connection points: 2
#     Edge 35, Type (0, 0), BuildingBlock: EZIPEK_clean_linker_0, # of connection points: 2
#     Edge 36, Type (0, 0), BuildingBlock: EZIPEK_clean_linker_0, # of connection points: 2
#     Edge 37, Type (0, 0), BuildingBlock: EZIPEK_clean_linker_0, # of connection points: 2
#     Edge 38, Type (0, 0), BuildingBlock: EZIPEK_clean_linker_0, # of connection points: 2
#     Edge 39, Type (0, 0), BuildingBlock: EZIPEK_clean_linker_0, # of connection points: 2
#     Edge 40, Type (0, 0), BuildingBlock: EZIPEK_clean_linker_0, # of connection points: 2
#     Edge 41, Type (0, 0), BuildingBlock: EZIPEK_clean_linker_0, # of connection points: 2
#     Edge 42, Type (0, 0), BuildingBlock: EZIPEK_clean_linker_0, # of connection points: 2
#     Edge 43, Type (0, 0), BuildingBlock: EZIPEK_clean_linker_0, # of connection points: 2
#     Edge 44, Type (0, 0), BuildingBlock: EZIPEK_clean_linker_0, # of connection points: 2
#     Edge 45, Type (0, 0), BuildingBlock: EZIPEK_clean_linker_0, # of connection points: 2
#     Edge 46, Type (0, 0), BuildingBlock: EZIPEK_clean_linker_0, # of connection points: 2
#     Edge 47, Type (0, 0), BuildingBlock: EZIPEK_clean_linker_0, # of connection points: 2
#     Edge 48, Type (0, 0), BuildingBlock: EZIPEK_clean_linker_0, # of connection points: 2
#     Edge 49, Type (0, 0), BuildingBlock: EZIPEK_clean_linker_0, # of connection points: 2
#     Edge 50, Type (0, 0), BuildingBlock: EZIPEK_clean_linker_0, # of connection points: 2
#     Edge 51, Type (0, 0), BuildingBlock: EZIPEK_clean_linker_0, # of connection points: 2
#     Edge 52, Type (0, 0), BuildingBlock: EZIPEK_clean_linker_0, # of connection points: 2
#     Edge 53, Type (0, 0), BuildingBlock: EZIPEK_clean_linker_0, # of connection points: 2
#     Edge 54, Type (0, 0), BuildingBlock: EZIPEK_clean_linker_0, # of connection points: 2
#     Edge 55, Type (0, 0), BuildingBlock: EZIPEK_clean_linker_0, # of connection points: 2
#     Edge 56, Type (0, 0), BuildingBlock: EZIPEK_clean_linker_0, # of connection points: 2
#     Edge 57, Type (0, 0), BuildingBlock: EZIPEK_clean_linker_0, # of connection points: 2
#     Edge 58, Type (0, 0), BuildingBlock: EZIPEK_clean_linker_0, # of connection points: 2
#     Edge 59, Type (0, 0), BuildingBlock: EZIPEK_clean_linker_0, # of connection points: 2
#     Edge 60, Type (0, 0), BuildingBlock: EZIPEK_clean_linker_0, # of connection points: 2
#     Edge 61, Type (0, 0), BuildingBlock: EZIPEK_clean_linker_0, # of connection points: 2
#     Edge 62, Type (0, 0), BuildingBlock: EZIPEK_clean_linker_0, # of connection points: 2
#     Edge 63, Type (0, 0), BuildingBlock: EZIPEK_clean_linker_0, # of connection points: 2
#     Edge 64, Type (0, 0), BuildingBlock: EZIPEK_clean_linker_0, # of connection points: 2
#     Edge 65, Type (0, 0), BuildingBlock: EZIPEK_clean_linker_0, # of connection points: 2
#     Edge 66, Type (0, 0), BuildingBlock: EZIPEK_clean_linker_0, # of connection points: 2
#     Edge 67, Type (0, 0), BuildingBlock: EZIPEK_clean_linker_0, # of connection points: 2
#     Edge 68, Type (0, 0), BuildingBlock: EZIPEK_clean_linker_0, # of connection points: 2
#     Edge 69, Type (0, 0), BuildingBlock: EZIPEK_clean_linker_0, # of connection points: 2
#     Edge 70, Type (0, 0), BuildingBlock: EZIPEK_clean_linker_0, # of connection points: 2
#     Edge 71, Type (0, 0), BuildingBlock: EZIPEK_clean_linker_0, # of connection points: 2
#     Edge 72, Type (0, 0), BuildingBlock: EZIPEK_clean_linker_0, # of connection points: 2
#     Edge 73, Type (0, 0), BuildingBlock: EZIPEK_clean_linker_0, # of connection points: 2
#     Edge 74, Type (0, 0), BuildingBlock: EZIPEK_clean_linker_0, # of connection points: 2
#     Edge 75, Type (0, 0), BuildingBlock: EZIPEK_clean_linker_0, # of connection points: 2
#     Edge 76, Type (0, 0), BuildingBlock: EZIPEK_clean_linker_0, # of connection points: 2
#     Edge 77, Type (0, 0), BuildingBlock: EZIPEK_clean_linker_0, # of connection points: 2
#     Edge 78, Type (0, 0), BuildingBlock: EZIPEK_clean_linker_0, # of connection points: 2
#     Edge 79, Type (0, 0), BuildingBlock: EZIPEK_clean_linker_0, # of connection points: 2
#     Edge 80, Type (0, 0), BuildingBlock: EZIPEK_clean_linker_0, # of connection points: 2
#     Edge 81, Type (0, 0), BuildingBlock: EZIPEK_clean_linker_0, # of connection points: 2
#     Edge 82, Type (0, 0), BuildingBlock: EZIPEK_clean_linker_0, # of connection points: 2
#     Edge 83, Type (0, 0), BuildingBlock: EZIPEK_clean_linker_0, # of connection points: 2
# Relax obj value: 0.281
# Max RMSD: 0.212
# Mean RMSD: 0.212
data_MOF--net-fcp--node1-BEQFEK_clean_sbu_0--edge1-EZIPEK_clean_linker_0
_symmetry_space_group_name_H-M    P1
_symmetry_Int_Tables_number       1
_symmetry_cell_setting            triclinic
loop_
_symmetry_equiv_pos_as_xyz
'x, y, z'
_cell_length_a     39.54005
_cell_length_b     39.539222
_cell_length_c     39.527148
_cell_angle_alpha  89.985043
_cell_angle_beta   90.103547
_cell_angle_gamma 90.017741
loop_
_atom_site_label
_atom_site_type_symbol
_atom_site_fract_x
_atom_site_fract_y
_atom_site_fract_z
_atom_type_partial_charge
Co0 Co 0.03206 0.34774 0.17122 0.0
Co1 Co 0.0988 0.32437 0.13584 0.0
C2 C 0.06384 0.2827 0.18918 0.0
O3 O 0.03881 0.30267 0.1913 0.0
O4 O 0.08859 0.28861 0.16954 0.0
C5 C 0.96922 0.34771 0.20609 0.0
O6 O 0.97207 0.3147 0.20392 0.0
C7 C 0.14959 0.27955 0.10625 0.0
C8 C 0.18006 0.31541 0.07607 0.0
C9 C 0.17775 0.28184 0.08577 0.0
N10 N 0.1356 0.3104 0.10854 0.0
N11 N 0.1538 0.33169 0.09028 0.0
C12 C 0.13774 0.24917 0.12544 0.0
H13 H 0.14346 0.25273 0.15271 0.0
H14 H 0.10995 0.24649 0.12254 0.0
H15 H 0.15038 0.22576 0.11657 0.0
C16 C 0.00955 0.35237 0.09889 0.0
N17 N 0.0329 0.34612 0.12304 0.0
N18 N 0.06079 0.33524 0.10849 0.0
C19 C 0.05591 0.33382 0.07477 0.0
C20 C 0.02351 0.34487 0.06752 0.0
C21 C 0.9743 0.3639 0.10598 0.0
H22 H 0.97515 0.3872 0.12161 0.0
H23 H 0.96105 0.34418 0.12092 0.0
H24 H 0.9601 0.36883 0.08223 0.0
O25 O 0.06854 0.37627 0.1903 0.0
O26 O 0.1152 0.36359 0.1619 0.0
H27 H 0.10184 0.34009 0.04721 0.0
H28 H 0.06989 0.317 0.0245 0.0
C29 C 0.08135 0.32115 0.0498 0.0
H30 H 0.09244 0.29706 0.05893 0.0
H31 H 0.14884 0.35754 0.08835 0.0
O32 O 0.99015 0.36667 0.19078 0.0
C33 C 0.09996 0.3802 0.18475 0.0
Co34 Co 0.84347 0.47079 0.32454 0.0
Co35 Co 0.82858 0.4008 0.35834 0.0
C36 C 0.78111 0.43222 0.30834 0.0
O37 O 0.7991 0.45863 0.30509 0.0
O38 O 0.7892 0.40873 0.32873 0.0
C39 C 0.85479 0.5136 0.27324 0.0
O40 O 0.84505 0.48545 0.25855 0.0
C41 C 0.78827 0.34975 0.39226 0.0
C42 C 0.82679 0.31296 0.40914 0.0
C43 C 0.79225 0.31872 0.40766 0.0
N44 N 0.81901 0.36198 0.38473 0.0
N45 N 0.84201 0.34012 0.39532 0.0
C46 C 0.75564 0.36618 0.38236 0.0
H47 H 0.74998 0.36002 0.35555 0.0
H48 H 0.75782 0.39405 0.3849 0.0
H49 H 0.73443 0.35691 0.39819 0.0
C50 C 0.84821 0.49129 0.3974 0.0
N51 N 0.84381 0.46824 0.37262 0.0
N52 N 0.83783 0.43854 0.38647 0.0
C53 C 0.83821 0.44174 0.42039 0.0
C54 C 0.84483 0.47515 0.42849 0.0
C55 C 0.8544 0.52805 0.39123 0.0
H56 H 0.83447 0.5381 0.37416 0.0
H57 H 0.8547 0.5426 0.41524 0.0
H58 H 0.87901 0.53113 0.37813 0.0
O59 O 0.87646 0.43944 0.30425 0.0
O60 O 0.86647 0.38938 0.32766 0.0
H61 H 0.8338 0.42193 0.47137 0.0
H62 H 0.80557 0.40359 0.44039 0.0
C63 C 0.83146 0.41352 0.44468 0.0
H64 H 0.84969 0.39274 0.4401 0.0
H65 H 0.868 0.34313 0.39185 0.0
O66 O 0.85572 0.5152 0.3054 0.0
C67 C 0.88235 0.40797 0.30677 0.0
Co68 Co 0.97121 0.65717 0.17344 0.0
Co69 Co 0.90223 0.67498 0.13904 0.0
C70 C 0.93492 0.71884 0.19246 0.0
O71 O 0.96167 0.70119 0.19412 0.0
O72 O 0.91037 0.71091 0.17316 0.0
C73 C 0.03514 0.65829 0.20883 0.0
O74 O 0.03501 0.69122 0.20446 0.0
C75 C 0.85233 0.71865 0.10668 0.0
C76 C 0.81577 0.68152 0.08644 0.0
C77 C 0.82164 0.71581 0.09021 0.0
N78 N 0.86428 0.68741 0.11244 0.0
N79 N 0.84257 0.6653 0.09983 0.0
C80 C 0.86841 0.75039 0.1195 0.0
H81 H 0.86112 0.75416 0.14633 0.0
H82 H 0.89637 0.74821 0.11817 0.0
H83 H 0.85979 0.77263 0.10466 0.0
C84 C 0.9928 0.65437 0.10085 0.0
N85 N 0.96968 0.6592 0.12542 0.0
N86 N 0.94053 0.6672 0.11134 0.0
C87 C 0.9442 0.66784 0.0775 0.0
C88 C 0.97727 0.65964 0.06971 0.0
C89 C 0.02889 0.64518 0.10728 0.0
H90 H 0.02996 0.61933 0.11816 0.0
H91 H 0.03982 0.66274 0.12627 0.0
H92 H 0.04399 0.64599 0.08364 0.0
O93 O 0.9374 0.62504 0.19125 0.0
O94 O 0.88915 0.63391 0.16399 0.0
H95 H 0.89576 0.65755 0.05581 0.0
H96 H 0.92561 0.67567 0.02644 0.0
C97 C 0.91654 0.67615 0.05298 0.0
H98 H 0.90637 0.70164 0.05873 0.0
H99 H 0.84537 0.63912 0.10166 0.0
O100 O 0.01351 0.64008 0.19347 0.0
C101 C 0.90653 0.61795 0.18581 0.0
Co102 Co 0.15315 0.52573 0.32448 0.0
Co103 Co 0.17284 0.5947 0.35834 0.0
C104 C 0.21561 0.56378 0.30512 0.0
O105 O 0.1961 0.53843 0.30259 0.0
O106 O 0.21002 0.58745 0.32609 0.0
C107 C 0.15984 0.46463 0.28727 0.0
O108 O 0.19214 0.47226 0.28747 0.0
C109 C 0.21241 0.65026 0.38762 0.0
C110 C 0.17489 0.6753 0.42058 0.0
C111 C 0.20811 0.67704 0.40967 0.0
N112 N 0.18309 0.63317 0.38557 0.0
N113 N 0.16076 0.64827 0.40534 0.0
C114 C 0.24341 0.64202 0.36759 0.0
H115 H 0.23799 0.64579 0.34029 0.0
H116 H 0.25019 0.61508 0.37154 0.0
H117 H 0.26515 0.65824 0.3748 0.0
C118 C 0.14805 0.50487 0.39647 0.0
N119 N 0.15542 0.52758 0.37222 0.0
N120 N 0.16593 0.5558 0.38644 0.0
C121 C 0.16741 0.55118 0.42026 0.0
C122 C 0.15557 0.51895 0.42792 0.0
C123 C 0.13267 0.47102 0.3894 0.0
H124 H 0.11306 0.4735 0.36943 0.0
H125 H 0.15254 0.45379 0.37965 0.0
H126 H 0.12132 0.45985 0.4125 0.0
O127 O 0.11931 0.55721 0.3078 0.0
O128 O 0.13201 0.60644 0.33029 0.0
H129 H 0.16081 0.59581 0.44998 0.0
H130 H 0.18783 0.56459 0.46918 0.0
C131 C 0.18067 0.57672 0.44488 0.0
H132 H 0.20301 0.58978 0.43408 0.0
H133 H 0.13575 0.64031 0.40814 0.0
O134 O 0.13927 0.48174 0.30509 0.0
C135 C 0.11311 0.58841 0.31131 0.0
Co136 Co 0.03002 0.65691 0.82824 0.0
Co137 Co 0.10105 0.66903 0.86148 0.0
C138 C 0.07039 0.71752 0.81141 0.0
O139 O 0.04325 0.70058 0.80871 0.0
O140 O 0.09404 0.70838 0.83124 0.0
C141 C 0.9876 0.64597 0.77658 0.0
O142 O 0.01619 0.65527 0.76248 0.0
C143 C 0.15354 0.70841 0.89492 0.0
C144 C 0.1895 0.66907 0.9117 0.0
C145 C 0.18458 0.70373 0.91023 0.0
N146 N 0.14049 0.67795 0.88751 0.0
N147 N 0.16189 0.65447 0.89801 0.0
C148 C 0.13778 0.74139 0.88515 0.0
H149 H 0.10988 0.73979 0.88768 0.0
H150 H 0.14757 0.76235 0.90107 0.0
H151 H 0.144 0.74696 0.85835 0.0
C152 C 0.01011 0.65396 0.90138 0.0
N153 N 0.03302 0.65716 0.87634 0.0
N154 N 0.06311 0.66203 0.8899 0.0
C155 C 0.06031 0.66205 0.92382 0.0
C156 C 0.02676 0.6569 0.93225 0.0
C157 C 0.97308 0.64906 0.89565 0.0
H158 H 0.96401 0.66738 0.87638 0.0
H159 H 0.95858 0.65217 0.91947 0.0
H160 H 0.96873 0.62327 0.88546 0.0
O161 O 0.06021 0.62262 0.80872 0.0
O162 O 0.11051 0.62884 0.83282 0.0
H163 H 0.08097 0.66541 0.97458 0.0
H164 H 0.09995 0.69308 0.94357 0.0
C165 C 0.0891 0.66756 0.94781 0.0
H166 H 0.1091 0.64857 0.94286 0.0
H167 H 0.15823 0.62855 0.89464 0.0
O168 O 0.98538 0.64535 0.80873 0.0
C169 C 0.09097 0.61404 0.81191 0.0
Co170 Co 0.15003 0.46819 0.66931 0.0
Co171 Co 0.17332 0.39865 0.64077 0.0
C172 C 0.21484 0.43643 0.69104 0.0
O173 O 0.19509 0.46173 0.69046 0.0
O174 O 0.209 0.41009 0.6736 0.0
C175 C 0.13321 0.51007 0.71911 0.0
O176 O 0.14279 0.48198 0.73403 0.0
C177 C 0.21622 0.34433 0.61488 0.0
C178 C 0.18037 0.31603 0.58248 0.0
C179 C 0.21346 0.31656 0.59391 0.0
N180 N 0.18608 0.35988 0.61576 0.0
N181 N 0.16477 0.34295 0.59627 0.0
C182 C 0.24658 0.35514 0.63476 0.0
H183 H 0.2517 0.38231 0.62998 0.0
H184 H 0.26927 0.34004 0.62811 0.0
H185 H 0.24131 0.35199 0.66214 0.0
C186 C 0.14433 0.48319 0.59455 0.0
N187 N 0.15115 0.46317 0.62132 0.0
N188 N 0.16367 0.43457 0.61031 0.0
C189 C 0.16721 0.4359 0.57656 0.0
C190 C 0.1514 0.46539 0.56431 0.0
C191 C 0.13777 0.5203 0.59885 0.0
H192 H 0.15205 0.52985 0.62109 0.0
H193 H 0.14554 0.53491 0.57622 0.0
H194 H 0.11057 0.52453 0.60421 0.0
O195 O 0.1189 0.43473 0.68926 0.0
O196 O 0.13291 0.38518 0.66715 0.0
H197 H 0.18436 0.39109 0.55054 0.0
H198 H 0.20622 0.42967 0.53834 0.0
C199 C 0.19449 0.4156 0.55956 0.0
H200 H 0.21485 0.4098 0.57803 0.0
H201 H 0.13949 0.34962 0.59266 0.0
O202 O 0.13376 0.51196 0.68693 0.0
C203 C 0.11465 0.40302 0.68665 0.0
Co204 Co 0.96793 0.34058 0.82649 0.0
Co205 Co 0.8972 0.32902 0.86011 0.0
C206 C 0.92802 0.27884 0.81221 0.0
O207 O 0.95517 0.29567 0.80864 0.0
O208 O 0.90461 0.28863 0.83186 0.0
C209 C 0.01171 0.34981 0.7752 0.0
O210 O 0.98405 0.33874 0.76047 0.0
C211 C 0.84745 0.28954 0.89625 0.0
C212 C 0.80679 0.32657 0.90563 0.0
C213 C 0.81499 0.29262 0.90854 0.0
N214 N 0.85811 0.32016 0.88626 0.0
N215 N 0.83399 0.3424 0.89261 0.0
C216 C 0.86644 0.25734 0.89062 0.0
H217 H 0.86021 0.24738 0.86511 0.0
H218 H 0.89408 0.26203 0.89209 0.0
H219 H 0.85907 0.23803 0.90962 0.0
C220 C 0.98783 0.34685 0.89962 0.0
N221 N 0.96491 0.34271 0.87463 0.0
N222 N 0.93482 0.33855 0.88826 0.0
C223 C 0.93758 0.34019 0.92217 0.0
C224 C 0.97118 0.34539 0.93059 0.0
C225 C 0.02495 0.35084 0.89385 0.0
H226 H 0.03361 0.3319 0.87505 0.0
H227 H 0.03943 0.34802 0.91777 0.0
H228 H 0.02979 0.3763 0.88308 0.0
O229 O 0.93708 0.37323 0.80448 0.0
O230 O 0.88667 0.36609 0.82812 0.0
H231 H 0.91632 0.34164 0.97265 0.0
H232 H 0.89959 0.30934 0.945 0.0
C233 C 0.90873 0.33583 0.94623 0.0
H234 H 0.88766 0.35276 0.93876 0.0
H235 H 0.83534 0.36797 0.88619 0.0
O236 O 0.01266 0.35214 0.80732 0.0
C237 C 0.90581 0.3803 0.80654 0.0
Co238 Co 0.84911 0.52933 0.66958 0.0
Co239 Co 0.82931 0.59919 0.63759 0.0
C240 C 0.78646 0.56401 0.68981 0.0
O241 O 0.805 0.53786 0.6907 0.0
O242 O 0.79355 0.58931 0.67126 0.0
C243 C 0.84706 0.46592 0.70343 0.0
O244 O 0.81416 0.47018 0.70206 0.0
C245 C 0.78425 0.6497 0.60768 0.0
C246 C 0.8203 0.6842 0.58255 0.0
C247 C 0.78626 0.67923 0.58909 0.0
N248 N 0.81569 0.63752 0.61191 0.0
N249 N 0.83712 0.65814 0.59664 0.0
C250 C 0.7532 0.63441 0.62293 0.0
H251 H 0.75384 0.60652 0.61981 0.0
H252 H 0.72986 0.6447 0.61122 0.0
H253 H 0.75276 0.64014 0.65041 0.0
C254 C 0.85135 0.50992 0.59656 0.0
N255 N 0.84666 0.53246 0.62171 0.0
N256 N 0.83776 0.56174 0.60851 0.0
C257 C 0.8363 0.55866 0.57459 0.0
C258 C 0.845 0.52589 0.56587 0.0
C259 C 0.8608 0.47375 0.60208 0.0
H260 H 0.88537 0.47259 0.61563 0.0
H261 H 0.8416 0.46157 0.61852 0.0
H262 H 0.86268 0.4598 0.57778 0.0
O263 O 0.88054 0.56298 0.68867 0.0
O264 O 0.87005 0.61219 0.66372 0.0
H265 H 0.84527 0.60699 0.55226 0.0
H266 H 0.82479 0.57736 0.52429 0.0
C267 C 0.82631 0.58639 0.55083 0.0
H268 H 0.80139 0.59673 0.55841 0.0
H269 H 0.8633 0.6548 0.5965 0.0
O270 O 0.86643 0.48597 0.68747 0.0
C271 C 0.8866 0.5943 0.68475 0.0
Co272 Co 0.17028 0.03072 0.34532 0.0
Co273 Co 0.13707 0.10128 0.33056 0.0
C274 C 0.189 0.06993 0.28457 0.0
O275 O 0.19083 0.04292 0.30179 0.0
O276 O 0.16975 0.09422 0.29314 0.0
C277 C 0.20709 0.96914 0.33921 0.0
O278 O 0.20885 0.97752 0.30714 0.0
C279 C 0.10486 0.15304 0.28898 0.0
C280 C 0.08186 0.18665 0.32719 0.0
C281 C 0.08663 0.18258 0.29272 0.0
N282 N 0.11068 0.14002 0.31983 0.0
N283 N 0.09664 0.16007 0.34258 0.0
C284 C 0.11827 0.13847 0.25676 0.0
H285 H 0.11584 0.11051 0.25724 0.0
H286 H 0.10473 0.14873 0.2344 0.0
H287 H 0.14548 0.14495 0.25447 0.0
C288 C 0.09747 0.0103 0.34718 0.0
N289 N 0.12232 0.03338 0.34351 0.0
N290 N 0.10865 0.06305 0.33693 0.0
C291 C 0.07474 0.05974 0.33612 0.0
C292 C 0.06653 0.02637 0.34269 0.0
C293 C 0.10347 0.97368 0.35432 0.0
H294 H 0.11526 0.97109 0.37969 0.0
H295 H 0.1216 0.96338 0.33555 0.0
H296 H 0.07954 0.95901 0.35352 0.0
O297 O 0.18908 0.0622 0.37919 0.0
O298 O 0.16349 0.11166 0.37198 0.0
H299 H 0.05326 0.10759 0.34889 0.0
H300 H 0.02391 0.07904 0.32877 0.0
C301 C 0.05052 0.08796 0.32908 0.0
H302 H 0.05655 0.09952 0.30425 0.0
H303 H 0.09785 0.15602 0.36864 0.0
O304 O 0.18859 0.9862 0.3592 0.0
C305 C 0.18474 0.09299 0.38737 0.0
Co306 Co 0.52873 0.32973 0.15056 0.0
Co307 Co 0.59898 0.36351 0.16634 0.0
C308 C 0.56764 0.31344 0.21318 0.0
O309 O 0.54168 0.30982 0.19458 0.0
O310 O 0.59109 0.33403 0.20563 0.0
C311 C 0.46874 0.29061 0.15657 0.0
O312 O 0.47838 0.28753 0.18819 0.0
C313 C 0.64844 0.39885 0.2074 0.0
C314 C 0.68827 0.41155 0.17046 0.0
C315 C 0.68035 0.41265 0.20457 0.0
N316 N 0.63778 0.38985 0.17643 0.0
N317 N 0.66142 0.39809 0.1543 0.0
C318 C 0.62991 0.3913 0.23946 0.0
H319 H 0.60221 0.39281 0.23514 0.0
H320 H 0.63741 0.40921 0.25976 0.0
H321 H 0.63633 0.36529 0.24787 0.0
C322 C 0.50877 0.40258 0.14547 0.0
N323 N 0.5316 0.37776 0.15058 0.0
N324 N 0.5613 0.39155 0.15684 0.0
C325 C 0.55832 0.42545 0.15583 0.0
C326 C 0.52506 0.43359 0.14859 0.0
C327 C 0.47212 0.39652 0.13846 0.0
H328 H 0.46946 0.3844 0.11328 0.0
H329 H 0.4618 0.37869 0.15752 0.0
H330 H 0.45751 0.42049 0.13882 0.0
O331 O 0.55997 0.30996 0.11733 0.0
O332 O 0.61015 0.3329 0.12834 0.0
H333 H 0.608 0.4438 0.14495 0.0
H334 H 0.57872 0.47631 0.15807 0.0
C335 C 0.58669 0.4497 0.16215 0.0
H336 H 0.59568 0.44679 0.18859 0.0
H337 H 0.65994 0.39292 0.12845 0.0
O338 O 0.48422 0.31096 0.13704 0.0
C339 C 0.5915 0.31249 0.11182 0.0
Co340 Co 0.82568 0.96976 0.34537 0.0
Co341 Co 0.85944 0.89995 0.33232 0.0
C342 C 0.80768 0.93095 0.28504 0.0
O343 O 0.80679 0.95879 0.30092 0.0
O344 O 0.82598 0.90637 0.29501 0.0
C345 C 0.77411 0.0113 0.35794 0.0
O346 O 0.75991 0.98245 0.3496 0.0
C347 C 0.8924 0.84886 0.2911 0.0
C348 C 0.91428 0.81462 0.32954 0.0
C349 C 0.91028 0.81915 0.29502 0.0
N350 N 0.88604 0.86155 0.3219 0.0
N351 N 0.89944 0.84118 0.34481 0.0
C352 C 0.87966 0.8638 0.25873 0.0
H353 H 0.85276 0.85657 0.25525 0.0
H354 H 0.88123 0.8918 0.25989 0.0
H355 H 0.89428 0.8544 0.23672 0.0
C356 C 0.89831 0.9912 0.34843 0.0
N357 N 0.87368 0.96787 0.34486 0.0
N358 N 0.88762 0.93829 0.33861 0.0
C359 C 0.92149 0.94187 0.33795 0.0
C360 C 0.92941 0.97537 0.34421 0.0
C361 C 0.89197 0.02789 0.35479 0.0
H362 H 0.87547 0.0381 0.33447 0.0
H363 H 0.91595 0.04246 0.35582 0.0
H364 H 0.87816 0.03076 0.37905 0.0
O365 O 0.80588 0.93756 0.37826 0.0
O366 O 0.8338 0.88921 0.37378 0.0
H367 H 0.97251 0.92291 0.33122 0.0
H368 H 0.94028 0.90254 0.30597 0.0
C369 C 0.94595 0.91385 0.33102 0.0
H370 H 0.94304 0.89396 0.35056 0.0
H371 H 0.89766 0.84494 0.37088 0.0
O372 O 0.8062 0.01382 0.35789 0.0
C373 C 0.81101 0.90722 0.38749 0.0
Co374 Co 0.46448 0.6733 0.15065 0.0
Co375 Co 0.39603 0.63609 0.16666 0.0
C376 C 0.42781 0.68354 0.21574 0.0
O377 O 0.45278 0.68942 0.19643 0.0
O378 O 0.40506 0.66219 0.20805 0.0
C379 C 0.51074 0.72526 0.14566 0.0
O380 O 0.48791 0.73856 0.16574 0.0
C381 C 0.34608 0.59817 0.20515 0.0
C382 C 0.30853 0.58487 0.16595 0.0
C383 C 0.31486 0.58324 0.2004 0.0
N384 N 0.35789 0.60814 0.17493 0.0
N385 N 0.33561 0.59958 0.15147 0.0
C386 C 0.36273 0.60593 0.23825 0.0
H387 H 0.35634 0.63219 0.24578 0.0
H388 H 0.3906 0.60388 0.2357 0.0
H389 H 0.35384 0.58851 0.25838 0.0
C390 C 0.48682 0.60146 0.14178 0.0
N391 N 0.46303 0.62524 0.14746 0.0
N392 N 0.43404 0.61009 0.15379 0.0
C393 C 0.43843 0.57638 0.15235 0.0
C394 C 0.4719 0.56974 0.1447 0.0
C395 C 0.52338 0.6091 0.13612 0.0
H396 H 0.53381 0.62178 0.15891 0.0
H397 H 0.53803 0.58574 0.13085 0.0
H398 H 0.5259 0.62699 0.11463 0.0
O399 O 0.43138 0.6948 0.12057 0.0
O400 O 0.38245 0.66972 0.13204 0.0
H401 H 0.42088 0.52461 0.15696 0.0
H402 H 0.40315 0.55432 0.1868 0.0
C403 C 0.41161 0.55089 0.16029 0.0
H404 H 0.38957 0.55499 0.14341 0.0
H405 H 0.33811 0.60536 0.12584 0.0
O406 O 0.50778 0.69443 0.13673 0.0
C407 C 0.39966 0.69197 0.11644 0.0
Co408 Co 0.17083 0.96711 0.65627 0.0
Co409 Co 0.13529 0.89769 0.66855 0.0
C410 C 0.18485 0.92717 0.71798 0.0
O411 O 0.18887 0.9541 0.70095 0.0
O412 O 0.16442 0.90423 0.70858 0.0
C413 C 0.2233 0.00866 0.64634 0.0
O414 O 0.23704 0.98006 0.65614 0.0
C415 C 0.09767 0.85037 0.70905 0.0
C416 C 0.08795 0.80852 0.67344 0.0
C417 C 0.08506 0.81794 0.70708 0.0
N418 N 0.10791 0.85978 0.67813 0.0
N419 N 0.10126 0.83502 0.65668 0.0
C420 C 0.1038 0.87027 0.74063 0.0
H421 H 0.12885 0.86329 0.75124 0.0
H422 H 0.10362 0.89777 0.73497 0.0
H423 H 0.08425 0.86439 0.75988 0.0
C424 C 0.09854 0.98926 0.65039 0.0
N425 N 0.12279 0.96565 0.65466 0.0
N426 N 0.10828 0.93603 0.65921 0.0
C427 C 0.07449 0.93976 0.65777 0.0
C428 C 0.06715 0.97349 0.65223 0.0
C429 C 0.10544 0.02614 0.64594 0.0
H430 H 0.12132 0.03525 0.66726 0.0
H431 H 0.08164 0.04097 0.64472 0.0
H432 H 0.12009 0.02996 0.62233 0.0
O433 O 0.19111 0.9356 0.62333 0.0
O434 O 0.1661 0.8859 0.631 0.0
H435 H 0.02334 0.92006 0.65671 0.0
H436 H 0.05051 0.90298 0.68922 0.0
C437 C 0.04951 0.91173 0.66258 0.0
H438 H 0.05619 0.89019 0.64594 0.0
H439 H 0.10789 0.83534 0.63114 0.0
O440 O 0.19123 0.01113 0.64482 0.0
C441 C 0.18791 0.90442 0.61633 0.0
Co442 Co 0.46618 0.32821 0.84601 0.0
Co443 Co 0.39678 0.36346 0.83017 0.0
C444 C 0.4265 0.31094 0.7843 0.0
O445 O 0.45239 0.30702 0.80297 0.0
O446 O 0.40381 0.33255 0.79141 0.0
C447 C 0.52833 0.29239 0.83807 0.0
O448 O 0.52177 0.29444 0.80555 0.0
C449 C 0.34401 0.39634 0.78998 0.0
C450 C 0.31328 0.4218 0.82904 0.0
C451 C 0.3154 0.41584 0.79458 0.0
N452 N 0.35837 0.3909 0.82033 0.0
N453 N 0.33999 0.40636 0.84357 0.0
C454 C 0.35635 0.38144 0.75747 0.0
H455 H 0.35046 0.354 0.75713 0.0
H456 H 0.38419 0.38454 0.75569 0.0
H457 H 0.34414 0.39345 0.73523 0.0
C458 C 0.48851 0.40054 0.84855 0.0
N459 N 0.46485 0.37634 0.84419 0.0
N460 N 0.4356 0.39088 0.83757 0.0
C461 C 0.4398 0.4247 0.83725 0.0
C462 C 0.47332 0.43198 0.84436 0.0
C463 C 0.52486 0.39348 0.85613 0.0
H464 H 0.53555 0.3775 0.83571 0.0
H465 H 0.53972 0.4172 0.85838 0.0
H466 H 0.52669 0.37889 0.88005 0.0
O467 O 0.43526 0.31093 0.88067 0.0
O468 O 0.38567 0.33538 0.87066 0.0
H469 H 0.42213 0.47598 0.82897 0.0
H470 H 0.39987 0.44344 0.8058 0.0
C471 C 0.41231 0.44973 0.83017 0.0
H472 H 0.39314 0.44828 0.85053 0.0
H473 H 0.34529 0.40575 0.86944 0.0
O474 O 0.51024 0.30857 0.85909 0.0
C475 C 0.40418 0.31505 0.8875 0.0
Co476 Co 0.82605 0.02604 0.65071 0.0
Co477 Co 0.85824 0.09652 0.6679 0.0
C478 C 0.80564 0.06342 0.71182 0.0
O479 O 0.80509 0.03648 0.69447 0.0
O480 O 0.82414 0.08845 0.70376 0.0
C481 C 0.78731 0.96569 0.65328 0.0
O482 O 0.78364 0.97403 0.68517 0.0
C483 C 0.89062 0.14528 0.71244 0.0
C484 C 0.90805 0.18452 0.67674 0.0
C485 C 0.90607 0.17654 0.71079 0.0
N486 N 0.8838 0.135 0.6808 0.0
N487 N 0.89473 0.15833 0.65949 0.0
C488 C 0.8799 0.12688 0.74368 0.0
H489 H 0.88103 0.09916 0.73941 0.0
H490 H 0.89618 0.1339 0.76549 0.0
H491 H 0.85341 0.13388 0.74974 0.0
C492 C 0.89915 0.00673 0.64874 0.0
N493 N 0.87391 0.02922 0.6531 0.0
N494 N 0.88706 0.05886 0.6608 0.0
C495 C 0.921 0.05617 0.66152 0.0
C496 C 0.92978 0.0232 0.65386 0.0
C497 C 0.89383 0.97031 0.64019 0.0
H498 H 0.88321 0.96846 0.61425 0.0
H499 H 0.875 0.95921 0.65779 0.0
H500 H 0.91786 0.95587 0.64152 0.0
O501 O 0.80721 0.05889 0.61804 0.0
O502 O 0.83298 0.10809 0.62645 0.0
H503 H 0.9401 0.10571 0.65134 0.0
H504 H 0.97154 0.07669 0.66737 0.0
C505 C 0.9447 0.08465 0.66928 0.0
H506 H 0.93983 0.09398 0.69527 0.0
H507 H 0.89185 0.15696 0.63328 0.0
O508 O 0.80806 0.9819 0.63479 0.0
C509 C 0.81169 0.08987 0.61064 0.0
Co510 Co 0.53652 0.67106 0.84928 0.0
Co511 Co 0.60478 0.63551 0.83141 0.0
C512 C 0.57016 0.68561 0.7851 0.0
O513 O 0.54387 0.68785 0.80328 0.0
O514 O 0.59529 0.66746 0.79375 0.0
C515 C 0.49587 0.72382 0.86313 0.0
O516 O 0.52413 0.73786 0.85279 0.0
C517 C 0.65624 0.6042 0.78858 0.0
C518 C 0.68745 0.5767 0.82601 0.0
C519 C 0.68483 0.5844 0.79193 0.0
N520 N 0.64235 0.6081 0.81932 0.0
N521 N 0.66101 0.59145 0.84156 0.0
C522 C 0.64368 0.62105 0.75708 0.0
H523 H 0.64919 0.64853 0.75856 0.0
H524 H 0.61589 0.61773 0.75502 0.0
H525 H 0.65603 0.61066 0.73415 0.0
C526 C 0.51421 0.59889 0.85517 0.0
N527 N 0.5379 0.62294 0.85021 0.0
N528 N 0.56659 0.60824 0.84182 0.0
C529 C 0.56198 0.57449 0.84096 0.0
C530 C 0.5288 0.56741 0.84952 0.0
C531 C 0.47798 0.6062 0.86289 0.0
H532 H 0.47649 0.62348 0.88496 0.0
H533 H 0.46639 0.61944 0.84099 0.0
H534 H 0.46367 0.58263 0.86819 0.0
O535 O 0.57184 0.69197 0.87826 0.0
O536 O 0.61929 0.66321 0.87034 0.0
H537 H 0.60872 0.54898 0.84977 0.0
H538 H 0.57776 0.52354 0.82813 0.0
C539 C 0.58833 0.54943 0.83051 0.0
H540 H 0.59941 0.55713 0.80594 0.0
H541 H 0.65616 0.59088 0.8675 0.0
O542 O 0.49357 0.6917 0.8642 0.0
C543 C 0.60295 0.68691 0.88459 0.0
Co544 Co 0.34751 0.1706 0.0325 0.0
Co545 Co 0.33135 0.13511 0.10116 0.0
C546 C 0.28369 0.18403 0.0669 0.0
O547 O 0.30124 0.18635 0.04021 0.0
O548 O 0.29327 0.16649 0.0921 0.0
C549 C 0.35945 0.22387 0.99212 0.0
O550 O 0.34789 0.23721 0.02024 0.0
C551 C 0.28783 0.10158 0.15009 0.0
C552 C 0.32462 0.0831 0.18791 0.0
C553 C 0.29035 0.08593 0.1812 0.0
N554 N 0.31918 0.10793 0.13877 0.0
N555 N 0.34112 0.09627 0.1612 0.0
C556 C 0.25609 0.11324 0.13309 0.0
H557 H 0.23404 0.09807 0.14152 0.0
H558 H 0.25146 0.14011 0.13976 0.0
H559 H 0.2588 0.11127 0.10522 0.0
C560 C 0.3542 0.09838 0.01045 0.0
N561 N 0.34938 0.12255 0.03403 0.0
N562 N 0.34202 0.10795 0.06307 0.0
C563 C 0.34194 0.07416 0.0589 0.0
C564 C 0.34964 0.06693 0.02554 0.0
C565 C 0.36059 0.10547 0.9739 0.0
H566 H 0.33754 0.11683 0.96257 0.0
H567 H 0.36717 0.08201 0.95995 0.0
H568 H 0.38133 0.12423 0.97151 0.0
O569 O 0.37656 0.19198 0.06747 0.0
O570 O 0.36977 0.16353 0.11535 0.0
H571 H 0.35044 0.05251 0.10771 0.0
H572 H 0.33475 0.02279 0.07674 0.0
C573 C 0.33301 0.04925 0.08595 0.0
H574 H 0.30688 0.05418 0.09483 0.0
H575 H 0.36729 0.09886 0.15905 0.0
O576 O 0.3619 0.19183 0.98963 0.0
C577 C 0.38344 0.18724 0.09852 0.0
Co578 Co 0.34746 0.82693 0.96926 0.0
Co579 Co 0.33121 0.85881 0.89896 0.0
C580 C 0.28719 0.80543 0.9312 0.0
O581 O 0.30443 0.80463 0.95827 0.0
O582 O 0.29519 0.8246 0.90664 0.0
C583 C 0.34045 0.79631 0.03369 0.0
O584 O 0.30792 0.80087 0.02869 0.0
C585 C 0.28658 0.8912 0.85056 0.0
C586 C 0.32166 0.90709 0.81017 0.0
C587 C 0.28778 0.90584 0.81891 0.0
N588 N 0.31831 0.88409 0.86034 0.0
N589 N 0.33927 0.89413 0.83634 0.0
C590 C 0.25559 0.88138 0.86982 0.0
H591 H 0.26068 0.88237 0.89743 0.0
H592 H 0.23412 0.89829 0.86337 0.0
H593 H 0.24849 0.8551 0.86295 0.0
C594 C 0.34857 0.8999 0.98903 0.0
N595 N 0.34442 0.87473 0.9664 0.0
N596 N 0.33738 0.88794 0.93664 0.0
C597 C 0.33685 0.92189 0.93936 0.0
C598 C 0.34393 0.93062 0.97256 0.0
C599 C 0.35681 0.89443 0.02553 0.0
H600 H 0.38131 0.88088 0.02757 0.0
H601 H 0.33718 0.87803 0.03706 0.0
H602 H 0.35831 0.91873 0.03952 0.0
O603 O 0.38157 0.80886 0.93766 0.0
O604 O 0.37331 0.83396 0.88808 0.0
H605 H 0.34805 0.94009 0.88969 0.0
H606 H 0.33327 0.97243 0.91839 0.0
C607 C 0.33027 0.94563 0.91061 0.0
H608 H 0.30414 0.94171 0.90114 0.0
H609 H 0.36544 0.89079 0.8372 0.0
O610 O 0.36172 0.80945 0.01359 0.0
C611 C 0.38941 0.81328 0.90679 0.0
Co612 Co 0.32849 0.15095 0.53318 0.0
Co613 Co 0.36353 0.1655 0.6027 0.0
C614 C 0.31196 0.21211 0.57137 0.0
O615 O 0.30989 0.19548 0.54405 0.0
O616 O 0.33053 0.20257 0.59584 0.0
C617 C 0.2759 0.13737 0.49248 0.0
O618 O 0.26213 0.14569 0.52152 0.0
C619 C 0.39818 0.20926 0.65023 0.0
C620 C 0.41258 0.17396 0.69105 0.0
C621 C 0.41215 0.20785 0.68221 0.0
N622 N 0.39046 0.17767 0.64048 0.0
N623 N 0.3998 0.15654 0.66467 0.0
C624 C 0.38877 0.24045 0.63101 0.0
H625 H 0.38926 0.23536 0.6034 0.0
H626 H 0.4063 0.2615 0.63723 0.0
H627 H 0.36279 0.24821 0.63823 0.0
C628 C 0.40053 0.14824 0.5109 0.0
N629 N 0.37633 0.15172 0.53459 0.0
N630 N 0.39077 0.15799 0.56399 0.0
C631 C 0.42454 0.15857 0.55997 0.0
C632 C 0.43183 0.15246 0.52631 0.0
C633 C 0.39354 0.1423 0.47422 0.0
H634 H 0.37947 0.11818 0.47129 0.0
H635 H 0.37705 0.16284 0.46446 0.0
H636 H 0.41727 0.14127 0.45929 0.0
O637 O 0.31012 0.11816 0.56607 0.0
O638 O 0.33721 0.12497 0.61485 0.0
H639 H 0.44455 0.14833 0.60923 0.0
H640 H 0.47587 0.16219 0.57897 0.0
C641 C 0.44941 0.16558 0.58767 0.0
H642 H 0.44609 0.19196 0.5966 0.0
H643 H 0.39563 0.13049 0.66399 0.0
O644 O 0.30797 0.13782 0.48951 0.0
C645 C 0.31513 0.11009 0.59678 0.0
Co646 Co 0.65053 0.1739 0.96298 0.0
Co647 Co 0.66809 0.13828 0.894 0.0
C648 C 0.71444 0.18852 0.92549 0.0
O649 O 0.69499 0.19282 0.95063 0.0
O650 O 0.70775 0.16716 0.90246 0.0
C651 C 0.65318 0.218 0.01939 0.0
O652 O 0.68259 0.22616 0.0064 0.0
C653 C 0.7079 0.10488 0.84172 0.0
C654 C 0.66853 0.08141 0.80966 0.0
C655 C 0.7031 0.08634 0.81254 0.0
N656 N 0.67754 0.11082 0.85571 0.0
N657 N 0.6541 0.09649 0.83658 0.0
C658 C 0.74066 0.11861 0.85485 0.0
H659 H 0.7419 0.14612 0.84943 0.0
H660 H 0.74202 0.11494 0.88265 0.0
H661 H 0.76267 0.10617 0.84276 0.0
C662 C 0.64563 0.10161 0.98493 0.0
N663 N 0.65026 0.12575 0.96124 0.0
N664 N 0.65772 0.11113 0.93226 0.0
C665 C 0.65832 0.07734 0.93667 0.0
C666 C 0.65055 0.07014 0.97003 0.0
C667 C 0.63853 0.10881 0.02133 0.0
H668 H 0.61584 0.1252 0.02328 0.0
H669 H 0.66013 0.12299 0.03233 0.0
H670 H 0.63447 0.08513 0.03588 0.0
O671 O 0.61875 0.19398 0.93035 0.0
O672 O 0.63103 0.16973 0.88117 0.0
H673 H 0.64868 0.05313 0.88935 0.0
H674 H 0.6691 0.02621 0.92 0.0
C675 C 0.66779 0.05236 0.90988 0.0
H676 H 0.6927 0.05928 0.89903 0.0
H677 H 0.6282 0.0978 0.84144 0.0
O678 O 0.63638 0.19349 0.00698 0.0
C679 C 0.61439 0.19099 0.89865 0.0
Co680 Co 0.66705 0.84234 0.53023 0.0
Co681 Co 0.63331 0.82686 0.59964 0.0
C682 C 0.68331 0.77977 0.56525 0.0
O683 O 0.68406 0.79622 0.53769 0.0
O684 O 0.66609 0.78983 0.59047 0.0
C685 C 0.71869 0.85581 0.48815 0.0
O686 O 0.73317 0.84215 0.51479 0.0
C687 C 0.60238 0.78319 0.65026 0.0
C688 C 0.58029 0.8202 0.68577 0.0
C689 C 0.58549 0.78594 0.68066 0.0
N690 N 0.60709 0.81441 0.63778 0.0
N691 N 0.59345 0.83643 0.6589 0.0
C692 C 0.61638 0.75162 0.63485 0.0
H693 H 0.6437 0.74975 0.64106 0.0
H694 H 0.61359 0.75261 0.60693 0.0
H695 H 0.60342 0.72881 0.64481 0.0
C696 C 0.59427 0.84895 0.50969 0.0
N697 N 0.61898 0.84373 0.53268 0.0
N698 N 0.60506 0.83653 0.56205 0.0
C699 C 0.57116 0.83699 0.55872 0.0
C700 C 0.56313 0.84493 0.52555 0.0
C701 C 0.60053 0.85624 0.47314 0.0
H702 H 0.61889 0.83763 0.46293 0.0
H703 H 0.57672 0.85542 0.45824 0.0
H704 H 0.61213 0.88169 0.47078 0.0
O705 O 0.689 0.87139 0.56485 0.0
O706 O 0.66057 0.86638 0.61286 0.0
H707 H 0.52018 0.83003 0.57771 0.0
H708 H 0.55227 0.80368 0.59694 0.0
C709 C 0.54681 0.82918 0.58658 0.0
H710 H 0.55008 0.84791 0.60718 0.0
H711 H 0.59432 0.8626 0.65561 0.0
O712 O 0.68662 0.85863 0.48728 0.0
C713 C 0.68441 0.8793 0.59565 0.0
Co714 Co 0.65444 0.83016 0.02947 0.0
Co715 Co 0.6679 0.86442 0.10002 0.0
C716 C 0.71536 0.81353 0.07053 0.0
O717 O 0.6979 0.80997 0.04378 0.0
O718 O 0.70677 0.83408 0.0936 0.0
C719 C 0.66136 0.78976 0.97039 0.0
O720 O 0.6925 0.78592 0.98122 0.0
C721 C 0.70866 0.8975 0.15149 0.0
C722 C 0.67047 0.91458 0.18842 0.0
C723 C 0.70499 0.91244 0.1828 0.0
N724 N 0.67776 0.89078 0.13902 0.0
N725 N 0.65497 0.90154 0.16096 0.0
C726 C 0.74112 0.88722 0.13506 0.0
H727 H 0.74653 0.86042 0.14141 0.0
H728 H 0.73892 0.88967 0.10717 0.0
H729 H 0.76253 0.90289 0.14423 0.0
C730 C 0.65121 0.90301 0.00859 0.0
N731 N 0.65516 0.87834 0.03184 0.0
N732 N 0.66067 0.89235 0.06159 0.0
C733 C 0.66044 0.92624 0.05819 0.0
C734 C 0.65438 0.93418 0.0246 0.0
C735 C 0.64496 0.89668 0.97184 0.0
H736 H 0.6634 0.8778 0.96234 0.0
H737 H 0.64686 0.92037 0.95688 0.0
H738 H 0.6193 0.88575 0.96865 0.0
O739 O 0.61975 0.81131 0.05977 0.0
O740 O 0.62825 0.83522 0.10999 0.0
H741 H 0.66397 0.97727 0.07798 0.0
H742 H 0.69176 0.94652 0.09736 0.0
C743 C 0.66617 0.95064 0.08656 0.0
H744 H 0.64735 0.94592 0.10677 0.0
H745 H 0.62892 0.89858 0.15788 0.0
O746 O 0.64195 0.811 0.98475 0.0
C747 C 0.61232 0.81483 0.09081 0.0
Co748 Co 0.32281 0.8478 0.46557 0.0
Co749 Co 0.35741 0.82667 0.39763 0.0
C750 C 0.30543 0.78327 0.43237 0.0
O751 O 0.30316 0.80274 0.45778 0.0
O752 O 0.32474 0.7899 0.40758 0.0
C753 C 0.28871 0.84573 0.5287 0.0
O754 O 0.2909 0.81282 0.52483 0.0
C755 C 0.38909 0.78175 0.34856 0.0
C756 C 0.41548 0.81768 0.3149 0.0
C757 C 0.40856 0.78369 0.3197 0.0
N758 N 0.38465 0.81317 0.36058 0.0
N759 N 0.40076 0.83455 0.34054 0.0
C760 C 0.37321 0.75067 0.36315 0.0
H761 H 0.37563 0.75104 0.39112 0.0
H762 H 0.38516 0.72739 0.35302 0.0
H763 H 0.34592 0.75035 0.35658 0.0
C764 C 0.39526 0.85246 0.48725 0.0
N765 N 0.37088 0.84683 0.464 0.0
N766 N 0.38514 0.83736 0.43545 0.0
C767 C 0.41896 0.83649 0.43971 0.0
C768 C 0.42653 0.84615 0.47251 0.0
C769 C 0.38848 0.86213 0.52313 0.0
H770 H 0.37305 0.88556 0.52362 0.0
H771 H 0.37345 0.84187 0.53542 0.0
H772 H 0.41234 0.86614 0.53744 0.0
O773 O 0.30308 0.87729 0.43034 0.0
O774 O 0.33001 0.86561 0.38247 0.0
H775 H 0.44331 0.84415 0.39218 0.0
H776 H 0.46985 0.8242 0.42335 0.0
C777 C 0.4437 0.82565 0.41323 0.0
H778 H 0.43633 0.80053 0.40318 0.0
H779 H 0.40085 0.86073 0.34383 0.0
O780 O 0.30378 0.86534 0.50822 0.0
C781 C 0.30772 0.88195 0.39887 0.0
Co782 Co 0.67065 0.15715 0.46662 0.0
Co783 Co 0.63652 0.17222 0.39691 0.0
C784 C 0.68922 0.21782 0.42849 0.0
O785 O 0.69057 0.20116 0.45587 0.0
O786 O 0.67023 0.20888 0.40403 0.0
C787 C 0.72217 0.14161 0.50768 0.0
O788 O 0.73656 0.15031 0.47905 0.0
C789 C 0.60314 0.21512 0.34729 0.0
C790 C 0.58469 0.17802 0.30979 0.0
C791 C 0.58714 0.21232 0.31636 0.0
N792 N 0.6099 0.18388 0.35872 0.0
N793 N 0.59833 0.16175 0.33647 0.0
C794 C 0.61455 0.24698 0.36416 0.0
H795 H 0.61362 0.24397 0.39206 0.0
H796 H 0.59856 0.26869 0.35629 0.0
H797 H 0.64107 0.25232 0.35668 0.0
C798 C 0.59839 0.15412 0.48803 0.0
N799 N 0.62285 0.15862 0.46478 0.0
N800 N 0.60873 0.16536 0.43534 0.0
C801 C 0.57489 0.1654 0.43893 0.0
C802 C 0.56725 0.15822 0.4723 0.0
C803 C 0.60492 0.14618 0.52442 0.0
H804 H 0.62417 0.16391 0.53461 0.0
H805 H 0.58139 0.14778 0.53961 0.0
H806 H 0.61547 0.12025 0.52637 0.0
O807 O 0.6887 0.12406 0.43408 0.0
O808 O 0.66186 0.1308 0.38526 0.0
H809 H 0.5237 0.17005 0.41971 0.0
H810 H 0.55466 0.19762 0.40048 0.0
C811 C 0.55026 0.17195 0.4109 0.0
H812 H 0.55439 0.15334 0.39035 0.0
H813 H 0.60108 0.1356 0.3388 0.0
O814 O 0.69011 0.14299 0.51031 0.0
C815 C 0.68366 0.11572 0.40347 0.0
C816 C 0.12779 0.45847 0.23307 0.0
C817 C 0.14651 0.44321 0.25971 0.0
C818 C 0.14248 0.38836 0.23129 0.0
C819 C 0.11932 0.40265 0.20765 0.0
N820 N 0.0886 0.45096 0.18652 0.0
N821 N 0.16994 0.39356 0.28602 0.0
C822 C 0.11159 0.43764 0.2087 0.0
C823 C 0.15369 0.40817 0.25917 0.0
N824 N 0.12688 0.49292 0.23008 0.0
N825 N 0.15389 0.35599 0.22719 0.0
H826 H 0.17873 0.40741 0.30672 0.0
H827 H 0.17239 0.36753 0.28914 0.0
H828 H 0.14589 0.3401 0.20777 0.0
H829 H 0.17346 0.34561 0.24146 0.0
H830 H 0.11698 0.50535 0.20905 0.0
H831 H 0.139 0.50919 0.24697 0.0
H832 H 0.07861 0.47521 0.18892 0.0
H833 H 0.07817 0.43712 0.16659 0.0
C834 C 0.95481 0.35883 0.26677 0.0
C835 C 0.94674 0.36267 0.23187 0.0
C836 C 0.89539 0.39383 0.24651 0.0
C837 C 0.90462 0.39208 0.28129 0.0
N838 N 0.94479 0.37711 0.32459 0.0
N839 N 0.91249 0.38756 0.18798 0.0
C840 C 0.93469 0.37549 0.29151 0.0
C841 C 0.91801 0.3814 0.22159 0.0
N842 N 0.98186 0.33942 0.27627 0.0
N843 N 0.86424 0.40584 0.23737 0.0
H844 H 0.92752 0.37738 0.16887 0.0
H845 H 0.89448 0.4046 0.17908 0.0
H846 H 0.84663 0.41494 0.25469 0.0
H847 H 0.85449 0.40411 0.21294 0.0
H848 H 0.98658 0.33208 0.30112 0.0
H849 H -0.00108 0.32901 0.2591 0.0
H850 H 0.96825 0.36885 0.33322 0.0
H851 H 0.93068 0.38918 0.3433 0.0
C852 C 0.85007 0.57194 0.24901 0.0
C853 C 0.86809 0.54114 0.25198 0.0
C854 C 0.90649 0.55852 0.20673 0.0
C855 C 0.89088 0.59078 0.2062 0.0
N856 N 0.84998 0.62992 0.22941 0.0
N857 N 0.91658 0.50685 0.23799 0.0
C858 C 0.8631 0.59797 0.2279 0.0
C859 C 0.89718 0.53489 0.23201 0.0
N860 N 0.81991 0.57588 0.26542 0.0
N861 N 0.92937 0.55006 0.18223 0.0
H862 H 0.91088 0.48913 0.2567 0.0
H863 H 0.93998 0.50277 0.22666 0.0
H864 H 0.93605 0.56644 0.16265 0.0
H865 H 0.93907 0.52576 0.17925 0.0
H866 H 0.80357 0.59607 0.26108 0.0
H867 H 0.8099 0.5576 0.2816 0.0
H868 H 0.8329 0.63768 0.24787 0.0
H869 H 0.85768 0.64954 0.21365 0.0
C870 C 0.0742 0.63758 0.2954 0.0
C871 C 0.08708 0.60463 0.28868 0.0
C872 C 0.06996 0.61008 0.22953 0.0
C873 C 0.0557 0.6422 0.23597 0.0
N874 N 0.03514 0.68159 0.27826 0.0
N875 N 0.07717 0.55501 0.25364 0.0
C876 C 0.05544 0.6549 0.26978 0.0
C877 C 0.07913 0.58932 0.25706 0.0
N878 N 0.0781 0.65166 0.3267 0.0
N879 N 0.07464 0.59907 0.19713 0.0
H880 H 0.07676 0.53861 0.27424 0.0
H881 H 0.06948 0.54351 0.23115 0.0
H882 H 0.06938 0.61411 0.17606 0.0
H883 H 0.08721 0.57654 0.19162 0.0
H884 H 0.0743 0.6773 0.33147 0.0
H885 H 0.08498 0.63758 0.34792 0.0
H886 H 0.03143 0.6896 0.30307 0.0
H887 H 0.01901 0.69364 0.2613 0.0
C888 C 0.09266 0.53299 0.76118 0.0
C889 C 0.12136 0.5382 0.74042 0.0
C890 C 0.13069 0.59359 0.76642 0.0
C891 C 0.10383 0.58697 0.78944 0.0
N892 N 0.06367 0.54758 0.81304 0.0
N893 N 0.17101 0.5707 0.72641 0.0
C894 C 0.08601 0.55585 0.78798 0.0
C895 C 0.14127 0.56779 0.7438 0.0
N896 N 0.07127 0.50657 0.75468 0.0
N897 N 0.14521 0.62491 0.76507 0.0
H898 H 0.17933 0.55268 0.70906 0.0
H899 H 0.18865 0.58973 0.73101 0.0
H900 H 0.13914 0.64428 0.78171 0.0
H901 H 0.16161 0.63246 0.7459 0.0
H902 H 0.04805 0.50345 0.76669 0.0
H903 H 0.07517 0.48953 0.7349 0.0
H904 H 0.05238 0.52387 0.81513 0.0
H905 H 0.05905 0.56321 0.83378 0.0
C906 C 0.03136 0.39102 0.73185 0.0
C907 C 0.03898 0.36371 0.75385 0.0
C908 C 0.09685 0.36172 0.73192 0.0
C909 C 0.0882 0.38703 0.70778 0.0
N910 N 0.04531 0.42048 0.68007 0.0
N911 N 0.07689 0.3194 0.77161 0.0
C912 C 0.05486 0.40017 0.70641 0.0
C913 C 0.07118 0.34803 0.75306 0.0
N914 N 0.00213 0.40904 0.73603 0.0
N915 N 0.12975 0.35177 0.73577 0.0
H916 H 0.05887 0.30898 0.78779 0.0
H917 H 0.09848 0.30455 0.76904 0.0
H918 H 0.14938 0.36051 0.72058 0.0
H919 H 0.13808 0.3367 0.75572 0.0
H920 H 0.99692 0.43137 0.72305 0.0
H921 H 0.98454 0.40364 0.75492 0.0
H922 H 0.02042 0.42807 0.67592 0.0
H923 H 0.06157 0.42688 0.66031 0.0
C924 C 0.87491 0.43314 0.78968 0.0
C925 C 0.89076 0.40243 0.7803 0.0
C926 C 0.88009 0.41457 0.72024 0.0
C927 C 0.86182 0.44381 0.72977 0.0
N928 N 0.83991 0.48076 0.77328 0.0
N929 N 0.90395 0.36088 0.73739 0.0
C930 C 0.8585 0.45294 0.76446 0.0
C931 C 0.89232 0.39238 0.74575 0.0
N932 N 0.87708 0.44417 0.82243 0.0
N933 N 0.88601 0.40815 0.68677 0.0
H934 H 0.91301 0.34362 0.75512 0.0
H935 H 0.90201 0.35058 0.71323 0.0
H936 H 0.876 0.42288 0.66728 0.0
H937 H 0.90274 0.38967 0.6783 0.0
H938 H 0.86941 0.46803 0.83039 0.0
H939 H 0.88912 0.4304 0.84147 0.0
H940 H 0.83278 0.48624 0.798 0.0
H941 H 0.83004 0.4978 0.75573 0.0
C942 C 0.96799 0.60401 0.73397 0.0
C943 C 0.96058 0.63233 0.75469 0.0
C944 C 0.90405 0.63624 0.72955 0.0
C945 C 0.91275 0.6099 0.70661 0.0
N946 N 0.95533 0.57367 0.68232 0.0
N947 N 0.92394 0.67886 0.76899 0.0
C948 C 0.94543 0.59521 0.70749 0.0
C949 C 0.92924 0.64942 0.75166 0.0
N950 N 0.99604 0.58478 0.74037 0.0
N951 N 0.87148 0.64769 0.73138 0.0
H952 H 0.94158 0.68897 0.78584 0.0
H953 H 0.90323 0.69458 0.76475 0.0
H954 H 0.85221 0.63932 0.71545 0.0
H955 H 0.86289 0.66369 0.75044 0.0
H956 H 0.00091 0.56188 0.72829 0.0
H957 H 0.01276 0.58988 0.76017 0.0
H958 H 0.98 0.56481 0.67981 0.0
H959 H 0.93977 0.56742 0.6619 0.0
C960 C 0.22789 0.13489 0.40904 0.0
C961 C 0.20596 0.10694 0.41503 0.0
C962 C 0.23355 0.0967 0.46962 0.0
C963 C 0.2537 0.12595 0.46471 0.0
N964 N 0.26622 0.17644 0.43292 0.0
N965 N 0.18269 0.06632 0.45411 0.0
C966 C 0.24986 0.14605 0.43528 0.0
C967 C 0.20731 0.0893 0.44626 0.0
N968 N 0.22887 0.14996 0.37793 0.0
N969 N 0.24023 0.07538 0.49606 0.0
H970 H 0.16234 0.06114 0.43807 0.0
H971 H 0.18043 0.05508 0.47783 0.0
H972 H 0.25964 0.07968 0.51346 0.0
H973 H 0.22872 0.05186 0.49892 0.0
H974 H 0.24746 0.16721 0.37083 0.0
H975 H 0.21253 0.14375 0.35827 0.0
H976 H 0.26126 0.19411 0.41401 0.0
H977 H 0.28293 0.18525 0.45137 0.0
C978 C 0.60943 0.25355 0.09727 0.0
C979 C 0.60727 0.28833 0.08817 0.0
C980 C 0.63119 0.27574 0.03262 0.0
C981 C 0.63667 0.24174 0.04301 0.0
N982 N 0.63497 0.19885 0.08625 0.0
N983 N 0.61961 0.33358 0.04921 0.0
C984 C 0.62669 0.2307 0.07557 0.0
C985 C 0.61941 0.29977 0.05651 0.0
N986 N 0.59485 0.2423 0.12655 0.0
N987 N 0.63535 0.28462 -0.00058 0.0
H988 H 0.6096 0.35184 0.06538 0.0
H989 H 0.63185 0.34375 0.02823 0.0
H990 H 0.6425 0.26749 0.98069 0.0
H991 H 0.62838 0.30808 0.98966 0.0
H992 H 0.59196 0.21681 0.13247 0.0
H993 H 0.5835 0.25829 0.14414 0.0
H994 H 0.63186 0.1905 0.11103 0.0
H995 H 0.64751 0.18141 0.07096 0.0
C996 C 0.76201 0.89786 0.46981 0.0
C997 C 0.74037 0.87039 0.46147 0.0
C998 C 0.76729 0.86476 0.40592 0.0
C999 C 0.78864 0.89272 0.41389 0.0
N1000 N 0.80697 0.93614 0.45267 0.0
N1001 N 0.71885 0.8301 0.42121 0.0
C1002 C 0.7861 0.90938 0.44567 0.0
C1003 C 0.74198 0.85456 0.42938 0.0
N1004 N 0.75945 0.9127 0.50103 0.0
N1005 N 0.77143 0.84765 0.37612 0.0
H1006 H 0.70089 0.821 0.4382 0.0
H1007 H 0.71572 0.82016 0.39705 0.0
H1008 H 0.78816 0.85501 0.35724 0.0
H1009 H 0.75976 0.82476 0.37049 0.0
H1010 H 0.77624 0.93053 0.51059 0.0
H1011 H 0.7403 0.90682 0.51817 0.0
H1012 H 0.80442 0.95208 0.4734 0.0
H1013 H 0.82722 0.94298 0.43724 0.0
C1014 C 0.34708 0.73503 0.04815 0.0
C1015 C 0.35235 0.76957 0.05689 0.0
C1016 C 0.38441 0.75255 0.10705 0.0
C1017 C 0.38207 0.71824 0.09649 0.0
N1018 N 0.36449 0.6766 0.05564 0.0
N1019 N 0.37845 0.81177 0.09229 0.0
C1020 C 0.36392 0.70932 0.06689 0.0
C1021 C 0.3717 0.77849 0.0857 0.0
N1022 N 0.3264 0.72678 0.0216 0.0
N1023 N 0.39766 0.76026 0.13813 0.0
H1024 H 0.36794 0.83157 0.07835 0.0
H1025 H 0.39604 0.81977 0.11023 0.0
H1026 H 0.40716 0.7421 0.15472 0.0
H1027 H 0.39665 0.78428 0.14884 0.0
H1028 H 0.31816 0.70227 0.01664 0.0
H1029 H 0.31564 0.74459 0.00542 0.0
H1030 H 0.3552 0.66898 0.03221 0.0
H1031 H 0.37665 0.65713 0.06867 0.0
C1032 C 0.27307 0.87755 0.58101 0.0
C1033 C 0.26289 0.85995 0.55155 0.0
C1034 C 0.20333 0.8732 0.56327 0.0
C1035 C 0.21339 0.88866 0.594 0.0
N1036 N 0.25697 0.90035 0.63541 0.0
N1037 N 0.21863 0.83833 0.51522 0.0
C1038 C 0.24806 0.88955 0.60374 0.0
C1039 C 0.22806 0.8568 0.54295 0.0
N1040 N 0.30668 0.88312 0.58709 0.0
N1041 N 0.17044 0.87571 0.55274 0.0
H1042 H 0.23586 0.82812 0.4981 0.0
H1043 H 0.19375 0.8315 0.50999 0.0
H1044 H 0.15173 0.88766 0.56695 0.0
H1045 H 0.16204 0.86835 0.52889 0.0
H1046 H 0.31558 0.89941 0.60579 0.0
H1047 H 0.32582 0.87325 0.57191 0.0
H1048 H 0.28123 0.89795 0.64538 0.0
H1049 H 0.23955 0.90907 0.65312 0.0
C1050 C 0.40412 0.29594 0.94762 0.0
C1051 C 0.38958 0.29407 0.91488 0.0
C1052 C 0.35342 0.24709 0.9334 0.0
C1053 C 0.37077 0.24664 0.96479 0.0
N1054 N 0.41624 0.2669 0.00021 0.0
N1055 N 0.35347 0.26505 0.87494 0.0
C1056 C 0.39708 0.27012 0.97154 0.0
C1057 C 0.36489 0.26901 0.90732 0.0
N1058 N 0.424 0.32297 0.95609 0.0
N1059 N 0.32528 0.22749 0.92887 0.0
H1060 H 0.36048 0.28103 0.8553 0.0
H1061 H 0.33893 0.24453 0.86705 0.0
H1062 H 0.31623 0.21088 0.94726 0.0
H1063 H 0.30931 0.22966 0.908 0.0
H1064 H 0.43261 0.32756 0.98058 0.0
H1065 H 0.42911 0.34269 0.9393 0.0
H1066 H 0.43796 0.28108 0.00482 0.0
H1067 H 0.41236 0.24781 0.01803 0.0
C1068 C 0.76886 0.13298 0.59136 0.0
C1069 C 0.79016 0.10492 0.58391 0.0
C1070 C 0.76246 0.09817 0.5289 0.0
C1071 C 0.7435 0.12795 0.53506 0.0
N1072 N 0.73222 0.177 0.56943 0.0
N1073 N 0.81211 0.06529 0.54306 0.0
C1074 C 0.74762 0.14628 0.56556 0.0
C1075 C 0.78831 0.08875 0.55193 0.0
N1076 N 0.7677 0.14607 0.62335 0.0
N1077 N 0.75504 0.07831 0.50153 0.0
H1078 H 0.83219 0.05858 0.55885 0.0
H1079 H 0.81401 0.0551 0.51884 0.0
H1080 H 0.73582 0.08411 0.48435 0.0
H1081 H 0.76563 0.05451 0.49764 0.0
H1082 H 0.74955 0.16349 0.63112 0.0
H1083 H 0.78307 0.1378 0.64307 0.0
H1084 H 0.73755 0.19341 0.58935 0.0
H1085 H 0.71603 0.18736 0.55133 0.0
C1086 C 0.62425 0.73907 0.96267 0.0
C1087 C 0.64668 0.76328 0.94845 0.0
C1088 C 0.64604 0.7327 0.89456 0.0
C1089 C 0.62051 0.71083 0.90755 0.0
N1090 N 0.58355 0.69424 0.95317 0.0
N1091 N 0.67633 0.78584 0.90041 0.0
C1092 C 0.60903 0.71444 0.94136 0.0
C1093 C 0.65704 0.76071 0.91432 0.0
N1094 N 0.61885 0.73848 0.99687 0.0
N1095 N 0.65991 0.7268 0.86345 0.0
H1096 H 0.68492 0.80661 0.91426 0.0
H1097 H 0.68149 0.78771 0.87467 0.0
H1098 H 0.6521 0.70745 0.8474 0.0
H1099 H 0.68112 0.73947 0.8544 0.0
H1100 H 0.60581 0.71923 0.00921 0.0
H1101 H 0.62995 0.7556 0.01359 0.0
H1102 H 0.57083 0.69875 0.97577 0.0
H1103 H 0.57391 0.67377 0.93959 0.0
C1104 C 0.46142 0.23911 0.12055 0.0
C1105 C 0.44687 0.26411 0.14187 0.0
C1106 C 0.39241 0.23462 0.13984 0.0
C1107 C 0.40603 0.21175 0.1156 0.0
N1108 N 0.45244 0.19367 0.08043 0.0
N1109 N 0.39822 0.28834 0.16909 0.0
C1110 C 0.44021 0.21453 0.10515 0.0
C1111 C 0.41231 0.26249 0.15095 0.0
N1112 N 0.49577 0.23776 0.11644 0.0
N1113 N 0.36052 0.22977 0.1523 0.0
H1114 H 0.41217 0.30904 0.17771 0.0
H1115 H 0.37236 0.29081 0.1733 0.0
H1116 H 0.34442 0.21063 0.14403 0.0
H1117 H 0.3507 0.24322 0.17266 0.0
H1118 H 0.50817 0.21797 0.10431 0.0
H1119 H 0.51241 0.25481 0.12777 0.0
H1120 H 0.4756 0.19743 0.06851 0.0
H1121 H 0.43863 0.17351 0.07045 0.0
C1122 C 0.41154 0.77 0.86546 0.0
C1123 C 0.41743 0.79273 0.89278 0.0
C1124 C 0.47296 0.76708 0.90274 0.0
C1125 C 0.46794 0.74586 0.87427 0.0
N1126 N 0.43558 0.731 0.82472 0.0
N1127 N 0.45647 0.81816 0.93219 0.0
C1128 C 0.43809 0.74836 0.85455 0.0
C1129 C 0.44899 0.79277 0.90991 0.0
N1130 N 0.38028 0.76795 0.8508 0.0
N1131 N 0.50014 0.76193 0.92359 0.0
H1132 H 0.43988 0.83805 0.93721 0.0
H1133 H 0.48028 0.82148 0.943 0.0
H1134 H 0.51808 0.74304 0.91937 0.0
H1135 H 0.50325 0.77421 0.94669 0.0
H1136 H 0.3733 0.74875 0.83416 0.0
H1137 H 0.36042 0.78412 0.85671 0.0
H1138 H 0.41628 0.73493 0.8072 0.0
H1139 H 0.45425 0.71448 0.81612 0.0
C1140 C 0.26559 0.02883 0.60447 0.0
C1141 C 0.2455 0.03558 0.63337 0.0
C1142 C 0.27116 0.09165 0.63879 0.0
C1143 C 0.29332 0.08366 0.61161 0.0
N1144 N 0.31621 0.04248 0.57294 0.0
N1145 N 0.2323 0.07075 0.68134 0.0
C1146 C 0.29182 0.05159 0.59568 0.0
C1147 C 0.2491 0.06628 0.65147 0.0
N1148 N 0.25884 0.00117 0.58478 0.0
N1149 N 0.27004 0.12379 0.65151 0.0
H1150 H 0.2154 0.05298 0.69107 0.0
H1151 H 0.23697 0.09085 0.69772 0.0
H1152 H 0.28604 0.14312 0.64353 0.0
H1153 H 0.25151 0.13205 0.66827 0.0
H1154 H 0.27026 0.99687 0.56145 0.0
H1155 H 0.23943 0.98411 0.59012 0.0
H1156 H 0.31842 0.01818 0.56303 0.0
H1157 H 0.33637 0.05825 0.56652 0.0
C1158 C 0.54326 0.23141 0.84753 0.0
C1159 C 0.55182 0.26625 0.851 0.0
C1160 C 0.60316 0.25103 0.88224 0.0
C1161 C 0.59317 0.21647 0.88125 0.0
N1162 N 0.55273 0.17355 0.86613 0.0
N1163 N 0.58778 0.30982 0.87391 0.0
C1164 C 0.56314 0.20652 0.86438 0.0
C1165 C 0.58118 0.27621 0.86902 0.0
N1166 N 0.5158 0.22211 0.82856 0.0
N1167 N 0.63433 0.25964 0.89468 0.0
H1168 H 0.57357 0.32903 0.86271 0.0
H1169 H 0.60612 0.31882 0.89056 0.0
H1170 H 0.65123 0.24213 0.90482 0.0
H1171 H 0.64478 0.28371 0.89255 0.0
H1172 H 0.51074 0.1973 0.82138 0.0
H1173 H 0.49865 0.23931 0.81834 0.0
H1174 H 0.52923 0.16507 0.85784 0.0
H1175 H 0.56673 0.1547 0.87818 0.0
C1176 C 0.73786 0.95714 0.61443 0.0
C1177 C 0.76172 0.94337 0.63759 0.0
C1178 C 0.731 0.88955 0.63773 0.0
C1179 C 0.70919 0.9022 0.61196 0.0
N1180 N 0.69374 0.94678 0.57314 0.0
N1181 N 0.78428 0.89556 0.66774 0.0
C1182 C 0.71336 0.93556 0.59938 0.0
C1183 C 0.7591 0.90934 0.64838 0.0
N1184 N 0.73721 0.99122 0.60836 0.0
N1185 N 0.72497 0.85868 0.65216 0.0
H1186 H 0.80532 0.90934 0.67579 0.0
H1187 H 0.78599 0.86988 0.67331 0.0
H1188 H 0.7058 0.84241 0.64435 0.0
H1189 H 0.73751 0.85003 0.67366 0.0
H1190 H 0.71809 0.00319 0.59474 0.0
H1191 H 0.75398 0.00826 0.61947 0.0
H1192 H 0.69878 0.96893 0.55979 0.0
H1193 H 0.67339 0.93308 0.56342 0.0
C1194 C 0.52724 0.77908 0.11647 0.0
C1195 C 0.53698 0.74745 0.13067 0.0
C1196 C 0.59578 0.75879 0.11504 0.0
C1197 C 0.58654 0.7921 0.1053 0.0
N1198 N 0.54438 0.83583 0.10085 0.0
N1199 N 0.58153 0.70961 0.14859 0.0
C1200 C 0.55254 0.80289 0.10746 0.0
C1201 C 0.57154 0.73783 0.13127 0.0
N1202 N 0.49395 0.78561 0.1096 0.0
N1203 N 0.62748 0.74689 0.10818 0.0
H1204 H 0.56475 0.69402 0.16163 0.0
H1205 H 0.60681 0.70344 0.15275 0.0
H1206 H 0.64595 0.76146 0.0963 0.0
H1207 H 0.63445 0.72169 0.11145 0.0
H1208 H 0.48581 0.80696 0.09646 0.0
H1209 H 0.47473 0.76795 0.11341 0.0
H1210 H 0.52052 0.84595 0.10559 0.0
H1211 H 0.56221 0.85373 0.09325 0.0
C1212 C 0.2606 0.96133 0.37203 0.0
C1213 C 0.23343 0.94679 0.35346 0.0
C1214 C 0.25901 0.89066 0.35914 0.0
C1215 C 0.28419 0.90472 0.38075 0.0
N1216 N 0.30794 0.95262 0.41011 0.0
N1217 N 0.20451 0.89794 0.33154 0.0
C1218 C 0.28465 0.93985 0.38789 0.0
C1219 C 0.23215 0.91155 0.34736 0.0
N1220 N 0.26424 0.99574 0.37324 0.0
N1221 N 0.26069 0.85734 0.34996 0.0
H1222 H 0.18459 0.91264 0.32236 0.0
H1223 H 0.19996 0.87209 0.32965 0.0
H1224 H 0.27893 0.84068 0.35912 0.0
H1225 H 0.2454 0.84652 0.33144 0.0
H1226 H 0.28543 0.00782 0.38318 0.0
H1227 H 0.24742 0.01247 0.36167 0.0
H1228 H 0.30686 0.97706 0.41985 0.0
H1229 H 0.32751 0.93816 0.42034 0.0
C1230 C 0.74759 0.06809 0.34927 0.0
C1231 C 0.75238 0.03908 0.36973 0.0
C1232 C 0.70711 0.05742 0.40751 0.0
C1233 C 0.7047 0.08825 0.38929 0.0
N1234 N 0.72596 0.12513 0.34522 0.0
N1235 N 0.74133 0.00859 0.4214 0.0
C1236 C 0.72569 0.09419 0.36066 0.0
C1237 C 0.73345 0.03445 0.39976 0.0
N1238 N 0.7631 0.07022 0.31844 0.0
N1239 N 0.6834 0.04957 0.43141 0.0
H1240 H 0.7608 0.99141 0.41671 0.0
H1241 H 0.73081 0.00611 0.44541 0.0
H1242 H 0.66289 0.06525 0.43684 0.0
H1243 H 0.68199 0.02608 0.44325 0.0
H1244 H 0.75738 0.08875 0.3006 0.0
H1245 H 0.77992 0.05195 0.30958 0.0
H1246 H 0.74389 0.13215 0.32726 0.0
H1247 H 0.70984 0.14481 0.35182 0.0
C1248 C 0.99557 0.3765 0.9806 0.0
C1249 C 0.9857 0.34554 0.96534 0.0
C1250 C 0.99493 0.31575 0.01905 0.0
C1251 C 0.00757 0.34606 0.03345 0.0
N1252 N 0.02374 0.40451 0.02751 0.0
N1253 N 0.98089 0.28481 0.96795 0.0
C1254 C 0.0089 0.37628 0.01411 0.0
C1255 C 0.98671 0.31489 0.98403 0.0
N1256 N 0.99122 0.4062 0.96342 0.0
N1257 N 0.99032 0.28793 0.03907 0.0
H1258 H 0.97514 0.28316 0.94224 0.0
H1259 H 0.98465 0.26132 0.97924 0.0
H1260 H 0.99631 0.28765 0.06479 0.0
H1261 H 0.97793 0.26612 0.03103 0.0
H1262 H 0.99427 0.42993 0.97441 0.0
H1263 H 0.98223 0.40725 0.93862 0.0
H1264 H 0.02918 0.42611 0.01348 0.0
H1265 H 0.03258 0.40563 0.05237 0.0
C1266 C 0.81413 0.49466 0.48031 0.0
C1267 C 0.84519 0.49003 0.46302 0.0
C1268 C 0.87641 0.50946 0.51311 0.0
C1269 C 0.84549 0.51144 0.53117 0.0
N1270 N 0.78548 0.50141 0.53411 0.0
N1271 N 0.90612 0.48881 0.46353 0.0
C1272 C 0.81448 0.50273 0.51536 0.0
C1273 C 0.87644 0.49635 0.47955 0.0
N1274 N 0.7843 0.49217 0.46292 0.0
N1275 N 0.90558 0.52099 0.52773 0.0
H1276 H 0.90713 0.48006 0.43866 0.0
H1277 H 0.92959 0.48908 0.47549 0.0
H1278 H 0.90668 0.52981 0.55258 0.0
H1279 H 0.92822 0.52394 0.51466 0.0
H1280 H 0.76093 0.49867 0.4731 0.0
H1281 H 0.78311 0.48635 0.4372 0.0
H1282 H 0.76269 0.49181 0.52504 0.0
H1283 H 0.78479 0.50732 0.55982 0.0
C1284 C 0.00547 0.62638 0.98376 0.0
C1285 C 0.01239 0.65729 0.96692 0.0
C1286 C 0.00153 0.68883 0.01917 0.0
C1287 C 0.99211 0.65823 0.03529 0.0
N1288 N 0.98099 0.59837 0.0326 0.0
N1289 N 0.01234 0.71823 0.96641 0.0
C1290 C 0.99298 0.62708 0.01751 0.0
C1291 C 0.0091 0.68864 0.98404 0.0
N1292 N 0.01183 0.59636 0.96783 0.0
N1293 N 0.00387 0.71795 0.0377 0.0
H1294 H 0.01781 0.71901 0.94061 0.0
H1295 H 0.00682 0.7419 0.9765 0.0
H1296 H 0.99831 0.719 0.06347 0.0
H1297 H 0.01397 0.7404 0.02838 0.0
H1298 H 0.01108 0.57299 0.97994 0.0
H1299 H 0.02005 0.59488 0.94281 0.0
H1300 H 0.97716 0.5757 0.01978 0.0
H1301 H 0.97281 0.59772 0.05767 0.0
C1302 C 0.15661 0.45579 0.50033 0.0
C1303 C 0.14473 0.4755 0.5276 0.0
C1304 C 0.12799 0.5186 0.48598 0.0
C1305 C 0.15045 0.50357 0.46207 0.0
N1306 N 0.18824 0.45714 0.4487 0.0
N1307 N 0.09597 0.51002 0.53759 0.0
C1308 C 0.16542 0.47195 0.46985 0.0
C1309 C 0.12372 0.50309 0.5184 0.0
N1310 N 0.15248 0.42164 0.50065 0.0
N1311 N 0.11021 0.54699 0.47762 0.0
H1312 H 0.08891 0.49428 0.55757 0.0
H1313 H 0.07771 0.52787 0.53113 0.0
H1314 H 0.10932 0.55666 0.4531 0.0
H1315 H 0.09716 0.56147 0.49532 0.0
H1316 H 0.15833 0.4065 0.47983 0.0
H1317 H 0.13876 0.40977 0.51983 0.0
H1318 H 0.20044 0.4346 0.4551 0.0
H1319 H 0.19706 0.46877 0.42674 0.0
C1320 C 0.97982 0.99739 0.31297 0.0
C1321 C 0.96382 0.9904 0.34428 0.0
C1322 C 0.0152 0.00721 0.37487 0.0
C1323 C 0.03195 0.01171 0.34347 0.0
N1324 N 0.03239 0.00663 0.28275 0.0
N1325 N 0.96676 0.98442 0.40487 0.0
C1326 C 0.01485 0.00552 0.31251 0.0
C1327 C 0.98163 0.99419 0.37524 0.0
N1328 N 0.96125 0.99694 0.28374 0.0
N1329 N 0.03106 0.01635 0.40425 0.0
H1330 H 0.94183 0.97586 0.40623 0.0
H1331 H 0.97965 0.98274 0.4278 0.0
H1332 H 0.05596 0.02505 0.40504 0.0
H1333 H 0.01896 0.01743 0.42759 0.0
H1334 H 0.97043 0.0052 0.2605 0.0
H1335 H 0.93557 0.99092 0.28316 0.0
H1336 H 0.02239 -0.00103 0.25961 0.0
H1337 H 0.05807 0.01258 0.2815 0.0
C1338 C 0.50513 0.48607 0.1778 0.0
C1339 C 0.51044 0.46815 0.14719 0.0
C1340 C 0.49138 0.51739 0.1145 0.0
C1341 C 0.4882 0.53593 0.14504 0.0
N1342 N 0.49692 0.54033 0.20521 0.0
N1343 N 0.51327 0.46744 0.0863 0.0
C1344 C 0.49658 0.52096 0.17656 0.0
C1345 C 0.50482 0.48399 0.11545 0.0
N1346 N 0.50728 0.46939 0.20805 0.0
N1347 N 0.48068 0.53142 0.08473 0.0
H1348 H 0.52235 0.44267 0.08602 0.0
H1349 H 0.51345 0.47888 0.06258 0.0
H1350 H 0.47197 0.55627 0.08294 0.0
H1351 H 0.47852 0.51796 0.0622 0.0
H1352 H 0.50023 0.47999 0.23108 0.0
H1353 H 0.51346 0.4438 0.20993 0.0
H1354 H 0.5062 0.53194 0.2284 0.0
H1355 H 0.49056 0.56594 0.20525 0.0
C1356 C 0.0161 0.99342 0.68362 0.0
C1357 C 0.03291 0.98883 0.6523 0.0
C1358 C 0.98215 0.00731 0.6217 0.0
C1359 C 0.96457 0.0092 0.6529 0.0
N1360 N 0.96273 -8e-05 0.71311 0.0
N1361 N 0.03172 0.98757 0.59138 0.0
C1362 C 0.98099 0.00109 0.68377 0.0
C1363 C 0.01591 0.99482 0.62125 0.0
N1364 N 0.03397 0.99116 0.71319 0.0
N1365 N 0.96685 0.01832 0.59267 0.0
H1366 H 0.05681 0.97953 0.59009 0.0
H1367 H 0.0195 0.98754 0.56804 0.0
H1368 H 0.94181 0.0266 0.59189 0.0
H1369 H 0.97947 0.02131 0.56978 0.0
H1370 H 0.02413 0.9976 0.73672 0.0
H1371 H 0.05974 0.98556 0.71398 0.0
H1372 H 0.97226 0.99073 0.73588 0.0
H1373 H 0.93698 0.00558 0.71416 0.0
C1374 C 0.50917 0.51467 0.87914 0.0
C1375 C 0.51245 0.53356 0.8488 0.0
C1376 C 0.49452 0.48432 0.81561 0.0
C1377 C 0.48886 0.46618 0.84604 0.0
N1378 N 0.48613 0.46501 0.90694 0.0
N1379 N 0.50336 0.53879 0.78875 0.0
C1380 C 0.49494 0.4816 0.87791 0.0
C1381 C 0.50364 0.51907 0.81718 0.0
N1382 N 0.52053 0.52802 0.90897 0.0
N1383 N 0.49204 0.46799 0.78521 0.0
H1384 H 0.51001 0.56433 0.78899 0.0
H1385 H 0.49383 0.53076 0.76554 0.0
H1386 H 0.48545 0.44252 0.78312 0.0
H1387 H 0.49925 0.47873 0.76228 0.0
H1388 H 0.52259 0.51416 0.93128 0.0
H1389 H 0.53 0.55257 0.911 0.0
H1390 H 0.48627 0.47628 0.93074 0.0
H1391 H 0.47639 0.44049 0.90707 0.0
C1392 C 0.317 0.01838 0.00125 0.0
C1393 C 0.34873 0.033 0.00946 0.0
C1394 C 0.37765 0.98096 0.99201 0.0
C1395 C 0.34573 0.96539 0.98669 0.0
N1396 N 0.28493 0.96719 0.99037 0.0
N1397 N 0.40904 0.0278 0.01641 0.0
C1398 C 0.31535 0.98356 0.99241 0.0
C1399 C 0.37905 0.0142 0.0058 0.0
N1400 N 0.28855 0.03804 0.00131 0.0
N1401 N 0.40656 0.96433 0.98293 0.0
H1402 H 0.41116 0.05249 0.02549 0.0
H1403 H 0.43142 0.01407 0.01823 0.0
H1404 H 0.40656 0.93974 0.9734 0.0
H1405 H 0.43034 0.97563 0.98256 0.0
H1406 H 0.2652 0.02993 0.99221 0.0
H1407 H 0.28883 0.0636 0.00785 0.0
H1408 H 0.26208 0.97794 0.99774 0.0
H1409 H 0.28276 0.9417 0.98389 0.0
C1410 C 0.48392 0.12306 0.50532 0.0
C1411 C 0.46576 0.15353 0.51054 0.0
C1412 C 0.51559 0.18677 0.4948 0.0
C1413 C 0.53301 0.15635 0.48733 0.0
N1414 N 0.53312 0.09573 0.48093 0.0
N1415 N 0.4618 0.21414 0.50566 0.0
C1416 C 0.51702 0.12449 0.49136 0.0
C1417 C 0.4809 0.18536 0.50393 0.0
N1418 N 0.46985 0.09286 0.51464 0.0
N1419 N 0.53254 0.21692 0.49398 0.0
H1420 H 0.43631 0.21404 0.51242 0.0
H1421 H 0.47028 0.23777 0.49774 0.0
H1422 H 0.55796 0.2189 0.48722 0.0
H1423 H 0.52238 0.23961 0.50259 0.0
H1424 H 0.48315 0.07016 0.51522 0.0
H1425 H 0.44526 0.09078 0.52392 0.0
H1426 H 0.52144 0.07218 0.47954 0.0
H1427 H 0.55773 0.09573 0.47145 0.0
C1428 C 0.62052 0.01732 0.98883 0.0
C1429 C 0.65095 0.03616 0.98615 0.0
C1430 C 0.68368 0.9868 0.00472 0.0
C1431 C 0.6531 0.96867 0.00961 0.0
N1432 N 0.59219 0.96753 0.01096 0.0
N1433 N 0.71085 0.04119 0.99615 0.0
C1434 C 0.62141 0.98416 0.0029 0.0
C1435 C 0.68237 0.02156 0.9955 0.0
N1436 N 0.59093 0.03083 0.97705 0.0
N1437 N 0.71399 0.97044 0.00796 0.0
H1438 H 0.71083 0.06667 0.98929 0.0
H1439 H 0.73388 0.03315 0.00609 0.0
H1440 H 0.7159 0.945 0.0147 0.0
H1441 H 0.73709 0.98112 0.00129 0.0
H1442 H 0.56862 0.01707 0.97452 0.0
H1443 H 0.58913 0.05545 0.96772 0.0
H1444 H 0.5684 0.97879 0.01036 0.0
H1445 H 0.59185 0.94296 0.02055 0.0
C1446 C 0.47886 0.87736 0.49106 0.0
C1447 C 0.4607 0.84652 0.48827 0.0
C1448 C 0.51121 0.81476 0.50521 0.0
C1449 C 0.52864 0.84568 0.5105 0.0
N1450 N 0.5283 0.90657 0.51294 0.0
N1451 N 0.45727 0.78645 0.49782 0.0
C1452 C 0.51227 0.87708 0.50462 0.0
C1453 C 0.47623 0.81536 0.4969 0.0
N1454 N 0.46451 0.90675 0.47982 0.0
N1455 N 0.52841 0.78482 0.50724 0.0
H1456 H 0.43156 0.78599 0.49188 0.0
H1457 H 0.46616 0.76353 0.50727 0.0
H1458 H 0.55411 0.78343 0.51313 0.0
H1459 H 0.5181 0.76163 0.50023 0.0
H1460 H 0.47772 0.92939 0.47743 0.0
H1461 H 0.43975 0.90806 0.47074 0.0
H1462 H 0.51643 0.93007 0.51296 0.0
H1463 H 0.55305 0.90736 0.52209 0.0
C1464 C 0.0898 0.26458 0.24338 0.0
C1465 C 0.06813 0.257 0.21582 0.0
C1466 C 0.05496 0.20201 0.24103 0.0
C1467 C 0.07979 0.20818 0.26631 0.0
N1468 N 0.12592 0.24241 0.28737 0.0
N1469 N 0.032 0.21796 0.18619 0.0
C1470 C 0.09864 0.23866 0.26637 0.0
C1471 C 0.05114 0.22553 0.21399 0.0
N1472 N 0.10098 0.29693 0.24835 0.0
N1473 N 0.03461 0.17417 0.24337 0.0
H1474 H 0.02826 0.23507 0.16641 0.0
H1475 H 0.02175 0.19414 0.18163 0.0
H1476 H 0.03694 0.15641 0.26277 0.0
H1477 H 0.01389 0.16993 0.22766 0.0
H1478 H 0.114 0.30454 0.27 0.0
H1479 H 0.09418 0.31698 0.23261 0.0
H1480 H 0.14264 0.26272 0.2857 0.0
H1481 H 0.13394 0.22372 0.30417 0.0
C1482 C 0.75475 0.3971 0.26267 0.0
C1483 C 0.7535 0.42622 0.28379 0.0
C1484 C 0.70465 0.44739 0.25188 0.0
C1485 C 0.70478 0.41726 0.23247 0.0
N1486 N 0.72419 0.35983 0.2251 0.0
N1487 N 0.72385 0.47596 0.30278 0.0
C1488 C 0.72801 0.39098 0.23968 0.0
C1489 C 0.72743 0.45055 0.27962 0.0
N1490 N 0.78241 0.37629 0.26285 0.0
N1491 N 0.68324 0.47317 0.24335 0.0
H1492 H 0.73973 0.4785 0.32374 0.0
H1493 H 0.70348 0.49263 0.303 0.0
H1494 H 0.66568 0.47126 0.22369 0.0
H1495 H 0.68439 0.49715 0.25416 0.0
H1496 H 0.78615 0.35729 0.24499 0.0
H1497 H 0.80337 0.3798 0.27841 0.0
H1498 H 0.7381 0.33872 0.23256 0.0
H1499 H 0.70499 0.35413 0.20791 0.0
C1500 C 0.94328 0.7992 0.24466 0.0
C1501 C 0.91713 0.79373 0.26861 0.0
C1502 C 0.90592 0.738 0.24468 0.0
C1503 C 0.9294 0.74485 0.2185 0.0
N1504 N 0.96814 0.78285 0.19092 0.0
N1505 N 0.86871 0.7613 0.28701 0.0
C1506 C 0.94756 0.77572 0.21773 0.0
C1507 C 0.89702 0.7641 0.26737 0.0
N1508 N 0.96439 0.82637 0.24817 0.0
N1509 N 0.8933 0.70608 0.24886 0.0
H1510 H 0.86081 0.7801 0.3037 0.0
H1511 H 0.85123 0.74175 0.2843 0.0
H1512 H 0.90042 0.68579 0.23361 0.0
H1513 H 0.87874 0.69891 0.2696 0.0
H1514 H 0.986 0.82995 0.2336 0.0
H1515 H 0.96165 0.8442 0.26742 0.0
H1516 H 0.97942 0.80633 0.18709 0.0
H1517 H 0.972 0.7659 0.17106 0.0
C1518 C 0.29204 0.54874 0.2488 0.0
C1519 C 0.28935 0.577 0.22696 0.0
C1520 C 0.23751 0.59517 0.25511 0.0
C1521 C 0.2417 0.56864 0.27899 0.0
N1522 N 0.27435 0.52225 0.30136 0.0
N1523 N 0.26485 0.62975 0.21207 0.0
C1524 C 0.26934 0.54586 0.27658 0.0
C1525 C 0.26334 0.60098 0.23101 0.0
N1526 N 0.31581 0.52447 0.2425 0.0
N1527 N 0.20813 0.61347 0.25425 0.0
H1528 H 0.24872 0.65041 0.21488 0.0
H1529 H 0.24872 0.65041 0.21488 0.0
H1530 H 0.1882 0.60966 0.27107 0.0
H1531 H 0.20196 0.63017 0.23483 0.0
H1532 H 0.31711 0.50157 0.25542 0.0
H1533 H 0.33292 0.52627 0.2225 0.0
H1534 H 0.29574 0.507 0.30292 0.0
H1535 H 0.25815 0.51961 0.32201 0.0
C1536 C 0.10541 0.74664 0.76708 0.0
C1537 C 0.07596 0.746 0.78773 0.0
C1538 C 0.05193 0.79294 0.75501 0.0
C1539 C 0.08207 0.79437 0.7358 0.0
N1540 N 0.1411 0.77962 0.7302 0.0
N1541 N 0.02493 0.77358 0.80655 0.0
C1542 C 0.11 0.77355 0.74405 0.0
C1543 C 0.05026 0.77071 0.78324 0.0
N1544 N 0.12794 0.72042 0.7674 0.0
N1545 N 0.02477 0.81228 0.74587 0.0
H1546 H 0.02373 0.75848 0.82817 0.0
H1547 H 0.00714 0.79299 0.80629 0.0
H1548 H 0.02557 0.82946 0.72583 0.0
H1549 H 0.00088 0.80964 0.7566 0.0
H1550 H 0.1475 0.71807 0.74993 0.0
H1551 H 0.1253 0.69916 0.78255 0.0
H1552 H 0.16304 0.76755 0.73847 0.0
H1553 H 0.14573 0.79901 0.71294 0.0
C1554 C 0.25766 0.40606 0.77064 0.0
C1555 C 0.28905 0.42331 0.76902 0.0
C1556 C 0.27208 0.44985 0.71547 0.0
C1557 C 0.24007 0.43411 0.71841 0.0
N1558 N 0.19915 0.40485 0.75294 0.0
N1559 N 0.3244 0.46593 0.74348 0.0
C1560 C 0.23186 0.41457 0.74732 0.0
C1561 C 0.29575 0.44659 0.74248 0.0
N1562 N 0.25296 0.38031 0.79327 0.0
N1563 N 0.28007 0.46706 0.6866 0.0
H1564 H 0.34223 0.46403 0.76288 0.0
H1565 H 0.32924 0.48558 0.72664 0.0
H1566 H 0.26287 0.47047 0.66684 0.0
H1567 H 0.30424 0.47607 0.6813 0.0
H1568 H 0.23189 0.36449 0.79285 0.0
H1569 H 0.27144 0.3725 0.8104 0.0
H1570 H 0.19116 0.39349 0.77533 0.0
H1571 H 0.17931 0.41132 0.73677 0.0
C1572 C 0.9441 0.22321 0.78606 0.0
C1573 C 0.92108 0.25061 0.78865 0.0
C1574 C 0.8854 0.22526 0.74475 0.0
C1575 C 0.91066 0.20062 0.73895 0.0
N1576 N 0.96504 0.17651 0.75211 0.0
N1577 N 0.87281 0.28099 0.76577 0.0
C1578 C 0.94029 0.19957 0.75916 0.0
C1579 C 0.89234 0.25244 0.76697 0.0
N1580 N 0.96889 0.21929 0.80988 0.0
N1581 N 0.85449 0.22251 0.72938 0.0
H1582 H 0.877 0.30228 0.78068 0.0
H1583 H 0.85428 0.28501 0.74744 0.0
H1584 H 0.84836 0.20308 0.71262 0.0
H1585 H 0.83388 0.23761 0.73578 0.0
H1586 H 0.98451 0.19815 0.81128 0.0
H1587 H 0.97189 0.23587 0.8302 0.0
H1588 H 0.98883 0.1768 0.76343 0.0
H1589 H 0.96252 0.15823 0.73322 0.0
C1590 C 0.74234 0.59527 0.76832 0.0
C1591 C 0.71088 0.57822 0.76592 0.0
C1592 C 0.72805 0.55306 0.71192 0.0
C1593 C 0.76036 0.56795 0.71597 0.0
N1594 N 0.80104 0.59654 0.7515 0.0
N1595 N 0.67506 0.53714 0.73846 0.0
C1596 C 0.76835 0.58707 0.74522 0.0
C1597 C 0.70405 0.55598 0.73854 0.0
N1598 N 0.74694 0.6204 0.79166 0.0
N1599 N 0.72015 0.53685 0.68241 0.0
H1600 H 0.65691 0.53882 0.75752 0.0
H1601 H 0.67013 0.51807 0.72098 0.0
H1602 H 0.73752 0.53381 0.66278 0.0
H1603 H 0.6959 0.52854 0.67639 0.0
H1604 H 0.76811 0.63609 0.79197 0.0
H1605 H 0.72827 0.62792 0.80865 0.0
H1606 H 0.80885 0.60744 0.7742 0.0
H1607 H 0.82103 0.59048 0.73543 0.0
C1608 C 0.21369 0.05245 0.22876 0.0
C1609 C 0.21337 0.07493 0.25674 0.0
C1610 C 0.25993 0.10722 0.23204 0.0
C1611 C 0.26304 0.08245 0.20636 0.0
N1612 N 0.24521 0.02991 0.18115 0.0
N1613 N 0.24097 0.11921 0.28869 0.0
C1614 C 0.2405 0.05459 0.20488 0.0
C1615 C 0.23765 0.10125 0.25933 0.0
N1616 N 0.1879 0.02979 0.22459 0.0
N1617 N 0.27775 0.13681 0.23008 0.0
H1618 H 0.22634 0.11451 0.31004 0.0
H1619 H 0.26063 0.13619 0.29315 0.0
H1620 H 0.29437 0.14236 0.21039 0.0
H1621 H 0.27354 0.1572 0.24622 0.0
H1622 H 0.18491 0.01493 0.20306 0.0
H1623 H 0.16775 0.02788 0.2415 0.0
H1624 H 0.23194 0.00716 0.18099 0.0
H1625 H 0.26413 0.03119 0.16282 0.0
C1626 C 0.55299 0.25976 0.29165 0.0
C1627 C 0.5826 0.23955 0.29124 0.0
C1628 C 0.60178 0.26727 0.23952 0.0
C1629 C 0.57333 0.28919 0.24101 0.0
N1630 N 0.5247 0.31025 0.27101 0.0
N1631 N 0.63871 0.22899 0.26968 0.0
C1632 C 0.54965 0.28655 0.26782 0.0
C1633 C 0.6081 0.24487 0.26671 0.0
N1634 N 0.52787 0.25285 0.31434 0.0
N1635 N 0.62171 0.26627 0.21126 0.0
H1636 H 0.64438 0.21195 0.28902 0.0
H1637 H 0.65954 0.23506 0.25477 0.0
H1638 H 0.61791 0.28157 0.19014 0.0
H1639 H 0.64015 0.24789 0.20729 0.0
H1640 H 0.50412 0.26419 0.31363 0.0
H1641 H 0.53001 0.23401 0.33271 0.0
H1642 H 0.5086 0.3117 0.29177 0.0
H1643 H 0.52186 0.33037 0.25416 0.0
C1644 C 0.78294 0.94604 0.22847 0.0
C1645 C 0.78268 0.92539 0.25781 0.0
C1646 C 0.73413 0.894 0.23578 0.0
C1647 C 0.7319 0.91704 0.20841 0.0
N1648 N 0.75143 0.96747 0.18026 0.0
N1649 N 0.75299 0.8853 0.29317 0.0
C1650 C 0.75558 0.94381 0.20514 0.0
C1651 C 0.75697 0.90079 0.2625 0.0
N1652 N 0.80975 0.96703 0.22253 0.0
N1653 N 0.71519 0.86505 0.23588 0.0
H1654 H 0.76803 0.89083 0.31411 0.0
H1655 H 0.73248 0.86979 0.2989 0.0
H1656 H 0.69847 0.85866 0.21648 0.0
H1657 H 0.71861 0.84576 0.25353 0.0
H1658 H 0.81307 0.98026 0.2 0.0
H1659 H 0.83026 0.96899 0.23905 0.0
H1660 H 0.76577 0.9895 0.17868 0.0
H1661 H 0.73187 0.96632 0.16254 0.0
C1662 C 0.39322 0.72916 0.24232 0.0
C1663 C 0.4216 0.707 0.24412 0.0
C1664 C 0.43973 0.7333 0.29736 0.0
C1665 C 0.41281 0.75678 0.29421 0.0
N1666 N 0.36431 0.77858 0.26419 0.0
N1667 N 0.47254 0.68808 0.27176 0.0
C1668 C 0.38949 0.75492 0.26698 0.0
C1669 C 0.44505 0.70907 0.27127 0.0
N1670 N 0.36986 0.72576 0.2169 0.0
N1671 N 0.4597 0.73391 0.32566 0.0
H1672 H 0.47593 0.66858 0.25432 0.0
H1673 H 0.49271 0.69056 0.2885 0.0
H1674 H 0.45694 0.75191 0.34475 0.0
H1675 H 0.47771 0.71562 0.33142 0.0
H1676 H 0.34623 0.7373 0.21701 0.0
H1677 H 0.37306 0.71033 0.19584 0.0
H1678 H 0.34947 0.78197 0.24271 0.0
H1679 H 0.35897 0.79636 0.28289 0.0
C1680 C 0.23939 0.94009 0.79612 0.0
C1681 C 0.25912 0.91019 0.79534 0.0
C1682 C 0.22947 0.8909 0.7447 0.0
C1683 C 0.20844 0.92007 0.74618 0.0
N1684 N 0.18862 0.96883 0.77686 0.0
N1685 N 0.26711 0.85328 0.77484 0.0
C1686 C 0.21199 0.94367 0.773 0.0
C1687 C 0.25224 0.88434 0.77156 0.0
N1688 N 0.24737 0.96531 0.8184 0.0
N1689 N 0.22957 0.87054 0.71669 0.0
H1690 H 0.28426 0.84743 0.79404 0.0
H1691 H 0.25996 0.83235 0.76049 0.0
H1692 H 0.21416 0.8743 0.69566 0.0
H1693 H 0.24744 0.85158 0.7128 0.0
H1694 H 0.23639 0.98923 0.81777 0.0
H1695 H 0.26665 0.963 0.83632 0.0
H1696 H 0.18796 0.98496 0.79766 0.0
H1697 H 0.1679 0.97163 0.76071 0.0
C1698 C 0.39111 0.26788 0.75354 0.0
C1699 C 0.4213 0.28742 0.75555 0.0
C1700 C 0.44575 0.25462 0.7089 0.0
C1701 C 0.41507 0.23633 0.70617 0.0
N1702 N 0.35585 0.23086 0.71997 0.0
N1703 N 0.4741 0.30464 0.7304 0.0
C1704 C 0.38687 0.24476 0.72653 0.0
C1705 C 0.44774 0.28231 0.7318 0.0
N1706 N 0.36737 0.26948 0.77859 0.0
N1707 N 0.47311 0.24509 0.6901 0.0
H1708 H 0.47571 0.32582 0.74605 0.0
H1709 H 0.4926 0.30411 0.71169 0.0
H1710 H 0.4721 0.22563 0.6723 0.0
H1711 H 0.49729 0.25491 0.69368 0.0
H1712 H 0.34724 0.25259 0.78053 0.0
H1713 H 0.36913 0.28552 0.79929 0.0
H1714 H 0.35164 0.21293 0.7011 0.0
H1715 H 0.33363 0.23934 0.73127 0.0
C1716 C 0.78135 0.05125 0.76916 0.0
C1717 C 0.77931 0.06818 0.73766 0.0
C1718 C 0.72838 0.09795 0.75586 0.0
C1719 C 0.72876 0.07917 0.7864 0.0
N1720 N 0.75222 0.03431 0.82047 0.0
N1721 N 0.74642 0.10053 0.69759 0.0
C1722 C 0.75429 0.05467 0.79259 0.0
C1723 C 0.75152 0.08949 0.72999 0.0
N1724 N 0.80947 0.0327 0.77694 0.0
N1725 N 0.70693 0.12481 0.752 0.0
H1726 H 0.76216 0.09376 0.67758 0.0
H1727 H 0.72468 0.11332 0.68991 0.0
H1728 H 0.68987 0.13245 0.77056 0.0
H1729 H 0.70833 0.14154 0.73168 0.0
H1730 H 0.81412 0.02261 0.80083 0.0
H1731 H 0.82947 0.02946 0.76005 0.0
H1732 H 0.76816 0.0138 0.82473 0.0
H1733 H 0.73278 0.03633 0.83818 0.0
C1734 C 0.5973 0.73738 0.76213 0.0
C1735 C 0.5744 0.71018 0.75744 0.0
C1736 C 0.55671 0.73391 0.703 0.0
C1737 C 0.58188 0.75927 0.70652 0.0
N1738 N 0.63152 0.78028 0.73544 0.0
N1739 N 0.53518 0.67962 0.72222 0.0
C1740 C 0.60383 0.75955 0.73489 0.0
C1741 C 0.55485 0.70756 0.72748 0.0
N1742 N 0.61148 0.74318 0.79317 0.0
N1743 N 0.53416 0.73555 0.6768 0.0
H1744 H 0.53322 0.6601 0.73988 0.0
H1745 H 0.52289 0.67454 0.69947 0.0
H1746 H 0.5352 0.75426 0.65821 0.0
H1747 H 0.51311 0.71987 0.67471 0.0
H1748 H 0.6256 0.76472 0.79881 0.0
H1749 H 0.60616 0.72841 0.81435 0.0
H1750 H 0.65022 0.77879 0.75399 0.0
H1751 H 0.63771 0.79661 0.71567 0.0
C1752 C 0.22361 0.20206 0.05765 0.0
C1753 C 0.25598 0.20828 0.07168 0.0
C1754 C 0.23563 0.26021 0.09808 0.0
C1755 C 0.20426 0.256 0.08124 0.0
N1756 N 0.16896 0.22533 0.04199 0.0
N1757 N 0.2951 0.24645 0.09909 0.0
C1758 C 0.19831 0.22751 0.06019 0.0
C1759 C 0.26267 0.23827 0.09016 0.0
N1760 N 0.21699 0.17168 0.04254 0.0
N1761 N 0.23927 0.28435 0.12261 0.0
H1762 H 0.31587 0.23133 0.09321 0.0
H1763 H 0.30182 0.26976 0.1094 0.0
H1764 H 0.21979 0.30054 0.12988 0.0
H1765 H 0.26052 0.28605 0.13815 0.0
H1766 H 0.19294 0.16418 0.03484 0.0
H1767 H 0.23529 0.15285 0.03992 0.0
H1768 H 0.16454 0.20698 0.02362 0.0
H1769 H 0.14981 0.2434 0.04355 0.0
C1770 C 0.26469 0.75519 0.90042 0.0
C1771 C 0.26049 0.77977 0.9262 0.0
C1772 C 0.208 0.75211 0.94409 0.0
C1773 C 0.21061 0.72991 0.91602 0.0
N1774 N 0.23748 0.71512 0.86319 0.0
N1775 N 0.2264 0.80463 0.97013 0.0
C1776 C 0.23778 0.73286 0.89289 0.0
C1777 C 0.23166 0.77905 0.94749 0.0
N1778 N 0.29509 0.75188 0.88435 0.0
N1779 N 0.18337 0.74698 0.96776 0.0
H1780 H 0.24321 0.82476 0.97311 0.0
H1781 H 0.2042 0.8074 0.98398 0.0
H1782 H 0.16538 0.72777 0.9657 0.0
H1783 H 0.18224 0.76006 0.99059 0.0
H1784 H 0.30056 0.73215 0.86776 0.0
H1785 H 0.31611 0.76654 0.89047 0.0
H1786 H 0.21802 0.69867 0.85635 0.0
H1787 H 0.2549 0.71925 0.84388 0.0
C1788 C 0.25757 0.23173 0.59558 0.0
C1789 C 0.28738 0.2393 0.5772 0.0
C1790 C 0.26748 0.29699 0.56731 0.0
C1791 C 0.23911 0.29015 0.58818 0.0
N1792 N 0.21057 0.25358 0.62789 0.0
N1793 N 0.32346 0.27948 0.54914 0.0
C1794 C 0.23509 0.25824 0.60397 0.0
C1795 C 0.29319 0.27208 0.56405 0.0
N1796 N 0.25013 0.199 0.60399 0.0
N1797 N 0.26931 0.32684 0.54994 0.0
H1798 H 0.34254 0.26152 0.546 0.0
H1799 H 0.33067 0.30382 0.54214 0.0
H1800 H 0.251 0.34573 0.55194 0.0
H1801 H 0.28755 0.33195 0.53168 0.0
H1802 H 0.22702 0.19157 0.61418 0.0
H1803 H 0.2658 0.17869 0.59793 0.0
H1804 H 0.20894 0.23198 0.64288 0.0
H1805 H 0.19371 0.27252 0.6351 0.0
C1806 C 0.76918 0.25622 0.88513 0.0
C1807 C 0.79059 0.26468 0.91261 0.0
C1808 C 0.76661 0.21837 0.94601 0.0
C1809 C 0.7422 0.21296 0.92019 0.0
N1810 N 0.7161 0.23183 0.86785 0.0
N1811 N 0.80872 0.25607 0.97016 0.0
C1812 C 0.74244 0.23306 0.89033 0.0
C1813 C 0.78912 0.24633 0.94337 0.0
N1814 N 0.77471 0.26979 0.85378 0.0
N1815 N 0.76887 0.19618 0.97245 0.0
H1816 H 0.82606 0.27592 0.9687 0.0
H1817 H 0.80622 0.24607 0.9944 0.0
H1818 H 0.75318 0.17508 0.97469 0.0
H1819 H 0.78811 0.19687 0.99045 0.0
H1820 H 0.76229 0.26136 0.83209 0.0
H1821 H 0.79392 0.28711 0.8487 0.0
H1822 H 0.71331 0.24898 0.84802 0.0
H1823 H 0.69511 0.21619 0.87063 0.0
C1824 C 0.70621 0.72126 0.5553 0.0
C1825 C 0.70907 0.7534 0.57085 0.0
C1826 C 0.75974 0.73511 0.60121 0.0
C1827 C 0.75901 0.70417 0.5832 0.0
N1828 N 0.73432 0.66887 0.53995 0.0
N1829 N 0.743 0.79376 0.6018 0.0
C1830 C 0.73295 0.69745 0.55933 0.0
C1831 C 0.73708 0.76115 0.59192 0.0
N1832 N 0.67772 0.71334 0.53737 0.0
N1833 N 0.78128 0.73931 0.62799 0.0
H1834 H 0.72776 0.81396 0.59435 0.0
H1835 H 0.76496 0.80131 0.6143 0.0
H1836 H 0.79784 0.72051 0.63628 0.0
H1837 H 0.78025 0.76012 0.64413 0.0
H1838 H 0.67251 0.68918 0.52828 0.0
H1839 H 0.65801 0.73051 0.53369 0.0
H1840 H 0.71802 0.66419 0.51977 0.0
H1841 H 0.7534 0.65082 0.54249 0.0
C1842 C 0.79552 0.7625 0.05615 0.0
C1843 C 0.79607 0.74263 0.08598 0.0
C1844 C 0.74392 0.76919 0.10565 0.0
C1845 C 0.74416 0.79049 0.07665 0.0
N1846 N 0.77333 0.8122 0.02771 0.0
N1847 N 0.77564 0.73203 0.1425 0.0
C1848 C 0.77089 0.78851 0.05279 0.0
C1849 C 0.77181 0.7476 0.11181 0.0
N1850 N 0.81812 0.75603 0.03083 0.0
N1851 N 0.71621 0.76794 0.12631 0.0
H1852 H 0.79533 0.71536 0.14794 0.0
H1853 H 0.76101 0.73794 0.16358 0.0
H1854 H 0.69482 0.7829 0.12299 0.0
H1855 H 0.71304 0.74977 0.14513 0.0
H1856 H 0.81669 0.76701 0.00693 0.0
H1857 H 0.83718 0.7379 0.033 0.0
H1858 H 0.79396 0.81412 0.0115 0.0
H1859 H 0.75609 0.83199 0.025 0.0
C1860 C 0.2263 0.73746 0.40453 0.0
C1861 C 0.23257 0.70443 0.41706 0.0
C1862 C 0.28783 0.72265 0.43874 0.0
C1863 C 0.28024 0.7561 0.4285 0.0
N1864 N 0.23978 0.79703 0.40796 0.0
N1865 N 0.26631 0.66649 0.45096 0.0
C1866 C 0.24865 0.76403 0.41342 0.0
C1867 C 0.26252 0.69725 0.43562 0.0
N1868 N 0.20005 0.74316 0.38268 0.0
N1869 N 0.31934 0.71512 0.45084 0.0
H1870 H 0.24818 0.64738 0.4493 0.0
H1871 H 0.286 0.66083 0.46753 0.0
H1872 H 0.33804 0.73343 0.45427 0.0
H1873 H 0.32768 0.69054 0.45528 0.0
H1874 H 0.19664 0.76589 0.3698 0.0
H1875 H 0.18344 0.72426 0.37476 0.0
H1876 H 0.21562 0.80445 0.40046 0.0
H1877 H 0.25558 0.81735 0.41375 0.0
C1878 C 0.73958 0.23953 0.3976 0.0
C1879 C 0.71465 0.24449 0.42288 0.0
C1880 C 0.74273 0.29678 0.44064 0.0
C1881 C 0.76548 0.29332 0.41314 0.0
N1882 N 0.78049 0.26573 0.36071 0.0
N1883 N 0.6893 0.27973 0.46559 0.0
C1884 C 0.7624 0.266 0.39017 0.0
C1885 C 0.71531 0.27368 0.44369 0.0
N1886 N 0.74279 0.20885 0.38199 0.0
N1887 N 0.7478 0.32164 0.46413 0.0
H1888 H 0.66879 0.26332 0.46822 0.0
H1889 H 0.68659 0.3022 0.47904 0.0
H1890 H 0.76742 0.33921 0.46234 0.0
H1891 H 0.7342 0.32336 0.48659 0.0
H1892 H 0.76277 0.20292 0.36588 0.0
H1893 H 0.72776 0.18807 0.38799 0.0
H1894 H 0.77633 0.24815 0.34151 0.0
H1895 H 0.79722 0.28492 0.35387 0.0
loop_
_geom_bond_atom_site_label_1
_geom_bond_atom_site_label_2
_geom_bond_distance
_geom_bond_site_symmetry_2
_ccdc_geom_bond_type
Co0 O3 1.970 . S
Co0 N17 1.989 . S
Co0 O25 1.967 . S
Co0 O32 1.936 . S
Co1 O4 1.966 . S
Co1 N10 2.022 . S
Co1 N18 1.993 . S
Co1 O26 1.941 . S
C2 O3 1.258 . S
C2 O4 1.263 . S
O3 Co0 1.970 . S
O3 C2 1.258 . S
O4 Co1 1.966 . S
O4 C2 1.263 . S
C5 O6 1.235 . S
C5 O32 1.273 1_655 S
O6 C5 1.235 . S
C7 C9 1.400 . S
C7 N10 1.351 . S
C7 C12 1.501 . S
C8 C9 1.387 . S
C8 N11 1.341 . S
C9 C7 1.400 . S
C9 C8 1.387 . S
N10 Co1 2.022 . S
N10 C7 1.351 . S
N10 N11 1.365 . S
N11 C8 1.341 . S
N11 N10 1.365 . S
N11 H31 0.862 . S
C12 C7 1.501 . S
C12 H13 0.961 . S
C12 H14 0.961 . S
C12 H15 0.960 . S
H13 C12 0.961 . S
H14 C12 0.961 . S
H15 C12 0.960 . S
C16 N17 1.342 . S
C16 C20 1.401 . S
C16 C21 1.499 1_455 S
N17 Co0 1.989 . S
N17 C16 1.342 . S
N17 N18 1.388 . S
N18 Co1 1.993 . S
N18 N17 1.388 . S
N18 C19 1.346 . S
C19 N18 1.346 . S
C19 C20 1.396 . S
C19 C29 1.510 . S
C20 C16 1.401 . S
C20 C19 1.396 . S
C21 C16 1.499 1_655 S
C21 H22 0.959 . S
C21 H23 0.960 . S
C21 H24 0.961 . S
H22 C21 0.959 . S
H23 C21 0.960 . S
H24 C21 0.961 . S
O25 Co0 1.967 . S
O25 C33 1.258 . S
O26 Co1 1.941 . S
O26 C33 1.266 . S
H27 C29 0.959 . S
H28 C29 0.961 . S
C29 C19 1.510 . S
C29 H27 0.959 . S
C29 H28 0.961 . S
C29 H30 0.960 . S
H30 C29 0.960 . S
H31 N11 0.862 . S
O32 Co0 1.936 . S
O32 C5 1.273 1_455 S
C33 O25 1.258 . S
C33 O26 1.266 . S
Co34 O37 1.970 . S
Co34 N51 1.989 . S
Co34 O59 1.967 . S
Co34 O66 1.920 . S
Co35 O38 1.966 . S
Co35 N44 2.022 . S
Co35 N52 1.993 . S
Co35 O60 1.941 . S
C36 O37 1.258 . S
C36 O38 1.263 . S
O37 Co34 1.970 . S
O37 C36 1.258 . S
O38 Co35 1.966 . S
O38 C36 1.263 . S
C39 O40 1.235 . S
C39 O66 1.289 . S
O40 C39 1.235 . S
C41 C43 1.400 . S
C41 N44 1.351 . S
C41 C46 1.501 . S
C42 C43 1.387 . S
C42 N45 1.341 . S
C43 C41 1.400 . S
C43 C42 1.387 . S
N44 Co35 2.022 . S
N44 C41 1.351 . S
N44 N45 1.365 . S
N45 C42 1.341 . S
N45 N44 1.365 . S
N45 H65 0.862 . S
C46 C41 1.501 . S
C46 H47 0.961 . S
C46 H48 0.961 . S
C46 H49 0.960 . S
H47 C46 0.961 . S
H48 C46 0.961 . S
H49 C46 0.960 . S
C50 N51 1.342 . S
C50 C54 1.401 . S
C50 C55 1.499 . S
N51 Co34 1.989 . S
N51 C50 1.342 . S
N51 N52 1.388 . S
N52 Co35 1.993 . S
N52 N51 1.388 . S
N52 C53 1.346 . S
C53 N52 1.346 . S
C53 C54 1.396 . S
C53 C63 1.510 . S
C54 C50 1.401 . S
C54 C53 1.396 . S
C55 C50 1.499 . S
C55 H56 0.959 . S
C55 H57 0.960 . S
C55 H58 0.961 . S
H56 C55 0.959 . S
H57 C55 0.960 . S
H58 C55 0.961 . S
O59 Co34 1.967 . S
O59 C67 1.258 . S
O60 Co35 1.941 . S
O60 C67 1.266 . S
H61 C63 0.959 . S
H62 C63 0.961 . S
C63 C53 1.510 . S
C63 H61 0.959 . S
C63 H62 0.961 . S
C63 H64 0.960 . S
H64 C63 0.960 . S
H65 N45 0.862 . S
O66 Co34 1.920 . S
O66 C39 1.289 . S
C67 O59 1.258 . S
C67 O60 1.266 . S
Co68 O71 1.970 . S
Co68 N85 1.989 . S
Co68 O93 1.967 . S
Co68 O100 1.936 . S
Co69 O72 1.966 . S
Co69 N78 2.022 . S
Co69 N86 1.993 . S
Co69 O94 1.941 . S
C70 O71 1.258 . S
C70 O72 1.263 . S
O71 Co68 1.970 . S
O71 C70 1.258 . S
O72 Co69 1.966 . S
O72 C70 1.263 . S
C73 O74 1.235 . S
C73 O100 1.273 1_455 S
O74 C73 1.235 . S
C75 C77 1.400 . S
C75 N78 1.351 . S
C75 C80 1.501 . S
C76 C77 1.387 . S
C76 N79 1.341 . S
C77 C75 1.400 . S
C77 C76 1.387 . S
N78 Co69 2.022 . S
N78 C75 1.351 . S
N78 N79 1.365 . S
N79 C76 1.341 . S
N79 N78 1.365 . S
N79 H99 0.862 . S
C80 C75 1.501 . S
C80 H81 0.961 . S
C80 H82 0.961 . S
C80 H83 0.960 . S
H81 C80 0.961 . S
H82 C80 0.961 . S
H83 C80 0.960 . S
C84 N85 1.342 . S
C84 C88 1.401 . S
C84 C89 1.499 1_655 S
N85 Co68 1.989 . S
N85 C84 1.342 . S
N85 N86 1.388 . S
N86 Co69 1.993 . S
N86 N85 1.388 . S
N86 C87 1.346 . S
C87 N86 1.346 . S
C87 C88 1.396 . S
C87 C97 1.510 . S
C88 C84 1.401 . S
C88 C87 1.396 . S
C89 C84 1.499 1_455 S
C89 H90 0.959 . S
C89 H91 0.960 . S
C89 H92 0.961 . S
H90 C89 0.959 . S
H91 C89 0.960 . S
H92 C89 0.961 . S
O93 Co68 1.967 . S
O93 C101 1.258 . S
O94 Co69 1.941 . S
O94 C101 1.266 . S
H95 C97 0.959 . S
H96 C97 0.961 . S
C97 C87 1.510 . S
C97 H95 0.959 . S
C97 H96 0.961 . S
C97 H98 0.960 . S
H98 C97 0.960 . S
H99 N79 0.862 . S
O100 Co68 1.936 . S
O100 C73 1.273 1_655 S
C101 O93 1.258 . S
C101 O94 1.266 . S
Co102 O105 1.970 . S
Co102 N119 1.989 . S
Co102 O127 1.967 . S
Co102 O134 1.920 . S
Co103 O106 1.966 . S
Co103 N112 2.022 . S
Co103 N120 1.993 . S
Co103 O128 1.941 . S
C104 O105 1.258 . S
C104 O106 1.263 . S
O105 Co102 1.970 . S
O105 C104 1.258 . S
O106 Co103 1.966 . S
O106 C104 1.263 . S
C107 O108 1.235 . S
C107 O134 1.289 . S
O108 C107 1.235 . S
C109 C111 1.400 . S
C109 N112 1.351 . S
C109 C114 1.501 . S
C110 C111 1.387 . S
C110 N113 1.341 . S
C111 C109 1.400 . S
C111 C110 1.387 . S
N112 Co103 2.022 . S
N112 C109 1.351 . S
N112 N113 1.365 . S
N113 C110 1.341 . S
N113 N112 1.365 . S
N113 H133 0.862 . S
C114 C109 1.501 . S
C114 H115 0.961 . S
C114 H116 0.961 . S
C114 H117 0.960 . S
H115 C114 0.961 . S
H116 C114 0.961 . S
H117 C114 0.960 . S
C118 N119 1.342 . S
C118 C122 1.401 . S
C118 C123 1.499 . S
N119 Co102 1.989 . S
N119 C118 1.342 . S
N119 N120 1.388 . S
N120 Co103 1.993 . S
N120 N119 1.388 . S
N120 C121 1.346 . S
C121 N120 1.346 . S
C121 C122 1.396 . S
C121 C131 1.510 . S
C122 C118 1.401 . S
C122 C121 1.396 . S
C123 C118 1.499 . S
C123 H124 0.959 . S
C123 H125 0.960 . S
C123 H126 0.961 . S
H124 C123 0.959 . S
H125 C123 0.960 . S
H126 C123 0.961 . S
O127 Co102 1.967 . S
O127 C135 1.258 . S
O128 Co103 1.941 . S
O128 C135 1.266 . S
H129 C131 0.959 . S
H130 C131 0.961 . S
C131 C121 1.510 . S
C131 H129 0.959 . S
C131 H130 0.961 . S
C131 H132 0.960 . S
H132 C131 0.960 . S
H133 N113 0.862 . S
O134 Co102 1.920 . S
O134 C107 1.289 . S
C135 O127 1.258 . S
C135 O128 1.266 . S
Co136 O139 1.970 . S
Co136 N153 1.989 . S
Co136 O161 1.967 . S
Co136 O168 1.936 . S
Co137 O140 1.966 . S
Co137 N146 2.022 . S
Co137 N154 1.993 . S
Co137 O162 1.941 . S
C138 O139 1.258 . S
C138 O140 1.263 . S
O139 Co136 1.970 . S
O139 C138 1.258 . S
O140 Co137 1.966 . S
O140 C138 1.263 . S
C141 O142 1.235 . S
C141 O168 1.273 1_655 S
O142 C141 1.235 . S
C143 C145 1.400 . S
C143 N146 1.351 . S
C143 C148 1.501 . S
C144 C145 1.387 . S
C144 N147 1.341 . S
C145 C143 1.400 . S
C145 C144 1.387 . S
N146 Co137 2.022 . S
N146 C143 1.351 . S
N146 N147 1.365 . S
N147 C144 1.341 . S
N147 N146 1.365 . S
N147 H167 0.862 . S
C148 C143 1.501 . S
C148 H149 0.961 . S
C148 H150 0.961 . S
C148 H151 0.960 . S
H149 C148 0.961 . S
H150 C148 0.961 . S
H151 C148 0.960 . S
C152 N153 1.342 . S
C152 C156 1.401 . S
C152 C157 1.499 1_455 S
N153 Co136 1.989 . S
N153 C152 1.342 . S
N153 N154 1.388 . S
N154 Co137 1.993 . S
N154 N153 1.388 . S
N154 C155 1.346 . S
C155 N154 1.346 . S
C155 C156 1.396 . S
C155 C165 1.510 . S
C156 C152 1.401 . S
C156 C155 1.396 . S
C157 C152 1.499 1_655 S
C157 H158 0.959 . S
C157 H159 0.960 . S
C157 H160 0.961 . S
H158 C157 0.959 . S
H159 C157 0.960 . S
H160 C157 0.961 . S
O161 Co136 1.967 . S
O161 C169 1.258 . S
O162 Co137 1.941 . S
O162 C169 1.266 . S
H163 C165 0.959 . S
H164 C165 0.961 . S
C165 C155 1.510 . S
C165 H163 0.959 . S
C165 H164 0.961 . S
C165 H166 0.960 . S
H166 C165 0.960 . S
H167 N147 0.862 . S
O168 Co136 1.936 . S
O168 C141 1.273 1_455 S
C169 O161 1.258 . S
C169 O162 1.266 . S
Co170 O173 1.970 . S
Co170 N187 1.989 . S
Co170 O195 1.967 . S
Co170 O202 1.920 . S
Co171 O174 1.966 . S
Co171 N180 2.022 . S
Co171 N188 1.993 . S
Co171 O196 1.941 . S
C172 O173 1.258 . S
C172 O174 1.263 . S
O173 Co170 1.970 . S
O173 C172 1.258 . S
O174 Co171 1.966 . S
O174 C172 1.263 . S
C175 O176 1.235 . S
C175 O202 1.289 . S
O176 C175 1.235 . S
C177 C179 1.400 . S
C177 N180 1.351 . S
C177 C182 1.501 . S
C178 C179 1.387 . S
C178 N181 1.341 . S
C179 C177 1.400 . S
C179 C178 1.387 . S
N180 Co171 2.022 . S
N180 C177 1.351 . S
N180 N181 1.365 . S
N181 C178 1.341 . S
N181 N180 1.365 . S
N181 H201 0.862 . S
C182 C177 1.501 . S
C182 H183 0.961 . S
C182 H184 0.961 . S
C182 H185 0.960 . S
H183 C182 0.961 . S
H184 C182 0.961 . S
H185 C182 0.960 . S
C186 N187 1.342 . S
C186 C190 1.401 . S
C186 C191 1.499 . S
N187 Co170 1.989 . S
N187 C186 1.342 . S
N187 N188 1.388 . S
N188 Co171 1.993 . S
N188 N187 1.388 . S
N188 C189 1.346 . S
C189 N188 1.346 . S
C189 C190 1.396 . S
C189 C199 1.510 . S
C190 C186 1.401 . S
C190 C189 1.396 . S
C191 C186 1.499 . S
C191 H192 0.959 . S
C191 H193 0.960 . S
C191 H194 0.961 . S
H192 C191 0.959 . S
H193 C191 0.960 . S
H194 C191 0.961 . S
O195 Co170 1.967 . S
O195 C203 1.258 . S
O196 Co171 1.941 . S
O196 C203 1.266 . S
H197 C199 0.959 . S
H198 C199 0.961 . S
C199 C189 1.510 . S
C199 H197 0.959 . S
C199 H198 0.961 . S
C199 H200 0.960 . S
H200 C199 0.960 . S
H201 N181 0.862 . S
O202 Co170 1.920 . S
O202 C175 1.289 . S
C203 O195 1.258 . S
C203 O196 1.266 . S
Co204 O207 1.970 . S
Co204 N221 1.989 . S
Co204 O229 1.967 . S
Co204 O236 1.936 . S
Co205 O208 1.966 . S
Co205 N214 2.022 . S
Co205 N222 1.993 . S
Co205 O230 1.941 . S
C206 O207 1.258 . S
C206 O208 1.263 . S
O207 Co204 1.970 . S
O207 C206 1.258 . S
O208 Co205 1.966 . S
O208 C206 1.263 . S
C209 O210 1.235 . S
C209 O236 1.273 1_455 S
O210 C209 1.235 . S
C211 C213 1.400 . S
C211 N214 1.351 . S
C211 C216 1.501 . S
C212 C213 1.387 . S
C212 N215 1.341 . S
C213 C211 1.400 . S
C213 C212 1.387 . S
N214 Co205 2.022 . S
N214 C211 1.351 . S
N214 N215 1.365 . S
N215 C212 1.341 . S
N215 N214 1.365 . S
N215 H235 0.862 . S
C216 C211 1.501 . S
C216 H217 0.961 . S
C216 H218 0.961 . S
C216 H219 0.960 . S
H217 C216 0.961 . S
H218 C216 0.961 . S
H219 C216 0.960 . S
C220 N221 1.342 . S
C220 C224 1.401 . S
C220 C225 1.499 1_655 S
N221 Co204 1.989 . S
N221 C220 1.342 . S
N221 N222 1.388 . S
N222 Co205 1.993 . S
N222 N221 1.388 . S
N222 C223 1.346 . S
C223 N222 1.346 . S
C223 C224 1.396 . S
C223 C233 1.510 . S
C224 C220 1.401 . S
C224 C223 1.396 . S
C225 C220 1.499 1_455 S
C225 H226 0.959 . S
C225 H227 0.960 . S
C225 H228 0.961 . S
H226 C225 0.959 . S
H227 C225 0.960 . S
H228 C225 0.961 . S
O229 Co204 1.967 . S
O229 C237 1.258 . S
O230 Co205 1.941 . S
O230 C237 1.266 . S
H231 C233 0.959 . S
H232 C233 0.961 . S
C233 C223 1.510 . S
C233 H231 0.959 . S
C233 H232 0.961 . S
C233 H234 0.960 . S
H234 C233 0.960 . S
H235 N215 0.862 . S
O236 Co204 1.936 . S
O236 C209 1.273 1_655 S
C237 O229 1.258 . S
C237 O230 1.266 . S
Co238 O241 1.970 . S
Co238 N255 1.989 . S
Co238 O263 1.967 . S
Co238 O270 1.920 . S
Co239 O242 1.966 . S
Co239 N248 2.022 . S
Co239 N256 1.993 . S
Co239 O264 1.941 . S
C240 O241 1.258 . S
C240 O242 1.263 . S
O241 Co238 1.970 . S
O241 C240 1.258 . S
O242 Co239 1.966 . S
O242 C240 1.263 . S
C243 O244 1.235 . S
C243 O270 1.289 . S
O244 C243 1.235 . S
C245 C247 1.400 . S
C245 N248 1.351 . S
C245 C250 1.501 . S
C246 C247 1.387 . S
C246 N249 1.341 . S
C247 C245 1.400 . S
C247 C246 1.387 . S
N248 Co239 2.022 . S
N248 C245 1.351 . S
N248 N249 1.365 . S
N249 C246 1.341 . S
N249 N248 1.365 . S
N249 H269 0.862 . S
C250 C245 1.501 . S
C250 H251 0.961 . S
C250 H252 0.961 . S
C250 H253 0.960 . S
H251 C250 0.961 . S
H252 C250 0.961 . S
H253 C250 0.960 . S
C254 N255 1.342 . S
C254 C258 1.401 . S
C254 C259 1.499 . S
N255 Co238 1.989 . S
N255 C254 1.342 . S
N255 N256 1.388 . S
N256 Co239 1.993 . S
N256 N255 1.388 . S
N256 C257 1.346 . S
C257 N256 1.346 . S
C257 C258 1.396 . S
C257 C267 1.510 . S
C258 C254 1.401 . S
C258 C257 1.396 . S
C259 C254 1.499 . S
C259 H260 0.959 . S
C259 H261 0.960 . S
C259 H262 0.961 . S
H260 C259 0.959 . S
H261 C259 0.960 . S
H262 C259 0.961 . S
O263 Co238 1.967 . S
O263 C271 1.258 . S
O264 Co239 1.941 . S
O264 C271 1.266 . S
H265 C267 0.959 . S
H266 C267 0.961 . S
C267 C257 1.510 . S
C267 H265 0.959 . S
C267 H266 0.961 . S
C267 H268 0.960 . S
H268 C267 0.960 . S
H269 N249 0.862 . S
O270 Co238 1.920 . S
O270 C243 1.289 . S
C271 O263 1.258 . S
C271 O264 1.266 . S
Co272 O275 1.970 . S
Co272 N289 1.989 . S
Co272 O297 1.967 . S
Co272 O304 1.936 . S
Co273 O276 1.966 . S
Co273 N282 2.022 . S
Co273 N290 1.993 . S
Co273 O298 1.941 . S
C274 O275 1.258 . S
C274 O276 1.263 . S
O275 Co272 1.970 . S
O275 C274 1.258 . S
O276 Co273 1.966 . S
O276 C274 1.263 . S
C277 O278 1.235 . S
C277 O304 1.273 1_565 S
O278 C277 1.235 . S
C279 C281 1.400 . S
C279 N282 1.351 . S
C279 C284 1.501 . S
C280 C281 1.387 . S
C280 N283 1.341 . S
C281 C279 1.400 . S
C281 C280 1.387 . S
N282 Co273 2.022 . S
N282 C279 1.351 . S
N282 N283 1.365 . S
N283 C280 1.341 . S
N283 N282 1.365 . S
N283 H303 0.862 . S
C284 C279 1.501 . S
C284 H285 0.961 . S
C284 H286 0.961 . S
C284 H287 0.960 . S
H285 C284 0.961 . S
H286 C284 0.961 . S
H287 C284 0.960 . S
C288 N289 1.342 . S
C288 C292 1.401 . S
C288 C293 1.499 1_545 S
N289 Co272 1.989 . S
N289 C288 1.342 . S
N289 N290 1.388 . S
N290 Co273 1.993 . S
N290 N289 1.388 . S
N290 C291 1.346 . S
C291 N290 1.346 . S
C291 C292 1.396 . S
C291 C301 1.510 . S
C292 C288 1.401 . S
C292 C291 1.396 . S
C293 C288 1.499 1_565 S
C293 H294 0.959 . S
C293 H295 0.960 . S
C293 H296 0.961 . S
H294 C293 0.959 . S
H295 C293 0.960 . S
H296 C293 0.961 . S
O297 Co272 1.967 . S
O297 C305 1.258 . S
O298 Co273 1.941 . S
O298 C305 1.266 . S
H299 C301 0.959 . S
H300 C301 0.961 . S
C301 C291 1.510 . S
C301 H299 0.959 . S
C301 H300 0.961 . S
C301 H302 0.960 . S
H302 C301 0.960 . S
H303 N283 0.862 . S
O304 Co272 1.936 . S
O304 C277 1.273 1_545 S
C305 O297 1.258 . S
C305 O298 1.266 . S
Co306 O309 1.970 . S
Co306 N323 1.989 . S
Co306 O331 1.967 . S
Co306 O338 1.920 . S
Co307 O310 1.966 . S
Co307 N316 2.022 . S
Co307 N324 1.993 . S
Co307 O332 1.941 . S
C308 O309 1.258 . S
C308 O310 1.263 . S
O309 Co306 1.970 . S
O309 C308 1.258 . S
O310 Co307 1.966 . S
O310 C308 1.263 . S
C311 O312 1.235 . S
C311 O338 1.289 . S
O312 C311 1.235 . S
C313 C315 1.400 . S
C313 N316 1.351 . S
C313 C318 1.501 . S
C314 C315 1.387 . S
C314 N317 1.341 . S
C315 C313 1.400 . S
C315 C314 1.387 . S
N316 Co307 2.022 . S
N316 C313 1.351 . S
N316 N317 1.365 . S
N317 C314 1.341 . S
N317 N316 1.365 . S
N317 H337 0.862 . S
C318 C313 1.501 . S
C318 H319 0.961 . S
C318 H320 0.961 . S
C318 H321 0.960 . S
H319 C318 0.961 . S
H320 C318 0.961 . S
H321 C318 0.960 . S
C322 N323 1.342 . S
C322 C326 1.401 . S
C322 C327 1.499 . S
N323 Co306 1.989 . S
N323 C322 1.342 . S
N323 N324 1.388 . S
N324 Co307 1.993 . S
N324 N323 1.388 . S
N324 C325 1.346 . S
C325 N324 1.346 . S
C325 C326 1.396 . S
C325 C335 1.510 . S
C326 C322 1.401 . S
C326 C325 1.396 . S
C327 C322 1.499 . S
C327 H328 0.959 . S
C327 H329 0.960 . S
C327 H330 0.961 . S
H328 C327 0.959 . S
H329 C327 0.960 . S
H330 C327 0.961 . S
O331 Co306 1.967 . S
O331 C339 1.258 . S
O332 Co307 1.941 . S
O332 C339 1.266 . S
H333 C335 0.959 . S
H334 C335 0.961 . S
C335 C325 1.510 . S
C335 H333 0.959 . S
C335 H334 0.961 . S
C335 H336 0.960 . S
H336 C335 0.960 . S
H337 N317 0.862 . S
O338 Co306 1.920 . S
O338 C311 1.289 . S
C339 O331 1.258 . S
C339 O332 1.266 . S
Co340 O343 1.970 . S
Co340 N357 1.989 . S
Co340 O365 1.967 . S
Co340 O372 1.936 . S
Co341 O344 1.966 . S
Co341 N350 2.022 . S
Co341 N358 1.993 . S
Co341 O366 1.941 . S
C342 O343 1.258 . S
C342 O344 1.263 . S
O343 Co340 1.970 . S
O343 C342 1.258 . S
O344 Co341 1.966 . S
O344 C342 1.263 . S
C345 O346 1.235 . S
C345 O372 1.273 1_545 S
O346 C345 1.235 . S
C347 C349 1.400 . S
C347 N350 1.351 . S
C347 C352 1.501 . S
C348 C349 1.387 . S
C348 N351 1.341 . S
C349 C347 1.400 . S
C349 C348 1.387 . S
N350 Co341 2.022 . S
N350 C347 1.351 . S
N350 N351 1.365 . S
N351 C348 1.341 . S
N351 N350 1.365 . S
N351 H371 0.862 . S
C352 C347 1.501 . S
C352 H353 0.961 . S
C352 H354 0.961 . S
C352 H355 0.960 . S
H353 C352 0.961 . S
H354 C352 0.961 . S
H355 C352 0.960 . S
C356 N357 1.342 . S
C356 C360 1.401 . S
C356 C361 1.499 1_565 S
N357 Co340 1.989 . S
N357 C356 1.342 . S
N357 N358 1.388 . S
N358 Co341 1.993 . S
N358 N357 1.388 . S
N358 C359 1.346 . S
C359 N358 1.346 . S
C359 C360 1.396 . S
C359 C369 1.510 . S
C360 C356 1.401 . S
C360 C359 1.396 . S
C361 C356 1.499 1_545 S
C361 H362 0.959 . S
C361 H363 0.960 . S
C361 H364 0.961 . S
H362 C361 0.959 . S
H363 C361 0.960 . S
H364 C361 0.961 . S
O365 Co340 1.967 . S
O365 C373 1.258 . S
O366 Co341 1.941 . S
O366 C373 1.266 . S
H367 C369 0.959 . S
H368 C369 0.961 . S
C369 C359 1.510 . S
C369 H367 0.959 . S
C369 H368 0.961 . S
C369 H370 0.960 . S
H370 C369 0.960 . S
H371 N351 0.862 . S
O372 Co340 1.936 . S
O372 C345 1.273 1_565 S
C373 O365 1.258 . S
C373 O366 1.266 . S
Co374 O377 1.970 . S
Co374 N391 1.989 . S
Co374 O399 1.967 . S
Co374 O406 1.920 . S
Co375 O378 1.966 . S
Co375 N384 2.022 . S
Co375 N392 1.993 . S
Co375 O400 1.941 . S
C376 O377 1.258 . S
C376 O378 1.263 . S
O377 Co374 1.970 . S
O377 C376 1.258 . S
O378 Co375 1.966 . S
O378 C376 1.263 . S
C379 O380 1.235 . S
C379 O406 1.289 . S
O380 C379 1.235 . S
C381 C383 1.400 . S
C381 N384 1.351 . S
C381 C386 1.501 . S
C382 C383 1.387 . S
C382 N385 1.341 . S
C383 C381 1.400 . S
C383 C382 1.387 . S
N384 Co375 2.022 . S
N384 C381 1.351 . S
N384 N385 1.365 . S
N385 C382 1.341 . S
N385 N384 1.365 . S
N385 H405 0.862 . S
C386 C381 1.501 . S
C386 H387 0.961 . S
C386 H388 0.961 . S
C386 H389 0.960 . S
H387 C386 0.961 . S
H388 C386 0.961 . S
H389 C386 0.960 . S
C390 N391 1.342 . S
C390 C394 1.401 . S
C390 C395 1.499 . S
N391 Co374 1.989 . S
N391 C390 1.342 . S
N391 N392 1.388 . S
N392 Co375 1.993 . S
N392 N391 1.388 . S
N392 C393 1.346 . S
C393 N392 1.346 . S
C393 C394 1.396 . S
C393 C403 1.510 . S
C394 C390 1.401 . S
C394 C393 1.396 . S
C395 C390 1.499 . S
C395 H396 0.959 . S
C395 H397 0.960 . S
C395 H398 0.961 . S
H396 C395 0.959 . S
H397 C395 0.960 . S
H398 C395 0.961 . S
O399 Co374 1.967 . S
O399 C407 1.258 . S
O400 Co375 1.941 . S
O400 C407 1.266 . S
H401 C403 0.959 . S
H402 C403 0.961 . S
C403 C393 1.510 . S
C403 H401 0.959 . S
C403 H402 0.961 . S
C403 H404 0.960 . S
H404 C403 0.960 . S
H405 N385 0.862 . S
O406 Co374 1.920 . S
O406 C379 1.289 . S
C407 O399 1.258 . S
C407 O400 1.266 . S
Co408 O411 1.970 . S
Co408 N425 1.989 . S
Co408 O433 1.967 . S
Co408 O440 1.936 . S
Co409 O412 1.966 . S
Co409 N418 2.022 . S
Co409 N426 1.993 . S
Co409 O434 1.941 . S
C410 O411 1.258 . S
C410 O412 1.263 . S
O411 Co408 1.970 . S
O411 C410 1.258 . S
O412 Co409 1.966 . S
O412 C410 1.263 . S
C413 O414 1.235 . S
C413 O440 1.273 1_545 S
O414 C413 1.235 . S
C415 C417 1.400 . S
C415 N418 1.351 . S
C415 C420 1.501 . S
C416 C417 1.387 . S
C416 N419 1.341 . S
C417 C415 1.400 . S
C417 C416 1.387 . S
N418 Co409 2.022 . S
N418 C415 1.351 . S
N418 N419 1.365 . S
N419 C416 1.341 . S
N419 N418 1.365 . S
N419 H439 0.862 . S
C420 C415 1.501 . S
C420 H421 0.961 . S
C420 H422 0.961 . S
C420 H423 0.960 . S
H421 C420 0.961 . S
H422 C420 0.961 . S
H423 C420 0.960 . S
C424 N425 1.342 . S
C424 C428 1.401 . S
C424 C429 1.499 1_565 S
N425 Co408 1.989 . S
N425 C424 1.342 . S
N425 N426 1.388 . S
N426 Co409 1.993 . S
N426 N425 1.388 . S
N426 C427 1.346 . S
C427 N426 1.346 . S
C427 C428 1.396 . S
C427 C437 1.510 . S
C428 C424 1.401 . S
C428 C427 1.396 . S
C429 C424 1.499 1_545 S
C429 H430 0.959 . S
C429 H431 0.960 . S
C429 H432 0.961 . S
H430 C429 0.959 . S
H431 C429 0.960 . S
H432 C429 0.961 . S
O433 Co408 1.967 . S
O433 C441 1.258 . S
O434 Co409 1.941 . S
O434 C441 1.266 . S
H435 C437 0.959 . S
H436 C437 0.961 . S
C437 C427 1.510 . S
C437 H435 0.959 . S
C437 H436 0.961 . S
C437 H438 0.960 . S
H438 C437 0.960 . S
H439 N419 0.862 . S
O440 Co408 1.936 . S
O440 C413 1.273 1_565 S
C441 O433 1.258 . S
C441 O434 1.266 . S
Co442 O445 1.970 . S
Co442 N459 1.989 . S
Co442 O467 1.967 . S
Co442 O474 1.920 . S
Co443 O446 1.966 . S
Co443 N452 2.022 . S
Co443 N460 1.993 . S
Co443 O468 1.941 . S
C444 O445 1.258 . S
C444 O446 1.263 . S
O445 Co442 1.970 . S
O445 C444 1.258 . S
O446 Co443 1.966 . S
O446 C444 1.263 . S
C447 O448 1.235 . S
C447 O474 1.289 . S
O448 C447 1.235 . S
C449 C451 1.400 . S
C449 N452 1.351 . S
C449 C454 1.501 . S
C450 C451 1.387 . S
C450 N453 1.341 . S
C451 C449 1.400 . S
C451 C450 1.387 . S
N452 Co443 2.022 . S
N452 C449 1.351 . S
N452 N453 1.365 . S
N453 C450 1.341 . S
N453 N452 1.365 . S
N453 H473 0.862 . S
C454 C449 1.501 . S
C454 H455 0.961 . S
C454 H456 0.961 . S
C454 H457 0.960 . S
H455 C454 0.961 . S
H456 C454 0.961 . S
H457 C454 0.960 . S
C458 N459 1.342 . S
C458 C462 1.401 . S
C458 C463 1.499 . S
N459 Co442 1.989 . S
N459 C458 1.342 . S
N459 N460 1.388 . S
N460 Co443 1.993 . S
N460 N459 1.388 . S
N460 C461 1.346 . S
C461 N460 1.346 . S
C461 C462 1.396 . S
C461 C471 1.510 . S
C462 C458 1.401 . S
C462 C461 1.396 . S
C463 C458 1.499 . S
C463 H464 0.959 . S
C463 H465 0.960 . S
C463 H466 0.961 . S
H464 C463 0.959 . S
H465 C463 0.960 . S
H466 C463 0.961 . S
O467 Co442 1.967 . S
O467 C475 1.258 . S
O468 Co443 1.941 . S
O468 C475 1.266 . S
H469 C471 0.959 . S
H470 C471 0.961 . S
C471 C461 1.510 . S
C471 H469 0.959 . S
C471 H470 0.961 . S
C471 H472 0.960 . S
H472 C471 0.960 . S
H473 N453 0.862 . S
O474 Co442 1.920 . S
O474 C447 1.289 . S
C475 O467 1.258 . S
C475 O468 1.266 . S
Co476 O479 1.970 . S
Co476 N493 1.989 . S
Co476 O501 1.967 . S
Co476 O508 1.936 . S
Co477 O480 1.966 . S
Co477 N486 2.022 . S
Co477 N494 1.993 . S
Co477 O502 1.941 . S
C478 O479 1.258 . S
C478 O480 1.263 . S
O479 Co476 1.970 . S
O479 C478 1.258 . S
O480 Co477 1.966 . S
O480 C478 1.263 . S
C481 O482 1.235 . S
C481 O508 1.273 1_565 S
O482 C481 1.235 . S
C483 C485 1.400 . S
C483 N486 1.351 . S
C483 C488 1.501 . S
C484 C485 1.387 . S
C484 N487 1.341 . S
C485 C483 1.400 . S
C485 C484 1.387 . S
N486 Co477 2.022 . S
N486 C483 1.351 . S
N486 N487 1.365 . S
N487 C484 1.341 . S
N487 N486 1.365 . S
N487 H507 0.862 . S
C488 C483 1.501 . S
C488 H489 0.961 . S
C488 H490 0.961 . S
C488 H491 0.960 . S
H489 C488 0.961 . S
H490 C488 0.961 . S
H491 C488 0.960 . S
C492 N493 1.342 . S
C492 C496 1.401 . S
C492 C497 1.499 1_545 S
N493 Co476 1.989 . S
N493 C492 1.342 . S
N493 N494 1.388 . S
N494 Co477 1.993 . S
N494 N493 1.388 . S
N494 C495 1.346 . S
C495 N494 1.346 . S
C495 C496 1.396 . S
C495 C505 1.510 . S
C496 C492 1.401 . S
C496 C495 1.396 . S
C497 C492 1.499 1_565 S
C497 H498 0.959 . S
C497 H499 0.960 . S
C497 H500 0.961 . S
H498 C497 0.959 . S
H499 C497 0.960 . S
H500 C497 0.961 . S
O501 Co476 1.967 . S
O501 C509 1.258 . S
O502 Co477 1.941 . S
O502 C509 1.266 . S
H503 C505 0.959 . S
H504 C505 0.961 . S
C505 C495 1.510 . S
C505 H503 0.959 . S
C505 H504 0.961 . S
C505 H506 0.960 . S
H506 C505 0.960 . S
H507 N487 0.862 . S
O508 Co476 1.936 . S
O508 C481 1.273 1_545 S
C509 O501 1.258 . S
C509 O502 1.266 . S
Co510 O513 1.970 . S
Co510 N527 1.989 . S
Co510 O535 1.967 . S
Co510 O542 1.920 . S
Co511 O514 1.966 . S
Co511 N520 2.022 . S
Co511 N528 1.993 . S
Co511 O536 1.941 . S
C512 O513 1.258 . S
C512 O514 1.263 . S
O513 Co510 1.970 . S
O513 C512 1.258 . S
O514 Co511 1.966 . S
O514 C512 1.263 . S
C515 O516 1.235 . S
C515 O542 1.289 . S
O516 C515 1.235 . S
C517 C519 1.400 . S
C517 N520 1.351 . S
C517 C522 1.501 . S
C518 C519 1.387 . S
C518 N521 1.341 . S
C519 C517 1.400 . S
C519 C518 1.387 . S
N520 Co511 2.022 . S
N520 C517 1.351 . S
N520 N521 1.365 . S
N521 C518 1.341 . S
N521 N520 1.365 . S
N521 H541 0.862 . S
C522 C517 1.501 . S
C522 H523 0.961 . S
C522 H524 0.961 . S
C522 H525 0.960 . S
H523 C522 0.961 . S
H524 C522 0.961 . S
H525 C522 0.960 . S
C526 N527 1.342 . S
C526 C530 1.401 . S
C526 C531 1.499 . S
N527 Co510 1.989 . S
N527 C526 1.342 . S
N527 N528 1.388 . S
N528 Co511 1.993 . S
N528 N527 1.388 . S
N528 C529 1.346 . S
C529 N528 1.346 . S
C529 C530 1.396 . S
C529 C539 1.510 . S
C530 C526 1.401 . S
C530 C529 1.396 . S
C531 C526 1.499 . S
C531 H532 0.959 . S
C531 H533 0.960 . S
C531 H534 0.961 . S
H532 C531 0.959 . S
H533 C531 0.960 . S
H534 C531 0.961 . S
O535 Co510 1.967 . S
O535 C543 1.258 . S
O536 Co511 1.941 . S
O536 C543 1.266 . S
H537 C539 0.959 . S
H538 C539 0.961 . S
C539 C529 1.510 . S
C539 H537 0.959 . S
C539 H538 0.961 . S
C539 H540 0.960 . S
H540 C539 0.960 . S
H541 N521 0.862 . S
O542 Co510 1.920 . S
O542 C515 1.289 . S
C543 O535 1.258 . S
C543 O536 1.266 . S
Co544 O547 1.970 . S
Co544 N561 1.989 . S
Co544 O569 1.967 . S
Co544 O576 1.936 . S
Co545 O548 1.966 . S
Co545 N554 2.022 . S
Co545 N562 1.993 . S
Co545 O570 1.941 . S
C546 O547 1.258 . S
C546 O548 1.263 . S
O547 Co544 1.970 . S
O547 C546 1.258 . S
O548 Co545 1.966 . S
O548 C546 1.263 . S
C549 O550 1.235 . S
C549 O576 1.273 1_556 S
O550 C549 1.235 . S
C551 C553 1.400 . S
C551 N554 1.351 . S
C551 C556 1.501 . S
C552 C553 1.387 . S
C552 N555 1.341 . S
C553 C551 1.400 . S
C553 C552 1.387 . S
N554 Co545 2.022 . S
N554 C551 1.351 . S
N554 N555 1.365 . S
N555 C552 1.341 . S
N555 N554 1.365 . S
N555 H575 0.862 . S
C556 C551 1.501 . S
C556 H557 0.961 . S
C556 H558 0.961 . S
C556 H559 0.960 . S
H557 C556 0.961 . S
H558 C556 0.961 . S
H559 C556 0.960 . S
C560 N561 1.342 . S
C560 C564 1.401 . S
C560 C565 1.499 1_554 S
N561 Co544 1.989 . S
N561 C560 1.342 . S
N561 N562 1.388 . S
N562 Co545 1.993 . S
N562 N561 1.388 . S
N562 C563 1.346 . S
C563 N562 1.346 . S
C563 C564 1.396 . S
C563 C573 1.510 . S
C564 C560 1.401 . S
C564 C563 1.396 . S
C565 C560 1.499 1_556 S
C565 H566 0.959 . S
C565 H567 0.960 . S
C565 H568 0.961 . S
H566 C565 0.959 . S
H567 C565 0.960 . S
H568 C565 0.961 . S
O569 Co544 1.967 . S
O569 C577 1.258 . S
O570 Co545 1.941 . S
O570 C577 1.266 . S
H571 C573 0.959 . S
H572 C573 0.961 . S
C573 C563 1.510 . S
C573 H571 0.959 . S
C573 H572 0.961 . S
C573 H574 0.960 . S
H574 C573 0.960 . S
H575 N555 0.862 . S
O576 Co544 1.936 . S
O576 C549 1.273 1_554 S
C577 O569 1.258 . S
C577 O570 1.266 . S
Co578 O581 1.970 . S
Co578 N595 1.989 . S
Co578 O603 1.967 . S
Co578 O610 1.936 . S
Co579 O582 1.966 . S
Co579 N588 2.022 . S
Co579 N596 1.993 . S
Co579 O604 1.941 . S
C580 O581 1.258 . S
C580 O582 1.263 . S
O581 Co578 1.970 . S
O581 C580 1.258 . S
O582 Co579 1.966 . S
O582 C580 1.263 . S
C583 O584 1.235 . S
C583 O610 1.273 1_554 S
O584 C583 1.235 . S
C585 C587 1.400 . S
C585 N588 1.351 . S
C585 C590 1.501 . S
C586 C587 1.387 . S
C586 N589 1.341 . S
C587 C585 1.400 . S
C587 C586 1.387 . S
N588 Co579 2.022 . S
N588 C585 1.351 . S
N588 N589 1.365 . S
N589 C586 1.341 . S
N589 N588 1.365 . S
N589 H609 0.862 . S
C590 C585 1.501 . S
C590 H591 0.961 . S
C590 H592 0.961 . S
C590 H593 0.960 . S
H591 C590 0.961 . S
H592 C590 0.961 . S
H593 C590 0.960 . S
C594 N595 1.342 . S
C594 C598 1.401 . S
C594 C599 1.499 1_556 S
N595 Co578 1.989 . S
N595 C594 1.342 . S
N595 N596 1.388 . S
N596 Co579 1.993 . S
N596 N595 1.388 . S
N596 C597 1.346 . S
C597 N596 1.346 . S
C597 C598 1.396 . S
C597 C607 1.510 . S
C598 C594 1.401 . S
C598 C597 1.396 . S
C599 C594 1.499 1_554 S
C599 H600 0.959 . S
C599 H601 0.960 . S
C599 H602 0.961 . S
H600 C599 0.959 . S
H601 C599 0.960 . S
H602 C599 0.961 . S
O603 Co578 1.967 . S
O603 C611 1.258 . S
O604 Co579 1.941 . S
O604 C611 1.266 . S
H605 C607 0.959 . S
H606 C607 0.961 . S
C607 C597 1.510 . S
C607 H605 0.959 . S
C607 H606 0.961 . S
C607 H608 0.960 . S
H608 C607 0.960 . S
H609 N589 0.862 . S
O610 Co578 1.936 . S
O610 C583 1.273 1_556 S
C611 O603 1.258 . S
C611 O604 1.266 . S
Co612 O615 1.970 . S
Co612 N629 1.989 . S
Co612 O637 1.967 . S
Co612 O644 1.920 . S
Co613 O616 1.966 . S
Co613 N622 2.022 . S
Co613 N630 1.993 . S
Co613 O638 1.941 . S
C614 O615 1.258 . S
C614 O616 1.263 . S
O615 Co612 1.970 . S
O615 C614 1.258 . S
O616 Co613 1.966 . S
O616 C614 1.263 . S
C617 O618 1.235 . S
C617 O644 1.289 . S
O618 C617 1.235 . S
C619 C621 1.400 . S
C619 N622 1.351 . S
C619 C624 1.501 . S
C620 C621 1.387 . S
C620 N623 1.341 . S
C621 C619 1.400 . S
C621 C620 1.387 . S
N622 Co613 2.022 . S
N622 C619 1.351 . S
N622 N623 1.365 . S
N623 C620 1.341 . S
N623 N622 1.365 . S
N623 H643 0.862 . S
C624 C619 1.501 . S
C624 H625 0.961 . S
C624 H626 0.961 . S
C624 H627 0.960 . S
H625 C624 0.961 . S
H626 C624 0.961 . S
H627 C624 0.960 . S
C628 N629 1.342 . S
C628 C632 1.401 . S
C628 C633 1.499 . S
N629 Co612 1.989 . S
N629 C628 1.342 . S
N629 N630 1.388 . S
N630 Co613 1.993 . S
N630 N629 1.388 . S
N630 C631 1.346 . S
C631 N630 1.346 . S
C631 C632 1.396 . S
C631 C641 1.510 . S
C632 C628 1.401 . S
C632 C631 1.396 . S
C633 C628 1.499 . S
C633 H634 0.959 . S
C633 H635 0.960 . S
C633 H636 0.961 . S
H634 C633 0.959 . S
H635 C633 0.960 . S
H636 C633 0.961 . S
O637 Co612 1.967 . S
O637 C645 1.258 . S
O638 Co613 1.941 . S
O638 C645 1.266 . S
H639 C641 0.959 . S
H640 C641 0.961 . S
C641 C631 1.510 . S
C641 H639 0.959 . S
C641 H640 0.961 . S
C641 H642 0.960 . S
H642 C641 0.960 . S
H643 N623 0.862 . S
O644 Co612 1.920 . S
O644 C617 1.289 . S
C645 O637 1.258 . S
C645 O638 1.266 . S
Co646 O649 1.970 . S
Co646 N663 1.989 . S
Co646 O671 1.967 . S
Co646 O678 1.936 . S
Co647 O650 1.966 . S
Co647 N656 2.022 . S
Co647 N664 1.993 . S
Co647 O672 1.941 . S
C648 O649 1.258 . S
C648 O650 1.263 . S
O649 Co646 1.970 . S
O649 C648 1.258 . S
O650 Co647 1.966 . S
O650 C648 1.263 . S
C651 O652 1.235 . S
C651 O678 1.273 1_554 S
O652 C651 1.235 . S
C653 C655 1.400 . S
C653 N656 1.351 . S
C653 C658 1.501 . S
C654 C655 1.387 . S
C654 N657 1.341 . S
C655 C653 1.400 . S
C655 C654 1.387 . S
N656 Co647 2.022 . S
N656 C653 1.351 . S
N656 N657 1.365 . S
N657 C654 1.341 . S
N657 N656 1.365 . S
N657 H677 0.862 . S
C658 C653 1.501 . S
C658 H659 0.961 . S
C658 H660 0.961 . S
C658 H661 0.960 . S
H659 C658 0.961 . S
H660 C658 0.961 . S
H661 C658 0.960 . S
C662 N663 1.342 . S
C662 C666 1.401 . S
C662 C667 1.499 1_556 S
N663 Co646 1.989 . S
N663 C662 1.342 . S
N663 N664 1.388 . S
N664 Co647 1.993 . S
N664 N663 1.388 . S
N664 C665 1.346 . S
C665 N664 1.346 . S
C665 C666 1.396 . S
C665 C675 1.510 . S
C666 C662 1.401 . S
C666 C665 1.396 . S
C667 C662 1.499 1_554 S
C667 H668 0.959 . S
C667 H669 0.960 . S
C667 H670 0.961 . S
H668 C667 0.959 . S
H669 C667 0.960 . S
H670 C667 0.961 . S
O671 Co646 1.967 . S
O671 C679 1.258 . S
O672 Co647 1.941 . S
O672 C679 1.266 . S
H673 C675 0.959 . S
H674 C675 0.961 . S
C675 C665 1.510 . S
C675 H673 0.959 . S
C675 H674 0.961 . S
C675 H676 0.960 . S
H676 C675 0.960 . S
H677 N657 0.862 . S
O678 Co646 1.936 . S
O678 C651 1.273 1_556 S
C679 O671 1.258 . S
C679 O672 1.266 . S
Co680 O683 1.970 . S
Co680 N697 1.989 . S
Co680 O705 1.967 . S
Co680 O712 1.920 . S
Co681 O684 1.966 . S
Co681 N690 2.022 . S
Co681 N698 1.993 . S
Co681 O706 1.941 . S
C682 O683 1.258 . S
C682 O684 1.263 . S
O683 Co680 1.970 . S
O683 C682 1.258 . S
O684 Co681 1.966 . S
O684 C682 1.263 . S
C685 O686 1.235 . S
C685 O712 1.289 . S
O686 C685 1.235 . S
C687 C689 1.400 . S
C687 N690 1.351 . S
C687 C692 1.501 . S
C688 C689 1.387 . S
C688 N691 1.341 . S
C689 C687 1.400 . S
C689 C688 1.387 . S
N690 Co681 2.022 . S
N690 C687 1.351 . S
N690 N691 1.365 . S
N691 C688 1.341 . S
N691 N690 1.365 . S
N691 H711 0.862 . S
C692 C687 1.501 . S
C692 H693 0.961 . S
C692 H694 0.961 . S
C692 H695 0.960 . S
H693 C692 0.961 . S
H694 C692 0.961 . S
H695 C692 0.960 . S
C696 N697 1.342 . S
C696 C700 1.401 . S
C696 C701 1.499 . S
N697 Co680 1.989 . S
N697 C696 1.342 . S
N697 N698 1.388 . S
N698 Co681 1.993 . S
N698 N697 1.388 . S
N698 C699 1.346 . S
C699 N698 1.346 . S
C699 C700 1.396 . S
C699 C709 1.510 . S
C700 C696 1.401 . S
C700 C699 1.396 . S
C701 C696 1.499 . S
C701 H702 0.959 . S
C701 H703 0.960 . S
C701 H704 0.961 . S
H702 C701 0.959 . S
H703 C701 0.960 . S
H704 C701 0.961 . S
O705 Co680 1.967 . S
O705 C713 1.258 . S
O706 Co681 1.941 . S
O706 C713 1.266 . S
H707 C709 0.959 . S
H708 C709 0.961 . S
C709 C699 1.510 . S
C709 H707 0.959 . S
C709 H708 0.961 . S
C709 H710 0.960 . S
H710 C709 0.960 . S
H711 N691 0.862 . S
O712 Co680 1.920 . S
O712 C685 1.289 . S
C713 O705 1.258 . S
C713 O706 1.266 . S
Co714 O717 1.970 . S
Co714 N731 1.989 . S
Co714 O739 1.967 . S
Co714 O746 1.936 . S
Co715 O718 1.966 . S
Co715 N724 2.022 . S
Co715 N732 1.993 . S
Co715 O740 1.941 . S
C716 O717 1.258 . S
C716 O718 1.263 . S
O717 Co714 1.970 . S
O717 C716 1.258 . S
O718 Co715 1.966 . S
O718 C716 1.263 . S
C719 O720 1.235 . S
C719 O746 1.273 1_556 S
O720 C719 1.235 . S
C721 C723 1.400 . S
C721 N724 1.351 . S
C721 C726 1.501 . S
C722 C723 1.387 . S
C722 N725 1.341 . S
C723 C721 1.400 . S
C723 C722 1.387 . S
N724 Co715 2.022 . S
N724 C721 1.351 . S
N724 N725 1.365 . S
N725 C722 1.341 . S
N725 N724 1.365 . S
N725 H745 0.862 . S
C726 C721 1.501 . S
C726 H727 0.961 . S
C726 H728 0.961 . S
C726 H729 0.960 . S
H727 C726 0.961 . S
H728 C726 0.961 . S
H729 C726 0.960 . S
C730 N731 1.342 . S
C730 C734 1.401 . S
C730 C735 1.499 1_554 S
N731 Co714 1.989 . S
N731 C730 1.342 . S
N731 N732 1.388 . S
N732 Co715 1.993 . S
N732 N731 1.388 . S
N732 C733 1.346 . S
C733 N732 1.346 . S
C733 C734 1.396 . S
C733 C743 1.510 . S
C734 C730 1.401 . S
C734 C733 1.396 . S
C735 C730 1.499 1_556 S
C735 H736 0.959 . S
C735 H737 0.960 . S
C735 H738 0.961 . S
H736 C735 0.959 . S
H737 C735 0.960 . S
H738 C735 0.961 . S
O739 Co714 1.967 . S
O739 C747 1.258 . S
O740 Co715 1.941 . S
O740 C747 1.266 . S
H741 C743 0.959 . S
H742 C743 0.961 . S
C743 C733 1.510 . S
C743 H741 0.959 . S
C743 H742 0.961 . S
C743 H744 0.960 . S
H744 C743 0.960 . S
H745 N725 0.862 . S
O746 Co714 1.936 . S
O746 C719 1.273 1_554 S
C747 O739 1.258 . S
C747 O740 1.266 . S
Co748 O751 1.970 . S
Co748 N765 1.989 . S
Co748 O773 1.967 . S
Co748 O780 1.920 . S
Co749 O752 1.966 . S
Co749 N758 2.022 . S
Co749 N766 1.993 . S
Co749 O774 1.941 . S
C750 O751 1.258 . S
C750 O752 1.263 . S
O751 Co748 1.970 . S
O751 C750 1.258 . S
O752 Co749 1.966 . S
O752 C750 1.263 . S
C753 O754 1.235 . S
C753 O780 1.289 . S
O754 C753 1.235 . S
C755 C757 1.400 . S
C755 N758 1.351 . S
C755 C760 1.501 . S
C756 C757 1.387 . S
C756 N759 1.341 . S
C757 C755 1.400 . S
C757 C756 1.387 . S
N758 Co749 2.022 . S
N758 C755 1.351 . S
N758 N759 1.365 . S
N759 C756 1.341 . S
N759 N758 1.365 . S
N759 H779 0.862 . S
C760 C755 1.501 . S
C760 H761 0.961 . S
C760 H762 0.961 . S
C760 H763 0.960 . S
H761 C760 0.961 . S
H762 C760 0.961 . S
H763 C760 0.960 . S
C764 N765 1.342 . S
C764 C768 1.401 . S
C764 C769 1.499 . S
N765 Co748 1.989 . S
N765 C764 1.342 . S
N765 N766 1.388 . S
N766 Co749 1.993 . S
N766 N765 1.388 . S
N766 C767 1.346 . S
C767 N766 1.346 . S
C767 C768 1.396 . S
C767 C777 1.510 . S
C768 C764 1.401 . S
C768 C767 1.396 . S
C769 C764 1.499 . S
C769 H770 0.959 . S
C769 H771 0.960 . S
C769 H772 0.961 . S
H770 C769 0.959 . S
H771 C769 0.960 . S
H772 C769 0.961 . S
O773 Co748 1.967 . S
O773 C781 1.258 . S
O774 Co749 1.941 . S
O774 C781 1.266 . S
H775 C777 0.959 . S
H776 C777 0.961 . S
C777 C767 1.510 . S
C777 H775 0.959 . S
C777 H776 0.961 . S
C777 H778 0.960 . S
H778 C777 0.960 . S
H779 N759 0.862 . S
O780 Co748 1.920 . S
O780 C753 1.289 . S
C781 O773 1.258 . S
C781 O774 1.266 . S
Co782 O785 1.970 . S
Co782 N799 1.989 . S
Co782 O807 1.967 . S
Co782 O814 1.920 . S
Co783 O786 1.966 . S
Co783 N792 2.022 . S
Co783 N800 1.993 . S
Co783 O808 1.941 . S
C784 O785 1.258 . S
C784 O786 1.263 . S
O785 Co782 1.970 . S
O785 C784 1.258 . S
O786 Co783 1.966 . S
O786 C784 1.263 . S
C787 O788 1.235 . S
C787 O814 1.289 . S
O788 C787 1.235 . S
C789 C791 1.400 . S
C789 N792 1.351 . S
C789 C794 1.501 . S
C790 C791 1.387 . S
C790 N793 1.341 . S
C791 C789 1.400 . S
C791 C790 1.387 . S
N792 Co783 2.022 . S
N792 C789 1.351 . S
N792 N793 1.365 . S
N793 C790 1.341 . S
N793 N792 1.365 . S
N793 H813 0.862 . S
C794 C789 1.501 . S
C794 H795 0.961 . S
C794 H796 0.961 . S
C794 H797 0.960 . S
H795 C794 0.961 . S
H796 C794 0.961 . S
H797 C794 0.960 . S
C798 N799 1.342 . S
C798 C802 1.401 . S
C798 C803 1.499 . S
N799 Co782 1.989 . S
N799 C798 1.342 . S
N799 N800 1.388 . S
N800 Co783 1.993 . S
N800 N799 1.388 . S
N800 C801 1.346 . S
C801 N800 1.346 . S
C801 C802 1.396 . S
C801 C811 1.510 . S
C802 C798 1.401 . S
C802 C801 1.396 . S
C803 C798 1.499 . S
C803 H804 0.959 . S
C803 H805 0.960 . S
C803 H806 0.961 . S
H804 C803 0.959 . S
H805 C803 0.960 . S
H806 C803 0.961 . S
O807 Co782 1.967 . S
O807 C815 1.258 . S
O808 Co783 1.941 . S
O808 C815 1.266 . S
H809 C811 0.959 . S
H810 C811 0.961 . S
C811 C801 1.510 . S
C811 H809 0.959 . S
C811 H810 0.961 . S
C811 H812 0.960 . S
H812 C811 0.960 . S
H813 N793 0.862 . S
O814 Co782 1.920 . S
O814 C787 1.289 . S
C815 O807 1.258 . S
C815 O808 1.266 . S
C816 C817 1.363 . S
C816 C822 1.379 . S
C816 N824 1.356 . S
C817 C816 1.363 . S
C817 C823 1.363 . S
C818 C819 1.363 . S
C818 C823 1.379 . S
C818 N825 1.356 . S
C819 C818 1.363 . S
C819 C822 1.363 . S
N820 C822 1.356 . S
N820 H832 0.984 . S
N820 H833 0.985 . S
N821 C823 1.356 . S
N821 H826 0.984 . S
N821 H827 0.985 . S
C822 C816 1.379 . S
C822 C819 1.363 . S
C822 N820 1.356 . S
C823 C817 1.363 . S
C823 C818 1.379 . S
C823 N821 1.356 . S
N824 C816 1.356 . S
N824 H830 0.984 . S
N824 H831 0.984 . S
N825 C818 1.356 . S
N825 H828 0.984 . S
N825 H829 0.985 . S
H826 N821 0.984 . S
H827 N821 0.985 . S
H828 N825 0.984 . S
H829 N825 0.985 . S
H830 N824 0.984 . S
H831 N824 0.984 . S
H832 N820 0.984 . S
H833 N820 0.985 . S
C834 C835 1.363 . S
C834 C840 1.379 . S
C834 N842 1.356 . S
C835 C834 1.363 . S
C835 C841 1.363 . S
C836 C837 1.363 . S
C836 C841 1.379 . S
C836 N843 1.356 . S
C837 C836 1.363 . S
C837 C840 1.363 . S
N838 C840 1.356 . S
N838 H850 0.984 . S
N838 H851 0.985 . S
N839 C841 1.356 . S
N839 H844 0.984 . S
N839 H845 0.985 . S
C840 C834 1.379 . S
C840 C837 1.363 . S
C840 N838 1.356 . S
C841 C835 1.363 . S
C841 C836 1.379 . S
C841 N839 1.356 . S
N842 C834 1.356 . S
N842 H848 0.984 1_655 S
N842 H849 0.984 1_655 S
N843 C836 1.356 . S
N843 H846 0.984 . S
N843 H847 0.985 . S
H844 N839 0.984 . S
H845 N839 0.985 . S
H846 N843 0.984 . S
H847 N843 0.985 . S
H848 N842 0.984 1_455 S
H849 N842 0.984 1_455 S
H850 N838 0.984 . S
H851 N838 0.985 . S
C852 C853 1.363 . S
C852 C858 1.379 . S
C852 N860 1.356 . S
C853 C852 1.363 . S
C853 C859 1.363 . S
C854 C855 1.363 . S
C854 C859 1.379 . S
C854 N861 1.356 . S
C855 C854 1.363 . S
C855 C858 1.363 . S
N856 C858 1.356 . S
N856 H868 0.984 . S
N856 H869 0.985 . S
N857 C859 1.356 . S
N857 H862 0.984 . S
N857 H863 0.985 . S
C858 C852 1.379 . S
C858 C855 1.363 . S
C858 N856 1.356 . S
C859 C853 1.363 . S
C859 C854 1.379 . S
C859 N857 1.356 . S
N860 C852 1.356 . S
N860 H866 0.984 . S
N860 H867 0.984 . S
N861 C854 1.356 . S
N861 H864 0.984 . S
N861 H865 0.985 . S
H862 N857 0.984 . S
H863 N857 0.985 . S
H864 N861 0.984 . S
H865 N861 0.985 . S
H866 N860 0.984 . S
H867 N860 0.984 . S
H868 N856 0.984 . S
H869 N856 0.985 . S
C870 C871 1.363 . S
C870 C876 1.379 . S
C870 N878 1.356 . S
C871 C870 1.363 . S
C871 C877 1.363 . S
C872 C873 1.363 . S
C872 C877 1.379 . S
C872 N879 1.356 . S
C873 C872 1.363 . S
C873 C876 1.363 . S
N874 C876 1.356 . S
N874 H886 0.984 . S
N874 H887 0.985 . S
N875 C877 1.356 . S
N875 H880 0.984 . S
N875 H881 0.985 . S
C876 C870 1.379 . S
C876 C873 1.363 . S
C876 N874 1.356 . S
C877 C871 1.363 . S
C877 C872 1.379 . S
C877 N875 1.356 . S
N878 C870 1.356 . S
N878 H884 0.984 . S
N878 H885 0.984 . S
N879 C872 1.356 . S
N879 H882 0.984 . S
N879 H883 0.985 . S
H880 N875 0.984 . S
H881 N875 0.985 . S
H882 N879 0.984 . S
H883 N879 0.985 . S
H884 N878 0.984 . S
H885 N878 0.984 . S
H886 N874 0.984 . S
H887 N874 0.985 . S
C888 C889 1.363 . S
C888 C894 1.379 . S
C888 N896 1.356 . S
C889 C888 1.363 . S
C889 C895 1.363 . S
C890 C891 1.363 . S
C890 C895 1.379 . S
C890 N897 1.356 . S
C891 C890 1.363 . S
C891 C894 1.363 . S
N892 C894 1.356 . S
N892 H904 0.984 . S
N892 H905 0.985 . S
N893 C895 1.356 . S
N893 H898 0.984 . S
N893 H899 0.985 . S
C894 C888 1.379 . S
C894 C891 1.363 . S
C894 N892 1.356 . S
C895 C889 1.363 . S
C895 C890 1.379 . S
C895 N893 1.356 . S
N896 C888 1.356 . S
N896 H902 0.984 . S
N896 H903 0.984 . S
N897 C890 1.356 . S
N897 H900 0.984 . S
N897 H901 0.985 . S
H898 N893 0.984 . S
H899 N893 0.985 . S
H900 N897 0.984 . S
H901 N897 0.985 . S
H902 N896 0.984 . S
H903 N896 0.984 . S
H904 N892 0.984 . S
H905 N892 0.985 . S
C906 C907 1.363 . S
C906 C912 1.379 . S
C906 N914 1.356 . S
C907 C906 1.363 . S
C907 C913 1.363 . S
C908 C909 1.363 . S
C908 C913 1.379 . S
C908 N915 1.356 . S
C909 C908 1.363 . S
C909 C912 1.363 . S
N910 C912 1.356 . S
N910 H922 0.984 . S
N910 H923 0.985 . S
N911 C913 1.356 . S
N911 H916 0.984 . S
N911 H917 0.985 . S
C912 C906 1.379 . S
C912 C909 1.363 . S
C912 N910 1.356 . S
C913 C907 1.363 . S
C913 C908 1.379 . S
C913 N911 1.356 . S
N914 C906 1.356 . S
N914 H920 0.984 1_455 S
N914 H921 0.984 . S
N915 C908 1.356 . S
N915 H918 0.984 . S
N915 H919 0.985 . S
H916 N911 0.984 . S
H917 N911 0.985 . S
H918 N915 0.984 . S
H919 N915 0.985 . S
H920 N914 0.984 1_655 S
H921 N914 0.984 . S
H922 N910 0.984 . S
H923 N910 0.985 . S
C924 C925 1.363 . S
C924 C930 1.379 . S
C924 N932 1.356 . S
C925 C924 1.363 . S
C925 C931 1.363 . S
C926 C927 1.363 . S
C926 C931 1.379 . S
C926 N933 1.356 . S
C927 C926 1.363 . S
C927 C930 1.363 . S
N928 C930 1.356 . S
N928 H940 0.984 . S
N928 H941 0.985 . S
N929 C931 1.356 . S
N929 H934 0.984 . S
N929 H935 0.985 . S
C930 C924 1.379 . S
C930 C927 1.363 . S
C930 N928 1.356 . S
C931 C925 1.363 . S
C931 C926 1.379 . S
C931 N929 1.356 . S
N932 C924 1.356 . S
N932 H938 0.984 . S
N932 H939 0.984 . S
N933 C926 1.356 . S
N933 H936 0.984 . S
N933 H937 0.985 . S
H934 N929 0.984 . S
H935 N929 0.985 . S
H936 N933 0.984 . S
H937 N933 0.985 . S
H938 N932 0.984 . S
H939 N932 0.984 . S
H940 N928 0.984 . S
H941 N928 0.985 . S
C942 C943 1.363 . S
C942 C948 1.379 . S
C942 N950 1.356 . S
C943 C942 1.363 . S
C943 C949 1.363 . S
C944 C945 1.363 . S
C944 C949 1.379 . S
C944 N951 1.356 . S
C945 C944 1.363 . S
C945 C948 1.363 . S
N946 C948 1.356 . S
N946 H958 0.984 . S
N946 H959 0.985 . S
N947 C949 1.356 . S
N947 H952 0.984 . S
N947 H953 0.985 . S
C948 C942 1.379 . S
C948 C945 1.363 . S
C948 N946 1.356 . S
C949 C943 1.363 . S
C949 C944 1.379 . S
C949 N947 1.356 . S
N950 C942 1.356 . S
N950 H956 0.984 1_655 S
N950 H957 0.984 . S
N951 C944 1.356 . S
N951 H954 0.984 . S
N951 H955 0.985 . S
H952 N947 0.984 . S
H953 N947 0.985 . S
H954 N951 0.984 . S
H955 N951 0.985 . S
H956 N950 0.984 1_455 S
H957 N950 0.984 . S
H958 N946 0.984 . S
H959 N946 0.985 . S
C960 C961 1.363 . S
C960 C966 1.379 . S
C960 N968 1.356 . S
C961 C960 1.363 . S
C961 C967 1.363 . S
C962 C963 1.363 . S
C962 C967 1.379 . S
C962 N969 1.356 . S
C963 C962 1.363 . S
C963 C966 1.363 . S
N964 C966 1.356 . S
N964 H976 0.984 . S
N964 H977 0.985 . S
N965 C967 1.356 . S
N965 H970 0.984 . S
N965 H971 0.985 . S
C966 C960 1.379 . S
C966 C963 1.363 . S
C966 N964 1.356 . S
C967 C961 1.363 . S
C967 C962 1.379 . S
C967 N965 1.356 . S
N968 C960 1.356 . S
N968 H974 0.984 . S
N968 H975 0.984 . S
N969 C962 1.356 . S
N969 H972 0.984 . S
N969 H973 0.985 . S
H970 N965 0.984 . S
H971 N965 0.985 . S
H972 N969 0.984 . S
H973 N969 0.985 . S
H974 N968 0.984 . S
H975 N968 0.984 . S
H976 N964 0.984 . S
H977 N964 0.985 . S
C978 C979 1.363 . S
C978 C984 1.379 . S
C978 N986 1.356 . S
C979 C978 1.363 . S
C979 C985 1.363 . S
C980 C981 1.363 . S
C980 C985 1.379 . S
C980 N987 1.356 . S
C981 C980 1.363 . S
C981 C984 1.363 . S
N982 C984 1.356 . S
N982 H994 0.984 . S
N982 H995 0.985 . S
N983 C985 1.356 . S
N983 H988 0.984 . S
N983 H989 0.985 . S
C984 C978 1.379 . S
C984 C981 1.363 . S
C984 N982 1.356 . S
C985 C979 1.363 . S
C985 C980 1.379 . S
C985 N983 1.356 . S
N986 C978 1.356 . S
N986 H992 0.984 . S
N986 H993 0.984 . S
N987 C980 1.356 . S
N987 H990 0.984 . S
N987 H991 0.985 . S
H988 N983 0.984 . S
H989 N983 0.985 . S
H990 N987 0.984 . S
H991 N987 0.985 . S
H992 N986 0.984 . S
H993 N986 0.984 . S
H994 N982 0.984 . S
H995 N982 0.985 . S
C996 C997 1.363 . S
C996 C1002 1.379 . S
C996 N1004 1.356 . S
C997 C996 1.363 . S
C997 C1003 1.363 . S
C998 C999 1.363 . S
C998 C1003 1.379 . S
C998 N1005 1.356 . S
C999 C998 1.363 . S
C999 C1002 1.363 . S
N1000 C1002 1.356 . S
N1000 H1012 0.984 . S
N1000 H1013 0.985 . S
N1001 C1003 1.356 . S
N1001 H1006 0.984 . S
N1001 H1007 0.985 . S
C1002 C996 1.379 . S
C1002 C999 1.363 . S
C1002 N1000 1.356 . S
C1003 C997 1.363 . S
C1003 C998 1.379 . S
C1003 N1001 1.356 . S
N1004 C996 1.356 . S
N1004 H1010 0.984 . S
N1004 H1011 0.984 . S
N1005 C998 1.356 . S
N1005 H1008 0.984 . S
N1005 H1009 0.985 . S
H1006 N1001 0.984 . S
H1007 N1001 0.985 . S
H1008 N1005 0.984 . S
H1009 N1005 0.985 . S
H1010 N1004 0.984 . S
H1011 N1004 0.984 . S
H1012 N1000 0.984 . S
H1013 N1000 0.985 . S
C1014 C1015 1.363 . S
C1014 C1020 1.379 . S
C1014 N1022 1.356 . S
C1015 C1014 1.363 . S
C1015 C1021 1.363 . S
C1016 C1017 1.363 . S
C1016 C1021 1.379 . S
C1016 N1023 1.356 . S
C1017 C1016 1.363 . S
C1017 C1020 1.363 . S
N1018 C1020 1.356 . S
N1018 H1030 0.984 . S
N1018 H1031 0.985 . S
N1019 C1021 1.356 . S
N1019 H1024 0.984 . S
N1019 H1025 0.985 . S
C1020 C1014 1.379 . S
C1020 C1017 1.363 . S
C1020 N1018 1.356 . S
C1021 C1015 1.363 . S
C1021 C1016 1.379 . S
C1021 N1019 1.356 . S
N1022 C1014 1.356 . S
N1022 H1028 0.984 . S
N1022 H1029 0.984 . S
N1023 C1016 1.356 . S
N1023 H1026 0.984 . S
N1023 H1027 0.985 . S
H1024 N1019 0.984 . S
H1025 N1019 0.985 . S
H1026 N1023 0.984 . S
H1027 N1023 0.985 . S
H1028 N1022 0.984 . S
H1029 N1022 0.984 . S
H1030 N1018 0.984 . S
H1031 N1018 0.985 . S
C1032 C1033 1.363 . S
C1032 C1038 1.379 . S
C1032 N1040 1.356 . S
C1033 C1032 1.363 . S
C1033 C1039 1.363 . S
C1034 C1035 1.363 . S
C1034 C1039 1.379 . S
C1034 N1041 1.356 . S
C1035 C1034 1.363 . S
C1035 C1038 1.363 . S
N1036 C1038 1.356 . S
N1036 H1048 0.984 . S
N1036 H1049 0.985 . S
N1037 C1039 1.356 . S
N1037 H1042 0.984 . S
N1037 H1043 0.985 . S
C1038 C1032 1.379 . S
C1038 C1035 1.363 . S
C1038 N1036 1.356 . S
C1039 C1033 1.363 . S
C1039 C1034 1.379 . S
C1039 N1037 1.356 . S
N1040 C1032 1.356 . S
N1040 H1046 0.984 . S
N1040 H1047 0.984 . S
N1041 C1034 1.356 . S
N1041 H1044 0.984 . S
N1041 H1045 0.985 . S
H1042 N1037 0.984 . S
H1043 N1037 0.985 . S
H1044 N1041 0.984 . S
H1045 N1041 0.985 . S
H1046 N1040 0.984 . S
H1047 N1040 0.984 . S
H1048 N1036 0.984 . S
H1049 N1036 0.985 . S
C1050 C1051 1.363 . S
C1050 C1056 1.379 . S
C1050 N1058 1.356 . S
C1051 C1050 1.363 . S
C1051 C1057 1.363 . S
C1052 C1053 1.363 . S
C1052 C1057 1.379 . S
C1052 N1059 1.356 . S
C1053 C1052 1.363 . S
C1053 C1056 1.363 . S
N1054 C1056 1.356 . S
N1054 H1066 0.984 1_556 S
N1054 H1067 0.985 1_556 S
N1055 C1057 1.356 . S
N1055 H1060 0.984 . S
N1055 H1061 0.985 . S
C1056 C1050 1.379 . S
C1056 C1053 1.363 . S
C1056 N1054 1.356 . S
C1057 C1051 1.363 . S
C1057 C1052 1.379 . S
C1057 N1055 1.356 . S
N1058 C1050 1.356 . S
N1058 H1064 0.984 . S
N1058 H1065 0.984 . S
N1059 C1052 1.356 . S
N1059 H1062 0.984 . S
N1059 H1063 0.985 . S
H1060 N1055 0.984 . S
H1061 N1055 0.985 . S
H1062 N1059 0.984 . S
H1063 N1059 0.985 . S
H1064 N1058 0.984 . S
H1065 N1058 0.984 . S
H1066 N1054 0.984 1_554 S
H1067 N1054 0.985 1_554 S
C1068 C1069 1.363 . S
C1068 C1074 1.379 . S
C1068 N1076 1.356 . S
C1069 C1068 1.363 . S
C1069 C1075 1.363 . S
C1070 C1071 1.363 . S
C1070 C1075 1.379 . S
C1070 N1077 1.356 . S
C1071 C1070 1.363 . S
C1071 C1074 1.363 . S
N1072 C1074 1.356 . S
N1072 H1084 0.984 . S
N1072 H1085 0.985 . S
N1073 C1075 1.356 . S
N1073 H1078 0.984 . S
N1073 H1079 0.985 . S
C1074 C1068 1.379 . S
C1074 C1071 1.363 . S
C1074 N1072 1.356 . S
C1075 C1069 1.363 . S
C1075 C1070 1.379 . S
C1075 N1073 1.356 . S
N1076 C1068 1.356 . S
N1076 H1082 0.984 . S
N1076 H1083 0.984 . S
N1077 C1070 1.356 . S
N1077 H1080 0.984 . S
N1077 H1081 0.985 . S
H1078 N1073 0.984 . S
H1079 N1073 0.985 . S
H1080 N1077 0.984 . S
H1081 N1077 0.985 . S
H1082 N1076 0.984 . S
H1083 N1076 0.984 . S
H1084 N1072 0.984 . S
H1085 N1072 0.985 . S
C1086 C1087 1.363 . S
C1086 C1092 1.379 . S
C1086 N1094 1.356 . S
C1087 C1086 1.363 . S
C1087 C1093 1.363 . S
C1088 C1089 1.363 . S
C1088 C1093 1.379 . S
C1088 N1095 1.356 . S
C1089 C1088 1.363 . S
C1089 C1092 1.363 . S
N1090 C1092 1.356 . S
N1090 H1102 0.984 . S
N1090 H1103 0.985 . S
N1091 C1093 1.356 . S
N1091 H1096 0.984 . S
N1091 H1097 0.985 . S
C1092 C1086 1.379 . S
C1092 C1089 1.363 . S
C1092 N1090 1.356 . S
C1093 C1087 1.363 . S
C1093 C1088 1.379 . S
C1093 N1091 1.356 . S
N1094 C1086 1.356 . S
N1094 H1100 0.984 1_556 S
N1094 H1101 0.988 . S
N1095 C1088 1.356 . S
N1095 H1098 0.984 . S
N1095 H1099 0.985 . S
H1096 N1091 0.984 . S
H1097 N1091 0.985 . S
H1098 N1095 0.984 . S
H1099 N1095 0.985 . S
H1100 N1094 0.984 1_554 S
H1101 N1094 0.988 . S
H1102 N1090 0.984 . S
H1103 N1090 0.985 . S
C1104 C1105 1.363 . S
C1104 C1110 1.379 . S
C1104 N1112 1.356 . S
C1105 C1104 1.363 . S
C1105 C1111 1.363 . S
C1106 C1107 1.363 . S
C1106 C1111 1.379 . S
C1106 N1113 1.356 . S
C1107 C1106 1.363 . S
C1107 C1110 1.363 . S
N1108 C1110 1.356 . S
N1108 H1120 0.984 . S
N1108 H1121 0.985 . S
N1109 C1111 1.356 . S
N1109 H1114 0.984 . S
N1109 H1115 0.985 . S
C1110 C1104 1.379 . S
C1110 C1107 1.363 . S
C1110 N1108 1.356 . S
C1111 C1105 1.363 . S
C1111 C1106 1.379 . S
C1111 N1109 1.356 . S
N1112 C1104 1.356 . S
N1112 H1118 0.984 . S
N1112 H1119 0.984 . S
N1113 C1106 1.356 . S
N1113 H1116 0.984 . S
N1113 H1117 0.985 . S
H1114 N1109 0.984 . S
H1115 N1109 0.985 . S
H1116 N1113 0.984 . S
H1117 N1113 0.985 . S
H1118 N1112 0.984 . S
H1119 N1112 0.984 . S
H1120 N1108 0.984 . S
H1121 N1108 0.985 . S
C1122 C1123 1.363 . S
C1122 C1128 1.379 . S
C1122 N1130 1.356 . S
C1123 C1122 1.363 . S
C1123 C1129 1.363 . S
C1124 C1125 1.363 . S
C1124 C1129 1.379 . S
C1124 N1131 1.356 . S
C1125 C1124 1.363 . S
C1125 C1128 1.363 . S
N1126 C1128 1.356 . S
N1126 H1138 0.984 . S
N1126 H1139 0.985 . S
N1127 C1129 1.356 . S
N1127 H1132 0.984 . S
N1127 H1133 0.985 . S
C1128 C1122 1.379 . S
C1128 C1125 1.363 . S
C1128 N1126 1.356 . S
C1129 C1123 1.363 . S
C1129 C1124 1.379 . S
C1129 N1127 1.356 . S
N1130 C1122 1.356 . S
N1130 H1136 0.984 . S
N1130 H1137 0.984 . S
N1131 C1124 1.356 . S
N1131 H1134 0.984 . S
N1131 H1135 0.985 . S
H1132 N1127 0.984 . S
H1133 N1127 0.985 . S
H1134 N1131 0.984 . S
H1135 N1131 0.985 . S
H1136 N1130 0.984 . S
H1137 N1130 0.984 . S
H1138 N1126 0.984 . S
H1139 N1126 0.985 . S
C1140 C1141 1.363 . S
C1140 C1146 1.379 . S
C1140 N1148 1.356 . S
C1141 C1140 1.363 . S
C1141 C1147 1.363 . S
C1142 C1143 1.363 . S
C1142 C1147 1.379 . S
C1142 N1149 1.356 . S
C1143 C1142 1.363 . S
C1143 C1146 1.363 . S
N1144 C1146 1.356 . S
N1144 H1156 0.984 . S
N1144 H1157 0.985 . S
N1145 C1147 1.356 . S
N1145 H1150 0.984 . S
N1145 H1151 0.985 . S
C1146 C1140 1.379 . S
C1146 C1143 1.363 . S
C1146 N1144 1.356 . S
C1147 C1141 1.363 . S
C1147 C1142 1.379 . S
C1147 N1145 1.356 . S
N1148 C1140 1.356 . S
N1148 H1154 0.984 1_545 S
N1148 H1155 0.984 . S
N1149 C1142 1.356 . S
N1149 H1152 0.984 . S
N1149 H1153 0.985 . S
H1150 N1145 0.984 . S
H1151 N1145 0.985 . S
H1152 N1149 0.984 . S
H1153 N1149 0.985 . S
H1154 N1148 0.984 1_565 S
H1155 N1148 0.984 . S
H1156 N1144 0.984 . S
H1157 N1144 0.985 . S
C1158 C1159 1.363 . S
C1158 C1164 1.379 . S
C1158 N1166 1.356 . S
C1159 C1158 1.363 . S
C1159 C1165 1.363 . S
C1160 C1161 1.363 . S
C1160 C1165 1.379 . S
C1160 N1167 1.356 . S
C1161 C1160 1.363 . S
C1161 C1164 1.363 . S
N1162 C1164 1.356 . S
N1162 H1174 0.984 . S
N1162 H1175 0.985 . S
N1163 C1165 1.356 . S
N1163 H1168 0.984 . S
N1163 H1169 0.985 . S
C1164 C1158 1.379 . S
C1164 C1161 1.363 . S
C1164 N1162 1.356 . S
C1165 C1159 1.363 . S
C1165 C1160 1.379 . S
C1165 N1163 1.356 . S
N1166 C1158 1.356 . S
N1166 H1172 0.984 . S
N1166 H1173 0.984 . S
N1167 C1160 1.356 . S
N1167 H1170 0.984 . S
N1167 H1171 0.985 . S
H1168 N1163 0.984 . S
H1169 N1163 0.985 . S
H1170 N1167 0.984 . S
H1171 N1167 0.985 . S
H1172 N1166 0.984 . S
H1173 N1166 0.984 . S
H1174 N1162 0.984 . S
H1175 N1162 0.985 . S
C1176 C1177 1.363 . S
C1176 C1182 1.379 . S
C1176 N1184 1.356 . S
C1177 C1176 1.363 . S
C1177 C1183 1.363 . S
C1178 C1179 1.363 . S
C1178 C1183 1.379 . S
C1178 N1185 1.356 . S
C1179 C1178 1.363 . S
C1179 C1182 1.363 . S
N1180 C1182 1.356 . S
N1180 H1192 0.984 . S
N1180 H1193 0.985 . S
N1181 C1183 1.356 . S
N1181 H1186 0.984 . S
N1181 H1187 0.985 . S
C1182 C1176 1.379 . S
C1182 C1179 1.363 . S
C1182 N1180 1.356 . S
C1183 C1177 1.363 . S
C1183 C1178 1.379 . S
C1183 N1181 1.356 . S
N1184 C1176 1.356 . S
N1184 H1190 0.984 1_565 S
N1184 H1191 0.984 1_565 S
N1185 C1178 1.356 . S
N1185 H1188 0.984 . S
N1185 H1189 0.985 . S
H1186 N1181 0.984 . S
H1187 N1181 0.985 . S
H1188 N1185 0.984 . S
H1189 N1185 0.985 . S
H1190 N1184 0.984 1_545 S
H1191 N1184 0.984 1_545 S
H1192 N1180 0.984 . S
H1193 N1180 0.985 . S
C1194 C1195 1.363 . S
C1194 C1200 1.379 . S
C1194 N1202 1.356 . S
C1195 C1194 1.363 . S
C1195 C1201 1.363 . S
C1196 C1197 1.363 . S
C1196 C1201 1.379 . S
C1196 N1203 1.356 . S
C1197 C1196 1.363 . S
C1197 C1200 1.363 . S
N1198 C1200 1.356 . S
N1198 H1210 0.984 . S
N1198 H1211 0.985 . S
N1199 C1201 1.356 . S
N1199 H1204 0.984 . S
N1199 H1205 0.985 . S
C1200 C1194 1.379 . S
C1200 C1197 1.363 . S
C1200 N1198 1.356 . S
C1201 C1195 1.363 . S
C1201 C1196 1.379 . S
C1201 N1199 1.356 . S
N1202 C1194 1.356 . S
N1202 H1208 0.984 . S
N1202 H1209 0.984 . S
N1203 C1196 1.356 . S
N1203 H1206 0.984 . S
N1203 H1207 0.985 . S
H1204 N1199 0.984 . S
H1205 N1199 0.985 . S
H1206 N1203 0.984 . S
H1207 N1203 0.985 . S
H1208 N1202 0.984 . S
H1209 N1202 0.984 . S
H1210 N1198 0.984 . S
H1211 N1198 0.985 . S
C1212 C1213 1.363 . S
C1212 C1218 1.379 . S
C1212 N1220 1.356 . S
C1213 C1212 1.363 . S
C1213 C1219 1.363 . S
C1214 C1215 1.363 . S
C1214 C1219 1.379 . S
C1214 N1221 1.356 . S
C1215 C1214 1.363 . S
C1215 C1218 1.363 . S
N1216 C1218 1.356 . S
N1216 H1228 0.984 . S
N1216 H1229 0.985 . S
N1217 C1219 1.356 . S
N1217 H1222 0.984 . S
N1217 H1223 0.985 . S
C1218 C1212 1.379 . S
C1218 C1215 1.363 . S
C1218 N1216 1.356 . S
C1219 C1213 1.363 . S
C1219 C1214 1.379 . S
C1219 N1217 1.356 . S
N1220 C1212 1.356 . S
N1220 H1226 0.984 1_565 S
N1220 H1227 0.984 1_565 S
N1221 C1214 1.356 . S
N1221 H1224 0.984 . S
N1221 H1225 0.985 . S
H1222 N1217 0.984 . S
H1223 N1217 0.985 . S
H1224 N1221 0.984 . S
H1225 N1221 0.985 . S
H1226 N1220 0.984 1_545 S
H1227 N1220 0.984 1_545 S
H1228 N1216 0.984 . S
H1229 N1216 0.985 . S
C1230 C1231 1.363 . S
C1230 C1236 1.379 . S
C1230 N1238 1.356 . S
C1231 C1230 1.363 . S
C1231 C1237 1.363 . S
C1232 C1233 1.363 . S
C1232 C1237 1.379 . S
C1232 N1239 1.356 . S
C1233 C1232 1.363 . S
C1233 C1236 1.363 . S
N1234 C1236 1.356 . S
N1234 H1246 0.984 . S
N1234 H1247 0.985 . S
N1235 C1237 1.356 . S
N1235 H1240 0.984 . S
N1235 H1241 0.983 . S
C1236 C1230 1.379 . S
C1236 C1233 1.363 . S
C1236 N1234 1.356 . S
C1237 C1231 1.363 . S
C1237 C1232 1.379 . S
C1237 N1235 1.356 . S
N1238 C1230 1.356 . S
N1238 H1244 0.984 . S
N1238 H1245 0.984 . S
N1239 C1232 1.356 . S
N1239 H1242 0.984 . S
N1239 H1243 0.985 . S
H1240 N1235 0.984 . S
H1241 N1235 0.983 . S
H1242 N1239 0.984 . S
H1243 N1239 0.985 . S
H1244 N1238 0.984 . S
H1245 N1238 0.984 . S
H1246 N1234 0.984 . S
H1247 N1234 0.985 . S
C1248 C1249 1.363 1_455 S
C1248 C1254 1.379 1_556 S
C1248 N1256 1.356 . S
C1249 C1248 1.363 1_655 S
C1249 C1255 1.363 . S
C1250 C1251 1.363 1_655 S
C1250 C1255 1.379 1_554 S
C1250 N1257 1.356 . S
C1251 C1250 1.363 1_455 S
C1251 C1254 1.363 . S
N1252 C1254 1.356 . S
N1252 H1264 0.984 . S
N1252 H1265 0.985 . S
N1253 C1255 1.356 . S
N1253 H1258 0.984 . S
N1253 H1259 0.985 . S
C1254 C1248 1.379 1_554 S
C1254 C1251 1.363 . S
C1254 N1252 1.356 . S
C1255 C1249 1.363 . S
C1255 C1250 1.379 1_556 S
C1255 N1253 1.356 . S
N1256 C1248 1.356 . S
N1256 H1262 0.984 . S
N1256 H1263 0.984 1_455 S
N1257 C1250 1.356 . S
N1257 H1260 0.984 1_655 S
N1257 H1261 0.985 . S
H1258 N1253 0.984 . S
H1259 N1253 0.985 . S
H1260 N1257 0.984 1_455 S
H1261 N1257 0.985 . S
H1262 N1256 0.984 . S
H1263 N1256 0.984 1_655 S
H1264 N1252 0.984 . S
H1265 N1252 0.985 . S
C1266 C1267 1.363 . S
C1266 C1272 1.379 . S
C1266 N1274 1.356 . S
C1267 C1266 1.363 . S
C1267 C1273 1.363 . S
C1268 C1269 1.363 . S
C1268 C1273 1.379 . S
C1268 N1275 1.356 . S
C1269 C1268 1.363 . S
C1269 C1272 1.363 . S
N1270 C1272 1.356 . S
N1270 H1282 0.984 . S
N1270 H1283 0.985 . S
N1271 C1273 1.356 . S
N1271 H1276 0.984 . S
N1271 H1277 0.985 . S
C1272 C1266 1.379 . S
C1272 C1269 1.363 . S
C1272 N1270 1.356 . S
C1273 C1267 1.363 . S
C1273 C1268 1.379 . S
C1273 N1271 1.356 . S
N1274 C1266 1.356 . S
N1274 H1280 0.984 . S
N1274 H1281 0.984 . S
N1275 C1268 1.356 . S
N1275 H1278 0.984 . S
N1275 H1279 0.985 . S
H1276 N1271 0.984 . S
H1277 N1271 0.985 . S
H1278 N1275 0.984 . S
H1279 N1275 0.985 . S
H1280 N1274 0.984 . S
H1281 N1274 0.984 . S
H1282 N1270 0.984 . S
H1283 N1270 0.985 . S
C1284 C1285 1.363 1_655 S
C1284 C1290 1.379 1_556 S
C1284 N1292 1.356 . S
C1285 C1284 1.363 1_455 S
C1285 C1291 1.363 . S
C1286 C1287 1.363 1_455 S
C1286 C1291 1.379 1_554 S
C1286 N1293 1.356 . S
C1287 C1286 1.363 1_655 S
C1287 C1290 1.363 . S
N1288 C1290 1.356 . S
N1288 H1300 0.984 . S
N1288 H1301 0.985 . S
N1289 C1291 1.356 . S
N1289 H1294 0.984 . S
N1289 H1295 0.985 . S
C1290 C1284 1.379 1_554 S
C1290 C1287 1.363 . S
C1290 N1288 1.356 . S
C1291 C1285 1.363 . S
C1291 C1286 1.379 1_556 S
C1291 N1289 1.356 . S
N1292 C1284 1.356 . S
N1292 H1298 0.984 . S
N1292 H1299 0.984 1_655 S
N1293 C1286 1.356 . S
N1293 H1296 0.984 1_455 S
N1293 H1297 0.985 . S
H1294 N1289 0.984 . S
H1295 N1289 0.985 . S
H1296 N1293 0.984 1_655 S
H1297 N1293 0.985 . S
H1298 N1292 0.984 . S
H1299 N1292 0.984 1_455 S
H1300 N1288 0.984 . S
H1301 N1288 0.985 . S
C1302 C1303 1.363 . S
C1302 C1308 1.379 . S
C1302 N1310 1.356 . S
C1303 C1302 1.363 . S
C1303 C1309 1.363 . S
C1304 C1305 1.363 . S
C1304 C1309 1.379 . S
C1304 N1311 1.356 . S
C1305 C1304 1.363 . S
C1305 C1308 1.363 . S
N1306 C1308 1.356 . S
N1306 H1318 0.984 . S
N1306 H1319 0.985 . S
N1307 C1309 1.356 . S
N1307 H1312 0.984 . S
N1307 H1313 0.985 . S
C1308 C1302 1.379 . S
C1308 C1305 1.363 . S
C1308 N1306 1.356 . S
C1309 C1303 1.363 . S
C1309 C1304 1.379 . S
C1309 N1307 1.356 . S
N1310 C1302 1.356 . S
N1310 H1316 0.984 . S
N1310 H1317 0.984 . S
N1311 C1304 1.356 . S
N1311 H1314 0.984 . S
N1311 H1315 0.985 . S
H1312 N1307 0.984 . S
H1313 N1307 0.985 . S
H1314 N1311 0.984 . S
H1315 N1311 0.985 . S
H1316 N1310 0.984 . S
H1317 N1310 0.984 . S
H1318 N1306 0.984 . S
H1319 N1306 0.985 . S
C1320 C1321 1.363 . S
C1320 C1326 1.379 1_655 S
C1320 N1328 1.356 . S
C1321 C1320 1.363 . S
C1321 C1327 1.363 1_565 S
C1322 C1323 1.363 . S
C1322 C1327 1.379 1_455 S
C1322 N1329 1.356 . S
C1323 C1322 1.363 . S
C1323 C1326 1.363 1_545 S
N1324 C1326 1.356 . S
N1324 H1336 0.984 . S
N1324 H1337 0.985 1_565 S
N1325 C1327 1.356 . S
N1325 H1330 0.984 1_545 S
N1325 H1331 0.985 . S
C1326 C1320 1.379 1_455 S
C1326 C1323 1.363 1_565 S
C1326 N1324 1.356 . S
C1327 C1321 1.363 1_545 S
C1327 C1322 1.379 1_655 S
C1327 N1325 1.356 . S
N1328 C1320 1.356 . S
N1328 H1334 0.984 . S
N1328 H1335 0.984 . S
N1329 C1322 1.356 . S
N1329 H1332 0.984 . S
N1329 H1333 0.985 . S
H1330 N1325 0.984 1_565 S
H1331 N1325 0.985 . S
H1332 N1329 0.984 . S
H1333 N1329 0.985 . S
H1334 N1328 0.984 . S
H1335 N1328 0.984 . S
H1336 N1324 0.984 . S
H1337 N1324 0.985 1_545 S
C1338 C1339 1.363 . S
C1338 C1344 1.379 . S
C1338 N1346 1.356 . S
C1339 C1338 1.363 . S
C1339 C1345 1.363 . S
C1340 C1341 1.363 . S
C1340 C1345 1.379 . S
C1340 N1347 1.356 . S
C1341 C1340 1.363 . S
C1341 C1344 1.363 . S
N1342 C1344 1.356 . S
N1342 H1354 0.984 . S
N1342 H1355 0.985 . S
N1343 C1345 1.356 . S
N1343 H1348 0.984 . S
N1343 H1349 0.985 . S
C1344 C1338 1.379 . S
C1344 C1341 1.363 . S
C1344 N1342 1.356 . S
C1345 C1339 1.363 . S
C1345 C1340 1.379 . S
C1345 N1343 1.356 . S
N1346 C1338 1.356 . S
N1346 H1352 0.984 . S
N1346 H1353 0.984 . S
N1347 C1340 1.356 . S
N1347 H1350 0.984 . S
N1347 H1351 0.985 . S
H1348 N1343 0.984 . S
H1349 N1343 0.985 . S
H1350 N1347 0.984 . S
H1351 N1347 0.985 . S
H1352 N1346 0.984 . S
H1353 N1346 0.984 . S
H1354 N1342 0.984 . S
H1355 N1342 0.985 . S
C1356 C1357 1.363 . S
C1356 C1362 1.379 1_455 S
C1356 N1364 1.356 . S
C1357 C1356 1.363 . S
C1357 C1363 1.363 1_565 S
C1358 C1359 1.363 . S
C1358 C1363 1.379 1_655 S
C1358 N1365 1.356 . S
C1359 C1358 1.363 . S
C1359 C1362 1.363 1_545 S
N1360 C1362 1.356 . S
N1360 H1372 0.984 . S
N1360 H1373 0.985 1_565 S
N1361 C1363 1.356 . S
N1361 H1366 0.984 1_545 S
N1361 H1367 0.985 . S
C1362 C1356 1.379 1_655 S
C1362 C1359 1.363 1_565 S
C1362 N1360 1.356 . S
C1363 C1357 1.363 1_545 S
C1363 C1358 1.379 1_455 S
C1363 N1361 1.356 . S
N1364 C1356 1.356 . S
N1364 H1370 0.984 . S
N1364 H1371 0.984 . S
N1365 C1358 1.356 . S
N1365 H1368 0.984 . S
N1365 H1369 0.985 . S
H1366 N1361 0.984 1_565 S
H1367 N1361 0.985 . S
H1368 N1365 0.984 . S
H1369 N1365 0.985 . S
H1370 N1364 0.984 . S
H1371 N1364 0.984 . S
H1372 N1360 0.984 . S
H1373 N1360 0.985 1_545 S
C1374 C1375 1.363 . S
C1374 C1380 1.379 . S
C1374 N1382 1.356 . S
C1375 C1374 1.363 . S
C1375 C1381 1.363 . S
C1376 C1377 1.363 . S
C1376 C1381 1.379 . S
C1376 N1383 1.356 . S
C1377 C1376 1.363 . S
C1377 C1380 1.363 . S
N1378 C1380 1.356 . S
N1378 H1390 0.984 . S
N1378 H1391 0.985 . S
N1379 C1381 1.356 . S
N1379 H1384 0.984 . S
N1379 H1385 0.985 . S
C1380 C1374 1.379 . S
C1380 C1377 1.363 . S
C1380 N1378 1.356 . S
C1381 C1375 1.363 . S
C1381 C1376 1.379 . S
C1381 N1379 1.356 . S
N1382 C1374 1.356 . S
N1382 H1388 0.984 . S
N1382 H1389 0.984 . S
N1383 C1376 1.356 . S
N1383 H1386 0.984 . S
N1383 H1387 0.985 . S
H1384 N1379 0.984 . S
H1385 N1379 0.985 . S
H1386 N1383 0.984 . S
H1387 N1383 0.985 . S
H1388 N1382 0.984 . S
H1389 N1382 0.984 . S
H1390 N1378 0.984 . S
H1391 N1378 0.985 . S
C1392 C1393 1.363 . S
C1392 C1398 1.379 1_544 S
C1392 N1400 1.356 . S
C1393 C1392 1.363 . S
C1393 C1399 1.363 . S
C1394 C1395 1.363 . S
C1394 C1399 1.379 1_566 S
C1394 N1401 1.356 . S
C1395 C1394 1.363 . S
C1395 C1398 1.363 . S
N1396 C1398 1.356 . S
N1396 H1408 0.984 . S
N1396 H1409 0.985 . S
N1397 C1399 1.356 . S
N1397 H1402 0.984 . S
N1397 H1403 0.985 . S
C1398 C1392 1.379 1_566 S
C1398 C1395 1.363 . S
C1398 N1396 1.356 . S
C1399 C1393 1.363 . S
C1399 C1394 1.379 1_544 S
C1399 N1397 1.356 . S
N1400 C1392 1.356 . S
N1400 H1406 0.984 . S
N1400 H1407 0.984 . S
N1401 C1394 1.356 . S
N1401 H1404 0.984 . S
N1401 H1405 0.985 . S
H1402 N1397 0.984 . S
H1403 N1397 0.985 . S
H1404 N1401 0.984 . S
H1405 N1401 0.985 . S
H1406 N1400 0.984 . S
H1407 N1400 0.984 . S
H1408 N1396 0.984 . S
H1409 N1396 0.985 . S
C1410 C1411 1.363 . S
C1410 C1416 1.379 . S
C1410 N1418 1.356 . S
C1411 C1410 1.363 . S
C1411 C1417 1.363 . S
C1412 C1413 1.363 . S
C1412 C1417 1.379 . S
C1412 N1419 1.356 . S
C1413 C1412 1.363 . S
C1413 C1416 1.363 . S
N1414 C1416 1.356 . S
N1414 H1426 0.984 . S
N1414 H1427 0.985 . S
N1415 C1417 1.356 . S
N1415 H1420 0.984 . S
N1415 H1421 0.985 . S
C1416 C1410 1.379 . S
C1416 C1413 1.363 . S
C1416 N1414 1.356 . S
C1417 C1411 1.363 . S
C1417 C1412 1.379 . S
C1417 N1415 1.356 . S
N1418 C1410 1.356 . S
N1418 H1424 0.984 . S
N1418 H1425 0.984 . S
N1419 C1412 1.356 . S
N1419 H1422 0.984 . S
N1419 H1423 0.985 . S
H1420 N1415 0.984 . S
H1421 N1415 0.985 . S
H1422 N1419 0.984 . S
H1423 N1419 0.985 . S
H1424 N1418 0.984 . S
H1425 N1418 0.984 . S
H1426 N1414 0.984 . S
H1427 N1414 0.985 . S
C1428 C1429 1.363 . S
C1428 C1434 1.379 1_545 S
C1428 N1436 1.356 . S
C1429 C1428 1.363 . S
C1429 C1435 1.363 1_556 S
C1430 C1431 1.363 . S
C1430 C1435 1.379 1_565 S
C1430 N1437 1.356 . S
C1431 C1430 1.363 . S
C1431 C1434 1.363 1_554 S
N1432 C1434 1.356 . S
N1432 H1444 0.984 . S
N1432 H1445 0.985 1_556 S
N1433 C1435 1.356 . S
N1433 H1438 0.984 1_554 S
N1433 H1439 0.985 . S
C1434 C1428 1.379 1_565 S
C1434 C1431 1.363 1_556 S
C1434 N1432 1.356 . S
C1435 C1429 1.363 1_554 S
C1435 C1430 1.379 1_545 S
C1435 N1433 1.356 . S
N1436 C1428 1.356 . S
N1436 H1442 0.984 . S
N1436 H1443 0.984 . S
N1437 C1430 1.356 . S
N1437 H1440 0.984 . S
N1437 H1441 0.985 . S
H1438 N1433 0.984 1_556 S
H1439 N1433 0.985 . S
H1440 N1437 0.984 . S
H1441 N1437 0.985 . S
H1442 N1436 0.984 . S
H1443 N1436 0.984 . S
H1444 N1432 0.984 . S
H1445 N1432 0.985 1_554 S
C1446 C1447 1.363 . S
C1446 C1452 1.379 . S
C1446 N1454 1.356 . S
C1447 C1446 1.363 . S
C1447 C1453 1.363 . S
C1448 C1449 1.363 . S
C1448 C1453 1.379 . S
C1448 N1455 1.356 . S
C1449 C1448 1.363 . S
C1449 C1452 1.363 . S
N1450 C1452 1.356 . S
N1450 H1462 0.984 . S
N1450 H1463 0.985 . S
N1451 C1453 1.356 . S
N1451 H1456 0.984 . S
N1451 H1457 0.985 . S
C1452 C1446 1.379 . S
C1452 C1449 1.363 . S
C1452 N1450 1.356 . S
C1453 C1447 1.363 . S
C1453 C1448 1.379 . S
C1453 N1451 1.356 . S
N1454 C1446 1.356 . S
N1454 H1460 0.984 . S
N1454 H1461 0.984 . S
N1455 C1448 1.356 . S
N1455 H1458 0.984 . S
N1455 H1459 0.985 . S
H1456 N1451 0.984 . S
H1457 N1451 0.985 . S
H1458 N1455 0.984 . S
H1459 N1455 0.985 . S
H1460 N1454 0.984 . S
H1461 N1454 0.984 . S
H1462 N1450 0.984 . S
H1463 N1450 0.985 . S
C1464 C1465 1.363 . S
C1464 C1470 1.379 . S
C1464 N1472 1.356 . S
C1465 C1464 1.363 . S
C1465 C1471 1.363 . S
C1466 C1467 1.363 . S
C1466 C1471 1.379 . S
C1466 N1473 1.356 . S
C1467 C1466 1.363 . S
C1467 C1470 1.363 . S
N1468 C1470 1.356 . S
N1468 H1480 0.984 . S
N1468 H1481 0.985 . S
N1469 C1471 1.356 . S
N1469 H1474 0.984 . S
N1469 H1475 0.985 . S
C1470 C1464 1.379 . S
C1470 C1467 1.363 . S
C1470 N1468 1.356 . S
C1471 C1465 1.363 . S
C1471 C1466 1.379 . S
C1471 N1469 1.356 . S
N1472 C1464 1.356 . S
N1472 H1478 0.984 . S
N1472 H1479 0.984 . S
N1473 C1466 1.356 . S
N1473 H1476 0.984 . S
N1473 H1477 0.985 . S
H1474 N1469 0.984 . S
H1475 N1469 0.985 . S
H1476 N1473 0.984 . S
H1477 N1473 0.985 . S
H1478 N1472 0.984 . S
H1479 N1472 0.984 . S
H1480 N1468 0.984 . S
H1481 N1468 0.985 . S
C1482 C1483 1.363 . S
C1482 C1488 1.379 . S
C1482 N1490 1.356 . S
C1483 C1482 1.363 . S
C1483 C1489 1.363 . S
C1484 C1485 1.363 . S
C1484 C1489 1.379 . S
C1484 N1491 1.356 . S
C1485 C1484 1.363 . S
C1485 C1488 1.363 . S
N1486 C1488 1.356 . S
N1486 H1498 0.984 . S
N1486 H1499 0.985 . S
N1487 C1489 1.356 . S
N1487 H1492 0.984 . S
N1487 H1493 0.985 . S
C1488 C1482 1.379 . S
C1488 C1485 1.363 . S
C1488 N1486 1.356 . S
C1489 C1483 1.363 . S
C1489 C1484 1.379 . S
C1489 N1487 1.356 . S
N1490 C1482 1.356 . S
N1490 H1496 0.984 . S
N1490 H1497 0.984 . S
N1491 C1484 1.356 . S
N1491 H1494 0.984 . S
N1491 H1495 0.985 . S
H1492 N1487 0.984 . S
H1493 N1487 0.985 . S
H1494 N1491 0.984 . S
H1495 N1491 0.985 . S
H1496 N1490 0.984 . S
H1497 N1490 0.984 . S
H1498 N1486 0.984 . S
H1499 N1486 0.985 . S
C1500 C1501 1.363 . S
C1500 C1506 1.379 . S
C1500 N1508 1.356 . S
C1501 C1500 1.363 . S
C1501 C1507 1.363 . S
C1502 C1503 1.363 . S
C1502 C1507 1.379 . S
C1502 N1509 1.356 . S
C1503 C1502 1.363 . S
C1503 C1506 1.363 . S
N1504 C1506 1.356 . S
N1504 H1516 0.984 . S
N1504 H1517 0.985 . S
N1505 C1507 1.356 . S
N1505 H1510 0.984 . S
N1505 H1511 0.985 . S
C1506 C1500 1.379 . S
C1506 C1503 1.363 . S
C1506 N1504 1.356 . S
C1507 C1501 1.363 . S
C1507 C1502 1.379 . S
C1507 N1505 1.356 . S
N1508 C1500 1.356 . S
N1508 H1514 0.984 . S
N1508 H1515 0.984 . S
N1509 C1502 1.356 . S
N1509 H1512 0.984 . S
N1509 H1513 0.985 . S
H1510 N1505 0.984 . S
H1511 N1505 0.985 . S
H1512 N1509 0.984 . S
H1513 N1509 0.985 . S
H1514 N1508 0.984 . S
H1515 N1508 0.984 . S
H1516 N1504 0.984 . S
H1517 N1504 0.985 . S
C1518 C1519 1.363 . S
C1518 C1524 1.379 . S
C1518 N1526 1.356 . S
C1519 C1518 1.363 . S
C1519 C1525 1.363 . S
C1520 C1521 1.363 . S
C1520 C1525 1.379 . S
C1520 N1527 1.356 . S
C1521 C1520 1.363 . S
C1521 C1524 1.363 . S
N1522 C1524 1.356 . S
N1522 H1534 0.984 . S
N1522 H1535 0.985 . S
N1523 C1525 1.356 . S
N1523 H1528 0.984 . S
N1523 H1529 0.985 . S
C1524 C1518 1.379 . S
C1524 C1521 1.363 . S
C1524 N1522 1.356 . S
C1525 C1519 1.363 . S
C1525 C1520 1.379 . S
C1525 N1523 1.356 . S
N1526 C1518 1.356 . S
N1526 H1532 0.984 . S
N1526 H1533 0.984 . S
N1527 C1520 1.356 . S
N1527 H1530 0.984 . S
N1527 H1531 0.985 . S
H1528 N1523 0.984 . S
H1529 N1523 0.985 . S
H1530 N1527 0.984 . S
H1531 N1527 0.985 . S
H1532 N1526 0.984 . S
H1533 N1526 0.984 . S
H1534 N1522 0.984 . S
H1535 N1522 0.985 . S
C1536 C1537 1.363 . S
C1536 C1542 1.379 . S
C1536 N1544 1.356 . S
C1537 C1536 1.363 . S
C1537 C1543 1.363 . S
C1538 C1539 1.363 . S
C1538 C1543 1.379 . S
C1538 N1545 1.356 . S
C1539 C1538 1.363 . S
C1539 C1542 1.363 . S
N1540 C1542 1.356 . S
N1540 H1552 0.984 . S
N1540 H1553 0.985 . S
N1541 C1543 1.356 . S
N1541 H1546 0.984 . S
N1541 H1547 0.985 . S
C1542 C1536 1.379 . S
C1542 C1539 1.363 . S
C1542 N1540 1.356 . S
C1543 C1537 1.363 . S
C1543 C1538 1.379 . S
C1543 N1541 1.356 . S
N1544 C1536 1.356 . S
N1544 H1550 0.984 . S
N1544 H1551 0.984 . S
N1545 C1538 1.356 . S
N1545 H1548 0.984 . S
N1545 H1549 0.985 . S
H1546 N1541 0.984 . S
H1547 N1541 0.985 . S
H1548 N1545 0.984 . S
H1549 N1545 0.985 . S
H1550 N1544 0.984 . S
H1551 N1544 0.984 . S
H1552 N1540 0.984 . S
H1553 N1540 0.985 . S
C1554 C1555 1.363 . S
C1554 C1560 1.379 . S
C1554 N1562 1.356 . S
C1555 C1554 1.363 . S
C1555 C1561 1.363 . S
C1556 C1557 1.363 . S
C1556 C1561 1.379 . S
C1556 N1563 1.356 . S
C1557 C1556 1.363 . S
C1557 C1560 1.363 . S
N1558 C1560 1.356 . S
N1558 H1570 0.984 . S
N1558 H1571 0.985 . S
N1559 C1561 1.356 . S
N1559 H1564 0.984 . S
N1559 H1565 0.985 . S
C1560 C1554 1.379 . S
C1560 C1557 1.363 . S
C1560 N1558 1.356 . S
C1561 C1555 1.363 . S
C1561 C1556 1.379 . S
C1561 N1559 1.356 . S
N1562 C1554 1.356 . S
N1562 H1568 0.984 . S
N1562 H1569 0.984 . S
N1563 C1556 1.356 . S
N1563 H1566 0.984 . S
N1563 H1567 0.985 . S
H1564 N1559 0.984 . S
H1565 N1559 0.985 . S
H1566 N1563 0.984 . S
H1567 N1563 0.985 . S
H1568 N1562 0.984 . S
H1569 N1562 0.984 . S
H1570 N1558 0.984 . S
H1571 N1558 0.985 . S
C1572 C1573 1.363 . S
C1572 C1578 1.379 . S
C1572 N1580 1.356 . S
C1573 C1572 1.363 . S
C1573 C1579 1.363 . S
C1574 C1575 1.363 . S
C1574 C1579 1.379 . S
C1574 N1581 1.356 . S
C1575 C1574 1.363 . S
C1575 C1578 1.363 . S
N1576 C1578 1.356 . S
N1576 H1588 0.984 . S
N1576 H1589 0.985 . S
N1577 C1579 1.356 . S
N1577 H1582 0.984 . S
N1577 H1583 0.985 . S
C1578 C1572 1.379 . S
C1578 C1575 1.363 . S
C1578 N1576 1.356 . S
C1579 C1573 1.363 . S
C1579 C1574 1.379 . S
C1579 N1577 1.356 . S
N1580 C1572 1.356 . S
N1580 H1586 0.984 . S
N1580 H1587 0.984 . S
N1581 C1574 1.356 . S
N1581 H1584 0.984 . S
N1581 H1585 0.985 . S
H1582 N1577 0.984 . S
H1583 N1577 0.985 . S
H1584 N1581 0.984 . S
H1585 N1581 0.985 . S
H1586 N1580 0.984 . S
H1587 N1580 0.984 . S
H1588 N1576 0.984 . S
H1589 N1576 0.985 . S
C1590 C1591 1.363 . S
C1590 C1596 1.379 . S
C1590 N1598 1.356 . S
C1591 C1590 1.363 . S
C1591 C1597 1.363 . S
C1592 C1593 1.363 . S
C1592 C1597 1.379 . S
C1592 N1599 1.356 . S
C1593 C1592 1.363 . S
C1593 C1596 1.363 . S
N1594 C1596 1.356 . S
N1594 H1606 0.984 . S
N1594 H1607 0.985 . S
N1595 C1597 1.356 . S
N1595 H1600 0.984 . S
N1595 H1601 0.985 . S
C1596 C1590 1.379 . S
C1596 C1593 1.363 . S
C1596 N1594 1.356 . S
C1597 C1591 1.363 . S
C1597 C1592 1.379 . S
C1597 N1595 1.356 . S
N1598 C1590 1.356 . S
N1598 H1604 0.984 . S
N1598 H1605 0.984 . S
N1599 C1592 1.356 . S
N1599 H1602 0.984 . S
N1599 H1603 0.985 . S
H1600 N1595 0.984 . S
H1601 N1595 0.985 . S
H1602 N1599 0.984 . S
H1603 N1599 0.985 . S
H1604 N1598 0.984 . S
H1605 N1598 0.984 . S
H1606 N1594 0.984 . S
H1607 N1594 0.985 . S
C1608 C1609 1.363 . S
C1608 C1614 1.379 . S
C1608 N1616 1.356 . S
C1609 C1608 1.363 . S
C1609 C1615 1.363 . S
C1610 C1611 1.363 . S
C1610 C1615 1.379 . S
C1610 N1617 1.356 . S
C1611 C1610 1.363 . S
C1611 C1614 1.363 . S
N1612 C1614 1.356 . S
N1612 H1624 0.984 . S
N1612 H1625 0.985 . S
N1613 C1615 1.356 . S
N1613 H1618 0.984 . S
N1613 H1619 0.985 . S
C1614 C1608 1.379 . S
C1614 C1611 1.363 . S
C1614 N1612 1.356 . S
C1615 C1609 1.363 . S
C1615 C1610 1.379 . S
C1615 N1613 1.356 . S
N1616 C1608 1.356 . S
N1616 H1622 0.984 . S
N1616 H1623 0.984 . S
N1617 C1610 1.356 . S
N1617 H1620 0.984 . S
N1617 H1621 0.985 . S
H1618 N1613 0.984 . S
H1619 N1613 0.985 . S
H1620 N1617 0.984 . S
H1621 N1617 0.985 . S
H1622 N1616 0.984 . S
H1623 N1616 0.984 . S
H1624 N1612 0.984 . S
H1625 N1612 0.985 . S
C1626 C1627 1.363 . S
C1626 C1632 1.379 . S
C1626 N1634 1.356 . S
C1627 C1626 1.363 . S
C1627 C1633 1.363 . S
C1628 C1629 1.363 . S
C1628 C1633 1.379 . S
C1628 N1635 1.356 . S
C1629 C1628 1.363 . S
C1629 C1632 1.363 . S
N1630 C1632 1.356 . S
N1630 H1642 0.984 . S
N1630 H1643 0.985 . S
N1631 C1633 1.356 . S
N1631 H1636 0.984 . S
N1631 H1637 0.985 . S
C1632 C1626 1.379 . S
C1632 C1629 1.363 . S
C1632 N1630 1.356 . S
C1633 C1627 1.363 . S
C1633 C1628 1.379 . S
C1633 N1631 1.356 . S
N1634 C1626 1.356 . S
N1634 H1640 0.984 . S
N1634 H1641 0.984 . S
N1635 C1628 1.356 . S
N1635 H1638 0.984 . S
N1635 H1639 0.985 . S
H1636 N1631 0.984 . S
H1637 N1631 0.985 . S
H1638 N1635 0.984 . S
H1639 N1635 0.985 . S
H1640 N1634 0.984 . S
H1641 N1634 0.984 . S
H1642 N1630 0.984 . S
H1643 N1630 0.985 . S
C1644 C1645 1.363 . S
C1644 C1650 1.379 . S
C1644 N1652 1.356 . S
C1645 C1644 1.363 . S
C1645 C1651 1.363 . S
C1646 C1647 1.363 . S
C1646 C1651 1.379 . S
C1646 N1653 1.356 . S
C1647 C1646 1.363 . S
C1647 C1650 1.363 . S
N1648 C1650 1.356 . S
N1648 H1660 0.984 . S
N1648 H1661 0.985 . S
N1649 C1651 1.356 . S
N1649 H1654 0.984 . S
N1649 H1655 0.985 . S
C1650 C1644 1.379 . S
C1650 C1647 1.363 . S
C1650 N1648 1.356 . S
C1651 C1645 1.363 . S
C1651 C1646 1.379 . S
C1651 N1649 1.356 . S
N1652 C1644 1.356 . S
N1652 H1658 0.984 . S
N1652 H1659 0.984 . S
N1653 C1646 1.356 . S
N1653 H1656 0.984 . S
N1653 H1657 0.985 . S
H1654 N1649 0.984 . S
H1655 N1649 0.985 . S
H1656 N1653 0.984 . S
H1657 N1653 0.985 . S
H1658 N1652 0.984 . S
H1659 N1652 0.984 . S
H1660 N1648 0.984 . S
H1661 N1648 0.985 . S
C1662 C1663 1.363 . S
C1662 C1668 1.379 . S
C1662 N1670 1.356 . S
C1663 C1662 1.363 . S
C1663 C1669 1.363 . S
C1664 C1665 1.363 . S
C1664 C1669 1.379 . S
C1664 N1671 1.356 . S
C1665 C1664 1.363 . S
C1665 C1668 1.363 . S
N1666 C1668 1.356 . S
N1666 H1678 0.984 . S
N1666 H1679 0.985 . S
N1667 C1669 1.356 . S
N1667 H1672 0.984 . S
N1667 H1673 0.985 . S
C1668 C1662 1.379 . S
C1668 C1665 1.363 . S
C1668 N1666 1.356 . S
C1669 C1663 1.363 . S
C1669 C1664 1.379 . S
C1669 N1667 1.356 . S
N1670 C1662 1.356 . S
N1670 H1676 0.984 . S
N1670 H1677 0.984 . S
N1671 C1664 1.356 . S
N1671 H1674 0.984 . S
N1671 H1675 0.985 . S
H1672 N1667 0.984 . S
H1673 N1667 0.985 . S
H1674 N1671 0.984 . S
H1675 N1671 0.985 . S
H1676 N1670 0.984 . S
H1677 N1670 0.984 . S
H1678 N1666 0.984 . S
H1679 N1666 0.985 . S
C1680 C1681 1.363 . S
C1680 C1686 1.379 . S
C1680 N1688 1.356 . S
C1681 C1680 1.363 . S
C1681 C1687 1.363 . S
C1682 C1683 1.363 . S
C1682 C1687 1.379 . S
C1682 N1689 1.356 . S
C1683 C1682 1.363 . S
C1683 C1686 1.363 . S
N1684 C1686 1.356 . S
N1684 H1696 0.984 . S
N1684 H1697 0.985 . S
N1685 C1687 1.356 . S
N1685 H1690 0.984 . S
N1685 H1691 0.985 . S
C1686 C1680 1.379 . S
C1686 C1683 1.363 . S
C1686 N1684 1.356 . S
C1687 C1681 1.363 . S
C1687 C1682 1.379 . S
C1687 N1685 1.356 . S
N1688 C1680 1.356 . S
N1688 H1694 0.984 . S
N1688 H1695 0.984 . S
N1689 C1682 1.356 . S
N1689 H1692 0.984 . S
N1689 H1693 0.985 . S
H1690 N1685 0.984 . S
H1691 N1685 0.985 . S
H1692 N1689 0.984 . S
H1693 N1689 0.985 . S
H1694 N1688 0.984 . S
H1695 N1688 0.984 . S
H1696 N1684 0.984 . S
H1697 N1684 0.985 . S
C1698 C1699 1.363 . S
C1698 C1704 1.379 . S
C1698 N1706 1.356 . S
C1699 C1698 1.363 . S
C1699 C1705 1.363 . S
C1700 C1701 1.363 . S
C1700 C1705 1.379 . S
C1700 N1707 1.356 . S
C1701 C1700 1.363 . S
C1701 C1704 1.363 . S
N1702 C1704 1.356 . S
N1702 H1714 0.984 . S
N1702 H1715 0.985 . S
N1703 C1705 1.356 . S
N1703 H1708 0.984 . S
N1703 H1709 0.985 . S
C1704 C1698 1.379 . S
C1704 C1701 1.363 . S
C1704 N1702 1.356 . S
C1705 C1699 1.363 . S
C1705 C1700 1.379 . S
C1705 N1703 1.356 . S
N1706 C1698 1.356 . S
N1706 H1712 0.984 . S
N1706 H1713 0.984 . S
N1707 C1700 1.356 . S
N1707 H1710 0.984 . S
N1707 H1711 0.985 . S
H1708 N1703 0.984 . S
H1709 N1703 0.985 . S
H1710 N1707 0.984 . S
H1711 N1707 0.985 . S
H1712 N1706 0.984 . S
H1713 N1706 0.984 . S
H1714 N1702 0.984 . S
H1715 N1702 0.985 . S
C1716 C1717 1.363 . S
C1716 C1722 1.379 . S
C1716 N1724 1.356 . S
C1717 C1716 1.363 . S
C1717 C1723 1.363 . S
C1718 C1719 1.363 . S
C1718 C1723 1.379 . S
C1718 N1725 1.356 . S
C1719 C1718 1.363 . S
C1719 C1722 1.363 . S
N1720 C1722 1.356 . S
N1720 H1732 0.984 . S
N1720 H1733 0.985 . S
N1721 C1723 1.356 . S
N1721 H1726 0.984 . S
N1721 H1727 0.985 . S
C1722 C1716 1.379 . S
C1722 C1719 1.363 . S
C1722 N1720 1.356 . S
C1723 C1717 1.363 . S
C1723 C1718 1.379 . S
C1723 N1721 1.356 . S
N1724 C1716 1.356 . S
N1724 H1730 0.984 . S
N1724 H1731 0.984 . S
N1725 C1718 1.356 . S
N1725 H1728 0.984 . S
N1725 H1729 0.985 . S
H1726 N1721 0.984 . S
H1727 N1721 0.985 . S
H1728 N1725 0.984 . S
H1729 N1725 0.985 . S
H1730 N1724 0.984 . S
H1731 N1724 0.984 . S
H1732 N1720 0.984 . S
H1733 N1720 0.985 . S
C1734 C1735 1.363 . S
C1734 C1740 1.379 . S
C1734 N1742 1.356 . S
C1735 C1734 1.363 . S
C1735 C1741 1.363 . S
C1736 C1737 1.363 . S
C1736 C1741 1.379 . S
C1736 N1743 1.356 . S
C1737 C1736 1.363 . S
C1737 C1740 1.363 . S
N1738 C1740 1.356 . S
N1738 H1750 0.984 . S
N1738 H1751 0.985 . S
N1739 C1741 1.356 . S
N1739 H1744 0.984 . S
N1739 H1745 0.985 . S
C1740 C1734 1.379 . S
C1740 C1737 1.363 . S
C1740 N1738 1.356 . S
C1741 C1735 1.363 . S
C1741 C1736 1.379 . S
C1741 N1739 1.356 . S
N1742 C1734 1.356 . S
N1742 H1748 0.984 . S
N1742 H1749 0.984 . S
N1743 C1736 1.356 . S
N1743 H1746 0.984 . S
N1743 H1747 0.985 . S
H1744 N1739 0.984 . S
H1745 N1739 0.985 . S
H1746 N1743 0.984 . S
H1747 N1743 0.985 . S
H1748 N1742 0.984 . S
H1749 N1742 0.984 . S
H1750 N1738 0.984 . S
H1751 N1738 0.985 . S
C1752 C1753 1.363 . S
C1752 C1758 1.379 . S
C1752 N1760 1.356 . S
C1753 C1752 1.363 . S
C1753 C1759 1.363 . S
C1754 C1755 1.363 . S
C1754 C1759 1.379 . S
C1754 N1761 1.356 . S
C1755 C1754 1.363 . S
C1755 C1758 1.363 . S
N1756 C1758 1.356 . S
N1756 H1768 0.984 . S
N1756 H1769 0.985 . S
N1757 C1759 1.356 . S
N1757 H1762 0.984 . S
N1757 H1763 0.985 . S
C1758 C1752 1.379 . S
C1758 C1755 1.363 . S
C1758 N1756 1.356 . S
C1759 C1753 1.363 . S
C1759 C1754 1.379 . S
C1759 N1757 1.356 . S
N1760 C1752 1.356 . S
N1760 H1766 0.984 . S
N1760 H1767 0.984 . S
N1761 C1754 1.356 . S
N1761 H1764 0.984 . S
N1761 H1765 0.985 . S
H1762 N1757 0.984 . S
H1763 N1757 0.985 . S
H1764 N1761 0.984 . S
H1765 N1761 0.985 . S
H1766 N1760 0.984 . S
H1767 N1760 0.984 . S
H1768 N1756 0.984 . S
H1769 N1756 0.985 . S
C1770 C1771 1.363 . S
C1770 C1776 1.379 . S
C1770 N1778 1.356 . S
C1771 C1770 1.363 . S
C1771 C1777 1.363 . S
C1772 C1773 1.363 . S
C1772 C1777 1.379 . S
C1772 N1779 1.356 . S
C1773 C1772 1.363 . S
C1773 C1776 1.363 . S
N1774 C1776 1.356 . S
N1774 H1786 0.984 . S
N1774 H1787 0.985 . S
N1775 C1777 1.356 . S
N1775 H1780 0.984 . S
N1775 H1781 0.985 . S
C1776 C1770 1.379 . S
C1776 C1773 1.363 . S
C1776 N1774 1.356 . S
C1777 C1771 1.363 . S
C1777 C1772 1.379 . S
C1777 N1775 1.356 . S
N1778 C1770 1.356 . S
N1778 H1784 0.984 . S
N1778 H1785 0.984 . S
N1779 C1772 1.356 . S
N1779 H1782 0.984 . S
N1779 H1783 0.985 . S
H1780 N1775 0.984 . S
H1781 N1775 0.985 . S
H1782 N1779 0.984 . S
H1783 N1779 0.985 . S
H1784 N1778 0.984 . S
H1785 N1778 0.984 . S
H1786 N1774 0.984 . S
H1787 N1774 0.985 . S
C1788 C1789 1.363 . S
C1788 C1794 1.379 . S
C1788 N1796 1.356 . S
C1789 C1788 1.363 . S
C1789 C1795 1.363 . S
C1790 C1791 1.363 . S
C1790 C1795 1.379 . S
C1790 N1797 1.356 . S
C1791 C1790 1.363 . S
C1791 C1794 1.363 . S
N1792 C1794 1.356 . S
N1792 H1804 0.984 . S
N1792 H1805 0.985 . S
N1793 C1795 1.356 . S
N1793 H1798 0.984 . S
N1793 H1799 0.985 . S
C1794 C1788 1.379 . S
C1794 C1791 1.363 . S
C1794 N1792 1.356 . S
C1795 C1789 1.363 . S
C1795 C1790 1.379 . S
C1795 N1793 1.356 . S
N1796 C1788 1.356 . S
N1796 H1802 0.984 . S
N1796 H1803 0.984 . S
N1797 C1790 1.356 . S
N1797 H1800 0.984 . S
N1797 H1801 0.985 . S
H1798 N1793 0.984 . S
H1799 N1793 0.985 . S
H1800 N1797 0.984 . S
H1801 N1797 0.985 . S
H1802 N1796 0.984 . S
H1803 N1796 0.984 . S
H1804 N1792 0.984 . S
H1805 N1792 0.985 . S
C1806 C1807 1.363 . S
C1806 C1812 1.379 . S
C1806 N1814 1.356 . S
C1807 C1806 1.363 . S
C1807 C1813 1.363 . S
C1808 C1809 1.363 . S
C1808 C1813 1.379 . S
C1808 N1815 1.356 . S
C1809 C1808 1.363 . S
C1809 C1812 1.363 . S
N1810 C1812 1.356 . S
N1810 H1822 0.984 . S
N1810 H1823 0.985 . S
N1811 C1813 1.356 . S
N1811 H1816 0.984 . S
N1811 H1817 0.985 . S
C1812 C1806 1.379 . S
C1812 C1809 1.363 . S
C1812 N1810 1.356 . S
C1813 C1807 1.363 . S
C1813 C1808 1.379 . S
C1813 N1811 1.356 . S
N1814 C1806 1.356 . S
N1814 H1820 0.984 . S
N1814 H1821 0.984 . S
N1815 C1808 1.356 . S
N1815 H1818 0.984 . S
N1815 H1819 0.985 . S
H1816 N1811 0.984 . S
H1817 N1811 0.985 . S
H1818 N1815 0.984 . S
H1819 N1815 0.985 . S
H1820 N1814 0.984 . S
H1821 N1814 0.984 . S
H1822 N1810 0.984 . S
H1823 N1810 0.985 . S
C1824 C1825 1.363 . S
C1824 C1830 1.379 . S
C1824 N1832 1.356 . S
C1825 C1824 1.363 . S
C1825 C1831 1.363 . S
C1826 C1827 1.363 . S
C1826 C1831 1.379 . S
C1826 N1833 1.356 . S
C1827 C1826 1.363 . S
C1827 C1830 1.363 . S
N1828 C1830 1.356 . S
N1828 H1840 0.984 . S
N1828 H1841 0.985 . S
N1829 C1831 1.356 . S
N1829 H1834 0.984 . S
N1829 H1835 0.985 . S
C1830 C1824 1.379 . S
C1830 C1827 1.363 . S
C1830 N1828 1.356 . S
C1831 C1825 1.363 . S
C1831 C1826 1.379 . S
C1831 N1829 1.356 . S
N1832 C1824 1.356 . S
N1832 H1838 0.984 . S
N1832 H1839 0.984 . S
N1833 C1826 1.356 . S
N1833 H1836 0.984 . S
N1833 H1837 0.985 . S
H1834 N1829 0.984 . S
H1835 N1829 0.985 . S
H1836 N1833 0.984 . S
H1837 N1833 0.985 . S
H1838 N1832 0.984 . S
H1839 N1832 0.984 . S
H1840 N1828 0.984 . S
H1841 N1828 0.985 . S
C1842 C1843 1.363 . S
C1842 C1848 1.379 . S
C1842 N1850 1.356 . S
C1843 C1842 1.363 . S
C1843 C1849 1.363 . S
C1844 C1845 1.363 . S
C1844 C1849 1.379 . S
C1844 N1851 1.356 . S
C1845 C1844 1.363 . S
C1845 C1848 1.363 . S
N1846 C1848 1.356 . S
N1846 H1858 0.984 . S
N1846 H1859 0.985 . S
N1847 C1849 1.356 . S
N1847 H1852 0.984 . S
N1847 H1853 0.985 . S
C1848 C1842 1.379 . S
C1848 C1845 1.363 . S
C1848 N1846 1.356 . S
C1849 C1843 1.363 . S
C1849 C1844 1.379 . S
C1849 N1847 1.356 . S
N1850 C1842 1.356 . S
N1850 H1856 0.984 . S
N1850 H1857 0.984 . S
N1851 C1844 1.356 . S
N1851 H1854 0.984 . S
N1851 H1855 0.985 . S
H1852 N1847 0.984 . S
H1853 N1847 0.985 . S
H1854 N1851 0.984 . S
H1855 N1851 0.985 . S
H1856 N1850 0.984 . S
H1857 N1850 0.984 . S
H1858 N1846 0.984 . S
H1859 N1846 0.985 . S
C1860 C1861 1.363 . S
C1860 C1866 1.379 . S
C1860 N1868 1.356 . S
C1861 C1860 1.363 . S
C1861 C1867 1.363 . S
C1862 C1863 1.363 . S
C1862 C1867 1.379 . S
C1862 N1869 1.356 . S
C1863 C1862 1.363 . S
C1863 C1866 1.363 . S
N1864 C1866 1.356 . S
N1864 H1876 0.984 . S
N1864 H1877 0.985 . S
N1865 C1867 1.356 . S
N1865 H1870 0.984 . S
N1865 H1871 0.985 . S
C1866 C1860 1.379 . S
C1866 C1863 1.363 . S
C1866 N1864 1.356 . S
C1867 C1861 1.363 . S
C1867 C1862 1.379 . S
C1867 N1865 1.356 . S
N1868 C1860 1.356 . S
N1868 H1874 0.984 . S
N1868 H1875 0.984 . S
N1869 C1862 1.356 . S
N1869 H1872 0.984 . S
N1869 H1873 0.985 . S
H1870 N1865 0.984 . S
H1871 N1865 0.985 . S
H1872 N1869 0.984 . S
H1873 N1869 0.985 . S
H1874 N1868 0.984 . S
H1875 N1868 0.984 . S
H1876 N1864 0.984 . S
H1877 N1864 0.985 . S
C1878 C1879 1.363 . S
C1878 C1884 1.379 . S
C1878 N1886 1.356 . S
C1879 C1878 1.363 . S
C1879 C1885 1.363 . S
C1880 C1881 1.363 . S
C1880 C1885 1.379 . S
C1880 N1887 1.356 . S
C1881 C1880 1.363 . S
C1881 C1884 1.363 . S
N1882 C1884 1.356 . S
N1882 H1894 0.984 . S
N1882 H1895 0.985 . S
N1883 C1885 1.356 . S
N1883 H1888 0.984 . S
N1883 H1889 0.985 . S
C1884 C1878 1.379 . S
C1884 C1881 1.363 . S
C1884 N1882 1.356 . S
C1885 C1879 1.363 . S
C1885 C1880 1.379 . S
C1885 N1883 1.356 . S
N1886 C1878 1.356 . S
N1886 H1892 0.984 . S
N1886 H1893 0.984 . S
N1887 C1880 1.356 . S
N1887 H1890 0.984 . S
N1887 H1891 0.985 . S
H1888 N1883 0.984 . S
H1889 N1883 0.985 . S
H1890 N1887 0.984 . S
H1891 N1887 0.985 . S
H1892 N1886 0.984 . S
H1893 N1886 0.984 . S
H1894 N1882 0.984 . S
H1895 N1882 0.985 . S
C817 C107 1.381 . S
C819 C33 1.382 . S
C835 C5 1.381 . S
C837 C67 1.382 . S
C853 C39 1.381 . S
C855 C101 1.382 . S
C871 C135 1.382 . S
C873 C73 1.381 . S
C889 C175 1.381 . S
C891 C169 1.382 . S
C907 C209 1.381 . S
C909 C203 1.382 . S
C925 C237 1.382 . S
C927 C243 1.381 . S
C943 C141 1.381 . S
C945 C271 1.382 . S
C961 C305 1.382 . S
C963 C617 1.381 . S
C979 C339 1.382 . S
C981 C651 1.381 . S
C997 C685 1.381 . S
C999 C373 1.382 . S
C1015 C583 1.381 . S
C1017 C407 1.382 . S
C1033 C753 1.381 . S
C1035 C441 1.382 . S
C1051 C475 1.382 . S
C1053 C549 1.381 . S
C1069 C509 1.382 . S
C1071 C787 1.381 . S
C1087 C719 1.381 . S
C1089 C543 1.382 . S
C1105 C311 1.381 . S
C1107 C577 1.382 . S
C1123 C611 1.382 . S
C1125 C515 1.381 . S
C1141 C413 1.381 . S
C1143 C645 1.382 . S
C1159 C447 1.381 . S
C1161 C679 1.382 . S
C1177 C481 1.381 . S
C1179 C713 1.382 . S
C1195 C379 1.381 . S
C1197 C747 1.382 . S
C1213 C277 1.381 . S
C1215 C781 1.382 . S
C1231 C345 1.381 . S
C1233 C815 1.382 . S
C1249 C224 1.923 . S
C1251 C20 1.923 . S
C1267 C54 1.923 . S
C1269 C258 1.923 . S
C1285 C156 1.923 . S
C1287 C88 1.923 . S
C1303 C190 1.923 . S
C1305 C122 1.923 . S
C1321 C360 1.923 . S
C1323 C292 1.923 . S
C1339 C326 1.923 . S
C1341 C394 1.923 . S
C1357 C428 1.923 . S
C1359 C496 1.923 . S
C1375 C530 1.923 . S
C1377 C462 1.923 . S
C1393 C564 1.923 . S
C1395 C598 1.923 . S
C1411 C632 1.923 . S
C1413 C802 1.923 . S
C1429 C666 1.923 . S
C1431 C734 1.923 . S
C1447 C768 1.923 . S
C1449 C700 1.923 . S
C1465 C2 1.373 . S
C1467 C281 1.305 . S
C1483 C36 1.373 . S
C1485 C315 1.305 . S
C1501 C349 1.305 . S
C1503 C70 1.373 . S
C1519 C383 1.305 . S
C1521 C104 1.373 . S
C1537 C138 1.373 . S
C1539 C417 1.305 . S
C1555 C451 1.305 . S
C1557 C172 1.373 . S
C1573 C206 1.373 . S
C1575 C485 1.305 . S
C1591 C519 1.305 . S
C1593 C240 1.373 . S
C1609 C274 1.373 . S
C1611 C553 1.305 . S
C1627 C791 1.305 . S
C1629 C308 1.373 . S
C1645 C342 1.373 . S
C1647 C723 1.305 . S
C1663 C376 1.373 . S
C1665 C757 1.305 . S
C1681 C587 1.305 . S
C1683 C410 1.373 . S
C1699 C444 1.373 . S
C1701 C621 1.305 . S
C1717 C478 1.373 . S
C1719 C655 1.305 . S
C1735 C512 1.373 . S
C1737 C689 1.305 . S
C1753 C546 1.373 . S
C1755 C9 1.305 . S
C1771 C580 1.373 . S
C1773 C145 1.305 . S
C1789 C614 1.373 . S
C1791 C179 1.305 . S
C1807 C213 1.305 . S
C1809 C648 1.373 . S
C1825 C682 1.373 . S
C1827 C247 1.305 . S
C1843 C77 1.305 . S
C1845 C716 1.373 . S
C1861 C111 1.305 . S
C1863 C750 1.373 . S
C1879 C784 1.373 . S
C1881 C43 1.305 . S
