# Generated by pormake.
# Topology zfr, (5)-cn, num edge types: 1
# Building blocks:
#     Node 0, Type 0, BuildingBlock: BEQFEK_clean_sbu_0, # of connection points: 5
#     Node 1, Type 0, BuildingBlock: BEQFEK_clean_sbu_0, # of connection points: 5
#     Node 2, Type 0, BuildingBlock: BEQFEK_clean_sbu_0, # of connection points: 5
#     Node 3, Type 0, BuildingBlock: BEQFEK_clean_sbu_0, # of connection points: 5
#     Node 4, Type 0, BuildingBlock: BEQFEK_clean_sbu_0, # of connection points: 5
#     Node 5, Type 0, BuildingBlock: BEQFEK_clean_sbu_0, # of connection points: 5
#     Node 6, Type 0, BuildingBlock: BEQFEK_clean_sbu_0, # of connection points: 5
#     Node 7, Type 0, BuildingBlock: BEQFEK_clean_sbu_0, # of connection points: 5
#     Edge 8, Type (0, 0), BuildingBlock: KIFKEQ_clean_linker_1, # of connection points: 2
#     Edge 9, Type (0, 0), BuildingBlock: KIFKEQ_clean_linker_1, # of connection points: 2
#     Edge 10, Type (0, 0), BuildingBlock: KIFKEQ_clean_linker_1, # of connection points: 2
#     Edge 11, Type (0, 0), BuildingBlock: KIFKEQ_clean_linker_1, # of connection points: 2
#     Edge 12, Type (0, 0), BuildingBlock: KIFKEQ_clean_linker_1, # of connection points: 2
#     Edge 13, Type (0, 0), BuildingBlock: KIFKEQ_clean_linker_1, # of connection points: 2
#     Edge 14, Type (0, 0), BuildingBlock: KIFKEQ_clean_linker_1, # of connection points: 2
#     Edge 15, Type (0, 0), BuildingBlock: KIFKEQ_clean_linker_1, # of connection points: 2
#     Edge 16, Type (0, 0), BuildingBlock: KIFKEQ_clean_linker_1, # of connection points: 2
#     Edge 17, Type (0, 0), BuildingBlock: KIFKEQ_clean_linker_1, # of connection points: 2
#     Edge 18, Type (0, 0), BuildingBlock: KIFKEQ_clean_linker_1, # of connection points: 2
#     Edge 19, Type (0, 0), BuildingBlock: KIFKEQ_clean_linker_1, # of connection points: 2
#     Edge 20, Type (0, 0), BuildingBlock: KIFKEQ_clean_linker_1, # of connection points: 2
#     Edge 21, Type (0, 0), BuildingBlock: KIFKEQ_clean_linker_1, # of connection points: 2
#     Edge 22, Type (0, 0), BuildingBlock: KIFKEQ_clean_linker_1, # of connection points: 2
#     Edge 23, Type (0, 0), BuildingBlock: KIFKEQ_clean_linker_1, # of connection points: 2
#     Edge 24, Type (0, 0), BuildingBlock: KIFKEQ_clean_linker_1, # of connection points: 2
#     Edge 25, Type (0, 0), BuildingBlock: KIFKEQ_clean_linker_1, # of connection points: 2
#     Edge 26, Type (0, 0), BuildingBlock: KIFKEQ_clean_linker_1, # of connection points: 2
#     Edge 27, Type (0, 0), BuildingBlock: KIFKEQ_clean_linker_1, # of connection points: 2
# Relax obj value: 0.283
# Max RMSD: 0.233
# Mean RMSD: 0.232
data_MOF--net-zfr--node1-BEQFEK_clean_sbu_0--edge1-KIFKEQ_clean_linker_1
_symmetry_space_group_name_H-M    P1
_symmetry_Int_Tables_number       1
_symmetry_cell_setting            triclinic
loop_
_symmetry_equiv_pos_as_xyz
'x, y, z'
_cell_length_a     51.269474
_cell_length_b     51.271888
_cell_length_c     18.667772
_cell_angle_alpha  90.025177
_cell_angle_beta   89.998026
_cell_angle_gamma 89.962011
loop_
_atom_site_label
_atom_site_type_symbol
_atom_site_fract_x
_atom_site_fract_y
_atom_site_fract_z
_atom_type_partial_charge
Co0 Co 0.13652 0.35361 0.13512 0.0
Co1 Co 0.10642 0.35198 0.28 0.0
C2 C 0.12906 0.40197 0.21687 0.0
O3 O 0.13984 0.39043 0.16429 0.0
O4 O 0.11557 0.38934 0.26252 0.0
C5 C 0.15795 0.36558 -0.00095 0.0
O6 O 0.1563 0.38981 0.02143 0.0
C7 C 0.10632 0.36036 0.4332 0.0
C8 C 0.07887 0.33039 0.47224 0.0
C9 C 0.09729 0.34838 0.49496 0.0
N10 N 0.09477 0.3491 0.37656 0.0
N11 N 0.07779 0.33173 0.40019 0.0
C12 C 0.12617 0.38167 0.4271 0.0
H13 H 0.11809 0.39755 0.39386 0.0
H14 H 0.1439 0.37412 0.40002 0.0
H15 H 0.13128 0.39016 0.47985 0.0
C16 C 0.16907 0.31408 0.20751 0.0
N17 N 0.14882 0.3308 0.20626 0.0
N18 N 0.13623 0.32969 0.26757 0.0
C19 C 0.14824 0.31205 0.31011 0.0
C20 C 0.16942 0.30159 0.27345 0.0
C21 C 0.18682 0.30951 0.14511 0.0
H22 H 0.17498 0.30455 0.09726 0.0
H23 H 0.1976 0.32775 0.13306 0.0
H24 H 0.20084 0.29346 0.15534 0.0
O25 O 0.09973 0.34631 0.11266 0.0
O26 O 0.07755 0.34205 0.21376 0.0
H27 H 0.11986 0.30087 0.38833 0.0
H28 H 0.15263 0.29105 0.41088 0.0
C29 C 0.14067 0.30658 0.38609 0.0
H30 H 0.14355 0.32444 0.41827 0.0
H31 H 0.06679 0.31957 0.36706 0.0
O32 O 0.15368 0.34718 0.04293 0.0
C33 C 0.07853 0.3417 0.14555 0.0
Co34 Co 0.64472 0.13768 0.37607 0.0
Co35 Co 0.64596 0.10905 0.52327 0.0
C36 C 0.59636 0.13185 0.46186 0.0
O37 O 0.60781 0.14091 0.40671 0.0
O38 O 0.60888 0.11913 0.50932 0.0
C39 C 0.63168 0.15971 0.24063 0.0
O40 O 0.60762 0.15835 0.26448 0.0
C41 C 0.63836 0.10821 0.67677 0.0
C42 C 0.66794 0.07979 0.71307 0.0
C43 C 0.64971 0.09768 0.73732 0.0
N44 N 0.64945 0.0972 0.61907 0.0
N45 N 0.66663 0.0797 0.64098 0.0
C46 C 0.62045 0.13128 0.67364 0.0
H47 H 0.6 0.12426 0.67365 0.0
H48 H 0.62388 0.14265 0.624 0.0
H49 H 0.62316 0.14417 0.72083 0.0
C50 C 0.68455 0.17052 0.447 0.0
N51 N 0.6677 0.15039 0.44664 0.0
N52 N 0.66868 0.13828 0.5087 0.0
C53 C 0.68632 0.15044 0.55079 0.0
C54 C 0.69697 0.17126 0.51308 0.0
C55 C 0.68921 0.18789 0.3839 0.0
H56 H 0.69359 0.17576 0.33617 0.0
H57 H 0.67117 0.1991 0.37234 0.0
H58 H 0.70563 0.20154 0.39319 0.0
O59 O 0.65269 0.10089 0.35415 0.0
O60 O 0.65443 0.07968 0.45741 0.0
H61 H 0.69713 0.12253 0.63077 0.0
H62 H 0.70719 0.15535 0.65168 0.0
C63 C 0.6916 0.14337 0.6273 0.0
H64 H 0.67371 0.1466 0.65918 0.0
H65 H 0.67869 0.06901 0.60674 0.0
O66 O 0.65038 0.15482 0.28315 0.0
C67 C 0.65616 0.07996 0.38936 0.0
Co68 Co 0.8605 0.64508 0.62924 0.0
Co69 Co 0.8908 0.64656 0.77429 0.0
C70 C 0.86859 0.59674 0.71173 0.0
O71 O 0.85744 0.60812 0.65946 0.0
O72 O 0.88227 0.60941 0.75669 0.0
C73 C 0.83954 0.63212 0.49353 0.0
O74 O 0.84162 0.60809 0.51721 0.0
C75 C 0.89354 0.63643 0.92696 0.0
C76 C 0.91701 0.66953 0.96643 0.0
C77 C 0.90134 0.6491 0.98903 0.0
N78 N 0.90297 0.64959 0.87044 0.0
N79 N 0.91773 0.66884 0.89431 0.0
C80 C 0.87676 0.61262 0.92062 0.0
H81 H 0.88672 0.5981 0.88617 0.0
H82 H 0.85798 0.61787 0.89482 0.0
H83 H 0.87318 0.60331 0.97328 0.0
C84 C 0.82773 0.68427 0.7029 0.0
N85 N 0.84812 0.66772 0.70086 0.0
N86 N 0.86047 0.66828 0.76263 0.0
C87 C 0.84796 0.6851 0.80653 0.0
C88 C 0.82693 0.69592 0.77003 0.0
C89 C 0.81018 0.68941 0.64042 0.0
H90 H 0.82215 0.69315 0.59201 0.0
H91 H 0.79819 0.67181 0.62994 0.0
H92 H 0.79723 0.70638 0.64995 0.0
O93 O 0.89714 0.65334 0.60606 0.0
O94 O 0.9193 0.65668 0.70756 0.0
H95 H 0.87425 0.69794 0.88811 0.0
H96 H 0.84034 0.70178 0.91175 0.0
C97 C 0.8546 0.68913 0.88382 0.0
H98 H 0.85458 0.67007 0.91139 0.0
H99 H 0.92669 0.68265 0.86141 0.0
O100 O 0.84314 0.6509 0.53672 0.0
C101 C 0.91827 0.65784 0.63946 0.0
Co102 Co 0.35283 0.8601 0.87731 0.0
Co103 Co 0.35113 0.88903 0.02409 0.0
C104 C 0.40084 0.86569 0.96425 0.0
O105 O 0.38956 0.85654 0.90893 0.0
O106 O 0.38821 0.87863 0.01105 0.0
C107 C 0.36601 0.83855 0.74155 0.0
O108 O 0.39006 0.84042 0.76519 0.0
C109 C 0.35835 0.88951 0.17755 0.0
C110 C 0.32941 0.91855 0.2141 0.0
C111 C 0.34725 0.90025 0.23816 0.0
N112 N 0.34754 0.90082 0.11994 0.0
N113 N 0.33072 0.91866 0.14198 0.0
C114 C 0.37579 0.86608 0.17425 0.0
H115 H 0.3721 0.8548 0.12457 0.0
H116 H 0.37285 0.85325 0.22142 0.0
H117 H 0.39638 0.87269 0.17417 0.0
C118 C 0.31257 0.82765 0.94732 0.0
N119 N 0.32948 0.84771 0.94726 0.0
N120 N 0.32819 0.86003 0.009 0.0
C121 C 0.31019 0.84812 0.0505 0.0
C122 C 0.29973 0.8272 0.01279 0.0
C123 C 0.30832 0.80999 0.88455 0.0
H124 H 0.3039 0.82191 0.83647 0.0
H125 H 0.32654 0.799 0.87357 0.0
H126 H 0.29205 0.79615 0.89382 0.0
O127 O 0.34523 0.89692 0.85509 0.0
O128 O 0.34308 0.91841 0.95794 0.0
H129 H 0.29949 0.87656 0.12923 0.0
H130 H 0.28815 0.84413 0.14971 0.0
C131 C 0.30438 0.85554 0.12647 0.0
H132 H 0.32184 0.85184 0.15976 0.0
H133 H 0.31894 0.92966 0.10784 0.0
O134 O 0.34726 0.84294 0.78432 0.0
C135 C 0.34167 0.91794 0.88983 0.0
Co136 Co 0.13764 0.64556 0.34909 0.0
Co137 Co 0.10876 0.64798 0.20217 0.0
C138 C 0.13085 0.59777 0.26251 0.0
O139 O 0.1401 0.60887 0.31781 0.0
O140 O 0.11837 0.61067 0.21546 0.0
C141 C 0.1603 0.63033 0.48114 0.0
O142 O 0.15921 0.60703 0.45209 0.0
C143 C 0.1149 0.64395 0.05016 0.0
C144 C 0.07798 0.65904 0.00543 0.0
C145 C 0.10229 0.64937 0.98668 0.0
N146 N 0.09909 0.65048 0.10449 0.0
N147 N 0.07691 0.65934 0.07768 0.0
C148 C 0.14133 0.6319 0.05922 0.0
H149 H 0.14724 0.63165 0.1163 0.0
H150 H 0.1561 0.64276 0.02783 0.0
H151 H 0.14089 0.61162 0.03839 0.0
C152 C 0.17161 0.68444 0.27769 0.0
N153 N 0.15089 0.66833 0.27906 0.0
N154 N 0.13772 0.67069 0.21891 0.0
C155 C 0.14931 0.68906 0.17817 0.0
C156 C 0.17138 0.69798 0.21335 0.0
C157 C 0.19155 0.68606 0.33597 0.0
H158 H 0.19462 0.66652 0.36008 0.0
H159 H 0.21035 0.69374 0.31541 0.0
H160 H 0.18427 0.69932 0.3785 0.0
O161 O 0.10073 0.65432 0.36925 0.0
O162 O 0.07905 0.65658 0.26647 0.0
H163 H 0.14386 0.72064 0.10355 0.0
H164 H 0.14668 0.68899 0.06384 0.0
C165 C 0.1384 0.69982 0.10988 0.0
H166 H 0.11687 0.69814 0.10926 0.0
H167 H 0.06123 0.66587 0.10859 0.0
O168 O 0.15477 0.6501 0.44302 0.0
C169 C 0.0797 0.65821 0.3346 0.0
Co170 Co 0.35338 0.13918 0.60416 0.0
Co171 Co 0.35079 0.11021 0.45746 0.0
C172 C 0.40097 0.13292 0.51494 0.0
O173 O 0.38992 0.14227 0.5704 0.0
O174 O 0.38809 0.12001 0.46862 0.0
C175 C 0.36793 0.15818 0.7404 0.0
O176 O 0.39158 0.1536 0.71647 0.0
C177 C 0.35753 0.10789 0.30356 0.0
C178 C 0.3265 0.08063 0.26993 0.0
C179 C 0.34549 0.09734 0.24406 0.0
N180 N 0.34617 0.09797 0.36229 0.0
N181 N 0.32807 0.08117 0.34198 0.0
C182 C 0.37654 0.13007 0.3046 0.0
H183 H 0.37327 0.14252 0.35235 0.0
H184 H 0.37489 0.14216 0.25551 0.0
H185 H 0.3966 0.12203 0.30711 0.0
C186 C 0.31261 0.17168 0.53602 0.0
N187 N 0.32966 0.1517 0.53524 0.0
N188 N 0.3284 0.13967 0.47307 0.0
C189 C 0.31049 0.15186 0.43185 0.0
C190 C 0.29983 0.17249 0.47045 0.0
C191 C 0.30805 0.18878 0.59978 0.0
H192 H 0.3051 0.17647 0.64795 0.0
H193 H 0.32561 0.20096 0.60911 0.0
H194 H 0.29078 0.20155 0.59256 0.0
O195 O 0.34558 0.10255 0.62731 0.0
O196 O 0.34274 0.08109 0.52459 0.0
H197 H 0.29803 0.12469 0.35181 0.0
H198 H 0.29054 0.15818 0.33021 0.0
C199 C 0.30508 0.14507 0.35522 0.0
H200 H 0.32329 0.14682 0.32396 0.0
H201 H 0.31567 0.07137 0.37725 0.0
O202 O 0.34882 0.15648 0.69738 0.0
C203 C 0.34166 0.08157 0.59274 0.0
Co204 Co 0.85766 0.35483 0.85103 0.0
Co205 Co 0.88883 0.35056 0.70801 0.0
C206 C 0.86623 0.40158 0.76434 0.0
O207 O 0.85413 0.39112 0.81642 0.0
O208 O 0.88053 0.38809 0.72264 0.0
C209 C 0.84031 0.36891 0.98815 0.0
O210 O 0.84593 0.39243 0.96497 0.0
C211 C 0.89211 0.35957 0.55486 0.0
C212 C 0.91491 0.32571 0.51712 0.0
C213 C 0.89976 0.34639 0.49344 0.0
N214 N 0.90112 0.34652 0.6121 0.0
N215 N 0.91549 0.32679 0.58926 0.0
C216 C 0.87593 0.38385 0.55984 0.0
H217 H 0.88629 0.39837 0.59331 0.0
H218 H 0.85704 0.3793 0.58603 0.0
H219 H 0.87253 0.39287 0.5067 0.0
C220 C 0.82533 0.31431 0.78121 0.0
N221 N 0.84571 0.33087 0.78203 0.0
N222 N 0.85834 0.32932 0.72081 0.0
C223 C 0.84602 0.31186 0.67846 0.0
C224 C 0.82484 0.30163 0.71547 0.0
C225 C 0.80745 0.31021 0.84355 0.0
H226 H 0.81915 0.30736 0.8929 0.0
H227 H 0.79532 0.32793 0.85118 0.0
H228 H 0.79462 0.29305 0.8357 0.0
O229 O 0.89442 0.34783 0.87566 0.0
O230 O 0.91692 0.34061 0.77635 0.0
H231 H 0.87243 0.29729 0.59935 0.0
H232 H 0.83857 0.2941 0.57454 0.0
C233 C 0.853 0.3067 0.60189 0.0
H234 H 0.85366 0.32539 0.57251 0.0
H235 H 0.92408 0.31296 0.62285 0.0
O236 O 0.84042 0.35005 0.94409 0.0
C237 C 0.91564 0.34189 0.84442 0.0
Co238 Co 0.64392 0.85781 0.10782 0.0
Co239 Co 0.64626 0.88665 0.96102 0.0
C240 C 0.59614 0.86414 0.01985 0.0
O241 O 0.60722 0.85482 0.07526 0.0
O242 O 0.60901 0.8769 0.97324 0.0
C243 C 0.62984 0.8374 0.24362 0.0
O244 O 0.60597 0.84067 0.21971 0.0
C245 C 0.63922 0.88788 0.80738 0.0
C246 C 0.66927 0.91591 0.77195 0.0
C247 C 0.65077 0.89842 0.7472 0.0
N248 N 0.65039 0.89854 0.86543 0.0
N249 N 0.66789 0.91579 0.84406 0.0
C250 C 0.62093 0.86513 0.80979 0.0
H251 H 0.60061 0.87253 0.81107 0.0
H252 H 0.62441 0.85331 0.85862 0.0
H253 H 0.62316 0.85258 0.76173 0.0
C254 C 0.68418 0.82492 0.03862 0.0
N255 N 0.66731 0.84506 0.03829 0.0
N256 N 0.66869 0.85723 0.97638 0.0
C257 C 0.68661 0.8451 0.93508 0.0
C258 C 0.69704 0.82426 0.97318 0.0
C259 C 0.68848 0.80752 0.10186 0.0
H260 H 0.69256 0.81963 0.14982 0.0
H261 H 0.67039 0.79631 0.11258 0.0
H262 H 0.70497 0.79386 0.09324 0.0
O263 O 0.65195 0.89453 0.13044 0.0
O264 O 0.65458 0.91586 0.0275 0.0
H265 H 0.69846 0.87299 0.85624 0.0
H266 H 0.70784 0.83997 0.83487 0.0
C267 C 0.69242 0.85228 0.85895 0.0
H268 H 0.67461 0.84964 0.82635 0.0
H269 H 0.68004 0.9262 0.87862 0.0
O270 O 0.64885 0.84053 0.20091 0.0
C271 C 0.65584 0.91546 0.09564 0.0
H272 H 0.30227 0.22556 0.47499 0.0
H273 H 0.25266 0.16186 0.41065 0.0
H274 H 0.27032 0.25669 0.42924 0.0
H275 H 0.22163 0.19259 0.35955 0.0
H276 H 0.15913 0.25393 0.33073 0.0
H277 H 0.18993 0.22335 0.38365 0.0
H278 H 0.25367 0.27409 0.32324 0.0
H279 H 0.22238 0.30552 0.27568 0.0
C280 C 0.28447 0.21829 0.45097 0.0
C281 C 0.27993 0.19138 0.44584 0.0
C282 C 0.26632 0.23607 0.42367 0.0
C283 C 0.24339 0.22728 0.38975 0.0
C284 C 0.23881 0.20024 0.38591 0.0
C285 C 0.25673 0.18255 0.41439 0.0
C286 C 0.17974 0.25855 0.32954 0.0
C287 C 0.18842 0.28214 0.3 0.0
C288 C 0.19748 0.2409 0.35907 0.0
C289 C 0.22444 0.24615 0.35817 0.0
C290 C 0.23309 0.26954 0.32651 0.0
C291 C 0.21524 0.28741 0.29819 0.0
H292 H 0.83586 0.25479 0.65461 0.0
H293 H 0.77165 0.30413 0.71731 0.0
H294 H 0.80552 0.22391 0.60131 0.0
H295 H 0.74088 0.27232 0.669 0.0
H296 H 0.69308 0.22425 0.51309 0.0
H297 H 0.72423 0.25569 0.56146 0.0
H298 H 0.77476 0.19211 0.62486 0.0
H299 H 0.74447 0.16117 0.57144 0.0
C300 C 0.81514 0.25882 0.65758 0.0
C301 C 0.80606 0.28188 0.68943 0.0
C302 C 0.79767 0.24099 0.62774 0.0
C303 C 0.77061 0.24553 0.63046 0.0
C304 C 0.76155 0.26835 0.66444 0.0
C305 C 0.77912 0.28641 0.69322 0.0
C306 C 0.7111 0.21718 0.53638 0.0
C307 C 0.71638 0.19037 0.53908 0.0
C308 C 0.72879 0.23512 0.56514 0.0
C309 C 0.75201 0.22654 0.59796 0.0
C310 C 0.75733 0.1996 0.59941 0.0
C311 C 0.73985 0.18178 0.56955 0.0
H312 H 0.83745 0.74198 0.83586 0.0
H313 H 0.77379 0.6932 0.76656 0.0
H314 H 0.80668 0.77226 0.89023 0.0
H315 H 0.74262 0.72439 0.81621 0.0
H316 H 0.69361 0.77123 0.97213 0.0
H317 H 0.72534 0.74014 0.92456 0.0
H318 H 0.77587 0.80422 0.86575 0.0
H319 H 0.74491 0.83482 0.91801 0.0
C320 C 0.81677 0.73793 0.83179 0.0
C321 C 0.80795 0.71522 0.79761 0.0
C322 C 0.79907 0.75541 0.86225 0.0
C323 C 0.77204 0.75086 0.85794 0.0
C324 C 0.76326 0.72835 0.82196 0.0
C325 C 0.78105 0.71065 0.79246 0.0
C326 C 0.71175 0.77848 0.95004 0.0
C327 C 0.71683 0.80534 0.94818 0.0
C328 C 0.72978 0.76075 0.92178 0.0
C329 C 0.75316 0.76958 0.89043 0.0
C330 C 0.75831 0.79656 0.89004 0.0
C331 C 0.74047 0.81417 0.91927 0.0
H332 H 0.1899 0.74218 0.27696 0.0
H333 H 0.19655 0.69518 0.08609 0.0
H334 H 0.22103 0.7736 0.22658 0.0
H335 H 0.22762 0.7264 0.03576 0.0
H336 H 0.30473 0.7744 0.01602 0.0
H337 H 0.2738 0.74262 0.06491 0.0
H338 H 0.22081 0.80516 0.11841 0.0
H339 H 0.25145 0.8368 0.06758 0.0
C340 C 0.1982 0.73856 0.22452 0.0
C341 C 0.19093 0.71643 0.18517 0.0
C342 C 0.21579 0.75654 0.19553 0.0
C343 C 0.22664 0.7524 0.12724 0.0
C344 C 0.21965 0.72997 0.08861 0.0
C345 C 0.20182 0.71224 0.11715 0.0
C346 C 0.28631 0.78123 0.03742 0.0
C347 C 0.28045 0.80796 0.03865 0.0
C348 C 0.26869 0.76312 0.06553 0.0
C349 C 0.24506 0.77151 0.09603 0.0
C350 C 0.23908 0.79824 0.09626 0.0
C351 C 0.25653 0.81628 0.06717 0.0
H352 H 0.14887 0.35215 0.53179 0.0
H353 H 0.0716 0.34498 0.62207 0.0
H354 H 0.16733 0.35534 0.65178 0.0
H355 H 0.09052 0.3465 0.74278 0.0
H356 H 0.14127 0.32067 0.93584 0.0
H357 H 0.1282 0.3152 0.81121 0.0
H358 H 0.15709 0.39213 0.76216 0.0
H359 H 0.16962 0.39816 0.88776 0.0
C360 C 0.13574 0.35186 0.57713 0.0
C361 C 0.10859 0.34968 0.56761 0.0
C362 C 0.14643 0.35323 0.64565 0.0
C363 C 0.13026 0.35138 0.70577 0.0
C364 C 0.10328 0.34802 0.69669 0.0
C365 C 0.0925 0.34724 0.628 0.0
C366 C 0.14544 0.33624 0.89838 0.0
C367 C 0.15627 0.36 0.92171 0.0
C368 C 0.13775 0.33312 0.82731 0.0
C369 C 0.14137 0.35339 0.77813 0.0
C370 C 0.15408 0.37631 0.79973 0.0
C371 C 0.16129 0.3797 0.87129 0.0
H372 H 0.59758 0.17053 0.13191 0.0
H373 H 0.67677 0.14586 0.17328 0.0
H374 H 0.60287 0.15914 0.00596 0.0
H375 H 0.68157 0.13306 0.04943 0.0
H376 H 0.68847 0.12048 0.81265 0.0
H377 H 0.68518 0.1421 0.92873 0.0
H378 H 0.60371 0.1203 0.94073 0.0
H379 H 0.60697 0.10028 0.8224 0.0
C380 C 0.61623 0.16305 0.1139 0.0
C381 C 0.63661 0.15878 0.16273 0.0
C382 C 0.61917 0.15617 0.04191 0.0
C383 C 0.64242 0.1445 0.0176 0.0
C384 C 0.66341 0.14209 0.06563 0.0
C385 C 0.66063 0.1494 0.13713 0.0
C386 C 0.66999 0.12024 0.84081 0.0
C387 C 0.64806 0.10847 0.80994 0.0
C388 C 0.66802 0.13264 0.90716 0.0
C389 C 0.64417 0.13301 0.94454 0.0
C390 C 0.62226 0.12098 0.91313 0.0
C391 C 0.62414 0.1091 0.84603 0.0
H392 H 0.85064 0.63884 0.02568 0.0
H393 H 0.9262 0.65626 0.11619 0.0
H394 H 0.8322 0.63542 0.14555 0.0
H395 H 0.9072 0.65428 0.23664 0.0
H396 H 0.85582 0.67679 0.42815 0.0
H397 H 0.86932 0.68149 0.30365 0.0
H398 H 0.84214 0.60358 0.25843 0.0
H399 H 0.82906 0.59845 0.38378 0.0
C400 C 0.86351 0.64122 0.07112 0.0
C401 C 0.89022 0.64653 0.0617 0.0
C402 C 0.85278 0.63971 0.13962 0.0
C403 C 0.86835 0.64445 0.19982 0.0
C404 C 0.89485 0.65058 0.19066 0.0
C405 C 0.90571 0.65158 0.12207 0.0
C406 C 0.85211 0.66083 0.39149 0.0
C407 C 0.84156 0.63712 0.4159 0.0
C408 C 0.86009 0.6635 0.32047 0.0
C409 C 0.85711 0.64274 0.27231 0.0
C410 C 0.8447 0.61979 0.29501 0.0
C411 C 0.83716 0.61691 0.3665 0.0
H412 H 0.30854 0.87765 0.31415 0.0
H413 H 0.39009 0.89771 0.32273 0.0
H414 H 0.312 0.85614 0.43035 0.0
H415 H 0.39352 0.87786 0.44115 0.0
H416 H 0.4 0.82785 0.63248 0.0
H417 H 0.3945 0.83917 0.50659 0.0
H418 H 0.31581 0.86512 0.55095 0.0
H419 H 0.32081 0.85235 0.67474 0.0
C420 C 0.32707 0.87788 0.34209 0.0
C421 C 0.34897 0.88958 0.31087 0.0
C422 C 0.32913 0.86556 0.4085 0.0
C423 C 0.35305 0.86519 0.44558 0.0
C424 C 0.37492 0.87717 0.41381 0.0
C425 C 0.37294 0.88896 0.34665 0.0
C426 C 0.38131 0.83528 0.61467 0.0
C427 C 0.36099 0.8395 0.66371 0.0
C428 C 0.37824 0.84213 0.54271 0.0
C429 C 0.35493 0.85375 0.51866 0.0
C430 C 0.33401 0.85613 0.56693 0.0
C431 C 0.33691 0.84883 0.6384 0.0
H432 H 0.08364 0.62013 0.87708 0.0
H433 H 0.14509 0.67371 0.93394 0.0
H434 H 0.10295 0.61483 0.75774 0.0
H435 H 0.1645 0.66845 0.81492 0.0
H436 H 0.15727 0.5913 0.58003 0.0
H437 H 0.14564 0.59594 0.70595 0.0
H438 H 0.15032 0.67969 0.6866 0.0
H439 H 0.16183 0.67522 0.56029 0.0
C440 C 0.10126 0.63073 0.86375 0.0
C441 C 0.11313 0.64704 0.91422 0.0
C442 C 0.11244 0.62754 0.7961 0.0
C443 C 0.1354 0.64099 0.77776 0.0
C444 C 0.1469 0.65778 0.82798 0.0
C445 C 0.1359 0.66068 0.89588 0.0
C446 C 0.15647 0.61071 0.60287 0.0
C447 C 0.16006 0.63293 0.5599 0.0
C448 C 0.14959 0.61332 0.6748 0.0
C449 C 0.14659 0.63816 0.70527 0.0
C450 C 0.15242 0.66032 0.66415 0.0
C451 C 0.15903 0.65774 0.59192 0.0
H452 H 0.38772 0.09518 0.15723 0.0
H453 H 0.30845 0.12285 0.16866 0.0
H454 H 0.39233 0.11435 0.03824 0.0
H455 H 0.31322 0.14361 0.05174 0.0
H456 H 0.32181 0.14771 0.80702 0.0
H457 H 0.31592 0.13457 0.93041 0.0
H458 H 0.39661 0.1533 0.97463 0.0
H459 H 0.40283 0.16503 0.84931 0.0
C460 C 0.37131 0.10539 0.13374 0.0
C461 C 0.34762 0.10721 0.1706 0.0
C462 C 0.374 0.11679 0.06627 0.0
C463 C 0.3532 0.13078 0.03525 0.0
C464 C 0.32951 0.13265 0.07311 0.0
C465 C 0.3267 0.12076 0.13991 0.0
C466 C 0.33818 0.14958 0.84333 0.0
C467 C 0.36291 0.15705 0.81818 0.0
C468 C 0.33479 0.14205 0.91448 0.0
C469 C 0.35593 0.1423 0.9625 0.0
C470 C 0.3801 0.15201 0.93864 0.0
C471 C 0.38361 0.15909 0.86705 0.0
H472 H 0.84945 0.35749 0.45512 0.0
H473 H 0.9251 0.3388 0.36696 0.0
H474 H 0.83184 0.36231 0.3346 0.0
H475 H 0.90685 0.34211 0.24571 0.0
H476 H 0.85408 0.32297 0.05098 0.0
H477 H 0.86722 0.31655 0.17541 0.0
H478 H 0.84505 0.39574 0.22449 0.0
H479 H 0.83249 0.40259 0.09926 0.0
C480 C 0.86251 0.35504 0.41006 0.0
C481 C 0.88905 0.3491 0.42035 0.0
C482 C 0.85224 0.35736 0.34122 0.0
C483 C 0.86808 0.35278 0.28145 0.0
C484 C 0.89433 0.34576 0.29139 0.0
C485 C 0.90475 0.34398 0.36042 0.0
C486 C 0.85139 0.33886 0.08853 0.0
C487 C 0.84231 0.36335 0.06543 0.0
C488 C 0.85917 0.3352 0.15943 0.0
C489 C 0.85739 0.35576 0.20868 0.0
C490 C 0.84661 0.37966 0.18705 0.0
C491 C 0.83936 0.38352 0.1157 0.0
H492 H 0.67566 0.84859 0.31095 0.0
H493 H 0.59507 0.82909 0.35222 0.0
H494 H 0.68114 0.86136 0.43472 0.0
H495 H 0.60093 0.84045 0.47796 0.0
H496 H 0.60832 0.89894 0.66102 0.0
H497 H 0.60413 0.87934 0.54239 0.0
H498 H 0.684 0.85224 0.55581 0.0
H499 H 0.68832 0.87345 0.6723 0.0
C500 C 0.65931 0.84617 0.34708 0.0
C501 C 0.63478 0.83825 0.3215 0.0
C502 C 0.66247 0.85347 0.41849 0.0
C503 C 0.64132 0.85252 0.46638 0.0
C504 C 0.61742 0.84229 0.4421 0.0
C505 C 0.61412 0.83542 0.37023 0.0
C506 C 0.62497 0.88908 0.6376 0.0
C507 C 0.64875 0.88806 0.67422 0.0
C508 C 0.62253 0.87744 0.57034 0.0
C509 C 0.64369 0.86399 0.53932 0.0
C510 C 0.66743 0.86279 0.57714 0.0
C511 C 0.66999 0.87494 0.64369 0.0
H512 H 0.0732 0.34728 0.00126 0.0
H513 H 0.02985 0.32622 0.19121 0.0
H514 H 0.03398 0.34385 0.93006 0.0
H515 H 0.99044 0.32157 0.11874 0.0
H516 H 0.9212 0.35196 0.9869 0.0
H517 H 0.96013 0.3483 0.05955 0.0
H518 H 0.0022 0.3172 0.87775 0.0
H519 H 0.96325 0.32206 0.80374 0.0
C520 C 0.05533 0.34147 0.02782 0.0
C521 C 0.05467 0.33725 0.10229 0.0
C522 C 0.03277 0.33926 0.98657 0.0
C523 C 0.00888 0.33246 0.01833 0.0
C524 C 0.00837 0.32731 0.09253 0.0
C525 C 0.03099 0.32983 0.13413 0.0
C526 C 0.93869 0.34419 0.96228 0.0
C527 C 0.93915 0.33756 0.88912 0.0
C528 C 0.96106 0.34185 0.00437 0.0
C529 C 0.98448 0.33252 0.97479 0.0
C530 C 0.98468 0.32495 0.90215 0.0
C531 C 0.96232 0.32761 0.85967 0.0
H532 H 0.67314 0.91994 0.23311 0.0
H533 H 0.64902 0.96587 0.05087 0.0
H534 H 0.67738 0.95939 0.30445 0.0
H535 H 0.65203 0.00534 0.12306 0.0
H536 H 0.64811 0.02973 0.43391 0.0
H537 H 0.65093 0.99018 0.362 0.0
H538 H 0.67869 0.03551 0.18216 0.0
H539 H 0.67463 0.07508 0.25316 0.0
C540 C 0.66876 0.93852 0.20824 0.0
C541 C 0.66062 0.93978 0.13639 0.0
C542 C 0.671 0.96117 0.24938 0.0
C543 C 0.66478 0.98565 0.22008 0.0
C544 C 0.65735 0.98694 0.14744 0.0
C545 C 0.65549 0.96427 0.10594 0.0
C546 C 0.65508 0.03116 0.37927 0.0
C547 C 0.66092 0.05554 0.34909 0.0
C548 C 0.65683 0.00845 0.33793 0.0
C549 C 0.66485 0.00955 0.26575 0.0
C550 C 0.67182 0.03389 0.23683 0.0
C551 C 0.66969 0.0566 0.27778 0.0
H552 H 0.07593 0.67788 0.46963 0.0
H553 H 0.02911 0.64989 0.2934 0.0
H554 H 0.03702 0.68227 0.54306 0.0
H555 H 0.99018 0.65305 0.36785 0.0
H556 H 0.96921 0.65218 0.6807 0.0
H557 H 0.00786 0.65551 0.6054 0.0
H558 H 0.95967 0.67946 0.42695 0.0
H559 H 0.92104 0.67492 0.50147 0.0
C560 C 0.05725 0.6727 0.44652 0.0
C561 C 0.05559 0.66337 0.37583 0.0
C562 C 0.03492 0.67502 0.48887 0.0
C563 C 0.01038 0.66768 0.46205 0.0
C564 C 0.00864 0.6592 0.39033 0.0
C565 C 0.03098 0.65727 0.34753 0.0
C566 C 0.96695 0.65845 0.62564 0.0
C567 C 0.94207 0.66307 0.59695 0.0
C568 C 0.98913 0.66049 0.58233 0.0
C569 C 0.98698 0.66758 0.50959 0.0
C570 C 0.96211 0.67335 0.48206 0.0
C571 C 0.93994 0.67094 0.52503 0.0
H572 H 0.3235 0.92237 0.7533 0.0
H573 H 0.34974 0.96832 0.93332 0.0
H574 H 0.31949 0.96168 0.6814 0.0
H575 H 0.34697 0.00764 0.86048 0.0
H576 H 0.32434 0.07737 0.73017 0.0
H577 H 0.32035 0.03811 0.80225 0.0
H578 H 0.34607 0.9918 0.62182 0.0
H579 H 0.34882 0.03109 0.54884 0.0
C580 C 0.3284 0.94093 0.77756 0.0
C581 C 0.33706 0.94224 0.84894 0.0
C582 C 0.3263 0.96349 0.73608 0.0
C583 C 0.33318 0.98793 0.76455 0.0
C584 C 0.34114 0.98928 0.83676 0.0
C585 C 0.34286 0.9667 0.87863 0.0
C586 C 0.32886 0.05875 0.70566 0.0
C587 C 0.33702 0.05733 0.63385 0.0
C588 C 0.32677 0.03621 0.74724 0.0
C589 C 0.33317 0.01169 0.71843 0.0
C590 C 0.34062 0.01024 0.64582 0.0
C591 C 0.34233 0.03279 0.60387 0.0
H592 H 0.15481 0.43589 0.12796 0.0
H593 H 0.10819 0.43334 0.3209 0.0
H594 H 0.15738 0.48335 0.13808 0.0
H595 H 0.11126 0.4805 0.33133 0.0
H596 H 0.14456 0.56224 0.36489 0.0
H597 H 0.14612 0.51486 0.35343 0.0
H598 H 0.12477 0.52113 0.13041 0.0
H599 H 0.12312 0.5686 0.1416 0.0
C600 C 0.14531 0.44534 0.17282 0.0
C601 C 0.13151 0.43067 0.22405 0.0
C602 C 0.14672 0.47252 0.17839 0.0
C603 C 0.13465 0.48554 0.2357 0.0
C604 C 0.1211 0.47092 0.2872 0.0
C605 C 0.11939 0.44384 0.28118 0.0
C606 C 0.14043 0.55357 0.3132 0.0
C607 C 0.13359 0.56919 0.25423 0.0
C608 C 0.14119 0.52644 0.30682 0.0
C609 C 0.13547 0.51436 0.24113 0.0
C610 C 0.12943 0.52996 0.18155 0.0
C611 C 0.12834 0.55711 0.18813 0.0
H612 H 0.5665 0.12035 0.5789 0.0
H613 H 0.56149 0.15089 0.36349 0.0
H614 H 0.51934 0.1236 0.59069 0.0
H615 H 0.51414 0.15408 0.37559 0.0
H616 H 0.43053 0.11885 0.39921 0.0
H617 H 0.4777 0.12159 0.38622 0.0
H618 H 0.4834 0.15671 0.59588 0.0
H619 H 0.43611 0.15405 0.60915 0.0
C620 C 0.5554 0.12799 0.53427 0.0
C621 C 0.56783 0.13532 0.4702 0.0
C622 C 0.52836 0.12997 0.54123 0.0
C623 C 0.51307 0.13909 0.48408 0.0
C624 C 0.52545 0.1468 0.42034 0.0
C625 C 0.55257 0.14507 0.41359 0.0
C626 C 0.44174 0.12743 0.44229 0.0
C627 C 0.42948 0.13618 0.50529 0.0
C628 C 0.46879 0.1291 0.43464 0.0
C629 C 0.48422 0.13932 0.49007 0.0
C630 C 0.47199 0.14853 0.55253 0.0
C631 C 0.44489 0.14709 0.55994 0.0
H632 H 0.83053 0.56431 0.65954 0.0
H633 H 0.90227 0.56453 0.78123 0.0
H634 H 0.82821 0.51664 0.67165 0.0
H635 H 0.90016 0.51711 0.79136 0.0
H636 H 0.90121 0.43237 0.69483 0.0
H637 H 0.90029 0.47974 0.68172 0.0
H638 H 0.82694 0.48282 0.79453 0.0
H639 H 0.82803 0.43523 0.80956 0.0
C640 C 0.84575 0.55421 0.68873 0.0
C641 C 0.86657 0.56813 0.7195 0.0
C642 C 0.84435 0.52706 0.69582 0.0
C643 C 0.86405 0.51343 0.73226 0.0
C644 C 0.8848 0.52729 0.76289 0.0
C645 C 0.88592 0.55439 0.75724 0.0
C646 C 0.88477 0.44306 0.71646 0.0
C647 C 0.8647 0.4301 0.75339 0.0
C648 C 0.88432 0.47014 0.70909 0.0
C649 C 0.86355 0.48472 0.73713 0.0
C650 C 0.84308 0.47184 0.77227 0.0
C651 C 0.84379 0.44472 0.78107 0.0
H652 H 0.56084 0.84395 0.11519 0.0
H653 H 0.5667 0.87749 0.90335 0.0
H654 H 0.51352 0.84137 0.10179 0.0
H655 H 0.51955 0.87483 0.89024 0.0
H656 H 0.43586 0.84564 0.86782 0.0
H657 H 0.48314 0.8423 0.88101 0.0
H658 H 0.47757 0.87448 0.09424 0.0
H659 H 0.43045 0.87788 0.08135 0.0
C660 C 0.55212 0.85055 0.06556 0.0
C661 C 0.56761 0.86097 0.01038 0.0
C662 C 0.52501 0.84916 0.05806 0.0
C663 C 0.51286 0.85791 -0.005 0.0
C664 C 0.52839 0.86766 0.93914 0.0
C665 C 0.55543 0.86929 0.94686 0.0
C666 C 0.44468 0.8518 0.91776 0.0
C667 C 0.42933 0.86208 0.97348 0.0
C668 C 0.47176 0.84998 0.92514 0.0
C669 C 0.48403 0.85814 0.98863 0.0
C670 C 0.46864 0.86776 0.04499 0.0
C671 C 0.44162 0.86982 0.0374 0.0
loop_
_geom_bond_atom_site_label_1
_geom_bond_atom_site_label_2
_geom_bond_distance
_geom_bond_site_symmetry_2
_ccdc_geom_bond_type
Co0 O3 1.970 . S
Co0 N17 1.989 . S
Co0 O25 1.967 . S
Co0 O32 1.920 . S
Co1 O4 1.966 . S
Co1 N10 2.022 . S
Co1 N18 1.993 . S
Co1 O26 1.941 . S
C2 O3 1.258 . S
C2 O4 1.263 . S
O3 Co0 1.970 . S
O3 C2 1.258 . S
O4 Co1 1.966 . S
O4 C2 1.263 . S
C5 O6 1.235 . S
C5 O32 1.289 . S
O6 C5 1.235 . S
C7 C9 1.400 . S
C7 N10 1.351 . S
C7 C12 1.501 . S
C8 C9 1.387 . S
C8 N11 1.341 . S
C9 C7 1.400 . S
C9 C8 1.387 . S
N10 Co1 2.022 . S
N10 C7 1.351 . S
N10 N11 1.365 . S
N11 C8 1.341 . S
N11 N10 1.365 . S
N11 H31 0.862 . S
C12 C7 1.501 . S
C12 H13 0.961 . S
C12 H14 0.961 . S
C12 H15 0.960 . S
H13 C12 0.961 . S
H14 C12 0.961 . S
H15 C12 0.960 . S
C16 N17 1.342 . S
C16 C20 1.401 . S
C16 C21 1.499 . S
N17 Co0 1.989 . S
N17 C16 1.342 . S
N17 N18 1.388 . S
N18 Co1 1.993 . S
N18 N17 1.388 . S
N18 C19 1.346 . S
C19 N18 1.346 . S
C19 C20 1.396 . S
C19 C29 1.510 . S
C20 C16 1.401 . S
C20 C19 1.396 . S
C21 C16 1.499 . S
C21 H22 0.959 . S
C21 H23 0.960 . S
C21 H24 0.961 . S
H22 C21 0.959 . S
H23 C21 0.960 . S
H24 C21 0.961 . S
O25 Co0 1.967 . S
O25 C33 1.258 . S
O26 Co1 1.941 . S
O26 C33 1.266 . S
H27 C29 0.959 . S
H28 C29 0.961 . S
C29 C19 1.510 . S
C29 H27 0.959 . S
C29 H28 0.961 . S
C29 H30 0.960 . S
H30 C29 0.960 . S
H31 N11 0.862 . S
O32 Co0 1.920 . S
O32 C5 1.289 . S
C33 O25 1.258 . S
C33 O26 1.266 . S
Co34 O37 1.970 . S
Co34 N51 1.989 . S
Co34 O59 1.967 . S
Co34 O66 1.920 . S
Co35 O38 1.966 . S
Co35 N44 2.022 . S
Co35 N52 1.993 . S
Co35 O60 1.941 . S
C36 O37 1.258 . S
C36 O38 1.263 . S
O37 Co34 1.970 . S
O37 C36 1.258 . S
O38 Co35 1.966 . S
O38 C36 1.263 . S
C39 O40 1.235 . S
C39 O66 1.289 . S
O40 C39 1.235 . S
C41 C43 1.400 . S
C41 N44 1.351 . S
C41 C46 1.501 . S
C42 C43 1.387 . S
C42 N45 1.341 . S
C43 C41 1.400 . S
C43 C42 1.387 . S
N44 Co35 2.022 . S
N44 C41 1.351 . S
N44 N45 1.365 . S
N45 C42 1.341 . S
N45 N44 1.365 . S
N45 H65 0.862 . S
C46 C41 1.501 . S
C46 H47 0.961 . S
C46 H48 0.961 . S
C46 H49 0.960 . S
H47 C46 0.961 . S
H48 C46 0.961 . S
H49 C46 0.960 . S
C50 N51 1.342 . S
C50 C54 1.401 . S
C50 C55 1.499 . S
N51 Co34 1.989 . S
N51 C50 1.342 . S
N51 N52 1.388 . S
N52 Co35 1.993 . S
N52 N51 1.388 . S
N52 C53 1.346 . S
C53 N52 1.346 . S
C53 C54 1.396 . S
C53 C63 1.510 . S
C54 C50 1.401 . S
C54 C53 1.396 . S
C55 C50 1.499 . S
C55 H56 0.959 . S
C55 H57 0.960 . S
C55 H58 0.961 . S
H56 C55 0.959 . S
H57 C55 0.960 . S
H58 C55 0.961 . S
O59 Co34 1.967 . S
O59 C67 1.258 . S
O60 Co35 1.941 . S
O60 C67 1.266 . S
H61 C63 0.959 . S
H62 C63 0.961 . S
C63 C53 1.510 . S
C63 H61 0.959 . S
C63 H62 0.961 . S
C63 H64 0.960 . S
H64 C63 0.960 . S
H65 N45 0.862 . S
O66 Co34 1.920 . S
O66 C39 1.289 . S
C67 O59 1.258 . S
C67 O60 1.266 . S
Co68 O71 1.970 . S
Co68 N85 1.989 . S
Co68 O93 1.967 . S
Co68 O100 1.920 . S
Co69 O72 1.966 . S
Co69 N78 2.022 . S
Co69 N86 1.993 . S
Co69 O94 1.941 . S
C70 O71 1.258 . S
C70 O72 1.263 . S
O71 Co68 1.970 . S
O71 C70 1.258 . S
O72 Co69 1.966 . S
O72 C70 1.263 . S
C73 O74 1.235 . S
C73 O100 1.289 . S
O74 C73 1.235 . S
C75 C77 1.400 1_556 S
C75 N78 1.351 . S
C75 C80 1.501 . S
C76 C77 1.387 . S
C76 N79 1.341 1_554 S
C77 C75 1.400 1_554 S
C77 C76 1.387 . S
N78 Co69 2.022 . S
N78 C75 1.351 . S
N78 N79 1.365 . S
N79 C76 1.341 1_556 S
N79 N78 1.365 . S
N79 H99 0.862 . S
C80 C75 1.501 . S
C80 H81 0.961 . S
C80 H82 0.961 . S
C80 H83 0.960 . S
H81 C80 0.961 . S
H82 C80 0.961 . S
H83 C80 0.960 . S
C84 N85 1.342 . S
C84 C88 1.401 . S
C84 C89 1.499 . S
N85 Co68 1.989 . S
N85 C84 1.342 . S
N85 N86 1.388 . S
N86 Co69 1.993 . S
N86 N85 1.388 . S
N86 C87 1.346 . S
C87 N86 1.346 . S
C87 C88 1.396 . S
C87 C97 1.510 . S
C88 C84 1.401 . S
C88 C87 1.396 . S
C89 C84 1.499 . S
C89 H90 0.959 . S
C89 H91 0.960 . S
C89 H92 0.961 . S
H90 C89 0.959 . S
H91 C89 0.960 . S
H92 C89 0.961 . S
O93 Co68 1.967 . S
O93 C101 1.258 . S
O94 Co69 1.941 . S
O94 C101 1.266 . S
H95 C97 0.959 . S
H96 C97 0.961 . S
C97 C87 1.510 . S
C97 H95 0.959 . S
C97 H96 0.961 . S
C97 H98 0.960 . S
H98 C97 0.960 . S
H99 N79 0.862 . S
O100 Co68 1.920 . S
O100 C73 1.289 . S
C101 O93 1.258 . S
C101 O94 1.266 . S
Co102 O105 1.970 . S
Co102 N119 1.989 . S
Co102 O127 1.967 . S
Co102 O134 1.920 . S
Co103 O106 1.966 . S
Co103 N112 2.022 . S
Co103 N120 1.993 . S
Co103 O128 1.941 . S
C104 O105 1.258 . S
C104 O106 1.263 1_556 S
O105 Co102 1.970 . S
O105 C104 1.258 . S
O106 Co103 1.966 . S
O106 C104 1.263 1_554 S
C107 O108 1.235 . S
C107 O134 1.289 . S
O108 C107 1.235 . S
C109 C111 1.400 . S
C109 N112 1.351 . S
C109 C114 1.501 . S
C110 C111 1.387 . S
C110 N113 1.341 . S
C111 C109 1.400 . S
C111 C110 1.387 . S
N112 Co103 2.022 . S
N112 C109 1.351 . S
N112 N113 1.365 . S
N113 C110 1.341 . S
N113 N112 1.365 . S
N113 H133 0.862 . S
C114 C109 1.501 . S
C114 H115 0.961 . S
C114 H116 0.961 . S
C114 H117 0.960 . S
H115 C114 0.961 . S
H116 C114 0.961 . S
H117 C114 0.960 . S
C118 N119 1.342 . S
C118 C122 1.401 1_556 S
C118 C123 1.499 . S
N119 Co102 1.989 . S
N119 C118 1.342 . S
N119 N120 1.388 1_556 S
N120 Co103 1.993 . S
N120 N119 1.388 1_554 S
N120 C121 1.346 . S
C121 N120 1.346 . S
C121 C122 1.396 . S
C121 C131 1.510 . S
C122 C118 1.401 1_554 S
C122 C121 1.396 . S
C123 C118 1.499 . S
C123 H124 0.959 . S
C123 H125 0.960 . S
C123 H126 0.961 . S
H124 C123 0.959 . S
H125 C123 0.960 . S
H126 C123 0.961 . S
O127 Co102 1.967 . S
O127 C135 1.258 . S
O128 Co103 1.941 . S
O128 C135 1.266 1_554 S
H129 C131 0.959 . S
H130 C131 0.961 . S
C131 C121 1.510 . S
C131 H129 0.959 . S
C131 H130 0.961 . S
C131 H132 0.960 . S
H132 C131 0.960 . S
H133 N113 0.862 . S
O134 Co102 1.920 . S
O134 C107 1.289 . S
C135 O127 1.258 . S
C135 O128 1.266 1_556 S
Co136 O139 1.970 . S
Co136 N153 1.989 . S
Co136 O161 1.967 . S
Co136 O168 1.920 . S
Co137 O140 1.966 . S
Co137 N146 2.022 . S
Co137 N154 1.993 . S
Co137 O162 1.941 . S
C138 O139 1.258 . S
C138 O140 1.263 . S
O139 Co136 1.970 . S
O139 C138 1.258 . S
O140 Co137 1.966 . S
O140 C138 1.263 . S
C141 O142 1.235 . S
C141 O168 1.289 . S
O142 C141 1.235 . S
C143 C145 1.400 1_554 S
C143 N146 1.351 . S
C143 C148 1.501 . S
C144 C145 1.387 . S
C144 N147 1.341 1_556 S
C145 C143 1.400 1_556 S
C145 C144 1.387 . S
N146 Co137 2.022 . S
N146 C143 1.351 . S
N146 N147 1.365 . S
N147 C144 1.341 1_554 S
N147 N146 1.365 . S
N147 H167 0.862 . S
C148 C143 1.501 . S
C148 H149 0.961 . S
C148 H150 0.961 . S
C148 H151 0.960 . S
H149 C148 0.961 . S
H150 C148 0.961 . S
H151 C148 0.960 . S
C152 N153 1.342 . S
C152 C156 1.401 . S
C152 C157 1.499 . S
N153 Co136 1.989 . S
N153 C152 1.342 . S
N153 N154 1.388 . S
N154 Co137 1.993 . S
N154 N153 1.388 . S
N154 C155 1.346 . S
C155 N154 1.346 . S
C155 C156 1.396 . S
C155 C165 1.510 . S
C156 C152 1.401 . S
C156 C155 1.396 . S
C157 C152 1.499 . S
C157 H158 0.959 . S
C157 H159 0.960 . S
C157 H160 0.961 . S
H158 C157 0.959 . S
H159 C157 0.960 . S
H160 C157 0.961 . S
O161 Co136 1.967 . S
O161 C169 1.258 . S
O162 Co137 1.941 . S
O162 C169 1.266 . S
H163 C165 0.959 . S
H164 C165 0.961 . S
C165 C155 1.510 . S
C165 H163 0.959 . S
C165 H164 0.961 . S
C165 H166 0.960 . S
H166 C165 0.960 . S
H167 N147 0.862 . S
O168 Co136 1.920 . S
O168 C141 1.289 . S
C169 O161 1.258 . S
C169 O162 1.266 . S
Co170 O173 1.970 . S
Co170 N187 1.989 . S
Co170 O195 1.967 . S
Co170 O202 1.920 . S
Co171 O174 1.966 . S
Co171 N180 2.022 . S
Co171 N188 1.993 . S
Co171 O196 1.941 . S
C172 O173 1.258 . S
C172 O174 1.263 . S
O173 Co170 1.970 . S
O173 C172 1.258 . S
O174 Co171 1.966 . S
O174 C172 1.263 . S
C175 O176 1.235 . S
C175 O202 1.289 . S
O176 C175 1.235 . S
C177 C179 1.400 . S
C177 N180 1.351 . S
C177 C182 1.501 . S
C178 C179 1.387 . S
C178 N181 1.341 . S
C179 C177 1.400 . S
C179 C178 1.387 . S
N180 Co171 2.022 . S
N180 C177 1.351 . S
N180 N181 1.365 . S
N181 C178 1.341 . S
N181 N180 1.365 . S
N181 H201 0.862 . S
C182 C177 1.501 . S
C182 H183 0.961 . S
C182 H184 0.961 . S
C182 H185 0.960 . S
H183 C182 0.961 . S
H184 C182 0.961 . S
H185 C182 0.960 . S
C186 N187 1.342 . S
C186 C190 1.401 . S
C186 C191 1.499 . S
N187 Co170 1.989 . S
N187 C186 1.342 . S
N187 N188 1.388 . S
N188 Co171 1.993 . S
N188 N187 1.388 . S
N188 C189 1.346 . S
C189 N188 1.346 . S
C189 C190 1.396 . S
C189 C199 1.510 . S
C190 C186 1.401 . S
C190 C189 1.396 . S
C191 C186 1.499 . S
C191 H192 0.959 . S
C191 H193 0.960 . S
C191 H194 0.961 . S
H192 C191 0.959 . S
H193 C191 0.960 . S
H194 C191 0.961 . S
O195 Co170 1.967 . S
O195 C203 1.258 . S
O196 Co171 1.941 . S
O196 C203 1.266 . S
H197 C199 0.959 . S
H198 C199 0.961 . S
C199 C189 1.510 . S
C199 H197 0.959 . S
C199 H198 0.961 . S
C199 H200 0.960 . S
H200 C199 0.960 . S
H201 N181 0.862 . S
O202 Co170 1.920 . S
O202 C175 1.289 . S
C203 O195 1.258 . S
C203 O196 1.266 . S
Co204 O207 1.970 . S
Co204 N221 1.989 . S
Co204 O229 1.967 . S
Co204 O236 1.920 . S
Co205 O208 1.966 . S
Co205 N214 2.022 . S
Co205 N222 1.993 . S
Co205 O230 1.941 . S
C206 O207 1.258 . S
C206 O208 1.263 . S
O207 Co204 1.970 . S
O207 C206 1.258 . S
O208 Co205 1.966 . S
O208 C206 1.263 . S
C209 O210 1.235 . S
C209 O236 1.289 . S
O210 C209 1.235 . S
C211 C213 1.400 . S
C211 N214 1.351 . S
C211 C216 1.501 . S
C212 C213 1.387 . S
C212 N215 1.341 . S
C213 C211 1.400 . S
C213 C212 1.387 . S
N214 Co205 2.022 . S
N214 C211 1.351 . S
N214 N215 1.365 . S
N215 C212 1.341 . S
N215 N214 1.365 . S
N215 H235 0.862 . S
C216 C211 1.501 . S
C216 H217 0.961 . S
C216 H218 0.961 . S
C216 H219 0.960 . S
H217 C216 0.961 . S
H218 C216 0.961 . S
H219 C216 0.960 . S
C220 N221 1.342 . S
C220 C224 1.401 . S
C220 C225 1.499 . S
N221 Co204 1.989 . S
N221 C220 1.342 . S
N221 N222 1.388 . S
N222 Co205 1.993 . S
N222 N221 1.388 . S
N222 C223 1.346 . S
C223 N222 1.346 . S
C223 C224 1.396 . S
C223 C233 1.510 . S
C224 C220 1.401 . S
C224 C223 1.396 . S
C225 C220 1.499 . S
C225 H226 0.959 . S
C225 H227 0.960 . S
C225 H228 0.961 . S
H226 C225 0.959 . S
H227 C225 0.960 . S
H228 C225 0.961 . S
O229 Co204 1.967 . S
O229 C237 1.258 . S
O230 Co205 1.941 . S
O230 C237 1.266 . S
H231 C233 0.959 . S
H232 C233 0.961 . S
C233 C223 1.510 . S
C233 H231 0.959 . S
C233 H232 0.961 . S
C233 H234 0.960 . S
H234 C233 0.960 . S
H235 N215 0.862 . S
O236 Co204 1.920 . S
O236 C209 1.289 . S
C237 O229 1.258 . S
C237 O230 1.266 . S
Co238 O241 1.970 . S
Co238 N255 1.989 . S
Co238 O263 1.967 . S
Co238 O270 1.920 . S
Co239 O242 1.966 . S
Co239 N248 2.022 . S
Co239 N256 1.993 . S
Co239 O264 1.941 . S
C240 O241 1.258 . S
C240 O242 1.263 1_554 S
O241 Co238 1.970 . S
O241 C240 1.258 . S
O242 Co239 1.966 . S
O242 C240 1.263 1_556 S
C243 O244 1.235 . S
C243 O270 1.289 . S
O244 C243 1.235 . S
C245 C247 1.400 . S
C245 N248 1.351 . S
C245 C250 1.501 . S
C246 C247 1.387 . S
C246 N249 1.341 . S
C247 C245 1.400 . S
C247 C246 1.387 . S
N248 Co239 2.022 . S
N248 C245 1.351 . S
N248 N249 1.365 . S
N249 C246 1.341 . S
N249 N248 1.365 . S
N249 H269 0.862 . S
C250 C245 1.501 . S
C250 H251 0.961 . S
C250 H252 0.961 . S
C250 H253 0.960 . S
H251 C250 0.961 . S
H252 C250 0.961 . S
H253 C250 0.960 . S
C254 N255 1.342 . S
C254 C258 1.401 1_554 S
C254 C259 1.499 . S
N255 Co238 1.989 . S
N255 C254 1.342 . S
N255 N256 1.388 1_554 S
N256 Co239 1.993 . S
N256 N255 1.388 1_556 S
N256 C257 1.346 . S
C257 N256 1.346 . S
C257 C258 1.396 . S
C257 C267 1.510 . S
C258 C254 1.401 1_556 S
C258 C257 1.396 . S
C259 C254 1.499 . S
C259 H260 0.959 . S
C259 H261 0.960 . S
C259 H262 0.961 . S
H260 C259 0.959 . S
H261 C259 0.960 . S
H262 C259 0.961 . S
O263 Co238 1.967 . S
O263 C271 1.258 . S
O264 Co239 1.941 . S
O264 C271 1.266 1_556 S
H265 C267 0.959 . S
H266 C267 0.961 . S
C267 C257 1.510 . S
C267 H265 0.959 . S
C267 H266 0.961 . S
C267 H268 0.960 . S
H268 C267 0.960 . S
H269 N249 0.862 . S
O270 Co238 1.920 . S
O270 C243 1.289 . S
C271 O263 1.258 . S
C271 O264 1.266 1_554 S
H272 C280 0.950 . S
H273 C285 0.950 . S
H274 C282 0.950 . S
H275 C284 0.950 . S
H276 C286 0.950 . S
H277 C288 0.950 . S
H278 C290 0.950 . S
H279 C291 0.950 . S
C280 H272 0.950 . S
C280 C281 1.386 . S
C280 C282 1.391 . S
C281 C280 1.386 . S
C281 C285 1.393 . S
C282 H274 0.950 . S
C282 C280 1.391 . S
C282 C283 1.400 . S
C283 C282 1.400 . S
C283 C284 1.398 . S
C283 C289 1.491 . S
C284 H275 0.950 . S
C284 C283 1.398 . S
C284 C285 1.391 . S
C285 H273 0.950 . S
C285 C281 1.393 . S
C285 C284 1.391 . S
C286 H276 0.950 . S
C286 C287 1.386 . S
C286 C288 1.391 . S
C287 C286 1.386 . S
C287 C291 1.393 . S
C288 H277 0.950 . S
C288 C286 1.391 . S
C288 C289 1.400 . S
C289 C283 1.491 . S
C289 C288 1.400 . S
C289 C290 1.398 . S
C290 H278 0.950 . S
C290 C289 1.398 . S
C290 C291 1.391 . S
C291 H279 0.950 . S
C291 C287 1.393 . S
C291 C290 1.391 . S
H292 C300 0.950 . S
H293 C305 0.950 . S
H294 C302 0.950 . S
H295 C304 0.950 . S
H296 C306 0.950 . S
H297 C308 0.950 . S
H298 C310 0.950 . S
H299 C311 0.950 . S
C300 H292 0.950 . S
C300 C301 1.386 . S
C300 C302 1.391 . S
C301 C300 1.386 . S
C301 C305 1.393 . S
C302 H294 0.950 . S
C302 C300 1.391 . S
C302 C303 1.400 . S
C303 C302 1.400 . S
C303 C304 1.398 . S
C303 C309 1.491 . S
C304 H295 0.950 . S
C304 C303 1.398 . S
C304 C305 1.391 . S
C305 H293 0.950 . S
C305 C301 1.393 . S
C305 C304 1.391 . S
C306 H296 0.950 . S
C306 C307 1.386 . S
C306 C308 1.391 . S
C307 C306 1.386 . S
C307 C311 1.393 . S
C308 H297 0.950 . S
C308 C306 1.391 . S
C308 C309 1.400 . S
C309 C303 1.491 . S
C309 C308 1.400 . S
C309 C310 1.398 . S
C310 H298 0.950 . S
C310 C309 1.398 . S
C310 C311 1.391 . S
C311 H299 0.950 . S
C311 C307 1.393 . S
C311 C310 1.391 . S
H312 C320 0.950 . S
H313 C325 0.950 . S
H314 C322 0.950 . S
H315 C324 0.950 . S
H316 C326 0.950 . S
H317 C328 0.950 . S
H318 C330 0.950 . S
H319 C331 0.950 . S
C320 H312 0.950 . S
C320 C321 1.386 . S
C320 C322 1.391 . S
C321 C320 1.386 . S
C321 C325 1.393 . S
C322 H314 0.950 . S
C322 C320 1.391 . S
C322 C323 1.400 . S
C323 C322 1.400 . S
C323 C324 1.398 . S
C323 C329 1.491 . S
C324 H315 0.950 . S
C324 C323 1.398 . S
C324 C325 1.391 . S
C325 H313 0.950 . S
C325 C321 1.393 . S
C325 C324 1.391 . S
C326 H316 0.950 . S
C326 C327 1.386 . S
C326 C328 1.391 . S
C327 C326 1.386 . S
C327 C331 1.393 . S
C328 H317 0.950 . S
C328 C326 1.391 . S
C328 C329 1.400 . S
C329 C323 1.491 . S
C329 C328 1.400 . S
C329 C330 1.398 . S
C330 H318 0.950 . S
C330 C329 1.398 . S
C330 C331 1.391 . S
C331 H319 0.950 . S
C331 C327 1.393 . S
C331 C330 1.391 . S
H332 C340 0.950 . S
H333 C345 0.950 . S
H334 C342 0.950 . S
H335 C344 0.950 . S
H336 C346 0.950 1_556 S
H337 C348 0.950 . S
H338 C350 0.950 . S
H339 C351 0.950 . S
C340 H332 0.950 . S
C340 C341 1.386 . S
C340 C342 1.391 . S
C341 C340 1.386 . S
C341 C345 1.393 . S
C342 H334 0.950 . S
C342 C340 1.391 . S
C342 C343 1.400 . S
C343 C342 1.400 . S
C343 C344 1.398 . S
C343 C349 1.491 . S
C344 H335 0.950 . S
C344 C343 1.398 . S
C344 C345 1.391 . S
C345 H333 0.950 . S
C345 C341 1.393 . S
C345 C344 1.391 . S
C346 H336 0.950 1_554 S
C346 C347 1.386 . S
C346 C348 1.391 . S
C347 C346 1.386 . S
C347 C351 1.393 . S
C348 H337 0.950 . S
C348 C346 1.391 . S
C348 C349 1.400 . S
C349 C343 1.491 . S
C349 C348 1.400 . S
C349 C350 1.398 . S
C350 H338 0.950 . S
C350 C349 1.398 . S
C350 C351 1.391 . S
C351 H339 0.950 . S
C351 C347 1.393 . S
C351 C350 1.391 . S
H352 C360 0.950 . S
H353 C365 0.950 . S
H354 C362 0.950 . S
H355 C364 0.950 . S
H356 C366 0.950 . S
H357 C368 0.950 . S
H358 C370 0.950 . S
H359 C371 0.950 . S
C360 H352 0.950 . S
C360 C361 1.386 . S
C360 C362 1.391 . S
C361 C360 1.386 . S
C361 C365 1.393 . S
C362 H354 0.950 . S
C362 C360 1.391 . S
C362 C363 1.400 . S
C363 C362 1.400 . S
C363 C364 1.398 . S
C363 C369 1.491 . S
C364 H355 0.950 . S
C364 C363 1.398 . S
C364 C365 1.391 . S
C365 H353 0.950 . S
C365 C361 1.393 . S
C365 C364 1.391 . S
C366 H356 0.950 . S
C366 C367 1.386 . S
C366 C368 1.391 . S
C367 C366 1.386 . S
C367 C371 1.393 . S
C368 H357 0.950 . S
C368 C366 1.391 . S
C368 C369 1.400 . S
C369 C363 1.491 . S
C369 C368 1.400 . S
C369 C370 1.398 . S
C370 H358 0.950 . S
C370 C369 1.398 . S
C370 C371 1.391 . S
C371 H359 0.950 . S
C371 C367 1.393 . S
C371 C370 1.391 . S
H372 C380 0.950 . S
H373 C385 0.950 . S
H374 C382 0.950 . S
H375 C384 0.950 . S
H376 C386 0.950 . S
H377 C388 0.950 . S
H378 C390 0.950 . S
H379 C391 0.950 . S
C380 H372 0.950 . S
C380 C381 1.386 . S
C380 C382 1.391 . S
C381 C380 1.386 . S
C381 C385 1.393 . S
C382 H374 0.950 . S
C382 C380 1.391 . S
C382 C383 1.400 . S
C383 C382 1.400 . S
C383 C384 1.398 . S
C383 C389 1.491 1_554 S
C384 H375 0.950 . S
C384 C383 1.398 . S
C384 C385 1.391 . S
C385 H373 0.950 . S
C385 C381 1.393 . S
C385 C384 1.391 . S
C386 H376 0.950 . S
C386 C387 1.386 . S
C386 C388 1.391 . S
C387 C386 1.386 . S
C387 C391 1.393 . S
C388 H377 0.950 . S
C388 C386 1.391 . S
C388 C389 1.400 . S
C389 C383 1.491 1_556 S
C389 C388 1.400 . S
C389 C390 1.398 . S
C390 H378 0.950 . S
C390 C389 1.398 . S
C390 C391 1.391 . S
C391 H379 0.950 . S
C391 C387 1.393 . S
C391 C390 1.391 . S
H392 C400 0.950 . S
H393 C405 0.950 . S
H394 C402 0.950 . S
H395 C404 0.950 . S
H396 C406 0.950 . S
H397 C408 0.950 . S
H398 C410 0.950 . S
H399 C411 0.950 . S
C400 H392 0.950 . S
C400 C401 1.386 . S
C400 C402 1.391 . S
C401 C400 1.386 . S
C401 C405 1.393 . S
C402 H394 0.950 . S
C402 C400 1.391 . S
C402 C403 1.400 . S
C403 C402 1.400 . S
C403 C404 1.398 . S
C403 C409 1.491 . S
C404 H395 0.950 . S
C404 C403 1.398 . S
C404 C405 1.391 . S
C405 H393 0.950 . S
C405 C401 1.393 . S
C405 C404 1.391 . S
C406 H396 0.950 . S
C406 C407 1.386 . S
C406 C408 1.391 . S
C407 C406 1.386 . S
C407 C411 1.393 . S
C408 H397 0.950 . S
C408 C406 1.391 . S
C408 C409 1.400 . S
C409 C403 1.491 . S
C409 C408 1.400 . S
C409 C410 1.398 . S
C410 H398 0.950 . S
C410 C409 1.398 . S
C410 C411 1.391 . S
C411 H399 0.950 . S
C411 C407 1.393 . S
C411 C410 1.391 . S
H412 C420 0.950 . S
H413 C425 0.950 . S
H414 C422 0.950 . S
H415 C424 0.950 . S
H416 C426 0.950 . S
H417 C428 0.950 . S
H418 C430 0.950 . S
H419 C431 0.950 . S
C420 H412 0.950 . S
C420 C421 1.386 . S
C420 C422 1.391 . S
C421 C420 1.386 . S
C421 C425 1.393 . S
C422 H414 0.950 . S
C422 C420 1.391 . S
C422 C423 1.400 . S
C423 C422 1.400 . S
C423 C424 1.398 . S
C423 C429 1.491 . S
C424 H415 0.950 . S
C424 C423 1.398 . S
C424 C425 1.391 . S
C425 H413 0.950 . S
C425 C421 1.393 . S
C425 C424 1.391 . S
C426 H416 0.950 . S
C426 C427 1.386 . S
C426 C428 1.391 . S
C427 C426 1.386 . S
C427 C431 1.393 . S
C428 H417 0.950 . S
C428 C426 1.391 . S
C428 C429 1.400 . S
C429 C423 1.491 . S
C429 C428 1.400 . S
C429 C430 1.398 . S
C430 H418 0.950 . S
C430 C429 1.398 . S
C430 C431 1.391 . S
C431 H419 0.950 . S
C431 C427 1.393 . S
C431 C430 1.391 . S
H432 C440 0.950 . S
H433 C445 0.950 . S
H434 C442 0.950 . S
H435 C444 0.950 . S
H436 C446 0.950 . S
H437 C448 0.950 . S
H438 C450 0.950 . S
H439 C451 0.950 . S
C440 H432 0.950 . S
C440 C441 1.386 . S
C440 C442 1.391 . S
C441 C440 1.386 . S
C441 C445 1.393 . S
C442 H434 0.950 . S
C442 C440 1.391 . S
C442 C443 1.400 . S
C443 C442 1.400 . S
C443 C444 1.398 . S
C443 C449 1.491 . S
C444 H435 0.950 . S
C444 C443 1.398 . S
C444 C445 1.391 . S
C445 H433 0.950 . S
C445 C441 1.393 . S
C445 C444 1.391 . S
C446 H436 0.950 . S
C446 C447 1.386 . S
C446 C448 1.391 . S
C447 C446 1.386 . S
C447 C451 1.393 . S
C448 H437 0.950 . S
C448 C446 1.391 . S
C448 C449 1.400 . S
C449 C443 1.491 . S
C449 C448 1.400 . S
C449 C450 1.398 . S
C450 H438 0.950 . S
C450 C449 1.398 . S
C450 C451 1.391 . S
C451 H439 0.950 . S
C451 C447 1.393 . S
C451 C450 1.391 . S
H452 C460 0.950 . S
H453 C465 0.950 . S
H454 C462 0.950 1_556 S
H455 C464 0.950 . S
H456 C466 0.950 . S
H457 C468 0.950 . S
H458 C470 0.950 . S
H459 C471 0.950 . S
C460 H452 0.950 . S
C460 C461 1.386 . S
C460 C462 1.391 . S
C461 C460 1.386 . S
C461 C465 1.393 . S
C462 H454 0.950 1_554 S
C462 C460 1.391 . S
C462 C463 1.400 . S
C463 C462 1.400 . S
C463 C464 1.398 . S
C463 C469 1.491 1_554 S
C464 H455 0.950 . S
C464 C463 1.398 . S
C464 C465 1.391 . S
C465 H453 0.950 . S
C465 C461 1.393 . S
C465 C464 1.391 . S
C466 H456 0.950 . S
C466 C467 1.386 . S
C466 C468 1.391 . S
C467 C466 1.386 . S
C467 C471 1.393 . S
C468 H457 0.950 . S
C468 C466 1.391 . S
C468 C469 1.400 . S
C469 C463 1.491 1_556 S
C469 C468 1.400 . S
C469 C470 1.398 . S
C470 H458 0.950 . S
C470 C469 1.398 . S
C470 C471 1.391 . S
C471 H459 0.950 . S
C471 C467 1.393 . S
C471 C470 1.391 . S
H472 C480 0.950 . S
H473 C485 0.950 . S
H474 C482 0.950 . S
H475 C484 0.950 . S
H476 C486 0.950 . S
H477 C488 0.950 . S
H478 C490 0.950 . S
H479 C491 0.950 . S
C480 H472 0.950 . S
C480 C481 1.386 . S
C480 C482 1.391 . S
C481 C480 1.386 . S
C481 C485 1.393 . S
C482 H474 0.950 . S
C482 C480 1.391 . S
C482 C483 1.400 . S
C483 C482 1.400 . S
C483 C484 1.398 . S
C483 C489 1.491 . S
C484 H475 0.950 . S
C484 C483 1.398 . S
C484 C485 1.391 . S
C485 H473 0.950 . S
C485 C481 1.393 . S
C485 C484 1.391 . S
C486 H476 0.950 . S
C486 C487 1.386 . S
C486 C488 1.391 . S
C487 C486 1.386 . S
C487 C491 1.393 . S
C488 H477 0.950 . S
C488 C486 1.391 . S
C488 C489 1.400 . S
C489 C483 1.491 . S
C489 C488 1.400 . S
C489 C490 1.398 . S
C490 H478 0.950 . S
C490 C489 1.398 . S
C490 C491 1.391 . S
C491 H479 0.950 . S
C491 C487 1.393 . S
C491 C490 1.391 . S
H492 C500 0.950 . S
H493 C505 0.950 . S
H494 C502 0.950 . S
H495 C504 0.950 . S
H496 C506 0.950 . S
H497 C508 0.950 . S
H498 C510 0.950 . S
H499 C511 0.950 . S
C500 H492 0.950 . S
C500 C501 1.386 . S
C500 C502 1.391 . S
C501 C500 1.386 . S
C501 C505 1.393 . S
C502 H494 0.950 . S
C502 C500 1.391 . S
C502 C503 1.400 . S
C503 C502 1.400 . S
C503 C504 1.398 . S
C503 C509 1.491 . S
C504 H495 0.950 . S
C504 C503 1.398 . S
C504 C505 1.391 . S
C505 H493 0.950 . S
C505 C501 1.393 . S
C505 C504 1.391 . S
C506 H496 0.950 . S
C506 C507 1.386 . S
C506 C508 1.391 . S
C507 C506 1.386 . S
C507 C511 1.393 . S
C508 H497 0.950 . S
C508 C506 1.391 . S
C508 C509 1.400 . S
C509 C503 1.491 . S
C509 C508 1.400 . S
C509 C510 1.398 . S
C510 H498 0.950 . S
C510 C509 1.398 . S
C510 C511 1.391 . S
C511 H499 0.950 . S
C511 C507 1.393 . S
C511 C510 1.391 . S
H512 C520 0.950 . S
H513 C525 0.950 . S
H514 C522 0.950 1_556 S
H515 C524 0.950 1_655 S
H516 C526 0.950 . S
H517 C528 0.950 1_554 S
H518 C530 0.950 1_455 S
H519 C531 0.950 . S
C520 H512 0.950 . S
C520 C521 1.386 . S
C520 C522 1.391 . S
C521 C520 1.386 . S
C521 C525 1.393 . S
C522 H514 0.950 1_554 S
C522 C520 1.391 . S
C522 C523 1.400 . S
C523 C522 1.400 . S
C523 C524 1.398 . S
C523 C529 1.491 1_454 S
C524 H515 0.950 1_455 S
C524 C523 1.398 . S
C524 C525 1.391 . S
C525 H513 0.950 . S
C525 C521 1.393 . S
C525 C524 1.391 . S
C526 H516 0.950 . S
C526 C527 1.386 . S
C526 C528 1.391 . S
C527 C526 1.386 . S
C527 C531 1.393 . S
C528 H517 0.950 1_556 S
C528 C526 1.391 . S
C528 C529 1.400 . S
C529 C523 1.491 1_656 S
C529 C528 1.400 . S
C529 C530 1.398 . S
C530 H518 0.950 1_655 S
C530 C529 1.398 . S
C530 C531 1.391 . S
C531 H519 0.950 . S
C531 C527 1.393 . S
C531 C530 1.391 . S
H532 C540 0.950 . S
H533 C545 0.950 . S
H534 C542 0.950 . S
H535 C544 0.950 . S
H536 C546 0.950 . S
H537 C548 0.950 . S
H538 C550 0.950 . S
H539 C551 0.950 . S
C540 H532 0.950 . S
C540 C541 1.386 . S
C540 C542 1.391 . S
C541 C540 1.386 . S
C541 C545 1.393 . S
C542 H534 0.950 . S
C542 C540 1.391 . S
C542 C543 1.400 . S
C543 C542 1.400 . S
C543 C544 1.398 . S
C543 C549 1.491 1_565 S
C544 H535 0.950 . S
C544 C543 1.398 . S
C544 C545 1.391 . S
C545 H533 0.950 . S
C545 C541 1.393 . S
C545 C544 1.391 . S
C546 H536 0.950 . S
C546 C547 1.386 . S
C546 C548 1.391 . S
C547 C546 1.386 . S
C547 C551 1.393 . S
C548 H537 0.950 . S
C548 C546 1.391 . S
C548 C549 1.400 . S
C549 C543 1.491 1_545 S
C549 C548 1.400 . S
C549 C550 1.398 . S
C550 H538 0.950 . S
C550 C549 1.398 . S
C550 C551 1.391 . S
C551 H539 0.950 . S
C551 C547 1.393 . S
C551 C550 1.391 . S
H552 C560 0.950 . S
H553 C565 0.950 . S
H554 C562 0.950 . S
H555 C564 0.950 . S
H556 C566 0.950 . S
H557 C568 0.950 . S
H558 C570 0.950 . S
H559 C571 0.950 . S
C560 H552 0.950 . S
C560 C561 1.386 . S
C560 C562 1.391 . S
C561 C560 1.386 . S
C561 C565 1.393 . S
C562 H554 0.950 . S
C562 C560 1.391 . S
C562 C563 1.400 . S
C563 C562 1.400 . S
C563 C564 1.398 . S
C563 C569 1.491 1_455 S
C564 H555 0.950 . S
C564 C563 1.398 . S
C564 C565 1.391 . S
C565 H553 0.950 . S
C565 C561 1.393 . S
C565 C564 1.391 . S
C566 H556 0.950 . S
C566 C567 1.386 . S
C566 C568 1.391 . S
C567 C566 1.386 . S
C567 C571 1.393 . S
C568 H557 0.950 . S
C568 C566 1.391 . S
C568 C569 1.400 . S
C569 C563 1.491 1_655 S
C569 C568 1.400 . S
C569 C570 1.398 . S
C570 H558 0.950 . S
C570 C569 1.398 . S
C570 C571 1.391 . S
C571 H559 0.950 . S
C571 C567 1.393 . S
C571 C570 1.391 . S
H572 C580 0.950 . S
H573 C585 0.950 . S
H574 C582 0.950 . S
H575 C584 0.990 . S
H576 C586 0.950 . S
H577 C588 0.950 . S
H578 C590 0.995 . S
H579 C591 0.950 . S
C580 H572 0.950 . S
C580 C581 1.386 . S
C580 C582 1.391 . S
C581 C580 1.386 . S
C581 C585 1.393 . S
C582 H574 0.950 . S
C582 C580 1.391 . S
C582 C583 1.400 . S
C583 C582 1.400 . S
C583 C584 1.384 1_565 S
C583 C589 1.491 1_565 S
C584 H575 0.990 . S
C584 C583 1.384 1_545 S
C584 C585 1.366 1_545 S
C585 H573 0.950 . S
C585 C581 1.393 . S
C585 C584 1.366 1_565 S
C586 H576 0.950 . S
C586 C587 1.386 . S
C586 C588 1.391 . S
C587 C586 1.386 . S
C587 C591 1.393 . S
C588 H577 0.950 . S
C588 C586 1.391 . S
C588 C589 1.400 . S
C589 C583 1.491 1_545 S
C589 C588 1.400 . S
C589 C590 1.383 1_545 S
C590 H578 0.995 . S
C590 C589 1.383 1_565 S
C590 C591 1.363 1_565 S
C591 H579 0.950 . S
C591 C587 1.393 . S
C591 C590 1.363 1_545 S
H592 C600 0.950 . S
H593 C605 0.950 . S
H594 C602 0.950 . S
H595 C604 0.950 . S
H596 C606 0.950 . S
H597 C608 0.950 . S
H598 C610 0.950 . S
H599 C611 0.950 . S
C600 H592 0.950 . S
C600 C601 1.386 . S
C600 C602 1.391 . S
C601 C600 1.386 . S
C601 C605 1.393 . S
C602 H594 0.950 . S
C602 C600 1.391 . S
C602 C603 1.400 . S
C603 C602 1.400 . S
C603 C604 1.398 . S
C603 C609 1.491 . S
C604 H595 0.950 . S
C604 C603 1.398 . S
C604 C605 1.391 . S
C605 H593 0.950 . S
C605 C601 1.393 . S
C605 C604 1.391 . S
C606 H596 0.950 . S
C606 C607 1.386 . S
C606 C608 1.391 . S
C607 C606 1.386 . S
C607 C611 1.393 . S
C608 H597 0.950 . S
C608 C606 1.391 . S
C608 C609 1.400 . S
C609 C603 1.491 . S
C609 C608 1.400 . S
C609 C610 1.398 . S
C610 H598 0.950 . S
C610 C609 1.398 . S
C610 C611 1.391 . S
C611 H599 0.950 . S
C611 C607 1.393 . S
C611 C610 1.391 . S
H612 C620 0.950 . S
H613 C625 0.950 . S
H614 C622 0.950 . S
H615 C624 0.950 . S
H616 C626 0.950 . S
H617 C628 0.950 . S
H618 C630 0.950 . S
H619 C631 0.950 . S
C620 H612 0.950 . S
C620 C621 1.386 . S
C620 C622 1.391 . S
C621 C620 1.386 . S
C621 C625 1.393 . S
C622 H614 0.950 . S
C622 C620 1.391 . S
C622 C623 1.400 . S
C623 C622 1.400 . S
C623 C624 1.398 . S
C623 C629 1.491 . S
C624 H615 0.950 . S
C624 C623 1.398 . S
C624 C625 1.391 . S
C625 H613 0.950 . S
C625 C621 1.393 . S
C625 C624 1.391 . S
C626 H616 0.950 . S
C626 C627 1.386 . S
C626 C628 1.391 . S
C627 C626 1.386 . S
C627 C631 1.393 . S
C628 H617 0.950 . S
C628 C626 1.391 . S
C628 C629 1.400 . S
C629 C623 1.491 . S
C629 C628 1.400 . S
C629 C630 1.398 . S
C630 H618 0.950 . S
C630 C629 1.398 . S
C630 C631 1.391 . S
C631 H619 0.950 . S
C631 C627 1.393 . S
C631 C630 1.391 . S
H632 C640 0.950 . S
H633 C645 0.950 . S
H634 C642 0.950 . S
H635 C644 0.950 . S
H636 C646 0.950 . S
H637 C648 0.950 . S
H638 C650 0.950 . S
H639 C651 0.950 . S
C640 H632 0.950 . S
C640 C641 1.386 . S
C640 C642 1.391 . S
C641 C640 1.386 . S
C641 C645 1.393 . S
C642 H634 0.950 . S
C642 C640 1.391 . S
C642 C643 1.400 . S
C643 C642 1.400 . S
C643 C644 1.398 . S
C643 C649 1.491 . S
C644 H635 0.950 . S
C644 C643 1.398 . S
C644 C645 1.391 . S
C645 H633 0.950 . S
C645 C641 1.393 . S
C645 C644 1.391 . S
C646 H636 0.950 . S
C646 C647 1.386 . S
C646 C648 1.391 . S
C647 C646 1.386 . S
C647 C651 1.393 . S
C648 H637 0.950 . S
C648 C646 1.391 . S
C648 C649 1.400 . S
C649 C643 1.491 . S
C649 C648 1.400 . S
C649 C650 1.398 . S
C650 H638 0.950 . S
C650 C649 1.398 . S
C650 C651 1.391 . S
C651 H639 0.950 . S
C651 C647 1.393 . S
C651 C650 1.391 . S
H652 C660 0.950 . S
H653 C665 0.950 . S
H654 C662 0.950 . S
H655 C664 0.950 . S
H656 C666 0.950 . S
H657 C668 0.950 . S
H658 C670 0.950 . S
H659 C671 0.950 . S
C660 H652 0.950 . S
C660 C661 1.386 . S
C660 C662 1.391 . S
C661 C660 1.386 . S
C661 C665 1.393 1_554 S
C662 H654 0.950 . S
C662 C660 1.391 . S
C662 C663 1.400 . S
C663 C662 1.400 . S
C663 C664 1.398 1_554 S
C663 C669 1.491 1_554 S
C664 H655 0.950 . S
C664 C663 1.398 1_556 S
C664 C665 1.391 . S
C665 H653 0.950 . S
C665 C661 1.393 1_556 S
C665 C664 1.391 . S
C666 H656 0.950 . S
C666 C667 1.386 . S
C666 C668 1.391 . S
C667 C666 1.386 . S
C667 C671 1.393 1_556 S
C668 H657 0.950 . S
C668 C666 1.391 . S
C668 C669 1.400 . S
C669 C663 1.491 1_556 S
C669 C668 1.400 . S
C669 C670 1.398 1_556 S
C670 H658 0.950 . S
C670 C669 1.398 1_554 S
C670 C671 1.391 . S
C671 H659 0.950 . S
C671 C667 1.393 1_554 S
C671 C670 1.391 . S
C281 C190 1.625 . S
C287 C20 1.627 . S
C301 C224 1.629 . S
C307 C54 1.638 . S
C321 C88 1.640 . S
C327 C258 1.639 . S
C341 C156 1.630 . S
C347 C122 1.640 . S
C361 C9 0.985 . S
C367 C5 0.983 1_556 S
C381 C39 0.983 . S
C387 C43 0.962 . S
C401 C77 0.979 . S
C407 C73 0.990 . S
C421 C111 0.988 . S
C427 C107 0.971 . S
C441 C145 0.970 . S
C447 C141 0.965 . S
C461 C179 0.959 . S
C467 C175 0.976 . S
C481 C213 0.982 . S
C487 C209 0.986 1_554 S
C501 C243 0.972 . S
C507 C247 0.988 . S
C521 C33 1.423 . S
C527 C237 1.417 . S
C541 C271 1.424 . S
C547 C67 1.421 . S
C561 C169 1.424 . S
C567 C101 1.427 . S
C581 C135 1.419 . S
C587 C203 1.408 . S
C601 C2 1.740 . S
C607 C138 1.739 . S
C621 C36 1.737 . S
C627 C172 1.738 . S
C641 C70 1.739 . S
C647 C206 1.739 . S
C661 C240 1.742 . S
C667 C104 1.742 . S
