# Generated by pormake.
# Topology snl, (6)-cn, num edge types: 1
# Building blocks:
#     Node 0, Type 0, BuildingBlock: KUMBOL_clean_sbu_1, # of connection points: 6
#     Node 1, Type 0, BuildingBlock: KUMBOL_clean_sbu_1, # of connection points: 6
#     Node 2, Type 0, BuildingBlock: KUMBOL_clean_sbu_1, # of connection points: 6
#     Node 3, Type 0, BuildingBlock: KUMBOL_clean_sbu_1, # of connection points: 6
#     Node 4, Type 0, BuildingBlock: KUMBOL_clean_sbu_1, # of connection points: 6
#     Node 5, Type 0, BuildingBlock: KUMBOL_clean_sbu_1, # of connection points: 6
#     Node 6, Type 0, BuildingBlock: KUMBOL_clean_sbu_1, # of connection points: 6
#     Node 7, Type 0, BuildingBlock: KUMBOL_clean_sbu_1, # of connection points: 6
#     Node 8, Type 0, BuildingBlock: KUMBOL_clean_sbu_1, # of connection points: 6
#     Node 9, Type 0, BuildingBlock: KUMBOL_clean_sbu_1, # of connection points: 6
#     Node 10, Type 0, BuildingBlock: KUMBOL_clean_sbu_1, # of connection points: 6
#     Node 11, Type 0, BuildingBlock: KUMBOL_clean_sbu_1, # of connection points: 6
#     Node 12, Type 0, BuildingBlock: KUMBOL_clean_sbu_1, # of connection points: 6
#     Node 13, Type 0, BuildingBlock: KUMBOL_clean_sbu_1, # of connection points: 6
#     Node 14, Type 0, BuildingBlock: KUMBOL_clean_sbu_1, # of connection points: 6
#     Node 15, Type 0, BuildingBlock: KUMBOL_clean_sbu_1, # of connection points: 6
#     Edge 16, Type (0, 0), BuildingBlock: UVAHIK_clean_linker_0, # of connection points: 2
#     Edge 17, Type (0, 0), BuildingBlock: UVAHIK_clean_linker_0, # of connection points: 2
#     Edge 18, Type (0, 0), BuildingBlock: UVAHIK_clean_linker_0, # of connection points: 2
#     Edge 19, Type (0, 0), BuildingBlock: UVAHIK_clean_linker_0, # of connection points: 2
#     Edge 20, Type (0, 0), BuildingBlock: UVAHIK_clean_linker_0, # of connection points: 2
#     Edge 21, Type (0, 0), BuildingBlock: UVAHIK_clean_linker_0, # of connection points: 2
#     Edge 22, Type (0, 0), BuildingBlock: UVAHIK_clean_linker_0, # of connection points: 2
#     Edge 23, Type (0, 0), BuildingBlock: UVAHIK_clean_linker_0, # of connection points: 2
#     Edge 24, Type (0, 0), BuildingBlock: UVAHIK_clean_linker_0, # of connection points: 2
#     Edge 25, Type (0, 0), BuildingBlock: UVAHIK_clean_linker_0, # of connection points: 2
#     Edge 26, Type (0, 0), BuildingBlock: UVAHIK_clean_linker_0, # of connection points: 2
#     Edge 27, Type (0, 0), BuildingBlock: UVAHIK_clean_linker_0, # of connection points: 2
#     Edge 28, Type (0, 0), BuildingBlock: UVAHIK_clean_linker_0, # of connection points: 2
#     Edge 29, Type (0, 0), BuildingBlock: UVAHIK_clean_linker_0, # of connection points: 2
#     Edge 30, Type (0, 0), BuildingBlock: UVAHIK_clean_linker_0, # of connection points: 2
#     Edge 31, Type (0, 0), BuildingBlock: UVAHIK_clean_linker_0, # of connection points: 2
#     Edge 32, Type (0, 0), BuildingBlock: UVAHIK_clean_linker_0, # of connection points: 2
#     Edge 33, Type (0, 0), BuildingBlock: UVAHIK_clean_linker_0, # of connection points: 2
#     Edge 34, Type (0, 0), BuildingBlock: UVAHIK_clean_linker_0, # of connection points: 2
#     Edge 35, Type (0, 0), BuildingBlock: UVAHIK_clean_linker_0, # of connection points: 2
#     Edge 36, Type (0, 0), BuildingBlock: UVAHIK_clean_linker_0, # of connection points: 2
#     Edge 37, Type (0, 0), BuildingBlock: UVAHIK_clean_linker_0, # of connection points: 2
#     Edge 38, Type (0, 0), BuildingBlock: UVAHIK_clean_linker_0, # of connection points: 2
#     Edge 39, Type (0, 0), BuildingBlock: UVAHIK_clean_linker_0, # of connection points: 2
#     Edge 40, Type (0, 0), BuildingBlock: UVAHIK_clean_linker_0, # of connection points: 2
#     Edge 41, Type (0, 0), BuildingBlock: UVAHIK_clean_linker_0, # of connection points: 2
#     Edge 42, Type (0, 0), BuildingBlock: UVAHIK_clean_linker_0, # of connection points: 2
#     Edge 43, Type (0, 0), BuildingBlock: UVAHIK_clean_linker_0, # of connection points: 2
#     Edge 44, Type (0, 0), BuildingBlock: UVAHIK_clean_linker_0, # of connection points: 2
#     Edge 45, Type (0, 0), BuildingBlock: UVAHIK_clean_linker_0, # of connection points: 2
#     Edge 46, Type (0, 0), BuildingBlock: UVAHIK_clean_linker_0, # of connection points: 2
#     Edge 47, Type (0, 0), BuildingBlock: UVAHIK_clean_linker_0, # of connection points: 2
#     Edge 48, Type (0, 0), BuildingBlock: UVAHIK_clean_linker_0, # of connection points: 2
#     Edge 49, Type (0, 0), BuildingBlock: UVAHIK_clean_linker_0, # of connection points: 2
#     Edge 50, Type (0, 0), BuildingBlock: UVAHIK_clean_linker_0, # of connection points: 2
#     Edge 51, Type (0, 0), BuildingBlock: UVAHIK_clean_linker_0, # of connection points: 2
#     Edge 52, Type (0, 0), BuildingBlock: UVAHIK_clean_linker_0, # of connection points: 2
#     Edge 53, Type (0, 0), BuildingBlock: UVAHIK_clean_linker_0, # of connection points: 2
#     Edge 54, Type (0, 0), BuildingBlock: UVAHIK_clean_linker_0, # of connection points: 2
#     Edge 55, Type (0, 0), BuildingBlock: UVAHIK_clean_linker_0, # of connection points: 2
#     Edge 56, Type (0, 0), BuildingBlock: UVAHIK_clean_linker_0, # of connection points: 2
#     Edge 57, Type (0, 0), BuildingBlock: UVAHIK_clean_linker_0, # of connection points: 2
#     Edge 58, Type (0, 0), BuildingBlock: UVAHIK_clean_linker_0, # of connection points: 2
#     Edge 59, Type (0, 0), BuildingBlock: UVAHIK_clean_linker_0, # of connection points: 2
#     Edge 60, Type (0, 0), BuildingBlock: UVAHIK_clean_linker_0, # of connection points: 2
#     Edge 61, Type (0, 0), BuildingBlock: UVAHIK_clean_linker_0, # of connection points: 2
#     Edge 62, Type (0, 0), BuildingBlock: UVAHIK_clean_linker_0, # of connection points: 2
#     Edge 63, Type (0, 0), BuildingBlock: UVAHIK_clean_linker_0, # of connection points: 2
# Relax obj value: 0.164
# Max RMSD: 0.225
# Mean RMSD: 0.221
data_MOF--net-snl--node1-KUMBOL_clean_sbu_1--edge1-UVAHIK_clean_linker_0
_symmetry_space_group_name_H-M    P1
_symmetry_Int_Tables_number       1
_symmetry_cell_setting            triclinic
loop_
_symmetry_equiv_pos_as_xyz
'x, y, z'
_cell_length_a     74.682395
_cell_length_b     74.653204
_cell_length_c     29.48373
_cell_angle_alpha  90.234529
_cell_angle_beta   90.402373
_cell_angle_gamma 89.972703
loop_
_atom_site_label
_atom_site_type_symbol
_atom_site_fract_x
_atom_site_fract_y
_atom_site_fract_z
_atom_type_partial_charge
C0 C 0.13056 0.57725 0.2055 0.0
C1 C 0.16078 0.56759 0.22298 0.0
C2 C 0.14828 0.5814 0.21486 0.0
C3 C 0.15537 0.54962 0.2188 0.0
C4 C 0.12484 0.55928 0.20355 0.0
C5 C 0.13743 0.54547 0.20916 0.0
N6 N 0.11877 0.59088 0.19936 0.0
C7 C 0.10085 0.58765 0.19509 0.0
C8 C 0.10658 0.55577 0.19686 0.0
C9 C 0.0945 0.57003 0.1933 0.0
Gd10 Gd 0.13973 0.63842 0.07498 0.0
Gd11 Gd 0.13046 0.61997 0.20161 0.0
N12 N 0.15299 0.59892 0.21927 0.0
C13 C 0.17812 0.57225 0.23689 0.0
C14 C 0.16926 0.60338 0.2374 0.0
C15 C 0.18225 0.59021 0.24513 0.0
H16 H 0.17223 0.61706 0.24663 0.0
H17 H 0.19533 0.59391 0.25817 0.0
H18 H 0.10236 0.66015 0.04749 0.0
H19 H 0.09157 0.5987 0.19214 0.0
H20 H 0.09187 0.69151 0.03907 0.0
H21 H 0.18813 0.56205 0.24344 0.0
H22 H 0.16484 0.53883 0.22437 0.0
H23 H 0.18509 0.64052 0.06815 0.0
H24 H 0.10164 0.54214 0.19523 0.0
H25 H 0.08033 0.56745 0.18896 0.0
H26 H 0.14474 0.72678 0.06608 0.0
H27 H 0.13336 0.53156 0.20719 0.0
H28 H 0.20053 0.69548 0.08037 0.0
H29 H 0.20867 0.66343 0.07489 0.0
N30 N 0.16363 0.65917 0.07512 0.0
C31 C 0.15895 0.67676 0.07439 0.0
C32 C 0.18127 0.65438 0.07255 0.0
C33 C 0.19008 0.68544 0.07857 0.0
C34 C 0.19472 0.66736 0.07553 0.0
C35 C 0.17202 0.69038 0.07662 0.0
H36 H 0.17652 0.71908 0.07734 0.0
N37 N 0.12902 0.66767 0.06435 0.0
C38 C 0.14112 0.68115 0.06797 0.0
C39 C 0.11779 0.7029 0.05391 0.0
C40 C 0.13579 0.69918 0.06367 0.0
C41 C 0.11167 0.6711 0.05221 0.0
C42 C 0.10573 0.68878 0.04749 0.0
O43 O 0.12601 0.60279 0.13817 0.0
O44 O 0.14921 0.61069 0.09293 0.0
O45 O 0.12602 0.6267 0.01691 0.0
O46 O 0.15026 0.64172 1.00685 0.0
O47 O 0.15646 0.63448 0.1887 0.0
O48 O 0.16318 0.62651 0.1153 0.0
O49 O 0.12536 0.65514 0.12762 0.0
O50 O 0.13929 0.64899 0.19482 0.0
O51 O 0.13319 0.61668 0.27465 0.0
O52 O 0.10927 0.62862 0.24667 0.0
O53 O 0.11113 0.62866 0.08754 0.0
O54 O 0.10569 0.63003 0.1655 0.0
C55 C 0.13828 0.59846 0.1083 0.0
C56 C 0.16818 0.6312 0.1567 0.0
C57 C 0.14357 0.61892 0.9538 0.0
C58 C 0.14569 0.60967 0.87446 0.0
C59 C 0.15599 0.58987 0.93461 0.0
C60 C 0.15132 0.60267 0.9671 0.0
C61 C 0.15314 0.59328 0.88854 0.0
C62 C 0.14092 0.62245 0.9075 0.0
C63 C 0.1378 0.63212 0.98777 0.0
C64 C 0.14861 0.71282 0.06844 0.0
C65 C 0.16669 0.70843 0.07501 0.0
H66 H 0.11316 0.71659 0.05043 0.0
C67 C 0.13233 0.66053 0.16613 0.0
C68 C 0.10018 0.62931 0.12282 0.0
C69 C 0.11956 0.63944 0.31781 0.0
C70 C 0.12336 0.64841 0.39731 0.0
C71 C 0.11969 0.67094 0.33835 0.0
C72 C 0.11853 0.65754 0.30536 0.0
C73 C 0.122 0.66646 0.38396 0.0
C74 C 0.12209 0.63495 0.36369 0.0
C75 C 0.11838 0.6251 0.28337 0.0
H76 H 0.16187 0.57729 0.94516 0.0
H77 H 0.15366 0.59997 1.00256 0.0
H78 H 0.15703 0.58324 0.86389 0.0
H79 H 0.13488 0.63503 0.89727 0.0
H80 H 0.11875 0.68487 0.32855 0.0
H81 H 0.11679 0.66135 0.27018 0.0
H82 H 0.12253 0.67718 0.40878 0.0
H83 H 0.12334 0.62097 0.37292 0.0
C84 C 0.68801 0.882 0.4607 0.0
C85 C 0.69808 0.91209 0.47832 0.0
C86 C 0.68411 0.89986 0.46918 0.0
C87 C 0.71596 0.90627 0.47638 0.0
C88 C 0.70588 0.87594 0.46034 0.0
C89 C 0.71985 0.88823 0.46742 0.0
N90 N 0.67423 0.8705 0.45293 0.0
C91 C 0.67723 0.85255 0.44794 0.0
C92 C 0.70913 0.85765 0.45335 0.0
C93 C 0.69473 0.84588 0.44768 0.0
Gd94 Gd 0.6296 0.8915 0.32278 0.0
Gd95 Gd 0.64535 0.88287 0.45237 0.0
N96 N 0.66666 0.90505 0.47097 0.0
C97 C 0.69364 0.92965 0.49062 0.0
C98 C 0.66232 0.92165 0.48711 0.0
C99 C 0.67568 0.93434 0.49595 0.0
H100 H 0.64859 0.92509 0.49407 0.0
H101 H 0.67211 0.94764 0.50755 0.0
H102 H 0.60786 0.85435 0.29254 0.0
H103 H 0.66609 0.84349 0.44319 0.0
H104 H 0.57651 0.84433 0.28028 0.0
H105 H 0.70397 0.93946 0.49791 0.0
H106 H 0.72686 0.91552 0.48285 0.0
H107 H 0.62847 0.93679 0.31183 0.0
H108 H 0.72268 0.85247 0.45288 0.0
H109 H 0.69711 0.8317 0.44289 0.0
H110 H 0.54168 0.89787 0.30128 0.0
H111 H 0.73369 0.88388 0.46684 0.0
H112 H 0.57364 0.95327 0.31606 0.0
H113 H 0.60588 0.96084 0.3139 0.0
N114 N 0.60935 0.91575 0.31784 0.0
C115 C 0.59172 0.91134 0.31514 0.0
C116 C 0.61448 0.93327 0.31457 0.0
C117 C 0.58352 0.94264 0.31619 0.0
C118 C 0.6017 0.94697 0.31499 0.0
C119 C 0.57831 0.92465 0.31485 0.0
H120 H 0.54971 0.92961 0.3118 0.0
N121 N 0.60048 0.8812 0.30757 0.0
C122 C 0.58716 0.89353 0.30901 0.0
C123 C 0.5653 0.87048 0.29298 0.0
C124 C 0.56914 0.88847 0.30264 0.0
C125 C 0.59699 0.86386 0.29545 0.0
C126 C 0.57932 0.85818 0.28863 0.0
O127 O 0.66343 0.87798 0.39116 0.0
O128 O 0.65675 0.90133 0.3452 0.0
O129 O 0.62709 0.90081 0.25328 0.0
O130 O 0.64389 0.87811 0.26831 0.0
O131 O 0.63119 0.90892 0.43674 0.0
O132 O 0.64045 0.91521 0.36426 0.0
O133 O 0.61149 0.87757 0.37279 0.0
O134 O 0.61648 0.89159 0.44062 0.0
O135 O 0.64657 0.88705 0.52544 0.0
O136 O 0.6358 0.8624 0.49846 0.0
O137 O 0.63839 0.86267 0.33847 0.0
O138 O 0.63532 0.85808 0.41651 0.0
C139 C 0.66855 0.89025 0.36221 0.0
C140 C 0.63478 0.92044 0.40449 0.0
C141 C 0.65197 0.89616 0.20628 0.0
C142 C 0.66337 0.89934 0.12916 0.0
C143 C 0.67919 0.91295 0.19316 0.0
C144 C 0.66633 0.90639 0.22289 0.0
C145 C 0.67775 0.90949 0.14665 0.0
C146 C 0.6505 0.89269 0.15952 0.0
C147 C 0.63835 0.88917 0.23725 0.0
C148 C 0.55564 0.90153 0.3052 0.0
C149 C 0.56022 0.91959 0.31135 0.0
H150 H 0.55162 0.86604 0.28793 0.0
C151 C 0.60545 0.88466 0.41034 0.0
C152 C 0.63698 0.85211 0.37447 0.0
C153 C 0.65028 0.86126 0.57056 0.0
C154 C 0.65911 0.85843 0.65037 0.0
C155 C 0.66935 0.83667 0.59457 0.0
C156 C 0.66004 0.84569 0.56042 0.0
C157 C 0.66895 0.84298 0.63919 0.0
C158 C 0.64977 0.86751 0.61568 0.0
C159 C 0.64056 0.87118 0.53483 0.0
H160 H 0.69026 0.92084 0.20617 0.0
H161 H 0.66751 0.90934 0.25873 0.0
H162 H 0.68777 0.91502 0.12432 0.0
H163 H 0.63943 0.88464 0.14695 0.0
H164 H 0.67684 0.82467 0.58647 0.0
H165 H 0.66041 0.84041 0.52625 0.0
H166 H 0.67611 0.83557 0.66512 0.0
H167 H 0.64227 0.87955 0.62362 0.0
C168 C 0.37857 0.43841 0.71094 0.0
C169 C 0.34819 0.44566 0.73244 0.0
C170 C 0.36138 0.43292 0.7211 0.0
C171 C 0.35231 0.46401 0.73037 0.0
C172 C 0.38308 0.45673 0.71119 0.0
C173 C 0.36973 0.46954 0.71976 0.0
N174 N 0.39112 0.42571 0.70252 0.0
C175 C 0.40876 0.43019 0.69846 0.0
C176 C 0.40096 0.46156 0.70403 0.0
C177 C 0.41391 0.44821 0.69843 0.0
Gd178 Gd 0.37138 0.38115 0.56888 0.0
Gd179 Gd 0.38114 0.39594 0.69906 0.0
N180 N 0.35796 0.41507 0.7234 0.0
C181 C 0.33153 0.43956 0.74738 0.0
C182 C 0.34243 0.40914 0.74231 0.0
C183 C 0.32879 0.42121 0.75331 0.0
H184 H 0.34051 0.39506 0.74903 0.0
H185 H 0.31626 0.41637 0.76685 0.0
H186 H 0.40796 0.35978 0.53514 0.0
H187 H 0.4187 0.41983 0.69371 0.0
H188 H 0.41769 0.32867 0.51855 0.0
H189 H 0.32102 0.4489 0.75637 0.0
H190 H 0.34229 0.47402 0.73839 0.0
H191 H 0.32594 0.38015 0.5609 0.0
H192 H 0.40497 0.4755 0.70394 0.0
H193 H 0.42782 0.45179 0.69389 0.0
H194 H 0.3645 0.29355 0.54002 0.0
H195 H 0.37285 0.48371 0.71956 0.0
H196 H 0.30949 0.3253 0.56226 0.0
H197 H 0.30194 0.35757 0.56302 0.0
N198 N 0.34705 0.36095 0.56468 0.0
C199 C 0.3514 0.34335 0.56045 0.0
C200 C 0.3295 0.36614 0.5627 0.0
C201 C 0.32013 0.33517 0.56261 0.0
C202 C 0.31581 0.35336 0.56306 0.0
C203 C 0.33808 0.32996 0.55975 0.0
H204 H 0.33302 0.30143 0.55405 0.0
N205 N 0.38141 0.35218 0.55165 0.0
C206 C 0.36909 0.33886 0.55277 0.0
C207 C 0.39177 0.31726 0.5322 0.0
C208 C 0.374 0.32095 0.54392 0.0
C209 C 0.39851 0.34888 0.53784 0.0
C210 C 0.40402 0.33134 0.52845 0.0
O211 O 0.38569 0.4146 0.63887 0.0
O212 O 0.36207 0.40823 0.59279 0.0
O213 O 0.384 0.39597 0.51443 0.0
O214 O 0.36135 0.37898 0.4997 0.0
O215 O 0.35518 0.38163 0.6828 0.0
O216 O 0.34828 0.39203 0.61155 0.0
O217 O 0.38617 0.363 0.61803 0.0
O218 O 0.37232 0.36724 0.68595 0.0
O219 O 0.3804 0.39694 0.77361 0.0
O220 O 0.40298 0.38473 0.73833 0.0
O221 O 0.4004 0.38956 0.58253 0.0
O222 O 0.40592 0.38807 0.66067 0.0
C223 C 0.37346 0.41983 0.60955 0.0
C224 C 0.34336 0.38606 0.65161 0.0
C225 C 0.3658 0.40363 0.45155 0.0
C226 C 0.36183 0.41352 0.37306 0.0
C227 C 0.3493 0.43085 0.43557 0.0
C228 C 0.35602 0.41847 0.46673 0.0
C229 C 0.35211 0.42841 0.38907 0.0
C230 C 0.36874 0.40125 0.40493 0.0
C231 C 0.37284 0.39028 0.48352 0.0
C232 C 0.36096 0.30744 0.54597 0.0
C233 C 0.34303 0.31193 0.55405 0.0
H234 H 0.39608 0.30368 0.52512 0.0
C235 C 0.37948 0.35653 0.65555 0.0
C236 C 0.41134 0.38917 0.61821 0.0
C237 C 0.40462 0.38439 0.82061 0.0
C238 C 0.40468 0.38273 0.90348 0.0
C239 C 0.42955 0.37051 0.86064 0.0
C240 C 0.4213 0.37566 0.8202 0.0
C241 C 0.42127 0.37389 0.90198 0.0
C242 C 0.39642 0.38815 0.8626 0.0
C243 C 0.39573 0.38878 0.777 0.0
H244 H 0.34174 0.4423 0.44744 0.0
H245 H 0.35352 0.42038 0.50253 0.0
H246 H 0.34639 0.43802 0.36569 0.0
H247 H 0.37653 0.38984 0.39365 0.0
H248 H 0.44238 0.36375 0.8599 0.0
H249 H 0.42796 0.37264 0.78855 0.0
H250 H 0.42792 0.36972 0.93298 0.0
H251 H 0.38353 0.39481 0.86352 0.0
C252 C 0.91134 0.084 0.81545 0.0
C253 C 0.89101 0.0596 0.79706 0.0
C254 C 0.89422 0.07794 0.80527 0.0
C255 C 0.90511 0.04729 0.80177 0.0
C256 C 0.92571 0.07176 0.81796 0.0
C257 C 0.92241 0.05334 0.81237 0.0
N258 N 0.91416 0.10195 0.81936 0.0
C259 C 0.93122 0.10852 0.8205 0.0
C260 C 0.94307 0.07844 0.82397 0.0
C261 C 0.94586 0.09693 0.82433 0.0
Gd262 Gd 0.87368 0.13587 0.94192 0.0
Gd263 Gd 0.88833 0.12009 0.81522 0.0
N264 N 0.88079 0.09012 0.80169 0.0
C265 C 0.87381 0.05428 0.7833 0.0
C266 C 0.86424 0.08521 0.78608 0.0
C267 C 0.86043 0.06718 0.77719 0.0
H268 H 0.85395 0.09524 0.78132 0.0
H269 H 0.8472 0.06324 0.76573 0.0
H270 H 0.91353 0.14337 0.99505 0.0
H271 H 0.9337 0.12271 0.81769 0.0
H272 H 0.93218 0.16924 0.01662 0.0
H273 H 0.87082 0.04032 0.7765 0.0
H274 H 0.90287 0.03311 0.79618 0.0
H275 H 0.83235 0.1515 0.92751 0.0
H276 H 0.95446 0.06949 0.82618 0.0
H277 H 0.95932 0.10226 0.82662 0.0
H278 H 0.89434 0.22007 0.98918 0.0
H279 H 0.93325 0.04374 0.81461 0.0
H280 H 0.83358 0.2086 0.94387 0.0
H281 H 0.8167 0.18079 0.92697 0.0
N282 N 0.85768 0.16285 0.94374 0.0
C283 C 0.86697 0.1778 0.9554 0.0
C284 C 0.83971 0.16362 0.9351 0.0
C285 C 0.84044 0.19581 0.94436 0.0
C286 C 0.83086 0.18014 0.93477 0.0
C287 C 0.85868 0.19476 0.95535 0.0
H288 H 0.86276 0.22322 0.96605 0.0
N289 N 0.89196 0.15929 0.96986 0.0
C290 C 0.88475 0.17599 0.96814 0.0
C291 C 0.91222 0.1887 0.99765 0.0
C292 C 0.89474 0.19117 0.98149 0.0
C293 C 0.90843 0.15671 0.98926 0.0
C294 C 0.91896 0.17135 1.00238 0.0
O295 O 0.87623 0.10015 0.86562 0.0
O296 O 0.88912 0.1107 0.92978 0.0
O297 O 0.87295 0.13676 0.01628 0.0
O298 O 0.85448 0.11958 0.97812 0.0
O299 O 0.8595 0.12816 0.82251 0.0
O300 O 0.85104 0.12403 0.89787 0.0
O301 O 0.86823 0.15334 0.8808 0.0
O302 O 0.89243 0.14934 0.83462 0.0
O303 O 0.87451 0.12796 0.75325 0.0
O304 O 0.90202 0.11944 0.75038 0.0
O305 O 0.90273 0.12745 0.92965 0.0
O306 O 0.90875 0.13605 0.85625 0.0
C307 C 0.88163 0.09754 0.90761 0.0
C308 C 0.84733 0.12538 0.85389 0.0
C309 C 0.85201 0.11861 0.06044 0.0
C310 C 0.8521 0.11593 0.14326 0.0
C311 C 0.83026 0.09957 0.09776 0.0
C312 C 0.83743 0.10673 0.05827 0.0
C313 C 0.83758 0.10402 0.13992 0.0
C314 C 0.85918 0.12339 0.1033 0.0
C315 C 0.86009 0.12504 0.01773 0.0
C316 C 0.8868 0.20823 0.97959 0.0
C317 C 0.8688 0.21002 0.96658 0.0
H318 H 0.92035 0.20001 1.00817 0.0
C319 C 0.88064 0.15985 0.85439 0.0
C320 C 0.91388 0.13338 0.89853 0.0
C321 C 0.89219 0.13986 0.69468 0.0
C322 C 0.89257 0.15007 0.61577 0.0
C323 C 0.90288 0.16964 0.67708 0.0
C324 C 0.89917 0.15639 0.70891 0.0
C325 C 0.8997 0.16653 0.63091 0.0
C326 C 0.88882 0.13678 0.64831 0.0
C327 C 0.88842 0.12564 0.72765 0.0
H328 H 0.81905 0.0904 0.09566 0.0
H329 H 0.83163 0.1028 0.02596 0.0
H330 H 0.83181 0.09821 0.17011 0.0
H331 H 0.87052 0.13241 0.10556 0.0
H332 H 0.90837 0.18235 0.68818 0.0
H333 H 0.9018 0.15898 0.74452 0.0
H334 H 0.90309 0.17697 0.60707 0.0
H335 H 0.88311 0.12407 0.63779 0.0
C336 C 0.18425 0.3642 0.95819 0.0
C337 C 0.20589 0.38847 0.96103 0.0
C338 C 0.18802 0.38248 0.95786 0.0
C339 C 0.21986 0.37592 0.96421 0.0
C340 C 0.19826 0.35159 0.96137 0.0
C341 C 0.21606 0.35755 0.96439 0.0
N342 N 0.16693 0.35876 0.95391 0.0
C343 C 0.16262 0.34102 0.95432 0.0
C344 C 0.19395 0.33333 0.96094 0.0
C345 C 0.17605 0.32803 0.95759 0.0
Gd346 Gd 0.12758 0.39471 0.82449 0.0
Gd347 Gd 0.14551 0.38153 0.94798 0.0
N348 N 0.17424 0.39434 0.95317 0.0
C349 C 0.2092 0.40691 0.96083 0.0
C350 C 0.17736 0.41232 0.95539 0.0
C351 C 0.19486 0.41888 0.95852 0.0
H352 H 0.16648 0.42171 0.95584 0.0
H353 H 0.19726 0.43317 0.95965 0.0
H354 H 0.10522 0.35524 0.81771 0.0
H355 H 0.14879 0.3369 0.95299 0.0
H356 H 0.07412 0.34478 0.81344 0.0
H357 H 0.22275 0.41205 0.9632 0.0
H358 H 0.23367 0.3803 0.96652 0.0
H359 H 0.12578 0.43941 0.81581 0.0
H360 H 0.20434 0.32322 0.96332 0.0
H361 H 0.17258 0.31396 0.95772 0.0
H362 H 0.03957 0.3987 0.8007 0.0
H363 H 0.22699 0.34805 0.96674 0.0
H364 H 0.07083 0.45474 0.80088 0.0
H365 H 0.10282 0.46299 0.80766 0.0
N366 N 0.10693 0.41807 0.81477 0.0
C367 C 0.08946 0.4132 0.81016 0.0
C368 C 0.11184 0.43566 0.8135 0.0
C369 C 0.08084 0.44433 0.80455 0.0
C370 C 0.09888 0.44905 0.80851 0.0
C371 C 0.07592 0.42624 0.80531 0.0
H372 H 0.04735 0.43069 0.79829 0.0
N373 N 0.0984 0.38289 0.81804 0.0
C374 C 0.08507 0.39511 0.81165 0.0
C375 C 0.06307 0.37138 0.80963 0.0
C376 C 0.06702 0.38968 0.80804 0.0
C377 C 0.09468 0.36501 0.81693 0.0
C378 C 0.07699 0.35899 0.81351 0.0
O379 O 0.1639 0.37786 0.88696 0.0
O380 O 0.15644 0.40103 0.83999 0.0
O381 O 0.13046 0.37968 0.76194 0.0
O382 O 0.13056 0.40859 0.7602 0.0
O383 O 0.13549 0.40985 0.9374 0.0
O384 O 0.1419 0.417 0.86302 0.0
O385 O 0.1089 0.39876 0.88386 0.0
O386 O 0.11593 0.37644 0.93432 0.0
O387 O 0.14345 0.39548 0.0124 0.0
O388 O 0.14326 0.36654 0.01069 0.0
O389 O 0.13635 0.36562 0.83716 0.0
O390 O 0.12959 0.36031 0.91211 0.0
C391 C 0.16821 0.38956 0.85567 0.0
C392 C 0.13812 0.42168 0.90511 0.0
C393 C 0.14707 0.39329 0.70422 0.0
C394 C 0.15721 0.39227 0.6257 0.0
C395 C 0.17876 0.39106 0.68797 0.0
C396 C 0.16483 0.39191 0.71917 0.0
C397 C 0.17502 0.39127 0.64149 0.0
C398 C 0.14328 0.39341 0.65757 0.0
C399 C 0.13234 0.39387 0.73689 0.0
C400 C 0.0535 0.40264 0.80325 0.0
C401 C 0.05794 0.42086 0.80187 0.0
H402 H 0.04937 0.36668 0.80717 0.0
C403 C 0.10432 0.38753 0.91578 0.0
C404 C 0.1328 0.35454 0.87083 0.0
C405 C 0.12679 0.38078 0.06831 0.0
C406 C 0.11677 0.38233 0.14685 0.0
C407 C 0.09505 0.38033 0.08509 0.0
C408 C 0.10891 0.37998 0.05358 0.0
C409 C 0.09891 0.38152 0.13145 0.0
C410 C 0.13066 0.38195 0.11482 0.0
C411 C 0.14154 0.38082 0.03567 0.0
H412 H 0.19248 0.3901 0.69982 0.0
H413 H 0.1678 0.39129 0.75491 0.0
H414 H 0.18607 0.39067 0.61796 0.0
H415 H 0.12944 0.39393 0.64624 0.0
H416 H 0.08127 0.37967 0.07354 0.0
H417 H 0.10567 0.37913 0.01787 0.0
H418 H 0.08793 0.38157 0.15525 0.0
H419 H 0.1445 0.38286 0.12595 0.0
C420 C 0.83402 0.85686 0.06137 0.0
C421 C 0.80881 0.87743 0.0594 0.0
C422 C 0.82739 0.87428 0.06237 0.0
C423 C 0.797 0.86287 0.05526 0.0
C424 C 0.8222 0.84222 0.05716 0.0
C425 C 0.80367 0.84532 0.05413 0.0
N426 N 0.85199 0.85423 0.06512 0.0
C427 C 0.85908 0.83741 0.06315 0.0
C428 C 0.82935 0.82488 0.05629 0.0
C429 C 0.84788 0.82248 0.05908 0.0
Gd430 Gd 0.88763 0.89603 0.19517 0.0
Gd431 Gd 0.86951 0.88009 0.07307 0.0
N432 N 0.83912 0.88809 0.06812 0.0
C433 C 0.80264 0.89513 0.06104 0.0
C434 C 0.83323 0.90539 0.0681 0.0
C435 C 0.81492 0.90916 0.06506 0.0
H436 H 0.84254 0.91633 0.07048 0.0
H437 H 0.81028 0.9229 0.06574 0.0
H438 H 0.90249 0.85455 0.22653 0.0
H439 H 0.8734 0.83555 0.06378 0.0
H440 H 0.93101 0.83857 0.23301 0.0
H441 H 0.78846 0.89811 0.05893 0.0
H442 H 0.78267 0.86503 0.05302 0.0
H443 H 0.89795 0.93932 0.18839 0.0
H444 H 0.82071 0.81328 0.05313 0.0
H445 H 0.85356 0.80914 0.05781 0.0
H446 H 0.97525 0.88436 0.21511 0.0
H447 H 0.79438 0.83423 0.05096 0.0
H448 H 0.95496 0.9447 0.19495 0.0
H449 H 0.92494 0.95844 0.18719 0.0
N450 N 0.91254 0.91512 0.19541 0.0
C451 C 0.92885 0.90734 0.20105 0.0
C452 C 0.91098 0.93324 0.1912 0.0
C453 C 0.94316 0.93628 0.1954 0.0
C454 C 0.92624 0.94408 0.19086 0.0
C455 C 0.94464 0.91771 0.20078 0.0
H456 H 0.97361 0.91699 0.20502 0.0
N457 N 0.91423 0.87925 0.20619 0.0
C458 C 0.92973 0.88887 0.20609 0.0
C459 C 0.94692 0.86198 0.21992 0.0
C460 C 0.9465 0.88043 0.2121 0.0
C461 C 0.9146 0.86165 0.21877 0.0
C462 C 0.93088 0.85263 0.22427 0.0
O463 O 0.85047 0.87783 0.13321 0.0
O464 O 0.85816 0.90067 0.18219 0.0
O465 O 0.8851 0.88574 0.26359 0.0
O466 O 0.88568 0.91423 0.25282 0.0
O467 O 0.87561 0.90959 0.08161 0.0
O468 O 0.87355 0.91857 0.15714 0.0
O469 O 0.90433 0.90117 0.13241 0.0
O470 O 0.89925 0.87653 0.08795 0.0
O471 O 0.872 0.89519 0.01067 0.0
O472 O 0.87204 0.86626 1.00843 0.0
O473 O 0.87775 0.86712 0.18474 0.0
O474 O 0.88663 0.86091 0.11205 0.0
C475 C 0.84646 0.88922 0.1658 0.0
C476 C 0.87356 0.92203 0.11309 0.0
C477 C 0.86939 0.90352 0.31566 0.0
C478 C 0.85959 0.90235 0.39454 0.0
C479 C 0.8381 0.9081 0.33379 0.0
C480 C 0.85175 0.90701 0.3018 0.0
C481 C 0.84194 0.90577 0.37986 0.0
C482 C 0.87326 0.90124 0.36196 0.0
C483 C 0.88378 0.90147 0.28224 0.0
C484 C 0.96227 0.89067 0.2111 0.0
C485 C 0.96134 0.90926 0.20551 0.0
H486 H 0.95952 0.85499 0.22459 0.0
C487 C 0.91011 0.88892 0.10414 0.0
C488 C 0.88232 0.85554 0.15278 0.0
C489 C 0.88841 0.88137 0.95229 0.0
C490 C 0.89812 0.88383 0.87352 0.0
C491 C 0.92002 0.88036 0.93451 0.0
C492 C 0.90631 0.8799 0.96639 0.0
C493 C 0.91601 0.88229 0.88841 0.0
C494 C 0.88436 0.88336 0.90599 0.0
C495 C 0.87379 0.88096 0.98537 0.0
H496 H 0.82449 0.91077 0.32285 0.0
H497 H 0.84857 0.90881 0.26633 0.0
H498 H 0.83114 0.90688 0.40404 0.0
H499 H 0.88689 0.89827 0.37247 0.0
H500 H 0.93383 0.87916 0.94555 0.0
H501 H 0.90967 0.87837 1.00191 0.0
H502 H 0.92691 0.88232 0.86441 0.0
H503 H 0.8705 0.88478 0.89545 0.0
C504 C 0.41037 0.58363 0.30947 0.0
C505 C 0.39 0.55944 0.28954 0.0
C506 C 0.39325 0.5777 0.29885 0.0
C507 C 0.40405 0.54705 0.29369 0.0
C508 C 0.4247 0.57132 0.31141 0.0
C509 C 0.42135 0.55297 0.3048 0.0
N510 N 0.41324 0.60153 0.31432 0.0
C511 C 0.43032 0.60805 0.31589 0.0
C512 C 0.44207 0.57791 0.3179 0.0
C513 C 0.44492 0.59638 0.31922 0.0
Gd514 Gd 0.37265 0.63494 0.43771 0.0
Gd515 Gd 0.38748 0.61978 0.31084 0.0
N516 N 0.37984 0.58993 0.29593 0.0
C517 C 0.3728 0.55429 0.27533 0.0
C518 C 0.36329 0.5852 0.27997 0.0
C519 C 0.35945 0.56727 0.26995 0.0
H520 H 0.35303 0.5953 0.27575 0.0
H521 H 0.34623 0.56347 0.25818 0.0
H522 H 0.41259 0.64211 0.49085 0.0
H523 H 0.43285 0.62224 0.3138 0.0
H524 H 0.4314 0.66782 0.51265 0.0
H525 H 0.36979 0.5404 0.26769 0.0
H526 H 0.40178 0.53293 0.2873 0.0
H527 H 0.3314 0.65083 0.4237 0.0
H528 H 0.45343 0.5689 0.31971 0.0
H529 H 0.45839 0.60166 0.32187 0.0
H530 H 0.39381 0.71892 0.48613 0.0
H531 H 0.43217 0.54331 0.30661 0.0
H532 H 0.33293 0.70787 0.44115 0.0
H533 H 0.3159 0.6802 0.42377 0.0
N534 N 0.35679 0.662 0.44007 0.0
C535 C 0.36617 0.67686 0.45201 0.0
C536 C 0.33883 0.66289 0.43149 0.0
C537 C 0.33973 0.69505 0.44139 0.0
C538 C 0.33007 0.67946 0.43151 0.0
C539 C 0.35797 0.69387 0.45228 0.0
H540 H 0.36222 0.72228 0.46335 0.0
N541 N 0.3911 0.65819 0.46591 0.0
C542 C 0.38396 0.67493 0.46457 0.0
C543 C 0.41153 0.68743 0.49406 0.0
C544 C 0.39404 0.69004 0.47807 0.0
C545 C 0.40756 0.65548 0.48523 0.0
C546 C 0.41818 0.67004 0.4985 0.0
O547 O 0.37523 0.59955 0.36043 0.0
O548 O 0.38777 0.60948 0.42591 0.0
O549 O 0.372 0.63584 0.51202 0.0
O550 O 0.35324 0.6189 0.47407 0.0
O551 O 0.35873 0.62801 0.31808 0.0
O552 O 0.34999 0.62352 0.39305 0.0
O553 O 0.36754 0.65289 0.37719 0.0
O554 O 0.39176 0.64897 0.33101 0.0
O555 O 0.37373 0.628 0.24903 0.0
O556 O 0.40122 0.61941 0.24606 0.0
O557 O 0.40159 0.62621 0.42559 0.0
O558 O 0.40784 0.63535 0.3528 0.0
C559 C 0.3807 0.59646 0.40221 0.0
C560 C 0.3464 0.62539 0.34914 0.0
C561 C 0.35091 0.61804 0.55654 0.0
C562 C 0.35098 0.61579 0.63952 0.0
C563 C 0.32914 0.59922 0.59448 0.0
C564 C 0.33632 0.60617 0.55476 0.0
C565 C 0.33645 0.60388 0.63652 0.0
C566 C 0.35808 0.62302 0.59928 0.0
C567 C 0.35898 0.62431 0.51364 0.0
C568 C 0.38619 0.70714 0.47647 0.0
C569 C 0.36819 0.70905 0.46366 0.0
H570 H 0.41973 0.69868 0.50469 0.0
C571 C 0.38002 0.65947 0.35109 0.0
C572 C 0.41287 0.63224 0.39493 0.0
C573 C 0.39144 0.63995 0.19053 0.0
C574 C 0.39169 0.65032 0.11172 0.0
C575 C 0.40254 0.66959 0.17309 0.0
C576 C 0.39872 0.65633 0.20483 0.0
C577 C 0.39915 0.66663 0.12696 0.0
C578 C 0.38785 0.63703 0.14417 0.0
C579 C 0.38764 0.6257 0.2234 0.0
H580 H 0.31792 0.59006 0.59266 0.0
H581 H 0.33052 0.60209 0.52256 0.0
H582 H 0.33063 0.59827 0.66687 0.0
H583 H 0.36942 0.63205 0.60124 0.0
H584 H 0.40828 0.68219 0.18425 0.0
H585 H 0.40152 0.65881 0.24041 0.0
H586 H 0.40265 0.67706 0.10322 0.0
H587 H 0.38191 0.62443 0.13361 0.0
C588 C 0.60268 0.08542 0.70713 0.0
C589 C 0.62331 0.06032 0.71209 0.0
C590 C 0.62013 0.07886 0.70826 0.0
C591 C 0.60876 0.04847 0.71489 0.0
C592 C 0.58805 0.07356 0.70985 0.0
C593 C 0.59119 0.05507 0.71377 0.0
N594 N 0.60002 0.10336 0.70259 0.0
C595 C 0.58315 0.11038 0.70212 0.0
C596 C 0.57068 0.08063 0.7083 0.0
C597 C 0.56823 0.09913 0.70457 0.0
Gd598 Gd 0.64328 0.13849 0.57742 0.0
Gd599 Gd 0.62592 0.12088 0.69776 0.0
N600 N 0.63396 0.09059 0.70368 0.0
C601 C 0.64105 0.05422 0.71257 0.0
C602 C 0.65127 0.0848 0.70574 0.0
C603 C 0.65507 0.06653 0.70971 0.0
H604 H 0.66218 0.09418 0.7044 0.0
H605 H 0.66882 0.06195 0.7107 0.0
H606 H 0.60252 0.15564 0.54794 0.0
H607 H 0.58119 0.1247 0.70049 0.0
H608 H 0.58832 0.18509 0.54116 0.0
H609 H 0.64405 0.04006 0.71542 0.0
H610 H 0.61095 0.03417 0.71775 0.0
H611 H 0.68709 0.14623 0.58944 0.0
H612 H 0.55909 0.07195 0.71021 0.0
H613 H 0.55486 0.10473 0.7038 0.0
H614 H 0.63683 0.22654 0.55869 0.0
H615 H 0.58011 0.04575 0.71584 0.0
H616 H 0.69573 0.20285 0.58293 0.0
H617 H 0.70764 0.17214 0.59223 0.0
N618 N 0.66382 0.16218 0.57968 0.0
C619 C 0.65701 0.1789 0.57349 0.0
C620 C 0.68175 0.15959 0.58584 0.0
C621 C 0.68666 0.19154 0.58171 0.0
C622 C 0.69343 0.17423 0.58713 0.0
C623 C 0.66827 0.19406 0.57473 0.0
H624 H 0.66925 0.22303 0.57062 0.0
N625 N 0.62807 0.16596 0.56718 0.0
C626 C 0.63863 0.18085 0.56748 0.0
C627 C 0.61277 0.19959 0.55363 0.0
C628 C 0.63119 0.19808 0.5615 0.0
C629 C 0.61042 0.16734 0.55518 0.0
C630 C 0.60241 0.18413 0.54961 0.0
O631 O 0.62464 0.1015 0.63745 0.0
O632 O 0.64779 0.1091 0.59004 0.0
O633 O 0.63301 0.13615 0.5085 0.0
O634 O 0.6615 0.1368 0.52029 0.0
O635 O 0.65535 0.1275 0.69207 0.0
O636 O 0.6647 0.12357 0.61763 0.0
O637 O 0.64759 0.15544 0.64066 0.0
O638 O 0.62252 0.15051 0.68281 0.0
O639 O 0.64031 0.12334 0.76172 0.0
O640 O 0.61137 0.12372 0.76095 0.0
O641 O 0.6142 0.12889 0.58462 0.0
O642 O 0.60715 0.13786 0.65692 0.0
C643 C 0.63628 0.09742 0.60563 0.0
C644 C 0.66798 0.12496 0.66168 0.0
C645 C 0.65102 0.12102 0.45565 0.0
C646 C 0.64976 0.11168 0.37608 0.0
C647 C 0.65713 0.09014 0.43517 0.0
C648 C 0.65558 0.10352 0.4681 0.0
C649 C 0.65422 0.09414 0.38946 0.0
C650 C 0.64816 0.12507 0.40967 0.0
C651 C 0.64877 0.13507 0.49028 0.0
C652 C 0.64235 0.21322 0.56292 0.0
C653 C 0.66083 0.21121 0.56953 0.0
H654 H 0.60654 0.21258 0.54902 0.0
C655 C 0.63517 0.16123 0.66822 0.0
C656 C 0.6023 0.13334 0.61569 0.0
C657 C 0.62603 0.14001 0.81895 0.0
C658 C 0.62865 0.14987 0.89796 0.0
C659 C 0.62435 0.17163 0.83742 0.0
C660 C 0.62406 0.15787 0.80524 0.0
C661 C 0.62658 0.16771 0.88343 0.0
C662 C 0.62837 0.13607 0.86516 0.0
C663 C 0.62582 0.12535 0.78554 0.0
H664 H 0.66064 0.07663 0.4451 0.0
H665 H 0.65795 0.10031 0.50325 0.0
H666 H 0.65575 0.08357 0.36451 0.0
H667 H 0.64445 0.1386 0.40018 0.0
H668 H 0.62275 0.18539 0.82669 0.0
H669 H 0.62228 0.16115 0.76979 0.0
H670 H 0.62643 0.17865 0.90765 0.0
H671 H 0.63018 0.12225 0.87538 0.0
C672 C 0.92701 0.41192 0.81843 0.0
C673 C 0.94943 0.38841 0.81412 0.0
C674 C 0.93139 0.3938 0.81801 0.0
C675 C 0.96294 0.40142 0.81109 0.0
C676 C 0.94055 0.425 0.81535 0.0
C677 C 0.95852 0.41966 0.81169 0.0
N678 N 0.90956 0.41673 0.82323 0.0
C679 C 0.90466 0.43434 0.82389 0.0
C680 C 0.93564 0.4431 0.81655 0.0
C681 C 0.91761 0.44778 0.82069 0.0
Gd682 Gd 0.87179 0.37746 0.95093 0.0
Gd683 Gd 0.8889 0.39328 0.82919 0.0
N684 N 0.91806 0.38149 0.82254 0.0
C685 C 0.95337 0.3701 0.81354 0.0
C686 C 0.92177 0.36364 0.81898 0.0
C687 C 0.93945 0.35767 0.81536 0.0
H688 H 0.91122 0.35392 0.81764 0.0
H689 H 0.9423 0.34347 0.81338 0.0
H690 H 0.847 0.4152 0.95659 0.0
H691 H 0.89072 0.43806 0.82631 0.0
H692 H 0.81521 0.42353 0.96231 0.0
H693 H 0.96706 0.36542 0.81082 0.0
H694 H 0.97687 0.39751 0.80838 0.0
H695 H 0.87321 0.33261 0.95469 0.0
H696 H 0.94565 0.45356 0.81427 0.0
H697 H 0.91368 0.46173 0.82134 0.0
H698 H 0.78449 0.36723 0.97175 0.0
H699 H 0.96911 0.42953 0.80945 0.0
H700 H 0.81943 0.31341 0.96615 0.0
H701 H 0.8519 0.3074 0.95939 0.0
N702 N 0.85293 0.35256 0.95657 0.0
C703 C 0.83519 0.35621 0.96133 0.0
C704 C 0.85904 0.33534 0.9565 0.0
C705 C 0.82871 0.32451 0.9637 0.0
C706 C 0.84702 0.32106 0.95974 0.0
C707 C 0.82258 0.34224 0.9647 0.0
H708 H 0.79442 0.33582 0.97113 0.0
N709 N 0.84199 0.3872 0.95646 0.0
C710 C 0.82956 0.37401 0.96168 0.0
C711 C 0.80605 0.3962 0.96516 0.0
C712 C 0.81122 0.37818 0.96543 0.0
C713 C 0.83709 0.40479 0.95792 0.0
C714 C 0.81906 0.40955 0.96174 0.0
O715 O 0.90719 0.39742 0.89006 0.0
O716 O 0.90144 0.37366 0.93683 0.0
O717 O 0.87348 0.39171 0.01503 0.0
O718 O 0.87515 0.36279 0.01393 0.0
O719 O 0.88008 0.36409 0.83885 0.0
O720 O 0.88847 0.35785 0.91231 0.0
O721 O 0.85261 0.37505 0.89027 0.0
O722 O 0.85981 0.39843 0.84353 0.0
O723 O 0.88733 0.37964 0.76428 0.0
O724 O 0.88505 0.40845 0.76695 0.0
O725 O 0.87998 0.40641 0.94312 0.0
O726 O 0.87404 0.41474 0.86892 0.0
C727 C 0.91247 0.38568 0.92029 0.0
C728 C 0.88432 0.3526 0.87113 0.0
C729 C 0.89095 0.37807 0.0717 0.0
C730 C 0.90093 0.38044 0.15055 0.0
C731 C 0.92267 0.37939 0.08941 0.0
C732 C 0.90882 0.3782 0.05749 0.0
C733 C 0.9188 0.38052 0.13564 0.0
C734 C 0.88706 0.37917 0.11809 0.0
C735 C 0.87619 0.37724 0.03864 0.0
C736 C 0.79864 0.36428 0.96894 0.0
C737 C 0.8043 0.34638 0.96857 0.0
H738 H 0.79208 0.39995 0.96794 0.0
C739 C 0.84826 0.38672 0.85867 0.0
C740 C 0.87694 0.41869 0.91208 0.0
C741 C 0.87003 0.39329 0.70741 0.0
C742 C 0.86058 0.39208 0.628 0.0
C743 C 0.83861 0.3897 0.68828 0.0
C744 C 0.85224 0.39105 0.72076 0.0
C745 C 0.84272 0.39022 0.64214 0.0
C746 C 0.87418 0.39377 0.66111 0.0
C747 C 0.8845 0.39424 0.74131 0.0
H748 H 0.93645 0.37956 0.07826 0.0
H749 H 0.91206 0.37746 0.02186 0.0
H750 H 0.92978 0.38172 0.15963 0.0
H751 H 0.8732 0.37889 0.12882 0.0
H752 H 0.82487 0.38796 0.69888 0.0
H753 H 0.84901 0.3901 0.75622 0.0
H754 H 0.83197 0.38868 0.61757 0.0
H755 H 0.88801 0.39537 0.65093 0.0
C756 C 0.42597 0.10656 0.69422 0.0
C757 C 0.44652 0.13149 0.70336 0.0
C758 C 0.42893 0.1249 0.69794 0.0
C759 C 0.46103 0.11951 0.7038 0.0
C760 C 0.44049 0.09448 0.69491 0.0
C761 C 0.45802 0.10106 0.69957 0.0
N762 N 0.4089 0.10059 0.68835 0.0
C763 C 0.40534 0.08272 0.68454 0.0
C764 C 0.43696 0.07614 0.69036 0.0
C765 C 0.4193 0.07024 0.68536 0.0
Gd766 Gd 0.36889 0.13859 0.56372 0.0
Gd767 Gd 0.38642 0.12248 0.68562 0.0
N768 N 0.41464 0.13625 0.69591 0.0
C769 C 0.44903 0.14995 0.70847 0.0
C770 C 0.41698 0.15409 0.70453 0.0
C771 C 0.43417 0.16125 0.70984 0.0
H772 H 0.40574 0.16287 0.709 0.0
H773 H 0.43591 0.17546 0.71575 0.0
H774 H 0.34607 0.09951 0.55218 0.0
H775 H 0.39171 0.07805 0.68126 0.0
H776 H 0.3148 0.08953 0.54802 0.0
H777 H 0.46233 0.15555 0.71263 0.0
H778 H 0.47463 0.12437 0.70746 0.0
H779 H 0.36762 0.18337 0.56377 0.0
H780 H 0.44775 0.06643 0.69073 0.0
H781 H 0.41644 0.05608 0.68214 0.0
H782 H 0.28079 0.14404 0.54823 0.0
H783 H 0.46935 0.09199 0.69988 0.0
H784 H 0.31268 0.19966 0.55712 0.0
H785 H 0.34485 0.2074 0.56265 0.0
N786 N 0.34849 0.16237 0.56086 0.0
C787 C 0.33092 0.15778 0.55655 0.0
C788 C 0.3536 0.17989 0.56237 0.0
C789 C 0.32261 0.18907 0.55788 0.0
C790 C 0.34075 0.1935 0.56118 0.0
C791 C 0.31749 0.17105 0.55542 0.0
H792 H 0.28891 0.17594 0.55155 0.0
N793 N 0.33958 0.12716 0.55773 0.0
C794 C 0.32634 0.1397 0.5548 0.0
C795 C 0.30406 0.11629 0.54996 0.0
C796 C 0.3082 0.13456 0.55166 0.0
C797 C 0.33564 0.10938 0.55377 0.0
C798 C 0.31785 0.10367 0.55052 0.0
O799 O 0.40433 0.11828 0.62478 0.0
O800 O 0.39871 0.14219 0.57817 0.0
O801 O 0.3704 0.12569 0.49773 0.0
O802 O 0.37157 0.15455 0.50266 0.0
O803 O 0.37782 0.15184 0.67624 0.0
O804 O 0.38568 0.15825 0.60262 0.0
O805 O 0.35055 0.14164 0.62514 0.0
O806 O 0.35733 0.11747 0.66952 0.0
O807 O 0.38306 0.13434 0.75237 0.0
O808 O 0.38384 0.1056 0.74521 0.0
O809 O 0.37742 0.10966 0.57067 0.0
O810 O 0.37178 0.10102 0.64466 0.0
C811 C 0.40976 0.13029 0.59572 0.0
C812 C 0.38199 0.16341 0.64409 0.0
C813 C 0.38713 0.14079 0.44251 0.0
C814 C 0.3966 0.13844 0.36347 0.0
C815 C 0.41865 0.14257 0.42395 0.0
C816 C 0.40505 0.14272 0.45618 0.0
C817 C 0.4145 0.14046 0.37793 0.0
C818 C 0.38297 0.13862 0.39628 0.0
C819 C 0.37266 0.14067 0.47601 0.0
C820 C 0.2948 0.14776 0.55049 0.0
C821 C 0.29942 0.16593 0.55235 0.0
H822 H 0.29029 0.1118 0.54756 0.0
C823 C 0.34597 0.12961 0.65536 0.0
C824 C 0.37474 0.09723 0.60151 0.0
C825 C 0.36711 0.11757 0.80596 0.0
C826 C 0.35715 0.11893 0.88473 0.0
C827 C 0.33569 0.11372 0.82349 0.0
C828 C 0.34944 0.11451 0.79174 0.0
C829 C 0.33947 0.11592 0.86968 0.0
C830 C 0.37093 0.11976 0.85236 0.0
C831 C 0.38167 0.11902 0.77287 0.0
H832 H 0.43246 0.14412 0.43465 0.0
H833 H 0.40851 0.14434 0.49166 0.0
H834 H 0.42531 0.14065 0.35365 0.0
H835 H 0.36911 0.13682 0.38606 0.0
H836 H 0.32205 0.11136 0.81227 0.0
H837 H 0.34634 0.11277 0.75617 0.0
H838 H 0.32859 0.11501 0.89365 0.0
H839 H 0.38459 0.12238 0.86311 0.0
C840 C 0.58958 0.60087 0.31697 0.0
C841 C 0.56799 0.62503 0.30976 0.0
C842 C 0.58584 0.6191 0.31479 0.0
C843 C 0.55401 0.61246 0.30794 0.0
C844 C 0.57558 0.58821 0.31492 0.0
C845 C 0.55779 0.59411 0.31056 0.0
N846 N 0.60687 0.59554 0.32241 0.0
C847 C 0.61117 0.5778 0.32442 0.0
C848 C 0.57987 0.56999 0.31773 0.0
C849 C 0.59775 0.56477 0.32229 0.0
Gd850 Gd 0.64612 0.63334 0.45061 0.0
Gd851 Gd 0.62837 0.61833 0.32754 0.0
N852 N 0.59962 0.63101 0.31821 0.0
C853 C 0.56471 0.64342 0.30657 0.0
C854 C 0.59653 0.64886 0.31196 0.0
C855 C 0.57907 0.65536 0.30698 0.0
H856 H 0.6074 0.65821 0.30939 0.0
H857 H 0.57672 0.66957 0.30287 0.0
H858 H 0.66728 0.59324 0.46274 0.0
H859 H 0.62499 0.57365 0.32719 0.0
H860 H 0.69804 0.58179 0.46444 0.0
H861 H 0.55119 0.64851 0.3028 0.0
H862 H 0.54022 0.6168 0.30449 0.0
H863 H 0.64951 0.6779 0.45287 0.0
H864 H 0.56949 0.55986 0.31628 0.0
H865 H 0.60121 0.55071 0.32409 0.0
H866 H 0.73451 0.63461 0.46219 0.0
H867 H 0.54685 0.58459 0.30918 0.0
H868 H 0.70513 0.69167 0.45741 0.0
H869 H 0.67331 0.70089 0.45401 0.0
N870 N 0.66767 0.65607 0.45385 0.0
C871 C 0.68503 0.65067 0.45711 0.0
C872 C 0.66335 0.6738 0.45339 0.0
C873 C 0.69474 0.68156 0.4567 0.0
C874 C 0.67679 0.68682 0.45459 0.0
C875 C 0.69906 0.6633 0.45807 0.0
H876 H 0.72784 0.66686 0.46046 0.0
N877 N 0.67493 0.6205 0.45537 0.0
C878 C 0.68877 0.6324 0.45777 0.0
C879 C 0.70999 0.60799 0.46127 0.0
C880 C 0.70668 0.62642 0.45992 0.0
C881 C 0.6781 0.60259 0.45963 0.0
C882 C 0.69563 0.59605 0.46178 0.0
O883 O 0.61022 0.61413 0.38779 0.0
O884 O 0.61634 0.63732 0.4369 0.0
O885 O 0.64477 0.62061 0.51655 0.0
O886 O 0.64362 0.64944 0.51181 0.0
O887 O 0.63604 0.64784 0.33887 0.0
O888 O 0.62947 0.65371 0.41394 0.0
O889 O 0.6637 0.63783 0.38869 0.0
O890 O 0.6575 0.61358 0.34386 0.0
O891 O 0.63203 0.63127 0.26248 0.0
O892 O 0.63108 0.60242 0.26601 0.0
O893 O 0.63692 0.60464 0.44129 0.0
O894 O 0.64344 0.59698 0.3671 0.0
C895 C 0.60505 0.62596 0.41789 0.0
C896 C 0.63225 0.65913 0.37222 0.0
C897 C 0.62804 0.63584 0.5718 0.0
C898 C 0.61858 0.63381 0.65079 0.0
C899 C 0.5965 0.63738 0.59029 0.0
C900 C 0.61011 0.63752 0.55808 0.0
C901 C 0.60066 0.63554 0.63632 0.0
C902 C 0.63222 0.63397 0.61803 0.0
C903 C 0.64253 0.63563 0.53837 0.0
C904 C 0.72068 0.63898 0.46076 0.0
C905 C 0.71689 0.65735 0.45985 0.0
H906 H 0.72356 0.60286 0.46293 0.0
C907 C 0.66858 0.626 0.35811 0.0
C908 C 0.63983 0.59259 0.40938 0.0
C909 C 0.64818 0.61524 0.20748 0.0
C910 C 0.6584 0.61666 0.12904 0.0
C911 C 0.67979 0.61235 0.19079 0.0
C912 C 0.66588 0.61278 0.22216 0.0
C913 C 0.67612 0.61428 0.14451 0.0
C914 C 0.64448 0.61717 0.16103 0.0
C915 C 0.63345 0.61627 0.24015 0.0
H916 H 0.58267 0.63873 0.57954 0.0
H917 H 0.60663 0.63892 0.52259 0.0
H918 H 0.58985 0.63571 0.66062 0.0
H919 H 0.64609 0.63236 0.62831 0.0
H920 H 0.69345 0.61046 0.20236 0.0
H921 H 0.66888 0.61122 0.25777 0.0
H922 H 0.68712 0.61365 0.1208 0.0
H923 H 0.63078 0.61932 0.14994 0.0
C924 C 0.15771 0.83561 0.06858 0.0
C925 C 0.13187 0.81606 0.06156 0.0
C926 C 0.13924 0.8334 0.06585 0.0
C927 C 0.14324 0.80106 0.06121 0.0
C928 C 0.16916 0.82059 0.06801 0.0
C929 C 0.16182 0.80332 0.0644 0.0
N930 N 0.16443 0.85244 0.07357 0.0
C931 C 0.18244 0.85526 0.07659 0.0
C932 C 0.18765 0.82336 0.07173 0.0
C933 C 0.19431 0.84078 0.07585 0.0
Gd934 Gd 0.12863 0.89353 0.19788 0.0
Gd935 Gd 0.14354 0.87584 0.07571 0.0
N936 N 0.1285 0.84816 0.0677 0.0
C937 C 0.1133 0.8143 0.05741 0.0
C938 C 0.11055 0.84653 0.0597 0.0
C939 C 0.10263 0.82962 0.05565 0.0
H940 H 0.10227 0.85811 0.05461 0.0
H941 H 0.08832 0.82845 0.05029 0.0
H942 H 0.16622 0.91845 0.20292 0.0
H943 H 0.18769 0.8687 0.07923 0.0
H944 H 0.17446 0.95028 0.21004 0.0
H945 H 0.10712 0.80122 0.05418 0.0
H946 H 0.13778 0.78765 0.05835 0.0
H947 H 0.08382 0.89192 0.20395 0.0
H948 H 0.19689 0.81217 0.07144 0.0
H949 H 0.2086 0.84306 0.07846 0.0
H950 H 0.11813 0.98078 0.22319 0.0
H951 H 0.1704 0.79161 0.06417 0.0
H952 H 0.06445 0.94563 0.21806 0.0
H953 H 0.05856 0.91314 0.21036 0.0
N954 N 0.10368 0.91229 0.20561 0.0
C955 C 0.10727 0.93005 0.21088 0.0
C956 C 0.0865 0.90612 0.2061 0.0
C957 C 0.07558 0.9364 0.21481 0.0
C958 C 0.07219 0.91807 0.21032 0.0
C959 C 0.09327 0.9426 0.21534 0.0
H960 H 0.08677 0.97073 0.22325 0.0
N961 N 0.13821 0.92338 0.2046 0.0
C962 C 0.12502 0.93574 0.2109 0.0
C963 C 0.14713 0.95933 0.21458 0.0
C964 C 0.12914 0.9541 0.21532 0.0
C965 C 0.15578 0.92833 0.20549 0.0
C966 C 0.1605 0.94637 0.20997 0.0
O967 O 0.14827 0.85836 0.13742 0.0
O968 O 0.12406 0.86407 0.18215 0.0
O969 O 0.14353 0.89053 0.2608 0.0
O970 O 0.11459 0.89079 0.26176 0.0
O971 O 0.11479 0.88616 0.08573 0.0
O972 O 0.10853 0.87741 0.15847 0.0
O973 O 0.12693 0.91315 0.13849 0.0
O974 O 0.14927 0.90502 0.0892 0.0
O975 O 0.1315 0.87788 1.00873 0.0
O976 O 0.16023 0.87801 0.01575 0.0
O977 O 0.15772 0.88564 0.18945 0.0
O978 O 0.16584 0.89016 0.11446 0.0
C979 C 0.13627 0.85301 0.16652 0.0
C980 C 0.10321 0.88215 0.11783 0.0
C981 C 0.12943 0.87381 0.31771 0.0
C982 C 0.13148 0.8635 0.39609 0.0
C983 C 0.12871 0.84202 0.33405 0.0
C984 C 0.12827 0.856 0.30274 0.0
C985 C 0.1303 0.8457 0.38042 0.0
C986 C 0.13105 0.87751 0.36423 0.0
C987 C 0.12922 0.88869 0.28534 0.0
C988 C 0.11522 0.96662 0.21986 0.0
C989 C 0.09735 0.96089 0.21986 0.0
H990 H 0.15085 0.97331 0.21781 0.0
C991 C 0.13837 0.91704 0.10618 0.0
C992 C 0.16989 0.888 0.15785 0.0
C993 C 0.14761 0.89376 0.95402 0.0
C994 C 0.14646 0.90315 0.87478 0.0
C995 C 0.1492 0.9253 0.93527 0.0
C996 C 0.14894 0.91169 0.96754 0.0
C997 C 0.14797 0.9211 0.88915 0.0
C998 C 0.14636 0.88951 0.90769 0.0
C999 C 0.14672 0.87944 0.98797 0.0
H1000 H 0.12777 0.82829 0.32234 0.0
H1001 H 0.12704 0.8529 0.267 0.0
H1002 H 0.13036 0.83462 0.40402 0.0
H1003 H 0.13223 0.89131 0.37547 0.0
H1004 H 0.15028 0.93915 0.94603 0.0
H1005 H 0.14962 0.91506 1.00303 0.0
H1006 H 0.14833 0.9319 0.86474 0.0
H1007 H 0.14492 0.87562 0.89742 0.0
C1008 C 0.92383 0.60497 0.1959 0.0
C1009 C 0.94533 0.6292 0.20325 0.0
C1010 C 0.92749 0.62321 0.19845 0.0
C1011 C 0.95937 0.61668 0.20464 0.0
C1012 C 0.93789 0.59236 0.19748 0.0
C1013 C 0.95566 0.59832 0.2018 0.0
N1014 N 0.90656 0.59959 0.1904 0.0
C1015 C 0.90234 0.58184 0.18767 0.0
C1016 C 0.93368 0.57413 0.19413 0.0
C1017 C 0.91582 0.56885 0.18938 0.0
Gd1018 Gd 0.86712 0.6384 0.06437 0.0
Gd1019 Gd 0.88493 0.62229 0.18625 0.0
N1020 N 0.91365 0.63507 0.19558 0.0
C1021 C 0.94855 0.64761 0.20666 0.0
C1022 C 0.91668 0.65292 0.20239 0.0
C1023 C 0.93413 0.65948 0.20698 0.0
H1024 H 0.90579 0.66219 0.20584 0.0
H1025 H 0.93643 0.6737 0.21147 0.0
H1026 H 0.84506 0.59887 0.05185 0.0
H1027 H 0.88854 0.57765 0.18467 0.0
H1028 H 0.814 0.58826 0.04852 0.0
H1029 H 0.96206 0.65274 0.2102 0.0
H1030 H 0.97315 0.62107 0.20793 0.0
H1031 H 0.86491 0.68311 0.06557 0.0
H1032 H 0.9441 0.56403 0.19522 0.0
H1033 H 0.91242 0.55479 0.18707 0.0
H1034 H 0.77888 0.64204 0.05107 0.0
H1035 H 0.96663 0.58883 0.20284 0.0
H1036 H 0.80964 0.69828 0.06006 0.0
H1037 H 0.84165 0.70667 0.06513 0.0
N1038 N 0.84621 0.66173 0.06244 0.0
C1039 C 0.82874 0.65679 0.0584 0.0
C1040 C 0.85097 0.67935 0.06425 0.0
C1041 C 0.81979 0.6879 0.06045 0.0
C1042 C 0.83784 0.6927 0.06349 0.0
C1043 C 0.81503 0.66978 0.0578 0.0
H1044 H 0.78635 0.67409 0.05471 0.0
N1045 N 0.83804 0.62636 0.05876 0.0
C1046 C 0.82453 0.63862 0.0565 0.0
C1047 C 0.80271 0.61478 0.05164 0.0
C1048 C 0.80649 0.63312 0.05368 0.0
C1049 C 0.83445 0.60852 0.05429 0.0
C1050 C 0.81677 0.60245 0.05141 0.0
O1051 O 0.90296 0.61834 0.12566 0.0
O1052 O 0.89694 0.64196 0.07825 0.0
O1053 O 0.86832 0.62584 0.99794 0.0
O1054 O 0.86973 0.65465 1.00377 0.0
O1055 O 0.87682 0.65176 0.17685 0.0
O1056 O 0.88388 0.6583 0.10264 0.0
O1057 O 0.84925 0.64175 0.12644 0.0
O1058 O 0.85588 0.6173 0.16983 0.0
O1059 O 0.88147 0.63486 0.25214 0.0
O1060 O 0.88222 0.60604 0.24687 0.0
O1061 O 0.87605 0.6096 0.07131 0.0
O1062 O 0.87013 0.60105 0.14514 0.0
C1063 C 0.90811 0.63019 0.09583 0.0
C1064 C 0.88075 0.66335 0.14454 0.0
C1065 C 0.88517 0.64103 0.94319 0.0
C1066 C 0.89469 0.6386 0.86421 0.0
C1067 C 0.91671 0.64268 0.92474 0.0
C1068 C 0.90309 0.64291 0.95691 0.0
C1069 C 0.91259 0.64056 0.87873 0.0
C1070 C 0.88103 0.63886 0.89696 0.0
C1071 C 0.87069 0.64089 0.97668 0.0
C1072 C 0.79281 0.64604 0.05307 0.0
C1073 C 0.79706 0.6643 0.0551 0.0
H1074 H 0.78903 0.61001 0.04949 0.0
C1075 C 0.84458 0.62959 0.15617 0.0
C1076 C 0.87341 0.59719 0.10221 0.0
C1077 C 0.86539 0.61862 0.30657 0.0
C1078 C 0.85538 0.62002 0.38528 0.0
C1079 C 0.83387 0.61547 0.32382 0.0
C1080 C 0.84767 0.61603 0.29218 0.0
C1081 C 0.83765 0.61746 0.37007 0.0
C1082 C 0.86921 0.62061 0.35302 0.0
C1083 C 0.88002 0.61974 0.27361 0.0
H1084 H 0.93052 0.64419 0.9355 0.0
H1085 H 0.90655 0.64454 0.99238 0.0
H1086 H 0.92341 0.64068 0.85447 0.0
H1087 H 0.86717 0.63709 0.88667 0.0
H1088 H 0.82019 0.61346 0.31247 0.0
H1089 H 0.84456 0.61445 0.25657 0.0
H1090 H 0.82673 0.61674 0.39395 0.0
H1091 H 0.88292 0.62288 0.36389 0.0
C1092 C 0.09043 0.10366 0.81843 0.0
C1093 C 0.06923 0.12813 0.81081 0.0
C1094 C 0.08699 0.12194 0.81586 0.0
C1095 C 0.05505 0.11578 0.80951 0.0
C1096 C 0.07623 0.09123 0.81685 0.0
C1097 C 0.05854 0.09739 0.81256 0.0
N1098 N 0.10765 0.09809 0.82386 0.0
C1099 C 0.11168 0.08028 0.82624 0.0
C1100 C 0.08024 0.07295 0.82006 0.0
C1101 C 0.09805 0.06746 0.82454 0.0
Gd1102 Gd 0.14729 0.1358 0.95109 0.0
Gd1103 Gd 0.12953 0.12055 0.82844 0.0
N1104 N 0.10096 0.13364 0.81878 0.0
C1105 C 0.06623 0.14655 0.80702 0.0
C1106 C 0.09816 0.15149 0.81172 0.0
C1107 C 0.08079 0.15824 0.80674 0.0
H1108 H 0.10917 0.16062 0.80841 0.0
H1109 H 0.07867 0.17246 0.80203 0.0
H1110 H 0.16893 0.09593 0.96158 0.0
H1111 H 0.12543 0.07592 0.82899 0.0
H1112 H 0.19986 0.08492 0.96387 0.0
H1113 H 0.0528 0.15184 0.80321 0.0
H1114 H 0.04132 0.12032 0.80609 0.0
H1115 H 0.15005 0.18045 0.95266 0.0
H1116 H 0.06971 0.06298 0.81896 0.0
H1117 H 0.10128 0.05336 0.82665 0.0
H1118 H 0.2356 0.13826 0.96386 0.0
H1119 H 0.04745 0.08804 0.81156 0.0
H1120 H 0.20549 0.19492 0.95859 0.0
H1121 H 0.17357 0.20373 0.95431 0.0
N1122 N 0.16849 0.15884 0.95435 0.0
C1123 C 0.18592 0.15367 0.95795 0.0
C1124 C 0.16394 0.17652 0.95362 0.0
C1125 C 0.19522 0.18467 0.95768 0.0
C1126 C 0.17722 0.1897 0.95507 0.0
C1127 C 0.19977 0.16648 0.95919 0.0
H1128 H 0.2285 0.17042 0.96223 0.0
N1129 N 0.17624 0.12335 0.95579 0.0
C1130 C 0.18991 0.13543 0.95865 0.0
C1131 C 0.21145 0.1113 0.96195 0.0
C1132 C 0.20789 0.1297 0.96098 0.0
C1133 C 0.17964 0.10546 0.95937 0.0
C1134 C 0.19726 0.09915 0.96172 0.0
O1135 O 0.11139 0.11646 0.88879 0.0
O1136 O 0.1175 0.13981 0.93736 0.0
O1137 O 0.14598 0.123 0.01694 0.0
O1138 O 0.14482 0.15184 0.01241 0.0
O1139 O 0.13747 0.15005 0.83939 0.0
O1140 O 0.1306 0.15605 0.91416 0.0
O1141 O 0.16506 0.13987 0.88921 0.0
O1142 O 0.15866 0.11562 0.84453 0.0
O1143 O 0.13315 0.13316 0.76296 0.0
O1144 O 0.13216 0.10434 0.76736 0.0
O1145 O 0.13811 0.10707 0.94255 0.0
O1146 O 0.14428 0.09903 0.86838 0.0
C1147 C 0.10622 0.12836 0.91867 0.0
C1148 C 0.13352 0.16141 0.87248 0.0
C1149 C 0.12926 0.13817 0.07234 0.0
C1150 C 0.11978 0.136 0.1513 0.0
C1151 C 0.09772 0.13977 0.09082 0.0
C1152 C 0.11133 0.13993 0.05863 0.0
C1153 C 0.10186 0.13783 0.13684 0.0
C1154 C 0.13343 0.13619 0.11854 0.0
C1155 C 0.14374 0.13799 0.03887 0.0
C1156 C 0.22172 0.14244 0.96223 0.0
C1157 C 0.21767 0.16076 0.96136 0.0
H1158 H 0.22508 0.10636 0.96372 0.0
C1159 C 0.16984 0.12798 0.85865 0.0
C1160 C 0.14076 0.09485 0.91089 0.0
C1161 C 0.14918 0.11688 0.70824 0.0
C1162 C 0.1593 0.11826 0.6297 0.0
C1163 C 0.18073 0.11372 0.69125 0.0
C1164 C 0.16688 0.11426 0.72275 0.0
C1165 C 0.17702 0.11571 0.64501 0.0
C1166 C 0.14543 0.11886 0.66182 0.0
C1167 C 0.13451 0.11806 0.74106 0.0
H1168 H 0.0839 0.14118 0.08009 0.0
H1169 H 0.10786 0.14141 0.02316 0.0
H1170 H 0.09105 0.138 0.16112 0.0
H1171 H 0.14729 0.13452 0.12881 0.0
H1172 H 0.19439 0.1117 0.70269 0.0
H1173 H 0.16992 0.11267 0.75835 0.0
H1174 H 0.18798 0.11499 0.62121 0.0
H1175 H 0.13174 0.12115 0.65086 0.0
C1176 C 0.66086 0.3377 0.56901 0.0
C1177 C 0.6369 0.31633 0.55559 0.0
C1178 C 0.64289 0.33409 0.56167 0.0
C1179 C 0.64917 0.30215 0.55954 0.0
C1180 C 0.67338 0.32355 0.57034 0.0
C1181 C 0.66737 0.30575 0.56699 0.0
N1182 N 0.66624 0.35507 0.57147 0.0
C1183 C 0.68406 0.35917 0.56945 0.0
C1184 C 0.69161 0.32773 0.57309 0.0
C1185 C 0.69698 0.34563 0.5716 0.0
Gd1186 Gd 0.63485 0.39333 0.7019 0.0
Gd1187 Gd 0.64311 0.37669 0.57243 0.0
N1188 N 0.63131 0.34805 0.55897 0.0
C1189 C 0.61882 0.31341 0.54505 0.0
C1190 C 0.61389 0.34542 0.54621 0.0
C1191 C 0.60732 0.32804 0.53968 0.0
H1192 H 0.60501 0.35675 0.54223 0.0
H1193 H 0.5934 0.32594 0.53069 0.0
H1194 H 0.6753 0.3903 0.75352 0.0
H1195 H 0.68844 0.37288 0.56606 0.0
H1196 H 0.70052 0.41035 0.77294 0.0
H1197 H 0.61369 0.29996 0.54021 0.0
H1198 H 0.64478 0.28838 0.55585 0.0
H1199 H 0.59839 0.41881 0.69785 0.0
H1200 H 0.70165 0.31726 0.57424 0.0
H1201 H 0.71107 0.349 0.57147 0.0
H1202 H 0.67714 0.46931 0.74578 0.0
H1203 H 0.67676 0.2947 0.56864 0.0
H1204 H 0.61442 0.47377 0.71117 0.0
H1205 H 0.59055 0.4511 0.70022 0.0
N1206 N 0.62625 0.42347 0.70649 0.0
C1207 C 0.63935 0.43556 0.71547 0.0
C1208 C 0.60877 0.42871 0.70297 0.0
C1209 C 0.61787 0.45968 0.7103 0.0
C1210 C 0.60434 0.44692 0.70422 0.0
C1211 C 0.6356 0.45405 0.71686 0.0
H1212 H 0.64697 0.48048 0.72695 0.0
N1213 N 0.65883 0.41124 0.72791 0.0
C1214 C 0.65627 0.42923 0.72592 0.0
C1215 C 0.68636 0.43433 0.75364 0.0
C1216 C 0.67001 0.44129 0.73829 0.0
C1217 C 0.67405 0.40448 0.74724 0.0
C1218 C 0.68824 0.41584 0.7591 0.0
O1219 O 0.62782 0.36026 0.62387 0.0
O1220 O 0.64323 0.36456 0.68979 0.0
O1221 O 0.63494 0.39441 0.77649 0.0
O1222 O 0.61285 0.38187 0.7391 0.0
O1223 O 0.61465 0.38676 0.58446 0.0
O1224 O 0.60951 0.3872 0.66274 0.0
O1225 O 0.63064 0.41207 0.64171 0.0
O1226 O 0.65313 0.40384 0.59426 0.0
O1227 O 0.63127 0.39097 0.51542 0.0
O1228 O 0.65297 0.37252 0.50411 0.0
O1229 O 0.66037 0.37838 0.68526 0.0
O1230 O 0.66699 0.38764 0.61303 0.0
C1231 C 0.63496 0.35387 0.66112 0.0
C1232 C 0.60393 0.38762 0.62011 0.0
C1233 C 0.61039 0.38163 0.82107 0.0
C1234 C 0.60973 0.37946 0.90379 0.0
C1235 C 0.58477 0.3683 0.85854 0.0
C1236 C 0.59346 0.37342 0.81899 0.0
C1237 C 0.59286 0.37119 0.90065 0.0
C1238 C 0.61841 0.38486 0.86379 0.0
C1239 C 0.61967 0.38607 0.77841 0.0
C1240 C 0.66669 0.45982 0.73696 0.0
C1241 C 0.6495 0.46619 0.72631 0.0
H1242 H 0.69727 0.44312 0.76338 0.0
C1243 C 0.64236 0.41613 0.61032 0.0
C1244 C 0.67207 0.38256 0.65397 0.0
C1245 C 0.65035 0.39663 0.45362 0.0
C1246 C 0.65449 0.4063 0.37523 0.0
C1247 C 0.67041 0.42122 0.43714 0.0
C1248 C 0.66254 0.40968 0.46836 0.0
C1249 C 0.66647 0.41955 0.39087 0.0
C1250 C 0.64631 0.39501 0.40723 0.0
C1251 C 0.64223 0.38416 0.4859 0.0
H1252 H 0.57175 0.36197 0.85653 0.0
H1253 H 0.58693 0.37082 0.78671 0.0
H1254 H 0.58586 0.36707 0.93094 0.0
H1255 H 0.63149 0.39109 0.86595 0.0
H1256 H 0.6798 0.43131 0.44875 0.0
H1257 H 0.66609 0.41074 0.50387 0.0
H1258 H 0.67317 0.42835 0.36732 0.0
H1259 H 0.63682 0.38488 0.39617 0.0
C1260 C 0.42898 0.90849 0.31921 0.0
C1261 C 0.44917 0.8832 0.31137 0.0
C1262 C 0.43168 0.89008 0.31615 0.0
C1263 C 0.46384 0.89497 0.3108 0.0
C1264 C 0.44367 0.92034 0.31851 0.0
C1265 C 0.46109 0.91348 0.31438 0.0
N1266 N 0.41201 0.91475 0.3245 0.0
C1267 C 0.40871 0.93268 0.32778 0.0
C1268 C 0.44041 0.93875 0.32254 0.0
C1269 C 0.42285 0.94494 0.32702 0.0
Gd1270 Gd 0.3722 0.87743 0.44806 0.0
Gd1271 Gd 0.38922 0.89322 0.32625 0.0
N1272 N 0.41724 0.87894 0.31814 0.0
C1273 C 0.45142 0.86468 0.30697 0.0
C1274 C 0.41932 0.86105 0.31005 0.0
C1275 C 0.4364 0.8536 0.30553 0.0
H1276 H 0.40794 0.85247 0.30519 0.0
H1277 H 0.43793 0.83934 0.30006 0.0
H1278 H 0.34621 0.91423 0.45317 0.0
H1279 H 0.39516 0.93757 0.3306 0.0
H1280 H 0.31418 0.92152 0.46072 0.0
H1281 H 0.46464 0.85887 0.30336 0.0
H1282 H 0.47736 0.88989 0.30752 0.0
H1283 H 0.37527 0.83266 0.4538 0.0
H1284 H 0.45134 0.94829 0.32217 0.0
H1285 H 0.4202 0.95915 0.32984 0.0
H1286 H 0.28551 0.86424 0.47375 0.0
H1287 H 0.47255 0.92238 0.314 0.0
H1288 H 0.32228 0.81164 0.46804 0.0
H1289 H 0.3549 0.80675 0.46021 0.0
N1290 N 0.35429 0.85189 0.45545 0.0
C1291 C 0.33647 0.85493 0.4608 0.0
C1292 C 0.36101 0.8349 0.45593 0.0
C1293 C 0.33114 0.82304 0.46472 0.0
C1294 C 0.34954 0.82022 0.46018 0.0
C1295 C 0.32439 0.84055 0.46532 0.0
H1296 H 0.29653 0.83318 0.4735 0.0
N1297 N 0.34213 0.88608 0.45473 0.0
C1298 C 0.33022 0.87251 0.46101 0.0
C1299 C 0.306 0.89391 0.46514 0.0
C1300 C 0.31179 0.87607 0.46566 0.0
C1301 C 0.33666 0.90351 0.4558 0.0
C1302 C 0.31851 0.90768 0.4605 0.0
O1303 O 0.40681 0.89801 0.38819 0.0
O1304 O 0.40177 0.87357 0.43273 0.0
O1305 O 0.37494 0.89237 0.51096 0.0
O1306 O 0.37548 0.86341 0.51203 0.0
O1307 O 0.37951 0.86425 0.33577 0.0
O1308 O 0.38873 0.85802 0.4084 0.0
O1309 O 0.35229 0.87582 0.38859 0.0
O1310 O 0.35998 0.89834 0.33929 0.0
O1311 O 0.38747 0.88126 0.25919 0.0
O1312 O 0.38639 0.90998 0.26634 0.0
O1313 O 0.37943 0.90661 0.44006 0.0
O1314 O 0.37455 0.9151 0.36528 0.0
C1315 C 0.41255 0.88598 0.41702 0.0
C1316 C 0.38393 0.85268 0.36777 0.0
C1317 C 0.39206 0.87869 0.5684 0.0
C1318 C 0.40229 0.88106 0.64708 0.0
C1319 C 0.42384 0.87884 0.58567 0.0
C1320 C 0.40989 0.87801 0.55396 0.0
C1321 C 0.42011 0.88035 0.63193 0.0
C1322 C 0.38831 0.88024 0.61481 0.0
C1323 C 0.37719 0.87809 0.5356 0.0
C1324 C 0.29973 0.86177 0.47023 0.0
C1325 C 0.30601 0.84407 0.47005 0.0
H1326 H 0.29194 0.8972 0.46856 0.0
C1327 C 0.34816 0.88727 0.35622 0.0
C1328 C 0.37662 0.9189 0.40887 0.0
C1329 C 0.37113 0.89696 0.20398 0.0
C1330 C 0.36189 0.89552 0.12439 0.0
C1331 C 0.33959 0.89751 0.18406 0.0
C1332 C 0.35315 0.89766 0.21684 0.0
C1333 C 0.34389 0.89645 0.1381 0.0
C1334 C 0.37548 0.89588 0.15781 0.0
C1335 C 0.38542 0.89647 0.23845 0.0
H1336 H 0.43759 0.87826 0.57438 0.0
H1337 H 0.41302 0.87686 0.5183 0.0
H1338 H 0.43118 0.88072 0.65584 0.0
H1339 H 0.37449 0.88105 0.62563 0.0
H1340 H 0.32571 0.89812 0.19431 0.0
H1341 H 0.34971 0.89815 0.25221 0.0
H1342 H 0.33312 0.89647 0.1133 0.0
H1343 H 0.38942 0.89488 0.14807 0.0
C1344 C 0.14846 0.62994 0.80714 0.0
C1345 C 0.14305 0.61346 0.82543 0.0
C1346 C 0.14642 0.63334 0.76077 0.0
C1347 C 0.12048 0.62032 0.65984 0.0
H1348 H 0.16049 0.63991 0.59327 0.0
C1349 C 0.11782 0.62854 0.46486 0.0
C1350 C 0.12606 0.64372 0.44609 0.0
C1351 C 0.12014 0.62438 0.51078 0.0
C1352 C 0.14907 0.63469 0.61135 0.0
H1353 H 0.13092 0.5878 0.80967 0.0
H1354 H 0.12716 0.59384 0.72862 0.0
H1355 H 0.16368 0.63401 0.67415 0.0
H1356 H 0.14358 0.66619 0.46128 0.0
H1357 H 0.14691 0.65945 0.54133 0.0
H1358 H 0.10567 0.6214 0.59757 0.0
C1359 C 0.13306 0.60406 0.75018 0.0
C1360 C 0.15095 0.63125 0.65773 0.0
C1361 C 0.13533 0.60056 0.79646 0.0
C1362 C 0.13676 0.65455 0.47451 0.0
C1363 C 0.13892 0.6505 0.52048 0.0
C1364 C 0.11851 0.62397 0.61355 0.0
C1365 C 0.13871 0.62044 0.73179 0.0
C1366 C 0.13668 0.62404 0.68248 0.0
C1367 C 0.13063 0.63537 0.53934 0.0
C1368 C 0.13278 0.63122 0.58861 0.0
H1369 H 0.15456 0.64008 0.82859 0.0
H1370 H 0.15076 0.64614 0.74761 0.0
H1371 H 0.10919 0.61493 0.67816 0.0
H1372 H 0.10933 0.61996 0.44429 0.0
H1373 H 0.11374 0.61246 0.52378 0.0
C1374 C 0.67721 0.89187 0.05387 0.0
C1375 C 0.66187 0.89577 0.07945 0.0
C1376 C 0.67597 0.88899 1.00707 0.0
C1377 C 0.64422 0.87698 0.91489 0.0
H1378 H 0.68154 0.89616 0.83826 0.0
C1379 C 0.64247 0.87019 0.71838 0.0
C1380 C 0.65865 0.8649 0.6982 0.0
C1381 C 0.64201 0.87527 0.76419 0.0
C1382 C 0.67107 0.89061 0.85919 0.0
H1383 H 0.63311 0.89966 0.07552 0.0
H1384 H 0.63094 0.89458 0.99376 0.0
H1385 H 0.68223 0.90222 0.91951 0.0
H1386 H 0.68712 0.86139 0.70993 0.0
H1387 H 0.68633 0.87012 0.78958 0.0
H1388 H 0.63315 0.86526 0.8544 0.0
C1389 C 0.64394 0.89359 0.01009 0.0
C1390 C 0.67148 0.89406 0.90583 0.0
C1391 C 0.64518 0.89648 0.057 0.0
C1392 C 0.67441 0.86521 0.72455 0.0
C1393 C 0.67397 0.8704 0.77013 0.0
C1394 C 0.6438 0.87355 0.86813 0.0
C1395 C 0.65935 0.88993 0.98448 0.0
C1396 C 0.65823 0.88706 0.93443 0.0
C1397 C 0.65776 0.87534 0.79068 0.0
C1398 C 0.65737 0.8801 0.83981 0.0
H1399 H 0.69023 0.89086 0.0701 0.0
H1400 H 0.68807 0.88582 0.98865 0.0
H1401 H 0.63387 0.87126 0.93591 0.0
H1402 H 0.63008 0.86998 0.69905 0.0
H1403 H 0.62932 0.87915 0.77886 0.0
C1404 C 0.36762 0.42521 0.29419 0.0
C1405 C 0.3646 0.41065 0.32341 0.0
C1406 C 0.37039 0.42241 0.24775 0.0
C1407 C 0.38576 0.38821 0.16705 0.0
H1408 H 0.36249 0.41755 0.07578 0.0
C1409 C 0.3939 0.37166 0.97824 0.0
C1410 C 0.39624 0.38597 0.94814 0.0
C1411 C 0.38824 0.37476 0.02264 0.0
C1412 C 0.36926 0.40935 0.10079 0.0
H1413 H 0.36161 0.38174 0.32587 0.0
H1414 H 0.36684 0.37691 0.24531 0.0
H1415 H 0.35657 0.42303 0.15611 0.0
H1416 H 0.39396 0.41467 0.94017 0.0
H1417 H 0.38452 0.42026 0.01833 0.0
H1418 H 0.39884 0.37482 0.11245 0.0
C1419 C 0.36721 0.39047 0.25849 0.0
C1420 C 0.36583 0.41249 0.14684 0.0
C1421 C 0.36429 0.39326 0.30478 0.0
C1422 C 0.39213 0.40341 0.96272 0.0
C1423 C 0.3867 0.40656 1.0075 0.0
C1424 C 0.38932 0.38519 0.12119 0.0
C1425 C 0.37036 0.405 0.22944 0.0
C1426 C 0.37399 0.40188 0.18046 0.0
C1427 C 0.38509 0.3923 0.0384 0.0
C1428 C 0.38105 0.39563 0.08731 0.0
H1429 H 0.36821 0.43876 0.30729 0.0
H1430 H 0.37298 0.43387 0.22633 0.0
H1431 H 0.3925 0.38001 0.19214 0.0
H1432 H 0.39681 0.35807 0.96762 0.0
H1433 H 0.38665 0.36336 0.04486 0.0
C1434 C 0.89216 0.12973 0.54703 0.0
C1435 C 0.88924 0.14676 0.56631 0.0
C1436 C 0.88913 0.12668 0.50071 0.0
C1437 C 0.88582 0.14946 0.39009 0.0
H1438 H 0.85977 0.10692 0.35309 0.0
C1439 C 0.86081 0.13782 0.20471 0.0
C1440 C 0.8597 0.1201 0.18881 0.0
C1441 C 0.86565 0.14139 0.24995 0.0
C1442 C 0.86736 0.11872 0.36254 0.0
H1443 H 0.88054 0.17387 0.5513 0.0
H1444 H 0.87564 0.16859 0.47049 0.0
H1445 H 0.86568 0.11236 0.43316 0.0
H1446 H 0.86384 0.09231 0.20667 0.0
H1447 H 0.87296 0.09844 0.28465 0.0
H1448 H 0.88772 0.15574 0.31943 0.0
C1449 C 0.88042 0.15764 0.49133 0.0
C1450 C 0.87067 0.12186 0.40864 0.0
C1451 C 0.88327 0.16066 0.53774 0.0
C1452 C 0.86439 0.10609 0.21824 0.0
C1453 C 0.86945 0.10964 0.26311 0.0
C1454 C 0.88266 0.14623 0.34382 0.0
C1455 C 0.88326 0.1406 0.47227 0.0
C1456 C 0.87991 0.13728 0.42303 0.0
C1457 C 0.86968 0.12729 0.28009 0.0
C1458 C 0.87337 0.13079 0.32934 0.0
H1459 H 0.89708 0.11876 0.56755 0.0
H1460 H 0.89166 0.11344 0.48699 0.0
H1461 H 0.89314 0.16139 0.40005 0.0
H1462 H 0.85714 0.14885 0.18277 0.0
H1463 H 0.86553 0.15515 0.26166 0.0
C1464 C 0.13499 0.3735 0.21509 0.0
C1465 C 0.12092 0.38357 0.19613 0.0
C1466 C 0.13888 0.37462 0.26144 0.0
C1467 C 0.13289 0.40355 0.36195 0.0
H1468 H 0.1435 0.36008 0.42849 0.0
C1469 C 0.13957 0.40244 0.55746 0.0
C1470 C 0.15316 0.39168 0.57623 0.0
C1471 C 0.1356 0.40161 0.51108 0.0
C1472 C 0.14078 0.37238 0.41033 0.0
H1473 H 0.10007 0.40291 0.21093 0.0
H1474 H 0.1067 0.40468 0.292 0.0
H1475 H 0.13672 0.35836 0.34763 0.0
H1476 H 0.17314 0.37148 0.5608 0.0
H1477 H 0.16657 0.37039 0.47988 0.0
H1478 H 0.13704 0.41758 0.4246 0.0
C1479 C 0.1148 0.396 0.27092 0.0
C1480 C 0.13688 0.37138 0.36397 0.0
C1481 C 0.11087 0.39484 0.22457 0.0
C1482 C 0.16274 0.38012 0.54744 0.0
C1483 C 0.1588 0.37932 0.50109 0.0
C1484 C 0.13684 0.40455 0.40831 0.0
C1485 C 0.12882 0.38587 0.2899 0.0
C1486 C 0.13291 0.38696 0.33923 0.0
C1487 C 0.14515 0.39001 0.48235 0.0
C1488 C 0.14085 0.38897 0.43306 0.0
H1489 H 0.14288 0.36457 0.19418 0.0
H1490 H 0.14989 0.36678 0.27492 0.0
H1491 H 0.13012 0.41582 0.34372 0.0
H1492 H 0.13205 0.41161 0.57856 0.0
H1493 H 0.12488 0.4099 0.49786 0.0
C1494 C 0.87909 0.877 0.80468 0.0
C1495 C 0.89386 0.88587 0.82431 0.0
C1496 C 0.87525 0.87874 0.75838 0.0
C1497 C 0.88429 0.90764 0.65893 0.0
H1498 H 0.8684 0.86613 0.59018 0.0
C1499 C 0.87896 0.908 0.46325 0.0
C1500 C 0.86369 0.90001 0.44366 0.0
C1501 C 0.88261 0.90613 0.50959 0.0
C1502 C 0.87266 0.8779 0.60898 0.0
H1503 H 0.91599 0.90379 0.81044 0.0
H1504 H 0.90959 0.90645 0.72968 0.0
H1505 H 0.8747 0.86328 0.67111 0.0
H1506 H 0.84051 0.88346 0.45737 0.0
H1507 H 0.84681 0.88034 0.53831 0.0
H1508 H 0.88236 0.92222 0.59669 0.0
C1509 C 0.90082 0.8983 0.75015 0.0
C1510 C 0.87625 0.87627 0.65543 0.0
C1511 C 0.90464 0.89659 0.79644 0.0
C1512 C 0.85228 0.88995 0.47147 0.0
C1513 C 0.85599 0.888 0.51777 0.0
C1514 C 0.88076 0.90925 0.61247 0.0
C1515 C 0.88609 0.88938 0.73047 0.0
C1516 C 0.88213 0.89112 0.68103 0.0
C1517 C 0.87115 0.89615 0.53745 0.0
C1518 C 0.87492 0.89439 0.5869 0.0
H1519 H 0.87059 0.86848 0.82496 0.0
H1520 H 0.86367 0.87184 0.74455 0.0
H1521 H 0.88849 0.91944 0.67765 0.0
H1522 H 0.88795 0.91595 0.44288 0.0
H1523 H 0.89451 0.91241 0.52355 0.0
C1524 C 0.36266 0.60656 0.71581 0.0
C1525 C 0.35852 0.62031 0.68498 0.0
C1526 C 0.36789 0.61058 0.76034 0.0
C1527 C 0.36246 0.64486 0.84816 0.0
H1528 H 0.4008 0.61947 0.90967 0.0
C1529 C 0.38248 0.66132 0.03401 0.0
C1530 C 0.38815 0.64721 0.06223 0.0
C1531 C 0.37964 0.65858 0.98749 0.0
C1532 C 0.38987 0.62653 0.89332 0.0
H1533 H 0.35705 0.64904 0.67632 0.0
H1534 H 0.36604 0.65613 0.75466 0.0
H1535 H 0.39516 0.61396 0.82925 0.0
H1536 H 0.39521 0.61901 0.0628 0.0
H1537 H 0.3895 0.61404 0.98247 0.0
H1538 H 0.35671 0.65701 0.91225 0.0
C1539 C 0.36523 0.64223 0.74419 0.0
C1540 C 0.38673 0.62343 0.84705 0.0
C1541 C 0.36024 0.6382 0.6993 0.0
C1542 C 0.39066 0.63019 0.04251 0.0
C1543 C 0.38765 0.6274 0.99605 0.0
C1544 C 0.36546 0.64782 0.89456 0.0
C1545 C 0.3689 0.62844 0.77537 0.0
C1546 C 0.37294 0.63251 0.82394 0.0
C1547 C 0.3822 0.64158 0.96773 0.0
C1548 C 0.37917 0.63864 0.91795 0.0
H1549 H 0.36151 0.59265 0.70564 0.0
H1550 H 0.37051 0.59964 0.78351 0.0
H1551 H 0.35156 0.65187 0.83153 0.0
H1552 H 0.38011 0.67457 0.04782 0.0
H1553 H 0.37565 0.66991 0.96697 0.0
C1554 C 0.62272 0.13062 0.96631 0.0
C1555 C 0.63097 0.14572 0.94713 0.0
C1556 C 0.62469 0.1269 0.01257 0.0
C1557 C 0.63563 0.14836 0.12238 0.0
H1558 H 0.64414 0.0997 0.16256 0.0
C1559 C 0.65401 0.13168 0.30851 0.0
C1560 C 0.64692 0.11593 0.32724 0.0
C1561 C 0.65183 0.13539 0.26231 0.0
C1562 C 0.64153 0.11334 0.15203 0.0
H1563 H 0.64814 0.1685 0.96178 0.0
H1564 H 0.65138 0.16211 0.04243 0.0
H1565 H 0.64089 0.10588 0.08179 0.0
H1566 H 0.63152 0.092 0.31222 0.0
H1567 H 0.62755 0.09853 0.23184 0.0
H1568 H 0.63612 0.15583 0.19254 0.0
C1569 C 0.6432 0.15327 0.02173 0.0
C1570 C 0.6397 0.11688 0.10566 0.0
C1571 C 0.64131 0.15694 0.97545 0.0
C1572 C 0.6374 0.10411 0.29875 0.0
C1573 C 0.63516 0.10784 0.2526 0.0
C1574 C 0.63738 0.14482 0.16876 0.0
C1575 C 0.63488 0.13823 0.04089 0.0
C1576 C 0.63676 0.13444 0.09025 0.0
C1577 C 0.64244 0.12348 0.23367 0.0
C1578 C 0.64039 0.12726 0.18424 0.0
H1579 H 0.61443 0.12183 0.94578 0.0
H1580 H 0.61792 0.11533 0.02635 0.0
H1581 H 0.6331 0.162 0.1117 0.0
H1582 H 0.66162 0.14096 0.32937 0.0
H1583 H 0.65785 0.14742 0.24887 0.0
C1584 C 0.88242 0.39241 0.21486 0.0
C1585 C 0.89676 0.38179 0.19974 0.0
C1586 C 0.87851 0.3937 0.26106 0.0
C1587 C 0.88579 0.37061 0.37051 0.0
H1588 H 0.8723 0.41648 0.42217 0.0
C1589 C 0.87986 0.3817 0.5636 0.0
C1590 C 0.86507 0.39161 0.57896 0.0
C1591 C 0.88378 0.38074 0.51738 0.0
C1592 C 0.87587 0.40354 0.40817 0.0
H1593 H 0.91813 0.36405 0.2215 0.0
H1594 H 0.91158 0.36661 0.30211 0.0
H1595 H 0.879 0.41427 0.34149 0.0
H1596 H 0.84298 0.40857 0.55779 0.0
H1597 H 0.84971 0.40674 0.47698 0.0
H1598 H 0.88273 0.3599 0.43723 0.0
C1599 C 0.90321 0.37379 0.27819 0.0
C1600 C 0.8797 0.40226 0.36191 0.0
C1601 C 0.90711 0.37249 0.23198 0.0
C1602 C 0.85439 0.4007 0.54702 0.0
C1603 C 0.85835 0.39979 0.50077 0.0
C1604 C 0.88201 0.3719 0.41676 0.0
C1605 C 0.88886 0.38441 0.29331 0.0
C1606 C 0.88472 0.38578 0.34251 0.0
C1607 C 0.87303 0.38971 0.48539 0.0
C1608 C 0.87702 0.38838 0.43616 0.0
H1609 H 0.87429 0.39992 0.19101 0.0
H1610 H 0.86725 0.40185 0.27146 0.0
H1611 H 0.88932 0.35764 0.35657 0.0
H1612 H 0.88824 0.37438 0.58725 0.0
H1613 H 0.89529 0.37302 0.5067 0.0
C1614 C 0.37718 0.14469 0.29511 0.0
C1615 C 0.39222 0.13619 0.31436 0.0
C1616 C 0.37325 0.14279 0.24886 0.0
C1617 C 0.39413 0.13117 0.13928 0.0
H1618 H 0.34511 0.12438 0.0986 0.0
C1619 C 0.37646 0.11311 0.95342 0.0
C1620 C 0.36122 0.12115 0.93399 0.0
C1621 C 0.38019 0.11504 0.99975 0.0
C1622 C 0.35886 0.12649 0.10931 0.0
H1623 H 0.41464 0.11863 0.29996 0.0
H1624 H 0.40784 0.1154 0.21937 0.0
H1625 H 0.35161 0.12746 0.17945 0.0
H1626 H 0.33813 0.13785 0.9481 0.0
H1627 H 0.34466 0.14127 0.02882 0.0
H1628 H 0.40139 0.13028 0.06922 0.0
C1629 C 0.39924 0.12378 0.23994 0.0
C1630 C 0.36258 0.12824 0.1557 0.0
C1631 C 0.40314 0.12564 0.28619 0.0
C1632 C 0.34983 0.13124 0.96206 0.0
C1633 C 0.35357 0.13319 1.00838 0.0
C1634 C 0.39041 0.12946 0.0929 0.0
C1635 C 0.38427 0.13237 0.22066 0.0
C1636 C 0.38027 0.13057 0.17128 0.0
C1637 C 0.36879 0.12509 0.02787 0.0
C1638 C 0.37273 0.12706 0.07729 0.0
H1639 H 0.36862 0.15313 0.3156 0.0
H1640 H 0.36175 0.14979 0.23502 0.0
H1641 H 0.40788 0.13324 0.15003 0.0
H1642 H 0.38537 0.10503 0.93295 0.0
H1643 H 0.39186 0.10838 0.01367 0.0
C1644 C 0.63956 0.60986 0.06011 0.0
C1645 C 0.65443 0.61854 0.07974 0.0
C1646 C 0.63588 0.61149 0.01375 0.0
C1647 C 0.64483 0.64009 0.91442 0.0
H1648 H 0.62974 0.59822 0.84593 0.0
C1649 C 0.63784 0.64077 0.71898 0.0
C1650 C 0.62301 0.63184 0.69985 0.0
C1651 C 0.64189 0.63906 0.76515 0.0
C1652 C 0.63374 0.61009 0.86463 0.0
H1653 H 0.67697 0.63596 0.06597 0.0
H1654 H 0.6707 0.63859 0.98493 0.0
H1655 H 0.6363 0.59552 0.92672 0.0
H1656 H 0.60099 0.61386 0.71432 0.0
H1657 H 0.60782 0.61118 0.79494 0.0
H1658 H 0.64221 0.65468 0.85238 0.0
C1659 C 0.6618 0.63061 1.0055 0.0
C1660 C 0.63751 0.60854 0.91098 0.0
C1661 C 0.66551 0.62895 0.05187 0.0
C1662 C 0.61239 0.62109 0.72801 0.0
C1663 C 0.61644 0.61938 0.77416 0.0
C1664 C 0.64104 0.64165 0.86808 0.0
C1665 C 0.64697 0.62187 0.98585 0.0
C1666 C 0.64307 0.62352 0.93646 0.0
C1667 C 0.63122 0.62837 0.79335 0.0
C1668 C 0.63542 0.62667 0.8426 0.0
H1669 H 0.63085 0.6016 0.0805 0.0
H1670 H 0.62424 0.60473 0.99983 0.0
H1671 H 0.64883 0.65195 0.93316 0.0
H1672 H 0.64621 0.64929 0.69841 0.0
H1673 H 0.65349 0.64601 0.77867 0.0
C1674 C 0.14406 0.8569 0.47362 0.0
C1675 C 0.1331 0.86747 0.44547 0.0
C1676 C 0.14553 0.8606 0.52003 0.0
C1677 C 0.12232 0.88385 0.61384 0.0
H1678 H 0.16852 0.88062 0.67412 0.0
C1679 C 0.13397 0.90923 0.79699 0.0
C1680 C 0.14479 0.89874 0.82568 0.0
C1681 C 0.13247 0.9052 0.75079 0.0
C1682 C 0.15548 0.88138 0.65791 0.0
H1683 H 0.11495 0.89017 0.44428 0.0
H1684 H 0.1178 0.89685 0.52497 0.0
H1685 H 0.16613 0.87412 0.59318 0.0
H1686 H 0.16258 0.8758 0.82813 0.0
H1687 H 0.15975 0.86859 0.74759 0.0
H1688 H 0.11168 0.89116 0.67854 0.0
C1689 C 0.12512 0.88556 0.51126 0.0
C1690 C 0.15411 0.87765 0.6115 0.0
C1691 C 0.12366 0.88186 0.46487 0.0
C1692 C 0.15402 0.88406 0.80706 0.0
C1693 C 0.15255 0.88005 0.7608 0.0
C1694 C 0.12369 0.88759 0.66023 0.0
C1695 C 0.13605 0.87497 0.53944 0.0
C1696 C 0.13752 0.87886 0.58887 0.0
C1697 C 0.14178 0.89059 0.7321 0.0
C1698 C 0.14029 0.88642 0.68282 0.0
H1699 H 0.15167 0.84584 0.45973 0.0
H1700 H 0.15393 0.85207 0.5408 0.0
H1701 H 0.10928 0.88462 0.59767 0.0
H1702 H 0.1265 0.92051 0.81031 0.0
H1703 H 0.12419 0.9137 0.72958 0.0
C1704 C 0.87539 0.645 0.79576 0.0
C1705 C 0.89033 0.63635 0.81511 0.0
C1706 C 0.87149 0.64312 0.74949 0.0
C1707 C 0.89236 0.6312 0.64008 0.0
H1708 H 0.84328 0.62518 0.59911 0.0
C1709 C 0.8745 0.61365 0.45399 0.0
C1710 C 0.85944 0.62205 0.43459 0.0
C1711 C 0.87823 0.61542 0.50035 0.0
C1712 C 0.85704 0.62706 0.6099 0.0
H1713 H 0.91259 0.61856 0.80092 0.0
H1714 H 0.90582 0.61535 0.7203 0.0
H1715 H 0.84975 0.62809 0.67999 0.0
H1716 H 0.83669 0.6392 0.44878 0.0
H1717 H 0.84322 0.64233 0.52957 0.0
H1718 H 0.89966 0.63024 0.57004 0.0
C1719 C 0.89729 0.62382 0.74079 0.0
C1720 C 0.86075 0.62872 0.65632 0.0
C1721 C 0.90117 0.62568 0.78705 0.0
C1722 C 0.84824 0.63231 0.46271 0.0
C1723 C 0.85198 0.6341 0.50908 0.0
C1724 C 0.88865 0.62957 0.59367 0.0
C1725 C 0.88243 0.63257 0.72139 0.0
C1726 C 0.87846 0.63079 0.67199 0.0
C1727 C 0.86701 0.62565 0.52852 0.0
C1728 C 0.87094 0.62747 0.57797 0.0
H1729 H 0.8669 0.65353 0.81618 0.0
H1730 H 0.86008 0.65023 0.73556 0.0
H1731 H 0.90612 0.63307 0.6509 0.0
H1732 H 0.88325 0.60542 0.43347 0.0
H1733 H 0.88975 0.6085 0.51427 0.0
C1734 C 0.16645 0.13056 0.55256 0.0
C1735 C 0.1553 0.12023 0.58042 0.0
C1736 C 0.16274 0.13229 0.50621 0.0
C1737 C 0.13827 0.11046 0.41162 0.0
H1738 H 0.14345 0.15656 0.35307 0.0
C1739 C 0.11348 0.12323 0.22842 0.0
C1740 C 0.12419 0.13394 0.20036 0.0
C1741 C 0.11747 0.12147 0.2746 0.0
C1742 C 0.14215 0.14354 0.36875 0.0
H1743 H 0.13156 0.10352 0.58118 0.0
H1744 H 0.12494 0.10676 0.50052 0.0
H1745 H 0.14998 0.15376 0.43388 0.0
H1746 H 0.1475 0.15125 0.19915 0.0
H1747 H 0.15469 0.14786 0.27943 0.0
H1748 H 0.13047 0.10022 0.34652 0.0
C1749 C 0.13665 0.1134 0.51444 0.0
C1750 C 0.14588 0.14194 0.41512 0.0
C1751 C 0.14033 0.11171 0.5608 0.0
C1752 C 0.13906 0.14276 0.21963 0.0
C1753 C 0.14306 0.14099 0.26582 0.0
C1754 C 0.13456 0.11205 0.36525 0.0
C1755 C 0.14783 0.12369 0.48655 0.0
C1756 C 0.14395 0.12539 0.43715 0.0
C1757 C 0.13229 0.13035 0.29392 0.0
C1758 C 0.13642 0.12862 0.34322 0.0
H1759 H 0.17799 0.13745 0.56665 0.0
H1760 H 0.17171 0.14019 0.48565 0.0
H1761 H 0.13692 0.09745 0.42735 0.0
H1762 H 0.10204 0.11608 0.21464 0.0
H1763 H 0.10878 0.11331 0.29528 0.0
C1764 C 0.64904 0.38663 0.307 0.0
C1765 C 0.65092 0.40391 0.32572 0.0
C1766 C 0.64572 0.38429 0.26066 0.0
C1767 C 0.64975 0.40619 0.14941 0.0
H1768 H 0.61322 0.37208 0.1131 0.0
C1769 C 0.62337 0.39928 0.96382 0.0
C1770 C 0.61799 0.38218 0.94916 0.0
C1771 C 0.6288 0.4021 1.00891 0.0
C1772 C 0.62369 0.38145 0.12245 0.0
H1773 H 0.6507 0.43227 0.30989 0.0
H1774 H 0.64513 0.42812 0.22879 0.0
H1775 H 0.61967 0.37672 0.19317 0.0
H1776 H 0.61523 0.35443 0.96888 0.0
H1777 H 0.62526 0.35912 0.04679 0.0
H1778 H 0.65388 0.41079 0.07852 0.0
C1779 C 0.64635 0.4164 0.25015 0.0
C1780 C 0.62733 0.38415 0.16848 0.0
C1781 C 0.64956 0.41877 0.29665 0.0
C1782 C 0.61907 0.3678 0.97956 0.0
C1783 C 0.62469 0.37054 0.0243 0.0
C1784 C 0.6462 0.40339 0.10318 0.0
C1785 C 0.6443 0.39913 0.23169 0.0
C1786 C 0.64042 0.39651 0.18255 0.0
C1787 C 0.62912 0.38781 0.04002 0.0
C1788 C 0.63315 0.39091 0.08909 0.0
H1789 H 0.65039 0.37485 0.32804 0.0
H1790 H 0.64448 0.37079 0.24737 0.0
H1791 H 0.66004 0.4157 0.1592 0.0
H1792 H 0.62256 0.4106 0.94104 0.0
H1793 H 0.63202 0.41559 0.01978 0.0
C1794 C 0.35628 0.88278 0.04654 0.0
C1795 C 0.36641 0.89394 0.07545 0.0
C1796 C 0.36041 0.88134 1.00051 0.0
C1797 C 0.38372 0.90487 0.90809 0.0
H1798 H 0.38171 0.85852 0.84844 0.0
C1799 C 0.40855 0.89388 0.72466 0.0
C1800 C 0.39828 0.88262 0.69634 0.0
C1801 C 0.4048 0.89529 0.77095 0.0
C1802 C 0.38214 0.8716 0.86444 0.0
H1803 H 0.38882 0.91238 0.07844 0.0
H1804 H 0.39621 0.90964 0.99821 0.0
H1805 H 0.37505 0.86085 0.92906 0.0
H1806 H 0.37607 0.8639 0.69476 0.0
H1807 H 0.36931 0.86665 0.77521 0.0
H1808 H 0.39076 0.91563 0.84344 0.0
C1809 C 0.38495 0.90214 0.01111 0.0
C1810 C 0.37833 0.87293 0.91069 0.0
C1811 C 0.38083 0.90356 0.05721 0.0
C1812 C 0.38414 0.87283 0.71546 0.0
C1813 C 0.3804 0.87424 0.76173 0.0
C1814 C 0.38752 0.90354 0.86182 0.0
C1815 C 0.37477 0.89103 0.98219 0.0
C1816 C 0.37904 0.88959 0.93308 0.0
C1817 C 0.3907 0.88547 0.79008 0.0
C1818 C 0.38675 0.88689 0.83939 0.0
H1819 H 0.34522 0.87501 0.05956 0.0
H1820 H 0.35219 0.87279 0.97913 0.0
H1821 H 0.38413 0.91795 0.92412 0.0
H1822 H 0.41941 0.90176 0.71099 0.0
H1823 H 0.41311 0.90393 0.79185 0.0
C1824 C 0.14767 0.68881 0.1908 0.0
C1825 C 0.13206 0.67988 0.17674 0.0
C1826 C 0.14796 0.70758 0.19383 0.0
C1827 C 0.12271 0.74777 0.15259 0.0
H1828 H 0.15245 0.77303 0.24008 0.0
C1829 C 0.11891 0.82475 0.17954 0.0
C1830 C 0.13543 0.83364 0.17679 0.0
C1831 C 0.11829 0.80601 0.18253 0.0
C1832 C 0.1441 0.76614 0.21541 0.0
H1833 H 0.10434 0.68327 0.157 0.0
H1834 H 0.10444 0.71578 0.16464 0.0
H1835 H 0.15163 0.74032 0.24052 0.0
H1836 H 0.16421 0.83007 0.17685 0.0
H1837 H 0.16314 0.79744 0.18372 0.0
H1838 H 0.11496 0.77371 0.1282 0.0
C1839 C 0.11672 0.70857 0.17172 0.0
C1840 C 0.1437 0.74735 0.21542 0.0
C1841 C 0.11655 0.68989 0.16787 0.0
C1842 C 0.1513 0.82354 0.17917 0.0
C1843 C 0.15069 0.80488 0.18313 0.0
C1844 C 0.12291 0.76653 0.15308 0.0
C1845 C 0.13254 0.71777 0.18362 0.0
C1846 C 0.13298 0.73786 0.184 0.0
C1847 C 0.13418 0.79587 0.18393 0.0
C1848 C 0.13361 0.77593 0.18445 0.0
H1849 H 0.15989 0.68136 0.19706 0.0
H1850 H 0.16048 0.71408 0.20249 0.0
H1851 H 0.11467 0.74107 0.12697 0.0
H1852 H 0.10649 0.83219 0.17719 0.0
H1853 H 0.10538 0.79942 0.18326 0.0
C1854 C 0.57685 0.89962 0.43351 0.0
C1855 C 0.58594 0.88427 0.41864 0.0
C1856 C 0.55809 0.8997 0.43624 0.0
C1857 C 0.51769 0.87419 0.39552 0.0
H1858 H 0.49334 0.9026 0.48657 0.0
C1859 C 0.4412 0.86888 0.42794 0.0
C1860 C 0.43204 0.8853 0.42657 0.0
C1861 C 0.45998 0.86849 0.42966 0.0
C1862 C 0.49997 0.89462 0.46091 0.0
H1863 H 0.58277 0.85681 0.3964 0.0
H1864 H 0.55029 0.85652 0.4033 0.0
H1865 H 0.52601 0.90239 0.48447 0.0
H1866 H 0.4352 0.91413 0.42787 0.0
H1867 H 0.46791 0.91345 0.43264 0.0
H1868 H 0.49151 0.86615 0.37282 0.0
C1869 C 0.55737 0.86878 0.4114 0.0
C1870 C 0.51874 0.89458 0.45943 0.0
C1871 C 0.57604 0.86884 0.40792 0.0
C1872 C 0.44193 0.90128 0.42918 0.0
C1873 C 0.46065 0.9009 0.43191 0.0
C1874 C 0.49894 0.87401 0.39752 0.0
C1875 C 0.54802 0.88429 0.42492 0.0
C1876 C 0.52793 0.88438 0.42666 0.0
C1877 C 0.46992 0.88452 0.43118 0.0
C1878 C 0.48987 0.88425 0.43017 0.0
H1879 H 0.58418 0.91179 0.44119 0.0
H1880 H 0.55149 0.91202 0.44603 0.0
H1881 H 0.52411 0.86652 0.36897 0.0
H1882 H 0.43391 0.85637 0.42534 0.0
H1883 H 0.46677 0.85567 0.42922 0.0
C1884 C 0.36601 0.3279 0.68461 0.0
C1885 C 0.3801 0.33691 0.66308 0.0
C1886 C 0.36588 0.3091 0.68682 0.0
C1887 C 0.38352 0.26979 0.62611 0.0
H1888 H 0.37241 0.24287 0.7345 0.0
C1889 C 0.39472 0.19378 0.63064 0.0
C1890 C 0.38248 0.18293 0.65379 0.0
C1891 C 0.39418 0.21241 0.63504 0.0
C1892 C 0.3753 0.25014 0.70371 0.0
H1893 H 0.40562 0.33345 0.62986 0.0
H1894 H 0.40536 0.3008 0.63331 0.0
H1895 H 0.37159 0.27566 0.73642 0.0
H1896 H 0.36031 0.18305 0.7006 0.0
H1897 H 0.35902 0.21579 0.70767 0.0
H1898 H 0.38683 0.24457 0.59285 0.0
C1899 C 0.39424 0.30814 0.64776 0.0
C1900 C 0.37487 0.26896 0.70491 0.0
C1901 C 0.39441 0.32684 0.64579 0.0
C1902 C 0.37001 0.19111 0.68268 0.0
C1903 C 0.36929 0.20988 0.68664 0.0
C1904 C 0.38374 0.25106 0.62474 0.0
C1905 C 0.37983 0.29899 0.66749 0.0
C1906 C 0.37926 0.279 0.66627 0.0
C1907 C 0.38118 0.22083 0.66218 0.0
C1908 C 0.37996 0.2409 0.66369 0.0
H1909 H 0.35478 0.33534 0.69814 0.0
H1910 H 0.35457 0.30245 0.70219 0.0
H1911 H 0.38662 0.27709 0.59549 0.0
H1912 H 0.40462 0.18783 0.60851 0.0
H1913 H 0.40395 0.22022 0.61673 0.0
C1914 C 0.94373 0.14819 0.89006 0.0
C1915 C 0.93326 0.13453 0.90902 0.0
C1916 C 0.96235 0.14833 0.89618 0.0
C1917 C 1.00005 0.11922 0.90506 0.0
H1918 H 0.02621 0.15785 0.96353 0.0
C1919 C 0.07644 0.11403 0.92969 0.0
C1920 C 0.0868 0.12968 0.9276 0.0
C1921 C 0.05776 0.11498 0.93147 0.0
C1922 C 0.01924 0.14705 0.94638 0.0
H1923 H 0.93398 0.11035 0.94931 0.0
H1924 H 0.9667 0.11023 0.95858 0.0
H1925 H 0.99357 0.15923 0.95817 0.0
H1926 H 0.08582 0.15861 0.92595 0.0
H1927 H 0.05318 0.1604 0.92705 0.0
H1928 H 0.0254 0.1074 0.89064 0.0
C1929 C 0.9604 0.12101 0.93983 0.0
C1930 C 1.00049 0.14782 0.94372 0.0
C1931 C 0.94172 0.12115 0.93479 0.0
C1932 C 0.07813 0.14635 0.92843 0.0
C1933 C 0.05937 0.14732 0.92906 0.0
C1934 C 0.01878 0.11863 0.90669 0.0
C1935 C 0.97089 0.13454 0.92035 0.0
C1936 C 0.99073 0.13383 0.92339 0.0
C1937 C 0.04884 0.13161 0.9299 0.0
C1938 C 0.02874 0.13245 0.9278 0.0
H1939 H 0.93751 0.15862 0.86995 0.0
H1940 H 0.97015 0.15886 0.88069 0.0
H1941 H 0.99282 0.10839 0.88857 0.0
H1942 H 0.08282 0.10099 0.92904 0.0
H1943 H 0.05037 0.10255 0.93344 0.0
C1944 C 0.12222 0.32403 0.89258 0.0
C1945 C 0.13196 0.33487 0.8627 0.0
C1946 C 0.1226 0.3054 0.88866 0.0
C1947 C 0.13317 0.26723 0.81253 0.0
H1948 H 0.13694 0.2418 0.9266 0.0
C1949 C 0.14199 0.18913 0.82839 0.0
C1950 C 0.13241 0.18099 0.86366 0.0
C1951 C 0.14225 0.20791 0.82412 0.0
C1952 C 0.13571 0.24864 0.8944 0.0
H1953 H 0.14911 0.33457 0.80376 0.0
H1954 H 0.14982 0.30175 0.79684 0.0
H1955 H 0.13688 0.27433 0.92648 0.0
H1956 H 0.11466 0.18611 0.92015 0.0
H1957 H 0.11496 0.21848 0.91251 0.0
H1958 H 0.13197 0.24129 0.78063 0.0
C1959 C 0.14188 0.30779 0.82341 0.0
C1960 C 0.13567 0.26735 0.89432 0.0
C1961 C 0.14148 0.32659 0.82734 0.0
C1962 C 0.12245 0.19193 0.89306 0.0
C1963 C 0.1227 0.21055 0.88883 0.0
C1964 C 0.13322 0.24838 0.8126 0.0
C1965 C 0.13274 0.29695 0.85472 0.0
C1966 C 0.13404 0.27695 0.85355 0.0
C1967 C 0.13292 0.21886 0.85503 0.0
C1968 C 0.13413 0.23885 0.85369 0.0
H1969 H 0.11448 0.32996 0.91972 0.0
H1970 H 0.11501 0.29756 0.91264 0.0
H1971 H 0.13189 0.27418 0.7805 0.0
H1972 H 0.14981 0.18106 0.8052 0.0
H1973 H 0.15026 0.21385 0.79767 0.0
C1974 C 0.07554 0.89658 0.08512 0.0
C1975 C 0.08367 0.88228 0.10825 0.0
C1976 C 0.0568 0.89741 0.08063 0.0
C1977 C 0.01606 0.87033 0.07656 0.0
H1978 H 0.99141 0.91185 0.12469 0.0
C1979 C 0.93862 0.87139 0.09611 0.0
C1980 C 0.92963 0.8879 0.09543 0.0
C1981 C 0.9574 0.87072 0.09447 0.0
C1982 C 0.99795 0.90028 0.11005 0.0
H1983 H 0.07872 0.85742 0.1436 0.0
H1984 H 0.04613 0.85846 0.13393 0.0
H1985 H 0.02402 0.91087 0.12585 0.0
H1986 H 0.93309 0.91657 0.09016 0.0
H1987 H 0.96557 0.91546 0.08417 0.0
H1988 H 0.99024 0.85986 0.05931 0.0
C1989 C 0.05416 0.86916 0.11994 0.0
C1990 C 0.01673 0.89972 0.11105 0.0
C1991 C 0.07279 0.86858 0.12551 0.0
C1992 C 0.9397 0.90365 0.09083 0.0
C1993 C 0.95841 0.90297 0.08805 0.0
C1994 C 0.99729 0.87104 0.07459 0.0
C1995 C 0.04591 0.8837 0.09805 0.0
C1996 C 0.02599 0.88469 0.09466 0.0
C1997 C 0.96767 0.88653 0.09094 0.0
C1998 C 0.98785 0.88597 0.09163 0.0
H1999 H 0.08361 0.90742 0.07201 0.0
H2000 H 0.0508 0.90878 0.06358 0.0
H2001 H 0.02285 0.85859 0.06349 0.0
H2002 H 0.9312 0.85906 0.10042 0.0
H2003 H 0.9638 0.85778 0.09769 0.0
C2004 C 0.36523 0.68914 0.33914 0.0
C2005 C 0.38098 0.67913 0.34538 0.0
C2006 C 0.36582 0.70789 0.33778 0.0
C2007 C 0.39099 0.74599 0.38117 0.0
H2008 H 0.3688 0.77324 0.28424 0.0
C2009 C 0.39846 0.82279 0.37566 0.0
C2010 C 0.38437 0.83319 0.35816 0.0
C2011 C 0.39831 0.80414 0.37123 0.0
C2012 C 0.37483 0.76594 0.31207 0.0
H2013 H 0.40966 0.68075 0.35532 0.0
H2014 H 0.41067 0.71365 0.3542 0.0
H2015 H 0.36782 0.74055 0.28229 0.0
H2016 H 0.35907 0.83229 0.32222 0.0
H2017 H 0.3583 0.79959 0.31595 0.0
H2018 H 0.39734 0.77106 0.41235 0.0
C2019 C 0.39791 0.70696 0.34961 0.0
C2020 C 0.37435 0.74715 0.31069 0.0
C2021 C 0.39737 0.68818 0.34985 0.0
C2022 C 0.37022 0.82457 0.33541 0.0
C2023 C 0.36985 0.80579 0.33186 0.0
C2024 C 0.39117 0.76474 0.38308 0.0
C2025 C 0.38212 0.71702 0.34369 0.0
C2026 C 0.38256 0.73697 0.34503 0.0
C2027 C 0.38382 0.79523 0.35019 0.0
C2028 C 0.38325 0.77509 0.34834 0.0
H2029 H 0.35241 0.68245 0.33596 0.0
H2030 H 0.35343 0.71527 0.33362 0.0
H2031 H 0.39718 0.7385 0.40851 0.0
H2032 H 0.4096 0.82914 0.39313 0.0
H2033 H 0.40963 0.79675 0.38461 0.0
C2034 C 0.57462 0.11931 0.58212 0.0
C2035 C 0.58294 0.13374 0.60451 0.0
C2036 C 0.55592 0.11894 0.57675 0.0
C2037 C 0.5159 0.14682 0.56863 0.0
H2038 H 0.4902 0.10702 0.6213 0.0
C2039 C 0.43835 0.1475 0.58618 0.0
C2040 C 0.4292 0.13109 0.58647 0.0
C2041 C 0.45714 0.14791 0.5851 0.0
C2042 C 0.49705 0.11808 0.60537 0.0
H2043 H 0.57847 0.15929 0.63752 0.0
H2044 H 0.54593 0.15904 0.62622 0.0
H2045 H 0.52281 0.1073 0.6232 0.0
H2046 H 0.43238 0.1023 0.58371 0.0
H2047 H 0.46485 0.10292 0.57876 0.0
H2048 H 0.49036 0.15746 0.54946 0.0
C2049 C 0.55377 0.14791 0.6135 0.0
C2050 C 0.51581 0.11824 0.6068 0.0
C2051 C 0.57235 0.14804 0.61998 0.0
C2052 C 0.43911 0.11516 0.58348 0.0
C2053 C 0.45781 0.11555 0.58135 0.0
C2054 C 0.49714 0.14649 0.56625 0.0
C2055 C 0.54531 0.13324 0.59251 0.0
C2056 C 0.52543 0.13266 0.58871 0.0
C2057 C 0.46722 0.13191 0.58331 0.0
C2058 C 0.48735 0.13215 0.58481 0.0
H2059 H 0.58249 0.10801 0.57048 0.0
H2060 H 0.54972 0.10746 0.56047 0.0
H2061 H 0.523 0.15809 0.55434 0.0
H2062 H 0.43103 0.15997 0.58937 0.0
H2063 H 0.46371 0.1608 0.58747 0.0
C2064 C 0.89808 0.18842 0.85297 0.0
C2065 C 0.88165 0.17945 0.84852 0.0
C2066 C 0.8987 0.20718 0.85249 0.0
C2067 C 0.87569 0.24731 0.81261 0.0
H2068 H 0.89756 0.27118 0.9159 0.0
C2069 C 0.87116 0.32457 0.83749 0.0
C2070 C 0.88503 0.33318 0.86132 0.0
C2071 C 0.8709 0.30581 0.8337 0.0
C2072 C 0.89172 0.26487 0.8862 0.0
H2073 H 0.85309 0.18284 0.83888 0.0
H2074 H 0.85426 0.21566 0.83611 0.0
H2075 H 0.8974 0.23863 0.91203 0.0
H2076 H 0.90989 0.32922 0.89799 0.0
H2077 H 0.91018 0.29684 0.88899 0.0
H2078 H 0.87052 0.2734 0.78572 0.0
C2079 C 0.8666 0.20822 0.84044 0.0
C2080 C 0.89153 0.24613 0.88428 0.0
C2081 C 0.86594 0.18949 0.84205 0.0
C2082 C 0.89898 0.32285 0.87967 0.0
C2083 C 0.89898 0.30421 0.87495 0.0
C2084 C 0.87621 0.26609 0.81397 0.0
C2085 C 0.88295 0.21726 0.84634 0.0
C2086 C 0.88347 0.23716 0.84758 0.0
C2087 C 0.88473 0.2953 0.85285 0.0
C2088 C 0.88421 0.2752 0.85087 0.0
H2089 H 0.91033 0.18095 0.85862 0.0
H2090 H 0.91147 0.21383 0.85712 0.0
H2091 H 0.86945 0.24071 0.78379 0.0
H2092 H 0.86011 0.33226 0.82366 0.0
H2093 H 0.85954 0.29959 0.81699 0.0
C2094 C 0.64191 0.8241 0.32733 0.0
C2095 C 0.6364 0.83232 0.36794 0.0
C2096 C 0.64196 0.80532 0.32302 0.0
C2097 C 0.64145 0.76419 0.3947 0.0
H2098 H 0.62751 0.73962 0.28384 0.0
C2099 C 0.62287 0.69 0.39511 0.0
C2100 C 0.63146 0.67874 0.36368 0.0
C2101 C 0.62381 0.70859 0.39111 0.0
C2102 C 0.63159 0.74633 0.31486 0.0
H2103 H 0.62589 0.82712 0.43512 0.0
H2104 H 0.62552 0.79489 0.42723 0.0
H2105 H 0.62866 0.77248 0.28558 0.0
H2106 H 0.64679 0.67828 0.30154 0.0
H2107 H 0.64813 0.71107 0.29404 0.0
H2108 H 0.64389 0.73818 0.42435 0.0
C2109 C 0.63041 0.80274 0.3991 0.0
C2110 C 0.6323 0.76515 0.31589 0.0
C2111 C 0.63051 0.82135 0.40352 0.0
C2112 C 0.64009 0.68658 0.32641 0.0
C2113 C 0.64088 0.70533 0.32214 0.0
C2114 C 0.64055 0.74551 0.39378 0.0
C2115 C 0.63641 0.79438 0.35915 0.0
C2116 C 0.63691 0.77435 0.35617 0.0
C2117 C 0.63314 0.71651 0.35521 0.0
C2118 C 0.63532 0.73634 0.35417 0.0
H2119 H 0.64654 0.83214 0.29924 0.0
H2120 H 0.64673 0.7994 0.29178 0.0
H2121 H 0.64561 0.77067 0.42596 0.0
H2122 H 0.61581 0.68444 0.42377 0.0
H2123 H 0.6174 0.71682 0.41663 0.0
C2124 C 0.89271 0.6939 0.12834 0.0
C2125 C 0.88191 0.6828 0.15507 0.0
C2126 C 0.89317 0.7124 0.13565 0.0
C2127 C 0.86694 0.74997 0.18116 0.0
H2128 H 0.91207 0.77531 0.17235 0.0
C2129 C 0.87195 0.82794 0.19437 0.0
C2130 C 0.88313 0.83603 0.16225 0.0
C2131 C 0.87202 0.80924 0.19994 0.0
C2132 C 0.89931 0.7685 0.17461 0.0
H2133 H 0.86324 0.6824 0.21092 0.0
H2134 H 0.86394 0.71496 0.22366 0.0
H2135 H 0.91175 0.74271 0.17019 0.0
H2136 H 0.90366 0.83095 0.1122 0.0
H2137 H 0.90369 0.79866 0.12143 0.0
H2138 H 0.85446 0.77586 0.18425 0.0
C2139 C 0.87205 0.70925 0.19693 0.0
C2140 C 0.89914 0.74977 0.17345 0.0
C2141 C 0.87175 0.69061 0.18991 0.0
C2142 C 0.89477 0.82513 0.13702 0.0
C2143 C 0.89489 0.80657 0.14263 0.0
C2144 C 0.86709 0.76879 0.18209 0.0
C2145 C 0.88275 0.72037 0.16977 0.0
C2146 C 0.88294 0.74025 0.1758 0.0
C2147 C 0.88344 0.79829 0.17389 0.0
C2148 C 0.88327 0.77831 0.17787 0.0
H2149 H 0.90075 0.6883 0.1013 0.0
H2150 H 0.9014 0.72053 0.11373 0.0
H2151 H 0.8542 0.74307 0.18272 0.0
H2152 H 0.86283 0.83601 0.21428 0.0
H2153 H 0.86314 0.80336 0.22463 0.0
C2154 C 0.65035 0.19051 0.68247 0.0
C2155 C 0.63442 0.18067 0.67781 0.0
C2156 C 0.64995 0.20922 0.68536 0.0
C2157 C 0.62333 0.24761 0.64892 0.0
H2158 H 0.65138 0.27445 0.73701 0.0
C2159 C 0.61868 0.3247 0.65918 0.0
C2160 C 0.6343 0.33438 0.66939 0.0
C2161 C 0.61838 0.30604 0.66306 0.0
C2162 C 0.64366 0.26722 0.7117 0.0
H2163 H 0.60554 0.18257 0.6733 0.0
H2164 H 0.60481 0.21541 0.67764 0.0
H2165 H 0.6514 0.24177 0.7392 0.0
H2166 H 0.66185 0.33228 0.6918 0.0
H2167 H 0.66162 0.29961 0.69732 0.0
H2168 H 0.61609 0.27286 0.62015 0.0
C2169 C 0.61761 0.20861 0.67941 0.0
C2170 C 0.6436 0.24846 0.71319 0.0
C2171 C 0.618 0.18984 0.67743 0.0
C2172 C 0.64955 0.32511 0.68438 0.0
C2173 C 0.64937 0.30637 0.68753 0.0
C2174 C 0.62359 0.26635 0.64696 0.0
C2175 C 0.63361 0.21851 0.68286 0.0
C2176 C 0.63337 0.23845 0.68196 0.0
C2177 C 0.6338 0.29653 0.67657 0.0
C2178 C 0.63368 0.27647 0.67849 0.0
H2179 H 0.66319 0.18375 0.68258 0.0
H2180 H 0.6625 0.21645 0.68758 0.0
H2181 H 0.61558 0.24025 0.62388 0.0
H2182 H 0.60672 0.33159 0.64771 0.0
H2183 H 0.60602 0.29908 0.65521 0.0
C2184 C 0.94044 0.36876 0.94146 0.0
C2185 C 0.93185 0.38502 0.93134 0.0
C2186 C 0.95915 0.36804 0.94599 0.0
C2187 C 0.99927 0.39685 0.96461 0.0
H2188 H 0.02498 0.35835 0.90499 0.0
C2189 C 0.07421 0.40176 0.92202 0.0
C2190 C 0.08507 0.38653 0.92737 0.0
C2191 C 0.05569 0.40069 0.92765 0.0
C2192 C 0.018 0.36904 0.92242 0.0
H2193 H 0.936 0.41336 0.9199 0.0
H2194 H 0.96841 0.41214 0.92761 0.0
H2195 H 0.99222 0.35807 0.90576 0.0
H2196 H 0.08509 0.35828 0.9437 0.0
H2197 H 0.05253 0.35639 0.95387 0.0
H2198 H 0.02497 0.40805 0.98035 0.0
C2199 C 0.96085 0.39993 0.93235 0.0
C2200 C 0.99921 0.36888 0.9229 0.0
C2201 C 0.94224 0.40062 0.92765 0.0
C2202 C 0.07705 0.37026 0.93974 0.0
C2203 C 0.05841 0.36915 0.94503 0.0
C2204 C 0.01799 0.39703 0.96401 0.0
C2205 C 0.96961 0.3836 0.94101 0.0
C2206 C 0.98959 0.38293 0.94347 0.0
C2207 C 0.0475 0.38434 0.93871 0.0
C2208 C 0.02761 0.38328 0.94239 0.0
H2209 H 0.93278 0.3565 0.94419 0.0
H2210 H 0.96543 0.35527 0.95311 0.0
H2211 H 0.99235 0.40771 0.9815 0.0
H2212 H 0.08 0.41448 0.91245 0.0
H2213 H 0.04772 0.4126 0.92189 0.0
C2214 C 0.44282 0.64694 0.38787 0.0
C2215 C 0.43223 0.63315 0.40578 0.0
C2216 C 0.46142 0.64692 0.39433 0.0
C2217 C 0.49891 0.61743 0.4025 0.0
H2218 H 0.52513 0.6556 0.46279 0.0
C2219 C 0.5752 0.61171 0.42817 0.0
C2220 C 0.58563 0.62732 0.42668 0.0
C2221 C 0.55652 0.61274 0.42975 0.0
C2222 C 0.51814 0.64493 0.44514 0.0
H2223 H 0.43268 0.6086 0.44456 0.0
H2224 H 0.46537 0.6082 0.45443 0.0
H2225 H 0.49251 0.65719 0.45689 0.0
H2226 H 0.58481 0.65626 0.42596 0.0
H2227 H 0.55218 0.65821 0.42672 0.0
H2228 H 0.52424 0.60555 0.38814 0.0
C2229 C 0.45919 0.61918 0.43623 0.0
C2230 C 0.49941 0.64582 0.44217 0.0
C2231 C 0.44053 0.61948 0.43086 0.0
C2232 C 0.57706 0.64403 0.42796 0.0
C2233 C 0.5583 0.64509 0.42839 0.0
C2234 C 0.51764 0.61673 0.40445 0.0
C2235 C 0.4698 0.63285 0.41779 0.0
C2236 C 0.48963 0.632 0.42118 0.0
C2237 C 0.54769 0.62943 0.4286 0.0
C2238 C 0.5276 0.63038 0.42621 0.0
H2239 H 0.43671 0.65761 0.36833 0.0
H2240 H 0.46933 0.65755 0.37965 0.0
H2241 H 0.49167 0.60674 0.3855 0.0
H2242 H 0.58151 0.59864 0.42718 0.0
H2243 H 0.54906 0.60034 0.43124 0.0
C2244 C 0.43865 0.38987 0.56753 0.0
C2245 C 0.43107 0.38971 0.61115 0.0
C2246 C 0.45734 0.39059 0.56215 0.0
C2247 C 0.49834 0.40427 0.6244 0.0
H2248 H 0.52391 0.37221 0.54379 0.0
C2249 C 0.57275 0.38985 0.65044 0.0
C2250 C 0.58419 0.38874 0.61277 0.0
C2251 C 0.55424 0.39095 0.64474 0.0
C2252 C 0.51695 0.38145 0.56594 0.0
H2253 H 0.43749 0.38988 0.68325 0.0
H2254 H 0.46957 0.39115 0.67376 0.0
H2255 H 0.49104 0.3724 0.54332 0.0
H2256 H 0.58482 0.38769 0.53925 0.0
H2257 H 0.55221 0.38966 0.52933 0.0
H2258 H 0.52401 0.41315 0.64769 0.0
C2259 C 0.46117 0.39096 0.64366 0.0
C2260 C 0.49813 0.38155 0.56567 0.0
C2261 C 0.44266 0.39012 0.64902 0.0
C2262 C 0.57646 0.38859 0.56905 0.0
C2263 C 0.55778 0.38963 0.56334 0.0
C2264 C 0.51703 0.40419 0.62463 0.0
C2265 C 0.46879 0.39135 0.60027 0.0
C2266 C 0.48863 0.39263 0.59584 0.0
C2267 C 0.54646 0.39099 0.60122 0.0
C2268 C 0.52661 0.39244 0.59635 0.0
H2269 H 0.43018 0.38951 0.53758 0.0
H2270 H 0.46281 0.39089 0.52825 0.0
H2271 H 0.49146 0.41327 0.64733 0.0
H2272 H 0.57804 0.38985 0.68474 0.0
H2273 H 0.54596 0.39159 0.67473 0.0
C2274 C 0.07323 0.6283 0.07052 0.0
C2275 C 0.0805 0.63013 0.11446 0.0
C2276 C 0.05465 0.62919 0.06332 0.0
C2277 C 0.01268 0.64561 0.11614 0.0
H2278 H 0.98938 0.61091 0.03739 0.0
C2279 C 0.93622 0.64752 0.08062 0.0
C2280 C 0.92748 0.63102 0.08581 0.0
C2281 C 0.95498 0.64826 0.07883 0.0
C2282 C 0.99569 0.62072 0.05944 0.0
H2283 H 0.07372 0.6344 0.18525 0.0
H2284 H 0.0416 0.6359 0.17264 0.0
H2285 H 0.02196 0.61059 0.04558 0.0
H2286 H 0.93134 0.60234 0.09099 0.0
H2287 H 0.96391 0.60358 0.08715 0.0
H2288 H 0.98637 0.65543 0.13095 0.0
C2289 C 0.05022 0.63394 0.14364 0.0
C2290 C 0.01438 0.62063 0.06383 0.0
C2291 C 0.06871 0.63293 0.15088 0.0
C2292 C 0.93774 0.61525 0.08684 0.0
C2293 C 0.95641 0.61596 0.08448 0.0
C2294 C 0.994 0.64578 0.11151 0.0
C2295 C 0.04291 0.63209 0.09982 0.0
C2296 C 0.02311 0.63292 0.09271 0.0
C2297 C 0.9653 0.63249 0.08144 0.0
C2298 C 0.98525 0.6332 0.0835 0.0
H2299 H 0.08186 0.62615 0.04164 0.0
H2300 H 0.04948 0.62783 0.02908 0.0
H2301 H 0.01896 0.65539 0.13832 0.0
H2302 H 0.92864 0.65989 0.08023 0.0
H2303 H 0.96142 0.6612 0.07615 0.0
C2304 C 0.15398 0.57374 0.06604 0.0
C2305 C 0.13852 0.58023 0.08765 0.0
C2306 C 0.15395 0.55698 0.0444 0.0
C2307 C 0.13239 0.513 0.045 0.0
H2308 H 0.1481 0.50861 0.92036 0.0
C2309 C 0.12393 0.44614 0.94981 0.0
C2310 C 0.13695 0.44083 0.9184 0.0
C2311 C 0.12379 0.46352 0.96759 0.0
C2312 C 0.14392 0.50945 0.95537 0.0
H2313 H 0.11101 0.57397 0.10392 0.0
H2314 H 0.11125 0.54431 0.06841 0.0
H2315 H 0.14913 0.53776 0.9584 0.0
H2316 H 0.15985 0.44967 0.88005 0.0
H2317 H 0.16018 0.47997 0.91238 0.0
H2318 H 0.1278 0.48481 0.04326 0.0
C2319 C 0.12331 0.55235 0.0676 0.0
C2320 C 0.14445 0.52623 0.9771 0.0
C2321 C 0.12321 0.5693 0.08826 0.0
C2322 C 0.14956 0.45349 0.90394 0.0
C2323 C 0.14969 0.47087 0.92257 0.0
C2324 C 0.13216 0.49621 0.02367 0.0
C2325 C 0.13861 0.54608 0.04493 0.0
C2326 C 0.13853 0.52821 0.02204 0.0
C2327 C 0.137 0.47607 0.95546 0.0
C2328 C 0.13771 0.49413 0.97827 0.0
H2329 H 0.16609 0.58171 0.06549 0.0
H2330 H 0.16601 0.55244 0.02768 0.0
H2331 H 0.128 0.51405 0.07986 0.0
H2332 H 0.1139 0.43671 0.96114 0.0
H2333 H 0.11337 0.467 0.99137 0.0
C2334 C 0.6967 0.87399 0.3398 0.0
C2335 C 0.68702 0.89005 0.3436 0.0
C2336 C 0.71381 0.87376 0.32033 0.0
C2337 C 0.74475 0.90201 0.24941 0.0
H2338 H 0.77982 0.8665 0.28586 0.0
C2339 C 0.82035 0.90511 0.20162 0.0
C2340 C 0.8279 0.88929 0.18407 0.0
C2341 C 0.80302 0.90511 0.21976 0.0
C2342 C 0.77012 0.87643 0.27512 0.0
H2343 H 0.68795 0.91858 0.3314 0.0
H2344 H 0.71791 0.91844 0.29931 0.0
H2345 H 0.75052 0.86695 0.32179 0.0
H2346 H 0.82298 0.86113 0.17103 0.0
H2347 H 0.79287 0.86105 0.20377 0.0
H2348 H 0.76484 0.91187 0.20406 0.0
C2349 C 0.7122 0.9058 0.30962 0.0
C2350 C 0.75319 0.87667 0.29556 0.0
C2351 C 0.695 0.90595 0.32845 0.0
C2352 C 0.8176 0.87352 0.18452 0.0
C2353 C 0.80039 0.87345 0.20344 0.0
C2354 C 0.76181 0.90199 0.2297 0.0
C2355 C 0.72188 0.88967 0.30467 0.0
C2356 C 0.74014 0.88944 0.28303 0.0
C2357 C 0.7929 0.88924 0.2214 0.0
C2358 C 0.77469 0.88917 0.24218 0.0
H2359 H 0.69085 0.86148 0.35077 0.0
H2360 H 0.72048 0.86097 0.31669 0.0
H2361 H 0.73512 0.91182 0.23765 0.0
H2362 H 0.82782 0.91754 0.2012 0.0
H2363 H 0.79766 0.91749 0.23334 0.0
C2364 C 0.35828 0.44646 0.57461 0.0
C2365 C 0.37402 0.43818 0.59026 0.0
C2366 C 0.35879 0.46355 0.55505 0.0
C2367 C 0.3889 0.50363 0.53991 0.0
H2368 H 0.35339 0.51602 0.44895 0.0
C2369 C 0.38516 0.57562 0.46815 0.0
C2370 C 0.3791 0.57838 0.42341 0.0
C2371 C 0.38417 0.5587 0.48836 0.0
C2372 C 0.36363 0.51283 0.47375 0.0
H2373 H 0.4027 0.44131 0.59751 0.0
H2374 H 0.40383 0.47067 0.56203 0.0
H2375 H 0.35302 0.4865 0.48259 0.0
H2376 H 0.36635 0.56544 0.36609 0.0
H2377 H 0.36586 0.5357 0.3994 0.0
H2378 H 0.40025 0.52948 0.52899 0.0
C2379 C 0.39089 0.46438 0.56591 0.0
C2380 C 0.3632 0.49583 0.49395 0.0
C2381 C 0.3903 0.44742 0.58618 0.0
C2382 C 0.37169 0.56374 0.39986 0.0
C2383 C 0.37109 0.54666 0.41963 0.0
C2384 C 0.38957 0.52047 0.51905 0.0
C2385 C 0.37513 0.47278 0.54985 0.0
C2386 C 0.37574 0.49094 0.52769 0.0
C2387 C 0.37737 0.54379 0.4643 0.0
C2388 C 0.37685 0.52549 0.48584 0.0
H2389 H 0.3455 0.43975 0.57774 0.0
H2390 H 0.34626 0.46953 0.54442 0.0
H2391 H 0.3987 0.50072 0.56606 0.0
H2392 H 0.39068 0.58659 0.48792 0.0
H2393 H 0.38863 0.55745 0.52319 0.0
C2394 C 0.82385 0.13458 0.79803 0.0
C2395 C 0.8284 0.12525 0.83782 0.0
C2396 C 0.80655 0.13375 0.77985 0.0
C2397 C 0.75946 0.12087 0.80598 0.0
H2398 H 0.7546 0.1233 0.67508 0.0
C2399 C 0.7006 0.1159 0.65567 0.0
C2400 C 0.68672 0.12448 0.67924 0.0
C2401 C 0.71792 0.1149 0.67466 0.0
C2402 C 0.75562 0.12236 0.71163 0.0
H2403 H 0.81814 0.10796 0.89028 0.0
H2404 H 0.78785 0.10603 0.85786 0.0
H2405 H 0.78421 0.12288 0.70954 0.0
H2406 H 0.68042 0.13943 0.74039 0.0
H2407 H 0.71031 0.13827 0.77227 0.0
H2408 H 0.73087 0.11962 0.80797 0.0
C2409 C 0.79765 0.11429 0.84101 0.0
C2410 C 0.77271 0.12242 0.73162 0.0
C2411 C 0.81503 0.11535 0.85968 0.0
C2412 C 0.69067 0.13242 0.7215 0.0
C2413 C 0.7079 0.13163 0.7401 0.0
C2414 C 0.74237 0.1206 0.78596 0.0
C2415 C 0.79322 0.12331 0.80039 0.0
C2416 C 0.77492 0.12202 0.77918 0.0
C2417 C 0.72179 0.12265 0.71743 0.0
C2418 C 0.74014 0.12166 0.73848 0.0
H2419 H 0.83372 0.14263 0.78066 0.0
H2420 H 0.80368 0.1414 0.74956 0.0
H2421 H 0.76047 0.12061 0.84261 0.0
H2422 H 0.69799 0.1096 0.62313 0.0
H2423 H 0.72816 0.10774 0.65614 0.0
C2424 C 0.86368 0.56479 0.10519 0.0
C2425 C 0.87442 0.5783 0.08656 0.0
C2426 C 0.86381 0.54741 0.08654 0.0
C2427 C 0.89147 0.51658 0.01843 0.0
H2428 H 0.84687 0.49284 0.98698 0.0
C2429 C 0.8879 0.44225 0.96547 0.0
C2430 C 0.8772 0.4376 0.92779 0.0
C2431 C 0.88757 0.45958 0.9834 0.0
C2432 C 0.85942 0.49937 0.99532 0.0
H2433 H 0.89417 0.58407 0.03506 0.0
H2434 H 0.89467 0.55392 1.00352 0.0
H2435 H 0.84628 0.52232 0.02425 0.0
H2436 H 0.85784 0.44757 0.87908 0.0
H2437 H 0.85704 0.4781 0.91111 0.0
H2438 H 0.90465 0.49371 0.9899 0.0
C2439 C 0.88601 0.55666 0.03205 0.0
C2440 C 0.85908 0.51613 0.01715 0.0
C2441 C 0.88566 0.57398 0.05005 0.0
C2442 C 0.86629 0.45081 0.90797 0.0
C2443 C 0.86573 0.46819 0.92653 0.0
C2444 C 0.89181 0.49979 0.99725 0.0
C2445 C 0.87496 0.54319 0.04962 0.0
C2446 C 0.87512 0.52496 0.02876 0.0
C2447 C 0.87635 0.47273 0.96458 0.0
C2448 C 0.8758 0.49097 0.98533 0.0
H2449 H 0.85483 0.56778 0.13316 0.0
H2450 H 0.85523 0.53726 0.10101 0.0
H2451 H 0.90406 0.523 0.02704 0.0
H2452 H 0.89652 0.43241 0.98143 0.0
H2453 H 0.89582 0.46257 0.01283 0.0
C2454 C 0.19657 0.11252 0.82519 0.0
C2455 C 0.18831 0.12837 0.84031 0.0
C2456 C 0.21374 0.11292 0.80635 0.0
C2457 C 0.24468 0.14193 0.74516 0.0
H2458 H 0.28133 0.10848 0.78404 0.0
C2459 C 0.31754 0.14556 0.67683 0.0
C2460 C 0.32748 0.12962 0.67368 0.0
C2461 C 0.30054 0.14565 0.69685 0.0
C2462 C 0.27122 0.11774 0.77197 0.0
H2463 H 0.19181 0.157 0.84863 0.0
H2464 H 0.22172 0.15775 0.81481 0.0
H2465 H 0.25205 0.10806 0.81994 0.0
H2466 H 0.3269 0.10109 0.68646 0.0
H2467 H 0.29718 0.10104 0.71974 0.0
H2468 H 0.26347 0.15125 0.6961 0.0
C2469 C 0.21485 0.14503 0.81746 0.0
C2470 C 0.25443 0.11755 0.79295 0.0
C2471 C 0.19777 0.14459 0.83702 0.0
C2472 C 0.31973 0.11367 0.68923 0.0
C2473 C 0.30268 0.11369 0.7087 0.0
C2474 C 0.26138 0.14193 0.72358 0.0
C2475 C 0.22299 0.12921 0.80168 0.0
C2476 C 0.24097 0.12965 0.77986 0.0
C2477 C 0.29289 0.12973 0.71362 0.0
C2478 C 0.27496 0.12982 0.73659 0.0
H2479 H 0.1897 0.09979 0.82775 0.0
H2480 H 0.21962 0.10052 0.79445 0.0
H2481 H 0.23451 0.1513 0.73395 0.0
H2482 H 0.32314 0.15808 0.66503 0.0
H2483 H 0.29366 0.15834 0.70019 0.0
C2484 C 0.62648 0.56833 0.45589 0.0
C2485 C 0.63898 0.57353 0.42316 0.0
C2486 C 0.62656 0.55097 0.47341 0.0
C2487 C 0.64579 0.50488 0.45762 0.0
H2488 H 0.63262 0.50048 0.58413 0.0
C2489 C 0.65715 0.44027 0.56464 0.0
C2490 C 0.64232 0.43425 0.5895 0.0
C2491 C 0.65684 0.45698 0.54314 0.0
C2492 C 0.63622 0.50146 0.5487 0.0
H2493 H 0.66115 0.5645 0.38216 0.0
H2494 H 0.66184 0.53422 0.41395 0.0
H2495 H 0.63207 0.52974 0.54826 0.0
H2496 H 0.61561 0.44127 0.61148 0.0
H2497 H 0.61541 0.4708 0.57599 0.0
H2498 H 0.65054 0.47649 0.45915 0.0
C2499 C 0.65162 0.54342 0.42546 0.0
C2500 C 0.6358 0.51827 0.52784 0.0
C2501 C 0.65128 0.56079 0.40717 0.0
C2502 C 0.62736 0.44557 0.59331 0.0
C2503 C 0.6272 0.46245 0.57266 0.0
C2504 C 0.64649 0.48808 0.4788 0.0
C2505 C 0.63945 0.53834 0.45956 0.0
C2506 C 0.64037 0.52027 0.48177 0.0
C2507 C 0.64187 0.46829 0.54694 0.0
C2508 C 0.64156 0.48616 0.52449 0.0
H2509 H 0.61667 0.57781 0.46837 0.0
H2510 H 0.61653 0.54756 0.49826 0.0
H2511 H 0.64921 0.5057 0.42208 0.0
H2512 H 0.66908 0.4321 0.56199 0.0
H2513 H 0.66845 0.46119 0.52412 0.0
C2514 C 0.32344 0.90262 0.31277 0.0
C2515 C 0.32946 0.88782 0.33801 0.0
C2516 C 0.30649 0.90264 0.29214 0.0
C2517 C 0.26878 0.87162 0.25941 0.0
H2518 H 0.24373 0.91623 0.23654 0.0
C2519 C 0.19373 0.87594 0.20907 0.0
C2520 C 0.18892 0.88724 0.1729 0.0
C2521 C 0.21124 0.87572 0.2262 0.0
C2522 C 0.25066 0.90368 0.24225 0.0
H2523 H 0.32165 0.86187 0.36384 0.0
H2524 H 0.2917 0.86233 0.33063 0.0
H2525 H 0.27258 0.91671 0.27566 0.0
H2526 H 0.19882 0.90708 0.12603 0.0
H2527 H 0.22956 0.9071 0.15704 0.0
H2528 H 0.24627 0.85865 0.2277 0.0
C2529 C 0.30042 0.87362 0.3245 0.0
C2530 C 0.2673 0.9039 0.26466 0.0
C2531 C 0.31759 0.87345 0.3443 0.0
C2532 C 0.20215 0.89819 0.15377 0.0
C2533 C 0.21968 0.89827 0.17171 0.0
C2534 C 0.25198 0.8714 0.2378 0.0
C2535 C 0.29469 0.88807 0.29722 0.0
C2536 C 0.2767 0.88787 0.27368 0.0
C2537 C 0.22438 0.88706 0.20827 0.0
C2538 C 0.24271 0.88742 0.22894 0.0
H2539 H 0.33204 0.91413 0.30795 0.0
H2540 H 0.30291 0.91398 0.27123 0.0
H2541 H 0.27559 0.85898 0.26443 0.0
H2542 H 0.18387 0.86726 0.2244 0.0
H2543 H 0.21437 0.86701 0.25447 0.0
C2544 C 0.61972 0.94544 0.44541 0.0
C2545 C 0.6334 0.93973 0.41631 0.0
C2546 C 0.61967 0.96281 0.46327 0.0
C2547 C 0.64106 1.00812 0.45436 0.0
H2548 H 0.62409 0.01262 0.57796 0.0
C2549 C 0.65147 0.07237 0.56343 0.0
C2550 C 0.63635 0.07895 0.58634 0.0
C2551 C 0.65116 0.05554 0.54226 0.0
C2552 C 0.62874 0.01163 0.54332 0.0
H2553 H 0.65751 0.94789 0.3819 0.0
H2554 H 0.65781 0.97822 0.41404 0.0
H2555 H 0.62347 0.98354 0.54044 0.0
H2556 H 0.60935 0.0724 0.6071 0.0
H2557 H 0.60902 0.04275 0.57148 0.0
H2558 H 0.6468 0.03628 0.4582 0.0
C2559 C 0.64683 0.96941 0.42244 0.0
C2560 C 0.62831 0.99493 0.52153 0.0
C2561 C 0.64668 0.95203 0.40385 0.0
C2562 C 0.62121 0.06783 0.58957 0.0
C2563 C 0.62101 0.05084 0.56908 0.0
C2564 C 0.6417 0.02482 0.47644 0.0
C2565 C 0.63352 0.97493 0.45333 0.0
C2566 C 0.6343 0.99289 0.47651 0.0
C2567 C 0.63588 0.0446 0.54446 0.0
C2568 C 0.63545 0.0268 0.52112 0.0
H2569 H 0.60922 0.93626 0.4553 0.0
H2570 H 0.60884 0.96659 0.48557 0.0
H2571 H 0.6456 1.00727 0.41964 0.0
H2572 H 0.66361 0.08025 0.56179 0.0
H2573 H 0.66298 0.051 0.52449 0.0
C2574 C 0.19797 0.37475 0.8413 0.0
C2575 C 0.18666 0.38971 0.83694 0.0
C2576 C 0.21478 0.37446 0.82044 0.0
C2577 C 0.24878 0.40382 0.76439 0.0
H2578 H 0.26498 0.35879 0.71313 0.0
C2579 C 0.31209 0.39866 0.65122 0.0
C2580 C 0.32419 0.38516 0.6641 0.0
C2581 C 0.29477 0.39912 0.66947 0.0
C2582 C 0.26067 0.37146 0.72737 0.0
H2583 H 0.18456 0.41642 0.80878 0.0
H2584 H 0.21345 0.41571 0.77129 0.0
H2585 H 0.23645 0.36007 0.75265 0.0
H2586 H 0.32743 0.36109 0.70406 0.0
H2587 H 0.2972 0.36162 0.7349 0.0
H2588 H 0.27301 0.41518 0.73843 0.0
C2589 C 0.20956 0.40425 0.79131 0.0
C2590 C 0.24434 0.37219 0.7504 0.0
C2591 C 0.19286 0.40461 0.81259 0.0
C2592 C 0.31836 0.37166 0.69357 0.0
C2593 C 0.30103 0.37194 0.71117 0.0
C2594 C 0.26504 0.40311 0.74096 0.0
C2595 C 0.22071 0.38907 0.79435 0.0
C2596 C 0.23818 0.38835 0.76961 0.0
C2597 C 0.28913 0.38588 0.70018 0.0
C2598 C 0.27126 0.38689 0.72244 0.0
H2599 H 0.19366 0.36306 0.85989 0.0
H2600 H 0.22309 0.36269 0.8246 0.0
H2601 H 0.24472 0.41646 0.77918 0.0
H2602 H 0.3163 0.40931 0.62885 0.0
H2603 H 0.28587 0.40995 0.66004 0.0
C2604 C 0.87084 0.94419 0.04955 0.0
C2605 C 0.87194 0.9409 0.09657 0.0
C2606 C 0.8702 0.96163 0.03266 0.0
C2607 C 0.88444 1.0072 0.05585 0.0
H2608 H 0.84957 0.0202 0.96364 0.0
C2609 C 0.88382 0.07827 0.97716 0.0
C2610 C 0.87885 0.08014 0.93126 0.0
C2611 C 0.88175 0.06191 0.99963 0.0
C2612 C 0.85962 0.01681 0.98879 0.0
H2613 H 0.87238 0.95384 0.16258 0.0
H2614 H 0.87212 0.98449 0.13267 0.0
H2615 H 0.84812 0.99081 0.99905 0.0
H2616 H 0.86708 0.06627 0.87395 0.0
H2617 H 0.86453 0.0375 0.91167 0.0
H2618 H 0.89658 0.03269 0.04429 0.0
C2619 C 0.87176 0.97332 0.10913 0.0
C2620 C 0.85865 0.99996 1.00943 0.0
C2621 C 0.87199 0.95574 0.12624 0.0
C2622 C 0.87145 0.06525 0.90878 0.0
C2623 C 0.8697 0.04875 0.93094 0.0
C2624 C 0.88563 0.02395 0.03464 0.0
C2625 C 0.87088 0.97643 0.06208 0.0
C2626 C 0.8711 0.9949 0.043 0.0
C2627 C 0.87488 0.04676 0.97679 0.0
C2628 C 0.8733 0.02902 1.00049 0.0
H2629 H 0.8706 0.93326 0.02531 0.0
H2630 H 0.86962 0.96355 0.99627 0.0
H2631 H 0.89438 1.0036 0.08116 0.0
H2632 H 0.88931 0.08949 0.99602 0.0
H2633 H 0.88546 0.06125 0.03513 0.0
C2634 C 0.19965 0.61902 0.15537 0.0
C2635 C 0.18736 0.63207 0.16979 0.0
C2636 C 0.21692 0.61829 0.17462 0.0
C2637 C 0.25034 0.6455 0.23775 0.0
H2638 H 0.26901 0.59991 0.27951 0.0
C2639 C 0.32368 0.63649 0.29363 0.0
C2640 C 0.32753 0.62651 0.33292 0.0
C2641 C 0.30638 0.63716 0.27563 0.0
C2642 C 0.2639 0.61275 0.26836 0.0
H2643 H 0.1837 0.65503 0.21386 0.0
H2644 H 0.21376 0.6541 0.24633 0.0
H2645 H 0.23976 0.60114 0.24116 0.0
H2646 H 0.316 0.60954 0.38442 0.0
H2647 H 0.28543 0.61053 0.35231 0.0
H2648 H 0.27437 0.65715 0.26473 0.0
C2649 C 0.21016 0.64431 0.22064 0.0
C2650 C 0.24727 0.61342 0.24585 0.0
C2651 C 0.19292 0.64486 0.20201 0.0
C2652 C 0.31346 0.61737 0.3542 0.0
C2653 C 0.29602 0.61783 0.33562 0.0
C2654 C 0.26698 0.6448 0.25977 0.0
C2655 C 0.22229 0.63083 0.20793 0.0
C2656 C 0.24028 0.62983 0.23027 0.0
C2657 C 0.29232 0.62776 0.29604 0.0
C2658 C 0.27403 0.62843 0.27526 0.0
H2659 H 0.19563 0.60888 0.13097 0.0
H2660 H 0.22601 0.60784 0.16378 0.0
H2661 H 0.24542 0.65834 0.2261 0.0
H2662 H 0.33412 0.64384 0.27645 0.0
H2663 H 0.30408 0.6448 0.24498 0.0
C2664 C 0.38758 0.94234 0.46265 0.0
C2665 C 0.37691 0.9378 0.42482 0.0
C2666 C 0.38735 0.95964 0.48076 0.0
C2667 C 0.35959 0.99972 0.49303 0.0
H2668 H 0.40447 0.02283 0.52499 0.0
C2669 C 0.36462 0.06491 0.60399 0.0
C2670 C 0.37551 0.07835 0.58556 0.0
C2671 C 0.36452 0.04757 0.58501 0.0
C2672 C 0.39182 0.01657 0.51632 0.0
H2673 H 0.35769 0.94799 0.37606 0.0
H2674 H 0.35704 0.97849 0.40845 0.0
H2675 H 0.40475 0.99361 0.48751 0.0
H2676 H 0.39528 0.08401 0.53405 0.0
H2677 H 0.39541 0.05393 0.50199 0.0
H2678 H 0.34669 0.02274 0.5223 0.0
C2679 C 0.36564 0.9685 0.42384 0.0
C2680 C 0.39198 0.9998 0.49493 0.0
C2681 C 0.36611 0.95113 0.40507 0.0
C2682 C 0.38666 0.07398 0.54891 0.0
C2683 C 0.3868 0.05669 0.5306 0.0
C2684 C 0.35943 0.01644 0.51509 0.0
C2685 C 0.37626 0.97292 0.46201 0.0
C2686 C 0.37589 0.99116 0.48291 0.0
C2687 C 0.3756 0.04331 0.54796 0.0
C2688 C 0.37556 0.0251 0.5268 0.0
H2689 H 0.39613 0.93242 0.47857 0.0
H2690 H 0.39561 0.96253 0.51026 0.0
H2691 H 0.34697 0.99333 0.48462 0.0
H2692 H 0.35583 0.06793 0.63206 0.0
H2693 H 0.35583 0.03749 0.59934 0.0
C2694 C 0.81819 0.61342 0.18845 0.0
C2695 C 0.82606 0.6295 0.17405 0.0
C2696 C 0.80099 0.61334 0.20706 0.0
C2697 C 0.76932 0.64136 0.26908 0.0
H2698 H 0.73364 0.60701 0.2289 0.0
C2699 C 0.69639 0.6428 0.33674 0.0
C2700 C 0.68702 0.62654 0.33978 0.0
C2701 C 0.71337 0.64341 0.31683 0.0
C2702 C 0.74349 0.61651 0.24127 0.0
H2703 H 0.82188 0.65807 0.16676 0.0
H2704 H 0.79188 0.65798 0.20015 0.0
H2705 H 0.7629 0.60754 0.19288 0.0
H2706 H 0.68856 0.59801 0.32698 0.0
H2707 H 0.7183 0.59888 0.29376 0.0
H2708 H 0.75029 0.64998 0.31854 0.0
C2709 C 0.79908 0.64545 0.19711 0.0
C2710 C 0.76025 0.61687 0.22026 0.0
C2711 C 0.8162 0.64548 0.1778 0.0
C2712 C 0.69531 0.61081 0.32427 0.0
C2713 C 0.71235 0.61136 0.30488 0.0
C2714 C 0.75265 0.64082 0.29067 0.0
C2715 C 0.79133 0.62938 0.21218 0.0
C2716 C 0.77336 0.6293 0.23387 0.0
C2717 C 0.72156 0.62771 0.30007 0.0
C2718 C 0.73945 0.62836 0.27715 0.0
H2719 H 0.82539 0.60087 0.18555 0.0
H2720 H 0.79541 0.60077 0.21846 0.0
H2721 H 0.77924 0.65096 0.28069 0.0
H2722 H 0.69036 0.65515 0.34855 0.0
H2723 H 0.71984 0.65631 0.31356 0.0
C2724 C 0.12713 0.07112 0.95873 0.0
C2725 C 0.13951 0.07584 0.9252 0.0
C2726 C 0.12674 0.05378 0.97643 0.0
C2727 C 0.14408 1.00696 0.95954 0.0
H2728 H 0.13144 1.00279 0.08647 0.0
C2729 C 0.15398 0.94161 0.0636 0.0
C2730 C 0.13904 0.93567 0.08819 0.0
C2731 C 0.15412 0.95859 0.04353 0.0
C2732 C 0.13488 1.00371 0.05092 0.0
H2733 H 0.16096 0.06596 0.88306 0.0
H2734 H 0.16084 0.0357 0.91509 0.0
H2735 H 0.13173 0.03213 0.0509 0.0
H2736 H 0.11291 0.94351 0.11303 0.0
H2737 H 0.11349 0.97346 0.0796 0.0
H2738 H 0.14783 0.97843 0.96058 0.0
C2739 C 0.15107 0.04528 0.92714 0.0
C2740 C 0.13495 0.02057 0.03022 0.0
C2741 C 0.1512 0.06265 0.90871 0.0
C2742 C 0.12463 0.94757 0.09423 0.0
C2743 C 0.12493 0.96473 0.07496 0.0
C2744 C 0.14429 0.99011 0.98053 0.0
C2745 C 0.13901 0.04065 0.96193 0.0
C2746 C 0.13937 0.02251 0.98402 0.0
C2747 C 0.13955 0.97032 0.04863 0.0
C2748 C 0.13957 0.98827 0.02641 0.0
H2749 H 0.11774 0.08094 0.97163 0.0
H2750 H 0.1168 0.05077 1.00182 0.0
H2751 H 0.14733 1.00771 0.92388 0.0
H2752 H 0.16553 0.93301 0.05923 0.0
H2753 H 0.16572 0.9626 0.02418 0.0
C2754 C 0.70336 0.39501 0.65303 0.0
C2755 C 0.6913 0.38164 0.66642 0.0
C2756 C 0.7208 0.39549 0.67121 0.0
C2757 C 0.75513 0.368 0.73021 0.0
H2758 H 0.77161 0.41327 0.77987 0.0
C2759 C 0.81846 0.37182 0.84424 0.0
C2760 C 0.82978 0.38672 0.83937 0.0
C2761 C 0.80157 0.37142 0.82316 0.0
C2762 C 0.76741 0.40055 0.76568 0.0
H2763 H 0.68823 0.3578 0.7072 0.0
H2764 H 0.71863 0.35836 0.73796 0.0
H2765 H 0.74308 0.41187 0.73925 0.0
H2766 H 0.8318 0.41321 0.80996 0.0
H2767 H 0.80281 0.41228 0.77205 0.0
H2768 H 0.77944 0.35665 0.75601 0.0
C2769 C 0.7147 0.36857 0.71387 0.0
C2770 C 0.751 0.39977 0.74231 0.0
C2771 C 0.69727 0.36826 0.69632 0.0
C2772 C 0.82351 0.40144 0.81418 0.0
C2773 C 0.80675 0.40096 0.79266 0.0
C2774 C 0.77161 0.3688 0.75318 0.0
C2775 C 0.72658 0.3824 0.70237 0.0
C2776 C 0.74459 0.38346 0.72456 0.0
C2777 C 0.79557 0.38586 0.79633 0.0
C2778 C 0.77796 0.38506 0.77161 0.0
H2779 H 0.69904 0.40555 0.6303 0.0
H2780 H 0.72968 0.40623 0.66136 0.0
H2781 H 0.75068 0.35525 0.71657 0.0
H2782 H 0.82279 0.36027 0.86352 0.0
H2783 H 0.79325 0.35971 0.82781 0.0
loop_
_geom_bond_atom_site_label_1
_geom_bond_atom_site_label_2
_geom_bond_distance
_geom_bond_site_symmetry_2
_ccdc_geom_bond_type
C0 C2 1.422 . S
C0 C4 1.415 . S
C0 N6 1.369 . S
C1 C2 1.421 . S
C1 C3 1.417 . S
C1 C13 1.422 . S
C2 C0 1.422 . S
C2 C1 1.421 . S
C2 N12 1.359 . S
C3 C1 1.417 . S
C3 C5 1.329 . S
C3 H22 0.930 . S
C4 C0 1.415 . S
C4 C5 1.437 . S
C4 C8 1.413 . S
C5 C3 1.329 . S
C5 C4 1.437 . S
C5 H27 0.929 . S
N6 C0 1.369 . S
N6 C7 1.338 . S
N6 Gd11 2.622 . S
C7 N6 1.338 . S
C7 C9 1.378 . S
C7 H19 0.929 . S
C8 C4 1.413 . S
C8 C9 1.348 . S
C8 H24 0.931 . S
C9 C7 1.378 . S
C9 C8 1.348 . S
C9 H25 0.930 . S
Gd10 N30 2.622 . S
Gd10 N37 2.570 . S
Gd10 O44 2.353 . S
Gd10 O45 2.468 1_554 S
Gd10 O46 2.427 1_554 S
Gd10 O48 2.388 . S
Gd10 O49 2.386 . S
Gd10 O53 2.307 . S
Gd10 C63 2.805 1_554 S
Gd11 N6 2.622 . S
Gd11 N12 2.570 . S
Gd11 O43 2.386 . S
Gd11 O47 2.307 . S
Gd11 O50 2.353 . S
Gd11 O51 2.468 . S
Gd11 O52 2.427 . S
Gd11 O54 2.388 . S
Gd11 C75 2.805 . S
N12 C2 1.359 . S
N12 Gd11 2.570 . S
N12 C14 1.343 . S
C13 C1 1.422 . S
C13 C15 1.321 . S
C13 H21 0.931 . S
C14 N12 1.343 . S
C14 C15 1.390 . S
C14 H16 0.931 . S
C15 C13 1.321 . S
C15 C14 1.390 . S
C15 H17 0.930 . S
H16 C14 0.931 . S
H17 C15 0.930 . S
H18 C41 0.931 . S
H19 C7 0.929 . S
H20 C42 0.930 . S
H21 C13 0.931 . S
H22 C3 0.930 . S
H23 C32 0.929 . S
H24 C8 0.931 . S
H25 C9 0.930 . S
H26 C64 0.930 1_556 S
H27 C5 0.929 . S
H28 C33 0.931 . S
H29 C34 0.930 . S
N30 Gd10 2.622 . S
N30 C31 1.369 . S
N30 C32 1.338 . S
C31 N30 1.369 . S
C31 C35 1.415 . S
C31 C38 1.422 . S
C32 H23 0.929 . S
C32 N30 1.338 . S
C32 C34 1.378 . S
C33 H28 0.931 . S
C33 C34 1.348 . S
C33 C35 1.413 . S
C34 H29 0.930 . S
C34 C32 1.378 . S
C34 C33 1.348 . S
C35 C31 1.415 . S
C35 C33 1.413 . S
C35 C65 1.437 . S
H36 C65 0.929 . S
N37 Gd10 2.570 . S
N37 C38 1.359 . S
N37 C41 1.343 . S
C38 C31 1.422 . S
C38 N37 1.359 . S
C38 C40 1.421 . S
C39 C40 1.422 . S
C39 C42 1.321 . S
C39 H66 0.931 1_554 S
C40 C38 1.421 . S
C40 C39 1.422 . S
C40 C64 1.417 . S
C41 H18 0.931 . S
C41 N37 1.343 . S
C41 C42 1.390 . S
C42 H20 0.930 . S
C42 C39 1.321 . S
C42 C41 1.390 . S
O43 Gd11 2.386 . S
O43 C55 1.265 . S
O44 Gd10 2.353 . S
O44 C55 1.242 . S
O45 Gd10 2.468 1_556 S
O45 C63 1.263 . S
O46 Gd10 2.427 1_556 S
O46 C63 1.252 . S
O47 Gd11 2.307 . S
O47 C56 1.261 . S
O48 Gd10 2.388 . S
O48 C56 1.252 . S
O49 Gd10 2.386 . S
O49 C67 1.265 . S
O50 Gd11 2.353 . S
O50 C67 1.242 . S
O51 Gd11 2.468 . S
O51 C75 1.263 . S
O52 Gd11 2.427 . S
O52 C75 1.252 . S
O53 Gd10 2.307 . S
O53 C68 1.261 . S
O54 Gd11 2.388 . S
O54 C68 1.252 . S
C55 O43 1.265 . S
C55 O44 1.242 . S
C56 O47 1.261 . S
C56 O48 1.252 . S
C57 C60 1.394 . S
C57 C62 1.370 . S
C57 C63 1.500 . S
C58 C61 1.383 . S
C58 C62 1.395 . S
C59 C60 1.396 . S
C59 C61 1.365 . S
C59 H76 0.929 . S
C60 C57 1.394 . S
C60 C59 1.396 . S
C60 H77 0.930 . S
C61 C58 1.383 . S
C61 C59 1.365 . S
C61 H78 0.931 . S
C62 C57 1.370 . S
C62 C58 1.395 . S
C62 H79 0.930 . S
C63 Gd10 2.805 1_556 S
C63 O45 1.263 . S
C63 O46 1.252 . S
C63 C57 1.500 . S
C64 H26 0.930 1_554 S
C64 C40 1.417 . S
C64 C65 1.329 . S
C65 C35 1.437 . S
C65 H36 0.929 . S
C65 C64 1.329 . S
H66 C39 0.931 1_556 S
C67 O49 1.265 . S
C67 O50 1.242 . S
C68 O53 1.261 . S
C68 O54 1.252 . S
C69 C72 1.394 . S
C69 C74 1.370 . S
C69 C75 1.500 . S
C70 C73 1.383 . S
C70 C74 1.395 . S
C71 C72 1.396 . S
C71 C73 1.365 . S
C71 H80 0.929 . S
C72 C69 1.394 . S
C72 C71 1.396 . S
C72 H81 0.930 . S
C73 C70 1.383 . S
C73 C71 1.365 . S
C73 H82 0.931 . S
C74 C69 1.370 . S
C74 C70 1.395 . S
C74 H83 0.930 . S
C75 Gd11 2.805 . S
C75 O51 1.263 . S
C75 O52 1.252 . S
C75 C69 1.500 . S
H76 C59 0.929 . S
H77 C60 0.930 . S
H78 C61 0.931 . S
H79 C62 0.930 . S
H80 C71 0.929 . S
H81 C72 0.930 . S
H82 C73 0.931 . S
H83 C74 0.930 . S
C84 C86 1.422 . S
C84 C88 1.415 . S
C84 N90 1.369 . S
C85 C86 1.421 . S
C85 C87 1.417 . S
C85 C97 1.422 . S
C86 C84 1.422 . S
C86 C85 1.421 . S
C86 N96 1.359 . S
C87 C85 1.417 . S
C87 C89 1.329 . S
C87 H106 0.930 . S
C88 C84 1.415 . S
C88 C89 1.437 . S
C88 C92 1.413 . S
C89 C87 1.329 . S
C89 C88 1.437 . S
C89 H111 0.929 . S
N90 C84 1.369 . S
N90 C91 1.338 . S
N90 Gd95 2.622 . S
C91 N90 1.338 . S
C91 C93 1.378 . S
C91 H103 0.929 . S
C92 C88 1.413 . S
C92 C93 1.348 . S
C92 H108 0.931 . S
C93 C91 1.378 . S
C93 C92 1.348 . S
C93 H109 0.930 . S
Gd94 N114 2.622 . S
Gd94 N121 2.570 . S
Gd94 O128 2.353 . S
Gd94 O129 2.468 . S
Gd94 O130 2.427 . S
Gd94 O132 2.388 . S
Gd94 O133 2.386 . S
Gd94 O137 2.307 . S
Gd94 C147 2.805 . S
Gd95 N90 2.622 . S
Gd95 N96 2.570 . S
Gd95 O127 2.386 . S
Gd95 O131 2.307 . S
Gd95 O134 2.353 . S
Gd95 O135 2.468 . S
Gd95 O136 2.427 . S
Gd95 O138 2.388 . S
Gd95 C159 2.805 . S
N96 C86 1.359 . S
N96 Gd95 2.570 . S
N96 C98 1.343 . S
C97 C85 1.422 . S
C97 C99 1.321 . S
C97 H105 0.931 . S
C98 N96 1.343 . S
C98 C99 1.390 . S
C98 H100 0.931 . S
C99 C97 1.321 . S
C99 C98 1.390 . S
C99 H101 0.930 . S
H100 C98 0.931 . S
H101 C99 0.930 . S
H102 C125 0.931 . S
H103 C91 0.929 . S
H104 C126 0.930 . S
H105 C97 0.931 . S
H106 C87 0.930 . S
H107 C116 0.929 . S
H108 C92 0.931 . S
H109 C93 0.930 . S
H110 C148 0.930 . S
H111 C89 0.929 . S
H112 C117 0.931 . S
H113 C118 0.930 . S
N114 Gd94 2.622 . S
N114 C115 1.369 . S
N114 C116 1.338 . S
C115 N114 1.369 . S
C115 C119 1.415 . S
C115 C122 1.422 . S
C116 H107 0.929 . S
C116 N114 1.338 . S
C116 C118 1.378 . S
C117 H112 0.931 . S
C117 C118 1.348 . S
C117 C119 1.413 . S
C118 H113 0.930 . S
C118 C116 1.378 . S
C118 C117 1.348 . S
C119 C115 1.415 . S
C119 C117 1.413 . S
C119 C149 1.437 . S
H120 C149 0.929 . S
N121 Gd94 2.570 . S
N121 C122 1.359 . S
N121 C125 1.343 . S
C122 C115 1.422 . S
C122 N121 1.359 . S
C122 C124 1.421 . S
C123 C124 1.422 . S
C123 C126 1.321 . S
C123 H150 0.931 . S
C124 C122 1.421 . S
C124 C123 1.422 . S
C124 C148 1.417 . S
C125 H102 0.931 . S
C125 N121 1.343 . S
C125 C126 1.390 . S
C126 H104 0.930 . S
C126 C123 1.321 . S
C126 C125 1.390 . S
O127 Gd95 2.386 . S
O127 C139 1.265 . S
O128 Gd94 2.353 . S
O128 C139 1.242 . S
O129 Gd94 2.468 . S
O129 C147 1.263 . S
O130 Gd94 2.427 . S
O130 C147 1.252 . S
O131 Gd95 2.307 . S
O131 C140 1.261 . S
O132 Gd94 2.388 . S
O132 C140 1.252 . S
O133 Gd94 2.386 . S
O133 C151 1.265 . S
O134 Gd95 2.353 . S
O134 C151 1.242 . S
O135 Gd95 2.468 . S
O135 C159 1.263 . S
O136 Gd95 2.427 . S
O136 C159 1.252 . S
O137 Gd94 2.307 . S
O137 C152 1.261 . S
O138 Gd95 2.388 . S
O138 C152 1.252 . S
C139 O127 1.265 . S
C139 O128 1.242 . S
C140 O131 1.261 . S
C140 O132 1.252 . S
C141 C144 1.394 . S
C141 C146 1.370 . S
C141 C147 1.500 . S
C142 C145 1.383 . S
C142 C146 1.395 . S
C143 C144 1.396 . S
C143 C145 1.365 . S
C143 H160 0.929 . S
C144 C141 1.394 . S
C144 C143 1.396 . S
C144 H161 0.930 . S
C145 C142 1.383 . S
C145 C143 1.365 . S
C145 H162 0.931 . S
C146 C141 1.370 . S
C146 C142 1.395 . S
C146 H163 0.930 . S
C147 Gd94 2.805 . S
C147 O129 1.263 . S
C147 O130 1.252 . S
C147 C141 1.500 . S
C148 H110 0.930 . S
C148 C124 1.417 . S
C148 C149 1.329 . S
C149 C119 1.437 . S
C149 H120 0.929 . S
C149 C148 1.329 . S
H150 C123 0.931 . S
C151 O133 1.265 . S
C151 O134 1.242 . S
C152 O137 1.261 . S
C152 O138 1.252 . S
C153 C156 1.394 . S
C153 C158 1.370 . S
C153 C159 1.500 . S
C154 C157 1.383 . S
C154 C158 1.395 . S
C155 C156 1.396 . S
C155 C157 1.365 . S
C155 H164 0.929 . S
C156 C153 1.394 . S
C156 C155 1.396 . S
C156 H165 0.930 . S
C157 C154 1.383 . S
C157 C155 1.365 . S
C157 H166 0.931 . S
C158 C153 1.370 . S
C158 C154 1.395 . S
C158 H167 0.930 . S
C159 Gd95 2.805 . S
C159 O135 1.263 . S
C159 O136 1.252 . S
C159 C153 1.500 . S
H160 C143 0.929 . S
H161 C144 0.930 . S
H162 C145 0.931 . S
H163 C146 0.930 . S
H164 C155 0.929 . S
H165 C156 0.930 . S
H166 C157 0.931 . S
H167 C158 0.930 . S
C168 C170 1.422 . S
C168 C172 1.415 . S
C168 N174 1.369 . S
C169 C170 1.421 . S
C169 C171 1.417 . S
C169 C181 1.422 . S
C170 C168 1.422 . S
C170 C169 1.421 . S
C170 N180 1.359 . S
C171 C169 1.417 . S
C171 C173 1.329 . S
C171 H190 0.930 . S
C172 C168 1.415 . S
C172 C173 1.437 . S
C172 C176 1.413 . S
C173 C171 1.329 . S
C173 C172 1.437 . S
C173 H195 0.929 . S
N174 C168 1.369 . S
N174 C175 1.338 . S
N174 Gd179 2.622 . S
C175 N174 1.338 . S
C175 C177 1.378 . S
C175 H187 0.929 . S
C176 C172 1.413 . S
C176 C177 1.348 . S
C176 H192 0.931 . S
C177 C175 1.378 . S
C177 C176 1.348 . S
C177 H193 0.930 . S
Gd178 N198 2.622 . S
Gd178 N205 2.570 . S
Gd178 O212 2.353 . S
Gd178 O213 2.468 . S
Gd178 O214 2.427 . S
Gd178 O216 2.388 . S
Gd178 O217 2.386 . S
Gd178 O221 2.307 . S
Gd178 C231 2.805 . S
Gd179 N174 2.622 . S
Gd179 N180 2.570 . S
Gd179 O211 2.386 . S
Gd179 O215 2.307 . S
Gd179 O218 2.353 . S
Gd179 O219 2.468 . S
Gd179 O220 2.427 . S
Gd179 O222 2.388 . S
Gd179 C243 2.805 . S
N180 C170 1.359 . S
N180 Gd179 2.570 . S
N180 C182 1.343 . S
C181 C169 1.422 . S
C181 C183 1.321 . S
C181 H189 0.931 . S
C182 N180 1.343 . S
C182 C183 1.390 . S
C182 H184 0.931 . S
C183 C181 1.321 . S
C183 C182 1.390 . S
C183 H185 0.930 . S
H184 C182 0.931 . S
H185 C183 0.930 . S
H186 C209 0.931 . S
H187 C175 0.929 . S
H188 C210 0.930 . S
H189 C181 0.931 . S
H190 C171 0.930 . S
H191 C200 0.929 . S
H192 C176 0.931 . S
H193 C177 0.930 . S
H194 C232 0.930 . S
H195 C173 0.929 . S
H196 C201 0.931 . S
H197 C202 0.930 . S
N198 Gd178 2.622 . S
N198 C199 1.369 . S
N198 C200 1.338 . S
C199 N198 1.369 . S
C199 C203 1.415 . S
C199 C206 1.422 . S
C200 H191 0.929 . S
C200 N198 1.338 . S
C200 C202 1.378 . S
C201 H196 0.931 . S
C201 C202 1.348 . S
C201 C203 1.413 . S
C202 H197 0.930 . S
C202 C200 1.378 . S
C202 C201 1.348 . S
C203 C199 1.415 . S
C203 C201 1.413 . S
C203 C233 1.437 . S
H204 C233 0.929 . S
N205 Gd178 2.570 . S
N205 C206 1.359 . S
N205 C209 1.343 . S
C206 C199 1.422 . S
C206 N205 1.359 . S
C206 C208 1.421 . S
C207 C208 1.422 . S
C207 C210 1.321 . S
C207 H234 0.931 . S
C208 C206 1.421 . S
C208 C207 1.422 . S
C208 C232 1.417 . S
C209 H186 0.931 . S
C209 N205 1.343 . S
C209 C210 1.390 . S
C210 H188 0.930 . S
C210 C207 1.321 . S
C210 C209 1.390 . S
O211 Gd179 2.386 . S
O211 C223 1.265 . S
O212 Gd178 2.353 . S
O212 C223 1.242 . S
O213 Gd178 2.468 . S
O213 C231 1.263 . S
O214 Gd178 2.427 . S
O214 C231 1.252 . S
O215 Gd179 2.307 . S
O215 C224 1.261 . S
O216 Gd178 2.388 . S
O216 C224 1.252 . S
O217 Gd178 2.386 . S
O217 C235 1.265 . S
O218 Gd179 2.353 . S
O218 C235 1.242 . S
O219 Gd179 2.468 . S
O219 C243 1.263 . S
O220 Gd179 2.427 . S
O220 C243 1.252 . S
O221 Gd178 2.307 . S
O221 C236 1.261 . S
O222 Gd179 2.388 . S
O222 C236 1.252 . S
C223 O211 1.265 . S
C223 O212 1.242 . S
C224 O215 1.261 . S
C224 O216 1.252 . S
C225 C228 1.394 . S
C225 C230 1.370 . S
C225 C231 1.500 . S
C226 C229 1.383 . S
C226 C230 1.395 . S
C227 C228 1.396 . S
C227 C229 1.365 . S
C227 H244 0.929 . S
C228 C225 1.394 . S
C228 C227 1.396 . S
C228 H245 0.930 . S
C229 C226 1.383 . S
C229 C227 1.365 . S
C229 H246 0.931 . S
C230 C225 1.370 . S
C230 C226 1.395 . S
C230 H247 0.930 . S
C231 Gd178 2.805 . S
C231 O213 1.263 . S
C231 O214 1.252 . S
C231 C225 1.500 . S
C232 H194 0.930 . S
C232 C208 1.417 . S
C232 C233 1.329 . S
C233 C203 1.437 . S
C233 H204 0.929 . S
C233 C232 1.329 . S
H234 C207 0.931 . S
C235 O217 1.265 . S
C235 O218 1.242 . S
C236 O221 1.261 . S
C236 O222 1.252 . S
C237 C240 1.394 . S
C237 C242 1.370 . S
C237 C243 1.500 . S
C238 C241 1.383 . S
C238 C242 1.395 . S
C239 C240 1.396 . S
C239 C241 1.365 . S
C239 H248 0.929 . S
C240 C237 1.394 . S
C240 C239 1.396 . S
C240 H249 0.930 . S
C241 C238 1.383 . S
C241 C239 1.365 . S
C241 H250 0.931 . S
C242 C237 1.370 . S
C242 C238 1.395 . S
C242 H251 0.930 . S
C243 Gd179 2.805 . S
C243 O219 1.263 . S
C243 O220 1.252 . S
C243 C237 1.500 . S
H244 C227 0.929 . S
H245 C228 0.930 . S
H246 C229 0.931 . S
H247 C230 0.930 . S
H248 C239 0.929 . S
H249 C240 0.930 . S
H250 C241 0.931 . S
H251 C242 0.930 . S
C252 C254 1.422 . S
C252 C256 1.415 . S
C252 N258 1.369 . S
C253 C254 1.421 . S
C253 C255 1.417 . S
C253 C265 1.422 . S
C254 C252 1.422 . S
C254 C253 1.421 . S
C254 N264 1.359 . S
C255 C253 1.417 . S
C255 C257 1.329 . S
C255 H274 0.930 . S
C256 C252 1.415 . S
C256 C257 1.437 . S
C256 C260 1.413 . S
C257 C255 1.329 . S
C257 C256 1.437 . S
C257 H279 0.929 . S
N258 C252 1.369 . S
N258 C259 1.338 . S
N258 Gd263 2.622 . S
C259 N258 1.338 . S
C259 C261 1.378 . S
C259 H271 0.929 . S
C260 C256 1.413 . S
C260 C261 1.348 . S
C260 H276 0.931 . S
C261 C259 1.378 . S
C261 C260 1.348 . S
C261 H277 0.930 . S
Gd262 N282 2.622 . S
Gd262 N289 2.570 . S
Gd262 O296 2.353 . S
Gd262 O297 2.468 1_556 S
Gd262 O298 2.427 1_556 S
Gd262 O300 2.388 . S
Gd262 O301 2.386 . S
Gd262 O305 2.307 . S
Gd262 C315 2.805 1_556 S
Gd263 N258 2.622 . S
Gd263 N264 2.570 . S
Gd263 O295 2.386 . S
Gd263 O299 2.307 . S
Gd263 O302 2.353 . S
Gd263 O303 2.468 . S
Gd263 O304 2.427 . S
Gd263 O306 2.388 . S
Gd263 C327 2.805 . S
N264 C254 1.359 . S
N264 Gd263 2.570 . S
N264 C266 1.343 . S
C265 C253 1.422 . S
C265 C267 1.321 . S
C265 H273 0.931 . S
C266 N264 1.343 . S
C266 C267 1.390 . S
C266 H268 0.931 . S
C267 C265 1.321 . S
C267 C266 1.390 . S
C267 H269 0.930 . S
H268 C266 0.931 . S
H269 C267 0.930 . S
H270 C293 0.931 . S
H271 C259 0.929 . S
H272 C294 0.932 . S
H273 C265 0.931 . S
H274 C255 0.930 . S
H275 C284 0.929 . S
H276 C260 0.931 . S
H277 C261 0.930 . S
H278 C316 0.926 1_554 S
H279 C257 0.929 . S
H280 C285 0.931 . S
H281 C286 0.930 . S
N282 Gd262 2.622 . S
N282 C283 1.369 . S
N282 C284 1.338 . S
C283 N282 1.369 . S
C283 C287 1.415 . S
C283 C290 1.422 . S
C284 H275 0.929 . S
C284 N282 1.338 . S
C284 C286 1.378 . S
C285 H280 0.931 . S
C285 C286 1.348 . S
C285 C287 1.413 . S
C286 H281 0.930 . S
C286 C284 1.378 . S
C286 C285 1.348 . S
C287 C283 1.415 . S
C287 C285 1.413 . S
C287 C317 1.437 . S
H288 C317 0.929 . S
N289 Gd262 2.570 . S
N289 C290 1.359 . S
N289 C293 1.343 . S
C290 C283 1.422 . S
C290 N289 1.359 . S
C290 C292 1.421 . S
C291 C292 1.422 1_554 S
C291 C294 1.321 1_554 S
C291 H318 0.932 . S
C292 C290 1.421 . S
C292 C291 1.422 1_556 S
C292 C316 1.419 . S
C293 H270 0.931 . S
C293 N289 1.343 . S
C293 C294 1.390 . S
C294 H272 0.932 . S
C294 C291 1.321 1_556 S
C294 C293 1.390 . S
O295 Gd263 2.386 . S
O295 C307 1.265 . S
O296 Gd262 2.353 . S
O296 C307 1.242 . S
O297 Gd262 2.468 1_554 S
O297 C315 1.263 . S
O298 Gd262 2.427 1_554 S
O298 C315 1.252 . S
O299 Gd263 2.307 . S
O299 C308 1.261 . S
O300 Gd262 2.388 . S
O300 C308 1.252 . S
O301 Gd262 2.386 . S
O301 C319 1.265 . S
O302 Gd263 2.353 . S
O302 C319 1.242 . S
O303 Gd263 2.468 . S
O303 C327 1.263 . S
O304 Gd263 2.427 . S
O304 C327 1.252 . S
O305 Gd262 2.307 . S
O305 C320 1.261 . S
O306 Gd263 2.388 . S
O306 C320 1.252 . S
C307 O295 1.265 . S
C307 O296 1.242 . S
C308 O299 1.261 . S
C308 O300 1.252 . S
C309 C312 1.394 . S
C309 C314 1.370 . S
C309 C315 1.500 . S
C310 C313 1.383 . S
C310 C314 1.395 . S
C311 C312 1.396 . S
C311 C313 1.365 . S
C311 H328 0.929 . S
C312 C309 1.394 . S
C312 C311 1.396 . S
C312 H329 0.930 . S
C313 C310 1.383 . S
C313 C311 1.365 . S
C313 H330 0.931 . S
C314 C309 1.370 . S
C314 C310 1.395 . S
C314 H331 0.930 . S
C315 Gd262 2.805 1_554 S
C315 O297 1.263 . S
C315 O298 1.252 . S
C315 C309 1.500 . S
C316 H278 0.926 1_556 S
C316 C292 1.419 . S
C316 C317 1.331 . S
C317 C287 1.437 . S
C317 H288 0.929 . S
C317 C316 1.331 . S
H318 C291 0.932 . S
C319 O301 1.265 . S
C319 O302 1.242 . S
C320 O305 1.261 . S
C320 O306 1.252 . S
C321 C324 1.394 . S
C321 C326 1.370 . S
C321 C327 1.500 . S
C322 C325 1.383 . S
C322 C326 1.395 . S
C323 C324 1.396 . S
C323 C325 1.365 . S
C323 H332 0.929 . S
C324 C321 1.394 . S
C324 C323 1.396 . S
C324 H333 0.930 . S
C325 C322 1.383 . S
C325 C323 1.365 . S
C325 H334 0.931 . S
C326 C321 1.370 . S
C326 C322 1.395 . S
C326 H335 0.930 . S
C327 Gd263 2.805 . S
C327 O303 1.263 . S
C327 O304 1.252 . S
C327 C321 1.500 . S
H328 C311 0.929 . S
H329 C312 0.930 . S
H330 C313 0.931 . S
H331 C314 0.930 . S
H332 C323 0.929 . S
H333 C324 0.930 . S
H334 C325 0.931 . S
H335 C326 0.930 . S
C336 C338 1.422 . S
C336 C340 1.415 . S
C336 N342 1.369 . S
C337 C338 1.421 . S
C337 C339 1.417 . S
C337 C349 1.422 . S
C338 C336 1.422 . S
C338 C337 1.421 . S
C338 N348 1.359 . S
C339 C337 1.417 . S
C339 C341 1.329 . S
C339 H358 0.930 1_556 S
C340 C336 1.415 . S
C340 C341 1.437 . S
C340 C344 1.413 . S
C341 C339 1.329 . S
C341 C340 1.437 . S
C341 H363 0.929 . S
N342 C336 1.369 . S
N342 C343 1.338 . S
N342 Gd347 2.622 . S
C343 N342 1.338 . S
C343 C345 1.378 . S
C343 H355 0.929 . S
C344 C340 1.413 . S
C344 C345 1.348 . S
C344 H360 0.931 . S
C345 C343 1.378 . S
C345 C344 1.348 . S
C345 H361 0.930 . S
Gd346 N366 2.622 . S
Gd346 N373 2.570 . S
Gd346 O380 2.353 . S
Gd346 O381 2.468 . S
Gd346 O382 2.427 . S
Gd346 O384 2.388 . S
Gd346 O385 2.386 . S
Gd346 O389 2.307 . S
Gd346 C399 2.805 . S
Gd347 N342 2.622 . S
Gd347 N348 2.570 . S
Gd347 O379 2.386 . S
Gd347 O383 2.307 . S
Gd347 O386 2.353 . S
Gd347 O387 2.468 1_556 S
Gd347 O388 2.427 1_556 S
Gd347 O390 2.388 . S
Gd347 C411 2.805 1_556 S
N348 C338 1.359 . S
N348 Gd347 2.570 . S
N348 C350 1.343 . S
C349 C337 1.422 . S
C349 C351 1.321 . S
C349 H357 0.931 1_556 S
C350 N348 1.343 . S
C350 C351 1.390 . S
C350 H352 0.931 . S
C351 C349 1.321 . S
C351 C350 1.390 . S
C351 H353 0.930 . S
H352 C350 0.931 . S
H353 C351 0.930 . S
H354 C377 0.931 . S
H355 C343 0.929 . S
H356 C378 0.930 . S
H357 C349 0.931 1_554 S
H358 C339 0.930 1_554 S
H359 C368 0.929 . S
H360 C344 0.931 . S
H361 C345 0.930 . S
H362 C400 0.930 . S
H363 C341 0.929 . S
H364 C369 0.931 . S
H365 C370 0.930 . S
N366 Gd346 2.622 . S
N366 C367 1.369 . S
N366 C368 1.338 . S
C367 N366 1.369 . S
C367 C371 1.415 . S
C367 C374 1.422 . S
C368 H359 0.929 . S
C368 N366 1.338 . S
C368 C370 1.378 . S
C369 H364 0.931 . S
C369 C370 1.348 . S
C369 C371 1.413 . S
C370 H365 0.930 . S
C370 C368 1.378 . S
C370 C369 1.348 . S
C371 C367 1.415 . S
C371 C369 1.413 . S
C371 C401 1.437 . S
H372 C401 0.929 . S
N373 Gd346 2.570 . S
N373 C374 1.359 . S
N373 C377 1.343 . S
C374 C367 1.422 . S
C374 N373 1.359 . S
C374 C376 1.421 . S
C375 C376 1.422 . S
C375 C378 1.321 . S
C375 H402 0.931 . S
C376 C374 1.421 . S
C376 C375 1.422 . S
C376 C400 1.417 . S
C377 H354 0.931 . S
C377 N373 1.343 . S
C377 C378 1.390 . S
C378 H356 0.930 . S
C378 C375 1.321 . S
C378 C377 1.390 . S
O379 Gd347 2.386 . S
O379 C391 1.265 . S
O380 Gd346 2.353 . S
O380 C391 1.242 . S
O381 Gd346 2.468 . S
O381 C399 1.263 . S
O382 Gd346 2.427 . S
O382 C399 1.252 . S
O383 Gd347 2.307 . S
O383 C392 1.261 . S
O384 Gd346 2.388 . S
O384 C392 1.252 . S
O385 Gd346 2.386 . S
O385 C403 1.265 . S
O386 Gd347 2.353 . S
O386 C403 1.242 . S
O387 Gd347 2.468 1_554 S
O387 C411 1.263 . S
O388 Gd347 2.427 1_554 S
O388 C411 1.252 . S
O389 Gd346 2.307 . S
O389 C404 1.261 . S
O390 Gd347 2.388 . S
O390 C404 1.252 . S
C391 O379 1.265 . S
C391 O380 1.242 . S
C392 O383 1.261 . S
C392 O384 1.252 . S
C393 C396 1.394 . S
C393 C398 1.370 . S
C393 C399 1.500 . S
C394 C397 1.383 . S
C394 C398 1.395 . S
C395 C396 1.396 . S
C395 C397 1.365 . S
C395 H412 0.929 . S
C396 C393 1.394 . S
C396 C395 1.396 . S
C396 H413 0.930 . S
C397 C394 1.383 . S
C397 C395 1.365 . S
C397 H414 0.931 . S
C398 C393 1.370 . S
C398 C394 1.395 . S
C398 H415 0.930 . S
C399 Gd346 2.805 . S
C399 O381 1.263 . S
C399 O382 1.252 . S
C399 C393 1.500 . S
C400 H362 0.930 . S
C400 C376 1.417 . S
C400 C401 1.329 . S
C401 C371 1.437 . S
C401 H372 0.929 . S
C401 C400 1.329 . S
H402 C375 0.931 . S
C403 O385 1.265 . S
C403 O386 1.242 . S
C404 O389 1.261 . S
C404 O390 1.252 . S
C405 C408 1.394 . S
C405 C410 1.370 . S
C405 C411 1.500 . S
C406 C409 1.383 . S
C406 C410 1.395 . S
C407 C408 1.396 . S
C407 C409 1.365 . S
C407 H416 0.929 . S
C408 C405 1.394 . S
C408 C407 1.396 . S
C408 H417 0.930 . S
C409 C406 1.383 . S
C409 C407 1.365 . S
C409 H418 0.931 . S
C410 C405 1.370 . S
C410 C406 1.395 . S
C410 H419 0.930 . S
C411 Gd347 2.805 1_554 S
C411 O387 1.263 . S
C411 O388 1.252 . S
C411 C405 1.500 . S
H412 C395 0.929 . S
H413 C396 0.930 . S
H414 C397 0.931 . S
H415 C398 0.930 . S
H416 C407 0.929 . S
H417 C408 0.930 . S
H418 C409 0.931 . S
H419 C410 0.930 . S
C420 C422 1.422 . S
C420 C424 1.415 . S
C420 N426 1.369 . S
C421 C422 1.421 . S
C421 C423 1.417 . S
C421 C433 1.422 . S
C422 C420 1.422 . S
C422 C421 1.421 . S
C422 N432 1.359 . S
C423 C421 1.417 . S
C423 C425 1.329 . S
C423 H442 0.930 1_554 S
C424 C420 1.415 . S
C424 C425 1.437 . S
C424 C428 1.413 . S
C425 C423 1.329 . S
C425 C424 1.437 . S
C425 H447 0.929 . S
N426 C420 1.369 . S
N426 C427 1.338 . S
N426 Gd431 2.622 . S
C427 N426 1.338 . S
C427 C429 1.378 . S
C427 H439 0.929 . S
C428 C424 1.413 . S
C428 C429 1.348 . S
C428 H444 0.931 . S
C429 C427 1.378 . S
C429 C428 1.348 . S
C429 H445 0.930 . S
Gd430 N450 2.622 . S
Gd430 N457 2.570 . S
Gd430 O464 2.353 . S
Gd430 O465 2.468 . S
Gd430 O466 2.427 . S
Gd430 O468 2.388 . S
Gd430 O469 2.386 . S
Gd430 O473 2.307 . S
Gd430 C483 2.805 . S
Gd431 N426 2.622 . S
Gd431 N432 2.570 . S
Gd431 O463 2.386 . S
Gd431 O467 2.307 . S
Gd431 O470 2.353 . S
Gd431 O471 2.468 1_554 S
Gd431 O472 2.427 1_554 S
Gd431 O474 2.388 . S
Gd431 C495 2.805 1_554 S
N432 C422 1.359 . S
N432 Gd431 2.570 . S
N432 C434 1.343 . S
C433 C421 1.422 . S
C433 C435 1.321 . S
C433 H441 0.931 1_554 S
C434 N432 1.343 . S
C434 C435 1.390 . S
C434 H436 0.931 . S
C435 C433 1.321 . S
C435 C434 1.390 . S
C435 H437 0.930 . S
H436 C434 0.931 . S
H437 C435 0.930 . S
H438 C461 0.931 . S
H439 C427 0.929 . S
H440 C462 0.930 . S
H441 C433 0.931 1_556 S
H442 C423 0.930 1_556 S
H443 C452 0.929 . S
H444 C428 0.931 . S
H445 C429 0.930 . S
H446 C484 0.930 . S
H447 C425 0.929 . S
H448 C453 0.931 . S
H449 C454 0.930 . S
N450 Gd430 2.622 . S
N450 C451 1.369 . S
N450 C452 1.338 . S
C451 N450 1.369 . S
C451 C455 1.415 . S
C451 C458 1.422 . S
C452 H443 0.929 . S
C452 N450 1.338 . S
C452 C454 1.378 . S
C453 H448 0.931 . S
C453 C454 1.348 . S
C453 C455 1.413 . S
C454 H449 0.930 . S
C454 C452 1.378 . S
C454 C453 1.348 . S
C455 C451 1.415 . S
C455 C453 1.413 . S
C455 C485 1.437 . S
H456 C485 0.929 . S
N457 Gd430 2.570 . S
N457 C458 1.359 . S
N457 C461 1.343 . S
C458 C451 1.422 . S
C458 N457 1.359 . S
C458 C460 1.421 . S
C459 C460 1.422 . S
C459 C462 1.321 . S
C459 H486 0.931 . S
C460 C458 1.421 . S
C460 C459 1.422 . S
C460 C484 1.417 . S
C461 H438 0.931 . S
C461 N457 1.343 . S
C461 C462 1.390 . S
C462 H440 0.930 . S
C462 C459 1.321 . S
C462 C461 1.390 . S
O463 Gd431 2.386 . S
O463 C475 1.265 . S
O464 Gd430 2.353 . S
O464 C475 1.242 . S
O465 Gd430 2.468 . S
O465 C483 1.263 . S
O466 Gd430 2.427 . S
O466 C483 1.252 . S
O467 Gd431 2.307 . S
O467 C476 1.261 . S
O468 Gd430 2.388 . S
O468 C476 1.252 . S
O469 Gd430 2.386 . S
O469 C487 1.265 . S
O470 Gd431 2.353 . S
O470 C487 1.242 . S
O471 Gd431 2.468 1_556 S
O471 C495 1.263 . S
O472 Gd431 2.427 1_556 S
O472 C495 1.252 . S
O473 Gd430 2.307 . S
O473 C488 1.261 . S
O474 Gd431 2.388 . S
O474 C488 1.252 . S
C475 O463 1.265 . S
C475 O464 1.242 . S
C476 O467 1.261 . S
C476 O468 1.252 . S
C477 C480 1.394 . S
C477 C482 1.370 . S
C477 C483 1.500 . S
C478 C481 1.383 . S
C478 C482 1.395 . S
C479 C480 1.396 . S
C479 C481 1.365 . S
C479 H496 0.929 . S
C480 C477 1.394 . S
C480 C479 1.396 . S
C480 H497 0.930 . S
C481 C478 1.383 . S
C481 C479 1.365 . S
C481 H498 0.931 . S
C482 C477 1.370 . S
C482 C478 1.395 . S
C482 H499 0.930 . S
C483 Gd430 2.805 . S
C483 O465 1.263 . S
C483 O466 1.252 . S
C483 C477 1.500 . S
C484 H446 0.930 . S
C484 C460 1.417 . S
C484 C485 1.329 . S
C485 C455 1.437 . S
C485 H456 0.929 . S
C485 C484 1.329 . S
H486 C459 0.931 . S
C487 O469 1.265 . S
C487 O470 1.242 . S
C488 O473 1.261 . S
C488 O474 1.252 . S
C489 C492 1.394 . S
C489 C494 1.370 . S
C489 C495 1.500 . S
C490 C493 1.383 . S
C490 C494 1.395 . S
C491 C492 1.396 . S
C491 C493 1.365 . S
C491 H500 0.929 . S
C492 C489 1.394 . S
C492 C491 1.396 . S
C492 H501 0.930 . S
C493 C490 1.383 . S
C493 C491 1.365 . S
C493 H502 0.931 . S
C494 C489 1.370 . S
C494 C490 1.395 . S
C494 H503 0.930 . S
C495 Gd431 2.805 1_556 S
C495 O471 1.263 . S
C495 O472 1.252 . S
C495 C489 1.500 . S
H496 C479 0.929 . S
H497 C480 0.930 . S
H498 C481 0.931 . S
H499 C482 0.930 . S
H500 C491 0.929 . S
H501 C492 0.930 . S
H502 C493 0.931 . S
H503 C494 0.930 . S
C504 C506 1.422 . S
C504 C508 1.415 . S
C504 N510 1.369 . S
C505 C506 1.421 . S
C505 C507 1.417 . S
C505 C517 1.422 . S
C506 C504 1.422 . S
C506 C505 1.421 . S
C506 N516 1.359 . S
C507 C505 1.417 . S
C507 C509 1.329 . S
C507 H526 0.930 . S
C508 C504 1.415 . S
C508 C509 1.437 . S
C508 C512 1.413 . S
C509 C507 1.329 . S
C509 C508 1.437 . S
C509 H531 0.929 . S
N510 C504 1.369 . S
N510 C511 1.338 . S
N510 Gd515 2.622 . S
C511 N510 1.338 . S
C511 C513 1.378 . S
C511 H523 0.929 . S
C512 C508 1.413 . S
C512 C513 1.348 . S
C512 H528 0.931 . S
C513 C511 1.378 . S
C513 C512 1.348 . S
C513 H529 0.930 . S
Gd514 N534 2.622 . S
Gd514 N541 2.570 . S
Gd514 O548 2.353 . S
Gd514 O549 2.468 . S
Gd514 O550 2.427 . S
Gd514 O552 2.388 . S
Gd514 O553 2.386 . S
Gd514 O557 2.307 . S
Gd514 C567 2.805 . S
Gd515 N510 2.622 . S
Gd515 N516 2.570 . S
Gd515 O547 2.386 . S
Gd515 O551 2.307 . S
Gd515 O554 2.353 . S
Gd515 O555 2.468 . S
Gd515 O556 2.427 . S
Gd515 O558 2.388 . S
Gd515 C579 2.805 . S
N516 C506 1.359 . S
N516 Gd515 2.570 . S
N516 C518 1.343 . S
C517 C505 1.422 . S
C517 C519 1.321 . S
C517 H525 0.931 . S
C518 N516 1.343 . S
C518 C519 1.390 . S
C518 H520 0.931 . S
C519 C517 1.321 . S
C519 C518 1.390 . S
C519 H521 0.930 . S
H520 C518 0.931 . S
H521 C519 0.930 . S
H522 C545 0.931 . S
H523 C511 0.929 . S
H524 C546 0.930 . S
H525 C517 0.931 . S
H526 C507 0.930 . S
H527 C536 0.929 . S
H528 C512 0.931 . S
H529 C513 0.930 . S
H530 C568 0.930 . S
H531 C509 0.929 . S
H532 C537 0.931 . S
H533 C538 0.930 . S
N534 Gd514 2.622 . S
N534 C535 1.369 . S
N534 C536 1.338 . S
C535 N534 1.369 . S
C535 C539 1.415 . S
C535 C542 1.422 . S
C536 H527 0.929 . S
C536 N534 1.338 . S
C536 C538 1.378 . S
C537 H532 0.931 . S
C537 C538 1.348 . S
C537 C539 1.413 . S
C538 H533 0.930 . S
C538 C536 1.378 . S
C538 C537 1.348 . S
C539 C535 1.415 . S
C539 C537 1.413 . S
C539 C569 1.437 . S
H540 C569 0.929 . S
N541 Gd514 2.570 . S
N541 C542 1.359 . S
N541 C545 1.343 . S
C542 C535 1.422 . S
C542 N541 1.359 . S
C542 C544 1.421 . S
C543 C544 1.422 . S
C543 C546 1.321 . S
C543 H570 0.931 . S
C544 C542 1.421 . S
C544 C543 1.422 . S
C544 C568 1.417 . S
C545 H522 0.931 . S
C545 N541 1.343 . S
C545 C546 1.390 . S
C546 H524 0.930 . S
C546 C543 1.321 . S
C546 C545 1.390 . S
O547 Gd515 2.386 . S
O547 C559 1.265 . S
O548 Gd514 2.353 . S
O548 C559 1.242 . S
O549 Gd514 2.468 . S
O549 C567 1.263 . S
O550 Gd514 2.427 . S
O550 C567 1.252 . S
O551 Gd515 2.307 . S
O551 C560 1.261 . S
O552 Gd514 2.388 . S
O552 C560 1.252 . S
O553 Gd514 2.386 . S
O553 C571 1.265 . S
O554 Gd515 2.353 . S
O554 C571 1.242 . S
O555 Gd515 2.468 . S
O555 C579 1.263 . S
O556 Gd515 2.427 . S
O556 C579 1.252 . S
O557 Gd514 2.307 . S
O557 C572 1.261 . S
O558 Gd515 2.388 . S
O558 C572 1.252 . S
C559 O547 1.265 . S
C559 O548 1.242 . S
C560 O551 1.261 . S
C560 O552 1.252 . S
C561 C564 1.394 . S
C561 C566 1.370 . S
C561 C567 1.500 . S
C562 C565 1.383 . S
C562 C566 1.395 . S
C563 C564 1.396 . S
C563 C565 1.365 . S
C563 H580 0.929 . S
C564 C561 1.394 . S
C564 C563 1.396 . S
C564 H581 0.930 . S
C565 C562 1.383 . S
C565 C563 1.365 . S
C565 H582 0.931 . S
C566 C561 1.370 . S
C566 C562 1.395 . S
C566 H583 0.930 . S
C567 Gd514 2.805 . S
C567 O549 1.263 . S
C567 O550 1.252 . S
C567 C561 1.500 . S
C568 H530 0.930 . S
C568 C544 1.417 . S
C568 C569 1.329 . S
C569 C539 1.437 . S
C569 H540 0.929 . S
C569 C568 1.329 . S
H570 C543 0.931 . S
C571 O553 1.265 . S
C571 O554 1.242 . S
C572 O557 1.261 . S
C572 O558 1.252 . S
C573 C576 1.394 . S
C573 C578 1.370 . S
C573 C579 1.500 . S
C574 C577 1.383 . S
C574 C578 1.395 . S
C575 C576 1.396 . S
C575 C577 1.365 . S
C575 H584 0.929 . S
C576 C573 1.394 . S
C576 C575 1.396 . S
C576 H585 0.930 . S
C577 C574 1.383 . S
C577 C575 1.365 . S
C577 H586 0.931 . S
C578 C573 1.370 . S
C578 C574 1.395 . S
C578 H587 0.930 . S
C579 Gd515 2.805 . S
C579 O555 1.263 . S
C579 O556 1.252 . S
C579 C573 1.500 . S
H580 C563 0.929 . S
H581 C564 0.930 . S
H582 C565 0.931 . S
H583 C566 0.930 . S
H584 C575 0.929 . S
H585 C576 0.930 . S
H586 C577 0.931 . S
H587 C578 0.930 . S
C588 C590 1.422 . S
C588 C592 1.415 . S
C588 N594 1.369 . S
C589 C590 1.421 . S
C589 C591 1.417 . S
C589 C601 1.422 . S
C590 C588 1.422 . S
C590 C589 1.421 . S
C590 N600 1.359 . S
C591 C589 1.417 . S
C591 C593 1.329 . S
C591 H610 0.930 . S
C592 C588 1.415 . S
C592 C593 1.437 . S
C592 C596 1.413 . S
C593 C591 1.329 . S
C593 C592 1.437 . S
C593 H615 0.929 . S
N594 C588 1.369 . S
N594 C595 1.338 . S
N594 Gd599 2.622 . S
C595 N594 1.338 . S
C595 C597 1.378 . S
C595 H607 0.929 . S
C596 C592 1.413 . S
C596 C597 1.348 . S
C596 H612 0.931 . S
C597 C595 1.378 . S
C597 C596 1.348 . S
C597 H613 0.930 . S
Gd598 N618 2.622 . S
Gd598 N625 2.570 . S
Gd598 O632 2.353 . S
Gd598 O633 2.468 . S
Gd598 O634 2.427 . S
Gd598 O636 2.388 . S
Gd598 O637 2.386 . S
Gd598 O641 2.307 . S
Gd598 C651 2.805 . S
Gd599 N594 2.622 . S
Gd599 N600 2.570 . S
Gd599 O631 2.386 . S
Gd599 O635 2.307 . S
Gd599 O638 2.353 . S
Gd599 O639 2.468 . S
Gd599 O640 2.427 . S
Gd599 O642 2.388 . S
Gd599 C663 2.805 . S
N600 C590 1.359 . S
N600 Gd599 2.570 . S
N600 C602 1.343 . S
C601 C589 1.422 . S
C601 C603 1.321 . S
C601 H609 0.931 . S
C602 N600 1.343 . S
C602 C603 1.390 . S
C602 H604 0.931 . S
C603 C601 1.321 . S
C603 C602 1.390 . S
C603 H605 0.930 . S
H604 C602 0.931 . S
H605 C603 0.930 . S
H606 C629 0.931 . S
H607 C595 0.929 . S
H608 C630 0.930 . S
H609 C601 0.931 . S
H610 C591 0.930 . S
H611 C620 0.929 . S
H612 C596 0.931 . S
H613 C597 0.930 . S
H614 C652 0.930 . S
H615 C593 0.929 . S
H616 C621 0.931 . S
H617 C622 0.930 . S
N618 Gd598 2.622 . S
N618 C619 1.369 . S
N618 C620 1.338 . S
C619 N618 1.369 . S
C619 C623 1.415 . S
C619 C626 1.422 . S
C620 H611 0.929 . S
C620 N618 1.338 . S
C620 C622 1.378 . S
C621 H616 0.931 . S
C621 C622 1.348 . S
C621 C623 1.413 . S
C622 H617 0.930 . S
C622 C620 1.378 . S
C622 C621 1.348 . S
C623 C619 1.415 . S
C623 C621 1.413 . S
C623 C653 1.437 . S
H624 C653 0.929 . S
N625 Gd598 2.570 . S
N625 C626 1.359 . S
N625 C629 1.343 . S
C626 C619 1.422 . S
C626 N625 1.359 . S
C626 C628 1.421 . S
C627 C628 1.422 . S
C627 C630 1.321 . S
C627 H654 0.931 . S
C628 C626 1.421 . S
C628 C627 1.422 . S
C628 C652 1.417 . S
C629 H606 0.931 . S
C629 N625 1.343 . S
C629 C630 1.390 . S
C630 H608 0.930 . S
C630 C627 1.321 . S
C630 C629 1.390 . S
O631 Gd599 2.386 . S
O631 C643 1.265 . S
O632 Gd598 2.353 . S
O632 C643 1.242 . S
O633 Gd598 2.468 . S
O633 C651 1.263 . S
O634 Gd598 2.427 . S
O634 C651 1.252 . S
O635 Gd599 2.307 . S
O635 C644 1.261 . S
O636 Gd598 2.388 . S
O636 C644 1.252 . S
O637 Gd598 2.386 . S
O637 C655 1.265 . S
O638 Gd599 2.353 . S
O638 C655 1.242 . S
O639 Gd599 2.468 . S
O639 C663 1.263 . S
O640 Gd599 2.427 . S
O640 C663 1.252 . S
O641 Gd598 2.307 . S
O641 C656 1.261 . S
O642 Gd599 2.388 . S
O642 C656 1.252 . S
C643 O631 1.265 . S
C643 O632 1.242 . S
C644 O635 1.261 . S
C644 O636 1.252 . S
C645 C648 1.394 . S
C645 C650 1.370 . S
C645 C651 1.500 . S
C646 C649 1.383 . S
C646 C650 1.395 . S
C647 C648 1.396 . S
C647 C649 1.365 . S
C647 H664 0.929 . S
C648 C645 1.394 . S
C648 C647 1.396 . S
C648 H665 0.930 . S
C649 C646 1.383 . S
C649 C647 1.365 . S
C649 H666 0.931 . S
C650 C645 1.370 . S
C650 C646 1.395 . S
C650 H667 0.930 . S
C651 Gd598 2.805 . S
C651 O633 1.263 . S
C651 O634 1.252 . S
C651 C645 1.500 . S
C652 H614 0.930 . S
C652 C628 1.417 . S
C652 C653 1.329 . S
C653 C623 1.437 . S
C653 H624 0.929 . S
C653 C652 1.329 . S
H654 C627 0.931 . S
C655 O637 1.265 . S
C655 O638 1.242 . S
C656 O641 1.261 . S
C656 O642 1.252 . S
C657 C660 1.394 . S
C657 C662 1.370 . S
C657 C663 1.500 . S
C658 C661 1.383 . S
C658 C662 1.395 . S
C659 C660 1.396 . S
C659 C661 1.365 . S
C659 H668 0.929 . S
C660 C657 1.394 . S
C660 C659 1.396 . S
C660 H669 0.930 . S
C661 C658 1.383 . S
C661 C659 1.365 . S
C661 H670 0.931 . S
C662 C657 1.370 . S
C662 C658 1.395 . S
C662 H671 0.930 . S
C663 Gd599 2.805 . S
C663 O639 1.263 . S
C663 O640 1.252 . S
C663 C657 1.500 . S
H664 C647 0.929 . S
H665 C648 0.930 . S
H666 C649 0.931 . S
H667 C650 0.930 . S
H668 C659 0.929 . S
H669 C660 0.930 . S
H670 C661 0.931 . S
H671 C662 0.930 . S
C672 C674 1.422 . S
C672 C676 1.415 . S
C672 N678 1.369 . S
C673 C674 1.421 . S
C673 C675 1.417 . S
C673 C685 1.422 . S
C674 C672 1.422 . S
C674 C673 1.421 . S
C674 N684 1.359 . S
C675 C673 1.417 . S
C675 C677 1.329 . S
C675 H694 0.930 . S
C676 C672 1.415 . S
C676 C677 1.437 . S
C676 C680 1.413 . S
C677 C675 1.329 . S
C677 C676 1.437 . S
C677 H699 0.929 . S
N678 C672 1.369 . S
N678 C679 1.338 . S
N678 Gd683 2.622 . S
C679 N678 1.338 . S
C679 C681 1.378 . S
C679 H691 0.929 . S
C680 C676 1.413 . S
C680 C681 1.348 . S
C680 H696 0.931 . S
C681 C679 1.378 . S
C681 C680 1.348 . S
C681 H697 0.930 . S
Gd682 N702 2.622 . S
Gd682 N709 2.570 . S
Gd682 O716 2.353 . S
Gd682 O717 2.468 1_556 S
Gd682 O718 2.427 1_556 S
Gd682 O720 2.388 . S
Gd682 O721 2.386 . S
Gd682 O725 2.307 . S
Gd682 C735 2.805 1_556 S
Gd683 N678 2.622 . S
Gd683 N684 2.570 . S
Gd683 O715 2.386 . S
Gd683 O719 2.307 . S
Gd683 O722 2.353 . S
Gd683 O723 2.468 . S
Gd683 O724 2.427 . S
Gd683 O726 2.388 . S
Gd683 C747 2.805 . S
N684 C674 1.359 . S
N684 Gd683 2.570 . S
N684 C686 1.343 . S
C685 C673 1.422 . S
C685 C687 1.321 . S
C685 H693 0.931 . S
C686 N684 1.343 . S
C686 C687 1.390 . S
C686 H688 0.931 . S
C687 C685 1.321 . S
C687 C686 1.390 . S
C687 H689 0.930 . S
H688 C686 0.931 . S
H689 C687 0.930 . S
H690 C713 0.931 . S
H691 C679 0.929 . S
H692 C714 0.930 . S
H693 C685 0.931 . S
H694 C675 0.930 . S
H695 C704 0.929 . S
H696 C680 0.931 . S
H697 C681 0.930 . S
H698 C736 0.930 1_554 S
H699 C677 0.929 . S
H700 C705 0.931 . S
H701 C706 0.930 . S
N702 Gd682 2.622 . S
N702 C703 1.369 . S
N702 C704 1.338 . S
C703 N702 1.369 . S
C703 C707 1.415 . S
C703 C710 1.422 . S
C704 H695 0.929 . S
C704 N702 1.338 . S
C704 C706 1.378 . S
C705 H700 0.931 . S
C705 C706 1.348 . S
C705 C707 1.413 . S
C706 H701 0.930 . S
C706 C704 1.378 . S
C706 C705 1.348 . S
C707 C703 1.415 . S
C707 C705 1.413 . S
C707 C737 1.437 . S
H708 C737 0.929 . S
N709 Gd682 2.570 . S
N709 C710 1.359 . S
N709 C713 1.343 . S
C710 C703 1.422 . S
C710 N709 1.359 . S
C710 C712 1.421 . S
C711 C712 1.422 . S
C711 C714 1.321 . S
C711 H738 0.931 1_556 S
C712 C710 1.421 . S
C712 C711 1.422 . S
C712 C736 1.417 . S
C713 H690 0.931 . S
C713 N709 1.343 . S
C713 C714 1.390 . S
C714 H692 0.930 . S
C714 C711 1.321 . S
C714 C713 1.390 . S
O715 Gd683 2.386 . S
O715 C727 1.265 . S
O716 Gd682 2.353 . S
O716 C727 1.242 . S
O717 Gd682 2.468 1_554 S
O717 C735 1.263 . S
O718 Gd682 2.427 1_554 S
O718 C735 1.252 . S
O719 Gd683 2.307 . S
O719 C728 1.261 . S
O720 Gd682 2.388 . S
O720 C728 1.252 . S
O721 Gd682 2.386 . S
O721 C739 1.265 . S
O722 Gd683 2.353 . S
O722 C739 1.242 . S
O723 Gd683 2.468 . S
O723 C747 1.263 . S
O724 Gd683 2.427 . S
O724 C747 1.252 . S
O725 Gd682 2.307 . S
O725 C740 1.261 . S
O726 Gd683 2.388 . S
O726 C740 1.252 . S
C727 O715 1.265 . S
C727 O716 1.242 . S
C728 O719 1.261 . S
C728 O720 1.252 . S
C729 C732 1.394 . S
C729 C734 1.370 . S
C729 C735 1.500 . S
C730 C733 1.383 . S
C730 C734 1.395 . S
C731 C732 1.396 . S
C731 C733 1.365 . S
C731 H748 0.929 . S
C732 C729 1.394 . S
C732 C731 1.396 . S
C732 H749 0.930 . S
C733 C730 1.383 . S
C733 C731 1.365 . S
C733 H750 0.931 . S
C734 C729 1.370 . S
C734 C730 1.395 . S
C734 H751 0.930 . S
C735 Gd682 2.805 1_554 S
C735 O717 1.263 . S
C735 O718 1.252 . S
C735 C729 1.500 . S
C736 H698 0.930 1_556 S
C736 C712 1.417 . S
C736 C737 1.329 . S
C737 C707 1.437 . S
C737 H708 0.929 . S
C737 C736 1.329 . S
H738 C711 0.931 1_554 S
C739 O721 1.265 . S
C739 O722 1.242 . S
C740 O725 1.261 . S
C740 O726 1.252 . S
C741 C744 1.394 . S
C741 C746 1.370 . S
C741 C747 1.500 . S
C742 C745 1.383 . S
C742 C746 1.395 . S
C743 C744 1.396 . S
C743 C745 1.365 . S
C743 H752 0.929 . S
C744 C741 1.394 . S
C744 C743 1.396 . S
C744 H753 0.930 . S
C745 C742 1.383 . S
C745 C743 1.365 . S
C745 H754 0.931 . S
C746 C741 1.370 . S
C746 C742 1.395 . S
C746 H755 0.930 . S
C747 Gd683 2.805 . S
C747 O723 1.263 . S
C747 O724 1.252 . S
C747 C741 1.500 . S
H748 C731 0.929 . S
H749 C732 0.930 . S
H750 C733 0.931 . S
H751 C734 0.930 . S
H752 C743 0.929 . S
H753 C744 0.930 . S
H754 C745 0.931 . S
H755 C746 0.930 . S
C756 C758 1.422 . S
C756 C760 1.415 . S
C756 N762 1.369 . S
C757 C758 1.421 . S
C757 C759 1.417 . S
C757 C769 1.422 . S
C758 C756 1.422 . S
C758 C757 1.421 . S
C758 N768 1.359 . S
C759 C757 1.417 . S
C759 C761 1.329 . S
C759 H778 0.930 . S
C760 C756 1.415 . S
C760 C761 1.437 . S
C760 C764 1.413 . S
C761 C759 1.329 . S
C761 C760 1.437 . S
C761 H783 0.929 . S
N762 C756 1.369 . S
N762 C763 1.338 . S
N762 Gd767 2.622 . S
C763 N762 1.338 . S
C763 C765 1.378 . S
C763 H775 0.929 . S
C764 C760 1.413 . S
C764 C765 1.348 . S
C764 H780 0.931 . S
C765 C763 1.378 . S
C765 C764 1.348 . S
C765 H781 0.930 . S
Gd766 N786 2.622 . S
Gd766 N793 2.570 . S
Gd766 O800 2.353 . S
Gd766 O801 2.468 . S
Gd766 O802 2.427 . S
Gd766 O804 2.388 . S
Gd766 O805 2.386 . S
Gd766 O809 2.307 . S
Gd766 C819 2.805 . S
Gd767 N762 2.622 . S
Gd767 N768 2.570 . S
Gd767 O799 2.386 . S
Gd767 O803 2.307 . S
Gd767 O806 2.353 . S
Gd767 O807 2.468 . S
Gd767 O808 2.427 . S
Gd767 O810 2.388 . S
Gd767 C831 2.805 . S
N768 C758 1.359 . S
N768 Gd767 2.570 . S
N768 C770 1.343 . S
C769 C757 1.422 . S
C769 C771 1.321 . S
C769 H777 0.931 . S
C770 N768 1.343 . S
C770 C771 1.390 . S
C770 H772 0.931 . S
C771 C769 1.321 . S
C771 C770 1.390 . S
C771 H773 0.930 . S
H772 C770 0.931 . S
H773 C771 0.930 . S
H774 C797 0.931 . S
H775 C763 0.929 . S
H776 C798 0.930 . S
H777 C769 0.931 . S
H778 C759 0.930 . S
H779 C788 0.929 . S
H780 C764 0.931 . S
H781 C765 0.930 . S
H782 C820 0.930 . S
H783 C761 0.929 . S
H784 C789 0.931 . S
H785 C790 0.930 . S
N786 Gd766 2.622 . S
N786 C787 1.369 . S
N786 C788 1.338 . S
C787 N786 1.369 . S
C787 C791 1.415 . S
C787 C794 1.422 . S
C788 H779 0.929 . S
C788 N786 1.338 . S
C788 C790 1.378 . S
C789 H784 0.931 . S
C789 C790 1.348 . S
C789 C791 1.413 . S
C790 H785 0.930 . S
C790 C788 1.378 . S
C790 C789 1.348 . S
C791 C787 1.415 . S
C791 C789 1.413 . S
C791 C821 1.437 . S
H792 C821 0.929 . S
N793 Gd766 2.570 . S
N793 C794 1.359 . S
N793 C797 1.343 . S
C794 C787 1.422 . S
C794 N793 1.359 . S
C794 C796 1.421 . S
C795 C796 1.422 . S
C795 C798 1.321 . S
C795 H822 0.931 . S
C796 C794 1.421 . S
C796 C795 1.422 . S
C796 C820 1.417 . S
C797 H774 0.931 . S
C797 N793 1.343 . S
C797 C798 1.390 . S
C798 H776 0.930 . S
C798 C795 1.321 . S
C798 C797 1.390 . S
O799 Gd767 2.386 . S
O799 C811 1.265 . S
O800 Gd766 2.353 . S
O800 C811 1.242 . S
O801 Gd766 2.468 . S
O801 C819 1.263 . S
O802 Gd766 2.427 . S
O802 C819 1.252 . S
O803 Gd767 2.307 . S
O803 C812 1.261 . S
O804 Gd766 2.388 . S
O804 C812 1.252 . S
O805 Gd766 2.386 . S
O805 C823 1.265 . S
O806 Gd767 2.353 . S
O806 C823 1.242 . S
O807 Gd767 2.468 . S
O807 C831 1.263 . S
O808 Gd767 2.427 . S
O808 C831 1.252 . S
O809 Gd766 2.307 . S
O809 C824 1.261 . S
O810 Gd767 2.388 . S
O810 C824 1.252 . S
C811 O799 1.265 . S
C811 O800 1.242 . S
C812 O803 1.261 . S
C812 O804 1.252 . S
C813 C816 1.394 . S
C813 C818 1.370 . S
C813 C819 1.500 . S
C814 C817 1.383 . S
C814 C818 1.395 . S
C815 C816 1.396 . S
C815 C817 1.365 . S
C815 H832 0.929 . S
C816 C813 1.394 . S
C816 C815 1.396 . S
C816 H833 0.930 . S
C817 C814 1.383 . S
C817 C815 1.365 . S
C817 H834 0.931 . S
C818 C813 1.370 . S
C818 C814 1.395 . S
C818 H835 0.930 . S
C819 Gd766 2.805 . S
C819 O801 1.263 . S
C819 O802 1.252 . S
C819 C813 1.500 . S
C820 H782 0.930 . S
C820 C796 1.417 . S
C820 C821 1.329 . S
C821 C791 1.437 . S
C821 H792 0.929 . S
C821 C820 1.329 . S
H822 C795 0.931 . S
C823 O805 1.265 . S
C823 O806 1.242 . S
C824 O809 1.261 . S
C824 O810 1.252 . S
C825 C828 1.394 . S
C825 C830 1.370 . S
C825 C831 1.500 . S
C826 C829 1.383 . S
C826 C830 1.395 . S
C827 C828 1.396 . S
C827 C829 1.365 . S
C827 H836 0.929 . S
C828 C825 1.394 . S
C828 C827 1.396 . S
C828 H837 0.930 . S
C829 C826 1.383 . S
C829 C827 1.365 . S
C829 H838 0.931 . S
C830 C825 1.370 . S
C830 C826 1.395 . S
C830 H839 0.930 . S
C831 Gd767 2.805 . S
C831 O807 1.263 . S
C831 O808 1.252 . S
C831 C825 1.500 . S
H832 C815 0.929 . S
H833 C816 0.930 . S
H834 C817 0.931 . S
H835 C818 0.930 . S
H836 C827 0.929 . S
H837 C828 0.930 . S
H838 C829 0.931 . S
H839 C830 0.930 . S
C840 C842 1.422 . S
C840 C844 1.415 . S
C840 N846 1.369 . S
C841 C842 1.421 . S
C841 C843 1.417 . S
C841 C853 1.422 . S
C842 C840 1.422 . S
C842 C841 1.421 . S
C842 N852 1.359 . S
C843 C841 1.417 . S
C843 C845 1.329 . S
C843 H862 0.930 . S
C844 C840 1.415 . S
C844 C845 1.437 . S
C844 C848 1.413 . S
C845 C843 1.329 . S
C845 C844 1.437 . S
C845 H867 0.929 . S
N846 C840 1.369 . S
N846 C847 1.338 . S
N846 Gd851 2.622 . S
C847 N846 1.338 . S
C847 C849 1.378 . S
C847 H859 0.929 . S
C848 C844 1.413 . S
C848 C849 1.348 . S
C848 H864 0.931 . S
C849 C847 1.378 . S
C849 C848 1.348 . S
C849 H865 0.930 . S
Gd850 N870 2.622 . S
Gd850 N877 2.570 . S
Gd850 O884 2.353 . S
Gd850 O885 2.468 . S
Gd850 O886 2.427 . S
Gd850 O888 2.388 . S
Gd850 O889 2.386 . S
Gd850 O893 2.307 . S
Gd850 C903 2.805 . S
Gd851 N846 2.622 . S
Gd851 N852 2.570 . S
Gd851 O883 2.386 . S
Gd851 O887 2.307 . S
Gd851 O890 2.353 . S
Gd851 O891 2.468 . S
Gd851 O892 2.427 . S
Gd851 O894 2.388 . S
Gd851 C915 2.805 . S
N852 C842 1.359 . S
N852 Gd851 2.570 . S
N852 C854 1.343 . S
C853 C841 1.422 . S
C853 C855 1.321 . S
C853 H861 0.931 . S
C854 N852 1.343 . S
C854 C855 1.390 . S
C854 H856 0.931 . S
C855 C853 1.321 . S
C855 C854 1.390 . S
C855 H857 0.930 . S
H856 C854 0.931 . S
H857 C855 0.930 . S
H858 C881 0.931 . S
H859 C847 0.929 . S
H860 C882 0.930 . S
H861 C853 0.931 . S
H862 C843 0.930 . S
H863 C872 0.929 . S
H864 C848 0.931 . S
H865 C849 0.930 . S
H866 C904 0.930 . S
H867 C845 0.929 . S
H868 C873 0.931 . S
H869 C874 0.930 . S
N870 Gd850 2.622 . S
N870 C871 1.369 . S
N870 C872 1.338 . S
C871 N870 1.369 . S
C871 C875 1.415 . S
C871 C878 1.422 . S
C872 H863 0.929 . S
C872 N870 1.338 . S
C872 C874 1.378 . S
C873 H868 0.931 . S
C873 C874 1.348 . S
C873 C875 1.413 . S
C874 H869 0.930 . S
C874 C872 1.378 . S
C874 C873 1.348 . S
C875 C871 1.415 . S
C875 C873 1.413 . S
C875 C905 1.437 . S
H876 C905 0.929 . S
N877 Gd850 2.570 . S
N877 C878 1.359 . S
N877 C881 1.343 . S
C878 C871 1.422 . S
C878 N877 1.359 . S
C878 C880 1.421 . S
C879 C880 1.422 . S
C879 C882 1.321 . S
C879 H906 0.931 . S
C880 C878 1.421 . S
C880 C879 1.422 . S
C880 C904 1.417 . S
C881 H858 0.931 . S
C881 N877 1.343 . S
C881 C882 1.390 . S
C882 H860 0.930 . S
C882 C879 1.321 . S
C882 C881 1.390 . S
O883 Gd851 2.386 . S
O883 C895 1.265 . S
O884 Gd850 2.353 . S
O884 C895 1.242 . S
O885 Gd850 2.468 . S
O885 C903 1.263 . S
O886 Gd850 2.427 . S
O886 C903 1.252 . S
O887 Gd851 2.307 . S
O887 C896 1.261 . S
O888 Gd850 2.388 . S
O888 C896 1.252 . S
O889 Gd850 2.386 . S
O889 C907 1.265 . S
O890 Gd851 2.353 . S
O890 C907 1.242 . S
O891 Gd851 2.468 . S
O891 C915 1.263 . S
O892 Gd851 2.427 . S
O892 C915 1.252 . S
O893 Gd850 2.307 . S
O893 C908 1.261 . S
O894 Gd851 2.388 . S
O894 C908 1.252 . S
C895 O883 1.265 . S
C895 O884 1.242 . S
C896 O887 1.261 . S
C896 O888 1.252 . S
C897 C900 1.394 . S
C897 C902 1.370 . S
C897 C903 1.500 . S
C898 C901 1.383 . S
C898 C902 1.395 . S
C899 C900 1.396 . S
C899 C901 1.365 . S
C899 H916 0.929 . S
C900 C897 1.394 . S
C900 C899 1.396 . S
C900 H917 0.930 . S
C901 C898 1.383 . S
C901 C899 1.365 . S
C901 H918 0.931 . S
C902 C897 1.370 . S
C902 C898 1.395 . S
C902 H919 0.930 . S
C903 Gd850 2.805 . S
C903 O885 1.263 . S
C903 O886 1.252 . S
C903 C897 1.500 . S
C904 H866 0.930 . S
C904 C880 1.417 . S
C904 C905 1.329 . S
C905 C875 1.437 . S
C905 H876 0.929 . S
C905 C904 1.329 . S
H906 C879 0.931 . S
C907 O889 1.265 . S
C907 O890 1.242 . S
C908 O893 1.261 . S
C908 O894 1.252 . S
C909 C912 1.394 . S
C909 C914 1.370 . S
C909 C915 1.500 . S
C910 C913 1.383 . S
C910 C914 1.395 . S
C911 C912 1.396 . S
C911 C913 1.365 . S
C911 H920 0.929 . S
C912 C909 1.394 . S
C912 C911 1.396 . S
C912 H921 0.930 . S
C913 C910 1.383 . S
C913 C911 1.365 . S
C913 H922 0.931 . S
C914 C909 1.370 . S
C914 C910 1.395 . S
C914 H923 0.930 . S
C915 Gd851 2.805 . S
C915 O891 1.263 . S
C915 O892 1.252 . S
C915 C909 1.500 . S
H916 C899 0.929 . S
H917 C900 0.930 . S
H918 C901 0.931 . S
H919 C902 0.930 . S
H920 C911 0.929 . S
H921 C912 0.930 . S
H922 C913 0.931 . S
H923 C914 0.930 . S
C924 C926 1.422 . S
C924 C928 1.415 . S
C924 N930 1.369 . S
C925 C926 1.421 . S
C925 C927 1.418 . S
C925 C937 1.421 1_554 S
C926 C924 1.422 . S
C926 C925 1.421 . S
C926 N936 1.359 . S
C927 C925 1.418 . S
C927 C929 1.330 . S
C927 H946 0.928 1_554 S
C928 C924 1.415 . S
C928 C929 1.437 . S
C928 C932 1.413 . S
C929 C927 1.330 . S
C929 C928 1.437 . S
C929 H951 0.929 . S
N930 C924 1.369 . S
N930 C931 1.338 . S
N930 Gd935 2.622 . S
C931 N930 1.338 . S
C931 C933 1.378 . S
C931 H943 0.929 . S
C932 C928 1.413 . S
C932 C933 1.348 . S
C932 H948 0.931 . S
C933 C931 1.378 . S
C933 C932 1.348 . S
C933 H949 0.930 . S
Gd934 N954 2.622 . S
Gd934 N961 2.570 . S
Gd934 O968 2.353 . S
Gd934 O969 2.468 . S
Gd934 O970 2.427 . S
Gd934 O972 2.388 . S
Gd934 O973 2.386 . S
Gd934 O977 2.307 . S
Gd934 C987 2.805 . S
Gd935 N930 2.622 . S
Gd935 N936 2.570 . S
Gd935 O967 2.386 . S
Gd935 O971 2.307 . S
Gd935 O974 2.353 . S
Gd935 O975 2.468 1_554 S
Gd935 O976 2.427 1_554 S
Gd935 O978 2.388 . S
Gd935 C999 2.805 1_554 S
N936 C926 1.359 . S
N936 Gd935 2.570 . S
N936 C938 1.343 . S
C937 C925 1.421 1_556 S
C937 C939 1.320 1_556 S
C937 H945 0.934 . S
C938 N936 1.343 . S
C938 C939 1.390 . S
C938 H940 0.931 . S
C939 C937 1.320 1_554 S
C939 C938 1.390 . S
C939 H941 0.931 . S
H940 C938 0.931 . S
H941 C939 0.931 . S
H942 C965 0.931 . S
H943 C931 0.929 . S
H944 C966 0.930 . S
H945 C937 0.934 . S
H946 C927 0.928 1_556 S
H947 C956 0.929 . S
H948 C932 0.931 . S
H949 C933 0.930 . S
H950 C988 0.930 . S
H951 C929 0.929 . S
H952 C957 0.931 . S
H953 C958 0.930 . S
N954 Gd934 2.622 . S
N954 C955 1.369 . S
N954 C956 1.338 . S
C955 N954 1.369 . S
C955 C959 1.415 . S
C955 C962 1.422 . S
C956 H947 0.929 . S
C956 N954 1.338 . S
C956 C958 1.378 . S
C957 H952 0.931 . S
C957 C958 1.348 . S
C957 C959 1.413 . S
C958 H953 0.930 . S
C958 C956 1.378 . S
C958 C957 1.348 . S
C959 C955 1.415 . S
C959 C957 1.413 . S
C959 C989 1.437 . S
H960 C989 0.929 . S
N961 Gd934 2.570 . S
N961 C962 1.359 . S
N961 C965 1.343 . S
C962 C955 1.422 . S
C962 N961 1.359 . S
C962 C964 1.421 . S
C963 C964 1.422 . S
C963 C966 1.321 . S
C963 H990 0.931 . S
C964 C962 1.421 . S
C964 C963 1.422 . S
C964 C988 1.417 . S
C965 H942 0.931 . S
C965 N961 1.343 . S
C965 C966 1.390 . S
C966 H944 0.930 . S
C966 C963 1.321 . S
C966 C965 1.390 . S
O967 Gd935 2.386 . S
O967 C979 1.265 . S
O968 Gd934 2.353 . S
O968 C979 1.242 . S
O969 Gd934 2.468 . S
O969 C987 1.263 . S
O970 Gd934 2.427 . S
O970 C987 1.252 . S
O971 Gd935 2.307 . S
O971 C980 1.261 . S
O972 Gd934 2.388 . S
O972 C980 1.252 . S
O973 Gd934 2.386 . S
O973 C991 1.265 . S
O974 Gd935 2.353 . S
O974 C991 1.242 . S
O975 Gd935 2.468 1_556 S
O975 C999 1.263 . S
O976 Gd935 2.427 1_556 S
O976 C999 1.252 . S
O977 Gd934 2.307 . S
O977 C992 1.261 . S
O978 Gd935 2.388 . S
O978 C992 1.252 . S
C979 O967 1.265 . S
C979 O968 1.242 . S
C980 O971 1.261 . S
C980 O972 1.252 . S
C981 C984 1.394 . S
C981 C986 1.370 . S
C981 C987 1.500 . S
C982 C985 1.383 . S
C982 C986 1.395 . S
C983 C984 1.396 . S
C983 C985 1.365 . S
C983 H1000 0.929 . S
C984 C981 1.394 . S
C984 C983 1.396 . S
C984 H1001 0.930 . S
C985 C982 1.383 . S
C985 C983 1.365 . S
C985 H1002 0.931 . S
C986 C981 1.370 . S
C986 C982 1.395 . S
C986 H1003 0.930 . S
C987 Gd934 2.805 . S
C987 O969 1.263 . S
C987 O970 1.252 . S
C987 C981 1.500 . S
C988 H950 0.930 . S
C988 C964 1.417 . S
C988 C989 1.329 . S
C989 C959 1.437 . S
C989 H960 0.929 . S
C989 C988 1.329 . S
H990 C963 0.931 . S
C991 O973 1.265 . S
C991 O974 1.242 . S
C992 O977 1.261 . S
C992 O978 1.252 . S
C993 C996 1.394 . S
C993 C998 1.370 . S
C993 C999 1.500 . S
C994 C997 1.383 . S
C994 C998 1.395 . S
C995 C996 1.396 . S
C995 C997 1.365 . S
C995 H1004 0.929 . S
C996 C993 1.394 . S
C996 C995 1.396 . S
C996 H1005 0.930 . S
C997 C994 1.383 . S
C997 C995 1.365 . S
C997 H1006 0.931 . S
C998 C993 1.370 . S
C998 C994 1.395 . S
C998 H1007 0.930 . S
C999 Gd935 2.805 1_556 S
C999 O975 1.263 . S
C999 O976 1.252 . S
C999 C993 1.500 . S
H1000 C983 0.929 . S
H1001 C984 0.930 . S
H1002 C985 0.931 . S
H1003 C986 0.930 . S
H1004 C995 0.929 . S
H1005 C996 0.930 . S
H1006 C997 0.931 . S
H1007 C998 0.930 . S
C1008 C1010 1.422 . S
C1008 C1012 1.415 . S
C1008 N1014 1.369 . S
C1009 C1010 1.421 . S
C1009 C1011 1.417 . S
C1009 C1021 1.422 . S
C1010 C1008 1.422 . S
C1010 C1009 1.421 . S
C1010 N1020 1.359 . S
C1011 C1009 1.417 . S
C1011 C1013 1.329 . S
C1011 H1030 0.930 . S
C1012 C1008 1.415 . S
C1012 C1013 1.437 . S
C1012 C1016 1.413 . S
C1013 C1011 1.329 . S
C1013 C1012 1.437 . S
C1013 H1035 0.929 . S
N1014 C1008 1.369 . S
N1014 C1015 1.338 . S
N1014 Gd1019 2.622 . S
C1015 N1014 1.338 . S
C1015 C1017 1.378 . S
C1015 H1027 0.929 . S
C1016 C1012 1.413 . S
C1016 C1017 1.348 . S
C1016 H1032 0.931 . S
C1017 C1015 1.378 . S
C1017 C1016 1.348 . S
C1017 H1033 0.930 . S
Gd1018 N1038 2.622 . S
Gd1018 N1045 2.570 . S
Gd1018 O1052 2.353 . S
Gd1018 O1053 2.468 1_554 S
Gd1018 O1054 2.427 1_554 S
Gd1018 O1056 2.388 . S
Gd1018 O1057 2.386 . S
Gd1018 O1061 2.307 . S
Gd1018 C1071 2.805 1_554 S
Gd1019 N1014 2.622 . S
Gd1019 N1020 2.570 . S
Gd1019 O1051 2.386 . S
Gd1019 O1055 2.307 . S
Gd1019 O1058 2.353 . S
Gd1019 O1059 2.468 . S
Gd1019 O1060 2.427 . S
Gd1019 O1062 2.388 . S
Gd1019 C1083 2.805 . S
N1020 C1010 1.359 . S
N1020 Gd1019 2.570 . S
N1020 C1022 1.343 . S
C1021 C1009 1.422 . S
C1021 C1023 1.321 . S
C1021 H1029 0.931 . S
C1022 N1020 1.343 . S
C1022 C1023 1.390 . S
C1022 H1024 0.931 . S
C1023 C1021 1.321 . S
C1023 C1022 1.390 . S
C1023 H1025 0.930 . S
H1024 C1022 0.931 . S
H1025 C1023 0.930 . S
H1026 C1049 0.931 . S
H1027 C1015 0.929 . S
H1028 C1050 0.928 1_556 S
H1029 C1021 0.931 . S
H1030 C1011 0.930 . S
H1031 C1040 0.929 . S
H1032 C1016 0.931 . S
H1033 C1017 0.930 . S
H1034 C1072 0.937 . S
H1035 C1013 0.929 . S
H1036 C1041 0.931 . S
H1037 C1042 0.930 . S
N1038 Gd1018 2.622 . S
N1038 C1039 1.369 . S
N1038 C1040 1.338 . S
C1039 N1038 1.369 . S
C1039 C1043 1.415 . S
C1039 C1046 1.422 . S
C1040 H1031 0.929 . S
C1040 N1038 1.338 . S
C1040 C1042 1.378 . S
C1041 H1036 0.931 . S
C1041 C1042 1.348 . S
C1041 C1043 1.413 . S
C1042 H1037 0.930 . S
C1042 C1040 1.378 . S
C1042 C1041 1.348 . S
C1043 C1039 1.415 . S
C1043 C1041 1.413 . S
C1043 C1073 1.437 . S
H1044 C1073 0.929 . S
N1045 Gd1018 2.570 . S
N1045 C1046 1.359 . S
N1045 C1049 1.343 . S
C1046 C1039 1.422 . S
C1046 N1045 1.359 . S
C1046 C1048 1.421 . S
C1047 C1048 1.422 1_556 S
C1047 C1050 1.321 1_556 S
C1047 H1074 0.931 . S
C1048 C1046 1.421 . S
C1048 C1047 1.422 1_554 S
C1048 C1072 1.415 1_554 S
C1049 H1026 0.931 . S
C1049 N1045 1.343 . S
C1049 C1050 1.390 . S
C1050 H1028 0.928 1_554 S
C1050 C1047 1.321 1_554 S
C1050 C1049 1.390 . S
O1051 Gd1019 2.386 . S
O1051 C1063 1.265 . S
O1052 Gd1018 2.353 . S
O1052 C1063 1.242 . S
O1053 Gd1018 2.468 1_556 S
O1053 C1071 1.263 . S
O1054 Gd1018 2.427 1_556 S
O1054 C1071 1.252 . S
O1055 Gd1019 2.307 . S
O1055 C1064 1.261 . S
O1056 Gd1018 2.388 . S
O1056 C1064 1.252 . S
O1057 Gd1018 2.386 . S
O1057 C1075 1.265 . S
O1058 Gd1019 2.353 . S
O1058 C1075 1.242 . S
O1059 Gd1019 2.468 . S
O1059 C1083 1.263 . S
O1060 Gd1019 2.427 . S
O1060 C1083 1.252 . S
O1061 Gd1018 2.307 . S
O1061 C1076 1.261 . S
O1062 Gd1019 2.388 . S
O1062 C1076 1.252 . S
C1063 O1051 1.265 . S
C1063 O1052 1.242 . S
C1064 O1055 1.261 . S
C1064 O1056 1.252 . S
C1065 C1068 1.394 . S
C1065 C1070 1.370 . S
C1065 C1071 1.500 . S
C1066 C1069 1.383 . S
C1066 C1070 1.395 . S
C1067 C1068 1.396 . S
C1067 C1069 1.365 . S
C1067 H1084 0.929 . S
C1068 C1065 1.394 . S
C1068 C1067 1.396 . S
C1068 H1085 0.930 . S
C1069 C1066 1.383 . S
C1069 C1067 1.365 . S
C1069 H1086 0.931 . S
C1070 C1065 1.370 . S
C1070 C1066 1.395 . S
C1070 H1087 0.930 . S
C1071 Gd1018 2.805 1_556 S
C1071 O1053 1.263 . S
C1071 O1054 1.252 . S
C1071 C1065 1.500 . S
C1072 H1034 0.937 . S
C1072 C1048 1.415 1_556 S
C1072 C1073 1.325 1_556 S
C1073 C1043 1.437 . S
C1073 H1044 0.929 . S
C1073 C1072 1.325 1_554 S
H1074 C1047 0.931 . S
C1075 O1057 1.265 . S
C1075 O1058 1.242 . S
C1076 O1061 1.261 . S
C1076 O1062 1.252 . S
C1077 C1080 1.394 . S
C1077 C1082 1.370 . S
C1077 C1083 1.500 . S
C1078 C1081 1.383 . S
C1078 C1082 1.395 . S
C1079 C1080 1.396 . S
C1079 C1081 1.365 . S
C1079 H1088 0.929 . S
C1080 C1077 1.394 . S
C1080 C1079 1.396 . S
C1080 H1089 0.930 . S
C1081 C1078 1.383 . S
C1081 C1079 1.365 . S
C1081 H1090 0.931 . S
C1082 C1077 1.370 . S
C1082 C1078 1.395 . S
C1082 H1091 0.930 . S
C1083 Gd1019 2.805 . S
C1083 O1059 1.263 . S
C1083 O1060 1.252 . S
C1083 C1077 1.500 . S
H1084 C1067 0.929 . S
H1085 C1068 0.930 . S
H1086 C1069 0.931 . S
H1087 C1070 0.930 . S
H1088 C1079 0.929 . S
H1089 C1080 0.930 . S
H1090 C1081 0.931 . S
H1091 C1082 0.930 . S
C1092 C1094 1.422 . S
C1092 C1096 1.415 . S
C1092 N1098 1.369 . S
C1093 C1094 1.421 . S
C1093 C1095 1.417 . S
C1093 C1105 1.422 . S
C1094 C1092 1.422 . S
C1094 C1093 1.421 . S
C1094 N1104 1.359 . S
C1095 C1093 1.417 . S
C1095 C1097 1.329 . S
C1095 H1114 0.930 . S
C1096 C1092 1.415 . S
C1096 C1097 1.437 . S
C1096 C1100 1.413 . S
C1097 C1095 1.329 . S
C1097 C1096 1.437 . S
C1097 H1119 0.929 . S
N1098 C1092 1.369 . S
N1098 C1099 1.338 . S
N1098 Gd1103 2.622 . S
C1099 N1098 1.338 . S
C1099 C1101 1.378 . S
C1099 H1111 0.929 . S
C1100 C1096 1.413 . S
C1100 C1101 1.348 . S
C1100 H1116 0.931 . S
C1101 C1099 1.378 . S
C1101 C1100 1.348 . S
C1101 H1117 0.930 . S
Gd1102 N1122 2.622 . S
Gd1102 N1129 2.570 . S
Gd1102 O1136 2.353 . S
Gd1102 O1137 2.468 1_556 S
Gd1102 O1138 2.427 1_556 S
Gd1102 O1140 2.388 . S
Gd1102 O1141 2.386 . S
Gd1102 O1145 2.307 . S
Gd1102 C1155 2.805 1_556 S
Gd1103 N1098 2.622 . S
Gd1103 N1104 2.570 . S
Gd1103 O1135 2.386 . S
Gd1103 O1139 2.307 . S
Gd1103 O1142 2.353 . S
Gd1103 O1143 2.468 . S
Gd1103 O1144 2.427 . S
Gd1103 O1146 2.388 . S
Gd1103 C1167 2.805 . S
N1104 C1094 1.359 . S
N1104 Gd1103 2.570 . S
N1104 C1106 1.343 . S
C1105 C1093 1.422 . S
C1105 C1107 1.321 . S
C1105 H1113 0.931 . S
C1106 N1104 1.343 . S
C1106 C1107 1.390 . S
C1106 H1108 0.931 . S
C1107 C1105 1.321 . S
C1107 C1106 1.390 . S
C1107 H1109 0.930 . S
H1108 C1106 0.931 . S
H1109 C1107 0.930 . S
H1110 C1133 0.931 . S
H1111 C1099 0.929 . S
H1112 C1134 0.930 . S
H1113 C1105 0.931 . S
H1114 C1095 0.930 . S
H1115 C1124 0.929 . S
H1116 C1100 0.931 . S
H1117 C1101 0.930 . S
H1118 C1156 0.930 1_554 S
H1119 C1097 0.929 . S
H1120 C1125 0.931 . S
H1121 C1126 0.930 . S
N1122 Gd1102 2.622 . S
N1122 C1123 1.369 . S
N1122 C1124 1.338 . S
C1123 N1122 1.369 . S
C1123 C1127 1.415 . S
C1123 C1130 1.422 . S
C1124 H1115 0.929 . S
C1124 N1122 1.338 . S
C1124 C1126 1.378 . S
C1125 H1120 0.931 . S
C1125 C1126 1.348 . S
C1125 C1127 1.413 . S
C1126 H1121 0.930 . S
C1126 C1124 1.378 . S
C1126 C1125 1.348 . S
C1127 C1123 1.415 . S
C1127 C1125 1.413 . S
C1127 C1157 1.437 . S
H1128 C1157 0.929 . S
N1129 Gd1102 2.570 . S
N1129 C1130 1.359 . S
N1129 C1133 1.343 . S
C1130 C1123 1.422 . S
C1130 N1129 1.359 . S
C1130 C1132 1.421 . S
C1131 C1132 1.422 . S
C1131 C1134 1.321 . S
C1131 H1158 0.931 1_556 S
C1132 C1130 1.421 . S
C1132 C1131 1.422 . S
C1132 C1156 1.417 . S
C1133 H1110 0.931 . S
C1133 N1129 1.343 . S
C1133 C1134 1.390 . S
C1134 H1112 0.930 . S
C1134 C1131 1.321 . S
C1134 C1133 1.390 . S
O1135 Gd1103 2.386 . S
O1135 C1147 1.265 . S
O1136 Gd1102 2.353 . S
O1136 C1147 1.242 . S
O1137 Gd1102 2.468 1_554 S
O1137 C1155 1.263 . S
O1138 Gd1102 2.427 1_554 S
O1138 C1155 1.252 . S
O1139 Gd1103 2.307 . S
O1139 C1148 1.261 . S
O1140 Gd1102 2.388 . S
O1140 C1148 1.252 . S
O1141 Gd1102 2.386 . S
O1141 C1159 1.265 . S
O1142 Gd1103 2.353 . S
O1142 C1159 1.242 . S
O1143 Gd1103 2.468 . S
O1143 C1167 1.263 . S
O1144 Gd1103 2.427 . S
O1144 C1167 1.252 . S
O1145 Gd1102 2.307 . S
O1145 C1160 1.261 . S
O1146 Gd1103 2.388 . S
O1146 C1160 1.252 . S
C1147 O1135 1.265 . S
C1147 O1136 1.242 . S
C1148 O1139 1.261 . S
C1148 O1140 1.252 . S
C1149 C1152 1.394 . S
C1149 C1154 1.370 . S
C1149 C1155 1.500 . S
C1150 C1153 1.383 . S
C1150 C1154 1.395 . S
C1151 C1152 1.396 . S
C1151 C1153 1.365 . S
C1151 H1168 0.929 . S
C1152 C1149 1.394 . S
C1152 C1151 1.396 . S
C1152 H1169 0.930 . S
C1153 C1150 1.383 . S
C1153 C1151 1.365 . S
C1153 H1170 0.931 . S
C1154 C1149 1.370 . S
C1154 C1150 1.395 . S
C1154 H1171 0.930 . S
C1155 Gd1102 2.805 1_554 S
C1155 O1137 1.263 . S
C1155 O1138 1.252 . S
C1155 C1149 1.500 . S
C1156 H1118 0.930 1_556 S
C1156 C1132 1.417 . S
C1156 C1157 1.329 . S
C1157 C1127 1.437 . S
C1157 H1128 0.929 . S
C1157 C1156 1.329 . S
H1158 C1131 0.931 1_554 S
C1159 O1141 1.265 . S
C1159 O1142 1.242 . S
C1160 O1145 1.261 . S
C1160 O1146 1.252 . S
C1161 C1164 1.394 . S
C1161 C1166 1.370 . S
C1161 C1167 1.500 . S
C1162 C1165 1.383 . S
C1162 C1166 1.395 . S
C1163 C1164 1.396 . S
C1163 C1165 1.365 . S
C1163 H1172 0.929 . S
C1164 C1161 1.394 . S
C1164 C1163 1.396 . S
C1164 H1173 0.930 . S
C1165 C1162 1.383 . S
C1165 C1163 1.365 . S
C1165 H1174 0.931 . S
C1166 C1161 1.370 . S
C1166 C1162 1.395 . S
C1166 H1175 0.930 . S
C1167 Gd1103 2.805 . S
C1167 O1143 1.263 . S
C1167 O1144 1.252 . S
C1167 C1161 1.500 . S
H1168 C1151 0.929 . S
H1169 C1152 0.930 . S
H1170 C1153 0.931 . S
H1171 C1154 0.930 . S
H1172 C1163 0.929 . S
H1173 C1164 0.930 . S
H1174 C1165 0.931 . S
H1175 C1166 0.930 . S
C1176 C1178 1.422 . S
C1176 C1180 1.415 . S
C1176 N1182 1.369 . S
C1177 C1178 1.421 . S
C1177 C1179 1.417 . S
C1177 C1189 1.422 . S
C1178 C1176 1.422 . S
C1178 C1177 1.421 . S
C1178 N1188 1.359 . S
C1179 C1177 1.417 . S
C1179 C1181 1.329 . S
C1179 H1198 0.930 . S
C1180 C1176 1.415 . S
C1180 C1181 1.437 . S
C1180 C1184 1.413 . S
C1181 C1179 1.329 . S
C1181 C1180 1.437 . S
C1181 H1203 0.929 . S
N1182 C1176 1.369 . S
N1182 C1183 1.338 . S
N1182 Gd1187 2.622 . S
C1183 N1182 1.338 . S
C1183 C1185 1.378 . S
C1183 H1195 0.929 . S
C1184 C1180 1.413 . S
C1184 C1185 1.348 . S
C1184 H1200 0.931 . S
C1185 C1183 1.378 . S
C1185 C1184 1.348 . S
C1185 H1201 0.930 . S
Gd1186 N1206 2.622 . S
Gd1186 N1213 2.570 . S
Gd1186 O1220 2.353 . S
Gd1186 O1221 2.468 . S
Gd1186 O1222 2.427 . S
Gd1186 O1224 2.388 . S
Gd1186 O1225 2.386 . S
Gd1186 O1229 2.307 . S
Gd1186 C1239 2.805 . S
Gd1187 N1182 2.622 . S
Gd1187 N1188 2.570 . S
Gd1187 O1219 2.386 . S
Gd1187 O1223 2.307 . S
Gd1187 O1226 2.353 . S
Gd1187 O1227 2.468 . S
Gd1187 O1228 2.427 . S
Gd1187 O1230 2.388 . S
Gd1187 C1251 2.805 . S
N1188 C1178 1.359 . S
N1188 Gd1187 2.570 . S
N1188 C1190 1.343 . S
C1189 C1177 1.422 . S
C1189 C1191 1.321 . S
C1189 H1197 0.931 . S
C1190 N1188 1.343 . S
C1190 C1191 1.390 . S
C1190 H1192 0.931 . S
C1191 C1189 1.321 . S
C1191 C1190 1.390 . S
C1191 H1193 0.930 . S
H1192 C1190 0.931 . S
H1193 C1191 0.930 . S
H1194 C1217 0.931 . S
H1195 C1183 0.929 . S
H1196 C1218 0.930 . S
H1197 C1189 0.931 . S
H1198 C1179 0.930 . S
H1199 C1208 0.929 . S
H1200 C1184 0.931 . S
H1201 C1185 0.930 . S
H1202 C1240 0.930 . S
H1203 C1181 0.929 . S
H1204 C1209 0.931 . S
H1205 C1210 0.930 . S
N1206 Gd1186 2.622 . S
N1206 C1207 1.369 . S
N1206 C1208 1.338 . S
C1207 N1206 1.369 . S
C1207 C1211 1.415 . S
C1207 C1214 1.422 . S
C1208 H1199 0.929 . S
C1208 N1206 1.338 . S
C1208 C1210 1.378 . S
C1209 H1204 0.931 . S
C1209 C1210 1.348 . S
C1209 C1211 1.413 . S
C1210 H1205 0.930 . S
C1210 C1208 1.378 . S
C1210 C1209 1.348 . S
C1211 C1207 1.415 . S
C1211 C1209 1.413 . S
C1211 C1241 1.437 . S
H1212 C1241 0.929 . S
N1213 Gd1186 2.570 . S
N1213 C1214 1.359 . S
N1213 C1217 1.343 . S
C1214 C1207 1.422 . S
C1214 N1213 1.359 . S
C1214 C1216 1.421 . S
C1215 C1216 1.422 . S
C1215 C1218 1.321 . S
C1215 H1242 0.931 . S
C1216 C1214 1.421 . S
C1216 C1215 1.422 . S
C1216 C1240 1.417 . S
C1217 H1194 0.931 . S
C1217 N1213 1.343 . S
C1217 C1218 1.390 . S
C1218 H1196 0.930 . S
C1218 C1215 1.321 . S
C1218 C1217 1.390 . S
O1219 Gd1187 2.386 . S
O1219 C1231 1.265 . S
O1220 Gd1186 2.353 . S
O1220 C1231 1.242 . S
O1221 Gd1186 2.468 . S
O1221 C1239 1.263 . S
O1222 Gd1186 2.427 . S
O1222 C1239 1.252 . S
O1223 Gd1187 2.307 . S
O1223 C1232 1.261 . S
O1224 Gd1186 2.388 . S
O1224 C1232 1.252 . S
O1225 Gd1186 2.386 . S
O1225 C1243 1.265 . S
O1226 Gd1187 2.353 . S
O1226 C1243 1.242 . S
O1227 Gd1187 2.468 . S
O1227 C1251 1.263 . S
O1228 Gd1187 2.427 . S
O1228 C1251 1.252 . S
O1229 Gd1186 2.307 . S
O1229 C1244 1.261 . S
O1230 Gd1187 2.388 . S
O1230 C1244 1.252 . S
C1231 O1219 1.265 . S
C1231 O1220 1.242 . S
C1232 O1223 1.261 . S
C1232 O1224 1.252 . S
C1233 C1236 1.394 . S
C1233 C1238 1.370 . S
C1233 C1239 1.500 . S
C1234 C1237 1.383 . S
C1234 C1238 1.395 . S
C1235 C1236 1.396 . S
C1235 C1237 1.365 . S
C1235 H1252 0.929 . S
C1236 C1233 1.394 . S
C1236 C1235 1.396 . S
C1236 H1253 0.930 . S
C1237 C1234 1.383 . S
C1237 C1235 1.365 . S
C1237 H1254 0.931 . S
C1238 C1233 1.370 . S
C1238 C1234 1.395 . S
C1238 H1255 0.930 . S
C1239 Gd1186 2.805 . S
C1239 O1221 1.263 . S
C1239 O1222 1.252 . S
C1239 C1233 1.500 . S
C1240 H1202 0.930 . S
C1240 C1216 1.417 . S
C1240 C1241 1.329 . S
C1241 C1211 1.437 . S
C1241 H1212 0.929 . S
C1241 C1240 1.329 . S
H1242 C1215 0.931 . S
C1243 O1225 1.265 . S
C1243 O1226 1.242 . S
C1244 O1229 1.261 . S
C1244 O1230 1.252 . S
C1245 C1248 1.394 . S
C1245 C1250 1.370 . S
C1245 C1251 1.500 . S
C1246 C1249 1.383 . S
C1246 C1250 1.395 . S
C1247 C1248 1.396 . S
C1247 C1249 1.365 . S
C1247 H1256 0.929 . S
C1248 C1245 1.394 . S
C1248 C1247 1.396 . S
C1248 H1257 0.930 . S
C1249 C1246 1.383 . S
C1249 C1247 1.365 . S
C1249 H1258 0.931 . S
C1250 C1245 1.370 . S
C1250 C1246 1.395 . S
C1250 H1259 0.930 . S
C1251 Gd1187 2.805 . S
C1251 O1227 1.263 . S
C1251 O1228 1.252 . S
C1251 C1245 1.500 . S
H1252 C1235 0.929 . S
H1253 C1236 0.930 . S
H1254 C1237 0.931 . S
H1255 C1238 0.930 . S
H1256 C1247 0.929 . S
H1257 C1248 0.930 . S
H1258 C1249 0.931 . S
H1259 C1250 0.930 . S
C1260 C1262 1.422 . S
C1260 C1264 1.415 . S
C1260 N1266 1.369 . S
C1261 C1262 1.421 . S
C1261 C1263 1.417 . S
C1261 C1273 1.422 . S
C1262 C1260 1.422 . S
C1262 C1261 1.421 . S
C1262 N1272 1.359 . S
C1263 C1261 1.417 . S
C1263 C1265 1.329 . S
C1263 H1282 0.930 . S
C1264 C1260 1.415 . S
C1264 C1265 1.437 . S
C1264 C1268 1.413 . S
C1265 C1263 1.329 . S
C1265 C1264 1.437 . S
C1265 H1287 0.929 . S
N1266 C1260 1.369 . S
N1266 C1267 1.338 . S
N1266 Gd1271 2.622 . S
C1267 N1266 1.338 . S
C1267 C1269 1.378 . S
C1267 H1279 0.929 . S
C1268 C1264 1.413 . S
C1268 C1269 1.348 . S
C1268 H1284 0.931 . S
C1269 C1267 1.378 . S
C1269 C1268 1.348 . S
C1269 H1285 0.930 . S
Gd1270 N1290 2.622 . S
Gd1270 N1297 2.570 . S
Gd1270 O1304 2.353 . S
Gd1270 O1305 2.468 . S
Gd1270 O1306 2.427 . S
Gd1270 O1308 2.388 . S
Gd1270 O1309 2.386 . S
Gd1270 O1313 2.307 . S
Gd1270 C1323 2.805 . S
Gd1271 N1266 2.622 . S
Gd1271 N1272 2.570 . S
Gd1271 O1303 2.386 . S
Gd1271 O1307 2.307 . S
Gd1271 O1310 2.353 . S
Gd1271 O1311 2.468 . S
Gd1271 O1312 2.427 . S
Gd1271 O1314 2.388 . S
Gd1271 C1335 2.805 . S
N1272 C1262 1.359 . S
N1272 Gd1271 2.570 . S
N1272 C1274 1.343 . S
C1273 C1261 1.422 . S
C1273 C1275 1.321 . S
C1273 H1281 0.931 . S
C1274 N1272 1.343 . S
C1274 C1275 1.390 . S
C1274 H1276 0.931 . S
C1275 C1273 1.321 . S
C1275 C1274 1.390 . S
C1275 H1277 0.930 . S
H1276 C1274 0.931 . S
H1277 C1275 0.930 . S
H1278 C1301 0.931 . S
H1279 C1267 0.929 . S
H1280 C1302 0.930 . S
H1281 C1273 0.931 . S
H1282 C1263 0.930 . S
H1283 C1292 0.929 . S
H1284 C1268 0.931 . S
H1285 C1269 0.930 . S
H1286 C1324 0.930 . S
H1287 C1265 0.929 . S
H1288 C1293 0.931 . S
H1289 C1294 0.930 . S
N1290 Gd1270 2.622 . S
N1290 C1291 1.369 . S
N1290 C1292 1.338 . S
C1291 N1290 1.369 . S
C1291 C1295 1.415 . S
C1291 C1298 1.422 . S
C1292 H1283 0.929 . S
C1292 N1290 1.338 . S
C1292 C1294 1.378 . S
C1293 H1288 0.931 . S
C1293 C1294 1.348 . S
C1293 C1295 1.413 . S
C1294 H1289 0.930 . S
C1294 C1292 1.378 . S
C1294 C1293 1.348 . S
C1295 C1291 1.415 . S
C1295 C1293 1.413 . S
C1295 C1325 1.437 . S
H1296 C1325 0.929 . S
N1297 Gd1270 2.570 . S
N1297 C1298 1.359 . S
N1297 C1301 1.343 . S
C1298 C1291 1.422 . S
C1298 N1297 1.359 . S
C1298 C1300 1.421 . S
C1299 C1300 1.422 . S
C1299 C1302 1.321 . S
C1299 H1326 0.931 . S
C1300 C1298 1.421 . S
C1300 C1299 1.422 . S
C1300 C1324 1.417 . S
C1301 H1278 0.931 . S
C1301 N1297 1.343 . S
C1301 C1302 1.390 . S
C1302 H1280 0.930 . S
C1302 C1299 1.321 . S
C1302 C1301 1.390 . S
O1303 Gd1271 2.386 . S
O1303 C1315 1.265 . S
O1304 Gd1270 2.353 . S
O1304 C1315 1.242 . S
O1305 Gd1270 2.468 . S
O1305 C1323 1.263 . S
O1306 Gd1270 2.427 . S
O1306 C1323 1.252 . S
O1307 Gd1271 2.307 . S
O1307 C1316 1.261 . S
O1308 Gd1270 2.388 . S
O1308 C1316 1.252 . S
O1309 Gd1270 2.386 . S
O1309 C1327 1.265 . S
O1310 Gd1271 2.353 . S
O1310 C1327 1.242 . S
O1311 Gd1271 2.468 . S
O1311 C1335 1.263 . S
O1312 Gd1271 2.427 . S
O1312 C1335 1.252 . S
O1313 Gd1270 2.307 . S
O1313 C1328 1.261 . S
O1314 Gd1271 2.388 . S
O1314 C1328 1.252 . S
C1315 O1303 1.265 . S
C1315 O1304 1.242 . S
C1316 O1307 1.261 . S
C1316 O1308 1.252 . S
C1317 C1320 1.394 . S
C1317 C1322 1.370 . S
C1317 C1323 1.500 . S
C1318 C1321 1.383 . S
C1318 C1322 1.395 . S
C1319 C1320 1.396 . S
C1319 C1321 1.365 . S
C1319 H1336 0.929 . S
C1320 C1317 1.394 . S
C1320 C1319 1.396 . S
C1320 H1337 0.930 . S
C1321 C1318 1.383 . S
C1321 C1319 1.365 . S
C1321 H1338 0.931 . S
C1322 C1317 1.370 . S
C1322 C1318 1.395 . S
C1322 H1339 0.930 . S
C1323 Gd1270 2.805 . S
C1323 O1305 1.263 . S
C1323 O1306 1.252 . S
C1323 C1317 1.500 . S
C1324 H1286 0.930 . S
C1324 C1300 1.417 . S
C1324 C1325 1.329 . S
C1325 C1295 1.437 . S
C1325 H1296 0.929 . S
C1325 C1324 1.329 . S
H1326 C1299 0.931 . S
C1327 O1309 1.265 . S
C1327 O1310 1.242 . S
C1328 O1313 1.261 . S
C1328 O1314 1.252 . S
C1329 C1332 1.394 . S
C1329 C1334 1.370 . S
C1329 C1335 1.500 . S
C1330 C1333 1.383 . S
C1330 C1334 1.395 . S
C1331 C1332 1.396 . S
C1331 C1333 1.365 . S
C1331 H1340 0.929 . S
C1332 C1329 1.394 . S
C1332 C1331 1.396 . S
C1332 H1341 0.930 . S
C1333 C1330 1.383 . S
C1333 C1331 1.365 . S
C1333 H1342 0.931 . S
C1334 C1329 1.370 . S
C1334 C1330 1.395 . S
C1334 H1343 0.930 . S
C1335 Gd1271 2.805 . S
C1335 O1311 1.263 . S
C1335 O1312 1.252 . S
C1335 C1329 1.500 . S
H1336 C1319 0.929 . S
H1337 C1320 0.930 . S
H1338 C1321 0.931 . S
H1339 C1322 0.930 . S
H1340 C1331 0.929 . S
H1341 C1332 0.930 . S
H1342 C1333 0.931 . S
H1343 C1334 0.930 . S
C1344 C1345 1.349 . S
C1344 C1346 1.327 . S
C1344 H1369 0.950 . S
C1345 C1344 1.349 . S
C1345 C1361 1.349 . S
C1346 C1344 1.327 . S
C1346 C1365 1.429 . S
C1346 H1370 0.950 . S
C1347 C1364 1.574 . S
C1347 C1366 1.368 . S
C1347 H1371 0.949 . S
H1348 C1352 0.949 . S
C1349 C1350 1.349 . S
C1349 C1351 1.327 . S
C1349 H1372 0.950 . S
C1350 C1349 1.349 . S
C1350 C1362 1.349 . S
C1351 C1349 1.327 . S
C1351 C1367 1.429 . S
C1351 H1373 0.950 . S
C1352 H1348 0.949 . S
C1352 C1360 1.574 . S
C1352 C1368 1.368 . S
H1353 C1361 0.950 . S
H1354 C1359 0.950 . S
H1355 C1360 0.949 . S
H1356 C1362 0.950 . S
H1357 C1363 0.950 . S
H1358 C1364 0.949 . S
C1359 H1354 0.950 . S
C1359 C1361 1.327 . S
C1359 C1365 1.429 . S
C1360 C1352 1.574 . S
C1360 H1355 0.949 . S
C1360 C1366 1.368 . S
C1361 C1345 1.349 . S
C1361 H1353 0.950 . S
C1361 C1359 1.327 . S
C1362 C1350 1.349 . S
C1362 H1356 0.950 . S
C1362 C1363 1.327 . S
C1363 H1357 0.950 . S
C1363 C1362 1.327 . S
C1363 C1367 1.429 . S
C1364 C1347 1.574 . S
C1364 H1358 0.949 . S
C1364 C1368 1.368 . S
C1365 C1346 1.429 . S
C1365 C1359 1.429 . S
C1365 C1366 1.523 . S
C1366 C1347 1.368 . S
C1366 C1360 1.368 . S
C1366 C1365 1.523 . S
C1367 C1351 1.429 . S
C1367 C1363 1.429 . S
C1367 C1368 1.523 . S
C1368 C1352 1.368 . S
C1368 C1364 1.368 . S
C1368 C1367 1.523 . S
H1369 C1344 0.950 . S
H1370 C1346 0.950 . S
H1371 C1347 0.949 . S
H1372 C1349 0.950 . S
H1373 C1351 0.950 . S
C1374 C1375 1.349 . S
C1374 C1376 1.327 1_554 S
C1374 H1399 0.950 . S
C1375 C1374 1.349 . S
C1375 C1391 1.349 . S
C1376 C1374 1.327 1_556 S
C1376 C1395 1.429 . S
C1376 H1400 0.950 . S
C1377 C1394 1.574 . S
C1377 C1396 1.368 . S
C1377 H1401 0.949 . S
H1378 C1382 0.949 . S
C1379 C1380 1.349 . S
C1379 C1381 1.327 . S
C1379 H1402 0.950 . S
C1380 C1379 1.349 . S
C1380 C1392 1.349 . S
C1381 C1379 1.327 . S
C1381 C1397 1.429 . S
C1381 H1403 0.950 . S
C1382 H1378 0.949 . S
C1382 C1390 1.574 . S
C1382 C1398 1.368 . S
H1383 C1391 0.950 . S
H1384 C1389 0.950 . S
H1385 C1390 0.949 . S
H1386 C1392 0.950 . S
H1387 C1393 0.950 . S
H1388 C1394 0.949 . S
C1389 H1384 0.950 . S
C1389 C1391 1.327 1_556 S
C1389 C1395 1.429 . S
C1390 C1382 1.574 . S
C1390 H1385 0.949 . S
C1390 C1396 1.368 . S
C1391 C1375 1.349 . S
C1391 H1383 0.950 . S
C1391 C1389 1.327 1_554 S
C1392 C1380 1.349 . S
C1392 H1386 0.950 . S
C1392 C1393 1.327 . S
C1393 H1387 0.950 . S
C1393 C1392 1.327 . S
C1393 C1397 1.429 . S
C1394 C1377 1.574 . S
C1394 H1388 0.949 . S
C1394 C1398 1.368 . S
C1395 C1376 1.429 . S
C1395 C1389 1.429 . S
C1395 C1396 1.523 . S
C1396 C1377 1.368 . S
C1396 C1390 1.368 . S
C1396 C1395 1.523 . S
C1397 C1381 1.429 . S
C1397 C1393 1.429 . S
C1397 C1398 1.523 . S
C1398 C1382 1.368 . S
C1398 C1394 1.368 . S
C1398 C1397 1.523 . S
H1399 C1374 0.950 . S
H1400 C1376 0.950 . S
H1401 C1377 0.949 . S
H1402 C1379 0.950 . S
H1403 C1381 0.950 . S
C1404 C1405 1.349 . S
C1404 C1406 1.327 . S
C1404 H1429 0.950 . S
C1405 C1404 1.349 . S
C1405 C1421 1.349 . S
C1406 C1404 1.327 . S
C1406 C1425 1.429 . S
C1406 H1430 0.950 . S
C1407 C1424 1.574 . S
C1407 C1426 1.368 . S
C1407 H1431 0.949 . S
H1408 C1412 0.949 . S
C1409 C1410 1.349 . S
C1409 C1411 1.327 1_556 S
C1409 H1432 0.950 . S
C1410 C1409 1.349 . S
C1410 C1422 1.349 . S
C1411 C1409 1.327 1_554 S
C1411 C1427 1.429 . S
C1411 H1433 0.950 . S
C1412 H1408 0.949 . S
C1412 C1420 1.574 . S
C1412 C1428 1.368 . S
H1413 C1421 0.950 . S
H1414 C1419 0.950 . S
H1415 C1420 0.949 . S
H1416 C1422 0.950 . S
H1417 C1423 0.950 . S
H1418 C1424 0.949 . S
C1419 H1414 0.950 . S
C1419 C1421 1.327 . S
C1419 C1425 1.429 . S
C1420 C1412 1.574 . S
C1420 H1415 0.949 . S
C1420 C1426 1.368 . S
C1421 C1405 1.349 . S
C1421 H1413 0.950 . S
C1421 C1419 1.327 . S
C1422 C1410 1.349 . S
C1422 H1416 0.950 . S
C1422 C1423 1.327 1_556 S
C1423 H1417 0.950 . S
C1423 C1422 1.327 1_554 S
C1423 C1427 1.429 . S
C1424 C1407 1.574 . S
C1424 H1418 0.949 . S
C1424 C1428 1.368 . S
C1425 C1406 1.429 . S
C1425 C1419 1.429 . S
C1425 C1426 1.523 . S
C1426 C1407 1.368 . S
C1426 C1420 1.368 . S
C1426 C1425 1.523 . S
C1427 C1411 1.429 . S
C1427 C1423 1.429 . S
C1427 C1428 1.523 . S
C1428 C1412 1.368 . S
C1428 C1424 1.368 . S
C1428 C1427 1.523 . S
H1429 C1404 0.950 . S
H1430 C1406 0.950 . S
H1431 C1407 0.949 . S
H1432 C1409 0.950 . S
H1433 C1411 0.950 . S
C1434 C1435 1.349 . S
C1434 C1436 1.327 . S
C1434 H1459 0.950 . S
C1435 C1434 1.349 . S
C1435 C1451 1.349 . S
C1436 C1434 1.327 . S
C1436 C1455 1.429 . S
C1436 H1460 0.950 . S
C1437 C1454 1.574 . S
C1437 C1456 1.368 . S
C1437 H1461 0.949 . S
H1438 C1442 0.949 . S
C1439 C1440 1.349 . S
C1439 C1441 1.327 . S
C1439 H1462 0.950 . S
C1440 C1439 1.349 . S
C1440 C1452 1.349 . S
C1441 C1439 1.327 . S
C1441 C1457 1.429 . S
C1441 H1463 0.950 . S
C1442 H1438 0.949 . S
C1442 C1450 1.574 . S
C1442 C1458 1.368 . S
H1443 C1451 0.950 . S
H1444 C1449 0.950 . S
H1445 C1450 0.949 . S
H1446 C1452 0.950 . S
H1447 C1453 0.950 . S
H1448 C1454 0.949 . S
C1449 H1444 0.950 . S
C1449 C1451 1.327 . S
C1449 C1455 1.429 . S
C1450 C1442 1.574 . S
C1450 H1445 0.949 . S
C1450 C1456 1.368 . S
C1451 C1435 1.349 . S
C1451 H1443 0.950 . S
C1451 C1449 1.327 . S
C1452 C1440 1.349 . S
C1452 H1446 0.950 . S
C1452 C1453 1.327 . S
C1453 H1447 0.950 . S
C1453 C1452 1.327 . S
C1453 C1457 1.429 . S
C1454 C1437 1.574 . S
C1454 H1448 0.949 . S
C1454 C1458 1.368 . S
C1455 C1436 1.429 . S
C1455 C1449 1.429 . S
C1455 C1456 1.523 . S
C1456 C1437 1.368 . S
C1456 C1450 1.368 . S
C1456 C1455 1.523 . S
C1457 C1441 1.429 . S
C1457 C1453 1.429 . S
C1457 C1458 1.523 . S
C1458 C1442 1.368 . S
C1458 C1454 1.368 . S
C1458 C1457 1.523 . S
H1459 C1434 0.950 . S
H1460 C1436 0.950 . S
H1461 C1437 0.949 . S
H1462 C1439 0.950 . S
H1463 C1441 0.950 . S
C1464 C1465 1.349 . S
C1464 C1466 1.327 . S
C1464 H1489 0.950 . S
C1465 C1464 1.349 . S
C1465 C1481 1.349 . S
C1466 C1464 1.327 . S
C1466 C1485 1.429 . S
C1466 H1490 0.950 . S
C1467 C1484 1.574 . S
C1467 C1486 1.368 . S
C1467 H1491 0.949 . S
H1468 C1472 0.949 . S
C1469 C1470 1.349 . S
C1469 C1471 1.327 . S
C1469 H1492 0.950 . S
C1470 C1469 1.349 . S
C1470 C1482 1.349 . S
C1471 C1469 1.327 . S
C1471 C1487 1.429 . S
C1471 H1493 0.950 . S
C1472 H1468 0.949 . S
C1472 C1480 1.574 . S
C1472 C1488 1.368 . S
H1473 C1481 0.950 . S
H1474 C1479 0.950 . S
H1475 C1480 0.949 . S
H1476 C1482 0.950 . S
H1477 C1483 0.950 . S
H1478 C1484 0.949 . S
C1479 H1474 0.950 . S
C1479 C1481 1.327 . S
C1479 C1485 1.429 . S
C1480 C1472 1.574 . S
C1480 H1475 0.949 . S
C1480 C1486 1.368 . S
C1481 C1465 1.349 . S
C1481 H1473 0.950 . S
C1481 C1479 1.327 . S
C1482 C1470 1.349 . S
C1482 H1476 0.950 . S
C1482 C1483 1.327 . S
C1483 H1477 0.950 . S
C1483 C1482 1.327 . S
C1483 C1487 1.429 . S
C1484 C1467 1.574 . S
C1484 H1478 0.949 . S
C1484 C1488 1.368 . S
C1485 C1466 1.429 . S
C1485 C1479 1.429 . S
C1485 C1486 1.523 . S
C1486 C1467 1.368 . S
C1486 C1480 1.368 . S
C1486 C1485 1.523 . S
C1487 C1471 1.429 . S
C1487 C1483 1.429 . S
C1487 C1488 1.523 . S
C1488 C1472 1.368 . S
C1488 C1484 1.368 . S
C1488 C1487 1.523 . S
H1489 C1464 0.950 . S
H1490 C1466 0.950 . S
H1491 C1467 0.949 . S
H1492 C1469 0.950 . S
H1493 C1471 0.950 . S
C1494 C1495 1.349 . S
C1494 C1496 1.327 . S
C1494 H1519 0.950 . S
C1495 C1494 1.349 . S
C1495 C1511 1.349 . S
C1496 C1494 1.327 . S
C1496 C1515 1.429 . S
C1496 H1520 0.950 . S
C1497 C1514 1.574 . S
C1497 C1516 1.368 . S
C1497 H1521 0.949 . S
H1498 C1502 0.949 . S
C1499 C1500 1.349 . S
C1499 C1501 1.327 . S
C1499 H1522 0.950 . S
C1500 C1499 1.349 . S
C1500 C1512 1.349 . S
C1501 C1499 1.327 . S
C1501 C1517 1.429 . S
C1501 H1523 0.950 . S
C1502 H1498 0.949 . S
C1502 C1510 1.574 . S
C1502 C1518 1.368 . S
H1503 C1511 0.950 . S
H1504 C1509 0.950 . S
H1505 C1510 0.949 . S
H1506 C1512 0.950 . S
H1507 C1513 0.950 . S
H1508 C1514 0.949 . S
C1509 H1504 0.950 . S
C1509 C1511 1.327 . S
C1509 C1515 1.429 . S
C1510 C1502 1.574 . S
C1510 H1505 0.949 . S
C1510 C1516 1.368 . S
C1511 C1495 1.349 . S
C1511 H1503 0.950 . S
C1511 C1509 1.327 . S
C1512 C1500 1.349 . S
C1512 H1506 0.950 . S
C1512 C1513 1.327 . S
C1513 H1507 0.950 . S
C1513 C1512 1.327 . S
C1513 C1517 1.429 . S
C1514 C1497 1.574 . S
C1514 H1508 0.949 . S
C1514 C1518 1.368 . S
C1515 C1496 1.429 . S
C1515 C1509 1.429 . S
C1515 C1516 1.523 . S
C1516 C1497 1.368 . S
C1516 C1510 1.368 . S
C1516 C1515 1.523 . S
C1517 C1501 1.429 . S
C1517 C1513 1.429 . S
C1517 C1518 1.523 . S
C1518 C1502 1.368 . S
C1518 C1514 1.368 . S
C1518 C1517 1.523 . S
H1519 C1494 0.950 . S
H1520 C1496 0.950 . S
H1521 C1497 0.949 . S
H1522 C1499 0.950 . S
H1523 C1501 0.950 . S
C1524 C1525 1.349 . S
C1524 C1526 1.327 . S
C1524 H1549 0.950 . S
C1525 C1524 1.349 . S
C1525 C1541 1.349 . S
C1526 C1524 1.327 . S
C1526 C1545 1.429 . S
C1526 H1550 0.950 . S
C1527 C1544 1.574 . S
C1527 C1546 1.368 . S
C1527 H1551 0.949 . S
H1528 C1532 0.949 . S
C1529 C1530 1.349 . S
C1529 C1531 1.327 1_554 S
C1529 H1552 0.950 . S
C1530 C1529 1.349 . S
C1530 C1542 1.349 . S
C1531 C1529 1.327 1_556 S
C1531 C1547 1.429 . S
C1531 H1553 0.950 . S
C1532 H1528 0.949 . S
C1532 C1540 1.574 . S
C1532 C1548 1.368 . S
H1533 C1541 0.950 . S
H1534 C1539 0.950 . S
H1535 C1540 0.949 . S
H1536 C1542 0.950 . S
H1537 C1543 0.949 1_556 S
H1538 C1544 0.949 . S
C1539 H1534 0.950 . S
C1539 C1541 1.327 . S
C1539 C1545 1.429 . S
C1540 C1532 1.574 . S
C1540 H1535 0.949 . S
C1540 C1546 1.368 . S
C1541 C1525 1.349 . S
C1541 H1533 0.950 . S
C1541 C1539 1.327 . S
C1542 C1530 1.349 . S
C1542 H1536 0.950 . S
C1542 C1543 1.328 . S
C1543 H1537 0.949 1_554 S
C1543 C1542 1.328 . S
C1543 C1547 1.428 1_554 S
C1544 C1527 1.574 . S
C1544 H1538 0.949 . S
C1544 C1548 1.368 . S
C1545 C1526 1.429 . S
C1545 C1539 1.429 . S
C1545 C1546 1.523 . S
C1546 C1527 1.368 . S
C1546 C1540 1.368 . S
C1546 C1545 1.523 . S
C1547 C1531 1.429 . S
C1547 C1543 1.428 1_556 S
C1547 C1548 1.523 . S
C1548 C1532 1.368 . S
C1548 C1544 1.368 . S
C1548 C1547 1.523 . S
H1549 C1524 0.950 . S
H1550 C1526 0.950 . S
H1551 C1527 0.949 . S
H1552 C1529 0.950 . S
H1553 C1531 0.950 . S
C1554 C1555 1.349 . S
C1554 C1556 1.327 1_556 S
C1554 H1579 0.950 . S
C1555 C1554 1.349 . S
C1555 C1571 1.349 . S
C1556 C1554 1.327 1_554 S
C1556 C1575 1.429 . S
C1556 H1580 0.950 . S
C1557 C1574 1.574 . S
C1557 C1576 1.368 . S
C1557 H1581 0.949 . S
H1558 C1562 0.949 . S
C1559 C1560 1.349 . S
C1559 C1561 1.327 . S
C1559 H1582 0.950 . S
C1560 C1559 1.349 . S
C1560 C1572 1.349 . S
C1561 C1559 1.327 . S
C1561 C1577 1.429 . S
C1561 H1583 0.950 . S
C1562 H1558 0.949 . S
C1562 C1570 1.574 . S
C1562 C1578 1.368 . S
H1563 C1571 0.950 . S
H1564 C1569 0.950 . S
H1565 C1570 0.949 . S
H1566 C1572 0.950 . S
H1567 C1573 0.950 . S
H1568 C1574 0.949 . S
C1569 H1564 0.950 . S
C1569 C1571 1.327 1_554 S
C1569 C1575 1.429 . S
C1570 C1562 1.574 . S
C1570 H1565 0.949 . S
C1570 C1576 1.368 . S
C1571 C1555 1.349 . S
C1571 H1563 0.950 . S
C1571 C1569 1.327 1_556 S
C1572 C1560 1.349 . S
C1572 H1566 0.950 . S
C1572 C1573 1.327 . S
C1573 H1567 0.950 . S
C1573 C1572 1.327 . S
C1573 C1577 1.429 . S
C1574 C1557 1.574 . S
C1574 H1568 0.949 . S
C1574 C1578 1.368 . S
C1575 C1556 1.429 . S
C1575 C1569 1.429 . S
C1575 C1576 1.523 . S
C1576 C1557 1.368 . S
C1576 C1570 1.368 . S
C1576 C1575 1.523 . S
C1577 C1561 1.429 . S
C1577 C1573 1.429 . S
C1577 C1578 1.523 . S
C1578 C1562 1.368 . S
C1578 C1574 1.368 . S
C1578 C1577 1.523 . S
H1579 C1554 0.950 . S
H1580 C1556 0.950 . S
H1581 C1557 0.949 . S
H1582 C1559 0.950 . S
H1583 C1561 0.950 . S
C1584 C1585 1.349 . S
C1584 C1586 1.327 . S
C1584 H1609 0.950 . S
C1585 C1584 1.349 . S
C1585 C1601 1.349 . S
C1586 C1584 1.327 . S
C1586 C1605 1.429 . S
C1586 H1610 0.950 . S
C1587 C1604 1.574 . S
C1587 C1606 1.368 . S
C1587 H1611 0.949 . S
H1588 C1592 0.949 . S
C1589 C1590 1.349 . S
C1589 C1591 1.327 . S
C1589 H1612 0.950 . S
C1590 C1589 1.349 . S
C1590 C1602 1.349 . S
C1591 C1589 1.327 . S
C1591 C1607 1.429 . S
C1591 H1613 0.950 . S
C1592 H1588 0.949 . S
C1592 C1600 1.574 . S
C1592 C1608 1.368 . S
H1593 C1601 0.950 . S
H1594 C1599 0.950 . S
H1595 C1600 0.949 . S
H1596 C1602 0.950 . S
H1597 C1603 0.950 . S
H1598 C1604 0.949 . S
C1599 H1594 0.950 . S
C1599 C1601 1.327 . S
C1599 C1605 1.429 . S
C1600 C1592 1.574 . S
C1600 H1595 0.949 . S
C1600 C1606 1.368 . S
C1601 C1585 1.349 . S
C1601 H1593 0.950 . S
C1601 C1599 1.327 . S
C1602 C1590 1.349 . S
C1602 H1596 0.950 . S
C1602 C1603 1.327 . S
C1603 H1597 0.950 . S
C1603 C1602 1.327 . S
C1603 C1607 1.429 . S
C1604 C1587 1.574 . S
C1604 H1598 0.949 . S
C1604 C1608 1.368 . S
C1605 C1586 1.429 . S
C1605 C1599 1.429 . S
C1605 C1606 1.523 . S
C1606 C1587 1.368 . S
C1606 C1600 1.368 . S
C1606 C1605 1.523 . S
C1607 C1591 1.429 . S
C1607 C1603 1.429 . S
C1607 C1608 1.523 . S
C1608 C1592 1.368 . S
C1608 C1604 1.368 . S
C1608 C1607 1.523 . S
H1609 C1584 0.950 . S
H1610 C1586 0.950 . S
H1611 C1587 0.949 . S
H1612 C1589 0.950 . S
H1613 C1591 0.950 . S
C1614 C1615 1.349 . S
C1614 C1616 1.327 . S
C1614 H1639 0.950 . S
C1615 C1614 1.349 . S
C1615 C1631 1.349 . S
C1616 C1614 1.327 . S
C1616 C1635 1.429 . S
C1616 H1640 0.950 . S
C1617 C1634 1.574 . S
C1617 C1636 1.368 . S
C1617 H1641 0.949 . S
H1618 C1622 0.949 . S
C1619 C1620 1.349 . S
C1619 C1621 1.327 1_556 S
C1619 H1642 0.950 . S
C1620 C1619 1.349 . S
C1620 C1632 1.349 . S
C1621 C1619 1.327 1_554 S
C1621 C1637 1.429 . S
C1621 H1643 0.950 . S
C1622 H1618 0.949 . S
C1622 C1630 1.574 . S
C1622 C1638 1.368 . S
H1623 C1631 0.950 . S
H1624 C1629 0.950 . S
H1625 C1630 0.949 . S
H1626 C1632 0.950 . S
H1627 C1633 0.950 . S
H1628 C1634 0.949 . S
C1629 H1624 0.950 . S
C1629 C1631 1.327 . S
C1629 C1635 1.429 . S
C1630 C1622 1.574 . S
C1630 H1625 0.949 . S
C1630 C1636 1.368 . S
C1631 C1615 1.349 . S
C1631 H1623 0.950 . S
C1631 C1629 1.327 . S
C1632 C1620 1.349 . S
C1632 H1626 0.950 . S
C1632 C1633 1.327 1_556 S
C1633 H1627 0.950 . S
C1633 C1632 1.327 1_554 S
C1633 C1637 1.429 . S
C1634 C1617 1.574 . S
C1634 H1628 0.949 . S
C1634 C1638 1.368 . S
C1635 C1616 1.429 . S
C1635 C1629 1.429 . S
C1635 C1636 1.523 . S
C1636 C1617 1.368 . S
C1636 C1630 1.368 . S
C1636 C1635 1.523 . S
C1637 C1621 1.429 . S
C1637 C1633 1.429 . S
C1637 C1638 1.523 . S
C1638 C1622 1.368 . S
C1638 C1634 1.368 . S
C1638 C1637 1.523 . S
H1639 C1614 0.950 . S
H1640 C1616 0.950 . S
H1641 C1617 0.949 . S
H1642 C1619 0.950 . S
H1643 C1621 0.950 . S
C1644 C1645 1.349 . S
C1644 C1646 1.327 1_554 S
C1644 H1669 0.950 . S
C1645 C1644 1.349 . S
C1645 C1661 1.349 . S
C1646 C1644 1.327 1_556 S
C1646 C1665 1.429 . S
C1646 H1670 0.950 . S
C1647 C1664 1.574 . S
C1647 C1666 1.368 . S
C1647 H1671 0.949 . S
H1648 C1652 0.949 . S
C1649 C1650 1.349 . S
C1649 C1651 1.327 . S
C1649 H1672 0.950 . S
C1650 C1649 1.349 . S
C1650 C1662 1.349 . S
C1651 C1649 1.327 . S
C1651 C1667 1.429 . S
C1651 H1673 0.950 . S
C1652 H1648 0.949 . S
C1652 C1660 1.574 . S
C1652 C1668 1.368 . S
H1653 C1661 0.950 . S
H1654 C1659 0.950 . S
H1655 C1660 0.949 . S
H1656 C1662 0.950 . S
H1657 C1663 0.950 . S
H1658 C1664 0.949 . S
C1659 H1654 0.950 . S
C1659 C1661 1.327 1_556 S
C1659 C1665 1.429 . S
C1660 C1652 1.574 . S
C1660 H1655 0.949 . S
C1660 C1666 1.368 . S
C1661 C1645 1.349 . S
C1661 H1653 0.950 . S
C1661 C1659 1.327 1_554 S
C1662 C1650 1.349 . S
C1662 H1656 0.950 . S
C1662 C1663 1.327 . S
C1663 H1657 0.950 . S
C1663 C1662 1.327 . S
C1663 C1667 1.429 . S
C1664 C1647 1.574 . S
C1664 H1658 0.949 . S
C1664 C1668 1.368 . S
C1665 C1646 1.429 . S
C1665 C1659 1.429 . S
C1665 C1666 1.523 . S
C1666 C1647 1.368 . S
C1666 C1660 1.368 . S
C1666 C1665 1.523 . S
C1667 C1651 1.429 . S
C1667 C1663 1.429 . S
C1667 C1668 1.523 . S
C1668 C1652 1.368 . S
C1668 C1664 1.368 . S
C1668 C1667 1.523 . S
H1669 C1644 0.950 . S
H1670 C1646 0.950 . S
H1671 C1647 0.949 . S
H1672 C1649 0.950 . S
H1673 C1651 0.950 . S
C1674 C1675 1.349 . S
C1674 C1676 1.327 . S
C1674 H1699 0.950 . S
C1675 C1674 1.349 . S
C1675 C1691 1.349 . S
C1676 C1674 1.327 . S
C1676 C1695 1.429 . S
C1676 H1700 0.950 . S
C1677 C1694 1.574 . S
C1677 C1696 1.368 . S
C1677 H1701 0.949 . S
H1678 C1682 0.949 . S
C1679 C1680 1.349 . S
C1679 C1681 1.327 . S
C1679 H1702 0.950 . S
C1680 C1679 1.349 . S
C1680 C1692 1.349 . S
C1681 C1679 1.327 . S
C1681 C1697 1.429 . S
C1681 H1703 0.950 . S
C1682 H1678 0.949 . S
C1682 C1690 1.574 . S
C1682 C1698 1.368 . S
H1683 C1691 0.950 . S
H1684 C1689 0.950 . S
H1685 C1690 0.949 . S
H1686 C1692 0.950 . S
H1687 C1693 0.950 . S
H1688 C1694 0.949 . S
C1689 H1684 0.950 . S
C1689 C1691 1.327 . S
C1689 C1695 1.429 . S
C1690 C1682 1.574 . S
C1690 H1685 0.949 . S
C1690 C1696 1.368 . S
C1691 C1675 1.349 . S
C1691 H1683 0.950 . S
C1691 C1689 1.327 . S
C1692 C1680 1.349 . S
C1692 H1686 0.950 . S
C1692 C1693 1.327 . S
C1693 H1687 0.950 . S
C1693 C1692 1.327 . S
C1693 C1697 1.429 . S
C1694 C1677 1.574 . S
C1694 H1688 0.949 . S
C1694 C1698 1.368 . S
C1695 C1676 1.429 . S
C1695 C1689 1.429 . S
C1695 C1696 1.523 . S
C1696 C1677 1.368 . S
C1696 C1690 1.368 . S
C1696 C1695 1.523 . S
C1697 C1681 1.429 . S
C1697 C1693 1.429 . S
C1697 C1698 1.523 . S
C1698 C1682 1.368 . S
C1698 C1694 1.368 . S
C1698 C1697 1.523 . S
H1699 C1674 0.950 . S
H1700 C1676 0.950 . S
H1701 C1677 0.949 . S
H1702 C1679 0.950 . S
H1703 C1681 0.950 . S
C1704 C1705 1.349 . S
C1704 C1706 1.327 . S
C1704 H1729 0.950 . S
C1705 C1704 1.349 . S
C1705 C1721 1.349 . S
C1706 C1704 1.327 . S
C1706 C1725 1.429 . S
C1706 H1730 0.950 . S
C1707 C1724 1.574 . S
C1707 C1726 1.368 . S
C1707 H1731 0.949 . S
H1708 C1712 0.949 . S
C1709 C1710 1.349 . S
C1709 C1711 1.327 . S
C1709 H1732 0.950 . S
C1710 C1709 1.349 . S
C1710 C1722 1.349 . S
C1711 C1709 1.327 . S
C1711 C1727 1.429 . S
C1711 H1733 0.950 . S
C1712 H1708 0.949 . S
C1712 C1720 1.574 . S
C1712 C1728 1.368 . S
H1713 C1721 0.950 . S
H1714 C1719 0.950 . S
H1715 C1720 0.949 . S
H1716 C1722 0.950 . S
H1717 C1723 0.950 . S
H1718 C1724 0.949 . S
C1719 H1714 0.950 . S
C1719 C1721 1.327 . S
C1719 C1725 1.429 . S
C1720 C1712 1.574 . S
C1720 H1715 0.949 . S
C1720 C1726 1.368 . S
C1721 C1705 1.349 . S
C1721 H1713 0.950 . S
C1721 C1719 1.327 . S
C1722 C1710 1.349 . S
C1722 H1716 0.950 . S
C1722 C1723 1.327 . S
C1723 H1717 0.950 . S
C1723 C1722 1.327 . S
C1723 C1727 1.429 . S
C1724 C1707 1.574 . S
C1724 H1718 0.949 . S
C1724 C1728 1.368 . S
C1725 C1706 1.429 . S
C1725 C1719 1.429 . S
C1725 C1726 1.523 . S
C1726 C1707 1.368 . S
C1726 C1720 1.368 . S
C1726 C1725 1.523 . S
C1727 C1711 1.429 . S
C1727 C1723 1.429 . S
C1727 C1728 1.523 . S
C1728 C1712 1.368 . S
C1728 C1724 1.368 . S
C1728 C1727 1.523 . S
H1729 C1704 0.950 . S
H1730 C1706 0.950 . S
H1731 C1707 0.949 . S
H1732 C1709 0.950 . S
H1733 C1711 0.950 . S
C1734 C1735 1.349 . S
C1734 C1736 1.327 . S
C1734 H1759 0.950 . S
C1735 C1734 1.349 . S
C1735 C1751 1.349 . S
C1736 C1734 1.327 . S
C1736 C1755 1.429 . S
C1736 H1760 0.950 . S
C1737 C1754 1.574 . S
C1737 C1756 1.368 . S
C1737 H1761 0.949 . S
H1738 C1742 0.949 . S
C1739 C1740 1.349 . S
C1739 C1741 1.327 . S
C1739 H1762 0.950 . S
C1740 C1739 1.349 . S
C1740 C1752 1.349 . S
C1741 C1739 1.327 . S
C1741 C1757 1.429 . S
C1741 H1763 0.950 . S
C1742 H1738 0.949 . S
C1742 C1750 1.574 . S
C1742 C1758 1.368 . S
H1743 C1751 0.950 . S
H1744 C1749 0.950 . S
H1745 C1750 0.949 . S
H1746 C1752 0.950 . S
H1747 C1753 0.950 . S
H1748 C1754 0.949 . S
C1749 H1744 0.950 . S
C1749 C1751 1.327 . S
C1749 C1755 1.429 . S
C1750 C1742 1.574 . S
C1750 H1745 0.949 . S
C1750 C1756 1.368 . S
C1751 C1735 1.349 . S
C1751 H1743 0.950 . S
C1751 C1749 1.327 . S
C1752 C1740 1.349 . S
C1752 H1746 0.950 . S
C1752 C1753 1.327 . S
C1753 H1747 0.950 . S
C1753 C1752 1.327 . S
C1753 C1757 1.429 . S
C1754 C1737 1.574 . S
C1754 H1748 0.949 . S
C1754 C1758 1.368 . S
C1755 C1736 1.429 . S
C1755 C1749 1.429 . S
C1755 C1756 1.523 . S
C1756 C1737 1.368 . S
C1756 C1750 1.368 . S
C1756 C1755 1.523 . S
C1757 C1741 1.429 . S
C1757 C1753 1.429 . S
C1757 C1758 1.523 . S
C1758 C1742 1.368 . S
C1758 C1754 1.368 . S
C1758 C1757 1.523 . S
H1759 C1734 0.950 . S
H1760 C1736 0.950 . S
H1761 C1737 0.949 . S
H1762 C1739 0.950 . S
H1763 C1741 0.950 . S
C1764 C1765 1.349 . S
C1764 C1766 1.327 . S
C1764 H1789 0.950 . S
C1765 C1764 1.349 . S
C1765 C1781 1.349 . S
C1766 C1764 1.327 . S
C1766 C1785 1.429 . S
C1766 H1790 0.950 . S
C1767 C1784 1.574 . S
C1767 C1786 1.368 . S
C1767 H1791 0.949 . S
H1768 C1772 0.949 . S
C1769 C1770 1.349 . S
C1769 C1771 1.327 1_556 S
C1769 H1792 0.950 . S
C1770 C1769 1.349 . S
C1770 C1782 1.349 . S
C1771 C1769 1.327 1_554 S
C1771 C1787 1.429 . S
C1771 H1793 0.950 . S
C1772 H1768 0.949 . S
C1772 C1780 1.574 . S
C1772 C1788 1.368 . S
H1773 C1781 0.950 . S
H1774 C1779 0.950 . S
H1775 C1780 0.949 . S
H1776 C1782 0.950 . S
H1777 C1783 0.950 . S
H1778 C1784 0.949 . S
C1779 H1774 0.950 . S
C1779 C1781 1.327 . S
C1779 C1785 1.429 . S
C1780 C1772 1.574 . S
C1780 H1775 0.949 . S
C1780 C1786 1.368 . S
C1781 C1765 1.349 . S
C1781 H1773 0.950 . S
C1781 C1779 1.327 . S
C1782 C1770 1.349 . S
C1782 H1776 0.950 . S
C1782 C1783 1.327 1_556 S
C1783 H1777 0.950 . S
C1783 C1782 1.327 1_554 S
C1783 C1787 1.429 . S
C1784 C1767 1.574 . S
C1784 H1778 0.949 . S
C1784 C1788 1.368 . S
C1785 C1766 1.429 . S
C1785 C1779 1.429 . S
C1785 C1786 1.523 . S
C1786 C1767 1.368 . S
C1786 C1780 1.368 . S
C1786 C1785 1.523 . S
C1787 C1771 1.429 . S
C1787 C1783 1.429 . S
C1787 C1788 1.523 . S
C1788 C1772 1.368 . S
C1788 C1784 1.368 . S
C1788 C1787 1.523 . S
H1789 C1764 0.950 . S
H1790 C1766 0.950 . S
H1791 C1767 0.949 . S
H1792 C1769 0.950 . S
H1793 C1771 0.950 . S
C1794 C1795 1.349 . S
C1794 C1796 1.327 1_554 S
C1794 H1819 0.950 . S
C1795 C1794 1.349 . S
C1795 C1811 1.349 . S
C1796 C1794 1.327 1_556 S
C1796 C1815 1.429 . S
C1796 H1820 0.950 . S
C1797 C1814 1.574 . S
C1797 C1816 1.368 . S
C1797 H1821 0.949 . S
H1798 C1802 0.949 . S
C1799 C1800 1.349 . S
C1799 C1801 1.327 . S
C1799 H1822 0.950 . S
C1800 C1799 1.349 . S
C1800 C1812 1.349 . S
C1801 C1799 1.327 . S
C1801 C1817 1.429 . S
C1801 H1823 0.950 . S
C1802 H1798 0.949 . S
C1802 C1810 1.574 . S
C1802 C1818 1.368 . S
H1803 C1811 0.950 . S
H1804 C1809 0.950 1_556 S
H1805 C1810 0.949 . S
H1806 C1812 0.950 . S
H1807 C1813 0.950 . S
H1808 C1814 0.949 . S
C1809 H1804 0.950 1_554 S
C1809 C1811 1.327 . S
C1809 C1815 1.429 1_554 S
C1810 C1802 1.574 . S
C1810 H1805 0.949 . S
C1810 C1816 1.368 . S
C1811 C1795 1.349 . S
C1811 H1803 0.950 . S
C1811 C1809 1.327 . S
C1812 C1800 1.349 . S
C1812 H1806 0.950 . S
C1812 C1813 1.327 . S
C1813 H1807 0.950 . S
C1813 C1812 1.327 . S
C1813 C1817 1.429 . S
C1814 C1797 1.574 . S
C1814 H1808 0.949 . S
C1814 C1818 1.368 . S
C1815 C1796 1.429 . S
C1815 C1809 1.429 1_556 S
C1815 C1816 1.523 . S
C1816 C1797 1.368 . S
C1816 C1810 1.368 . S
C1816 C1815 1.523 . S
C1817 C1801 1.429 . S
C1817 C1813 1.429 . S
C1817 C1818 1.523 . S
C1818 C1802 1.368 . S
C1818 C1814 1.368 . S
C1818 C1817 1.523 . S
H1819 C1794 0.950 . S
H1820 C1796 0.950 . S
H1821 C1797 0.949 . S
H1822 C1799 0.950 . S
H1823 C1801 0.950 . S
C1824 C1825 1.349 . S
C1824 C1826 1.327 . S
C1824 H1849 0.950 . S
C1825 C1824 1.349 . S
C1825 C1841 1.349 . S
C1826 C1824 1.327 . S
C1826 C1845 1.429 . S
C1826 H1850 0.950 . S
C1827 C1844 1.574 . S
C1827 C1846 1.368 . S
C1827 H1851 0.949 . S
H1828 C1832 0.949 . S
C1829 C1830 1.349 . S
C1829 C1831 1.327 . S
C1829 H1852 0.950 . S
C1830 C1829 1.349 . S
C1830 C1842 1.349 . S
C1831 C1829 1.327 . S
C1831 C1847 1.429 . S
C1831 H1853 0.950 . S
C1832 H1828 0.949 . S
C1832 C1840 1.574 . S
C1832 C1848 1.368 . S
H1833 C1841 0.950 . S
H1834 C1839 0.950 . S
H1835 C1840 0.949 . S
H1836 C1842 0.950 . S
H1837 C1843 0.950 . S
H1838 C1844 0.949 . S
C1839 H1834 0.950 . S
C1839 C1841 1.327 . S
C1839 C1845 1.429 . S
C1840 C1832 1.574 . S
C1840 H1835 0.949 . S
C1840 C1846 1.368 . S
C1841 C1825 1.349 . S
C1841 H1833 0.950 . S
C1841 C1839 1.327 . S
C1842 C1830 1.349 . S
C1842 H1836 0.950 . S
C1842 C1843 1.327 . S
C1843 H1837 0.950 . S
C1843 C1842 1.327 . S
C1843 C1847 1.429 . S
C1844 C1827 1.574 . S
C1844 H1838 0.949 . S
C1844 C1848 1.368 . S
C1845 C1826 1.429 . S
C1845 C1839 1.429 . S
C1845 C1846 1.523 . S
C1846 C1827 1.368 . S
C1846 C1840 1.368 . S
C1846 C1845 1.523 . S
C1847 C1831 1.429 . S
C1847 C1843 1.429 . S
C1847 C1848 1.523 . S
C1848 C1832 1.368 . S
C1848 C1844 1.368 . S
C1848 C1847 1.523 . S
H1849 C1824 0.950 . S
H1850 C1826 0.950 . S
H1851 C1827 0.949 . S
H1852 C1829 0.950 . S
H1853 C1831 0.950 . S
C1854 C1855 1.349 . S
C1854 C1856 1.327 . S
C1854 H1879 0.950 . S
C1855 C1854 1.349 . S
C1855 C1871 1.349 . S
C1856 C1854 1.327 . S
C1856 C1875 1.429 . S
C1856 H1880 0.950 . S
C1857 C1874 1.574 . S
C1857 C1876 1.368 . S
C1857 H1881 0.949 . S
H1858 C1862 0.949 . S
C1859 C1860 1.349 . S
C1859 C1861 1.327 . S
C1859 H1882 0.950 . S
C1860 C1859 1.349 . S
C1860 C1872 1.349 . S
C1861 C1859 1.327 . S
C1861 C1877 1.429 . S
C1861 H1883 0.950 . S
C1862 H1858 0.949 . S
C1862 C1870 1.574 . S
C1862 C1878 1.368 . S
H1863 C1871 0.950 . S
H1864 C1869 0.950 . S
H1865 C1870 0.949 . S
H1866 C1872 0.950 . S
H1867 C1873 0.950 . S
H1868 C1874 0.949 . S
C1869 H1864 0.950 . S
C1869 C1871 1.327 . S
C1869 C1875 1.429 . S
C1870 C1862 1.574 . S
C1870 H1865 0.949 . S
C1870 C1876 1.368 . S
C1871 C1855 1.349 . S
C1871 H1863 0.950 . S
C1871 C1869 1.327 . S
C1872 C1860 1.349 . S
C1872 H1866 0.950 . S
C1872 C1873 1.327 . S
C1873 H1867 0.950 . S
C1873 C1872 1.327 . S
C1873 C1877 1.429 . S
C1874 C1857 1.574 . S
C1874 H1868 0.949 . S
C1874 C1878 1.368 . S
C1875 C1856 1.429 . S
C1875 C1869 1.429 . S
C1875 C1876 1.523 . S
C1876 C1857 1.368 . S
C1876 C1870 1.368 . S
C1876 C1875 1.523 . S
C1877 C1861 1.429 . S
C1877 C1873 1.429 . S
C1877 C1878 1.523 . S
C1878 C1862 1.368 . S
C1878 C1874 1.368 . S
C1878 C1877 1.523 . S
H1879 C1854 0.950 . S
H1880 C1856 0.950 . S
H1881 C1857 0.949 . S
H1882 C1859 0.950 . S
H1883 C1861 0.950 . S
C1884 C1885 1.349 . S
C1884 C1886 1.327 . S
C1884 H1909 0.950 . S
C1885 C1884 1.349 . S
C1885 C1901 1.349 . S
C1886 C1884 1.327 . S
C1886 C1905 1.429 . S
C1886 H1910 0.950 . S
C1887 C1904 1.574 . S
C1887 C1906 1.368 . S
C1887 H1911 0.949 . S
H1888 C1892 0.949 . S
C1889 C1890 1.349 . S
C1889 C1891 1.327 . S
C1889 H1912 0.950 . S
C1890 C1889 1.349 . S
C1890 C1902 1.349 . S
C1891 C1889 1.327 . S
C1891 C1907 1.429 . S
C1891 H1913 0.950 . S
C1892 H1888 0.949 . S
C1892 C1900 1.574 . S
C1892 C1908 1.368 . S
H1893 C1901 0.950 . S
H1894 C1899 0.950 . S
H1895 C1900 0.949 . S
H1896 C1902 0.950 . S
H1897 C1903 0.950 . S
H1898 C1904 0.949 . S
C1899 H1894 0.950 . S
C1899 C1901 1.327 . S
C1899 C1905 1.429 . S
C1900 C1892 1.574 . S
C1900 H1895 0.949 . S
C1900 C1906 1.368 . S
C1901 C1885 1.349 . S
C1901 H1893 0.950 . S
C1901 C1899 1.327 . S
C1902 C1890 1.349 . S
C1902 H1896 0.950 . S
C1902 C1903 1.327 . S
C1903 H1897 0.950 . S
C1903 C1902 1.327 . S
C1903 C1907 1.429 . S
C1904 C1887 1.574 . S
C1904 H1898 0.949 . S
C1904 C1908 1.368 . S
C1905 C1886 1.429 . S
C1905 C1899 1.429 . S
C1905 C1906 1.523 . S
C1906 C1887 1.368 . S
C1906 C1900 1.368 . S
C1906 C1905 1.523 . S
C1907 C1891 1.429 . S
C1907 C1903 1.429 . S
C1907 C1908 1.523 . S
C1908 C1892 1.368 . S
C1908 C1904 1.368 . S
C1908 C1907 1.523 . S
H1909 C1884 0.950 . S
H1910 C1886 0.950 . S
H1911 C1887 0.949 . S
H1912 C1889 0.950 . S
H1913 C1891 0.950 . S
C1914 C1915 1.349 . S
C1914 C1916 1.327 . S
C1914 H1939 0.950 . S
C1915 C1914 1.349 . S
C1915 C1931 1.349 . S
C1916 C1914 1.327 . S
C1916 C1935 1.429 . S
C1916 H1940 0.950 . S
C1917 C1934 1.574 1_655 S
C1917 C1936 1.368 . S
C1917 H1941 0.949 . S
H1918 C1922 0.949 . S
C1919 C1920 1.349 . S
C1919 C1921 1.327 . S
C1919 H1942 0.950 . S
C1920 C1919 1.349 . S
C1920 C1932 1.349 . S
C1921 C1919 1.327 . S
C1921 C1937 1.429 . S
C1921 H1943 0.950 . S
C1922 H1918 0.949 . S
C1922 C1930 1.574 1_455 S
C1922 C1938 1.368 . S
H1923 C1931 0.950 . S
H1924 C1929 0.950 . S
H1925 C1930 0.949 . S
H1926 C1932 0.950 . S
H1927 C1933 0.950 . S
H1928 C1934 0.949 . S
C1929 H1924 0.950 . S
C1929 C1931 1.327 . S
C1929 C1935 1.429 . S
C1930 C1922 1.574 1_655 S
C1930 H1925 0.949 . S
C1930 C1936 1.368 . S
C1931 C1915 1.349 . S
C1931 H1923 0.950 . S
C1931 C1929 1.327 . S
C1932 C1920 1.349 . S
C1932 H1926 0.950 . S
C1932 C1933 1.327 . S
C1933 H1927 0.950 . S
C1933 C1932 1.327 . S
C1933 C1937 1.429 . S
C1934 C1917 1.574 1_455 S
C1934 H1928 0.949 . S
C1934 C1938 1.368 . S
C1935 C1916 1.429 . S
C1935 C1929 1.429 . S
C1935 C1936 1.523 . S
C1936 C1917 1.368 . S
C1936 C1930 1.368 . S
C1936 C1935 1.523 . S
C1937 C1921 1.429 . S
C1937 C1933 1.429 . S
C1937 C1938 1.523 . S
C1938 C1922 1.368 . S
C1938 C1934 1.368 . S
C1938 C1937 1.523 . S
H1939 C1914 0.950 . S
H1940 C1916 0.950 . S
H1941 C1917 0.949 . S
H1942 C1919 0.950 . S
H1943 C1921 0.950 . S
C1944 C1945 1.349 . S
C1944 C1946 1.327 . S
C1944 H1969 0.950 . S
C1945 C1944 1.349 . S
C1945 C1961 1.349 . S
C1946 C1944 1.327 . S
C1946 C1965 1.429 . S
C1946 H1970 0.950 . S
C1947 C1964 1.574 . S
C1947 C1966 1.368 . S
C1947 H1971 0.949 . S
H1948 C1952 0.949 . S
C1949 C1950 1.349 . S
C1949 C1951 1.327 . S
C1949 H1972 0.950 . S
C1950 C1949 1.349 . S
C1950 C1962 1.349 . S
C1951 C1949 1.327 . S
C1951 C1967 1.429 . S
C1951 H1973 0.950 . S
C1952 H1948 0.949 . S
C1952 C1960 1.574 . S
C1952 C1968 1.368 . S
H1953 C1961 0.950 . S
H1954 C1959 0.950 . S
H1955 C1960 0.949 . S
H1956 C1962 0.950 . S
H1957 C1963 0.950 . S
H1958 C1964 0.949 . S
C1959 H1954 0.950 . S
C1959 C1961 1.327 . S
C1959 C1965 1.429 . S
C1960 C1952 1.574 . S
C1960 H1955 0.949 . S
C1960 C1966 1.368 . S
C1961 C1945 1.349 . S
C1961 H1953 0.950 . S
C1961 C1959 1.327 . S
C1962 C1950 1.349 . S
C1962 H1956 0.950 . S
C1962 C1963 1.327 . S
C1963 H1957 0.950 . S
C1963 C1962 1.327 . S
C1963 C1967 1.429 . S
C1964 C1947 1.574 . S
C1964 H1958 0.949 . S
C1964 C1968 1.368 . S
C1965 C1946 1.429 . S
C1965 C1959 1.429 . S
C1965 C1966 1.523 . S
C1966 C1947 1.368 . S
C1966 C1960 1.368 . S
C1966 C1965 1.523 . S
C1967 C1951 1.429 . S
C1967 C1963 1.429 . S
C1967 C1968 1.523 . S
C1968 C1952 1.368 . S
C1968 C1964 1.368 . S
C1968 C1967 1.523 . S
H1969 C1944 0.950 . S
H1970 C1946 0.950 . S
H1971 C1947 0.949 . S
H1972 C1949 0.950 . S
H1973 C1951 0.950 . S
C1974 C1975 1.349 . S
C1974 C1976 1.327 . S
C1974 H1999 0.950 . S
C1975 C1974 1.349 . S
C1975 C1991 1.349 . S
C1976 C1974 1.327 . S
C1976 C1995 1.429 . S
C1976 H2000 0.950 . S
C1977 C1994 1.574 1_455 S
C1977 C1996 1.368 . S
C1977 H2001 0.949 . S
H1978 C1982 0.949 . S
C1979 C1980 1.349 . S
C1979 C1981 1.327 . S
C1979 H2002 0.950 . S
C1980 C1979 1.349 . S
C1980 C1992 1.349 . S
C1981 C1979 1.327 . S
C1981 C1997 1.429 . S
C1981 H2003 0.950 . S
C1982 H1978 0.949 . S
C1982 C1990 1.574 1_655 S
C1982 C1998 1.368 . S
H1983 C1991 0.950 . S
H1984 C1989 0.950 . S
H1985 C1990 0.949 . S
H1986 C1992 0.950 . S
H1987 C1993 0.950 . S
H1988 C1994 0.949 . S
C1989 H1984 0.950 . S
C1989 C1991 1.327 . S
C1989 C1995 1.429 . S
C1990 C1982 1.574 1_455 S
C1990 H1985 0.949 . S
C1990 C1996 1.368 . S
C1991 C1975 1.349 . S
C1991 H1983 0.950 . S
C1991 C1989 1.327 . S
C1992 C1980 1.349 . S
C1992 H1986 0.950 . S
C1992 C1993 1.327 . S
C1993 H1987 0.950 . S
C1993 C1992 1.327 . S
C1993 C1997 1.429 . S
C1994 C1977 1.574 1_655 S
C1994 H1988 0.949 . S
C1994 C1998 1.368 . S
C1995 C1976 1.429 . S
C1995 C1989 1.429 . S
C1995 C1996 1.523 . S
C1996 C1977 1.368 . S
C1996 C1990 1.368 . S
C1996 C1995 1.523 . S
C1997 C1981 1.429 . S
C1997 C1993 1.429 . S
C1997 C1998 1.523 . S
C1998 C1982 1.368 . S
C1998 C1994 1.368 . S
C1998 C1997 1.523 . S
H1999 C1974 0.950 . S
H2000 C1976 0.950 . S
H2001 C1977 0.949 . S
H2002 C1979 0.950 . S
H2003 C1981 0.950 . S
C2004 C2005 1.349 . S
C2004 C2006 1.327 . S
C2004 H2029 0.950 . S
C2005 C2004 1.349 . S
C2005 C2021 1.349 . S
C2006 C2004 1.327 . S
C2006 C2025 1.429 . S
C2006 H2030 0.950 . S
C2007 C2024 1.574 . S
C2007 C2026 1.368 . S
C2007 H2031 0.949 . S
H2008 C2012 0.949 . S
C2009 C2010 1.349 . S
C2009 C2011 1.327 . S
C2009 H2032 0.950 . S
C2010 C2009 1.349 . S
C2010 C2022 1.349 . S
C2011 C2009 1.327 . S
C2011 C2027 1.429 . S
C2011 H2033 0.950 . S
C2012 H2008 0.949 . S
C2012 C2020 1.574 . S
C2012 C2028 1.368 . S
H2013 C2021 0.950 . S
H2014 C2019 0.950 . S
H2015 C2020 0.949 . S
H2016 C2022 0.950 . S
H2017 C2023 0.950 . S
H2018 C2024 0.949 . S
C2019 H2014 0.950 . S
C2019 C2021 1.327 . S
C2019 C2025 1.429 . S
C2020 C2012 1.574 . S
C2020 H2015 0.949 . S
C2020 C2026 1.368 . S
C2021 C2005 1.349 . S
C2021 H2013 0.950 . S
C2021 C2019 1.327 . S
C2022 C2010 1.349 . S
C2022 H2016 0.950 . S
C2022 C2023 1.327 . S
C2023 H2017 0.950 . S
C2023 C2022 1.327 . S
C2023 C2027 1.429 . S
C2024 C2007 1.574 . S
C2024 H2018 0.949 . S
C2024 C2028 1.368 . S
C2025 C2006 1.429 . S
C2025 C2019 1.429 . S
C2025 C2026 1.523 . S
C2026 C2007 1.368 . S
C2026 C2020 1.368 . S
C2026 C2025 1.523 . S
C2027 C2011 1.429 . S
C2027 C2023 1.429 . S
C2027 C2028 1.523 . S
C2028 C2012 1.368 . S
C2028 C2024 1.368 . S
C2028 C2027 1.523 . S
H2029 C2004 0.950 . S
H2030 C2006 0.950 . S
H2031 C2007 0.949 . S
H2032 C2009 0.950 . S
H2033 C2011 0.950 . S
C2034 C2035 1.349 . S
C2034 C2036 1.327 . S
C2034 H2059 0.950 . S
C2035 C2034 1.349 . S
C2035 C2051 1.349 . S
C2036 C2034 1.327 . S
C2036 C2055 1.429 . S
C2036 H2060 0.950 . S
C2037 C2054 1.574 . S
C2037 C2056 1.368 . S
C2037 H2061 0.949 . S
H2038 C2042 0.949 . S
C2039 C2040 1.349 . S
C2039 C2041 1.327 . S
C2039 H2062 0.950 . S
C2040 C2039 1.349 . S
C2040 C2052 1.349 . S
C2041 C2039 1.327 . S
C2041 C2057 1.429 . S
C2041 H2063 0.950 . S
C2042 H2038 0.949 . S
C2042 C2050 1.574 . S
C2042 C2058 1.368 . S
H2043 C2051 0.950 . S
H2044 C2049 0.950 . S
H2045 C2050 0.949 . S
H2046 C2052 0.950 . S
H2047 C2053 0.950 . S
H2048 C2054 0.949 . S
C2049 H2044 0.950 . S
C2049 C2051 1.327 . S
C2049 C2055 1.429 . S
C2050 C2042 1.574 . S
C2050 H2045 0.949 . S
C2050 C2056 1.368 . S
C2051 C2035 1.349 . S
C2051 H2043 0.950 . S
C2051 C2049 1.327 . S
C2052 C2040 1.349 . S
C2052 H2046 0.950 . S
C2052 C2053 1.327 . S
C2053 H2047 0.950 . S
C2053 C2052 1.327 . S
C2053 C2057 1.429 . S
C2054 C2037 1.574 . S
C2054 H2048 0.949 . S
C2054 C2058 1.368 . S
C2055 C2036 1.429 . S
C2055 C2049 1.429 . S
C2055 C2056 1.523 . S
C2056 C2037 1.368 . S
C2056 C2050 1.368 . S
C2056 C2055 1.523 . S
C2057 C2041 1.429 . S
C2057 C2053 1.429 . S
C2057 C2058 1.523 . S
C2058 C2042 1.368 . S
C2058 C2054 1.368 . S
C2058 C2057 1.523 . S
H2059 C2034 0.950 . S
H2060 C2036 0.950 . S
H2061 C2037 0.949 . S
H2062 C2039 0.950 . S
H2063 C2041 0.950 . S
C2064 C2065 1.349 . S
C2064 C2066 1.327 . S
C2064 H2089 0.950 . S
C2065 C2064 1.349 . S
C2065 C2081 1.349 . S
C2066 C2064 1.327 . S
C2066 C2085 1.429 . S
C2066 H2090 0.950 . S
C2067 C2084 1.574 . S
C2067 C2086 1.368 . S
C2067 H2091 0.949 . S
H2068 C2072 0.949 . S
C2069 C2070 1.349 . S
C2069 C2071 1.327 . S
C2069 H2092 0.950 . S
C2070 C2069 1.349 . S
C2070 C2082 1.349 . S
C2071 C2069 1.327 . S
C2071 C2087 1.429 . S
C2071 H2093 0.950 . S
C2072 H2068 0.949 . S
C2072 C2080 1.574 . S
C2072 C2088 1.368 . S
H2073 C2081 0.950 . S
H2074 C2079 0.950 . S
H2075 C2080 0.949 . S
H2076 C2082 0.950 . S
H2077 C2083 0.950 . S
H2078 C2084 0.949 . S
C2079 H2074 0.950 . S
C2079 C2081 1.327 . S
C2079 C2085 1.429 . S
C2080 C2072 1.574 . S
C2080 H2075 0.949 . S
C2080 C2086 1.368 . S
C2081 C2065 1.349 . S
C2081 H2073 0.950 . S
C2081 C2079 1.327 . S
C2082 C2070 1.349 . S
C2082 H2076 0.950 . S
C2082 C2083 1.327 . S
C2083 H2077 0.950 . S
C2083 C2082 1.327 . S
C2083 C2087 1.429 . S
C2084 C2067 1.574 . S
C2084 H2078 0.949 . S
C2084 C2088 1.368 . S
C2085 C2066 1.429 . S
C2085 C2079 1.429 . S
C2085 C2086 1.523 . S
C2086 C2067 1.368 . S
C2086 C2080 1.368 . S
C2086 C2085 1.523 . S
C2087 C2071 1.429 . S
C2087 C2083 1.429 . S
C2087 C2088 1.523 . S
C2088 C2072 1.368 . S
C2088 C2084 1.368 . S
C2088 C2087 1.523 . S
H2089 C2064 0.950 . S
H2090 C2066 0.950 . S
H2091 C2067 0.949 . S
H2092 C2069 0.950 . S
H2093 C2071 0.950 . S
C2094 C2095 1.349 . S
C2094 C2096 1.327 . S
C2094 H2119 0.950 . S
C2095 C2094 1.349 . S
C2095 C2111 1.349 . S
C2096 C2094 1.327 . S
C2096 C2115 1.429 . S
C2096 H2120 0.950 . S
C2097 C2114 1.574 . S
C2097 C2116 1.368 . S
C2097 H2121 0.949 . S
H2098 C2102 0.949 . S
C2099 C2100 1.349 . S
C2099 C2101 1.327 . S
C2099 H2122 0.950 . S
C2100 C2099 1.349 . S
C2100 C2112 1.349 . S
C2101 C2099 1.327 . S
C2101 C2117 1.429 . S
C2101 H2123 0.950 . S
C2102 H2098 0.949 . S
C2102 C2110 1.574 . S
C2102 C2118 1.368 . S
H2103 C2111 0.950 . S
H2104 C2109 0.950 . S
H2105 C2110 0.949 . S
H2106 C2112 0.950 . S
H2107 C2113 0.950 . S
H2108 C2114 0.949 . S
C2109 H2104 0.950 . S
C2109 C2111 1.327 . S
C2109 C2115 1.429 . S
C2110 C2102 1.574 . S
C2110 H2105 0.949 . S
C2110 C2116 1.368 . S
C2111 C2095 1.349 . S
C2111 H2103 0.950 . S
C2111 C2109 1.327 . S
C2112 C2100 1.349 . S
C2112 H2106 0.950 . S
C2112 C2113 1.327 . S
C2113 H2107 0.950 . S
C2113 C2112 1.327 . S
C2113 C2117 1.429 . S
C2114 C2097 1.574 . S
C2114 H2108 0.949 . S
C2114 C2118 1.368 . S
C2115 C2096 1.429 . S
C2115 C2109 1.429 . S
C2115 C2116 1.523 . S
C2116 C2097 1.368 . S
C2116 C2110 1.368 . S
C2116 C2115 1.523 . S
C2117 C2101 1.429 . S
C2117 C2113 1.429 . S
C2117 C2118 1.523 . S
C2118 C2102 1.368 . S
C2118 C2114 1.368 . S
C2118 C2117 1.523 . S
H2119 C2094 0.950 . S
H2120 C2096 0.950 . S
H2121 C2097 0.949 . S
H2122 C2099 0.950 . S
H2123 C2101 0.950 . S
C2124 C2125 1.349 . S
C2124 C2126 1.327 . S
C2124 H2149 0.950 . S
C2125 C2124 1.349 . S
C2125 C2141 1.349 . S
C2126 C2124 1.327 . S
C2126 C2145 1.429 . S
C2126 H2150 0.950 . S
C2127 C2144 1.574 . S
C2127 C2146 1.368 . S
C2127 H2151 0.949 . S
H2128 C2132 0.949 . S
C2129 C2130 1.349 . S
C2129 C2131 1.327 . S
C2129 H2152 0.950 . S
C2130 C2129 1.349 . S
C2130 C2142 1.349 . S
C2131 C2129 1.327 . S
C2131 C2147 1.429 . S
C2131 H2153 0.950 . S
C2132 H2128 0.949 . S
C2132 C2140 1.574 . S
C2132 C2148 1.368 . S
H2133 C2141 0.950 . S
H2134 C2139 0.950 . S
H2135 C2140 0.949 . S
H2136 C2142 0.950 . S
H2137 C2143 0.950 . S
H2138 C2144 0.949 . S
C2139 H2134 0.950 . S
C2139 C2141 1.327 . S
C2139 C2145 1.429 . S
C2140 C2132 1.574 . S
C2140 H2135 0.949 . S
C2140 C2146 1.368 . S
C2141 C2125 1.349 . S
C2141 H2133 0.950 . S
C2141 C2139 1.327 . S
C2142 C2130 1.349 . S
C2142 H2136 0.950 . S
C2142 C2143 1.327 . S
C2143 H2137 0.950 . S
C2143 C2142 1.327 . S
C2143 C2147 1.429 . S
C2144 C2127 1.574 . S
C2144 H2138 0.949 . S
C2144 C2148 1.368 . S
C2145 C2126 1.429 . S
C2145 C2139 1.429 . S
C2145 C2146 1.523 . S
C2146 C2127 1.368 . S
C2146 C2140 1.368 . S
C2146 C2145 1.523 . S
C2147 C2131 1.429 . S
C2147 C2143 1.429 . S
C2147 C2148 1.523 . S
C2148 C2132 1.368 . S
C2148 C2144 1.368 . S
C2148 C2147 1.523 . S
H2149 C2124 0.950 . S
H2150 C2126 0.950 . S
H2151 C2127 0.949 . S
H2152 C2129 0.950 . S
H2153 C2131 0.950 . S
C2154 C2155 1.349 . S
C2154 C2156 1.327 . S
C2154 H2179 0.950 . S
C2155 C2154 1.349 . S
C2155 C2171 1.349 . S
C2156 C2154 1.327 . S
C2156 C2175 1.429 . S
C2156 H2180 0.950 . S
C2157 C2174 1.574 . S
C2157 C2176 1.368 . S
C2157 H2181 0.949 . S
H2158 C2162 0.949 . S
C2159 C2160 1.349 . S
C2159 C2161 1.327 . S
C2159 H2182 0.950 . S
C2160 C2159 1.349 . S
C2160 C2172 1.349 . S
C2161 C2159 1.327 . S
C2161 C2177 1.429 . S
C2161 H2183 0.950 . S
C2162 H2158 0.949 . S
C2162 C2170 1.574 . S
C2162 C2178 1.368 . S
H2163 C2171 0.950 . S
H2164 C2169 0.950 . S
H2165 C2170 0.949 . S
H2166 C2172 0.950 . S
H2167 C2173 0.950 . S
H2168 C2174 0.949 . S
C2169 H2164 0.950 . S
C2169 C2171 1.327 . S
C2169 C2175 1.429 . S
C2170 C2162 1.574 . S
C2170 H2165 0.949 . S
C2170 C2176 1.368 . S
C2171 C2155 1.349 . S
C2171 H2163 0.950 . S
C2171 C2169 1.327 . S
C2172 C2160 1.349 . S
C2172 H2166 0.950 . S
C2172 C2173 1.327 . S
C2173 H2167 0.950 . S
C2173 C2172 1.327 . S
C2173 C2177 1.429 . S
C2174 C2157 1.574 . S
C2174 H2168 0.949 . S
C2174 C2178 1.368 . S
C2175 C2156 1.429 . S
C2175 C2169 1.429 . S
C2175 C2176 1.523 . S
C2176 C2157 1.368 . S
C2176 C2170 1.368 . S
C2176 C2175 1.523 . S
C2177 C2161 1.429 . S
C2177 C2173 1.429 . S
C2177 C2178 1.523 . S
C2178 C2162 1.368 . S
C2178 C2174 1.368 . S
C2178 C2177 1.523 . S
H2179 C2154 0.950 . S
H2180 C2156 0.950 . S
H2181 C2157 0.949 . S
H2182 C2159 0.950 . S
H2183 C2161 0.950 . S
C2184 C2185 1.349 . S
C2184 C2186 1.327 . S
C2184 H2209 0.950 . S
C2185 C2184 1.349 . S
C2185 C2201 1.349 . S
C2186 C2184 1.327 . S
C2186 C2205 1.429 . S
C2186 H2210 0.950 . S
C2187 C2204 1.574 1_655 S
C2187 C2206 1.368 . S
C2187 H2211 0.949 . S
H2188 C2192 0.949 . S
C2189 C2190 1.349 . S
C2189 C2191 1.327 . S
C2189 H2212 0.950 . S
C2190 C2189 1.349 . S
C2190 C2202 1.349 . S
C2191 C2189 1.327 . S
C2191 C2207 1.429 . S
C2191 H2213 0.950 . S
C2192 H2188 0.949 . S
C2192 C2200 1.574 1_455 S
C2192 C2208 1.368 . S
H2193 C2201 0.950 . S
H2194 C2199 0.950 . S
H2195 C2200 0.949 . S
H2196 C2202 0.950 . S
H2197 C2203 0.950 . S
H2198 C2204 0.949 . S
C2199 H2194 0.950 . S
C2199 C2201 1.327 . S
C2199 C2205 1.429 . S
C2200 C2192 1.574 1_655 S
C2200 H2195 0.949 . S
C2200 C2206 1.368 . S
C2201 C2185 1.349 . S
C2201 H2193 0.950 . S
C2201 C2199 1.327 . S
C2202 C2190 1.349 . S
C2202 H2196 0.950 . S
C2202 C2203 1.327 . S
C2203 H2197 0.950 . S
C2203 C2202 1.327 . S
C2203 C2207 1.429 . S
C2204 C2187 1.574 1_455 S
C2204 H2198 0.949 . S
C2204 C2208 1.368 . S
C2205 C2186 1.429 . S
C2205 C2199 1.429 . S
C2205 C2206 1.523 . S
C2206 C2187 1.368 . S
C2206 C2200 1.368 . S
C2206 C2205 1.523 . S
C2207 C2191 1.429 . S
C2207 C2203 1.429 . S
C2207 C2208 1.523 . S
C2208 C2192 1.368 . S
C2208 C2204 1.368 . S
C2208 C2207 1.523 . S
H2209 C2184 0.950 . S
H2210 C2186 0.950 . S
H2211 C2187 0.949 . S
H2212 C2189 0.950 . S
H2213 C2191 0.950 . S
C2214 C2215 1.349 . S
C2214 C2216 1.327 . S
C2214 H2239 0.950 . S
C2215 C2214 1.349 . S
C2215 C2231 1.349 . S
C2216 C2214 1.327 . S
C2216 C2235 1.429 . S
C2216 H2240 0.950 . S
C2217 C2234 1.574 . S
C2217 C2236 1.368 . S
C2217 H2241 0.949 . S
H2218 C2222 0.949 . S
C2219 C2220 1.349 . S
C2219 C2221 1.327 . S
C2219 H2242 0.950 . S
C2220 C2219 1.349 . S
C2220 C2232 1.349 . S
C2221 C2219 1.327 . S
C2221 C2237 1.429 . S
C2221 H2243 0.950 . S
C2222 H2218 0.949 . S
C2222 C2230 1.574 . S
C2222 C2238 1.368 . S
H2223 C2231 0.950 . S
H2224 C2229 0.950 . S
H2225 C2230 0.949 . S
H2226 C2232 0.950 . S
H2227 C2233 0.950 . S
H2228 C2234 0.949 . S
C2229 H2224 0.950 . S
C2229 C2231 1.327 . S
C2229 C2235 1.429 . S
C2230 C2222 1.574 . S
C2230 H2225 0.949 . S
C2230 C2236 1.368 . S
C2231 C2215 1.349 . S
C2231 H2223 0.950 . S
C2231 C2229 1.327 . S
C2232 C2220 1.349 . S
C2232 H2226 0.950 . S
C2232 C2233 1.327 . S
C2233 H2227 0.950 . S
C2233 C2232 1.327 . S
C2233 C2237 1.429 . S
C2234 C2217 1.574 . S
C2234 H2228 0.949 . S
C2234 C2238 1.368 . S
C2235 C2216 1.429 . S
C2235 C2229 1.429 . S
C2235 C2236 1.523 . S
C2236 C2217 1.368 . S
C2236 C2230 1.368 . S
C2236 C2235 1.523 . S
C2237 C2221 1.429 . S
C2237 C2233 1.429 . S
C2237 C2238 1.523 . S
C2238 C2222 1.368 . S
C2238 C2234 1.368 . S
C2238 C2237 1.523 . S
H2239 C2214 0.950 . S
H2240 C2216 0.950 . S
H2241 C2217 0.949 . S
H2242 C2219 0.950 . S
H2243 C2221 0.950 . S
C2244 C2245 1.349 . S
C2244 C2246 1.327 . S
C2244 H2269 0.950 . S
C2245 C2244 1.349 . S
C2245 C2261 1.349 . S
C2246 C2244 1.327 . S
C2246 C2265 1.429 . S
C2246 H2270 0.950 . S
C2247 C2264 1.574 . S
C2247 C2266 1.368 . S
C2247 H2271 0.949 . S
H2248 C2252 0.949 . S
C2249 C2250 1.349 . S
C2249 C2251 1.327 . S
C2249 H2272 0.950 . S
C2250 C2249 1.349 . S
C2250 C2262 1.349 . S
C2251 C2249 1.327 . S
C2251 C2267 1.429 . S
C2251 H2273 0.950 . S
C2252 H2248 0.949 . S
C2252 C2260 1.574 . S
C2252 C2268 1.368 . S
H2253 C2261 0.950 . S
H2254 C2259 0.950 . S
H2255 C2260 0.949 . S
H2256 C2262 0.950 . S
H2257 C2263 0.950 . S
H2258 C2264 0.949 . S
C2259 H2254 0.950 . S
C2259 C2261 1.327 . S
C2259 C2265 1.429 . S
C2260 C2252 1.574 . S
C2260 H2255 0.949 . S
C2260 C2266 1.368 . S
C2261 C2245 1.349 . S
C2261 H2253 0.950 . S
C2261 C2259 1.327 . S
C2262 C2250 1.349 . S
C2262 H2256 0.950 . S
C2262 C2263 1.327 . S
C2263 H2257 0.950 . S
C2263 C2262 1.327 . S
C2263 C2267 1.429 . S
C2264 C2247 1.574 . S
C2264 H2258 0.949 . S
C2264 C2268 1.368 . S
C2265 C2246 1.429 . S
C2265 C2259 1.429 . S
C2265 C2266 1.523 . S
C2266 C2247 1.368 . S
C2266 C2260 1.368 . S
C2266 C2265 1.523 . S
C2267 C2251 1.429 . S
C2267 C2263 1.429 . S
C2267 C2268 1.523 . S
C2268 C2252 1.368 . S
C2268 C2264 1.368 . S
C2268 C2267 1.523 . S
H2269 C2244 0.950 . S
H2270 C2246 0.950 . S
H2271 C2247 0.949 . S
H2272 C2249 0.950 . S
H2273 C2251 0.950 . S
C2274 C2275 1.349 . S
C2274 C2276 1.327 . S
C2274 H2299 0.950 . S
C2275 C2274 1.349 . S
C2275 C2291 1.349 . S
C2276 C2274 1.327 . S
C2276 C2295 1.429 . S
C2276 H2300 0.950 . S
C2277 C2294 1.574 1_455 S
C2277 C2296 1.368 . S
C2277 H2301 0.949 . S
H2278 C2282 0.949 . S
C2279 C2280 1.349 . S
C2279 C2281 1.327 . S
C2279 H2302 0.950 . S
C2280 C2279 1.349 . S
C2280 C2292 1.349 . S
C2281 C2279 1.327 . S
C2281 C2297 1.429 . S
C2281 H2303 0.950 . S
C2282 H2278 0.949 . S
C2282 C2290 1.574 1_655 S
C2282 C2298 1.368 . S
H2283 C2291 0.950 . S
H2284 C2289 0.950 . S
H2285 C2290 0.949 . S
H2286 C2292 0.950 . S
H2287 C2293 0.950 . S
H2288 C2294 0.949 . S
C2289 H2284 0.950 . S
C2289 C2291 1.327 . S
C2289 C2295 1.429 . S
C2290 C2282 1.574 1_455 S
C2290 H2285 0.949 . S
C2290 C2296 1.368 . S
C2291 C2275 1.349 . S
C2291 H2283 0.950 . S
C2291 C2289 1.327 . S
C2292 C2280 1.349 . S
C2292 H2286 0.950 . S
C2292 C2293 1.327 . S
C2293 H2287 0.950 . S
C2293 C2292 1.327 . S
C2293 C2297 1.429 . S
C2294 C2277 1.574 1_655 S
C2294 H2288 0.949 . S
C2294 C2298 1.368 . S
C2295 C2276 1.429 . S
C2295 C2289 1.429 . S
C2295 C2296 1.523 . S
C2296 C2277 1.368 . S
C2296 C2290 1.368 . S
C2296 C2295 1.523 . S
C2297 C2281 1.429 . S
C2297 C2293 1.429 . S
C2297 C2298 1.523 . S
C2298 C2282 1.368 . S
C2298 C2294 1.368 . S
C2298 C2297 1.523 . S
H2299 C2274 0.950 . S
H2300 C2276 0.950 . S
H2301 C2277 0.949 . S
H2302 C2279 0.950 . S
H2303 C2281 0.950 . S
C2304 C2305 1.349 . S
C2304 C2306 1.327 . S
C2304 H2329 0.950 . S
C2305 C2304 1.349 . S
C2305 C2321 1.349 . S
C2306 C2304 1.327 . S
C2306 C2325 1.429 . S
C2306 H2330 0.950 1_554 S
C2307 C2324 1.574 . S
C2307 C2326 1.368 . S
C2307 H2331 0.949 . S
H2308 C2312 0.949 . S
C2309 C2310 1.349 . S
C2309 C2311 1.327 . S
C2309 H2332 0.950 . S
C2310 C2309 1.349 . S
C2310 C2322 1.349 . S
C2311 C2309 1.327 . S
C2311 C2327 1.429 . S
C2311 H2333 0.950 1_556 S
C2312 H2308 0.949 . S
C2312 C2320 1.574 . S
C2312 C2328 1.368 . S
H2313 C2321 0.950 . S
H2314 C2319 0.950 . S
H2315 C2320 0.949 . S
H2316 C2322 0.950 . S
H2317 C2323 0.950 . S
H2318 C2324 0.949 . S
C2319 H2314 0.950 . S
C2319 C2321 1.327 . S
C2319 C2325 1.429 . S
C2320 C2312 1.574 . S
C2320 H2315 0.949 . S
C2320 C2326 1.368 1_556 S
C2321 C2305 1.349 . S
C2321 H2313 0.950 . S
C2321 C2319 1.327 . S
C2322 C2310 1.349 . S
C2322 H2316 0.950 . S
C2322 C2323 1.327 . S
C2323 H2317 0.950 . S
C2323 C2322 1.327 . S
C2323 C2327 1.429 . S
C2324 C2307 1.574 . S
C2324 H2318 0.949 . S
C2324 C2328 1.368 1_554 S
C2325 C2306 1.429 . S
C2325 C2319 1.429 . S
C2325 C2326 1.523 . S
C2326 C2307 1.368 . S
C2326 C2320 1.368 1_554 S
C2326 C2325 1.523 . S
C2327 C2311 1.429 . S
C2327 C2323 1.429 . S
C2327 C2328 1.523 . S
C2328 C2312 1.368 . S
C2328 C2324 1.368 1_556 S
C2328 C2327 1.523 . S
H2329 C2304 0.950 . S
H2330 C2306 0.950 1_556 S
H2331 C2307 0.949 . S
H2332 C2309 0.950 . S
H2333 C2311 0.950 1_554 S
C2334 C2335 1.349 . S
C2334 C2336 1.327 . S
C2334 H2359 0.950 . S
C2335 C2334 1.349 . S
C2335 C2351 1.349 . S
C2336 C2334 1.327 . S
C2336 C2355 1.429 . S
C2336 H2360 0.950 . S
C2337 C2354 1.574 . S
C2337 C2356 1.368 . S
C2337 H2361 0.949 . S
H2338 C2342 0.949 . S
C2339 C2340 1.349 . S
C2339 C2341 1.327 . S
C2339 H2362 0.950 . S
C2340 C2339 1.349 . S
C2340 C2352 1.349 . S
C2341 C2339 1.327 . S
C2341 C2357 1.429 . S
C2341 H2363 0.950 . S
C2342 H2338 0.949 . S
C2342 C2350 1.574 . S
C2342 C2358 1.368 . S
H2343 C2351 0.950 . S
H2344 C2349 0.950 . S
H2345 C2350 0.949 . S
H2346 C2352 0.950 . S
H2347 C2353 0.950 . S
H2348 C2354 0.949 . S
C2349 H2344 0.950 . S
C2349 C2351 1.327 . S
C2349 C2355 1.429 . S
C2350 C2342 1.574 . S
C2350 H2345 0.949 . S
C2350 C2356 1.368 . S
C2351 C2335 1.349 . S
C2351 H2343 0.950 . S
C2351 C2349 1.327 . S
C2352 C2340 1.349 . S
C2352 H2346 0.950 . S
C2352 C2353 1.327 . S
C2353 H2347 0.950 . S
C2353 C2352 1.327 . S
C2353 C2357 1.429 . S
C2354 C2337 1.574 . S
C2354 H2348 0.949 . S
C2354 C2358 1.368 . S
C2355 C2336 1.429 . S
C2355 C2349 1.429 . S
C2355 C2356 1.523 . S
C2356 C2337 1.368 . S
C2356 C2350 1.368 . S
C2356 C2355 1.523 . S
C2357 C2341 1.429 . S
C2357 C2353 1.429 . S
C2357 C2358 1.523 . S
C2358 C2342 1.368 . S
C2358 C2354 1.368 . S
C2358 C2357 1.523 . S
H2359 C2334 0.950 . S
H2360 C2336 0.950 . S
H2361 C2337 0.949 . S
H2362 C2339 0.950 . S
H2363 C2341 0.950 . S
C2364 C2365 1.349 . S
C2364 C2366 1.327 . S
C2364 H2389 0.950 . S
C2365 C2364 1.349 . S
C2365 C2381 1.349 . S
C2366 C2364 1.327 . S
C2366 C2385 1.429 . S
C2366 H2390 0.950 . S
C2367 C2384 1.574 . S
C2367 C2386 1.368 . S
C2367 H2391 0.949 . S
H2368 C2372 0.949 . S
C2369 C2370 1.349 . S
C2369 C2371 1.327 . S
C2369 H2392 0.950 . S
C2370 C2369 1.349 . S
C2370 C2382 1.349 . S
C2371 C2369 1.327 . S
C2371 C2387 1.429 . S
C2371 H2393 0.950 . S
C2372 H2368 0.949 . S
C2372 C2380 1.574 . S
C2372 C2388 1.368 . S
H2373 C2381 0.950 . S
H2374 C2379 0.950 . S
H2375 C2380 0.949 . S
H2376 C2382 0.950 . S
H2377 C2383 0.950 . S
H2378 C2384 0.949 . S
C2379 H2374 0.950 . S
C2379 C2381 1.327 . S
C2379 C2385 1.429 . S
C2380 C2372 1.574 . S
C2380 H2375 0.949 . S
C2380 C2386 1.368 . S
C2381 C2365 1.349 . S
C2381 H2373 0.950 . S
C2381 C2379 1.327 . S
C2382 C2370 1.349 . S
C2382 H2376 0.950 . S
C2382 C2383 1.327 . S
C2383 H2377 0.950 . S
C2383 C2382 1.327 . S
C2383 C2387 1.429 . S
C2384 C2367 1.574 . S
C2384 H2378 0.949 . S
C2384 C2388 1.368 . S
C2385 C2366 1.429 . S
C2385 C2379 1.429 . S
C2385 C2386 1.523 . S
C2386 C2367 1.368 . S
C2386 C2380 1.368 . S
C2386 C2385 1.523 . S
C2387 C2371 1.429 . S
C2387 C2383 1.429 . S
C2387 C2388 1.523 . S
C2388 C2372 1.368 . S
C2388 C2384 1.368 . S
C2388 C2387 1.523 . S
H2389 C2364 0.950 . S
H2390 C2366 0.950 . S
H2391 C2367 0.949 . S
H2392 C2369 0.950 . S
H2393 C2371 0.950 . S
C2394 C2395 1.349 . S
C2394 C2396 1.327 . S
C2394 H2419 0.950 . S
C2395 C2394 1.349 . S
C2395 C2411 1.349 . S
C2396 C2394 1.327 . S
C2396 C2415 1.429 . S
C2396 H2420 0.950 . S
C2397 C2414 1.574 . S
C2397 C2416 1.368 . S
C2397 H2421 0.949 . S
H2398 C2402 0.949 . S
C2399 C2400 1.349 . S
C2399 C2401 1.327 . S
C2399 H2422 0.950 . S
C2400 C2399 1.349 . S
C2400 C2412 1.349 . S
C2401 C2399 1.327 . S
C2401 C2417 1.429 . S
C2401 H2423 0.950 . S
C2402 H2398 0.949 . S
C2402 C2410 1.574 . S
C2402 C2418 1.368 . S
H2403 C2411 0.950 . S
H2404 C2409 0.950 . S
H2405 C2410 0.949 . S
H2406 C2412 0.950 . S
H2407 C2413 0.950 . S
H2408 C2414 0.949 . S
C2409 H2404 0.950 . S
C2409 C2411 1.327 . S
C2409 C2415 1.429 . S
C2410 C2402 1.574 . S
C2410 H2405 0.949 . S
C2410 C2416 1.368 . S
C2411 C2395 1.349 . S
C2411 H2403 0.950 . S
C2411 C2409 1.327 . S
C2412 C2400 1.349 . S
C2412 H2406 0.950 . S
C2412 C2413 1.327 . S
C2413 H2407 0.950 . S
C2413 C2412 1.327 . S
C2413 C2417 1.429 . S
C2414 C2397 1.574 . S
C2414 H2408 0.949 . S
C2414 C2418 1.368 . S
C2415 C2396 1.429 . S
C2415 C2409 1.429 . S
C2415 C2416 1.523 . S
C2416 C2397 1.368 . S
C2416 C2410 1.368 . S
C2416 C2415 1.523 . S
C2417 C2401 1.429 . S
C2417 C2413 1.429 . S
C2417 C2418 1.523 . S
C2418 C2402 1.368 . S
C2418 C2414 1.368 . S
C2418 C2417 1.523 . S
H2419 C2394 0.950 . S
H2420 C2396 0.950 . S
H2421 C2397 0.949 . S
H2422 C2399 0.950 . S
H2423 C2401 0.950 . S
C2424 C2425 1.349 . S
C2424 C2426 1.327 . S
C2424 H2449 0.950 . S
C2425 C2424 1.349 . S
C2425 C2441 1.349 . S
C2426 C2424 1.327 . S
C2426 C2445 1.429 . S
C2426 H2450 0.950 . S
C2427 C2444 1.574 1_554 S
C2427 C2446 1.368 . S
C2427 H2451 0.949 . S
H2428 C2432 0.949 . S
C2429 C2430 1.349 . S
C2429 C2431 1.327 . S
C2429 H2452 0.950 . S
C2430 C2429 1.349 . S
C2430 C2442 1.349 . S
C2431 C2429 1.327 . S
C2431 C2447 1.429 . S
C2431 H2453 0.950 . S
C2432 H2428 0.949 . S
C2432 C2440 1.574 1_556 S
C2432 C2448 1.368 . S
H2433 C2441 0.950 . S
H2434 C2439 0.950 . S
H2435 C2440 0.949 . S
H2436 C2442 0.950 . S
H2437 C2443 0.950 . S
H2438 C2444 0.949 . S
C2439 H2434 0.950 . S
C2439 C2441 1.327 . S
C2439 C2445 1.429 . S
C2440 C2432 1.574 1_554 S
C2440 H2435 0.949 . S
C2440 C2446 1.368 . S
C2441 C2425 1.349 . S
C2441 H2433 0.950 . S
C2441 C2439 1.327 . S
C2442 C2430 1.349 . S
C2442 H2436 0.950 . S
C2442 C2443 1.327 . S
C2443 H2437 0.950 . S
C2443 C2442 1.327 . S
C2443 C2447 1.429 . S
C2444 C2427 1.574 1_556 S
C2444 H2438 0.949 . S
C2444 C2448 1.368 . S
C2445 C2426 1.429 . S
C2445 C2439 1.429 . S
C2445 C2446 1.523 . S
C2446 C2427 1.368 . S
C2446 C2440 1.368 . S
C2446 C2445 1.523 . S
C2447 C2431 1.429 . S
C2447 C2443 1.429 . S
C2447 C2448 1.523 . S
C2448 C2432 1.368 . S
C2448 C2444 1.368 . S
C2448 C2447 1.523 . S
H2449 C2424 0.950 . S
H2450 C2426 0.950 . S
H2451 C2427 0.949 . S
H2452 C2429 0.950 . S
H2453 C2431 0.950 . S
C2454 C2455 1.349 . S
C2454 C2456 1.327 . S
C2454 H2479 0.950 . S
C2455 C2454 1.349 . S
C2455 C2471 1.349 . S
C2456 C2454 1.327 . S
C2456 C2475 1.429 . S
C2456 H2480 0.950 . S
C2457 C2474 1.574 . S
C2457 C2476 1.368 . S
C2457 H2481 0.949 . S
H2458 C2462 0.949 . S
C2459 C2460 1.349 . S
C2459 C2461 1.327 . S
C2459 H2482 0.950 . S
C2460 C2459 1.349 . S
C2460 C2472 1.349 . S
C2461 C2459 1.327 . S
C2461 C2477 1.429 . S
C2461 H2483 0.950 . S
C2462 H2458 0.949 . S
C2462 C2470 1.574 . S
C2462 C2478 1.368 . S
H2463 C2471 0.950 . S
H2464 C2469 0.950 . S
H2465 C2470 0.949 . S
H2466 C2472 0.950 . S
H2467 C2473 0.950 . S
H2468 C2474 0.949 . S
C2469 H2464 0.950 . S
C2469 C2471 1.327 . S
C2469 C2475 1.429 . S
C2470 C2462 1.574 . S
C2470 H2465 0.949 . S
C2470 C2476 1.368 . S
C2471 C2455 1.349 . S
C2471 H2463 0.950 . S
C2471 C2469 1.327 . S
C2472 C2460 1.349 . S
C2472 H2466 0.950 . S
C2472 C2473 1.327 . S
C2473 H2467 0.950 . S
C2473 C2472 1.327 . S
C2473 C2477 1.429 . S
C2474 C2457 1.574 . S
C2474 H2468 0.949 . S
C2474 C2478 1.368 . S
C2475 C2456 1.429 . S
C2475 C2469 1.429 . S
C2475 C2476 1.523 . S
C2476 C2457 1.368 . S
C2476 C2470 1.368 . S
C2476 C2475 1.523 . S
C2477 C2461 1.429 . S
C2477 C2473 1.429 . S
C2477 C2478 1.523 . S
C2478 C2462 1.368 . S
C2478 C2474 1.368 . S
C2478 C2477 1.523 . S
H2479 C2454 0.950 . S
H2480 C2456 0.950 . S
H2481 C2457 0.949 . S
H2482 C2459 0.950 . S
H2483 C2461 0.950 . S
C2484 C2485 1.349 . S
C2484 C2486 1.327 . S
C2484 H2509 0.950 . S
C2485 C2484 1.349 . S
C2485 C2501 1.349 . S
C2486 C2484 1.327 . S
C2486 C2505 1.429 . S
C2486 H2510 0.950 . S
C2487 C2504 1.574 . S
C2487 C2506 1.368 . S
C2487 H2511 0.949 . S
H2488 C2492 0.949 . S
C2489 C2490 1.349 . S
C2489 C2491 1.327 . S
C2489 H2512 0.950 . S
C2490 C2489 1.349 . S
C2490 C2502 1.349 . S
C2491 C2489 1.327 . S
C2491 C2507 1.429 . S
C2491 H2513 0.950 . S
C2492 H2488 0.949 . S
C2492 C2500 1.574 . S
C2492 C2508 1.368 . S
H2493 C2501 0.950 . S
H2494 C2499 0.950 . S
H2495 C2500 0.949 . S
H2496 C2502 0.950 . S
H2497 C2503 0.950 . S
H2498 C2504 0.949 . S
C2499 H2494 0.950 . S
C2499 C2501 1.327 . S
C2499 C2505 1.429 . S
C2500 C2492 1.574 . S
C2500 H2495 0.949 . S
C2500 C2506 1.368 . S
C2501 C2485 1.349 . S
C2501 H2493 0.950 . S
C2501 C2499 1.327 . S
C2502 C2490 1.349 . S
C2502 H2496 0.950 . S
C2502 C2503 1.327 . S
C2503 H2497 0.950 . S
C2503 C2502 1.327 . S
C2503 C2507 1.429 . S
C2504 C2487 1.574 . S
C2504 H2498 0.949 . S
C2504 C2508 1.368 . S
C2505 C2486 1.429 . S
C2505 C2499 1.429 . S
C2505 C2506 1.523 . S
C2506 C2487 1.368 . S
C2506 C2500 1.368 . S
C2506 C2505 1.523 . S
C2507 C2491 1.429 . S
C2507 C2503 1.429 . S
C2507 C2508 1.523 . S
C2508 C2492 1.368 . S
C2508 C2504 1.368 . S
C2508 C2507 1.523 . S
H2509 C2484 0.950 . S
H2510 C2486 0.950 . S
H2511 C2487 0.949 . S
H2512 C2489 0.950 . S
H2513 C2491 0.950 . S
C2514 C2515 1.349 . S
C2514 C2516 1.327 . S
C2514 H2539 0.950 . S
C2515 C2514 1.349 . S
C2515 C2531 1.349 . S
C2516 C2514 1.327 . S
C2516 C2535 1.429 . S
C2516 H2540 0.950 . S
C2517 C2534 1.574 . S
C2517 C2536 1.368 . S
C2517 H2541 0.949 . S
H2518 C2522 0.949 . S
C2519 C2520 1.349 . S
C2519 C2521 1.327 . S
C2519 H2542 0.950 . S
C2520 C2519 1.349 . S
C2520 C2532 1.349 . S
C2521 C2519 1.327 . S
C2521 C2537 1.429 . S
C2521 H2543 0.950 . S
C2522 H2518 0.949 . S
C2522 C2530 1.574 . S
C2522 C2538 1.368 . S
H2523 C2531 0.950 . S
H2524 C2529 0.950 . S
H2525 C2530 0.949 . S
H2526 C2532 0.950 . S
H2527 C2533 0.950 . S
H2528 C2534 0.949 . S
C2529 H2524 0.950 . S
C2529 C2531 1.327 . S
C2529 C2535 1.429 . S
C2530 C2522 1.574 . S
C2530 H2525 0.949 . S
C2530 C2536 1.368 . S
C2531 C2515 1.349 . S
C2531 H2523 0.950 . S
C2531 C2529 1.327 . S
C2532 C2520 1.349 . S
C2532 H2526 0.950 . S
C2532 C2533 1.327 . S
C2533 H2527 0.950 . S
C2533 C2532 1.327 . S
C2533 C2537 1.429 . S
C2534 C2517 1.574 . S
C2534 H2528 0.949 . S
C2534 C2538 1.368 . S
C2535 C2516 1.429 . S
C2535 C2529 1.429 . S
C2535 C2536 1.523 . S
C2536 C2517 1.368 . S
C2536 C2530 1.368 . S
C2536 C2535 1.523 . S
C2537 C2521 1.429 . S
C2537 C2533 1.429 . S
C2537 C2538 1.523 . S
C2538 C2522 1.368 . S
C2538 C2534 1.368 . S
C2538 C2537 1.523 . S
H2539 C2514 0.950 . S
H2540 C2516 0.950 . S
H2541 C2517 0.949 . S
H2542 C2519 0.950 . S
H2543 C2521 0.950 . S
C2544 C2545 1.349 . S
C2544 C2546 1.327 . S
C2544 H2569 0.950 . S
C2545 C2544 1.349 . S
C2545 C2561 1.349 . S
C2546 C2544 1.327 . S
C2546 C2565 1.429 . S
C2546 H2570 0.950 . S
C2547 C2564 1.574 1_565 S
C2547 C2566 1.368 . S
C2547 H2571 0.949 . S
H2548 C2552 0.949 . S
C2549 C2550 1.349 . S
C2549 C2551 1.327 . S
C2549 H2572 0.950 . S
C2550 C2549 1.349 . S
C2550 C2562 1.349 . S
C2551 C2549 1.327 . S
C2551 C2567 1.429 . S
C2551 H2573 0.950 . S
C2552 H2548 0.949 . S
C2552 C2560 1.574 1_545 S
C2552 C2568 1.368 . S
H2553 C2561 0.950 . S
H2554 C2559 0.950 . S
H2555 C2560 0.949 . S
H2556 C2562 0.950 . S
H2557 C2563 0.950 . S
H2558 C2564 0.949 . S
C2559 H2554 0.950 . S
C2559 C2561 1.327 . S
C2559 C2565 1.429 . S
C2560 C2552 1.574 1_565 S
C2560 H2555 0.949 . S
C2560 C2566 1.368 . S
C2561 C2545 1.349 . S
C2561 H2553 0.950 . S
C2561 C2559 1.327 . S
C2562 C2550 1.349 . S
C2562 H2556 0.950 . S
C2562 C2563 1.327 . S
C2563 H2557 0.950 . S
C2563 C2562 1.327 . S
C2563 C2567 1.429 . S
C2564 C2547 1.574 1_545 S
C2564 H2558 0.949 . S
C2564 C2568 1.368 . S
C2565 C2546 1.429 . S
C2565 C2559 1.429 . S
C2565 C2566 1.523 . S
C2566 C2547 1.368 . S
C2566 C2560 1.368 . S
C2566 C2565 1.523 . S
C2567 C2551 1.429 . S
C2567 C2563 1.429 . S
C2567 C2568 1.523 . S
C2568 C2552 1.368 . S
C2568 C2564 1.368 . S
C2568 C2567 1.523 . S
H2569 C2544 0.950 . S
H2570 C2546 0.950 . S
H2571 C2547 0.949 . S
H2572 C2549 0.950 . S
H2573 C2551 0.950 . S
C2574 C2575 1.349 . S
C2574 C2576 1.327 . S
C2574 H2599 0.950 . S
C2575 C2574 1.349 . S
C2575 C2591 1.349 . S
C2576 C2574 1.327 . S
C2576 C2595 1.429 . S
C2576 H2600 0.950 . S
C2577 C2594 1.574 . S
C2577 C2596 1.368 . S
C2577 H2601 0.949 . S
H2578 C2582 0.949 . S
C2579 C2580 1.349 . S
C2579 C2581 1.327 . S
C2579 H2602 0.950 . S
C2580 C2579 1.349 . S
C2580 C2592 1.349 . S
C2581 C2579 1.327 . S
C2581 C2597 1.429 . S
C2581 H2603 0.950 . S
C2582 H2578 0.949 . S
C2582 C2590 1.574 . S
C2582 C2598 1.368 . S
H2583 C2591 0.950 . S
H2584 C2589 0.950 . S
H2585 C2590 0.949 . S
H2586 C2592 0.950 . S
H2587 C2593 0.950 . S
H2588 C2594 0.949 . S
C2589 H2584 0.950 . S
C2589 C2591 1.327 . S
C2589 C2595 1.429 . S
C2590 C2582 1.574 . S
C2590 H2585 0.949 . S
C2590 C2596 1.368 . S
C2591 C2575 1.349 . S
C2591 H2583 0.950 . S
C2591 C2589 1.327 . S
C2592 C2580 1.349 . S
C2592 H2586 0.950 . S
C2592 C2593 1.327 . S
C2593 H2587 0.950 . S
C2593 C2592 1.327 . S
C2593 C2597 1.429 . S
C2594 C2577 1.574 . S
C2594 H2588 0.949 . S
C2594 C2598 1.368 . S
C2595 C2576 1.429 . S
C2595 C2589 1.429 . S
C2595 C2596 1.523 . S
C2596 C2577 1.368 . S
C2596 C2590 1.368 . S
C2596 C2595 1.523 . S
C2597 C2581 1.429 . S
C2597 C2593 1.429 . S
C2597 C2598 1.523 . S
C2598 C2582 1.368 . S
C2598 C2594 1.368 . S
C2598 C2597 1.523 . S
H2599 C2574 0.950 . S
H2600 C2576 0.950 . S
H2601 C2577 0.949 . S
H2602 C2579 0.950 . S
H2603 C2581 0.950 . S
C2604 C2605 1.349 . S
C2604 C2606 1.327 . S
C2604 H2629 0.950 . S
C2605 C2604 1.349 . S
C2605 C2621 1.349 . S
C2606 C2604 1.327 . S
C2606 C2625 1.429 . S
C2606 H2630 0.950 1_554 S
C2607 C2624 1.574 1_565 S
C2607 C2626 1.368 . S
C2607 H2631 0.949 . S
H2608 C2612 0.949 . S
C2609 C2610 1.349 . S
C2609 C2611 1.327 . S
C2609 H2632 0.950 . S
C2610 C2609 1.349 . S
C2610 C2622 1.349 . S
C2611 C2609 1.327 . S
C2611 C2627 1.429 . S
C2611 H2633 0.950 1_556 S
C2612 H2608 0.949 . S
C2612 C2620 1.574 1_545 S
C2612 C2628 1.368 . S
H2613 C2621 0.950 . S
H2614 C2619 0.950 . S
H2615 C2620 0.949 . S
H2616 C2622 0.950 . S
H2617 C2623 0.950 . S
H2618 C2624 0.949 . S
C2619 H2614 0.950 . S
C2619 C2621 1.327 . S
C2619 C2625 1.429 . S
C2620 C2612 1.574 1_565 S
C2620 H2615 0.949 . S
C2620 C2626 1.368 1_556 S
C2621 C2605 1.349 . S
C2621 H2613 0.950 . S
C2621 C2619 1.327 . S
C2622 C2610 1.349 . S
C2622 H2616 0.950 . S
C2622 C2623 1.327 . S
C2623 H2617 0.950 . S
C2623 C2622 1.327 . S
C2623 C2627 1.429 . S
C2624 C2607 1.574 1_545 S
C2624 H2618 0.949 . S
C2624 C2628 1.368 1_554 S
C2625 C2606 1.429 . S
C2625 C2619 1.429 . S
C2625 C2626 1.523 . S
C2626 C2607 1.368 . S
C2626 C2620 1.368 1_554 S
C2626 C2625 1.523 . S
C2627 C2611 1.429 . S
C2627 C2623 1.429 . S
C2627 C2628 1.523 . S
C2628 C2612 1.368 . S
C2628 C2624 1.368 1_556 S
C2628 C2627 1.523 . S
H2629 C2604 0.950 . S
H2630 C2606 0.950 1_556 S
H2631 C2607 0.949 . S
H2632 C2609 0.950 . S
H2633 C2611 0.950 1_554 S
C2634 C2635 1.349 . S
C2634 C2636 1.327 . S
C2634 H2659 0.950 . S
C2635 C2634 1.349 . S
C2635 C2651 1.349 . S
C2636 C2634 1.327 . S
C2636 C2655 1.429 . S
C2636 H2660 0.950 . S
C2637 C2654 1.574 . S
C2637 C2656 1.368 . S
C2637 H2661 0.949 . S
H2638 C2642 0.949 . S
C2639 C2640 1.349 . S
C2639 C2641 1.327 . S
C2639 H2662 0.950 . S
C2640 C2639 1.349 . S
C2640 C2652 1.349 . S
C2641 C2639 1.327 . S
C2641 C2657 1.429 . S
C2641 H2663 0.950 . S
C2642 H2638 0.949 . S
C2642 C2650 1.574 . S
C2642 C2658 1.368 . S
H2643 C2651 0.950 . S
H2644 C2649 0.950 . S
H2645 C2650 0.949 . S
H2646 C2652 0.950 . S
H2647 C2653 0.950 . S
H2648 C2654 0.949 . S
C2649 H2644 0.950 . S
C2649 C2651 1.327 . S
C2649 C2655 1.429 . S
C2650 C2642 1.574 . S
C2650 H2645 0.949 . S
C2650 C2656 1.368 . S
C2651 C2635 1.349 . S
C2651 H2643 0.950 . S
C2651 C2649 1.327 . S
C2652 C2640 1.349 . S
C2652 H2646 0.950 . S
C2652 C2653 1.327 . S
C2653 H2647 0.950 . S
C2653 C2652 1.327 . S
C2653 C2657 1.429 . S
C2654 C2637 1.574 . S
C2654 H2648 0.949 . S
C2654 C2658 1.368 . S
C2655 C2636 1.429 . S
C2655 C2649 1.429 . S
C2655 C2656 1.523 . S
C2656 C2637 1.368 . S
C2656 C2650 1.368 . S
C2656 C2655 1.523 . S
C2657 C2641 1.429 . S
C2657 C2653 1.429 . S
C2657 C2658 1.523 . S
C2658 C2642 1.368 . S
C2658 C2654 1.368 . S
C2658 C2657 1.523 . S
H2659 C2634 0.950 . S
H2660 C2636 0.950 . S
H2661 C2637 0.949 . S
H2662 C2639 0.950 . S
H2663 C2641 0.950 . S
C2664 C2665 1.349 . S
C2664 C2666 1.327 . S
C2664 H2689 0.950 . S
C2665 C2664 1.349 . S
C2665 C2681 1.349 . S
C2666 C2664 1.327 . S
C2666 C2685 1.429 . S
C2666 H2690 0.950 . S
C2667 C2684 1.574 1_565 S
C2667 C2686 1.368 . S
C2667 H2691 0.949 . S
H2668 C2672 0.949 . S
C2669 C2670 1.349 . S
C2669 C2671 1.327 . S
C2669 H2692 0.950 . S
C2670 C2669 1.349 . S
C2670 C2682 1.349 . S
C2671 C2669 1.327 . S
C2671 C2687 1.429 . S
C2671 H2693 0.950 . S
C2672 H2668 0.949 . S
C2672 C2680 1.574 1_545 S
C2672 C2688 1.368 . S
H2673 C2681 0.950 . S
H2674 C2679 0.950 . S
H2675 C2680 0.949 . S
H2676 C2682 0.950 . S
H2677 C2683 0.950 . S
H2678 C2684 0.949 . S
C2679 H2674 0.950 . S
C2679 C2681 1.327 . S
C2679 C2685 1.429 . S
C2680 C2672 1.574 1_565 S
C2680 H2675 0.949 . S
C2680 C2686 1.368 . S
C2681 C2665 1.349 . S
C2681 H2673 0.950 . S
C2681 C2679 1.327 . S
C2682 C2670 1.349 . S
C2682 H2676 0.950 . S
C2682 C2683 1.327 . S
C2683 H2677 0.950 . S
C2683 C2682 1.327 . S
C2683 C2687 1.429 . S
C2684 C2667 1.574 1_545 S
C2684 H2678 0.949 . S
C2684 C2688 1.368 . S
C2685 C2666 1.429 . S
C2685 C2679 1.429 . S
C2685 C2686 1.523 . S
C2686 C2667 1.368 . S
C2686 C2680 1.368 . S
C2686 C2685 1.523 . S
C2687 C2671 1.429 . S
C2687 C2683 1.429 . S
C2687 C2688 1.523 . S
C2688 C2672 1.368 . S
C2688 C2684 1.368 . S
C2688 C2687 1.523 . S
H2689 C2664 0.950 . S
H2690 C2666 0.950 . S
H2691 C2667 0.949 . S
H2692 C2669 0.950 . S
H2693 C2671 0.950 . S
C2694 C2695 1.349 . S
C2694 C2696 1.327 . S
C2694 H2719 0.950 . S
C2695 C2694 1.349 . S
C2695 C2711 1.349 . S
C2696 C2694 1.327 . S
C2696 C2715 1.429 . S
C2696 H2720 0.950 . S
C2697 C2714 1.574 . S
C2697 C2716 1.368 . S
C2697 H2721 0.949 . S
H2698 C2702 0.949 . S
C2699 C2700 1.349 . S
C2699 C2701 1.327 . S
C2699 H2722 0.950 . S
C2700 C2699 1.349 . S
C2700 C2712 1.349 . S
C2701 C2699 1.327 . S
C2701 C2717 1.429 . S
C2701 H2723 0.950 . S
C2702 H2698 0.949 . S
C2702 C2710 1.574 . S
C2702 C2718 1.368 . S
H2703 C2711 0.950 . S
H2704 C2709 0.950 . S
H2705 C2710 0.949 . S
H2706 C2712 0.950 . S
H2707 C2713 0.950 . S
H2708 C2714 0.949 . S
C2709 H2704 0.950 . S
C2709 C2711 1.327 . S
C2709 C2715 1.429 . S
C2710 C2702 1.574 . S
C2710 H2705 0.949 . S
C2710 C2716 1.368 . S
C2711 C2695 1.349 . S
C2711 H2703 0.950 . S
C2711 C2709 1.327 . S
C2712 C2700 1.349 . S
C2712 H2706 0.950 . S
C2712 C2713 1.327 . S
C2713 H2707 0.950 . S
C2713 C2712 1.327 . S
C2713 C2717 1.429 . S
C2714 C2697 1.574 . S
C2714 H2708 0.949 . S
C2714 C2718 1.368 . S
C2715 C2696 1.429 . S
C2715 C2709 1.429 . S
C2715 C2716 1.523 . S
C2716 C2697 1.368 . S
C2716 C2710 1.368 . S
C2716 C2715 1.523 . S
C2717 C2701 1.429 . S
C2717 C2713 1.429 . S
C2717 C2718 1.523 . S
C2718 C2702 1.368 . S
C2718 C2714 1.368 . S
C2718 C2717 1.523 . S
H2719 C2694 0.950 . S
H2720 C2696 0.950 . S
H2721 C2697 0.949 . S
H2722 C2699 0.950 . S
H2723 C2701 0.950 . S
C2724 C2725 1.349 . S
C2724 C2726 1.327 . S
C2724 H2749 0.950 . S
C2725 C2724 1.349 . S
C2725 C2741 1.349 . S
C2726 C2724 1.327 . S
C2726 C2745 1.429 . S
C2726 H2750 0.950 1_556 S
C2727 C2744 1.574 1_545 S
C2727 C2746 1.368 . S
C2727 H2751 0.949 . S
H2728 C2732 0.949 . S
C2729 C2730 1.349 . S
C2729 C2731 1.327 . S
C2729 H2752 0.950 . S
C2730 C2729 1.349 . S
C2730 C2742 1.349 . S
C2731 C2729 1.327 . S
C2731 C2747 1.429 . S
C2731 H2753 0.950 1_554 S
C2732 H2728 0.949 . S
C2732 C2740 1.574 1_565 S
C2732 C2748 1.368 . S
H2733 C2741 0.950 . S
H2734 C2739 0.950 . S
H2735 C2740 0.949 . S
H2736 C2742 0.950 . S
H2737 C2743 0.950 . S
H2738 C2744 0.949 . S
C2739 H2734 0.950 . S
C2739 C2741 1.327 . S
C2739 C2745 1.429 . S
C2740 C2732 1.574 1_545 S
C2740 H2735 0.949 . S
C2740 C2746 1.368 1_554 S
C2741 C2725 1.349 . S
C2741 H2733 0.950 . S
C2741 C2739 1.327 . S
C2742 C2730 1.349 . S
C2742 H2736 0.950 . S
C2742 C2743 1.327 . S
C2743 H2737 0.950 . S
C2743 C2742 1.327 . S
C2743 C2747 1.429 . S
C2744 C2727 1.574 1_565 S
C2744 H2738 0.949 . S
C2744 C2748 1.368 1_556 S
C2745 C2726 1.429 . S
C2745 C2739 1.429 . S
C2745 C2746 1.523 . S
C2746 C2727 1.368 . S
C2746 C2740 1.368 1_556 S
C2746 C2745 1.523 . S
C2747 C2731 1.429 . S
C2747 C2743 1.429 . S
C2747 C2748 1.523 . S
C2748 C2732 1.368 . S
C2748 C2744 1.368 1_554 S
C2748 C2747 1.523 . S
H2749 C2724 0.950 . S
H2750 C2726 0.950 1_554 S
H2751 C2727 0.949 . S
H2752 C2729 0.950 . S
H2753 C2731 0.950 1_556 S
C2754 C2755 1.349 . S
C2754 C2756 1.327 . S
C2754 H2779 0.950 . S
C2755 C2754 1.349 . S
C2755 C2771 1.349 . S
C2756 C2754 1.327 . S
C2756 C2775 1.429 . S
C2756 H2780 0.950 . S
C2757 C2774 1.574 . S
C2757 C2776 1.368 . S
C2757 H2781 0.949 . S
H2758 C2762 0.949 . S
C2759 C2760 1.349 . S
C2759 C2761 1.327 . S
C2759 H2782 0.950 . S
C2760 C2759 1.349 . S
C2760 C2772 1.349 . S
C2761 C2759 1.327 . S
C2761 C2777 1.429 . S
C2761 H2783 0.950 . S
C2762 H2758 0.949 . S
C2762 C2770 1.574 . S
C2762 C2778 1.368 . S
H2763 C2771 0.950 . S
H2764 C2769 0.950 . S
H2765 C2770 0.949 . S
H2766 C2772 0.950 . S
H2767 C2773 0.950 . S
H2768 C2774 0.949 . S
C2769 H2764 0.950 . S
C2769 C2771 1.327 . S
C2769 C2775 1.429 . S
C2770 C2762 1.574 . S
C2770 H2765 0.949 . S
C2770 C2776 1.368 . S
C2771 C2755 1.349 . S
C2771 H2763 0.950 . S
C2771 C2769 1.327 . S
C2772 C2760 1.349 . S
C2772 H2766 0.950 . S
C2772 C2773 1.327 . S
C2773 H2767 0.950 . S
C2773 C2772 1.327 . S
C2773 C2777 1.429 . S
C2774 C2757 1.574 . S
C2774 H2768 0.949 . S
C2774 C2778 1.368 . S
C2775 C2756 1.429 . S
C2775 C2769 1.429 . S
C2775 C2776 1.523 . S
C2776 C2757 1.368 . S
C2776 C2770 1.368 . S
C2776 C2775 1.523 . S
C2777 C2761 1.429 . S
C2777 C2773 1.429 . S
C2777 C2778 1.523 . S
C2778 C2762 1.368 . S
C2778 C2774 1.368 . S
C2778 C2777 1.523 . S
H2779 C2754 0.950 . S
H2780 C2756 0.950 . S
H2781 C2757 0.949 . S
H2782 C2759 0.950 . S
H2783 C2761 0.950 . S
C1345 C58 1.602 . S
C1350 C70 1.602 . S
C1375 C142 1.583 . S
C1380 C154 1.583 . S
C1405 C226 1.581 . S
C1410 C238 1.581 . S
C1435 C322 1.591 . S
C1440 C310 1.591 . S
C1465 C406 1.585 . S
C1470 C394 1.585 . S
C1495 C490 1.577 . S
C1500 C478 1.577 . S
C1525 C562 1.589 . S
C1530 C574 1.589 . S
C1555 C658 1.602 . S
C1560 C646 1.602 . S
C1585 C730 1.606 . S
C1590 C742 1.606 . S
C1615 C814 1.586 . S
C1620 C826 1.586 . S
C1645 C910 1.579 . S
C1650 C898 1.579 . S
C1675 C982 1.591 . S
C1680 C994 1.591 . S
C1705 C1066 1.584 . S
C1710 C1078 1.584 . S
C1735 C1162 1.578 . S
C1740 C1150 1.578 . S
C1765 C1246 1.588 . S
C1770 C1234 1.588 . S
C1795 C1330 1.598 . S
C1800 C1318 1.598 . S
C1825 C67 1.752 . S
C1830 C979 1.753 . S
C1855 C151 1.761 . S
C1860 C1315 1.761 . S
C1885 C235 1.770 . S
C1890 C812 1.714 . S
C1915 C320 1.722 . S
C1920 C1147 1.782 . S
C1945 C404 1.709 . S
C1950 C1148 1.712 . S
C1975 C980 1.705 . S
C1980 C487 1.764 . S
C2005 C571 1.759 . S
C2010 C1316 1.704 . S
C2035 C656 1.710 . S
C2040 C811 1.766 . S
C2065 C319 1.768 . S
C2070 C728 1.711 . S
C2095 C152 1.706 . S
C2100 C896 1.706 . S
C2125 C1064 1.725 . S
C2130 C488 1.725 . S
C2155 C655 1.761 . S
C2160 C1231 1.762 . S
C2185 C727 1.769 . S
C2190 C403 1.770 . S
C2215 C572 1.720 . S
C2220 C895 1.777 . S
C2245 C236 1.719 . S
C2250 C1232 1.716 . S
C2275 C68 1.719 . S
C2280 C1063 1.775 . S
C2305 C55 1.619 . S
C2310 C392 1.621 . S
C2335 C139 1.642 . S
C2340 C475 1.642 . S
C2365 C223 1.637 . S
C2370 C559 1.637 . S
C2395 C308 1.638 . S
C2400 C644 1.638 . S
C2425 C1076 1.640 . S
C2430 C740 1.640 . S
C2455 C1159 1.646 . S
C2460 C823 1.646 . S
C2485 C908 1.655 . S
C2490 C1243 1.652 . S
C2515 C1327 1.612 . S
C2520 C992 1.615 . S
C2545 C140 1.618 . S
C2550 C643 1.616 . S
C2575 C391 1.659 . S
C2580 C224 1.662 . S
C2605 C476 1.657 . S
C2610 C307 1.654 . S
C2635 C56 1.635 . S
C2640 C560 1.635 . S
C2665 C1328 1.637 . S
C2670 C824 1.637 . S
C2695 C1075 1.664 . S
C2700 C907 1.664 . S
C2725 C1160 1.636 . S
C2730 C991 1.633 . S
C2755 C1244 1.618 . S
C2760 C739 1.616 . S
