# Generated by pormake.
# Topology upd, (4)-cn, num edge types: 1
# Building blocks:
#     Node 0, Type 0, BuildingBlock: ESEHIV_clean_sbu_0, # of connection points: 4
#     Node 1, Type 0, BuildingBlock: ESEHIV_clean_sbu_0, # of connection points: 4
#     Node 2, Type 0, BuildingBlock: ESEHIV_clean_sbu_0, # of connection points: 4
#     Node 3, Type 0, BuildingBlock: ESEHIV_clean_sbu_0, # of connection points: 4
#     Node 4, Type 0, BuildingBlock: ESEHIV_clean_sbu_0, # of connection points: 4
#     Node 5, Type 0, BuildingBlock: ESEHIV_clean_sbu_0, # of connection points: 4
#     Node 6, Type 0, BuildingBlock: ESEHIV_clean_sbu_0, # of connection points: 4
#     Node 7, Type 0, BuildingBlock: ESEHIV_clean_sbu_0, # of connection points: 4
#     Node 8, Type 0, BuildingBlock: ESEHIV_clean_sbu_0, # of connection points: 4
#     Node 9, Type 0, BuildingBlock: ESEHIV_clean_sbu_0, # of connection points: 4
#     Node 10, Type 0, BuildingBlock: ESEHIV_clean_sbu_0, # of connection points: 4
#     Node 11, Type 0, BuildingBlock: ESEHIV_clean_sbu_0, # of connection points: 4
#     Node 12, Type 0, BuildingBlock: ESEHIV_clean_sbu_0, # of connection points: 4
#     Node 13, Type 0, BuildingBlock: ESEHIV_clean_sbu_0, # of connection points: 4
#     Node 14, Type 0, BuildingBlock: ESEHIV_clean_sbu_0, # of connection points: 4
#     Node 15, Type 0, BuildingBlock: ESEHIV_clean_sbu_0, # of connection points: 4
#     Node 16, Type 0, BuildingBlock: ESEHIV_clean_sbu_0, # of connection points: 4
#     Node 17, Type 0, BuildingBlock: ESEHIV_clean_sbu_0, # of connection points: 4
#     Node 18, Type 0, BuildingBlock: ESEHIV_clean_sbu_0, # of connection points: 4
#     Node 19, Type 0, BuildingBlock: ESEHIV_clean_sbu_0, # of connection points: 4
#     Node 20, Type 0, BuildingBlock: ESEHIV_clean_sbu_0, # of connection points: 4
#     Node 21, Type 0, BuildingBlock: ESEHIV_clean_sbu_0, # of connection points: 4
#     Node 22, Type 0, BuildingBlock: ESEHIV_clean_sbu_0, # of connection points: 4
#     Node 23, Type 0, BuildingBlock: ESEHIV_clean_sbu_0, # of connection points: 4
#     Node 24, Type 0, BuildingBlock: ESEHIV_clean_sbu_0, # of connection points: 4
#     Node 25, Type 0, BuildingBlock: ESEHIV_clean_sbu_0, # of connection points: 4
#     Node 26, Type 0, BuildingBlock: ESEHIV_clean_sbu_0, # of connection points: 4
#     Node 27, Type 0, BuildingBlock: ESEHIV_clean_sbu_0, # of connection points: 4
#     Node 28, Type 0, BuildingBlock: ESEHIV_clean_sbu_0, # of connection points: 4
#     Node 29, Type 0, BuildingBlock: ESEHIV_clean_sbu_0, # of connection points: 4
#     Node 30, Type 0, BuildingBlock: ESEHIV_clean_sbu_0, # of connection points: 4
#     Node 31, Type 0, BuildingBlock: ESEHIV_clean_sbu_0, # of connection points: 4
#     Edge 32, Type (0, 0), BuildingBlock: ZUJKAS_clean_linker_0, # of connection points: 2
#     Edge 33, Type (0, 0), BuildingBlock: ZUJKAS_clean_linker_0, # of connection points: 2
#     Edge 34, Type (0, 0), BuildingBlock: ZUJKAS_clean_linker_0, # of connection points: 2
#     Edge 35, Type (0, 0), BuildingBlock: ZUJKAS_clean_linker_0, # of connection points: 2
#     Edge 36, Type (0, 0), BuildingBlock: ZUJKAS_clean_linker_0, # of connection points: 2
#     Edge 37, Type (0, 0), BuildingBlock: ZUJKAS_clean_linker_0, # of connection points: 2
#     Edge 38, Type (0, 0), BuildingBlock: ZUJKAS_clean_linker_0, # of connection points: 2
#     Edge 39, Type (0, 0), BuildingBlock: ZUJKAS_clean_linker_0, # of connection points: 2
#     Edge 40, Type (0, 0), BuildingBlock: ZUJKAS_clean_linker_0, # of connection points: 2
#     Edge 41, Type (0, 0), BuildingBlock: ZUJKAS_clean_linker_0, # of connection points: 2
#     Edge 42, Type (0, 0), BuildingBlock: ZUJKAS_clean_linker_0, # of connection points: 2
#     Edge 43, Type (0, 0), BuildingBlock: ZUJKAS_clean_linker_0, # of connection points: 2
#     Edge 44, Type (0, 0), BuildingBlock: ZUJKAS_clean_linker_0, # of connection points: 2
#     Edge 45, Type (0, 0), BuildingBlock: ZUJKAS_clean_linker_0, # of connection points: 2
#     Edge 46, Type (0, 0), BuildingBlock: ZUJKAS_clean_linker_0, # of connection points: 2
#     Edge 47, Type (0, 0), BuildingBlock: ZUJKAS_clean_linker_0, # of connection points: 2
#     Edge 48, Type (0, 0), BuildingBlock: ZUJKAS_clean_linker_0, # of connection points: 2
#     Edge 49, Type (0, 0), BuildingBlock: ZUJKAS_clean_linker_0, # of connection points: 2
#     Edge 50, Type (0, 0), BuildingBlock: ZUJKAS_clean_linker_0, # of connection points: 2
#     Edge 51, Type (0, 0), BuildingBlock: ZUJKAS_clean_linker_0, # of connection points: 2
#     Edge 52, Type (0, 0), BuildingBlock: ZUJKAS_clean_linker_0, # of connection points: 2
#     Edge 53, Type (0, 0), BuildingBlock: ZUJKAS_clean_linker_0, # of connection points: 2
#     Edge 54, Type (0, 0), BuildingBlock: ZUJKAS_clean_linker_0, # of connection points: 2
#     Edge 55, Type (0, 0), BuildingBlock: ZUJKAS_clean_linker_0, # of connection points: 2
#     Edge 56, Type (0, 0), BuildingBlock: ZUJKAS_clean_linker_0, # of connection points: 2
#     Edge 57, Type (0, 0), BuildingBlock: ZUJKAS_clean_linker_0, # of connection points: 2
#     Edge 58, Type (0, 0), BuildingBlock: ZUJKAS_clean_linker_0, # of connection points: 2
#     Edge 59, Type (0, 0), BuildingBlock: ZUJKAS_clean_linker_0, # of connection points: 2
#     Edge 60, Type (0, 0), BuildingBlock: ZUJKAS_clean_linker_0, # of connection points: 2
#     Edge 61, Type (0, 0), BuildingBlock: ZUJKAS_clean_linker_0, # of connection points: 2
#     Edge 62, Type (0, 0), BuildingBlock: ZUJKAS_clean_linker_0, # of connection points: 2
#     Edge 63, Type (0, 0), BuildingBlock: ZUJKAS_clean_linker_0, # of connection points: 2
#     Edge 64, Type (0, 0), BuildingBlock: ZUJKAS_clean_linker_0, # of connection points: 2
#     Edge 65, Type (0, 0), BuildingBlock: ZUJKAS_clean_linker_0, # of connection points: 2
#     Edge 66, Type (0, 0), BuildingBlock: ZUJKAS_clean_linker_0, # of connection points: 2
#     Edge 67, Type (0, 0), BuildingBlock: ZUJKAS_clean_linker_0, # of connection points: 2
#     Edge 68, Type (0, 0), BuildingBlock: ZUJKAS_clean_linker_0, # of connection points: 2
#     Edge 69, Type (0, 0), BuildingBlock: ZUJKAS_clean_linker_0, # of connection points: 2
#     Edge 70, Type (0, 0), BuildingBlock: ZUJKAS_clean_linker_0, # of connection points: 2
#     Edge 71, Type (0, 0), BuildingBlock: ZUJKAS_clean_linker_0, # of connection points: 2
#     Edge 72, Type (0, 0), BuildingBlock: ZUJKAS_clean_linker_0, # of connection points: 2
#     Edge 73, Type (0, 0), BuildingBlock: ZUJKAS_clean_linker_0, # of connection points: 2
#     Edge 74, Type (0, 0), BuildingBlock: ZUJKAS_clean_linker_0, # of connection points: 2
#     Edge 75, Type (0, 0), BuildingBlock: ZUJKAS_clean_linker_0, # of connection points: 2
#     Edge 76, Type (0, 0), BuildingBlock: ZUJKAS_clean_linker_0, # of connection points: 2
#     Edge 77, Type (0, 0), BuildingBlock: ZUJKAS_clean_linker_0, # of connection points: 2
#     Edge 78, Type (0, 0), BuildingBlock: ZUJKAS_clean_linker_0, # of connection points: 2
#     Edge 79, Type (0, 0), BuildingBlock: ZUJKAS_clean_linker_0, # of connection points: 2
#     Edge 80, Type (0, 0), BuildingBlock: ZUJKAS_clean_linker_0, # of connection points: 2
#     Edge 81, Type (0, 0), BuildingBlock: ZUJKAS_clean_linker_0, # of connection points: 2
#     Edge 82, Type (0, 0), BuildingBlock: ZUJKAS_clean_linker_0, # of connection points: 2
#     Edge 83, Type (0, 0), BuildingBlock: ZUJKAS_clean_linker_0, # of connection points: 2
#     Edge 84, Type (0, 0), BuildingBlock: ZUJKAS_clean_linker_0, # of connection points: 2
#     Edge 85, Type (0, 0), BuildingBlock: ZUJKAS_clean_linker_0, # of connection points: 2
#     Edge 86, Type (0, 0), BuildingBlock: ZUJKAS_clean_linker_0, # of connection points: 2
#     Edge 87, Type (0, 0), BuildingBlock: ZUJKAS_clean_linker_0, # of connection points: 2
#     Edge 88, Type (0, 0), BuildingBlock: ZUJKAS_clean_linker_0, # of connection points: 2
#     Edge 89, Type (0, 0), BuildingBlock: ZUJKAS_clean_linker_0, # of connection points: 2
#     Edge 90, Type (0, 0), BuildingBlock: ZUJKAS_clean_linker_0, # of connection points: 2
#     Edge 91, Type (0, 0), BuildingBlock: ZUJKAS_clean_linker_0, # of connection points: 2
#     Edge 92, Type (0, 0), BuildingBlock: ZUJKAS_clean_linker_0, # of connection points: 2
#     Edge 93, Type (0, 0), BuildingBlock: ZUJKAS_clean_linker_0, # of connection points: 2
#     Edge 94, Type (0, 0), BuildingBlock: ZUJKAS_clean_linker_0, # of connection points: 2
#     Edge 95, Type (0, 0), BuildingBlock: ZUJKAS_clean_linker_0, # of connection points: 2
# Relax obj value: 0.044
# Max RMSD: 0.062
# Mean RMSD: 0.062
data_MOF--net-upd--node1-ESEHIV_clean_sbu_0--edge1-ZUJKAS_clean_linker_0
_symmetry_space_group_name_H-M    P1
_symmetry_Int_Tables_number       1
_symmetry_cell_setting            triclinic
loop_
_symmetry_equiv_pos_as_xyz
'x, y, z'
_cell_length_a     51.385214
_cell_length_b     51.219335
_cell_length_c     114.91827
_cell_angle_alpha  89.910793
_cell_angle_beta   90.070692
_cell_angle_gamma 90.047429
loop_
_atom_site_label
_atom_site_type_symbol
_atom_site_fract_x
_atom_site_fract_y
_atom_site_fract_z
_atom_type_partial_charge
Cu0 Cu 0.1497 0.14542 0.32984 0.0
N1 N 0.18249 0.1549 0.32404 0.0
N2 N 0.2119 0.1739 0.31241 0.0
C3 C 0.18654 0.16778 0.31397 0.0
C4 C 0.22425 0.16426 0.32186 0.0
C5 C 0.20609 0.15263 0.32902 0.0
O6 O 0.13402 0.1217 0.31854 0.0
C7 C 0.14194 0.19513 0.33827 0.0
O8 O 0.16741 0.19543 0.3374 0.0
H9 H 0.171 0.17291 0.30804 0.0
H10 H 0.20979 0.1441 0.33746 0.0
N11 N 0.15126 0.12966 0.34456 0.0
N12 N 0.1396 0.12395 0.36316 0.0
C13 C 0.13321 0.1344 0.35277 0.0
C14 C 0.16972 0.11533 0.3499 0.0
C15 C 0.16261 0.11189 0.36143 0.0
C16 C 0.14668 0.1008 0.31651 0.0
O17 O 0.16804 0.09637 0.3225 0.0
H18 H 0.11619 0.14638 0.35127 0.0
H19 H 0.18735 0.10838 0.34583 0.0
O20 O 0.12948 0.17674 0.33328 0.0
H21 H 0.24479 0.16636 0.32374 0.0
H22 H 0.17358 0.1015 0.36801 0.0
Cu23 Cu 0.11267 0.87097 0.57326 0.0
N24 N 0.09985 0.90446 0.57007 0.0
N25 N 0.07984 0.9366 0.56033 0.0
C26 C 0.08946 0.91208 0.55985 0.0
C27 C 0.08467 0.94475 0.57131 0.0
C28 C 0.09699 0.92489 0.57729 0.0
O29 O 0.13591 0.86137 0.56051 0.0
C30 C 0.06096 0.85539 0.5786 0.0
O31 O 0.05416 0.87838 0.57456 0.0
H32 H 0.08793 0.8993 0.55239 0.0
H33 H 0.10278 0.92508 0.58634 0.0
N34 N 0.13159 0.86963 0.58714 0.0
N35 N 0.14553 0.85204 0.60387 0.0
C36 C 0.13165 0.84839 0.59403 0.0
C37 C 0.14614 0.88752 0.59274 0.0
C38 C 0.15484 0.87666 0.60307 0.0
C39 C 0.15409 0.87781 0.55862 0.0
O40 O 0.15541 0.89861 0.56527 0.0
H41 H 0.12161 0.83052 0.5918 0.0
H42 H 0.14982 0.90712 0.58964 0.0
O43 O 0.08389 0.84704 0.57656 0.0
H44 H 0.07943 0.96359 0.57485 0.0
H45 H 0.16652 0.88641 0.6096 0.0
Cu46 Cu 0.39488 0.87122 0.81777 0.0
N47 N 0.3892 0.84888 0.80522 0.0
N48 N 0.3665 0.82419 0.79276 0.0
C49 C 0.36642 0.83685 0.80306 0.0
C50 C 0.39056 0.82813 0.78835 0.0
C51 C 0.40449 0.84348 0.79604 0.0
O52 O 0.38499 0.90621 0.81276 0.0
C53 C 0.37416 0.86459 0.84101 0.0
O54 O 0.38395 0.8876 0.84354 0.0
H55 H 0.34988 0.83797 0.80885 0.0
H56 H 0.42401 0.85092 0.79484 0.0
N57 N 0.43008 0.87229 0.82198 0.0
N58 N 0.4654 0.87523 0.83334 0.0
C59 C 0.4402 0.86784 0.83264 0.0
C60 C 0.44964 0.88253 0.81568 0.0
C61 C 0.47144 0.88438 0.82266 0.0
C62 C 0.36422 0.91114 0.8071 0.0
O63 O 0.34645 0.89285 0.80606 0.0
H64 H 0.4289 0.86095 0.83995 0.0
H65 H 0.44775 0.88953 0.80684 0.0
O66 O 0.37533 0.85627 0.8306 0.0
H67 H 0.39725 0.82142 0.77994 0.0
H68 H 0.49 0.8927 0.82017 0.0
Cu69 Cu 0.40943 0.13799 0.07233 0.0
N70 N 0.43753 0.12447 0.06398 0.0
N71 N 0.46285 0.09812 0.05337 0.0
C72 C 0.43927 0.1014 0.05839 0.0
C73 C 0.47632 0.12004 0.05591 0.0
C74 C 0.46069 0.13619 0.06243 0.0
O75 O 0.37815 0.13806 0.06264 0.0
C76 C 0.39224 0.12999 0.09486 0.0
O77 O 0.3758 0.14846 0.09185 0.0
H78 H 0.4237 0.08718 0.05817 0.0
H79 H 0.46582 0.15521 0.06581 0.0
N80 N 0.4174 0.17198 0.07709 0.0
N81 N 0.42668 0.20299 0.09018 0.0
C82 C 0.42964 0.17771 0.08715 0.0
C83 C 0.40687 0.19454 0.07341 0.0
C84 C 0.4126 0.21373 0.08145 0.0
C85 C 0.36561 0.11737 0.0601 0.0
O86 O 0.37314 0.09504 0.06461 0.0
H87 H 0.43826 0.163 0.09272 0.0
H88 H 0.3942 0.19645 0.06594 0.0
O89 O 0.40573 0.1192 0.08693 0.0
H90 H 0.49597 0.12434 0.05312 0.0
H91 H 0.40562 0.23365 0.08121 0.0
Cu92 Cu 0.10374 0.86067 0.21771 0.0
N93 N 0.11003 0.83312 0.22805 0.0
N94 N 0.13152 0.80701 0.24042 0.0
C95 C 0.13104 0.83044 0.23498 0.0
C96 C 0.10962 0.7947 0.23687 0.0
C97 C 0.09646 0.81084 0.22925 0.0
O98 O 0.11396 0.89292 0.22557 0.0
C99 C 0.14368 0.84114 0.20259 0.0
O100 O 0.15716 0.8366 0.21209 0.0
H101 H 0.14636 0.8449 0.23549 0.0
H102 H 0.07868 0.80632 0.22461 0.0
N103 N 0.06853 0.86154 0.21352 0.0
N104 N 0.03315 0.8631 0.20212 0.0
C105 C 0.05943 0.86221 0.20252 0.0
C106 C 0.04735 0.86196 0.22037 0.0
C107 C 0.02548 0.86298 0.21337 0.0
C108 C 0.10116 0.9142 0.22501 0.0
O109 O 0.0813 0.9159 0.21784 0.0
H110 H 0.07196 0.86252 0.19496 0.0
H111 H 0.0478 0.86161 0.22978 0.0
O112 O 0.12223 0.85344 0.2033 0.0
H113 H 0.1037 0.77524 0.2394 0.0
H114 H 1.00552 0.86332 0.21635 0.0
Cu115 Cu 0.40589 0.85551 0.46364 0.0
N116 N 0.43071 0.86481 0.47493 0.0
N117 N 0.45593 0.88917 0.48662 0.0
C118 C 0.43869 0.88915 0.4777 0.0
C119 C 0.45901 0.86376 0.48947 0.0
C120 C 0.4435 0.84887 0.48228 0.0
O121 O 0.37099 0.85945 0.4701 0.0
C122 C 0.39767 0.87515 0.44078 0.0
O123 O 0.37478 0.86389 0.44171 0.0
H124 H 0.43185 0.90649 0.47326 0.0
H125 H 0.44143 0.82789 0.48253 0.0
N126 N 0.40918 0.82032 0.45934 0.0
N127 N 0.40724 0.78476 0.44805 0.0
C128 C 0.40865 0.81106 0.44837 0.0
C129 C 0.4082 0.79903 0.46622 0.0
C130 C 0.40723 0.77705 0.45928 0.0
C131 C 0.36381 0.87873 0.47629 0.0
O132 O 0.37965 0.89864 0.4776 0.0
H133 H 0.40845 0.82333 0.44072 0.0
H134 H 0.4068 0.79948 0.47561 0.0
O135 O 0.41252 0.87583 0.44964 0.0
H136 H 0.47104 0.8564 0.49648 0.0
H137 H 0.40506 0.7571 0.46225 0.0
Cu138 Cu 0.40872 0.16143 0.71444 0.0
N139 N 0.40415 0.18684 0.72594 0.0
N140 N 0.38469 0.21015 0.73993 0.0
C141 C 0.38393 0.18829 0.73336 0.0
C142 C 0.40657 0.22274 0.73657 0.0
C143 C 0.41849 0.20833 0.72795 0.0
O144 O 0.39932 0.12783 0.72119 0.0
C145 C 0.37189 0.18863 0.70008 0.0
O146 O 0.3612 0.19622 0.70987 0.0
H147 H 0.36823 0.17426 0.73345 0.0
H148 H 0.43596 0.21352 0.72324 0.0
N149 N 0.4436 0.1594 0.70999 0.0
N150 N 0.47833 0.15339 0.69855 0.0
C151 C 0.45207 0.15425 0.69915 0.0
C152 C 0.46517 0.1619 0.71654 0.0
C153 C 0.48664 0.15829 0.7095 0.0
C154 C 0.37644 0.11992 0.72356 0.0
O155 O 0.35632 0.13376 0.72012 0.0
H156 H 0.4391 0.15138 0.69184 0.0
H157 H 0.46525 0.16586 0.72578 0.0
O158 O 0.39013 0.1718 0.70035 0.0
H159 H 0.41333 0.24127 0.73992 0.0
H160 H 0.50675 0.15875 0.71229 0.0
Cu161 Cu 0.11106 0.15381 0.96715 0.0
N162 N 0.08487 0.1468 0.97806 0.0
N163 N 0.06002 0.12531 0.99094 0.0
C164 C 0.08237 0.12526 0.98472 0.0
C165 C 0.04824 0.14806 0.98815 0.0
C166 C 0.06353 0.16117 0.98021 0.0
O167 O 0.14496 0.14643 0.97413 0.0
C168 C 0.08755 0.11692 0.95143 0.0
O169 O 0.08042 0.104 0.96077 0.0
H170 H 0.09605 0.10929 0.98453 0.0
H171 H 0.05904 0.17958 0.97605 0.0
N172 N 0.11102 0.18927 0.96336 0.0
N173 N 0.11463 0.22546 0.95256 0.0
C174 C 0.11605 0.19914 0.95273 0.0
C175 C 0.10638 0.21003 0.9702 0.0
C176 C 0.10845 0.23241 0.96354 0.0
C177 C 0.15388 0.12422 0.97711 0.0
O178 O 0.14078 0.10303 0.97442 0.0
H179 H 0.12035 0.18714 0.94523 0.0
H180 H 0.10186 0.20896 0.97938 0.0
O181 O 0.10287 0.13636 0.95247 0.0
H182 H 0.02968 0.15472 0.99144 0.0
H183 H 0.10601 0.25224 0.9666 0.0
Cu184 Cu 0.90352 0.86879 0.71248 0.0
N185 N 0.89182 0.84221 0.7224 0.0
N186 N 0.86714 0.81792 0.73428 0.0
C187 C 0.86829 0.83947 0.72747 0.0
C188 C 0.89088 0.80679 0.73344 0.0
C189 C 0.90599 0.82178 0.72613 0.0
O190 O 0.90579 0.90151 0.72106 0.0
C191 C 0.87066 0.85227 0.69415 0.0
O192 O 0.86591 0.83208 0.70087 0.0
H193 H 0.85244 0.8531 0.72624 0.0
H194 H 0.92596 0.81806 0.72368 0.0
N195 N 0.93644 0.86045 0.70676 0.0
N196 N 0.96547 0.85082 0.69292 0.0
C197 C 0.94066 0.8482 0.69657 0.0
C198 C 0.95952 0.87076 0.70983 0.0
C199 C 0.97749 0.86484 0.7013 0.0
C200 C 0.88584 0.91427 0.7243 0.0
O201 O 0.86262 0.90572 0.72139 0.0
H202 H 0.9253 0.83956 0.69142 0.0
H203 H 0.96256 0.88339 0.71724 0.0
O204 O 0.88296 0.87171 0.69833 0.0
H205 H 0.89683 0.78886 0.73766 0.0
H206 H 0.99744 0.87158 0.70099 0.0
Cu207 Cu 0.90703 0.13726 0.46072 0.0
N208 N 0.91298 0.10173 0.46328 0.0
N209 N 0.92936 0.06696 0.47256 0.0
C210 C 0.9234 0.09258 0.47323 0.0
C211 C 0.92229 0.05968 0.46171 0.0
C212 C 0.91219 0.0812 0.456 0.0
O213 O 0.88714 0.14945 0.47416 0.0
C214 C 0.95218 0.14444 0.44899 0.0
O215 O 0.93945 0.12815 0.44226 0.0
H216 H 0.92792 0.10497 0.48058 0.0
H217 H 0.90592 0.08204 0.44702 0.0
N218 N 0.88793 0.14469 0.44717 0.0
N219 N 0.87348 0.16796 0.43195 0.0
C220 C 0.8885 0.16786 0.44161 0.0
C221 C 0.87197 0.12948 0.44084 0.0
C222 C 0.86304 0.14376 0.43144 0.0
C223 C 0.8643 0.13975 0.47479 0.0
O224 O 0.85666 0.12375 0.46654 0.0
H225 H 0.90029 0.18412 0.44451 0.0
H226 H 0.86712 0.10945 0.44289 0.0
O227 O 0.94152 0.15237 0.45836 0.0
H228 H 0.92482 0.0404 0.45805 0.0
H229 H 0.84972 0.13685 0.42482 0.0
Cu230 Cu 0.61173 0.15922 0.21375 0.0
N231 N 0.61967 0.18609 0.22417 0.0
N232 N 0.64245 0.21131 0.23638 0.0
C233 C 0.64082 0.18785 0.23107 0.0
C234 C 0.62125 0.22466 0.23279 0.0
C235 C 0.60724 0.20904 0.22528 0.0
O236 O 0.61895 0.12573 0.22118 0.0
C237 C 0.64856 0.18084 0.19763 0.0
O238 O 0.66186 0.1879 0.20687 0.0
H239 H 0.65558 0.17286 0.2316 0.0
H240 H 0.58976 0.21439 0.22059 0.0
N241 N 0.57618 0.15944 0.21041 0.0
N242 N 0.53951 0.15657 0.19999 0.0
C243 C 0.56549 0.16048 0.19971 0.0
C244 C 0.5563 0.15488 0.21774 0.0
C245 C 0.53362 0.15304 0.21133 0.0
C246 C 0.64101 0.11616 0.22388 0.0
O247 O 0.66235 0.12819 0.22057 0.0
H248 H 0.57675 0.16256 0.19181 0.0
H249 H 0.55833 0.15203 0.22703 0.0
O250 O 0.62874 0.16614 0.19887 0.0
H251 H 0.61649 0.24451 0.23519 0.0
H252 H 0.51442 0.14885 0.21472 0.0
Cu253 Cu 0.61199 0.85558 0.96197 0.0
N254 N 0.58336 0.86456 0.97121 0.0
N255 N 0.55717 0.88701 0.98312 0.0
C256 C 0.58106 0.8855 0.97823 0.0
C257 C 0.54409 0.86602 0.97905 0.0
C258 C 0.56025 0.85228 0.97172 0.0
O259 O 0.64388 0.86145 0.9708 0.0
C260 C 0.5928 0.88953 0.94402 0.0
O261 O 0.57791 0.89968 0.9521 0.0
H262 H 0.5963 0.89983 0.97937 0.0
H263 H 0.55536 0.83479 0.96693 0.0
N264 N 0.61068 0.82019 0.95816 0.0
N265 N 0.61406 0.78424 0.94722 0.0
C266 C 0.61733 0.81038 0.94772 0.0
C267 C 0.60295 0.79959 0.96456 0.0
C268 C 0.60493 0.77736 0.95781 0.0
C269 C 0.65369 0.88361 0.97324 0.0
O270 O 0.64302 0.90484 0.96893 0.0
H271 H 0.62399 0.82236 0.94056 0.0
H272 H 0.59624 0.80069 0.97346 0.0
O273 O 0.61026 0.87308 0.94689 0.0
H274 H 0.52422 0.86092 0.98117 0.0
H275 H 0.60025 0.75768 0.96054 0.0
Cu276 Cu 0.87681 0.15156 0.82745 0.0
N277 N 0.84109 0.15738 0.82532 0.0
N278 N 0.80405 0.16973 0.81662 0.0
C279 C 0.82967 0.16467 0.81525 0.0
C280 C 0.79912 0.16505 0.82797 0.0
C281 C 0.82201 0.15756 0.83332 0.0
O282 O 0.88915 0.13148 0.8141 0.0
C283 C 0.8836 0.20707 0.82895 0.0
O284 O 0.86199 0.20878 0.82289 0.0
H285 H 0.84021 0.16701 0.80717 0.0
H286 H 0.82473 0.15348 0.84248 0.0
N287 N 0.88358 0.1324 0.84103 0.0
N288 N 0.90518 0.11908 0.85694 0.0
C289 C 0.90565 0.13434 0.84732 0.0
C290 C 0.86852 0.11528 0.84682 0.0
C291 C 0.88178 0.10701 0.85661 0.0
C292 C 0.87812 0.10936 0.81279 0.0
O293 O 0.86027 0.10233 0.82035 0.0
H294 H 0.92174 0.14676 0.84482 0.0
H295 H 0.84915 0.10945 0.84419 0.0
O296 O 0.89431 0.18483 0.83028 0.0
H297 H 0.78058 0.16804 0.83223 0.0
H298 H 0.87443 0.09359 0.8631 0.0
Cu299 Cu 0.61651 0.14322 0.57032 0.0
N300 N 0.59311 0.13278 0.55867 0.0
N301 N 0.56902 0.10793 0.54673 0.0
C302 C 0.5857 0.10827 0.55587 0.0
C303 C 0.56586 0.13326 0.54375 0.0
C304 C 0.5807 0.14845 0.55109 0.0
O305 O 0.65206 0.14196 0.56439 0.0
C306 C 0.62436 0.12628 0.5934 0.0
O307 O 0.64573 0.14026 0.59254 0.0
H308 H 0.59244 0.0911 0.56046 0.0
H309 H 0.58257 0.16947 0.55083 0.0
N310 N 0.61037 0.17798 0.57457 0.0
N311 N 0.60739 0.21279 0.58628 0.0
C312 C 0.60534 0.18657 0.58541 0.0
C313 C 0.61531 0.19957 0.56826 0.0
C314 C 0.61336 0.22109 0.57544 0.0
C315 C 0.66117 0.12373 0.55808 0.0
O316 O 0.64683 0.10297 0.55608 0.0
H317 H 0.60134 0.17378 0.59267 0.0
H318 H 0.62157 0.19953 0.55928 0.0
O319 O 0.61065 0.12267 0.58431 0.0
H320 H 0.55416 0.14036 0.53658 0.0
H321 H 0.61782 0.24104 0.57305 0.0
Cu322 Cu 0.60794 0.86419 0.31713 0.0
N323 N 0.61257 0.84115 0.30473 0.0
N324 N 0.63367 0.81626 0.29186 0.0
C325 C 0.63582 0.83221 0.30114 0.0
C326 C 0.60793 0.81485 0.28959 0.0
C327 C 0.59494 0.8303 0.29754 0.0
O328 O 0.61721 0.89899 0.31154 0.0
C329 C 0.63078 0.85854 0.3401 0.0
O330 O 0.6209 0.88146 0.34267 0.0
H331 H 0.65399 0.83711 0.30537 0.0
H332 H 0.57417 0.83351 0.29798 0.0
N333 N 0.57301 0.86509 0.32179 0.0
N334 N 0.53772 0.86747 0.33319 0.0
C335 C 0.56351 0.86232 0.33267 0.0
C336 C 0.55252 0.87202 0.31519 0.0
C337 C 0.53075 0.87344 0.32217 0.0
C338 C 0.63903 0.90499 0.30702 0.0
O339 O 0.65826 0.88816 0.30751 0.0
H340 H 0.57546 0.85777 0.34013 0.0
H341 H 0.55355 0.8766 0.30601 0.0
O342 O 0.62875 0.8499 0.32977 0.0
H343 H 0.59916 0.8039 0.28255 0.0
H344 H 0.51142 0.87892 0.31934 0.0
Cu345 Cu 0.90202 0.86444 0.07029 0.0
N346 N 0.92853 0.87647 0.06053 0.0
N347 N 0.95457 0.90315 0.05042 0.0
C348 C 0.93486 0.90146 0.05816 0.0
C349 C 0.96099 0.87824 0.04792 0.0
C350 C 0.94488 0.86185 0.05415 0.0
O351 O 0.86837 0.87015 0.06278 0.0
C352 C 0.89272 0.87267 0.09429 0.0
O353 O 0.87271 0.85719 0.09247 0.0
H354 H 0.92528 0.91805 0.06208 0.0
H355 H 0.94482 0.84074 0.05392 0.0
N356 N 0.90532 0.82841 0.07233 0.0
N357 N 0.90674 0.7903 0.08181 0.0
C358 C 0.91232 0.81603 0.0822 0.0
C359 C 0.89556 0.80977 0.06534 0.0
C360 C 0.89632 0.78623 0.07118 0.0
C361 C 0.86053 0.8916 0.0584 0.0
O362 O 0.87451 0.91281 0.05986 0.0
H363 H 0.91912 0.82603 0.08992 0.0
H364 H 0.8867 0.81341 0.05695 0.0
O365 O 0.90616 0.88019 0.0856 0.0
H366 H 0.97577 0.87225 0.04178 0.0
H367 H 0.88836 0.76791 0.06812 0.0
Cu368 Cu 0.62261 0.65207 0.81962 0.0
N369 N 0.6313 0.67935 0.8095 0.0
N370 N 0.65401 0.70664 0.79811 0.0
C371 C 0.65512 0.68645 0.80572 0.0
C372 C 0.62844 0.7125 0.79721 0.0
C373 C 0.61456 0.69568 0.80422 0.0
O374 O 0.62279 0.61882 0.81123 0.0
C375 C 0.63897 0.63881 0.84185 0.0
O376 O 0.62214 0.6198 0.84028 0.0
H377 H 0.67281 0.67662 0.80833 0.0
H378 H 0.59367 0.69526 0.80535 0.0
N379 N 0.58945 0.65787 0.82582 0.0
N380 N 0.55999 0.66572 0.83972 0.0
C381 C 0.58459 0.66985 0.83604 0.0
C382 C 0.56701 0.6462 0.82279 0.0
C383 C 0.54879 0.651 0.83135 0.0
C384 C 0.64214 0.61119 0.80521 0.0
O385 O 0.66348 0.62532 0.80518 0.0
H386 H 0.59945 0.67945 0.84116 0.0
H387 H 0.5646 0.63359 0.81533 0.0
O388 O 0.64526 0.6528 0.83313 0.0
H389 H 0.62023 0.72792 0.79192 0.0
H390 H 0.52923 0.64318 0.83165 0.0
Cu391 Cu 0.61395 0.37985 0.07028 0.0
N392 N 0.60421 0.41458 0.06746 0.0
N393 N 0.58652 0.44893 0.05828 0.0
C394 C 0.59563 0.42426 0.05724 0.0
C395 C 0.59007 0.45507 0.06961 0.0
C396 C 0.6009 0.43387 0.07524 0.0
O397 O 0.63669 0.36834 0.05762 0.0
C398 C 0.55957 0.3676 0.07172 0.0
O399 O 0.55572 0.38751 0.06473 0.0
H400 H 0.59444 0.41268 0.04939 0.0
H401 H 0.60502 0.43225 0.08444 0.0
N402 N 0.63235 0.37638 0.08426 0.0
N403 N 0.64541 0.35751 0.10088 0.0
C404 C 0.63111 0.355 0.09107 0.0
C405 C 0.64807 0.39315 0.0899 0.0
C406 C 0.65621 0.38153 0.10014 0.0
C407 C 0.65664 0.38275 0.056 0.0
O408 O 0.65966 0.40334 0.06267 0.0
H409 H 0.6199 0.33786 0.08878 0.0
H410 H 0.653 0.41252 0.08686 0.0
O411 O 0.58266 0.35915 0.07323 0.0
H412 H 0.58461 0.4733 0.07367 0.0
H413 H 0.66864 0.39038 0.10664 0.0
Cu414 Cu 0.89074 0.36831 0.32075 0.0
N415 N 0.88436 0.34468 0.30871 0.0
N416 N 0.86156 0.31901 0.29669 0.0
C417 C 0.86118 0.33346 0.30651 0.0
C418 C 0.88617 0.32098 0.29265 0.0
C419 C 0.90016 0.33689 0.30007 0.0
O420 O 0.88264 0.40325 0.315 0.0
C421 C 0.87048 0.36572 0.34415 0.0
O422 O 0.88136 0.38862 0.34587 0.0
H423 H 0.84423 0.33631 0.31194 0.0
H424 H 0.92019 0.34293 0.29904 0.0
N425 N 0.92598 0.3684 0.32494 0.0
N426 N 0.96147 0.37178 0.33618 0.0
C427 C 0.93577 0.36623 0.33579 0.0
C428 C 0.94626 0.37526 0.3182 0.0
C429 C 0.9682 0.37721 0.32509 0.0
C430 C 0.86297 0.40848 0.30866 0.0
O431 O 0.84486 0.39066 0.30723 0.0
H432 H 0.92417 0.36143 0.34332 0.0
H433 H 0.94488 0.37995 0.30904 0.0
O434 O 0.87067 0.35587 0.33399 0.0
H435 H 0.89332 0.31243 0.28466 0.0
H436 H 0.98723 0.38366 0.32225 0.0
Cu437 Cu 0.90173 0.66532 0.56956 0.0
N438 N 0.92508 0.6538 0.55813 0.0
N439 N 0.94808 0.6279 0.54628 0.0
C440 C 0.93094 0.62899 0.5552 0.0
C441 C 0.95313 0.65305 0.54354 0.0
C442 C 0.93895 0.66891 0.55084 0.0
O443 O 0.86634 0.662 0.56359 0.0
C444 C 0.93051 0.64104 0.58744 0.0
O445 O 0.94941 0.64271 0.5798 0.0
H446 H 0.923 0.61214 0.55963 0.0
H447 H 0.93855 0.69001 0.55074 0.0
N448 N 0.90663 0.70078 0.57249 0.0
N449 N 0.90793 0.73749 0.58294 0.0
C450 C 0.91085 0.71131 0.58305 0.0
C451 C 0.90103 0.72098 0.56542 0.0
C452 C 0.90176 0.7437 0.57186 0.0
C453 C 0.85722 0.6415 0.55886 0.0
O454 O 0.87122 0.62007 0.5589 0.0
H455 H 0.91376 0.69983 0.59085 0.0
H456 H 0.8951 0.71911 0.55642 0.0
O457 O 0.90762 0.64803 0.5845 0.0
H458 H 0.96573 0.65962 0.53659 0.0
H459 H 0.89687 0.76306 0.56878 0.0
Cu460 Cu 0.60379 0.34941 0.71454 0.0
N461 N 0.60754 0.32289 0.72564 0.0
N462 N 0.62516 0.2948 0.7384 0.0
C463 C 0.62967 0.31168 0.72953 0.0
C464 C 0.59911 0.29542 0.74001 0.0
C465 C 0.58838 0.31271 0.73217 0.0
O466 O 0.60888 0.38328 0.72211 0.0
C467 C 0.62377 0.3575 0.69243 0.0
O468 O 0.61036 0.37922 0.69344 0.0
H469 H 0.64867 0.31621 0.72603 0.0
H470 H 0.56809 0.31812 0.7315 0.0
N471 N 0.57036 0.34801 0.70804 0.0
N472 N 0.54039 0.3438 0.69397 0.0
C473 C 0.56446 0.33718 0.69768 0.0
C474 C 0.54908 0.36153 0.71117 0.0
C475 C 0.53056 0.35895 0.70252 0.0
C476 C 0.6284 0.38783 0.72865 0.0
O477 O 0.64661 0.36999 0.72963 0.0
H478 H 0.57835 0.32631 0.69255 0.0
H479 H 0.54773 0.37367 0.71884 0.0
O480 O 0.62676 0.34328 0.70143 0.0
H481 H 0.58852 0.28496 0.74668 0.0
H482 H 0.51176 0.36844 0.70235 0.0
Cu483 Cu 0.90333 0.39316 0.95883 0.0
N484 N 0.91309 0.42618 0.96447 0.0
N485 N 0.93323 0.45647 0.9753 0.0
C486 C 0.92793 0.43077 0.97395 0.0
C487 C 0.92101 0.46845 0.96636 0.0
C488 C 0.90869 0.44978 0.95971 0.0
O489 O 0.87728 0.37839 0.96937 0.0
C490 C 0.95382 0.38316 0.95181 0.0
O491 O 0.95401 0.40878 0.9514 0.0
H492 H 0.93554 0.41538 0.97944 0.0
H493 H 0.89784 0.45324 0.95181 0.0
N494 N 0.88968 0.3944 0.94369 0.0
N495 N 0.88545 0.38164 0.9251 0.0
C496 C 0.89577 0.37633 0.93566 0.0
C497 C 0.87444 0.41174 0.93813 0.0
C498 C 0.87183 0.40395 0.92666 0.0
C499 C 0.85669 0.3919 0.97081 0.0
O500 O 0.85449 0.41403 0.96509 0.0
H501 H 0.90761 0.35949 0.93764 0.0
H502 H 0.86597 0.42892 0.94204 0.0
O503 O 0.93439 0.37179 0.95653 0.0
H504 H 0.92107 0.48924 0.96466 0.0
H505 H 0.86108 0.41429 0.92 0.0
Cu506 Cu 0.89313 0.65881 0.21164 0.0
N507 N 0.87999 0.68592 0.22077 0.0
N508 N 0.85295 0.7102 0.23153 0.0
C509 C 0.85568 0.68837 0.22502 0.0
C510 C 0.87663 0.72172 0.23137 0.0
C511 C 0.8932 0.70672 0.22475 0.0
O512 O 0.89272 0.62695 0.22094 0.0
C513 C 0.86319 0.67496 0.19231 0.0
O514 O 0.85743 0.69513 0.19885 0.0
H515 H 0.84029 0.67457 0.22319 0.0
H516 H 0.91353 0.71057 0.22303 0.0
N517 N 0.92702 0.66659 0.20693 0.0
N518 N 0.95836 0.67592 0.19406 0.0
C519 C 0.93291 0.67818 0.19673 0.0
C520 C 0.94962 0.65701 0.21101 0.0
C521 C 0.96902 0.66274 0.20308 0.0
C522 C 0.87168 0.61478 0.22317 0.0
O523 O 0.84993 0.6228 0.21833 0.0
H524 H 0.91841 0.68615 0.19092 0.0
H525 H 0.95152 0.6451 0.21874 0.0
O526 O 0.87483 0.65554 0.19688 0.0
H527 H 0.88189 0.7395 0.23586 0.0
H528 H 0.9891 0.6565 0.20364 0.0
Cu529 Cu 0.61406 0.64422 0.45795 0.0
N530 N 0.59975 0.61097 0.46037 0.0
N531 N 0.57871 0.57843 0.4694 0.0
C532 C 0.58879 0.60271 0.47036 0.0
C533 C 0.58376 0.57112 0.45833 0.0
C534 C 0.59677 0.59122 0.45279 0.0
O535 O 0.63479 0.6533 0.4717 0.0
C536 C 0.56293 0.66154 0.45228 0.0
O537 O 0.55489 0.64015 0.45745 0.0
H538 H 0.5874 0.61481 0.47805 0.0
H539 H 0.60319 0.59162 0.44383 0.0
N540 N 0.63606 0.64523 0.44499 0.0
N541 N 0.65181 0.66309 0.42865 0.0
C542 C 0.63049 0.65868 0.43521 0.0
C543 C 0.66183 0.64061 0.44452 0.0
C544 C 0.6716 0.65164 0.43445 0.0
C545 C 0.64964 0.63526 0.47555 0.0
O546 O 0.64951 0.61258 0.47023 0.0
H547 H 0.6117 0.66743 0.43352 0.0
H548 H 0.67316 0.63193 0.45144 0.0
O549 O 0.58648 0.66875 0.45367 0.0
H550 H 0.57838 0.55263 0.45446 0.0
H551 H 0.6919 0.65262 0.43198 0.0
Cu552 Cu 0.38943 0.36213 0.20638 0.0
N553 N 0.35677 0.35029 0.21137 0.0
N554 N 0.32704 0.33032 0.22248 0.0
C555 C 0.35206 0.33823 0.22157 0.0
C556 C 0.31556 0.33794 0.21246 0.0
C557 C 0.33394 0.35016 0.20562 0.0
O558 O 0.40153 0.38765 0.21787 0.0
C559 C 0.40311 0.31078 0.20041 0.0
O560 O 0.37802 0.3068 0.20164 0.0
H561 H 0.36689 0.33499 0.22811 0.0
H562 H 0.331 0.35759 0.19691 0.0
N563 N 0.38815 0.37693 0.19147 0.0
N564 N 0.4 0.38124 0.17276 0.0
C565 C 0.40638 0.37187 0.18338 0.0
C566 C 0.36957 0.39053 0.18587 0.0
C567 C 0.37683 0.39324 0.17433 0.0
C568 C 0.38708 0.40757 0.21947 0.0
O569 O 0.3662 0.41022 0.21296 0.0
H570 H 0.42381 0.36093 0.18532 0.0
H571 H 0.35161 0.3972 0.18975 0.0
O572 O 0.41271 0.33238 0.20392 0.0
H573 H 0.29556 0.33408 0.21004 0.0
H574 H 0.36534 0.40248 0.1676 0.0
Cu575 Cu 0.40282 0.65174 0.95981 0.0
N576 N 0.41495 0.61798 0.9631 0.0
N577 N 0.43516 0.58522 0.97235 0.0
C578 C 0.42679 0.6102 0.973 0.0
C579 C 0.42798 0.57695 0.96166 0.0
C580 C 0.41551 0.59717 0.95599 0.0
O581 O 0.3818 0.66407 0.97292 0.0
C582 C 0.45465 0.66523 0.95331 0.0
O583 O 0.46119 0.64283 0.95803 0.0
H584 H 0.43019 0.62306 0.9803 0.0
H585 H 0.40791 0.59695 0.94721 0.0
N586 N 0.38135 0.6522 0.94665 0.0
N587 N 0.36538 0.66903 0.93015 0.0
C588 C 0.38636 0.66673 0.93713 0.0
C589 C 0.35633 0.64471 0.94558 0.0
C590 C 0.3464 0.65515 0.9354 0.0
C591 C 0.36557 0.64767 0.97709 0.0
O592 O 0.36518 0.62394 0.97278 0.0
H593 H 0.40431 0.67739 0.93586 0.0
H594 H 0.34548 0.63408 0.95209 0.0
O595 O 0.43187 0.67422 0.95512 0.0
H596 H 0.43164 0.55774 0.95812 0.0
H597 H 0.32646 0.65376 0.93242 0.0
Cu598 Cu 0.1214 0.65001 0.7146 0.0
N599 N 0.12624 0.67917 0.72406 0.0
N600 N 0.14741 0.70734 0.73555 0.0
C601 C 0.14678 0.68291 0.73114 0.0
C602 C 0.12608 0.71928 0.73116 0.0
C603 C 0.11307 0.70184 0.72408 0.0
O604 O 0.134 0.62 0.7234 0.0
C605 C 0.15851 0.67136 0.69862 0.0
O606 O 0.17175 0.67837 0.70788 0.0
H607 H 0.16196 0.66851 0.73234 0.0
H608 H 0.09593 0.70576 0.71889 0.0
N609 N 0.08625 0.64552 0.71092 0.0
N610 N 0.05094 0.64182 0.69964 0.0
C611 C 0.07542 0.6512 0.70054 0.0
C612 C 0.06794 0.63228 0.71686 0.0
C613 C 0.04612 0.62988 0.7099 0.0
C614 C 0.12823 0.59629 0.72133 0.0
O615 O 0.11496 0.59051 0.7119 0.0
H616 H 0.08591 0.66051 0.6935 0.0
H617 H 0.07076 0.62376 0.72539 0.0
O618 O 0.13864 0.65674 0.69981 0.0
H619 H 0.12065 0.7394 0.73266 0.0
H620 H 0.02844 0.61946 0.71206 0.0
Cu621 Cu 0.09971 0.3671 0.46539 0.0
N622 N 0.07577 0.37741 0.47672 0.0
N623 N 0.05154 0.40248 0.48841 0.0
C624 C 0.06826 0.40193 0.47933 0.0
C625 C 0.04834 0.37725 0.49154 0.0
C626 C 0.06332 0.36188 0.48434 0.0
O627 O 0.13488 0.36894 0.47184 0.0
C628 C 0.10732 0.38336 0.44218 0.0
O629 O 0.12801 0.36838 0.44287 0.0
H630 H 0.07507 0.41899 0.47467 0.0
H631 H 0.06538 0.34089 0.48476 0.0
N632 N 0.09337 0.33252 0.46106 0.0
N633 N 0.0869 0.29879 0.44904 0.0
C634 C 0.0841 0.32473 0.45066 0.0
C635 C 0.10185 0.31068 0.46635 0.0
C636 C 0.09793 0.28983 0.45894 0.0
C637 C 0.14303 0.38834 0.47773 0.0
O638 O 0.12817 0.40908 0.47865 0.0
H639 H 0.07747 0.33813 0.444 0.0
H640 H 0.11179 0.31023 0.47465 0.0
O641 O 0.09423 0.38769 0.45137 0.0
H642 H 0.03664 0.37038 0.49875 0.0
H643 H 0.10404 0.2699 0.46048 0.0
Cu644 Cu 0.39084 0.64957 0.32077 0.0
N645 N 0.3787 0.678 0.31214 0.0
N646 N 0.35217 0.70436 0.30207 0.0
C647 C 0.35476 0.68106 0.30751 0.0
C648 C 0.37546 0.71629 0.30333 0.0
C649 C 0.39174 0.7 0.30953 0.0
O650 O 0.38858 0.61843 0.31087 0.0
C651 C 0.37882 0.63557 0.34381 0.0
O652 O 0.39725 0.61815 0.34228 0.0
H653 H 0.33945 0.66665 0.30834 0.0
H654 H 0.41167 0.70395 0.31202 0.0
N655 N 0.42491 0.65633 0.32581 0.0
N656 N 0.45621 0.66559 0.33873 0.0
C657 C 0.43084 0.66817 0.33594 0.0
C658 C 0.44752 0.64659 0.32183 0.0
C659 C 0.46685 0.65211 0.32983 0.0
C660 C 0.40144 0.59732 0.31214 0.0
O661 O 0.41681 0.59463 0.3212 0.0
H662 H 0.41639 0.67663 0.34165 0.0
H663 H 0.44951 0.63486 0.31407 0.0
O664 O 0.37042 0.64809 0.33499 0.0
H665 H 0.38053 0.73533 0.29993 0.0
H666 H 0.48687 0.64565 0.32941 0.0
Cu667 Cu 0.12367 0.64588 0.07609 0.0
N668 N 0.11444 0.61208 0.07128 0.0
N669 N 0.09511 0.58032 0.06102 0.0
C670 C 0.10009 0.6062 0.06181 0.0
C671 C 0.10702 0.56956 0.07035 0.0
C672 C 0.11887 0.58916 0.07665 0.0
O673 O 0.14663 0.66088 0.06427 0.0
C674 C 0.07349 0.65394 0.08455 0.0
O675 O 0.07342 0.62832 0.08433 0.0
H676 H 0.09262 0.62083 0.05588 0.0
H677 H 0.12938 0.58685 0.08473 0.0
N678 N 0.14141 0.64634 0.09031 0.0
N679 N 0.15315 0.66269 0.1076 0.0
C680 C 0.13838 0.66588 0.09799 0.0
C681 C 0.15892 0.6301 0.09517 0.0
C682 C 0.16623 0.64017 0.10585 0.0
C683 C 0.16742 0.64792 0.06244 0.0
O684 O 0.1711 0.62632 0.06839 0.0
H685 H 0.12594 0.68252 0.09638 0.0
H686 H 0.16609 0.61236 0.09123 0.0
O687 O 0.09238 0.66604 0.07976 0.0
H688 H 0.10708 0.54902 0.07255 0.0
H689 H 0.17998 0.63149 0.11185 0.0
Cu690 Cu 0.13075 0.35898 0.82531 0.0
N691 N 0.14226 0.3312 0.81613 0.0
N692 N 0.16826 0.30481 0.80591 0.0
C693 C 0.167 0.32523 0.81332 0.0
C694 C 0.14334 0.29745 0.80414 0.0
C695 C 0.12737 0.31379 0.81043 0.0
O696 O 0.132 0.39138 0.81626 0.0
C697 C 0.14214 0.37366 0.84806 0.0
O698 O 0.12479 0.3918 0.84575 0.0
H699 H 0.18374 0.33576 0.81658 0.0
H700 H 0.10633 0.31342 0.81064 0.0
N701 N 0.09652 0.35273 0.83006 0.0
N702 N 0.06437 0.34544 0.84279 0.0
C703 C 0.08977 0.34179 0.84029 0.0
C704 C 0.07451 0.36313 0.82575 0.0
C705 C 0.05462 0.35866 0.83358 0.0
C706 C 0.15195 0.39813 0.81041 0.0
O707 O 0.17324 0.38411 0.81123 0.0
H708 H 0.10376 0.33344 0.84627 0.0
H709 H 0.0734 0.37476 0.8179 0.0
O710 O 0.15056 0.35975 0.8397 0.0
H711 H 0.13703 0.282 0.79837 0.0
H712 H 0.03489 0.36583 0.83282 0.0
Cu713 Cu 0.39865 0.38527 0.57284 0.0
N714 N 0.4112 0.41854 0.56895 0.0
N715 N 0.43088 0.45012 0.55872 0.0
C716 C 0.42185 0.42532 0.55867 0.0
C717 C 0.42545 0.4593 0.56946 0.0
C718 C 0.41332 0.4398 0.57574 0.0
O719 O 0.37407 0.37473 0.5607 0.0
C720 C 0.44956 0.37038 0.57912 0.0
O721 O 0.45555 0.39454 0.5764 0.0
H722 H 0.42386 0.41188 0.55147 0.0
H723 H 0.40713 0.44085 0.58472 0.0
N724 N 0.38155 0.38486 0.58719 0.0
N725 N 0.37097 0.36885 0.6047 0.0
C726 C 0.38351 0.36457 0.59458 0.0
C727 C 0.36698 0.40273 0.59275 0.0
C728 C 0.36034 0.39285 0.60357 0.0
C729 C 0.3557 0.39095 0.5588 0.0
O730 O 0.35486 0.4123 0.56512 0.0
H731 H 0.39398 0.34689 0.5925 0.0
H732 H 0.3619 0.42171 0.58929 0.0
O733 O 0.42759 0.36135 0.57585 0.0
H734 H 0.43008 0.47865 0.57262 0.0
H735 H 0.34911 0.40283 0.61016 0.0
H736 H 0.11667 0.25896 0.44106 0.0
H737 H 0.11711 0.24158 0.42126 0.0
H738 H 0.05232 0.29088 0.41214 0.0
H739 H 0.05186 0.30866 0.43196 0.0
H740 H 0.06409 0.22389 0.40417 0.0
H741 H 0.12676 0.30895 0.39318 0.0
H742 H 0.13665 0.28917 0.40535 0.0
H743 H 0.10747 0.30801 0.40631 0.0
C744 C 0.10202 0.2656 0.43497 0.0
C745 C 0.08431 0.28534 0.43808 0.0
C746 C 0.10235 0.25568 0.42365 0.0
C747 C 0.08475 0.26499 0.41529 0.0
C748 C 0.06601 0.28346 0.41851 0.0
H749 H 0.08972 0.20317 0.343 0.0
H750 H 0.07136 0.22327 0.36058 0.0
C751 C 0.06586 0.29365 0.4298 0.0
C752 C 0.08832 0.25796 0.40292 0.0
H753 H 0.12234 0.27608 0.37881 0.0
C754 C 0.07663 0.23529 0.39854 0.0
C755 C 0.10484 0.27288 0.39571 0.0
C756 C 0.11957 0.29621 0.40032 0.0
C757 C 0.08201 0.22641 0.3872 0.0
C758 C 0.09878 0.24128 0.37993 0.0
C759 C 0.10934 0.2647 0.38426 0.0
C760 C 0.10877 0.23142 0.36856 0.0
C761 C 0.07094 0.20047 0.38343 0.0
C762 C 0.13576 0.2309 0.36674 0.0
C763 C 0.14612 0.22072 0.35653 0.0
C764 C 0.12987 0.21001 0.34792 0.0
C765 C 0.10275 0.21118 0.3495 0.0
C766 C 0.09227 0.22225 0.35965 0.0
H767 H 0.06319 0.18908 0.39089 0.0
H768 H 0.0546 0.20381 0.3773 0.0
H769 H 0.08596 0.18859 0.37897 0.0
H770 H 0.14907 0.23773 0.37339 0.0
H771 H 0.16711 0.22011 0.35572 0.0
H772 H 0.07259 0.81238 0.59206 0.0
H773 H 0.05285 0.80067 0.61071 0.0
H774 H 0.99653 0.86237 0.60637 0.0
H775 H 0.01526 0.8733 0.58762 0.0
H776 H 0.05391 0.82936 0.62872 0.0
H777 H 0.95016 0.81037 0.62063 0.0
H778 H 0.97349 0.81142 0.60892 0.0
H779 H 0.95863 0.84104 0.61423 0.0
C780 C 0.05539 0.82281 0.59487 0.0
C781 C 0.04565 0.84391 0.58832 0.0
C782 C 0.04417 0.81618 0.60559 0.0
C783 C 0.02298 0.83047 0.61 0.0
C784 C 0.01233 0.85048 0.60312 0.0
H785 H 1.00065 0.87829 0.68036 0.0
H786 H 0.01449 0.86994 0.66044 0.0
C787 C 0.0233 0.8569 0.59237 0.0
C788 C 0.01447 0.82724 0.62235 0.0
H789 H 0.96074 0.8271 0.63988 0.0
C790 C 0.03352 0.82831 0.63112 0.0
C791 C 0.98793 0.82543 0.62562 0.0
C792 C 0.96648 0.8217 0.61681 0.0
C793 C 0.02679 0.82913 0.64295 0.0
C794 C 1.0002 0.82984 0.64617 0.0
C795 C 0.98115 0.82717 0.63746 0.0
C796 C 0.99184 0.83454 0.65841 0.0
C797 C 0.04839 0.82931 0.65186 0.0
C798 C 0.97364 0.81807 0.66386 0.0
C799 C 0.96534 0.82311 0.67525 0.0
C800 C 0.97515 0.84466 0.68145 0.0
C801 C 0.99329 0.86111 0.67597 0.0
C802 C 1.00128 0.85629 0.66456 0.0
H803 H 0.06605 0.81955 0.64844 0.0
H804 H 0.05377 0.84979 0.65388 0.0
H805 H 0.04245 0.8194 0.66003 0.0
H806 H 0.96584 0.8013 0.65929 0.0
H807 H 0.95124 0.81016 0.67921 0.0
H808 H 0.32383 0.69924 0.9248 0.0
H809 H 0.32163 0.73301 0.90975 0.0
H810 H 0.3992 0.71297 0.89856 0.0
H811 H 0.40176 0.6799 0.91395 0.0
H812 H 0.39526 0.76336 0.90045 0.0
H813 H 0.30951 0.72885 0.87566 0.0
H814 H 0.30215 0.73413 0.89071 0.0
H815 H 0.32504 0.70913 0.88666 0.0
C816 C 0.34018 0.70172 0.91897 0.0
C817 C 0.36291 0.68682 0.92048 0.0
C818 C 0.3389 0.72101 0.91035 0.0
C819 C 0.36009 0.72536 0.90286 0.0
C820 C 0.38259 0.71004 0.90421 0.0
H821 H 0.36238 0.81282 0.83881 0.0
H822 H 0.35755 0.78065 0.85426 0.0
C823 C 0.38404 0.6911 0.91296 0.0
C824 C 0.35949 0.74676 0.89405 0.0
H825 H 0.32467 0.77166 0.87124 0.0
C826 C 0.37985 0.76509 0.89404 0.0
C827 C 0.33952 0.74899 0.8856 0.0
C828 C 0.31798 0.72907 0.88456 0.0
C829 C 0.38094 0.78539 0.88582 0.0
C830 C 0.36054 0.78812 0.8776 0.0
C831 C 0.3401 0.76986 0.87764 0.0
C832 C 0.36107 0.80849 0.86833 0.0
C833 C 0.40449 0.80305 0.88577 0.0
C834 C 0.36373 0.83515 0.87102 0.0
C835 C 0.36688 0.8537 0.86215 0.0
C836 C 0.36692 0.846 0.8504 0.0
C837 C 0.36255 0.81953 0.84775 0.0
C838 C 0.35977 0.80102 0.8566 0.0
H839 H 0.42123 0.79406 0.89041 0.0
H840 H 0.41065 0.80775 0.87675 0.0
H841 H 0.39965 0.82156 0.89027 0.0
H842 H 0.36397 0.84155 0.87999 0.0
H843 H 0.36998 0.87393 0.8645 0.0
H844 H 0.42121 0.09163 0.10532 0.0
H845 H 0.443 0.09387 0.12428 0.0
H846 H 0.40901 0.16966 0.13026 0.0
H847 H 0.38639 0.16701 0.11168 0.0
H848 H 0.47899 0.12777 0.13055 0.0
H849 H 0.39681 0.137 0.16133 0.0
H850 H 0.39212 0.12779 0.14632 0.0
H851 H 0.39601 0.16163 0.15023 0.0
C852 C 0.41776 0.10837 0.11085 0.0
C853 C 0.40173 0.12891 0.10705 0.0
C854 C 0.43035 0.10974 0.12165 0.0
C855 C 0.42738 0.13177 0.12882 0.0
C856 C 0.41099 0.15207 0.12512 0.0
H857 H 0.5422 0.18284 0.1796 0.0
H858 H 0.51445 0.17682 0.16248 0.0
C859 C 0.39805 0.15051 0.11443 0.0
C860 C 0.44302 0.13445 0.13967 0.0
H861 H 0.43896 0.14804 0.16872 0.0
C862 C 0.47019 0.13198 0.13891 0.0
C863 C 0.4316 0.13977 0.15062 0.0
C864 C 0.40251 0.14145 0.15221 0.0
C865 C 0.48624 0.13503 0.14872 0.0
C866 C 0.47492 0.14149 0.15957 0.0
C867 C 0.44771 0.14337 0.16039 0.0
C868 C 0.49095 0.14623 0.17017 0.0
C869 C 0.51514 0.13076 0.14735 0.0
C870 C 0.48618 0.13208 0.18044 0.0
C871 C 0.50168 0.13592 0.19031 0.0
C872 C 0.52238 0.15389 0.19011 0.0
C873 C 0.52669 0.16853 0.17994 0.0
C874 C 0.51094 0.16497 0.17013 0.0
H875 H 0.51948 0.11812 0.13975 0.0
H876 H 0.52482 0.14985 0.14586 0.0
H877 H 0.5237 0.12165 0.15524 0.0
H878 H 0.47077 0.11764 0.18074 0.0
H879 H 0.49798 0.12423 0.19799 0.0
H880 H 0.18597 0.81009 0.19827 0.0
H881 H 0.19297 0.78184 0.18141 0.0
H882 H 0.12289 0.81163 0.16557 0.0
H883 H 0.11601 0.84023 0.18222 0.0
H884 H 0.16031 0.74299 0.17478 0.0
H885 H 0.17213 0.81249 0.13826 0.0
H886 H 0.17459 0.82246 0.15329 0.0
H887 H 0.1432 0.81871 0.14651 0.0
C888 C 0.17238 0.81112 0.19107 0.0
C889 C 0.15041 0.82745 0.19162 0.0
C890 C 0.17637 0.79487 0.18146 0.0
C891 C 0.15859 0.79473 0.17217 0.0
C892 C 0.1372 0.81176 0.17249 0.0
H893 H 0.11648 0.6973 0.11474 0.0
H894 H 0.12021 0.72896 0.13048 0.0
C895 C 0.13324 0.82807 0.18208 0.0
C896 C 0.16095 0.77516 0.16268 0.0
H897 H 0.16127 0.76835 0.13311 0.0
C898 C 0.16094 0.74854 0.16567 0.0
C899 C 0.16171 0.7824 0.1508 0.0
C900 C 0.16318 0.81058 0.14702 0.0
C901 C 0.16063 0.729 0.1571 0.0
C902 C 0.16058 0.73629 0.14524 0.0
C903 C 0.16121 0.76285 0.14223 0.0
C904 C 0.15864 0.71666 0.1358 0.0
C905 C 0.15933 0.70074 0.16077 0.0
C906 C 0.17907 0.6992 0.13358 0.0
C907 C 0.17717 0.68117 0.12446 0.0
C908 C 0.15479 0.68032 0.11739 0.0
C909 C 0.13423 0.69766 0.11981 0.0
C910 C 0.13623 0.71571 0.12886 0.0
H911 H 0.15521 0.69854 0.17021 0.0
H912 H 0.14404 0.69029 0.15576 0.0
H913 H 0.17824 0.69119 0.15889 0.0
H914 H 0.19666 0.69982 0.13878 0.0
H915 H 0.19346 0.66835 0.12279 0.0
H916 H 0.44562 0.89545 0.43555 0.0
H917 H 0.46666 0.89694 0.41652 0.0
H918 H 0.39652 0.86796 0.40045 0.0
H919 H 0.37537 0.86608 0.41948 0.0
H920 H 0.43994 0.83948 0.39446 0.0
H921 H 0.45913 0.94514 0.38848 0.0
H922 H 0.47074 0.93263 0.40214 0.0
H923 H 0.43637 0.93286 0.39914 0.0
C924 C 0.43443 0.88993 0.42795 0.0
C925 C 0.40876 0.88064 0.42908 0.0
C926 C 0.4465 0.89087 0.41704 0.0
C927 C 0.43314 0.88273 0.40702 0.0
C928 C 0.4072 0.8744 0.40805 0.0
H929 H 0.49369 0.89607 0.33632 0.0
H930 H 0.46723 0.8989 0.35391 0.0
C931 C 0.39508 0.87348 0.41896 0.0
C932 C 0.44689 0.88087 0.39566 0.0
H933 H 0.4819 0.9161 0.37583 0.0
C934 C 0.44894 0.85628 0.39034 0.0
C935 C 0.45846 0.9028 0.39023 0.0
C936 C 0.45589 0.9299 0.39522 0.0
C937 C 0.46274 0.85292 0.3799 0.0
C938 C 0.47519 0.87467 0.37471 0.0
C939 C 0.47259 0.89938 0.37987 0.0
C940 C 0.49099 0.87222 0.36392 0.0
C941 C 0.46367 0.82614 0.37446 0.0
C942 C 0.51325 0.85635 0.36369 0.0
C943 C 0.52837 0.85453 0.35359 0.0
C944 C 0.52164 0.86866 0.34351 0.0
C945 C 0.4993 0.88456 0.34381 0.0
C946 C 0.48422 0.88639 0.35391 0.0
H947 H 0.44766 0.81345 0.37767 0.0
H948 H 0.46237 0.82739 0.36483 0.0
H949 H 0.48239 0.81664 0.37675 0.0
H950 H 0.51913 0.84557 0.37137 0.0
H951 H 0.5453 0.84198 0.3537 0.0
H952 H 0.3357 0.22702 0.69654 0.0
H953 H 0.33214 0.25635 0.67981 0.0
H954 H 0.39372 0.21446 0.66255 0.0
H955 H 0.39714 0.18478 0.67913 0.0
H956 H 0.37088 0.28874 0.67221 0.0
H957 H 0.34113 0.22248 0.6365 0.0
H958 H 0.33889 0.21327 0.65164 0.0
H959 H 0.36956 0.21146 0.64414 0.0
C960 C 0.3481 0.22365 0.68908 0.0
C961 C 0.36671 0.2035 0.68921 0.0
C962 C 0.3461 0.24053 0.67953 0.0
C963 C 0.36254 0.23756 0.66988 0.0
C964 C 0.38047 0.21687 0.66978 0.0
H965 H 0.40575 0.33101 0.61043 0.0
H966 H 0.40279 0.29987 0.62645 0.0
C967 C 0.38244 0.19992 0.67932 0.0
C968 C 0.36239 0.2573 0.66036 0.0
H969 H 0.35667 0.26466 0.6309 0.0
C970 C 0.36748 0.28351 0.66319 0.0
C971 C 0.35808 0.25047 0.64858 0.0
C972 C 0.35136 0.22293 0.64502 0.0
C973 C 0.36896 0.30291 0.65455 0.0
C974 C 0.365 0.29598 0.64279 0.0
C975 C 0.35971 0.26987 0.63994 0.0
C976 C 0.36686 0.31549 0.63328 0.0
C977 C 0.37542 0.33058 0.65799 0.0
C978 C 0.34769 0.33475 0.63185 0.0
C979 C 0.34917 0.35254 0.62259 0.0
C980 C 0.36984 0.35134 0.61458 0.0
C981 C 0.38924 0.33223 0.61623 0.0
C982 C 0.38768 0.31445 0.62544 0.0
H983 H 0.38198 0.33196 0.66718 0.0
H984 H 0.3909 0.3386 0.65227 0.0
H985 H 0.35788 0.34297 0.6569 0.0
H986 H 0.33137 0.33574 0.63778 0.0
H987 H 0.33383 0.36682 0.62155 0.0
H988 H 0.08807 0.14755 0.93181 0.0
H989 H 0.05894 0.14456 0.91502 0.0
H990 H 0.02599 0.07362 0.92888 0.0
H991 H 0.05461 0.07676 0.94584 0.0
H992 H 0.04933 0.10828 0.89789 0.0
H993 H 0.96231 0.11986 0.92598 0.0
H994 H 0.99494 0.12503 0.9313 0.0
H995 H 0.98231 0.09244 0.9298 0.0
C996 C 0.07493 0.13106 0.93122 0.0
C997 C 0.07351 0.11255 0.94027 0.0
C998 C 0.05821 0.12943 0.92161 0.0
C999 C 0.03976 0.10925 0.92083 0.0
C1000 C 0.03953 0.08978 0.92945 0.0
H1001 H 0.91193 0.07933 0.87244 0.0
H1002 H 0.94521 0.07598 0.88759 0.0
C1003 C 0.0561 0.09149 0.9391 0.0
C1004 C 0.02009 0.10928 0.91128 0.0
H1005 H 0.95459 0.1117 0.90603 0.0
C1006 C 0.02862 0.10903 0.89967 0.0
C1007 C 0.99302 0.11039 0.91359 0.0
C1008 C 0.98254 0.1122 0.92583 0.0
C1009 C 0.01086 0.10956 0.89034 0.0
C1010 C 0.98384 0.11067 0.89267 0.0
C1011 C 0.9753 0.11072 0.90426 0.0
C1012 C 0.96407 0.11245 0.88322 0.0
C1013 C 0.02113 0.1086 0.87806 0.0
C1014 C 0.96336 0.13423 0.87581 0.0
C1015 C 0.94418 0.13636 0.8672 0.0
C1016 C 0.92517 0.11675 0.86579 0.0
C1017 C 0.92597 0.09496 0.87328 0.0
C1018 C 0.94512 0.09291 0.88193 0.0
H1019 H 0.04144 0.10123 0.87775 0.0
H1020 H 0.00871 0.09597 0.8725 0.0
H1021 H 0.02094 0.12858 0.87431 0.0
H1022 H 0.97739 0.14985 0.87682 0.0
H1023 H 0.94402 0.15369 0.86181 0.0
H1024 H 0.9385 0.73534 0.60202 0.0
H1025 H 0.93298 0.76007 0.62009 0.0
H1026 H 0.86764 0.80072 0.60495 0.0
H1027 H 0.87385 0.77678 0.58675 0.0
H1028 H 0.89495 0.83306 0.61806 0.0
H1029 H 0.87783 0.74204 0.64304 0.0
H1030 H 0.90934 0.74281 0.63638 0.0
H1031 H 0.88057 0.74225 0.62741 0.0
C1032 C 0.92317 0.74977 0.60255 0.0
C1033 C 0.9065 0.75403 0.59304 0.0
C1034 C 0.91987 0.76374 0.61288 0.0
C1035 C 0.89937 0.78171 0.61402 0.0
C1036 C 0.88348 0.78686 0.60433 0.0
H1037 H 0.83768 0.82107 0.68183 0.0
H1038 H 0.84262 0.80724 0.6616 0.0
C1039 C 0.88708 0.77323 0.59392 0.0
C1040 C 0.89376 0.79435 0.62539 0.0
H1041 H 0.88118 0.78105 0.65394 0.0
C1042 C 0.89176 0.82169 0.6259 0.0
C1043 C 0.88922 0.77954 0.63561 0.0
C1044 C 0.88907 0.75005 0.63559 0.0
C1045 C 0.88544 0.8346 0.63632 0.0
C1046 C 0.88182 0.81981 0.64662 0.0
C1047 C 0.88389 0.79248 0.64608 0.0
C1048 C 0.87602 0.83189 0.65812 0.0
C1049 C 0.88206 0.86385 0.63605 0.0
C1050 C 0.8924 0.85118 0.66281 0.0
C1051 C 0.88893 0.85981 0.67425 0.0
C1052 C 0.86967 0.84858 0.68138 0.0
C1053 C 0.85261 0.83013 0.67654 0.0
C1054 C 0.85559 0.82207 0.665 0.0
H1055 H 0.87656 0.87077 0.62721 0.0
H1056 H 0.86695 0.87036 0.6423 0.0
H1057 H 0.90079 0.8733 0.63837 0.0
H1058 H 0.90877 0.85856 0.65789 0.0
H1059 H 0.90269 0.87377 0.67777 0.0
H1060 H 0.15889 0.12734 0.38515 0.0
H1061 H 0.13379 0.1335 0.40317 0.0
H1062 H 0.06259 0.13321 0.38331 0.0
H1063 H 0.0874 0.1271 0.36539 0.0
H1064 H 0.09464 0.17604 0.40835 0.0
H1065 H 0.05418 0.07553 0.40923 0.0
H1066 H 0.08314 0.084 0.40115 0.0
H1067 H 0.05154 0.09178 0.3954 0.0
C1068 C 0.13788 0.12836 0.38467 0.0
C1069 C 0.12511 0.12662 0.37385 0.0
C1070 C 0.12361 0.13209 0.39494 0.0
C1071 C 0.09634 0.13368 0.39456 0.0
C1072 C 0.08361 0.13185 0.38379 0.0
H1073 H 0.96635 0.18133 0.43343 0.0
H1074 H 1.00702 0.1815 0.42233 0.0
C1075 C 0.09782 0.12848 0.37356 0.0
C1076 C 0.08081 0.1369 0.40535 0.0
H1077 H 0.03323 0.10702 0.4212 0.0
C1078 C 0.08146 0.16085 0.41129 0.0
C1079 C 0.06392 0.11696 0.40927 0.0
C1080 C 0.06323 0.09051 0.40351 0.0
C1081 C 0.06449 0.16584 0.42065 0.0
C1082 C 0.04651 0.14639 0.4241 0.0
C1083 C 0.04695 0.12199 0.41855 0.0
C1084 C 0.02544 0.15135 0.43267 0.0
C1085 C 0.06567 0.19189 0.4267 0.0
C1086 C 0.02257 0.13503 0.44243 0.0
C1087 C 0.99941 0.13517 0.44884 0.0
C1088 C 0.97879 0.15156 0.44557 0.0
C1089 C 0.98233 0.16916 0.43634 0.0
C1090 C 1.00554 0.16917 0.42997 0.0
H1091 H 0.08465 0.20172 0.42522 0.0
H1092 H 0.05005 0.20471 0.42326 0.0
H1093 H 0.0626 0.1896 0.43621 0.0
H1094 H 0.03751 0.12091 0.44458 0.0
H1095 H 0.99677 0.12085 0.45569 0.0
H1096 H 0.6846 0.35377 0.11678 0.0
H1097 H 0.68868 0.3217 0.13249 0.0
H1098 H 0.61632 0.28624 0.12196 0.0
H1099 H 0.61184 0.3183 0.1064 0.0
H1100 H 0.65368 0.31202 0.15097 0.0
H1101 H 0.66642 0.22373 0.12367 0.0
H1102 H 0.67048 0.25641 0.11802 0.0
H1103 H 0.63843 0.24304 0.11998 0.0
C1104 C 0.66948 0.33924 0.11781 0.0
C1105 C 0.64799 0.33862 0.1102 0.0
C1106 C 0.67193 0.32081 0.12677 0.0
C1107 C 0.65307 0.30124 0.12827 0.0
C1108 C 0.63148 0.30071 0.12079 0.0
H1109 H 0.61818 0.1796 0.17798 0.0
H1110 H 0.62145 0.20805 0.16094 0.0
C1111 C 0.62896 0.31914 0.11186 0.0
C1112 C 0.65534 0.282 0.13793 0.0
H1113 H 0.6585 0.21662 0.14384 0.0
C1114 C 0.655 0.29117 0.14943 0.0
C1115 C 0.65693 0.2548 0.13589 0.0
C1116 C 0.65833 0.24384 0.12373 0.0
C1117 C 0.65541 0.27389 0.15894 0.0
C1118 C 0.65683 0.24663 0.15691 0.0
C1119 C 0.65747 0.23747 0.1454 0.0
C1120 C 0.65667 0.22739 0.16664 0.0
C1121 C 0.65331 0.28497 0.17107 0.0
C1122 C 0.67599 0.22796 0.17529 0.0
C1123 C 0.67415 0.21175 0.18508 0.0
C1124 C 0.65307 0.19442 0.18637 0.0
C1125 C 0.63467 0.19269 0.17731 0.0
C1126 C 0.63647 0.20902 0.16755 0.0
H1127 H 0.64575 0.30528 0.17099 0.0
H1128 H 0.64034 0.2728 0.17658 0.0
H1129 H 0.6729 0.28528 0.17514 0.0
H1130 H 0.69214 0.24147 0.17463 0.0
H1131 H 0.68877 0.21348 0.19183 0.0
H1132 H 0.6074 0.85907 0.92558 0.0
H1133 H 0.58875 0.85902 0.90605 0.0
H1134 H 0.5426 0.92657 0.91468 0.0
H1135 H 0.56049 0.92613 0.93441 0.0
H1136 H 0.51305 0.89048 0.90549 0.0
H1137 H 0.59947 0.90128 0.87729 0.0
H1138 H 0.60275 0.87422 0.88709 0.0
H1139 H 0.60077 0.90691 0.89278 0.0
C1140 C 0.59376 0.87433 0.92325 0.0
C1141 C 0.58545 0.89262 0.93159 0.0
C1142 C 0.58315 0.87433 0.91203 0.0
C1143 C 0.56441 0.89295 0.90879 0.0
C1144 C 0.55701 0.91198 0.91694 0.0
H1145 H 0.50217 0.91142 0.83856 0.0
H1146 H 0.52631 0.91568 0.8568 0.0
C1147 C 0.56735 0.91179 0.92822 0.0
C1148 C 0.55079 0.89115 0.89735 0.0
H1149 H 0.56053 0.88595 0.86802 0.0
C1150 C 0.52347 0.88973 0.8973 0.0
C1151 C 0.56425 0.89041 0.88661 0.0
C1152 C 0.59341 0.89356 0.88592 0.0
C1153 C 0.50932 0.8872 0.88689 0.0
C1154 C 0.52284 0.88517 0.8762 0.0
C1155 C 0.55013 0.88708 0.87621 0.0
C1156 C 0.50898 0.88169 0.8649 0.0
C1157 C 0.47997 0.8873 0.88749 0.0
C1158 C 0.49162 0.8608 0.86322 0.0
C1159 C 0.47761 0.85847 0.85281 0.0
C1160 C 0.48106 0.87666 0.84377 0.0
C1161 C 0.49921 0.89695 0.84529 0.0
C1162 C 0.51297 0.89946 0.85575 0.0
H1163 H 0.4729 0.89685 0.89556 0.0
H1164 H 0.47135 0.89757 0.87989 0.0
H1165 H 0.47276 0.86687 0.88754 0.0
H1166 H 0.48876 0.84635 0.86998 0.0
H1167 H 0.46408 0.84241 0.85183 0.0
H1168 H 0.92108 0.34312 0.92098 0.0
H1169 H 0.92505 0.31631 0.90371 0.0
H1170 H 0.86282 0.35907 0.88734 0.0
H1171 H 0.85772 0.38555 0.90485 0.0
H1172 H 0.88679 0.28465 0.89396 0.0
H1173 H 0.92102 0.35925 0.86247 0.0
H1174 H 0.9212 0.36454 0.87801 0.0
H1175 H 0.89146 0.36777 0.8699 0.0
C1176 C 0.90798 0.34696 0.91383 0.0
C1177 C 0.88881 0.36662 0.91452 0.0
C1178 C 0.91058 0.33167 0.90385 0.0
C1179 C 0.89461 0.33598 0.89415 0.0
C1180 C 0.87575 0.35576 0.89464 0.0
H1181 H 0.86135 0.25548 0.83034 0.0
H1182 H 0.86746 0.28769 0.84575 0.0
C1183 C 0.87284 0.3709 0.90471 0.0
C1184 C 0.89669 0.31861 0.88385 0.0
H1185 H 0.90875 0.31791 0.85461 0.0
C1186 C 0.8918 0.29187 0.88537 0.0
C1187 C 0.90328 0.32809 0.87267 0.0
C1188 C 0.90979 0.35644 0.87063 0.0
C1189 C 0.89246 0.27446 0.87595 0.0
C1190 C 0.89878 0.28393 0.86472 0.0
C1191 C 0.90403 0.31065 0.86322 0.0
C1192 C 0.89837 0.26654 0.85438 0.0
C1193 C 0.88543 0.24621 0.87806 0.0
C1194 C 0.91464 0.24455 0.85376 0.0
C1195 C 0.91114 0.22598 0.84496 0.0
C1196 C 0.8914 0.22915 0.83657 0.0
C1197 C 0.87662 0.25228 0.83668 0.0
C1198 C 0.88008 0.27077 0.8455 0.0
H1199 H 0.87537 0.24342 0.88653 0.0
H1200 H 0.87263 0.2387 0.87103 0.0
H1201 H 0.90344 0.23429 0.87819 0.0
H1202 H 0.9293 0.24119 0.86037 0.0
H1203 H 0.92301 0.20851 0.84512 0.0
H1204 H 0.52854 0.16798 0.69473 0.0
H1205 H 0.5546 0.15977 0.6773 0.0
H1206 H 0.4901 0.11866 0.6618 0.0
H1207 H 0.46401 0.12656 0.67918 0.0
H1208 H 0.5688 0.11224 0.66647 0.0
H1209 H 0.50844 0.1738 0.63722 0.0
H1210 H 0.50603 0.17541 0.65287 0.0
H1211 H 0.49047 0.14935 0.64504 0.0
C1212 C 0.51992 0.15703 0.68766 0.0
C1213 C 0.49401 0.14817 0.68836 0.0
C1214 C 0.53484 0.15242 0.67768 0.0
C1215 C 0.52417 0.13897 0.66817 0.0
C1216 C 0.49856 0.1296 0.66893 0.0
H1217 H 0.57805 0.10217 0.59845 0.0
H1218 H 0.55492 0.10247 0.61703 0.0
C1219 C 0.48362 0.13421 0.67888 0.0
C1220 C 0.53975 0.13478 0.65744 0.0
H1221 H 0.54109 0.14815 0.62831 0.0
C1222 C 0.56281 0.12014 0.65813 0.0
C1223 C 0.53191 0.1451 0.64655 0.0
C1224 C 0.508 0.162 0.64534 0.0
C1225 C 0.57798 0.11516 0.64819 0.0
C1226 C 0.57008 0.12543 0.6373 0.0
C1227 C 0.54704 0.14009 0.63663 0.0
C1228 C 0.58567 0.12199 0.62651 0.0
C1229 C 0.60208 0.09857 0.64938 0.0
C1230 C 0.61091 0.13233 0.62571 0.0
C1231 C 0.62427 0.13207 0.6151 0.0
C1232 C 0.61255 0.12169 0.60503 0.0
C1233 C 0.58773 0.11026 0.60601 0.0
C1234 C 0.5744 0.11052 0.61663 0.0
H1235 H 0.60152 0.0864 0.65739 0.0
H1236 H 0.60449 0.08557 0.64174 0.0
H1237 H 0.6194 0.11147 0.64993 0.0
H1238 H 0.61984 0.14174 0.63314 0.0
H1239 H 0.64324 0.14125 0.61467 0.0
H1240 H 0.63326 0.86763 0.36365 0.0
H1241 H 0.64209 0.83572 0.37906 0.0
H1242 H 0.6555 0.77641 0.35316 0.0
H1243 H 0.64751 0.80816 0.33778 0.0
H1244 H 0.61452 0.79303 0.3837 0.0
H1245 H 0.71562 0.76281 0.3745 0.0
H1246 H 0.70118 0.79139 0.36795 0.0
H1247 H 0.69525 0.75949 0.36192 0.0
C1248 C 0.6387 0.84795 0.36123 0.0
C1249 C 0.63969 0.84053 0.34945 0.0
C1250 C 0.64364 0.82968 0.37005 0.0
C1251 C 0.64977 0.80366 0.3673 0.0
C1252 C 0.65148 0.79644 0.35555 0.0
H1253 H 0.61698 0.66961 0.41131 0.0
H1254 H 0.61764 0.7034 0.39615 0.0
C1255 C 0.64671 0.81468 0.34674 0.0
C1256 C 0.65214 0.78354 0.37663 0.0
H1257 H 0.69057 0.73379 0.38655 0.0
C1258 C 0.63129 0.78027 0.38439 0.0
C1259 C 0.67411 0.76701 0.37765 0.0
C1260 C 0.69791 0.77052 0.37014 0.0
C1261 C 0.63148 0.76057 0.39292 0.0
C1262 C 0.65281 0.74309 0.39351 0.0
C1263 C 0.67401 0.74685 0.38598 0.0
C1264 C 0.6536 0.72107 0.402 0.0
C1265 C 0.6089 0.75899 0.40129 0.0
C1266 C 0.67444 0.71865 0.40985 0.0
C1267 C 0.67444 0.69889 0.41829 0.0
C1268 C 0.6535 0.68129 0.4191 0.0
C1269 C 0.63316 0.68313 0.41096 0.0
C1270 C 0.6334 0.70257 0.40239 0.0
H1271 H 0.59873 0.77805 0.40205 0.0
H1272 H 0.59458 0.7445 0.39803 0.0
H1273 H 0.61539 0.75283 0.41009 0.0
H1274 H 0.69036 0.73253 0.40968 0.0
H1275 H 0.69027 0.6981 0.42451 0.0
H1276 H 0.98438 0.88333 0.2003 0.0
H1277 H 0.9572 0.88553 0.18281 0.0
H1278 H 0.01794 0.84843 0.16299 0.0
H1279 H 0.04492 0.84554 0.18045 0.0
H1280 H 0.96747 0.91075 0.16182 0.0
H1281 H 0.95388 0.80454 0.15484 0.0
H1282 H 0.96589 0.8178 0.16837 0.0
H1283 H 0.9874 0.81405 0.15615 0.0
C1284 C 0.99185 0.8753 0.19227 0.0
C1285 C 0.01688 0.86419 0.19184 0.0
C1286 C 0.97633 0.87673 0.18225 0.0
C1287 C 0.98536 0.86684 0.1716 0.0
C1288 C 0.01033 0.85579 0.17113 0.0
H1289 H 0.93595 0.9001 0.10116 0.0
H1290 H 0.95645 0.90006 0.12036 0.0
C1291 C 0.02589 0.85443 0.18112 0.0
C1292 C 0.96907 0.8688 0.16091 0.0
H1293 H 0.94164 0.83251 0.13918 0.0
C1294 C 0.96166 0.89364 0.15691 0.0
C1295 C 0.96116 0.84646 0.15458 0.0
C1296 C 0.96725 0.81918 0.15875 0.0
C1297 C 0.94725 0.89679 0.14659 0.0
C1298 C 0.94036 0.87451 0.13998 0.0
C1299 C 0.9471 0.84963 0.14417 0.0
C1300 C 0.92668 0.87649 0.12857 0.0
C1301 C 0.93936 0.92394 0.14291 0.0
C1302 C 0.90311 0.86322 0.12674 0.0
C1303 C 0.89134 0.86316 0.11574 0.0
C1304 C 0.90302 0.87618 0.10629 0.0
C1305 C 0.92627 0.89006 0.10824 0.0
C1306 C 0.938 0.89013 0.11924 0.0
H1307 H 0.93914 0.93759 0.15041 0.0
H1308 H 0.95361 0.93147 0.13648 0.0
H1309 H 0.9198 0.92393 0.13879 0.0
H1310 H 0.89406 0.85245 0.13377 0.0
H1311 H 0.87356 0.8521 0.11457 0.0
H1312 H 0.61612 0.62244 0.86207 0.0
H1313 H 0.61521 0.6455 0.88063 0.0
H1314 H 0.66972 0.70213 0.86731 0.0
H1315 H 0.6703 0.67952 0.84856 0.0
H1316 H 0.65119 0.66016 0.89713 0.0
H1317 H 0.60722 0.74691 0.87596 0.0
H1318 H 0.61078 0.71606 0.86862 0.0
H1319 H 0.63806 0.73792 0.86983 0.0
C1320 C 0.62837 0.63949 0.86313 0.0
C1321 C 0.64312 0.64925 0.85376 0.0
C1322 C 0.62772 0.65272 0.87376 0.0
C1323 C 0.64187 0.6759 0.87527 0.0
C1324 C 0.65812 0.68463 0.86624 0.0
H1325 H 0.64837 0.79276 0.9297 0.0
H1326 H 0.6556 0.76553 0.91259 0.0
C1327 C 0.65864 0.67153 0.85556 0.0
C1328 C 0.63853 0.69159 0.88603 0.0
H1329 H 0.61887 0.75136 0.89581 0.0
C1330 C 0.64412 0.6801 0.89685 0.0
C1331 C 0.62901 0.71752 0.88567 0.0
C1332 C 0.62065 0.73028 0.87442 0.0
C1333 C 0.64097 0.69402 0.90729 0.0
C1334 C 0.63175 0.72003 0.9069 0.0
C1335 C 0.62616 0.7315 0.89609 0.0
C1336 C 0.6278 0.73585 0.91758 0.0
C1337 C 0.64799 0.68095 0.91864 0.0
C1338 C 0.60961 0.72831 0.92606 0.0
C1339 C 0.60536 0.74393 0.93588 0.0
C1340 C 0.61902 0.76754 0.93733 0.0
C1341 C 0.63725 0.77493 0.92881 0.0
C1342 C 0.64152 0.7593 0.91904 0.0
H1343 H 0.66069 0.66367 0.91728 0.0
H1344 H 0.65808 0.69478 0.92456 0.0
H1345 H 0.62993 0.67423 0.923 0.0
H1346 H 0.59834 0.7106 0.92498 0.0
H1347 H 0.59091 0.73784 0.94216 0.0
H1348 H 0.56351 0.33502 0.09065 0.0
H1349 H 0.5331 0.33184 0.10693 0.0
H1350 H 0.47928 0.38212 0.08882 0.0
H1351 H 0.50929 0.38509 0.07245 0.0
H1352 H 0.52002 0.37445 0.11964 0.0
H1353 H 0.43027 0.32831 0.1027 0.0
H1354 H 0.46099 0.32656 0.09513 0.0
H1355 H 0.44093 0.35521 0.09387 0.0
C1356 C 0.54485 0.34473 0.08994 0.0
C1357 C 0.53896 0.36046 0.08023 0.0
C1358 C 0.52751 0.34298 0.09931 0.0
C1359 C 0.50383 0.35668 0.09912 0.0
C1360 C 0.49718 0.37099 0.08912 0.0
H1361 H 0.39282 0.40636 0.15197 0.0
H1362 H 0.41734 0.39986 0.13397 0.0
C1363 C 0.51449 0.37277 0.07976 0.0
C1364 C 0.4878 0.35882 0.10986 0.0
H1365 H 0.42621 0.35167 0.12067 0.0
C1366 C 0.49958 0.36917 0.11988 0.0
C1367 C 0.46106 0.35217 0.11018 0.0
C1368 C 0.44761 0.33971 0.09993 0.0
C1369 C 0.48532 0.37351 0.13011 0.0
C1370 C 0.45854 0.36715 0.13039 0.0
C1371 C 0.44669 0.35677 0.1204 0.0
C1372 C 0.44286 0.37041 0.14114 0.0
C1373 C 0.49893 0.38541 0.14047 0.0
C1374 C 0.4488 0.35574 0.15109 0.0
C1375 C 0.43466 0.35911 0.16134 0.0
C1376 C 0.41428 0.3775 0.16199 0.0
C1377 C 0.40819 0.39197 0.1519 0.0
C1378 C 0.42224 0.38833 0.14157 0.0
H1379 H 0.5175 0.39501 0.13798 0.0
H1380 H 0.48629 0.40002 0.14481 0.0
H1381 H 0.50345 0.36982 0.14688 0.0
H1382 H 0.46446 0.3416 0.15092 0.0
H1383 H 0.43983 0.34707 0.1687 0.0
H1384 H 0.85873 0.16481 0.40922 0.0
H1385 H 0.85433 0.20081 0.39536 0.0
H1386 H 0.87599 0.25558 0.42211 0.0
H1387 H 0.88014 0.21984 0.43607 0.0
H1388 H 0.82259 0.24673 0.39624 0.0
H1389 H 0.9281 0.27063 0.39568 0.0
H1390 H 0.91573 0.24032 0.40149 0.0
H1391 H 0.91344 0.26983 0.40986 0.0
C1392 C 0.86233 0.18449 0.41222 0.0
C1393 C 0.87004 0.18926 0.42379 0.0
C1394 C 0.85988 0.20507 0.40425 0.0
C1395 C 0.86521 0.23084 0.40765 0.0
C1396 C 0.8723 0.23579 0.41923 0.0
H1397 H 0.87781 0.37531 0.36743 0.0
H1398 H 0.87341 0.34417 0.38349 0.0
C1399 C 0.87473 0.21525 0.4272 0.0
C1400 C 0.86361 0.2525 0.39904 0.0
H1401 H 0.90029 0.29848 0.38505 0.0
C1402 C 0.83955 0.25808 0.39379 0.0
C1403 C 0.88575 0.26736 0.39589 0.0
C1404 C 0.91229 0.26168 0.40093 0.0
C1405 C 0.83701 0.2782 0.38552 0.0
C1406 C 0.85924 0.29281 0.38223 0.0
C1407 C 0.88322 0.28741 0.3876 0.0
C1408 C 0.85855 0.31277 0.3728 0.0
C1409 C 0.81047 0.28382 0.38049 0.0
C1410 C 0.85122 0.30569 0.36146 0.0
C1411 C 0.85357 0.32348 0.35227 0.0
C1412 C 0.86357 0.34872 0.35419 0.0
C1413 C 0.8699 0.35613 0.36563 0.0
C1414 C 0.86752 0.33828 0.37483 0.0
H1415 H 0.79472 0.27714 0.38641 0.0
H1416 H 0.80787 0.30499 0.37876 0.0
H1417 H 0.80827 0.27316 0.37214 0.0
H1418 H 0.84477 0.286 0.3596 0.0
H1419 H 0.84861 0.31702 0.34358 0.0
H1420 H 0.01916 0.603 0.69222 0.0
H1421 H 0.99549 0.60114 0.67371 0.0
H1422 H 0.0223 0.67875 0.66531 0.0
H1423 H 0.04676 0.68019 0.68361 0.0
H1424 H 0.95748 0.62788 0.66376 0.0
H1425 H 0.04642 0.64034 0.63722 0.0
H1426 H 0.04768 0.63508 0.65272 0.0
H1427 H 0.04152 0.66722 0.64693 0.0
C1428 C 0.01981 0.61973 0.68646 0.0
C1429 C 0.03502 0.64165 0.68929 0.0
C1430 C 1.00632 0.61864 0.67587 0.0
C1431 C 0.0076 0.63953 0.66794 0.0
C1432 C 0.02169 0.662 0.67107 0.0
H1433 H 0.90802 0.66155 0.60697 0.0
H1434 H 0.92503 0.65961 0.62685 0.0
C1435 C 0.03554 0.6629 0.68155 0.0
C1436 C 0.99473 0.63757 0.65633 0.0
H1437 H 1.00613 0.64363 0.62719 0.0
C1438 C 0.96814 0.63117 0.65575 0.0
C1439 C 0.00869 0.64133 0.64584 0.0
C1440 C 0.0377 0.64609 0.64568 0.0
C1441 C 0.9551 0.62884 0.64502 0.0
C1442 C 0.96881 0.63383 0.63455 0.0
C1443 C 0.99545 0.63995 0.63517 0.0
C1444 C 0.95632 0.63275 0.62282 0.0
C1445 C 0.92695 0.62044 0.64503 0.0
C1446 C 0.96814 0.61845 0.61384 0.0
C1447 C 0.95884 0.6201 0.60242 0.0
C1448 C 0.93718 0.63571 0.59975 0.0
C1449 C 0.92445 0.64896 0.60881 0.0
C1450 C 0.93415 0.64779 0.62021 0.0
H1451 H 0.92209 0.6092 0.65302 0.0
H1452 H 0.91436 0.63802 0.64486 0.0
H1453 H 0.92228 0.60824 0.63733 0.0
H1454 H 0.98521 0.60666 0.61558 0.0
H1455 H 0.96908 0.60975 0.59561 0.0
H1456 H 0.62017 0.19612 0.60802 0.0
H1457 H 0.62315 0.22248 0.62566 0.0
H1458 H 0.59917 0.29057 0.60639 0.0
H1459 H 0.59586 0.26424 0.5886 0.0
H1460 H 0.65591 0.27825 0.62532 0.0
H1461 H 0.55153 0.27835 0.63856 0.0
H1462 H 0.56637 0.24889 0.6331 0.0
H1463 H 0.56071 0.27567 0.62344 0.0
C1464 C 0.61507 0.21658 0.60751 0.0
C1465 C 0.60768 0.22804 0.59685 0.0
C1466 C 0.61699 0.23164 0.61761 0.0
C1467 C 0.61139 0.25839 0.61729 0.0
C1468 C 0.60358 0.2699 0.60677 0.0
H1469 H 0.60519 0.37568 0.67165 0.0
H1470 H 0.60378 0.35254 0.6531 0.0
C1471 C 0.60179 0.25487 0.59663 0.0
C1472 C 0.61462 0.27443 0.6279 0.0
H1473 H 0.58127 0.30028 0.65081 0.0
C1474 C 0.63963 0.28316 0.6309 0.0
C1475 C 0.5933 0.28063 0.63512 0.0
C1476 C 0.56637 0.27053 0.63248 0.0
C1477 C 0.64387 0.29809 0.64098 0.0
C1478 C 0.62257 0.30426 0.64824 0.0
C1479 C 0.59752 0.29566 0.64517 0.0
C1480 C 0.62584 0.31929 0.65918 0.0
C1481 C 0.67104 0.30736 0.64376 0.0
C1482 C 0.63911 0.30843 0.66871 0.0
C1483 C 0.63989 0.32157 0.67939 0.0
C1484 C 0.62747 0.34587 0.68071 0.0
C1485 C 0.61519 0.35715 0.67096 0.0
C1486 C 0.6142 0.34388 0.66034 0.0
H1487 H 0.68426 0.30557 0.63616 0.0
H1488 H 0.67078 0.32804 0.64666 0.0
H1489 H 0.67909 0.29539 0.65097 0.0
H1490 H 0.64798 0.28932 0.66803 0.0
H1491 H 0.64932 0.31222 0.68673 0.0
H1492 H 0.07604 0.30766 0.85854 0.0
H1493 H 0.05832 0.303 0.87821 0.0
H1494 H 0.00841 0.3693 0.87227 0.0
H1495 H 0.02558 0.37377 0.85261 0.0
H1496 H 0.06194 0.33876 0.89571 0.0
H1497 H 0.95838 0.31774 0.8868 0.0
H1498 H 0.98307 0.31538 0.8757 0.0
H1499 H 0.96897 0.34653 0.87928 0.0
C1500 C 0.06107 0.32106 0.86138 0.0
C1501 C 0.05217 0.34103 0.85395 0.0
C1502 C 0.05101 0.31839 0.87264 0.0
C1503 C 0.0319 0.33566 0.87672 0.0
C1504 C 0.02267 0.35532 0.86925 0.0
H1505 H 0.99744 0.40197 0.94148 0.0
H1506 H 0.01887 0.38463 0.92438 0.0
C1507 C 0.03254 0.35787 0.85797 0.0
C1508 C 0.02297 0.33458 0.88902 0.0
H1509 H 0.96824 0.3359 0.90575 0.0
C1510 C 0.04148 0.3375 0.89794 0.0
C1511 C 0.99632 0.33258 0.89198 0.0
C1512 C 0.97559 0.3276 0.88293 0.0
C1513 C 0.03395 0.34011 0.90963 0.0
C1514 C 1.00712 0.34034 0.91247 0.0
C1515 C 0.98876 0.3358 0.90363 0.0
C1516 C 0.9974 0.34824 0.92417 0.0
C1517 C 0.05482 0.34312 0.91878 0.0
C1518 C 0.97809 0.33362 0.92993 0.0
C1519 C 0.96533 0.34381 0.93971 0.0
C1520 C 0.97152 0.36891 0.94383 0.0
C1521 C 0.99215 0.38257 0.93856 0.0
C1522 C 1.0047 0.37251 0.92879 0.0
H1523 H 0.07336 0.33395 0.916 0.0
H1524 H 0.05886 0.36417 0.92014 0.0
H1525 H 0.0487 0.3344 0.9272 0.0
H1526 H 0.97196 0.31491 0.9265 0.0
H1527 H 0.94944 0.33282 0.9435 0.0
H1528 H 0.86963 0.7545 0.08672 0.0
H1529 H 0.8648 0.72991 0.10482 0.0
H1530 H 0.93736 0.76175 0.11735 0.0
H1531 H 0.9417 0.78724 0.09935 0.0
H1532 H 0.89142 0.69366 0.11639 0.0
H1533 H 0.88923 0.78467 0.14259 0.0
H1534 H 0.88895 0.78515 0.12692 0.0
H1535 H 0.91896 0.78015 0.13471 0.0
C1536 C 0.88478 0.75592 0.09325 0.0
C1537 C 0.90596 0.77293 0.09168 0.0
C1538 C 0.88196 0.74191 0.10361 0.0
C1539 C 0.90038 0.74445 0.11258 0.0
C1540 C 0.92247 0.7601 0.11071 0.0
H1541 H 0.89545 0.6512 0.17662 0.0
H1542 H 0.90465 0.66594 0.15684 0.0
C1543 C 0.92505 0.77449 0.10042 0.0
C1544 C 0.89551 0.73181 0.12403 0.0
H1545 H 0.88674 0.74493 0.15288 0.0
C1546 C 0.89037 0.70486 0.12437 0.0
C1547 C 0.89395 0.74648 0.13445 0.0
C1548 C 0.89782 0.77573 0.13468 0.0
C1549 C 0.88339 0.69224 0.13479 0.0
C1550 C 0.88202 0.70689 0.1452 0.0
C1551 C 0.88765 0.73372 0.14489 0.0
C1552 C 0.87428 0.69522 0.15654 0.0
C1553 C 0.87688 0.66353 0.13445 0.0
C1554 C 0.85394 0.70648 0.16296 0.0
C1555 C 0.84893 0.6984 0.17435 0.0
C1556 C 0.86401 0.6787 0.17954 0.0
C1557 C 0.8832 0.66617 0.17283 0.0
C1558 C 0.88852 0.6746 0.16149 0.0
H1559 H 0.87154 0.65709 0.12553 0.0
H1560 H 0.89418 0.65216 0.13723 0.0
H1561 H 0.86056 0.65881 0.14042 0.0
H1562 H 0.84261 0.72235 0.15931 0.0
H1563 H 0.83408 0.70846 0.1793 0.0
H1564 H 0.51785 0.64197 0.44323 0.0
H1565 H 0.49917 0.65136 0.42424 0.0
H1566 H 0.55419 0.71411 0.41943 0.0
H1567 H 0.57401 0.70387 0.43828 0.0
H1568 H 0.47659 0.68959 0.41311 0.0
H1569 H 0.57193 0.67092 0.39187 0.0
H1570 H 0.56651 0.66469 0.40711 0.0
H1571 H 0.57178 0.6975 0.40201 0.0
C1572 C 0.52582 0.65806 0.43825 0.0
C1573 C 0.54782 0.67181 0.44222 0.0
C1574 C 0.51506 0.66342 0.42734 0.0
C1575 C 0.52579 0.68286 0.42017 0.0
C1576 C 0.54617 0.69833 0.42457 0.0
H1577 H 0.44642 0.70725 0.35251 0.0
H1578 H 0.46387 0.71538 0.37204 0.0
C1579 C 0.55727 0.69268 0.43545 0.0
C1580 C 0.51657 0.68535 0.4079 0.0
H1581 H 0.53658 0.68003 0.37963 0.0
C1582 C 0.48973 0.68763 0.40578 0.0
C1583 C 0.53366 0.68255 0.3983 0.0
C1584 C 0.56254 0.67853 0.39988 0.0
C1585 C 0.47944 0.68632 0.39445 0.0
C1586 C 0.49653 0.68358 0.38485 0.0
C1587 C 0.52344 0.6822 0.38695 0.0
C1588 C 0.48698 0.68003 0.37267 0.0
C1589 C 0.4503 0.68691 0.39298 0.0
C1590 C 0.4951 0.65823 0.3662 0.0
C1591 C 0.48573 0.654 0.35493 0.0
C1592 C 0.46778 0.67134 0.34988 0.0
C1593 C 0.46005 0.69345 0.35623 0.0
C1594 C 0.46984 0.69797 0.36745 0.0
H1595 H 0.43998 0.68199 0.40119 0.0
H1596 H 0.4445 0.70694 0.39042 0.0
H1597 H 0.44379 0.67318 0.3861 0.0
H1598 H 0.5083 0.64408 0.36998 0.0
H1599 H 0.4918 0.63663 0.35033 0.0
H1600 H 0.40025 0.24154 0.10119 0.0
H1601 H 0.40764 0.25787 0.12079 0.0
H1602 H 0.47303 0.20582 0.12471 0.0
H1603 H 0.46542 0.18904 0.10504 0.0
H1604 H 0.44554 0.2041 0.14351 0.0
H1605 H 0.46007 0.30763 0.13313 0.0
H1606 H 0.42897 0.2982 0.12747 0.0
H1607 H 0.45822 0.28332 0.12186 0.0
C1608 C 0.41658 0.23395 0.10608 0.0
C1609 C 0.43243 0.21418 0.10144 0.0
C1610 C 0.42083 0.24335 0.11733 0.0
C1611 C 0.44132 0.23361 0.12419 0.0
C1612 C 0.45724 0.21388 0.11958 0.0
H1613 H 0.45042 0.32023 0.18988 0.0
H1614 H 0.4671 0.29872 0.1724 0.0
C1615 C 0.45286 0.20429 0.10833 0.0
C1616 C 0.44492 0.24309 0.13635 0.0
H1617 H 0.44332 0.29858 0.1527 0.0
C1618 C 0.4456 0.22481 0.14549 0.0
C1619 C 0.44601 0.27004 0.13907 0.0
C1620 C 0.44859 0.29082 0.12982 0.0
C1621 C 0.44534 0.2328 0.1572 0.0
C1622 C 0.44325 0.25971 0.15987 0.0
C1623 C 0.44451 0.27794 0.15074 0.0
C1624 C 0.43679 0.26934 0.17176 0.0
C1625 C 0.44722 0.21219 0.16654 0.0
C1626 C 0.4148 0.25949 0.17753 0.0
C1627 C 0.40539 0.2716 0.18756 0.0
C1628 C 0.41745 0.29419 0.19198 0.0
C1629 C 0.4406 0.30292 0.18673 0.0
C1630 C 0.4501 0.29069 0.17667 0.0
H1631 H 0.46133 0.19693 0.1639 0.0
H1632 H 0.4536 0.22029 0.17503 0.0
H1633 H 0.42798 0.20263 0.16762 0.0
H1634 H 0.40381 0.24341 0.17388 0.0
H1635 H 0.38757 0.26424 0.19138 0.0
H1636 H 0.44511 0.7081 0.93938 0.0
H1637 H 0.46549 0.7179 0.92061 0.0
H1638 H 0.51873 0.65377 0.92558 0.0
H1639 H 0.4994 0.64465 0.94445 0.0
H1640 H 0.54244 0.69198 0.91446 0.0
H1641 H 0.44685 0.67417 0.89314 0.0
H1642 H 0.44733 0.70109 0.90309 0.0
H1643 H 0.45203 0.66839 0.90843 0.0
C1644 C 0.46158 0.69649 0.9366 0.0
C1645 C 0.47027 0.67526 0.94336 0.0
C1646 C 0.47302 0.70192 0.92578 0.0
C1647 C 0.49306 0.68598 0.92145 0.0
C1648 C 0.50312 0.66621 0.92863 0.0
H1649 H 0.52584 0.63674 0.8522 0.0
H1650 H 0.5105 0.64503 0.87192 0.0
C1651 C 0.49197 0.661 0.93947 0.0
C1652 C 0.5024 0.68819 0.90919 0.0
H1653 H 0.48241 0.68236 0.88093 0.0
C1654 C 0.52929 0.69005 0.90712 0.0
C1655 C 0.48529 0.68544 0.89958 0.0
C1656 C 0.45631 0.68192 0.90112 0.0
C1657 C 0.5396 0.68834 0.8958 0.0
C1658 C 0.52249 0.68546 0.8862 0.0
C1659 C 0.49555 0.68458 0.88825 0.0
C1660 C 0.53196 0.68112 0.87408 0.0
C1661 C 0.56877 0.68854 0.89434 0.0
C1662 C 0.54897 0.69874 0.86857 0.0
C1663 C 0.55801 0.69383 0.85726 0.0
C1664 C 0.54977 0.67152 0.85114 0.0
C1665 C 0.53226 0.6543 0.85657 0.0
C1666 C 0.52356 0.65899 0.8679 0.0
H1667 H 0.57905 0.68417 0.90263 0.0
H1668 H 0.57506 0.67418 0.88769 0.0
H1669 H 0.57487 0.70826 0.89145 0.0
H1670 H 0.55524 0.71632 0.87297 0.0
H1671 H 0.5713 0.70758 0.85327 0.0
H1672 H 0.12951 0.66789 0.67866 0.0
H1673 H 0.13131 0.69688 0.66178 0.0
H1674 H 0.19802 0.73602 0.67641 0.0
H1675 H 0.19649 0.70705 0.69333 0.0
H1676 H 0.12582 0.75179 0.66462 0.0
H1677 H 0.21769 0.72701 0.64168 0.0
H1678 H 0.20197 0.7048 0.65168 0.0
H1679 H 0.2204 0.73197 0.65712 0.0
C1680 C 0.14501 0.68219 0.67818 0.0
C1681 C 0.16279 0.68519 0.68741 0.0
C1682 C 0.14594 0.69882 0.66852 0.0
C1683 C 0.16483 0.71856 0.66781 0.0
C1684 C 0.1835 0.72069 0.67668 0.0
H1685 H 0.18474 0.85013 0.61982 0.0
H1686 H 0.18984 0.81847 0.63569 0.0
C1687 C 0.18253 0.70413 0.68638 0.0
C1688 C 0.16313 0.73862 0.6585 0.0
H1689 H 0.19516 0.7647 0.63516 0.0
C1690 C 0.14094 0.75454 0.65814 0.0
C1691 C 0.18304 0.74243 0.65018 0.0
C1692 C 0.20708 0.72557 0.65007 0.0
C1693 C 0.13809 0.77421 0.64973 0.0
C1694 C 0.15769 0.77769 0.64122 0.0
C1695 C 0.18011 0.762 0.64166 0.0
C1696 C 0.15479 0.79693 0.63159 0.0
C1697 C 0.11425 0.79135 0.65017 0.0
C1698 C 0.13354 0.79524 0.62395 0.0
C1699 C 0.13042 0.81342 0.61499 0.0
C1700 C 0.1487 0.83357 0.61331 0.0
C1701 C 0.17015 0.83509 0.62092 0.0
C1702 C 0.1732 0.81688 0.62994 0.0
H1703 H 0.10561 0.79172 0.65903 0.0
H1704 H 0.11883 0.81169 0.64752 0.0
H1705 H 0.09934 0.78347 0.64413 0.0
H1706 H 0.11931 0.77977 0.6249 0.0
H1707 H 0.11346 0.81173 0.60945 0.0
H1708 H 0.05882 0.403 0.43747 0.0
H1709 H 0.03664 0.404 0.41867 0.0
H1710 H 0.10666 0.37734 0.40181 0.0
H1711 H 0.12881 0.37555 0.42065 0.0
H1712 H 0.04364 0.42834 0.39797 0.0
H1713 H 0.05581 0.32149 0.39239 0.0
H1714 H 0.06481 0.33803 0.40564 0.0
H1715 H 0.08601 0.33895 0.39316 0.0
C1716 C 0.06968 0.39773 0.42975 0.0
C1717 C 0.09556 0.38893 0.43061 0.0
C1718 C 0.05691 0.39826 0.41899 0.0
C1719 C 0.06973 0.39009 0.40884 0.0
C1720 C 0.09611 0.38303 0.40955 0.0
H1721 H 0.01384 0.36594 0.33774 0.0
H1722 H 0.04101 0.372 0.35509 0.0
C1723 C 0.10884 0.38227 0.42033 0.0
C1724 C 0.0551 0.38791 0.39768 0.0
H1725 H 0.03672 0.34446 0.37664 0.0
C1726 C 0.04214 0.40999 0.39331 0.0
C1727 C 0.05298 0.36394 0.3916 0.0
C1728 C 0.06541 0.33917 0.396 0.0
C1729 C 0.02736 0.40879 0.38301 0.0
C1730 C 0.02527 0.38481 0.37698 0.0
C1731 C 0.03842 0.36284 0.38126 0.0
C1732 C 0.0089 0.38183 0.36641 0.0
C1733 C 0.01428 0.43323 0.37859 0.0
C1734 C 0.98182 0.38493 0.36708 0.0
C1735 C 0.96628 0.3814 0.35721 0.0
C1736 C 0.97748 0.37464 0.34645 0.0
C1737 C 1.00463 0.37138 0.34584 0.0
C1738 C 0.02016 0.37477 0.35575 0.0
H1739 H 0.0229 0.4511 0.38249 0.0
H1740 H 0.01573 0.43461 0.36897 0.0
H1741 H 0.99335 0.43264 0.38094 0.0
H1742 H 0.97267 0.38992 0.37526 0.0
H1743 H 0.94551 0.38438 0.35799 0.0
H1744 H 0.3476 0.67667 0.35006 0.0
H1745 H 0.3485 0.70047 0.3685 0.0
H1746 H 0.40232 0.64417 0.3826 0.0
H1747 H 0.40138 0.62007 0.36428 0.0
H1748 H 0.3643 0.66148 0.39879 0.0
H1749 H 0.41377 0.74385 0.37643 0.0
H1750 H 0.38285 0.73498 0.37027 0.0
H1751 H 0.40949 0.7123 0.36975 0.0
C1752 C 0.35917 0.66897 0.35716 0.0
C1753 C 0.37461 0.64655 0.35562 0.0
C1754 C 0.35983 0.68275 0.36767 0.0
C1755 C 0.37597 0.67443 0.37682 0.0
C1756 C 0.38991 0.65106 0.37562 0.0
H1757 H 0.42414 0.73531 0.4445 0.0
H1758 H 0.41635 0.70807 0.42731 0.0
C1759 C 0.38926 0.63725 0.36513 0.0
C1760 C 0.37967 0.6909 0.38732 0.0
H1761 H 0.40353 0.74982 0.39624 0.0
C1762 C 0.37282 0.68082 0.39826 0.0
C1763 C 0.39083 0.71612 0.38659 0.0
C1764 C 0.3999 0.72744 0.37515 0.0
C1765 C 0.37646 0.69545 0.40849 0.0
C1766 C 0.38796 0.72057 0.40779 0.0
C1767 C 0.39465 0.73064 0.39681 0.0
C1768 C 0.39306 0.73693 0.41826 0.0
C1769 C 0.36728 0.68404 0.41988 0.0
C1770 C 0.38354 0.7626 0.41874 0.0
C1771 C 0.38848 0.77833 0.42843 0.0
C1772 C 0.40294 0.76871 0.43791 0.0
C1773 C 0.41265 0.74309 0.4374 0.0
C1774 C 0.40803 0.72746 0.42761 0.0
H1775 H 0.35201 0.66898 0.41852 0.0
H1776 H 0.38393 0.67451 0.42433 0.0
H1777 H 0.35938 0.6994 0.4257 0.0
H1778 H 0.37204 0.77045 0.41165 0.0
H1779 H 0.38048 0.79786 0.4286 0.0
H1780 H 0.07838 0.70297 0.09429 0.0
H1781 H 0.05578 0.71879 0.1117 0.0
H1782 H 0.008 0.6495 0.11181 0.0
H1783 H 0.02957 0.63424 0.09429 0.0
H1784 H 0.98072 0.68991 0.11941 0.0
H1785 H 0.0762 0.68774 0.14237 0.0
H1786 H 0.07376 0.71031 0.13047 0.0
H1787 H 0.07239 0.67578 0.12773 0.0
C1788 C 0.06249 0.69154 0.09782 0.0
C1789 C 0.05607 0.66712 0.09299 0.0
C1790 C 0.04982 0.70043 0.10788 0.0
C1791 C 0.03075 0.68493 0.11333 0.0
C1792 C 0.0228 0.66175 0.10788 0.0
H1793 H 0.99727 0.64937 0.18346 0.0
H1794 H 0.01407 0.65637 0.16387 0.0
C1795 C 0.03523 0.65299 0.09783 0.0
C1796 C 0.02057 0.69101 0.12517 0.0
H1797 H 0.03915 0.69468 0.1537 0.0
C1798 C 0.99348 0.69129 0.12691 0.0
C1799 C 0.03723 0.69262 0.13499 0.0
C1800 C 0.06649 0.6914 0.13387 0.0
C1801 C 0.98262 0.6917 0.13814 0.0
C1802 C 0.99932 0.69266 0.14796 0.0
C1803 C 0.02635 0.69386 0.14619 0.0
C1804 C 0.98954 0.68972 0.16012 0.0
C1805 C 0.95344 0.68947 0.13934 0.0
C1806 C 0.97046 0.70641 0.16472 0.0
C1807 C 0.96061 0.70224 0.17595 0.0
C1808 C 0.97002 0.68163 0.1829 0.0
C1809 C 0.98981 0.66562 0.17843 0.0
C1810 C 0.99937 0.66956 0.16718 0.0
H1811 H 0.94415 0.68242 0.13119 0.0
H1812 H 0.94811 0.67592 0.1465 0.0
H1813 H 0.94521 0.70897 0.14134 0.0
H1814 H 0.96302 0.72255 0.15962 0.0
H1815 H 0.94557 0.71509 0.17918 0.0
H1816 H 0.11417 0.38837 0.86717 0.0
H1817 H 0.11213 0.3662 0.88597 0.0
H1818 H 0.17297 0.3137 0.87515 0.0
H1819 H 0.1751 0.33569 0.85625 0.0
H1820 H 0.09989 0.312 0.88781 0.0
H1821 H 0.1948 0.33512 0.90856 0.0
H1822 H 0.18144 0.35434 0.89679 0.0
H1823 H 0.19658 0.32347 0.89384 0.0
C1824 C 0.12768 0.37259 0.86887 0.0
C1825 C 0.14489 0.36388 0.86017 0.0
C1826 C 0.12635 0.35984 0.87962 0.0
C1827 C 0.1425 0.33842 0.88199 0.0
C1828 C 0.16059 0.33044 0.87357 0.0
H1829 H 0.14614 0.21658 0.93408 0.0
H1830 H 0.15254 0.24484 0.91712 0.0
C1831 C 0.16178 0.34304 0.86276 0.0
C1832 C 0.13871 0.32299 0.89281 0.0
H1833 H 0.16903 0.3023 0.91764 0.0
C1834 C 0.11483 0.31016 0.89442 0.0
C1835 C 0.15846 0.32032 0.90131 0.0
C1836 C 0.18422 0.33418 0.90014 0.0
C1837 C 0.11027 0.29441 0.90423 0.0
C1838 C 0.13002 0.2917 0.9127 0.0
C1839 C 0.1539 0.30455 0.91113 0.0
C1840 C 0.12639 0.27498 0.92311 0.0
C1841 C 0.08483 0.27984 0.90526 0.0
C1842 C 0.10974 0.28274 0.93213 0.0
C1843 C 0.10606 0.26664 0.94185 0.0
C1844 C 0.11885 0.24242 0.94268 0.0
C1845 C 0.1357 0.23489 0.93364 0.0
C1846 C 0.13953 0.25108 0.92398 0.0
H1847 H 0.07213 0.28273 0.89753 0.0
H1848 H 0.08866 0.25865 0.90635 0.0
H1849 H 0.07414 0.28649 0.91309 0.0
H1850 H 0.09953 0.3012 0.93163 0.0
H1851 H 0.09283 0.27292 0.94861 0.0
H1852 H 0.49202 0.38913 0.5906 0.0
H1853 H 0.50856 0.37507 0.60933 0.0
H1854 H 0.45656 0.30892 0.60888 0.0
H1855 H 0.43878 0.32376 0.59021 0.0
H1856 H 0.45198 0.33334 0.62852 0.0
H1857 H 0.55789 0.3232 0.62138 0.0
H1858 H 0.54616 0.35355 0.61586 0.0
H1859 H 0.53483 0.32344 0.60949 0.0
C1860 C 0.48448 0.37117 0.59428 0.0
C1861 C 0.46388 0.3577 0.58887 0.0
C1862 C 0.49423 0.36296 0.60502 0.0
C1863 C 0.48424 0.34062 0.61052 0.0
C1864 C 0.46475 0.32616 0.60481 0.0
H1865 H 0.55183 0.30408 0.67914 0.0
H1866 H 0.53655 0.2988 0.6591 0.0
C1867 C 0.45467 0.33459 0.59409 0.0
C1868 C 0.4919 0.33451 0.62277 0.0
H1869 H 0.54435 0.33179 0.64106 0.0
C1870 C 0.47221 0.33247 0.63121 0.0
C1871 C 0.51827 0.33301 0.62637 0.0
C1872 C 0.54044 0.3331 0.61777 0.0
C1873 C 0.47811 0.33051 0.64313 0.0
C1874 C 0.50444 0.33121 0.64677 0.0
C1875 C 0.52415 0.33168 0.63831 0.0
C1876 C 0.51198 0.33305 0.65926 0.0
C1877 C 0.456 0.328 0.65169 0.0
C1878 C 0.50315 0.35396 0.66609 0.0
C1879 C 0.51177 0.35699 0.67757 0.0
C1880 C 0.52969 0.33934 0.68248 0.0
C1881 C 0.53823 0.31819 0.67565 0.0
C1882 C 0.52948 0.3151 0.66418 0.0
H1883 H 0.43867 0.31881 0.64759 0.0
H1884 H 0.46175 0.31623 0.65939 0.0
H1885 H 0.45021 0.34774 0.65469 0.0
H1886 H 0.49019 0.36847 0.66243 0.0
H1887 H 0.50511 0.37379 0.68242 0.0
H1888 H 0.27612 0.32896 0.22871 0.0
H1889 H 0.25645 0.30267 0.24419 0.0
H1890 H 0.33181 0.27103 0.25276 0.0
H1891 H 0.35158 0.29718 0.23734 0.0
H1892 H 0.25581 0.24907 0.24674 0.0
H1893 H 0.3056 0.29503 0.28435 0.0
H1894 H 0.30538 0.30961 0.27004 0.0
H1895 H 0.3275 0.28342 0.27336 0.0
C1896 C 0.28852 0.31641 0.23388 0.0
C1897 C 0.31548 0.31535 0.23181 0.0
C1898 C 0.27725 0.30146 0.24275 0.0
C1899 C 0.29271 0.28519 0.24976 0.0
C1900 C 0.31958 0.28394 0.24767 0.0
H1901 H 0.2623 0.17393 0.30524 0.0
H1902 H 0.28152 0.20067 0.28984 0.0
C1903 C 0.33087 0.29894 0.23884 0.0
C1904 C 0.28061 0.26889 0.259 0.0
H1905 H 0.28209 0.25595 0.28818 0.0
C1906 C 0.26143 0.25068 0.25581 0.0
C1907 C 0.28799 0.27097 0.27084 0.0
C1908 C 0.30757 0.29097 0.2749 0.0
C1909 C 0.24982 0.23417 0.26409 0.0
C1910 C 0.25733 0.23617 0.27591 0.0
C1911 C 0.27645 0.25439 0.27911 0.0
C1912 C 0.24544 0.21965 0.28511 0.0
C1913 C 0.23002 0.21434 0.2601 0.0
C1914 C 0.21881 0.22161 0.28764 0.0
C1915 C 0.20777 0.20646 0.29649 0.0
C1916 C 0.22316 0.18908 0.30305 0.0
C1917 C 0.24988 0.18723 0.30048 0.0
C1918 C 0.2609 0.20244 0.29163 0.0
H1919 H 0.23116 0.2109 0.25057 0.0
H1920 H 0.23276 0.19544 0.26468 0.0
H1921 H 0.2102 0.22161 0.26211 0.0
H1922 H 0.20662 0.23517 0.28288 0.0
H1923 H 0.18728 0.20885 0.29834 0.0
H1924 H 0.08221 0.92822 0.53699 0.0
H1925 H 0.05669 0.94993 0.52184 0.0
H1926 H 0.01954 0.99759 0.54784 0.0
H1927 H 0.04467 0.97582 0.56306 0.0
H1928 H 1.00187 0.95233 0.51973 0.0
H1929 H 0.04519 0.05121 0.52379 0.0
H1930 H 0.06031 0.02248 0.5299 0.0
H1931 H 0.03342 0.03769 0.53722 0.0
C1932 C 0.06859 0.94325 0.53953 0.0
C1933 C 0.06561 0.95022 0.5513 0.0
C1934 C 0.05407 0.95572 0.53083 0.0
C1935 C 0.03643 0.97559 0.53369 0.0
C1936 C 0.03343 0.98267 0.5454 0.0
H1937 H 0.92858 0.07413 0.49591 0.0
H1938 H 0.95411 0.05075 0.51054 0.0
C1939 C 0.04789 0.9702 0.55411 0.0
C1940 C 0.02063 0.98838 0.52447 0.0
H1941 H 0.00761 0.04742 0.51189 0.0
C1942 C 1.00321 0.97309 0.51795 0.0
C1943 C 0.02239 0.01547 0.52218 0.0
C1944 C 0.04149 0.03269 0.52856 0.0
C1945 C 0.98705 0.98427 0.50941 0.0
C1946 C 0.98871 0.01141 0.50717 0.0
C1947 C 1.00628 0.02664 0.51363 0.0
C1948 C 0.97228 0.02454 0.49825 0.0
C1949 C 0.96785 0.96707 0.5031 0.0
C1950 C 0.9739 0.01756 0.48645 0.0
C1951 C 0.95929 0.03095 0.47805 0.0
C1952 C 0.94297 0.05178 0.48126 0.0
C1953 C 0.94117 0.05844 0.49311 0.0
C1954 C 0.9557 0.04503 0.50149 0.0
H1955 H 0.96422 0.94855 0.50787 0.0
H1956 H 0.949 0.97727 0.50181 0.0
H1957 H 0.97578 0.96205 0.49441 0.0
H1958 H 0.98696 1.00219 0.4837 0.0
H1959 H 0.96147 0.02554 0.46901 0.0
H1960 H 0.16112 0.75865 0.73642 0.0
H1961 H 0.19845 0.77752 0.74657 0.0
H1962 H 0.21947 0.70134 0.7595 0.0
H1963 H 0.18168 0.68241 0.7497 0.0
H1964 H 0.22328 0.73962 0.77629 0.0
H1965 H 0.27389 0.77018 0.73589 0.0
H1966 H 0.2414 0.78273 0.73715 0.0
H1967 H 0.24647 0.74813 0.73582 0.0
C1968 C 0.17342 0.74591 0.74154 0.0
C1969 C 0.16842 0.71891 0.74215 0.0
C1970 C 0.19499 0.75671 0.74722 0.0
C1971 C 0.21209 0.74075 0.75358 0.0
C1972 C 0.2067 0.71398 0.75453 0.0
H1973 H 0.36815 0.78545 0.77664 0.0
H1974 H 0.33097 0.76398 0.76727 0.0
C1975 C 0.18515 0.70316 0.74886 0.0
C1976 C 0.23559 0.75194 0.75925 0.0
H1977 H 0.29179 0.78543 0.75373 0.0
C1978 C 0.2383 0.74956 0.77136 0.0
C1979 C 0.25542 0.7645 0.75278 0.0
C1980 C 0.25436 0.76636 0.73968 0.0
C1981 C 0.25999 0.75995 0.77721 0.0
C1982 C 0.27928 0.77346 0.77079 0.0
C1983 C 0.27688 0.77528 0.75865 0.0
C1984 C 0.30185 0.78624 0.77654 0.0
C1985 C 0.26218 0.75609 0.79019 0.0
C1986 C 0.29786 0.80614 0.78471 0.0
C1987 C 0.31902 0.81844 0.79005 0.0
C1988 C 0.34472 0.81126 0.78727 0.0
C1989 C 0.34867 0.79154 0.77894 0.0
C1990 C 0.32744 0.77919 0.77362 0.0
H1991 H 0.25019 0.73934 0.79321 0.0
H1992 H 0.2827 0.75271 0.79284 0.0
H1993 H 0.2551 0.77388 0.79468 0.0
H1994 H 0.27834 0.81242 0.78687 0.0
H1995 H 0.31516 0.83395 0.79618 0.0
H1996 H 0.51282 0.08233 0.05044 0.0
H1997 H 0.5283 0.046 0.03862 0.0
H1998 H 0.44925 0.02701 0.02928 0.0
H1999 H 0.43353 0.06351 0.04108 0.0
H2000 H 0.47899 0.98337 0.03554 0.0
H2001 H 0.53122 0.04423 1.00311 0.0
H2002 H 0.54061 0.05053 0.01789 0.0
H2003 H 0.50798 0.05772 1.01321 0.0
C2004 C 0.49868 0.07065 0.04579 0.0
C2005 C 0.4719 0.07609 0.04664 0.0
C2006 C 0.5076 0.04984 0.03902 0.0
C2007 C 0.48998 0.03408 0.03288 0.0
C2008 C 0.46321 0.03902 0.0339 0.0
H2009 H 0.50662 0.90088 0.98643 0.0
H2010 H 0.49013 0.93581 0.9988 0.0
C2011 C 0.45424 0.05984 0.04069 0.0
C2012 C 0.49956 0.01229 0.02551 0.0
H2013 H 0.53854 0.99849 1.00224 0.0
C2014 C 0.49189 0.98667 0.02821 0.0
C2015 C 0.51641 0.01662 1.01596 0.0
C2016 C 0.52437 0.04377 1.01228 0.0
C2017 C 0.50107 0.96523 0.02179 0.0
C2018 C 0.51805 0.96957 1.01229 0.0
C2019 C 0.52562 0.99519 1.00956 0.0
C2020 C 0.52804 0.94784 1.005 0.0
C2021 C 0.493 0.93807 0.02539 0.0
C2022 C 0.5549 0.94322 1.00419 0.0
C2023 C 0.56445 0.92317 0.99712 0.0
C2024 C 0.54733 0.9074 0.99062 0.0
C2025 C 0.5204 0.9122 0.99144 0.0
C2026 C 0.51089 0.93223 0.99852 0.0
H2027 H 0.48552 0.93759 0.03445 0.0
H2028 H 0.47723 0.93116 0.01954 0.0
H2029 H 0.50955 0.92424 0.02468 0.0
H2030 H 0.5685 0.95509 1.00909 0.0
H2031 H 0.58524 0.91995 0.99683 0.0
H2032 H 0.31285 0.67667 0.29211 0.0
H2033 H 0.2747 0.69412 0.28197 0.0
H2034 H 0.30129 0.77252 0.28869 0.0
H2035 H 0.33939 0.75528 0.29882 0.0
H2036 H 0.23532 0.72664 0.28975 0.0
H2037 H 0.28953 0.77384 0.25369 0.0
H2038 H 0.30443 0.75055 0.26342 0.0
H2039 H 0.30014 0.78392 0.26787 0.0
C2040 C 0.31055 0.69762 0.29149 0.0
C2041 C 0.32938 0.71454 0.29622 0.0
C2042 C 0.28875 0.70757 0.28564 0.0
C2043 C 0.28535 0.73463 0.28437 0.0
C2044 C 0.30382 0.75157 0.28928 0.0
H2045 H 0.16799 0.83415 0.25262 0.0
H2046 H 0.20463 0.8163 0.26362 0.0
C2047 C 0.32563 0.74165 0.29509 0.0
C2048 C 0.26233 0.74517 0.27805 0.0
H2049 H 0.24449 0.78371 0.25507 0.0
C2050 C 0.23731 0.739 0.28213 0.0
C2051 C 0.26493 0.76132 0.2681 0.0
C2052 C 0.29118 0.76763 0.26293 0.0
C2053 C 0.21487 0.74896 0.27669 0.0
C2054 C 0.2175 0.76522 0.26679 0.0
C2055 C 0.2425 0.77134 0.2627 0.0
C2056 C 0.19459 0.77591 0.26047 0.0
C2057 C 0.18855 0.74243 0.28172 0.0
C2058 C 0.17678 0.75917 0.25498 0.0
C2059 C 0.15587 0.76931 0.2486 0.0
C2060 C 0.15234 0.79648 0.24751 0.0
C2061 C 0.17016 0.81318 0.25312 0.0
C2062 C 0.1911 0.803 0.25948 0.0
H2063 H 0.19006 0.73542 0.29085 0.0
H2064 H 0.17549 0.75969 0.28148 0.0
H2065 H 0.17945 0.72672 0.27647 0.0
H2066 H 0.17938 0.7382 0.25542 0.0
H2067 H 0.14292 0.75579 0.24427 0.0
H2068 H 0.50103 0.8902 0.49902 0.0
H2069 H 0.51979 0.92729 0.50943 0.0
H2070 H 0.45714 0.9763 0.49737 0.0
H2071 H 0.43775 0.93911 0.48725 0.0
H2072 H 0.53704 0.97509 0.50124 0.0
H2073 H 0.45579 0.98881 0.53239 0.0
H2074 H 0.459 0.95985 0.52358 0.0
H2075 H 0.44603 0.98937 0.51738 0.0
C2076 C 0.49103 0.90876 0.49866 0.0
C2077 C 0.46767 0.91147 0.49234 0.0
C2078 C 0.50191 0.93003 0.50457 0.0
C2079 C 0.48967 0.95452 0.50437 0.0
C2080 C 0.46669 0.95749 0.49787 0.0
H2081 H 0.52425 0.10644 0.53413 0.0
H2082 H 0.50583 0.06906 0.52384 0.0
C2083 C 0.45577 0.93622 0.49195 0.0
C2084 C 0.50117 0.97693 0.51085 0.0
H2085 H 0.48871 0.02131 0.53234 0.0
C2086 C 0.52652 0.98512 0.50808 0.0
C2087 C 0.48746 0.99004 0.51979 0.0
C2088 C 0.46066 0.98147 0.52356 0.0
C2089 C 0.53831 1.00633 0.51381 0.0
C2090 C 0.52457 0.01947 0.52273 0.0
C2091 C 0.49924 0.01125 0.52552 0.0
C2092 C 0.53595 0.04206 0.52913 0.0
C2093 C 0.56512 0.0149 0.51006 0.0
C2094 C 0.55884 0.03932 0.53572 0.0
C2095 C 0.56956 0.06078 0.54159 0.0
C2096 C 0.55756 0.08546 0.54104 0.0
C2097 C 0.53432 0.08793 0.53461 0.0
C2098 C 0.52363 0.06649 0.52877 0.0
H2099 H 0.57015 1.00732 0.50129 0.0
H2100 H 0.56666 0.03652 0.50992 0.0
H2101 H 0.5797 1.00728 0.51633 0.0
H2102 H 0.56845 0.02056 0.53633 0.0
H2103 H 0.58749 0.05808 0.54639 0.0
H2104 H 0.21248 0.33098 0.8004 0.0
H2105 H 0.25023 0.31396 0.78993 0.0
H2106 H 0.21392 0.23812 0.78826 0.0
H2107 H 0.17595 0.25515 0.7986 0.0
H2108 H 0.2846 0.27524 0.79483 0.0
H2109 H 0.23054 0.25118 0.75445 0.0
H2110 H 0.21654 0.27055 0.76594 0.0
H2111 H 0.21749 0.23553 0.76714 0.0
C2112 C 0.21261 0.31063 0.7979 0.0
C2113 C 0.19112 0.29445 0.80027 0.0
C2114 C 0.23417 0.30094 0.79186 0.0
C2115 C 0.23472 0.27489 0.78809 0.0
C2116 C 0.21365 0.25847 0.79078 0.0
H2117 H 0.34779 0.18088 0.75085 0.0
H2118 H 0.31217 0.19661 0.76299 0.0
C2119 C 0.19199 0.2682 0.79673 0.0
C2120 C 0.25732 0.26497 0.78134 0.0
H2121 H 0.27424 0.23634 0.75559 0.0
C2122 C 0.28234 0.26683 0.78624 0.0
C2123 C 0.2544 0.25409 0.77009 0.0
C2124 C 0.22834 0.25293 0.76403 0.0
C2125 C 0.3044 0.25774 0.78026 0.0
C2126 C 0.30138 0.24663 0.76909 0.0
C2127 C 0.27643 0.24474 0.7642 0.0
C2128 C 0.32388 0.23711 0.76224 0.0
C2129 C 0.33075 0.25969 0.78599 0.0
C2130 C 0.34232 0.25469 0.7578 0.0
C2131 C 0.36259 0.24583 0.7507 0.0
C2132 C 0.36484 0.21916 0.7479 0.0
C2133 C 0.34655 0.20157 0.75261 0.0
C2134 C 0.32621 0.21049 0.75963 0.0
H2135 H 0.32921 0.26395 0.79544 0.0
H2136 H 0.34185 0.24128 0.78482 0.0
H2137 H 0.342 0.27568 0.78183 0.0
H2138 H 0.34064 0.27538 0.75958 0.0
H2139 H 0.37598 0.26006 0.74716 0.0
H2140 H 0.00969 0.11757 0.99762 0.0
H2141 H 0.99246 0.08142 1.00904 0.0
H2142 H 0.06931 0.04814 1.01151 0.0
H2143 H 0.08701 0.08489 1.00061 0.0
H2144 H 0.992 0.03059 1.00362 0.0
H2145 H 0.04633 0.04369 0.04488 0.0
H2146 H 0.0454 0.06849 0.03372 0.0
H2147 H 0.06728 0.04122 0.03246 0.0
C2148 C 0.02314 0.10297 1.00077 0.0
C2149 C 0.04988 0.10441 0.99814 0.0
C2150 C 0.01315 0.08211 1.00725 0.0
C2151 C 0.0296 0.06218 1.01129 0.0
C2152 C 0.05627 0.06354 1.00873 0.0
H2153 H 1.00376 0.90991 0.04245 0.0
H2154 H 0.02174 0.94901 0.03311 0.0
C2155 C 0.06633 0.08449 1.00232 0.0
C2156 C 0.01857 0.03934 0.0176 0.0
H2157 H 0.02363 1.00332 0.04259 0.0
C2158 C 0.99878 0.02479 1.01218 0.0
C2159 C 0.02742 0.0317 0.02878 0.0
C2160 C 0.04759 0.04724 0.03535 0.0
C2161 C 0.98798 1.00262 0.01753 0.0
C2162 C 0.99707 0.99484 0.02861 0.0
C2163 C 0.01678 0.00933 0.03407 0.0
C2164 C 0.98637 0.97157 0.03463 0.0
C2165 C 0.96726 0.98732 1.01119 0.0
C2166 C 0.96065 0.97147 0.03872 0.0
C2167 C 0.95034 0.9492 0.04407 0.0
C2168 C 0.96555 0.92654 0.04539 0.0
C2169 C 0.99145 0.92689 0.04143 0.0
C2170 C 1.0018 0.94925 0.03616 0.0
H2171 H 0.96584 0.99299 1.00187 0.0
H2172 H 0.97127 0.96604 1.01174 0.0
H2173 H 0.94812 0.99096 1.01534 0.0
H2174 H 0.9485 0.9886 0.0377 0.0
H2175 H 0.93028 0.94952 0.04691 0.0
H2176 H 0.86875 0.78872 0.75397 0.0
H2177 H 0.83182 0.77093 0.7648 0.0
H2178 H 0.77882 0.80794 0.74082 0.0
H2179 H 0.81573 0.82543 0.72979 0.0
H2180 H 0.78942 0.79811 0.77554 0.0
H2181 H 0.7562 0.73019 0.74088 0.0
H2182 H 0.78815 0.74489 0.74084 0.0
H2183 H 0.76027 0.76365 0.73649 0.0
C2184 C 0.84927 0.79294 0.75093 0.0
C2185 C 0.84525 0.80836 0.74094 0.0
C2186 C 0.82817 0.78288 0.75718 0.0
C2187 C 0.80258 0.78781 0.75353 0.0
C2188 C 0.79842 0.80358 0.74369 0.0
H2189 H 0.65156 0.73468 0.77799 0.0
H2190 H 0.68747 0.75537 0.76765 0.0
C2191 C 0.81954 0.81377 0.73746 0.0
C2192 C 0.78033 0.7764 0.76005 0.0
H2193 H 0.72997 0.73313 0.75769 0.0
C2194 C 0.77641 0.78388 0.77166 0.0
C2195 C 0.7634 0.75786 0.75495 0.0
C2196 C 0.76722 0.74844 0.74263 0.0
C2197 C 0.75577 0.77361 0.77827 0.0
C2198 C 0.73895 0.75487 0.77321 0.0
C2199 C 0.74285 0.74747 0.76157 0.0
C2200 C 0.71711 0.74272 0.77979 0.0
C2201 C 0.75185 0.78339 0.79052 0.0
C2202 C 0.72174 0.72848 0.79004 0.0
C2203 C 0.70112 0.71679 0.79608 0.0
C2204 C 0.67539 0.71887 0.79195 0.0
C2205 C 0.67092 0.73296 0.7816 0.0
C2206 C 0.69153 0.74469 0.77559 0.0
H2207 H 0.7614 0.80261 0.79189 0.0
H2208 H 0.73084 0.7853 0.79259 0.0
H2209 H 0.7606 0.76929 0.79673 0.0
H2210 H 0.74137 0.72618 0.79332 0.0
H2211 H 0.70541 0.70627 0.80402 0.0
H2212 H 0.65868 0.26157 0.23833 0.0
H2213 H 0.69645 0.27758 0.24913 0.0
H2214 H 0.7134 0.19925 0.26059 0.0
H2215 H 0.67531 0.18307 0.24994 0.0
H2216 H 0.71628 0.23879 0.27848 0.0
H2217 H 0.77315 0.26464 0.23905 0.0
H2218 H 0.74075 0.2778 0.23944 0.0
H2219 H 0.74533 0.24309 0.23862 0.0
C2220 C 0.6702 0.24775 0.24325 0.0
C2221 C 0.66397 0.22099 0.24323 0.0
C2222 C 0.69196 0.25692 0.24932 0.0
C2223 C 0.70793 0.23955 0.25551 0.0
C2224 C 0.70143 0.21294 0.25579 0.0
H2225 H 0.8631 0.27781 0.28182 0.0
H2226 H 0.8261 0.2568 0.27216 0.0
C2227 C 0.67974 0.20372 0.24966 0.0
C2228 C 0.73145 0.24921 0.26166 0.0
H2229 H 0.78998 0.27922 0.25717 0.0
C2230 C 0.73247 0.24752 0.27384 0.0
C2231 C 0.7527 0.26022 0.25555 0.0
C2232 C 0.75316 0.26139 0.24244 0.0
C2233 C 0.75388 0.25726 0.28011 0.0
C2234 C 0.77466 0.26925 0.27403 0.0
C2235 C 0.77396 0.27022 0.26182 0.0
C2236 C 0.79704 0.28145 0.28016 0.0
C2237 C 0.75412 0.25449 0.29318 0.0
C2238 C 0.79304 0.30246 0.28777 0.0
C2239 C 0.81413 0.31456 0.29326 0.0
C2240 C 0.83976 0.30603 0.29121 0.0
C2241 C 0.8437 0.28501 0.28354 0.0
C2242 C 0.82255 0.2729 0.27805 0.0
H2243 H 0.74081 0.23873 0.29615 0.0
H2244 H 0.77403 0.25024 0.29644 0.0
H2245 H 0.7475 0.27306 0.29716 0.0
H2246 H 0.7736 0.30985 0.28931 0.0
H2247 H 0.81031 0.33102 0.29889 0.0
H2248 H 0.81603 0.20183 0.79859 0.0
H2249 H 0.78576 0.22203 0.78483 0.0
H2250 H 0.7217 0.18232 0.80142 0.0
H2251 H 0.7519 0.16243 0.81535 0.0
H2252 H 0.75275 0.20249 0.76892 0.0
H2253 H 0.69625 0.25642 0.80215 0.0
H2254 H 0.7266 0.24039 0.80548 0.0
H2255 H 0.69683 0.22189 0.80473 0.0
C2256 C 0.79553 0.19722 0.79926 0.0
C2257 C 0.78636 0.18061 0.80812 0.0
C2258 C 0.77821 0.20889 0.79141 0.0
C2259 C 0.75134 0.20418 0.79222 0.0
C2260 C 0.74223 0.18692 0.80082 0.0
H2261 H 0.61639 0.25236 0.75216 0.0
H2262 H 0.64755 0.23021 0.76479 0.0
C2263 C 0.75951 0.17546 0.80875 0.0
C2264 C 0.73295 0.21729 0.78404 0.0
H2265 H 0.6789 0.25617 0.78296 0.0
C2266 C 0.73669 0.21434 0.772 0.0
C2267 C 0.71202 0.23291 0.78803 0.0
C2268 C 0.7078 0.23834 0.8008 0.0
C2269 C 0.71985 0.2261 0.76388 0.0
C2270 C 0.69876 0.24131 0.76789 0.0
C2271 C 0.69502 0.24435 0.77991 0.0
C2272 C 0.68026 0.25426 0.75979 0.0
C2273 C 0.7244 0.22185 0.75106 0.0
C2274 C 0.68829 0.27521 0.75277 0.0
C2275 C 0.6704 0.28823 0.74561 0.0
C2276 C 0.64405 0.28056 0.74531 0.0
C2277 C 0.6363 0.25921 0.75224 0.0
C2278 C 0.65415 0.24635 0.75945 0.0
H2279 H 0.7385 0.20584 0.74942 0.0
H2280 H 0.70582 0.2172 0.74657 0.0
H2281 H 0.73227 0.24005 0.74716 0.0
H2282 H 0.7083 0.28186 0.75303 0.0
H2283 H 0.67718 0.30472 0.74056 0.0
H2284 H 0.63248 0.77033 0.28009 0.0
H2285 H 0.66885 0.7494 0.2699 0.0
H2286 H 0.71861 0.8141 0.27898 0.0
H2287 H 0.6826 0.83486 0.28921 0.0
H2288 H 0.6983 0.76553 0.25153 0.0
H2289 H 0.76141 0.75305 0.2902 0.0
H2290 H 0.72747 0.76166 0.29134 0.0
H2291 H 0.75149 0.78632 0.28823 0.0
C2292 C 0.65117 0.78007 0.27988 0.0
C2293 C 0.65473 0.80409 0.28559 0.0
C2294 C 0.67195 0.76807 0.2741 0.0
C2295 C 0.69664 0.77987 0.27391 0.0
C2296 C 0.7 0.80419 0.27932 0.0
H2297 H 0.8431 0.75935 0.23939 0.0
H2298 H 0.80441 0.77443 0.24963 0.0
C2299 C 0.67935 0.81607 0.28516 0.0
C2300 C 0.71884 0.7672 0.26786 0.0
H2301 H 0.78202 0.74807 0.27165 0.0
C2302 C 0.71649 0.76141 0.25596 0.0
C2303 C 0.74256 0.76166 0.27366 0.0
C2304 C 0.74583 0.76574 0.28659 0.0
C2305 C 0.73754 0.75119 0.24963 0.0
C2306 C 0.76145 0.74663 0.25535 0.0
C2307 C 0.76366 0.75182 0.26728 0.0
C2308 C 0.78469 0.73719 0.24903 0.0
C2309 C 0.73443 0.74603 0.23678 0.0
C2310 C 0.78647 0.71115 0.24538 0.0
C2311 C 0.80879 0.70227 0.23964 0.0
C2312 C 0.82976 0.71931 0.2374 0.0
C2313 C 0.82769 0.74547 0.24107 0.0
C2314 C 0.80547 0.75424 0.24687 0.0
H2315 H 0.71551 0.75324 0.23337 0.0
H2316 H 0.75045 0.75551 0.23186 0.0
H2317 H 0.73564 0.7247 0.23517 0.0
H2318 H 0.7707 0.69763 0.24709 0.0
H2319 H 0.80965 0.68195 0.23714 0.0
H2320 H 0.58973 0.44377 0.03475 0.0
H2321 H 0.56468 0.4675 0.02005 0.0
H2322 H 0.52722 0.5121 0.04701 0.0
H2323 H 0.55179 0.48833 0.06177 0.0
H2324 H 0.50978 0.46996 0.018 0.0
H2325 H 0.55249 0.56855 0.02417 0.0
H2326 H 0.56784 0.53929 0.02964 0.0
H2327 H 0.54082 0.55343 0.03728 0.0
C2328 C 0.57618 0.45859 0.03759 0.0
C2329 C 0.57292 0.46404 0.04951 0.0
C2330 C 0.56193 0.47223 0.02915 0.0
C2331 C 0.54429 0.4918 0.03241 0.0
C2332 C 0.54111 0.49747 0.04426 0.0
H2333 H 0.43564 0.59295 0.99574 0.0
H2334 H 0.46185 0.56971 1.01022 0.0
C2335 C 0.55528 0.48381 0.05271 0.0
C2336 C 0.52842 0.50553 0.02346 0.0
H2337 H 0.51512 0.56577 1.01208 0.0
C2338 C 0.51105 0.49088 1.01665 0.0
C2339 C 0.52999 0.53286 0.02175 0.0
C2340 C 0.54894 0.54949 0.02851 0.0
C2341 C 0.49483 0.50286 1.00834 0.0
C2342 C 0.49642 0.5302 1.00661 0.0
C2343 C 0.51385 0.54484 1.01341 0.0
C2344 C 0.48024 0.54401 0.99778 0.0
C2345 C 0.47566 0.48618 1.00173 0.0
C2346 C 0.48198 0.5375 0.98594 0.0
C2347 C 0.46701 0.55077 0.97764 0.0
C2348 C 0.45012 0.57105 0.98097 0.0
C2349 C 0.44856 0.57763 0.99284 0.0
C2350 C 0.46349 0.56429 1.00114 0.0
H2351 H 0.47174 0.46744 1.00628 0.0
H2352 H 0.45692 0.49659 1.00044 0.0
H2353 H 0.48382 0.48154 0.99304 0.0
H2354 H 0.49523 0.5224 0.98308 0.0
H2355 H 0.46914 0.54549 0.96858 0.0
H2356 H 0.07113 0.45182 0.48877 0.0
H2357 H 0.05285 0.48978 0.4987 0.0
H2358 H 0.98851 0.4429 0.5107 0.0
H2359 H 1.00658 0.40488 0.50076 0.0
H2360 H 1.00491 0.5142 0.49592 0.0
H2361 H 0.01534 0.47541 0.54081 0.0
H2362 H 0.03141 0.46079 0.52848 0.0
H2363 H 0.99752 0.45444 0.53115 0.0
C2364 C 0.05299 0.44957 0.49343 0.0
C2365 C 0.04043 0.42516 0.494 0.0
C2366 C 0.04263 0.4713 0.49917 0.0
C2367 C 0.01956 0.4691 0.50563 0.0
C2368 C 1.00668 0.44493 0.50602 0.0
H2369 H 0.92657 0.57931 0.54563 0.0
H2370 H 0.94373 0.5408 0.53569 0.0
C2371 C 0.01705 0.42319 0.50031 0.0
C2372 C 0.00879 0.49219 0.5118 0.0
H2373 H 0.99189 0.51501 0.5387 0.0
C2374 C 1.00216 0.51442 0.50528 0.0
C2375 C 1.00514 0.49244 0.52401 0.0
C2376 C 0.01293 0.4696 0.53156 0.0
C2377 C 0.99166 0.53673 0.51061 0.0
C2378 C 0.98808 0.53701 0.52282 0.0
C2379 C 0.9946 0.51475 0.52934 0.0
C2380 C 0.97791 0.56034 0.529 0.0
C2381 C 0.98401 0.55966 0.50308 0.0
C2382 C 0.99167 0.58401 0.52873 0.0
C2383 C 0.982 0.60603 0.53446 0.0
C2384 C 0.95838 0.60488 0.54064 0.0
C2385 C 0.94489 0.58095 0.54106 0.0
C2386 C 0.95461 0.5589 0.53533 0.0
H2387 H 0.98161 0.55392 0.49382 0.0
H2388 H 0.96557 0.56854 0.50617 0.0
H2389 H 0.99949 0.57474 0.50353 0.0
H2390 H 0.01001 0.58542 0.52414 0.0
H2391 H 0.99322 0.6239 0.53412 0.0
H2392 H 0.08437 0.59659 0.03899 0.0
H2393 H 0.05652 0.57492 0.02468 0.0
H2394 H 0.04262 0.5121 0.04889 0.0
H2395 H 0.06968 0.53398 0.06337 0.0
H2396 H 0.06152 0.52564 1.01468 0.0
H2397 H 0.96899 0.53299 0.03933 0.0
H2398 H 0.99759 0.5516 0.04314 0.0
H2399 H 0.99507 0.51781 0.04724 0.0
C2400 C 0.07517 0.57833 0.04135 0.0
C2401 C 0.07923 0.56719 0.05241 0.0
C2402 C 0.05938 0.56587 0.03311 0.0
C2403 C 0.04713 0.54209 0.03577 0.0
C2404 C 0.05144 0.53069 0.04671 0.0
H2405 H 0.94432 0.438 0.99695 0.0
H2406 H 0.97272 0.45812 1.01154 0.0
C2407 C 0.06723 0.54312 0.05495 0.0
C2408 C 0.03022 0.52902 0.02701 0.0
H2409 H 0.96821 0.5073 0.02218 0.0
C2410 C 0.0411 0.52171 1.0163 0.0
C2411 C 1.00358 0.52382 0.02915 0.0
C2412 C 0.99049 0.53215 0.04029 0.0
C2413 C 0.02617 0.50907 1.00773 0.0
C2414 C 0.9995 0.50398 1.00985 0.0
C2415 C 0.98865 0.51115 0.02058 0.0
C2416 C 0.98243 0.49168 1.00094 0.0
C2417 C 0.03921 0.50083 0.99657 0.0
C2418 C 0.97816 0.50399 0.99019 0.0
C2419 C 0.96204 0.4925 0.98182 0.0
C2420 C 0.94966 0.46845 0.98403 0.0
C2421 C 0.95377 0.45631 0.99488 0.0
C2422 C 0.96989 0.46786 1.00326 0.0
H2423 H 0.06069 0.49968 0.99756 0.0
H2424 H 0.03187 0.48155 0.99361 0.0
H2425 H 0.03488 0.5154 0.98968 0.0
H2426 H 0.98724 0.52259 0.98828 0.0
H2427 H 0.95958 0.50235 0.97357 0.0
H2428 H 0.58168 0.58442 0.49285 0.0
H2429 H 0.556 0.5618 0.50763 0.0
H2430 H 0.5174 0.51734 0.48087 0.0
H2431 H 0.5428 0.54007 0.46599 0.0
H2432 H 0.50138 0.56075 0.50976 0.0
H2433 H 0.54148 0.46093 0.50397 0.0
H2434 H 0.5574 0.48965 0.49826 0.0
H2435 H 0.52965 0.47612 0.4909 0.0
C2436 C 0.5677 0.56991 0.49007 0.0
C2437 C 0.56437 0.56416 0.47818 0.0
C2438 C 0.5531 0.55689 0.49856 0.0
C2439 C 0.53497 0.53768 0.49538 0.0
C2440 C 0.53165 0.53173 0.48355 0.0
H2441 H 0.42789 0.44062 0.53549 0.0
H2442 H 0.4524 0.4623 0.51999 0.0
C2443 C 0.54623 0.54477 0.47504 0.0
C2444 C 0.51897 0.52457 0.50445 0.0
H2445 H 0.50562 0.46525 0.51674 0.0
C2446 C 0.50235 0.53988 0.51131 0.0
C2447 C 0.52015 0.49731 0.50642 0.0
C2448 C 0.53827 0.48 0.49958 0.0
C2449 C 0.4867 0.52868 0.52001 0.0
C2450 C 0.48808 0.50146 0.52209 0.0
C2451 C 0.50455 0.4861 0.51515 0.0
C2452 C 0.47293 0.48859 0.53152 0.0
C2453 C 0.46844 0.54605 0.52676 0.0
C2454 C 0.47647 0.49594 0.54318 0.0
C2455 C 0.4625 0.48356 0.55206 0.0
C2456 C 0.44483 0.46334 0.5495 0.0
C2457 C 0.44147 0.45591 0.53781 0.0
C2458 C 0.45541 0.46836 0.52892 0.0
H2459 H 0.46423 0.56446 0.52199 0.0
H2460 H 0.44976 0.53595 0.52859 0.0
H2461 H 0.47761 0.55131 0.53518 0.0
H2462 H 0.49035 0.51103 0.54544 0.0
H2463 H 0.46602 0.48948 0.56096 0.0
H2464 H 0.10807 0.10619 0.29995 0.0
H2465 H 0.09764 0.07585 0.28403 0.0
H2466 H 0.1579 0.02371 0.29593 0.0
H2467 H 0.16821 0.05348 0.31178 0.0
H2468 H 0.13128 0.05768 0.26611 0.0
H2469 H 0.09484 0.9754 0.29286 0.0
H2470 H 0.09816 1.00811 0.29851 0.0
H2471 H 0.12611 0.98712 0.29748 0.0
C2472 C 0.11887 0.08811 0.29924 0.0
C2473 C 0.13889 0.08225 0.30719 0.0
C2474 C 0.11296 0.07085 0.29012 0.0
C2475 C 0.12676 0.04732 0.28888 0.0
C2476 C 0.14664 0.04147 0.29683 0.0
H2477 H 0.13766 0.91547 0.24245 0.0
H2478 H 0.14358 0.94913 0.25731 0.0
C2479 C 0.15259 0.05865 0.30588 0.0
C2480 C 0.12124 0.02909 0.2791 0.0
H2481 H 0.10576 0.96558 0.27317 0.0
C2482 C 0.12538 0.03762 0.26762 0.0
C2483 C 0.11362 1.0029 0.28108 0.0
C2484 C 0.10767 0.99286 0.29314 0.0
C2485 C 0.12306 0.02041 0.25813 0.0
C2486 C 0.11604 0.99405 0.26016 0.0
C2487 C 0.11136 0.98571 0.27161 0.0
C2488 C 0.11358 0.97465 0.25058 0.0
C2489 C 0.12903 0.03034 0.24606 0.0
C2490 C 0.09486 0.97784 0.24178 0.0
C2491 C 0.09145 0.95862 0.23324 0.0
C2492 C 0.10661 0.93572 0.23335 0.0
C2493 C 0.1257 0.93286 0.24205 0.0
C2494 C 0.12906 0.95206 0.25059 0.0
H2495 H 0.14018 0.04893 0.24628 0.0
H2496 H 0.14031 0.0157 0.24105 0.0
H2497 H 0.1105 0.034 0.24137 0.0
H2498 H 0.08236 0.99484 0.24169 0.0
H2499 H 0.07647 0.96146 0.22673 0.0
H2500 H 0.19382 0.91061 0.5532 0.0
H2501 H 0.22653 0.906 0.53811 0.0
H2502 H 0.19234 0.83289 0.52753 0.0
H2503 H 0.15891 0.83749 0.54273 0.0
H2504 H 0.26263 0.86546 0.53585 0.0
H2505 H 0.19955 0.87399 0.4966 0.0
H2506 H 0.18869 0.88385 0.51087 0.0
H2507 H 0.19053 0.84984 0.50725 0.0
C2508 C 0.19303 0.89351 0.54767 0.0
C2509 C 0.17364 0.87439 0.54921 0.0
C2510 C 0.21185 0.89094 0.53902 0.0
C2511 C 0.21182 0.86924 0.53161 0.0
C2512 C 0.19251 0.85001 0.53304 0.0
H2513 H 0.32726 0.83948 0.47651 0.0
H2514 H 0.28955 0.83528 0.48946 0.0
C2515 C 0.17351 0.85258 0.54177 0.0
C2516 C 0.23274 0.86687 0.52273 0.0
H2517 H 0.24469 0.86972 0.49347 0.0
C2518 C 0.25867 0.86617 0.52658 0.0
C2519 C 0.22758 0.86771 0.51063 0.0
C2520 C 0.20012 0.86906 0.50602 0.0
C2521 C 0.27955 0.8669 0.51872 0.0
C2522 C 0.27443 0.86879 0.50665 0.0
C2523 C 0.24854 0.86845 0.50273 0.0
C2524 C 0.29587 0.87221 0.4981 0.0
C2525 C 0.30697 0.86585 0.52341 0.0
C2526 C 0.31146 0.89472 0.49843 0.0
C2527 C 0.33293 0.89724 0.49104 0.0
C2528 C 0.3393 0.87728 0.48314 0.0
C2529 C 0.32299 0.8552 0.48251 0.0
C2530 C 0.30142 0.85274 0.48989 0.0
H2531 H 0.30759 0.85775 0.53238 0.0
H2532 H 0.31964 0.8538 0.51773 0.0
H2533 H 0.31512 0.88592 0.52367 0.0
H2534 H 0.30728 0.91017 0.50457 0.0
H2535 H 0.34493 0.91456 0.49175 0.0
H2536 H 0.41416 0.09186 0.73481 0.0
H2537 H 0.40836 0.05729 0.74925 0.0
H2538 H 0.32518 0.06193 0.74498 0.0
H2539 H 0.3307 0.09682 0.73053 0.0
H2540 H 0.37451 0.06377 0.77091 0.0
H2541 H 0.34689 0.98139 0.74178 0.0
H2542 H 0.36555 0.00899 0.73662 0.0
H2543 H 0.3315 0.01261 0.73956 0.0
C2544 C 0.39459 0.0854 0.73681 0.0
C2545 C 0.37287 0.09718 0.73147 0.0
C2546 C 0.39134 0.06568 0.74511 0.0
C2547 C 0.36637 0.05704 0.74817 0.0
C2548 C 0.34464 0.06823 0.74269 0.0
H2549 H 0.32236 0.92871 0.79454 0.0
H2550 H 0.32091 0.96576 0.78108 0.0
C2551 C 0.34784 0.08816 0.73443 0.0
C2552 C 0.36322 0.03699 0.75741 0.0
H2553 H 0.34899 0.97262 0.76185 0.0
C2554 C 0.36882 0.04384 0.76896 0.0
C2555 C 0.35557 0.01114 0.75484 0.0
C2556 C 0.3496 1.00285 0.74254 0.0
C2557 C 0.3671 0.02547 0.77803 0.0
C2558 C 0.36034 0.99929 0.77543 0.0
C2559 C 0.35422 0.99262 0.76388 0.0
C2560 C 0.36045 0.97828 0.78444 0.0
C2561 C 0.37221 0.03444 0.79033 0.0
C2562 C 0.38304 0.97304 0.79094 0.0
C2563 C 0.38382 0.95205 0.79875 0.0
C2564 C 0.36216 0.9355 0.8001 0.0
C2565 C 0.33938 0.94107 0.79376 0.0
C2566 C 0.33855 0.96221 0.78601 0.0
H2567 H 0.36832 0.05566 0.79131 0.0
H2568 H 0.36002 0.0236 0.79668 0.0
H2569 H 0.39298 0.03107 0.7925 0.0
H2570 H 0.40044 0.98464 0.78969 0.0
H2571 H 0.4018 0.94819 0.80337 0.0
H2572 H 0.33618 0.07646 0.05215 0.0
H2573 H 0.3013 0.07742 0.03765 0.0
H2574 H 0.30997 0.16084 0.03444 0.0
H2575 H 0.34516 0.16004 0.04882 0.0
H2576 H 0.25415 0.10312 0.03773 0.0
H2577 H 0.31439 0.13727 1.00068 0.0
H2578 H 0.32845 0.12532 1.01407 0.0
H2579 H 0.31596 0.15805 1.01323 0.0
C2580 C 0.33072 0.09505 0.04837 0.0
C2581 C 0.34364 0.11816 0.05163 0.0
C2582 C 0.31073 0.09555 0.04007 0.0
C2583 C 0.30328 0.11912 0.03478 0.0
C2584 C 0.31576 0.14231 0.03818 0.0
H2585 H 0.18492 0.16438 0.98463 0.0
H2586 H 0.22118 0.16231 0.9984 0.0
C2587 C 0.33578 0.14184 0.04649 0.0
C2588 C 0.28217 0.11942 0.02585 0.0
H2589 H 0.26869 0.13591 0.99762 0.0
C2590 C 0.25737 0.11016 0.02894 0.0
C2591 C 0.28633 0.12859 1.01437 0.0
C2592 C 0.31277 0.13765 1.01032 0.0
C2593 C 0.23655 0.11034 0.02097 0.0
C2594 C 0.2407 0.11961 1.0095 0.0
C2595 C 0.2655 0.1288 1.0064 0.0
C2596 C 0.21939 0.12043 1.00068 0.0
C2597 C 0.21011 0.10126 0.02501 0.0
C2598 C 0.20667 0.09749 0.99712 0.0
C2599 C 0.18588 0.09858 0.98921 0.0
C2600 C 0.17743 0.12265 0.98466 0.0
C2601 C 0.1908 0.14549 0.98796 0.0
C2602 C 0.21157 0.14437 0.99585 0.0
H2603 H 0.20864 0.10102 0.03465 0.0
H2604 H 0.1945 0.114 0.02148 0.0
H2605 H 0.20665 0.08111 0.02183 0.0
H2606 H 0.2127 0.07871 1.00052 0.0
H2607 H 0.17615 0.08059 0.98685 0.0
H2608 H 0.86282 0.05893 0.81031 0.0
H2609 H 0.87057 0.0296 0.79407 0.0
H2610 H 0.91481 0.08944 0.77659 0.0
H2611 H 0.90701 0.11937 0.79299 0.0
H2612 H 0.87641 0.06392 0.76235 0.0
H2613 H 0.9386 0.99219 0.78528 0.0
H2614 H 0.90922 0.99945 0.79306 0.0
H2615 H 0.93301 0.02474 0.79077 0.0
C2616 C 0.87438 0.06596 0.80308 0.0
C2617 C 0.88435 0.09156 0.80298 0.0
C2618 C 0.87891 0.04902 0.7938 0.0
C2619 C 0.89357 0.05715 0.78418 0.0
C2620 C 0.9036 0.08271 0.78398 0.0
H2621 H 0.93089 0.93682 0.73233 0.0
H2622 H 0.93522 0.97387 0.74564 0.0
C2623 C 0.8992 0.09974 0.79336 0.0
C2624 C 0.89721 0.03897 0.77423 0.0
H2625 H 0.9177 0.97723 0.76781 0.0
C2626 C 0.88582 0.04513 0.76346 0.0
C2627 C 0.90975 0.01458 0.77563 0.0
C2628 C 0.92358 1.00741 0.78678 0.0
C2629 C 0.88542 0.02699 0.75428 0.0
C2630 C 0.89636 1.00188 0.75597 0.0
C2631 C 0.90901 0.99631 0.76653 0.0
C2632 C 0.89381 0.98066 0.74719 0.0
C2633 C 0.87306 0.03482 0.74289 0.0
C2634 C 0.86911 0.97202 0.74363 0.0
C2635 C 0.86656 0.95087 0.73601 0.0
C2636 C 0.88868 0.93769 0.73184 0.0
C2637 C 0.91343 0.94652 0.73534 0.0
C2638 C 0.91595 0.96771 0.74296 0.0
H2639 H 0.87338 0.05635 0.74169 0.0
H2640 H 0.8831 0.02558 0.7354 0.0
H2641 H 0.85242 0.02845 0.74284 0.0
H2642 H 0.85169 0.98121 0.74698 0.0
H2643 H 0.84719 0.94454 0.73357 0.0
H2644 H 0.68642 0.08887 0.54401 0.0
H2645 H 0.72564 0.09626 0.53246 0.0
H2646 H 0.7324 0.17391 0.54656 0.0
H2647 H 0.69302 0.16678 0.55811 0.0
H2648 H 0.73511 0.173 0.52258 0.0
H2649 H 0.80268 0.09986 0.54118 0.0
H2650 H 0.7718 0.08609 0.5372 0.0
H2651 H 0.77343 0.11012 0.54858 0.0
C2652 C 0.69643 0.10739 0.54481 0.0
C2653 C 0.6865 0.12721 0.55201 0.0
C2654 C 0.719 0.11153 0.53824 0.0
C2655 C 0.73221 0.13553 0.53874 0.0
C2656 C 0.72265 0.15518 0.54609 0.0
H2657 H 0.87624 0.156 0.4971 0.0
H2658 H 0.84606 0.15902 0.51372 0.0
C2659 C 0.70013 0.15103 0.55271 0.0
C2660 C 0.75464 0.14074 0.53087 0.0
H2661 H 0.81341 0.11641 0.52216 0.0
C2662 C 0.75242 0.16089 0.52263 0.0
C2663 C 0.77743 0.12522 0.531 0.0
C2664 C 0.78166 0.10428 0.54004 0.0
C2665 C 0.77162 0.16493 0.51411 0.0
C2666 C 0.79354 0.14827 0.51375 0.0
C2667 C 0.79653 0.1291 0.52239 0.0
C2668 C 0.81188 0.14851 0.50374 0.0
C2669 C 0.76796 0.18663 0.50537 0.0
C2670 C 0.80268 0.14169 0.49267 0.0
C2671 C 0.81974 0.13982 0.48328 0.0
C2672 C 0.84649 0.14478 0.48469 0.0
C2673 C 0.85571 0.1523 0.49572 0.0
C2674 C 0.83853 0.1539 0.50522 0.0
H2675 H 0.7549 0.20211 0.50878 0.0
H2676 H 0.7869 0.19558 0.50296 0.0
H2677 H 0.75895 0.17855 0.49737 0.0
H2678 H 0.78231 0.13706 0.49135 0.0
H2679 H 0.81196 0.13397 0.47492 0.0
H2680 H 0.68442 0.09013 0.23176 0.0
H2681 H 0.68614 0.05371 0.24562 0.0
H2682 H 0.60241 0.05431 0.24803 0.0
H2683 H 0.60047 0.09008 0.23404 0.0
H2684 H 0.6701 0.05161 0.26807 0.0
H2685 H 0.61559 0.97798 0.24264 0.0
H2686 H 0.62758 1.00782 0.23623 0.0
H2687 H 0.59757 1.00769 0.24431 0.0
C2688 C 0.66635 0.08226 0.23512 0.0
C2689 C 0.64231 0.09297 0.23169 0.0
C2690 C 0.66737 0.06149 0.24308 0.0
C2691 C 0.64439 0.05091 0.24776 0.0
C2692 C 0.6204 0.06159 0.24434 0.0
H2693 H 0.60063 0.93955 0.30091 0.0
H2694 H 0.60346 0.97558 0.28696 0.0
C2695 C 0.61935 0.08221 0.23636 0.0
C2696 C 0.64539 0.0295 0.25657 0.0
H2697 H 0.62099 0.969 0.26294 0.0
C2698 C 0.65958 0.03344 0.26689 0.0
C2699 C 0.63173 1.0057 0.25505 0.0
C2700 C 0.61749 0.9994 0.24391 0.0
C2701 C 0.65979 0.01464 0.27585 0.0
C2702 C 0.64553 0.99123 0.27444 0.0
C2703 C 0.6317 0.98709 0.26406 0.0
C2704 C 0.64456 0.97073 0.28361 0.0
C2705 C 0.67465 0.02021 0.28689 0.0
C2706 C 0.66682 0.95617 0.28647 0.0
C2707 C 0.66528 0.93546 0.29443 0.0
C2708 C 0.64143 0.9289 0.29971 0.0
C2709 C 0.61935 0.94408 0.29708 0.0
C2710 C 0.62089 0.96464 0.28906 0.0
H2711 H 0.68053 0.04104 0.28753 0.0
H2712 H 0.66278 0.01506 0.29463 0.0
H2713 H 0.69252 1.00806 0.28709 0.0
H2714 H 0.68523 0.96031 0.28227 0.0
H2715 H 0.68264 0.92416 0.2962 0.0
H2716 H 0.67793 0.84369 0.98485 0.0
H2717 H 0.71236 0.84675 0.99946 0.0
H2718 H 0.71426 0.93038 0.99519 0.0
H2719 H 0.6794 0.92756 0.9807 0.0
H2720 H 0.76206 0.86544 0.99797 0.0
H2721 H 0.70623 0.92335 0.03019 0.0
H2722 H 0.69098 0.90782 0.01785 0.0
H2723 H 0.70821 0.93813 1.01604 0.0
C2724 C 0.68565 0.86278 0.98699 0.0
C2725 C 0.67573 0.88541 0.98161 0.0
C2726 C 0.70536 0.86448 0.99537 0.0
C2727 C 0.71561 0.88883 0.99861 0.0
C2728 C 0.70625 0.91142 0.99306 0.0
H2729 H 0.83915 0.93351 0.04696 0.0
H2730 H 0.80385 0.93311 0.03261 0.0
C2731 C 0.68644 0.90975 0.98469 0.0
C2732 C 0.73633 0.89037 1.00768 0.0
H2733 H 0.75088 0.91621 0.03436 0.0
C2734 C 0.75956 0.87649 1.00594 0.0
C2735 C 0.73313 0.90481 0.01809 0.0
C2736 C 0.70822 0.91919 0.02074 0.0
C2737 C 0.77971 0.87684 1.01423 0.0
C2738 C 0.77645 0.89115 0.02465 0.0
C2739 C 0.75335 0.90524 0.02637 0.0
C2740 C 0.79681 0.89157 0.03388 0.0
C2741 C 0.80453 0.86222 1.01167 0.0
C2742 C 0.80411 0.86848 0.03961 0.0
C2743 C 0.82422 0.86863 0.04784 0.0
C2744 C 0.83746 0.89193 0.05055 0.0
C2745 C 0.82946 0.9152 0.04508 0.0
C2746 C 0.80928 0.91503 0.03686 0.0
H2747 H 0.80651 0.85775 1.00225 0.0
H2748 H 0.8218 0.8736 1.01451 0.0
H2749 H 0.80444 0.84345 1.01651 0.0
H2750 H 0.79443 0.85023 0.03761 0.0
H2751 H 0.82975 0.85035 0.0519 0.0
H2752 H 0.59407 0.42906 0.7292 0.0
H2753 H 0.59543 0.46735 0.74198 0.0
H2754 H 0.66677 0.43937 0.7573 0.0
H2755 H 0.66556 0.40111 0.74464 0.0
H2756 H 0.62886 0.45468 0.77378 0.0
H2757 H 0.64465 0.53116 0.74016 0.0
H2758 H 0.61759 0.50965 0.73757 0.0
H2759 H 0.65014 0.49692 0.73737 0.0
C2760 C 0.61018 0.43116 0.73521 0.0
C2761 C 0.62975 0.41197 0.73584 0.0
C2762 C 0.61096 0.45312 0.74249 0.0
C2763 C 0.63132 0.45637 0.75055 0.0
C2764 C 0.6509 0.43733 0.75115 0.0
H2765 H 0.67863 0.59224 0.79011 0.0
H2766 H 0.6751 0.55456 0.77717 0.0
C2767 C 0.6502 0.41547 0.74386 0.0
C2768 C 0.63196 0.47915 0.7586 0.0
H2769 H 0.6377 0.54565 0.75944 0.0
C2770 C 0.63072 0.47458 0.77064 0.0
C2771 C 0.63465 0.5051 0.75452 0.0
C2772 C 0.63706 0.51114 0.74171 0.0
C2773 C 0.63199 0.49522 0.7787 0.0
C2774 C 0.63434 0.52119 0.77462 0.0
C2775 C 0.6357 0.52576 0.76257 0.0
C2776 C 0.63632 0.54383 0.78271 0.0
C2777 C 0.63144 0.48901 0.79154 0.0
C2778 C 0.61566 0.55045 0.79014 0.0
C2779 C 0.61759 0.57208 0.79757 0.0
C2780 C 0.64025 0.58755 0.79772 0.0
C2781 C 0.66092 0.58076 0.79028 0.0
C2782 C 0.65892 0.55924 0.78284 0.0
H2783 H 0.63533 0.46802 0.79326 0.0
H2784 H 0.64603 0.50089 0.79631 0.0
H2785 H 0.61192 0.49376 0.79506 0.0
H2786 H 0.59787 0.53909 0.79007 0.0
H2787 H 0.60124 0.57679 0.80312 0.0
H2788 H 0.8543 0.34847 0.9851 0.0
H2789 H 0.81948 0.33698 0.99887 0.0
H2790 H 0.77722 0.40616 0.98885 0.0
H2791 H 0.81127 0.41741 0.97508 0.0
H2792 H 0.8024 0.36363 0.01766 0.0
H2793 H 0.72021 0.35241 0.98719 0.0
H2794 H 0.7536 0.35331 0.98233 0.0
H2795 H 0.73609 0.38319 0.98499 0.0
C2796 C 0.83742 0.36103 0.98575 0.0
C2797 C 0.8356 0.38381 0.97893 0.0
C2798 C 0.81753 0.35445 0.99362 0.0
C2799 C 0.79537 0.37039 0.99474 0.0
C2800 C 0.79364 0.39308 0.98793 0.0
H2801 H 0.69978 0.41134 0.05102 0.0
H2802 H 0.73294 0.40316 0.03647 0.0
C2803 C 0.81337 0.39963 0.9801 0.0
C2804 C 0.7748 0.36471 1.00355 0.0
H2805 H 0.70873 0.36324 1.00711 0.0
C2806 C 0.78195 0.36302 1.01532 0.0
C2807 C 0.74806 0.36333 1.00056 0.0
C2808 C 0.73907 0.36286 0.98806 0.0
C2809 C 0.7631 0.36191 0.02418 0.0
C2810 C 0.73634 0.36308 0.02122 0.0
C2811 C 0.72919 0.3628 1.00943 0.0
C2812 C 0.71581 0.36724 0.03019 0.0
C2813 C 0.77211 0.36006 0.03665 0.0
C2814 C 0.69441 0.35025 0.03131 0.0
C2815 C 0.67501 0.35502 0.03967 0.0
C2816 C 0.6766 0.37702 0.04697 0.0
C2817 C 0.6979 0.39408 0.04566 0.0
C2818 C 0.71712 0.38932 0.03736 0.0
H2819 H 0.79132 0.3502 0.03728 0.0
H2820 H 0.77437 0.38003 0.04025 0.0
H2821 H 0.7579 0.34923 0.0421 0.0
H2822 H 0.69281 0.33324 0.02577 0.0
H2823 H 0.65884 0.34155 0.04042 0.0
H2824 H 0.82407 0.42596 0.29431 0.0
H2825 H 0.8259 0.46231 0.28047 0.0
H2826 H 0.903 0.48167 0.2925 0.0
H2827 H 0.90142 0.44535 0.30635 0.0
H2828 H 0.83592 0.51779 0.28393 0.0
H2829 H 0.91119 0.46921 0.25683 0.0
H2830 H 0.89208 0.45175 0.26748 0.0
H2831 H 0.91861 0.47212 0.27207 0.0
C2832 C 0.84132 0.43811 0.29412 0.0
C2833 C 0.86266 0.43258 0.30141 0.0
C2834 C 0.84233 0.45888 0.28619 0.0
C2835 C 0.86476 0.47441 0.28531 0.0
C2836 C 0.88566 0.46966 0.2929 0.0
H2837 H 0.91177 0.59713 0.2369 0.0
H2838 H 0.90997 0.56366 0.25212 0.0
C2839 C 0.88463 0.44898 0.30088 0.0
C2840 C 0.86653 0.49504 0.27622 0.0
H2841 H 0.8987 0.51177 0.25127 0.0
C2842 C 0.84962 0.5165 0.27678 0.0
C2843 C 0.88446 0.49334 0.26691 0.0
C2844 C 0.90252 0.4703 0.26567 0.0
C2845 C 0.85039 0.53649 0.26837 0.0
C2846 C 0.8681 0.53463 0.25896 0.0
C2847 C 0.88511 0.51321 0.25846 0.0
C2848 C 0.86922 0.55462 0.24953 0.0
C2849 C 0.83259 0.55968 0.26981 0.0
C2850 C 0.84711 0.56029 0.24279 0.0
C2851 C 0.84806 0.57947 0.23411 0.0
C2852 C 0.87123 0.59324 0.23186 0.0
C2853 C 0.89358 0.58696 0.23839 0.0
C2854 C 0.89258 0.56783 0.24711 0.0
H2855 H 0.8261 0.56189 0.27897 0.0
H2856 H 0.84232 0.57803 0.26704 0.0
H2857 H 0.81501 0.55686 0.26434 0.0
H2858 H 0.82906 0.54988 0.24425 0.0
H2859 H 0.83052 0.58363 0.22921 0.0
H2860 H 0.66162 0.68094 0.48728 0.0
H2861 H 0.69488 0.68665 0.50256 0.0
H2862 H 0.71196 0.60435 0.50128 0.0
H2863 H 0.67925 0.59845 0.48621 0.0
H2864 H 0.70172 0.65834 0.52553 0.0
H2865 H 0.78242 0.64266 0.4943 0.0
H2866 H 0.75 0.6517 0.48973 0.0
H2867 H 0.75715 0.61845 0.4936 0.0
C2868 C 0.67234 0.66407 0.49034 0.0
C2869 C 0.66794 0.6393 0.48541 0.0
C2870 C 0.6913 0.66736 0.49906 0.0
C2871 C 0.70613 0.64596 0.50291 0.0
C2872 C 0.70103 0.62118 0.49831 0.0
H2873 H 0.83394 0.60231 0.54646 0.0
H2874 H 0.79608 0.60549 0.53365 0.0
C2875 C 0.68224 0.61788 0.48967 0.0
C2876 C 0.72764 0.64909 0.51144 0.0
H2877 H 0.79308 0.6395 0.51442 0.0
C2878 C 0.72177 0.65464 0.52311 0.0
C2879 C 0.75376 0.6442 0.50825 0.0
C2880 C 0.76134 0.63914 0.49577 0.0
C2881 C 0.74125 0.65423 0.53176 0.0
C2882 C 0.76723 0.6484 0.52859 0.0
C2883 C 0.77313 0.64373 0.51686 0.0
C2884 C 0.78862 0.64623 0.53728 0.0
C2885 C 0.73375 0.65895 0.54426 0.0
C2886 C 0.79689 0.66802 0.54369 0.0
C2887 C 0.81859 0.66627 0.55106 0.0
C2888 C 0.83253 0.6427 0.5521 0.0
C2889 C 0.82371 0.62075 0.5459 0.0
C2890 C 0.80207 0.62254 0.53854 0.0
H2891 H 0.71236 0.65776 0.54557 0.0
H2892 H 0.74336 0.64457 0.55009 0.0
H2893 H 0.74028 0.67874 0.54688 0.0
H2894 H 0.7871 0.68661 0.54272 0.0
H2895 H 0.82489 0.68361 0.55566 0.0
H2896 H 0.42882 0.55138 0.31138 0.0
H2897 H 0.42923 0.51875 0.29584 0.0
H2898 H 0.3723 0.56346 0.27677 0.0
H2899 H 0.37207 0.59639 0.29216 0.0
H2900 H 0.39067 0.48769 0.28671 0.0
H2901 H 0.42889 0.55378 0.25256 0.0
H2902 H 0.42912 0.56232 0.26779 0.0
H2903 H 0.39985 0.56587 0.25932 0.0
C2904 C 0.41634 0.55431 0.30389 0.0
C2905 C 0.40054 0.57669 0.30301 0.0
C2906 C 0.41661 0.53559 0.295 0.0
C2907 C 0.40121 0.53884 0.285 0.0
C2908 C 0.38488 0.56078 0.28425 0.0
H2909 H 0.36241 0.4539 0.22305 0.0
H2910 H 0.36805 0.48452 0.23907 0.0
C2911 C 0.38462 0.57954 0.29312 0.0
C2912 C 0.40205 0.51923 0.2754 0.0
H2913 H 0.41245 0.51269 0.24615 0.0
C2914 C 0.39569 0.4931 0.27786 0.0
C2915 C 0.40876 0.52619 0.26385 0.0
C2916 C 0.4173 0.5535 0.26072 0.0
C2917 C 0.39485 0.47405 0.26903 0.0
C2918 C 0.40089 0.4812 0.25744 0.0
C2919 C 0.40779 0.50719 0.25503 0.0
C2920 C 0.39852 0.46249 0.24756 0.0
C2921 C 0.38656 0.44663 0.2721 0.0
C2922 C 0.41415 0.44 0.24683 0.0
C2923 C 0.41103 0.42233 0.23758 0.0
C2924 C 0.39219 0.42682 0.22891 0.0
C2925 C 0.37704 0.44967 0.22957 0.0
C2926 C 0.38024 0.46729 0.23874 0.0
H2927 H 0.3777 0.44552 0.28091 0.0
H2928 H 0.37232 0.43911 0.26565 0.0
H2929 H 0.40382 0.43364 0.27197 0.0
H2930 H 0.4287 0.43608 0.25343 0.0
H2931 H 0.42303 0.40497 0.23734 0.0
H2932 H 0.35588 0.69595 0.98704 0.0
H2933 H 0.3216 0.70669 1.00123 0.0
H2934 H 0.29709 0.62618 1.00153 0.0
H2935 H 0.33073 0.61539 0.98752 0.0
H2936 H 0.2558 0.66285 0.99855 0.0
H2937 H 0.31957 0.68619 0.03639 0.0
H2938 H 0.32572 0.70268 0.02282 0.0
H2939 H 0.33141 0.66824 0.02397 0.0
C2940 C 0.34328 0.68056 0.99021 0.0
C2941 C 0.34612 0.65481 0.98612 0.0
C2942 C 0.32372 0.68671 0.99831 0.0
C2943 C 0.30678 0.6672 1.00245 0.0
C2944 C 0.30981 0.64157 0.99843 0.0
H2945 H 0.21497 0.62623 0.05904 0.0
H2946 H 0.24731 0.63706 0.04441 0.0
C2947 C 0.3292 0.63544 0.99042 0.0
C2948 C 0.28564 0.67283 1.01092 0.0
H2949 H 0.27466 0.68359 0.03983 0.0
C2950 C 0.2598 0.66794 1.00754 0.0
C2951 C 0.29096 0.67933 0.02264 0.0
C2952 C 0.31838 0.68432 0.02677 0.0
C2953 C 0.23935 0.66799 1.01566 0.0
C2954 C 0.24483 0.67337 0.02749 0.0
C2955 C 0.27047 0.67962 0.03075 0.0
C2956 C 0.22522 0.66868 0.03679 0.0
C2957 C 0.21236 0.66056 1.01167 0.0
C2958 C 0.20198 0.68311 0.03752 0.0
C2959 C 0.18316 0.67687 0.04597 0.0
C2960 C 0.18732 0.65609 0.05378 0.0
C2961 C 0.21092 0.64224 0.05315 0.0
C2962 C 0.22959 0.64849 0.04479 0.0
H2963 H 0.21212 0.65347 1.00254 0.0
H2964 H 0.20417 0.64508 1.01737 0.0
H2965 H 0.19942 0.67784 1.01224 0.0
H2966 H 0.1983 0.699 0.03152 0.0
H2967 H 0.16526 0.68799 0.04625 0.0
H2968 H 0.11408 0.43573 0.80814 0.0
H2969 H 0.11126 0.4701 0.79334 0.0
H2970 H 0.18324 0.44334 0.77822 0.0
H2971 H 0.18669 0.40977 0.79321 0.0
H2972 H 0.18286 0.4943 0.77855 0.0
H2973 H 0.08867 0.46108 0.76036 0.0
H2974 H 0.08652 0.46903 0.77552 0.0
H2975 H 0.10659 0.44216 0.7709 0.0
C2976 C 0.12936 0.43726 0.80169 0.0
C2977 C 0.15056 0.4199 0.80185 0.0
C2978 C 0.12761 0.45679 0.79315 0.0
C2979 C 0.14671 0.45901 0.78444 0.0
C2980 C 0.16816 0.44204 0.78477 0.0
H2981 H 0.12421 0.54313 0.71905 0.0
H2982 H 0.13038 0.50991 0.73415 0.0
C2983 C 0.17011 0.42279 0.79338 0.0
C2984 C 0.14462 0.47899 0.77501 0.0
H2985 H 0.10461 0.50186 0.7535 0.0
C2986 C 0.16576 0.49587 0.77305 0.0
C2987 C 0.12255 0.48081 0.76764 0.0
C2988 C 0.09992 0.46213 0.76861 0.0
C2989 C 0.16537 0.51459 0.76408 0.0
C2990 C 0.14284 0.51718 0.75705 0.0
C2991 C 0.12181 0.50012 0.75892 0.0
C2992 C 0.14058 0.53737 0.74772 0.0
C2993 C 0.18944 0.53087 0.76207 0.0
C2994 C 0.1443 0.56395 0.75024 0.0
C2995 C 0.14121 0.58294 0.74157 0.0
C2996 C 0.13376 0.57587 0.73021 0.0
C2997 C 0.13004 0.54926 0.72769 0.0
C2998 C 0.13347 0.53024 0.73633 0.0
H2999 H 0.20716 0.52092 0.76539 0.0
H3000 H 0.19224 0.53519 0.75268 0.0
H3001 H 0.18751 0.54962 0.76681 0.0
H3002 H 0.14902 0.57015 0.75899 0.0
H3003 H 0.1439 0.60326 0.74388 0.0
H3004 H 0.17805 0.34773 0.4786 0.0
H3005 H 0.21605 0.34346 0.49145 0.0
H3006 H 0.2013 0.42017 0.50529 0.0
H3007 H 0.16348 0.42467 0.49255 0.0
H3008 H 0.26226 0.37795 0.49455 0.0
H3009 H 0.20057 0.3695 0.53398 0.0
H3010 H 0.18805 0.36428 0.51947 0.0
H3011 H 0.19298 0.39688 0.52479 0.0
C3012 C 0.18304 0.36381 0.4843 0.0
C3013 C 0.16755 0.38649 0.48459 0.0
C3014 C 0.20477 0.36132 0.49163 0.0
C3015 C 0.21127 0.38134 0.49944 0.0
C3016 C 0.19642 0.40433 0.49944 0.0
H3017 H 0.31529 0.42297 0.55346 0.0
H3018 H 0.28184 0.41723 0.53872 0.0
C3019 C 0.17483 0.40689 0.49211 0.0
C3020 C 0.23296 0.37814 0.5079 0.0
H3021 H 0.24573 0.37695 0.53707 0.0
C3022 C 0.25872 0.37737 0.50385 0.0
C3023 C 0.22826 0.3772 0.52002 0.0
C3024 C 0.20097 0.37676 0.52486 0.0
C3025 C 0.27995 0.37714 0.51164 0.0
C3026 C 0.27521 0.37725 0.52377 0.0
C3027 C 0.24939 0.37694 0.52778 0.0
C3028 C 0.29646 0.38022 0.53251 0.0
C3029 C 0.30724 0.37807 0.50684 0.0
C3030 C 0.31596 0.36123 0.534 0.0
C3031 C 0.33538 0.36447 0.54252 0.0
C3032 C 0.33553 0.38672 0.54969 0.0
C3033 C 0.3159 0.40556 0.54813 0.0
C3034 C 0.29665 0.40232 0.53968 0.0
H3035 H 0.30749 0.3825 0.49737 0.0
H3036 H 0.31898 0.39303 0.51146 0.0
H3037 H 0.31672 0.35885 0.5082 0.0
H3038 H 0.31598 0.34378 0.52869 0.0
H3039 H 0.35016 0.34956 0.54351 0.0
loop_
_geom_bond_atom_site_label_1
_geom_bond_atom_site_label_2
_geom_bond_distance
_geom_bond_site_symmetry_2
_ccdc_geom_bond_type
Cu0 N1 1.999 . S
Cu0 O6 1.974 . S
Cu0 N11 1.985 . S
Cu0 O20 1.959 . S
N1 Cu0 1.999 . S
N1 C3 1.263 . S
N1 C5 1.389 . S
N2 C3 1.358 . S
N2 C4 1.400 . S
C3 N1 1.263 . S
C3 N2 1.358 . S
C3 H9 0.930 . S
C4 N2 1.400 . S
C4 C5 1.351 . S
C4 H21 0.930 . S
C5 N1 1.389 . S
C5 C4 1.351 . S
C5 H10 0.930 . S
O6 Cu0 1.974 . S
O6 C16 1.282 . S
C7 O8 1.261 . S
C7 O20 1.251 . S
O8 C7 1.261 . S
H9 C3 0.930 . S
H10 C5 0.930 . S
N11 Cu0 1.985 . S
N11 C13 1.335 . S
N11 C14 1.390 . S
N12 C13 1.345 . S
N12 C15 1.336 . S
C13 N11 1.335 . S
C13 N12 1.345 . S
C13 H18 0.930 . S
C14 N11 1.390 . S
C14 C15 1.346 . S
C14 H19 0.930 . S
C15 N12 1.336 . S
C15 C14 1.346 . S
C15 H22 0.929 . S
C16 O6 1.282 . S
C16 O17 1.216 . S
O17 C16 1.216 . S
H18 C13 0.930 . S
H19 C14 0.930 . S
O20 Cu0 1.959 . S
O20 C7 1.251 . S
H21 C4 0.930 . S
H22 C15 0.929 . S
Cu23 N24 1.999 . S
Cu23 O29 1.974 . S
Cu23 N34 1.985 . S
Cu23 O43 1.959 . S
N24 Cu23 1.999 . S
N24 C26 1.263 . S
N24 C28 1.389 . S
N25 C26 1.358 . S
N25 C27 1.400 . S
C26 N24 1.263 . S
C26 N25 1.358 . S
C26 H32 0.930 . S
C27 N25 1.400 . S
C27 C28 1.351 . S
C27 H44 0.930 . S
C28 N24 1.389 . S
C28 C27 1.351 . S
C28 H33 0.930 . S
O29 Cu23 1.974 . S
O29 C39 1.282 . S
C30 O31 1.261 . S
C30 O43 1.251 . S
O31 C30 1.261 . S
H32 C26 0.930 . S
H33 C28 0.930 . S
N34 Cu23 1.985 . S
N34 C36 1.335 . S
N34 C37 1.390 . S
N35 C36 1.345 . S
N35 C38 1.336 . S
C36 N34 1.335 . S
C36 N35 1.345 . S
C36 H41 0.930 . S
C37 N34 1.390 . S
C37 C38 1.346 . S
C37 H42 0.930 . S
C38 N35 1.336 . S
C38 C37 1.346 . S
C38 H45 0.929 . S
C39 O29 1.282 . S
C39 O40 1.216 . S
O40 C39 1.216 . S
H41 C36 0.930 . S
H42 C37 0.930 . S
O43 Cu23 1.959 . S
O43 C30 1.251 . S
H44 C27 0.930 . S
H45 C38 0.929 . S
Cu46 N47 1.999 . S
Cu46 O52 1.974 . S
Cu46 N57 1.985 . S
Cu46 O66 1.959 . S
N47 Cu46 1.999 . S
N47 C49 1.263 . S
N47 C51 1.389 . S
N48 C49 1.358 . S
N48 C50 1.400 . S
C49 N47 1.263 . S
C49 N48 1.358 . S
C49 H55 0.930 . S
C50 N48 1.400 . S
C50 C51 1.351 . S
C50 H67 0.930 . S
C51 N47 1.389 . S
C51 C50 1.351 . S
C51 H56 0.930 . S
O52 Cu46 1.974 . S
O52 C62 1.282 . S
C53 O54 1.261 . S
C53 O66 1.251 . S
O54 C53 1.261 . S
H55 C49 0.930 . S
H56 C51 0.930 . S
N57 Cu46 1.985 . S
N57 C59 1.335 . S
N57 C60 1.390 . S
N58 C59 1.345 . S
N58 C61 1.336 . S
C59 N57 1.335 . S
C59 N58 1.345 . S
C59 H64 0.930 . S
C60 N57 1.390 . S
C60 C61 1.346 . S
C60 H65 0.930 . S
C61 N58 1.336 . S
C61 C60 1.346 . S
C61 H68 0.929 . S
C62 O52 1.282 . S
C62 O63 1.216 . S
O63 C62 1.216 . S
H64 C59 0.930 . S
H65 C60 0.930 . S
O66 Cu46 1.959 . S
O66 C53 1.251 . S
H67 C50 0.930 . S
H68 C61 0.929 . S
Cu69 N70 1.999 . S
Cu69 O75 1.974 . S
Cu69 N80 1.985 . S
Cu69 O89 1.959 . S
N70 Cu69 1.999 . S
N70 C72 1.263 . S
N70 C74 1.389 . S
N71 C72 1.358 . S
N71 C73 1.400 . S
C72 N70 1.263 . S
C72 N71 1.358 . S
C72 H78 0.930 . S
C73 N71 1.400 . S
C73 C74 1.351 . S
C73 H90 0.930 . S
C74 N70 1.389 . S
C74 C73 1.351 . S
C74 H79 0.930 . S
O75 Cu69 1.974 . S
O75 C85 1.282 . S
C76 O77 1.261 . S
C76 O89 1.251 . S
O77 C76 1.261 . S
H78 C72 0.930 . S
H79 C74 0.930 . S
N80 Cu69 1.985 . S
N80 C82 1.335 . S
N80 C83 1.390 . S
N81 C82 1.345 . S
N81 C84 1.336 . S
C82 N80 1.335 . S
C82 N81 1.345 . S
C82 H87 0.930 . S
C83 N80 1.390 . S
C83 C84 1.346 . S
C83 H88 0.930 . S
C84 N81 1.336 . S
C84 C83 1.346 . S
C84 H91 0.929 . S
C85 O75 1.282 . S
C85 O86 1.216 . S
O86 C85 1.216 . S
H87 C82 0.930 . S
H88 C83 0.930 . S
O89 Cu69 1.959 . S
O89 C76 1.251 . S
H90 C73 0.930 . S
H91 C84 0.929 . S
Cu92 N93 1.999 . S
Cu92 O98 1.974 . S
Cu92 N103 1.985 . S
Cu92 O112 1.959 . S
N93 Cu92 1.999 . S
N93 C95 1.263 . S
N93 C97 1.389 . S
N94 C95 1.358 . S
N94 C96 1.400 . S
C95 N93 1.263 . S
C95 N94 1.358 . S
C95 H101 0.930 . S
C96 N94 1.400 . S
C96 C97 1.351 . S
C96 H113 0.930 . S
C97 N93 1.389 . S
C97 C96 1.351 . S
C97 H102 0.930 . S
O98 Cu92 1.974 . S
O98 C108 1.282 . S
C99 O100 1.261 . S
C99 O112 1.251 . S
O100 C99 1.261 . S
H101 C95 0.930 . S
H102 C97 0.930 . S
N103 Cu92 1.985 . S
N103 C105 1.335 . S
N103 C106 1.390 . S
N104 C105 1.345 . S
N104 C107 1.336 . S
C105 N103 1.335 . S
C105 N104 1.345 . S
C105 H110 0.930 . S
C106 N103 1.390 . S
C106 C107 1.346 . S
C106 H111 0.930 . S
C107 N104 1.336 . S
C107 C106 1.346 . S
C107 H114 0.929 . S
C108 O98 1.282 . S
C108 O109 1.216 . S
O109 C108 1.216 . S
H110 C105 0.930 . S
H111 C106 0.930 . S
O112 Cu92 1.959 . S
O112 C99 1.251 . S
H113 C96 0.930 . S
H114 C107 0.929 . S
Cu115 N116 1.999 . S
Cu115 O121 1.974 . S
Cu115 N126 1.985 . S
Cu115 O135 1.959 . S
N116 Cu115 1.999 . S
N116 C118 1.263 . S
N116 C120 1.389 . S
N117 C118 1.358 . S
N117 C119 1.400 . S
C118 N116 1.263 . S
C118 N117 1.358 . S
C118 H124 0.930 . S
C119 N117 1.400 . S
C119 C120 1.351 . S
C119 H136 0.930 . S
C120 N116 1.389 . S
C120 C119 1.351 . S
C120 H125 0.930 . S
O121 Cu115 1.974 . S
O121 C131 1.282 . S
C122 O123 1.261 . S
C122 O135 1.251 . S
O123 C122 1.261 . S
H124 C118 0.930 . S
H125 C120 0.930 . S
N126 Cu115 1.985 . S
N126 C128 1.335 . S
N126 C129 1.390 . S
N127 C128 1.345 . S
N127 C130 1.336 . S
C128 N126 1.335 . S
C128 N127 1.345 . S
C128 H133 0.930 . S
C129 N126 1.390 . S
C129 C130 1.346 . S
C129 H134 0.930 . S
C130 N127 1.336 . S
C130 C129 1.346 . S
C130 H137 0.929 . S
C131 O121 1.282 . S
C131 O132 1.216 . S
O132 C131 1.216 . S
H133 C128 0.930 . S
H134 C129 0.930 . S
O135 Cu115 1.959 . S
O135 C122 1.251 . S
H136 C119 0.930 . S
H137 C130 0.929 . S
Cu138 N139 1.999 . S
Cu138 O144 1.974 . S
Cu138 N149 1.985 . S
Cu138 O158 1.959 . S
N139 Cu138 1.999 . S
N139 C141 1.263 . S
N139 C143 1.389 . S
N140 C141 1.358 . S
N140 C142 1.400 . S
C141 N139 1.263 . S
C141 N140 1.358 . S
C141 H147 0.930 . S
C142 N140 1.400 . S
C142 C143 1.351 . S
C142 H159 0.930 . S
C143 N139 1.389 . S
C143 C142 1.351 . S
C143 H148 0.930 . S
O144 Cu138 1.974 . S
O144 C154 1.282 . S
C145 O146 1.261 . S
C145 O158 1.251 . S
O146 C145 1.261 . S
H147 C141 0.930 . S
H148 C143 0.930 . S
N149 Cu138 1.985 . S
N149 C151 1.335 . S
N149 C152 1.390 . S
N150 C151 1.345 . S
N150 C153 1.336 . S
C151 N149 1.335 . S
C151 N150 1.345 . S
C151 H156 0.930 . S
C152 N149 1.390 . S
C152 C153 1.346 . S
C152 H157 0.930 . S
C153 N150 1.336 . S
C153 C152 1.346 . S
C153 H160 0.929 . S
C154 O144 1.282 . S
C154 O155 1.216 . S
O155 C154 1.216 . S
H156 C151 0.930 . S
H157 C152 0.930 . S
O158 Cu138 1.959 . S
O158 C145 1.251 . S
H159 C142 0.930 . S
H160 C153 0.929 . S
Cu161 N162 1.999 . S
Cu161 O167 1.974 . S
Cu161 N172 1.985 . S
Cu161 O181 1.959 . S
N162 Cu161 1.999 . S
N162 C164 1.263 . S
N162 C166 1.389 . S
N163 C164 1.358 . S
N163 C165 1.400 . S
C164 N162 1.263 . S
C164 N163 1.358 . S
C164 H170 0.930 . S
C165 N163 1.400 . S
C165 C166 1.351 . S
C165 H182 0.930 . S
C166 N162 1.389 . S
C166 C165 1.351 . S
C166 H171 0.930 . S
O167 Cu161 1.974 . S
O167 C177 1.282 . S
C168 O169 1.261 . S
C168 O181 1.251 . S
O169 C168 1.261 . S
H170 C164 0.930 . S
H171 C166 0.930 . S
N172 Cu161 1.985 . S
N172 C174 1.335 . S
N172 C175 1.390 . S
N173 C174 1.345 . S
N173 C176 1.336 . S
C174 N172 1.335 . S
C174 N173 1.345 . S
C174 H179 0.930 . S
C175 N172 1.390 . S
C175 C176 1.346 . S
C175 H180 0.930 . S
C176 N173 1.336 . S
C176 C175 1.346 . S
C176 H183 0.929 . S
C177 O167 1.282 . S
C177 O178 1.216 . S
O178 C177 1.216 . S
H179 C174 0.930 . S
H180 C175 0.930 . S
O181 Cu161 1.959 . S
O181 C168 1.251 . S
H182 C165 0.930 . S
H183 C176 0.929 . S
Cu184 N185 1.999 . S
Cu184 O190 1.974 . S
Cu184 N195 1.985 . S
Cu184 O204 1.959 . S
N185 Cu184 1.999 . S
N185 C187 1.263 . S
N185 C189 1.389 . S
N186 C187 1.358 . S
N186 C188 1.400 . S
C187 N185 1.263 . S
C187 N186 1.358 . S
C187 H193 0.930 . S
C188 N186 1.400 . S
C188 C189 1.351 . S
C188 H205 0.930 . S
C189 N185 1.389 . S
C189 C188 1.351 . S
C189 H194 0.930 . S
O190 Cu184 1.974 . S
O190 C200 1.282 . S
C191 O192 1.261 . S
C191 O204 1.251 . S
O192 C191 1.261 . S
H193 C187 0.930 . S
H194 C189 0.930 . S
N195 Cu184 1.985 . S
N195 C197 1.335 . S
N195 C198 1.390 . S
N196 C197 1.345 . S
N196 C199 1.336 . S
C197 N195 1.335 . S
C197 N196 1.345 . S
C197 H202 0.930 . S
C198 N195 1.390 . S
C198 C199 1.346 . S
C198 H203 0.930 . S
C199 N196 1.336 . S
C199 C198 1.346 . S
C199 H206 0.929 . S
C200 O190 1.282 . S
C200 O201 1.216 . S
O201 C200 1.216 . S
H202 C197 0.930 . S
H203 C198 0.930 . S
O204 Cu184 1.959 . S
O204 C191 1.251 . S
H205 C188 0.930 . S
H206 C199 0.929 . S
Cu207 N208 1.999 . S
Cu207 O213 1.974 . S
Cu207 N218 1.985 . S
Cu207 O227 1.959 . S
N208 Cu207 1.999 . S
N208 C210 1.263 . S
N208 C212 1.389 . S
N209 C210 1.358 . S
N209 C211 1.400 . S
C210 N208 1.263 . S
C210 N209 1.358 . S
C210 H216 0.930 . S
C211 N209 1.400 . S
C211 C212 1.351 . S
C211 H228 0.930 . S
C212 N208 1.389 . S
C212 C211 1.351 . S
C212 H217 0.930 . S
O213 Cu207 1.974 . S
O213 C223 1.282 . S
C214 O215 1.261 . S
C214 O227 1.251 . S
O215 C214 1.261 . S
H216 C210 0.930 . S
H217 C212 0.930 . S
N218 Cu207 1.985 . S
N218 C220 1.335 . S
N218 C221 1.390 . S
N219 C220 1.345 . S
N219 C222 1.336 . S
C220 N218 1.335 . S
C220 N219 1.345 . S
C220 H225 0.930 . S
C221 N218 1.390 . S
C221 C222 1.346 . S
C221 H226 0.930 . S
C222 N219 1.336 . S
C222 C221 1.346 . S
C222 H229 0.929 . S
C223 O213 1.282 . S
C223 O224 1.216 . S
O224 C223 1.216 . S
H225 C220 0.930 . S
H226 C221 0.930 . S
O227 Cu207 1.959 . S
O227 C214 1.251 . S
H228 C211 0.930 . S
H229 C222 0.929 . S
Cu230 N231 1.999 . S
Cu230 O236 1.974 . S
Cu230 N241 1.985 . S
Cu230 O250 1.959 . S
N231 Cu230 1.999 . S
N231 C233 1.263 . S
N231 C235 1.389 . S
N232 C233 1.358 . S
N232 C234 1.400 . S
C233 N231 1.263 . S
C233 N232 1.358 . S
C233 H239 0.930 . S
C234 N232 1.400 . S
C234 C235 1.351 . S
C234 H251 0.930 . S
C235 N231 1.389 . S
C235 C234 1.351 . S
C235 H240 0.930 . S
O236 Cu230 1.974 . S
O236 C246 1.282 . S
C237 O238 1.261 . S
C237 O250 1.251 . S
O238 C237 1.261 . S
H239 C233 0.930 . S
H240 C235 0.930 . S
N241 Cu230 1.985 . S
N241 C243 1.335 . S
N241 C244 1.390 . S
N242 C243 1.345 . S
N242 C245 1.336 . S
C243 N241 1.335 . S
C243 N242 1.345 . S
C243 H248 0.930 . S
C244 N241 1.390 . S
C244 C245 1.346 . S
C244 H249 0.930 . S
C245 N242 1.336 . S
C245 C244 1.346 . S
C245 H252 0.929 . S
C246 O236 1.282 . S
C246 O247 1.216 . S
O247 C246 1.216 . S
H248 C243 0.930 . S
H249 C244 0.930 . S
O250 Cu230 1.959 . S
O250 C237 1.251 . S
H251 C234 0.930 . S
H252 C245 0.929 . S
Cu253 N254 1.999 . S
Cu253 O259 1.974 . S
Cu253 N264 1.985 . S
Cu253 O273 1.959 . S
N254 Cu253 1.999 . S
N254 C256 1.263 . S
N254 C258 1.389 . S
N255 C256 1.358 . S
N255 C257 1.400 . S
C256 N254 1.263 . S
C256 N255 1.358 . S
C256 H262 0.930 . S
C257 N255 1.400 . S
C257 C258 1.351 . S
C257 H274 0.930 . S
C258 N254 1.389 . S
C258 C257 1.351 . S
C258 H263 0.930 . S
O259 Cu253 1.974 . S
O259 C269 1.282 . S
C260 O261 1.261 . S
C260 O273 1.251 . S
O261 C260 1.261 . S
H262 C256 0.930 . S
H263 C258 0.930 . S
N264 Cu253 1.985 . S
N264 C266 1.335 . S
N264 C267 1.390 . S
N265 C266 1.345 . S
N265 C268 1.336 . S
C266 N264 1.335 . S
C266 N265 1.345 . S
C266 H271 0.930 . S
C267 N264 1.390 . S
C267 C268 1.346 . S
C267 H272 0.930 . S
C268 N265 1.336 . S
C268 C267 1.346 . S
C268 H275 0.929 . S
C269 O259 1.282 . S
C269 O270 1.216 . S
O270 C269 1.216 . S
H271 C266 0.930 . S
H272 C267 0.930 . S
O273 Cu253 1.959 . S
O273 C260 1.251 . S
H274 C257 0.930 . S
H275 C268 0.929 . S
Cu276 N277 1.999 . S
Cu276 O282 1.974 . S
Cu276 N287 1.985 . S
Cu276 O296 1.959 . S
N277 Cu276 1.999 . S
N277 C279 1.263 . S
N277 C281 1.389 . S
N278 C279 1.358 . S
N278 C280 1.400 . S
C279 N277 1.263 . S
C279 N278 1.358 . S
C279 H285 0.930 . S
C280 N278 1.400 . S
C280 C281 1.351 . S
C280 H297 0.930 . S
C281 N277 1.389 . S
C281 C280 1.351 . S
C281 H286 0.930 . S
O282 Cu276 1.974 . S
O282 C292 1.282 . S
C283 O284 1.261 . S
C283 O296 1.251 . S
O284 C283 1.261 . S
H285 C279 0.930 . S
H286 C281 0.930 . S
N287 Cu276 1.985 . S
N287 C289 1.335 . S
N287 C290 1.390 . S
N288 C289 1.345 . S
N288 C291 1.336 . S
C289 N287 1.335 . S
C289 N288 1.345 . S
C289 H294 0.930 . S
C290 N287 1.390 . S
C290 C291 1.346 . S
C290 H295 0.930 . S
C291 N288 1.336 . S
C291 C290 1.346 . S
C291 H298 0.929 . S
C292 O282 1.282 . S
C292 O293 1.216 . S
O293 C292 1.216 . S
H294 C289 0.930 . S
H295 C290 0.930 . S
O296 Cu276 1.959 . S
O296 C283 1.251 . S
H297 C280 0.930 . S
H298 C291 0.929 . S
Cu299 N300 1.999 . S
Cu299 O305 1.974 . S
Cu299 N310 1.985 . S
Cu299 O319 1.959 . S
N300 Cu299 1.999 . S
N300 C302 1.263 . S
N300 C304 1.389 . S
N301 C302 1.358 . S
N301 C303 1.400 . S
C302 N300 1.263 . S
C302 N301 1.358 . S
C302 H308 0.930 . S
C303 N301 1.400 . S
C303 C304 1.351 . S
C303 H320 0.930 . S
C304 N300 1.389 . S
C304 C303 1.351 . S
C304 H309 0.930 . S
O305 Cu299 1.974 . S
O305 C315 1.282 . S
C306 O307 1.261 . S
C306 O319 1.251 . S
O307 C306 1.261 . S
H308 C302 0.930 . S
H309 C304 0.930 . S
N310 Cu299 1.985 . S
N310 C312 1.335 . S
N310 C313 1.390 . S
N311 C312 1.345 . S
N311 C314 1.336 . S
C312 N310 1.335 . S
C312 N311 1.345 . S
C312 H317 0.930 . S
C313 N310 1.390 . S
C313 C314 1.346 . S
C313 H318 0.930 . S
C314 N311 1.336 . S
C314 C313 1.346 . S
C314 H321 0.929 . S
C315 O305 1.282 . S
C315 O316 1.216 . S
O316 C315 1.216 . S
H317 C312 0.930 . S
H318 C313 0.930 . S
O319 Cu299 1.959 . S
O319 C306 1.251 . S
H320 C303 0.930 . S
H321 C314 0.929 . S
Cu322 N323 1.999 . S
Cu322 O328 1.974 . S
Cu322 N333 1.985 . S
Cu322 O342 1.959 . S
N323 Cu322 1.999 . S
N323 C325 1.263 . S
N323 C327 1.389 . S
N324 C325 1.358 . S
N324 C326 1.400 . S
C325 N323 1.263 . S
C325 N324 1.358 . S
C325 H331 0.930 . S
C326 N324 1.400 . S
C326 C327 1.351 . S
C326 H343 0.930 . S
C327 N323 1.389 . S
C327 C326 1.351 . S
C327 H332 0.930 . S
O328 Cu322 1.974 . S
O328 C338 1.282 . S
C329 O330 1.261 . S
C329 O342 1.251 . S
O330 C329 1.261 . S
H331 C325 0.930 . S
H332 C327 0.930 . S
N333 Cu322 1.985 . S
N333 C335 1.335 . S
N333 C336 1.390 . S
N334 C335 1.345 . S
N334 C337 1.336 . S
C335 N333 1.335 . S
C335 N334 1.345 . S
C335 H340 0.930 . S
C336 N333 1.390 . S
C336 C337 1.346 . S
C336 H341 0.930 . S
C337 N334 1.336 . S
C337 C336 1.346 . S
C337 H344 0.929 . S
C338 O328 1.282 . S
C338 O339 1.216 . S
O339 C338 1.216 . S
H340 C335 0.930 . S
H341 C336 0.930 . S
O342 Cu322 1.959 . S
O342 C329 1.251 . S
H343 C326 0.930 . S
H344 C337 0.929 . S
Cu345 N346 1.999 . S
Cu345 O351 1.974 . S
Cu345 N356 1.985 . S
Cu345 O365 1.959 . S
N346 Cu345 1.999 . S
N346 C348 1.263 . S
N346 C350 1.389 . S
N347 C348 1.358 . S
N347 C349 1.400 . S
C348 N346 1.263 . S
C348 N347 1.358 . S
C348 H354 0.930 . S
C349 N347 1.400 . S
C349 C350 1.351 . S
C349 H366 0.930 . S
C350 N346 1.389 . S
C350 C349 1.351 . S
C350 H355 0.930 . S
O351 Cu345 1.974 . S
O351 C361 1.282 . S
C352 O353 1.261 . S
C352 O365 1.251 . S
O353 C352 1.261 . S
H354 C348 0.930 . S
H355 C350 0.930 . S
N356 Cu345 1.985 . S
N356 C358 1.335 . S
N356 C359 1.390 . S
N357 C358 1.345 . S
N357 C360 1.336 . S
C358 N356 1.335 . S
C358 N357 1.345 . S
C358 H363 0.930 . S
C359 N356 1.390 . S
C359 C360 1.346 . S
C359 H364 0.930 . S
C360 N357 1.336 . S
C360 C359 1.346 . S
C360 H367 0.929 . S
C361 O351 1.282 . S
C361 O362 1.216 . S
O362 C361 1.216 . S
H363 C358 0.930 . S
H364 C359 0.930 . S
O365 Cu345 1.959 . S
O365 C352 1.251 . S
H366 C349 0.930 . S
H367 C360 0.929 . S
Cu368 N369 1.999 . S
Cu368 O374 1.974 . S
Cu368 N379 1.985 . S
Cu368 O388 1.959 . S
N369 Cu368 1.999 . S
N369 C371 1.263 . S
N369 C373 1.389 . S
N370 C371 1.358 . S
N370 C372 1.400 . S
C371 N369 1.263 . S
C371 N370 1.358 . S
C371 H377 0.930 . S
C372 N370 1.400 . S
C372 C373 1.351 . S
C372 H389 0.930 . S
C373 N369 1.389 . S
C373 C372 1.351 . S
C373 H378 0.930 . S
O374 Cu368 1.974 . S
O374 C384 1.282 . S
C375 O376 1.261 . S
C375 O388 1.251 . S
O376 C375 1.261 . S
H377 C371 0.930 . S
H378 C373 0.930 . S
N379 Cu368 1.985 . S
N379 C381 1.335 . S
N379 C382 1.390 . S
N380 C381 1.345 . S
N380 C383 1.336 . S
C381 N379 1.335 . S
C381 N380 1.345 . S
C381 H386 0.930 . S
C382 N379 1.390 . S
C382 C383 1.346 . S
C382 H387 0.930 . S
C383 N380 1.336 . S
C383 C382 1.346 . S
C383 H390 0.929 . S
C384 O374 1.282 . S
C384 O385 1.216 . S
O385 C384 1.216 . S
H386 C381 0.930 . S
H387 C382 0.930 . S
O388 Cu368 1.959 . S
O388 C375 1.251 . S
H389 C372 0.930 . S
H390 C383 0.929 . S
Cu391 N392 1.999 . S
Cu391 O397 1.974 . S
Cu391 N402 1.985 . S
Cu391 O411 1.959 . S
N392 Cu391 1.999 . S
N392 C394 1.263 . S
N392 C396 1.389 . S
N393 C394 1.358 . S
N393 C395 1.400 . S
C394 N392 1.263 . S
C394 N393 1.358 . S
C394 H400 0.930 . S
C395 N393 1.400 . S
C395 C396 1.351 . S
C395 H412 0.930 . S
C396 N392 1.389 . S
C396 C395 1.351 . S
C396 H401 0.930 . S
O397 Cu391 1.974 . S
O397 C407 1.282 . S
C398 O399 1.261 . S
C398 O411 1.251 . S
O399 C398 1.261 . S
H400 C394 0.930 . S
H401 C396 0.930 . S
N402 Cu391 1.985 . S
N402 C404 1.335 . S
N402 C405 1.390 . S
N403 C404 1.345 . S
N403 C406 1.336 . S
C404 N402 1.335 . S
C404 N403 1.345 . S
C404 H409 0.930 . S
C405 N402 1.390 . S
C405 C406 1.346 . S
C405 H410 0.930 . S
C406 N403 1.336 . S
C406 C405 1.346 . S
C406 H413 0.929 . S
C407 O397 1.282 . S
C407 O408 1.216 . S
O408 C407 1.216 . S
H409 C404 0.930 . S
H410 C405 0.930 . S
O411 Cu391 1.959 . S
O411 C398 1.251 . S
H412 C395 0.930 . S
H413 C406 0.929 . S
Cu414 N415 1.999 . S
Cu414 O420 1.974 . S
Cu414 N425 1.985 . S
Cu414 O434 1.959 . S
N415 Cu414 1.999 . S
N415 C417 1.263 . S
N415 C419 1.389 . S
N416 C417 1.358 . S
N416 C418 1.400 . S
C417 N415 1.263 . S
C417 N416 1.358 . S
C417 H423 0.930 . S
C418 N416 1.400 . S
C418 C419 1.351 . S
C418 H435 0.930 . S
C419 N415 1.389 . S
C419 C418 1.351 . S
C419 H424 0.930 . S
O420 Cu414 1.974 . S
O420 C430 1.282 . S
C421 O422 1.261 . S
C421 O434 1.251 . S
O422 C421 1.261 . S
H423 C417 0.930 . S
H424 C419 0.930 . S
N425 Cu414 1.985 . S
N425 C427 1.335 . S
N425 C428 1.390 . S
N426 C427 1.345 . S
N426 C429 1.336 . S
C427 N425 1.335 . S
C427 N426 1.345 . S
C427 H432 0.930 . S
C428 N425 1.390 . S
C428 C429 1.346 . S
C428 H433 0.930 . S
C429 N426 1.336 . S
C429 C428 1.346 . S
C429 H436 0.929 . S
C430 O420 1.282 . S
C430 O431 1.216 . S
O431 C430 1.216 . S
H432 C427 0.930 . S
H433 C428 0.930 . S
O434 Cu414 1.959 . S
O434 C421 1.251 . S
H435 C418 0.930 . S
H436 C429 0.929 . S
Cu437 N438 1.999 . S
Cu437 O443 1.974 . S
Cu437 N448 1.985 . S
Cu437 O457 1.959 . S
N438 Cu437 1.999 . S
N438 C440 1.263 . S
N438 C442 1.389 . S
N439 C440 1.358 . S
N439 C441 1.400 . S
C440 N438 1.263 . S
C440 N439 1.358 . S
C440 H446 0.930 . S
C441 N439 1.400 . S
C441 C442 1.351 . S
C441 H458 0.930 . S
C442 N438 1.389 . S
C442 C441 1.351 . S
C442 H447 0.930 . S
O443 Cu437 1.974 . S
O443 C453 1.282 . S
C444 O445 1.261 . S
C444 O457 1.251 . S
O445 C444 1.261 . S
H446 C440 0.930 . S
H447 C442 0.930 . S
N448 Cu437 1.985 . S
N448 C450 1.335 . S
N448 C451 1.390 . S
N449 C450 1.345 . S
N449 C452 1.336 . S
C450 N448 1.335 . S
C450 N449 1.345 . S
C450 H455 0.930 . S
C451 N448 1.390 . S
C451 C452 1.346 . S
C451 H456 0.930 . S
C452 N449 1.336 . S
C452 C451 1.346 . S
C452 H459 0.929 . S
C453 O443 1.282 . S
C453 O454 1.216 . S
O454 C453 1.216 . S
H455 C450 0.930 . S
H456 C451 0.930 . S
O457 Cu437 1.959 . S
O457 C444 1.251 . S
H458 C441 0.930 . S
H459 C452 0.929 . S
Cu460 N461 1.999 . S
Cu460 O466 1.974 . S
Cu460 N471 1.985 . S
Cu460 O480 1.959 . S
N461 Cu460 1.999 . S
N461 C463 1.263 . S
N461 C465 1.389 . S
N462 C463 1.358 . S
N462 C464 1.400 . S
C463 N461 1.263 . S
C463 N462 1.358 . S
C463 H469 0.930 . S
C464 N462 1.400 . S
C464 C465 1.351 . S
C464 H481 0.930 . S
C465 N461 1.389 . S
C465 C464 1.351 . S
C465 H470 0.930 . S
O466 Cu460 1.974 . S
O466 C476 1.282 . S
C467 O468 1.261 . S
C467 O480 1.251 . S
O468 C467 1.261 . S
H469 C463 0.930 . S
H470 C465 0.930 . S
N471 Cu460 1.985 . S
N471 C473 1.335 . S
N471 C474 1.390 . S
N472 C473 1.345 . S
N472 C475 1.336 . S
C473 N471 1.335 . S
C473 N472 1.345 . S
C473 H478 0.930 . S
C474 N471 1.390 . S
C474 C475 1.346 . S
C474 H479 0.930 . S
C475 N472 1.336 . S
C475 C474 1.346 . S
C475 H482 0.929 . S
C476 O466 1.282 . S
C476 O477 1.216 . S
O477 C476 1.216 . S
H478 C473 0.930 . S
H479 C474 0.930 . S
O480 Cu460 1.959 . S
O480 C467 1.251 . S
H481 C464 0.930 . S
H482 C475 0.929 . S
Cu483 N484 1.999 . S
Cu483 O489 1.974 . S
Cu483 N494 1.985 . S
Cu483 O503 1.959 . S
N484 Cu483 1.999 . S
N484 C486 1.263 . S
N484 C488 1.389 . S
N485 C486 1.358 . S
N485 C487 1.400 . S
C486 N484 1.263 . S
C486 N485 1.358 . S
C486 H492 0.930 . S
C487 N485 1.400 . S
C487 C488 1.351 . S
C487 H504 0.930 . S
C488 N484 1.389 . S
C488 C487 1.351 . S
C488 H493 0.930 . S
O489 Cu483 1.974 . S
O489 C499 1.282 . S
C490 O491 1.261 . S
C490 O503 1.251 . S
O491 C490 1.261 . S
H492 C486 0.930 . S
H493 C488 0.930 . S
N494 Cu483 1.985 . S
N494 C496 1.335 . S
N494 C497 1.390 . S
N495 C496 1.345 . S
N495 C498 1.336 . S
C496 N494 1.335 . S
C496 N495 1.345 . S
C496 H501 0.930 . S
C497 N494 1.390 . S
C497 C498 1.346 . S
C497 H502 0.930 . S
C498 N495 1.336 . S
C498 C497 1.346 . S
C498 H505 0.929 . S
C499 O489 1.282 . S
C499 O500 1.216 . S
O500 C499 1.216 . S
H501 C496 0.930 . S
H502 C497 0.930 . S
O503 Cu483 1.959 . S
O503 C490 1.251 . S
H504 C487 0.930 . S
H505 C498 0.929 . S
Cu506 N507 1.999 . S
Cu506 O512 1.974 . S
Cu506 N517 1.985 . S
Cu506 O526 1.959 . S
N507 Cu506 1.999 . S
N507 C509 1.263 . S
N507 C511 1.389 . S
N508 C509 1.358 . S
N508 C510 1.400 . S
C509 N507 1.263 . S
C509 N508 1.358 . S
C509 H515 0.930 . S
C510 N508 1.400 . S
C510 C511 1.351 . S
C510 H527 0.930 . S
C511 N507 1.389 . S
C511 C510 1.351 . S
C511 H516 0.930 . S
O512 Cu506 1.974 . S
O512 C522 1.282 . S
C513 O514 1.261 . S
C513 O526 1.251 . S
O514 C513 1.261 . S
H515 C509 0.930 . S
H516 C511 0.930 . S
N517 Cu506 1.985 . S
N517 C519 1.335 . S
N517 C520 1.390 . S
N518 C519 1.345 . S
N518 C521 1.336 . S
C519 N517 1.335 . S
C519 N518 1.345 . S
C519 H524 0.930 . S
C520 N517 1.390 . S
C520 C521 1.346 . S
C520 H525 0.930 . S
C521 N518 1.336 . S
C521 C520 1.346 . S
C521 H528 0.929 . S
C522 O512 1.282 . S
C522 O523 1.216 . S
O523 C522 1.216 . S
H524 C519 0.930 . S
H525 C520 0.930 . S
O526 Cu506 1.959 . S
O526 C513 1.251 . S
H527 C510 0.930 . S
H528 C521 0.929 . S
Cu529 N530 1.999 . S
Cu529 O535 1.974 . S
Cu529 N540 1.985 . S
Cu529 O549 1.959 . S
N530 Cu529 1.999 . S
N530 C532 1.263 . S
N530 C534 1.389 . S
N531 C532 1.358 . S
N531 C533 1.400 . S
C532 N530 1.263 . S
C532 N531 1.358 . S
C532 H538 0.930 . S
C533 N531 1.400 . S
C533 C534 1.351 . S
C533 H550 0.930 . S
C534 N530 1.389 . S
C534 C533 1.351 . S
C534 H539 0.930 . S
O535 Cu529 1.974 . S
O535 C545 1.282 . S
C536 O537 1.261 . S
C536 O549 1.251 . S
O537 C536 1.261 . S
H538 C532 0.930 . S
H539 C534 0.930 . S
N540 Cu529 1.985 . S
N540 C542 1.335 . S
N540 C543 1.390 . S
N541 C542 1.345 . S
N541 C544 1.336 . S
C542 N540 1.335 . S
C542 N541 1.345 . S
C542 H547 0.930 . S
C543 N540 1.390 . S
C543 C544 1.346 . S
C543 H548 0.930 . S
C544 N541 1.336 . S
C544 C543 1.346 . S
C544 H551 0.929 . S
C545 O535 1.282 . S
C545 O546 1.216 . S
O546 C545 1.216 . S
H547 C542 0.930 . S
H548 C543 0.930 . S
O549 Cu529 1.959 . S
O549 C536 1.251 . S
H550 C533 0.930 . S
H551 C544 0.929 . S
Cu552 N553 1.999 . S
Cu552 O558 1.974 . S
Cu552 N563 1.985 . S
Cu552 O572 1.959 . S
N553 Cu552 1.999 . S
N553 C555 1.263 . S
N553 C557 1.389 . S
N554 C555 1.358 . S
N554 C556 1.400 . S
C555 N553 1.263 . S
C555 N554 1.358 . S
C555 H561 0.930 . S
C556 N554 1.400 . S
C556 C557 1.351 . S
C556 H573 0.930 . S
C557 N553 1.389 . S
C557 C556 1.351 . S
C557 H562 0.930 . S
O558 Cu552 1.974 . S
O558 C568 1.282 . S
C559 O560 1.261 . S
C559 O572 1.251 . S
O560 C559 1.261 . S
H561 C555 0.930 . S
H562 C557 0.930 . S
N563 Cu552 1.985 . S
N563 C565 1.335 . S
N563 C566 1.390 . S
N564 C565 1.345 . S
N564 C567 1.336 . S
C565 N563 1.335 . S
C565 N564 1.345 . S
C565 H570 0.930 . S
C566 N563 1.390 . S
C566 C567 1.346 . S
C566 H571 0.930 . S
C567 N564 1.336 . S
C567 C566 1.346 . S
C567 H574 0.929 . S
C568 O558 1.282 . S
C568 O569 1.216 . S
O569 C568 1.216 . S
H570 C565 0.930 . S
H571 C566 0.930 . S
O572 Cu552 1.959 . S
O572 C559 1.251 . S
H573 C556 0.930 . S
H574 C567 0.929 . S
Cu575 N576 1.999 . S
Cu575 O581 1.974 . S
Cu575 N586 1.985 . S
Cu575 O595 1.959 . S
N576 Cu575 1.999 . S
N576 C578 1.263 . S
N576 C580 1.389 . S
N577 C578 1.358 . S
N577 C579 1.400 . S
C578 N576 1.263 . S
C578 N577 1.358 . S
C578 H584 0.930 . S
C579 N577 1.400 . S
C579 C580 1.351 . S
C579 H596 0.930 . S
C580 N576 1.389 . S
C580 C579 1.351 . S
C580 H585 0.930 . S
O581 Cu575 1.974 . S
O581 C591 1.282 . S
C582 O583 1.261 . S
C582 O595 1.251 . S
O583 C582 1.261 . S
H584 C578 0.930 . S
H585 C580 0.930 . S
N586 Cu575 1.985 . S
N586 C588 1.335 . S
N586 C589 1.390 . S
N587 C588 1.345 . S
N587 C590 1.336 . S
C588 N586 1.335 . S
C588 N587 1.345 . S
C588 H593 0.930 . S
C589 N586 1.390 . S
C589 C590 1.346 . S
C589 H594 0.930 . S
C590 N587 1.336 . S
C590 C589 1.346 . S
C590 H597 0.929 . S
C591 O581 1.282 . S
C591 O592 1.216 . S
O592 C591 1.216 . S
H593 C588 0.930 . S
H594 C589 0.930 . S
O595 Cu575 1.959 . S
O595 C582 1.251 . S
H596 C579 0.930 . S
H597 C590 0.929 . S
Cu598 N599 1.999 . S
Cu598 O604 1.974 . S
Cu598 N609 1.985 . S
Cu598 O618 1.959 . S
N599 Cu598 1.999 . S
N599 C601 1.263 . S
N599 C603 1.389 . S
N600 C601 1.358 . S
N600 C602 1.400 . S
C601 N599 1.263 . S
C601 N600 1.358 . S
C601 H607 0.930 . S
C602 N600 1.400 . S
C602 C603 1.351 . S
C602 H619 0.930 . S
C603 N599 1.389 . S
C603 C602 1.351 . S
C603 H608 0.930 . S
O604 Cu598 1.974 . S
O604 C614 1.282 . S
C605 O606 1.261 . S
C605 O618 1.251 . S
O606 C605 1.261 . S
H607 C601 0.930 . S
H608 C603 0.930 . S
N609 Cu598 1.985 . S
N609 C611 1.335 . S
N609 C612 1.390 . S
N610 C611 1.345 . S
N610 C613 1.336 . S
C611 N609 1.335 . S
C611 N610 1.345 . S
C611 H616 0.930 . S
C612 N609 1.390 . S
C612 C613 1.346 . S
C612 H617 0.930 . S
C613 N610 1.336 . S
C613 C612 1.346 . S
C613 H620 0.929 . S
C614 O604 1.282 . S
C614 O615 1.216 . S
O615 C614 1.216 . S
H616 C611 0.930 . S
H617 C612 0.930 . S
O618 Cu598 1.959 . S
O618 C605 1.251 . S
H619 C602 0.930 . S
H620 C613 0.929 . S
Cu621 N622 1.999 . S
Cu621 O627 1.974 . S
Cu621 N632 1.985 . S
Cu621 O641 1.959 . S
N622 Cu621 1.999 . S
N622 C624 1.263 . S
N622 C626 1.389 . S
N623 C624 1.358 . S
N623 C625 1.400 . S
C624 N622 1.263 . S
C624 N623 1.358 . S
C624 H630 0.930 . S
C625 N623 1.400 . S
C625 C626 1.351 . S
C625 H642 0.930 . S
C626 N622 1.389 . S
C626 C625 1.351 . S
C626 H631 0.930 . S
O627 Cu621 1.974 . S
O627 C637 1.282 . S
C628 O629 1.261 . S
C628 O641 1.251 . S
O629 C628 1.261 . S
H630 C624 0.930 . S
H631 C626 0.930 . S
N632 Cu621 1.985 . S
N632 C634 1.335 . S
N632 C635 1.390 . S
N633 C634 1.345 . S
N633 C636 1.336 . S
C634 N632 1.335 . S
C634 N633 1.345 . S
C634 H639 0.930 . S
C635 N632 1.390 . S
C635 C636 1.346 . S
C635 H640 0.930 . S
C636 N633 1.336 . S
C636 C635 1.346 . S
C636 H643 0.929 . S
C637 O627 1.282 . S
C637 O638 1.216 . S
O638 C637 1.216 . S
H639 C634 0.930 . S
H640 C635 0.930 . S
O641 Cu621 1.959 . S
O641 C628 1.251 . S
H642 C625 0.930 . S
H643 C636 0.929 . S
Cu644 N645 1.999 . S
Cu644 O650 1.974 . S
Cu644 N655 1.985 . S
Cu644 O664 1.959 . S
N645 Cu644 1.999 . S
N645 C647 1.263 . S
N645 C649 1.389 . S
N646 C647 1.358 . S
N646 C648 1.400 . S
C647 N645 1.263 . S
C647 N646 1.358 . S
C647 H653 0.930 . S
C648 N646 1.400 . S
C648 C649 1.351 . S
C648 H665 0.930 . S
C649 N645 1.389 . S
C649 C648 1.351 . S
C649 H654 0.930 . S
O650 Cu644 1.974 . S
O650 C660 1.282 . S
C651 O652 1.261 . S
C651 O664 1.251 . S
O652 C651 1.261 . S
H653 C647 0.930 . S
H654 C649 0.930 . S
N655 Cu644 1.985 . S
N655 C657 1.335 . S
N655 C658 1.390 . S
N656 C657 1.345 . S
N656 C659 1.336 . S
C657 N655 1.335 . S
C657 N656 1.345 . S
C657 H662 0.930 . S
C658 N655 1.390 . S
C658 C659 1.346 . S
C658 H663 0.930 . S
C659 N656 1.336 . S
C659 C658 1.346 . S
C659 H666 0.929 . S
C660 O650 1.282 . S
C660 O661 1.216 . S
O661 C660 1.216 . S
H662 C657 0.930 . S
H663 C658 0.930 . S
O664 Cu644 1.959 . S
O664 C651 1.251 . S
H665 C648 0.930 . S
H666 C659 0.929 . S
Cu667 N668 1.999 . S
Cu667 O673 1.974 . S
Cu667 N678 1.985 . S
Cu667 O687 1.959 . S
N668 Cu667 1.999 . S
N668 C670 1.263 . S
N668 C672 1.389 . S
N669 C670 1.358 . S
N669 C671 1.400 . S
C670 N668 1.263 . S
C670 N669 1.358 . S
C670 H676 0.930 . S
C671 N669 1.400 . S
C671 C672 1.351 . S
C671 H688 0.930 . S
C672 N668 1.389 . S
C672 C671 1.351 . S
C672 H677 0.930 . S
O673 Cu667 1.974 . S
O673 C683 1.282 . S
C674 O675 1.261 . S
C674 O687 1.251 . S
O675 C674 1.261 . S
H676 C670 0.930 . S
H677 C672 0.930 . S
N678 Cu667 1.985 . S
N678 C680 1.335 . S
N678 C681 1.390 . S
N679 C680 1.345 . S
N679 C682 1.336 . S
C680 N678 1.335 . S
C680 N679 1.345 . S
C680 H685 0.930 . S
C681 N678 1.390 . S
C681 C682 1.346 . S
C681 H686 0.930 . S
C682 N679 1.336 . S
C682 C681 1.346 . S
C682 H689 0.929 . S
C683 O673 1.282 . S
C683 O684 1.216 . S
O684 C683 1.216 . S
H685 C680 0.930 . S
H686 C681 0.930 . S
O687 Cu667 1.959 . S
O687 C674 1.251 . S
H688 C671 0.930 . S
H689 C682 0.929 . S
Cu690 N691 1.999 . S
Cu690 O696 1.974 . S
Cu690 N701 1.985 . S
Cu690 O710 1.959 . S
N691 Cu690 1.999 . S
N691 C693 1.263 . S
N691 C695 1.389 . S
N692 C693 1.358 . S
N692 C694 1.400 . S
C693 N691 1.263 . S
C693 N692 1.358 . S
C693 H699 0.930 . S
C694 N692 1.400 . S
C694 C695 1.351 . S
C694 H711 0.930 . S
C695 N691 1.389 . S
C695 C694 1.351 . S
C695 H700 0.930 . S
O696 Cu690 1.974 . S
O696 C706 1.282 . S
C697 O698 1.261 . S
C697 O710 1.251 . S
O698 C697 1.261 . S
H699 C693 0.930 . S
H700 C695 0.930 . S
N701 Cu690 1.985 . S
N701 C703 1.335 . S
N701 C704 1.390 . S
N702 C703 1.345 . S
N702 C705 1.336 . S
C703 N701 1.335 . S
C703 N702 1.345 . S
C703 H708 0.930 . S
C704 N701 1.390 . S
C704 C705 1.346 . S
C704 H709 0.930 . S
C705 N702 1.336 . S
C705 C704 1.346 . S
C705 H712 0.929 . S
C706 O696 1.282 . S
C706 O707 1.216 . S
O707 C706 1.216 . S
H708 C703 0.930 . S
H709 C704 0.930 . S
O710 Cu690 1.959 . S
O710 C697 1.251 . S
H711 C694 0.930 . S
H712 C705 0.929 . S
Cu713 N714 1.999 . S
Cu713 O719 1.974 . S
Cu713 N724 1.985 . S
Cu713 O733 1.959 . S
N714 Cu713 1.999 . S
N714 C716 1.263 . S
N714 C718 1.389 . S
N715 C716 1.358 . S
N715 C717 1.400 . S
C716 N714 1.263 . S
C716 N715 1.358 . S
C716 H722 0.930 . S
C717 N715 1.400 . S
C717 C718 1.351 . S
C717 H734 0.930 . S
C718 N714 1.389 . S
C718 C717 1.351 . S
C718 H723 0.930 . S
O719 Cu713 1.974 . S
O719 C729 1.282 . S
C720 O721 1.261 . S
C720 O733 1.251 . S
O721 C720 1.261 . S
H722 C716 0.930 . S
H723 C718 0.930 . S
N724 Cu713 1.985 . S
N724 C726 1.335 . S
N724 C727 1.390 . S
N725 C726 1.345 . S
N725 C728 1.336 . S
C726 N724 1.335 . S
C726 N725 1.345 . S
C726 H731 0.930 . S
C727 N724 1.390 . S
C727 C728 1.346 . S
C727 H732 0.930 . S
C728 N725 1.336 . S
C728 C727 1.346 . S
C728 H735 0.929 . S
C729 O719 1.282 . S
C729 O730 1.216 . S
O730 C729 1.216 . S
H731 C726 0.930 . S
H732 C727 0.930 . S
O733 Cu713 1.959 . S
O733 C720 1.251 . S
H734 C717 0.930 . S
H735 C728 0.929 . S
H736 C744 0.929 . S
H737 C746 0.930 . S
H738 C748 0.930 . S
H739 C751 0.929 . S
H740 C754 0.930 . S
H741 C756 0.960 . S
H742 C756 0.960 . S
H743 C756 0.960 . S
C744 H736 0.929 . S
C744 C745 1.377 . S
C744 C746 1.384 . S
C745 C744 1.377 . S
C745 C751 1.390 . S
C746 H737 0.930 . S
C746 C744 1.384 . S
C746 C747 1.372 . S
C747 C746 1.372 . S
C747 C748 1.400 . S
C747 C752 1.490 . S
C748 H738 0.930 . S
C748 C747 1.400 . S
C748 C751 1.386 . S
H749 C765 0.930 . S
H750 C766 0.931 . S
C751 H739 0.929 . S
C751 C745 1.390 . S
C751 C748 1.386 . S
C752 C747 1.490 . S
C752 C754 1.395 . S
C752 C755 1.403 . S
H753 C759 0.930 . S
C754 H740 0.930 . S
C754 C752 1.395 . S
C754 C757 1.403 . S
C755 C752 1.403 . S
C755 C756 1.524 . S
C755 C759 1.400 . S
C756 H741 0.960 . S
C756 H742 0.960 . S
C756 H743 0.960 . S
C756 C755 1.524 . S
C757 C754 1.403 . S
C757 C758 1.392 . S
C757 C761 1.495 . S
C758 C757 1.392 . S
C758 C759 1.385 . S
C758 C760 1.478 . S
C759 H753 0.930 . S
C759 C755 1.400 . S
C759 C758 1.385 . S
C760 C758 1.478 . S
C760 C762 1.381 . S
C760 C766 1.383 . S
C761 C757 1.495 . S
C761 H767 0.959 . S
C761 H768 0.961 . S
C761 H769 0.960 . S
C762 C760 1.381 . S
C762 C763 1.394 . S
C762 H770 0.930 . S
C763 C762 1.394 . S
C763 C764 1.383 . S
C763 H771 0.929 . S
C764 C763 1.383 . S
C764 C765 1.377 . S
C765 H749 0.930 . S
C765 C764 1.377 . S
C765 C766 1.379 . S
C766 H750 0.931 . S
C766 C760 1.383 . S
C766 C765 1.379 . S
H767 C761 0.959 . S
H768 C761 0.961 . S
H769 C761 0.960 . S
H770 C762 0.930 . S
H771 C763 0.929 . S
H772 C780 0.929 . S
H773 C782 0.930 . S
H774 C784 0.930 . S
H775 C787 0.929 . S
H776 C790 0.930 . S
H777 C792 0.960 . S
H778 C792 0.960 . S
H779 C792 0.960 . S
C780 H772 0.929 . S
C780 C781 1.377 . S
C780 C782 1.384 . S
C781 C780 1.377 . S
C781 C787 1.390 . S
C782 H773 0.930 . S
C782 C780 1.384 . S
C782 C783 1.372 . S
C783 C782 1.372 . S
C783 C784 1.400 . S
C783 C788 1.490 . S
C784 H774 0.930 . S
C784 C783 1.400 . S
C784 C787 1.386 . S
H785 C801 0.930 . S
H786 C802 0.931 . S
C787 H775 0.929 . S
C787 C781 1.390 . S
C787 C784 1.386 . S
C788 C783 1.490 . S
C788 C790 1.395 . S
C788 C791 1.403 1_455 S
H789 C795 0.930 . S
C790 H776 0.930 . S
C790 C788 1.395 . S
C790 C793 1.403 1_455 S
C791 C788 1.403 1_655 S
C791 C792 1.524 . S
C791 C795 1.400 . S
C792 H777 0.960 . S
C792 H778 0.960 . S
C792 H779 0.960 . S
C792 C791 1.524 . S
C793 C790 1.403 1_655 S
C793 C794 1.392 . S
C793 C797 1.495 . S
C794 C793 1.392 . S
C794 C795 1.385 . S
C794 C796 1.478 . S
C795 H789 0.930 . S
C795 C791 1.400 . S
C795 C794 1.385 . S
C796 C794 1.478 . S
C796 C798 1.381 . S
C796 C802 1.383 . S
C797 C793 1.495 . S
C797 H803 0.959 1_655 S
C797 H804 0.961 . S
C797 H805 0.960 . S
C798 C796 1.381 . S
C798 C799 1.394 . S
C798 H806 0.930 . S
C799 C798 1.394 . S
C799 C800 1.383 . S
C799 H807 0.929 . S
C800 C799 1.383 . S
C800 C801 1.377 . S
C801 H785 0.930 . S
C801 C800 1.377 . S
C801 C802 1.379 . S
C802 H786 0.931 . S
C802 C796 1.383 . S
C802 C801 1.379 . S
H803 C797 0.959 1_455 S
H804 C797 0.961 . S
H805 C797 0.960 . S
H806 C798 0.930 . S
H807 C799 0.929 . S
H808 C816 0.929 . S
H809 C818 0.930 . S
H810 C820 0.930 . S
H811 C823 0.929 . S
H812 C826 0.930 . S
H813 C828 0.960 . S
H814 C828 0.960 . S
H815 C828 0.960 . S
C816 H808 0.929 . S
C816 C817 1.377 . S
C816 C818 1.384 . S
C817 C816 1.377 . S
C817 C823 1.390 . S
C818 H809 0.930 . S
C818 C816 1.384 . S
C818 C819 1.372 . S
C819 C818 1.372 . S
C819 C820 1.400 . S
C819 C824 1.490 . S
C820 H810 0.930 . S
C820 C819 1.400 . S
C820 C823 1.386 . S
H821 C837 0.930 . S
H822 C838 0.931 . S
C823 H811 0.929 . S
C823 C817 1.390 . S
C823 C820 1.386 . S
C824 C819 1.490 . S
C824 C826 1.395 . S
C824 C827 1.403 . S
H825 C831 0.930 . S
C826 H812 0.930 . S
C826 C824 1.395 . S
C826 C829 1.403 . S
C827 C824 1.403 . S
C827 C828 1.524 . S
C827 C831 1.400 . S
C828 H813 0.960 . S
C828 H814 0.960 . S
C828 H815 0.960 . S
C828 C827 1.524 . S
C829 C826 1.403 . S
C829 C830 1.392 . S
C829 C833 1.495 . S
C830 C829 1.392 . S
C830 C831 1.385 . S
C830 C832 1.478 . S
C831 H825 0.930 . S
C831 C827 1.400 . S
C831 C830 1.385 . S
C832 C830 1.478 . S
C832 C834 1.381 . S
C832 C838 1.383 . S
C833 C829 1.495 . S
C833 H839 0.959 . S
C833 H840 0.961 . S
C833 H841 0.960 . S
C834 C832 1.381 . S
C834 C835 1.394 . S
C834 H842 0.930 . S
C835 C834 1.394 . S
C835 C836 1.383 . S
C835 H843 0.929 . S
C836 C835 1.383 . S
C836 C837 1.377 . S
C837 H821 0.930 . S
C837 C836 1.377 . S
C837 C838 1.379 . S
C838 H822 0.931 . S
C838 C832 1.383 . S
C838 C837 1.379 . S
H839 C833 0.959 . S
H840 C833 0.961 . S
H841 C833 0.960 . S
H842 C834 0.930 . S
H843 C835 0.929 . S
H844 C852 0.929 . S
H845 C854 0.930 . S
H846 C856 0.930 . S
H847 C859 0.929 . S
H848 C862 0.930 . S
H849 C864 0.960 . S
H850 C864 0.960 . S
H851 C864 0.960 . S
C852 H844 0.929 . S
C852 C853 1.377 . S
C852 C854 1.384 . S
C853 C852 1.377 . S
C853 C859 1.390 . S
C854 H845 0.930 . S
C854 C852 1.384 . S
C854 C855 1.372 . S
C855 C854 1.372 . S
C855 C856 1.400 . S
C855 C860 1.490 . S
C856 H846 0.930 . S
C856 C855 1.400 . S
C856 C859 1.386 . S
H857 C873 0.930 . S
H858 C874 0.931 . S
C859 H847 0.929 . S
C859 C853 1.390 . S
C859 C856 1.386 . S
C860 C855 1.490 . S
C860 C862 1.395 . S
C860 C863 1.403 . S
H861 C867 0.930 . S
C862 H848 0.930 . S
C862 C860 1.395 . S
C862 C865 1.403 . S
C863 C860 1.403 . S
C863 C864 1.524 . S
C863 C867 1.400 . S
C864 H849 0.960 . S
C864 H850 0.960 . S
C864 H851 0.960 . S
C864 C863 1.524 . S
C865 C862 1.403 . S
C865 C866 1.392 . S
C865 C869 1.495 . S
C866 C865 1.392 . S
C866 C867 1.385 . S
C866 C868 1.478 . S
C867 H861 0.930 . S
C867 C863 1.400 . S
C867 C866 1.385 . S
C868 C866 1.478 . S
C868 C870 1.381 . S
C868 C874 1.383 . S
C869 C865 1.495 . S
C869 H875 0.959 . S
C869 H876 0.961 . S
C869 H877 0.960 . S
C870 C868 1.381 . S
C870 C871 1.394 . S
C870 H878 0.930 . S
C871 C870 1.394 . S
C871 C872 1.383 . S
C871 H879 0.929 . S
C872 C871 1.383 . S
C872 C873 1.377 . S
C873 H857 0.930 . S
C873 C872 1.377 . S
C873 C874 1.379 . S
C874 H858 0.931 . S
C874 C868 1.383 . S
C874 C873 1.379 . S
H875 C869 0.959 . S
H876 C869 0.961 . S
H877 C869 0.960 . S
H878 C870 0.930 . S
H879 C871 0.929 . S
H880 C888 0.929 . S
H881 C890 0.930 . S
H882 C892 0.930 . S
H883 C895 0.929 . S
H884 C898 0.930 . S
H885 C900 0.960 . S
H886 C900 0.960 . S
H887 C900 0.960 . S
C888 H880 0.929 . S
C888 C889 1.377 . S
C888 C890 1.384 . S
C889 C888 1.377 . S
C889 C895 1.390 . S
C890 H881 0.930 . S
C890 C888 1.384 . S
C890 C891 1.372 . S
C891 C890 1.372 . S
C891 C892 1.400 . S
C891 C896 1.490 . S
C892 H882 0.930 . S
C892 C891 1.400 . S
C892 C895 1.386 . S
H893 C909 0.930 . S
H894 C910 0.931 . S
C895 H883 0.929 . S
C895 C889 1.390 . S
C895 C892 1.386 . S
C896 C891 1.490 . S
C896 C898 1.395 . S
C896 C899 1.403 . S
H897 C903 0.930 . S
C898 H884 0.930 . S
C898 C896 1.395 . S
C898 C901 1.403 . S
C899 C896 1.403 . S
C899 C900 1.524 . S
C899 C903 1.400 . S
C900 H885 0.960 . S
C900 H886 0.960 . S
C900 H887 0.960 . S
C900 C899 1.524 . S
C901 C898 1.403 . S
C901 C902 1.392 . S
C901 C905 1.495 . S
C902 C901 1.392 . S
C902 C903 1.385 . S
C902 C904 1.478 . S
C903 H897 0.930 . S
C903 C899 1.400 . S
C903 C902 1.385 . S
C904 C902 1.478 . S
C904 C906 1.381 . S
C904 C910 1.383 . S
C905 C901 1.495 . S
C905 H911 0.959 . S
C905 H912 0.961 . S
C905 H913 0.960 . S
C906 C904 1.381 . S
C906 C907 1.394 . S
C906 H914 0.930 . S
C907 C906 1.394 . S
C907 C908 1.383 . S
C907 H915 0.929 . S
C908 C907 1.383 . S
C908 C909 1.377 . S
C909 H893 0.930 . S
C909 C908 1.377 . S
C909 C910 1.379 . S
C910 H894 0.931 . S
C910 C904 1.383 . S
C910 C909 1.379 . S
H911 C905 0.959 . S
H912 C905 0.961 . S
H913 C905 0.960 . S
H914 C906 0.930 . S
H915 C907 0.929 . S
H916 C924 0.929 . S
H917 C926 0.930 . S
H918 C928 0.930 . S
H919 C931 0.929 . S
H920 C934 0.930 . S
H921 C936 0.960 . S
H922 C936 0.960 . S
H923 C936 0.960 . S
C924 H916 0.929 . S
C924 C925 1.377 . S
C924 C926 1.384 . S
C925 C924 1.377 . S
C925 C931 1.390 . S
C926 H917 0.930 . S
C926 C924 1.384 . S
C926 C927 1.372 . S
C927 C926 1.372 . S
C927 C928 1.400 . S
C927 C932 1.490 . S
C928 H918 0.930 . S
C928 C927 1.400 . S
C928 C931 1.386 . S
H929 C945 0.930 . S
H930 C946 0.931 . S
C931 H919 0.929 . S
C931 C925 1.390 . S
C931 C928 1.386 . S
C932 C927 1.490 . S
C932 C934 1.395 . S
C932 C935 1.403 . S
H933 C939 0.930 . S
C934 H920 0.930 . S
C934 C932 1.395 . S
C934 C937 1.403 . S
C935 C932 1.403 . S
C935 C936 1.524 . S
C935 C939 1.400 . S
C936 H921 0.960 . S
C936 H922 0.960 . S
C936 H923 0.960 . S
C936 C935 1.524 . S
C937 C934 1.403 . S
C937 C938 1.392 . S
C937 C941 1.495 . S
C938 C937 1.392 . S
C938 C939 1.385 . S
C938 C940 1.478 . S
C939 H933 0.930 . S
C939 C935 1.400 . S
C939 C938 1.385 . S
C940 C938 1.478 . S
C940 C942 1.381 . S
C940 C946 1.383 . S
C941 C937 1.495 . S
C941 H947 0.959 . S
C941 H948 0.961 . S
C941 H949 0.960 . S
C942 C940 1.381 . S
C942 C943 1.394 . S
C942 H950 0.930 . S
C943 C942 1.394 . S
C943 C944 1.383 . S
C943 H951 0.929 . S
C944 C943 1.383 . S
C944 C945 1.377 . S
C945 H929 0.930 . S
C945 C944 1.377 . S
C945 C946 1.379 . S
C946 H930 0.931 . S
C946 C940 1.383 . S
C946 C945 1.379 . S
H947 C941 0.959 . S
H948 C941 0.961 . S
H949 C941 0.960 . S
H950 C942 0.930 . S
H951 C943 0.929 . S
H952 C960 0.929 . S
H953 C962 0.930 . S
H954 C964 0.930 . S
H955 C967 0.929 . S
H956 C970 0.930 . S
H957 C972 0.960 . S
H958 C972 0.960 . S
H959 C972 0.960 . S
C960 H952 0.929 . S
C960 C961 1.377 . S
C960 C962 1.384 . S
C961 C960 1.377 . S
C961 C967 1.390 . S
C962 H953 0.930 . S
C962 C960 1.384 . S
C962 C963 1.372 . S
C963 C962 1.372 . S
C963 C964 1.400 . S
C963 C968 1.490 . S
C964 H954 0.930 . S
C964 C963 1.400 . S
C964 C967 1.386 . S
H965 C981 0.930 . S
H966 C982 0.931 . S
C967 H955 0.929 . S
C967 C961 1.390 . S
C967 C964 1.386 . S
C968 C963 1.490 . S
C968 C970 1.395 . S
C968 C971 1.403 . S
H969 C975 0.930 . S
C970 H956 0.930 . S
C970 C968 1.395 . S
C970 C973 1.403 . S
C971 C968 1.403 . S
C971 C972 1.524 . S
C971 C975 1.400 . S
C972 H957 0.960 . S
C972 H958 0.960 . S
C972 H959 0.960 . S
C972 C971 1.524 . S
C973 C970 1.403 . S
C973 C974 1.392 . S
C973 C977 1.495 . S
C974 C973 1.392 . S
C974 C975 1.385 . S
C974 C976 1.478 . S
C975 H969 0.930 . S
C975 C971 1.400 . S
C975 C974 1.385 . S
C976 C974 1.478 . S
C976 C978 1.381 . S
C976 C982 1.383 . S
C977 C973 1.495 . S
C977 H983 0.959 . S
C977 H984 0.961 . S
C977 H985 0.960 . S
C978 C976 1.381 . S
C978 C979 1.394 . S
C978 H986 0.930 . S
C979 C978 1.394 . S
C979 C980 1.383 . S
C979 H987 0.929 . S
C980 C979 1.383 . S
C980 C981 1.377 . S
C981 H965 0.930 . S
C981 C980 1.377 . S
C981 C982 1.379 . S
C982 H966 0.931 . S
C982 C976 1.383 . S
C982 C981 1.379 . S
H983 C977 0.959 . S
H984 C977 0.961 . S
H985 C977 0.960 . S
H986 C978 0.930 . S
H987 C979 0.929 . S
H988 C996 0.929 . S
H989 C998 0.930 . S
H990 C1000 0.930 . S
H991 C1003 0.929 . S
H992 C1006 0.930 . S
H993 C1008 0.960 . S
H994 C1008 0.960 . S
H995 C1008 0.960 . S
C996 H988 0.929 . S
C996 C997 1.377 . S
C996 C998 1.384 . S
C997 C996 1.377 . S
C997 C1003 1.390 . S
C998 H989 0.930 . S
C998 C996 1.384 . S
C998 C999 1.372 . S
C999 C998 1.372 . S
C999 C1000 1.400 . S
C999 C1004 1.490 . S
C1000 H990 0.930 . S
C1000 C999 1.400 . S
C1000 C1003 1.386 . S
H1001 C1017 0.930 . S
H1002 C1018 0.931 . S
C1003 H991 0.929 . S
C1003 C997 1.390 . S
C1003 C1000 1.386 . S
C1004 C999 1.490 . S
C1004 C1006 1.395 . S
C1004 C1007 1.403 1_455 S
H1005 C1011 0.930 . S
C1006 H992 0.930 . S
C1006 C1004 1.395 . S
C1006 C1009 1.403 1_455 S
C1007 C1004 1.403 1_655 S
C1007 C1008 1.524 . S
C1007 C1011 1.400 . S
C1008 H993 0.960 . S
C1008 H994 0.960 . S
C1008 H995 0.960 . S
C1008 C1007 1.524 . S
C1009 C1006 1.403 1_655 S
C1009 C1010 1.392 . S
C1009 C1013 1.495 . S
C1010 C1009 1.392 . S
C1010 C1011 1.385 . S
C1010 C1012 1.478 . S
C1011 H1005 0.930 . S
C1011 C1007 1.400 . S
C1011 C1010 1.385 . S
C1012 C1010 1.478 . S
C1012 C1014 1.381 . S
C1012 C1018 1.383 . S
C1013 C1009 1.495 . S
C1013 H1019 0.959 1_655 S
C1013 H1020 0.961 . S
C1013 H1021 0.960 . S
C1014 C1012 1.381 . S
C1014 C1015 1.394 . S
C1014 H1022 0.930 . S
C1015 C1014 1.394 . S
C1015 C1016 1.383 . S
C1015 H1023 0.929 . S
C1016 C1015 1.383 . S
C1016 C1017 1.377 . S
C1017 H1001 0.930 . S
C1017 C1016 1.377 . S
C1017 C1018 1.379 . S
C1018 H1002 0.931 . S
C1018 C1012 1.383 . S
C1018 C1017 1.379 . S
H1019 C1013 0.959 1_455 S
H1020 C1013 0.961 . S
H1021 C1013 0.960 . S
H1022 C1014 0.930 . S
H1023 C1015 0.929 . S
H1024 C1032 0.929 . S
H1025 C1034 0.930 . S
H1026 C1036 0.930 . S
H1027 C1039 0.929 . S
H1028 C1042 0.930 . S
H1029 C1044 0.960 . S
H1030 C1044 0.960 . S
H1031 C1044 0.960 . S
C1032 H1024 0.929 . S
C1032 C1033 1.377 . S
C1032 C1034 1.384 . S
C1033 C1032 1.377 . S
C1033 C1039 1.390 . S
C1034 H1025 0.930 . S
C1034 C1032 1.384 . S
C1034 C1035 1.372 . S
C1035 C1034 1.372 . S
C1035 C1036 1.400 . S
C1035 C1040 1.490 . S
C1036 H1026 0.930 . S
C1036 C1035 1.400 . S
C1036 C1039 1.386 . S
H1037 C1053 0.930 . S
H1038 C1054 0.931 . S
C1039 H1027 0.929 . S
C1039 C1033 1.390 . S
C1039 C1036 1.386 . S
C1040 C1035 1.490 . S
C1040 C1042 1.395 . S
C1040 C1043 1.403 . S
H1041 C1047 0.930 . S
C1042 H1028 0.930 . S
C1042 C1040 1.395 . S
C1042 C1045 1.403 . S
C1043 C1040 1.403 . S
C1043 C1044 1.524 . S
C1043 C1047 1.400 . S
C1044 H1029 0.960 . S
C1044 H1030 0.960 . S
C1044 H1031 0.960 . S
C1044 C1043 1.524 . S
C1045 C1042 1.403 . S
C1045 C1046 1.392 . S
C1045 C1049 1.495 . S
C1046 C1045 1.392 . S
C1046 C1047 1.385 . S
C1046 C1048 1.478 . S
C1047 H1041 0.930 . S
C1047 C1043 1.400 . S
C1047 C1046 1.385 . S
C1048 C1046 1.478 . S
C1048 C1050 1.381 . S
C1048 C1054 1.383 . S
C1049 C1045 1.495 . S
C1049 H1055 0.959 . S
C1049 H1056 0.961 . S
C1049 H1057 0.960 . S
C1050 C1048 1.381 . S
C1050 C1051 1.394 . S
C1050 H1058 0.930 . S
C1051 C1050 1.394 . S
C1051 C1052 1.383 . S
C1051 H1059 0.929 . S
C1052 C1051 1.383 . S
C1052 C1053 1.377 . S
C1053 H1037 0.930 . S
C1053 C1052 1.377 . S
C1053 C1054 1.379 . S
C1054 H1038 0.931 . S
C1054 C1048 1.383 . S
C1054 C1053 1.379 . S
H1055 C1049 0.959 . S
H1056 C1049 0.961 . S
H1057 C1049 0.960 . S
H1058 C1050 0.930 . S
H1059 C1051 0.929 . S
H1060 C1068 0.929 . S
H1061 C1070 0.930 . S
H1062 C1072 0.930 . S
H1063 C1075 0.929 . S
H1064 C1078 0.930 . S
H1065 C1080 0.960 . S
H1066 C1080 0.960 . S
H1067 C1080 0.960 . S
C1068 H1060 0.929 . S
C1068 C1069 1.377 . S
C1068 C1070 1.384 . S
C1069 C1068 1.377 . S
C1069 C1075 1.390 . S
C1070 H1061 0.930 . S
C1070 C1068 1.384 . S
C1070 C1071 1.372 . S
C1071 C1070 1.372 . S
C1071 C1072 1.400 . S
C1071 C1076 1.490 . S
C1072 H1062 0.930 . S
C1072 C1071 1.400 . S
C1072 C1075 1.386 . S
H1073 C1089 0.930 . S
H1074 C1090 0.931 . S
C1075 H1063 0.929 . S
C1075 C1069 1.390 . S
C1075 C1072 1.386 . S
C1076 C1071 1.490 . S
C1076 C1078 1.395 . S
C1076 C1079 1.403 . S
H1077 C1083 0.930 . S
C1078 H1064 0.930 . S
C1078 C1076 1.395 . S
C1078 C1081 1.403 . S
C1079 C1076 1.403 . S
C1079 C1080 1.524 . S
C1079 C1083 1.400 1_455 S
C1080 H1065 0.960 . S
C1080 H1066 0.960 . S
C1080 H1067 0.960 . S
C1080 C1079 1.524 . S
C1081 C1078 1.403 . S
C1081 C1082 1.392 1_455 S
C1081 C1085 1.495 . S
C1082 C1081 1.392 1_655 S
C1082 C1083 1.385 . S
C1082 C1084 1.478 . S
C1083 H1077 0.930 . S
C1083 C1079 1.400 1_655 S
C1083 C1082 1.385 . S
C1084 C1082 1.478 . S
C1084 C1086 1.381 . S
C1084 C1090 1.383 . S
C1085 C1081 1.495 . S
C1085 H1091 0.959 . S
C1085 H1092 0.961 . S
C1085 H1093 0.960 . S
C1086 C1084 1.381 . S
C1086 C1087 1.394 . S
C1086 H1094 0.930 . S
C1087 C1086 1.394 . S
C1087 C1088 1.383 . S
C1087 H1095 0.929 . S
C1088 C1087 1.383 . S
C1088 C1089 1.377 . S
C1089 H1073 0.930 . S
C1089 C1088 1.377 . S
C1089 C1090 1.379 . S
C1090 H1074 0.931 . S
C1090 C1084 1.383 . S
C1090 C1089 1.379 . S
H1091 C1085 0.959 . S
H1092 C1085 0.961 . S
H1093 C1085 0.960 . S
H1094 C1086 0.930 . S
H1095 C1087 0.929 . S
H1096 C1104 0.929 . S
H1097 C1106 0.930 . S
H1098 C1108 0.930 . S
H1099 C1111 0.929 . S
H1100 C1114 0.930 . S
H1101 C1116 0.960 . S
H1102 C1116 0.960 . S
H1103 C1116 0.960 . S
C1104 H1096 0.929 . S
C1104 C1105 1.377 . S
C1104 C1106 1.384 . S
C1105 C1104 1.377 . S
C1105 C1111 1.390 . S
C1106 H1097 0.930 . S
C1106 C1104 1.384 . S
C1106 C1107 1.372 . S
C1107 C1106 1.372 . S
C1107 C1108 1.400 . S
C1107 C1112 1.490 . S
C1108 H1098 0.930 . S
C1108 C1107 1.400 . S
C1108 C1111 1.386 . S
H1109 C1125 0.930 . S
H1110 C1126 0.931 . S
C1111 H1099 0.929 . S
C1111 C1105 1.390 . S
C1111 C1108 1.386 . S
C1112 C1107 1.490 . S
C1112 C1114 1.395 . S
C1112 C1115 1.403 . S
H1113 C1119 0.930 . S
C1114 H1100 0.930 . S
C1114 C1112 1.395 . S
C1114 C1117 1.403 . S
C1115 C1112 1.403 . S
C1115 C1116 1.524 . S
C1115 C1119 1.400 . S
C1116 H1101 0.960 . S
C1116 H1102 0.960 . S
C1116 H1103 0.960 . S
C1116 C1115 1.524 . S
C1117 C1114 1.403 . S
C1117 C1118 1.392 . S
C1117 C1121 1.495 . S
C1118 C1117 1.392 . S
C1118 C1119 1.385 . S
C1118 C1120 1.478 . S
C1119 H1113 0.930 . S
C1119 C1115 1.400 . S
C1119 C1118 1.385 . S
C1120 C1118 1.478 . S
C1120 C1122 1.381 . S
C1120 C1126 1.383 . S
C1121 C1117 1.495 . S
C1121 H1127 0.959 . S
C1121 H1128 0.961 . S
C1121 H1129 0.960 . S
C1122 C1120 1.381 . S
C1122 C1123 1.394 . S
C1122 H1130 0.930 . S
C1123 C1122 1.394 . S
C1123 C1124 1.383 . S
C1123 H1131 0.929 . S
C1124 C1123 1.383 . S
C1124 C1125 1.377 . S
C1125 H1109 0.930 . S
C1125 C1124 1.377 . S
C1125 C1126 1.379 . S
C1126 H1110 0.931 . S
C1126 C1120 1.383 . S
C1126 C1125 1.379 . S
H1127 C1121 0.959 . S
H1128 C1121 0.961 . S
H1129 C1121 0.960 . S
H1130 C1122 0.930 . S
H1131 C1123 0.929 . S
H1132 C1140 0.929 . S
H1133 C1142 0.930 . S
H1134 C1144 0.930 . S
H1135 C1147 0.929 . S
H1136 C1150 0.930 . S
H1137 C1152 0.960 . S
H1138 C1152 0.960 . S
H1139 C1152 0.960 . S
C1140 H1132 0.929 . S
C1140 C1141 1.377 . S
C1140 C1142 1.384 . S
C1141 C1140 1.377 . S
C1141 C1147 1.390 . S
C1142 H1133 0.930 . S
C1142 C1140 1.384 . S
C1142 C1143 1.372 . S
C1143 C1142 1.372 . S
C1143 C1144 1.400 . S
C1143 C1148 1.490 . S
C1144 H1134 0.930 . S
C1144 C1143 1.400 . S
C1144 C1147 1.386 . S
H1145 C1161 0.930 . S
H1146 C1162 0.931 . S
C1147 H1135 0.929 . S
C1147 C1141 1.390 . S
C1147 C1144 1.386 . S
C1148 C1143 1.490 . S
C1148 C1150 1.395 . S
C1148 C1151 1.403 . S
H1149 C1155 0.930 . S
C1150 H1136 0.930 . S
C1150 C1148 1.395 . S
C1150 C1153 1.403 . S
C1151 C1148 1.403 . S
C1151 C1152 1.524 . S
C1151 C1155 1.400 . S
C1152 H1137 0.960 . S
C1152 H1138 0.960 . S
C1152 H1139 0.960 . S
C1152 C1151 1.524 . S
C1153 C1150 1.403 . S
C1153 C1154 1.392 . S
C1153 C1157 1.495 . S
C1154 C1153 1.392 . S
C1154 C1155 1.385 . S
C1154 C1156 1.478 . S
C1155 H1149 0.930 . S
C1155 C1151 1.400 . S
C1155 C1154 1.385 . S
C1156 C1154 1.478 . S
C1156 C1158 1.381 . S
C1156 C1162 1.383 . S
C1157 C1153 1.495 . S
C1157 H1163 0.959 . S
C1157 H1164 0.961 . S
C1157 H1165 0.960 . S
C1158 C1156 1.381 . S
C1158 C1159 1.394 . S
C1158 H1166 0.930 . S
C1159 C1158 1.394 . S
C1159 C1160 1.383 . S
C1159 H1167 0.929 . S
C1160 C1159 1.383 . S
C1160 C1161 1.377 . S
C1161 H1145 0.930 . S
C1161 C1160 1.377 . S
C1161 C1162 1.379 . S
C1162 H1146 0.931 . S
C1162 C1156 1.383 . S
C1162 C1161 1.379 . S
H1163 C1157 0.959 . S
H1164 C1157 0.961 . S
H1165 C1157 0.960 . S
H1166 C1158 0.930 . S
H1167 C1159 0.929 . S
H1168 C1176 0.929 . S
H1169 C1178 0.930 . S
H1170 C1180 0.930 . S
H1171 C1183 0.929 . S
H1172 C1186 0.930 . S
H1173 C1188 0.960 . S
H1174 C1188 0.960 . S
H1175 C1188 0.960 . S
C1176 H1168 0.929 . S
C1176 C1177 1.377 . S
C1176 C1178 1.384 . S
C1177 C1176 1.377 . S
C1177 C1183 1.390 . S
C1178 H1169 0.930 . S
C1178 C1176 1.384 . S
C1178 C1179 1.372 . S
C1179 C1178 1.372 . S
C1179 C1180 1.400 . S
C1179 C1184 1.490 . S
C1180 H1170 0.930 . S
C1180 C1179 1.400 . S
C1180 C1183 1.386 . S
H1181 C1197 0.930 . S
H1182 C1198 0.931 . S
C1183 H1171 0.929 . S
C1183 C1177 1.390 . S
C1183 C1180 1.386 . S
C1184 C1179 1.490 . S
C1184 C1186 1.395 . S
C1184 C1187 1.403 . S
H1185 C1191 0.930 . S
C1186 H1172 0.930 . S
C1186 C1184 1.395 . S
C1186 C1189 1.403 . S
C1187 C1184 1.403 . S
C1187 C1188 1.524 . S
C1187 C1191 1.400 . S
C1188 H1173 0.960 . S
C1188 H1174 0.960 . S
C1188 H1175 0.960 . S
C1188 C1187 1.524 . S
C1189 C1186 1.403 . S
C1189 C1190 1.392 . S
C1189 C1193 1.495 . S
C1190 C1189 1.392 . S
C1190 C1191 1.385 . S
C1190 C1192 1.478 . S
C1191 H1185 0.930 . S
C1191 C1187 1.400 . S
C1191 C1190 1.385 . S
C1192 C1190 1.478 . S
C1192 C1194 1.381 . S
C1192 C1198 1.383 . S
C1193 C1189 1.495 . S
C1193 H1199 0.959 . S
C1193 H1200 0.961 . S
C1193 H1201 0.960 . S
C1194 C1192 1.381 . S
C1194 C1195 1.394 . S
C1194 H1202 0.930 . S
C1195 C1194 1.394 . S
C1195 C1196 1.383 . S
C1195 H1203 0.929 . S
C1196 C1195 1.383 . S
C1196 C1197 1.377 . S
C1197 H1181 0.930 . S
C1197 C1196 1.377 . S
C1197 C1198 1.379 . S
C1198 H1182 0.931 . S
C1198 C1192 1.383 . S
C1198 C1197 1.379 . S
H1199 C1193 0.959 . S
H1200 C1193 0.961 . S
H1201 C1193 0.960 . S
H1202 C1194 0.930 . S
H1203 C1195 0.929 . S
H1204 C1212 0.929 . S
H1205 C1214 0.930 . S
H1206 C1216 0.930 . S
H1207 C1219 0.929 . S
H1208 C1222 0.930 . S
H1209 C1224 0.960 . S
H1210 C1224 0.960 . S
H1211 C1224 0.960 . S
C1212 H1204 0.929 . S
C1212 C1213 1.377 . S
C1212 C1214 1.384 . S
C1213 C1212 1.377 . S
C1213 C1219 1.390 . S
C1214 H1205 0.930 . S
C1214 C1212 1.384 . S
C1214 C1215 1.372 . S
C1215 C1214 1.372 . S
C1215 C1216 1.400 . S
C1215 C1220 1.490 . S
C1216 H1206 0.930 . S
C1216 C1215 1.400 . S
C1216 C1219 1.386 . S
H1217 C1233 0.930 . S
H1218 C1234 0.931 . S
C1219 H1207 0.929 . S
C1219 C1213 1.390 . S
C1219 C1216 1.386 . S
C1220 C1215 1.490 . S
C1220 C1222 1.395 . S
C1220 C1223 1.403 . S
H1221 C1227 0.930 . S
C1222 H1208 0.930 . S
C1222 C1220 1.395 . S
C1222 C1225 1.403 . S
C1223 C1220 1.403 . S
C1223 C1224 1.524 . S
C1223 C1227 1.400 . S
C1224 H1209 0.960 . S
C1224 H1210 0.960 . S
C1224 H1211 0.960 . S
C1224 C1223 1.524 . S
C1225 C1222 1.403 . S
C1225 C1226 1.392 . S
C1225 C1229 1.495 . S
C1226 C1225 1.392 . S
C1226 C1227 1.385 . S
C1226 C1228 1.478 . S
C1227 H1221 0.930 . S
C1227 C1223 1.400 . S
C1227 C1226 1.385 . S
C1228 C1226 1.478 . S
C1228 C1230 1.381 . S
C1228 C1234 1.383 . S
C1229 C1225 1.495 . S
C1229 H1235 0.959 . S
C1229 H1236 0.961 . S
C1229 H1237 0.960 . S
C1230 C1228 1.381 . S
C1230 C1231 1.394 . S
C1230 H1238 0.930 . S
C1231 C1230 1.394 . S
C1231 C1232 1.383 . S
C1231 H1239 0.929 . S
C1232 C1231 1.383 . S
C1232 C1233 1.377 . S
C1233 H1217 0.930 . S
C1233 C1232 1.377 . S
C1233 C1234 1.379 . S
C1234 H1218 0.931 . S
C1234 C1228 1.383 . S
C1234 C1233 1.379 . S
H1235 C1229 0.959 . S
H1236 C1229 0.961 . S
H1237 C1229 0.960 . S
H1238 C1230 0.930 . S
H1239 C1231 0.929 . S
H1240 C1248 0.929 . S
H1241 C1250 0.930 . S
H1242 C1252 0.930 . S
H1243 C1255 0.929 . S
H1244 C1258 0.930 . S
H1245 C1260 0.960 . S
H1246 C1260 0.960 . S
H1247 C1260 0.960 . S
C1248 H1240 0.929 . S
C1248 C1249 1.377 . S
C1248 C1250 1.384 . S
C1249 C1248 1.377 . S
C1249 C1255 1.390 . S
C1250 H1241 0.930 . S
C1250 C1248 1.384 . S
C1250 C1251 1.372 . S
C1251 C1250 1.372 . S
C1251 C1252 1.400 . S
C1251 C1256 1.490 . S
C1252 H1242 0.930 . S
C1252 C1251 1.400 . S
C1252 C1255 1.386 . S
H1253 C1269 0.930 . S
H1254 C1270 0.931 . S
C1255 H1243 0.929 . S
C1255 C1249 1.390 . S
C1255 C1252 1.386 . S
C1256 C1251 1.490 . S
C1256 C1258 1.395 . S
C1256 C1259 1.403 . S
H1257 C1263 0.930 . S
C1258 H1244 0.930 . S
C1258 C1256 1.395 . S
C1258 C1261 1.403 . S
C1259 C1256 1.403 . S
C1259 C1260 1.524 . S
C1259 C1263 1.400 . S
C1260 H1245 0.960 . S
C1260 H1246 0.960 . S
C1260 H1247 0.960 . S
C1260 C1259 1.524 . S
C1261 C1258 1.403 . S
C1261 C1262 1.392 . S
C1261 C1265 1.495 . S
C1262 C1261 1.392 . S
C1262 C1263 1.385 . S
C1262 C1264 1.478 . S
C1263 H1257 0.930 . S
C1263 C1259 1.400 . S
C1263 C1262 1.385 . S
C1264 C1262 1.478 . S
C1264 C1266 1.381 . S
C1264 C1270 1.383 . S
C1265 C1261 1.495 . S
C1265 H1271 0.959 . S
C1265 H1272 0.961 . S
C1265 H1273 0.960 . S
C1266 C1264 1.381 . S
C1266 C1267 1.394 . S
C1266 H1274 0.930 . S
C1267 C1266 1.394 . S
C1267 C1268 1.383 . S
C1267 H1275 0.929 . S
C1268 C1267 1.383 . S
C1268 C1269 1.377 . S
C1269 H1253 0.930 . S
C1269 C1268 1.377 . S
C1269 C1270 1.379 . S
C1270 H1254 0.931 . S
C1270 C1264 1.383 . S
C1270 C1269 1.379 . S
H1271 C1265 0.959 . S
H1272 C1265 0.961 . S
H1273 C1265 0.960 . S
H1274 C1266 0.930 . S
H1275 C1267 0.929 . S
H1276 C1284 0.929 . S
H1277 C1286 0.930 . S
H1278 C1288 0.930 . S
H1279 C1291 0.929 . S
H1280 C1294 0.930 . S
H1281 C1296 0.960 . S
H1282 C1296 0.960 . S
H1283 C1296 0.960 . S
C1284 H1276 0.929 . S
C1284 C1285 1.377 . S
C1284 C1286 1.384 . S
C1285 C1284 1.377 . S
C1285 C1291 1.390 . S
C1286 H1277 0.930 . S
C1286 C1284 1.384 . S
C1286 C1287 1.372 . S
C1287 C1286 1.372 . S
C1287 C1288 1.400 . S
C1287 C1292 1.490 . S
C1288 H1278 0.930 . S
C1288 C1287 1.400 . S
C1288 C1291 1.386 . S
H1289 C1305 0.930 . S
H1290 C1306 0.931 . S
C1291 H1279 0.929 . S
C1291 C1285 1.390 . S
C1291 C1288 1.386 . S
C1292 C1287 1.490 . S
C1292 C1294 1.395 . S
C1292 C1295 1.403 . S
H1293 C1299 0.928 1_655 S
C1294 H1280 0.930 . S
C1294 C1292 1.395 . S
C1294 C1297 1.403 . S
C1295 C1292 1.403 . S
C1295 C1296 1.524 . S
C1295 C1299 1.402 . S
C1296 H1281 0.960 . S
C1296 H1282 0.960 . S
C1296 H1283 0.960 . S
C1296 C1295 1.524 . S
C1297 C1294 1.403 . S
C1297 C1298 1.392 1_455 S
C1297 C1301 1.495 . S
C1298 C1297 1.392 1_655 S
C1298 C1299 1.385 1_655 S
C1298 C1300 1.478 . S
C1299 H1293 0.928 1_455 S
C1299 C1295 1.402 . S
C1299 C1298 1.385 1_455 S
C1300 C1298 1.478 . S
C1300 C1302 1.381 . S
C1300 C1306 1.383 . S
C1301 C1297 1.495 . S
C1301 H1307 0.959 . S
C1301 H1308 0.961 . S
C1301 H1309 0.960 1_455 S
C1302 C1300 1.381 . S
C1302 C1303 1.394 . S
C1302 H1310 0.930 . S
C1303 C1302 1.394 . S
C1303 C1304 1.383 . S
C1303 H1311 0.929 . S
C1304 C1303 1.383 . S
C1304 C1305 1.377 . S
C1305 H1289 0.930 . S
C1305 C1304 1.377 . S
C1305 C1306 1.379 . S
C1306 H1290 0.931 . S
C1306 C1300 1.383 . S
C1306 C1305 1.379 . S
H1307 C1301 0.959 . S
H1308 C1301 0.961 . S
H1309 C1301 0.960 1_655 S
H1310 C1302 0.930 . S
H1311 C1303 0.929 . S
H1312 C1320 0.929 . S
H1313 C1322 0.930 . S
H1314 C1324 0.930 . S
H1315 C1327 0.929 . S
H1316 C1330 0.930 . S
H1317 C1332 0.960 . S
H1318 C1332 0.960 . S
H1319 C1332 0.960 . S
C1320 H1312 0.929 . S
C1320 C1321 1.377 . S
C1320 C1322 1.384 . S
C1321 C1320 1.377 . S
C1321 C1327 1.390 . S
C1322 H1313 0.930 . S
C1322 C1320 1.384 . S
C1322 C1323 1.372 . S
C1323 C1322 1.372 . S
C1323 C1324 1.400 . S
C1323 C1328 1.490 . S
C1324 H1314 0.930 . S
C1324 C1323 1.400 . S
C1324 C1327 1.386 . S
H1325 C1341 0.930 . S
H1326 C1342 0.931 . S
C1327 H1315 0.929 . S
C1327 C1321 1.390 . S
C1327 C1324 1.386 . S
C1328 C1323 1.490 . S
C1328 C1330 1.395 . S
C1328 C1331 1.403 . S
H1329 C1335 0.930 . S
C1330 H1316 0.930 . S
C1330 C1328 1.395 . S
C1330 C1333 1.403 . S
C1331 C1328 1.403 . S
C1331 C1332 1.524 . S
C1331 C1335 1.400 . S
C1332 H1317 0.960 . S
C1332 H1318 0.960 . S
C1332 H1319 0.960 . S
C1332 C1331 1.524 . S
C1333 C1330 1.403 . S
C1333 C1334 1.392 . S
C1333 C1337 1.495 . S
C1334 C1333 1.392 . S
C1334 C1335 1.385 . S
C1334 C1336 1.478 . S
C1335 H1329 0.930 . S
C1335 C1331 1.400 . S
C1335 C1334 1.385 . S
C1336 C1334 1.478 . S
C1336 C1338 1.381 . S
C1336 C1342 1.383 . S
C1337 C1333 1.495 . S
C1337 H1343 0.959 . S
C1337 H1344 0.961 . S
C1337 H1345 0.960 . S
C1338 C1336 1.381 . S
C1338 C1339 1.394 . S
C1338 H1346 0.930 . S
C1339 C1338 1.394 . S
C1339 C1340 1.383 . S
C1339 H1347 0.929 . S
C1340 C1339 1.383 . S
C1340 C1341 1.377 . S
C1341 H1325 0.930 . S
C1341 C1340 1.377 . S
C1341 C1342 1.379 . S
C1342 H1326 0.931 . S
C1342 C1336 1.383 . S
C1342 C1341 1.379 . S
H1343 C1337 0.959 . S
H1344 C1337 0.961 . S
H1345 C1337 0.960 . S
H1346 C1338 0.930 . S
H1347 C1339 0.929 . S
H1348 C1356 0.929 . S
H1349 C1358 0.930 . S
H1350 C1360 0.930 . S
H1351 C1363 0.929 . S
H1352 C1366 0.930 . S
H1353 C1368 0.960 . S
H1354 C1368 0.960 . S
H1355 C1368 0.960 . S
C1356 H1348 0.929 . S
C1356 C1357 1.377 . S
C1356 C1358 1.384 . S
C1357 C1356 1.377 . S
C1357 C1363 1.390 . S
C1358 H1349 0.930 . S
C1358 C1356 1.384 . S
C1358 C1359 1.372 . S
C1359 C1358 1.372 . S
C1359 C1360 1.400 . S
C1359 C1364 1.490 . S
C1360 H1350 0.930 . S
C1360 C1359 1.400 . S
C1360 C1363 1.386 . S
H1361 C1377 0.930 . S
H1362 C1378 0.931 . S
C1363 H1351 0.929 . S
C1363 C1357 1.390 . S
C1363 C1360 1.386 . S
C1364 C1359 1.490 . S
C1364 C1366 1.395 . S
C1364 C1367 1.403 . S
H1365 C1371 0.930 . S
C1366 H1352 0.930 . S
C1366 C1364 1.395 . S
C1366 C1369 1.403 . S
C1367 C1364 1.403 . S
C1367 C1368 1.524 . S
C1367 C1371 1.400 . S
C1368 H1353 0.960 . S
C1368 H1354 0.960 . S
C1368 H1355 0.960 . S
C1368 C1367 1.524 . S
C1369 C1366 1.403 . S
C1369 C1370 1.392 . S
C1369 C1373 1.495 . S
C1370 C1369 1.392 . S
C1370 C1371 1.385 . S
C1370 C1372 1.478 . S
C1371 H1365 0.930 . S
C1371 C1367 1.400 . S
C1371 C1370 1.385 . S
C1372 C1370 1.478 . S
C1372 C1374 1.381 . S
C1372 C1378 1.383 . S
C1373 C1369 1.495 . S
C1373 H1379 0.959 . S
C1373 H1380 0.961 . S
C1373 H1381 0.960 . S
C1374 C1372 1.381 . S
C1374 C1375 1.394 . S
C1374 H1382 0.930 . S
C1375 C1374 1.394 . S
C1375 C1376 1.383 . S
C1375 H1383 0.929 . S
C1376 C1375 1.383 . S
C1376 C1377 1.377 . S
C1377 H1361 0.930 . S
C1377 C1376 1.377 . S
C1377 C1378 1.379 . S
C1378 H1362 0.931 . S
C1378 C1372 1.383 . S
C1378 C1377 1.379 . S
H1379 C1373 0.959 . S
H1380 C1373 0.961 . S
H1381 C1373 0.960 . S
H1382 C1374 0.930 . S
H1383 C1375 0.929 . S
H1384 C1392 0.929 . S
H1385 C1394 0.930 . S
H1386 C1396 0.930 . S
H1387 C1399 0.929 . S
H1388 C1402 0.930 . S
H1389 C1404 0.960 . S
H1390 C1404 0.960 . S
H1391 C1404 0.960 . S
C1392 H1384 0.929 . S
C1392 C1393 1.377 . S
C1392 C1394 1.384 . S
C1393 C1392 1.377 . S
C1393 C1399 1.390 . S
C1394 H1385 0.930 . S
C1394 C1392 1.384 . S
C1394 C1395 1.372 . S
C1395 C1394 1.372 . S
C1395 C1396 1.400 . S
C1395 C1400 1.490 . S
C1396 H1386 0.930 . S
C1396 C1395 1.400 . S
C1396 C1399 1.386 . S
H1397 C1413 0.930 . S
H1398 C1414 0.931 . S
C1399 H1387 0.929 . S
C1399 C1393 1.390 . S
C1399 C1396 1.386 . S
C1400 C1395 1.490 . S
C1400 C1402 1.395 . S
C1400 C1403 1.403 . S
H1401 C1407 0.930 . S
C1402 H1388 0.930 . S
C1402 C1400 1.395 . S
C1402 C1405 1.403 . S
C1403 C1400 1.403 . S
C1403 C1404 1.524 . S
C1403 C1407 1.400 . S
C1404 H1389 0.960 . S
C1404 H1390 0.960 . S
C1404 H1391 0.960 . S
C1404 C1403 1.524 . S
C1405 C1402 1.403 . S
C1405 C1406 1.392 . S
C1405 C1409 1.495 . S
C1406 C1405 1.392 . S
C1406 C1407 1.385 . S
C1406 C1408 1.478 . S
C1407 H1401 0.930 . S
C1407 C1403 1.400 . S
C1407 C1406 1.385 . S
C1408 C1406 1.478 . S
C1408 C1410 1.381 . S
C1408 C1414 1.383 . S
C1409 C1405 1.495 . S
C1409 H1415 0.959 . S
C1409 H1416 0.961 . S
C1409 H1417 0.960 . S
C1410 C1408 1.381 . S
C1410 C1411 1.394 . S
C1410 H1418 0.930 . S
C1411 C1410 1.394 . S
C1411 C1412 1.383 . S
C1411 H1419 0.929 . S
C1412 C1411 1.383 . S
C1412 C1413 1.377 . S
C1413 H1397 0.930 . S
C1413 C1412 1.377 . S
C1413 C1414 1.379 . S
C1414 H1398 0.931 . S
C1414 C1408 1.383 . S
C1414 C1413 1.379 . S
H1415 C1409 0.959 . S
H1416 C1409 0.961 . S
H1417 C1409 0.960 . S
H1418 C1410 0.930 . S
H1419 C1411 0.929 . S
H1420 C1428 0.929 . S
H1421 C1430 0.930 . S
H1422 C1432 0.930 . S
H1423 C1435 0.929 . S
H1424 C1438 0.930 . S
H1425 C1440 0.960 . S
H1426 C1440 0.960 . S
H1427 C1440 0.960 . S
C1428 H1420 0.929 . S
C1428 C1429 1.377 . S
C1428 C1430 1.384 . S
C1429 C1428 1.377 . S
C1429 C1435 1.390 . S
C1430 H1421 0.930 . S
C1430 C1428 1.384 . S
C1430 C1431 1.372 . S
C1431 C1430 1.372 . S
C1431 C1432 1.400 . S
C1431 C1436 1.490 . S
C1432 H1422 0.930 . S
C1432 C1431 1.400 . S
C1432 C1435 1.386 . S
H1433 C1449 0.930 . S
H1434 C1450 0.931 . S
C1435 H1423 0.929 . S
C1435 C1429 1.390 . S
C1435 C1432 1.386 . S
C1436 C1431 1.490 . S
C1436 C1438 1.395 . S
C1436 C1439 1.403 . S
H1437 C1443 0.930 . S
C1438 H1424 0.930 . S
C1438 C1436 1.395 . S
C1438 C1441 1.403 1_455 S
C1439 C1436 1.403 . S
C1439 C1440 1.524 . S
C1439 C1443 1.400 . S
C1440 H1425 0.960 . S
C1440 H1426 0.960 . S
C1440 H1427 0.960 . S
C1440 C1439 1.524 . S
C1441 C1438 1.403 1_655 S
C1441 C1442 1.392 . S
C1441 C1445 1.495 . S
C1442 C1441 1.392 . S
C1442 C1443 1.385 1_655 S
C1442 C1444 1.478 . S
C1443 H1437 0.930 . S
C1443 C1439 1.400 . S
C1443 C1442 1.385 1_455 S
C1444 C1442 1.478 . S
C1444 C1446 1.381 . S
C1444 C1450 1.383 . S
C1445 C1441 1.495 . S
C1445 H1451 0.959 . S
C1445 H1452 0.961 . S
C1445 H1453 0.960 . S
C1446 C1444 1.381 . S
C1446 C1447 1.394 . S
C1446 H1454 0.930 . S
C1447 C1446 1.394 . S
C1447 C1448 1.383 . S
C1447 H1455 0.929 . S
C1448 C1447 1.383 . S
C1448 C1449 1.377 . S
C1449 H1433 0.930 . S
C1449 C1448 1.377 . S
C1449 C1450 1.379 . S
C1450 H1434 0.931 . S
C1450 C1444 1.383 . S
C1450 C1449 1.379 . S
H1451 C1445 0.959 . S
H1452 C1445 0.961 . S
H1453 C1445 0.960 . S
H1454 C1446 0.930 . S
H1455 C1447 0.929 . S
H1456 C1464 0.929 . S
H1457 C1466 0.930 . S
H1458 C1468 0.930 . S
H1459 C1471 0.929 . S
H1460 C1474 0.930 . S
H1461 C1476 0.960 . S
H1462 C1476 0.960 . S
H1463 C1476 0.960 . S
C1464 H1456 0.929 . S
C1464 C1465 1.377 . S
C1464 C1466 1.384 . S
C1465 C1464 1.377 . S
C1465 C1471 1.390 . S
C1466 H1457 0.930 . S
C1466 C1464 1.384 . S
C1466 C1467 1.372 . S
C1467 C1466 1.372 . S
C1467 C1468 1.400 . S
C1467 C1472 1.490 . S
C1468 H1458 0.930 . S
C1468 C1467 1.400 . S
C1468 C1471 1.386 . S
H1469 C1485 0.930 . S
H1470 C1486 0.931 . S
C1471 H1459 0.929 . S
C1471 C1465 1.390 . S
C1471 C1468 1.386 . S
C1472 C1467 1.490 . S
C1472 C1474 1.395 . S
C1472 C1475 1.403 . S
H1473 C1479 0.930 . S
C1474 H1460 0.930 . S
C1474 C1472 1.395 . S
C1474 C1477 1.403 . S
C1475 C1472 1.403 . S
C1475 C1476 1.524 . S
C1475 C1479 1.400 . S
C1476 H1461 0.960 . S
C1476 H1462 0.960 . S
C1476 H1463 0.960 . S
C1476 C1475 1.524 . S
C1477 C1474 1.403 . S
C1477 C1478 1.392 . S
C1477 C1481 1.495 . S
C1478 C1477 1.392 . S
C1478 C1479 1.385 . S
C1478 C1480 1.478 . S
C1479 H1473 0.930 . S
C1479 C1475 1.400 . S
C1479 C1478 1.385 . S
C1480 C1478 1.478 . S
C1480 C1482 1.381 . S
C1480 C1486 1.383 . S
C1481 C1477 1.495 . S
C1481 H1487 0.959 . S
C1481 H1488 0.961 . S
C1481 H1489 0.960 . S
C1482 C1480 1.381 . S
C1482 C1483 1.394 . S
C1482 H1490 0.930 . S
C1483 C1482 1.394 . S
C1483 C1484 1.383 . S
C1483 H1491 0.929 . S
C1484 C1483 1.383 . S
C1484 C1485 1.377 . S
C1485 H1469 0.930 . S
C1485 C1484 1.377 . S
C1485 C1486 1.379 . S
C1486 H1470 0.931 . S
C1486 C1480 1.383 . S
C1486 C1485 1.379 . S
H1487 C1481 0.959 . S
H1488 C1481 0.961 . S
H1489 C1481 0.960 . S
H1490 C1482 0.930 . S
H1491 C1483 0.929 . S
H1492 C1500 0.929 . S
H1493 C1502 0.930 . S
H1494 C1504 0.930 . S
H1495 C1507 0.929 . S
H1496 C1510 0.930 . S
H1497 C1512 0.960 1_655 S
H1498 C1512 0.960 . S
H1499 C1512 0.960 . S
C1500 H1492 0.929 . S
C1500 C1501 1.377 . S
C1500 C1502 1.384 . S
C1501 C1500 1.377 . S
C1501 C1507 1.390 . S
C1502 H1493 0.930 . S
C1502 C1500 1.384 . S
C1502 C1503 1.372 . S
C1503 C1502 1.372 . S
C1503 C1504 1.400 . S
C1503 C1508 1.490 . S
C1504 H1494 0.930 . S
C1504 C1503 1.400 . S
C1504 C1507 1.386 . S
H1505 C1521 0.930 . S
H1506 C1522 0.931 . S
C1507 H1495 0.929 . S
C1507 C1501 1.390 . S
C1507 C1504 1.386 . S
C1508 C1503 1.490 . S
C1508 C1510 1.395 . S
C1508 C1511 1.403 . S
H1509 C1515 0.930 . S
C1510 H1496 0.930 . S
C1510 C1508 1.395 . S
C1510 C1513 1.403 . S
C1511 C1508 1.403 . S
C1511 C1512 1.524 . S
C1511 C1515 1.400 1_455 S
C1512 H1497 0.960 1_455 S
C1512 H1498 0.960 . S
C1512 H1499 0.960 . S
C1512 C1511 1.524 . S
C1513 C1510 1.403 . S
C1513 C1514 1.392 1_455 S
C1513 C1517 1.495 . S
C1514 C1513 1.392 1_655 S
C1514 C1515 1.385 . S
C1514 C1516 1.478 . S
C1515 H1509 0.930 . S
C1515 C1511 1.400 1_655 S
C1515 C1514 1.385 . S
C1516 C1514 1.478 . S
C1516 C1518 1.381 . S
C1516 C1522 1.383 . S
C1517 C1513 1.495 . S
C1517 H1523 0.959 . S
C1517 H1524 0.961 . S
C1517 H1525 0.960 . S
C1518 C1516 1.381 . S
C1518 C1519 1.394 . S
C1518 H1526 0.930 . S
C1519 C1518 1.394 . S
C1519 C1520 1.383 . S
C1519 H1527 0.929 . S
C1520 C1519 1.383 . S
C1520 C1521 1.377 . S
C1521 H1505 0.930 . S
C1521 C1520 1.377 . S
C1521 C1522 1.379 . S
C1522 H1506 0.931 . S
C1522 C1516 1.383 . S
C1522 C1521 1.379 . S
H1523 C1517 0.959 . S
H1524 C1517 0.961 . S
H1525 C1517 0.960 . S
H1526 C1518 0.930 . S
H1527 C1519 0.929 . S
H1528 C1536 0.929 . S
H1529 C1538 0.930 . S
H1530 C1540 0.930 . S
H1531 C1543 0.929 . S
H1532 C1546 0.930 . S
H1533 C1548 0.960 . S
H1534 C1548 0.960 . S
H1535 C1548 0.960 . S
C1536 H1528 0.929 . S
C1536 C1537 1.377 . S
C1536 C1538 1.384 . S
C1537 C1536 1.377 . S
C1537 C1543 1.390 . S
C1538 H1529 0.930 . S
C1538 C1536 1.384 . S
C1538 C1539 1.372 . S
C1539 C1538 1.372 . S
C1539 C1540 1.400 . S
C1539 C1544 1.490 . S
C1540 H1530 0.930 . S
C1540 C1539 1.400 . S
C1540 C1543 1.386 . S
H1541 C1557 0.930 . S
H1542 C1558 0.931 . S
C1543 H1531 0.929 . S
C1543 C1537 1.390 . S
C1543 C1540 1.386 . S
C1544 C1539 1.490 . S
C1544 C1546 1.395 . S
C1544 C1547 1.403 . S
H1545 C1551 0.930 . S
C1546 H1532 0.930 . S
C1546 C1544 1.395 . S
C1546 C1549 1.403 . S
C1547 C1544 1.403 . S
C1547 C1548 1.524 . S
C1547 C1551 1.400 . S
C1548 H1533 0.960 . S
C1548 H1534 0.960 . S
C1548 H1535 0.960 . S
C1548 C1547 1.524 . S
C1549 C1546 1.403 . S
C1549 C1550 1.392 . S
C1549 C1553 1.495 . S
C1550 C1549 1.392 . S
C1550 C1551 1.385 . S
C1550 C1552 1.478 . S
C1551 H1545 0.930 . S
C1551 C1547 1.400 . S
C1551 C1550 1.385 . S
C1552 C1550 1.478 . S
C1552 C1554 1.381 . S
C1552 C1558 1.383 . S
C1553 C1549 1.495 . S
C1553 H1559 0.959 . S
C1553 H1560 0.961 . S
C1553 H1561 0.960 . S
C1554 C1552 1.381 . S
C1554 C1555 1.394 . S
C1554 H1562 0.930 . S
C1555 C1554 1.394 . S
C1555 C1556 1.383 . S
C1555 H1563 0.929 . S
C1556 C1555 1.383 . S
C1556 C1557 1.377 . S
C1557 H1541 0.930 . S
C1557 C1556 1.377 . S
C1557 C1558 1.379 . S
C1558 H1542 0.931 . S
C1558 C1552 1.383 . S
C1558 C1557 1.379 . S
H1559 C1553 0.959 . S
H1560 C1553 0.961 . S
H1561 C1553 0.960 . S
H1562 C1554 0.930 . S
H1563 C1555 0.929 . S
H1564 C1572 0.929 . S
H1565 C1574 0.930 . S
H1566 C1576 0.930 . S
H1567 C1579 0.929 . S
H1568 C1582 0.930 . S
H1569 C1584 0.960 . S
H1570 C1584 0.960 . S
H1571 C1584 0.960 . S
C1572 H1564 0.929 . S
C1572 C1573 1.377 . S
C1572 C1574 1.384 . S
C1573 C1572 1.377 . S
C1573 C1579 1.390 . S
C1574 H1565 0.930 . S
C1574 C1572 1.384 . S
C1574 C1575 1.372 . S
C1575 C1574 1.372 . S
C1575 C1576 1.400 . S
C1575 C1580 1.490 . S
C1576 H1566 0.930 . S
C1576 C1575 1.400 . S
C1576 C1579 1.386 . S
H1577 C1593 0.930 . S
H1578 C1594 0.931 . S
C1579 H1567 0.929 . S
C1579 C1573 1.390 . S
C1579 C1576 1.386 . S
C1580 C1575 1.490 . S
C1580 C1582 1.395 . S
C1580 C1583 1.403 . S
H1581 C1587 0.930 . S
C1582 H1568 0.930 . S
C1582 C1580 1.395 . S
C1582 C1585 1.403 . S
C1583 C1580 1.403 . S
C1583 C1584 1.524 . S
C1583 C1587 1.400 . S
C1584 H1569 0.960 . S
C1584 H1570 0.960 . S
C1584 H1571 0.960 . S
C1584 C1583 1.524 . S
C1585 C1582 1.403 . S
C1585 C1586 1.392 . S
C1585 C1589 1.495 . S
C1586 C1585 1.392 . S
C1586 C1587 1.385 . S
C1586 C1588 1.478 . S
C1587 H1581 0.930 . S
C1587 C1583 1.400 . S
C1587 C1586 1.385 . S
C1588 C1586 1.478 . S
C1588 C1590 1.381 . S
C1588 C1594 1.383 . S
C1589 C1585 1.495 . S
C1589 H1595 0.959 . S
C1589 H1596 0.961 . S
C1589 H1597 0.960 . S
C1590 C1588 1.381 . S
C1590 C1591 1.394 . S
C1590 H1598 0.930 . S
C1591 C1590 1.394 . S
C1591 C1592 1.383 . S
C1591 H1599 0.929 . S
C1592 C1591 1.383 . S
C1592 C1593 1.377 . S
C1593 H1577 0.930 . S
C1593 C1592 1.377 . S
C1593 C1594 1.379 . S
C1594 H1578 0.931 . S
C1594 C1588 1.383 . S
C1594 C1593 1.379 . S
H1595 C1589 0.959 . S
H1596 C1589 0.961 . S
H1597 C1589 0.960 . S
H1598 C1590 0.930 . S
H1599 C1591 0.929 . S
H1600 C1608 0.929 . S
H1601 C1610 0.930 . S
H1602 C1612 0.930 . S
H1603 C1615 0.929 . S
H1604 C1618 0.930 . S
H1605 C1620 0.960 . S
H1606 C1620 0.960 . S
H1607 C1620 0.960 . S
C1608 H1600 0.929 . S
C1608 C1609 1.377 . S
C1608 C1610 1.384 . S
C1609 C1608 1.377 . S
C1609 C1615 1.390 . S
C1610 H1601 0.930 . S
C1610 C1608 1.384 . S
C1610 C1611 1.372 . S
C1611 C1610 1.372 . S
C1611 C1612 1.400 . S
C1611 C1616 1.490 . S
C1612 H1602 0.930 . S
C1612 C1611 1.400 . S
C1612 C1615 1.386 . S
H1613 C1629 0.930 . S
H1614 C1630 0.931 . S
C1615 H1603 0.929 . S
C1615 C1609 1.390 . S
C1615 C1612 1.386 . S
C1616 C1611 1.490 . S
C1616 C1618 1.395 . S
C1616 C1619 1.403 . S
H1617 C1623 0.930 . S
C1618 H1604 0.930 . S
C1618 C1616 1.395 . S
C1618 C1621 1.403 . S
C1619 C1616 1.403 . S
C1619 C1620 1.524 . S
C1619 C1623 1.400 . S
C1620 H1605 0.960 . S
C1620 H1606 0.960 . S
C1620 H1607 0.960 . S
C1620 C1619 1.524 . S
C1621 C1618 1.403 . S
C1621 C1622 1.392 . S
C1621 C1625 1.495 . S
C1622 C1621 1.392 . S
C1622 C1623 1.385 . S
C1622 C1624 1.478 . S
C1623 H1617 0.930 . S
C1623 C1619 1.400 . S
C1623 C1622 1.385 . S
C1624 C1622 1.478 . S
C1624 C1626 1.381 . S
C1624 C1630 1.383 . S
C1625 C1621 1.495 . S
C1625 H1631 0.959 . S
C1625 H1632 0.961 . S
C1625 H1633 0.960 . S
C1626 C1624 1.381 . S
C1626 C1627 1.394 . S
C1626 H1634 0.930 . S
C1627 C1626 1.394 . S
C1627 C1628 1.383 . S
C1627 H1635 0.929 . S
C1628 C1627 1.383 . S
C1628 C1629 1.377 . S
C1629 H1613 0.930 . S
C1629 C1628 1.377 . S
C1629 C1630 1.379 . S
C1630 H1614 0.931 . S
C1630 C1624 1.383 . S
C1630 C1629 1.379 . S
H1631 C1625 0.959 . S
H1632 C1625 0.961 . S
H1633 C1625 0.960 . S
H1634 C1626 0.930 . S
H1635 C1627 0.929 . S
H1636 C1644 0.929 . S
H1637 C1646 0.930 . S
H1638 C1648 0.930 . S
H1639 C1651 0.929 . S
H1640 C1654 0.930 . S
H1641 C1656 0.960 . S
H1642 C1656 0.960 . S
H1643 C1656 0.960 . S
C1644 H1636 0.929 . S
C1644 C1645 1.377 . S
C1644 C1646 1.384 . S
C1645 C1644 1.377 . S
C1645 C1651 1.390 . S
C1646 H1637 0.930 . S
C1646 C1644 1.384 . S
C1646 C1647 1.372 . S
C1647 C1646 1.372 . S
C1647 C1648 1.400 . S
C1647 C1652 1.490 . S
C1648 H1638 0.930 . S
C1648 C1647 1.400 . S
C1648 C1651 1.386 . S
H1649 C1665 0.930 . S
H1650 C1666 0.931 . S
C1651 H1639 0.929 . S
C1651 C1645 1.390 . S
C1651 C1648 1.386 . S
C1652 C1647 1.490 . S
C1652 C1654 1.395 . S
C1652 C1655 1.403 . S
H1653 C1659 0.930 . S
C1654 H1640 0.930 . S
C1654 C1652 1.395 . S
C1654 C1657 1.403 . S
C1655 C1652 1.403 . S
C1655 C1656 1.524 . S
C1655 C1659 1.400 . S
C1656 H1641 0.960 . S
C1656 H1642 0.960 . S
C1656 H1643 0.960 . S
C1656 C1655 1.524 . S
C1657 C1654 1.403 . S
C1657 C1658 1.392 . S
C1657 C1661 1.495 . S
C1658 C1657 1.392 . S
C1658 C1659 1.385 . S
C1658 C1660 1.478 . S
C1659 H1653 0.930 . S
C1659 C1655 1.400 . S
C1659 C1658 1.385 . S
C1660 C1658 1.478 . S
C1660 C1662 1.381 . S
C1660 C1666 1.383 . S
C1661 C1657 1.495 . S
C1661 H1667 0.959 . S
C1661 H1668 0.961 . S
C1661 H1669 0.960 . S
C1662 C1660 1.381 . S
C1662 C1663 1.394 . S
C1662 H1670 0.930 . S
C1663 C1662 1.394 . S
C1663 C1664 1.383 . S
C1663 H1671 0.929 . S
C1664 C1663 1.383 . S
C1664 C1665 1.377 . S
C1665 H1649 0.930 . S
C1665 C1664 1.377 . S
C1665 C1666 1.379 . S
C1666 H1650 0.931 . S
C1666 C1660 1.383 . S
C1666 C1665 1.379 . S
H1667 C1661 0.959 . S
H1668 C1661 0.961 . S
H1669 C1661 0.960 . S
H1670 C1662 0.930 . S
H1671 C1663 0.929 . S
H1672 C1680 0.929 . S
H1673 C1682 0.930 . S
H1674 C1684 0.930 . S
H1675 C1687 0.929 . S
H1676 C1690 0.930 . S
H1677 C1692 0.960 . S
H1678 C1692 0.960 . S
H1679 C1692 0.960 . S
C1680 H1672 0.929 . S
C1680 C1681 1.377 . S
C1680 C1682 1.384 . S
C1681 C1680 1.377 . S
C1681 C1687 1.390 . S
C1682 H1673 0.930 . S
C1682 C1680 1.384 . S
C1682 C1683 1.372 . S
C1683 C1682 1.372 . S
C1683 C1684 1.400 . S
C1683 C1688 1.490 . S
C1684 H1674 0.930 . S
C1684 C1683 1.400 . S
C1684 C1687 1.386 . S
H1685 C1701 0.930 . S
H1686 C1702 0.931 . S
C1687 H1675 0.929 . S
C1687 C1681 1.390 . S
C1687 C1684 1.386 . S
C1688 C1683 1.490 . S
C1688 C1690 1.395 . S
C1688 C1691 1.403 . S
H1689 C1695 0.930 . S
C1690 H1676 0.930 . S
C1690 C1688 1.395 . S
C1690 C1693 1.403 . S
C1691 C1688 1.403 . S
C1691 C1692 1.524 . S
C1691 C1695 1.400 . S
C1692 H1677 0.960 . S
C1692 H1678 0.960 . S
C1692 H1679 0.960 . S
C1692 C1691 1.524 . S
C1693 C1690 1.403 . S
C1693 C1694 1.392 . S
C1693 C1697 1.495 . S
C1694 C1693 1.392 . S
C1694 C1695 1.385 . S
C1694 C1696 1.478 . S
C1695 H1689 0.930 . S
C1695 C1691 1.400 . S
C1695 C1694 1.385 . S
C1696 C1694 1.478 . S
C1696 C1698 1.381 . S
C1696 C1702 1.383 . S
C1697 C1693 1.495 . S
C1697 H1703 0.959 . S
C1697 H1704 0.961 . S
C1697 H1705 0.960 . S
C1698 C1696 1.381 . S
C1698 C1699 1.394 . S
C1698 H1706 0.930 . S
C1699 C1698 1.394 . S
C1699 C1700 1.383 . S
C1699 H1707 0.929 . S
C1700 C1699 1.383 . S
C1700 C1701 1.377 . S
C1701 H1685 0.930 . S
C1701 C1700 1.377 . S
C1701 C1702 1.379 . S
C1702 H1686 0.931 . S
C1702 C1696 1.383 . S
C1702 C1701 1.379 . S
H1703 C1697 0.959 . S
H1704 C1697 0.961 . S
H1705 C1697 0.960 . S
H1706 C1698 0.930 . S
H1707 C1699 0.929 . S
H1708 C1716 0.929 . S
H1709 C1718 0.930 . S
H1710 C1720 0.930 . S
H1711 C1723 0.929 . S
H1712 C1726 0.930 . S
H1713 C1728 0.960 . S
H1714 C1728 0.960 . S
H1715 C1728 0.960 . S
C1716 H1708 0.929 . S
C1716 C1717 1.377 . S
C1716 C1718 1.384 . S
C1717 C1716 1.377 . S
C1717 C1723 1.390 . S
C1718 H1709 0.930 . S
C1718 C1716 1.384 . S
C1718 C1719 1.372 . S
C1719 C1718 1.372 . S
C1719 C1720 1.400 . S
C1719 C1724 1.490 . S
C1720 H1710 0.930 . S
C1720 C1719 1.400 . S
C1720 C1723 1.386 . S
H1721 C1737 0.930 . S
H1722 C1738 0.931 . S
C1723 H1711 0.929 . S
C1723 C1717 1.390 . S
C1723 C1720 1.386 . S
C1724 C1719 1.490 . S
C1724 C1726 1.395 1_455 S
C1724 C1727 1.403 . S
H1725 C1731 0.930 . S
C1726 H1712 0.930 . S
C1726 C1724 1.395 1_655 S
C1726 C1729 1.403 . S
C1727 C1724 1.403 . S
C1727 C1728 1.524 . S
C1727 C1731 1.400 1_455 S
C1728 H1713 0.960 . S
C1728 H1714 0.960 . S
C1728 H1715 0.960 . S
C1728 C1727 1.524 . S
C1729 C1726 1.403 . S
C1729 C1730 1.392 . S
C1729 C1733 1.495 . S
C1730 C1729 1.392 . S
C1730 C1731 1.385 . S
C1730 C1732 1.478 . S
C1731 H1725 0.930 . S
C1731 C1727 1.400 1_655 S
C1731 C1730 1.385 . S
C1732 C1730 1.478 . S
C1732 C1734 1.381 . S
C1732 C1738 1.383 . S
C1733 C1729 1.495 . S
C1733 H1739 0.959 . S
C1733 H1740 0.961 . S
C1733 H1741 0.960 . S
C1734 C1732 1.381 . S
C1734 C1735 1.394 . S
C1734 H1742 0.930 . S
C1735 C1734 1.394 . S
C1735 C1736 1.383 . S
C1735 H1743 0.929 . S
C1736 C1735 1.383 . S
C1736 C1737 1.377 . S
C1737 H1721 0.930 . S
C1737 C1736 1.377 . S
C1737 C1738 1.379 . S
C1738 H1722 0.931 . S
C1738 C1732 1.383 . S
C1738 C1737 1.379 . S
H1739 C1733 0.959 . S
H1740 C1733 0.961 . S
H1741 C1733 0.960 . S
H1742 C1734 0.930 . S
H1743 C1735 0.929 . S
H1744 C1752 0.929 . S
H1745 C1754 0.930 . S
H1746 C1756 0.930 . S
H1747 C1759 0.929 . S
H1748 C1762 0.930 . S
H1749 C1764 0.960 . S
H1750 C1764 0.960 . S
H1751 C1764 0.960 . S
C1752 H1744 0.929 . S
C1752 C1753 1.377 . S
C1752 C1754 1.384 . S
C1753 C1752 1.377 . S
C1753 C1759 1.390 . S
C1754 H1745 0.930 . S
C1754 C1752 1.384 . S
C1754 C1755 1.372 . S
C1755 C1754 1.372 . S
C1755 C1756 1.400 . S
C1755 C1760 1.490 . S
C1756 H1746 0.930 . S
C1756 C1755 1.400 . S
C1756 C1759 1.386 . S
H1757 C1773 0.930 . S
H1758 C1774 0.931 . S
C1759 H1747 0.929 . S
C1759 C1753 1.390 . S
C1759 C1756 1.386 . S
C1760 C1755 1.490 . S
C1760 C1762 1.395 . S
C1760 C1763 1.403 . S
H1761 C1767 0.930 . S
C1762 H1748 0.930 . S
C1762 C1760 1.395 . S
C1762 C1765 1.403 . S
C1763 C1760 1.403 . S
C1763 C1764 1.524 . S
C1763 C1767 1.400 . S
C1764 H1749 0.960 . S
C1764 H1750 0.960 . S
C1764 H1751 0.960 . S
C1764 C1763 1.524 . S
C1765 C1762 1.403 . S
C1765 C1766 1.392 . S
C1765 C1769 1.495 . S
C1766 C1765 1.392 . S
C1766 C1767 1.385 . S
C1766 C1768 1.478 . S
C1767 H1761 0.930 . S
C1767 C1763 1.400 . S
C1767 C1766 1.385 . S
C1768 C1766 1.478 . S
C1768 C1770 1.381 . S
C1768 C1774 1.383 . S
C1769 C1765 1.495 . S
C1769 H1775 0.959 . S
C1769 H1776 0.961 . S
C1769 H1777 0.960 . S
C1770 C1768 1.381 . S
C1770 C1771 1.394 . S
C1770 H1778 0.930 . S
C1771 C1770 1.394 . S
C1771 C1772 1.383 . S
C1771 H1779 0.929 . S
C1772 C1771 1.383 . S
C1772 C1773 1.377 . S
C1773 H1757 0.930 . S
C1773 C1772 1.377 . S
C1773 C1774 1.379 . S
C1774 H1758 0.931 . S
C1774 C1768 1.383 . S
C1774 C1773 1.379 . S
H1775 C1769 0.959 . S
H1776 C1769 0.961 . S
H1777 C1769 0.960 . S
H1778 C1770 0.930 . S
H1779 C1771 0.929 . S
H1780 C1788 0.929 . S
H1781 C1790 0.930 . S
H1782 C1792 0.930 . S
H1783 C1795 0.929 . S
H1784 C1798 0.930 . S
H1785 C1800 0.960 . S
H1786 C1800 0.960 . S
H1787 C1800 0.960 . S
C1788 H1780 0.929 . S
C1788 C1789 1.377 . S
C1788 C1790 1.384 . S
C1789 C1788 1.377 . S
C1789 C1795 1.390 . S
C1790 H1781 0.930 . S
C1790 C1788 1.384 . S
C1790 C1791 1.372 . S
C1791 C1790 1.372 . S
C1791 C1792 1.400 . S
C1791 C1796 1.490 . S
C1792 H1782 0.930 . S
C1792 C1791 1.400 . S
C1792 C1795 1.386 . S
H1793 C1809 0.930 . S
H1794 C1810 0.931 . S
C1795 H1783 0.929 . S
C1795 C1789 1.390 . S
C1795 C1792 1.386 . S
C1796 C1791 1.490 . S
C1796 C1798 1.395 1_455 S
C1796 C1799 1.403 . S
H1797 C1803 0.930 . S
C1798 H1784 0.930 . S
C1798 C1796 1.395 1_655 S
C1798 C1801 1.403 . S
C1799 C1796 1.403 . S
C1799 C1800 1.524 . S
C1799 C1803 1.400 1_455 S
C1800 H1785 0.960 . S
C1800 H1786 0.960 . S
C1800 H1787 0.960 . S
C1800 C1799 1.524 . S
C1801 C1798 1.403 . S
C1801 C1802 1.392 . S
C1801 C1805 1.495 . S
C1802 C1801 1.392 . S
C1802 C1803 1.385 . S
C1802 C1804 1.478 . S
C1803 H1797 0.930 . S
C1803 C1799 1.400 1_655 S
C1803 C1802 1.385 . S
C1804 C1802 1.478 . S
C1804 C1806 1.381 . S
C1804 C1810 1.383 . S
C1805 C1801 1.495 . S
C1805 H1811 0.959 . S
C1805 H1812 0.961 . S
C1805 H1813 0.960 . S
C1806 C1804 1.381 . S
C1806 C1807 1.394 . S
C1806 H1814 0.930 . S
C1807 C1806 1.394 . S
C1807 C1808 1.383 . S
C1807 H1815 0.929 . S
C1808 C1807 1.383 . S
C1808 C1809 1.377 . S
C1809 H1793 0.930 . S
C1809 C1808 1.377 . S
C1809 C1810 1.379 . S
C1810 H1794 0.931 . S
C1810 C1804 1.383 . S
C1810 C1809 1.379 . S
H1811 C1805 0.959 . S
H1812 C1805 0.961 . S
H1813 C1805 0.960 . S
H1814 C1806 0.930 . S
H1815 C1807 0.929 . S
H1816 C1824 0.929 . S
H1817 C1826 0.930 . S
H1818 C1828 0.930 . S
H1819 C1831 0.929 . S
H1820 C1834 0.930 . S
H1821 C1836 0.960 . S
H1822 C1836 0.960 . S
H1823 C1836 0.960 . S
C1824 H1816 0.929 . S
C1824 C1825 1.377 . S
C1824 C1826 1.384 . S
C1825 C1824 1.377 . S
C1825 C1831 1.390 . S
C1826 H1817 0.930 . S
C1826 C1824 1.384 . S
C1826 C1827 1.372 . S
C1827 C1826 1.372 . S
C1827 C1828 1.400 . S
C1827 C1832 1.490 . S
C1828 H1818 0.930 . S
C1828 C1827 1.400 . S
C1828 C1831 1.386 . S
H1829 C1845 0.930 . S
H1830 C1846 0.931 . S
C1831 H1819 0.929 . S
C1831 C1825 1.390 . S
C1831 C1828 1.386 . S
C1832 C1827 1.490 . S
C1832 C1834 1.395 . S
C1832 C1835 1.403 . S
H1833 C1839 0.930 . S
C1834 H1820 0.930 . S
C1834 C1832 1.395 . S
C1834 C1837 1.403 . S
C1835 C1832 1.403 . S
C1835 C1836 1.524 . S
C1835 C1839 1.400 . S
C1836 H1821 0.960 . S
C1836 H1822 0.960 . S
C1836 H1823 0.960 . S
C1836 C1835 1.524 . S
C1837 C1834 1.403 . S
C1837 C1838 1.392 . S
C1837 C1841 1.495 . S
C1838 C1837 1.392 . S
C1838 C1839 1.385 . S
C1838 C1840 1.478 . S
C1839 H1833 0.930 . S
C1839 C1835 1.400 . S
C1839 C1838 1.385 . S
C1840 C1838 1.478 . S
C1840 C1842 1.381 . S
C1840 C1846 1.383 . S
C1841 C1837 1.495 . S
C1841 H1847 0.959 . S
C1841 H1848 0.961 . S
C1841 H1849 0.960 . S
C1842 C1840 1.381 . S
C1842 C1843 1.394 . S
C1842 H1850 0.930 . S
C1843 C1842 1.394 . S
C1843 C1844 1.383 . S
C1843 H1851 0.929 . S
C1844 C1843 1.383 . S
C1844 C1845 1.377 . S
C1845 H1829 0.930 . S
C1845 C1844 1.377 . S
C1845 C1846 1.379 . S
C1846 H1830 0.931 . S
C1846 C1840 1.383 . S
C1846 C1845 1.379 . S
H1847 C1841 0.959 . S
H1848 C1841 0.961 . S
H1849 C1841 0.960 . S
H1850 C1842 0.930 . S
H1851 C1843 0.929 . S
H1852 C1860 0.929 . S
H1853 C1862 0.930 . S
H1854 C1864 0.930 . S
H1855 C1867 0.929 . S
H1856 C1870 0.930 . S
H1857 C1872 0.960 . S
H1858 C1872 0.960 . S
H1859 C1872 0.960 . S
C1860 H1852 0.929 . S
C1860 C1861 1.377 . S
C1860 C1862 1.384 . S
C1861 C1860 1.377 . S
C1861 C1867 1.390 . S
C1862 H1853 0.930 . S
C1862 C1860 1.384 . S
C1862 C1863 1.372 . S
C1863 C1862 1.372 . S
C1863 C1864 1.400 . S
C1863 C1868 1.490 . S
C1864 H1854 0.930 . S
C1864 C1863 1.400 . S
C1864 C1867 1.386 . S
H1865 C1881 0.930 . S
H1866 C1882 0.931 . S
C1867 H1855 0.929 . S
C1867 C1861 1.390 . S
C1867 C1864 1.386 . S
C1868 C1863 1.490 . S
C1868 C1870 1.395 . S
C1868 C1871 1.403 . S
H1869 C1875 0.930 . S
C1870 H1856 0.930 . S
C1870 C1868 1.395 . S
C1870 C1873 1.403 . S
C1871 C1868 1.403 . S
C1871 C1872 1.524 . S
C1871 C1875 1.400 . S
C1872 H1857 0.960 . S
C1872 H1858 0.960 . S
C1872 H1859 0.960 . S
C1872 C1871 1.524 . S
C1873 C1870 1.403 . S
C1873 C1874 1.392 . S
C1873 C1877 1.495 . S
C1874 C1873 1.392 . S
C1874 C1875 1.385 . S
C1874 C1876 1.478 . S
C1875 H1869 0.930 . S
C1875 C1871 1.400 . S
C1875 C1874 1.385 . S
C1876 C1874 1.478 . S
C1876 C1878 1.381 . S
C1876 C1882 1.383 . S
C1877 C1873 1.495 . S
C1877 H1883 0.959 . S
C1877 H1884 0.961 . S
C1877 H1885 0.960 . S
C1878 C1876 1.381 . S
C1878 C1879 1.394 . S
C1878 H1886 0.930 . S
C1879 C1878 1.394 . S
C1879 C1880 1.383 . S
C1879 H1887 0.929 . S
C1880 C1879 1.383 . S
C1880 C1881 1.377 . S
C1881 H1865 0.930 . S
C1881 C1880 1.377 . S
C1881 C1882 1.379 . S
C1882 H1866 0.931 . S
C1882 C1876 1.383 . S
C1882 C1881 1.379 . S
H1883 C1877 0.959 . S
H1884 C1877 0.961 . S
H1885 C1877 0.960 . S
H1886 C1878 0.930 . S
H1887 C1879 0.929 . S
H1888 C1896 0.929 . S
H1889 C1898 0.930 . S
H1890 C1900 0.930 . S
H1891 C1903 0.929 . S
H1892 C1906 0.930 . S
H1893 C1908 0.960 . S
H1894 C1908 0.960 . S
H1895 C1908 0.960 . S
C1896 H1888 0.929 . S
C1896 C1897 1.377 . S
C1896 C1898 1.384 . S
C1897 C1896 1.377 . S
C1897 C1903 1.390 . S
C1898 H1889 0.930 . S
C1898 C1896 1.384 . S
C1898 C1899 1.372 . S
C1899 C1898 1.372 . S
C1899 C1900 1.400 . S
C1899 C1904 1.490 . S
C1900 H1890 0.930 . S
C1900 C1899 1.400 . S
C1900 C1903 1.386 . S
H1901 C1917 0.930 . S
H1902 C1918 0.931 . S
C1903 H1891 0.929 . S
C1903 C1897 1.390 . S
C1903 C1900 1.386 . S
C1904 C1899 1.490 . S
C1904 C1906 1.395 . S
C1904 C1907 1.403 . S
H1905 C1911 0.930 . S
C1906 H1892 0.930 . S
C1906 C1904 1.395 . S
C1906 C1909 1.403 . S
C1907 C1904 1.403 . S
C1907 C1908 1.524 . S
C1907 C1911 1.400 . S
C1908 H1893 0.960 . S
C1908 H1894 0.960 . S
C1908 H1895 0.960 . S
C1908 C1907 1.524 . S
C1909 C1906 1.403 . S
C1909 C1910 1.392 . S
C1909 C1913 1.495 . S
C1910 C1909 1.392 . S
C1910 C1911 1.385 . S
C1910 C1912 1.478 . S
C1911 H1905 0.930 . S
C1911 C1907 1.400 . S
C1911 C1910 1.385 . S
C1912 C1910 1.478 . S
C1912 C1914 1.381 . S
C1912 C1918 1.383 . S
C1913 C1909 1.495 . S
C1913 H1919 0.959 . S
C1913 H1920 0.961 . S
C1913 H1921 0.960 . S
C1914 C1912 1.381 . S
C1914 C1915 1.394 . S
C1914 H1922 0.930 . S
C1915 C1914 1.394 . S
C1915 C1916 1.383 . S
C1915 H1923 0.929 . S
C1916 C1915 1.383 . S
C1916 C1917 1.377 . S
C1917 H1901 0.930 . S
C1917 C1916 1.377 . S
C1917 C1918 1.379 . S
C1918 H1902 0.931 . S
C1918 C1912 1.383 . S
C1918 C1917 1.379 . S
H1919 C1913 0.959 . S
H1920 C1913 0.961 . S
H1921 C1913 0.960 . S
H1922 C1914 0.930 . S
H1923 C1915 0.929 . S
H1924 C1932 0.929 . S
H1925 C1934 0.930 . S
H1926 C1936 0.930 . S
H1927 C1939 0.929 1_545 S
H1928 C1942 0.930 . S
H1929 C1944 0.960 . S
H1930 C1944 0.960 . S
H1931 C1944 0.960 . S
C1932 H1924 0.929 . S
C1932 C1933 1.377 . S
C1932 C1934 1.384 . S
C1933 C1932 1.377 . S
C1933 C1939 1.390 . S
C1934 H1925 0.930 . S
C1934 C1932 1.384 . S
C1934 C1935 1.372 . S
C1935 C1934 1.372 . S
C1935 C1936 1.400 1_565 S
C1935 C1940 1.490 . S
C1936 H1926 0.930 . S
C1936 C1935 1.400 1_545 S
C1936 C1939 1.386 1_545 S
H1937 C1953 0.930 . S
H1938 C1954 0.931 . S
C1939 H1927 0.929 1_565 S
C1939 C1933 1.390 . S
C1939 C1936 1.386 1_565 S
C1940 C1935 1.490 . S
C1940 C1942 1.395 1_455 S
C1940 C1943 1.403 1_565 S
H1941 C1947 0.930 . S
C1942 H1928 0.930 . S
C1942 C1940 1.395 1_655 S
C1942 C1945 1.403 . S
C1943 C1940 1.403 1_545 S
C1943 C1944 1.524 . S
C1943 C1947 1.400 . S
C1944 H1929 0.960 . S
C1944 H1930 0.960 . S
C1944 H1931 0.960 . S
C1944 C1943 1.524 . S
C1945 C1942 1.403 . S
C1945 C1946 1.392 1_565 S
C1945 C1949 1.495 . S
C1946 C1945 1.392 1_545 S
C1946 C1947 1.385 1_655 S
C1946 C1948 1.478 . S
C1947 H1941 0.930 . S
C1947 C1943 1.400 . S
C1947 C1946 1.385 1_455 S
C1948 C1946 1.478 . S
C1948 C1950 1.381 1_545 S
C1948 C1954 1.383 . S
C1949 C1945 1.495 . S
C1949 H1955 0.959 . S
C1949 H1956 0.961 . S
C1949 H1957 0.960 . S
C1950 C1948 1.381 1_565 S
C1950 C1951 1.394 1_565 S
C1950 H1958 0.930 . S
C1951 C1950 1.394 1_545 S
C1951 C1952 1.383 . S
C1951 H1959 0.929 1_545 S
C1952 C1951 1.383 . S
C1952 C1953 1.377 . S
C1953 H1937 0.930 . S
C1953 C1952 1.377 . S
C1953 C1954 1.379 . S
C1954 H1938 0.931 . S
C1954 C1948 1.383 . S
C1954 C1953 1.379 . S
H1955 C1949 0.959 . S
H1956 C1949 0.961 . S
H1957 C1949 0.960 . S
H1958 C1950 0.930 . S
H1959 C1951 0.929 1_565 S
H1960 C1968 0.929 . S
H1961 C1970 0.930 . S
H1962 C1972 0.930 . S
H1963 C1975 0.929 . S
H1964 C1978 0.930 . S
H1965 C1980 0.960 . S
H1966 C1980 0.960 . S
H1967 C1980 0.960 . S
C1968 H1960 0.929 . S
C1968 C1969 1.377 . S
C1968 C1970 1.384 . S
C1969 C1968 1.377 . S
C1969 C1975 1.390 . S
C1970 H1961 0.930 . S
C1970 C1968 1.384 . S
C1970 C1971 1.372 . S
C1971 C1970 1.372 . S
C1971 C1972 1.400 . S
C1971 C1976 1.490 . S
C1972 H1962 0.930 . S
C1972 C1971 1.400 . S
C1972 C1975 1.386 . S
H1973 C1989 0.930 . S
H1974 C1990 0.931 . S
C1975 H1963 0.929 . S
C1975 C1969 1.390 . S
C1975 C1972 1.386 . S
C1976 C1971 1.490 . S
C1976 C1978 1.395 . S
C1976 C1979 1.403 . S
H1977 C1983 0.930 . S
C1978 H1964 0.930 . S
C1978 C1976 1.395 . S
C1978 C1981 1.403 . S
C1979 C1976 1.403 . S
C1979 C1980 1.524 . S
C1979 C1983 1.400 . S
C1980 H1965 0.960 . S
C1980 H1966 0.960 . S
C1980 H1967 0.960 . S
C1980 C1979 1.524 . S
C1981 C1978 1.403 . S
C1981 C1982 1.392 . S
C1981 C1985 1.495 . S
C1982 C1981 1.392 . S
C1982 C1983 1.385 . S
C1982 C1984 1.478 . S
C1983 H1977 0.930 . S
C1983 C1979 1.400 . S
C1983 C1982 1.385 . S
C1984 C1982 1.478 . S
C1984 C1986 1.381 . S
C1984 C1990 1.383 . S
C1985 C1981 1.495 . S
C1985 H1991 0.959 . S
C1985 H1992 0.961 . S
C1985 H1993 0.960 . S
C1986 C1984 1.381 . S
C1986 C1987 1.394 . S
C1986 H1994 0.930 . S
C1987 C1986 1.394 . S
C1987 C1988 1.383 . S
C1987 H1995 0.929 . S
C1988 C1987 1.383 . S
C1988 C1989 1.377 . S
C1989 H1973 0.930 . S
C1989 C1988 1.377 . S
C1989 C1990 1.379 . S
C1990 H1974 0.931 . S
C1990 C1984 1.383 . S
C1990 C1989 1.379 . S
H1991 C1985 0.959 . S
H1992 C1985 0.961 . S
H1993 C1985 0.960 . S
H1994 C1986 0.930 . S
H1995 C1987 0.929 . S
H1996 C2004 0.929 . S
H1997 C2006 0.930 1_565 S
H1998 C2008 0.930 . S
H1999 C2011 0.929 . S
H2000 C2014 0.930 . S
H2001 C2016 0.913 1_556 S
H2002 C2016 0.960 . S
H2003 C2016 0.960 . S
C2004 H1996 0.929 . S
C2004 C2005 1.377 . S
C2004 C2006 1.384 . S
C2005 C2004 1.377 . S
C2005 C2011 1.390 . S
C2006 H1997 0.930 1_545 S
C2006 C2004 1.384 . S
C2006 C2007 1.372 . S
C2007 C2006 1.372 . S
C2007 C2008 1.400 . S
C2007 C2012 1.490 . S
C2008 H1998 0.930 . S
C2008 C2007 1.400 . S
C2008 C2011 1.386 . S
H2009 C2025 0.930 . S
H2010 C2026 0.931 . S
C2011 H1999 0.929 . S
C2011 C2005 1.390 . S
C2011 C2008 1.386 . S
C2012 C2007 1.490 . S
C2012 C2014 1.395 1_545 S
C2012 C2015 1.403 . S
H2013 C2019 0.930 . S
C2014 H2000 0.930 . S
C2014 C2012 1.395 1_565 S
C2014 C2017 1.403 1_554 S
C2015 C2012 1.403 . S
C2015 C2016 1.524 . S
C2015 C2019 1.400 1_554 S
C2016 H2001 0.913 1_554 S
C2016 H2002 0.960 . S
C2016 H2003 0.960 . S
C2016 C2015 1.524 . S
C2017 C2014 1.403 1_556 S
C2017 C2018 1.392 . S
C2017 C2021 1.495 . S
C2018 C2017 1.392 . S
C2018 C2019 1.385 1_565 S
C2018 C2020 1.478 . S
C2019 H2013 0.930 . S
C2019 C2015 1.400 1_556 S
C2019 C2018 1.385 1_545 S
C2020 C2018 1.478 . S
C2020 C2022 1.381 . S
C2020 C2026 1.383 . S
C2021 C2017 1.495 . S
C2021 H2027 0.959 1_556 S
C2021 H2028 0.961 . S
C2021 H2029 0.960 . S
C2022 C2020 1.381 . S
C2022 C2023 1.394 . S
C2022 H2030 0.930 . S
C2023 C2022 1.394 . S
C2023 C2024 1.383 . S
C2023 H2031 0.929 . S
C2024 C2023 1.383 . S
C2024 C2025 1.377 . S
C2025 H2009 0.930 . S
C2025 C2024 1.377 . S
C2025 C2026 1.379 . S
C2026 H2010 0.931 . S
C2026 C2020 1.383 . S
C2026 C2025 1.379 . S
H2027 C2021 0.959 1_554 S
H2028 C2021 0.961 . S
H2029 C2021 0.960 . S
H2030 C2022 0.930 . S
H2031 C2023 0.929 . S
H2032 C2040 0.929 . S
H2033 C2042 0.930 . S
H2034 C2044 0.930 . S
H2035 C2047 0.929 . S
H2036 C2050 0.930 . S
H2037 C2052 0.960 . S
H2038 C2052 0.960 . S
H2039 C2052 0.960 . S
C2040 H2032 0.929 . S
C2040 C2041 1.377 . S
C2040 C2042 1.384 . S
C2041 C2040 1.377 . S
C2041 C2047 1.390 . S
C2042 H2033 0.930 . S
C2042 C2040 1.384 . S
C2042 C2043 1.372 . S
C2043 C2042 1.372 . S
C2043 C2044 1.400 . S
C2043 C2048 1.490 . S
C2044 H2034 0.930 . S
C2044 C2043 1.400 . S
C2044 C2047 1.386 . S
H2045 C2061 0.930 . S
H2046 C2062 0.931 . S
C2047 H2035 0.929 . S
C2047 C2041 1.390 . S
C2047 C2044 1.386 . S
C2048 C2043 1.490 . S
C2048 C2050 1.395 . S
C2048 C2051 1.403 . S
H2049 C2055 0.930 . S
C2050 H2036 0.930 . S
C2050 C2048 1.395 . S
C2050 C2053 1.403 . S
C2051 C2048 1.403 . S
C2051 C2052 1.524 . S
C2051 C2055 1.400 . S
C2052 H2037 0.960 . S
C2052 H2038 0.960 . S
C2052 H2039 0.960 . S
C2052 C2051 1.524 . S
C2053 C2050 1.403 . S
C2053 C2054 1.392 . S
C2053 C2057 1.495 . S
C2054 C2053 1.392 . S
C2054 C2055 1.385 . S
C2054 C2056 1.478 . S
C2055 H2049 0.930 . S
C2055 C2051 1.400 . S
C2055 C2054 1.385 . S
C2056 C2054 1.478 . S
C2056 C2058 1.381 . S
C2056 C2062 1.383 . S
C2057 C2053 1.495 . S
C2057 H2063 0.959 . S
C2057 H2064 0.961 . S
C2057 H2065 0.960 . S
C2058 C2056 1.381 . S
C2058 C2059 1.394 . S
C2058 H2066 0.930 . S
C2059 C2058 1.394 . S
C2059 C2060 1.383 . S
C2059 H2067 0.929 . S
C2060 C2059 1.383 . S
C2060 C2061 1.377 . S
C2061 H2045 0.930 . S
C2061 C2060 1.377 . S
C2061 C2062 1.379 . S
C2062 H2046 0.931 . S
C2062 C2056 1.383 . S
C2062 C2061 1.379 . S
H2063 C2057 0.959 . S
H2064 C2057 0.961 . S
H2065 C2057 0.960 . S
H2066 C2058 0.930 . S
H2067 C2059 0.929 . S
H2068 C2076 0.929 . S
H2069 C2078 0.930 . S
H2070 C2080 0.930 . S
H2071 C2083 0.929 . S
H2072 C2086 0.930 . S
H2073 C2088 0.960 . S
H2074 C2088 0.960 . S
H2075 C2088 0.960 . S
C2076 H2068 0.929 . S
C2076 C2077 1.377 . S
C2076 C2078 1.384 . S
C2077 C2076 1.377 . S
C2077 C2083 1.390 . S
C2078 H2069 0.930 . S
C2078 C2076 1.384 . S
C2078 C2079 1.372 . S
C2079 C2078 1.372 . S
C2079 C2080 1.400 . S
C2079 C2084 1.490 . S
C2080 H2070 0.930 . S
C2080 C2079 1.400 . S
C2080 C2083 1.386 . S
H2081 C2097 0.930 . S
H2082 C2098 0.931 . S
C2083 H2071 0.929 . S
C2083 C2077 1.390 . S
C2083 C2080 1.386 . S
C2084 C2079 1.490 . S
C2084 C2086 1.395 1_565 S
C2084 C2087 1.403 . S
H2085 C2091 0.930 . S
C2086 H2072 0.930 . S
C2086 C2084 1.395 1_545 S
C2086 C2089 1.403 . S
C2087 C2084 1.403 . S
C2087 C2088 1.524 . S
C2087 C2091 1.400 . S
C2088 H2073 0.960 . S
C2088 H2074 0.960 . S
C2088 H2075 0.960 . S
C2088 C2087 1.524 . S
C2089 C2086 1.403 . S
C2089 C2090 1.392 . S
C2089 C2093 1.495 . S
C2090 C2089 1.392 . S
C2090 C2091 1.385 1_545 S
C2090 C2092 1.478 . S
C2091 H2085 0.930 . S
C2091 C2087 1.400 . S
C2091 C2090 1.385 1_565 S
C2092 C2090 1.478 . S
C2092 C2094 1.381 . S
C2092 C2098 1.383 . S
C2093 C2089 1.495 . S
C2093 H2099 0.959 . S
C2093 H2100 0.961 . S
C2093 H2101 0.960 . S
C2094 C2092 1.381 . S
C2094 C2095 1.394 . S
C2094 H2102 0.930 . S
C2095 C2094 1.394 . S
C2095 C2096 1.383 . S
C2095 H2103 0.929 . S
C2096 C2095 1.383 . S
C2096 C2097 1.377 . S
C2097 H2081 0.930 . S
C2097 C2096 1.377 . S
C2097 C2098 1.379 . S
C2098 H2082 0.931 . S
C2098 C2092 1.383 . S
C2098 C2097 1.379 . S
H2099 C2093 0.959 . S
H2100 C2093 0.961 . S
H2101 C2093 0.960 . S
H2102 C2094 0.930 . S
H2103 C2095 0.929 . S
H2104 C2112 0.929 . S
H2105 C2114 0.930 . S
H2106 C2116 0.930 . S
H2107 C2119 0.929 . S
H2108 C2122 0.930 . S
H2109 C2124 0.960 . S
H2110 C2124 0.960 . S
H2111 C2124 0.960 . S
C2112 H2104 0.929 . S
C2112 C2113 1.377 . S
C2112 C2114 1.384 . S
C2113 C2112 1.377 . S
C2113 C2119 1.390 . S
C2114 H2105 0.930 . S
C2114 C2112 1.384 . S
C2114 C2115 1.372 . S
C2115 C2114 1.372 . S
C2115 C2116 1.400 . S
C2115 C2120 1.490 . S
C2116 H2106 0.930 . S
C2116 C2115 1.400 . S
C2116 C2119 1.386 . S
H2117 C2133 0.930 . S
H2118 C2134 0.931 . S
C2119 H2107 0.929 . S
C2119 C2113 1.390 . S
C2119 C2116 1.386 . S
C2120 C2115 1.490 . S
C2120 C2122 1.395 . S
C2120 C2123 1.403 . S
H2121 C2127 0.930 . S
C2122 H2108 0.930 . S
C2122 C2120 1.395 . S
C2122 C2125 1.403 . S
C2123 C2120 1.403 . S
C2123 C2124 1.524 . S
C2123 C2127 1.400 . S
C2124 H2109 0.960 . S
C2124 H2110 0.960 . S
C2124 H2111 0.960 . S
C2124 C2123 1.524 . S
C2125 C2122 1.403 . S
C2125 C2126 1.392 . S
C2125 C2129 1.495 . S
C2126 C2125 1.392 . S
C2126 C2127 1.385 . S
C2126 C2128 1.478 . S
C2127 H2121 0.930 . S
C2127 C2123 1.400 . S
C2127 C2126 1.385 . S
C2128 C2126 1.478 . S
C2128 C2130 1.381 . S
C2128 C2134 1.383 . S
C2129 C2125 1.495 . S
C2129 H2135 0.959 . S
C2129 H2136 0.961 . S
C2129 H2137 0.960 . S
C2130 C2128 1.381 . S
C2130 C2131 1.394 . S
C2130 H2138 0.930 . S
C2131 C2130 1.394 . S
C2131 C2132 1.383 . S
C2131 H2139 0.929 . S
C2132 C2131 1.383 . S
C2132 C2133 1.377 . S
C2133 H2117 0.930 . S
C2133 C2132 1.377 . S
C2133 C2134 1.379 . S
C2134 H2118 0.931 . S
C2134 C2128 1.383 . S
C2134 C2133 1.379 . S
H2135 C2129 0.959 . S
H2136 C2129 0.961 . S
H2137 C2129 0.960 . S
H2138 C2130 0.930 . S
H2139 C2131 0.929 . S
H2140 C2148 0.929 . S
H2141 C2150 0.928 1_565 S
H2142 C2152 0.930 . S
H2143 C2155 0.929 . S
H2144 C2158 0.930 . S
H2145 C2160 0.951 1_654 S
H2146 C2160 0.960 . S
H2147 C2160 0.960 . S
C2148 H2140 0.929 . S
C2148 C2149 1.377 . S
C2148 C2150 1.384 . S
C2149 C2148 1.377 . S
C2149 C2155 1.390 . S
C2150 H2141 0.928 1_545 S
C2150 C2148 1.384 . S
C2150 C2151 1.372 . S
C2151 C2150 1.372 . S
C2151 C2152 1.400 . S
C2151 C2156 1.490 . S
C2152 H2142 0.930 . S
C2152 C2151 1.400 . S
C2152 C2155 1.386 . S
H2153 C2169 0.930 . S
H2154 C2170 0.931 . S
C2155 H2143 0.929 . S
C2155 C2149 1.390 . S
C2155 C2152 1.386 . S
C2156 C2151 1.490 . S
C2156 C2158 1.395 1_545 S
C2156 C2159 1.403 . S
H2157 C2163 0.930 . S
C2158 H2144 0.930 . S
C2158 C2156 1.395 1_565 S
C2158 C2161 1.367 1_456 S
C2159 C2156 1.403 . S
C2159 C2160 1.524 . S
C2159 C2163 1.400 1_456 S
C2160 H2145 0.951 1_456 S
C2160 H2146 0.960 . S
C2160 H2147 0.960 . S
C2160 C2159 1.524 . S
C2161 C2158 1.367 1_654 S
C2161 C2162 1.425 . S
C2161 C2165 1.500 . S
C2162 C2161 1.425 . S
C2162 C2163 1.385 1_565 S
C2162 C2164 1.478 . S
C2163 H2157 0.930 . S
C2163 C2159 1.400 1_654 S
C2163 C2162 1.385 1_545 S
C2164 C2162 1.478 . S
C2164 C2166 1.381 . S
C2164 C2170 1.383 . S
C2165 C2161 1.500 . S
C2165 H2171 0.959 1_554 S
C2165 H2172 0.961 . S
C2165 H2173 0.965 . S
C2166 C2164 1.381 . S
C2166 C2167 1.394 . S
C2166 H2174 0.930 . S
C2167 C2166 1.394 . S
C2167 C2168 1.383 . S
C2167 H2175 0.929 . S
C2168 C2167 1.383 . S
C2168 C2169 1.377 . S
C2169 H2153 0.930 . S
C2169 C2168 1.377 . S
C2169 C2170 1.379 . S
C2170 H2154 0.931 . S
C2170 C2164 1.383 . S
C2170 C2169 1.379 . S
H2171 C2165 0.959 1_556 S
H2172 C2165 0.961 . S
H2173 C2165 0.965 . S
H2174 C2166 0.930 . S
H2175 C2167 0.929 . S
H2176 C2184 0.929 . S
H2177 C2186 0.930 . S
H2178 C2188 0.930 . S
H2179 C2191 0.929 . S
H2180 C2194 0.930 . S
H2181 C2196 0.960 . S
H2182 C2196 0.960 . S
H2183 C2196 0.960 . S
C2184 H2176 0.929 . S
C2184 C2185 1.377 . S
C2184 C2186 1.384 . S
C2185 C2184 1.377 . S
C2185 C2191 1.390 . S
C2186 H2177 0.930 . S
C2186 C2184 1.384 . S
C2186 C2187 1.372 . S
C2187 C2186 1.372 . S
C2187 C2188 1.400 . S
C2187 C2192 1.490 . S
C2188 H2178 0.930 . S
C2188 C2187 1.400 . S
C2188 C2191 1.386 . S
H2189 C2205 0.930 . S
H2190 C2206 0.931 . S
C2191 H2179 0.929 . S
C2191 C2185 1.390 . S
C2191 C2188 1.386 . S
C2192 C2187 1.490 . S
C2192 C2194 1.395 . S
C2192 C2195 1.403 . S
H2193 C2199 0.930 . S
C2194 H2180 0.930 . S
C2194 C2192 1.395 . S
C2194 C2197 1.403 . S
C2195 C2192 1.403 . S
C2195 C2196 1.524 . S
C2195 C2199 1.400 . S
C2196 H2181 0.960 . S
C2196 H2182 0.960 . S
C2196 H2183 0.960 . S
C2196 C2195 1.524 . S
C2197 C2194 1.403 . S
C2197 C2198 1.392 . S
C2197 C2201 1.495 . S
C2198 C2197 1.392 . S
C2198 C2199 1.385 . S
C2198 C2200 1.478 . S
C2199 H2193 0.930 . S
C2199 C2195 1.400 . S
C2199 C2198 1.385 . S
C2200 C2198 1.478 . S
C2200 C2202 1.381 . S
C2200 C2206 1.383 . S
C2201 C2197 1.495 . S
C2201 H2207 0.959 . S
C2201 H2208 0.961 . S
C2201 H2209 0.960 . S
C2202 C2200 1.381 . S
C2202 C2203 1.394 . S
C2202 H2210 0.930 . S
C2203 C2202 1.394 . S
C2203 C2204 1.383 . S
C2203 H2211 0.929 . S
C2204 C2203 1.383 . S
C2204 C2205 1.377 . S
C2205 H2189 0.930 . S
C2205 C2204 1.377 . S
C2205 C2206 1.379 . S
C2206 H2190 0.931 . S
C2206 C2200 1.383 . S
C2206 C2205 1.379 . S
H2207 C2201 0.959 . S
H2208 C2201 0.961 . S
H2209 C2201 0.960 . S
H2210 C2202 0.930 . S
H2211 C2203 0.929 . S
H2212 C2220 0.929 . S
H2213 C2222 0.930 . S
H2214 C2224 0.930 . S
H2215 C2227 0.929 . S
H2216 C2230 0.930 . S
H2217 C2232 0.960 . S
H2218 C2232 0.960 . S
H2219 C2232 0.960 . S
C2220 H2212 0.929 . S
C2220 C2221 1.377 . S
C2220 C2222 1.384 . S
C2221 C2220 1.377 . S
C2221 C2227 1.390 . S
C2222 H2213 0.930 . S
C2222 C2220 1.384 . S
C2222 C2223 1.372 . S
C2223 C2222 1.372 . S
C2223 C2224 1.400 . S
C2223 C2228 1.490 . S
C2224 H2214 0.930 . S
C2224 C2223 1.400 . S
C2224 C2227 1.386 . S
H2225 C2241 0.930 . S
H2226 C2242 0.931 . S
C2227 H2215 0.929 . S
C2227 C2221 1.390 . S
C2227 C2224 1.386 . S
C2228 C2223 1.490 . S
C2228 C2230 1.395 . S
C2228 C2231 1.403 . S
H2229 C2235 0.930 . S
C2230 H2216 0.930 . S
C2230 C2228 1.395 . S
C2230 C2233 1.403 . S
C2231 C2228 1.403 . S
C2231 C2232 1.524 . S
C2231 C2235 1.400 . S
C2232 H2217 0.960 . S
C2232 H2218 0.960 . S
C2232 H2219 0.960 . S
C2232 C2231 1.524 . S
C2233 C2230 1.403 . S
C2233 C2234 1.392 . S
C2233 C2237 1.495 . S
C2234 C2233 1.392 . S
C2234 C2235 1.385 . S
C2234 C2236 1.478 . S
C2235 H2229 0.930 . S
C2235 C2231 1.400 . S
C2235 C2234 1.385 . S
C2236 C2234 1.478 . S
C2236 C2238 1.381 . S
C2236 C2242 1.383 . S
C2237 C2233 1.495 . S
C2237 H2243 0.959 . S
C2237 H2244 0.961 . S
C2237 H2245 0.960 . S
C2238 C2236 1.381 . S
C2238 C2239 1.394 . S
C2238 H2246 0.930 . S
C2239 C2238 1.394 . S
C2239 C2240 1.383 . S
C2239 H2247 0.929 . S
C2240 C2239 1.383 . S
C2240 C2241 1.377 . S
C2241 H2225 0.930 . S
C2241 C2240 1.377 . S
C2241 C2242 1.379 . S
C2242 H2226 0.931 . S
C2242 C2236 1.383 . S
C2242 C2241 1.379 . S
H2243 C2237 0.959 . S
H2244 C2237 0.961 . S
H2245 C2237 0.960 . S
H2246 C2238 0.930 . S
H2247 C2239 0.929 . S
H2248 C2256 0.929 . S
H2249 C2258 0.930 . S
H2250 C2260 0.930 . S
H2251 C2263 0.929 . S
H2252 C2266 0.930 . S
H2253 C2268 0.960 . S
H2254 C2268 0.960 . S
H2255 C2268 0.960 . S
C2256 H2248 0.929 . S
C2256 C2257 1.377 . S
C2256 C2258 1.384 . S
C2257 C2256 1.377 . S
C2257 C2263 1.390 . S
C2258 H2249 0.930 . S
C2258 C2256 1.384 . S
C2258 C2259 1.372 . S
C2259 C2258 1.372 . S
C2259 C2260 1.400 . S
C2259 C2264 1.490 . S
C2260 H2250 0.930 . S
C2260 C2259 1.400 . S
C2260 C2263 1.386 . S
H2261 C2277 0.930 . S
H2262 C2278 0.931 . S
C2263 H2251 0.929 . S
C2263 C2257 1.390 . S
C2263 C2260 1.386 . S
C2264 C2259 1.490 . S
C2264 C2266 1.395 . S
C2264 C2267 1.403 . S
H2265 C2271 0.930 . S
C2266 H2252 0.930 . S
C2266 C2264 1.395 . S
C2266 C2269 1.403 . S
C2267 C2264 1.403 . S
C2267 C2268 1.524 . S
C2267 C2271 1.400 . S
C2268 H2253 0.960 . S
C2268 H2254 0.960 . S
C2268 H2255 0.960 . S
C2268 C2267 1.524 . S
C2269 C2266 1.403 . S
C2269 C2270 1.392 . S
C2269 C2273 1.495 . S
C2270 C2269 1.392 . S
C2270 C2271 1.385 . S
C2270 C2272 1.478 . S
C2271 H2265 0.930 . S
C2271 C2267 1.400 . S
C2271 C2270 1.385 . S
C2272 C2270 1.478 . S
C2272 C2274 1.381 . S
C2272 C2278 1.383 . S
C2273 C2269 1.495 . S
C2273 H2279 0.959 . S
C2273 H2280 0.961 . S
C2273 H2281 0.960 . S
C2274 C2272 1.381 . S
C2274 C2275 1.394 . S
C2274 H2282 0.930 . S
C2275 C2274 1.394 . S
C2275 C2276 1.383 . S
C2275 H2283 0.929 . S
C2276 C2275 1.383 . S
C2276 C2277 1.377 . S
C2277 H2261 0.930 . S
C2277 C2276 1.377 . S
C2277 C2278 1.379 . S
C2278 H2262 0.931 . S
C2278 C2272 1.383 . S
C2278 C2277 1.379 . S
H2279 C2273 0.959 . S
H2280 C2273 0.961 . S
H2281 C2273 0.960 . S
H2282 C2274 0.930 . S
H2283 C2275 0.929 . S
H2284 C2292 0.929 . S
H2285 C2294 0.930 . S
H2286 C2296 0.930 . S
H2287 C2299 0.929 . S
H2288 C2302 0.930 . S
H2289 C2304 0.960 . S
H2290 C2304 0.960 . S
H2291 C2304 0.960 . S
C2292 H2284 0.929 . S
C2292 C2293 1.377 . S
C2292 C2294 1.384 . S
C2293 C2292 1.377 . S
C2293 C2299 1.390 . S
C2294 H2285 0.930 . S
C2294 C2292 1.384 . S
C2294 C2295 1.372 . S
C2295 C2294 1.372 . S
C2295 C2296 1.400 . S
C2295 C2300 1.490 . S
C2296 H2286 0.930 . S
C2296 C2295 1.400 . S
C2296 C2299 1.386 . S
H2297 C2313 0.930 . S
H2298 C2314 0.931 . S
C2299 H2287 0.929 . S
C2299 C2293 1.390 . S
C2299 C2296 1.386 . S
C2300 C2295 1.490 . S
C2300 C2302 1.395 . S
C2300 C2303 1.403 . S
H2301 C2307 0.930 . S
C2302 H2288 0.930 . S
C2302 C2300 1.395 . S
C2302 C2305 1.403 . S
C2303 C2300 1.403 . S
C2303 C2304 1.524 . S
C2303 C2307 1.400 . S
C2304 H2289 0.960 . S
C2304 H2290 0.960 . S
C2304 H2291 0.960 . S
C2304 C2303 1.524 . S
C2305 C2302 1.403 . S
C2305 C2306 1.392 . S
C2305 C2309 1.495 . S
C2306 C2305 1.392 . S
C2306 C2307 1.385 . S
C2306 C2308 1.478 . S
C2307 H2301 0.930 . S
C2307 C2303 1.400 . S
C2307 C2306 1.385 . S
C2308 C2306 1.478 . S
C2308 C2310 1.381 . S
C2308 C2314 1.383 . S
C2309 C2305 1.495 . S
C2309 H2315 0.959 . S
C2309 H2316 0.961 . S
C2309 H2317 0.960 . S
C2310 C2308 1.381 . S
C2310 C2311 1.394 . S
C2310 H2318 0.930 . S
C2311 C2310 1.394 . S
C2311 C2312 1.383 . S
C2311 H2319 0.929 . S
C2312 C2311 1.383 . S
C2312 C2313 1.377 . S
C2313 H2297 0.930 . S
C2313 C2312 1.377 . S
C2313 C2314 1.379 . S
C2314 H2298 0.931 . S
C2314 C2308 1.383 . S
C2314 C2313 1.379 . S
H2315 C2309 0.959 . S
H2316 C2309 0.961 . S
H2317 C2309 0.960 . S
H2318 C2310 0.930 . S
H2319 C2311 0.929 . S
H2320 C2328 0.929 . S
H2321 C2330 0.930 . S
H2322 C2332 0.930 . S
H2323 C2335 0.929 . S
H2324 C2338 0.930 . S
H2325 C2340 0.960 1_556 S
H2326 C2340 0.960 . S
H2327 C2340 0.960 . S
C2328 H2320 0.929 . S
C2328 C2329 1.377 . S
C2328 C2330 1.384 . S
C2329 C2328 1.377 . S
C2329 C2335 1.390 . S
C2330 H2321 0.930 . S
C2330 C2328 1.384 . S
C2330 C2331 1.372 . S
C2331 C2330 1.372 . S
C2331 C2332 1.400 . S
C2331 C2336 1.490 . S
C2332 H2322 0.930 . S
C2332 C2331 1.400 . S
C2332 C2335 1.386 . S
H2333 C2349 0.930 . S
H2334 C2350 0.931 . S
C2335 H2323 0.929 . S
C2335 C2329 1.390 . S
C2335 C2332 1.386 . S
C2336 C2331 1.490 . S
C2336 C2338 1.395 . S
C2336 C2339 1.403 . S
H2337 C2343 0.930 . S
C2338 H2324 0.930 . S
C2338 C2336 1.395 . S
C2338 C2341 1.403 1_554 S
C2339 C2336 1.403 . S
C2339 C2340 1.524 . S
C2339 C2343 1.400 1_554 S
C2340 H2325 0.960 1_554 S
C2340 H2326 0.960 . S
C2340 H2327 0.960 . S
C2340 C2339 1.524 . S
C2341 C2338 1.403 1_556 S
C2341 C2342 1.392 . S
C2341 C2345 1.495 . S
C2342 C2341 1.392 . S
C2342 C2343 1.385 . S
C2342 C2344 1.478 . S
C2343 H2337 0.930 . S
C2343 C2339 1.400 1_556 S
C2343 C2342 1.385 . S
C2344 C2342 1.478 . S
C2344 C2346 1.381 . S
C2344 C2350 1.383 . S
C2345 C2341 1.495 . S
C2345 H2351 0.914 1_556 S
C2345 H2352 0.961 . S
C2345 H2353 0.960 . S
C2346 C2344 1.381 . S
C2346 C2347 1.394 . S
C2346 H2354 0.930 . S
C2347 C2346 1.394 . S
C2347 C2348 1.383 . S
C2347 H2355 0.929 . S
C2348 C2347 1.383 . S
C2348 C2349 1.377 . S
C2349 H2333 0.930 . S
C2349 C2348 1.377 . S
C2349 C2350 1.379 . S
C2350 H2334 0.931 . S
C2350 C2344 1.383 . S
C2350 C2349 1.379 . S
H2351 C2345 0.914 1_554 S
H2352 C2345 0.961 . S
H2353 C2345 0.960 . S
H2354 C2346 0.930 . S
H2355 C2347 0.929 . S
H2356 C2364 0.929 . S
H2357 C2366 0.930 . S
H2358 C2368 0.930 . S
H2359 C2371 0.929 . S
H2360 C2374 0.930 . S
H2361 C2376 0.960 . S
H2362 C2376 0.960 1_455 S
H2363 C2376 0.960 . S
C2364 H2356 0.929 . S
C2364 C2365 1.377 . S
C2364 C2366 1.384 . S
C2365 C2364 1.377 . S
C2365 C2371 1.390 . S
C2366 H2357 0.930 . S
C2366 C2364 1.384 . S
C2366 C2367 1.372 . S
C2367 C2366 1.372 . S
C2367 C2368 1.400 . S
C2367 C2372 1.490 . S
C2368 H2358 0.930 . S
C2368 C2367 1.400 . S
C2368 C2371 1.386 . S
H2369 C2385 0.930 . S
H2370 C2386 0.931 . S
C2371 H2359 0.929 . S
C2371 C2365 1.390 . S
C2371 C2368 1.386 . S
C2372 C2367 1.490 . S
C2372 C2374 1.395 . S
C2372 C2375 1.403 1_455 S
H2373 C2379 0.930 . S
C2374 H2360 0.930 . S
C2374 C2372 1.395 . S
C2374 C2377 1.403 . S
C2375 C2372 1.403 1_655 S
C2375 C2376 1.524 . S
C2375 C2379 1.400 . S
C2376 H2361 0.960 . S
C2376 H2362 0.960 1_655 S
C2376 H2363 0.960 . S
C2376 C2375 1.524 . S
C2377 C2374 1.403 . S
C2377 C2378 1.392 1_455 S
C2377 C2381 1.495 . S
C2378 C2377 1.392 1_655 S
C2378 C2379 1.385 . S
C2378 C2380 1.478 . S
C2379 H2373 0.930 . S
C2379 C2375 1.400 . S
C2379 C2378 1.385 . S
C2380 C2378 1.478 . S
C2380 C2382 1.381 . S
C2380 C2386 1.383 . S
C2381 C2377 1.495 . S
C2381 H2387 0.959 . S
C2381 H2388 0.961 . S
C2381 H2389 0.960 . S
C2382 C2380 1.381 . S
C2382 C2383 1.394 . S
C2382 H2390 0.930 . S
C2383 C2382 1.394 . S
C2383 C2384 1.383 . S
C2383 H2391 0.929 . S
C2384 C2383 1.383 . S
C2384 C2385 1.377 . S
C2385 H2369 0.930 . S
C2385 C2384 1.377 . S
C2385 C2386 1.379 . S
C2386 H2370 0.931 . S
C2386 C2380 1.383 . S
C2386 C2385 1.379 . S
H2387 C2381 0.959 . S
H2388 C2381 0.961 . S
H2389 C2381 0.960 . S
H2390 C2382 0.930 . S
H2391 C2383 0.929 . S
H2392 C2400 0.929 . S
H2393 C2402 0.930 . S
H2394 C2404 0.930 . S
H2395 C2407 0.929 . S
H2396 C2410 0.930 . S
H2397 C2412 0.960 . S
H2398 C2412 0.960 . S
H2399 C2412 0.935 1_455 S
C2400 H2392 0.929 . S
C2400 C2401 1.377 . S
C2400 C2402 1.384 . S
C2401 C2400 1.377 . S
C2401 C2407 1.390 . S
C2402 H2393 0.930 . S
C2402 C2400 1.384 . S
C2402 C2403 1.372 . S
C2403 C2402 1.372 . S
C2403 C2404 1.400 . S
C2403 C2408 1.490 . S
C2404 H2394 0.930 . S
C2404 C2403 1.400 . S
C2404 C2407 1.386 . S
H2405 C2421 0.930 . S
H2406 C2422 0.931 . S
C2407 H2395 0.929 . S
C2407 C2401 1.390 . S
C2407 C2404 1.386 . S
C2408 C2403 1.490 . S
C2408 C2410 1.395 1_554 S
C2408 C2411 1.403 1_455 S
H2409 C2415 0.951 . S
C2410 H2396 0.930 . S
C2410 C2408 1.395 1_556 S
C2410 C2413 1.403 . S
C2411 C2408 1.403 1_655 S
C2411 C2412 1.524 . S
C2411 C2415 1.479 . S
C2412 H2397 0.960 . S
C2412 H2398 0.960 . S
C2412 H2399 0.935 1_655 S
C2412 C2411 1.524 . S
C2413 C2410 1.403 . S
C2413 C2414 1.392 1_455 S
C2413 C2417 1.495 . S
C2414 C2413 1.392 1_655 S
C2414 C2415 1.293 1_556 S
C2414 C2416 1.478 . S
C2415 H2409 0.951 . S
C2415 C2411 1.479 . S
C2415 C2414 1.293 1_554 S
C2416 C2414 1.478 . S
C2416 C2418 1.381 . S
C2416 C2422 1.383 . S
C2417 C2413 1.495 . S
C2417 H2423 0.959 . S
C2417 H2424 0.961 . S
C2417 H2425 0.954 1_455 S
C2418 C2416 1.381 . S
C2418 C2419 1.394 . S
C2418 H2426 0.930 . S
C2419 C2418 1.394 . S
C2419 C2420 1.383 . S
C2419 H2427 0.929 . S
C2420 C2419 1.383 . S
C2420 C2421 1.377 . S
C2421 H2405 0.930 . S
C2421 C2420 1.377 . S
C2421 C2422 1.379 . S
C2422 H2406 0.931 . S
C2422 C2416 1.383 . S
C2422 C2421 1.379 . S
H2423 C2417 0.959 . S
H2424 C2417 0.961 . S
H2425 C2417 0.954 1_655 S
H2426 C2418 0.930 . S
H2427 C2419 0.929 . S
H2428 C2436 0.929 . S
H2429 C2438 0.930 . S
H2430 C2440 0.930 . S
H2431 C2443 0.929 . S
H2432 C2446 0.930 . S
H2433 C2448 0.960 . S
H2434 C2448 0.960 . S
H2435 C2448 0.960 . S
C2436 H2428 0.929 . S
C2436 C2437 1.377 . S
C2436 C2438 1.384 . S
C2437 C2436 1.377 . S
C2437 C2443 1.390 . S
C2438 H2429 0.930 . S
C2438 C2436 1.384 . S
C2438 C2439 1.372 . S
C2439 C2438 1.372 . S
C2439 C2440 1.400 . S
C2439 C2444 1.490 . S
C2440 H2430 0.930 . S
C2440 C2439 1.400 . S
C2440 C2443 1.386 . S
H2441 C2457 0.930 . S
H2442 C2458 0.931 . S
C2443 H2431 0.929 . S
C2443 C2437 1.390 . S
C2443 C2440 1.386 . S
C2444 C2439 1.490 . S
C2444 C2446 1.395 . S
C2444 C2447 1.403 . S
H2445 C2451 0.930 . S
C2446 H2432 0.930 . S
C2446 C2444 1.395 . S
C2446 C2449 1.403 . S
C2447 C2444 1.403 . S
C2447 C2448 1.524 . S
C2447 C2451 1.400 . S
C2448 H2433 0.960 . S
C2448 H2434 0.960 . S
C2448 H2435 0.960 . S
C2448 C2447 1.524 . S
C2449 C2446 1.403 . S
C2449 C2450 1.392 . S
C2449 C2453 1.495 . S
C2450 C2449 1.392 . S
C2450 C2451 1.385 . S
C2450 C2452 1.478 . S
C2451 H2445 0.930 . S
C2451 C2447 1.400 . S
C2451 C2450 1.385 . S
C2452 C2450 1.478 . S
C2452 C2454 1.381 . S
C2452 C2458 1.383 . S
C2453 C2449 1.495 . S
C2453 H2459 0.959 . S
C2453 H2460 0.961 . S
C2453 H2461 0.960 . S
C2454 C2452 1.381 . S
C2454 C2455 1.394 . S
C2454 H2462 0.930 . S
C2455 C2454 1.394 . S
C2455 C2456 1.383 . S
C2455 H2463 0.929 . S
C2456 C2455 1.383 . S
C2456 C2457 1.377 . S
C2457 H2441 0.930 . S
C2457 C2456 1.377 . S
C2457 C2458 1.379 . S
C2458 H2442 0.931 . S
C2458 C2452 1.383 . S
C2458 C2457 1.379 . S
H2459 C2453 0.959 . S
H2460 C2453 0.961 . S
H2461 C2453 0.960 . S
H2462 C2454 0.930 . S
H2463 C2455 0.929 . S
H2464 C2472 0.929 . S
H2465 C2474 0.930 . S
H2466 C2476 0.930 . S
H2467 C2479 0.929 . S
H2468 C2482 0.930 . S
H2469 C2484 0.960 . S
H2470 C2484 0.960 . S
H2471 C2484 0.960 . S
C2472 H2464 0.929 . S
C2472 C2473 1.377 . S
C2472 C2474 1.384 . S
C2473 C2472 1.377 . S
C2473 C2479 1.390 . S
C2474 H2465 0.930 . S
C2474 C2472 1.384 . S
C2474 C2475 1.372 . S
C2475 C2474 1.372 . S
C2475 C2476 1.400 . S
C2475 C2480 1.490 . S
C2476 H2466 0.930 . S
C2476 C2475 1.400 . S
C2476 C2479 1.386 . S
H2477 C2493 0.930 . S
H2478 C2494 0.931 . S
C2479 H2467 0.929 . S
C2479 C2473 1.390 . S
C2479 C2476 1.386 . S
C2480 C2475 1.490 . S
C2480 C2482 1.395 . S
C2480 C2483 1.403 . S
H2481 C2487 0.930 . S
C2482 H2468 0.930 . S
C2482 C2480 1.395 . S
C2482 C2485 1.403 1_545 S
C2483 C2480 1.403 . S
C2483 C2484 1.524 . S
C2483 C2487 1.400 1_545 S
C2484 H2469 0.960 . S
C2484 H2470 0.960 . S
C2484 H2471 0.960 . S
C2484 C2483 1.524 . S
C2485 C2482 1.403 1_565 S
C2485 C2486 1.392 . S
C2485 C2489 1.495 . S
C2486 C2485 1.392 . S
C2486 C2487 1.385 . S
C2486 C2488 1.478 . S
C2487 H2481 0.930 . S
C2487 C2483 1.400 1_565 S
C2487 C2486 1.385 . S
C2488 C2486 1.478 . S
C2488 C2490 1.381 . S
C2488 C2494 1.383 . S
C2489 C2485 1.495 . S
C2489 H2495 0.959 . S
C2489 H2496 0.961 . S
C2489 H2497 0.960 . S
C2490 C2488 1.381 . S
C2490 C2491 1.394 . S
C2490 H2498 0.930 . S
C2491 C2490 1.394 . S
C2491 C2492 1.383 . S
C2491 H2499 0.929 . S
C2492 C2491 1.383 . S
C2492 C2493 1.377 . S
C2493 H2477 0.930 . S
C2493 C2492 1.377 . S
C2493 C2494 1.379 . S
C2494 H2478 0.931 . S
C2494 C2488 1.383 . S
C2494 C2493 1.379 . S
H2495 C2489 0.959 . S
H2496 C2489 0.961 . S
H2497 C2489 0.960 . S
H2498 C2490 0.930 . S
H2499 C2491 0.929 . S
H2500 C2508 0.929 . S
H2501 C2510 0.930 . S
H2502 C2512 0.930 . S
H2503 C2515 0.929 . S
H2504 C2518 0.930 . S
H2505 C2520 0.960 . S
H2506 C2520 0.960 . S
H2507 C2520 0.960 . S
C2508 H2500 0.929 . S
C2508 C2509 1.377 . S
C2508 C2510 1.384 . S
C2509 C2508 1.377 . S
C2509 C2515 1.390 . S
C2510 H2501 0.930 . S
C2510 C2508 1.384 . S
C2510 C2511 1.372 . S
C2511 C2510 1.372 . S
C2511 C2512 1.400 . S
C2511 C2516 1.490 . S
C2512 H2502 0.930 . S
C2512 C2511 1.400 . S
C2512 C2515 1.386 . S
H2513 C2529 0.930 . S
H2514 C2530 0.931 . S
C2515 H2503 0.929 . S
C2515 C2509 1.390 . S
C2515 C2512 1.386 . S
C2516 C2511 1.490 . S
C2516 C2518 1.395 . S
C2516 C2519 1.403 . S
H2517 C2523 0.930 . S
C2518 H2504 0.930 . S
C2518 C2516 1.395 . S
C2518 C2521 1.403 . S
C2519 C2516 1.403 . S
C2519 C2520 1.524 . S
C2519 C2523 1.400 . S
C2520 H2505 0.960 . S
C2520 H2506 0.960 . S
C2520 H2507 0.960 . S
C2520 C2519 1.524 . S
C2521 C2518 1.403 . S
C2521 C2522 1.392 . S
C2521 C2525 1.495 . S
C2522 C2521 1.392 . S
C2522 C2523 1.385 . S
C2522 C2524 1.478 . S
C2523 H2517 0.930 . S
C2523 C2519 1.400 . S
C2523 C2522 1.385 . S
C2524 C2522 1.478 . S
C2524 C2526 1.381 . S
C2524 C2530 1.383 . S
C2525 C2521 1.495 . S
C2525 H2531 0.959 . S
C2525 H2532 0.961 . S
C2525 H2533 0.960 . S
C2526 C2524 1.381 . S
C2526 C2527 1.394 . S
C2526 H2534 0.930 . S
C2527 C2526 1.394 . S
C2527 C2528 1.383 . S
C2527 H2535 0.929 . S
C2528 C2527 1.383 . S
C2528 C2529 1.377 . S
C2529 H2513 0.930 . S
C2529 C2528 1.377 . S
C2529 C2530 1.379 . S
C2530 H2514 0.931 . S
C2530 C2524 1.383 . S
C2530 C2529 1.379 . S
H2531 C2525 0.959 . S
H2532 C2525 0.961 . S
H2533 C2525 0.960 . S
H2534 C2526 0.930 . S
H2535 C2527 0.929 . S
H2536 C2544 0.929 . S
H2537 C2546 0.930 . S
H2538 C2548 0.930 . S
H2539 C2551 0.929 . S
H2540 C2554 0.930 . S
H2541 C2556 0.960 . S
H2542 C2556 0.960 . S
H2543 C2556 0.960 . S
C2544 H2536 0.929 . S
C2544 C2545 1.377 . S
C2544 C2546 1.384 . S
C2545 C2544 1.377 . S
C2545 C2551 1.390 . S
C2546 H2537 0.930 . S
C2546 C2544 1.384 . S
C2546 C2547 1.372 . S
C2547 C2546 1.372 . S
C2547 C2548 1.400 . S
C2547 C2552 1.490 . S
C2548 H2538 0.930 . S
C2548 C2547 1.400 . S
C2548 C2551 1.386 . S
H2549 C2565 0.930 . S
H2550 C2566 0.931 . S
C2551 H2539 0.929 . S
C2551 C2545 1.390 . S
C2551 C2548 1.386 . S
C2552 C2547 1.490 . S
C2552 C2554 1.395 . S
C2552 C2555 1.403 1_545 S
H2553 C2559 0.930 . S
C2554 H2540 0.930 . S
C2554 C2552 1.395 . S
C2554 C2557 1.403 . S
C2555 C2552 1.403 1_565 S
C2555 C2556 1.524 . S
C2555 C2559 1.400 . S
C2556 H2541 0.960 . S
C2556 H2542 0.960 . S
C2556 H2543 0.960 . S
C2556 C2555 1.524 . S
C2557 C2554 1.403 . S
C2557 C2558 1.392 1_545 S
C2557 C2561 1.495 . S
C2558 C2557 1.392 1_565 S
C2558 C2559 1.385 . S
C2558 C2560 1.478 . S
C2559 H2553 0.930 . S
C2559 C2555 1.400 . S
C2559 C2558 1.385 . S
C2560 C2558 1.478 . S
C2560 C2562 1.381 . S
C2560 C2566 1.383 . S
C2561 C2557 1.495 . S
C2561 H2567 0.959 . S
C2561 H2568 0.961 . S
C2561 H2569 0.960 . S
C2562 C2560 1.381 . S
C2562 C2563 1.394 . S
C2562 H2570 0.930 . S
C2563 C2562 1.394 . S
C2563 C2564 1.383 . S
C2563 H2571 0.929 . S
C2564 C2563 1.383 . S
C2564 C2565 1.377 . S
C2565 H2549 0.930 . S
C2565 C2564 1.377 . S
C2565 C2566 1.379 . S
C2566 H2550 0.931 . S
C2566 C2560 1.383 . S
C2566 C2565 1.379 . S
H2567 C2561 0.959 . S
H2568 C2561 0.961 . S
H2569 C2561 0.960 . S
H2570 C2562 0.930 . S
H2571 C2563 0.929 . S
H2572 C2580 0.929 . S
H2573 C2582 0.930 . S
H2574 C2584 0.930 . S
H2575 C2587 0.929 . S
H2576 C2590 0.930 . S
H2577 C2592 0.960 . S
H2578 C2592 1.001 . S
H2579 C2592 0.978 . S
C2580 H2572 0.929 . S
C2580 C2581 1.377 . S
C2580 C2582 1.384 . S
C2581 C2580 1.377 . S
C2581 C2587 1.390 . S
C2582 H2573 0.930 . S
C2582 C2580 1.384 . S
C2582 C2583 1.372 . S
C2583 C2582 1.372 . S
C2583 C2584 1.400 . S
C2583 C2588 1.490 . S
C2584 H2574 0.930 . S
C2584 C2583 1.400 . S
C2584 C2587 1.386 . S
H2585 C2601 0.930 . S
H2586 C2602 0.931 . S
C2587 H2575 0.929 . S
C2587 C2581 1.390 . S
C2587 C2584 1.386 . S
C2588 C2583 1.490 . S
C2588 C2590 1.395 . S
C2588 C2591 1.403 1_554 S
H2589 C2595 0.930 . S
C2590 H2576 0.930 . S
C2590 C2588 1.395 . S
C2590 C2593 1.403 . S
C2591 C2588 1.403 1_556 S
C2591 C2592 1.524 . S
C2591 C2595 1.400 . S
C2592 H2577 0.960 . S
C2592 H2578 1.001 . S
C2592 H2579 0.978 . S
C2592 C2591 1.524 . S
C2593 C2590 1.403 . S
C2593 C2594 1.392 1_554 S
C2593 C2597 1.495 . S
C2594 C2593 1.392 1_556 S
C2594 C2595 1.385 . S
C2594 C2596 1.478 . S
C2595 H2589 0.930 . S
C2595 C2591 1.400 . S
C2595 C2594 1.385 . S
C2596 C2594 1.478 . S
C2596 C2598 1.381 . S
C2596 C2602 1.383 . S
C2597 C2593 1.495 . S
C2597 H2603 0.959 . S
C2597 H2604 0.961 . S
C2597 H2605 0.960 . S
C2598 C2596 1.381 . S
C2598 C2599 1.394 . S
C2598 H2606 0.930 . S
C2599 C2598 1.394 . S
C2599 C2600 1.383 . S
C2599 H2607 0.929 . S
C2600 C2599 1.383 . S
C2600 C2601 1.377 . S
C2601 H2585 0.930 . S
C2601 C2600 1.377 . S
C2601 C2602 1.379 . S
C2602 H2586 0.931 . S
C2602 C2596 1.383 . S
C2602 C2601 1.379 . S
H2603 C2597 0.959 . S
H2604 C2597 0.961 . S
H2605 C2597 0.960 . S
H2606 C2598 0.930 . S
H2607 C2599 0.929 . S
H2608 C2616 0.929 . S
H2609 C2618 0.930 . S
H2610 C2620 0.930 . S
H2611 C2623 0.929 . S
H2612 C2626 0.930 . S
H2613 C2628 0.960 . S
H2614 C2628 0.960 . S
H2615 C2628 0.960 . S
C2616 H2608 0.929 . S
C2616 C2617 1.377 . S
C2616 C2618 1.384 . S
C2617 C2616 1.377 . S
C2617 C2623 1.390 . S
C2618 H2609 0.930 . S
C2618 C2616 1.384 . S
C2618 C2619 1.372 . S
C2619 C2618 1.372 . S
C2619 C2620 1.400 . S
C2619 C2624 1.490 . S
C2620 H2610 0.930 . S
C2620 C2619 1.400 . S
C2620 C2623 1.386 . S
H2621 C2637 0.930 . S
H2622 C2638 0.931 . S
C2623 H2611 0.929 . S
C2623 C2617 1.390 . S
C2623 C2620 1.386 . S
C2624 C2619 1.490 . S
C2624 C2626 1.395 . S
C2624 C2627 1.403 1_545 S
H2625 C2631 0.930 . S
C2626 H2612 0.930 . S
C2626 C2624 1.395 . S
C2626 C2629 1.403 . S
C2627 C2624 1.403 1_565 S
C2627 C2628 1.524 . S
C2627 C2631 1.400 . S
C2628 H2613 0.960 . S
C2628 H2614 0.960 . S
C2628 H2615 0.960 . S
C2628 C2627 1.524 . S
C2629 C2626 1.403 . S
C2629 C2630 1.392 1_545 S
C2629 C2633 1.495 . S
C2630 C2629 1.392 1_565 S
C2630 C2631 1.385 . S
C2630 C2632 1.478 . S
C2631 H2625 0.930 . S
C2631 C2627 1.400 . S
C2631 C2630 1.385 . S
C2632 C2630 1.478 . S
C2632 C2634 1.381 . S
C2632 C2638 1.383 . S
C2633 C2629 1.495 . S
C2633 H2639 0.959 . S
C2633 H2640 0.961 . S
C2633 H2641 0.960 . S
C2634 C2632 1.381 . S
C2634 C2635 1.394 . S
C2634 H2642 0.930 . S
C2635 C2634 1.394 . S
C2635 C2636 1.383 . S
C2635 H2643 0.929 . S
C2636 C2635 1.383 . S
C2636 C2637 1.377 . S
C2637 H2621 0.930 . S
C2637 C2636 1.377 . S
C2637 C2638 1.379 . S
C2638 H2622 0.931 . S
C2638 C2632 1.383 . S
C2638 C2637 1.379 . S
H2639 C2633 0.959 . S
H2640 C2633 0.961 . S
H2641 C2633 0.960 . S
H2642 C2634 0.930 . S
H2643 C2635 0.929 . S
H2644 C2652 0.929 . S
H2645 C2654 0.930 . S
H2646 C2656 0.930 . S
H2647 C2659 0.929 . S
H2648 C2662 0.930 . S
H2649 C2664 0.960 . S
H2650 C2664 0.960 . S
H2651 C2664 0.960 . S
C2652 H2644 0.929 . S
C2652 C2653 1.377 . S
C2652 C2654 1.384 . S
C2653 C2652 1.377 . S
C2653 C2659 1.390 . S
C2654 H2645 0.930 . S
C2654 C2652 1.384 . S
C2654 C2655 1.372 . S
C2655 C2654 1.372 . S
C2655 C2656 1.400 . S
C2655 C2660 1.490 . S
C2656 H2646 0.930 . S
C2656 C2655 1.400 . S
C2656 C2659 1.386 . S
H2657 C2673 0.930 . S
H2658 C2674 0.931 . S
C2659 H2647 0.929 . S
C2659 C2653 1.390 . S
C2659 C2656 1.386 . S
C2660 C2655 1.490 . S
C2660 C2662 1.395 . S
C2660 C2663 1.403 . S
H2661 C2667 0.930 . S
C2662 H2648 0.930 . S
C2662 C2660 1.395 . S
C2662 C2665 1.403 . S
C2663 C2660 1.403 . S
C2663 C2664 1.524 . S
C2663 C2667 1.400 . S
C2664 H2649 0.960 . S
C2664 H2650 0.960 . S
C2664 H2651 0.960 . S
C2664 C2663 1.524 . S
C2665 C2662 1.403 . S
C2665 C2666 1.392 . S
C2665 C2669 1.495 . S
C2666 C2665 1.392 . S
C2666 C2667 1.385 . S
C2666 C2668 1.478 . S
C2667 H2661 0.930 . S
C2667 C2663 1.400 . S
C2667 C2666 1.385 . S
C2668 C2666 1.478 . S
C2668 C2670 1.381 . S
C2668 C2674 1.383 . S
C2669 C2665 1.495 . S
C2669 H2675 0.959 . S
C2669 H2676 0.961 . S
C2669 H2677 0.960 . S
C2670 C2668 1.381 . S
C2670 C2671 1.394 . S
C2670 H2678 0.930 . S
C2671 C2670 1.394 . S
C2671 C2672 1.383 . S
C2671 H2679 0.929 . S
C2672 C2671 1.383 . S
C2672 C2673 1.377 . S
C2673 H2657 0.930 . S
C2673 C2672 1.377 . S
C2673 C2674 1.379 . S
C2674 H2658 0.931 . S
C2674 C2668 1.383 . S
C2674 C2673 1.379 . S
H2675 C2669 0.959 . S
H2676 C2669 0.961 . S
H2677 C2669 0.960 . S
H2678 C2670 0.930 . S
H2679 C2671 0.929 . S
H2680 C2688 0.929 . S
H2681 C2690 0.930 . S
H2682 C2692 0.930 . S
H2683 C2695 0.929 . S
H2684 C2698 0.930 . S
H2685 C2700 0.960 . S
H2686 C2700 0.960 . S
H2687 C2700 0.960 . S
C2688 H2680 0.929 . S
C2688 C2689 1.377 . S
C2688 C2690 1.384 . S
C2689 C2688 1.377 . S
C2689 C2695 1.390 . S
C2690 H2681 0.930 . S
C2690 C2688 1.384 . S
C2690 C2691 1.372 . S
C2691 C2690 1.372 . S
C2691 C2692 1.400 . S
C2691 C2696 1.490 . S
C2692 H2682 0.930 . S
C2692 C2691 1.400 . S
C2692 C2695 1.386 . S
H2693 C2709 0.930 . S
H2694 C2710 0.931 . S
C2695 H2683 0.929 . S
C2695 C2689 1.390 . S
C2695 C2692 1.386 . S
C2696 C2691 1.490 . S
C2696 C2698 1.395 . S
C2696 C2699 1.403 1_545 S
H2697 C2703 0.930 . S
C2698 H2684 0.930 . S
C2698 C2696 1.395 . S
C2698 C2701 1.403 . S
C2699 C2696 1.403 1_565 S
C2699 C2700 1.524 . S
C2699 C2703 1.400 . S
C2700 H2685 0.960 . S
C2700 H2686 0.960 . S
C2700 H2687 0.960 . S
C2700 C2699 1.524 . S
C2701 C2698 1.403 . S
C2701 C2702 1.392 1_545 S
C2701 C2705 1.495 . S
C2702 C2701 1.392 1_565 S
C2702 C2703 1.385 . S
C2702 C2704 1.478 . S
C2703 H2697 0.930 . S
C2703 C2699 1.400 . S
C2703 C2702 1.385 . S
C2704 C2702 1.478 . S
C2704 C2706 1.381 . S
C2704 C2710 1.383 . S
C2705 C2701 1.495 . S
C2705 H2711 0.959 . S
C2705 H2712 0.961 . S
C2705 H2713 0.960 . S
C2706 C2704 1.381 . S
C2706 C2707 1.394 . S
C2706 H2714 0.930 . S
C2707 C2706 1.394 . S
C2707 C2708 1.383 . S
C2707 H2715 0.929 . S
C2708 C2707 1.383 . S
C2708 C2709 1.377 . S
C2709 H2693 0.930 . S
C2709 C2708 1.377 . S
C2709 C2710 1.379 . S
C2710 H2694 0.931 . S
C2710 C2704 1.383 . S
C2710 C2709 1.379 . S
H2711 C2705 0.959 . S
H2712 C2705 0.961 . S
H2713 C2705 0.960 . S
H2714 C2706 0.930 . S
H2715 C2707 0.929 . S
H2716 C2724 0.929 . S
H2717 C2726 0.930 . S
H2718 C2728 0.930 . S
H2719 C2731 0.929 . S
H2720 C2734 0.930 . S
H2721 C2736 0.960 1_554 S
H2722 C2736 0.960 . S
H2723 C2736 0.960 . S
C2724 H2716 0.929 . S
C2724 C2725 1.377 . S
C2724 C2726 1.384 . S
C2725 C2724 1.377 . S
C2725 C2731 1.390 . S
C2726 H2717 0.930 . S
C2726 C2724 1.384 . S
C2726 C2727 1.372 . S
C2727 C2726 1.372 . S
C2727 C2728 1.400 . S
C2727 C2732 1.490 . S
C2728 H2718 0.930 . S
C2728 C2727 1.400 . S
C2728 C2731 1.386 . S
H2729 C2745 0.930 . S
H2730 C2746 0.931 . S
C2731 H2719 0.929 . S
C2731 C2725 1.390 . S
C2731 C2728 1.386 . S
C2732 C2727 1.490 . S
C2732 C2734 1.395 . S
C2732 C2735 1.403 . S
H2733 C2739 0.930 . S
C2734 H2720 0.930 . S
C2734 C2732 1.395 . S
C2734 C2737 1.403 1_556 S
C2735 C2732 1.403 . S
C2735 C2736 1.524 . S
C2735 C2739 1.400 1_556 S
C2736 H2721 0.960 1_556 S
C2736 H2722 0.960 . S
C2736 H2723 0.960 . S
C2736 C2735 1.524 . S
C2737 C2734 1.403 1_554 S
C2737 C2738 1.392 . S
C2737 C2741 1.495 . S
C2738 C2737 1.392 . S
C2738 C2739 1.385 . S
C2738 C2740 1.478 . S
C2739 H2733 0.930 . S
C2739 C2735 1.400 1_554 S
C2739 C2738 1.385 . S
C2740 C2738 1.478 . S
C2740 C2742 1.381 . S
C2740 C2746 1.383 . S
C2741 C2737 1.495 . S
C2741 H2747 0.959 1_554 S
C2741 H2748 0.961 . S
C2741 H2749 0.960 . S
C2742 C2740 1.381 . S
C2742 C2743 1.394 . S
C2742 H2750 0.930 . S
C2743 C2742 1.394 . S
C2743 C2744 1.383 . S
C2743 H2751 0.929 . S
C2744 C2743 1.383 . S
C2744 C2745 1.377 . S
C2745 H2729 0.930 . S
C2745 C2744 1.377 . S
C2745 C2746 1.379 . S
C2746 H2730 0.931 . S
C2746 C2740 1.383 . S
C2746 C2745 1.379 . S
H2747 C2741 0.959 1_556 S
H2748 C2741 0.961 . S
H2749 C2741 0.960 . S
H2750 C2742 0.930 . S
H2751 C2743 0.929 . S
H2752 C2760 0.929 . S
H2753 C2762 0.930 . S
H2754 C2764 0.930 . S
H2755 C2767 0.929 . S
H2756 C2770 0.930 . S
H2757 C2772 0.960 . S
H2758 C2772 0.960 . S
H2759 C2772 0.960 . S
C2760 H2752 0.929 . S
C2760 C2761 1.377 . S
C2760 C2762 1.384 . S
C2761 C2760 1.377 . S
C2761 C2767 1.390 . S
C2762 H2753 0.930 . S
C2762 C2760 1.384 . S
C2762 C2763 1.372 . S
C2763 C2762 1.372 . S
C2763 C2764 1.400 . S
C2763 C2768 1.490 . S
C2764 H2754 0.930 . S
C2764 C2763 1.400 . S
C2764 C2767 1.386 . S
H2765 C2781 0.930 . S
H2766 C2782 0.931 . S
C2767 H2755 0.929 . S
C2767 C2761 1.390 . S
C2767 C2764 1.386 . S
C2768 C2763 1.490 . S
C2768 C2770 1.395 . S
C2768 C2771 1.403 . S
H2769 C2775 0.930 . S
C2770 H2756 0.930 . S
C2770 C2768 1.395 . S
C2770 C2773 1.403 . S
C2771 C2768 1.403 . S
C2771 C2772 1.524 . S
C2771 C2775 1.400 . S
C2772 H2757 0.960 . S
C2772 H2758 0.960 . S
C2772 H2759 0.960 . S
C2772 C2771 1.524 . S
C2773 C2770 1.403 . S
C2773 C2774 1.392 . S
C2773 C2777 1.495 . S
C2774 C2773 1.392 . S
C2774 C2775 1.385 . S
C2774 C2776 1.478 . S
C2775 H2769 0.930 . S
C2775 C2771 1.400 . S
C2775 C2774 1.385 . S
C2776 C2774 1.478 . S
C2776 C2778 1.381 . S
C2776 C2782 1.383 . S
C2777 C2773 1.495 . S
C2777 H2783 0.959 . S
C2777 H2784 0.961 . S
C2777 H2785 0.960 . S
C2778 C2776 1.381 . S
C2778 C2779 1.394 . S
C2778 H2786 0.930 . S
C2779 C2778 1.394 . S
C2779 C2780 1.383 . S
C2779 H2787 0.929 . S
C2780 C2779 1.383 . S
C2780 C2781 1.377 . S
C2781 H2765 0.930 . S
C2781 C2780 1.377 . S
C2781 C2782 1.379 . S
C2782 H2766 0.931 . S
C2782 C2776 1.383 . S
C2782 C2781 1.379 . S
H2783 C2777 0.959 . S
H2784 C2777 0.961 . S
H2785 C2777 0.960 . S
H2786 C2778 0.930 . S
H2787 C2779 0.929 . S
H2788 C2796 0.929 . S
H2789 C2798 0.930 . S
H2790 C2800 0.930 . S
H2791 C2803 0.929 . S
H2792 C2806 0.930 . S
H2793 C2808 0.960 . S
H2794 C2808 0.960 . S
H2795 C2808 0.960 . S
C2796 H2788 0.929 . S
C2796 C2797 1.377 . S
C2796 C2798 1.384 . S
C2797 C2796 1.377 . S
C2797 C2803 1.390 . S
C2798 H2789 0.930 . S
C2798 C2796 1.384 . S
C2798 C2799 1.372 . S
C2799 C2798 1.372 . S
C2799 C2800 1.400 . S
C2799 C2804 1.490 . S
C2800 H2790 0.930 . S
C2800 C2799 1.400 . S
C2800 C2803 1.386 . S
H2801 C2817 0.930 . S
H2802 C2818 0.931 . S
C2803 H2791 0.929 . S
C2803 C2797 1.390 . S
C2803 C2800 1.386 . S
C2804 C2799 1.490 . S
C2804 C2806 1.395 1_556 S
C2804 C2807 1.403 . S
H2805 C2811 0.930 . S
C2806 H2792 0.930 . S
C2806 C2804 1.395 1_554 S
C2806 C2809 1.403 . S
C2807 C2804 1.403 . S
C2807 C2808 1.524 . S
C2807 C2811 1.347 1_556 S
C2808 H2793 0.960 . S
C2808 H2794 0.960 . S
C2808 H2795 0.960 . S
C2808 C2807 1.524 . S
C2809 C2806 1.403 . S
C2809 C2810 1.392 . S
C2809 C2813 1.495 . S
C2810 C2809 1.392 . S
C2810 C2811 1.440 . S
C2810 C2812 1.478 . S
C2811 H2805 0.930 . S
C2811 C2807 1.347 1_554 S
C2811 C2810 1.440 . S
C2812 C2810 1.478 . S
C2812 C2814 1.381 . S
C2812 C2818 1.383 . S
C2813 C2809 1.495 . S
C2813 H2819 0.959 . S
C2813 H2820 0.961 . S
C2813 H2821 0.960 . S
C2814 C2812 1.381 . S
C2814 C2815 1.394 . S
C2814 H2822 0.930 . S
C2815 C2814 1.394 . S
C2815 C2816 1.383 . S
C2815 H2823 0.929 . S
C2816 C2815 1.383 . S
C2816 C2817 1.377 . S
C2817 H2801 0.930 . S
C2817 C2816 1.377 . S
C2817 C2818 1.379 . S
C2818 H2802 0.931 . S
C2818 C2812 1.383 . S
C2818 C2817 1.379 . S
H2819 C2813 0.959 . S
H2820 C2813 0.961 . S
H2821 C2813 0.960 . S
H2822 C2814 0.930 . S
H2823 C2815 0.929 . S
H2824 C2832 0.929 . S
H2825 C2834 0.930 . S
H2826 C2836 0.930 . S
H2827 C2839 0.929 . S
H2828 C2842 0.930 . S
H2829 C2844 0.960 . S
H2830 C2844 0.960 . S
H2831 C2844 0.960 . S
C2832 H2824 0.929 . S
C2832 C2833 1.377 . S
C2832 C2834 1.384 . S
C2833 C2832 1.377 . S
C2833 C2839 1.390 . S
C2834 H2825 0.930 . S
C2834 C2832 1.384 . S
C2834 C2835 1.372 . S
C2835 C2834 1.372 . S
C2835 C2836 1.400 . S
C2835 C2840 1.490 . S
C2836 H2826 0.930 . S
C2836 C2835 1.400 . S
C2836 C2839 1.386 . S
H2837 C2853 0.930 . S
H2838 C2854 0.931 . S
C2839 H2827 0.929 . S
C2839 C2833 1.390 . S
C2839 C2836 1.386 . S
C2840 C2835 1.490 . S
C2840 C2842 1.395 . S
C2840 C2843 1.403 . S
H2841 C2847 0.930 . S
C2842 H2828 0.930 . S
C2842 C2840 1.395 . S
C2842 C2845 1.403 . S
C2843 C2840 1.403 . S
C2843 C2844 1.524 . S
C2843 C2847 1.400 . S
C2844 H2829 0.960 . S
C2844 H2830 0.960 . S
C2844 H2831 0.960 . S
C2844 C2843 1.524 . S
C2845 C2842 1.403 . S
C2845 C2846 1.392 . S
C2845 C2849 1.495 . S
C2846 C2845 1.392 . S
C2846 C2847 1.385 . S
C2846 C2848 1.478 . S
C2847 H2841 0.930 . S
C2847 C2843 1.400 . S
C2847 C2846 1.385 . S
C2848 C2846 1.478 . S
C2848 C2850 1.381 . S
C2848 C2854 1.383 . S
C2849 C2845 1.495 . S
C2849 H2855 0.959 . S
C2849 H2856 0.961 . S
C2849 H2857 0.960 . S
C2850 C2848 1.381 . S
C2850 C2851 1.394 . S
C2850 H2858 0.930 . S
C2851 C2850 1.394 . S
C2851 C2852 1.383 . S
C2851 H2859 0.929 . S
C2852 C2851 1.383 . S
C2852 C2853 1.377 . S
C2853 H2837 0.930 . S
C2853 C2852 1.377 . S
C2853 C2854 1.379 . S
C2854 H2838 0.931 . S
C2854 C2848 1.383 . S
C2854 C2853 1.379 . S
H2855 C2849 0.959 . S
H2856 C2849 0.961 . S
H2857 C2849 0.960 . S
H2858 C2850 0.930 . S
H2859 C2851 0.929 . S
H2860 C2868 0.929 . S
H2861 C2870 0.930 . S
H2862 C2872 0.930 . S
H2863 C2875 0.929 . S
H2864 C2878 0.930 . S
H2865 C2880 0.960 . S
H2866 C2880 0.960 . S
H2867 C2880 0.960 . S
C2868 H2860 0.929 . S
C2868 C2869 1.377 . S
C2868 C2870 1.384 . S
C2869 C2868 1.377 . S
C2869 C2875 1.390 . S
C2870 H2861 0.930 . S
C2870 C2868 1.384 . S
C2870 C2871 1.372 . S
C2871 C2870 1.372 . S
C2871 C2872 1.400 . S
C2871 C2876 1.490 . S
C2872 H2862 0.930 . S
C2872 C2871 1.400 . S
C2872 C2875 1.386 . S
H2873 C2889 0.930 . S
H2874 C2890 0.931 . S
C2875 H2863 0.929 . S
C2875 C2869 1.390 . S
C2875 C2872 1.386 . S
C2876 C2871 1.490 . S
C2876 C2878 1.395 . S
C2876 C2879 1.403 . S
H2877 C2883 0.930 . S
C2878 H2864 0.930 . S
C2878 C2876 1.395 . S
C2878 C2881 1.403 . S
C2879 C2876 1.403 . S
C2879 C2880 1.524 . S
C2879 C2883 1.400 . S
C2880 H2865 0.960 . S
C2880 H2866 0.960 . S
C2880 H2867 0.960 . S
C2880 C2879 1.524 . S
C2881 C2878 1.403 . S
C2881 C2882 1.392 . S
C2881 C2885 1.495 . S
C2882 C2881 1.392 . S
C2882 C2883 1.385 . S
C2882 C2884 1.478 . S
C2883 H2877 0.930 . S
C2883 C2879 1.400 . S
C2883 C2882 1.385 . S
C2884 C2882 1.478 . S
C2884 C2886 1.381 . S
C2884 C2890 1.383 . S
C2885 C2881 1.495 . S
C2885 H2891 0.959 . S
C2885 H2892 0.961 . S
C2885 H2893 0.960 . S
C2886 C2884 1.381 . S
C2886 C2887 1.394 . S
C2886 H2894 0.930 . S
C2887 C2886 1.394 . S
C2887 C2888 1.383 . S
C2887 H2895 0.929 . S
C2888 C2887 1.383 . S
C2888 C2889 1.377 . S
C2889 H2873 0.930 . S
C2889 C2888 1.377 . S
C2889 C2890 1.379 . S
C2890 H2874 0.931 . S
C2890 C2884 1.383 . S
C2890 C2889 1.379 . S
H2891 C2885 0.959 . S
H2892 C2885 0.961 . S
H2893 C2885 0.960 . S
H2894 C2886 0.930 . S
H2895 C2887 0.929 . S
H2896 C2904 0.929 . S
H2897 C2906 0.930 . S
H2898 C2908 0.930 . S
H2899 C2911 0.929 . S
H2900 C2914 0.930 . S
H2901 C2916 0.960 . S
H2902 C2916 0.960 . S
H2903 C2916 0.960 . S
C2904 H2896 0.929 . S
C2904 C2905 1.377 . S
C2904 C2906 1.384 . S
C2905 C2904 1.377 . S
C2905 C2911 1.390 . S
C2906 H2897 0.930 . S
C2906 C2904 1.384 . S
C2906 C2907 1.372 . S
C2907 C2906 1.372 . S
C2907 C2908 1.400 . S
C2907 C2912 1.490 . S
C2908 H2898 0.930 . S
C2908 C2907 1.400 . S
C2908 C2911 1.386 . S
H2909 C2925 0.930 . S
H2910 C2926 0.931 . S
C2911 H2899 0.929 . S
C2911 C2905 1.390 . S
C2911 C2908 1.386 . S
C2912 C2907 1.490 . S
C2912 C2914 1.395 . S
C2912 C2915 1.403 . S
H2913 C2919 0.930 . S
C2914 H2900 0.930 . S
C2914 C2912 1.395 . S
C2914 C2917 1.403 . S
C2915 C2912 1.403 . S
C2915 C2916 1.524 . S
C2915 C2919 1.400 . S
C2916 H2901 0.960 . S
C2916 H2902 0.960 . S
C2916 H2903 0.960 . S
C2916 C2915 1.524 . S
C2917 C2914 1.403 . S
C2917 C2918 1.392 . S
C2917 C2921 1.495 . S
C2918 C2917 1.392 . S
C2918 C2919 1.385 . S
C2918 C2920 1.478 . S
C2919 H2913 0.930 . S
C2919 C2915 1.400 . S
C2919 C2918 1.385 . S
C2920 C2918 1.478 . S
C2920 C2922 1.381 . S
C2920 C2926 1.383 . S
C2921 C2917 1.495 . S
C2921 H2927 0.959 . S
C2921 H2928 0.961 . S
C2921 H2929 0.960 . S
C2922 C2920 1.381 . S
C2922 C2923 1.394 . S
C2922 H2930 0.930 . S
C2923 C2922 1.394 . S
C2923 C2924 1.383 . S
C2923 H2931 0.929 . S
C2924 C2923 1.383 . S
C2924 C2925 1.377 . S
C2925 H2909 0.930 . S
C2925 C2924 1.377 . S
C2925 C2926 1.379 . S
C2926 H2910 0.931 . S
C2926 C2920 1.383 . S
C2926 C2925 1.379 . S
H2927 C2921 0.959 . S
H2928 C2921 0.961 . S
H2929 C2921 0.960 . S
H2930 C2922 0.930 . S
H2931 C2923 0.929 . S
H2932 C2940 0.929 . S
H2933 C2942 0.930 . S
H2934 C2944 0.930 . S
H2935 C2947 0.929 . S
H2936 C2950 0.930 . S
H2937 C2952 0.960 . S
H2938 C2952 0.960 . S
H2939 C2952 0.960 1_556 S
C2940 H2932 0.929 . S
C2940 C2941 1.377 . S
C2940 C2942 1.384 . S
C2941 C2940 1.377 . S
C2941 C2947 1.390 . S
C2942 H2933 0.930 . S
C2942 C2940 1.384 . S
C2942 C2943 1.372 . S
C2943 C2942 1.372 . S
C2943 C2944 1.400 . S
C2943 C2948 1.490 . S
C2944 H2934 0.930 . S
C2944 C2943 1.400 . S
C2944 C2947 1.386 . S
H2945 C2961 0.930 . S
H2946 C2962 0.931 . S
C2947 H2935 0.929 . S
C2947 C2941 1.390 . S
C2947 C2944 1.386 . S
C2948 C2943 1.490 . S
C2948 C2950 1.395 . S
C2948 C2951 1.387 1_556 S
H2949 C2955 0.930 . S
C2950 H2936 0.930 . S
C2950 C2948 1.395 . S
C2950 C2953 1.475 . S
C2951 C2948 1.387 1_554 S
C2951 C2952 1.526 . S
C2951 C2955 1.414 . S
C2952 H2937 0.960 . S
C2952 H2938 0.960 . S
C2952 H2939 0.960 1_554 S
C2952 C2951 1.526 . S
C2953 C2950 1.475 . S
C2953 C2954 1.318 1_556 S
C2953 C2957 1.506 . S
C2954 C2953 1.318 1_554 S
C2954 C2955 1.385 . S
C2954 C2956 1.478 . S
C2955 H2949 0.930 . S
C2955 C2951 1.414 . S
C2955 C2954 1.385 . S
C2956 C2954 1.478 . S
C2956 C2958 1.381 . S
C2956 C2962 1.383 . S
C2957 C2953 1.506 . S
C2957 H2963 0.959 . S
C2957 H2964 0.961 . S
C2957 H2965 0.960 1_556 S
C2958 C2956 1.381 . S
C2958 C2959 1.394 . S
C2958 H2966 0.930 . S
C2959 C2958 1.394 . S
C2959 C2960 1.383 . S
C2959 H2967 0.929 . S
C2960 C2959 1.383 . S
C2960 C2961 1.377 . S
C2961 H2945 0.930 . S
C2961 C2960 1.377 . S
C2961 C2962 1.379 . S
C2962 H2946 0.931 . S
C2962 C2956 1.383 . S
C2962 C2961 1.379 . S
H2963 C2957 0.959 . S
H2964 C2957 0.961 . S
H2965 C2957 0.960 1_554 S
H2966 C2958 0.930 . S
H2967 C2959 0.929 . S
H2968 C2976 0.929 . S
H2969 C2978 0.930 . S
H2970 C2980 0.930 . S
H2971 C2983 0.929 . S
H2972 C2986 0.930 . S
H2973 C2988 0.960 . S
H2974 C2988 0.960 . S
H2975 C2988 0.960 . S
C2976 H2968 0.929 . S
C2976 C2977 1.377 . S
C2976 C2978 1.384 . S
C2977 C2976 1.377 . S
C2977 C2983 1.390 . S
C2978 H2969 0.930 . S
C2978 C2976 1.384 . S
C2978 C2979 1.372 . S
C2979 C2978 1.372 . S
C2979 C2980 1.400 . S
C2979 C2984 1.490 . S
C2980 H2970 0.930 . S
C2980 C2979 1.400 . S
C2980 C2983 1.386 . S
H2981 C2997 0.930 . S
H2982 C2998 0.931 . S
C2983 H2971 0.929 . S
C2983 C2977 1.390 . S
C2983 C2980 1.386 . S
C2984 C2979 1.490 . S
C2984 C2986 1.395 . S
C2984 C2987 1.403 . S
H2985 C2991 0.930 . S
C2986 H2972 0.930 . S
C2986 C2984 1.395 . S
C2986 C2989 1.403 . S
C2987 C2984 1.403 . S
C2987 C2988 1.524 . S
C2987 C2991 1.400 . S
C2988 H2973 0.960 . S
C2988 H2974 0.960 . S
C2988 H2975 0.960 . S
C2988 C2987 1.524 . S
C2989 C2986 1.403 . S
C2989 C2990 1.392 . S
C2989 C2993 1.495 . S
C2990 C2989 1.392 . S
C2990 C2991 1.385 . S
C2990 C2992 1.478 . S
C2991 H2985 0.930 . S
C2991 C2987 1.400 . S
C2991 C2990 1.385 . S
C2992 C2990 1.478 . S
C2992 C2994 1.381 . S
C2992 C2998 1.383 . S
C2993 C2989 1.495 . S
C2993 H2999 0.959 . S
C2993 H3000 0.961 . S
C2993 H3001 0.960 . S
C2994 C2992 1.381 . S
C2994 C2995 1.394 . S
C2994 H3002 0.930 . S
C2995 C2994 1.394 . S
C2995 C2996 1.383 . S
C2995 H3003 0.929 . S
C2996 C2995 1.383 . S
C2996 C2997 1.377 . S
C2997 H2981 0.930 . S
C2997 C2996 1.377 . S
C2997 C2998 1.379 . S
C2998 H2982 0.931 . S
C2998 C2992 1.383 . S
C2998 C2997 1.379 . S
H2999 C2993 0.959 . S
H3000 C2993 0.961 . S
H3001 C2993 0.960 . S
H3002 C2994 0.930 . S
H3003 C2995 0.929 . S
H3004 C3012 0.929 . S
H3005 C3014 0.930 . S
H3006 C3016 0.930 . S
H3007 C3019 0.929 . S
H3008 C3022 0.930 . S
H3009 C3024 0.960 . S
H3010 C3024 0.960 . S
H3011 C3024 0.960 . S
C3012 H3004 0.929 . S
C3012 C3013 1.377 . S
C3012 C3014 1.384 . S
C3013 C3012 1.377 . S
C3013 C3019 1.390 . S
C3014 H3005 0.930 . S
C3014 C3012 1.384 . S
C3014 C3015 1.372 . S
C3015 C3014 1.372 . S
C3015 C3016 1.400 . S
C3015 C3020 1.490 . S
C3016 H3006 0.930 . S
C3016 C3015 1.400 . S
C3016 C3019 1.386 . S
H3017 C3033 0.930 . S
H3018 C3034 0.931 . S
C3019 H3007 0.929 . S
C3019 C3013 1.390 . S
C3019 C3016 1.386 . S
C3020 C3015 1.490 . S
C3020 C3022 1.395 . S
C3020 C3023 1.403 . S
H3021 C3027 0.930 . S
C3022 H3008 0.930 . S
C3022 C3020 1.395 . S
C3022 C3025 1.403 . S
C3023 C3020 1.403 . S
C3023 C3024 1.524 . S
C3023 C3027 1.400 . S
C3024 H3009 0.960 . S
C3024 H3010 0.960 . S
C3024 H3011 0.960 . S
C3024 C3023 1.524 . S
C3025 C3022 1.403 . S
C3025 C3026 1.392 . S
C3025 C3029 1.495 . S
C3026 C3025 1.392 . S
C3026 C3027 1.385 . S
C3026 C3028 1.478 . S
C3027 H3021 0.930 . S
C3027 C3023 1.400 . S
C3027 C3026 1.385 . S
C3028 C3026 1.478 . S
C3028 C3030 1.381 . S
C3028 C3034 1.383 . S
C3029 C3025 1.495 . S
C3029 H3035 0.959 . S
C3029 H3036 0.961 . S
C3029 H3037 0.960 . S
C3030 C3028 1.381 . S
C3030 C3031 1.394 . S
C3030 H3038 0.930 . S
C3031 C3030 1.394 . S
C3031 C3032 1.383 . S
C3031 H3039 0.929 . S
C3032 C3031 1.383 . S
C3032 C3033 1.377 . S
C3033 H3017 0.930 . S
C3033 C3032 1.377 . S
C3033 C3034 1.379 . S
C3034 H3018 0.931 . S
C3034 C3028 1.383 . S
C3034 C3033 1.379 . S
H3035 C3029 0.959 . S
H3036 C3029 0.961 . S
H3037 C3029 0.960 . S
H3038 C3030 0.930 . S
H3039 C3031 0.929 . S
C745 N633 1.406 . S
C764 C7 1.423 . S
C781 C30 1.416 . S
C800 N196 1.389 . S
C817 N587 1.407 . S
C836 C53 1.423 . S
C853 C76 1.417 . S
C872 N242 1.420 . S
C889 C99 1.418 . S
C908 N679 1.419 . S
C925 C122 1.415 . S
C944 N334 1.405 . S
C961 C145 1.419 . S
C980 N725 1.412 . S
C997 C168 1.415 . S
C1016 N288 1.395 . S
C1033 N449 1.410 . S
C1052 C191 1.424 . S
C1069 N12 1.408 . S
C1088 C214 1.407 . S
C1105 N403 1.404 . S
C1124 C237 1.405 . S
C1141 C260 1.419 . S
C1160 N58 1.414 . S
C1177 N495 1.410 . S
C1196 C283 1.424 . S
C1213 N150 1.407 . S
C1232 C306 1.420 . S
C1249 C329 1.418 . S
C1268 N541 1.400 . S
C1285 N104 1.405 . S
C1304 C352 1.410 . S
C1321 C375 1.419 . S
C1340 N265 1.398 . S
C1357 C398 1.416 . S
C1376 N564 1.389 . S
C1393 N219 1.411 . S
C1412 C421 1.414 . S
C1429 N610 1.409 . S
C1448 C444 1.424 . S
C1465 N311 1.411 . S
C1484 C467 1.413 . S
C1501 N702 1.408 . S
C1520 C490 1.403 . S
C1537 N357 1.409 . S
C1556 C513 1.424 . S
C1573 C536 1.417 . S
C1592 N656 1.421 . S
C1609 N81 1.408 . S
C1628 C559 1.407 . S
C1645 C582 1.418 . S
C1664 N380 1.419 . S
C1681 C605 1.418 . S
C1700 N35 1.420 . S
C1717 C628 1.417 . S
C1736 N426 1.416 . S
C1753 C651 1.415 . S
C1772 N127 1.398 . S
C1789 C674 1.417 . S
C1808 N518 1.417 . S
C1825 C697 1.418 . S
C1844 N173 1.404 . S
C1861 C720 1.417 . S
C1880 N472 1.393 . S
C1897 N554 1.406 . S
C1916 N2 1.386 . S
C1933 N25 1.403 . S
C1952 N209 1.438 . S
C1969 N600 1.404 . S
C1988 N48 1.438 . S
C2005 N71 1.392 . S
C2024 N255 1.362 . S
C2041 N646 1.398 . S
C2060 N94 1.357 . S
C2077 N117 1.391 . S
C2096 N301 1.375 . S
C2113 N692 1.402 . S
C2132 N140 1.365 . S
C2149 N163 1.392 . S
C2168 N347 1.365 . S
C2185 N186 1.392 . S
C2204 N370 1.364 . S
C2221 N232 1.401 . S
C2240 N416 1.436 . S
C2257 N278 1.395 . S
C2276 N462 1.418 . S
C2293 N324 1.400 . S
C2312 N508 1.433 . S
C2329 N393 1.405 . S
C2348 N577 1.438 . S
C2365 N623 1.397 . S
C2384 N439 1.356 . S
C2401 N669 1.391 . S
C2420 N485 1.388 . S
C2437 N531 1.405 . S
C2456 N715 1.438 . S
C2473 C16 2.239 . S
C2492 C108 2.233 . S
C2509 C39 2.238 . S
C2528 C131 2.234 . S
C2545 C154 2.238 . S
C2564 C62 2.233 . S
C2581 C85 2.238 . S
C2600 C177 2.235 . S
C2617 C292 2.238 . S
C2636 C200 2.232 . S
C2653 C315 2.238 . S
C2672 C223 2.233 . S
C2689 C246 2.238 . S
C2708 C338 2.233 . S
C2725 C269 2.238 . S
C2744 C361 2.236 . S
C2761 C476 2.238 . S
C2780 C384 2.234 . S
C2797 C499 2.238 . S
C2816 C407 2.233 . S
C2833 C430 2.238 . S
C2852 C522 2.235 . S
C2869 C545 2.238 . S
C2888 C453 2.234 . S
C2905 C660 2.238 . S
C2924 C568 2.232 . S
C2941 C591 2.239 . S
C2960 C683 2.236 . S
C2977 C706 2.239 . S
C2996 C614 2.235 . S
C3013 C637 2.238 . S
C3032 C729 2.234 . S
