# Generated by pormake.
# Topology cag, (4)-cn, num edge types: 1
# Building blocks:
#     Node 0, Type 0, BuildingBlock: QUQFOY_clean_sbu_1, # of connection points: 4
#     Node 1, Type 0, BuildingBlock: QUQFOY_clean_sbu_1, # of connection points: 4
#     Node 2, Type 0, BuildingBlock: QUQFOY_clean_sbu_1, # of connection points: 4
#     Node 3, Type 0, BuildingBlock: QUQFOY_clean_sbu_1, # of connection points: 4
#     Node 4, Type 0, BuildingBlock: QUQFOY_clean_sbu_1, # of connection points: 4
#     Node 5, Type 0, BuildingBlock: QUQFOY_clean_sbu_1, # of connection points: 4
#     Node 6, Type 0, BuildingBlock: QUQFOY_clean_sbu_1, # of connection points: 4
#     Node 7, Type 0, BuildingBlock: QUQFOY_clean_sbu_1, # of connection points: 4
#     Node 8, Type 0, BuildingBlock: QUQFOY_clean_sbu_1, # of connection points: 4
#     Node 9, Type 0, BuildingBlock: QUQFOY_clean_sbu_1, # of connection points: 4
#     Node 10, Type 0, BuildingBlock: QUQFOY_clean_sbu_1, # of connection points: 4
#     Node 11, Type 0, BuildingBlock: QUQFOY_clean_sbu_1, # of connection points: 4
#     Node 12, Type 0, BuildingBlock: QUQFOY_clean_sbu_1, # of connection points: 4
#     Node 13, Type 0, BuildingBlock: QUQFOY_clean_sbu_1, # of connection points: 4
#     Node 14, Type 0, BuildingBlock: QUQFOY_clean_sbu_1, # of connection points: 4
#     Node 15, Type 0, BuildingBlock: QUQFOY_clean_sbu_1, # of connection points: 4
#     Edge 16, Type (0, 0), BuildingBlock: EZIPEK_clean_linker_0, # of connection points: 2
#     Edge 17, Type (0, 0), BuildingBlock: EZIPEK_clean_linker_0, # of connection points: 2
#     Edge 18, Type (0, 0), BuildingBlock: EZIPEK_clean_linker_0, # of connection points: 2
#     Edge 19, Type (0, 0), BuildingBlock: EZIPEK_clean_linker_0, # of connection points: 2
#     Edge 20, Type (0, 0), BuildingBlock: EZIPEK_clean_linker_0, # of connection points: 2
#     Edge 21, Type (0, 0), BuildingBlock: EZIPEK_clean_linker_0, # of connection points: 2
#     Edge 22, Type (0, 0), BuildingBlock: EZIPEK_clean_linker_0, # of connection points: 2
#     Edge 23, Type (0, 0), BuildingBlock: EZIPEK_clean_linker_0, # of connection points: 2
#     Edge 24, Type (0, 0), BuildingBlock: EZIPEK_clean_linker_0, # of connection points: 2
#     Edge 25, Type (0, 0), BuildingBlock: EZIPEK_clean_linker_0, # of connection points: 2
#     Edge 26, Type (0, 0), BuildingBlock: EZIPEK_clean_linker_0, # of connection points: 2
#     Edge 27, Type (0, 0), BuildingBlock: EZIPEK_clean_linker_0, # of connection points: 2
#     Edge 28, Type (0, 0), BuildingBlock: EZIPEK_clean_linker_0, # of connection points: 2
#     Edge 29, Type (0, 0), BuildingBlock: EZIPEK_clean_linker_0, # of connection points: 2
#     Edge 30, Type (0, 0), BuildingBlock: EZIPEK_clean_linker_0, # of connection points: 2
#     Edge 31, Type (0, 0), BuildingBlock: EZIPEK_clean_linker_0, # of connection points: 2
#     Edge 32, Type (0, 0), BuildingBlock: EZIPEK_clean_linker_0, # of connection points: 2
#     Edge 33, Type (0, 0), BuildingBlock: EZIPEK_clean_linker_0, # of connection points: 2
#     Edge 34, Type (0, 0), BuildingBlock: EZIPEK_clean_linker_0, # of connection points: 2
#     Edge 35, Type (0, 0), BuildingBlock: EZIPEK_clean_linker_0, # of connection points: 2
#     Edge 36, Type (0, 0), BuildingBlock: EZIPEK_clean_linker_0, # of connection points: 2
#     Edge 37, Type (0, 0), BuildingBlock: EZIPEK_clean_linker_0, # of connection points: 2
#     Edge 38, Type (0, 0), BuildingBlock: EZIPEK_clean_linker_0, # of connection points: 2
#     Edge 39, Type (0, 0), BuildingBlock: EZIPEK_clean_linker_0, # of connection points: 2
#     Edge 40, Type (0, 0), BuildingBlock: EZIPEK_clean_linker_0, # of connection points: 2
#     Edge 41, Type (0, 0), BuildingBlock: EZIPEK_clean_linker_0, # of connection points: 2
#     Edge 42, Type (0, 0), BuildingBlock: EZIPEK_clean_linker_0, # of connection points: 2
#     Edge 43, Type (0, 0), BuildingBlock: EZIPEK_clean_linker_0, # of connection points: 2
#     Edge 44, Type (0, 0), BuildingBlock: EZIPEK_clean_linker_0, # of connection points: 2
#     Edge 45, Type (0, 0), BuildingBlock: EZIPEK_clean_linker_0, # of connection points: 2
#     Edge 46, Type (0, 0), BuildingBlock: EZIPEK_clean_linker_0, # of connection points: 2
#     Edge 47, Type (0, 0), BuildingBlock: EZIPEK_clean_linker_0, # of connection points: 2
# Relax obj value: 0.133
# Max RMSD: 0.198
# Mean RMSD: 0.175
data_MOF--net-cag--node1-QUQFOY_clean_sbu_1--edge1-EZIPEK_clean_linker_0
_symmetry_space_group_name_H-M    P1
_symmetry_Int_Tables_number       1
_symmetry_cell_setting            triclinic
loop_
_symmetry_equiv_pos_as_xyz
'x, y, z'
_cell_length_a     30.93191
_cell_length_b     41.909986
_cell_length_c     31.415376
_cell_angle_alpha  90.032748
_cell_angle_beta   90.012686
_cell_angle_gamma 90.013309
loop_
_atom_site_label
_atom_site_type_symbol
_atom_site_fract_x
_atom_site_fract_y
_atom_site_fract_z
_atom_type_partial_charge
O0 O 0.29158 0.16523 0.13994 0.0
Cd1 Cd 0.30931 0.16768 0.07684 0.0
Cd2 Cd 0.3059 0.10041 0.08881 0.0
O3 O 0.27156 0.11455 0.1413 0.0
O4 O 0.30668 0.21421 0.06507 0.0
O5 O 0.26398 0.17893 0.03339 0.0
C6 C 0.27568 0.20822 0.03898 0.0
C7 C 0.28812 0.05309 0.05412 0.0
C8 C 0.27396 0.1418 0.15871 0.0
C9 C 0.39157 0.13117 0.07151 0.0
O10 O 0.37171 0.10783 0.08822 0.0
O11 O 0.37146 0.15612 0.06011 0.0
O12 O 0.30253 0.05316 0.09254 0.0
O13 O 0.28067 0.08023 0.03609 0.0
O14 O 0.2006 0.84511 0.63889 0.0
Cd15 Cd 0.18037 0.84347 0.57648 0.0
Cd16 Cd 0.17894 0.91048 0.59071 0.0
O17 O 0.21187 0.89711 0.64433 0.0
O18 O 0.18476 0.79728 0.56311 0.0
O19 O 0.2235 0.83423 0.53005 0.0
C20 C 0.21352 0.80457 0.53524 0.0
C21 C 0.19715 0.95753 0.55575 0.0
C22 C 0.21404 0.86914 0.6596 0.0
C23 C 0.09509 0.87703 0.57386 0.0
O24 O 0.11356 0.90164 0.58882 0.0
O25 O 0.11663 0.8525 0.56344 0.0
O26 O 0.18127 0.95777 0.59361 0.0
O27 O 0.20546 0.93025 0.53842 0.0
O28 O 0.28857 0.83874 0.85016 0.0
Cd29 Cd 0.30986 0.83393 0.912 0.0
Cd30 Cd 0.31051 0.89947 0.90589 0.0
O31 O 0.27829 0.89097 0.85013 0.0
O32 O 0.30181 0.78781 0.92352 0.0
O33 O 0.26718 0.82579 0.95907 0.0
C34 C 0.27457 0.79586 0.95253 0.0
C35 C 0.28805 0.9395 0.95174 0.0
C36 C 0.27579 0.86403 0.83186 0.0
C37 C 0.39541 0.86629 0.91728 0.0
O38 O 0.37625 0.89176 0.9063 0.0
O39 O 0.37423 0.84095 0.92455 0.0
O40 O 0.30599 0.94608 0.91584 0.0
O41 O 0.28073 0.90997 0.96108 0.0
O42 O 0.1924 0.16907 0.3471 0.0
Cd43 Cd 0.17132 0.17324 0.40911 0.0
Cd44 Cd 0.1782 0.10831 0.40354 0.0
O45 O 0.21242 0.11844 0.34947 0.0
O46 O 0.17471 0.21976 0.42055 0.0
O47 O 0.21423 0.1839 0.455 0.0
C48 C 0.20376 0.21334 0.44859 0.0
C49 C 0.201 0.06995 0.4516 0.0
C50 C 0.21043 0.14499 0.33021 0.0
C51 C 0.08987 0.13599 0.41296 0.0
O52 O 0.11192 0.11226 0.40039 0.0
O53 O 0.10816 0.16212 0.42252 0.0
O54 O 0.18648 0.06215 0.41462 0.0
O55 O 0.20536 0.09987 0.4606 0.0
O56 O 0.68983 0.80897 0.92479 0.0
Cd57 Cd 0.6681 0.84878 0.89255 0.0
Cd58 Cd 0.66549 0.8717 0.97285 0.0
O59 O 0.70183 0.83203 0.98696 0.0
O60 O 0.67364 0.83569 0.8322 0.0
O61 O 0.71193 0.875 0.86022 0.0
C62 C 0.70294 0.85723 0.82781 0.0
C63 C 0.68377 0.92373 0.98978 0.0
C64 C 0.70436 0.80791 0.96257 0.0
C65 C 0.5816 0.86321 0.92957 0.0
O66 O 0.60005 0.86519 0.96556 0.0
O67 O 0.60357 0.86001 0.89575 0.0
O68 O 0.67258 0.90373 0.019 0.0
O69 O 0.68831 0.91335 0.95125 0.0
O70 O 0.79383 0.18232 0.42058 0.0
Cd71 Cd 0.81656 0.14341 0.38698 0.0
Cd72 Cd 0.82031 0.11918 0.46704 0.0
O73 O 0.78378 0.15833 0.48244 0.0
O74 O 0.81129 0.15765 0.32705 0.0
O75 O 0.77341 0.1175 0.35317 0.0
C76 C 0.78241 0.13595 0.32149 0.0
C77 C 0.80246 0.06744 0.48586 0.0
C78 C 0.7801 0.18266 0.45868 0.0
C79 C 0.90371 0.12983 0.42337 0.0
O80 O 0.88551 0.1265 0.45928 0.0
O81 O 0.88149 0.13341 0.38977 0.0
O82 O 0.81482 0.08787 0.51409 0.0
O83 O 0.79713 0.07709 0.44711 0.0
O84 O 0.68884 0.17702 0.05462 0.0
Cd85 Cd 0.66438 0.13992 0.09072 0.0
Cd86 Cd 0.66125 0.11297 0.01374 0.0
O87 O 0.69749 0.15117 0.99383 0.0
O88 O 0.66938 0.15621 0.14981 0.0
O89 O 0.70638 0.11463 0.1266 0.0
C90 C 0.69752 0.13427 0.15704 0.0
C91 C 0.68267 0.06031 0.01187 0.0
C92 C 0.70205 0.17613 0.01634 0.0
C93 C 0.57719 0.12518 0.05442 0.0
O94 O 0.59575 0.1201 0.01907 0.0
O95 O 0.5992 0.1305 0.08777 0.0
O96 O 0.66969 0.07456 0.97774 0.0
O97 O 0.68646 0.07668 0.0466 0.0
O98 O 0.80411 0.81544 0.56505 0.0
Cd99 Cd 0.82458 0.85481 0.59935 0.0
Cd100 Cd 0.82354 0.87979 0.52189 0.0
O101 O 0.7887 0.84017 0.50483 0.0
O102 O 0.82104 0.83991 0.65912 0.0
O103 O 0.78005 0.87872 0.6338 0.0
C104 C 0.79067 0.8604 0.66513 0.0
C105 C 0.80089 0.93198 0.51696 0.0
C106 C 0.78834 0.81518 0.52771 0.0
C107 C 0.90916 0.8727 0.56101 0.0
O108 O 0.88946 0.87461 0.5257 0.0
O109 O 0.88833 0.86833 0.5953 0.0
O110 O 0.81323 0.91653 0.48353 0.0
O111 O 0.79791 0.91689 0.55276 0.0
O112 O 0.79299 0.65258 0.13868 0.0
Cd113 Cd 0.8134 0.65603 0.07633 0.0
Cd114 Cd 0.81167 0.59057 0.08549 0.0
O115 O 0.77996 0.6007 0.14094 0.0
O116 O 0.80852 0.70249 0.06488 0.0
O117 O 0.77008 0.66601 0.03041 0.0
C118 C 0.77976 0.6956 0.03678 0.0
C119 C 0.78756 0.55128 0.0396 0.0
C120 C 0.77885 0.62812 0.15801 0.0
C121 C 0.89744 0.62124 0.07144 0.0
O122 O 0.87761 0.59672 0.08477 0.0
O123 O 0.87703 0.64663 0.0625 0.0
O124 O 0.80489 0.54415 0.07564 0.0
O125 O 0.78141 0.58099 0.03042 0.0
O126 O 0.68168 0.3348 0.64095 0.0
Cd127 Cd 0.66689 0.33042 0.5773 0.0
Cd128 Cd 0.67924 0.39459 0.58199 0.0
O129 O 0.719 0.37858 0.63005 0.0
O130 O 0.67166 0.28441 0.56385 0.0
O131 O 0.71357 0.32162 0.53477 0.0
C132 C 0.70265 0.29198 0.5384 0.0
C133 C 0.69771 0.44167 0.5472 0.0
C134 C 0.70844 0.35552 0.65405 0.0
C135 C 0.5894 0.36893 0.57134 0.0
O136 O 0.61255 0.39085 0.58749 0.0
O137 O 0.60636 0.34312 0.55874 0.0
O138 O 0.68691 0.44152 0.58673 0.0
O139 O 0.70095 0.41463 0.52773 0.0
O140 O 0.80108 0.33316 0.83913 0.0
Cd141 Cd 0.81535 0.32688 0.90264 0.0
Cd142 Cd 0.80236 0.39156 0.9002 0.0
O143 O 0.76218 0.37582 0.85229 0.0
O144 O 0.8121 0.28028 0.91312 0.0
O145 O 0.76836 0.31554 0.9438 0.0
C146 C 0.78041 0.28629 0.93848 0.0
C147 C 0.78476 0.4384 0.93604 0.0
C148 C 0.77356 0.35369 0.82711 0.0
C149 C 0.89212 0.36614 0.91067 0.0
O150 O 0.86899 0.38792 0.89423 0.0
O151 O 0.87519 0.34022 0.92297 0.0
O152 O 0.79472 0.43856 0.89629 0.0
O153 O 0.78152 0.4112 0.95505 0.0
O154 O 0.70333 0.65851 0.3479 0.0
Cd155 Cd 0.68097 0.6646 0.40922 0.0
Cd156 Cd 0.67897 0.598 0.4039 0.0
O157 O 0.7109 0.606 0.34794 0.0
O158 O 0.68894 0.71101 0.4189 0.0
O159 O 0.72262 0.67392 0.45683 0.0
C160 C 0.71541 0.70368 0.44892 0.0
C161 C 0.70029 0.55678 0.44829 0.0
C162 C 0.71495 0.63284 0.32973 0.0
C163 C 0.5949 0.63257 0.41548 0.0
O164 O 0.61357 0.60671 0.40537 0.0
O165 O 0.61644 0.65795 0.42145 0.0
O166 O 0.68159 0.55118 0.41246 0.0
O167 O 0.70906 0.58597 0.45835 0.0
O168 O 0.18915 0.32274 0.92777 0.0
Cd169 Cd 0.16603 0.3613 0.89362 0.0
Cd170 Cd 0.15968 0.38481 0.97296 0.0
O171 O 0.19183 0.34438 0.99198 0.0
O172 O 0.17201 0.34644 0.83401 0.0
O173 O 0.20899 0.38723 0.85961 0.0
C174 C 0.20041 0.36842 0.82819 0.0
C175 C 0.18802 0.43577 0.97589 0.0
C176 C 0.19871 0.32104 0.96704 0.0
C177 C 0.07738 0.37618 0.9271 0.0
O178 O 0.09426 0.38078 0.96338 0.0
O179 O 0.10083 0.37076 0.89477 0.0
O180 O 0.17062 0.42289 0.00913 0.0
O181 O 0.19148 0.41881 0.94165 0.0
O182 O 0.3001 0.68966 0.4224 0.0
Cd183 Cd 0.32229 0.64907 0.39209 0.0
Cd184 Cd 0.32497 0.62837 0.47336 0.0
O185 O 0.28988 0.66879 0.48621 0.0
O186 O 0.31769 0.66104 0.3313 0.0
O187 O 0.27903 0.62219 0.35985 0.0
C188 C 0.28851 0.63939 0.32707 0.0
C189 C 0.30447 0.57698 0.49096 0.0
C190 C 0.28662 0.69198 0.46043 0.0
C191 C 0.40891 0.63544 0.43003 0.0
O192 O 0.39051 0.63397 0.46607 0.0
O193 O 0.3869 0.6382 0.39616 0.0
O194 O 0.31647 0.59698 0.51993 0.0
O195 O 0.30067 0.58705 0.45222 0.0
O196 O 0.18858 0.68149 0.0666 0.0
Cd197 Cd 0.16869 0.64077 0.09796 0.0
Cd198 Cd 0.16894 0.61795 0.01734 0.0
O199 O 0.19883 0.66033 0.00296 0.0
O200 O 0.17135 0.65461 0.15817 0.0
O201 O 0.21329 0.61661 0.13221 0.0
C202 C 0.20213 0.63444 0.16387 0.0
C203 C 0.20066 0.56915 -0.00139 0.0
C204 C 0.20116 0.68389 0.02828 0.0
C205 C 0.08372 0.62205 0.05974 0.0
O206 O 0.10289 0.61908 0.02426 0.0
O207 O 0.10486 0.62777 0.09351 0.0
O208 O 0.18146 0.58703 0.97105 0.0
O209 O 0.20155 0.57941 0.03742 0.0
O210 O 0.29316 0.32532 0.56282 0.0
Cd211 Cd 0.31694 0.36368 0.59706 0.0
Cd212 Cd 0.3196 0.38815 0.51891 0.0
O213 O 0.28345 0.34937 0.50091 0.0
O214 O 0.31319 0.34831 0.65659 0.0
O215 O 0.27457 0.38884 0.63268 0.0
C216 C 0.28439 0.36982 0.66351 0.0
C217 C 0.29885 0.44083 0.51596 0.0
C218 C 0.27954 0.32502 0.52467 0.0
C219 C 0.40373 0.3779 0.55983 0.0
O220 O 0.38507 0.38121 0.52417 0.0
O221 O 0.38185 0.37398 0.59357 0.0
O222 O 0.31112 0.42599 0.48201 0.0
O223 O 0.29489 0.42495 0.55105 0.0
C224 C 0.21233 0.24487 0.0312 0.0
C225 C 0.25371 0.23481 0.01712 0.0
C226 C 0.25953 0.28174 0.97102 0.0
C227 C 0.21743 0.29117 0.98381 0.0
N228 N 0.15017 0.27893 0.01905 0.0
N229 N 0.31337 0.23966 0.96836 0.0
C230 C 0.19274 0.27191 0.0119 0.0
C231 C 0.27631 0.25206 0.98536 0.0
N232 N 0.19257 0.2294 0.06421 0.0
N233 N 0.28413 0.30178 0.94665 0.0
H234 H 0.32642 0.21792 0.97821 0.0
H235 H 0.32911 0.24935 0.94209 0.0
H236 H 0.27296 0.32373 0.93552 0.0
H237 H 0.31671 0.29792 0.94013 0.0
H238 H 0.16493 0.23789 0.07936 0.0
H239 H 0.20542 0.20906 0.07857 0.0
H240 H 0.12919 0.26391 0.03547 0.0
H241 H 0.1347 0.29857 0.00549 0.0
C242 C 0.22714 0.73241 0.46435 0.0
C243 C 0.26952 0.72277 0.47573 0.0
C244 C 0.27722 0.76915 0.5226 0.0
C245 C 0.23497 0.77895 0.51098 0.0
N246 N 0.17292 0.77433 0.46515 0.0
N247 N 0.33851 0.73483 0.50765 0.0
C248 C 0.21092 0.76191 0.47999 0.0
C249 C 0.29572 0.74208 0.5024 0.0
N250 N 0.20192 0.71276 0.44 0.0
N251 N 0.2988 0.7848 0.55439 0.0
H252 H 0.35308 0.71503 0.4935 0.0
H253 H 0.36044 0.74977 0.52301 0.0
H254 H 0.28678 0.80523 0.56922 0.0
H255 H 0.32734 0.77649 0.568 0.0
H256 H 0.16916 0.71661 0.43447 0.0
H257 H 0.21311 0.69128 0.42732 0.0
H258 H 0.15567 0.76476 0.43973 0.0
H259 H 0.1604 0.79598 0.47601 0.0
C260 C 0.27239 0.75696 0.0124 0.0
C261 C 0.25185 0.77082 0.97662 0.0
C262 C 0.19375 0.73129 0.98067 0.0
C263 C 0.21743 0.71483 0.0125 0.0
N264 N 0.28047 0.71032 0.0574 0.0
N265 N 0.1944 0.77122 0.92482 0.0
C266 C 0.25684 0.72741 0.0285 0.0
C267 C 0.21268 0.75816 0.96042 0.0
N268 N 0.30665 0.77221 0.03094 0.0
N269 N 0.15268 0.72172 0.97075 0.0
H270 H 0.20634 0.7918 0.9103 0.0
H271 H 0.16892 0.76075 0.90826 0.0
H272 H 0.13763 0.7023 0.98531 0.0
H273 H 0.13206 0.73458 0.95097 0.0
H274 H 0.32056 0.76509 0.05957 0.0
H275 H 0.31887 0.79377 0.01949 0.0
H276 H 0.31167 0.71642 0.06675 0.0
H277 H 0.27019 0.68858 0.06996 0.0
C278 C 0.28631 0.27635 0.47926 0.0
C279 C 0.26105 0.29532 0.5072 0.0
C280 C 0.20183 0.2566 0.50315 0.0
C281 C 0.22519 0.23962 0.47162 0.0
N282 N 0.28774 0.23418 0.42638 0.0
N283 N 0.19408 0.30548 0.54397 0.0
C284 C 0.26709 0.24956 0.45898 0.0
C285 C 0.21867 0.28588 0.51895 0.0
N286 N 0.329 0.28351 0.47303 0.0
N287 N 0.16397 0.24429 0.51852 0.0
H288 H 0.20565 0.32687 0.5566 0.0
H289 H 0.16137 0.30179 0.54993 0.0
H290 H 0.15087 0.22286 0.50751 0.0
H291 H 0.14737 0.25372 0.54443 0.0
H292 H 0.35039 0.26868 0.45682 0.0
H293 H 0.34409 0.30315 0.48705 0.0
H294 H 0.31592 0.24259 0.41216 0.0
H295 H 0.27519 0.21396 0.41144 0.0
C296 C 0.71912 0.73465 0.03196 0.0
C297 C 0.75729 0.72155 0.01416 0.0
C298 C 0.76077 0.76489 0.96199 0.0
C299 C 0.72197 0.77761 0.97916 0.0
N300 N 0.65896 0.77117 0.02361 0.0
N301 N 0.81026 0.71996 0.95813 0.0
C302 C 0.69957 0.76148 0.01219 0.0
C303 C 0.77675 0.73534 0.97774 0.0
N304 N 0.70232 0.72202 0.06854 0.0
N305 N 0.78332 0.7818 0.9321 0.0
H306 H 0.82284 0.69842 0.96928 0.0
H307 H 0.82324 0.727 0.92905 0.0
H308 H 0.77263 0.80352 0.91981 0.0
H309 H 0.81412 0.7756 0.92163 0.0
H310 H 0.67782 0.73285 0.08607 0.0
H311 H 0.71469 0.70153 0.08295 0.0
H312 H 0.63912 0.75841 0.04426 0.0
H313 H 0.64337 0.79055 0.00954 0.0
C314 C 0.72209 0.22437 0.461 0.0
C315 C 0.76201 0.21239 0.47645 0.0
C316 C 0.76469 0.25435 0.53072 0.0
C317 C 0.72535 0.26675 0.51462 0.0
N318 N 0.67064 0.26813 0.46014 0.0
N319 N 0.82616 0.21956 0.51912 0.0
C320 C 0.70532 0.25317 0.47831 0.0
C321 C 0.78478 0.22845 0.50933 0.0
N322 N 0.69932 0.20747 0.43124 0.0
N323 N 0.78201 0.2666 0.56732 0.0
H324 H 0.84212 0.20086 0.50382 0.0
H325 H 0.84609 0.23239 0.53963 0.0
H326 H 0.76899 0.28631 0.58306 0.0
H327 H 0.80762 0.25609 0.5836 0.0
H328 H 0.66786 0.21302 0.42209 0.0
H329 H 0.71064 0.18633 0.41772 0.0
H330 H 0.65714 0.26132 0.43118 0.0
H331 H 0.65752 0.28918 0.47232 0.0
C332 C 0.71907 0.24771 0.94411 0.0
C333 C 0.75845 0.25984 0.96058 0.0
C334 C 0.76179 0.21637 0.01257 0.0
C335 C 0.72138 0.20505 -0.00259 0.0
N336 N 0.65736 0.21295 0.9548 0.0
N337 N 0.81385 0.2597 0.01445 0.0
C338 C 0.6988 0.22156 0.96483 0.0
C339 C 0.77878 0.24535 -0.00393 0.0
N340 N 0.7018 0.26055 0.90788 0.0
N341 N 0.78468 0.19873 0.04145 0.0
H342 H 0.82725 0.28085 0.0029 0.0
H343 H 0.8275 0.25224 0.04305 0.0
H344 H 0.77325 0.17738 0.05427 0.0
H345 H 0.81636 0.20383 0.05033 0.0
H346 H 0.6761 0.25036 0.89134 0.0
H347 H 0.71503 0.28037 0.89258 0.0
H348 H 0.63751 0.22617 0.93468 0.0
H349 H 0.64133 0.19398 0.96937 0.0
C350 C 0.7351 0.76998 0.52833 0.0
C351 C 0.77173 0.78496 0.50982 0.0
C352 C 0.77373 0.74463 0.45338 0.0
C353 C 0.73776 0.72929 0.47239 0.0
N354 N 0.689 0.7231 0.53154 0.0
N355 N 0.83205 0.78281 0.46121 0.0
C356 C 0.7201 0.74056 0.51119 0.0
C357 C 0.79286 0.77121 0.47416 0.0
N358 N 0.71339 0.78468 0.5608 0.0
N359 N 0.78899 0.73418 0.41496 0.0
H360 H 0.84745 0.80196 0.47608 0.0
H361 H 0.85122 0.77178 0.4383 0.0
H362 H 0.77735 0.71371 0.3999 0.0
H363 H 0.81147 0.74673 0.39683 0.0
H364 H 0.68383 0.77679 0.57262 0.0
H365 H 0.72323 0.80633 0.57404 0.0
H366 H 0.67781 0.72824 0.56202 0.0
H367 H 0.67679 0.70177 0.51928 0.0
C368 C 0.24745 0.01467 0.00668 0.0
C369 C 0.2852 0.02266 0.03017 0.0
C370 C 0.31689 0.9709 0.01209 0.0
C371 C 0.28253 0.96519 0.98342 0.0
N372 N 0.21606 0.98206 0.95063 0.0
N373 N 0.36022 0.01113 0.04643 0.0
C374 C 0.24795 0.98719 0.97993 0.0
C375 C 0.32103 0.00141 0.03088 0.0
N376 N 0.21085 0.03261 0.01098 0.0
N377 N 0.34598 0.9473 0.02098 0.0
H378 H 0.36619 0.03414 0.05754 0.0
H379 H 0.38829 0.99756 0.04355 0.0
H380 H 0.34365 0.92447 0.008 0.0
H381 H 0.36945 0.94936 0.04464 0.0
H382 H 0.18123 0.02627 -0.00232 0.0
H383 H 0.20905 0.05235 0.03114 0.0
H384 H 0.19261 0.99898 0.9431 0.0
H385 H 0.21453 0.96135 0.93222 0.0
C386 C 0.23963 0.9954 0.50912 0.0
C387 C 0.20111 0.98778 0.53157 0.0
C388 C 0.17073 0.0397 0.51233 0.0
C389 C 0.2058 0.04494 0.48433 0.0
N390 N 0.27289 0.02732 0.45351 0.0
N391 N 0.12577 0.99987 0.54535 0.0
C392 C 0.24017 0.02265 0.482 0.0
C393 C 0.16558 0.00927 0.53109 0.0
N394 N 0.27595 0.97735 0.51475 0.0
N395 N 0.1418 0.06355 0.52049 0.0
H396 H 0.11909 0.97685 0.55604 0.0
H397 H 0.09802 0.01368 0.54161 0.0
H398 H 0.14461 0.08632 0.50746 0.0
H399 H 0.11782 0.06172 0.54366 0.0
H400 H 0.30599 0.98347 0.50221 0.0
H401 H 0.27703 0.95783 0.53529 0.0
H402 H 0.29626 0.01016 0.44676 0.0
H403 H 0.27526 0.04792 0.43499 0.0
C404 C 0.65066 0.97373 0.01937 0.0
C405 C 0.68633 0.95839 -0.00062 0.0
C406 C 0.72177 0.01035 0.98983 0.0
C407 C 0.68724 0.02518 0.01197 0.0
N408 N 0.62354 0.02035 0.056 0.0
N409 N 0.75955 0.96108 0.97336 0.0
C410 C 0.65349 0.00659 0.02975 0.0
C411 C 0.72304 0.97643 0.98681 0.0
N412 N 0.61261 0.95769 0.02549 0.0
N413 N 0.75301 0.02873 0.97128 0.0
H414 H 0.76186 0.93627 0.97178 0.0
H415 H 0.78874 0.97265 0.96753 0.0
H416 H 0.75428 0.05347 0.97497 0.0
H417 H 0.77622 0.01973 0.95049 0.0
H418 H 0.58409 0.96883 0.03497 0.0
H419 H 0.6078 0.93396 0.01695 0.0
H420 H 0.60134 0.00719 0.07371 0.0
H421 H 0.62306 0.04462 0.06317 0.0
C422 C 0.83508 0.01808 0.51721 0.0
C423 C 0.79942 0.03309 0.4969 0.0
C424 C 0.76235 0.9814 0.49206 0.0
C425 C 0.79677 0.96709 0.51496 0.0
N426 N 0.86101 0.97318 0.55804 0.0
N427 N 0.7256 0.03043 0.47243 0.0
C428 C 0.83128 0.98596 0.53071 0.0
C429 C 0.76195 0.01514 0.4864 0.0
N430 N 0.8739 0.03354 0.5207 0.0
N431 N 0.73038 0.9627 0.47537 0.0
H432 H 0.72394 0.05514 0.46887 0.0
H433 H 0.69601 0.01905 0.46806 0.0
H434 H 0.72851 0.9382 0.48105 0.0
H435 H 0.70714 0.97112 0.45418 0.0
H436 H 0.90219 0.02234 0.53072 0.0
H437 H 0.87942 0.05648 0.50917 0.0
H438 H 0.88398 0.98689 0.574 0.0
H439 H 0.86048 0.94947 0.56794 0.0
C440 C 0.74619 0.47572 0.98634 0.0
C441 C 0.78226 0.46885 0.95993 0.0
C442 C 0.81332 0.52115 0.97661 0.0
C443 C 0.78094 0.52582 0.0078 0.0
N444 N 0.71756 0.50731 0.04474 0.0
N445 N 0.85483 0.48249 0.93719 0.0
C446 C 0.74752 0.50304 0.01331 0.0
C447 C 0.81692 0.49101 0.95658 0.0
N448 N 0.71027 0.45677 0.98466 0.0
N449 N 0.84124 0.5453 0.96661 0.0
H450 H 0.86044 0.46001 0.9242 0.0
H451 H 0.88264 0.49649 0.93821 0.0
H452 H 0.84014 0.56768 0.98103 0.0
H453 H 0.86265 0.54416 0.94105 0.0
H454 H 0.68147 0.46222 0.00019 0.0
H455 H 0.70792 0.43703 0.96456 0.0
H456 H 0.69542 0.48984 0.05373 0.0
H457 H 0.71635 0.52794 0.06334 0.0
C458 C 0.73822 0.47923 0.49869 0.0
C459 C 0.7014 0.47236 0.52409 0.0
C460 C 0.67242 0.52555 0.50925 0.0
C461 C 0.70555 0.53043 0.47894 0.0
N462 N 0.76889 0.51166 0.44217 0.0
N463 N 0.62868 0.48657 0.54565 0.0
C464 C 0.73827 0.50719 0.47293 0.0
C465 C 0.66733 0.49497 0.52763 0.0
N466 N 0.77353 0.45969 0.50023 0.0
N467 N 0.64533 0.55 0.52006 0.0
H468 H 0.622 0.46376 0.55704 0.0
H469 H 0.60141 0.50115 0.54484 0.0
H470 H 0.64809 0.57282 0.50718 0.0
H471 H 0.62317 0.54853 0.54497 0.0
H472 H 0.80279 0.46505 0.4855 0.0
H473 H 0.7749 0.43944 0.51948 0.0
H474 H 0.7906 0.49402 0.43279 0.0
H475 H 0.77102 0.53267 0.42445 0.0
C476 C 0.20222 0.5234 0.94705 0.0
C477 C 0.21458 0.53589 0.98708 0.0
C478 C 0.22721 0.48104 0.01175 0.0
C479 C 0.20204 0.46966 0.97699 0.0
N480 N 0.16241 0.48164 0.91215 0.0
N481 N 0.25275 0.52652 0.05277 0.0
C482 C 0.18931 0.49111 0.94429 0.0
C483 C 0.23162 0.51464 0.01807 0.0
N484 N 0.20408 0.54202 0.91149 0.0
N485 N 0.24801 0.45972 0.03753 0.0
H486 H 0.26376 0.55003 0.05397 0.0
H487 H 0.2603 0.51311 0.07962 0.0
H488 H 0.24703 0.43515 0.03224 0.0
H489 H 0.26926 0.46618 0.06171 0.0
H490 H 0.19793 0.53319 0.88104 0.0
H491 H 0.21804 0.56469 0.91196 0.0
H492 H 0.14942 0.49765 0.89021 0.0
H493 H 0.14927 0.45884 0.90981 0.0
C494 C 0.33491 0.52655 0.52173 0.0
C495 C 0.30015 0.54254 0.50117 0.0
C496 C 0.26215 0.49146 0.49272 0.0
C497 C 0.29577 0.47605 0.51549 0.0
N498 N 0.35932 0.47991 0.55999 0.0
N499 N 0.22698 0.54148 0.47474 0.0
C500 C 0.33029 0.494 0.53306 0.0
C501 C 0.26261 0.52535 0.48882 0.0
N502 N 0.37378 0.54156 0.52746 0.0
N503 N 0.23012 0.47367 0.47442 0.0
H504 H 0.22595 0.5663 0.47248 0.0
H505 H 0.19727 0.53063 0.46901 0.0
H506 H 0.22757 0.44905 0.47877 0.0
H507 H 0.20753 0.48297 0.45322 0.0
H508 H 0.40165 0.52978 0.53744 0.0
H509 H 0.37991 0.56493 0.51804 0.0
H510 H 0.38203 0.4928 0.57747 0.0
H511 H 0.35854 0.4558 0.56795 0.0
C512 C 0.50993 0.15456 0.07422 0.0
C513 C 0.52954 0.12689 0.05678 0.0
C514 C 0.45802 0.10386 0.04365 0.0
C515 C 0.43897 0.12964 0.06623 0.0
N516 N 0.44792 0.17612 0.11099 0.0
N517 N 0.5227 0.07274 0.0312 0.0
C518 C 0.4652 0.15411 0.08372 0.0
C519 C 0.50375 0.10082 0.04309 0.0
N520 N 0.53362 0.18175 0.08024 0.0
N521 N 0.43262 0.083 0.02139 0.0
H522 H 0.55607 0.06936 0.0308 0.0
H523 H 0.50525 0.05191 0.02545 0.0
H524 H 0.39904 0.08497 0.0199 0.0
H525 H 0.44507 0.06568 0.001 0.0
H526 H 0.5198 0.20348 0.0889 0.0
H527 H 0.56623 0.18357 0.07214 0.0
H528 H 0.46669 0.19241 0.12795 0.0
H529 H 0.41554 0.17601 0.12022 0.0
C530 C 0.97976 0.90016 0.54554 0.0
C531 C 0.95686 0.87364 0.56238 0.0
C532 C 0.02414 0.85156 0.59057 0.0
C533 C 0.04755 0.87627 0.57012 0.0
N534 N 0.04864 0.9208 0.52134 0.0
N535 N 0.95857 0.82031 0.59154 0.0
C536 C 0.02568 0.89973 0.54568 0.0
C537 C 0.97942 0.84822 0.5822 0.0
N538 N 0.95782 0.92626 0.53092 0.0
N539 N 0.04411 0.83211 0.61945 0.0
H540 H 0.92608 0.81631 0.5844 0.0
H541 H 0.97461 0.79993 0.60209 0.0
H542 H 0.0766 0.83442 0.6278 0.0
H543 H 0.02737 0.81589 0.63843 0.0
H544 H 0.97291 0.94764 0.52287 0.0
H545 H 0.9242 0.92759 0.53025 0.0
H546 H 0.03428 0.93622 0.49952 0.0
H547 H 0.08233 0.9209 0.51993 0.0
C548 C 0.46679 0.84189 0.89845 0.0
C549 C 0.4431 0.86578 0.92039 0.0
C550 C 0.51084 0.89025 0.94398 0.0
C551 C 0.53398 0.86405 0.9268 0.0
N552 N 0.53296 0.81135 0.89551 0.0
N553 N 0.44244 0.90905 0.97132 0.0
C554 C 0.5117 0.8388 0.90624 0.0
C555 C 0.46505 0.88901 0.94524 0.0
N556 N 0.44698 0.82309 0.86867 0.0
N557 N 0.53237 0.91691 0.95738 0.0
H558 H 0.40894 0.90818 0.97431 0.0
H559 H 0.45724 0.92425 0.99319 0.0
H560 H 0.56585 0.91928 0.95513 0.0
H561 H 0.51673 0.93786 0.96641 0.0
H562 H 0.46389 0.8075 0.84889 0.0
H563 H 0.4145 0.82551 0.86037 0.0
H564 H 0.51712 0.79105 0.88437 0.0
H565 H 0.56567 0.80764 0.90186 0.0
C566 C 0.01669 0.15703 0.3941 0.0
C567 C 0.04221 0.13367 0.41496 0.0
C568 C 0.97648 0.10541 0.43664 0.0
C569 C 0.95132 0.13101 0.42064 0.0
N570 N 0.94818 0.1846 0.39233 0.0
N571 N 0.04635 0.08854 0.46272 0.0
C572 C 0.97158 0.15781 0.40163 0.0
C573 C 0.02214 0.10857 0.43806 0.0
N574 N 0.03511 0.17762 0.36564 0.0
N575 N 0.957 0.07762 0.44891 0.0
H576 H 0.07979 0.09044 0.4654 0.0
H577 H 0.03287 0.07202 0.48365 0.0
H578 H 0.92369 0.07403 0.44704 0.0
H579 H 0.97416 0.05708 0.45684 0.0
H580 H 0.01706 0.19297 0.34652 0.0
H581 H 0.06781 0.17697 0.35761 0.0
H582 H 0.9624 0.20589 0.38246 0.0
H583 H 0.91522 0.18673 0.39871 0.0
C584 C 0.01407 0.64782 0.08034 0.0
C585 C 0.03602 0.62162 0.0616 0.0
C586 C 0.96654 0.59666 0.04475 0.0
C587 C 0.94512 0.62091 0.0683 0.0
N588 N 0.94998 0.66524 0.11739 0.0
N589 N 0.0336 0.56826 0.03262 0.0
C590 C 0.96927 0.6453 0.08864 0.0
C591 C 0.01242 0.59519 0.04557 0.0
N592 N 0.03551 0.67569 0.08861 0.0
N593 N 0.94331 0.57584 0.02028 0.0
H594 H 0.06716 0.56601 0.03351 0.0
H595 H 0.01772 0.54713 0.02482 0.0
H596 H 0.90973 0.57661 0.01794 0.0
H597 H 0.95756 0.55983 -0.00087 0.0
H598 H 0.01982 0.69645 0.09838 0.0
H599 H 0.06803 0.67922 0.08122 0.0
H600 H 0.96733 0.68133 0.1361 0.0
H601 H 0.91756 0.66335 0.12611 0.0
C602 C 0.51569 0.34894 0.58901 0.0
C603 C 0.54198 0.37242 0.56943 0.0
C604 C 0.47729 0.40153 0.54681 0.0
C605 C 0.45134 0.37606 0.56212 0.0
N606 N 0.44667 0.32207 0.58883 0.0
N607 N 0.54836 0.41835 0.52344 0.0
C608 C 0.47074 0.34877 0.58075 0.0
C609 C 0.523 0.39809 0.54666 0.0
N610 N 0.53336 0.32746 0.61677 0.0
N611 N 0.45846 0.42936 0.53377 0.0
H612 H 0.58191 0.41625 0.52183 0.0
H613 H 0.5359 0.43544 0.50274 0.0
H614 H 0.4251 0.43285 0.53354 0.0
H615 H 0.47599 0.44992 0.52673 0.0
H616 H 0.51481 0.31193 0.63515 0.0
H617 H 0.56606 0.32741 0.62492 0.0
H618 H 0.46026 0.30047 0.59835 0.0
H619 H 0.41383 0.32034 0.58165 0.0
C620 C 0.01116 0.34653 0.90466 0.0
C621 C 0.02991 0.37432 0.92274 0.0
C622 C 0.95773 0.39621 0.93577 0.0
C623 C 0.93947 0.36999 0.91347 0.0
N624 N 0.94977 0.32438 0.8675 0.0
N625 N 0.02162 0.42838 0.94808 0.0
C626 C 0.96647 0.34637 0.89516 0.0
C627 C 0.00338 0.40003 0.93621 0.0
N628 N 0.03546 0.31967 0.89844 0.0
N629 N 0.93176 0.41661 0.95811 0.0
H630 H 0.05493 0.43227 0.94807 0.0
H631 H 0.00361 0.44891 0.95403 0.0
H632 H 0.89827 0.41405 0.95967 0.0
H633 H 0.94374 0.43423 0.97833 0.0
H634 H 0.02214 0.29787 0.88934 0.0
H635 H 0.06802 0.31808 0.90679 0.0
H636 H 0.96899 0.30867 0.85008 0.0
H637 H 0.91734 0.32411 0.85838 0.0
C638 C 0.52592 0.61073 0.4459 0.0
C639 C 0.54732 0.63332 0.41962 0.0
C640 C 0.47838 0.65977 0.40549 0.0
C641 C 0.45653 0.63486 0.4272 0.0
N642 N 0.45904 0.58288 0.46025 0.0
N643 N 0.5424 0.67486 0.36642 0.0
C644 C 0.48013 0.60925 0.44532 0.0
C645 C 0.52317 0.65665 0.39715 0.0
N646 N 0.54909 0.59156 0.47266 0.0
N647 N 0.45681 0.68694 0.39416 0.0
H648 H 0.57477 0.67241 0.35778 0.0
H649 H 0.52508 0.68995 0.34631 0.0
H650 H 0.42422 0.69074 0.40101 0.0
H651 H 0.47236 0.70704 0.38205 0.0
H652 H 0.53472 0.5769 0.49541 0.0
H653 H 0.58261 0.59276 0.47528 0.0
H654 H 0.47502 0.56225 0.47001 0.0
H655 H 0.42556 0.58029 0.45868 0.0
C656 C 0.21255 0.1466 0.2096 0.0
C657 C 0.25773 0.14577 0.20239 0.0
C658 C 0.27153 0.15005 0.27892 0.0
C659 C 0.22654 0.14715 0.28629 0.0
N660 N 0.15387 0.14004 0.25998 0.0
N661 N 0.33083 0.14394 0.22914 0.0
C662 C 0.19685 0.14493 0.25199 0.0
C663 C 0.28748 0.14701 0.23675 0.0
N664 N 0.18484 0.14971 0.17592 0.0
N665 N 0.29876 0.15631 0.31221 0.0
H666 H 0.34384 0.14217 0.1986 0.0
H667 H 0.35378 0.14096 0.25306 0.0
H668 H 0.288 0.15839 0.34357 0.0
H669 H 0.3313 0.16199 0.3085 0.0
H670 H 0.15182 0.15378 0.17922 0.0
H671 H 0.19542 0.15091 0.14442 0.0
H672 H 0.13135 0.13451 0.23648 0.0
H673 H 0.14096 0.13937 0.29065 0.0
C674 C 0.21514 0.86999 0.78023 0.0
C675 C 0.25905 0.86239 0.78803 0.0
C676 C 0.27121 0.85375 0.71181 0.0
C677 C 0.22884 0.86502 0.70375 0.0
N678 N 0.16048 0.88541 0.72892 0.0
N679 N 0.33059 0.85017 0.76193 0.0
C680 C 0.20073 0.87354 0.73761 0.0
C681 C 0.28753 0.85476 0.75406 0.0
N682 N 0.187 0.87271 0.81363 0.0
N683 N 0.29575 0.84209 0.6791 0.0
H684 H 0.34391 0.85076 0.79242 0.0
H685 H 0.35382 0.84815 0.73812 0.0
H686 H 0.2853 0.84204 0.64752 0.0
H687 H 0.32503 0.8303 0.68351 0.0
H688 H 0.15369 0.87495 0.81007 0.0
H689 H 0.1965 0.86997 0.84529 0.0
H690 H 0.14051 0.89572 0.75178 0.0
H691 H 0.14772 0.88661 0.69822 0.0
C692 C 0.74144 0.83076 0.76772 0.0
C693 C 0.72722 0.85941 0.78721 0.0
C694 C 0.75883 0.88986 0.72824 0.0
C695 C 0.76711 0.86086 0.70624 0.0
N696 N 0.75387 0.80406 0.70098 0.0
N697 N 0.71524 0.91628 0.78172 0.0
C698 C 0.75479 0.83138 0.72476 0.0
C699 C 0.73394 0.88909 0.76638 0.0
N700 N 0.74396 0.80307 0.79056 0.0
N701 N 0.77603 0.9179 0.71396 0.0
H702 H 0.69568 0.91665 0.80872 0.0
H703 H 0.71569 0.93785 0.76524 0.0
H704 H 0.79563 0.91939 0.68706 0.0
H705 H 0.7744 0.93909 0.73125 0.0
H706 H 0.75769 0.78227 0.77833 0.0
H707 H 0.73741 0.80189 0.8231 0.0
H708 H 0.74149 0.7826 0.71254 0.0
H709 H 0.76028 0.80368 0.66839 0.0
C710 C 0.74603 0.16304 0.26051 0.0
C711 C 0.75888 0.13417 0.28035 0.0
C712 C 0.72689 0.1043 0.22099 0.0
C713 C 0.72038 0.13338 0.19859 0.0
N714 N 0.73689 0.18973 0.19334 0.0
N715 N 0.76918 0.07708 0.27469 0.0
C716 C 0.73382 0.16258 0.21723 0.0
C717 C 0.75145 0.10462 0.25936 0.0
N718 N 0.74368 0.1908 0.28323 0.0
N719 N 0.70831 0.07666 0.20695 0.0
H720 H 0.7888 0.07635 0.30162 0.0
H721 H 0.76803 0.05556 0.25809 0.0
H722 H 0.68856 0.07553 0.18013 0.0
H723 H 0.70884 0.05558 0.22453 0.0
H724 H 0.73106 0.21181 0.2705 0.0
H725 H 0.74903 0.19189 0.31599 0.0
H726 H 0.74995 0.21088 0.20522 0.0
H727 H 0.73171 0.19009 0.16053 0.0
C728 C 0.7755 0.6244 0.27854 0.0
C729 C 0.73223 0.63395 0.28607 0.0
C730 C 0.72176 0.64414 0.20998 0.0
C731 C 0.76334 0.63127 0.20208 0.0
N732 N 0.82938 0.60719 0.22744 0.0
N733 N 0.66202 0.64928 0.25939 0.0
C734 C 0.79013 0.62081 0.23599 0.0
C735 C 0.70481 0.64316 0.25196 0.0
N736 N 0.80298 0.61994 0.31215 0.0
N737 N 0.69852 0.65729 0.17735 0.0
H738 H 0.64819 0.64864 0.28965 0.0
H739 H 0.63931 0.65254 0.23532 0.0
H740 H 0.7091 0.65717 0.14583 0.0
H741 H 0.67025 0.67034 0.18184 0.0
H742 H 0.83607 0.61621 0.30887 0.0
H743 H 0.79339 0.62271 0.34378 0.0
H744 H 0.84805 0.59556 0.25021 0.0
H745 H 0.84241 0.60584 0.19687 0.0
C746 C 0.73679 0.32502 0.71766 0.0
C747 C 0.72491 0.35442 0.6984 0.0
C748 C 0.75213 0.38285 0.76063 0.0
C749 C 0.75714 0.35353 0.78271 0.0
N750 N 0.7435 0.29661 0.78421 0.0
N751 N 0.70872 0.41053 0.70906 0.0
C752 C 0.7464 0.32448 0.76187 0.0
C753 C 0.72882 0.38317 0.72202 0.0
N754 N 0.74076 0.29791 0.69384 0.0
N755 N 0.7712 0.41022 0.77504 0.0
H756 H 0.68769 0.41141 0.68316 0.0
H757 H 0.70849 0.43123 0.72751 0.0
H758 H 0.79223 0.41079 0.80097 0.0
H759 H 0.77064 0.43144 0.75771 0.0
H760 H 0.75295 0.27666 0.70622 0.0
H761 H 0.73684 0.29754 0.66089 0.0
H762 H 0.73213 0.27549 0.77068 0.0
H763 H 0.74745 0.29536 0.81711 0.0
C764 C 0.25463 0.39999 0.7271 0.0
C765 C 0.26177 0.3708 0.70513 0.0
C766 C 0.23733 0.34134 0.76759 0.0
C767 C 0.22384 0.37019 0.78706 0.0
N768 N 0.21206 0.42709 0.7807 0.0
N769 N 0.24683 0.31415 0.7008 0.0
C770 C 0.23037 0.39967 0.76563 0.0
C771 C 0.24928 0.34157 0.72426 0.0
N772 N 0.27232 0.42775 0.71246 0.0
N773 N 0.24049 0.31382 0.79072 0.0
H774 H 0.25184 0.31356 0.66798 0.0
H775 H 0.23443 0.29292 0.71306 0.0
H776 H 0.23528 0.31296 0.82351 0.0
H777 H 0.25359 0.29288 0.77826 0.0
H778 H 0.27137 0.449 0.7297 0.0
H779 H 0.29176 0.42891 0.68543 0.0
H780 H 0.21255 0.44848 0.76381 0.0
H781 H 0.19265 0.42782 0.80778 0.0
C782 C 0.25858 0.60673 0.26579 0.0
C783 C 0.26473 0.63665 0.28626 0.0
C784 C 0.23775 0.66396 0.22307 0.0
C785 C 0.22587 0.63427 0.20487 0.0
N786 N 0.21791 0.5772 0.21287 0.0
N787 N 0.24757 0.69296 0.28851 0.0
C788 C 0.23432 0.60548 0.22725 0.0
C789 C 0.25057 0.66505 0.26614 0.0
N790 N 0.27722 0.57979 0.28192 0.0
N791 N 0.23865 0.69106 0.19888 0.0
H792 H 0.25372 0.69448 0.3211 0.0
H793 H 0.23385 0.71358 0.27579 0.0
H794 H 0.2325 0.69109 0.16623 0.0
H795 H 0.25073 0.71269 0.21021 0.0
H796 H 0.27725 0.55804 0.26581 0.0
H797 H 0.2962 0.57978 0.30933 0.0
H798 H 0.21955 0.55612 0.23036 0.0
H799 H 0.19908 0.57536 0.18547 0.0
loop_
_geom_bond_atom_site_label_1
_geom_bond_atom_site_label_2
_geom_bond_distance
_geom_bond_site_symmetry_2
_ccdc_geom_bond_type
O0 Cd1 2.223 . S
O0 C8 1.315 . S
Cd1 O0 2.223 . S
Cd1 O4 2.297 . S
Cd1 O5 2.439 . S
Cd1 O11 2.240 . S
Cd2 O3 2.240 . S
Cd2 O10 2.223 . S
Cd2 O12 2.297 . S
Cd2 O13 2.439 . S
O3 Cd2 2.240 . S
O3 C8 1.279 . S
O4 Cd1 2.297 . S
O4 C6 1.247 . S
O5 Cd1 2.439 . S
O5 C6 1.208 . S
C6 O4 1.247 . S
C6 O5 1.208 . S
C7 O12 1.247 . S
C7 O13 1.208 . S
C8 O0 1.315 . S
C8 O3 1.279 . S
C9 O10 1.315 . S
C9 O11 1.279 . S
O10 Cd2 2.223 . S
O10 C9 1.315 . S
O11 Cd1 2.240 . S
O11 C9 1.279 . S
O12 Cd2 2.297 . S
O12 C7 1.247 . S
O13 Cd2 2.439 . S
O13 C7 1.208 . S
O14 Cd15 2.223 . S
O14 C22 1.315 . S
Cd15 O14 2.223 . S
Cd15 O18 2.297 . S
Cd15 O19 2.439 . S
Cd15 O25 2.240 . S
Cd16 O17 2.240 . S
Cd16 O24 2.223 . S
Cd16 O26 2.297 . S
Cd16 O27 2.439 . S
O17 Cd16 2.240 . S
O17 C22 1.279 . S
O18 Cd15 2.297 . S
O18 C20 1.247 . S
O19 Cd15 2.439 . S
O19 C20 1.208 . S
C20 O18 1.247 . S
C20 O19 1.208 . S
C21 O26 1.247 . S
C21 O27 1.208 . S
C22 O14 1.315 . S
C22 O17 1.279 . S
C23 O24 1.315 . S
C23 O25 1.279 . S
O24 Cd16 2.223 . S
O24 C23 1.315 . S
O25 Cd15 2.240 . S
O25 C23 1.279 . S
O26 Cd16 2.297 . S
O26 C21 1.247 . S
O27 Cd16 2.439 . S
O27 C21 1.208 . S
O28 Cd29 2.223 . S
O28 C36 1.315 . S
Cd29 O28 2.223 . S
Cd29 O32 2.297 . S
Cd29 O33 2.439 . S
Cd29 O39 2.240 . S
Cd30 O31 2.240 . S
Cd30 O38 2.223 . S
Cd30 O40 2.297 . S
Cd30 O41 2.439 . S
O31 Cd30 2.240 . S
O31 C36 1.279 . S
O32 Cd29 2.297 . S
O32 C34 1.247 . S
O33 Cd29 2.439 . S
O33 C34 1.208 . S
C34 O32 1.247 . S
C34 O33 1.208 . S
C35 O40 1.247 . S
C35 O41 1.208 . S
C36 O28 1.315 . S
C36 O31 1.279 . S
C37 O38 1.315 . S
C37 O39 1.279 . S
O38 Cd30 2.223 . S
O38 C37 1.315 . S
O39 Cd29 2.240 . S
O39 C37 1.279 . S
O40 Cd30 2.297 . S
O40 C35 1.247 . S
O41 Cd30 2.439 . S
O41 C35 1.208 . S
O42 Cd43 2.223 . S
O42 C50 1.315 . S
Cd43 O42 2.223 . S
Cd43 O46 2.297 . S
Cd43 O47 2.439 . S
Cd43 O53 2.240 . S
Cd44 O45 2.240 . S
Cd44 O52 2.223 . S
Cd44 O54 2.297 . S
Cd44 O55 2.439 . S
O45 Cd44 2.240 . S
O45 C50 1.279 . S
O46 Cd43 2.297 . S
O46 C48 1.247 . S
O47 Cd43 2.439 . S
O47 C48 1.208 . S
C48 O46 1.247 . S
C48 O47 1.208 . S
C49 O54 1.247 . S
C49 O55 1.208 . S
C50 O42 1.315 . S
C50 O45 1.279 . S
C51 O52 1.315 . S
C51 O53 1.279 . S
O52 Cd44 2.223 . S
O52 C51 1.315 . S
O53 Cd43 2.240 . S
O53 C51 1.279 . S
O54 Cd44 2.297 . S
O54 C49 1.247 . S
O55 Cd44 2.439 . S
O55 C49 1.208 . S
O56 Cd57 2.223 . S
O56 C64 1.315 . S
Cd57 O56 2.223 . S
Cd57 O60 2.297 . S
Cd57 O61 2.439 . S
Cd57 O67 2.240 . S
Cd58 O59 2.240 . S
Cd58 O66 2.223 . S
Cd58 O68 2.297 . S
Cd58 O69 2.439 . S
O59 Cd58 2.240 . S
O59 C64 1.279 . S
O60 Cd57 2.297 . S
O60 C62 1.247 . S
O61 Cd57 2.439 . S
O61 C62 1.208 . S
C62 O60 1.247 . S
C62 O61 1.208 . S
C63 O68 1.247 . S
C63 O69 1.208 . S
C64 O56 1.315 . S
C64 O59 1.279 . S
C65 O66 1.315 . S
C65 O67 1.279 . S
O66 Cd58 2.223 . S
O66 C65 1.315 . S
O67 Cd57 2.240 . S
O67 C65 1.279 . S
O68 Cd58 2.297 . S
O68 C63 1.247 . S
O69 Cd58 2.439 . S
O69 C63 1.208 . S
O70 Cd71 2.223 . S
O70 C78 1.315 . S
Cd71 O70 2.223 . S
Cd71 O74 2.297 . S
Cd71 O75 2.439 . S
Cd71 O81 2.240 . S
Cd72 O73 2.240 . S
Cd72 O80 2.223 . S
Cd72 O82 2.297 . S
Cd72 O83 2.439 . S
O73 Cd72 2.240 . S
O73 C78 1.279 . S
O74 Cd71 2.297 . S
O74 C76 1.247 . S
O75 Cd71 2.439 . S
O75 C76 1.208 . S
C76 O74 1.247 . S
C76 O75 1.208 . S
C77 O82 1.247 . S
C77 O83 1.208 . S
C78 O70 1.315 . S
C78 O73 1.279 . S
C79 O80 1.315 . S
C79 O81 1.279 . S
O80 Cd72 2.223 . S
O80 C79 1.315 . S
O81 Cd71 2.240 . S
O81 C79 1.279 . S
O82 Cd72 2.297 . S
O82 C77 1.247 . S
O83 Cd72 2.439 . S
O83 C77 1.208 . S
O84 Cd85 2.223 . S
O84 C92 1.315 . S
Cd85 O84 2.223 . S
Cd85 O88 2.297 . S
Cd85 O89 2.439 . S
Cd85 O95 2.240 . S
Cd86 O87 2.240 . S
Cd86 O94 2.223 . S
Cd86 O96 2.297 . S
Cd86 O97 2.439 . S
O87 Cd86 2.240 . S
O87 C92 1.279 . S
O88 Cd85 2.297 . S
O88 C90 1.247 . S
O89 Cd85 2.439 . S
O89 C90 1.208 . S
C90 O88 1.247 . S
C90 O89 1.208 . S
C91 O96 1.247 . S
C91 O97 1.208 . S
C92 O84 1.315 . S
C92 O87 1.279 . S
C93 O94 1.315 . S
C93 O95 1.279 . S
O94 Cd86 2.223 . S
O94 C93 1.315 . S
O95 Cd85 2.240 . S
O95 C93 1.279 . S
O96 Cd86 2.297 . S
O96 C91 1.247 . S
O97 Cd86 2.439 . S
O97 C91 1.208 . S
O98 Cd99 2.223 . S
O98 C106 1.315 . S
Cd99 O98 2.223 . S
Cd99 O102 2.297 . S
Cd99 O103 2.439 . S
Cd99 O109 2.240 . S
Cd100 O101 2.240 . S
Cd100 O108 2.223 . S
Cd100 O110 2.297 . S
Cd100 O111 2.439 . S
O101 Cd100 2.240 . S
O101 C106 1.279 . S
O102 Cd99 2.297 . S
O102 C104 1.247 . S
O103 Cd99 2.439 . S
O103 C104 1.208 . S
C104 O102 1.247 . S
C104 O103 1.208 . S
C105 O110 1.247 . S
C105 O111 1.208 . S
C106 O98 1.315 . S
C106 O101 1.279 . S
C107 O108 1.315 . S
C107 O109 1.279 . S
O108 Cd100 2.223 . S
O108 C107 1.315 . S
O109 Cd99 2.240 . S
O109 C107 1.279 . S
O110 Cd100 2.297 . S
O110 C105 1.247 . S
O111 Cd100 2.439 . S
O111 C105 1.208 . S
O112 Cd113 2.223 . S
O112 C120 1.315 . S
Cd113 O112 2.223 . S
Cd113 O116 2.297 . S
Cd113 O117 2.439 . S
Cd113 O123 2.240 . S
Cd114 O115 2.240 . S
Cd114 O122 2.223 . S
Cd114 O124 2.297 . S
Cd114 O125 2.439 . S
O115 Cd114 2.240 . S
O115 C120 1.279 . S
O116 Cd113 2.297 . S
O116 C118 1.247 . S
O117 Cd113 2.439 . S
O117 C118 1.208 . S
C118 O116 1.247 . S
C118 O117 1.208 . S
C119 O124 1.247 . S
C119 O125 1.208 . S
C120 O112 1.315 . S
C120 O115 1.279 . S
C121 O122 1.315 . S
C121 O123 1.279 . S
O122 Cd114 2.223 . S
O122 C121 1.315 . S
O123 Cd113 2.240 . S
O123 C121 1.279 . S
O124 Cd114 2.297 . S
O124 C119 1.247 . S
O125 Cd114 2.439 . S
O125 C119 1.208 . S
O126 Cd127 2.223 . S
O126 C134 1.315 . S
Cd127 O126 2.223 . S
Cd127 O130 2.297 . S
Cd127 O131 2.439 . S
Cd127 O137 2.240 . S
Cd128 O129 2.240 . S
Cd128 O136 2.223 . S
Cd128 O138 2.297 . S
Cd128 O139 2.439 . S
O129 Cd128 2.240 . S
O129 C134 1.279 . S
O130 Cd127 2.297 . S
O130 C132 1.247 . S
O131 Cd127 2.439 . S
O131 C132 1.208 . S
C132 O130 1.247 . S
C132 O131 1.208 . S
C133 O138 1.247 . S
C133 O139 1.208 . S
C134 O126 1.315 . S
C134 O129 1.279 . S
C135 O136 1.315 . S
C135 O137 1.279 . S
O136 Cd128 2.223 . S
O136 C135 1.315 . S
O137 Cd127 2.240 . S
O137 C135 1.279 . S
O138 Cd128 2.297 . S
O138 C133 1.247 . S
O139 Cd128 2.439 . S
O139 C133 1.208 . S
O140 Cd141 2.223 . S
O140 C148 1.315 . S
Cd141 O140 2.223 . S
Cd141 O144 2.297 . S
Cd141 O145 2.439 . S
Cd141 O151 2.240 . S
Cd142 O143 2.240 . S
Cd142 O150 2.223 . S
Cd142 O152 2.297 . S
Cd142 O153 2.439 . S
O143 Cd142 2.240 . S
O143 C148 1.279 . S
O144 Cd141 2.297 . S
O144 C146 1.247 . S
O145 Cd141 2.439 . S
O145 C146 1.208 . S
C146 O144 1.247 . S
C146 O145 1.208 . S
C147 O152 1.247 . S
C147 O153 1.208 . S
C148 O140 1.315 . S
C148 O143 1.279 . S
C149 O150 1.315 . S
C149 O151 1.279 . S
O150 Cd142 2.223 . S
O150 C149 1.315 . S
O151 Cd141 2.240 . S
O151 C149 1.279 . S
O152 Cd142 2.297 . S
O152 C147 1.247 . S
O153 Cd142 2.439 . S
O153 C147 1.208 . S
O154 Cd155 2.223 . S
O154 C162 1.315 . S
Cd155 O154 2.223 . S
Cd155 O158 2.297 . S
Cd155 O159 2.439 . S
Cd155 O165 2.240 . S
Cd156 O157 2.240 . S
Cd156 O164 2.223 . S
Cd156 O166 2.297 . S
Cd156 O167 2.439 . S
O157 Cd156 2.240 . S
O157 C162 1.279 . S
O158 Cd155 2.297 . S
O158 C160 1.247 . S
O159 Cd155 2.439 . S
O159 C160 1.208 . S
C160 O158 1.247 . S
C160 O159 1.208 . S
C161 O166 1.247 . S
C161 O167 1.208 . S
C162 O154 1.315 . S
C162 O157 1.279 . S
C163 O164 1.315 . S
C163 O165 1.279 . S
O164 Cd156 2.223 . S
O164 C163 1.315 . S
O165 Cd155 2.240 . S
O165 C163 1.279 . S
O166 Cd156 2.297 . S
O166 C161 1.247 . S
O167 Cd156 2.439 . S
O167 C161 1.208 . S
O168 Cd169 2.223 . S
O168 C176 1.315 . S
Cd169 O168 2.223 . S
Cd169 O172 2.297 . S
Cd169 O173 2.439 . S
Cd169 O179 2.240 . S
Cd170 O171 2.240 . S
Cd170 O178 2.223 . S
Cd170 O180 2.297 . S
Cd170 O181 2.439 . S
O171 Cd170 2.240 . S
O171 C176 1.279 . S
O172 Cd169 2.297 . S
O172 C174 1.247 . S
O173 Cd169 2.439 . S
O173 C174 1.208 . S
C174 O172 1.247 . S
C174 O173 1.208 . S
C175 O180 1.247 . S
C175 O181 1.208 . S
C176 O168 1.315 . S
C176 O171 1.279 . S
C177 O178 1.315 . S
C177 O179 1.279 . S
O178 Cd170 2.223 . S
O178 C177 1.315 . S
O179 Cd169 2.240 . S
O179 C177 1.279 . S
O180 Cd170 2.297 . S
O180 C175 1.247 . S
O181 Cd170 2.439 . S
O181 C175 1.208 . S
O182 Cd183 2.223 . S
O182 C190 1.315 . S
Cd183 O182 2.223 . S
Cd183 O186 2.297 . S
Cd183 O187 2.439 . S
Cd183 O193 2.240 . S
Cd184 O185 2.240 . S
Cd184 O192 2.223 . S
Cd184 O194 2.297 . S
Cd184 O195 2.439 . S
O185 Cd184 2.240 . S
O185 C190 1.279 . S
O186 Cd183 2.297 . S
O186 C188 1.247 . S
O187 Cd183 2.439 . S
O187 C188 1.208 . S
C188 O186 1.247 . S
C188 O187 1.208 . S
C189 O194 1.247 . S
C189 O195 1.208 . S
C190 O182 1.315 . S
C190 O185 1.279 . S
C191 O192 1.315 . S
C191 O193 1.279 . S
O192 Cd184 2.223 . S
O192 C191 1.315 . S
O193 Cd183 2.240 . S
O193 C191 1.279 . S
O194 Cd184 2.297 . S
O194 C189 1.247 . S
O195 Cd184 2.439 . S
O195 C189 1.208 . S
O196 Cd197 2.223 . S
O196 C204 1.315 . S
Cd197 O196 2.223 . S
Cd197 O200 2.297 . S
Cd197 O201 2.439 . S
Cd197 O207 2.240 . S
Cd198 O199 2.240 . S
Cd198 O206 2.223 . S
Cd198 O208 2.297 . S
Cd198 O209 2.439 . S
O199 Cd198 2.240 . S
O199 C204 1.279 . S
O200 Cd197 2.297 . S
O200 C202 1.247 . S
O201 Cd197 2.439 . S
O201 C202 1.208 . S
C202 O200 1.247 . S
C202 O201 1.208 . S
C203 O208 1.247 . S
C203 O209 1.208 . S
C204 O196 1.315 . S
C204 O199 1.279 . S
C205 O206 1.315 . S
C205 O207 1.279 . S
O206 Cd198 2.223 . S
O206 C205 1.315 . S
O207 Cd197 2.240 . S
O207 C205 1.279 . S
O208 Cd198 2.297 . S
O208 C203 1.247 . S
O209 Cd198 2.439 . S
O209 C203 1.208 . S
O210 Cd211 2.223 . S
O210 C218 1.315 . S
Cd211 O210 2.223 . S
Cd211 O214 2.297 . S
Cd211 O215 2.439 . S
Cd211 O221 2.240 . S
Cd212 O213 2.240 . S
Cd212 O220 2.223 . S
Cd212 O222 2.297 . S
Cd212 O223 2.439 . S
O213 Cd212 2.240 . S
O213 C218 1.279 . S
O214 Cd211 2.297 . S
O214 C216 1.247 . S
O215 Cd211 2.439 . S
O215 C216 1.208 . S
C216 O214 1.247 . S
C216 O215 1.208 . S
C217 O222 1.247 . S
C217 O223 1.208 . S
C218 O210 1.315 . S
C218 O213 1.279 . S
C219 O220 1.315 . S
C219 O221 1.279 . S
O220 Cd212 2.223 . S
O220 C219 1.315 . S
O221 Cd211 2.240 . S
O221 C219 1.279 . S
O222 Cd212 2.297 . S
O222 C217 1.247 . S
O223 Cd212 2.439 . S
O223 C217 1.208 . S
C224 C225 1.363 . S
C224 C230 1.379 . S
C224 N232 1.356 . S
C225 C224 1.363 . S
C225 C231 1.363 1_554 S
C226 C227 1.363 . S
C226 C231 1.379 . S
C226 N233 1.356 . S
C227 C226 1.363 . S
C227 C230 1.363 1_556 S
N228 C230 1.356 . S
N228 H240 0.984 . S
N228 H241 0.985 1_554 S
N229 C231 1.356 . S
N229 H234 0.984 . S
N229 H235 0.985 . S
C230 C224 1.379 . S
C230 C227 1.363 1_554 S
C230 N228 1.356 . S
C231 C225 1.363 1_556 S
C231 C226 1.379 . S
C231 N229 1.356 . S
N232 C224 1.356 . S
N232 H238 0.984 . S
N232 H239 0.984 . S
N233 C226 1.356 . S
N233 H236 0.984 . S
N233 H237 0.985 . S
H234 N229 0.984 . S
H235 N229 0.985 . S
H236 N233 0.984 . S
H237 N233 0.985 . S
H238 N232 0.984 . S
H239 N232 0.984 . S
H240 N228 0.984 . S
H241 N228 0.985 1_556 S
C242 C243 1.363 . S
C242 C248 1.379 . S
C242 N250 1.356 . S
C243 C242 1.363 . S
C243 C249 1.363 . S
C244 C245 1.363 . S
C244 C249 1.379 . S
C244 N251 1.356 . S
C245 C244 1.363 . S
C245 C248 1.363 . S
N246 C248 1.356 . S
N246 H258 0.984 . S
N246 H259 0.985 . S
N247 C249 1.356 . S
N247 H252 0.984 . S
N247 H253 0.985 . S
C248 C242 1.379 . S
C248 C245 1.363 . S
C248 N246 1.356 . S
C249 C243 1.363 . S
C249 C244 1.379 . S
C249 N247 1.356 . S
N250 C242 1.356 . S
N250 H256 0.984 . S
N250 H257 0.984 . S
N251 C244 1.356 . S
N251 H254 0.984 . S
N251 H255 0.985 . S
H252 N247 0.984 . S
H253 N247 0.985 . S
H254 N251 0.984 . S
H255 N251 0.985 . S
H256 N250 0.984 . S
H257 N250 0.984 . S
H258 N246 0.984 . S
H259 N246 0.985 . S
C260 C261 1.363 1_554 S
C260 C266 1.379 . S
C260 N268 1.356 . S
C261 C260 1.363 1_556 S
C261 C267 1.363 . S
C262 C263 1.363 . S
C262 C267 1.379 1_554 S
C262 N269 1.356 . S
C263 C262 1.363 . S
C263 C266 1.363 . S
N264 C266 1.356 . S
N264 H276 0.984 . S
N264 H277 0.985 . S
N265 C267 1.356 . S
N265 H270 0.984 . S
N265 H271 0.985 . S
C266 C260 1.379 . S
C266 C263 1.363 . S
C266 N264 1.356 . S
C267 C261 1.363 . S
C267 C262 1.379 1_556 S
C267 N265 1.356 . S
N268 C260 1.356 . S
N268 H274 0.984 . S
N268 H275 0.984 1_554 S
N269 C262 1.356 . S
N269 H272 0.984 . S
N269 H273 0.985 1_554 S
H270 N265 0.984 . S
H271 N265 0.985 . S
H272 N269 0.984 . S
H273 N269 0.985 1_556 S
H274 N268 0.984 . S
H275 N268 0.984 1_556 S
H276 N264 0.984 . S
H277 N264 0.985 . S
C278 C279 1.363 . S
C278 C284 1.379 . S
C278 N286 1.356 . S
C279 C278 1.363 . S
C279 C285 1.363 . S
C280 C281 1.363 . S
C280 C285 1.379 . S
C280 N287 1.356 . S
C281 C280 1.363 . S
C281 C284 1.363 . S
N282 C284 1.356 . S
N282 H294 0.984 . S
N282 H295 0.985 . S
N283 C285 1.356 . S
N283 H288 0.984 . S
N283 H289 0.985 . S
C284 C278 1.379 . S
C284 C281 1.363 . S
C284 N282 1.356 . S
C285 C279 1.363 . S
C285 C280 1.379 . S
C285 N283 1.356 . S
N286 C278 1.356 . S
N286 H292 0.984 . S
N286 H293 0.984 . S
N287 C280 1.356 . S
N287 H290 0.984 . S
N287 H291 0.985 . S
H288 N283 0.984 . S
H289 N283 0.985 . S
H290 N287 0.984 . S
H291 N287 0.985 . S
H292 N286 0.984 . S
H293 N286 0.984 . S
H294 N282 0.984 . S
H295 N282 0.985 . S
C296 C297 1.363 . S
C296 C302 1.369 1_554 S
C296 N304 1.356 . S
C297 C296 1.363 . S
C297 C303 1.363 1_554 S
C298 C299 1.363 . S
C298 C303 1.379 . S
C298 N305 1.356 . S
C299 C298 1.363 . S
C299 C302 1.378 . S
N300 C302 1.356 . S
N300 H312 0.986 1_556 S
N300 H313 0.983 . S
N301 C303 1.356 . S
N301 H306 0.996 . S
N301 H307 0.985 . S
C302 C296 1.369 1_556 S
C302 C299 1.378 . S
C302 N300 1.356 . S
C303 C297 1.363 1_556 S
C303 C298 1.379 . S
C303 N301 1.356 . S
N304 C296 1.356 . S
N304 H310 0.984 . S
N304 H311 0.984 . S
N305 C298 1.356 . S
N305 H308 0.984 . S
N305 H309 0.985 . S
H306 N301 0.996 . S
H307 N301 0.985 . S
H308 N305 0.984 . S
H309 N305 0.985 . S
H310 N304 0.984 . S
H311 N304 0.984 . S
H312 N300 0.986 1_554 S
H313 N300 0.983 . S
C314 C315 1.363 . S
C314 C320 1.379 . S
C314 N322 1.356 . S
C315 C314 1.363 . S
C315 C321 1.363 . S
C316 C317 1.363 . S
C316 C321 1.379 . S
C316 N323 1.356 . S
C317 C316 1.363 . S
C317 C320 1.363 . S
N318 C320 1.356 . S
N318 H330 0.984 . S
N318 H331 0.985 . S
N319 C321 1.356 . S
N319 H324 0.984 . S
N319 H325 0.985 . S
C320 C314 1.379 . S
C320 C317 1.363 . S
C320 N318 1.356 . S
C321 C315 1.363 . S
C321 C316 1.379 . S
C321 N319 1.356 . S
N322 C314 1.356 . S
N322 H328 0.984 . S
N322 H329 0.984 . S
N323 C316 1.356 . S
N323 H326 0.984 . S
N323 H327 0.985 . S
H324 N319 0.984 . S
H325 N319 0.985 . S
H326 N323 0.984 . S
H327 N323 0.985 . S
H328 N322 0.984 . S
H329 N322 0.984 . S
H330 N318 0.984 . S
H331 N318 0.985 . S
C332 C333 1.363 . S
C332 C338 1.379 . S
C332 N340 1.356 . S
C333 C332 1.363 . S
C333 C339 1.363 1_556 S
C334 C335 1.363 . S
C334 C339 1.379 . S
C334 N341 1.356 . S
C335 C334 1.363 . S
C335 C338 1.363 1_554 S
N336 C338 1.356 . S
N336 H348 0.984 . S
N336 H349 0.985 1_556 S
N337 C339 1.356 . S
N337 H342 0.984 . S
N337 H343 0.985 . S
C338 C332 1.379 . S
C338 C335 1.363 1_556 S
C338 N336 1.356 . S
C339 C333 1.363 1_554 S
C339 C334 1.379 . S
C339 N337 1.356 . S
N340 C332 1.356 . S
N340 H346 0.984 . S
N340 H347 0.984 . S
N341 C334 1.356 . S
N341 H344 0.984 . S
N341 H345 0.985 . S
H342 N337 0.984 . S
H343 N337 0.985 . S
H344 N341 0.984 . S
H345 N341 0.985 . S
H346 N340 0.984 . S
H347 N340 0.984 . S
H348 N336 0.984 . S
H349 N336 0.985 1_554 S
C350 C351 1.363 . S
C350 C356 1.379 . S
C350 N358 1.356 . S
C351 C350 1.363 . S
C351 C357 1.363 . S
C352 C353 1.363 . S
C352 C357 1.379 . S
C352 N359 1.356 . S
C353 C352 1.363 . S
C353 C356 1.363 . S
N354 C356 1.356 . S
N354 H366 0.984 . S
N354 H367 0.985 . S
N355 C357 1.356 . S
N355 H360 0.984 . S
N355 H361 0.985 . S
C356 C350 1.379 . S
C356 C353 1.363 . S
C356 N354 1.356 . S
C357 C351 1.363 . S
C357 C352 1.379 . S
C357 N355 1.356 . S
N358 C350 1.356 . S
N358 H364 0.984 . S
N358 H365 0.984 . S
N359 C352 1.356 . S
N359 H362 0.984 . S
N359 H363 0.985 . S
H360 N355 0.984 . S
H361 N355 0.985 . S
H362 N359 0.984 . S
H363 N359 0.985 . S
H364 N358 0.984 . S
H365 N358 0.984 . S
H366 N354 0.984 . S
H367 N354 0.985 . S
C368 C369 1.363 1_556 S
C368 C374 1.379 1_545 S
C368 N376 1.356 . S
C369 C368 1.363 1_554 S
C369 C375 1.363 . S
C370 C371 1.363 1_554 S
C370 C375 1.379 1_565 S
C370 N377 1.356 . S
C371 C370 1.363 1_556 S
C371 C374 1.363 . S
N372 C374 1.356 . S
N372 H384 0.984 . S
N372 H385 0.985 . S
N373 C375 1.356 . S
N373 H378 0.984 . S
N373 H379 0.985 . S
C374 C368 1.379 1_565 S
C374 C371 1.363 . S
C374 N372 1.356 . S
C375 C369 1.363 . S
C375 C370 1.379 1_545 S
C375 N373 1.356 . S
N376 C368 1.356 . S
N376 H382 0.984 . S
N376 H383 0.984 . S
N377 C370 1.356 . S
N377 H380 0.984 . S
N377 H381 0.985 . S
H378 N373 0.984 . S
H379 N373 0.985 . S
H380 N377 0.984 . S
H381 N377 0.985 . S
H382 N376 0.984 . S
H383 N376 0.984 . S
H384 N372 0.984 . S
H385 N372 0.985 . S
C386 C387 1.363 . S
C386 C392 1.379 1_565 S
C386 N394 1.356 . S
C387 C386 1.363 . S
C387 C393 1.363 . S
C388 C389 1.363 . S
C388 C393 1.379 1_545 S
C388 N395 1.356 . S
C389 C388 1.363 . S
C389 C392 1.363 . S
N390 C392 1.356 . S
N390 H402 0.984 . S
N390 H403 0.985 . S
N391 C393 1.356 . S
N391 H396 0.984 . S
N391 H397 0.985 . S
C392 C386 1.379 1_545 S
C392 C389 1.363 . S
C392 N390 1.356 . S
C393 C387 1.363 . S
C393 C388 1.379 1_565 S
C393 N391 1.356 . S
N394 C386 1.356 . S
N394 H400 0.984 . S
N394 H401 0.984 . S
N395 C388 1.356 . S
N395 H398 0.984 . S
N395 H399 0.985 . S
H396 N391 0.984 . S
H397 N391 0.985 . S
H398 N395 0.984 . S
H399 N395 0.985 . S
H400 N394 0.984 . S
H401 N394 0.984 . S
H402 N390 0.984 . S
H403 N390 0.985 . S
C404 C405 1.363 1_554 S
C404 C410 1.382 1_565 S
C404 N412 1.356 . S
C405 C404 1.363 1_556 S
C405 C411 1.360 . S
C406 C407 1.363 1_556 S
C406 C411 1.382 1_545 S
C406 N413 1.356 . S
C407 C406 1.363 1_554 S
C407 C410 1.360 . S
N408 C410 1.355 . S
N408 H420 0.984 1_545 S
N408 H421 0.985 . S
N409 C411 1.355 . S
N409 H414 0.984 . S
N409 H415 0.985 1_565 S
C410 C404 1.382 1_545 S
C410 C407 1.360 . S
C410 N408 1.355 . S
C411 C405 1.360 . S
C411 C406 1.382 1_565 S
C411 N409 1.355 . S
N412 C404 1.356 . S
N412 H418 0.984 . S
N412 H419 0.984 1_554 S
N413 C406 1.356 . S
N413 H416 0.984 1_556 S
N413 H417 0.985 . S
H414 N409 0.984 . S
H415 N409 0.985 1_545 S
H416 N413 0.984 1_554 S
H417 N413 0.985 . S
H418 N412 0.984 . S
H419 N412 0.984 1_556 S
H420 N408 0.984 1_565 S
H421 N408 0.985 . S
C422 C423 1.363 . S
C422 C428 1.379 1_545 S
C422 N430 1.356 . S
C423 C422 1.363 . S
C423 C429 1.363 . S
C424 C425 1.363 . S
C424 C429 1.379 1_565 S
C424 N431 1.356 . S
C425 C424 1.363 . S
C425 C428 1.363 . S
N426 C428 1.356 . S
N426 H438 0.985 1_565 S
N426 H439 0.985 . S
N427 C429 1.356 . S
N427 H432 0.984 . S
N427 H433 0.985 1_545 S
C428 C422 1.379 1_565 S
C428 C425 1.363 . S
C428 N426 1.356 . S
C429 C423 1.363 . S
C429 C424 1.379 1_545 S
C429 N427 1.356 . S
N430 C422 1.356 . S
N430 H436 0.984 . S
N430 H437 0.984 . S
N431 C424 1.356 . S
N431 H434 0.984 . S
N431 H435 0.985 . S
H432 N427 0.984 . S
H433 N427 0.985 1_565 S
H434 N431 0.984 . S
H435 N431 0.985 . S
H436 N430 0.984 . S
H437 N430 0.984 . S
H438 N426 0.985 1_545 S
H439 N426 0.985 . S
C440 C441 1.363 1_554 S
C440 C446 1.379 . S
C440 N448 1.356 . S
C441 C440 1.363 1_556 S
C441 C447 1.363 . S
C442 C443 1.363 1_556 S
C442 C447 1.379 . S
C442 N449 1.356 . S
C443 C442 1.363 1_554 S
C443 C446 1.363 . S
N444 C446 1.356 . S
N444 H456 0.984 . S
N444 H457 0.985 . S
N445 C447 1.356 . S
N445 H450 0.984 . S
N445 H451 0.985 . S
C446 C440 1.379 . S
C446 C443 1.363 . S
C446 N444 1.356 . S
C447 C441 1.363 . S
C447 C442 1.379 . S
C447 N445 1.356 . S
N448 C440 1.356 . S
N448 H454 0.984 . S
N448 H455 0.984 . S
N449 C442 1.356 . S
N449 H452 0.984 . S
N449 H453 0.985 . S
H450 N445 0.984 . S
H451 N445 0.985 . S
H452 N449 0.984 . S
H453 N449 0.985 . S
H454 N448 0.984 . S
H455 N448 0.984 . S
H456 N444 0.984 . S
H457 N444 0.985 . S
C458 C459 1.363 . S
C458 C464 1.379 . S
C458 N466 1.356 . S
C459 C458 1.363 . S
C459 C465 1.363 . S
C460 C461 1.363 . S
C460 C465 1.379 . S
C460 N467 1.356 . S
C461 C460 1.363 . S
C461 C464 1.363 . S
N462 C464 1.356 . S
N462 H474 0.984 . S
N462 H475 0.985 . S
N463 C465 1.356 . S
N463 H468 0.984 . S
N463 H469 0.985 . S
C464 C458 1.379 . S
C464 C461 1.363 . S
C464 N462 1.356 . S
C465 C459 1.363 . S
C465 C460 1.379 . S
C465 N463 1.356 . S
N466 C458 1.356 . S
N466 H472 0.984 . S
N466 H473 0.984 . S
N467 C460 1.356 . S
N467 H470 0.984 . S
N467 H471 0.985 . S
H468 N463 0.984 . S
H469 N463 0.985 . S
H470 N467 0.984 . S
H471 N467 0.985 . S
H472 N466 0.984 . S
H473 N466 0.984 . S
H474 N462 0.984 . S
H475 N462 0.985 . S
C476 C477 1.363 1_556 S
C476 C482 1.379 . S
C476 N484 1.356 . S
C477 C476 1.363 1_554 S
C477 C483 1.363 . S
C478 C479 1.363 1_554 S
C478 C483 1.379 . S
C478 N485 1.356 . S
C479 C478 1.363 1_556 S
C479 C482 1.363 . S
N480 C482 1.356 . S
N480 H492 0.984 . S
N480 H493 0.985 . S
N481 C483 1.356 . S
N481 H486 0.984 . S
N481 H487 0.985 . S
C482 C476 1.379 . S
C482 C479 1.363 . S
C482 N480 1.356 . S
C483 C477 1.363 . S
C483 C478 1.379 . S
C483 N481 1.356 . S
N484 C476 1.356 . S
N484 H490 0.984 . S
N484 H491 0.984 1_556 S
N485 C478 1.356 . S
N485 H488 0.984 1_554 S
N485 H489 0.985 . S
H486 N481 0.984 . S
H487 N481 0.985 . S
H488 N485 0.984 1_556 S
H489 N485 0.985 . S
H490 N484 0.984 . S
H491 N484 0.984 1_554 S
H492 N480 0.984 . S
H493 N480 0.985 . S
C494 C495 1.363 . S
C494 C500 1.379 . S
C494 N502 1.356 . S
C495 C494 1.363 . S
C495 C501 1.363 . S
C496 C497 1.363 . S
C496 C501 1.379 . S
C496 N503 1.356 . S
C497 C496 1.363 . S
C497 C500 1.363 . S
N498 C500 1.356 . S
N498 H510 0.984 . S
N498 H511 0.985 . S
N499 C501 1.356 . S
N499 H504 0.984 . S
N499 H505 0.985 . S
C500 C494 1.379 . S
C500 C497 1.363 . S
C500 N498 1.356 . S
C501 C495 1.363 . S
C501 C496 1.379 . S
C501 N499 1.356 . S
N502 C494 1.356 . S
N502 H508 0.984 . S
N502 H509 0.984 . S
N503 C496 1.356 . S
N503 H506 0.984 . S
N503 H507 0.985 . S
H504 N499 0.984 . S
H505 N499 0.985 . S
H506 N503 0.984 . S
H507 N503 0.985 . S
H508 N502 0.984 . S
H509 N502 0.984 . S
H510 N498 0.984 . S
H511 N498 0.985 . S
C512 C513 1.363 . S
C512 C518 1.379 . S
C512 N520 1.356 . S
C513 C512 1.363 . S
C513 C519 1.363 . S
C514 C515 1.363 . S
C514 C519 1.379 . S
C514 N521 1.356 . S
C515 C514 1.363 . S
C515 C518 1.363 . S
N516 C518 1.356 . S
N516 H528 0.984 . S
N516 H529 0.985 . S
N517 C519 1.356 . S
N517 H522 0.984 . S
N517 H523 0.985 1_554 S
C518 C512 1.379 . S
C518 C515 1.363 . S
C518 N516 1.356 . S
C519 C513 1.363 . S
C519 C514 1.379 . S
C519 N517 1.356 . S
N520 C512 1.356 . S
N520 H526 0.984 . S
N520 H527 0.984 . S
N521 C514 1.356 . S
N521 H524 0.984 . S
N521 H525 0.985 . S
H522 N517 0.984 . S
H523 N517 0.985 1_556 S
H524 N521 0.984 . S
H525 N521 0.985 . S
H526 N520 0.984 . S
H527 N520 0.984 . S
H528 N516 0.984 . S
H529 N516 0.985 . S
C530 C531 1.363 . S
C530 C536 1.379 . S
C530 N538 1.356 . S
C531 C530 1.363 . S
C531 C537 1.363 . S
C532 C533 1.363 . S
C532 C537 1.379 . S
C532 N539 1.356 . S
C533 C532 1.363 . S
C533 C536 1.363 . S
N534 C536 1.356 . S
N534 H546 0.984 . S
N534 H547 0.985 . S
N535 C537 1.356 . S
N535 H540 0.984 1_455 S
N535 H541 0.985 . S
C536 C530 1.379 . S
C536 C533 1.363 . S
C536 N534 1.356 . S
C537 C531 1.363 . S
C537 C532 1.379 . S
C537 N535 1.356 . S
N538 C530 1.356 . S
N538 H544 0.984 . S
N538 H545 0.984 1_455 S
N539 C532 1.356 . S
N539 H542 0.984 . S
N539 H543 0.985 . S
H540 N535 0.984 1_655 S
H541 N535 0.985 . S
H542 N539 0.984 . S
H543 N539 0.985 . S
H544 N538 0.984 . S
H545 N538 0.984 1_655 S
H546 N534 0.984 . S
H547 N534 0.985 . S
C548 C549 1.363 . S
C548 C554 1.379 . S
C548 N556 1.356 . S
C549 C548 1.363 . S
C549 C555 1.363 . S
C550 C551 1.363 . S
C550 C555 1.379 . S
C550 N557 1.356 . S
C551 C550 1.363 . S
C551 C554 1.363 . S
N552 C554 1.356 . S
N552 H564 0.984 . S
N552 H565 0.985 . S
N553 C555 1.356 . S
N553 H558 0.984 . S
N553 H559 0.985 . S
C554 C548 1.379 . S
C554 C551 1.363 . S
C554 N552 1.356 . S
C555 C549 1.363 . S
C555 C550 1.379 . S
C555 N553 1.356 . S
N556 C548 1.356 . S
N556 H562 0.984 . S
N556 H563 0.984 . S
N557 C550 1.356 . S
N557 H560 0.984 . S
N557 H561 0.985 . S
H558 N553 0.984 . S
H559 N553 0.985 . S
H560 N557 0.984 . S
H561 N557 0.985 . S
H562 N556 0.984 . S
H563 N556 0.984 . S
H564 N552 0.984 . S
H565 N552 0.985 . S
C566 C567 1.363 . S
C566 C572 1.379 . S
C566 N574 1.356 . S
C567 C566 1.363 . S
C567 C573 1.363 . S
C568 C569 1.363 . S
C568 C573 1.379 . S
C568 N575 1.356 . S
C569 C568 1.363 . S
C569 C572 1.363 . S
N570 C572 1.356 . S
N570 H582 0.984 . S
N570 H583 0.985 1_455 S
N571 C573 1.356 . S
N571 H576 0.984 . S
N571 H577 0.985 . S
C572 C566 1.379 . S
C572 C569 1.363 . S
C572 N570 1.356 . S
C573 C567 1.363 . S
C573 C568 1.379 . S
C573 N571 1.356 . S
N574 C566 1.356 . S
N574 H580 0.984 . S
N574 H581 0.984 . S
N575 C568 1.356 . S
N575 H578 0.984 1_455 S
N575 H579 0.985 . S
H576 N571 0.984 . S
H577 N571 0.985 . S
H578 N575 0.984 1_655 S
H579 N575 0.985 . S
H580 N574 0.984 . S
H581 N574 0.984 . S
H582 N570 0.984 . S
H583 N570 0.985 1_655 S
C584 C585 1.363 . S
C584 C590 1.379 . S
C584 N592 1.356 . S
C585 C584 1.363 . S
C585 C591 1.363 . S
C586 C587 1.363 . S
C586 C591 1.379 . S
C586 N593 1.356 . S
C587 C586 1.363 . S
C587 C590 1.363 . S
N588 C590 1.356 . S
N588 H600 0.984 . S
N588 H601 0.985 . S
N589 C591 1.354 1_455 S
N589 H594 0.987 . S
N589 H595 0.984 1_455 S
C590 C584 1.379 . S
C590 C587 1.363 . S
C590 N588 1.356 . S
C591 C585 1.363 . S
C591 C586 1.379 . S
C591 N589 1.354 1_655 S
N592 C584 1.356 . S
N592 H598 0.984 . S
N592 H599 0.984 1_655 S
N593 C586 1.356 . S
N593 H596 0.984 . S
N593 H597 0.985 . S
H594 N589 0.987 . S
H595 N589 0.984 1_655 S
H596 N593 0.984 . S
H597 N593 0.985 . S
H598 N592 0.984 . S
H599 N592 0.984 1_455 S
H600 N588 0.984 . S
H601 N588 0.985 . S
C602 C603 1.363 . S
C602 C608 1.379 . S
C602 N610 1.356 . S
C603 C602 1.363 . S
C603 C609 1.363 . S
C604 C605 1.363 . S
C604 C609 1.379 . S
C604 N611 1.356 . S
C605 C604 1.363 . S
C605 C608 1.363 . S
N606 C608 1.356 . S
N606 H618 0.984 . S
N606 H619 0.985 . S
N607 C609 1.356 . S
N607 H612 0.984 . S
N607 H613 0.985 . S
C608 C602 1.379 . S
C608 C605 1.363 . S
C608 N606 1.356 . S
C609 C603 1.363 . S
C609 C604 1.379 . S
C609 N607 1.356 . S
N610 C602 1.356 . S
N610 H616 0.984 . S
N610 H617 0.984 . S
N611 C604 1.356 . S
N611 H614 0.984 . S
N611 H615 0.985 . S
H612 N607 0.984 . S
H613 N607 0.985 . S
H614 N611 0.984 . S
H615 N611 0.985 . S
H616 N610 0.984 . S
H617 N610 0.984 . S
H618 N606 0.984 . S
H619 N606 0.985 . S
C620 C621 1.363 . S
C620 C626 1.379 . S
C620 N628 1.339 1_655 S
C621 C620 1.363 . S
C621 C627 1.363 . S
C622 C623 1.363 . S
C622 C627 1.379 . S
C622 N629 1.356 . S
C623 C622 1.363 . S
C623 C626 1.363 . S
N624 C626 1.356 . S
N624 H636 0.984 . S
N624 H637 0.985 . S
N625 C627 1.356 . S
N625 H630 0.984 1_655 S
N625 H631 0.985 1_556 S
C626 C620 1.379 . S
C626 C623 1.363 . S
C626 N624 1.356 . S
C627 C621 1.363 . S
C627 C622 1.379 . S
C627 N625 1.356 . S
N628 C620 1.339 1_455 S
N628 H634 0.982 1_455 S
N628 H635 1.005 . S
N629 C622 1.356 . S
N629 H632 0.984 . S
N629 H633 0.985 . S
H630 N625 0.984 1_455 S
H631 N625 0.985 1_554 S
H632 N629 0.984 . S
H633 N629 0.985 . S
H634 N628 0.982 1_655 S
H635 N628 1.005 . S
H636 N624 0.984 . S
H637 N624 0.985 . S
C638 C639 1.363 . S
C638 C644 1.379 . S
C638 N646 1.356 . S
C639 C638 1.363 . S
C639 C645 1.363 . S
C640 C641 1.363 . S
C640 C645 1.379 . S
C640 N647 1.356 . S
C641 C640 1.363 . S
C641 C644 1.363 . S
N642 C644 1.356 . S
N642 H654 0.984 . S
N642 H655 0.985 . S
N643 C645 1.356 . S
N643 H648 0.984 . S
N643 H649 0.985 . S
C644 C638 1.379 . S
C644 C641 1.363 . S
C644 N642 1.356 . S
C645 C639 1.363 . S
C645 C640 1.379 . S
C645 N643 1.356 . S
N646 C638 1.356 . S
N646 H652 0.984 . S
N646 H653 0.984 . S
N647 C640 1.356 . S
N647 H650 0.984 . S
N647 H651 0.985 . S
H648 N643 0.984 . S
H649 N643 0.985 . S
H650 N647 0.984 . S
H651 N647 0.985 . S
H652 N646 0.984 . S
H653 N646 0.984 . S
H654 N642 0.984 . S
H655 N642 0.985 . S
C656 C657 1.363 . S
C656 C662 1.379 . S
C656 N664 1.356 . S
C657 C656 1.363 . S
C657 C663 1.363 . S
C658 C659 1.363 . S
C658 C663 1.379 . S
C658 N665 1.356 . S
C659 C658 1.363 . S
C659 C662 1.363 . S
N660 C662 1.356 . S
N660 H672 0.984 . S
N660 H673 0.985 . S
N661 C663 1.356 . S
N661 H666 0.984 . S
N661 H667 0.985 . S
C662 C656 1.379 . S
C662 C659 1.363 . S
C662 N660 1.356 . S
C663 C657 1.363 . S
C663 C658 1.379 . S
C663 N661 1.356 . S
N664 C656 1.356 . S
N664 H670 0.984 . S
N664 H671 0.984 . S
N665 C658 1.356 . S
N665 H668 0.984 . S
N665 H669 0.985 . S
H666 N661 0.984 . S
H667 N661 0.985 . S
H668 N665 0.984 . S
H669 N665 0.985 . S
H670 N664 0.984 . S
H671 N664 0.984 . S
H672 N660 0.984 . S
H673 N660 0.985 . S
C674 C675 1.363 . S
C674 C680 1.379 . S
C674 N682 1.356 . S
C675 C674 1.363 . S
C675 C681 1.363 . S
C676 C677 1.363 . S
C676 C681 1.379 . S
C676 N683 1.356 . S
C677 C676 1.363 . S
C677 C680 1.363 . S
N678 C680 1.356 . S
N678 H690 0.984 . S
N678 H691 0.985 . S
N679 C681 1.356 . S
N679 H684 0.984 . S
N679 H685 0.985 . S
C680 C674 1.379 . S
C680 C677 1.363 . S
C680 N678 1.356 . S
C681 C675 1.363 . S
C681 C676 1.379 . S
C681 N679 1.356 . S
N682 C674 1.356 . S
N682 H688 0.984 . S
N682 H689 0.984 . S
N683 C676 1.356 . S
N683 H686 0.984 . S
N683 H687 0.985 . S
H684 N679 0.984 . S
H685 N679 0.985 . S
H686 N683 0.984 . S
H687 N683 0.985 . S
H688 N682 0.984 . S
H689 N682 0.984 . S
H690 N678 0.984 . S
H691 N678 0.985 . S
C692 C693 1.363 . S
C692 C698 1.379 . S
C692 N700 1.356 . S
C693 C692 1.363 . S
C693 C699 1.363 . S
C694 C695 1.363 . S
C694 C699 1.379 . S
C694 N701 1.356 . S
C695 C694 1.363 . S
C695 C698 1.363 . S
N696 C698 1.356 . S
N696 H708 0.984 . S
N696 H709 0.985 . S
N697 C699 1.356 . S
N697 H702 0.984 . S
N697 H703 0.985 . S
C698 C692 1.379 . S
C698 C695 1.363 . S
C698 N696 1.356 . S
C699 C693 1.363 . S
C699 C694 1.379 . S
C699 N697 1.356 . S
N700 C692 1.356 . S
N700 H706 0.984 . S
N700 H707 0.984 . S
N701 C694 1.356 . S
N701 H704 0.984 . S
N701 H705 0.985 . S
H702 N697 0.984 . S
H703 N697 0.985 . S
H704 N701 0.984 . S
H705 N701 0.985 . S
H706 N700 0.984 . S
H707 N700 0.984 . S
H708 N696 0.984 . S
H709 N696 0.985 . S
C710 C711 1.363 . S
C710 C716 1.379 . S
C710 N718 1.356 . S
C711 C710 1.363 . S
C711 C717 1.363 . S
C712 C713 1.363 . S
C712 C717 1.379 . S
C712 N719 1.356 . S
C713 C712 1.363 . S
C713 C716 1.363 . S
N714 C716 1.356 . S
N714 H726 0.984 . S
N714 H727 0.985 . S
N715 C717 1.356 . S
N715 H720 0.984 . S
N715 H721 0.985 . S
C716 C710 1.379 . S
C716 C713 1.363 . S
C716 N714 1.356 . S
C717 C711 1.363 . S
C717 C712 1.379 . S
C717 N715 1.356 . S
N718 C710 1.356 . S
N718 H724 0.984 . S
N718 H725 0.984 . S
N719 C712 1.356 . S
N719 H722 0.984 . S
N719 H723 0.985 . S
H720 N715 0.984 . S
H721 N715 0.985 . S
H722 N719 0.984 . S
H723 N719 0.985 . S
H724 N718 0.984 . S
H725 N718 0.984 . S
H726 N714 0.984 . S
H727 N714 0.985 . S
C728 C729 1.363 . S
C728 C734 1.379 . S
C728 N736 1.356 . S
C729 C728 1.363 . S
C729 C735 1.363 . S
C730 C731 1.363 . S
C730 C735 1.379 . S
C730 N737 1.356 . S
C731 C730 1.363 . S
C731 C734 1.363 . S
N732 C734 1.356 . S
N732 H744 0.984 . S
N732 H745 0.985 . S
N733 C735 1.356 . S
N733 H738 0.984 . S
N733 H739 0.985 . S
C734 C728 1.379 . S
C734 C731 1.363 . S
C734 N732 1.356 . S
C735 C729 1.363 . S
C735 C730 1.379 . S
C735 N733 1.356 . S
N736 C728 1.356 . S
N736 H742 0.984 . S
N736 H743 0.984 . S
N737 C730 1.356 . S
N737 H740 0.984 . S
N737 H741 0.985 . S
H738 N733 0.984 . S
H739 N733 0.985 . S
H740 N737 0.984 . S
H741 N737 0.985 . S
H742 N736 0.984 . S
H743 N736 0.984 . S
H744 N732 0.984 . S
H745 N732 0.985 . S
C746 C747 1.363 . S
C746 C752 1.379 . S
C746 N754 1.356 . S
C747 C746 1.363 . S
C747 C753 1.363 . S
C748 C749 1.363 . S
C748 C753 1.379 . S
C748 N755 1.356 . S
C749 C748 1.363 . S
C749 C752 1.363 . S
N750 C752 1.356 . S
N750 H762 0.984 . S
N750 H763 0.985 . S
N751 C753 1.356 . S
N751 H756 0.984 . S
N751 H757 0.985 . S
C752 C746 1.379 . S
C752 C749 1.363 . S
C752 N750 1.356 . S
C753 C747 1.363 . S
C753 C748 1.379 . S
C753 N751 1.356 . S
N754 C746 1.356 . S
N754 H760 0.984 . S
N754 H761 0.984 . S
N755 C748 1.356 . S
N755 H758 0.984 . S
N755 H759 0.985 . S
H756 N751 0.984 . S
H757 N751 0.985 . S
H758 N755 0.984 . S
H759 N755 0.985 . S
H760 N754 0.984 . S
H761 N754 0.984 . S
H762 N750 0.984 . S
H763 N750 0.985 . S
C764 C765 1.363 . S
C764 C770 1.379 . S
C764 N772 1.356 . S
C765 C764 1.363 . S
C765 C771 1.363 . S
C766 C767 1.363 . S
C766 C771 1.379 . S
C766 N773 1.356 . S
C767 C766 1.363 . S
C767 C770 1.363 . S
N768 C770 1.356 . S
N768 H780 0.984 . S
N768 H781 0.985 . S
N769 C771 1.356 . S
N769 H774 0.984 . S
N769 H775 0.985 . S
C770 C764 1.379 . S
C770 C767 1.363 . S
C770 N768 1.356 . S
C771 C765 1.363 . S
C771 C766 1.379 . S
C771 N769 1.356 . S
N772 C764 1.356 . S
N772 H778 0.984 . S
N772 H779 0.984 . S
N773 C766 1.356 . S
N773 H776 0.984 . S
N773 H777 0.985 . S
H774 N769 0.984 . S
H775 N769 0.985 . S
H776 N773 0.984 . S
H777 N773 0.985 . S
H778 N772 0.984 . S
H779 N772 0.984 . S
H780 N768 0.984 . S
H781 N768 0.985 . S
C782 C783 1.363 . S
C782 C788 1.379 . S
C782 N790 1.356 . S
C783 C782 1.363 . S
C783 C789 1.363 . S
C784 C785 1.363 . S
C784 C789 1.379 . S
C784 N791 1.356 . S
C785 C784 1.363 . S
C785 C788 1.363 . S
N786 C788 1.356 . S
N786 H798 0.984 . S
N786 H799 0.985 . S
N787 C789 1.356 . S
N787 H792 0.984 . S
N787 H793 0.985 . S
C788 C782 1.379 . S
C788 C785 1.363 . S
C788 N786 1.356 . S
C789 C783 1.363 . S
C789 C784 1.379 . S
C789 N787 1.356 . S
N790 C782 1.356 . S
N790 H796 0.984 . S
N790 H797 0.984 . S
N791 C784 1.356 . S
N791 H794 0.984 . S
N791 H795 0.985 . S
H792 N787 0.984 . S
H793 N787 0.985 . S
H794 N791 0.984 . S
H795 N791 0.985 . S
H796 N790 0.984 . S
H797 N790 0.984 . S
H798 N786 0.984 . S
H799 N786 0.985 . S
C225 C6 1.603 . S
C227 C176 1.688 . S
C243 C190 1.688 . S
C245 C20 1.603 . S
C261 C34 1.603 . S
C263 C204 1.688 . S
C279 C218 1.688 . S
C281 C48 1.603 . S
C297 C118 1.603 . S
C299 C64 1.688 . S
C315 C78 1.688 . S
C317 C132 1.603 . S
C333 C146 1.603 . S
C335 C92 1.688 . S
C351 C106 1.688 . S
C353 C160 1.603 . S
C369 C7 1.617 . S
C371 C35 1.617 . S
C387 C21 1.617 . S
C389 C49 1.617 . S
C405 C63 1.423 . S
C407 C91 1.423 . S
C423 C77 1.423 . S
C425 C105 1.423 . S
C441 C147 1.617 . S
C443 C119 1.617 . S
C459 C133 1.617 . S
C461 C161 1.617 . S
C477 C203 1.423 . S
C479 C175 1.423 . S
C495 C189 1.423 . S
C497 C217 1.423 . S
C513 C93 1.571 . S
C515 C9 1.605 . S
C531 C107 1.571 1_455 S
C533 C23 1.605 . S
C549 C37 1.605 . S
C551 C65 1.571 . S
C567 C51 1.605 . S
C569 C79 1.571 1_455 S
C585 C205 1.571 1_655 S
C587 C121 1.605 . S
C603 C135 1.605 . S
C605 C219 1.571 . S
C621 C177 1.571 1_655 S
C623 C149 1.605 . S
C639 C163 1.605 . S
C641 C191 1.571 . S
C657 C8 1.600 . S
C659 C50 1.600 . S
C675 C36 1.600 . S
C677 C22 1.600 . S
C693 C62 1.515 . S
C695 C104 1.515 . S
C711 C76 1.515 . S
C713 C90 1.515 . S
C729 C162 1.600 . S
C731 C120 1.600 . S
C747 C134 1.600 . S
C749 C148 1.600 . S
C765 C216 1.515 . S
C767 C174 1.515 . S
C783 C188 1.515 . S
C785 C202 1.515 . S
