# Generated by pormake.
# Topology pbz, (3)-cn, num edge types: 1
# Building blocks:
#     Node 0, Type 0, BuildingBlock: OLANEW_clean_sbu_2, # of connection points: 3
#     Node 1, Type 0, BuildingBlock: OLANEW_clean_sbu_2, # of connection points: 3
#     Node 2, Type 0, BuildingBlock: OLANEW_clean_sbu_2, # of connection points: 3
#     Node 3, Type 0, BuildingBlock: OLANEW_clean_sbu_2, # of connection points: 3
#     Node 4, Type 0, BuildingBlock: OLANEW_clean_sbu_2, # of connection points: 3
#     Node 5, Type 0, BuildingBlock: OLANEW_clean_sbu_2, # of connection points: 3
#     Node 6, Type 0, BuildingBlock: OLANEW_clean_sbu_2, # of connection points: 3
#     Node 7, Type 0, BuildingBlock: OLANEW_clean_sbu_2, # of connection points: 3
#     Node 8, Type 0, BuildingBlock: OLANEW_clean_sbu_2, # of connection points: 3
#     Node 9, Type 0, BuildingBlock: OLANEW_clean_sbu_2, # of connection points: 3
#     Node 10, Type 0, BuildingBlock: OLANEW_clean_sbu_2, # of connection points: 3
#     Node 11, Type 0, BuildingBlock: OLANEW_clean_sbu_2, # of connection points: 3
#     Node 12, Type 0, BuildingBlock: OLANEW_clean_sbu_2, # of connection points: 3
#     Node 13, Type 0, BuildingBlock: OLANEW_clean_sbu_2, # of connection points: 3
#     Node 14, Type 0, BuildingBlock: OLANEW_clean_sbu_2, # of connection points: 3
#     Node 15, Type 0, BuildingBlock: OLANEW_clean_sbu_2, # of connection points: 3
#     Node 16, Type 0, BuildingBlock: OLANEW_clean_sbu_2, # of connection points: 3
#     Node 17, Type 0, BuildingBlock: OLANEW_clean_sbu_2, # of connection points: 3
#     Node 18, Type 0, BuildingBlock: OLANEW_clean_sbu_2, # of connection points: 3
#     Node 19, Type 0, BuildingBlock: OLANEW_clean_sbu_2, # of connection points: 3
#     Node 20, Type 0, BuildingBlock: OLANEW_clean_sbu_2, # of connection points: 3
#     Node 21, Type 0, BuildingBlock: OLANEW_clean_sbu_2, # of connection points: 3
#     Node 22, Type 0, BuildingBlock: OLANEW_clean_sbu_2, # of connection points: 3
#     Node 23, Type 0, BuildingBlock: OLANEW_clean_sbu_2, # of connection points: 3
#     Edge 24, Type (0, 0), BuildingBlock: TEMPAE_clean_linker_10, # of connection points: 2
#     Edge 25, Type (0, 0), BuildingBlock: TEMPAE_clean_linker_10, # of connection points: 2
#     Edge 26, Type (0, 0), BuildingBlock: TEMPAE_clean_linker_10, # of connection points: 2
#     Edge 27, Type (0, 0), BuildingBlock: TEMPAE_clean_linker_10, # of connection points: 2
#     Edge 28, Type (0, 0), BuildingBlock: TEMPAE_clean_linker_10, # of connection points: 2
#     Edge 29, Type (0, 0), BuildingBlock: TEMPAE_clean_linker_10, # of connection points: 2
#     Edge 30, Type (0, 0), BuildingBlock: TEMPAE_clean_linker_10, # of connection points: 2
#     Edge 31, Type (0, 0), BuildingBlock: TEMPAE_clean_linker_10, # of connection points: 2
#     Edge 32, Type (0, 0), BuildingBlock: TEMPAE_clean_linker_10, # of connection points: 2
#     Edge 33, Type (0, 0), BuildingBlock: TEMPAE_clean_linker_10, # of connection points: 2
#     Edge 34, Type (0, 0), BuildingBlock: TEMPAE_clean_linker_10, # of connection points: 2
#     Edge 35, Type (0, 0), BuildingBlock: TEMPAE_clean_linker_10, # of connection points: 2
#     Edge 36, Type (0, 0), BuildingBlock: TEMPAE_clean_linker_10, # of connection points: 2
#     Edge 37, Type (0, 0), BuildingBlock: TEMPAE_clean_linker_10, # of connection points: 2
#     Edge 38, Type (0, 0), BuildingBlock: TEMPAE_clean_linker_10, # of connection points: 2
#     Edge 39, Type (0, 0), BuildingBlock: TEMPAE_clean_linker_10, # of connection points: 2
#     Edge 40, Type (0, 0), BuildingBlock: TEMPAE_clean_linker_10, # of connection points: 2
#     Edge 41, Type (0, 0), BuildingBlock: TEMPAE_clean_linker_10, # of connection points: 2
#     Edge 42, Type (0, 0), BuildingBlock: TEMPAE_clean_linker_10, # of connection points: 2
#     Edge 43, Type (0, 0), BuildingBlock: TEMPAE_clean_linker_10, # of connection points: 2
#     Edge 44, Type (0, 0), BuildingBlock: TEMPAE_clean_linker_10, # of connection points: 2
#     Edge 45, Type (0, 0), BuildingBlock: TEMPAE_clean_linker_10, # of connection points: 2
#     Edge 46, Type (0, 0), BuildingBlock: TEMPAE_clean_linker_10, # of connection points: 2
#     Edge 47, Type (0, 0), BuildingBlock: TEMPAE_clean_linker_10, # of connection points: 2
#     Edge 48, Type (0, 0), BuildingBlock: TEMPAE_clean_linker_10, # of connection points: 2
#     Edge 49, Type (0, 0), BuildingBlock: TEMPAE_clean_linker_10, # of connection points: 2
#     Edge 50, Type (0, 0), BuildingBlock: TEMPAE_clean_linker_10, # of connection points: 2
#     Edge 51, Type (0, 0), BuildingBlock: TEMPAE_clean_linker_10, # of connection points: 2
#     Edge 52, Type (0, 0), BuildingBlock: TEMPAE_clean_linker_10, # of connection points: 2
#     Edge 53, Type (0, 0), BuildingBlock: TEMPAE_clean_linker_10, # of connection points: 2
#     Edge 54, Type (0, 0), BuildingBlock: TEMPAE_clean_linker_10, # of connection points: 2
#     Edge 55, Type (0, 0), BuildingBlock: TEMPAE_clean_linker_10, # of connection points: 2
#     Edge 56, Type (0, 0), BuildingBlock: TEMPAE_clean_linker_10, # of connection points: 2
#     Edge 57, Type (0, 0), BuildingBlock: TEMPAE_clean_linker_10, # of connection points: 2
#     Edge 58, Type (0, 0), BuildingBlock: TEMPAE_clean_linker_10, # of connection points: 2
#     Edge 59, Type (0, 0), BuildingBlock: TEMPAE_clean_linker_10, # of connection points: 2
# Relax obj value: 0.055
# Max RMSD: 0.148
# Mean RMSD: 0.109
data_MOF--net-pbz--node1-OLANEW_clean_sbu_2--edge1-TEMPAE_clean_linker_10
_symmetry_space_group_name_H-M    P1
_symmetry_Int_Tables_number       1
_symmetry_cell_setting            triclinic
loop_
_symmetry_equiv_pos_as_xyz
'x, y, z'
_cell_length_a     67.376836
_cell_length_b     65.720859
_cell_length_c     64.395725
_cell_angle_alpha  90.790039
_cell_angle_beta   89.955423
_cell_angle_gamma 94.670683
loop_
_atom_site_label
_atom_site_type_symbol
_atom_site_fract_x
_atom_site_fract_y
_atom_site_fract_z
_atom_type_partial_charge
O0 O 0.04125 0.21905 0.78404 0.0
Cd1 Cd 0.03782 0.18483 0.76837 0.0
O2 O 0.01777 0.21107 0.80696 0.0
Cd3 Cd 0.00783 0.18277 0.79067 0.0
O4 O 0.98908 0.17143 0.76471 0.0
C5 C 0.98921 0.18366 0.74959 0.0
O6 O 0.00105 0.20057 0.75061 0.0
C7 C 0.03119 0.22386 0.79984 0.0
C8 C 0.06898 0.16179 0.77958 0.0
O9 O 0.06922 0.17109 0.76221 0.0
O10 O 0.05403 0.16339 0.79163 0.0
O11 O 0.93364 0.5347 0.23951 0.0
Cd12 Cd 0.90267 0.51264 0.24013 0.0
O13 O 0.95277 0.51003 0.24638 0.0
Cd14 Cd 0.92666 0.49022 0.2552 0.0
O15 O 0.90076 0.49068 0.27553 0.0
C16 C 0.90299 0.50425 0.28977 0.0
O17 O 0.92025 0.51504 0.29131 0.0
C18 C 0.95094 0.52855 0.24176 0.0
C19 C 0.88899 0.50216 0.20028 0.0
O20 O 0.88208 0.51694 0.21044 0.0
O21 O 0.90234 0.49236 0.20897 0.0
O22 O 0.52586 0.32906 0.7647 0.0
Cd23 Cd 0.51998 0.34484 0.73139 0.0
O24 O 0.49439 0.32656 0.77417 0.0
Cd25 Cd 0.48383 0.34416 0.74847 0.0
O26 O 0.46475 0.36531 0.73405 0.0
C27 C 0.47146 0.38096 0.72408 0.0
O28 O 0.49077 0.3843 0.72135 0.0
C29 C 0.5124 0.32319 0.77763 0.0
C30 C 0.55362 0.34216 0.70651 0.0
O31 O 0.53954 0.32781 0.70644 0.0
O32 O 0.55155 0.35793 0.71801 0.0
O33 O 0.82511 0.02471 0.20435 0.0
Cd34 Cd 0.80657 0.01995 0.17182 0.0
O35 O 0.79761 0.01342 0.21992 0.0
Cd36 Cd 0.7789 0.00315 0.24615 0.0
O37 O 0.7586 0.9941 0.2714 0.0
C38 C 0.7525 0.00758 0.28364 0.0
O39 O 0.75873 0.02683 0.28088 0.0
C40 C 0.81579 0.02031 0.22105 0.0
C41 C 0.81217 0.05365 0.146 0.0
O42 O 0.79852 0.05269 0.15991 0.0
O43 O 0.8232 0.03871 0.1444 0.0
O44 O 0.03287 0.37441 0.86856 0.0
Cd45 Cd 0.0271 0.40724 0.88471 0.0
O46 O 0.01346 0.3789 0.84185 0.0
Cd47 Cd 0.00238 0.40645 0.85534 0.0
O48 O 0.98163 0.42294 0.87393 0.0
C49 C 0.97636 0.41476 0.89105 0.0
O50 O 0.98434 0.39804 0.89651 0.0
C51 C 0.02545 0.36818 0.85123 0.0
C52 C 0.05942 0.43568 0.87829 0.0
O53 O 0.04487 0.43379 0.86542 0.0
O54 O 0.05859 0.42418 0.89424 0.0
O55 O 0.78759 0.55363 0.39029 0.0
Cd56 Cd 0.76679 0.57073 0.41494 0.0
O57 O 0.78386 0.57448 0.36443 0.0
Cd58 Cd 0.76162 0.59155 0.38013 0.0
O59 O 0.73686 0.6107 0.38427 0.0
C60 C 0.71962 0.60353 0.3785 0.0
O61 O 0.71732 0.58468 0.37132 0.0
C62 C 0.79176 0.55925 0.3719 0.0
C63 C 0.76415 0.54783 0.45104 0.0
O64 O 0.74995 0.54648 0.43774 0.0
O65 O 0.77932 0.56036 0.44754 0.0
O66 O 0.54087 0.23232 0.91074 0.0
Cd67 Cd 0.54343 0.21152 0.94166 0.0
O68 O 0.53809 0.26107 0.92801 0.0
Cd69 Cd 0.53432 0.2448 0.95724 0.0
O70 O 0.51751 0.2227 0.97686 0.0
C71 C 0.50284 0.21319 0.96759 0.0
O72 O 0.49957 0.21747 0.94807 0.0
C73 C 0.53952 0.25152 0.91081 0.0
C74 C 0.58274 0.21233 0.95544 0.0
O75 O 0.57572 0.19876 0.94233 0.0
O76 O 0.57111 0.22546 0.96211 0.0
O77 O 0.91609 0.08149 0.41978 0.0
Cd78 Cd 0.92479 0.06278 0.38825 0.0
O79 O 0.89645 0.05677 0.43344 0.0
Cd80 Cd 0.89501 0.03982 0.40406 0.0
O81 O 0.88532 0.03092 0.37263 0.0
C82 C 0.88338 0.04516 0.35981 0.0
O83 O 0.88789 0.06414 0.36589 0.0
C84 C 0.90541 0.07453 0.43479 0.0
C85 C 0.95023 0.03204 0.39557 0.0
O86 O 0.95708 0.05073 0.39398 0.0
O87 O 0.93139 0.02789 0.39381 0.0
O88 O 0.3189 0.68804 0.1355 0.0
Cd89 Cd 0.29782 0.65641 0.12965 0.0
O90 O 0.33627 0.67608 0.16083 0.0
Cd91 Cd 0.31618 0.64837 0.1618 0.0
O92 O 0.28591 0.63667 0.16956 0.0
C93 C 0.28159 0.63355 0.18851 0.0
O94 O 0.29594 0.63548 0.20238 0.0
C95 C 0.33295 0.69055 0.14871 0.0
C96 C 0.28503 0.65305 0.08853 0.0
O97 O 0.27496 0.66199 0.10232 0.0
O98 O 0.3011 0.64556 0.09426 0.0
O99 O 0.21514 0.83337 0.66555 0.0
Cd100 Cd 0.18805 0.84906 0.68318 0.0
O101 O 0.21026 0.85285 0.63914 0.0
Cd102 Cd 0.21169 0.86411 0.60735 0.0
O103 O 0.20033 0.87539 0.57833 0.0
C104 C 0.19311 0.86241 0.565 0.0
O105 O 0.19388 0.84288 0.56874 0.0
C106 C 0.21971 0.83897 0.64723 0.0
C107 C 0.20091 0.88604 0.70234 0.0
O108 O 0.20088 0.86916 0.71208 0.0
O109 O 0.19487 0.88541 0.68345 0.0
O110 O 0.37483 0.70056 0.58999 0.0
Cd111 Cd 0.37413 0.73502 0.57633 0.0
O112 O 0.34669 0.68943 0.57487 0.0
Cd113 Cd 0.33934 0.71984 0.56581 0.0
O114 O 0.32122 0.74578 0.56947 0.0
C115 C 0.32548 0.75888 0.58381 0.0
O116 O 0.34156 0.75724 0.59501 0.0
C117 C 0.36182 0.686 0.58569 0.0
C118 C 0.40253 0.7414 0.54508 0.0
O119 O 0.40686 0.74569 0.56411 0.0
O120 O 0.38468 0.73433 0.54083 0.0
O121 O 0.43832 0.90279 0.20711 0.0
Cd122 Cd 0.41058 0.89409 0.18317 0.0
O123 O 0.42342 0.88406 0.2315 0.0
Cd124 Cd 0.40114 0.8686 0.21097 0.0
O125 O 0.38544 0.84203 0.19596 0.0
C126 C 0.395 0.83123 0.18354 0.0
O127 O 0.41363 0.83715 0.17924 0.0
C128 C 0.43766 0.89661 0.22576 0.0
C129 C 0.40631 0.92384 0.15337 0.0
O130 O 0.40012 0.92617 0.172 0.0
O131 O 0.41465 0.90751 0.14879 0.0
O132 O 0.08636 0.88788 0.44836 0.0
Cd133 Cd 0.06119 0.88376 0.42092 0.0
O134 O 0.11177 0.89299 0.4271 0.0
Cd135 Cd 0.09369 0.88575 0.39951 0.0
O136 O 0.08784 0.86346 0.3744 0.0
C137 C 0.08335 0.8451 0.37971 0.0
O138 O 0.08094 0.84114 0.39955 0.0
C139 C 0.10497 0.89168 0.4455 0.0
C140 C 0.03919 0.9177 0.41682 0.0
O141 O 0.03462 0.90413 0.4305 0.0
O142 O 0.05429 0.91533 0.40517 0.0
O143 O 0.24389 0.63285 0.87334 0.0
Cd144 Cd 0.22657 0.65337 0.89834 0.0
O145 O 0.21841 0.61018 0.87514 0.0
Cd146 Cd 0.19954 0.58198 0.86951 0.0
O147 O 0.17502 0.55819 0.86992 0.0
C148 C 0.17562 0.54105 0.86069 0.0
O149 O 0.19167 0.53724 0.8502 0.0
C150 C 0.23526 0.61588 0.86732 0.0
C151 C 0.24085 0.65114 0.93878 0.0
O152 O 0.22699 0.63826 0.93194 0.0
O153 O 0.24808 0.66493 0.92638 0.0
O154 O 0.58314 0.75341 0.35652 0.0
Cd155 Cd 0.57611 0.71722 0.34795 0.0
O156 O 0.55634 0.75113 0.37581 0.0
Cd157 Cd 0.53501 0.76113 0.39866 0.0
O158 O 0.51256 0.76353 0.42286 0.0
C159 C 0.50837 0.74786 0.43387 0.0
O160 O 0.51778 0.73143 0.43024 0.0
C161 C 0.57126 0.76188 0.36857 0.0
C162 C 0.60787 0.69414 0.35714 0.0
O163 O 0.60636 0.70235 0.33933 0.0
O164 O 0.59437 0.69695 0.37069 0.0
O165 O 0.40612 0.08703 0.01593 0.0
Cd166 Cd 0.38076 0.05821 0.01443 0.0
O167 O 0.3861 0.11046 0.02485 0.0
Cd168 Cd 0.3595 0.08968 0.02026 0.0
O169 O 0.33473 0.08004 -0.0004 0.0
C170 C 0.32685 0.09428 0.99026 0.0
O171 O 0.3333 0.11329 0.99455 0.0
C172 C 0.40353 0.10544 0.02083 0.0
C173 C 0.38638 0.02966 0.04508 0.0
O174 O 0.39686 0.03027 0.02846 0.0
O175 O 0.37321 0.04253 0.04729 0.0
O176 O 0.13171 0.65173 0.24179 0.0
Cd177 Cd 0.09992 0.66334 0.25316 0.0
O178 O 0.14518 0.68329 0.24 0.0
Cd179 Cd 0.12006 0.69799 0.25328 0.0
O180 O 0.10583 0.72055 0.27212 0.0
C181 C 0.11754 0.73123 0.28419 0.0
O182 O 0.13646 0.72769 0.28439 0.0
C183 C 0.1465 0.66422 0.23747 0.0
C184 C 0.06916 0.63258 0.24903 0.0
O185 O 0.07439 0.6441 0.23374 0.0
O186 O 0.07849 0.63564 0.26628 0.0
O187 O 0.35486 0.54277 0.66788 0.0
Cd188 Cd 0.3457 0.51352 0.68995 0.0
O189 O 0.33997 0.5632 0.6891 0.0
Cd190 Cd 0.3296 0.5419 0.71326 0.0
O191 O 0.31219 0.54371 0.74179 0.0
C192 C 0.30282 0.55973 0.7427 0.0
O193 O 0.30418 0.5722 0.72688 0.0
C194 C 0.34971 0.56045 0.67251 0.0
C195 C 0.3756 0.48678 0.69374 0.0
O196 O 0.363 0.48479 0.67881 0.0
O197 O 0.37421 0.50157 0.70671 0.0
O198 O 0.61318 0.91636 0.41736 0.0
Cd199 Cd 0.62345 0.95236 0.4238 0.0
O200 O 0.59712 0.92563 0.38996 0.0
Cd201 Cd 0.57716 0.92131 0.36316 0.0
O202 O 0.5565 0.91655 0.33711 0.0
C203 C 0.54525 0.93038 0.33233 0.0
O204 O 0.54641 0.94751 0.34318 0.0
C205 C 0.6025 0.9115 0.40152 0.0
C206 C 0.65173 0.96624 0.39453 0.0
O207 O 0.657 0.95903 0.4119 0.0
O208 O 0.63307 0.96709 0.39114 0.0
O209 O 0.22807 0.05923 0.85943 0.0
Cd210 Cd 0.21047 0.0504 0.82686 0.0
O211 O 0.25725 0.05889 0.8441 0.0
Cd212 Cd 0.24478 0.04674 0.81482 0.0
O213 O 0.23361 0.02453 0.7913 0.0
C214 C 0.24602 0.01538 0.78049 0.0
O215 O 0.26514 0.02038 0.78312 0.0
C216 C 0.24699 0.06185 0.8603 0.0
C217 C 0.17989 0.07523 0.81841 0.0
O218 O 0.17619 0.05774 0.82675 0.0
O219 O 0.19806 0.08107 0.81425 0.0
O220 O 0.85669 0.45313 0.99124 0.0
Cd221 Cd 0.82849 0.45427 0.01501 0.0
O222 O 0.84012 0.4321 0.96939 0.0
Cd223 Cd 0.81577 0.42362 0.99076 0.0
O224 O 0.804 0.3949 0.00446 0.0
C225 C 0.79624 0.3814 0.99194 0.0
O226 O 0.79389 0.38635 0.97244 0.0
C227 C 0.85575 0.44342 0.97401 0.0
C228 C 0.84101 0.46452 0.05534 0.0
O229 O 0.83908 0.47833 0.0418 0.0
O230 O 0.83697 0.44582 0.04984 0.0
O231 O 0.88777 0.18093 0.62074 0.0
Cd232 Cd 0.86895 0.19049 0.59053 0.0
O233 O 0.87088 0.19748 0.64385 0.0
Cd234 Cd 0.85002 0.2101 0.62252 0.0
O235 O 0.82945 0.23328 0.61591 0.0
C236 C 0.8307 0.24427 0.59981 0.0
O237 O 0.84424 0.24098 0.58573 0.0
C238 C 0.88488 0.1863 0.63947 0.0
C239 C 0.87687 0.1652 0.5569 0.0
O240 O 0.88898 0.18048 0.56202 0.0
O241 O 0.86083 0.16197 0.56749 0.0
O242 O 0.77127 0.39075 0.59738 0.0
Cd243 Cd 0.75186 0.42049 0.60089 0.0
O244 O 0.74182 0.37468 0.60006 0.0
Cd245 Cd 0.71828 0.35029 0.60481 0.0
O246 O 0.68825 0.34114 0.61576 0.0
C247 C 0.68562 0.33561 0.63446 0.0
O248 O 0.70127 0.33404 0.64632 0.0
C249 C 0.76053 0.37396 0.59805 0.0
C250 C 0.75707 0.44834 0.56879 0.0
O251 O 0.76613 0.45165 0.58616 0.0
O252 O 0.74582 0.43178 0.56651 0.0
O253 O 0.8326 0.23029 0.0168 0.0
Cd254 Cd 0.8437 0.19598 0.01277 0.0
O255 O 0.80167 0.21951 0.0097 0.0
Cd256 Cd 0.77078 0.22309 0.00093 0.0
O257 O 0.73978 0.22465 0.99169 0.0
C258 C 0.72602 0.21515 0.00211 0.0
O259 O 0.73086 0.20479 0.0184 0.0
C260 C 0.81465 0.23417 0.01385 0.0
C261 C 0.83358 0.16907 0.04485 0.0
O262 O 0.8495 0.18115 0.04573 0.0
O263 O 0.82219 0.17011 0.02902 0.0
C264 C 0.01931 0.33975 0.8252 0.0
C265 C 0.02966 0.3479 0.84271 0.0
C266 C 0.02157 0.31977 0.81819 0.0
C267 C 0.03461 0.30767 0.82885 0.0
C268 C 0.04577 0.31608 0.84596 0.0
C269 C 0.04311 0.33608 0.85274 0.0
C270 C 0.00938 0.31134 0.79988 0.0
C271 C 0.05996 0.30371 0.85758 0.0
C272 C 0.02123 0.2506 0.82489 0.0
C273 C 0.03379 0.2448 0.80884 0.0
C274 C 0.02183 0.27091 0.83199 0.0
C275 C 0.03539 0.2858 0.82292 0.0
C276 C 0.04873 0.27992 0.80738 0.0
C277 C 0.04774 0.25948 0.80048 0.0
C278 C 0.00734 0.27656 0.84861 0.0
C279 C 0.06353 0.29534 0.7975 0.0
H280 H 0.00892 0.34875 0.81731 0.0
H281 H 0.05127 0.34228 0.86621 0.0
H282 H 0.01918 0.30505 0.78797 0.0
H283 H 0.99875 0.29862 0.80502 0.0
H284 H 0.00082 0.32308 0.79255 0.0
H285 H 0.06888 0.31306 0.86928 0.0
H286 H 0.05145 0.29101 0.86567 0.0
H287 H 0.07027 0.2968 0.84659 0.0
H288 H 0.01043 0.23939 0.83151 0.0
H289 H 0.05756 0.25515 0.78813 0.0
H290 H 0.99691 0.28706 0.84213 0.0
H291 H 0.01543 0.28476 0.86163 0.0
H292 H 0.99851 0.263 0.85487 0.0
H293 H 0.05548 0.30622 0.78831 0.0
H294 H 0.07408 0.28803 0.78706 0.0
H295 H 0.07217 0.30435 0.80962 0.0
C296 C 0.81218 0.55572 0.33975 0.0
C297 C 0.80643 0.54863 0.35948 0.0
C298 C 0.82706 0.54676 0.32843 0.0
C299 C 0.83639 0.53027 0.337 0.0
C300 C 0.8302 0.52256 0.35658 0.0
C301 C 0.81531 0.53186 0.36761 0.0
C302 C 0.83328 0.55543 0.30759 0.0
C303 C 0.83975 0.50493 0.36617 0.0
C304 C 0.86691 0.49995 0.29982 0.0
C305 C 0.88612 0.50937 0.30307 0.0
C306 C 0.85059 0.50616 0.3112 0.0
C307 C 0.8536 0.52215 0.32611 0.0
C308 C 0.87305 0.53121 0.32993 0.0
C309 C 0.88906 0.5247 0.31839 0.0
C310 C 0.83006 0.49606 0.30681 0.0
C311 C 0.87689 0.54828 0.34573 0.0
H312 H 0.80536 0.56861 0.33329 0.0
H313 H 0.81091 0.52619 0.3828 0.0
H314 H 0.84892 0.56211 0.30841 0.0
H315 H 0.83263 0.54313 0.29558 0.0
H316 H 0.82373 0.56746 0.30254 0.0
H317 H 0.83215 0.49968 0.38068 0.0
H318 H 0.83957 0.49189 0.35503 0.0
H319 H 0.85558 0.50959 0.36983 0.0
H320 H 0.86452 0.48807 0.28804 0.0
H321 H 0.90385 0.532 0.32109 0.0
H322 H 0.82061 0.50731 0.29999 0.0
H323 H 0.82284 0.49072 0.32145 0.0
H324 H 0.83043 0.48287 0.29588 0.0
H325 H 0.86915 0.56174 0.34095 0.0
H326 H 0.893 0.55303 0.34755 0.0
H327 H 0.8708 0.54349 0.36107 0.0
C328 C 0.53764 0.31085 0.8021 0.0
C329 C 0.51764 0.31261 0.79682 0.0
C330 C 0.54272 0.30118 0.82045 0.0
C331 C 0.52745 0.29297 0.83374 0.0
C332 C 0.50726 0.29456 0.82842 0.0
C333 C 0.50261 0.30441 0.81008 0.0
C334 C 0.56442 0.29983 0.82566 0.0
C335 C 0.49054 0.28586 0.84213 0.0
C336 C 0.53716 0.2515 0.87201 0.0
C337 C 0.53833 0.26244 0.8909 0.0
C338 C 0.53419 0.26134 0.85319 0.0
C339 C 0.53246 0.28266 0.85325 0.0
C340 C 0.53437 0.29392 0.87214 0.0
C341 C 0.53723 0.28367 0.89075 0.0
C342 C 0.53218 0.2488 0.83336 0.0
C343 C 0.53278 0.31671 0.87278 0.0
H344 H 0.54936 0.31718 0.79199 0.0
H345 H 0.48712 0.30563 0.80613 0.0
H346 H 0.56791 0.30749 0.84084 0.0
H347 H 0.56758 0.28362 0.82719 0.0
H348 H 0.5745 0.307 0.81369 0.0
H349 H 0.47562 0.28821 0.83568 0.0
H350 H 0.49164 0.26925 0.84412 0.0
H351 H 0.4918 0.29312 0.85779 0.0
H352 H 0.53801 0.23511 0.87194 0.0
H353 H 0.53821 0.29228 0.90525 0.0
H354 H 0.54267 0.25532 0.82146 0.0
H355 H 0.51691 0.24925 0.82704 0.0
H356 H 0.53509 0.23261 0.83577 0.0
H357 H 0.54326 0.32435 0.86149 0.0
H358 H 0.53599 0.32343 0.88846 0.0
H359 H 0.51753 0.32008 0.8682 0.0
C360 C 0.86743 0.02082 0.33323 0.0
C361 C 0.87498 0.04067 0.33883 0.0
C362 C 0.8583 0.01673 0.31385 0.0
C363 C 0.8568 0.03284 0.29971 0.0
C364 C 0.86484 0.05278 0.30506 0.0
C365 C 0.87379 0.05646 0.32456 0.0
C366 C 0.84986 0.99527 0.30869 0.0
C367 C 0.86363 0.07035 0.29035 0.0
C368 C 0.84659 0.02076 0.24263 0.0
C369 C 0.82612 0.02302 0.24128 0.0
C370 C 0.85675 0.02365 0.26161 0.0
C371 C 0.84619 0.02904 0.27961 0.0
C372 C 0.82553 0.03141 0.2783 0.0
C373 C 0.81578 0.02852 0.25911 0.0
C374 C 0.87881 0.02111 0.26237 0.0
C375 C 0.81377 0.03727 0.29713 0.0
H376 H 0.86828 0.00853 0.34416 0.0
H377 H 0.87967 0.07182 0.3287 0.0
H378 H 0.8335 0.99503 0.30655 0.0
H379 H 0.85621 0.98999 0.29385 0.0
H380 H 0.85294 0.9843 0.32103 0.0
H381 H 0.87135 0.08476 0.29651 0.0
H382 H 0.87035 0.06664 0.27516 0.0
H383 H 0.84781 0.07292 0.28744 0.0
H384 H 0.85466 0.01664 0.22883 0.0
H385 H 0.80018 0.03118 0.25798 0.0
H386 H 0.8819 0.00942 0.27394 0.0
H387 H 0.887 0.03565 0.26743 0.0
H388 H 0.88476 0.01649 0.24707 0.0
H389 H 0.81496 0.02586 0.3095 0.0
H390 H 0.79777 0.03834 0.29354 0.0
H391 H 0.82001 0.05223 0.30346 0.0
C392 C 0.3407 0.72671 0.13759 0.0
C393 C 0.34421 0.71079 0.15109 0.0
C394 C 0.34957 0.74654 0.141 0.0
C395 C 0.36218 0.75058 0.15839 0.0
C396 C 0.3664 0.73444 0.17161 0.0
C397 C 0.35741 0.71473 0.16777 0.0
C398 C 0.34488 0.76332 0.12644 0.0
C399 C 0.37978 0.73815 0.19032 0.0
C400 C 0.39662 0.79923 0.16224 0.0
C401 C 0.38594 0.8113 0.17568 0.0
C402 C 0.38887 0.77961 0.15603 0.0
C403 C 0.37004 0.77186 0.16351 0.0
C404 C 0.35895 0.78418 0.17662 0.0
C405 C 0.367 0.80376 0.18249 0.0
C406 C 0.40105 0.76698 0.14188 0.0
C407 C 0.33879 0.77645 0.18492 0.0
H408 H 0.3306 0.7238 0.12459 0.0
H409 H 0.36024 0.70256 0.17828 0.0
H410 H 0.3362 0.77449 0.13482 0.0
H411 H 0.35882 0.77169 0.12096 0.0
H412 H 0.33614 0.75736 0.11272 0.0
H413 H 0.38246 0.72379 0.19837 0.0
H414 H 0.39433 0.74582 0.18563 0.0
H415 H 0.37291 0.74848 0.20152 0.0
H416 H 0.41123 0.80495 0.15683 0.0
H417 H 0.35862 0.81298 0.19285 0.0
H418 H 0.39209 0.76146 0.12818 0.0
H419 H 0.40528 0.75331 0.15022 0.0
H420 H 0.41484 0.77568 0.13639 0.0
H421 H 0.32866 0.77151 0.17191 0.0
H422 H 0.33177 0.7882 0.19434 0.0
H423 H 0.34033 0.76292 0.19474 0.0
C424 C 0.31537 0.78748 0.6065 0.0
C425 C 0.31116 0.77393 0.58976 0.0
C426 C 0.30093 0.79986 0.61419 0.0
C427 C 0.28182 0.79865 0.60493 0.0
C428 C 0.27785 0.78589 0.58728 0.0
C429 C 0.29257 0.77369 0.57989 0.0
C430 C 0.30581 0.81337 0.63295 0.0
C431 C 0.25768 0.78426 0.57691 0.0
C432 C 0.23895 0.80873 0.6408 0.0
C433 C 0.23513 0.82869 0.63563 0.0
C434 C 0.25388 0.79874 0.63067 0.0
C435 C 0.26543 0.809 0.61505 0.0
C436 C 0.26161 0.82913 0.60965 0.0
C437 C 0.24651 0.83878 0.62006 0.0
C438 C 0.25743 0.77725 0.63688 0.0
C439 C 0.27371 0.8406 0.59319 0.0
H440 H 0.32973 0.7879 0.61413 0.0
H441 H 0.28921 0.76337 0.56686 0.0
H442 H 0.30145 0.82904 0.63025 0.0
H443 H 0.29719 0.8073 0.64653 0.0
H444 H 0.3219 0.81427 0.63692 0.0
H445 H 0.25765 0.77544 0.56207 0.0
H446 H 0.24649 0.77656 0.58745 0.0
H447 H 0.25285 0.79966 0.57378 0.0
H448 H 0.23019 0.80085 0.65282 0.0
H449 H 0.24407 0.85441 0.61644 0.0
H450 H 0.27281 0.77684 0.64293 0.0
H451 H 0.25601 0.76688 0.62312 0.0
H452 H 0.24683 0.77125 0.64897 0.0
H453 H 0.28948 0.84303 0.59825 0.0
H454 H 0.26813 0.85569 0.58996 0.0
H455 H 0.27347 0.83151 0.57853 0.0
C456 C 0.08103 0.80783 0.3708 0.0
C457 C 0.08383 0.82816 0.36433 0.0
C458 C 0.08427 0.79161 0.35715 0.0
C459 C 0.09039 0.79581 0.33652 0.0
C460 C 0.09208 0.81621 0.32953 0.0
C461 C 0.08878 0.83216 0.34353 0.0
C462 C 0.08225 0.77005 0.36518 0.0
C463 C 0.09846 0.8213 0.3076 0.0
C464 C 0.12362 0.75897 0.31084 0.0
C465 C 0.1103 0.74759 0.29758 0.0
C466 C 0.11727 0.77467 0.32353 0.0
C467 C 0.09709 0.77916 0.32299 0.0
C468 C 0.08351 0.76773 0.3097 0.0
C469 C 0.09028 0.75205 0.29714 0.0
C470 C 0.13222 0.78646 0.33754 0.0
C471 C 0.06189 0.7721 0.30874 0.0
H472 H 0.07707 0.80457 0.3868 0.0
H473 H 0.09084 0.84781 0.33834 0.0
H474 H 0.07318 0.75984 0.35436 0.0
H475 H 0.09719 0.76417 0.36615 0.0
H476 H 0.07529 0.76915 0.38082 0.0
H477 H 0.09691 0.83757 0.30394 0.0
H478 H 0.11428 0.8182 0.30546 0.0
H479 H 0.08953 0.81153 0.29628 0.0
H480 H 0.1391 0.75565 0.31131 0.0
H481 H 0.0799 0.74333 0.28693 0.0
H482 H 0.12738 0.78504 0.35396 0.0
H483 H 0.13307 0.80292 0.33372 0.0
H484 H 0.14736 0.78105 0.33612 0.0
H485 H 0.05501 0.77031 0.32434 0.0
H486 H 0.05323 0.76183 0.29759 0.0
H487 H 0.06067 0.78814 0.30408 0.0
C488 C 0.28271 0.58372 0.76238 0.0
C489 C 0.29155 0.56513 0.7615 0.0
C490 C 0.27296 0.5899 0.78033 0.0
C491 C 0.27187 0.57713 0.79788 0.0
C492 C 0.28026 0.55806 0.79696 0.0
C493 C 0.29008 0.5523 0.77877 0.0
C494 C 0.26426 0.61038 0.78067 0.0
C495 C 0.27921 0.54398 0.81531 0.0
C496 C 0.2654 0.60604 0.8484 0.0
C497 C 0.24469 0.60368 0.85112 0.0
C498 C 0.27457 0.59655 0.83173 0.0
C499 C 0.26275 0.5844 0.81738 0.0
C500 C 0.24193 0.58119 0.82056 0.0
C501 C 0.23313 0.59103 0.83729 0.0
C502 C 0.2968 0.60043 0.82888 0.0
C503 C 0.22881 0.5683 0.80564 0.0
H504 H 0.2837 0.59373 0.74912 0.0
H505 H 0.29681 0.53787 0.77819 0.0
H506 H 0.24822 0.60847 0.78475 0.0
H507 H 0.27182 0.62042 0.79275 0.0
H508 H 0.26583 0.6182 0.7655 0.0
H509 H 0.28534 0.52915 0.81167 0.0
H510 H 0.28771 0.55136 0.82851 0.0
H511 H 0.26355 0.54101 0.8205 0.0
H512 H 0.27443 0.61579 0.85905 0.0
H513 H 0.2171 0.58965 0.83879 0.0
H514 H 0.29991 0.60969 0.81479 0.0
H515 H 0.30369 0.58581 0.82651 0.0
H516 H 0.30408 0.60867 0.84238 0.0
H517 H 0.22768 0.57652 0.79081 0.0
H518 H 0.21354 0.56487 0.8119 0.0
H519 H 0.23535 0.5537 0.80207 0.0
C520 C 0.59432 0.87571 0.41311 0.0
C521 C 0.59653 0.88975 0.3969 0.0
C522 C 0.58951 0.85485 0.40904 0.0
C523 C 0.5869 0.84787 0.38825 0.0
C524 C 0.58899 0.86199 0.37183 0.0
C525 C 0.594 0.88273 0.37635 0.0
C526 C 0.58753 0.84024 0.42696 0.0
C527 C 0.58639 0.85514 0.34945 0.0
C528 C 0.59473 0.79256 0.37527 0.0
C529 C 0.57511 0.78372 0.37421 0.0
C530 C 0.59877 0.81337 0.38006 0.0
C531 C 0.58278 0.82569 0.38362 0.0
C532 C 0.56292 0.81686 0.38247 0.0
C533 C 0.55932 0.79596 0.37774 0.0
C534 C 0.62016 0.82219 0.38126 0.0
C535 C 0.54549 0.82956 0.38588 0.0
H536 H 0.5964 0.88105 0.42903 0.0
H537 H 0.59661 0.89329 0.36372 0.0
H538 H 0.57266 0.83164 0.42661 0.0
H539 H 0.59881 0.82892 0.42549 0.0
H540 H 0.5895 0.84819 0.44225 0.0
H541 H 0.58718 0.8682 0.33862 0.0
H542 H 0.59815 0.845 0.34513 0.0
H543 H 0.57183 0.8462 0.34732 0.0
H544 H 0.60697 0.78314 0.37247 0.0
H545 H 0.54413 0.78936 0.3762 0.0
H546 H 0.62321 0.82931 0.39677 0.0
H547 H 0.62286 0.83437 0.36959 0.0
H548 H 0.63087 0.81046 0.37846 0.0
H549 H 0.54668 0.83725 0.40133 0.0
H550 H 0.53097 0.82028 0.38496 0.0
H551 H 0.54567 0.8417 0.37406 0.0
C552 C 0.30495 0.1056 0.96204 0.0
C553 C 0.31226 0.08966 0.97329 0.0
C554 C 0.2928 0.10157 0.94454 0.0
C555 C 0.28779 0.08111 0.93816 0.0
C556 C 0.29436 0.06493 0.94998 0.0
C557 C 0.30654 0.0694 0.96741 0.0
C558 C 0.28606 0.11924 0.93236 0.0
C559 C 0.28923 0.04291 0.94371 0.0
C560 C 0.24633 0.06942 0.89863 0.0
C561 C 0.2572 0.06758 0.88018 0.0
C562 C 0.25604 0.07393 0.91765 0.0
C563 C 0.27709 0.07668 0.9182 0.0
C564 C 0.28811 0.07511 0.89961 0.0
C565 C 0.27805 0.07058 0.88086 0.0
C566 C 0.24381 0.07554 0.93717 0.0
C567 C 0.31059 0.07802 0.89953 0.0
H568 H 0.3092 0.1213 0.96652 0.0
H569 H 0.31203 0.05699 0.97606 0.0
H570 H 0.29331 0.11964 0.91688 0.0
H571 H 0.26974 0.11728 0.92974 0.0
H572 H 0.28978 0.13415 0.94035 0.0
H573 H 0.29406 0.03214 0.95548 0.0
H574 H 0.27294 0.03998 0.94131 0.0
H575 H 0.29657 0.03964 0.92873 0.0
H576 H 0.23022 0.06712 0.89827 0.0
H577 H 0.2866 0.06923 0.86672 0.0
H578 H 0.2472 0.09071 0.9447 0.0
H579 H 0.24777 0.06388 0.94841 0.0
H580 H 0.22756 0.07336 0.93406 0.0
H581 H 0.31561 0.09334 0.90594 0.0
H582 H 0.31693 0.07653 0.88371 0.0
H583 H 0.31679 0.06656 0.90965 0.0
C584 C 0.7908 0.26124 0.01938 0.0
C585 C 0.80964 0.25565 0.01336 0.0
C586 C 0.78591 0.28156 0.01785 0.0
C587 C 0.80025 0.29658 0.01024 0.0
C588 C 0.81947 0.29108 0.00474 0.0
C589 C 0.82394 0.27072 0.00646 0.0
C590 C 0.76537 0.28693 0.02414 0.0
C591 C 0.83521 0.3066 0.99652 0.0
C592 C 0.78736 0.34459 0.98333 0.0
C593 C 0.79348 0.35969 -0.00189 0.0
C594 C 0.7882 0.32381 0.9876 0.0
C595 C 0.79523 0.31797 0.00717 0.0
C596 C 0.79992 0.33303 0.02272 0.0
C597 C 0.79902 0.35375 0.018 0.0
C598 C 0.78296 0.30822 0.97061 0.0
C599 C 0.80723 0.32741 0.04387 0.0
H600 H 0.77996 0.24979 0.02548 0.0
H601 H 0.83855 0.26649 0.00186 0.0
H602 H 0.7665 0.29919 0.03619 0.0
H603 H 0.75763 0.2929 0.01059 0.0
H604 H 0.75611 0.27358 0.03027 0.0
H605 H 0.84956 0.29991 0.9934 0.0
H606 H 0.82997 0.3131 0.98189 0.0
H607 H 0.83793 0.31941 0.00783 0.0
H608 H 0.78285 0.34901 0.96799 0.0
H609 H 0.80361 0.36529 0.02959 0.0
H610 H 0.77306 0.29535 0.97666 0.0
H611 H 0.79675 0.30185 0.96492 0.0
H612 H 0.7755 0.31493 0.95725 0.0
H613 H 0.7979 0.31421 0.05011 0.0
H614 H 0.80721 0.34035 0.05515 0.0
H615 H 0.82268 0.32282 0.04252 0.0
C616 C 0.78949 0.35348 0.60421 0.0
C617 C 0.76982 0.35432 0.5974 0.0
C618 C 0.79863 0.33505 0.60389 0.0
C619 C 0.78792 0.31703 0.59633 0.0
C620 C 0.76815 0.31783 0.58912 0.0
C621 C 0.75932 0.33648 0.58977 0.0
C622 C 0.81968 0.33481 0.61187 0.0
C623 C 0.75636 0.29901 0.58068 0.0
C624 C 0.81949 0.27407 0.58032 0.0
C625 C 0.81833 0.26184 0.59803 0.0
C626 C 0.8091 0.29173 0.57923 0.0
C627 C 0.7974 0.29735 0.59633 0.0
C628 C 0.79568 0.28474 0.61399 0.0
C629 C 0.80609 0.26711 0.61459 0.0
C630 C 0.81114 0.30469 0.56005 0.0
C631 C 0.78341 0.29025 0.63256 0.0
H632 H 0.79768 0.36724 0.6101 0.0
H633 H 0.74434 0.33716 0.5839 0.0
H634 H 0.82005 0.32414 0.62504 0.0
H635 H 0.82943 0.32922 0.59951 0.0
H636 H 0.82597 0.35015 0.61717 0.0
H637 H 0.74122 0.30223 0.57549 0.0
H638 H 0.76435 0.29259 0.56735 0.0
H639 H 0.75488 0.2871 0.59275 0.0
H640 H 0.82881 0.27008 0.56741 0.0
H641 H 0.80506 0.25776 0.62834 0.0
H642 H 0.81903 0.31971 0.56403 0.0
H643 H 0.79623 0.30763 0.55406 0.0
H644 H 0.81952 0.2974 0.5475 0.0
H645 H 0.78988 0.3048 0.63962 0.0
H646 H 0.78276 0.27828 0.64462 0.0
H647 H 0.768 0.29265 0.62769 0.0
C648 C 0.14414 0.0794 0.81063 0.0
C649 C 0.16364 0.08817 0.81336 0.0
C650 C 0.12869 0.09137 0.80509 0.0
C651 C 0.13277 0.11269 0.80276 0.0
C652 C 0.15238 0.12169 0.8059 0.0
C653 C 0.16764 0.10927 0.81091 0.0
C654 C 0.10807 0.08115 0.80142 0.0
C655 C 0.15722 0.14443 0.80403 0.0
C656 C 0.09775 0.14175 0.77027 0.0
C657 C 0.08543 0.14947 0.78552 0.0
C658 C 0.11312 0.12962 0.77565 0.0
C659 C 0.11655 0.12555 0.79683 0.0
C660 C 0.10436 0.13361 0.81232 0.0
C661 C 0.08877 0.14526 0.80645 0.0
C662 C 0.12552 0.12094 0.75865 0.0
C663 C 0.10784 0.13 0.83509 0.0
H664 H 0.14102 0.06306 0.81235 0.0
H665 H 0.18268 0.11613 0.81315 0.0
H666 H 0.09731 0.08757 0.81224 0.0
H667 H 0.10313 0.0842 0.7854 0.0
H668 H 0.10744 0.06436 0.80356 0.0
H669 H 0.17304 0.14912 0.80774 0.0
H670 H 0.15409 0.14928 0.78801 0.0
H671 H 0.1476 0.15272 0.81466 0.0
H672 H 0.09513 0.14487 0.75405 0.0
H673 H 0.07936 0.15133 0.8183 0.0
H674 H 0.1245 0.10403 0.75955 0.0
H675 H 0.14142 0.1264 0.76074 0.0
H676 H 0.12072 0.12524 0.74292 0.0
H677 H 0.10593 0.11342 0.83829 0.0
H678 H 0.09748 0.13794 0.84523 0.0
H679 H 0.12335 0.1354 0.83935 0.0
C680 C 0.04511 0.61051 0.22725 0.0
C681 C 0.05263 0.61643 0.24692 0.0
C682 C 0.02914 0.59553 0.22508 0.0
C683 C 0.02031 0.5865 0.24303 0.0
C684 C 0.02794 0.59229 0.26292 0.0
C685 C 0.04411 0.60708 0.26461 0.0
C686 C 0.02158 0.58953 0.20361 0.0
C687 C 0.01876 0.58318 0.28244 0.0
C688 C 0.96658 0.56432 0.2407 0.0
C689 C 0.96874 0.54326 0.24039 0.0
C690 C 0.98326 0.57855 0.24123 0.0
C691 C 0.00258 0.57156 0.24115 0.0
C692 C 0.0049 0.55035 0.24011 0.0
C693 C 0.98793 0.53644 0.2399 0.0
C694 C 0.98018 0.60104 0.24255 0.0
C695 C 0.02528 0.54237 0.23966 0.0
H696 H 0.05173 0.61758 0.2135 0.0
H697 H 0.04982 0.61162 0.27986 0.0
H698 H 0.02151 0.57276 0.2013 0.0
H699 H 0.006 0.59355 0.20187 0.0
H700 H 0.03075 0.5972 0.1912 0.0
H701 H 0.02667 0.58908 0.29669 0.0
H702 H 0.00295 0.58668 0.28356 0.0
H703 H 0.01894 0.56632 0.2819 0.0
H704 H 0.95182 0.56974 0.24117 0.0
H705 H 0.98972 0.52019 0.23955 0.0
H706 H 0.98812 0.60926 0.22967 0.0
H707 H 0.98654 0.6076 0.25731 0.0
H708 H 0.96419 0.60398 0.24186 0.0
H709 H 0.03433 0.54962 0.22695 0.0
H710 H 0.02453 0.52553 0.23743 0.0
H711 H 0.03318 0.54639 0.25444 0.0
C712 C 0.43746 0.3936 0.7225 0.0
C713 C 0.45771 0.39605 0.71719 0.0
C714 C 0.42448 0.40843 0.71747 0.0
C715 C 0.43187 0.4261 0.70673 0.0
C716 C 0.45215 0.4284 0.70075 0.0
C717 C 0.46485 0.41337 0.70611 0.0
C718 C 0.40296 0.40543 0.72418 0.0
C719 C 0.46051 0.44695 0.68909 0.0
C720 C 0.3931 0.45662 0.68142 0.0
C721 C 0.3909 0.47203 0.69635 0.0
C722 C 0.4068 0.4419 0.68428 0.0
C723 C 0.41848 0.44252 0.70258 0.0
C724 C 0.41663 0.45829 0.71749 0.0
C725 C 0.40293 0.47288 0.71416 0.0
C726 C 0.40847 0.42542 0.66795 0.0
C727 C 0.42875 0.45941 0.73726 0.0
H728 H 0.43178 0.38027 0.73104 0.0
H729 H 0.48045 0.41535 0.70186 0.0
H730 H 0.39958 0.4178 0.73522 0.0
H731 H 0.393 0.40635 0.71058 0.0
H732 H 0.39941 0.39051 0.7318 0.0
H733 H 0.47628 0.44586 0.68448 0.0
H734 H 0.45156 0.44898 0.67493 0.0
H735 H 0.45961 0.46083 0.69895 0.0
H736 H 0.38393 0.4559 0.66756 0.0
H737 H 0.40134 0.48474 0.72578 0.0
H738 H 0.40356 0.41032 0.67452 0.0
H739 H 0.42421 0.42484 0.66307 0.0
H740 H 0.39929 0.42783 0.65401 0.0
H741 H 0.42492 0.44558 0.7466 0.0
H742 H 0.42614 0.47309 0.7469 0.0
H743 H 0.44486 0.45976 0.73357 0.0
C744 C 0.73199 0.01654 0.31438 0.0
C745 C 0.73818 0.00175 0.30043 0.0
C746 C 0.71814 0.01129 0.33011 0.0
C747 C 0.71026 0.99075 0.33188 0.0
C748 C 0.71654 0.97572 0.31794 0.0
C749 C 0.73045 0.98139 0.30241 0.0
C750 C 0.71185 0.02772 0.34475 0.0
C751 C 0.70843 0.95367 0.31932 0.0
C752 C 0.68713 0.9727 0.38291 0.0
C753 C 0.66672 0.97305 0.37873 0.0
C754 C 0.70147 0.97863 0.36788 0.0
C755 C 0.69527 0.98499 0.34818 0.0
C756 C 0.67471 0.98553 0.34391 0.0
C757 C 0.66069 0.97959 0.35924 0.0
C758 C 0.72327 0.97793 0.37302 0.0
C759 C 0.66752 0.99218 0.32305 0.0
H760 H 0.73792 0.0323 0.313 0.0
H761 H 0.73514 0.96985 0.2917 0.0
H762 H 0.69557 0.0289 0.34346 0.0
H763 H 0.71496 0.02368 0.36103 0.0
H764 H 0.71964 0.0429 0.34151 0.0
H765 H 0.71499 0.94381 0.30742 0.0
H766 H 0.71151 0.94769 0.33492 0.0
H767 H 0.69203 0.95247 0.31728 0.0
H768 H 0.69192 0.96771 0.39793 0.0
H769 H 0.64496 0.97988 0.35587 0.0
H770 H 0.73124 0.9932 0.37086 0.0
H771 H 0.73011 0.96716 0.36228 0.0
H772 H 0.72565 0.97306 0.38922 0.0
H773 H 0.67405 0.00783 0.31967 0.0
H774 H 0.65104 0.99203 0.32231 0.0
H775 H 0.67256 0.98192 0.31063 0.0
C776 C 0.07733 0.46344 0.85753 0.0
C777 C 0.07667 0.45073 0.87489 0.0
C778 C 0.09347 0.47794 0.85431 0.0
C779 C 0.10934 0.47976 0.86879 0.0
C780 C 0.10887 0.46684 0.88622 0.0
C781 C 0.09254 0.45249 0.88906 0.0
C782 C 0.09345 0.49148 0.83555 0.0
C783 C 0.12552 0.46833 0.902 0.0
C784 C 0.15934 0.50606 0.85305 0.0
C785 C 0.15851 0.52546 0.8622 0.0
C786 C 0.14337 0.49107 0.85488 0.0
C787 C 0.12616 0.49562 0.8661 0.0
C788 C 0.12513 0.51524 0.87516 0.0
C789 C 0.14131 0.52991 0.87312 0.0
C790 C 0.14498 0.47029 0.84501 0.0
C791 C 0.10702 0.52069 0.8872 0.0
H792 H 0.06514 0.46216 0.84649 0.0
H793 H 0.09219 0.4427 0.90249 0.0
H794 H 0.09358 0.5077 0.84062 0.0
H795 H 0.1071 0.48996 0.82621 0.0
H796 H 0.08025 0.48775 0.82546 0.0
H797 H 0.12315 0.45679 0.91439 0.0
H798 H 0.13992 0.46623 0.89422 0.0
H799 H 0.12678 0.48375 0.90934 0.0
H800 H 0.17256 0.50249 0.84458 0.0
H801 H 0.14049 0.54487 0.8802 0.0
H802 H 0.13241 0.46666 0.8341 0.0
H803 H 0.14394 0.45843 0.85714 0.0
H804 H 0.15918 0.46933 0.83642 0.0
H805 H 0.09354 0.51835 0.87729 0.0
H806 H 0.1084 0.53678 0.89292 0.0
H807 H 0.10467 0.51051 0.90073 0.0
C808 C 0.62588 0.67227 0.38119 0.0
C809 C 0.62452 0.6815 0.36177 0.0
C810 C 0.64127 0.65977 0.3855 0.0
C811 C 0.65561 0.65641 0.37002 0.0
C812 C 0.65447 0.66591 0.3505 0.0
C813 C 0.63895 0.67833 0.34662 0.0
C814 C 0.64203 0.64993 0.4065 0.0
C815 C 0.6695 0.66271 0.3336 0.0
C816 C 0.70563 0.63741 0.38393 0.0
C817 C 0.7028 0.61673 0.37807 0.0
C818 C 0.69022 0.65042 0.38194 0.0
C819 C 0.67155 0.64254 0.37393 0.0
C820 C 0.66841 0.62155 0.36863 0.0
C821 C 0.68406 0.60891 0.37077 0.0
C822 C 0.6941 0.67271 0.38783 0.0
C823 C 0.64868 0.61257 0.3601 0.0
H824 H 0.6148 0.67466 0.393 0.0
H825 H 0.63804 0.68542 0.33159 0.0
H826 H 0.64043 0.63306 0.40464 0.0
H827 H 0.65668 0.65403 0.41394 0.0
H828 H 0.63012 0.65459 0.41707 0.0
H829 H 0.6668 0.67158 0.31946 0.0
H830 H 0.68476 0.66727 0.33933 0.0
H831 H 0.66898 0.64629 0.32923 0.0
H832 H 0.72004 0.64359 0.38964 0.0
H833 H 0.6817 0.59294 0.36629 0.0
H834 H 0.68257 0.67732 0.39884 0.0
H835 H 0.69319 0.68219 0.37379 0.0
H836 H 0.70899 0.67616 0.39504 0.0
H837 H 0.63642 0.61602 0.37076 0.0
H838 H 0.64831 0.59575 0.3578 0.0
H839 H 0.64573 0.6196 0.34496 0.0
C840 C 0.47391 0.18701 0.9673 0.0
C841 C 0.48956 0.1976 0.9783 0.0
C842 C 0.46103 0.17223 0.97693 0.0
C843 C 0.4638 0.16788 -0.00184 0.0
C844 C 0.47955 0.17849 0.00942 0.0
C845 C 0.49229 0.19324 -0.00067 0.0
C846 C 0.44443 0.16122 0.96434 0.0
C847 C 0.48291 0.17425 0.03207 0.0
C848 C 0.41711 0.14207 0.02203 0.0
C849 C 0.42033 0.12139 0.01919 0.0
C850 C 0.43178 0.1575 0.01666 0.0
C851 C 0.45008 0.15211 0.00824 0.0
C852 C 0.454 0.1313 0.00689 0.0
C853 C 0.43909 0.11618 0.01241 0.0
C854 C 0.42709 0.17953 0.01852 0.0
C855 C 0.47337 0.12491 -0.00188 0.0
H856 H 0.47167 0.19025 0.95105 0.0
H857 H 0.50434 0.20137 0.00794 0.0
H858 H 0.44597 0.14454 0.96431 0.0
H859 H 0.42982 0.16376 0.97146 0.0
H860 H 0.44433 0.1664 0.94799 0.0
H861 H 0.4958 0.18384 0.03863 0.0
H862 H 0.46942 0.17714 0.04118 0.0
H863 H 0.48554 0.15795 0.03406 0.0
H864 H 0.40275 0.14628 0.02744 0.0
H865 H 0.44182 0.10025 0.01034 0.0
H866 H 0.42453 0.18555 0.00282 0.0
H867 H 0.43979 0.18902 0.02551 0.0
H868 H 0.41358 0.18132 0.02807 0.0
H869 H 0.47375 0.12752 0.98113 0.0
H870 H 0.47524 0.10851 0.00083 0.0
H871 H 0.48622 0.13421 0.00508 0.0
C872 C 0.95717 0.99525 0.39477 0.0
C873 C 0.96366 0.01568 0.39909 0.0
C874 C 0.96982 0.97958 0.39765 0.0
C875 C 0.9893 0.98441 0.40546 0.0
C876 C 0.99586 0.00498 0.4101 0.0
C877 C 0.98303 0.02041 0.40666 0.0
C878 C 0.96239 0.95787 0.39217 0.0
C879 C 0.01639 0.01068 0.41883 0.0
C880 C 0.01423 0.94086 0.43013 0.0
C881 C 0.02708 0.93531 0.41426 0.0
C882 C 0.00223 0.95715 0.42767 0.0
C883 C 0.00278 0.96787 0.40873 0.0
C884 C 0.0158 0.96239 0.39269 0.0
C885 C 0.02795 0.94631 0.39573 0.0
C886 C 0.98884 0.96279 0.4453 0.0
C887 C 0.01657 0.97321 0.37213 0.0
H888 H 0.94226 0.99152 0.3888 0.0
H889 H 0.98809 0.03617 0.41013 0.0
H890 H 0.97238 0.9515 0.38048 0.0
H891 H 0.96262 0.94819 0.40613 0.0
H892 H 0.947 0.95674 0.38584 0.0
H893 H 0.01906 0.02733 0.42205 0.0
H894 H 0.0184 0.00237 0.43346 0.0
H895 H 0.02788 0.00607 0.40776 0.0
H896 H 0.01361 0.93249 0.44454 0.0
H897 H 0.03778 0.94202 0.38337 0.0
H898 H 0.97303 0.96035 0.44041 0.0
H899 H 0.99178 0.97922 0.44937 0.0
H900 H 0.99094 0.95367 0.45941 0.0
H901 H 0.00169 0.97141 0.36463 0.0
H902 H 0.02764 0.96725 0.36133 0.0
H903 H 0.02038 0.98981 0.37461 0.0
C904 C 0.80438 0.08865 0.13533 0.0
C905 C 0.81498 0.07137 0.13203 0.0
C906 C 0.80678 0.10543 0.12204 0.0
C907 C 0.81995 0.10484 0.10495 0.0
C908 C 0.8307 0.08746 0.10156 0.0
C909 C 0.82815 0.07098 0.11519 0.0
C910 C 0.79519 0.12378 0.12624 0.0
C911 C 0.8448 0.08619 0.08342 0.0
C912 C 0.81347 0.13834 0.05826 0.0
C913 C 0.82904 0.15364 0.06109 0.0
C914 C 0.81006 0.1226 0.07266 0.0
C915 C 0.8224 0.12226 0.09041 0.0
C916 C 0.8377 0.13804 0.09373 0.0
C917 C 0.84089 0.1535 0.07899 0.0
C918 C 0.79365 0.10599 0.06854 0.0
C919 C 0.85103 0.13831 0.11259 0.0
H920 H 0.79422 0.0891 0.14836 0.0
H921 H 0.83636 0.05768 0.1125 0.0
H922 H 0.80557 0.13768 0.12809 0.0
H923 H 0.78539 0.12629 0.11284 0.0
H924 H 0.78585 0.12201 0.14043 0.0
H925 H 0.85204 0.0716 0.08296 0.0
H926 H 0.83661 0.08766 0.06863 0.0
H927 H 0.85656 0.09901 0.08425 0.0
H928 H 0.80425 0.13832 0.04447 0.0
H929 H 0.85289 0.16532 0.08134 0.0
H930 H 0.78347 0.10446 0.08207 0.0
H931 H 0.80016 0.09114 0.06633 0.0
H932 H 0.78479 0.10898 0.05453 0.0
H933 H 0.84193 0.13722 0.12696 0.0
H934 H 0.86137 0.15234 0.11358 0.0
H935 H 0.85997 0.12486 0.11208 0.0
C936 C 0.96083 0.16328 0.73176 0.0
C937 C 0.97489 0.18026 0.7322 0.0
C938 C 0.94597 0.16119 0.71638 0.0
C939 C 0.94514 0.17649 0.70121 0.0
C940 C 0.95978 0.19321 0.70111 0.0
C941 C 0.97448 0.19485 0.71654 0.0
C942 C 0.93075 0.14304 0.71683 0.0
C943 C 0.95943 0.20986 0.68519 0.0
C944 C 0.91532 0.17006 0.65124 0.0
C945 C 0.89887 0.18108 0.65599 0.0
C946 C 0.93003 0.16738 0.66619 0.0
C947 C 0.92826 0.17602 0.6863 0.0
C948 C 0.91115 0.18616 0.69151 0.0
C949 C 0.89665 0.18852 0.67632 0.0
C950 C 0.94795 0.15626 0.66014 0.0
C951 C 0.90869 0.19558 0.71279 0.0
H952 H 0.96109 0.15189 0.74375 0.0
H953 H 0.98534 0.20796 0.71665 0.0
H954 H 0.91598 0.14819 0.72108 0.0
H955 H 0.92924 0.13571 0.70123 0.0
H956 H 0.93468 0.13145 0.7282 0.0
H957 H 0.97249 0.22126 0.68658 0.0
H958 H 0.95918 0.20317 0.66927 0.0
H959 H 0.94568 0.21791 0.68712 0.0
H960 H 0.91711 0.16411 0.63563 0.0
H961 H 0.88394 0.19692 0.68021 0.0
H962 H 0.95115 0.14504 0.67215 0.0
H963 H 0.96121 0.16736 0.65903 0.0
H964 H 0.94585 0.14815 0.64495 0.0
H965 H 0.91091 0.18426 0.72502 0.0
H966 H 0.89377 0.20136 0.71492 0.0
H967 H 0.92017 0.2085 0.71513 0.0
C968 C 0.89334 0.48541 0.1657 0.0
C969 C 0.88179 0.49659 0.17911 0.0
C970 C 0.88683 0.48024 0.14546 0.0
C971 C 0.86813 0.48599 0.13867 0.0
C972 C 0.85629 0.49705 0.15225 0.0
C973 C 0.86338 0.50242 0.17224 0.0
C974 C 0.90006 0.46881 0.13128 0.0
C975 C 0.83609 0.50308 0.14571 0.0
C976 C 0.85818 0.48902 0.08078 0.0
C977 C 0.84782 0.47003 0.07666 0.0
C978 C 0.86503 0.49434 0.10086 0.0
C979 C 0.86101 0.48052 0.11729 0.0
C980 C 0.8503 0.46143 0.11328 0.0
C981 C 0.84403 0.45631 0.09294 0.0
C982 C 0.87676 0.51466 0.10445 0.0
C983 C 0.84537 0.44647 0.13048 0.0
H984 H 0.90764 0.48099 0.1709 0.0
H985 H 0.85434 0.51095 0.18262 0.0
H986 H 0.89228 0.454 0.12642 0.0
H987 H 0.90339 0.4777 0.11699 0.0
H988 H 0.91435 0.46583 0.13881 0.0
H989 H 0.8285 0.51115 0.15832 0.0
H990 H 0.83764 0.51319 0.13205 0.0
H991 H 0.82646 0.4893 0.14095 0.0
H992 H 0.86126 0.49962 0.0682 0.0
H993 H 0.8359 0.44166 0.08985 0.0
H994 H 0.89159 0.51224 0.11103 0.0
H995 H 0.86899 0.52393 0.11592 0.0
H996 H 0.87893 0.52351 0.08993 0.0
H997 H 0.85928 0.44184 0.13757 0.0
H998 H 0.83642 0.43253 0.12488 0.0
H999 H 0.83693 0.45382 0.14291 0.0
C1000 C 0.57529 0.32199 0.68382 0.0
C1001 C 0.57202 0.34031 0.69424 0.0
C1002 C 0.59315 0.31972 0.67309 0.0
C1003 C 0.60803 0.3362 0.67268 0.0
C1004 C 0.60464 0.35487 0.68281 0.0
C1005 C 0.58671 0.35668 0.69351 0.0
C1006 C 0.59626 0.29957 0.66252 0.0
C1007 C 0.6201 0.37286 0.68261 0.0
C1008 C 0.66245 0.32746 0.66413 0.0
C1009 C 0.66531 0.33351 0.64347 0.0
C1010 C 0.64368 0.32753 0.6736 0.0
C1011 C 0.6274 0.3339 0.66216 0.0
C1012 C 0.63001 0.33926 0.64106 0.0
C1013 C 0.64892 0.33894 0.63195 0.0
C1014 C 0.64145 0.32151 0.69608 0.0
C1015 C 0.61301 0.34614 0.62836 0.0
H1016 H 0.56402 0.30926 0.68434 0.0
H1017 H 0.58429 0.3709 0.70146 0.0
H1018 H 0.59983 0.30197 0.64587 0.0
H1019 H 0.60914 0.29278 0.66964 0.0
H1020 H 0.58297 0.28848 0.66369 0.0
H1021 H 0.61489 0.3865 0.69066 0.0
H1022 H 0.63391 0.36873 0.69031 0.0
H1023 H 0.62402 0.37695 0.66638 0.0
H1024 H 0.67499 0.32313 0.67312 0.0
H1025 H 0.65097 0.34361 0.61596 0.0
H1026 H 0.62885 0.30971 0.69788 0.0
H1027 H 0.63801 0.33497 0.70562 0.0
H1028 H 0.65515 0.3155 0.70233 0.0
H1029 H 0.59991 0.33481 0.62924 0.0
H1030 H 0.6171 0.34835 0.61178 0.0
H1031 H 0.60841 0.36078 0.63479 0.0
C1032 C 0.74517 0.5276 0.47814 0.0
C1033 C 0.76346 0.53463 0.46942 0.0
C1034 C 0.74434 0.51437 0.4951 0.0
C1035 C 0.7622 0.50748 0.50299 0.0
C1036 C 0.78072 0.51458 0.49424 0.0
C1037 C 0.78114 0.52835 0.47775 0.0
C1038 C 0.72436 0.50761 0.50444 0.0
C1039 C 0.80002 0.50715 0.50183 0.0
C1040 C 0.76255 0.48427 0.55671 0.0
C1041 C 0.75911 0.4634 0.55199 0.0
C1042 C 0.76341 0.49884 0.54093 0.0
C1043 C 0.76143 0.49229 0.51994 0.0
C1044 C 0.7585 0.47117 0.51509 0.0
C1045 C 0.75704 0.45699 0.53122 0.0
C1046 C 0.76599 0.52124 0.54673 0.0
C1047 C 0.75691 0.46355 0.49288 0.0
H1048 H 0.7315 0.53257 0.47178 0.0
H1049 H 0.79529 0.53364 0.47087 0.0
H1050 H 0.72112 0.49093 0.50204 0.0
H1051 H 0.72461 0.51059 0.52145 0.0
H1052 H 0.71206 0.51553 0.4975 0.0
H1053 H 0.81317 0.51428 0.49345 0.0
H1054 H 0.80194 0.51049 0.51866 0.0
H1055 H 0.79966 0.49033 0.49972 0.0
H1056 H 0.76397 0.48924 0.5728 0.0
H1057 H 0.75451 0.44084 0.52757 0.0
H1058 H 0.75321 0.52908 0.5408 0.0
H1059 H 0.77963 0.52851 0.53938 0.0
H1060 H 0.76708 0.52381 0.56379 0.0
H1061 H 0.74363 0.46919 0.4854 0.0
H1062 H 0.75573 0.44661 0.49173 0.0
H1063 H 0.77015 0.46958 0.48393 0.0
C1064 C 0.61125 0.22801 0.9767 0.0
C1065 C 0.60368 0.21289 0.96257 0.0
C1066 C 0.63111 0.22881 0.98347 0.0
C1067 C 0.64368 0.21413 0.97593 0.0
C1068 C 0.63613 0.19881 0.9617 0.0
C1069 C 0.61622 0.19838 0.95519 0.0
C1070 C 0.63864 0.24538 -0.00135 0.0
C1071 C 0.64909 0.18288 0.95334 0.0
C1072 C 0.69976 0.22624 0.97819 0.0
C1073 C 0.70492 0.2153 0.99568 0.0
C1074 C 0.67987 0.22611 0.97168 0.0
C1075 C 0.66477 0.21478 0.98292 0.0
C1076 C 0.66984 0.20385 0.00068 0.0
C1077 C 0.68985 0.20425 0.00685 0.0
C1078 C 0.67503 0.23798 0.95268 0.0
C1079 C 0.65414 0.1916 0.01307 0.0
H1080 H 0.60167 0.2393 0.98248 0.0
H1081 H 0.6105 0.18664 0.94428 0.0
H1082 H 0.64413 0.23846 0.01295 0.0
H1083 H 0.6514 0.25472 0.9918 0.0
H1084 H 0.62695 0.25562 0.00304 0.0
H1085 H 0.64093 0.17197 0.94241 0.0
H1086 H 0.66214 0.19039 0.94515 0.0
H1087 H 0.65487 0.17417 0.96634 0.0
H1088 H 0.71129 0.23484 0.96948 0.0
H1089 H 0.69367 0.19577 0.02039 0.0
H1090 H 0.66414 0.24919 0.9567 0.0
H1091 H 0.66801 0.22746 0.94068 0.0
H1092 H 0.68845 0.24628 0.94586 0.0
H1093 H 0.64272 0.20162 0.01866 0.0
H1094 H 0.6605 0.1842 0.02668 0.0
H1095 H 0.64644 0.17958 0.00303 0.0
C1096 C 0.86598 0.1414 0.52778 0.0
C1097 C 0.8814 0.15157 0.53941 0.0
C1098 C 0.87013 0.12875 0.51084 0.0
C1099 C 0.89018 0.12569 0.5059 0.0
C1100 C 0.90579 0.13556 0.51794 0.0
C1101 C 0.90122 0.14867 0.53435 0.0
C1102 C 0.8531 0.11897 0.49801 0.0
C1103 C 0.92731 0.13221 0.51355 0.0
C1104 C 0.89865 0.07887 0.47272 0.0
C1105 C 0.90246 0.08756 0.45323 0.0
C1106 C 0.89516 0.09116 0.49016 0.0
C1107 C 0.89481 0.11253 0.48783 0.0
C1108 C 0.89859 0.12134 0.46814 0.0
C1109 C 0.90269 0.10877 0.45114 0.0
C1110 C 0.89182 0.08129 0.51104 0.0
C1111 C 0.89781 0.14398 0.46489 0.0
H1112 H 0.85065 0.14374 0.53162 0.0
H1113 H 0.91316 0.15637 0.54348 0.0
H1114 H 0.85489 0.12367 0.48157 0.0
H1115 H 0.85319 0.10212 0.49828 0.0
H1116 H 0.83839 0.12322 0.50367 0.0
H1117 H 0.93761 0.14017 0.52506 0.0
H1118 H 0.92945 0.11565 0.51371 0.0
H1119 H 0.93149 0.13781 0.49785 0.0
H1120 H 0.89858 0.06247 0.47437 0.0
H1121 H 0.90542 0.1155 0.43602 0.0
H1122 H 0.87657 0.0835 0.51664 0.0
H1123 H 0.90239 0.08864 0.52261 0.0
H1124 H 0.89372 0.06465 0.51044 0.0
H1125 H 0.88291 0.14865 0.46936 0.0
H1126 H 0.90079 0.14837 0.44852 0.0
H1127 H 0.9089 0.15269 0.47499 0.0
C1128 C 0.95042 0.43954 0.8973 0.0
C1129 C 0.96018 0.42262 0.9037 0.0
C1130 C 0.9339 0.44584 0.90829 0.0
C1131 C 0.92696 0.43489 0.926 0.0
C1132 C 0.93721 0.41829 0.93295 0.0
C1133 C 0.9537 0.4124 0.92176 0.0
C1134 C 0.92346 0.46374 0.90054 0.0
C1135 C 0.93029 0.4062 0.95177 0.0
C1136 C 0.89133 0.45475 0.96573 0.0
C1137 C 0.87337 0.44371 0.96014 0.0
C1138 C 0.90876 0.45292 0.95408 0.0
C1139 C 0.90821 0.43967 0.93654 0.0
C1140 C 0.88991 0.42936 0.9302 0.0
C1141 C 0.87272 0.43154 0.94204 0.0
C1142 C 0.92795 0.46436 0.96118 0.0
C1143 C 0.88867 0.4151 0.91156 0.0
H1144 H 0.95538 0.44759 0.88341 0.0
H1145 H 0.96119 0.39939 0.92691 0.0
H1146 H 0.90847 0.45831 0.89464 0.0
H1147 H 0.92133 0.47473 0.91342 0.0
H1148 H 0.93184 0.47187 0.88785 0.0
H1149 H 0.94051 0.3944 0.95577 0.0
H1150 H 0.92909 0.41654 0.9654 0.0
H1151 H 0.91526 0.39852 0.94883 0.0
H1152 H 0.89197 0.46429 0.97961 0.0
H1153 H 0.85891 0.42305 0.93749 0.0
H1154 H 0.93571 0.47209 0.9479 0.0
H1155 H 0.93803 0.45342 0.96749 0.0
H1156 H 0.92543 0.47594 0.97342 0.0
H1157 H 0.89554 0.42283 0.8978 0.0
H1158 H 0.87308 0.40957 0.90768 0.0
H1159 H 0.89714 0.40168 0.91472 0.0
C1160 C 0.25575 0.63095 0.21645 0.0
C1161 C 0.26049 0.63174 0.19525 0.0
C1162 C 0.23627 0.63313 0.22335 0.0
C1163 C 0.22119 0.63617 0.20868 0.0
C1164 C 0.22555 0.63536 0.18719 0.0
C1165 C 0.24516 0.63313 0.18072 0.0
C1166 C 0.23219 0.63373 0.2464 0.0
C1167 C 0.20985 0.63836 0.17105 0.0
C1168 C 0.16737 0.63581 0.22683 0.0
C1169 C 0.16539 0.65676 0.22979 0.0
C1170 C 0.18541 0.62878 0.21986 0.0
C1171 C 0.2018 0.64304 0.21581 0.0
C1172 C 0.19985 0.66417 0.21869 0.0
C1173 C 0.1817 0.67075 0.22562 0.0
C1174 C 0.18698 0.60614 0.21692 0.0
C1175 C 0.21699 0.67989 0.21457 0.0
H1176 H 0.26744 0.62965 0.22779 0.0
H1177 H 0.24863 0.63356 0.16428 0.0
H1178 H 0.23003 0.64964 0.25135 0.0
H1179 H 0.21831 0.62424 0.25015 0.0
H1180 H 0.24462 0.6283 0.25558 0.0
H1181 H 0.21484 0.63442 0.15515 0.0
H1182 H 0.19588 0.62893 0.17455 0.0
H1183 H 0.20636 0.65458 0.17127 0.0
H1184 H 0.15485 0.62488 0.23001 0.0
H1185 H 0.18036 0.68696 0.22785 0.0
H1186 H 0.19882 0.60105 0.22713 0.0
H1187 H 0.19129 0.60278 0.20068 0.0
H1188 H 0.17278 0.59706 0.22047 0.0
H1189 H 0.22982 0.67708 0.22461 0.0
H1190 H 0.21298 0.69575 0.21748 0.0
H1191 H 0.22196 0.6786 0.19821 0.0
C1192 C 0.13957 0.89411 0.4601 0.0
C1193 C 0.11889 0.89225 0.46338 0.0
C1194 C 0.15289 0.89151 0.47643 0.0
C1195 C 0.14535 0.88696 0.4965 0.0
C1196 C 0.12459 0.88626 0.50017 0.0
C1197 C 0.11161 0.88892 0.48357 0.0
C1198 C 0.17494 0.89253 0.47194 0.0
C1199 C 0.11598 0.88159 0.5214 0.0
C1200 C 0.17411 0.85453 0.53217 0.0
C1201 C 0.18234 0.86905 0.54655 0.0
C1202 C 0.16246 0.86028 0.51554 0.0
C1203 C 0.15892 0.88107 0.51321 0.0
C1204 C 0.16766 0.89591 0.52728 0.0
C1205 C 0.17929 0.88973 0.5438 0.0
C1206 C 0.15349 0.84399 0.50078 0.0
C1207 C 0.16428 0.91822 0.52524 0.0
H1208 H 0.14537 0.89678 0.44459 0.0
H1209 H 0.09569 0.88758 0.48631 0.0
H1210 H 0.18333 0.9024 0.4836 0.0
H1211 H 0.18024 0.87704 0.47306 0.0
H1212 H 0.17854 0.89848 0.4562 0.0
H1213 H 0.09975 0.88343 0.52211 0.0
H1214 H 0.11844 0.86563 0.52547 0.0
H1215 H 0.12362 0.89172 0.53334 0.0
H1216 H 0.17645 0.83855 0.5341 0.0
H1217 H 0.18561 0.90106 0.55482 0.0
H1218 H 0.15771 0.84782 0.48455 0.0
H1219 H 0.137 0.84328 0.50171 0.0
H1220 H 0.15834 0.82864 0.50424 0.0
H1221 H 0.16813 0.92349 0.50934 0.0
H1222 H 0.17321 0.928 0.5366 0.0
H1223 H 0.14829 0.9204 0.52773 0.0
C1224 C 0.26161 0.66127 0.06029 0.0
C1225 C 0.27845 0.65173 0.06658 0.0
C1226 C 0.25551 0.66065 0.03945 0.0
C1227 C 0.26647 0.65017 0.02454 0.0
C1228 C 0.28333 0.64029 0.03081 0.0
C1229 C 0.28914 0.64122 0.05176 0.0
C1230 C 0.23747 0.67142 0.03333 0.0
C1231 C 0.29532 0.62889 0.01536 0.0
C1232 C 0.24047 0.63481 0.9737 0.0
C1233 C 0.24797 0.65041 0.96049 0.0
C1234 C 0.24659 0.63436 0.99452 0.0
C1235 C 0.26047 0.64992 0.00231 0.0
C1236 C 0.26829 0.66555 0.98899 0.0
C1237 C 0.26198 0.66558 0.96823 0.0
C1238 C 0.23801 0.61739 0.00823 0.0
C1239 C 0.28309 0.68244 0.99676 0.0
H1240 H 0.25326 0.66942 0.07163 0.0
H1241 H 0.30215 0.63377 0.05649 0.0
H1242 H 0.2418 0.68343 0.02187 0.0
H1243 H 0.22626 0.66045 0.02576 0.0
H1244 H 0.2304 0.67862 0.04686 0.0
H1245 H 0.30773 0.62157 0.02284 0.0
H1246 H 0.28555 0.61692 0.00724 0.0
H1247 H 0.30163 0.63952 0.00338 0.0
H1248 H 0.22968 0.623 0.96783 0.0
H1249 H 0.26785 0.67769 0.95814 0.0
H1250 H 0.22961 0.62386 0.02123 0.0
H1251 H 0.25018 0.60933 0.01517 0.0
H1252 H 0.22786 0.60607 -0.00038 0.0
H1253 H 0.27633 0.69115 0.00944 0.0
H1254 H 0.28808 0.69321 0.98431 0.0
H1255 H 0.29635 0.67587 0.00332 0.0
C1256 C 0.43748 0.75111 0.53355 0.0
C1257 C 0.41783 0.74401 0.52858 0.0
C1258 C 0.45234 0.75273 0.51823 0.0
C1259 C 0.44743 0.74711 0.49745 0.0
C1260 C 0.42755 0.74032 0.49226 0.0
C1261 C 0.41299 0.73885 0.50789 0.0
C1262 C 0.47337 0.76004 0.52436 0.0
C1263 C 0.42173 0.73422 0.47026 0.0
C1264 C 0.48259 0.76526 0.45407 0.0
C1265 C 0.49296 0.7479 0.4503 0.0
C1266 C 0.46778 0.76527 0.46943 0.0
C1267 C 0.46324 0.74752 0.48129 0.0
C1268 C 0.47371 0.73 0.47763 0.0
C1269 C 0.48843 0.73041 0.4622 0.0
C1270 C 0.45692 0.78424 0.47291 0.0
C1271 C 0.4693 0.71078 0.48997 0.0
H1272 H 0.44135 0.75516 0.54949 0.0
H1273 H 0.39784 0.73338 0.5039 0.0
H1274 H 0.4834 0.74774 0.5214 0.0
H1275 H 0.47881 0.77324 0.51476 0.0
H1276 H 0.47457 0.76465 0.541 0.0
H1277 H 0.40549 0.73007 0.46862 0.0
H1278 H 0.42607 0.74689 0.45955 0.0
H1279 H 0.42982 0.72095 0.46523 0.0
H1280 H 0.486 0.77884 0.44496 0.0
H1281 H 0.49636 0.71693 0.45942 0.0
H1282 H 0.45877 0.7896 0.48926 0.0
H1283 H 0.44074 0.78071 0.47021 0.0
H1284 H 0.46235 0.79685 0.46252 0.0
H1285 H 0.47154 0.71414 0.50677 0.0
H1286 H 0.4789 0.69852 0.48532 0.0
H1287 H 0.4535 0.70497 0.48782 0.0
C1288 C 0.37334 0.00653 0.07326 0.0
C1289 C 0.38939 0.01444 0.06119 0.0
C1290 C 0.37589 0.99157 0.08818 0.0
C1291 C 0.3951 0.98495 0.09157 0.0
C1292 C 0.41144 0.99326 0.07971 0.0
C1293 C 0.40831 0.00765 0.06439 0.0
C1294 C 0.35799 0.98262 0.10005 0.0
C1295 C 0.43225 0.98708 0.08332 0.0
C1296 C 0.40398 0.96011 0.14334 0.0
C1297 C 0.4037 0.93945 0.13756 0.0
C1298 C 0.40158 0.97513 0.12846 0.0
C1299 C 0.39809 0.96924 0.10746 0.0
C1300 C 0.39748 0.94834 0.10162 0.0
C1301 C 0.40065 0.93372 0.1167 0.0
C1302 C 0.40297 0.99731 0.13518 0.0
C1303 C 0.39319 0.94139 0.07951 0.0
H1304 H 0.35866 0.01167 0.07066 0.0
H1305 H 0.42076 0.0139 0.05516 0.0
H1306 H 0.35635 0.9658 0.09777 0.0
H1307 H 0.3601 0.98567 0.11692 0.0
H1308 H 0.34399 0.98897 0.0951 0.0
H1309 H 0.44346 0.99567 0.07343 0.0
H1310 H 0.43646 0.98973 0.09985 0.0
H1311 H 0.43281 0.97054 0.07999 0.0
H1312 H 0.40648 0.96455 0.15947 0.0
H1313 H 0.40024 0.91772 0.11227 0.0
H1314 H 0.38868 0.00396 0.13211 0.0
H1315 H 0.41463 0.00608 0.12603 0.0
H1316 H 0.40657 -0.00061 0.15195 0.0
H1317 H 0.37879 0.94671 0.07438 0.0
H1318 H 0.3925 0.92451 0.07768 0.0
H1319 H 0.40488 0.94823 0.06901 0.0
C1320 C 0.51684 0.94138 0.31131 0.0
C1321 C 0.5305 0.9269 0.31532 0.0
C1322 C 0.50212 0.93779 0.29598 0.0
C1323 C 0.50109 0.91932 0.28433 0.0
C1324 C 0.51517 0.90489 0.28789 0.0
C1325 C 0.52968 0.90883 0.30337 0.0
C1326 C 0.48732 0.9535 0.29266 0.0
C1327 C 0.51459 0.88504 0.27572 0.0
C1328 C 0.45148 0.89836 0.26179 0.0
C1329 C 0.4536 0.90342 0.24076 0.0
C1330 C 0.46668 0.90378 0.27615 0.0
C1331 C 0.48454 0.91445 0.26933 0.0
C1332 C 0.4867 0.91991 0.24821 0.0
C1333 C 0.47117 0.91439 0.23416 0.0
C1334 C 0.46373 0.89781 0.29858 0.0
C1335 C 0.50557 0.93123 0.24038 0.0
H1336 H 0.51739 0.9554 0.32043 0.0
H1337 H 0.54023 0.8976 0.30628 0.0
H1338 H 0.48694 0.95769 0.27605 0.0
H1339 H 0.47216 0.94697 0.29685 0.0
H1340 H 0.49087 0.96759 0.30212 0.0
H1341 H 0.52733 0.87601 0.2795 0.0
H1342 H 0.50055 0.87566 0.27912 0.0
H1343 H 0.51478 0.88807 0.25882 0.0
H1344 H 0.43793 0.88999 0.26708 0.0
H1345 H 0.47294 0.91834 0.21795 0.0
H1346 H 0.46587 0.91153 0.30883 0.0
H1347 H 0.47502 0.88731 0.30309 0.0
H1348 H 0.44869 0.89017 0.3015 0.0
H1349 H 0.5088 0.94561 0.24941 0.0
H1350 H 0.50465 0.93497 0.22366 0.0
H1351 H 0.51833 0.92183 0.24265 0.0
C1352 C 0.25294 0.98743 0.75538 0.0
C1353 C 0.23913 0.99802 0.76667 0.0
C1354 C 0.24684 0.96987 0.74367 0.0
C1355 C 0.22645 0.9627 0.74328 0.0
C1356 C 0.21235 0.9737 0.75405 0.0
C1357 C 0.21886 0.99125 0.7656 0.0
C1358 C 0.2623 0.9586 0.73228 0.0
C1359 C 0.19048 0.96655 0.75397 0.0
C1360 C 0.20797 0.92405 0.70178 0.0
C1361 C 0.2076 0.90567 0.71267 0.0
C1362 C 0.21414 0.94276 0.7115 0.0
C1363 C 0.22003 0.94307 0.7326 0.0
C1364 C 0.21973 0.92457 0.74365 0.0
C1365 C 0.21353 0.9061 0.73355 0.0
C1366 C 0.21433 0.96218 0.69922 0.0
C1367 C 0.22588 0.92429 0.76619 0.0
H1368 H 0.26862 0.9926 0.75603 0.0
H1369 H 0.20807 -0.00064 0.77422 0.0
H1370 H 0.26315 0.9433 0.73914 0.0
H1371 H 0.25801 0.9562 0.71574 0.0
H1372 H 0.27732 0.9669 0.733 0.0
H1373 H 0.18129 0.97749 0.76207 0.0
H1374 H 0.18501 0.96433 0.73779 0.0
H1375 H 0.18822 0.95157 0.76173 0.0
H1376 H 0.20343 0.92385 0.68563 0.0
H1377 H 0.21328 0.89198 0.74208 0.0
H1378 H 0.22954 0.97003 0.69917 0.0
H1379 H 0.20436 0.97277 0.70666 0.0
H1380 H 0.20945 0.95931 0.68289 0.0
H1381 H 0.24144 0.93102 0.76797 0.0
H1382 H 0.22483 0.90861 0.77254 0.0
H1383 H 0.2163 0.93377 0.77566 0.0
C1384 C 0.3645 0.57564 0.6397 0.0
C1385 C 0.35431 0.57795 0.6585 0.0
C1386 C 0.36793 0.59211 0.62607 0.0
C1387 C 0.36091 0.61125 0.63136 0.0
C1388 C 0.35096 0.61374 0.65047 0.0
C1389 C 0.34784 0.59712 0.66378 0.0
C1390 C 0.37872 0.58897 0.60588 0.0
C1391 C 0.3432 0.63388 0.65671 0.0
C1392 C 0.37929 0.66186 0.60778 0.0
C1393 C 0.36331 0.66554 0.59476 0.0
C1394 C 0.3794 0.64356 0.61877 0.0
C1395 C 0.36311 0.62865 0.61677 0.0
C1396 C 0.34757 0.63172 0.60265 0.0
C1397 C 0.34788 0.6501 0.59179 0.0
C1398 C 0.39635 0.64076 0.63351 0.0
C1399 C 0.32993 0.61619 0.60004 0.0
H1400 H 0.3696 0.56091 0.63551 0.0
H1401 H 0.34 0.59915 0.67828 0.0
H1402 H 0.36855 0.5909 0.59264 0.0
H1403 H 0.39148 0.60063 0.60433 0.0
H1404 H 0.38434 0.57356 0.60465 0.0
H1405 H 0.3362 0.63341 0.67234 0.0
H1406 H 0.35552 0.64616 0.65676 0.0
H1407 H 0.332 0.63808 0.64525 0.0
H1408 H 0.39139 0.6736 0.61003 0.0
H1409 H 0.33553 0.6527 0.58164 0.0
H1410 H 0.40159 0.62527 0.63165 0.0
H1411 H 0.39109 0.64227 0.64975 0.0
H1412 H 0.40914 0.65225 0.63108 0.0
H1413 H 0.33496 0.60069 0.5976 0.0
H1414 H 0.32031 0.61975 0.58679 0.0
H1415 H 0.32081 0.61585 0.61441 0.0
loop_
_geom_bond_atom_site_label_1
_geom_bond_atom_site_label_2
_geom_bond_distance
_geom_bond_site_symmetry_2
_ccdc_geom_bond_type
O0 Cd1 2.300 . S
O0 C7 1.275 . S
Cd1 O0 2.300 . S
Cd1 O9 2.381 . S
Cd1 O10 2.378 . S
O2 Cd3 2.385 . S
O2 C7 1.255 1_655 S
Cd3 O2 2.385 . S
Cd3 O4 2.317 . S
O4 Cd3 2.317 . S
O4 C5 1.232 . S
C5 O4 1.232 . S
C5 O6 1.218 . S
O6 C5 1.218 . S
C7 O0 1.275 . S
C7 O2 1.255 1_455 S
C8 O9 1.258 . S
C8 O10 1.256 . S
O9 Cd1 2.381 . S
O9 C8 1.258 . S
O10 Cd1 2.378 . S
O10 C8 1.256 . S
O11 Cd12 2.300 . S
O11 C18 1.275 . S
Cd12 O11 2.300 . S
Cd12 O20 2.381 . S
Cd12 O21 2.378 . S
O13 Cd14 2.385 . S
O13 C18 1.255 . S
Cd14 O13 2.385 . S
Cd14 O15 2.317 . S
O15 Cd14 2.317 . S
O15 C16 1.232 . S
C16 O15 1.232 . S
C16 O17 1.218 . S
O17 C16 1.218 . S
C18 O11 1.275 . S
C18 O13 1.255 . S
C19 O20 1.258 . S
C19 O21 1.256 . S
O20 Cd12 2.381 . S
O20 C19 1.258 . S
O21 Cd12 2.378 . S
O21 C19 1.256 . S
O22 Cd23 2.300 . S
O22 C29 1.275 . S
Cd23 O22 2.300 . S
Cd23 O31 2.381 . S
Cd23 O32 2.378 . S
O24 Cd25 2.385 . S
O24 C29 1.255 . S
Cd25 O24 2.385 . S
Cd25 O26 2.317 . S
O26 Cd25 2.317 . S
O26 C27 1.232 . S
C27 O26 1.232 . S
C27 O28 1.218 . S
O28 C27 1.218 . S
C29 O22 1.275 . S
C29 O24 1.255 . S
C30 O31 1.258 . S
C30 O32 1.256 . S
O31 Cd23 2.381 . S
O31 C30 1.258 . S
O32 Cd23 2.378 . S
O32 C30 1.256 . S
O33 Cd34 2.300 . S
O33 C40 1.275 . S
Cd34 O33 2.300 . S
Cd34 O42 2.381 . S
Cd34 O43 2.378 . S
O35 Cd36 2.385 1_545 S
O35 C40 1.255 . S
Cd36 O35 2.385 1_565 S
Cd36 O37 2.317 1_565 S
O37 Cd36 2.317 1_545 S
O37 C38 1.232 . S
C38 O37 1.232 . S
C38 O39 1.218 1_545 S
O39 C38 1.218 1_565 S
C40 O33 1.275 . S
C40 O35 1.255 . S
C41 O42 1.258 . S
C41 O43 1.256 . S
O42 Cd34 2.381 . S
O42 C41 1.258 . S
O43 Cd34 2.378 . S
O43 C41 1.256 . S
O44 Cd45 2.300 . S
O44 C51 1.257 1_455 S
Cd45 O44 2.300 . S
Cd45 O53 2.381 . S
Cd45 O54 2.378 . S
O46 Cd47 2.385 . S
O46 C51 1.270 . S
Cd47 O46 2.385 . S
Cd47 O48 2.317 . S
O48 Cd47 2.317 . S
O48 C49 1.232 . S
C49 O48 1.232 . S
C49 O50 1.218 . S
O50 C49 1.218 . S
C51 O44 1.257 1_655 S
C51 O46 1.270 . S
C52 O53 1.258 . S
C52 O54 1.256 . S
O53 Cd45 2.381 . S
O53 C52 1.258 . S
O54 Cd45 2.378 . S
O54 C52 1.256 . S
O55 Cd56 2.300 . S
O55 C62 1.275 . S
Cd56 O55 2.300 . S
Cd56 O64 2.381 . S
Cd56 O65 2.378 . S
O57 Cd58 2.385 . S
O57 C62 1.255 . S
Cd58 O57 2.385 . S
Cd58 O59 2.317 . S
O59 Cd58 2.317 . S
O59 C60 1.232 . S
C60 O59 1.232 . S
C60 O61 1.218 . S
O61 C60 1.218 . S
C62 O55 1.275 . S
C62 O57 1.255 . S
C63 O64 1.258 . S
C63 O65 1.256 . S
O64 Cd56 2.381 . S
O64 C63 1.258 . S
O65 Cd56 2.378 . S
O65 C63 1.256 . S
O66 Cd67 2.300 . S
O66 C73 1.275 . S
Cd67 O66 2.300 . S
Cd67 O75 2.381 . S
Cd67 O76 2.378 . S
O68 Cd69 2.385 . S
O68 C73 1.255 . S
Cd69 O68 2.385 . S
Cd69 O70 2.317 . S
O70 Cd69 2.317 . S
O70 C71 1.232 . S
C71 O70 1.232 . S
C71 O72 1.218 . S
O72 C71 1.218 . S
C73 O66 1.275 . S
C73 O68 1.255 . S
C74 O75 1.258 . S
C74 O76 1.256 . S
O75 Cd67 2.381 . S
O75 C74 1.258 . S
O76 Cd67 2.378 . S
O76 C74 1.256 . S
O77 Cd78 2.300 . S
O77 C84 1.275 . S
Cd78 O77 2.300 . S
Cd78 O86 2.381 . S
Cd78 O87 2.378 . S
O79 Cd80 2.385 . S
O79 C84 1.255 . S
Cd80 O79 2.385 . S
Cd80 O81 2.317 . S
O81 Cd80 2.317 . S
O81 C82 1.232 . S
C82 O81 1.232 . S
C82 O83 1.218 . S
O83 C82 1.218 . S
C84 O77 1.275 . S
C84 O79 1.255 . S
C85 O86 1.258 . S
C85 O87 1.256 . S
O86 Cd78 2.381 . S
O86 C85 1.258 . S
O87 Cd78 2.378 . S
O87 C85 1.256 . S
O88 Cd89 2.300 . S
O88 C95 1.275 . S
Cd89 O88 2.300 . S
Cd89 O97 2.381 . S
Cd89 O98 2.378 . S
O90 Cd91 2.385 . S
O90 C95 1.255 . S
Cd91 O90 2.385 . S
Cd91 O92 2.317 . S
O92 Cd91 2.317 . S
O92 C93 1.232 . S
C93 O92 1.232 . S
C93 O94 1.218 . S
O94 C93 1.218 . S
C95 O88 1.275 . S
C95 O90 1.255 . S
C96 O97 1.258 . S
C96 O98 1.256 . S
O97 Cd89 2.381 . S
O97 C96 1.258 . S
O98 Cd89 2.378 . S
O98 C96 1.256 . S
O99 Cd100 2.300 . S
O99 C106 1.275 . S
Cd100 O99 2.300 . S
Cd100 O108 2.381 . S
Cd100 O109 2.378 . S
O101 Cd102 2.385 . S
O101 C106 1.255 . S
Cd102 O101 2.385 . S
Cd102 O103 2.317 . S
O103 Cd102 2.317 . S
O103 C104 1.232 . S
C104 O103 1.232 . S
C104 O105 1.218 . S
O105 C104 1.218 . S
C106 O99 1.275 . S
C106 O101 1.255 . S
C107 O108 1.258 . S
C107 O109 1.256 . S
O108 Cd100 2.381 . S
O108 C107 1.258 . S
O109 Cd100 2.378 . S
O109 C107 1.256 . S
O110 Cd111 2.300 . S
O110 C117 1.275 . S
Cd111 O110 2.300 . S
Cd111 O119 2.381 . S
Cd111 O120 2.378 . S
O112 Cd113 2.385 . S
O112 C117 1.255 . S
Cd113 O112 2.385 . S
Cd113 O114 2.317 . S
O114 Cd113 2.317 . S
O114 C115 1.232 . S
C115 O114 1.232 . S
C115 O116 1.218 . S
O116 C115 1.218 . S
C117 O110 1.275 . S
C117 O112 1.255 . S
C118 O119 1.258 . S
C118 O120 1.256 . S
O119 Cd111 2.381 . S
O119 C118 1.258 . S
O120 Cd111 2.378 . S
O120 C118 1.256 . S
O121 Cd122 2.300 . S
O121 C128 1.275 . S
Cd122 O121 2.300 . S
Cd122 O130 2.381 . S
Cd122 O131 2.378 . S
O123 Cd124 2.385 . S
O123 C128 1.255 . S
Cd124 O123 2.385 . S
Cd124 O125 2.317 . S
O125 Cd124 2.317 . S
O125 C126 1.232 . S
C126 O125 1.232 . S
C126 O127 1.218 . S
O127 C126 1.218 . S
C128 O121 1.275 . S
C128 O123 1.255 . S
C129 O130 1.258 . S
C129 O131 1.256 . S
O130 Cd122 2.381 . S
O130 C129 1.258 . S
O131 Cd122 2.378 . S
O131 C129 1.256 . S
O132 Cd133 2.300 . S
O132 C139 1.275 . S
Cd133 O132 2.300 . S
Cd133 O141 2.381 . S
Cd133 O142 2.378 . S
O134 Cd135 2.385 . S
O134 C139 1.255 . S
Cd135 O134 2.385 . S
Cd135 O136 2.317 . S
O136 Cd135 2.317 . S
O136 C137 1.232 . S
C137 O136 1.232 . S
C137 O138 1.218 . S
O138 C137 1.218 . S
C139 O132 1.275 . S
C139 O134 1.255 . S
C140 O141 1.258 . S
C140 O142 1.256 . S
O141 Cd133 2.381 . S
O141 C140 1.258 . S
O142 Cd133 2.378 . S
O142 C140 1.256 . S
O143 Cd144 2.300 . S
O143 C150 1.275 . S
Cd144 O143 2.300 . S
Cd144 O152 2.381 . S
Cd144 O153 2.378 . S
O145 Cd146 2.385 . S
O145 C150 1.255 . S
Cd146 O145 2.385 . S
Cd146 O147 2.317 . S
O147 Cd146 2.317 . S
O147 C148 1.232 . S
C148 O147 1.232 . S
C148 O149 1.218 . S
O149 C148 1.218 . S
C150 O143 1.275 . S
C150 O145 1.255 . S
C151 O152 1.258 . S
C151 O153 1.256 . S
O152 Cd144 2.381 . S
O152 C151 1.258 . S
O153 Cd144 2.378 . S
O153 C151 1.256 . S
O154 Cd155 2.300 . S
O154 C161 1.275 . S
Cd155 O154 2.300 . S
Cd155 O163 2.381 . S
Cd155 O164 2.378 . S
O156 Cd157 2.385 . S
O156 C161 1.255 . S
Cd157 O156 2.385 . S
Cd157 O158 2.317 . S
O158 Cd157 2.317 . S
O158 C159 1.232 . S
C159 O158 1.232 . S
C159 O160 1.218 . S
O160 C159 1.218 . S
C161 O154 1.275 . S
C161 O156 1.255 . S
C162 O163 1.258 . S
C162 O164 1.256 . S
O163 Cd155 2.381 . S
O163 C162 1.258 . S
O164 Cd155 2.378 . S
O164 C162 1.256 . S
O165 Cd166 2.300 1_556 S
O165 C172 1.275 . S
Cd166 O165 2.300 1_554 S
Cd166 O174 2.381 . S
Cd166 O175 2.378 . S
O167 Cd168 2.385 . S
O167 C172 1.255 . S
Cd168 O167 2.385 . S
Cd168 O169 2.317 . S
O169 Cd168 2.317 . S
O169 C170 1.232 . S
C170 O169 1.232 . S
C170 O171 1.218 . S
O171 C170 1.218 . S
C172 O165 1.275 . S
C172 O167 1.255 . S
C173 O174 1.258 . S
C173 O175 1.256 . S
O174 Cd166 2.381 . S
O174 C173 1.258 . S
O175 Cd166 2.378 . S
O175 C173 1.256 . S
O176 Cd177 2.300 . S
O176 C183 1.275 . S
Cd177 O176 2.300 . S
Cd177 O185 2.381 . S
Cd177 O186 2.378 . S
O178 Cd179 2.385 . S
O178 C183 1.255 . S
Cd179 O178 2.385 . S
Cd179 O180 2.317 . S
O180 Cd179 2.317 . S
O180 C181 1.232 . S
C181 O180 1.232 . S
C181 O182 1.218 . S
O182 C181 1.218 . S
C183 O176 1.275 . S
C183 O178 1.255 . S
C184 O185 1.258 . S
C184 O186 1.256 . S
O185 Cd177 2.381 . S
O185 C184 1.258 . S
O186 Cd177 2.378 . S
O186 C184 1.256 . S
O187 Cd188 2.300 . S
O187 C194 1.275 . S
Cd188 O187 2.300 . S
Cd188 O196 2.381 . S
Cd188 O197 2.378 . S
O189 Cd190 2.385 . S
O189 C194 1.255 . S
Cd190 O189 2.385 . S
Cd190 O191 2.317 . S
O191 Cd190 2.317 . S
O191 C192 1.232 . S
C192 O191 1.232 . S
C192 O193 1.218 . S
O193 C192 1.218 . S
C194 O187 1.275 . S
C194 O189 1.255 . S
C195 O196 1.258 . S
C195 O197 1.256 . S
O196 Cd188 2.381 . S
O196 C195 1.258 . S
O197 Cd188 2.378 . S
O197 C195 1.256 . S
O198 Cd199 2.300 . S
O198 C205 1.275 . S
Cd199 O198 2.300 . S
Cd199 O207 2.381 . S
Cd199 O208 2.378 . S
O200 Cd201 2.385 . S
O200 C205 1.255 . S
Cd201 O200 2.385 . S
Cd201 O202 2.317 . S
O202 Cd201 2.317 . S
O202 C203 1.232 . S
C203 O202 1.232 . S
C203 O204 1.218 . S
O204 C203 1.218 . S
C205 O198 1.275 . S
C205 O200 1.255 . S
C206 O207 1.258 . S
C206 O208 1.256 . S
O207 Cd199 2.381 . S
O207 C206 1.258 . S
O208 Cd199 2.378 . S
O208 C206 1.256 . S
O209 Cd210 2.300 . S
O209 C216 1.275 . S
Cd210 O209 2.300 . S
Cd210 O218 2.381 . S
Cd210 O219 2.378 . S
O211 Cd212 2.385 . S
O211 C216 1.255 . S
Cd212 O211 2.385 . S
Cd212 O213 2.317 . S
O213 Cd212 2.317 . S
O213 C214 1.232 . S
C214 O213 1.232 . S
C214 O215 1.218 . S
O215 C214 1.218 . S
C216 O209 1.275 . S
C216 O211 1.255 . S
C217 O218 1.258 . S
C217 O219 1.256 . S
O218 Cd210 2.381 . S
O218 C217 1.258 . S
O219 Cd210 2.378 . S
O219 C217 1.256 . S
O220 Cd221 2.300 . S
O220 C227 1.275 1_554 S
Cd221 O220 2.300 . S
Cd221 O229 2.381 . S
Cd221 O230 2.378 . S
O222 Cd223 2.385 . S
O222 C227 1.255 . S
Cd223 O222 2.385 . S
Cd223 O224 2.317 1_556 S
O224 Cd223 2.317 1_554 S
O224 C225 1.232 1_554 S
C225 O224 1.232 1_556 S
C225 O226 1.218 . S
O226 C225 1.218 . S
C227 O220 1.275 1_556 S
C227 O222 1.255 . S
C228 O229 1.258 . S
C228 O230 1.256 . S
O229 Cd221 2.381 . S
O229 C228 1.258 . S
O230 Cd221 2.378 . S
O230 C228 1.256 . S
O231 Cd232 2.300 . S
O231 C238 1.275 . S
Cd232 O231 2.300 . S
Cd232 O240 2.381 . S
Cd232 O241 2.378 . S
O233 Cd234 2.385 . S
O233 C238 1.255 . S
Cd234 O233 2.385 . S
Cd234 O235 2.317 . S
O235 Cd234 2.317 . S
O235 C236 1.232 . S
C236 O235 1.232 . S
C236 O237 1.218 . S
O237 C236 1.218 . S
C238 O231 1.275 . S
C238 O233 1.255 . S
C239 O240 1.258 . S
C239 O241 1.256 . S
O240 Cd232 2.381 . S
O240 C239 1.258 . S
O241 Cd232 2.378 . S
O241 C239 1.256 . S
O242 Cd243 2.300 . S
O242 C249 1.275 . S
Cd243 O242 2.300 . S
Cd243 O251 2.381 . S
Cd243 O252 2.378 . S
O244 Cd245 2.385 . S
O244 C249 1.255 . S
Cd245 O244 2.385 . S
Cd245 O246 2.317 . S
O246 Cd245 2.317 . S
O246 C247 1.232 . S
C247 O246 1.232 . S
C247 O248 1.218 . S
O248 C247 1.218 . S
C249 O242 1.275 . S
C249 O244 1.255 . S
C250 O251 1.258 . S
C250 O252 1.256 . S
O251 Cd243 2.381 . S
O251 C250 1.258 . S
O252 Cd243 2.378 . S
O252 C250 1.256 . S
O253 Cd254 2.300 . S
O253 C260 1.293 . S
Cd254 O253 2.300 . S
Cd254 O262 2.381 . S
Cd254 O263 2.378 . S
O255 Cd256 2.385 . S
O255 C260 1.271 . S
Cd256 O255 2.385 . S
Cd256 O257 2.317 1_554 S
O257 Cd256 2.317 1_556 S
O257 C258 1.232 . S
C258 O257 1.232 . S
C258 O259 1.218 . S
O259 C258 1.218 . S
C260 O253 1.293 . S
C260 O255 1.271 . S
C261 O262 1.258 . S
C261 O263 1.256 . S
O262 Cd254 2.381 . S
O262 C261 1.258 . S
O263 Cd254 2.378 . S
O263 C261 1.256 . S
C264 C265 1.391 . S
C264 C266 1.394 . S
C264 H280 0.931 . S
C265 C264 1.391 . S
C265 C269 1.376 1_655 S
C266 C264 1.394 . S
C266 C267 1.369 1_655 S
C266 C270 1.531 . S
C267 C266 1.369 1_455 S
C267 C268 1.410 . S
C267 C275 1.502 . S
C268 C267 1.410 . S
C268 C269 1.392 . S
C268 C271 1.511 . S
C269 C265 1.376 1_455 S
C269 C268 1.392 . S
C269 H281 0.929 . S
C270 C266 1.531 . S
C270 H282 0.960 . S
C270 H283 0.962 . S
C270 H284 0.960 . S
C271 C268 1.511 . S
C271 H285 0.961 . S
C271 H286 0.961 . S
C271 H287 0.961 . S
C272 C273 1.393 . S
C272 C274 1.363 . S
C272 H288 0.931 . S
C273 C272 1.393 . S
C273 C277 1.387 1_655 S
C274 C272 1.363 . S
C274 C275 1.351 1_655 S
C274 C278 1.524 . S
C275 C267 1.502 . S
C275 C274 1.351 1_455 S
C275 C276 1.424 . S
C276 C275 1.424 . S
C276 C277 1.404 . S
C276 C279 1.539 . S
C277 C273 1.387 1_455 S
C277 C276 1.404 . S
C277 H289 0.930 . S
C278 C274 1.524 . S
C278 H290 0.956 . S
C278 H291 0.961 . S
C278 H292 0.961 . S
C279 C276 1.539 . S
C279 H293 0.958 . S
C279 H294 0.961 . S
C279 H295 0.960 . S
H280 C264 0.931 . S
H281 C269 0.929 . S
H282 C270 0.960 . S
H283 C270 0.962 . S
H284 C270 0.960 . S
H285 C271 0.961 . S
H286 C271 0.961 . S
H287 C271 0.961 . S
H288 C272 0.931 . S
H289 C277 0.930 . S
H290 C278 0.956 . S
H291 C278 0.961 . S
H292 C278 0.961 . S
H293 C279 0.958 . S
H294 C279 0.961 . S
H295 C279 0.960 . S
C296 C297 1.391 . S
C296 C298 1.394 . S
C296 H312 0.931 . S
C297 C296 1.391 . S
C297 C301 1.376 . S
C298 C296 1.394 . S
C298 C299 1.369 . S
C298 C302 1.531 . S
C299 C298 1.369 . S
C299 C300 1.410 . S
C299 C307 1.503 . S
C300 C299 1.410 . S
C300 C301 1.392 . S
C300 C303 1.511 . S
C301 C297 1.376 . S
C301 C300 1.392 . S
C301 H313 0.929 . S
C302 C298 1.531 . S
C302 H314 0.960 . S
C302 H315 0.962 . S
C302 H316 0.960 . S
C303 C300 1.511 . S
C303 H317 0.961 . S
C303 H318 0.961 . S
C303 H319 0.961 . S
C304 C305 1.370 . S
C304 C306 1.363 . S
C304 H320 0.931 . S
C305 C304 1.370 . S
C305 C309 1.408 . S
C306 C304 1.363 . S
C306 C307 1.370 . S
C306 C310 1.524 . S
C307 C299 1.503 . S
C307 C306 1.370 . S
C307 C308 1.403 . S
C308 C307 1.403 . S
C308 C309 1.404 . S
C308 C311 1.539 . S
C309 C305 1.408 . S
C309 C308 1.404 . S
C309 H321 0.930 . S
C310 C306 1.524 . S
C310 H322 0.956 . S
C310 H323 0.961 . S
C310 H324 0.961 . S
C311 C308 1.539 . S
C311 H325 0.958 . S
C311 H326 0.961 . S
C311 H327 0.960 . S
H312 C296 0.931 . S
H313 C301 0.929 . S
H314 C302 0.960 . S
H315 C302 0.962 . S
H316 C302 0.960 . S
H317 C303 0.961 . S
H318 C303 0.961 . S
H319 C303 0.961 . S
H320 C304 0.931 . S
H321 C309 0.930 . S
H322 C310 0.956 . S
H323 C310 0.961 . S
H324 C310 0.961 . S
H325 C311 0.958 . S
H326 C311 0.961 . S
H327 C311 0.960 . S
C328 C329 1.391 . S
C328 C330 1.394 . S
C328 H344 0.931 . S
C329 C328 1.391 . S
C329 C333 1.376 . S
C330 C328 1.394 . S
C330 C331 1.369 . S
C330 C334 1.531 . S
C331 C330 1.369 . S
C331 C332 1.410 . S
C331 C339 1.503 . S
C332 C331 1.410 . S
C332 C333 1.392 . S
C332 C335 1.511 . S
C333 C329 1.376 . S
C333 C332 1.392 . S
C333 H345 0.929 . S
C334 C330 1.531 . S
C334 H346 0.960 . S
C334 H347 0.962 . S
C334 H348 0.960 . S
C335 C332 1.511 . S
C335 H349 0.961 . S
C335 H350 0.961 . S
C335 H351 0.961 . S
C336 C337 1.370 . S
C336 C338 1.363 . S
C336 H352 0.931 . S
C337 C336 1.370 . S
C337 C341 1.408 . S
C338 C336 1.363 . S
C338 C339 1.370 . S
C338 C342 1.524 . S
C339 C331 1.503 . S
C339 C338 1.370 . S
C339 C340 1.403 . S
C340 C339 1.403 . S
C340 C341 1.404 . S
C340 C343 1.539 . S
C341 C337 1.408 . S
C341 C340 1.404 . S
C341 H353 0.930 . S
C342 C338 1.524 . S
C342 H354 0.956 . S
C342 H355 0.961 . S
C342 H356 0.961 . S
C343 C340 1.539 . S
C343 H357 0.958 . S
C343 H358 0.961 . S
C343 H359 0.960 . S
H344 C328 0.931 . S
H345 C333 0.929 . S
H346 C334 0.960 . S
H347 C334 0.962 . S
H348 C334 0.960 . S
H349 C335 0.961 . S
H350 C335 0.961 . S
H351 C335 0.961 . S
H352 C336 0.931 . S
H353 C341 0.930 . S
H354 C342 0.956 . S
H355 C342 0.961 . S
H356 C342 0.961 . S
H357 C343 0.958 . S
H358 C343 0.961 . S
H359 C343 0.960 . S
C360 C361 1.391 . S
C360 C362 1.394 . S
C360 H376 0.931 . S
C361 C360 1.391 . S
C361 C365 1.376 . S
C362 C360 1.394 . S
C362 C363 1.369 . S
C362 C366 1.531 . S
C363 C362 1.369 . S
C363 C364 1.410 . S
C363 C371 1.503 . S
C364 C363 1.410 . S
C364 C365 1.392 . S
C364 C367 1.511 . S
C365 C361 1.376 . S
C365 C364 1.392 . S
C365 H377 0.929 . S
C366 C362 1.531 . S
C366 H378 0.960 . S
C366 H379 0.962 . S
C366 H380 0.960 . S
C367 C364 1.511 . S
C367 H381 0.961 . S
C367 H382 0.961 . S
C367 H383 0.961 . S
C368 C369 1.370 . S
C368 C370 1.363 . S
C368 H384 0.931 . S
C369 C368 1.370 . S
C369 C373 1.408 . S
C370 C368 1.363 . S
C370 C371 1.370 . S
C370 C374 1.524 . S
C371 C363 1.503 . S
C371 C370 1.370 . S
C371 C372 1.403 . S
C372 C371 1.403 . S
C372 C373 1.404 . S
C372 C375 1.539 . S
C373 C369 1.408 . S
C373 C372 1.404 . S
C373 H385 0.930 . S
C374 C370 1.524 . S
C374 H386 0.956 . S
C374 H387 0.961 . S
C374 H388 0.961 . S
C375 C372 1.539 . S
C375 H389 0.958 . S
C375 H390 0.961 . S
C375 H391 0.960 . S
H376 C360 0.931 . S
H377 C365 0.929 . S
H378 C366 0.960 . S
H379 C366 0.962 . S
H380 C366 0.960 . S
H381 C367 0.961 . S
H382 C367 0.961 . S
H383 C367 0.961 . S
H384 C368 0.931 . S
H385 C373 0.930 . S
H386 C374 0.956 . S
H387 C374 0.961 . S
H388 C374 0.961 . S
H389 C375 0.958 . S
H390 C375 0.961 . S
H391 C375 0.960 . S
C392 C393 1.391 . S
C392 C394 1.394 . S
C392 H408 0.931 . S
C393 C392 1.391 . S
C393 C397 1.376 . S
C394 C392 1.394 . S
C394 C395 1.369 . S
C394 C398 1.531 . S
C395 C394 1.369 . S
C395 C396 1.410 . S
C395 C403 1.503 . S
C396 C395 1.410 . S
C396 C397 1.392 . S
C396 C399 1.511 . S
C397 C393 1.376 . S
C397 C396 1.392 . S
C397 H409 0.929 . S
C398 C394 1.531 . S
C398 H410 0.960 . S
C398 H411 0.962 . S
C398 H412 0.960 . S
C399 C396 1.511 . S
C399 H413 0.961 . S
C399 H414 0.961 . S
C399 H415 0.961 . S
C400 C401 1.370 . S
C400 C402 1.363 . S
C400 H416 0.931 . S
C401 C400 1.370 . S
C401 C405 1.408 . S
C402 C400 1.363 . S
C402 C403 1.370 . S
C402 C406 1.524 . S
C403 C395 1.503 . S
C403 C402 1.370 . S
C403 C404 1.403 . S
C404 C403 1.403 . S
C404 C405 1.404 . S
C404 C407 1.539 . S
C405 C401 1.408 . S
C405 C404 1.404 . S
C405 H417 0.930 . S
C406 C402 1.524 . S
C406 H418 0.956 . S
C406 H419 0.961 . S
C406 H420 0.961 . S
C407 C404 1.539 . S
C407 H421 0.958 . S
C407 H422 0.961 . S
C407 H423 0.960 . S
H408 C392 0.931 . S
H409 C397 0.929 . S
H410 C398 0.960 . S
H411 C398 0.962 . S
H412 C398 0.960 . S
H413 C399 0.961 . S
H414 C399 0.961 . S
H415 C399 0.961 . S
H416 C400 0.931 . S
H417 C405 0.930 . S
H418 C406 0.956 . S
H419 C406 0.961 . S
H420 C406 0.961 . S
H421 C407 0.958 . S
H422 C407 0.961 . S
H423 C407 0.960 . S
C424 C425 1.391 . S
C424 C426 1.394 . S
C424 H440 0.931 . S
C425 C424 1.391 . S
C425 C429 1.376 . S
C426 C424 1.394 . S
C426 C427 1.369 . S
C426 C430 1.531 . S
C427 C426 1.369 . S
C427 C428 1.410 . S
C427 C435 1.503 . S
C428 C427 1.410 . S
C428 C429 1.392 . S
C428 C431 1.511 . S
C429 C425 1.376 . S
C429 C428 1.392 . S
C429 H441 0.929 . S
C430 C426 1.531 . S
C430 H442 0.960 . S
C430 H443 0.962 . S
C430 H444 0.960 . S
C431 C428 1.511 . S
C431 H445 0.961 . S
C431 H446 0.961 . S
C431 H447 0.961 . S
C432 C433 1.370 . S
C432 C434 1.363 . S
C432 H448 0.931 . S
C433 C432 1.370 . S
C433 C437 1.408 . S
C434 C432 1.363 . S
C434 C435 1.370 . S
C434 C438 1.524 . S
C435 C427 1.503 . S
C435 C434 1.370 . S
C435 C436 1.403 . S
C436 C435 1.403 . S
C436 C437 1.404 . S
C436 C439 1.539 . S
C437 C433 1.408 . S
C437 C436 1.404 . S
C437 H449 0.930 . S
C438 C434 1.524 . S
C438 H450 0.956 . S
C438 H451 0.961 . S
C438 H452 0.961 . S
C439 C436 1.539 . S
C439 H453 0.958 . S
C439 H454 0.961 . S
C439 H455 0.960 . S
H440 C424 0.931 . S
H441 C429 0.929 . S
H442 C430 0.960 . S
H443 C430 0.962 . S
H444 C430 0.960 . S
H445 C431 0.961 . S
H446 C431 0.961 . S
H447 C431 0.961 . S
H448 C432 0.931 . S
H449 C437 0.930 . S
H450 C438 0.956 . S
H451 C438 0.961 . S
H452 C438 0.961 . S
H453 C439 0.958 . S
H454 C439 0.961 . S
H455 C439 0.960 . S
C456 C457 1.391 . S
C456 C458 1.394 . S
C456 H472 0.931 . S
C457 C456 1.391 . S
C457 C461 1.376 . S
C458 C456 1.394 . S
C458 C459 1.369 . S
C458 C462 1.531 . S
C459 C458 1.369 . S
C459 C460 1.410 . S
C459 C467 1.503 . S
C460 C459 1.410 . S
C460 C461 1.392 . S
C460 C463 1.511 . S
C461 C457 1.376 . S
C461 C460 1.392 . S
C461 H473 0.929 . S
C462 C458 1.531 . S
C462 H474 0.960 . S
C462 H475 0.962 . S
C462 H476 0.960 . S
C463 C460 1.511 . S
C463 H477 0.961 . S
C463 H478 0.961 . S
C463 H479 0.961 . S
C464 C465 1.370 . S
C464 C466 1.363 . S
C464 H480 0.931 . S
C465 C464 1.370 . S
C465 C469 1.408 . S
C466 C464 1.363 . S
C466 C467 1.370 . S
C466 C470 1.524 . S
C467 C459 1.503 . S
C467 C466 1.370 . S
C467 C468 1.403 . S
C468 C467 1.403 . S
C468 C469 1.404 . S
C468 C471 1.539 . S
C469 C465 1.408 . S
C469 C468 1.404 . S
C469 H481 0.930 . S
C470 C466 1.524 . S
C470 H482 0.956 . S
C470 H483 0.961 . S
C470 H484 0.961 . S
C471 C468 1.539 . S
C471 H485 0.958 . S
C471 H486 0.961 . S
C471 H487 0.960 . S
H472 C456 0.931 . S
H473 C461 0.929 . S
H474 C462 0.960 . S
H475 C462 0.962 . S
H476 C462 0.960 . S
H477 C463 0.961 . S
H478 C463 0.961 . S
H479 C463 0.961 . S
H480 C464 0.931 . S
H481 C469 0.930 . S
H482 C470 0.956 . S
H483 C470 0.961 . S
H484 C470 0.961 . S
H485 C471 0.958 . S
H486 C471 0.961 . S
H487 C471 0.960 . S
C488 C489 1.391 . S
C488 C490 1.394 . S
C488 H504 0.931 . S
C489 C488 1.391 . S
C489 C493 1.376 . S
C490 C488 1.394 . S
C490 C491 1.369 . S
C490 C494 1.531 . S
C491 C490 1.369 . S
C491 C492 1.410 . S
C491 C499 1.503 . S
C492 C491 1.410 . S
C492 C493 1.392 . S
C492 C495 1.511 . S
C493 C489 1.376 . S
C493 C492 1.392 . S
C493 H505 0.929 . S
C494 C490 1.531 . S
C494 H506 0.960 . S
C494 H507 0.962 . S
C494 H508 0.960 . S
C495 C492 1.511 . S
C495 H509 0.961 . S
C495 H510 0.961 . S
C495 H511 0.961 . S
C496 C497 1.370 . S
C496 C498 1.363 . S
C496 H512 0.931 . S
C497 C496 1.370 . S
C497 C501 1.408 . S
C498 C496 1.363 . S
C498 C499 1.370 . S
C498 C502 1.524 . S
C499 C491 1.503 . S
C499 C498 1.370 . S
C499 C500 1.403 . S
C500 C499 1.403 . S
C500 C501 1.404 . S
C500 C503 1.539 . S
C501 C497 1.408 . S
C501 C500 1.404 . S
C501 H513 0.930 . S
C502 C498 1.524 . S
C502 H514 0.956 . S
C502 H515 0.961 . S
C502 H516 0.961 . S
C503 C500 1.539 . S
C503 H517 0.958 . S
C503 H518 0.961 . S
C503 H519 0.960 . S
H504 C488 0.931 . S
H505 C493 0.929 . S
H506 C494 0.960 . S
H507 C494 0.962 . S
H508 C494 0.960 . S
H509 C495 0.961 . S
H510 C495 0.961 . S
H511 C495 0.961 . S
H512 C496 0.931 . S
H513 C501 0.930 . S
H514 C502 0.956 . S
H515 C502 0.961 . S
H516 C502 0.961 . S
H517 C503 0.958 . S
H518 C503 0.961 . S
H519 C503 0.960 . S
C520 C521 1.391 . S
C520 C522 1.394 . S
C520 H536 0.931 . S
C521 C520 1.391 . S
C521 C525 1.376 . S
C522 C520 1.394 . S
C522 C523 1.369 . S
C522 C526 1.531 . S
C523 C522 1.369 . S
C523 C524 1.410 . S
C523 C531 1.503 . S
C524 C523 1.410 . S
C524 C525 1.392 . S
C524 C527 1.511 . S
C525 C521 1.376 . S
C525 C524 1.392 . S
C525 H537 0.929 . S
C526 C522 1.531 . S
C526 H538 0.960 . S
C526 H539 0.962 . S
C526 H540 0.960 . S
C527 C524 1.511 . S
C527 H541 0.961 . S
C527 H542 0.961 . S
C527 H543 0.961 . S
C528 C529 1.370 . S
C528 C530 1.363 . S
C528 H544 0.931 . S
C529 C528 1.370 . S
C529 C533 1.408 . S
C530 C528 1.363 . S
C530 C531 1.370 . S
C530 C534 1.524 . S
C531 C523 1.503 . S
C531 C530 1.370 . S
C531 C532 1.403 . S
C532 C531 1.403 . S
C532 C533 1.404 . S
C532 C535 1.539 . S
C533 C529 1.408 . S
C533 C532 1.404 . S
C533 H545 0.930 . S
C534 C530 1.524 . S
C534 H546 0.956 . S
C534 H547 0.961 . S
C534 H548 0.961 . S
C535 C532 1.539 . S
C535 H549 0.958 . S
C535 H550 0.961 . S
C535 H551 0.960 . S
H536 C520 0.931 . S
H537 C525 0.929 . S
H538 C526 0.960 . S
H539 C526 0.962 . S
H540 C526 0.960 . S
H541 C527 0.961 . S
H542 C527 0.961 . S
H543 C527 0.961 . S
H544 C528 0.931 . S
H545 C533 0.930 . S
H546 C534 0.956 . S
H547 C534 0.961 . S
H548 C534 0.961 . S
H549 C535 0.958 . S
H550 C535 0.961 . S
H551 C535 0.960 . S
C552 C553 1.391 . S
C552 C554 1.394 . S
C552 H568 0.931 . S
C553 C552 1.391 . S
C553 C557 1.376 . S
C554 C552 1.394 . S
C554 C555 1.369 . S
C554 C558 1.531 . S
C555 C554 1.369 . S
C555 C556 1.410 . S
C555 C563 1.503 . S
C556 C555 1.410 . S
C556 C557 1.392 . S
C556 C559 1.511 . S
C557 C553 1.376 . S
C557 C556 1.392 . S
C557 H569 0.929 . S
C558 C554 1.531 . S
C558 H570 0.960 . S
C558 H571 0.962 . S
C558 H572 0.960 . S
C559 C556 1.511 . S
C559 H573 0.961 . S
C559 H574 0.961 . S
C559 H575 0.961 . S
C560 C561 1.370 . S
C560 C562 1.363 . S
C560 H576 0.931 . S
C561 C560 1.370 . S
C561 C565 1.408 . S
C562 C560 1.363 . S
C562 C563 1.370 . S
C562 C566 1.524 . S
C563 C555 1.503 . S
C563 C562 1.370 . S
C563 C564 1.403 . S
C564 C563 1.403 . S
C564 C565 1.404 . S
C564 C567 1.539 . S
C565 C561 1.408 . S
C565 C564 1.404 . S
C565 H577 0.930 . S
C566 C562 1.524 . S
C566 H578 0.956 . S
C566 H579 0.961 . S
C566 H580 0.961 . S
C567 C564 1.539 . S
C567 H581 0.958 . S
C567 H582 0.961 . S
C567 H583 0.960 . S
H568 C552 0.931 . S
H569 C557 0.929 . S
H570 C558 0.960 . S
H571 C558 0.962 . S
H572 C558 0.960 . S
H573 C559 0.961 . S
H574 C559 0.961 . S
H575 C559 0.961 . S
H576 C560 0.931 . S
H577 C565 0.930 . S
H578 C566 0.956 . S
H579 C566 0.961 . S
H580 C566 0.961 . S
H581 C567 0.958 . S
H582 C567 0.961 . S
H583 C567 0.960 . S
C584 C585 1.391 1_554 S
C584 C586 1.394 . S
C584 H600 0.931 . S
C585 C584 1.391 1_556 S
C585 C589 1.376 . S
C586 C584 1.394 . S
C586 C587 1.369 . S
C586 C590 1.531 . S
C587 C586 1.369 . S
C587 C588 1.410 1_554 S
C587 C595 1.503 . S
C588 C587 1.410 1_556 S
C588 C589 1.392 . S
C588 C591 1.511 . S
C589 C585 1.376 . S
C589 C588 1.392 . S
C589 H601 0.929 . S
C590 C586 1.531 . S
C590 H602 0.960 . S
C590 H603 0.962 . S
C590 H604 0.960 . S
C591 C588 1.511 . S
C591 H605 0.961 . S
C591 H606 0.961 . S
C591 H607 0.961 . S
C592 C593 1.370 1_556 S
C592 C594 1.363 . S
C592 H608 0.931 . S
C593 C592 1.370 1_554 S
C593 C597 1.408 . S
C594 C592 1.363 . S
C594 C595 1.370 1_556 S
C594 C598 1.524 . S
C595 C587 1.503 . S
C595 C594 1.370 1_554 S
C595 C596 1.403 . S
C596 C595 1.403 . S
C596 C597 1.404 . S
C596 C599 1.539 . S
C597 C593 1.408 . S
C597 C596 1.404 . S
C597 H609 0.930 . S
C598 C594 1.524 . S
C598 H610 0.956 . S
C598 H611 0.961 . S
C598 H612 0.961 . S
C599 C596 1.539 . S
C599 H613 0.958 . S
C599 H614 0.961 . S
C599 H615 0.960 . S
H600 C584 0.931 . S
H601 C589 0.929 . S
H602 C590 0.960 . S
H603 C590 0.962 . S
H604 C590 0.960 . S
H605 C591 0.961 . S
H606 C591 0.961 . S
H607 C591 0.961 . S
H608 C592 0.931 . S
H609 C597 0.930 . S
H610 C598 0.956 . S
H611 C598 0.961 . S
H612 C598 0.961 . S
H613 C599 0.958 . S
H614 C599 0.961 . S
H615 C599 0.960 . S
C616 C617 1.391 . S
C616 C618 1.394 . S
C616 H632 0.931 . S
C617 C616 1.391 . S
C617 C621 1.376 . S
C618 C616 1.394 . S
C618 C619 1.369 . S
C618 C622 1.531 . S
C619 C618 1.369 . S
C619 C620 1.410 . S
C619 C627 1.503 . S
C620 C619 1.410 . S
C620 C621 1.392 . S
C620 C623 1.511 . S
C621 C617 1.376 . S
C621 C620 1.392 . S
C621 H633 0.929 . S
C622 C618 1.531 . S
C622 H634 0.960 . S
C622 H635 0.962 . S
C622 H636 0.960 . S
C623 C620 1.511 . S
C623 H637 0.961 . S
C623 H638 0.961 . S
C623 H639 0.961 . S
C624 C625 1.370 . S
C624 C626 1.363 . S
C624 H640 0.931 . S
C625 C624 1.370 . S
C625 C629 1.408 . S
C626 C624 1.363 . S
C626 C627 1.370 . S
C626 C630 1.524 . S
C627 C619 1.503 . S
C627 C626 1.370 . S
C627 C628 1.403 . S
C628 C627 1.403 . S
C628 C629 1.404 . S
C628 C631 1.539 . S
C629 C625 1.408 . S
C629 C628 1.404 . S
C629 H641 0.930 . S
C630 C626 1.524 . S
C630 H642 0.956 . S
C630 H643 0.961 . S
C630 H644 0.961 . S
C631 C628 1.539 . S
C631 H645 0.958 . S
C631 H646 0.961 . S
C631 H647 0.960 . S
H632 C616 0.931 . S
H633 C621 0.929 . S
H634 C622 0.960 . S
H635 C622 0.962 . S
H636 C622 0.960 . S
H637 C623 0.961 . S
H638 C623 0.961 . S
H639 C623 0.961 . S
H640 C624 0.931 . S
H641 C629 0.930 . S
H642 C630 0.956 . S
H643 C630 0.961 . S
H644 C630 0.961 . S
H645 C631 0.958 . S
H646 C631 0.961 . S
H647 C631 0.960 . S
C648 C649 1.391 . S
C648 C650 1.394 . S
C648 H664 0.931 . S
C649 C648 1.391 . S
C649 C653 1.376 . S
C650 C648 1.394 . S
C650 C651 1.369 . S
C650 C654 1.531 . S
C651 C650 1.369 . S
C651 C652 1.410 . S
C651 C659 1.503 . S
C652 C651 1.410 . S
C652 C653 1.392 . S
C652 C655 1.511 . S
C653 C649 1.376 . S
C653 C652 1.392 . S
C653 H665 0.929 . S
C654 C650 1.531 . S
C654 H666 0.960 . S
C654 H667 0.962 . S
C654 H668 0.960 . S
C655 C652 1.511 . S
C655 H669 0.961 . S
C655 H670 0.961 . S
C655 H671 0.961 . S
C656 C657 1.370 . S
C656 C658 1.363 . S
C656 H672 0.931 . S
C657 C656 1.370 . S
C657 C661 1.408 . S
C658 C656 1.363 . S
C658 C659 1.370 . S
C658 C662 1.524 . S
C659 C651 1.503 . S
C659 C658 1.370 . S
C659 C660 1.403 . S
C660 C659 1.403 . S
C660 C661 1.404 . S
C660 C663 1.539 . S
C661 C657 1.408 . S
C661 C660 1.404 . S
C661 H673 0.930 . S
C662 C658 1.524 . S
C662 H674 0.956 . S
C662 H675 0.961 . S
C662 H676 0.961 . S
C663 C660 1.539 . S
C663 H677 0.958 . S
C663 H678 0.961 . S
C663 H679 0.960 . S
H664 C648 0.931 . S
H665 C653 0.929 . S
H666 C654 0.960 . S
H667 C654 0.962 . S
H668 C654 0.960 . S
H669 C655 0.961 . S
H670 C655 0.961 . S
H671 C655 0.961 . S
H672 C656 0.931 . S
H673 C661 0.930 . S
H674 C662 0.956 . S
H675 C662 0.961 . S
H676 C662 0.961 . S
H677 C663 0.958 . S
H678 C663 0.961 . S
H679 C663 0.960 . S
C680 C681 1.391 . S
C680 C682 1.394 . S
C680 H696 0.931 . S
C681 C680 1.391 . S
C681 C685 1.376 . S
C682 C680 1.394 . S
C682 C683 1.369 . S
C682 C686 1.531 . S
C683 C682 1.369 . S
C683 C684 1.410 . S
C683 C691 1.503 1_455 S
C684 C683 1.410 . S
C684 C685 1.392 . S
C684 C687 1.511 1_455 S
C685 C681 1.376 . S
C685 C684 1.392 . S
C685 H697 0.929 . S
C686 C682 1.531 . S
C686 H698 0.960 . S
C686 H699 0.962 . S
C686 H700 0.960 . S
C687 C684 1.511 1_655 S
C687 H701 0.961 . S
C687 H702 0.961 . S
C687 H703 0.961 . S
C688 C689 1.370 . S
C688 C690 1.363 . S
C688 H704 0.931 . S
C689 C688 1.370 . S
C689 C693 1.408 . S
C690 C688 1.363 . S
C690 C691 1.370 . S
C690 C694 1.524 . S
C691 C683 1.503 1_655 S
C691 C690 1.370 . S
C691 C692 1.403 . S
C692 C691 1.403 . S
C692 C693 1.404 . S
C692 C695 1.539 . S
C693 C689 1.408 . S
C693 C692 1.404 . S
C693 H705 0.930 . S
C694 C690 1.524 . S
C694 H706 0.958 1_655 S
C694 H707 0.961 . S
C694 H708 0.961 . S
C695 C692 1.539 . S
C695 H709 0.958 . S
C695 H710 0.961 . S
C695 H711 0.960 . S
H696 C680 0.931 . S
H697 C685 0.929 . S
H698 C686 0.960 . S
H699 C686 0.962 . S
H700 C686 0.960 . S
H701 C687 0.961 . S
H702 C687 0.961 . S
H703 C687 0.961 . S
H704 C688 0.931 . S
H705 C693 0.930 . S
H706 C694 0.958 1_455 S
H707 C694 0.961 . S
H708 C694 0.961 . S
H709 C695 0.958 . S
H710 C695 0.961 . S
H711 C695 0.960 . S
C712 C713 1.391 . S
C712 C714 1.394 . S
C712 H728 0.931 . S
C713 C712 1.391 . S
C713 C717 1.376 . S
C714 C712 1.394 . S
C714 C715 1.369 . S
C714 C718 1.531 . S
C715 C714 1.369 . S
C715 C716 1.410 . S
C715 C723 1.503 . S
C716 C715 1.410 . S
C716 C717 1.392 . S
C716 C719 1.511 . S
C717 C713 1.376 . S
C717 C716 1.392 . S
C717 H729 0.929 . S
C718 C714 1.531 . S
C718 H730 0.960 . S
C718 H731 0.962 . S
C718 H732 0.960 . S
C719 C716 1.511 . S
C719 H733 0.961 . S
C719 H734 0.961 . S
C719 H735 0.961 . S
C720 C721 1.370 . S
C720 C722 1.363 . S
C720 H736 0.931 . S
C721 C720 1.370 . S
C721 C725 1.408 . S
C722 C720 1.363 . S
C722 C723 1.370 . S
C722 C726 1.524 . S
C723 C715 1.503 . S
C723 C722 1.370 . S
C723 C724 1.403 . S
C724 C723 1.403 . S
C724 C725 1.404 . S
C724 C727 1.539 . S
C725 C721 1.408 . S
C725 C724 1.404 . S
C725 H737 0.930 . S
C726 C722 1.524 . S
C726 H738 0.956 . S
C726 H739 0.961 . S
C726 H740 0.961 . S
C727 C724 1.539 . S
C727 H741 0.958 . S
C727 H742 0.961 . S
C727 H743 0.960 . S
H728 C712 0.931 . S
H729 C717 0.929 . S
H730 C718 0.960 . S
H731 C718 0.962 . S
H732 C718 0.960 . S
H733 C719 0.961 . S
H734 C719 0.961 . S
H735 C719 0.961 . S
H736 C720 0.931 . S
H737 C725 0.930 . S
H738 C726 0.956 . S
H739 C726 0.961 . S
H740 C726 0.961 . S
H741 C727 0.958 . S
H742 C727 0.961 . S
H743 C727 0.960 . S
C744 C745 1.391 . S
C744 C746 1.394 . S
C744 H760 0.931 . S
C745 C744 1.391 . S
C745 C749 1.376 1_545 S
C746 C744 1.394 . S
C746 C747 1.369 1_545 S
C746 C750 1.531 . S
C747 C746 1.369 1_565 S
C747 C748 1.410 . S
C747 C755 1.503 . S
C748 C747 1.410 . S
C748 C749 1.392 . S
C748 C751 1.511 . S
C749 C745 1.376 1_565 S
C749 C748 1.392 . S
C749 H761 0.929 . S
C750 C746 1.531 . S
C750 H762 0.960 . S
C750 H763 0.962 . S
C750 H764 0.960 . S
C751 C748 1.511 . S
C751 H765 0.961 . S
C751 H766 0.961 . S
C751 H767 0.961 . S
C752 C753 1.370 . S
C752 C754 1.363 . S
C752 H768 0.931 . S
C753 C752 1.370 . S
C753 C757 1.408 . S
C754 C752 1.363 . S
C754 C755 1.370 . S
C754 C758 1.524 . S
C755 C747 1.503 . S
C755 C754 1.370 . S
C755 C756 1.403 . S
C756 C755 1.403 . S
C756 C757 1.404 . S
C756 C759 1.539 . S
C757 C753 1.408 . S
C757 C756 1.404 . S
C757 H769 0.930 . S
C758 C754 1.524 . S
C758 H770 0.956 . S
C758 H771 0.961 . S
C758 H772 0.961 . S
C759 C756 1.539 . S
C759 H773 0.958 . S
C759 H774 0.961 . S
C759 H775 0.960 . S
H760 C744 0.931 . S
H761 C749 0.929 . S
H762 C750 0.960 . S
H763 C750 0.962 . S
H764 C750 0.960 . S
H765 C751 0.961 . S
H766 C751 0.961 . S
H767 C751 0.961 . S
H768 C752 0.931 . S
H769 C757 0.930 . S
H770 C758 0.956 . S
H771 C758 0.961 . S
H772 C758 0.961 . S
H773 C759 0.958 . S
H774 C759 0.961 . S
H775 C759 0.960 . S
C776 C777 1.391 . S
C776 C778 1.394 . S
C776 H792 0.931 . S
C777 C776 1.391 . S
C777 C781 1.376 . S
C778 C776 1.394 . S
C778 C779 1.369 . S
C778 C782 1.531 . S
C779 C778 1.369 . S
C779 C780 1.410 . S
C779 C787 1.503 . S
C780 C779 1.410 . S
C780 C781 1.392 . S
C780 C783 1.511 . S
C781 C777 1.376 . S
C781 C780 1.392 . S
C781 H793 0.929 . S
C782 C778 1.531 . S
C782 H794 0.960 . S
C782 H795 0.962 . S
C782 H796 0.960 . S
C783 C780 1.511 . S
C783 H797 0.961 . S
C783 H798 0.961 . S
C783 H799 0.961 . S
C784 C785 1.370 . S
C784 C786 1.363 . S
C784 H800 0.931 . S
C785 C784 1.370 . S
C785 C789 1.408 . S
C786 C784 1.363 . S
C786 C787 1.370 . S
C786 C790 1.524 . S
C787 C779 1.503 . S
C787 C786 1.370 . S
C787 C788 1.403 . S
C788 C787 1.403 . S
C788 C789 1.404 . S
C788 C791 1.539 . S
C789 C785 1.408 . S
C789 C788 1.404 . S
C789 H801 0.930 . S
C790 C786 1.524 . S
C790 H802 0.956 . S
C790 H803 0.961 . S
C790 H804 0.961 . S
C791 C788 1.539 . S
C791 H805 0.958 . S
C791 H806 0.961 . S
C791 H807 0.960 . S
H792 C776 0.931 . S
H793 C781 0.929 . S
H794 C782 0.960 . S
H795 C782 0.962 . S
H796 C782 0.960 . S
H797 C783 0.961 . S
H798 C783 0.961 . S
H799 C783 0.961 . S
H800 C784 0.931 . S
H801 C789 0.930 . S
H802 C790 0.956 . S
H803 C790 0.961 . S
H804 C790 0.961 . S
H805 C791 0.958 . S
H806 C791 0.961 . S
H807 C791 0.960 . S
C808 C809 1.391 . S
C808 C810 1.394 . S
C808 H824 0.931 . S
C809 C808 1.391 . S
C809 C813 1.376 . S
C810 C808 1.394 . S
C810 C811 1.369 . S
C810 C814 1.531 . S
C811 C810 1.369 . S
C811 C812 1.410 . S
C811 C819 1.503 . S
C812 C811 1.410 . S
C812 C813 1.392 . S
C812 C815 1.511 . S
C813 C809 1.376 . S
C813 C812 1.392 . S
C813 H825 0.929 . S
C814 C810 1.531 . S
C814 H826 0.960 . S
C814 H827 0.962 . S
C814 H828 0.960 . S
C815 C812 1.511 . S
C815 H829 0.961 . S
C815 H830 0.961 . S
C815 H831 0.961 . S
C816 C817 1.370 . S
C816 C818 1.363 . S
C816 H832 0.931 . S
C817 C816 1.370 . S
C817 C821 1.408 . S
C818 C816 1.363 . S
C818 C819 1.370 . S
C818 C822 1.524 . S
C819 C811 1.503 . S
C819 C818 1.370 . S
C819 C820 1.403 . S
C820 C819 1.403 . S
C820 C821 1.404 . S
C820 C823 1.539 . S
C821 C817 1.408 . S
C821 C820 1.404 . S
C821 H833 0.930 . S
C822 C818 1.524 . S
C822 H834 0.956 . S
C822 H835 0.961 . S
C822 H836 0.961 . S
C823 C820 1.539 . S
C823 H837 0.958 . S
C823 H838 0.961 . S
C823 H839 0.960 . S
H824 C808 0.931 . S
H825 C813 0.929 . S
H826 C814 0.960 . S
H827 C814 0.962 . S
H828 C814 0.960 . S
H829 C815 0.961 . S
H830 C815 0.961 . S
H831 C815 0.961 . S
H832 C816 0.931 . S
H833 C821 0.930 . S
H834 C822 0.956 . S
H835 C822 0.961 . S
H836 C822 0.961 . S
H837 C823 0.958 . S
H838 C823 0.961 . S
H839 C823 0.960 . S
C840 C841 1.391 . S
C840 C842 1.394 . S
C840 H856 0.931 . S
C841 C840 1.391 . S
C841 C845 1.376 . S
C842 C840 1.394 . S
C842 C843 1.369 . S
C842 C846 1.531 . S
C843 C842 1.369 . S
C843 C844 1.410 . S
C843 C851 1.503 . S
C844 C843 1.410 . S
C844 C845 1.392 . S
C844 C847 1.511 . S
C845 C841 1.376 . S
C845 C844 1.392 . S
C845 H857 0.929 . S
C846 C842 1.531 . S
C846 H858 0.960 . S
C846 H859 0.962 . S
C846 H860 0.960 . S
C847 C844 1.511 . S
C847 H861 0.961 . S
C847 H862 0.961 . S
C847 H863 0.961 . S
C848 C849 1.370 . S
C848 C850 1.363 . S
C848 H864 0.931 . S
C849 C848 1.370 . S
C849 C853 1.408 . S
C850 C848 1.363 . S
C850 C851 1.370 . S
C850 C854 1.524 . S
C851 C843 1.503 . S
C851 C850 1.370 . S
C851 C852 1.403 . S
C852 C851 1.403 . S
C852 C853 1.404 . S
C852 C855 1.539 . S
C853 C849 1.408 . S
C853 C852 1.404 . S
C853 H865 0.930 . S
C854 C850 1.524 . S
C854 H866 0.956 . S
C854 H867 0.961 . S
C854 H868 0.961 . S
C855 C852 1.539 . S
C855 H869 0.958 . S
C855 H870 0.961 . S
C855 H871 0.960 . S
H856 C840 0.931 . S
H857 C845 0.929 . S
H858 C846 0.960 . S
H859 C846 0.962 . S
H860 C846 0.960 . S
H861 C847 0.961 . S
H862 C847 0.961 . S
H863 C847 0.961 . S
H864 C848 0.931 . S
H865 C853 0.930 . S
H866 C854 0.956 . S
H867 C854 0.961 . S
H868 C854 0.961 . S
H869 C855 0.958 . S
H870 C855 0.961 . S
H871 C855 0.960 . S
C872 C873 1.391 1_565 S
C872 C874 1.394 . S
C872 H888 0.931 . S
C873 C872 1.391 1_545 S
C873 C877 1.376 . S
C874 C872 1.394 . S
C874 C875 1.369 . S
C874 C878 1.531 . S
C875 C874 1.369 . S
C875 C876 1.410 . S
C875 C883 1.503 . S
C876 C875 1.410 . S
C876 C877 1.392 1_565 S
C876 C879 1.511 . S
C877 C873 1.376 . S
C877 C876 1.392 1_545 S
C877 H889 0.929 . S
C878 C874 1.531 . S
C878 H890 0.960 . S
C878 H891 0.962 . S
C878 H892 0.960 . S
C879 C876 1.511 . S
C879 H893 0.961 . S
C879 H894 0.961 . S
C879 H895 0.961 1_565 S
C880 C881 1.370 . S
C880 C882 1.363 . S
C880 H896 0.931 . S
C881 C880 1.370 . S
C881 C885 1.408 . S
C882 C880 1.363 . S
C882 C883 1.370 . S
C882 C886 1.524 . S
C883 C875 1.503 . S
C883 C882 1.370 . S
C883 C884 1.403 . S
C884 C883 1.403 . S
C884 C885 1.404 . S
C884 C887 1.557 . S
C885 C881 1.408 . S
C885 C884 1.404 . S
C885 H897 0.930 . S
C886 C882 1.524 . S
C886 H898 0.956 . S
C886 H899 0.961 . S
C886 H900 0.961 . S
C887 C884 1.557 . S
C887 H901 0.954 1_565 S
C887 H902 0.957 1_565 S
C887 H903 0.948 1_565 S
H888 C872 0.931 . S
H889 C877 0.929 . S
H890 C878 0.960 . S
H891 C878 0.962 . S
H892 C878 0.960 . S
H893 C879 0.961 . S
H894 C879 0.961 . S
H895 C879 0.961 1_545 S
H896 C880 0.931 . S
H897 C885 0.930 . S
H898 C886 0.956 . S
H899 C886 0.961 . S
H900 C886 0.961 . S
H901 C887 0.954 1_545 S
H902 C887 0.957 1_545 S
H903 C887 0.948 1_545 S
C904 C905 1.391 . S
C904 C906 1.394 . S
C904 H920 0.931 . S
C905 C904 1.391 . S
C905 C909 1.376 . S
C906 C904 1.394 . S
C906 C907 1.369 . S
C906 C910 1.531 . S
C907 C906 1.369 . S
C907 C908 1.410 . S
C907 C915 1.503 . S
C908 C907 1.410 . S
C908 C909 1.392 . S
C908 C911 1.511 . S
C909 C905 1.376 . S
C909 C908 1.392 . S
C909 H921 0.929 . S
C910 C906 1.531 . S
C910 H922 0.960 . S
C910 H923 0.962 . S
C910 H924 0.960 . S
C911 C908 1.511 . S
C911 H925 0.961 . S
C911 H926 0.961 . S
C911 H927 0.961 . S
C912 C913 1.370 . S
C912 C914 1.363 . S
C912 H928 0.931 . S
C913 C912 1.370 . S
C913 C917 1.408 . S
C914 C912 1.363 . S
C914 C915 1.370 . S
C914 C918 1.524 . S
C915 C907 1.503 . S
C915 C914 1.370 . S
C915 C916 1.403 . S
C916 C915 1.403 . S
C916 C917 1.404 . S
C916 C919 1.539 . S
C917 C913 1.408 . S
C917 C916 1.404 . S
C917 H929 0.930 . S
C918 C914 1.524 . S
C918 H930 0.956 . S
C918 H931 0.961 . S
C918 H932 0.961 . S
C919 C916 1.539 . S
C919 H933 0.958 . S
C919 H934 0.961 . S
C919 H935 0.960 . S
H920 C904 0.931 . S
H921 C909 0.929 . S
H922 C910 0.960 . S
H923 C910 0.962 . S
H924 C910 0.960 . S
H925 C911 0.961 . S
H926 C911 0.961 . S
H927 C911 0.961 . S
H928 C912 0.931 . S
H929 C917 0.930 . S
H930 C918 0.956 . S
H931 C918 0.961 . S
H932 C918 0.961 . S
H933 C919 0.958 . S
H934 C919 0.961 . S
H935 C919 0.960 . S
C936 C937 1.391 . S
C936 C938 1.394 . S
C936 H952 0.931 . S
C937 C936 1.391 . S
C937 C941 1.376 . S
C938 C936 1.394 . S
C938 C939 1.369 . S
C938 C942 1.531 . S
C939 C938 1.369 . S
C939 C940 1.410 . S
C939 C947 1.503 . S
C940 C939 1.410 . S
C940 C941 1.392 . S
C940 C943 1.511 . S
C941 C937 1.376 . S
C941 C940 1.392 . S
C941 H953 0.929 . S
C942 C938 1.531 . S
C942 H954 0.960 . S
C942 H955 0.962 . S
C942 H956 0.960 . S
C943 C940 1.511 . S
C943 H957 0.961 . S
C943 H958 0.961 . S
C943 H959 0.961 . S
C944 C945 1.370 . S
C944 C946 1.363 . S
C944 H960 0.931 . S
C945 C944 1.370 . S
C945 C949 1.408 . S
C946 C944 1.363 . S
C946 C947 1.370 . S
C946 C950 1.524 . S
C947 C939 1.503 . S
C947 C946 1.370 . S
C947 C948 1.403 . S
C948 C947 1.403 . S
C948 C949 1.404 . S
C948 C951 1.539 . S
C949 C945 1.408 . S
C949 C948 1.404 . S
C949 H961 0.930 . S
C950 C946 1.524 . S
C950 H962 0.956 . S
C950 H963 0.961 . S
C950 H964 0.961 . S
C951 C948 1.539 . S
C951 H965 0.958 . S
C951 H966 0.961 . S
C951 H967 0.960 . S
H952 C936 0.931 . S
H953 C941 0.929 . S
H954 C942 0.960 . S
H955 C942 0.962 . S
H956 C942 0.960 . S
H957 C943 0.961 . S
H958 C943 0.961 . S
H959 C943 0.961 . S
H960 C944 0.931 . S
H961 C949 0.930 . S
H962 C950 0.956 . S
H963 C950 0.961 . S
H964 C950 0.961 . S
H965 C951 0.958 . S
H966 C951 0.961 . S
H967 C951 0.960 . S
C968 C969 1.391 . S
C968 C970 1.394 . S
C968 H984 0.931 . S
C969 C968 1.391 . S
C969 C973 1.376 . S
C970 C968 1.394 . S
C970 C971 1.369 . S
C970 C974 1.531 . S
C971 C970 1.369 . S
C971 C972 1.410 . S
C971 C979 1.503 . S
C972 C971 1.410 . S
C972 C973 1.392 . S
C972 C975 1.511 . S
C973 C969 1.376 . S
C973 C972 1.392 . S
C973 H985 0.929 . S
C974 C970 1.531 . S
C974 H986 0.960 . S
C974 H987 0.962 . S
C974 H988 0.960 . S
C975 C972 1.511 . S
C975 H989 0.961 . S
C975 H990 0.961 . S
C975 H991 0.961 . S
C976 C977 1.370 . S
C976 C978 1.363 . S
C976 H992 0.931 . S
C977 C976 1.370 . S
C977 C981 1.408 . S
C978 C976 1.363 . S
C978 C979 1.370 . S
C978 C982 1.524 . S
C979 C971 1.503 . S
C979 C978 1.370 . S
C979 C980 1.403 . S
C980 C979 1.403 . S
C980 C981 1.404 . S
C980 C983 1.539 . S
C981 C977 1.408 . S
C981 C980 1.404 . S
C981 H993 0.930 . S
C982 C978 1.524 . S
C982 H994 0.956 . S
C982 H995 0.961 . S
C982 H996 0.961 . S
C983 C980 1.539 . S
C983 H997 0.958 . S
C983 H998 0.961 . S
C983 H999 0.960 . S
H984 C968 0.931 . S
H985 C973 0.929 . S
H986 C974 0.960 . S
H987 C974 0.962 . S
H988 C974 0.960 . S
H989 C975 0.961 . S
H990 C975 0.961 . S
H991 C975 0.961 . S
H992 C976 0.931 . S
H993 C981 0.930 . S
H994 C982 0.956 . S
H995 C982 0.961 . S
H996 C982 0.961 . S
H997 C983 0.958 . S
H998 C983 0.961 . S
H999 C983 0.960 . S
C1000 C1001 1.391 . S
C1000 C1002 1.394 . S
C1000 H1016 0.931 . S
C1001 C1000 1.391 . S
C1001 C1005 1.376 . S
C1002 C1000 1.394 . S
C1002 C1003 1.369 . S
C1002 C1006 1.531 . S
C1003 C1002 1.369 . S
C1003 C1004 1.410 . S
C1003 C1011 1.503 . S
C1004 C1003 1.410 . S
C1004 C1005 1.392 . S
C1004 C1007 1.511 . S
C1005 C1001 1.376 . S
C1005 C1004 1.392 . S
C1005 H1017 0.929 . S
C1006 C1002 1.531 . S
C1006 H1018 0.960 . S
C1006 H1019 0.962 . S
C1006 H1020 0.960 . S
C1007 C1004 1.511 . S
C1007 H1021 0.961 . S
C1007 H1022 0.961 . S
C1007 H1023 0.961 . S
C1008 C1009 1.370 . S
C1008 C1010 1.363 . S
C1008 H1024 0.931 . S
C1009 C1008 1.370 . S
C1009 C1013 1.408 . S
C1010 C1008 1.363 . S
C1010 C1011 1.370 . S
C1010 C1014 1.524 . S
C1011 C1003 1.503 . S
C1011 C1010 1.370 . S
C1011 C1012 1.403 . S
C1012 C1011 1.403 . S
C1012 C1013 1.404 . S
C1012 C1015 1.539 . S
C1013 C1009 1.408 . S
C1013 C1012 1.404 . S
C1013 H1025 0.930 . S
C1014 C1010 1.524 . S
C1014 H1026 0.956 . S
C1014 H1027 0.961 . S
C1014 H1028 0.961 . S
C1015 C1012 1.539 . S
C1015 H1029 0.958 . S
C1015 H1030 0.961 . S
C1015 H1031 0.960 . S
H1016 C1000 0.931 . S
H1017 C1005 0.929 . S
H1018 C1006 0.960 . S
H1019 C1006 0.962 . S
H1020 C1006 0.960 . S
H1021 C1007 0.961 . S
H1022 C1007 0.961 . S
H1023 C1007 0.961 . S
H1024 C1008 0.931 . S
H1025 C1013 0.930 . S
H1026 C1014 0.956 . S
H1027 C1014 0.961 . S
H1028 C1014 0.961 . S
H1029 C1015 0.958 . S
H1030 C1015 0.961 . S
H1031 C1015 0.960 . S
C1032 C1033 1.391 . S
C1032 C1034 1.394 . S
C1032 H1048 0.931 . S
C1033 C1032 1.391 . S
C1033 C1037 1.376 . S
C1034 C1032 1.394 . S
C1034 C1035 1.369 . S
C1034 C1038 1.531 . S
C1035 C1034 1.369 . S
C1035 C1036 1.410 . S
C1035 C1043 1.503 . S
C1036 C1035 1.410 . S
C1036 C1037 1.392 . S
C1036 C1039 1.511 . S
C1037 C1033 1.376 . S
C1037 C1036 1.392 . S
C1037 H1049 0.929 . S
C1038 C1034 1.531 . S
C1038 H1050 0.960 . S
C1038 H1051 0.962 . S
C1038 H1052 0.960 . S
C1039 C1036 1.511 . S
C1039 H1053 0.961 . S
C1039 H1054 0.961 . S
C1039 H1055 0.961 . S
C1040 C1041 1.370 . S
C1040 C1042 1.363 . S
C1040 H1056 0.931 . S
C1041 C1040 1.370 . S
C1041 C1045 1.408 . S
C1042 C1040 1.363 . S
C1042 C1043 1.370 . S
C1042 C1046 1.524 . S
C1043 C1035 1.503 . S
C1043 C1042 1.370 . S
C1043 C1044 1.403 . S
C1044 C1043 1.403 . S
C1044 C1045 1.404 . S
C1044 C1047 1.539 . S
C1045 C1041 1.408 . S
C1045 C1044 1.404 . S
C1045 H1057 0.930 . S
C1046 C1042 1.524 . S
C1046 H1058 0.956 . S
C1046 H1059 0.961 . S
C1046 H1060 0.961 . S
C1047 C1044 1.539 . S
C1047 H1061 0.958 . S
C1047 H1062 0.961 . S
C1047 H1063 0.960 . S
H1048 C1032 0.931 . S
H1049 C1037 0.929 . S
H1050 C1038 0.960 . S
H1051 C1038 0.962 . S
H1052 C1038 0.960 . S
H1053 C1039 0.961 . S
H1054 C1039 0.961 . S
H1055 C1039 0.961 . S
H1056 C1040 0.931 . S
H1057 C1045 0.930 . S
H1058 C1046 0.956 . S
H1059 C1046 0.961 . S
H1060 C1046 0.961 . S
H1061 C1047 0.958 . S
H1062 C1047 0.961 . S
H1063 C1047 0.960 . S
C1064 C1065 1.391 . S
C1064 C1066 1.394 . S
C1064 H1080 0.931 . S
C1065 C1064 1.391 . S
C1065 C1069 1.376 . S
C1066 C1064 1.394 . S
C1066 C1067 1.369 . S
C1066 C1070 1.531 . S
C1067 C1066 1.369 . S
C1067 C1068 1.410 . S
C1067 C1075 1.503 . S
C1068 C1067 1.410 . S
C1068 C1069 1.392 . S
C1068 C1071 1.511 . S
C1069 C1065 1.376 . S
C1069 C1068 1.392 . S
C1069 H1081 0.929 . S
C1070 C1066 1.531 . S
C1070 H1082 0.960 . S
C1070 H1083 0.962 . S
C1070 H1084 0.960 . S
C1071 C1068 1.511 . S
C1071 H1085 0.961 . S
C1071 H1086 0.961 . S
C1071 H1087 0.961 . S
C1072 C1073 1.370 . S
C1072 C1074 1.363 . S
C1072 H1088 0.931 . S
C1073 C1072 1.370 . S
C1073 C1077 1.408 . S
C1074 C1072 1.363 . S
C1074 C1075 1.370 . S
C1074 C1078 1.524 . S
C1075 C1067 1.503 . S
C1075 C1074 1.370 . S
C1075 C1076 1.403 . S
C1076 C1075 1.403 . S
C1076 C1077 1.404 . S
C1076 C1079 1.539 . S
C1077 C1073 1.408 . S
C1077 C1076 1.404 . S
C1077 H1089 0.930 . S
C1078 C1074 1.524 . S
C1078 H1090 0.956 . S
C1078 H1091 0.961 . S
C1078 H1092 0.961 . S
C1079 C1076 1.539 . S
C1079 H1093 0.958 . S
C1079 H1094 0.961 . S
C1079 H1095 0.960 . S
H1080 C1064 0.931 . S
H1081 C1069 0.929 . S
H1082 C1070 0.960 . S
H1083 C1070 0.962 . S
H1084 C1070 0.960 . S
H1085 C1071 0.961 . S
H1086 C1071 0.961 . S
H1087 C1071 0.961 . S
H1088 C1072 0.931 . S
H1089 C1077 0.930 . S
H1090 C1078 0.956 . S
H1091 C1078 0.961 . S
H1092 C1078 0.961 . S
H1093 C1079 0.958 . S
H1094 C1079 0.961 . S
H1095 C1079 0.960 . S
C1096 C1097 1.391 . S
C1096 C1098 1.394 . S
C1096 H1112 0.931 . S
C1097 C1096 1.391 . S
C1097 C1101 1.376 . S
C1098 C1096 1.394 . S
C1098 C1099 1.369 . S
C1098 C1102 1.531 . S
C1099 C1098 1.369 . S
C1099 C1100 1.410 . S
C1099 C1107 1.503 . S
C1100 C1099 1.410 . S
C1100 C1101 1.392 . S
C1100 C1103 1.511 . S
C1101 C1097 1.376 . S
C1101 C1100 1.392 . S
C1101 H1113 0.929 . S
C1102 C1098 1.531 . S
C1102 H1114 0.960 . S
C1102 H1115 0.962 . S
C1102 H1116 0.960 . S
C1103 C1100 1.511 . S
C1103 H1117 0.961 . S
C1103 H1118 0.961 . S
C1103 H1119 0.961 . S
C1104 C1105 1.370 . S
C1104 C1106 1.363 . S
C1104 H1120 0.931 . S
C1105 C1104 1.370 . S
C1105 C1109 1.408 . S
C1106 C1104 1.363 . S
C1106 C1107 1.370 . S
C1106 C1110 1.524 . S
C1107 C1099 1.503 . S
C1107 C1106 1.370 . S
C1107 C1108 1.403 . S
C1108 C1107 1.403 . S
C1108 C1109 1.404 . S
C1108 C1111 1.539 . S
C1109 C1105 1.408 . S
C1109 C1108 1.404 . S
C1109 H1121 0.930 . S
C1110 C1106 1.524 . S
C1110 H1122 0.956 . S
C1110 H1123 0.961 . S
C1110 H1124 0.961 . S
C1111 C1108 1.539 . S
C1111 H1125 0.958 . S
C1111 H1126 0.961 . S
C1111 H1127 0.960 . S
H1112 C1096 0.931 . S
H1113 C1101 0.929 . S
H1114 C1102 0.960 . S
H1115 C1102 0.962 . S
H1116 C1102 0.960 . S
H1117 C1103 0.961 . S
H1118 C1103 0.961 . S
H1119 C1103 0.961 . S
H1120 C1104 0.931 . S
H1121 C1109 0.930 . S
H1122 C1110 0.956 . S
H1123 C1110 0.961 . S
H1124 C1110 0.961 . S
H1125 C1111 0.958 . S
H1126 C1111 0.961 . S
H1127 C1111 0.960 . S
C1128 C1129 1.391 . S
C1128 C1130 1.394 . S
C1128 H1144 0.931 . S
C1129 C1128 1.391 . S
C1129 C1133 1.376 . S
C1130 C1128 1.394 . S
C1130 C1131 1.369 . S
C1130 C1134 1.531 . S
C1131 C1130 1.369 . S
C1131 C1132 1.410 . S
C1131 C1139 1.503 . S
C1132 C1131 1.410 . S
C1132 C1133 1.392 . S
C1132 C1135 1.511 . S
C1133 C1129 1.376 . S
C1133 C1132 1.392 . S
C1133 H1145 0.929 . S
C1134 C1130 1.531 . S
C1134 H1146 0.960 . S
C1134 H1147 0.962 . S
C1134 H1148 0.960 . S
C1135 C1132 1.511 . S
C1135 H1149 0.961 . S
C1135 H1150 0.961 . S
C1135 H1151 0.961 . S
C1136 C1137 1.370 . S
C1136 C1138 1.363 . S
C1136 H1152 0.931 . S
C1137 C1136 1.370 . S
C1137 C1141 1.408 . S
C1138 C1136 1.363 . S
C1138 C1139 1.370 . S
C1138 C1142 1.524 . S
C1139 C1131 1.503 . S
C1139 C1138 1.370 . S
C1139 C1140 1.403 . S
C1140 C1139 1.403 . S
C1140 C1141 1.404 . S
C1140 C1143 1.539 . S
C1141 C1137 1.408 . S
C1141 C1140 1.404 . S
C1141 H1153 0.930 . S
C1142 C1138 1.524 . S
C1142 H1154 0.956 . S
C1142 H1155 0.961 . S
C1142 H1156 0.961 . S
C1143 C1140 1.539 . S
C1143 H1157 0.958 . S
C1143 H1158 0.961 . S
C1143 H1159 0.960 . S
H1144 C1128 0.931 . S
H1145 C1133 0.929 . S
H1146 C1134 0.960 . S
H1147 C1134 0.962 . S
H1148 C1134 0.960 . S
H1149 C1135 0.961 . S
H1150 C1135 0.961 . S
H1151 C1135 0.961 . S
H1152 C1136 0.931 . S
H1153 C1141 0.930 . S
H1154 C1142 0.956 . S
H1155 C1142 0.961 . S
H1156 C1142 0.961 . S
H1157 C1143 0.958 . S
H1158 C1143 0.961 . S
H1159 C1143 0.960 . S
C1160 C1161 1.391 . S
C1160 C1162 1.394 . S
C1160 H1176 0.931 . S
C1161 C1160 1.391 . S
C1161 C1165 1.376 . S
C1162 C1160 1.394 . S
C1162 C1163 1.369 . S
C1162 C1166 1.531 . S
C1163 C1162 1.369 . S
C1163 C1164 1.410 . S
C1163 C1171 1.503 . S
C1164 C1163 1.410 . S
C1164 C1165 1.392 . S
C1164 C1167 1.511 . S
C1165 C1161 1.376 . S
C1165 C1164 1.392 . S
C1165 H1177 0.929 . S
C1166 C1162 1.531 . S
C1166 H1178 0.960 . S
C1166 H1179 0.962 . S
C1166 H1180 0.960 . S
C1167 C1164 1.511 . S
C1167 H1181 0.961 . S
C1167 H1182 0.961 . S
C1167 H1183 0.961 . S
C1168 C1169 1.370 . S
C1168 C1170 1.363 . S
C1168 H1184 0.931 . S
C1169 C1168 1.370 . S
C1169 C1173 1.408 . S
C1170 C1168 1.363 . S
C1170 C1171 1.370 . S
C1170 C1174 1.524 . S
C1171 C1163 1.503 . S
C1171 C1170 1.370 . S
C1171 C1172 1.403 . S
C1172 C1171 1.403 . S
C1172 C1173 1.404 . S
C1172 C1175 1.539 . S
C1173 C1169 1.408 . S
C1173 C1172 1.404 . S
C1173 H1185 0.930 . S
C1174 C1170 1.524 . S
C1174 H1186 0.956 . S
C1174 H1187 0.961 . S
C1174 H1188 0.961 . S
C1175 C1172 1.539 . S
C1175 H1189 0.958 . S
C1175 H1190 0.961 . S
C1175 H1191 0.960 . S
H1176 C1160 0.931 . S
H1177 C1165 0.929 . S
H1178 C1166 0.960 . S
H1179 C1166 0.962 . S
H1180 C1166 0.960 . S
H1181 C1167 0.961 . S
H1182 C1167 0.961 . S
H1183 C1167 0.961 . S
H1184 C1168 0.931 . S
H1185 C1173 0.930 . S
H1186 C1174 0.956 . S
H1187 C1174 0.961 . S
H1188 C1174 0.961 . S
H1189 C1175 0.958 . S
H1190 C1175 0.961 . S
H1191 C1175 0.960 . S
C1192 C1193 1.391 . S
C1192 C1194 1.394 . S
C1192 H1208 0.931 . S
C1193 C1192 1.391 . S
C1193 C1197 1.376 . S
C1194 C1192 1.394 . S
C1194 C1195 1.369 . S
C1194 C1198 1.531 . S
C1195 C1194 1.369 . S
C1195 C1196 1.410 . S
C1195 C1203 1.503 . S
C1196 C1195 1.410 . S
C1196 C1197 1.392 . S
C1196 C1199 1.511 . S
C1197 C1193 1.376 . S
C1197 C1196 1.392 . S
C1197 H1209 0.929 . S
C1198 C1194 1.531 . S
C1198 H1210 0.960 . S
C1198 H1211 0.962 . S
C1198 H1212 0.960 . S
C1199 C1196 1.511 . S
C1199 H1213 0.961 . S
C1199 H1214 0.961 . S
C1199 H1215 0.961 . S
C1200 C1201 1.370 . S
C1200 C1202 1.363 . S
C1200 H1216 0.931 . S
C1201 C1200 1.370 . S
C1201 C1205 1.408 . S
C1202 C1200 1.363 . S
C1202 C1203 1.370 . S
C1202 C1206 1.524 . S
C1203 C1195 1.503 . S
C1203 C1202 1.370 . S
C1203 C1204 1.403 . S
C1204 C1203 1.403 . S
C1204 C1205 1.404 . S
C1204 C1207 1.539 . S
C1205 C1201 1.408 . S
C1205 C1204 1.404 . S
C1205 H1217 0.930 . S
C1206 C1202 1.524 . S
C1206 H1218 0.956 . S
C1206 H1219 0.961 . S
C1206 H1220 0.961 . S
C1207 C1204 1.539 . S
C1207 H1221 0.958 . S
C1207 H1222 0.961 . S
C1207 H1223 0.960 . S
H1208 C1192 0.931 . S
H1209 C1197 0.929 . S
H1210 C1198 0.960 . S
H1211 C1198 0.962 . S
H1212 C1198 0.960 . S
H1213 C1199 0.961 . S
H1214 C1199 0.961 . S
H1215 C1199 0.961 . S
H1216 C1200 0.931 . S
H1217 C1205 0.930 . S
H1218 C1206 0.956 . S
H1219 C1206 0.961 . S
H1220 C1206 0.961 . S
H1221 C1207 0.958 . S
H1222 C1207 0.961 . S
H1223 C1207 0.960 . S
C1224 C1225 1.391 . S
C1224 C1226 1.394 . S
C1224 H1240 0.931 . S
C1225 C1224 1.391 . S
C1225 C1229 1.376 . S
C1226 C1224 1.394 . S
C1226 C1227 1.369 . S
C1226 C1230 1.531 . S
C1227 C1226 1.369 . S
C1227 C1228 1.410 . S
C1227 C1235 1.503 . S
C1228 C1227 1.410 . S
C1228 C1229 1.392 . S
C1228 C1231 1.511 . S
C1229 C1225 1.376 . S
C1229 C1228 1.392 . S
C1229 H1241 0.929 . S
C1230 C1226 1.531 . S
C1230 H1242 0.960 . S
C1230 H1243 0.962 . S
C1230 H1244 0.960 . S
C1231 C1228 1.511 . S
C1231 H1245 0.961 . S
C1231 H1246 0.961 . S
C1231 H1247 0.961 . S
C1232 C1233 1.370 . S
C1232 C1234 1.363 1_556 S
C1232 H1248 0.931 . S
C1233 C1232 1.370 . S
C1233 C1237 1.408 . S
C1234 C1232 1.363 1_554 S
C1234 C1235 1.370 . S
C1234 C1238 1.524 . S
C1235 C1227 1.503 . S
C1235 C1234 1.370 . S
C1235 C1236 1.403 1_554 S
C1236 C1235 1.403 1_556 S
C1236 C1237 1.404 . S
C1236 C1239 1.539 1_556 S
C1237 C1233 1.408 . S
C1237 C1236 1.404 . S
C1237 H1249 0.930 . S
C1238 C1234 1.524 . S
C1238 H1250 0.956 . S
C1238 H1251 0.961 . S
C1238 H1252 0.961 . S
C1239 C1236 1.539 1_554 S
C1239 H1253 0.958 . S
C1239 H1254 0.961 1_554 S
C1239 H1255 0.960 . S
H1240 C1224 0.931 . S
H1241 C1229 0.929 . S
H1242 C1230 0.960 . S
H1243 C1230 0.962 . S
H1244 C1230 0.960 . S
H1245 C1231 0.961 . S
H1246 C1231 0.961 . S
H1247 C1231 0.961 . S
H1248 C1232 0.931 . S
H1249 C1237 0.930 . S
H1250 C1238 0.956 . S
H1251 C1238 0.961 . S
H1252 C1238 0.961 . S
H1253 C1239 0.958 . S
H1254 C1239 0.961 1_556 S
H1255 C1239 0.960 . S
C1256 C1257 1.391 . S
C1256 C1258 1.394 . S
C1256 H1272 0.931 . S
C1257 C1256 1.391 . S
C1257 C1261 1.376 . S
C1258 C1256 1.394 . S
C1258 C1259 1.369 . S
C1258 C1262 1.531 . S
C1259 C1258 1.369 . S
C1259 C1260 1.410 . S
C1259 C1267 1.503 . S
C1260 C1259 1.410 . S
C1260 C1261 1.392 . S
C1260 C1263 1.511 . S
C1261 C1257 1.376 . S
C1261 C1260 1.392 . S
C1261 H1273 0.929 . S
C1262 C1258 1.531 . S
C1262 H1274 0.960 . S
C1262 H1275 0.962 . S
C1262 H1276 0.960 . S
C1263 C1260 1.511 . S
C1263 H1277 0.961 . S
C1263 H1278 0.961 . S
C1263 H1279 0.961 . S
C1264 C1265 1.370 . S
C1264 C1266 1.363 . S
C1264 H1280 0.931 . S
C1265 C1264 1.370 . S
C1265 C1269 1.408 . S
C1266 C1264 1.363 . S
C1266 C1267 1.370 . S
C1266 C1270 1.524 . S
C1267 C1259 1.503 . S
C1267 C1266 1.370 . S
C1267 C1268 1.403 . S
C1268 C1267 1.403 . S
C1268 C1269 1.404 . S
C1268 C1271 1.539 . S
C1269 C1265 1.408 . S
C1269 C1268 1.404 . S
C1269 H1281 0.930 . S
C1270 C1266 1.524 . S
C1270 H1282 0.956 . S
C1270 H1283 0.961 . S
C1270 H1284 0.961 . S
C1271 C1268 1.539 . S
C1271 H1285 0.958 . S
C1271 H1286 0.961 . S
C1271 H1287 0.960 . S
H1272 C1256 0.931 . S
H1273 C1261 0.929 . S
H1274 C1262 0.960 . S
H1275 C1262 0.962 . S
H1276 C1262 0.960 . S
H1277 C1263 0.961 . S
H1278 C1263 0.961 . S
H1279 C1263 0.961 . S
H1280 C1264 0.931 . S
H1281 C1269 0.930 . S
H1282 C1270 0.956 . S
H1283 C1270 0.961 . S
H1284 C1270 0.961 . S
H1285 C1271 0.958 . S
H1286 C1271 0.961 . S
H1287 C1271 0.960 . S
C1288 C1289 1.391 . S
C1288 C1290 1.394 . S
C1288 H1304 0.931 . S
C1289 C1288 1.391 . S
C1289 C1293 1.376 . S
C1290 C1288 1.394 . S
C1290 C1291 1.369 1_545 S
C1290 C1294 1.531 1_545 S
C1291 C1290 1.369 1_565 S
C1291 C1292 1.410 1_565 S
C1291 C1299 1.503 . S
C1292 C1291 1.410 1_545 S
C1292 C1293 1.392 . S
C1292 C1295 1.511 1_545 S
C1293 C1289 1.376 . S
C1293 C1292 1.392 . S
C1293 H1305 0.929 . S
C1294 C1290 1.531 1_565 S
C1294 H1306 0.960 . S
C1294 H1307 0.962 1_565 S
C1294 H1308 0.964 . S
C1295 C1292 1.511 1_565 S
C1295 H1309 0.961 1_565 S
C1295 H1310 0.961 . S
C1295 H1311 0.961 . S
C1296 C1297 1.370 . S
C1296 C1298 1.363 . S
C1296 H1312 0.931 . S
C1297 C1296 1.370 . S
C1297 C1301 1.408 . S
C1298 C1296 1.363 . S
C1298 C1299 1.370 . S
C1298 C1302 1.524 1_565 S
C1299 C1291 1.503 . S
C1299 C1298 1.370 . S
C1299 C1300 1.403 . S
C1300 C1299 1.403 . S
C1300 C1301 1.404 . S
C1300 C1303 1.539 . S
C1301 C1297 1.408 . S
C1301 C1300 1.404 . S
C1301 H1313 0.930 . S
C1302 C1298 1.524 1_545 S
C1302 H1314 0.956 . S
C1302 H1315 0.961 . S
C1302 H1316 0.961 . S
C1303 C1300 1.539 . S
C1303 H1317 0.958 . S
C1303 H1318 0.961 . S
C1303 H1319 0.960 . S
H1304 C1288 0.931 . S
H1305 C1293 0.929 . S
H1306 C1294 0.960 . S
H1307 C1294 0.962 1_545 S
H1308 C1294 0.964 . S
H1309 C1295 0.961 1_545 S
H1310 C1295 0.961 . S
H1311 C1295 0.961 . S
H1312 C1296 0.931 . S
H1313 C1301 0.930 . S
H1314 C1302 0.956 . S
H1315 C1302 0.961 . S
H1316 C1302 0.961 . S
H1317 C1303 0.958 . S
H1318 C1303 0.961 . S
H1319 C1303 0.960 . S
C1320 C1321 1.391 . S
C1320 C1322 1.394 . S
C1320 H1336 0.931 . S
C1321 C1320 1.391 . S
C1321 C1325 1.376 . S
C1322 C1320 1.394 . S
C1322 C1323 1.369 . S
C1322 C1326 1.531 . S
C1323 C1322 1.369 . S
C1323 C1324 1.410 . S
C1323 C1331 1.503 . S
C1324 C1323 1.410 . S
C1324 C1325 1.392 . S
C1324 C1327 1.511 . S
C1325 C1321 1.376 . S
C1325 C1324 1.392 . S
C1325 H1337 0.929 . S
C1326 C1322 1.531 . S
C1326 H1338 0.960 . S
C1326 H1339 0.962 . S
C1326 H1340 0.960 . S
C1327 C1324 1.511 . S
C1327 H1341 0.961 . S
C1327 H1342 0.961 . S
C1327 H1343 0.961 . S
C1328 C1329 1.370 . S
C1328 C1330 1.363 . S
C1328 H1344 0.931 . S
C1329 C1328 1.370 . S
C1329 C1333 1.408 . S
C1330 C1328 1.363 . S
C1330 C1331 1.370 . S
C1330 C1334 1.524 . S
C1331 C1323 1.503 . S
C1331 C1330 1.370 . S
C1331 C1332 1.403 . S
C1332 C1331 1.403 . S
C1332 C1333 1.404 . S
C1332 C1335 1.539 . S
C1333 C1329 1.408 . S
C1333 C1332 1.404 . S
C1333 H1345 0.930 . S
C1334 C1330 1.524 . S
C1334 H1346 0.956 . S
C1334 H1347 0.961 . S
C1334 H1348 0.961 . S
C1335 C1332 1.539 . S
C1335 H1349 0.958 . S
C1335 H1350 0.961 . S
C1335 H1351 0.960 . S
H1336 C1320 0.931 . S
H1337 C1325 0.929 . S
H1338 C1326 0.960 . S
H1339 C1326 0.962 . S
H1340 C1326 0.960 . S
H1341 C1327 0.961 . S
H1342 C1327 0.961 . S
H1343 C1327 0.961 . S
H1344 C1328 0.931 . S
H1345 C1333 0.930 . S
H1346 C1334 0.956 . S
H1347 C1334 0.961 . S
H1348 C1334 0.961 . S
H1349 C1335 0.958 . S
H1350 C1335 0.961 . S
H1351 C1335 0.960 . S
C1352 C1353 1.391 . S
C1352 C1354 1.394 1_545 S
C1352 H1368 0.931 . S
C1353 C1352 1.391 . S
C1353 C1357 1.376 . S
C1354 C1352 1.394 1_565 S
C1354 C1355 1.369 . S
C1354 C1358 1.531 . S
C1355 C1354 1.369 . S
C1355 C1356 1.410 . S
C1355 C1363 1.503 . S
C1356 C1355 1.410 . S
C1356 C1357 1.392 1_565 S
C1356 C1359 1.511 . S
C1357 C1353 1.376 . S
C1357 C1356 1.392 1_545 S
C1357 H1369 0.929 . S
C1358 C1354 1.531 . S
C1358 H1370 0.960 . S
C1358 H1371 0.962 . S
C1358 H1372 0.960 . S
C1359 C1356 1.511 . S
C1359 H1373 0.961 . S
C1359 H1374 0.961 . S
C1359 H1375 0.961 . S
C1360 C1361 1.370 . S
C1360 C1362 1.363 . S
C1360 H1376 0.931 . S
C1361 C1360 1.370 . S
C1361 C1365 1.408 . S
C1362 C1360 1.363 . S
C1362 C1363 1.370 . S
C1362 C1366 1.524 . S
C1363 C1355 1.503 . S
C1363 C1362 1.370 . S
C1363 C1364 1.403 . S
C1364 C1363 1.403 . S
C1364 C1365 1.404 . S
C1364 C1367 1.539 . S
C1365 C1361 1.408 . S
C1365 C1364 1.404 . S
C1365 H1377 0.930 . S
C1366 C1362 1.524 . S
C1366 H1378 0.956 . S
C1366 H1379 0.961 . S
C1366 H1380 0.961 . S
C1367 C1364 1.539 . S
C1367 H1381 0.958 . S
C1367 H1382 0.961 . S
C1367 H1383 0.960 . S
H1368 C1352 0.931 . S
H1369 C1357 0.929 . S
H1370 C1358 0.960 . S
H1371 C1358 0.962 . S
H1372 C1358 0.960 . S
H1373 C1359 0.961 . S
H1374 C1359 0.961 . S
H1375 C1359 0.961 . S
H1376 C1360 0.931 . S
H1377 C1365 0.930 . S
H1378 C1366 0.956 . S
H1379 C1366 0.961 . S
H1380 C1366 0.961 . S
H1381 C1367 0.958 . S
H1382 C1367 0.961 . S
H1383 C1367 0.960 . S
C1384 C1385 1.391 . S
C1384 C1386 1.394 . S
C1384 H1400 0.931 . S
C1385 C1384 1.391 . S
C1385 C1389 1.376 . S
C1386 C1384 1.394 . S
C1386 C1387 1.369 . S
C1386 C1390 1.531 . S
C1387 C1386 1.369 . S
C1387 C1388 1.410 . S
C1387 C1395 1.503 . S
C1388 C1387 1.410 . S
C1388 C1389 1.392 . S
C1388 C1391 1.511 . S
C1389 C1385 1.376 . S
C1389 C1388 1.392 . S
C1389 H1401 0.929 . S
C1390 C1386 1.531 . S
C1390 H1402 0.960 . S
C1390 H1403 0.962 . S
C1390 H1404 0.960 . S
C1391 C1388 1.511 . S
C1391 H1405 0.961 . S
C1391 H1406 0.961 . S
C1391 H1407 0.961 . S
C1392 C1393 1.370 . S
C1392 C1394 1.363 . S
C1392 H1408 0.931 . S
C1393 C1392 1.370 . S
C1393 C1397 1.408 . S
C1394 C1392 1.363 . S
C1394 C1395 1.370 . S
C1394 C1398 1.524 . S
C1395 C1387 1.503 . S
C1395 C1394 1.370 . S
C1395 C1396 1.403 . S
C1396 C1395 1.403 . S
C1396 C1397 1.404 . S
C1396 C1399 1.539 . S
C1397 C1393 1.408 . S
C1397 C1396 1.404 . S
C1397 H1409 0.930 . S
C1398 C1394 1.524 . S
C1398 H1410 0.956 . S
C1398 H1411 0.961 . S
C1398 H1412 0.961 . S
C1399 C1396 1.539 . S
C1399 H1413 0.958 . S
C1399 H1414 0.961 . S
C1399 H1415 0.960 . S
H1400 C1384 0.931 . S
H1401 C1389 0.929 . S
H1402 C1390 0.960 . S
H1403 C1390 0.962 . S
H1404 C1390 0.960 . S
H1405 C1391 0.961 . S
H1406 C1391 0.961 . S
H1407 C1391 0.961 . S
H1408 C1392 0.931 . S
H1409 C1397 0.930 . S
H1410 C1398 0.956 . S
H1411 C1398 0.961 . S
H1412 C1398 0.961 . S
H1413 C1399 0.958 . S
H1414 C1399 0.961 . S
H1415 C1399 0.960 . S
C265 C51 1.695 . S
C273 C7 1.704 1_655 S
C297 C62 1.476 . S
C305 C16 1.214 . S
C329 C29 1.686 . S
C337 C73 1.674 . S
C361 C82 1.180 . S
C369 C40 1.463 . S
C393 C95 1.849 . S
C401 C126 1.492 . S
C425 C115 1.423 . S
C433 C106 1.535 . S
C457 C137 1.655 . S
C465 C181 1.663 . S
C489 C192 1.182 . S
C497 C150 1.416 . S
C521 C205 1.459 . S
C529 C161 1.442 . S
C553 C170 1.241 . S
C561 C216 1.287 . S
C585 C260 1.420 1_556 S
C593 C225 1.518 1_554 S
C617 C249 1.363 . S
C625 C236 1.317 . S
C649 C217 1.673 . S
C657 C8 1.679 . S
C681 C184 1.961 . S
C689 C18 1.850 . S
C713 C27 1.896 . S
C721 C195 1.989 . S
C745 C38 1.571 . S
C753 C206 1.677 . S
C777 C52 1.809 . S
C785 C148 1.641 . S
C809 C162 1.857 . S
C817 C60 1.851 . S
C841 C71 1.743 . S
C849 C172 1.832 . S
C873 C85 1.827 1_455 S
C881 C140 1.832 . S
C905 C41 1.657 . S
C913 C261 1.617 . S
C937 C5 1.649 . S
C945 C238 1.797 . S
C969 C19 1.577 . S
C977 C228 1.609 . S
C1001 C30 1.940 . S
C1009 C247 1.510 . S
C1033 C63 1.607 . S
C1041 C250 1.579 . S
C1065 C74 1.850 . S
C1073 C258 1.400 . S
C1097 C239 1.795 . S
C1105 C84 1.733 . S
C1129 C49 1.712 . S
C1137 C227 1.805 . S
C1161 C93 1.888 . S
C1169 C183 1.974 . S
C1193 C139 1.839 . S
C1201 C104 1.483 . S
C1225 C96 1.925 . S
C1233 C151 1.945 . S
C1257 C118 1.808 . S
C1265 C159 1.531 . S
C1289 C173 1.841 . S
C1297 C129 1.789 . S
C1321 C203 1.701 . S
C1329 C128 1.914 . S
C1353 C214 1.818 . S
C1361 C107 1.811 . S
C1385 C194 2.088 . S
C1393 C117 2.070 . S
