# Generated by pormake.
# Topology wjd, (6)-cn, num edge types: 1
# Building blocks:
#     Node 0, Type 0, BuildingBlock: BETFEN_clean_sbu_0, # of connection points: 6
#     Node 1, Type 0, BuildingBlock: BETFEN_clean_sbu_0, # of connection points: 6
#     Node 2, Type 0, BuildingBlock: BETFEN_clean_sbu_0, # of connection points: 6
#     Node 3, Type 0, BuildingBlock: BETFEN_clean_sbu_0, # of connection points: 6
#     Node 4, Type 0, BuildingBlock: BETFEN_clean_sbu_0, # of connection points: 6
#     Node 5, Type 0, BuildingBlock: BETFEN_clean_sbu_0, # of connection points: 6
#     Node 6, Type 0, BuildingBlock: BETFEN_clean_sbu_0, # of connection points: 6
#     Node 7, Type 0, BuildingBlock: BETFEN_clean_sbu_0, # of connection points: 6
#     Node 8, Type 0, BuildingBlock: BETFEN_clean_sbu_0, # of connection points: 6
#     Node 9, Type 0, BuildingBlock: BETFEN_clean_sbu_0, # of connection points: 6
#     Node 10, Type 0, BuildingBlock: BETFEN_clean_sbu_0, # of connection points: 6
#     Node 11, Type 0, BuildingBlock: BETFEN_clean_sbu_0, # of connection points: 6
#     Edge 12, Type (0, 0), BuildingBlock: EZIPEK_clean_linker_0, # of connection points: 2
#     Edge 13, Type (0, 0), BuildingBlock: EZIPEK_clean_linker_0, # of connection points: 2
#     Edge 14, Type (0, 0), BuildingBlock: EZIPEK_clean_linker_0, # of connection points: 2
#     Edge 15, Type (0, 0), BuildingBlock: EZIPEK_clean_linker_0, # of connection points: 2
#     Edge 16, Type (0, 0), BuildingBlock: EZIPEK_clean_linker_0, # of connection points: 2
#     Edge 17, Type (0, 0), BuildingBlock: EZIPEK_clean_linker_0, # of connection points: 2
#     Edge 18, Type (0, 0), BuildingBlock: EZIPEK_clean_linker_0, # of connection points: 2
#     Edge 19, Type (0, 0), BuildingBlock: EZIPEK_clean_linker_0, # of connection points: 2
#     Edge 20, Type (0, 0), BuildingBlock: EZIPEK_clean_linker_0, # of connection points: 2
#     Edge 21, Type (0, 0), BuildingBlock: EZIPEK_clean_linker_0, # of connection points: 2
#     Edge 22, Type (0, 0), BuildingBlock: EZIPEK_clean_linker_0, # of connection points: 2
#     Edge 23, Type (0, 0), BuildingBlock: EZIPEK_clean_linker_0, # of connection points: 2
#     Edge 24, Type (0, 0), BuildingBlock: EZIPEK_clean_linker_0, # of connection points: 2
#     Edge 25, Type (0, 0), BuildingBlock: EZIPEK_clean_linker_0, # of connection points: 2
#     Edge 26, Type (0, 0), BuildingBlock: EZIPEK_clean_linker_0, # of connection points: 2
#     Edge 27, Type (0, 0), BuildingBlock: EZIPEK_clean_linker_0, # of connection points: 2
#     Edge 28, Type (0, 0), BuildingBlock: EZIPEK_clean_linker_0, # of connection points: 2
#     Edge 29, Type (0, 0), BuildingBlock: EZIPEK_clean_linker_0, # of connection points: 2
#     Edge 30, Type (0, 0), BuildingBlock: EZIPEK_clean_linker_0, # of connection points: 2
#     Edge 31, Type (0, 0), BuildingBlock: EZIPEK_clean_linker_0, # of connection points: 2
#     Edge 32, Type (0, 0), BuildingBlock: EZIPEK_clean_linker_0, # of connection points: 2
#     Edge 33, Type (0, 0), BuildingBlock: EZIPEK_clean_linker_0, # of connection points: 2
#     Edge 34, Type (0, 0), BuildingBlock: EZIPEK_clean_linker_0, # of connection points: 2
#     Edge 35, Type (0, 0), BuildingBlock: EZIPEK_clean_linker_0, # of connection points: 2
#     Edge 36, Type (0, 0), BuildingBlock: EZIPEK_clean_linker_0, # of connection points: 2
#     Edge 37, Type (0, 0), BuildingBlock: EZIPEK_clean_linker_0, # of connection points: 2
#     Edge 38, Type (0, 0), BuildingBlock: EZIPEK_clean_linker_0, # of connection points: 2
#     Edge 39, Type (0, 0), BuildingBlock: EZIPEK_clean_linker_0, # of connection points: 2
#     Edge 40, Type (0, 0), BuildingBlock: EZIPEK_clean_linker_0, # of connection points: 2
#     Edge 41, Type (0, 0), BuildingBlock: EZIPEK_clean_linker_0, # of connection points: 2
#     Edge 42, Type (0, 0), BuildingBlock: EZIPEK_clean_linker_0, # of connection points: 2
#     Edge 43, Type (0, 0), BuildingBlock: EZIPEK_clean_linker_0, # of connection points: 2
#     Edge 44, Type (0, 0), BuildingBlock: EZIPEK_clean_linker_0, # of connection points: 2
#     Edge 45, Type (0, 0), BuildingBlock: EZIPEK_clean_linker_0, # of connection points: 2
#     Edge 46, Type (0, 0), BuildingBlock: EZIPEK_clean_linker_0, # of connection points: 2
#     Edge 47, Type (0, 0), BuildingBlock: EZIPEK_clean_linker_0, # of connection points: 2
# Relax obj value: 0.115
# Max RMSD: 0.241
# Mean RMSD: 0.241
data_MOF--net-wjd--node1-BETFEN_clean_sbu_0--edge1-EZIPEK_clean_linker_0
_symmetry_space_group_name_H-M    P1
_symmetry_Int_Tables_number       1
_symmetry_cell_setting            triclinic
loop_
_symmetry_equiv_pos_as_xyz
'x, y, z'
_cell_length_a     32.214024
_cell_length_b     32.341149
_cell_length_c     38.437825
_cell_angle_alpha  90.011625
_cell_angle_beta   90.073548
_cell_angle_gamma 119.9764
loop_
_atom_site_label
_atom_site_type_symbol
_atom_site_fract_x
_atom_site_fract_y
_atom_site_fract_z
_atom_type_partial_charge
Pr0 Pr 0.39694 0.18751 0.109 0.0
Pr1 Pr 0.33689 0.08904 0.13206 0.0
C2 C 0.44417 0.28203 0.09425 0.0
C3 C 0.48457 0.32936 0.10415 0.0
C4 C 0.53074 0.3367 0.11062 0.0
C5 C 0.56908 0.38285 0.11682 0.0
C6 C 0.56179 0.42223 0.11675 0.0
C7 C 0.51543 0.41469 0.11139 0.0
C8 C 0.47717 0.36864 0.10516 0.0
C9 C 0.35508 0.11892 0.05407 0.0
C10 C 0.45593 0.13506 0.12339 0.0
C11 C 0.27914 0.99385 0.13762 0.0
C12 C 0.22643 0.96399 0.13641 0.0
C13 C 0.20464 0.91559 0.12728 0.0
C14 C 0.15457 0.88764 0.12554 0.0
C15 C 0.12568 0.90783 0.13273 0.0
C16 C 0.14751 0.95633 0.1416 0.0
C17 C 0.19747 0.98421 0.14334 0.0
C18 C 0.37014 0.15121 0.18897 0.0
C19 C 0.28561 0.15396 0.12849 0.0
O20 O 0.40758 0.26206 0.11532 0.0
O21 O 0.45387 0.2514 0.07953 0.0
O22 O 0.33446 0.12232 0.08077 0.0
O23 O 0.39978 0.15166 0.05585 0.0
O24 O 0.41342 0.09559 0.12037 0.0
O25 O 0.45851 0.17651 0.12762 0.0
O26 O 0.29976 1.01472 0.10846 0.0
O27 O 0.29688 1.0221 0.16455 0.0
O28 O 0.39599 0.15432 0.16303 0.0
O29 O 0.32695 0.11557 0.1857 0.0
O30 O 0.32954 0.19005 0.12776 0.0
O31 O 0.2769 0.10978 0.12517 0.0
H32 H 0.53743 0.30704 0.11006 0.0
H33 H 0.6047 0.38806 0.12069 0.0
H34 H 0.50918 0.44463 0.11097 0.0
H35 H 0.44191 0.36384 0.10017 0.0
H36 H 0.22631 0.89945 0.12156 0.0
H37 H 0.13829 0.85022 0.11874 0.0
H38 H 0.12583 0.97247 0.14735 0.0
H39 H 0.2135 1.02157 0.15022 0.0
Pr40 Pr 0.80389 0.72551 0.38608 0.0
Pr41 Pr 0.84911 0.67178 0.41332 0.0
C42 C 0.77858 0.79315 0.38195 0.0
C43 C 0.80503 0.8457 0.37986 0.0
C44 C 0.85053 0.87046 0.36425 0.0
C45 C 0.87653 0.92047 0.36465 0.0
C46 C 0.85757 0.94625 0.38098 0.0
C47 C 0.8123 0.9215 0.39669 0.0
C48 C 0.78625 0.87159 0.39616 0.0
C49 C 0.8235 0.68239 0.33114 0.0
C50 C 0.9248 0.78086 0.39323 0.0
C51 C 0.88185 0.61199 0.43099 0.0
C52 C 0.88337 0.56849 0.42078 0.0
C53 C 0.86561 0.52977 0.44363 0.0
C54 C 0.86932 0.4895 0.43581 0.0
C55 C 0.88877 0.48496 0.40385 0.0
C56 C 0.91083 0.52653 0.38281 0.0
C57 C 0.90702 0.56689 0.39061 0.0
C58 C 0.82015 0.71586 0.46411 0.0
C59 C 0.73555 0.61058 0.39285 0.0
O60 O 0.78315 0.77564 0.41139 0.0
O61 O 0.77998 0.76941 0.35478 0.0
O62 O 0.85152 0.70135 0.35713 0.0
O63 O 0.78456 0.68494 0.33401 0.0
O64 O 0.92049 0.73977 0.40194 0.0
O65 O 0.88659 0.78535 0.38826 0.0
O66 O 0.90598 0.65037 0.4122 0.0
O67 O 0.84146 0.60701 0.44256 0.0
O68 O 0.79671 0.69145 0.43857 0.0
O69 O 0.86151 0.71813 0.46511 0.0
O70 O 0.73473 0.65094 0.39568 0.0
O71 O 0.77656 0.6109 0.39091 0.0
H72 H 0.86609 0.85118 0.35203 0.0
H73 H 0.9114 0.93906 0.35235 0.0
H74 H 0.79712 0.94088 0.40929 0.0
H75 H 0.75159 0.85315 0.40879 0.0
H76 H 0.8499 0.53111 0.46822 0.0
H77 H 0.8579 0.46271 0.4559 0.0
H78 H 0.93301 0.52996 0.36088 0.0
H79 H 0.9239 0.59741 0.37338 0.0
Pr80 Pr 0.88267 0.21852 0.10587 0.0
Pr81 Pr 0.98409 0.26511 0.13191 0.0
C82 C 0.78876 0.17882 0.08875 0.0
C83 C 0.7415 0.17501 0.09407 0.0
C84 C 0.70574 0.15154 0.06901 0.0
C85 C 0.66008 0.14599 0.07344 0.0
C86 C 0.64919 0.1666 0.10205 0.0
C87 C 0.68407 0.18465 0.12912 0.0
C88 C 0.72987 0.19016 0.12475 0.0
C89 C 0.95432 0.24219 0.0541 0.0
C90 C 0.93529 0.33402 0.12492 0.0
C91 C 0.07959 0.30453 0.1379 0.0
C92 C 0.10906 0.28198 0.1434 0.0
C93 C 0.08699 0.23341 0.15239 0.0
C94 C 0.11304 0.20943 0.15184 0.0
C95 C 0.1616 0.23372 0.14242 0.0
C96 C 0.18406 0.28265 0.13452 0.0
C97 C 0.15788 0.30658 0.13487 0.0
C98 C 0.91845 0.22601 0.18679 0.0
C99 C 0.92359 0.14817 0.12611 0.0
O100 O 0.80483 0.16233 0.11319 0.0
O101 O 0.82262 0.21674 0.07327 0.0
O102 O 0.95476 0.26723 0.07901 0.0
O103 O 0.91447 0.20168 0.05463 0.0
O104 O 0.97552 0.33343 0.13096 0.0
O105 O 0.89461 0.29478 0.11747 0.0
O106 O 0.0573 0.29409 0.10797 0.0
O107 O 0.05249 0.30298 0.16385 0.0
O108 O 0.9137 0.24804 0.16112 0.0
O109 O 0.95689 0.22295 0.18339 0.0
O110 O 0.88547 0.15291 0.12794 0.0
O111 O 0.96611 0.18596 0.12062 0.0
H112 H 0.71278 0.13642 0.04613 0.0
H113 H 0.63347 0.12425 0.05437 0.0
H114 H 0.67651 0.19362 0.15443 0.0
H115 H 0.75585 0.20541 0.14564 0.0
H116 H 0.04914 0.21361 0.15856 0.0
H117 H 0.09506 0.17166 0.1578 0.0
H118 H 0.22145 0.30188 0.12702 0.0
H119 H 0.1753 0.34379 0.12728 0.0
Pr120 Pr 0.34054 0.09411 0.38672 0.0
Pr121 Pr 0.40205 0.18981 0.41547 0.0
C122 C 0.2811 1.00039 0.37566 0.0
C123 C 0.22804 0.97015 0.37655 0.0
C124 C 0.20054 0.96381 0.34642 0.0
C125 C 0.15049 0.93695 0.34755 0.0
C126 C 0.12694 0.91558 0.37873 0.0
C127 C 0.15407 0.92172 0.40885 0.0
C128 C 0.20415 0.94871 0.4078 0.0
C129 C 0.37774 0.16157 0.33329 0.0
C130 C 0.29224 0.16127 0.39485 0.0
C131 C 0.45096 0.28296 0.43454 0.0
C132 C 0.49051 0.33065 0.42487 0.0
C133 C 0.49746 0.37038 0.44424 0.0
C134 C 0.5354 0.41599 0.43653 0.0
C135 C 0.56701 0.42267 0.40921 0.0
C136 C 0.5596 0.38305 0.3893 0.0
C137 C 0.52151 0.33725 0.39707 0.0
C138 C 0.35647 0.11544 0.46591 0.0
C139 C 0.45828 0.13529 0.39736 0.0
O140 O 0.30275 1.01746 0.40541 0.0
O141 O 0.29936 0.03142 0.35037 0.0
O142 O 0.40215 0.16148 0.35933 0.0
O143 O 0.3337 0.12732 0.33541 0.0
O144 O 0.33673 0.19629 0.39671 0.0
O145 O 0.28206 0.1164 0.39603 0.0
O146 O 0.41264 0.2646 0.41502 0.0
O147 O 0.46215 0.25137 0.44515 0.0
O148 O 0.33766 0.12232 0.43959 0.0
O149 O 0.40026 0.1501 0.4684 0.0
O150 O 0.41501 0.09665 0.39859 0.0
O151 O 0.46266 0.1778 0.39547 0.0
H152 H 0.21767 0.97968 0.32192 0.0
H153 H 0.13008 0.93217 0.32399 0.0
H154 H 0.13646 0.9051 0.43307 0.0
H155 H 0.2241 0.9528 0.43149 0.0
H156 H 0.47386 0.36603 0.46572 0.0
H157 H 0.54076 0.44599 0.45235 0.0
H158 H 0.58391 0.38747 0.36833 0.0
H159 H 0.51663 0.307 0.38177 0.0
Pr160 Pr 0.84332 0.66686 0.10374 0.0
Pr161 Pr 0.8024 0.72492 0.13156 0.0
C162 C 0.86983 0.60266 0.0845 0.0
C163 C 0.87982 0.56475 0.09584 0.0
C164 C 0.86694 0.52565 0.07371 0.0
C165 C 0.87866 0.49066 0.0822 0.0
C166 C 0.90345 0.49402 0.11307 0.0
C167 C 0.91581 0.53272 0.13563 0.0
C168 C 0.90406 0.56789 0.12709 0.0
C169 C 0.81441 0.7114 0.05281 0.0
C170 C 0.7307 0.61044 0.12611 0.0
C171 C 0.77859 0.79347 0.1377 0.0
C172 C 0.80463 0.84614 0.13839 0.0
C173 C 0.84803 0.87225 0.15668 0.0
C174 C 0.87287 0.92225 0.15588 0.0
C175 C 0.85496 0.9467 0.13644 0.0
C176 C 0.81198 0.92065 0.11789 0.0
C177 C 0.787 0.87076 0.11888 0.0
C178 C 0.82125 0.67991 0.18586 0.0
C179 C 0.92208 0.77521 0.1232 0.0
O180 O 0.90015 0.64667 0.09333 0.0
O181 O 0.8254 0.59315 0.08449 0.0
O182 O 0.79235 0.68951 0.0795 0.0
O183 O 0.85344 0.70929 0.05033 0.0
O184 O 0.73163 0.65155 0.12241 0.0
O185 O 0.77074 0.60893 0.12798 0.0
O186 O 0.77921 0.77423 0.10795 0.0
O187 O 0.78345 0.77126 0.16451 0.0
O188 O 0.84882 0.69838 0.15968 0.0
O189 O 0.78302 0.68374 0.18334 0.0
O190 O 0.91571 0.7321 0.11943 0.0
O191 O 0.8851 0.78239 0.12458 0.0
H192 H 0.84845 0.52259 0.04944 0.0
H193 H 0.86885 0.46114 0.06446 0.0
H194 H 0.93498 0.53593 0.15957 0.0
H195 H 0.91443 0.59774 0.14459 0.0
H196 H 0.86278 0.85407 0.17149 0.0
H197 H 0.90593 0.94189 0.17045 0.0
H198 H 0.79757 0.93901 0.10292 0.0
H199 H 0.75392 0.85132 0.10429 0.0
Pr200 Pr 0.98135 0.26375 0.38946 0.0
Pr201 Pr 0.87913 0.21093 0.41276 0.0
C202 C 0.07723 0.30466 0.38721 0.0
C203 C 0.1069 0.28147 0.38609 0.0
C204 C 0.15116 0.3028 0.36879 0.0
C205 C 0.17933 0.28082 0.36896 0.0
C206 C 0.16349 0.23725 0.38642 0.0
C207 C 0.11896 0.2156 0.40317 0.0
C208 C 0.09094 0.23742 0.40298 0.0
C209 C 0.91879 0.22517 0.33229 0.0
C210 C 0.92511 0.14641 0.39209 0.0
C211 C 0.78484 0.16779 0.42909 0.0
C212 C 0.73691 0.16142 0.42194 0.0
C213 C 0.69981 0.13506 0.44562 0.0
C214 C 0.65368 0.12752 0.43972 0.0
C215 C 0.6437 0.14621 0.40997 0.0
C216 C 0.68068 0.17222 0.38595 0.0
C217 C 0.72704 0.17971 0.39186 0.0
C218 C 0.95006 0.23787 0.46616 0.0
C219 C 0.92559 0.32617 0.39599 0.0
O220 O 0.05333 0.29805 0.4161 0.0
O221 O 0.05179 0.30063 0.35946 0.0
O222 O 0.91107 0.24411 0.35858 0.0
O223 O 0.9592 0.22596 0.33581 0.0
O224 O 0.88608 0.14907 0.38842 0.0
O225 O 0.96592 0.18505 0.40021 0.0
O226 O 0.80263 0.15091 0.40628 0.0
O227 O 0.81722 0.20762 0.44357 0.0
O228 O 0.94868 0.26218 0.4415 0.0
O229 O 0.91236 0.1957 0.46433 0.0
O230 O 0.96837 0.32965 0.39391 0.0
O231 O 0.88606 0.28418 0.39837 0.0
H232 H 0.16414 0.33662 0.35556 0.0
H233 H 0.21376 0.29809 0.35601 0.0
H234 H 0.10626 0.18214 0.41687 0.0
H235 H 0.05703 0.22009 0.4166 0.0
H236 H 0.70661 0.12043 0.46888 0.0
H237 H 0.62587 0.10782 0.45873 0.0
H238 H 0.67384 0.18739 0.36303 0.0
H239 H 0.75514 0.19996 0.37318 0.0
Pr240 Pr 0.10174 0.32842 0.63678 0.0
Pr241 Pr 0.19541 0.38461 0.60451 0.0
C242 C 1.01264 0.25662 0.6515 0.0
C243 C 0.98568 0.20366 0.64832 0.0
C244 C 0.98124 0.17479 0.67708 0.0
C245 C 0.95424 0.12494 0.67463 0.0
C246 C 0.93079 0.10296 0.64346 0.0
C247 C 0.93587 0.13152 0.61449 0.0
C248 C 0.96301 0.18135 0.61686 0.0
C249 C 0.17176 0.37734 0.68778 0.0
C250 C 0.16987 0.27952 0.62387 0.0
C251 C 0.28499 0.44937 0.58289 0.0
C252 C 0.33582 0.47969 0.59374 0.0
C253 C 0.37234 0.48226 0.5723 0.0
C254 C 0.42053 0.51564 0.57902 0.0
C255 C 0.43319 0.54719 0.60732 0.0
C256 C 0.39698 0.54322 0.62977 0.0
C257 C 0.3487 0.50974 0.62309 0.0
C258 C 0.11881 0.33363 0.55661 0.0
C259 C 0.13706 0.44102 0.62717 0.0
O260 O 1.02347 0.28136 0.62271 0.0
O261 O 0.04698 0.2754 0.67462 0.0
O262 O 0.17749 0.35674 0.66156 0.0
O263 O 0.12985 0.374 0.68706 0.0
O264 O 0.20615 0.32332 0.62496 0.0
O265 O 0.12578 0.27214 0.62171 0.0
O266 O 0.26741 0.40333 0.58017 0.0
O267 O 0.25388 0.46062 0.59458 0.0
O268 O 0.11936 0.35828 0.58195 0.0
O269 O 0.16015 0.33633 0.55381 0.0
O270 O 0.09782 0.39877 0.62953 0.0
O271 O 0.17937 0.44448 0.62356 0.0
H272 H 0.99807 0.19072 0.70169 0.0
H273 H 0.95063 0.10349 0.69729 0.0
H274 H 0.91796 0.11523 0.59024 0.0
H275 H 0.96558 0.20234 0.59416 0.0
H276 H 0.36343 0.45975 0.54945 0.0
H277 H 0.44782 0.51832 0.56122 0.0
H278 H 0.4059 0.56741 0.6516 0.0
H279 H 0.32141 0.50865 0.64012 0.0
Pr280 Pr 0.2498 0.87205 0.91607 0.0
Pr281 Pr 0.28672 0.96933 0.88898 0.0
C282 C 0.2271 0.78187 0.93357 0.0
C283 C 0.2066 0.7315 0.922 0.0
C284 C 0.17075 0.69481 0.94217 0.0
C285 C 0.15575 0.64684 0.9351 0.0
C286 C 0.1764 0.63455 0.90773 0.0
C287 C 0.21068 0.67096 0.88651 0.0
C288 C 0.22566 0.71903 0.89355 0.0
C289 C 0.27765 0.94471 0.9682 0.0
C290 C 0.36344 0.93231 0.89614 0.0
C291 C 0.30547 0.05986 0.88039 0.0
C292 C 0.27719 0.08431 0.88136 0.0
C293 C 0.29213 0.12616 0.86202 0.0
C294 C 0.26716 0.15117 0.86431 0.0
C295 C 0.22693 0.13465 0.886 0.0
C296 C 0.21117 0.09212 0.90468 0.0
C297 C 0.23603 0.067 0.9023 0.0
C298 C 0.27061 0.9069 0.83409 0.0
C299 C 0.16825 0.89643 0.89683 0.0
O300 O 0.19822 0.7987 0.93874 0.0
O301 O 0.26868 0.8137 0.92115 0.0
O302 O 0.29961 0.94582 0.9411 0.0
O303 O 0.23933 0.90314 0.97012 0.0
O304 O 0.36007 0.97132 0.89874 0.0
O305 O 0.3247 0.88999 0.89446 0.0
O306 O 0.3105 0.04303 0.91003 0.0
O307 O 0.2975 0.03089 0.85431 0.0
O308 O 0.2424 0.8967 0.86005 0.0
O309 O 0.30842 0.94886 0.83748 0.0
O310 O 0.17718 0.86109 0.89669 0.0
O311 O 0.2038 0.94106 0.89936 0.0
H312 H 0.15573 0.70335 0.96438 0.0
H313 H 0.12956 0.61937 0.95195 0.0
H314 H 0.22731 0.66229 0.86543 0.0
H315 H 0.25342 0.74641 0.87753 0.0
H316 H 0.32368 0.14 0.84569 0.0
H317 H 0.27995 0.18411 0.8499 0.0
H318 H 0.18036 0.07904 0.92169 0.0
H319 H 0.22373 0.03466 0.91738 0.0
Pr320 Pr 0.74023 0.7816 0.62963 0.0
Pr321 Pr 0.6853 0.8255 0.60228 0.0
C322 C 0.80819 0.75644 0.63569 0.0
C323 C 0.86117 0.78046 0.63802 0.0
C324 C 0.88702 0.81332 0.66465 0.0
C325 C 0.93722 0.83601 0.66567 0.0
C326 C 0.96228 0.82643 0.64 0.0
C327 C 0.93658 0.79388 0.61339 0.0
C328 C 0.88652 0.77103 0.61246 0.0
C329 C 0.69488 0.7992 0.68434 0.0
C330 C 0.79294 0.90165 0.62593 0.0
C331 C 0.62256 0.85433 0.583 0.0
C332 C 0.58701 0.86778 0.5947 0.0
C333 C 0.54434 0.85113 0.57567 0.0
C334 C 0.51119 0.86543 0.58435 0.0
C335 C 0.51993 0.89665 0.61232 0.0
C336 C 0.56231 0.91298 0.63178 0.0
C337 C 0.59563 0.89865 0.62305 0.0
C338 C 0.73092 0.79797 0.5513 0.0
C339 C 0.62509 0.71183 0.6214 0.0
O340 O 0.79083 0.76007 0.60582 0.0
O341 O 0.78452 0.75936 0.66236 0.0
O342 O 0.71415 0.82769 0.65877 0.0
O343 O 0.69769 0.76065 0.68085 0.0
O344 O 0.74999 0.89594 0.62145 0.0
O345 O 0.79936 0.86426 0.62602 0.0
O346 O 0.66787 0.88363 0.58935 0.0
O347 O 0.61098 0.80957 0.58522 0.0
O348 O 0.70681 0.7745 0.57685 0.0
O349 O 0.73103 0.83807 0.55003 0.0
O350 O 0.66609 0.71191 0.61867 0.0
O351 O 0.62477 0.7523 0.6238 0.0
H352 H 0.86858 0.82164 0.68458 0.0
H353 H 0.95654 0.86109 0.68638 0.0
H354 H 0.95533 0.78607 0.59338 0.0
H355 H 0.86752 0.74604 0.59161 0.0
H356 H 0.53696 0.82754 0.55364 0.0
H357 H 0.4788 0.85246 0.56899 0.0
H358 H 0.56975 0.93714 0.65343 0.0
H359 H 0.62828 0.91211 0.63815 0.0
Pr360 Pr 0.1976 0.38006 0.91391 0.0
Pr361 Pr 0.10022 0.32773 0.88363 0.0
C362 C 0.289 0.43936 0.9356 0.0
C363 C 0.33796 0.47662 0.92538 0.0
C364 C 0.37691 0.48409 0.94597 0.0
C365 C 0.42295 0.52229 0.93925 0.0
C366 C 0.43142 0.55649 0.91304 0.0
C367 C 0.39302 0.54353 0.88919 0.0
C368 C 0.3467 0.50534 0.89597 0.0
C369 C 0.1218 0.33331 0.96294 0.0
C370 C 0.14642 0.44226 0.89325 0.0
C371 C 1.00805 0.26112 0.8715 0.0
C372 C 0.9798 0.20822 0.87211 0.0
C373 C 0.99297 0.18021 0.85196 0.0
C374 C 0.96635 0.13027 0.85361 0.0
C375 C 0.92602 0.10751 0.87528 0.0
C376 C 0.91299 0.13536 0.89551 0.0
C377 C 0.93962 0.18524 0.89393 0.0
C378 C 0.16768 0.37414 0.83132 0.0
C379 C 0.16291 0.27169 0.89502 0.0
O380 O 0.27359 0.39564 0.92524 0.0
O381 O 0.25547 0.45081 0.93567 0.0
O382 O 0.12333 0.3583 0.93761 0.0
O383 O 0.16177 0.33299 0.965 0.0
O384 O 0.10496 0.40179 0.89452 0.0
O385 O 0.18712 0.4419 0.89232 0.0
O386 O 1.02328 0.28223 0.90159 0.0
O387 O 1.03971 0.2813 0.84673 0.0
O388 O 0.17406 0.35283 0.85693 0.0
O389 O 0.12656 0.37238 0.83322 0.0
O390 O 0.20135 0.31409 0.8954 0.0
O391 O 0.11989 0.26733 0.89606 0.0
H392 H 0.37169 0.46064 0.96771 0.0
H393 H 0.4517 0.52474 0.95524 0.0
H394 H 0.39758 0.56154 0.86479 0.0
H395 H 0.31772 0.49833 0.87823 0.0
H396 H 1.02375 0.1968 0.83491 0.0
H397 H 0.97692 0.10935 0.83781 0.0
H398 H 0.88196 0.11842 0.91237 0.0
H399 H 0.92884 0.20593 0.90982 0.0
Pr400 Pr 0.28546 0.96894 0.63342 0.0
Pr401 Pr 0.24628 0.87185 0.60559 0.0
C402 C 0.30611 0.0603 0.6412 0.0
C403 C 0.27981 0.08685 0.63916 0.0
C404 C 0.29293 0.12629 0.66099 0.0
C405 C 0.2701 0.15336 0.65807 0.0
C406 C 0.23386 0.14144 0.63322 0.0
C407 C 0.2199 0.10137 0.61188 0.0
C408 C 0.24258 0.07416 0.6149 0.0
C409 C 0.26954 0.90597 0.68799 0.0
C410 C 0.1662 0.89827 0.62824 0.0
C411 C 0.22196 0.78148 0.58638 0.0
C412 C 0.20561 0.73138 0.59686 0.0
C413 C 0.22521 0.70659 0.57986 0.0
C414 C 0.20923 0.65857 0.58747 0.0
C415 C 0.17329 0.63413 0.61238 0.0
C416 C 0.1538 0.65887 0.62975 0.0
C417 C 0.1698 0.70712 0.62205 0.0
C418 C 0.2718 0.94427 0.55423 0.0
C419 C 0.3612 0.9307 0.62689 0.0
O420 O 0.31158 0.04289 0.61198 0.0
O421 O 0.29634 0.03122 0.66746 0.0
O422 O 0.24107 0.89612 0.66219 0.0
O423 O 0.30741 0.94792 0.68464 0.0
O424 O 0.17425 0.86236 0.62581 0.0
O425 O 0.2024 0.94261 0.62696 0.0
O426 O 0.19159 0.79708 0.58744 0.0
O427 O 0.26556 0.81428 0.5944 0.0
O428 O 0.29581 0.94535 0.58016 0.0
O429 O 0.23274 0.90321 0.55287 0.0
O430 O 0.35871 0.97028 0.6269 0.0
O431 O 0.32198 0.88851 0.62557 0.0
H432 H 0.32142 0.13664 0.6799 0.0
H433 H 0.28143 0.18426 0.67467 0.0
H434 H 0.19208 0.09171 0.5925 0.0
H435 H 0.2316 0.04373 0.59789 0.0
H436 H 0.25265 0.72432 0.56024 0.0
H437 H 0.22477 0.64032 0.57374 0.0
H438 H 0.12602 0.64073 0.64906 0.0
H439 H 0.15397 0.72528 0.63553 0.0
Pr440 Pr 0.68836 0.82841 0.91262 0.0
Pr441 Pr 0.74183 0.78561 0.88566 0.0
C442 C 0.62623 0.8571 0.93324 0.0
C443 C 0.59425 0.87503 0.92097 0.0
C444 C 0.54836 0.84337 0.90758 0.0
C445 C 0.51568 0.85899 0.90088 0.0
C446 C 0.52812 0.90652 0.90731 0.0
C447 C 0.57449 0.93877 0.91924 0.0
C448 C 0.60721 0.92313 0.92612 0.0
C449 C 0.73484 0.80145 0.96346 0.0
C450 C 0.62688 0.71448 0.89391 0.0
C451 C 0.81116 0.76242 0.87917 0.0
C452 C 0.86423 0.78742 0.88154 0.0
C453 C 0.89357 0.82256 0.85728 0.0
C454 C 0.94361 0.84484 0.85974 0.0
C455 C 0.96513 0.83246 0.88648 0.0
C456 C 0.93599 0.79825 0.91113 0.0
C457 C 0.88604 0.77591 0.90865 0.0
C458 C 0.69472 0.80052 0.8307 0.0
C459 C 0.79154 0.90517 0.88793 0.0
O460 O 0.67258 0.88572 0.93205 0.0
O461 O 0.6137 0.81279 0.92646 0.0
O462 O 0.70915 0.77706 0.9388 0.0
O463 O 0.73863 0.84325 0.96296 0.0
O464 O 0.66804 0.71466 0.89489 0.0
O465 O 0.62639 0.75489 0.89313 0.0
O466 O 0.79176 0.77152 0.8525 0.0
O467 O 0.78834 0.75805 0.90821 0.0
O468 O 0.715 0.83019 0.85551 0.0
O469 O 0.6971 0.76189 0.83526 0.0
O470 O 0.74765 0.89741 0.88774 0.0
O471 O 0.79948 0.86906 0.89233 0.0
H472 H 0.53688 0.80603 0.90353 0.0
H473 H 0.47991 0.83347 0.89199 0.0
H474 H 0.58454 0.97546 0.92476 0.0
H475 H 0.642 0.94827 0.93678 0.0
H476 H 0.87798 0.83254 0.83622 0.0
H477 H 0.96557 0.87105 0.84041 0.0
H478 H 0.95195 0.78813 0.93186 0.0
H479 H 0.86437 0.74919 0.9278 0.0
C480 C 0.2026 0.19183 0.1686 0.0
C481 C 0.18835 0.2074 0.13868 0.0
C482 C 0.23317 0.18186 0.10137 0.0
C483 C 0.24625 0.16501 0.13116 0.0
N484 N 0.23521 0.14416 0.19186 0.0
N485 N 0.17994 0.20662 0.07628 0.0
C486 C 0.22808 0.16668 0.16439 0.0
C487 C 0.20047 0.19904 0.10492 0.0
N488 N 0.19383 0.20308 0.20103 0.0
N489 N 0.25339 0.1831 0.06985 0.0
H490 H 0.15555 0.21886 0.07791 0.0
H491 H 0.18358 0.19669 0.0512 0.0
H492 H 0.27645 0.16963 0.06603 0.0
H493 H 0.24984 0.20024 0.04807 0.0
H494 H 0.20796 0.19752 0.22376 0.0
H495 H 0.17535 0.22148 0.20515 0.0
H496 H 0.21948 0.14045 0.21616 0.0
H497 H 0.25319 0.12505 0.18932 0.0
C498 C 0.0536 0.83772 0.36437 0.0
C499 C 0.07397 0.88385 0.37928 0.0
C500 C 0.9943 0.8663 0.3995 0.0
C501 C 0.97405 0.82005 0.38438 0.0
N502 N 0.98227 0.76922 0.34216 0.0
N503 N 0.0634 0.94627 0.40421 0.0
C504 C 1.00311 0.80819 0.36359 0.0
C505 C 0.04414 0.89949 0.39473 0.0
N506 N 0.08248 0.8211 0.35229 0.0
N507 N 0.96664 0.87802 0.41943 0.0
H508 H 0.09972 0.97119 0.40128 0.0
H509 H 0.04303 0.96132 0.41229 0.0
H510 H 0.92974 0.85629 0.42166 0.0
H511 H 0.98044 0.90851 0.43488 0.0
H512 H 0.06954 0.78571 0.345 0.0
H513 H 0.1198 0.8414 0.35238 0.0
H514 H 1.00136 0.76172 0.32379 0.0
H515 H 0.94529 0.74735 0.3399 0.0
C516 C 0.88862 0.07342 0.16168 0.0
C517 C 0.91729 0.09966 0.1329 0.0
C518 C 0.91537 1.02674 0.11179 0.0
C519 C 0.87963 0.99974 0.13686 0.0
N520 N 0.8309 0.99658 0.18547 0.0
N521 N 0.96315 0.10257 0.08244 0.0
C522 C 0.86617 1.02292 0.16193 0.0
C523 C 0.93287 0.07685 0.10877 0.0
N524 N 0.88483 0.09725 0.18969 0.0
N525 N 0.93277 1.0044 0.09117 0.0
H526 H 0.98128 0.1396 0.0819 0.0
H527 H 0.97025 0.08744 0.06102 0.0
H528 H 0.91988 0.96773 0.09229 0.0
H529 H 0.96204 1.02221 0.07467 0.0
H530 H 0.86825 0.08076 0.21293 0.0
H531 H 0.90363 0.13429 0.19114 0.0
H532 H 0.81529 1.01106 0.20144 0.0
H533 H 0.8149 0.95957 0.18754 0.0
C534 C 0.2266 0.1673 0.36336 0.0
C535 C 0.25396 0.17418 0.39403 0.0
C536 C 0.22292 0.22328 0.41913 0.0
C537 C 0.19444 0.21523 0.38894 0.0
N538 N 0.16245 0.17342 0.33492 0.0
N539 N 0.27107 0.20016 0.45371 0.0
C540 C 0.19423 0.18529 0.36182 0.0
C541 C 0.2499 0.19962 0.42271 0.0
N542 N 0.23313 0.14549 0.33514 0.0
N543 N 0.22538 0.25483 0.4439 0.0
H544 H 0.29109 0.18321 0.45724 0.0
H545 H 0.26539 0.21357 0.47672 0.0
H546 H 0.20559 0.2723 0.44252 0.0
H547 H 0.24958 0.26651 0.46453 0.0
H548 H 0.21917 0.14479 0.31057 0.0
H549 H 0.25496 0.13024 0.33577 0.0
H550 H 0.15672 0.14775 0.31627 0.0
H551 H 0.13909 0.18683 0.33258 0.0
C552 C 0.04879 0.84579 0.16013 0.0
C553 C 0.07242 0.87765 0.13222 0.0
C554 C 0.99463 0.85229 0.10428 0.0
C555 C 0.97201 0.81506 0.1291 0.0
N556 N 0.97708 0.77631 0.18135 0.0
N557 N 0.06898 0.90932 0.07621 0.0
C558 C 0.999 0.81199 0.15734 0.0
C559 C 0.04561 0.88073 0.104 0.0
N560 N 0.07378 0.84879 0.18973 0.0
N561 N 0.96755 0.86077 0.08116 0.0
H562 H 0.10617 0.93085 0.07515 0.0
H563 H 0.05197 0.90899 0.05307 0.0
H564 H 0.93029 0.84142 0.08113 0.0
H565 H 0.98159 0.89005 0.0645 0.0
H566 H 0.05781 0.83029 0.21251 0.0
H567 H 0.11029 0.87304 0.19263 0.0
H568 H 0.99559 0.76798 0.19968 0.0
H569 H 0.94014 0.75345 0.18212 0.0
C570 C 0.91554 1.02522 0.40843 0.0
C571 C 0.88402 0.99937 0.38068 0.0
C572 C 0.89813 0.07431 0.3546 0.0
C573 C 0.92157 0.0991 0.38546 0.0
N574 N 0.95854 0.09997 0.44018 0.0
N575 N 0.84489 0.99857 0.32698 0.0
C576 C 0.93282 0.07525 0.4117 0.0
C577 C 0.87566 1.02378 0.35343 0.0
N578 N 0.92897 1.00181 0.43145 0.0
N579 N 0.89903 0.09959 0.32592 0.0
H580 H 0.82918 0.96163 0.32443 0.0
H581 H 0.83264 1.01383 0.30875 0.0
H582 H 0.91768 0.13674 0.32568 0.0
H583 H 0.88646 0.08435 0.30154 0.0
H584 H 0.95513 1.01877 0.45048 0.0
H585 H 0.91623 0.96518 0.42998 0.0
H586 H 0.9624 0.08411 0.46256 0.0
H587 H 0.97606 0.13698 0.44146 0.0
C588 C 0.23234 0.20945 0.60277 0.0
C589 C 0.21278 0.1729 0.62825 0.0
C590 C 0.16035 0.20272 0.64907 0.0
C591 C 0.17977 0.23913 0.6233 0.0
N592 N 0.22348 0.26827 0.5696 0.0
N593 N 0.15149 0.12797 0.67052 0.0
C594 C 0.21258 0.2398 0.59834 0.0
C595 C 0.17453 0.16736 0.64974 0.0
N596 N 0.27087 0.21618 0.58347 0.0
N597 N 0.13031 0.2032 0.67395 0.0
H598 H 0.16158 0.10197 0.672 0.0
H599 H 0.12011 0.11896 0.68404 0.0
H600 H 0.1184 0.22779 0.67423 0.0
H601 H 0.1196 0.18126 0.69579 0.0
H602 H 0.29039 0.24574 0.56755 0.0
H603 H 0.2856 0.19393 0.58516 0.0
H604 H 0.24326 0.26686 0.54869 0.0
H605 H 0.20844 0.28975 0.5649 0.0
C606 C 0.09568 0.90134 0.91658 0.0
C607 C 0.1176 0.88509 0.89221 0.0
C608 C 1.03942 0.83447 0.86425 0.0
C609 C 1.01807 0.8526 0.88735 0.0
N610 N 1.02681 0.90968 0.93113 0.0
N611 N 0.1121 0.84494 0.83787 0.0
C612 C 0.04658 0.88815 0.91213 0.0
C613 C 0.08995 0.85427 0.86456 0.0
N614 N 0.12072 0.92694 0.94511 0.0
N615 N 1.01122 0.79684 0.84292 0.0
H616 H 0.14896 0.85862 0.8368 0.0
H617 H 0.09456 0.82743 0.81509 0.0
H618 H 0.97406 0.78141 0.84157 0.0
H619 H 1.02416 0.77826 0.82869 0.0
H620 H 0.10513 0.93505 0.96576 0.0
H621 H 0.15637 0.93686 0.94969 0.0
H622 H 0.04676 0.9393 0.94695 0.0
H623 H 0.99091 0.90043 0.92877 0.0
C624 C 0.87756 0.97214 0.61657 0.0
C625 C 0.83288 0.95085 0.63446 0.0
C626 C 0.85345 0.02906 0.65893 0.0
C627 C 0.89831 0.05017 0.64174 0.0
N628 N 0.95784 0.04054 0.61076 0.0
N629 N 0.78678 0.95683 0.68175 0.0
C630 C 0.91185 1.02124 0.62259 0.0
C631 C 0.8235 0.97869 0.65845 0.0
N632 N 0.88667 0.9464 0.59273 0.0
N633 N 0.83827 0.05718 0.67452 0.0
H634 H 0.76505 0.91989 0.68328 0.0
H635 H 0.78138 0.97487 0.70213 0.0
H636 H 0.85878 0.09432 0.67535 0.0
H637 H 0.80356 0.04392 0.68389 0.0
H638 H 0.91546 0.96158 0.57554 0.0
H639 H 0.86418 0.91008 0.58874 0.0
H640 H 0.9716 1.02039 0.59991 0.0
H641 H 0.98363 0.0763 0.6146 0.0
C642 C 0.20051 0.22843 0.92269 0.0
C643 C 0.16968 0.22928 0.89661 0.0
C644 C 0.16696 0.15942 0.86875 0.0
C645 C 0.20405 0.16433 0.89134 0.0
N646 N 0.25754 0.20395 0.93945 0.0
N647 N 0.12086 0.19391 0.84558 0.0
C648 C 0.22087 0.19866 0.91844 0.0
C649 C 0.15141 0.19373 0.87015 0.0
N650 N 0.20899 0.25506 0.95221 0.0
N651 N 0.14646 0.12167 0.84621 0.0
H652 H 0.10603 0.21595 0.84714 0.0
H653 H 0.11126 0.1734 0.82301 0.0
H654 H 0.15775 0.09662 0.84423 0.0
H655 H 0.11613 0.11296 0.83138 0.0
H656 H 0.22705 0.25245 0.97383 0.0
H657 H 0.19336 0.27603 0.9566 0.0
H658 H 0.27548 0.23225 0.95675 0.0
H659 H 0.27233 0.18175 0.93808 0.0
C660 C 0.09347 0.90808 0.61579 0.0
C661 C 0.11601 0.8875 0.63565 0.0
C662 C 1.03804 0.83002 0.66102 0.0
C663 C 1.01558 0.84999 0.64085 0.0
N664 N 1.02235 0.91452 0.60561 0.0
N665 N 0.11188 0.84072 0.68581 0.0
C666 C 0.04354 0.89118 0.62034 0.0
C667 C 0.08885 0.852 0.6609 0.0
N668 N 0.11893 0.94225 0.59151 0.0
N669 N 1.01075 0.7891 0.67952 0.0
H670 H 0.1491 0.85782 0.68769 0.0
H671 H 0.09445 0.8186 0.70691 0.0
H672 H 0.97351 0.77266 0.68111 0.0
H673 H 1.0247 0.76961 0.69124 0.0
H674 H 0.10327 0.95337 0.57276 0.0
H675 H 0.15582 0.95854 0.58912 0.0
H676 H 1.04136 0.94767 0.59356 0.0
H677 H 0.98583 0.90263 0.60799 0.0
C678 C 0.89852 0.02934 0.90592 0.0
C679 C 0.8963 0.05441 0.87636 0.0
C680 C 0.83333 0.9791 0.85129 0.0
C681 C 0.83127 0.95512 0.8828 0.0
N682 N 0.85645 0.9595 0.94247 0.0
N683 N 0.85866 0.05449 0.82211 0.0
C684 C 0.86282 0.98062 0.91065 0.0
C685 C 0.86323 0.02957 0.84916 0.0
N686 N 0.9349 0.05214 0.92944 0.0
N687 N 0.80678 0.95348 0.82327 0.0
H688 H 0.88013 0.09136 0.81937 0.0
H689 H 0.83136 0.0393 0.80367 0.0
H690 H 0.78329 0.91683 0.82425 0.0
H691 H 0.81072 0.96772 0.7984 0.0
H692 H 0.94129 0.0346 0.94966 0.0
H693 H 0.96139 0.08789 0.92685 0.0
H694 H 0.87499 0.97775 0.96474 0.0
H695 H 0.82917 0.92481 0.94743 0.0
C696 C 0.37635 0.20197 0.27844 0.0
C697 C 0.39704 0.17944 0.29779 0.0
C698 C 0.41132 0.14802 0.244 0.0
C699 C 0.38895 0.16892 0.22455 0.0
N700 N 0.36137 0.22554 0.22176 0.0
N701 N 0.45145 0.14878 0.29755 0.0
C702 C 0.37562 0.1996 0.24135 0.0
C703 C 0.42078 0.15888 0.28 0.0
N704 N 0.35513 0.22336 0.29583 0.0
N705 N 0.41969 0.11453 0.22909 0.0
H706 H 0.46075 0.1586 0.32341 0.0
H707 H 0.47219 0.13661 0.2853 0.0
H708 H 0.412 0.10419 0.20312 0.0
H709 H 0.43072 0.09423 0.24324 0.0
H710 H 0.33403 0.23529 0.28386 0.0
H711 H 0.35759 0.2276 0.32283 0.0
H712 H 0.3543 0.25116 0.23204 0.0
H713 H 0.36066 0.2242 0.19462 0.0
C714 C 0.86394 0.7268 0.27674 0.0
C715 C 0.84099 0.68289 0.2952 0.0
C716 C 0.82573 0.63926 0.23989 0.0
C717 C 0.83988 0.68231 0.22165 0.0
N718 N 0.87301 0.76775 0.22213 0.0
N719 N 0.80365 0.59742 0.29543 0.0
C720 C 0.86054 0.72647 0.23985 0.0
C721 C 0.82383 0.63912 0.27704 0.0
N722 N 0.88758 0.76897 0.2945 0.0
N723 N 0.81331 0.59862 0.22142 0.0
H724 H 0.80412 0.59686 0.32259 0.0
H725 H 0.7856 0.5637 0.28412 0.0
H726 H 0.81483 0.5986 0.19427 0.0
H727 H 0.80534 0.56623 0.23267 0.0
H728 H 0.90976 0.8017 0.28265 0.0
H729 H 0.88853 0.77107 0.32147 0.0
H730 H 0.88146 0.79991 0.23408 0.0
H731 H 0.87251 0.7696 0.19511 0.0
C732 C 0.86935 0.19016 0.24058 0.0
C733 C 0.90476 0.23102 0.22286 0.0
C734 C 0.93193 0.27352 0.27851 0.0
C735 C 0.90417 0.22974 0.29633 0.0
N736 N 0.84136 0.14784 0.29571 0.0
N737 N 0.96842 0.31318 0.22437 0.0
C738 C 0.87063 0.18859 0.27774 0.0
C739 C 0.93475 0.2736 0.24163 0.0
N740 N 0.83497 0.15312 0.22164 0.0
N741 N 0.95628 0.31494 0.29701 0.0
H742 H 0.97039 0.31551 0.19738 0.0
H743 H 0.99592 0.343 0.23666 0.0
H744 H 0.95561 0.31571 0.32403 0.0
H745 H 0.97327 0.34873 0.28578 0.0
H746 H 0.80624 0.12296 0.23252 0.0
H747 H 0.83356 0.15455 0.19454 0.0
H748 H 0.81935 0.1149 0.28406 0.0
H749 H 0.84016 0.14713 0.32286 0.0
C750 C 0.18451 0.33889 0.74018 0.0
C751 C 0.19428 0.38119 0.72256 0.0
C752 C 0.21029 0.42262 0.77886 0.0
C753 C 0.18833 0.37773 0.79597 0.0
N754 N 0.15404 0.29205 0.79247 0.0
N755 N 0.22814 0.46591 0.7238 0.0
C756 C 0.17648 0.33567 0.77668 0.0
C757 C 0.21152 0.42413 0.74166 0.0
N758 N 0.18309 0.30192 0.72211 0.0
N759 N 0.22881 0.46332 0.7984 0.0
H760 H 0.23184 0.4672 0.69676 0.0
H761 H 0.23821 0.49873 0.73525 0.0
H762 H 0.22874 0.46246 0.82555 0.0
H763 H 0.24684 0.49767 0.7882 0.0
H764 H 0.17965 0.2714 0.73397 0.0
H765 H 0.19202 0.3047 0.6959 0.0
H766 H 0.13851 0.25992 0.77881 0.0
H767 H 0.14816 0.28772 0.81909 0.0
C768 C 0.23172 0.91413 0.77976 0.0
C769 C 0.25322 0.89126 0.79787 0.0
C770 C 0.26542 0.86101 0.74225 0.0
C771 C 0.25205 0.89076 0.72421 0.0
N772 N 0.21982 0.94389 0.7249 0.0
N773 N 0.2871 0.83989 0.79756 0.0
C774 C 0.23305 0.91566 0.74272 0.0
C775 C 0.26818 0.86295 0.77943 0.0
N776 N 0.21152 0.93588 0.79804 0.0
N777 N 0.27599 0.83155 0.72355 0.0
H778 H 0.28735 0.83917 0.82472 0.0
H779 H 0.30344 0.82256 0.78605 0.0
H780 H 0.27358 0.82971 0.69643 0.0
H781 H 0.28351 0.80665 0.73459 0.0
H782 H 0.1904 0.94832 0.78686 0.0
H783 H 0.2126 0.93844 0.82505 0.0
H784 H 0.21226 0.96841 0.73654 0.0
H785 H 0.21813 0.94435 0.69787 0.0
C786 C 0.7412 0.83576 0.73877 0.0
C787 C 0.69698 0.81635 0.72056 0.0
C788 C 0.65469 0.80529 0.77606 0.0
C789 C 0.69743 0.81645 0.79411 0.0
N790 N 0.78173 0.84143 0.79307 0.0
N791 N 0.61194 0.78533 0.72071 0.0
C792 C 0.74106 0.8327 0.77562 0.0
C793 C 0.65385 0.80273 0.73891 0.0
N794 N 0.78342 0.85587 0.72081 0.0
N795 N 0.615 0.79642 0.79469 0.0
H796 H 0.61105 0.78529 0.69356 0.0
H797 H 0.57825 0.7699 0.7322 0.0
H798 H 0.61535 0.79826 0.82182 0.0
H799 H 0.58316 0.79085 0.78354 0.0
H800 H 0.81688 0.87579 0.73251 0.0
H801 H 0.78521 0.85636 0.69381 0.0
H802 H 0.81262 0.84608 0.78091 0.0
H803 H 0.78412 0.84174 0.82009 0.0
C804 C 0.34573 1.01901 0.99518 0.0
C805 C 0.2955 0.98665 0.99322 0.0
C806 C 0.28308 0.04424 0.02804 0.0
C807 C 0.33359 0.07657 0.02914 0.0
N808 N 0.40802 0.10126 0.99856 0.0
N809 N 0.21656 0.96532 0.01453 0.0
C810 C 0.36356 0.06596 1.00839 0.0
C811 C 0.26416 0.99827 0.01162 0.0
N812 N 0.37719 1.00401 0.98651 0.0
N813 N 0.25274 0.05947 0.03936 0.0
H814 H 0.20035 0.93212 1.00259 0.0
H815 H 0.19341 0.96887 0.03153 0.0
H816 H 0.26476 0.09448 0.0471 0.0
H817 H 0.21567 0.04009 0.03661 0.0
H818 H 0.41404 1.02475 0.99057 0.0
H819 H 0.36606 0.96869 0.98024 0.0
H820 H 0.42958 0.09547 0.98133 0.0
H821 H 0.42003 0.13734 1.00235 0.0
C822 C 0.75368 0.70915 0.50197 0.0
C823 C 0.80085 0.73791 0.48903 0.0
C824 C 0.80341 0.80824 0.51659 0.0
C825 C 0.75444 0.77982 0.52654 0.0
N826 N 0.68009 0.70564 0.51971 0.0
N827 N 0.86896 0.81644 0.48047 0.0
C828 C 0.72884 0.73094 0.51667 0.0
C829 C 0.8254 0.78792 0.49551 0.0
N830 N 0.73302 0.66057 0.5014 0.0
N831 N 0.82961 0.85418 0.52815 0.0
H832 H 0.88696 0.8029 0.46621 0.0
H833 H 0.88584 0.85355 0.48023 0.0
H834 H 0.81477 0.87115 0.54211 0.0
H835 H 0.86671 0.8746 0.52575 0.0
H836 H 0.70048 0.63775 0.51343 0.0
H837 H 0.75113 0.64342 0.4926 0.0
H838 H 0.65906 0.67116 0.51 0.0
H839 H 0.66021 0.7212 0.5279 0.0
C840 C 0.05832 0.33445 1.00049 0.0
C841 C 0.07915 0.3083 0.98668 0.0
C842 C 1.01354 0.2349 0.01333 0.0
C843 C 0.99238 0.26138 0.02621 0.0
N844 N 0.98608 0.3322 0.02043 0.0
N845 N 0.07234 0.23174 0.97546 0.0
C846 C 1.01233 0.30994 0.01633 0.0
C847 C 0.05564 0.25794 0.99195 0.0
N848 N 0.08345 0.38321 1.0 0.0
N849 N 0.99405 0.18792 0.02194 0.0
H850 H 0.10387 0.24711 0.96109 0.0
H851 H 0.05366 0.19463 0.97419 0.0
H852 H 0.96102 0.16874 0.03419 0.0
H853 H 1.01109 0.1682 0.01785 0.0
H854 H 0.07205 0.40417 0.01282 0.0
H855 H 0.11819 0.40265 0.9903 0.0
H856 H 0.99676 0.36607 0.01058 0.0
H857 H 0.951 0.31457 0.02981 0.0
C858 C 0.28514 0.04987 0.49894 0.0
C859 C 0.33359 0.07 0.48736 0.0
C860 C 0.3358 1.00064 0.51276 0.0
C861 C 0.28971 0.98355 0.5274 0.0
N862 N 0.21867 0.98948 0.53297 0.0
N863 N 0.40553 0.06389 0.48427 0.0
C864 C 0.2636 1.00712 0.51953 0.0
C865 C 0.35903 0.04525 0.49468 0.0
N866 N 0.25974 0.07207 0.4907 0.0
N867 N 0.35606 0.97223 0.51403 0.0
H868 H 0.42259 0.09228 0.46713 0.0
H869 H 0.42819 0.05219 0.49373 0.0
H870 H 0.33923 0.93864 0.52573 0.0
H871 H 0.38694 0.97932 0.50058 0.0
H872 H 0.22287 0.05666 0.49366 0.0
H873 H 0.27529 0.10615 0.48004 0.0
H874 H 0.19934 1.00733 0.53268 0.0
H875 H 0.20069 0.95655 0.54537 0.0
C876 C 0.82698 0.77979 0.01215 0.0
C877 C 0.79597 0.73493 0.02815 0.0
C878 C 0.72652 0.74087 1.00766 0.0
C879 C 0.75705 0.78277 0.98873 0.0
N880 N 0.8365 0.83668 0.96746 0.0
N881 N 0.71566 0.66704 0.03128 0.0
C882 C 0.80738 0.80088 0.98955 0.0
C883 C 0.74554 0.71396 0.02325 0.0
N884 N 0.87496 0.80337 0.01913 0.0
N885 N 0.67907 0.72685 0.01116 0.0
H886 H 0.72821 0.64456 0.0394 0.0
H887 H 0.6792 0.64888 0.02538 0.0
H888 H 0.66392 0.7459 1.00039 0.0
H889 H 0.65604 0.69922 0.02758 0.0
H890 H 0.89799 0.83854 0.01158 0.0
H891 H 0.89146 0.78956 0.03474 0.0
H892 H 0.8725 0.8474 0.96361 0.0
H893 H 0.82345 0.85256 0.95056 0.0
C894 C 0.05275 0.25695 0.52891 0.0
C895 C 0.07658 0.30755 0.53254 0.0
C896 C 1.01007 0.30803 0.50154 0.0
C897 C 0.98896 0.25854 0.49374 0.0
N898 N 0.98974 0.18492 0.50172 0.0
N899 N 0.08256 0.3818 0.51518 0.0
C900 C 1.00995 0.2326 0.50818 0.0
C901 C 0.05645 0.33313 0.51685 0.0
N902 N 0.0702 0.23189 0.54613 0.0
N903 N 0.9845 0.33078 0.49619 0.0
H904 H 0.11738 0.40144 0.52494 0.0
H905 H 0.0717 0.40212 0.50088 0.0
H906 H 0.94878 0.31272 0.48822 0.0
H907 H 0.99639 0.36575 0.50415 0.0
H908 H 0.05143 0.19496 0.54904 0.0
H909 H 0.10305 0.24833 0.55896 0.0
H910 H 1.00666 0.1653 0.50677 0.0
H911 H 0.95605 0.16474 0.49058 0.0
C912 C 0.58819 0.18229 0.13482 0.0
C913 C 0.60045 0.16442 0.10518 0.0
C914 C 0.51569 0.1258 0.08666 0.0
C915 C 0.50269 0.13613 0.11947 0.0
N916 N 0.52761 0.1707 0.17663 0.0
N917 N 0.57921 0.15481 0.04442 0.0
C918 C 0.53932 0.16287 0.14416 0.0
C919 C 0.56515 0.14525 0.07833 0.0
N920 N 0.62167 0.22419 0.14962 0.0
N921 N 0.48131 0.09892 0.06272 0.0
H922 H 0.61472 0.1787 0.03769 0.0
H923 H 0.55527 0.14587 0.02372 0.0
H924 H 0.44483 0.08509 0.06702 0.0
H925 H 0.48909 0.08698 0.03976 0.0
H926 H 0.61368 0.24119 0.16938 0.0
H927 H 0.65503 0.24562 0.13806 0.0
H928 H 0.55293 0.18656 0.19644 0.0
H929 H 0.49223 0.15733 0.18443 0.0
C930 C 0.68816 0.5336 0.42514 0.0
C931 C 0.69098 0.56348 0.39703 0.0
C932 C 0.61073 0.50187 0.3776 0.0
C933 C 0.61021 0.47062 0.40381 0.0
N934 N 0.65192 0.45354 0.44861 0.0
N935 N 0.65796 0.57408 0.34376 0.0
C936 C 0.65 0.4856 0.42641 0.0
C937 C 0.65295 0.54718 0.37253 0.0
N938 N 0.72089 0.55175 0.45162 0.0
N939 N 0.57052 0.48862 0.35808 0.0
H940 H 0.68819 0.60734 0.33938 0.0
H941 H 0.63394 0.56204 0.32301 0.0
H942 H 0.53955 0.45539 0.3606 0.0
H943 H 0.56662 0.51161 0.34118 0.0
H944 H 0.71765 0.5334 0.47464 0.0
H945 H 0.74882 0.587 0.45225 0.0
H946 H 0.68243 0.46084 0.46278 0.0
H947 H 0.62453 0.41809 0.45059 0.0
C948 C 0.96225 0.41763 0.10339 0.0
C949 C 0.93443 0.37965 0.12677 0.0
C950 C 0.88934 0.41922 0.14408 0.0
C951 C 0.91723 0.45721 0.12084 0.0
N952 N 0.98743 0.49861 0.08492 0.0
N953 N 0.88099 0.35057 0.17584 0.0
C954 C 0.95612 0.45834 0.10267 0.0
C955 C 0.90091 0.38249 0.14917 0.0
N956 N 0.99247 0.41372 0.08042 0.0
N957 N 0.85052 0.41713 0.16016 0.0
H958 H 0.88964 0.32401 0.18071 0.0
H959 H 0.85978 0.35327 0.19512 0.0
H960 H 0.8415 0.4438 0.15765 0.0
H961 H 0.82542 0.38755 0.1741 0.0
H962 H 1.00898 0.43724 0.05985 0.0
H963 H 0.99874 0.38511 0.08035 0.0
H964 H 1.01926 0.50372 0.07408 0.0
H965 H 0.98377 0.52887 0.08374 0.0
C966 C 0.53658 0.16248 0.42786 0.0
C967 C 0.50329 0.13311 0.4019 0.0
C968 C 0.56072 0.10842 0.38287 0.0
C969 C 0.59562 0.14217 0.40608 0.0
N970 N 0.61944 0.20752 0.44622 0.0
N971 N 0.48573 0.08193 0.35189 0.0
C972 C 0.58425 0.17094 0.42729 0.0
C973 C 0.51574 0.10676 0.37874 0.0
N974 N 0.52216 0.18097 0.45409 0.0
N975 N 0.5702 0.07734 0.36532 0.0
H976 H 0.45251 0.07949 0.34824 0.0
H977 H 0.49515 0.06661 0.33181 0.0
H978 H 0.60294 0.07822 0.36728 0.0
H979 H 0.54457 0.04857 0.35093 0.0
H980 H 0.54328 0.19822 0.47573 0.0
H981 H 0.48728 0.17464 0.45628 0.0
H982 H 0.61445 0.23315 0.45895 0.0
H983 H 0.65494 0.21511 0.44655 0.0
C984 C 0.63288 0.492 0.08932 0.0
C985 C 0.60342 0.47178 0.11898 0.0
C986 C 0.65264 0.54635 0.15149 0.0
C987 C 0.68497 0.56434 0.12308 0.0
N988 N 0.70898 0.55257 0.06608 0.0
N989 N 0.58663 0.47722 0.17931 0.0
C990 C 0.67591 0.53667 0.09231 0.0
C991 C 0.61347 0.49843 0.15033 0.0
N992 N 0.61889 0.46916 0.05791 0.0
N993 N 0.65947 0.57507 0.17953 0.0
H994 H 0.55755 0.44248 0.17922 0.0
H995 H 0.59493 0.49258 0.20397 0.0
H996 H 0.68847 0.60971 0.18151 0.0
H997 H 0.63484 0.56607 0.19965 0.0
H998 H 0.63577 0.48458 0.0345 0.0
H999 H 0.58772 0.43628 0.0546 0.0
H1000 H 0.70753 0.5314 0.04518 0.0
H1001 H 0.73983 0.58605 0.06618 0.0
C1002 C 0.86582 0.39832 0.41668 0.0
C1003 C 0.89061 0.43944 0.39559 0.0
C1004 C 0.93779 0.40513 0.37159 0.0
C1005 C 0.91924 0.36904 0.39764 0.0
N1006 N 0.87121 0.33817 0.44976 0.0
N1007 N 0.91809 0.45447 0.33631 0.0
C1008 C 0.88483 0.36766 0.4215 0.0
C1009 C 0.91855 0.43627 0.36819 0.0
N1010 N 0.82058 0.38456 0.42788 0.0
N1011 N 0.97343 0.41012 0.34987 0.0
H1012 H 0.89401 0.46625 0.33058 0.0
H1013 H 0.93436 0.44975 0.31442 0.0
H1014 H 0.98943 0.38915 0.35154 0.0
H1015 H 0.99043 0.43861 0.33258 0.0
H1016 H 0.79912 0.35227 0.44064 0.0
H1017 H 0.80268 0.40244 0.42002 0.0
H1018 H 0.84891 0.33897 0.46909 0.0
H1019 H 0.8864 0.31717 0.45586 0.0
C1020 C 0.12526 0.54702 0.59544 0.0
C1021 C 0.15616 0.58243 0.61958 0.0
C1022 C 0.1589 0.52 0.65439 0.0
C1023 C 0.13519 0.48641 0.62738 0.0
N1024 N 0.095 0.46725 0.57191 0.0
N1025 N 0.20458 0.60328 0.6715 0.0
C1026 C 0.11745 0.49954 0.59804 0.0
C1027 C 0.17315 0.569 0.64916 0.0
N1028 N 0.10297 0.55879 0.57027 0.0
N1029 N 0.16643 0.50451 0.6855 0.0
H1030 H 0.21523 0.63934 0.66891 0.0
H1031 H 0.22263 0.59649 0.69117 0.0
H1032 H 0.15426 0.46848 0.69024 0.0
H1033 H 0.17964 0.52607 0.7075 0.0
H1034 H 0.07645 0.53393 0.55392 0.0
H1035 H 0.1081 0.59315 0.56766 0.0
H1036 H 0.08672 0.47599 0.54782 0.0
H1037 H 0.08647 0.43174 0.57381 0.0
C1038 C 0.44434 0.95004 0.87354 0.0
C1039 C 0.41002 0.93369 0.90076 0.0
C1040 C 0.45953 0.91004 0.93475 0.0
C1041 C 0.49036 0.92037 0.90579 0.0
N1042 N 0.51238 0.94875 0.84711 0.0
N1043 N 0.38255 0.89432 0.95637 0.0
C1044 C 0.48315 0.9405 0.87511 0.0
C1045 C 0.41717 0.91296 0.93122 0.0
N1046 N 0.43944 0.97414 0.8461 0.0
N1047 N 0.47116 0.89796 0.96591 0.0
H1048 H 0.35184 0.89734 0.95592 0.0
H1049 H 0.38256 0.87302 0.97667 0.0
H1050 H 0.50143 0.89456 0.96942 0.0
H1051 H 0.45332 0.89544 0.98907 0.0
H1052 H 0.46523 0.99084 0.82685 0.0
H1053 H 0.41074 0.98034 0.84384 0.0
H1054 H 0.50633 0.95844 0.82263 0.0
H1055 H 0.54173 0.94338 0.84788 0.0
C1056 C 0.56139 0.62893 0.64097 0.0
C1057 C 0.57796 0.66709 0.61675 0.0
C1058 C 0.49908 0.62774 0.58806 0.0
C1059 C 0.48336 0.5881 0.61075 0.0
N1060 N 0.50131 0.54728 0.6555 0.0
N1061 N 0.56611 0.69728 0.56243 0.0
C1062 C 0.51511 0.58759 0.63625 0.0
C1063 C 0.54778 0.66481 0.5889 0.0
N1064 N 0.58891 0.63305 0.66927 0.0
N1065 N 0.46701 0.63098 0.5665 0.0
H1066 H 0.60169 0.7247 0.56169 0.0
H1067 H 0.54748 0.69431 0.53954 0.0
H1068 H 0.43097 0.60471 0.56492 0.0
H1069 H 0.47506 0.66163 0.55246 0.0
H1070 H 0.57687 0.60904 0.68992 0.0
H1071 H 0.62291 0.66249 0.67331 0.0
H1072 H 0.52431 0.5426 0.67197 0.0
H1073 H 0.46757 0.51689 0.65299 0.0
C1074 C 0.13601 0.55409 0.87724 0.0
C1075 C 0.16643 0.58431 0.9041 0.0
C1076 C 0.17514 0.51812 0.92684 0.0
C1077 C 0.14926 0.48946 0.89785 0.0
N1078 N 0.10919 0.48159 0.84326 0.0
N1079 N 0.22155 0.59756 0.95105 0.0
C1080 C 0.13046 0.50768 0.87252 0.0
C1081 C 0.18773 0.56694 0.92799 0.0
N1082 N 0.11178 0.56945 0.85669 0.0
N1083 N 0.18642 0.49822 0.95401 0.0
H1084 H 0.232 0.63364 0.95285 0.0
H1085 H 0.24243 0.58825 0.96622 0.0
H1086 H 0.17738 0.46246 0.95449 0.0
H1087 H 0.20046 0.51577 0.97751 0.0
H1088 H 0.08532 0.54758 0.83903 0.0
H1089 H 0.11562 0.60332 0.85919 0.0
H1090 H 0.09953 0.49488 0.82198 0.0
H1091 H 0.1042 0.44751 0.8392 0.0
C1092 C 0.41537 0.9041 0.65309 0.0
C1093 C 0.40821 0.93188 0.62773 0.0
C1094 C 0.48254 0.94705 0.59858 0.0
C1095 C 0.48468 0.91267 0.6203 0.0
N1096 N 0.4519 0.85636 0.6675 0.0
N1097 N 0.43405 0.97833 0.57484 0.0
C1098 C 0.45106 0.891 0.64766 0.0
C1099 C 0.44201 0.95371 0.60038 0.0
N1100 N 0.38849 0.89108 0.68278 0.0
N1101 N 0.51954 0.97359 0.57634 0.0
H1102 H 0.40567 0.98506 0.57534 0.0
H1103 H 0.45383 0.98957 0.55192 0.0
H1104 H 0.54951 0.96936 0.57429 0.0
H1105 H 0.52269 1.0026 0.56236 0.0
H1106 H 0.39452 0.8744 0.70376 0.0
H1107 H 0.36328 0.90157 0.68787 0.0
H1108 H 0.42499 0.83519 0.68506 0.0
H1109 H 0.47797 0.84646 0.66475 0.0
C1110 C 0.54374 0.66154 0.87167 0.0
C1111 C 0.57937 0.6698 0.89676 0.0
C1112 C 0.51562 0.6164 0.93686 0.0
C1113 C 0.48081 0.60216 0.90978 0.0
N1114 N 0.4624 0.64378 0.86581 0.0
N1115 N 0.59906 0.65115 0.95307 0.0
C1116 C 0.49442 0.63301 0.8804 0.0
C1117 C 0.5653 0.64561 0.92913 0.0
N1118 N 0.55691 0.68187 0.83951 0.0
N1119 N 0.50097 0.60978 0.97073 0.0
H1120 H 0.63571 0.67279 0.94891 0.0
H1121 H 0.5906 0.6307 0.97567 0.0
H1122 H 0.46522 0.59712 0.97744 0.0
H1123 H 0.52452 0.62348 0.99173 0.0
H1124 H 0.53225 0.67397 0.81942 0.0
H1125 H 0.59274 0.7027 0.83218 0.0
H1126 H 0.4714 0.66874 0.84592 0.0
H1127 H 0.43032 0.63516 0.87829 0.0
loop_
_geom_bond_atom_site_label_1
_geom_bond_atom_site_label_2
_geom_bond_distance
_geom_bond_site_symmetry_2
_ccdc_geom_bond_type
Pr0 C2 2.880 . S
Pr0 O20 2.562 . S
Pr0 O21 2.490 . S
Pr0 O22 2.695 . S
Pr0 O23 2.512 . S
Pr0 O25 2.437 . S
Pr0 O28 2.436 . S
Pr0 O30 2.438 . S
Pr1 C11 2.880 1_545 S
Pr1 O22 2.436 . S
Pr1 O24 2.438 . S
Pr1 O26 2.562 . S
Pr1 O27 2.490 . S
Pr1 O28 2.695 . S
Pr1 O29 2.512 . S
Pr1 O31 2.437 . S
C2 Pr0 2.880 . S
C2 C3 1.491 . S
C2 O20 1.254 . S
C2 O21 1.225 . S
C3 C2 1.491 . S
C3 C4 1.392 . S
C3 C8 1.356 . S
C4 C3 1.392 . S
C4 C5 1.368 . S
C4 H32 0.929 . S
C5 C4 1.368 . S
C5 C6 1.386 . S
C5 H33 0.929 . S
C6 C5 1.386 . S
C6 C7 1.373 . S
C7 C6 1.373 . S
C7 C8 1.409 . S
C7 H34 0.931 . S
C8 C3 1.356 . S
C8 C7 1.409 . S
C8 H35 0.930 . S
C9 O22 1.270 . S
C9 O23 1.248 . S
C10 O24 1.267 . S
C10 O25 1.278 . S
C11 Pr1 2.880 1_565 S
C11 C12 1.491 . S
C11 O26 1.254 1_565 S
C11 O27 1.225 1_565 S
C12 C11 1.491 . S
C12 C13 1.392 . S
C12 C17 1.356 . S
C13 C12 1.392 . S
C13 C14 1.368 . S
C13 H36 0.929 . S
C14 C13 1.368 . S
C14 C15 1.386 . S
C14 H37 0.929 . S
C15 C14 1.386 . S
C15 C16 1.373 . S
C16 C15 1.373 . S
C16 C17 1.409 . S
C16 H38 0.931 . S
C17 C12 1.356 . S
C17 C16 1.409 . S
C17 H39 0.930 . S
C18 O28 1.270 . S
C18 O29 1.248 . S
C19 O30 1.267 . S
C19 O31 1.278 . S
O20 Pr0 2.562 . S
O20 C2 1.254 . S
O21 Pr0 2.490 . S
O21 C2 1.225 . S
O22 Pr0 2.695 . S
O22 Pr1 2.436 . S
O22 C9 1.270 . S
O23 Pr0 2.512 . S
O23 C9 1.248 . S
O24 Pr1 2.438 . S
O24 C10 1.267 . S
O25 Pr0 2.437 . S
O25 C10 1.278 . S
O26 Pr1 2.562 . S
O26 C11 1.254 1_545 S
O27 Pr1 2.490 . S
O27 C11 1.225 1_545 S
O28 Pr0 2.436 . S
O28 Pr1 2.695 . S
O28 C18 1.270 . S
O29 Pr1 2.512 . S
O29 C18 1.248 . S
O30 Pr0 2.438 . S
O30 C19 1.267 . S
O31 Pr1 2.437 . S
O31 C19 1.278 . S
H32 C4 0.929 . S
H33 C5 0.929 . S
H34 C7 0.931 . S
H35 C8 0.930 . S
H36 C13 0.929 . S
H37 C14 0.929 . S
H38 C16 0.931 . S
H39 C17 0.930 . S
Pr40 C42 2.880 . S
Pr40 O60 2.562 . S
Pr40 O61 2.490 . S
Pr40 O62 2.695 . S
Pr40 O63 2.512 . S
Pr40 O65 2.437 . S
Pr40 O68 2.436 . S
Pr40 O70 2.438 . S
Pr41 C51 2.880 . S
Pr41 O62 2.436 . S
Pr41 O64 2.438 . S
Pr41 O66 2.562 . S
Pr41 O67 2.490 . S
Pr41 O68 2.695 . S
Pr41 O69 2.512 . S
Pr41 O71 2.437 . S
C42 Pr40 2.880 . S
C42 C43 1.491 . S
C42 O60 1.254 . S
C42 O61 1.225 . S
C43 C42 1.491 . S
C43 C44 1.392 . S
C43 C48 1.356 . S
C44 C43 1.392 . S
C44 C45 1.368 . S
C44 H72 0.929 . S
C45 C44 1.368 . S
C45 C46 1.386 . S
C45 H73 0.929 . S
C46 C45 1.386 . S
C46 C47 1.373 . S
C47 C46 1.373 . S
C47 C48 1.409 . S
C47 H74 0.931 . S
C48 C43 1.356 . S
C48 C47 1.409 . S
C48 H75 0.930 . S
C49 O62 1.270 . S
C49 O63 1.248 . S
C50 O64 1.267 . S
C50 O65 1.278 . S
C51 Pr41 2.880 . S
C51 C52 1.491 . S
C51 O66 1.254 . S
C51 O67 1.225 . S
C52 C51 1.491 . S
C52 C53 1.392 . S
C52 C57 1.356 . S
C53 C52 1.392 . S
C53 C54 1.368 . S
C53 H76 0.929 . S
C54 C53 1.368 . S
C54 C55 1.386 . S
C54 H77 0.929 . S
C55 C54 1.386 . S
C55 C56 1.373 . S
C56 C55 1.373 . S
C56 C57 1.409 . S
C56 H78 0.931 . S
C57 C52 1.356 . S
C57 C56 1.409 . S
C57 H79 0.930 . S
C58 O68 1.270 . S
C58 O69 1.248 . S
C59 O70 1.267 . S
C59 O71 1.278 . S
O60 Pr40 2.562 . S
O60 C42 1.254 . S
O61 Pr40 2.490 . S
O61 C42 1.225 . S
O62 Pr40 2.695 . S
O62 Pr41 2.436 . S
O62 C49 1.270 . S
O63 Pr40 2.512 . S
O63 C49 1.248 . S
O64 Pr41 2.438 . S
O64 C50 1.267 . S
O65 Pr40 2.437 . S
O65 C50 1.278 . S
O66 Pr41 2.562 . S
O66 C51 1.254 . S
O67 Pr41 2.490 . S
O67 C51 1.225 . S
O68 Pr40 2.436 . S
O68 Pr41 2.695 . S
O68 C58 1.270 . S
O69 Pr41 2.512 . S
O69 C58 1.248 . S
O70 Pr40 2.438 . S
O70 C59 1.267 . S
O71 Pr41 2.437 . S
O71 C59 1.278 . S
H72 C44 0.929 . S
H73 C45 0.929 . S
H74 C47 0.931 . S
H75 C48 0.930 . S
H76 C53 0.929 . S
H77 C54 0.929 . S
H78 C56 0.931 . S
H79 C57 0.930 . S
Pr80 C82 2.880 . S
Pr80 O100 2.562 . S
Pr80 O101 2.490 . S
Pr80 O102 2.695 . S
Pr80 O103 2.512 . S
Pr80 O105 2.437 . S
Pr80 O108 2.436 . S
Pr80 O110 2.438 . S
Pr81 C91 2.880 1_655 S
Pr81 O102 2.436 . S
Pr81 O104 2.438 . S
Pr81 O106 2.562 . S
Pr81 O107 2.490 . S
Pr81 O108 2.695 . S
Pr81 O109 2.512 . S
Pr81 O111 2.437 . S
C82 Pr80 2.880 . S
C82 C83 1.491 . S
C82 O100 1.254 . S
C82 O101 1.225 . S
C83 C82 1.491 . S
C83 C84 1.392 . S
C83 C88 1.356 . S
C84 C83 1.392 . S
C84 C85 1.368 . S
C84 H112 0.929 . S
C85 C84 1.368 . S
C85 C86 1.386 . S
C85 H113 0.929 . S
C86 C85 1.386 . S
C86 C87 1.373 . S
C87 C86 1.373 . S
C87 C88 1.409 . S
C87 H114 0.931 . S
C88 C83 1.356 . S
C88 C87 1.409 . S
C88 H115 0.930 . S
C89 O102 1.270 . S
C89 O103 1.248 . S
C90 O104 1.267 . S
C90 O105 1.278 . S
C91 Pr81 2.880 1_455 S
C91 C92 1.491 . S
C91 O106 1.254 1_455 S
C91 O107 1.225 1_455 S
C92 C91 1.491 . S
C92 C93 1.392 . S
C92 C97 1.356 . S
C93 C92 1.392 . S
C93 C94 1.368 . S
C93 H116 0.929 . S
C94 C93 1.368 . S
C94 C95 1.386 . S
C94 H117 0.929 . S
C95 C94 1.386 . S
C95 C96 1.373 . S
C96 C95 1.373 . S
C96 C97 1.409 . S
C96 H118 0.931 . S
C97 C92 1.356 . S
C97 C96 1.409 . S
C97 H119 0.930 . S
C98 O108 1.270 . S
C98 O109 1.248 . S
C99 O110 1.267 . S
C99 O111 1.278 . S
O100 Pr80 2.562 . S
O100 C82 1.254 . S
O101 Pr80 2.490 . S
O101 C82 1.225 . S
O102 Pr80 2.695 . S
O102 Pr81 2.436 . S
O102 C89 1.270 . S
O103 Pr80 2.512 . S
O103 C89 1.248 . S
O104 Pr81 2.438 . S
O104 C90 1.267 . S
O105 Pr80 2.437 . S
O105 C90 1.278 . S
O106 Pr81 2.562 . S
O106 C91 1.254 1_655 S
O107 Pr81 2.490 . S
O107 C91 1.225 1_655 S
O108 Pr80 2.436 . S
O108 Pr81 2.695 . S
O108 C98 1.270 . S
O109 Pr81 2.512 . S
O109 C98 1.248 . S
O110 Pr80 2.438 . S
O110 C99 1.267 . S
O111 Pr81 2.437 . S
O111 C99 1.278 . S
H112 C84 0.929 . S
H113 C85 0.929 . S
H114 C87 0.931 . S
H115 C88 0.930 . S
H116 C93 0.929 . S
H117 C94 0.929 . S
H118 C96 0.931 . S
H119 C97 0.930 . S
Pr120 C122 2.880 1_545 S
Pr120 O140 2.562 . S
Pr120 O141 2.490 . S
Pr120 O142 2.695 . S
Pr120 O143 2.512 . S
Pr120 O145 2.437 . S
Pr120 O148 2.436 . S
Pr120 O150 2.438 . S
Pr121 C131 2.880 . S
Pr121 O142 2.436 . S
Pr121 O144 2.438 . S
Pr121 O146 2.562 . S
Pr121 O147 2.490 . S
Pr121 O148 2.695 . S
Pr121 O149 2.512 . S
Pr121 O151 2.437 . S
C122 Pr120 2.880 1_565 S
C122 C123 1.491 . S
C122 O140 1.254 1_565 S
C122 O141 1.225 1_565 S
C123 C122 1.491 . S
C123 C124 1.392 . S
C123 C128 1.356 . S
C124 C123 1.392 . S
C124 C125 1.368 . S
C124 H152 0.929 . S
C125 C124 1.368 . S
C125 C126 1.386 . S
C125 H153 0.929 . S
C126 C125 1.386 . S
C126 C127 1.373 . S
C127 C126 1.373 . S
C127 C128 1.409 . S
C127 H154 0.931 . S
C128 C123 1.356 . S
C128 C127 1.409 . S
C128 H155 0.930 . S
C129 O142 1.270 . S
C129 O143 1.248 . S
C130 O144 1.267 . S
C130 O145 1.278 . S
C131 Pr121 2.880 . S
C131 C132 1.491 . S
C131 O146 1.254 . S
C131 O147 1.225 . S
C132 C131 1.491 . S
C132 C133 1.392 . S
C132 C137 1.356 . S
C133 C132 1.392 . S
C133 C134 1.368 . S
C133 H156 0.929 . S
C134 C133 1.368 . S
C134 C135 1.386 . S
C134 H157 0.929 . S
C135 C134 1.386 . S
C135 C136 1.373 . S
C136 C135 1.373 . S
C136 C137 1.409 . S
C136 H158 0.931 . S
C137 C132 1.356 . S
C137 C136 1.409 . S
C137 H159 0.930 . S
C138 O148 1.270 . S
C138 O149 1.248 . S
C139 O150 1.267 . S
C139 O151 1.278 . S
O140 Pr120 2.562 . S
O140 C122 1.254 1_545 S
O141 Pr120 2.490 . S
O141 C122 1.225 1_545 S
O142 Pr120 2.695 . S
O142 Pr121 2.436 . S
O142 C129 1.270 . S
O143 Pr120 2.512 . S
O143 C129 1.248 . S
O144 Pr121 2.438 . S
O144 C130 1.267 . S
O145 Pr120 2.437 . S
O145 C130 1.278 . S
O146 Pr121 2.562 . S
O146 C131 1.254 . S
O147 Pr121 2.490 . S
O147 C131 1.225 . S
O148 Pr120 2.436 . S
O148 Pr121 2.695 . S
O148 C138 1.270 . S
O149 Pr121 2.512 . S
O149 C138 1.248 . S
O150 Pr120 2.438 . S
O150 C139 1.267 . S
O151 Pr121 2.437 . S
O151 C139 1.278 . S
H152 C124 0.929 . S
H153 C125 0.929 . S
H154 C127 0.931 . S
H155 C128 0.930 . S
H156 C133 0.929 . S
H157 C134 0.929 . S
H158 C136 0.931 . S
H159 C137 0.930 . S
Pr160 C162 2.880 . S
Pr160 O180 2.562 . S
Pr160 O181 2.490 . S
Pr160 O182 2.695 . S
Pr160 O183 2.512 . S
Pr160 O185 2.437 . S
Pr160 O188 2.436 . S
Pr160 O190 2.438 . S
Pr161 C171 2.880 . S
Pr161 O182 2.436 . S
Pr161 O184 2.438 . S
Pr161 O186 2.562 . S
Pr161 O187 2.490 . S
Pr161 O188 2.695 . S
Pr161 O189 2.512 . S
Pr161 O191 2.437 . S
C162 Pr160 2.880 . S
C162 C163 1.491 . S
C162 O180 1.254 . S
C162 O181 1.225 . S
C163 C162 1.491 . S
C163 C164 1.392 . S
C163 C168 1.356 . S
C164 C163 1.392 . S
C164 C165 1.368 . S
C164 H192 0.929 . S
C165 C164 1.368 . S
C165 C166 1.386 . S
C165 H193 0.929 . S
C166 C165 1.386 . S
C166 C167 1.373 . S
C167 C166 1.373 . S
C167 C168 1.409 . S
C167 H194 0.931 . S
C168 C163 1.356 . S
C168 C167 1.409 . S
C168 H195 0.930 . S
C169 O182 1.270 . S
C169 O183 1.248 . S
C170 O184 1.267 . S
C170 O185 1.278 . S
C171 Pr161 2.880 . S
C171 C172 1.491 . S
C171 O186 1.254 . S
C171 O187 1.225 . S
C172 C171 1.491 . S
C172 C173 1.392 . S
C172 C177 1.356 . S
C173 C172 1.392 . S
C173 C174 1.368 . S
C173 H196 0.929 . S
C174 C173 1.368 . S
C174 C175 1.386 . S
C174 H197 0.929 . S
C175 C174 1.386 . S
C175 C176 1.373 . S
C176 C175 1.373 . S
C176 C177 1.409 . S
C176 H198 0.931 . S
C177 C172 1.356 . S
C177 C176 1.409 . S
C177 H199 0.930 . S
C178 O188 1.270 . S
C178 O189 1.248 . S
C179 O190 1.267 . S
C179 O191 1.278 . S
O180 Pr160 2.562 . S
O180 C162 1.254 . S
O181 Pr160 2.490 . S
O181 C162 1.225 . S
O182 Pr160 2.695 . S
O182 Pr161 2.436 . S
O182 C169 1.270 . S
O183 Pr160 2.512 . S
O183 C169 1.248 . S
O184 Pr161 2.438 . S
O184 C170 1.267 . S
O185 Pr160 2.437 . S
O185 C170 1.278 . S
O186 Pr161 2.562 . S
O186 C171 1.254 . S
O187 Pr161 2.490 . S
O187 C171 1.225 . S
O188 Pr160 2.436 . S
O188 Pr161 2.695 . S
O188 C178 1.270 . S
O189 Pr161 2.512 . S
O189 C178 1.248 . S
O190 Pr160 2.438 . S
O190 C179 1.267 . S
O191 Pr161 2.437 . S
O191 C179 1.278 . S
H192 C164 0.929 . S
H193 C165 0.929 . S
H194 C167 0.931 . S
H195 C168 0.930 . S
H196 C173 0.929 . S
H197 C174 0.929 . S
H198 C176 0.931 . S
H199 C177 0.930 . S
Pr200 C202 2.880 1_655 S
Pr200 O220 2.562 . S
Pr200 O221 2.490 . S
Pr200 O222 2.695 . S
Pr200 O223 2.512 . S
Pr200 O225 2.437 . S
Pr200 O228 2.436 . S
Pr200 O230 2.438 . S
Pr201 C211 2.880 . S
Pr201 O222 2.436 . S
Pr201 O224 2.438 . S
Pr201 O226 2.562 . S
Pr201 O227 2.490 . S
Pr201 O228 2.695 . S
Pr201 O229 2.512 . S
Pr201 O231 2.437 . S
C202 Pr200 2.880 1_455 S
C202 C203 1.491 . S
C202 O220 1.254 1_455 S
C202 O221 1.225 1_455 S
C203 C202 1.491 . S
C203 C204 1.392 . S
C203 C208 1.356 . S
C204 C203 1.392 . S
C204 C205 1.368 . S
C204 H232 0.929 . S
C205 C204 1.368 . S
C205 C206 1.386 . S
C205 H233 0.929 . S
C206 C205 1.386 . S
C206 C207 1.373 . S
C207 C206 1.373 . S
C207 C208 1.409 . S
C207 H234 0.931 . S
C208 C203 1.356 . S
C208 C207 1.409 . S
C208 H235 0.930 . S
C209 O222 1.270 . S
C209 O223 1.248 . S
C210 O224 1.267 . S
C210 O225 1.278 . S
C211 Pr201 2.880 . S
C211 C212 1.491 . S
C211 O226 1.254 . S
C211 O227 1.225 . S
C212 C211 1.491 . S
C212 C213 1.392 . S
C212 C217 1.356 . S
C213 C212 1.392 . S
C213 C214 1.368 . S
C213 H236 0.929 . S
C214 C213 1.368 . S
C214 C215 1.386 . S
C214 H237 0.929 . S
C215 C214 1.386 . S
C215 C216 1.373 . S
C216 C215 1.373 . S
C216 C217 1.409 . S
C216 H238 0.931 . S
C217 C212 1.356 . S
C217 C216 1.409 . S
C217 H239 0.930 . S
C218 O228 1.270 . S
C218 O229 1.248 . S
C219 O230 1.267 . S
C219 O231 1.278 . S
O220 Pr200 2.562 . S
O220 C202 1.254 1_655 S
O221 Pr200 2.490 . S
O221 C202 1.225 1_655 S
O222 Pr200 2.695 . S
O222 Pr201 2.436 . S
O222 C209 1.270 . S
O223 Pr200 2.512 . S
O223 C209 1.248 . S
O224 Pr201 2.438 . S
O224 C210 1.267 . S
O225 Pr200 2.437 . S
O225 C210 1.278 . S
O226 Pr201 2.562 . S
O226 C211 1.254 . S
O227 Pr201 2.490 . S
O227 C211 1.225 . S
O228 Pr200 2.436 . S
O228 Pr201 2.695 . S
O228 C218 1.270 . S
O229 Pr201 2.512 . S
O229 C218 1.248 . S
O230 Pr200 2.438 . S
O230 C219 1.267 . S
O231 Pr201 2.437 . S
O231 C219 1.278 . S
H232 C204 0.929 . S
H233 C205 0.929 . S
H234 C207 0.931 . S
H235 C208 0.930 . S
H236 C213 0.929 . S
H237 C214 0.929 . S
H238 C216 0.931 . S
H239 C217 0.930 . S
Pr240 C242 2.880 1_455 S
Pr240 O260 2.562 . S
Pr240 O261 2.490 . S
Pr240 O262 2.695 . S
Pr240 O263 2.512 . S
Pr240 O265 2.437 . S
Pr240 O268 2.436 . S
Pr240 O270 2.438 . S
Pr241 C251 2.880 . S
Pr241 O262 2.436 . S
Pr241 O264 2.438 . S
Pr241 O266 2.562 . S
Pr241 O267 2.490 . S
Pr241 O268 2.695 . S
Pr241 O269 2.512 . S
Pr241 O271 2.437 . S
C242 Pr240 2.880 1_655 S
C242 C243 1.491 . S
C242 O260 1.254 1_655 S
C242 O261 1.225 1_655 S
C243 C242 1.491 . S
C243 C244 1.392 . S
C243 C248 1.356 . S
C244 C243 1.392 . S
C244 C245 1.368 . S
C244 H272 0.929 . S
C245 C244 1.368 . S
C245 C246 1.386 . S
C245 H273 0.929 . S
C246 C245 1.386 . S
C246 C247 1.373 . S
C247 C246 1.373 . S
C247 C248 1.409 . S
C247 H274 0.931 . S
C248 C243 1.356 . S
C248 C247 1.409 . S
C248 H275 0.930 . S
C249 O262 1.270 . S
C249 O263 1.248 . S
C250 O264 1.267 . S
C250 O265 1.278 . S
C251 Pr241 2.880 . S
C251 C252 1.491 . S
C251 O266 1.254 . S
C251 O267 1.225 . S
C252 C251 1.491 . S
C252 C253 1.392 . S
C252 C257 1.356 . S
C253 C252 1.392 . S
C253 C254 1.368 . S
C253 H276 0.929 . S
C254 C253 1.368 . S
C254 C255 1.386 . S
C254 H277 0.929 . S
C255 C254 1.386 . S
C255 C256 1.373 . S
C256 C255 1.373 . S
C256 C257 1.409 . S
C256 H278 0.931 . S
C257 C252 1.356 . S
C257 C256 1.409 . S
C257 H279 0.930 . S
C258 O268 1.270 . S
C258 O269 1.248 . S
C259 O270 1.267 . S
C259 O271 1.278 . S
O260 Pr240 2.562 . S
O260 C242 1.254 1_455 S
O261 Pr240 2.490 . S
O261 C242 1.225 1_455 S
O262 Pr240 2.695 . S
O262 Pr241 2.436 . S
O262 C249 1.270 . S
O263 Pr240 2.512 . S
O263 C249 1.248 . S
O264 Pr241 2.438 . S
O264 C250 1.267 . S
O265 Pr240 2.437 . S
O265 C250 1.278 . S
O266 Pr241 2.562 . S
O266 C251 1.254 . S
O267 Pr241 2.490 . S
O267 C251 1.225 . S
O268 Pr240 2.436 . S
O268 Pr241 2.695 . S
O268 C258 1.270 . S
O269 Pr241 2.512 . S
O269 C258 1.248 . S
O270 Pr240 2.438 . S
O270 C259 1.267 . S
O271 Pr241 2.437 . S
O271 C259 1.278 . S
H272 C244 0.929 . S
H273 C245 0.929 . S
H274 C247 0.931 . S
H275 C248 0.930 . S
H276 C253 0.929 . S
H277 C254 0.929 . S
H278 C256 0.931 . S
H279 C257 0.930 . S
Pr280 C282 2.880 . S
Pr280 O300 2.562 . S
Pr280 O301 2.490 . S
Pr280 O302 2.695 . S
Pr280 O303 2.512 . S
Pr280 O305 2.437 . S
Pr280 O308 2.436 . S
Pr280 O310 2.438 . S
Pr281 C291 2.880 1_565 S
Pr281 O302 2.436 . S
Pr281 O304 2.438 . S
Pr281 O306 2.562 . S
Pr281 O307 2.490 . S
Pr281 O308 2.695 . S
Pr281 O309 2.512 . S
Pr281 O311 2.437 . S
C282 Pr280 2.880 . S
C282 C283 1.491 . S
C282 O300 1.254 . S
C282 O301 1.225 . S
C283 C282 1.491 . S
C283 C284 1.392 . S
C283 C288 1.356 . S
C284 C283 1.392 . S
C284 C285 1.368 . S
C284 H312 0.929 . S
C285 C284 1.368 . S
C285 C286 1.386 . S
C285 H313 0.929 . S
C286 C285 1.386 . S
C286 C287 1.373 . S
C287 C286 1.373 . S
C287 C288 1.409 . S
C287 H314 0.931 . S
C288 C283 1.356 . S
C288 C287 1.409 . S
C288 H315 0.930 . S
C289 O302 1.270 . S
C289 O303 1.248 . S
C290 O304 1.267 . S
C290 O305 1.278 . S
C291 Pr281 2.880 1_545 S
C291 C292 1.491 . S
C291 O306 1.254 1_545 S
C291 O307 1.225 1_545 S
C292 C291 1.491 . S
C292 C293 1.392 . S
C292 C297 1.356 . S
C293 C292 1.392 . S
C293 C294 1.368 . S
C293 H316 0.929 . S
C294 C293 1.368 . S
C294 C295 1.386 . S
C294 H317 0.929 . S
C295 C294 1.386 . S
C295 C296 1.373 . S
C296 C295 1.373 . S
C296 C297 1.409 . S
C296 H318 0.931 . S
C297 C292 1.356 . S
C297 C296 1.409 . S
C297 H319 0.930 . S
C298 O308 1.270 . S
C298 O309 1.248 . S
C299 O310 1.267 . S
C299 O311 1.278 . S
O300 Pr280 2.562 . S
O300 C282 1.254 . S
O301 Pr280 2.490 . S
O301 C282 1.225 . S
O302 Pr280 2.695 . S
O302 Pr281 2.436 . S
O302 C289 1.270 . S
O303 Pr280 2.512 . S
O303 C289 1.248 . S
O304 Pr281 2.438 . S
O304 C290 1.267 . S
O305 Pr280 2.437 . S
O305 C290 1.278 . S
O306 Pr281 2.562 . S
O306 C291 1.254 1_565 S
O307 Pr281 2.490 . S
O307 C291 1.225 1_565 S
O308 Pr280 2.436 . S
O308 Pr281 2.695 . S
O308 C298 1.270 . S
O309 Pr281 2.512 . S
O309 C298 1.248 . S
O310 Pr280 2.438 . S
O310 C299 1.267 . S
O311 Pr281 2.437 . S
O311 C299 1.278 . S
H312 C284 0.929 . S
H313 C285 0.929 . S
H314 C287 0.931 . S
H315 C288 0.930 . S
H316 C293 0.929 . S
H317 C294 0.929 . S
H318 C296 0.931 . S
H319 C297 0.930 . S
Pr320 C322 2.880 . S
Pr320 O340 2.562 . S
Pr320 O341 2.490 . S
Pr320 O342 2.695 . S
Pr320 O343 2.512 . S
Pr320 O345 2.437 . S
Pr320 O348 2.436 . S
Pr320 O350 2.438 . S
Pr321 C331 2.880 . S
Pr321 O342 2.436 . S
Pr321 O344 2.438 . S
Pr321 O346 2.562 . S
Pr321 O347 2.490 . S
Pr321 O348 2.695 . S
Pr321 O349 2.512 . S
Pr321 O351 2.437 . S
C322 Pr320 2.880 . S
C322 C323 1.491 . S
C322 O340 1.254 . S
C322 O341 1.225 . S
C323 C322 1.491 . S
C323 C324 1.392 . S
C323 C328 1.356 . S
C324 C323 1.392 . S
C324 C325 1.368 . S
C324 H352 0.929 . S
C325 C324 1.368 . S
C325 C326 1.386 . S
C325 H353 0.929 . S
C326 C325 1.386 . S
C326 C327 1.373 . S
C327 C326 1.373 . S
C327 C328 1.409 . S
C327 H354 0.931 . S
C328 C323 1.356 . S
C328 C327 1.409 . S
C328 H355 0.930 . S
C329 O342 1.270 . S
C329 O343 1.248 . S
C330 O344 1.267 . S
C330 O345 1.278 . S
C331 Pr321 2.880 . S
C331 C332 1.491 . S
C331 O346 1.254 . S
C331 O347 1.225 . S
C332 C331 1.491 . S
C332 C333 1.392 . S
C332 C337 1.356 . S
C333 C332 1.392 . S
C333 C334 1.368 . S
C333 H356 0.929 . S
C334 C333 1.368 . S
C334 C335 1.386 . S
C334 H357 0.929 . S
C335 C334 1.386 . S
C335 C336 1.373 . S
C336 C335 1.373 . S
C336 C337 1.409 . S
C336 H358 0.931 . S
C337 C332 1.356 . S
C337 C336 1.409 . S
C337 H359 0.930 . S
C338 O348 1.270 . S
C338 O349 1.248 . S
C339 O350 1.267 . S
C339 O351 1.278 . S
O340 Pr320 2.562 . S
O340 C322 1.254 . S
O341 Pr320 2.490 . S
O341 C322 1.225 . S
O342 Pr320 2.695 . S
O342 Pr321 2.436 . S
O342 C329 1.270 . S
O343 Pr320 2.512 . S
O343 C329 1.248 . S
O344 Pr321 2.438 . S
O344 C330 1.267 . S
O345 Pr320 2.437 . S
O345 C330 1.278 . S
O346 Pr321 2.562 . S
O346 C331 1.254 . S
O347 Pr321 2.490 . S
O347 C331 1.225 . S
O348 Pr320 2.436 . S
O348 Pr321 2.695 . S
O348 C338 1.270 . S
O349 Pr321 2.512 . S
O349 C338 1.248 . S
O350 Pr320 2.438 . S
O350 C339 1.267 . S
O351 Pr321 2.437 . S
O351 C339 1.278 . S
H352 C324 0.929 . S
H353 C325 0.929 . S
H354 C327 0.931 . S
H355 C328 0.930 . S
H356 C333 0.929 . S
H357 C334 0.929 . S
H358 C336 0.931 . S
H359 C337 0.930 . S
Pr360 C362 2.880 . S
Pr360 O380 2.562 . S
Pr360 O381 2.490 . S
Pr360 O382 2.695 . S
Pr360 O383 2.512 . S
Pr360 O385 2.437 . S
Pr360 O388 2.436 . S
Pr360 O390 2.438 . S
Pr361 C371 2.880 1_455 S
Pr361 O382 2.436 . S
Pr361 O384 2.438 . S
Pr361 O386 2.562 . S
Pr361 O387 2.490 . S
Pr361 O388 2.695 . S
Pr361 O389 2.512 . S
Pr361 O391 2.437 . S
C362 Pr360 2.880 . S
C362 C363 1.491 . S
C362 O380 1.254 . S
C362 O381 1.225 . S
C363 C362 1.491 . S
C363 C364 1.392 . S
C363 C368 1.356 . S
C364 C363 1.392 . S
C364 C365 1.368 . S
C364 H392 0.929 . S
C365 C364 1.368 . S
C365 C366 1.386 . S
C365 H393 0.929 . S
C366 C365 1.386 . S
C366 C367 1.373 . S
C367 C366 1.373 . S
C367 C368 1.409 . S
C367 H394 0.931 . S
C368 C363 1.356 . S
C368 C367 1.409 . S
C368 H395 0.930 . S
C369 O382 1.270 . S
C369 O383 1.248 . S
C370 O384 1.267 . S
C370 O385 1.278 . S
C371 Pr361 2.880 1_655 S
C371 C372 1.491 . S
C371 O386 1.254 1_655 S
C371 O387 1.225 1_655 S
C372 C371 1.491 . S
C372 C373 1.392 . S
C372 C377 1.356 . S
C373 C372 1.392 . S
C373 C374 1.368 . S
C373 H396 0.929 . S
C374 C373 1.368 . S
C374 C375 1.386 . S
C374 H397 0.929 . S
C375 C374 1.386 . S
C375 C376 1.373 . S
C376 C375 1.373 . S
C376 C377 1.409 . S
C376 H398 0.931 . S
C377 C372 1.356 . S
C377 C376 1.409 . S
C377 H399 0.930 . S
C378 O388 1.270 . S
C378 O389 1.248 . S
C379 O390 1.267 . S
C379 O391 1.278 . S
O380 Pr360 2.562 . S
O380 C362 1.254 . S
O381 Pr360 2.490 . S
O381 C362 1.225 . S
O382 Pr360 2.695 . S
O382 Pr361 2.436 . S
O382 C369 1.270 . S
O383 Pr360 2.512 . S
O383 C369 1.248 . S
O384 Pr361 2.438 . S
O384 C370 1.267 . S
O385 Pr360 2.437 . S
O385 C370 1.278 . S
O386 Pr361 2.562 . S
O386 C371 1.254 1_455 S
O387 Pr361 2.490 . S
O387 C371 1.225 1_455 S
O388 Pr360 2.436 . S
O388 Pr361 2.695 . S
O388 C378 1.270 . S
O389 Pr361 2.512 . S
O389 C378 1.248 . S
O390 Pr360 2.438 . S
O390 C379 1.267 . S
O391 Pr361 2.437 . S
O391 C379 1.278 . S
H392 C364 0.929 . S
H393 C365 0.929 . S
H394 C367 0.931 . S
H395 C368 0.930 . S
H396 C373 0.929 . S
H397 C374 0.929 . S
H398 C376 0.931 . S
H399 C377 0.930 . S
Pr400 C402 2.880 1_565 S
Pr400 O420 2.562 . S
Pr400 O421 2.490 . S
Pr400 O422 2.695 . S
Pr400 O423 2.512 . S
Pr400 O425 2.437 . S
Pr400 O428 2.436 . S
Pr400 O430 2.438 . S
Pr401 C411 2.880 . S
Pr401 O422 2.436 . S
Pr401 O424 2.438 . S
Pr401 O426 2.562 . S
Pr401 O427 2.490 . S
Pr401 O428 2.695 . S
Pr401 O429 2.512 . S
Pr401 O431 2.437 . S
C402 Pr400 2.880 1_545 S
C402 C403 1.491 . S
C402 O420 1.254 1_545 S
C402 O421 1.225 1_545 S
C403 C402 1.491 . S
C403 C404 1.392 . S
C403 C408 1.356 . S
C404 C403 1.392 . S
C404 C405 1.368 . S
C404 H432 0.929 . S
C405 C404 1.368 . S
C405 C406 1.386 . S
C405 H433 0.929 . S
C406 C405 1.386 . S
C406 C407 1.373 . S
C407 C406 1.373 . S
C407 C408 1.409 . S
C407 H434 0.931 . S
C408 C403 1.356 . S
C408 C407 1.409 . S
C408 H435 0.930 . S
C409 O422 1.270 . S
C409 O423 1.248 . S
C410 O424 1.267 . S
C410 O425 1.278 . S
C411 Pr401 2.880 . S
C411 C412 1.491 . S
C411 O426 1.254 . S
C411 O427 1.225 . S
C412 C411 1.491 . S
C412 C413 1.392 . S
C412 C417 1.356 . S
C413 C412 1.392 . S
C413 C414 1.368 . S
C413 H436 0.929 . S
C414 C413 1.368 . S
C414 C415 1.386 . S
C414 H437 0.929 . S
C415 C414 1.386 . S
C415 C416 1.373 . S
C416 C415 1.373 . S
C416 C417 1.409 . S
C416 H438 0.931 . S
C417 C412 1.356 . S
C417 C416 1.409 . S
C417 H439 0.930 . S
C418 O428 1.270 . S
C418 O429 1.248 . S
C419 O430 1.267 . S
C419 O431 1.278 . S
O420 Pr400 2.562 . S
O420 C402 1.254 1_565 S
O421 Pr400 2.490 . S
O421 C402 1.225 1_565 S
O422 Pr400 2.695 . S
O422 Pr401 2.436 . S
O422 C409 1.270 . S
O423 Pr400 2.512 . S
O423 C409 1.248 . S
O424 Pr401 2.438 . S
O424 C410 1.267 . S
O425 Pr400 2.437 . S
O425 C410 1.278 . S
O426 Pr401 2.562 . S
O426 C411 1.254 . S
O427 Pr401 2.490 . S
O427 C411 1.225 . S
O428 Pr400 2.436 . S
O428 Pr401 2.695 . S
O428 C418 1.270 . S
O429 Pr401 2.512 . S
O429 C418 1.248 . S
O430 Pr400 2.438 . S
O430 C419 1.267 . S
O431 Pr401 2.437 . S
O431 C419 1.278 . S
H432 C404 0.929 . S
H433 C405 0.929 . S
H434 C407 0.931 . S
H435 C408 0.930 . S
H436 C413 0.929 . S
H437 C414 0.929 . S
H438 C416 0.931 . S
H439 C417 0.930 . S
Pr440 C442 2.880 . S
Pr440 O460 2.562 . S
Pr440 O461 2.490 . S
Pr440 O462 2.695 . S
Pr440 O463 2.512 . S
Pr440 O465 2.437 . S
Pr440 O468 2.436 . S
Pr440 O470 2.438 . S
Pr441 C451 2.880 . S
Pr441 O462 2.436 . S
Pr441 O464 2.438 . S
Pr441 O466 2.562 . S
Pr441 O467 2.490 . S
Pr441 O468 2.695 . S
Pr441 O469 2.512 . S
Pr441 O471 2.437 . S
C442 Pr440 2.880 . S
C442 C443 1.491 . S
C442 O460 1.254 . S
C442 O461 1.225 . S
C443 C442 1.491 . S
C443 C444 1.392 . S
C443 C448 1.356 . S
C444 C443 1.392 . S
C444 C445 1.368 . S
C444 H472 0.929 . S
C445 C444 1.368 . S
C445 C446 1.386 . S
C445 H473 0.929 . S
C446 C445 1.386 . S
C446 C447 1.373 . S
C447 C446 1.373 . S
C447 C448 1.409 . S
C447 H474 0.931 . S
C448 C443 1.356 . S
C448 C447 1.409 . S
C448 H475 0.930 . S
C449 O462 1.270 . S
C449 O463 1.248 . S
C450 O464 1.267 . S
C450 O465 1.278 . S
C451 Pr441 2.880 . S
C451 C452 1.491 . S
C451 O466 1.254 . S
C451 O467 1.225 . S
C452 C451 1.491 . S
C452 C453 1.392 . S
C452 C457 1.356 . S
C453 C452 1.392 . S
C453 C454 1.368 . S
C453 H476 0.929 . S
C454 C453 1.368 . S
C454 C455 1.386 . S
C454 H477 0.929 . S
C455 C454 1.386 . S
C455 C456 1.373 . S
C456 C455 1.373 . S
C456 C457 1.409 . S
C456 H478 0.931 . S
C457 C452 1.356 . S
C457 C456 1.409 . S
C457 H479 0.930 . S
C458 O468 1.270 . S
C458 O469 1.248 . S
C459 O470 1.267 . S
C459 O471 1.278 . S
O460 Pr440 2.562 . S
O460 C442 1.254 . S
O461 Pr440 2.490 . S
O461 C442 1.225 . S
O462 Pr440 2.695 . S
O462 Pr441 2.436 . S
O462 C449 1.270 . S
O463 Pr440 2.512 . S
O463 C449 1.248 . S
O464 Pr441 2.438 . S
O464 C450 1.267 . S
O465 Pr440 2.437 . S
O465 C450 1.278 . S
O466 Pr441 2.562 . S
O466 C451 1.254 . S
O467 Pr441 2.490 . S
O467 C451 1.225 . S
O468 Pr440 2.436 . S
O468 Pr441 2.695 . S
O468 C458 1.270 . S
O469 Pr441 2.512 . S
O469 C458 1.248 . S
O470 Pr440 2.438 . S
O470 C459 1.267 . S
O471 Pr441 2.437 . S
O471 C459 1.278 . S
H472 C444 0.929 . S
H473 C445 0.929 . S
H474 C447 0.931 . S
H475 C448 0.930 . S
H476 C453 0.929 . S
H477 C454 0.929 . S
H478 C456 0.931 . S
H479 C457 0.930 . S
C480 C481 1.363 . S
C480 C486 1.379 . S
C480 N488 1.356 . S
C481 C480 1.363 . S
C481 C487 1.363 . S
C482 C483 1.363 . S
C482 C487 1.379 . S
C482 N489 1.356 . S
C483 C482 1.363 . S
C483 C486 1.363 . S
N484 C486 1.356 . S
N484 H496 0.984 . S
N484 H497 0.985 . S
N485 C487 1.356 . S
N485 H490 0.984 . S
N485 H491 0.985 . S
C486 C480 1.379 . S
C486 C483 1.363 . S
C486 N484 1.356 . S
C487 C481 1.363 . S
C487 C482 1.379 . S
C487 N485 1.356 . S
N488 C480 1.356 . S
N488 H494 0.984 . S
N488 H495 0.984 . S
N489 C482 1.356 . S
N489 H492 0.984 . S
N489 H493 0.985 . S
H490 N485 0.984 . S
H491 N485 0.985 . S
H492 N489 0.984 . S
H493 N489 0.985 . S
H494 N488 0.984 . S
H495 N488 0.984 . S
H496 N484 0.984 . S
H497 N484 0.985 . S
C498 C499 1.363 . S
C498 C504 1.379 1_455 S
C498 N506 1.356 . S
C499 C498 1.363 . S
C499 C505 1.363 1_455 S
C500 C501 1.363 . S
C500 C505 1.379 . S
C500 N507 1.356 . S
C501 C500 1.363 . S
C501 C504 1.363 . S
N502 C504 1.356 . S
N502 H514 0.984 . S
N502 H515 0.985 . S
N503 C505 1.356 1_455 S
N503 H508 0.984 . S
N503 H509 0.985 . S
C504 C498 1.379 1_655 S
C504 C501 1.363 . S
C504 N502 1.356 . S
C505 C499 1.363 1_655 S
C505 C500 1.379 . S
C505 N503 1.356 1_655 S
N506 C498 1.356 . S
N506 H512 0.984 . S
N506 H513 0.984 . S
N507 C500 1.356 . S
N507 H510 0.984 . S
N507 H511 0.985 . S
H508 N503 0.984 . S
H509 N503 0.985 . S
H510 N507 0.984 . S
H511 N507 0.985 . S
H512 N506 0.984 . S
H513 N506 0.984 . S
H514 N502 0.984 . S
H515 N502 0.985 . S
C516 C517 1.363 . S
C516 C522 1.379 . S
C516 N524 1.356 . S
C517 C516 1.363 . S
C517 C523 1.363 . S
C518 C519 1.363 . S
C518 C523 1.379 1_565 S
C518 N525 1.356 . S
C519 C518 1.363 . S
C519 C522 1.363 1_565 S
N520 C522 1.356 1_565 S
N520 H532 0.984 . S
N520 H533 0.985 . S
N521 C523 1.356 . S
N521 H526 0.984 . S
N521 H527 0.985 . S
C522 C516 1.379 . S
C522 C519 1.363 1_545 S
C522 N520 1.356 1_545 S
C523 C517 1.363 . S
C523 C518 1.379 1_545 S
C523 N521 1.356 . S
N524 C516 1.356 . S
N524 H530 0.984 . S
N524 H531 0.984 . S
N525 C518 1.356 . S
N525 H528 0.984 . S
N525 H529 0.985 . S
H526 N521 0.984 . S
H527 N521 0.985 . S
H528 N525 0.984 . S
H529 N525 0.985 . S
H530 N524 0.984 . S
H531 N524 0.984 . S
H532 N520 0.984 . S
H533 N520 0.985 . S
C534 C535 1.363 . S
C534 C540 1.379 . S
C534 N542 1.356 . S
C535 C534 1.363 . S
C535 C541 1.363 . S
C536 C537 1.363 . S
C536 C541 1.379 . S
C536 N543 1.356 . S
C537 C536 1.363 . S
C537 C540 1.363 . S
N538 C540 1.356 . S
N538 H550 0.984 . S
N538 H551 0.985 . S
N539 C541 1.356 . S
N539 H544 0.984 . S
N539 H545 0.985 . S
C540 C534 1.379 . S
C540 C537 1.363 . S
C540 N538 1.356 . S
C541 C535 1.363 . S
C541 C536 1.379 . S
C541 N539 1.356 . S
N542 C534 1.356 . S
N542 H548 0.984 . S
N542 H549 0.984 . S
N543 C536 1.356 . S
N543 H546 0.984 . S
N543 H547 0.985 . S
H544 N539 0.984 . S
H545 N539 0.985 . S
H546 N543 0.984 . S
H547 N543 0.985 . S
H548 N542 0.984 . S
H549 N542 0.984 . S
H550 N538 0.984 . S
H551 N538 0.985 . S
C552 C553 1.363 1_655 S
C552 C558 1.379 . S
C552 N560 1.356 1_655 S
C553 C552 1.363 1_455 S
C553 C559 1.363 . S
C554 C555 1.363 . S
C554 C559 1.379 1_655 S
C554 N561 1.356 . S
C555 C554 1.363 . S
C555 C558 1.363 . S
N556 C558 1.356 . S
N556 H568 0.984 . S
N556 H569 0.985 . S
N557 C559 1.356 . S
N557 H562 0.984 . S
N557 H563 0.985 . S
C558 C552 1.379 . S
C558 C555 1.363 . S
C558 N556 1.356 . S
C559 C553 1.363 . S
C559 C554 1.379 1_455 S
C559 N557 1.356 . S
N560 C552 1.356 1_455 S
N560 H566 0.984 1_455 S
N560 H567 0.984 . S
N561 C554 1.356 . S
N561 H564 0.984 . S
N561 H565 0.985 . S
H562 N557 0.984 . S
H563 N557 0.985 . S
H564 N561 0.984 . S
H565 N561 0.985 . S
H566 N560 0.984 1_655 S
H567 N560 0.984 . S
H568 N556 0.984 . S
H569 N556 0.985 . S
C570 C571 1.363 . S
C570 C576 1.379 1_565 S
C570 N578 1.356 . S
C571 C570 1.363 . S
C571 C577 1.363 1_565 S
C572 C573 1.363 . S
C572 C577 1.379 . S
C572 N579 1.356 . S
C573 C572 1.363 . S
C573 C576 1.363 . S
N574 C576 1.356 . S
N574 H586 0.984 . S
N574 H587 0.985 . S
N575 C577 1.356 1_565 S
N575 H580 0.984 . S
N575 H581 0.985 . S
C576 C570 1.379 1_545 S
C576 C573 1.363 . S
C576 N574 1.356 . S
C577 C571 1.363 1_545 S
C577 C572 1.379 . S
C577 N575 1.356 1_545 S
N578 C570 1.356 . S
N578 H584 0.984 . S
N578 H585 0.984 . S
N579 C572 1.356 . S
N579 H582 0.984 . S
N579 H583 0.985 . S
H580 N575 0.984 . S
H581 N575 0.985 . S
H582 N579 0.984 . S
H583 N579 0.985 . S
H584 N578 0.984 . S
H585 N578 0.984 . S
H586 N574 0.984 . S
H587 N574 0.985 . S
C588 C589 1.363 . S
C588 C594 1.379 . S
C588 N596 1.356 . S
C589 C588 1.363 . S
C589 C595 1.363 . S
C590 C591 1.363 . S
C590 C595 1.379 . S
C590 N597 1.356 . S
C591 C590 1.363 . S
C591 C594 1.363 . S
N592 C594 1.356 . S
N592 H604 0.984 . S
N592 H605 0.985 . S
N593 C595 1.356 . S
N593 H598 0.984 . S
N593 H599 0.985 . S
C594 C588 1.379 . S
C594 C591 1.363 . S
C594 N592 1.356 . S
C595 C589 1.363 . S
C595 C590 1.379 . S
C595 N593 1.356 . S
N596 C588 1.356 . S
N596 H602 0.984 . S
N596 H603 0.984 . S
N597 C590 1.356 . S
N597 H600 0.984 . S
N597 H601 0.985 . S
H598 N593 0.984 . S
H599 N593 0.985 . S
H600 N597 0.984 . S
H601 N597 0.985 . S
H602 N596 0.984 . S
H603 N596 0.984 . S
H604 N592 0.984 . S
H605 N592 0.985 . S
C606 C607 1.363 . S
C606 C612 1.379 1_455 S
C606 N614 1.356 . S
C607 C606 1.363 . S
C607 C613 1.363 . S
C608 C609 1.363 1_455 S
C608 C613 1.379 . S
C608 N615 1.356 1_455 S
C609 C608 1.363 1_655 S
C609 C612 1.363 . S
N610 C612 1.356 . S
N610 H622 0.984 . S
N610 H623 0.985 . S
N611 C613 1.356 . S
N611 H616 0.984 . S
N611 H617 0.985 . S
C612 C606 1.379 1_655 S
C612 C609 1.363 . S
C612 N610 1.356 . S
C613 C607 1.363 . S
C613 C608 1.379 . S
C613 N611 1.356 . S
N614 C606 1.356 . S
N614 H620 0.984 . S
N614 H621 0.984 . S
N615 C608 1.356 1_655 S
N615 H618 0.984 . S
N615 H619 0.985 . S
H616 N611 0.984 . S
H617 N611 0.985 . S
H618 N615 0.984 . S
H619 N615 0.985 . S
H620 N614 0.984 . S
H621 N614 0.984 . S
H622 N610 0.984 . S
H623 N610 0.985 . S
C624 C625 1.363 . S
C624 C630 1.379 1_565 S
C624 N632 1.356 . S
C625 C624 1.363 . S
C625 C631 1.363 . S
C626 C627 1.363 1_565 S
C626 C631 1.379 . S
C626 N633 1.356 1_565 S
C627 C626 1.363 1_545 S
C627 C630 1.363 . S
N628 C630 1.356 . S
N628 H640 0.984 . S
N628 H641 0.985 . S
N629 C631 1.356 . S
N629 H634 0.984 . S
N629 H635 0.985 . S
C630 C624 1.379 1_545 S
C630 C627 1.363 . S
C630 N628 1.356 . S
C631 C625 1.363 . S
C631 C626 1.379 . S
C631 N629 1.356 . S
N632 C624 1.356 . S
N632 H638 0.984 . S
N632 H639 0.984 . S
N633 C626 1.356 1_545 S
N633 H636 0.984 . S
N633 H637 0.985 . S
H634 N629 0.984 . S
H635 N629 0.985 . S
H636 N633 0.984 . S
H637 N633 0.985 . S
H638 N632 0.984 . S
H639 N632 0.984 . S
H640 N628 0.984 . S
H641 N628 0.985 . S
C642 C643 1.363 . S
C642 C648 1.379 . S
C642 N650 1.356 . S
C643 C642 1.363 . S
C643 C649 1.363 . S
C644 C645 1.363 . S
C644 C649 1.379 . S
C644 N651 1.356 . S
C645 C644 1.363 . S
C645 C648 1.363 . S
N646 C648 1.356 . S
N646 H658 0.984 . S
N646 H659 0.985 . S
N647 C649 1.356 . S
N647 H652 0.984 . S
N647 H653 0.985 . S
C648 C642 1.379 . S
C648 C645 1.363 . S
C648 N646 1.356 . S
C649 C643 1.363 . S
C649 C644 1.379 . S
C649 N647 1.356 . S
N650 C642 1.356 . S
N650 H656 0.984 . S
N650 H657 0.984 . S
N651 C644 1.356 . S
N651 H654 0.984 . S
N651 H655 0.985 . S
H652 N647 0.984 . S
H653 N647 0.985 . S
H654 N651 0.984 . S
H655 N651 0.985 . S
H656 N650 0.984 . S
H657 N650 0.984 . S
H658 N646 0.984 . S
H659 N646 0.985 . S
C660 C661 1.363 . S
C660 C666 1.379 . S
C660 N668 1.356 . S
C661 C660 1.363 . S
C661 C667 1.363 . S
C662 C663 1.363 . S
C662 C667 1.379 1_655 S
C662 N669 1.356 . S
C663 C662 1.363 . S
C663 C666 1.363 1_655 S
N664 C666 1.356 1_655 S
N664 H676 0.984 . S
N664 H677 0.985 . S
N665 C667 1.356 . S
N665 H670 0.984 . S
N665 H671 0.985 . S
C666 C660 1.379 . S
C666 C663 1.363 1_455 S
C666 N664 1.356 1_455 S
C667 C661 1.363 . S
C667 C662 1.379 1_455 S
C667 N665 1.356 . S
N668 C660 1.356 . S
N668 H674 0.984 . S
N668 H675 0.984 . S
N669 C662 1.356 . S
N669 H672 0.984 . S
N669 H673 0.985 . S
H670 N665 0.984 . S
H671 N665 0.985 . S
H672 N669 0.984 . S
H673 N669 0.985 . S
H674 N668 0.984 . S
H675 N668 0.984 . S
H676 N664 0.984 . S
H677 N664 0.985 . S
C678 C679 1.363 . S
C678 C684 1.379 1_545 S
C678 N686 1.356 . S
C679 C678 1.363 . S
C679 C685 1.363 1_545 S
C680 C681 1.363 . S
C680 C685 1.379 . S
C680 N687 1.356 . S
C681 C680 1.363 . S
C681 C684 1.363 . S
N682 C684 1.356 . S
N682 H694 0.984 . S
N682 H695 0.985 . S
N683 C685 1.356 1_545 S
N683 H688 0.984 . S
N683 H689 0.985 . S
C684 C678 1.379 1_565 S
C684 C681 1.363 . S
C684 N682 1.356 . S
C685 C679 1.363 1_565 S
C685 C680 1.379 . S
C685 N683 1.356 1_565 S
N686 C678 1.356 . S
N686 H692 0.984 . S
N686 H693 0.984 . S
N687 C680 1.356 . S
N687 H690 0.984 . S
N687 H691 0.985 . S
H688 N683 0.984 . S
H689 N683 0.985 . S
H690 N687 0.984 . S
H691 N687 0.985 . S
H692 N686 0.984 . S
H693 N686 0.984 . S
H694 N682 0.984 . S
H695 N682 0.985 . S
C696 C697 1.363 . S
C696 C702 1.379 . S
C696 N704 1.356 . S
C697 C696 1.363 . S
C697 C703 1.363 . S
C698 C699 1.363 . S
C698 C703 1.379 . S
C698 N705 1.356 . S
C699 C698 1.363 . S
C699 C702 1.363 . S
N700 C702 1.356 . S
N700 H712 0.984 . S
N700 H713 0.985 . S
N701 C703 1.356 . S
N701 H706 0.984 . S
N701 H707 0.985 . S
C702 C696 1.379 . S
C702 C699 1.363 . S
C702 N700 1.356 . S
C703 C697 1.363 . S
C703 C698 1.379 . S
C703 N701 1.356 . S
N704 C696 1.356 . S
N704 H710 0.984 . S
N704 H711 0.984 . S
N705 C698 1.356 . S
N705 H708 0.984 . S
N705 H709 0.985 . S
H706 N701 0.984 . S
H707 N701 0.985 . S
H708 N705 0.984 . S
H709 N705 0.985 . S
H710 N704 0.984 . S
H711 N704 0.984 . S
H712 N700 0.984 . S
H713 N700 0.985 . S
C714 C715 1.363 . S
C714 C720 1.379 . S
C714 N722 1.356 . S
C715 C714 1.363 . S
C715 C721 1.363 . S
C716 C717 1.363 . S
C716 C721 1.379 . S
C716 N723 1.356 . S
C717 C716 1.363 . S
C717 C720 1.363 . S
N718 C720 1.356 . S
N718 H730 0.984 . S
N718 H731 0.985 . S
N719 C721 1.356 . S
N719 H724 0.984 . S
N719 H725 0.985 . S
C720 C714 1.379 . S
C720 C717 1.363 . S
C720 N718 1.356 . S
C721 C715 1.363 . S
C721 C716 1.379 . S
C721 N719 1.356 . S
N722 C714 1.356 . S
N722 H728 0.984 . S
N722 H729 0.984 . S
N723 C716 1.356 . S
N723 H726 0.984 . S
N723 H727 0.985 . S
H724 N719 0.984 . S
H725 N719 0.985 . S
H726 N723 0.984 . S
H727 N723 0.985 . S
H728 N722 0.984 . S
H729 N722 0.984 . S
H730 N718 0.984 . S
H731 N718 0.985 . S
C732 C733 1.363 . S
C732 C738 1.379 . S
C732 N740 1.356 . S
C733 C732 1.363 . S
C733 C739 1.363 . S
C734 C735 1.363 . S
C734 C739 1.379 . S
C734 N741 1.356 . S
C735 C734 1.363 . S
C735 C738 1.363 . S
N736 C738 1.356 . S
N736 H748 0.984 . S
N736 H749 0.985 . S
N737 C739 1.356 . S
N737 H742 0.984 . S
N737 H743 0.985 . S
C738 C732 1.379 . S
C738 C735 1.363 . S
C738 N736 1.356 . S
C739 C733 1.363 . S
C739 C734 1.379 . S
C739 N737 1.356 . S
N740 C732 1.356 . S
N740 H746 0.984 . S
N740 H747 0.984 . S
N741 C734 1.356 . S
N741 H744 0.984 . S
N741 H745 0.985 . S
H742 N737 0.984 . S
H743 N737 0.985 . S
H744 N741 0.984 . S
H745 N741 0.985 . S
H746 N740 0.984 . S
H747 N740 0.984 . S
H748 N736 0.984 . S
H749 N736 0.985 . S
C750 C751 1.363 . S
C750 C756 1.379 . S
C750 N758 1.356 . S
C751 C750 1.363 . S
C751 C757 1.363 . S
C752 C753 1.363 . S
C752 C757 1.379 . S
C752 N759 1.356 . S
C753 C752 1.363 . S
C753 C756 1.363 . S
N754 C756 1.356 . S
N754 H766 0.984 . S
N754 H767 0.985 . S
N755 C757 1.356 . S
N755 H760 0.984 . S
N755 H761 0.985 . S
C756 C750 1.379 . S
C756 C753 1.363 . S
C756 N754 1.356 . S
C757 C751 1.363 . S
C757 C752 1.379 . S
C757 N755 1.356 . S
N758 C750 1.356 . S
N758 H764 0.984 . S
N758 H765 0.984 . S
N759 C752 1.356 . S
N759 H762 0.984 . S
N759 H763 0.985 . S
H760 N755 0.984 . S
H761 N755 0.985 . S
H762 N759 0.984 . S
H763 N759 0.985 . S
H764 N758 0.984 . S
H765 N758 0.984 . S
H766 N754 0.984 . S
H767 N754 0.985 . S
C768 C769 1.363 . S
C768 C774 1.379 . S
C768 N776 1.356 . S
C769 C768 1.363 . S
C769 C775 1.363 . S
C770 C771 1.363 . S
C770 C775 1.379 . S
C770 N777 1.356 . S
C771 C770 1.363 . S
C771 C774 1.363 . S
N772 C774 1.356 . S
N772 H784 0.984 . S
N772 H785 0.985 . S
N773 C775 1.356 . S
N773 H778 0.984 . S
N773 H779 0.985 . S
C774 C768 1.379 . S
C774 C771 1.363 . S
C774 N772 1.356 . S
C775 C769 1.363 . S
C775 C770 1.379 . S
C775 N773 1.356 . S
N776 C768 1.356 . S
N776 H782 0.984 . S
N776 H783 0.984 . S
N777 C770 1.356 . S
N777 H780 0.984 . S
N777 H781 0.985 . S
H778 N773 0.984 . S
H779 N773 0.985 . S
H780 N777 0.984 . S
H781 N777 0.985 . S
H782 N776 0.984 . S
H783 N776 0.984 . S
H784 N772 0.984 . S
H785 N772 0.985 . S
C786 C787 1.363 . S
C786 C792 1.379 . S
C786 N794 1.356 . S
C787 C786 1.363 . S
C787 C793 1.363 . S
C788 C789 1.363 . S
C788 C793 1.379 . S
C788 N795 1.356 . S
C789 C788 1.363 . S
C789 C792 1.363 . S
N790 C792 1.356 . S
N790 H802 0.984 . S
N790 H803 0.985 . S
N791 C793 1.356 . S
N791 H796 0.984 . S
N791 H797 0.985 . S
C792 C786 1.379 . S
C792 C789 1.363 . S
C792 N790 1.356 . S
C793 C787 1.363 . S
C793 C788 1.379 . S
C793 N791 1.356 . S
N794 C786 1.356 . S
N794 H800 0.984 . S
N794 H801 0.984 . S
N795 C788 1.356 . S
N795 H798 0.984 . S
N795 H799 0.985 . S
H796 N791 0.984 . S
H797 N791 0.985 . S
H798 N795 0.984 . S
H799 N795 0.985 . S
H800 N794 0.984 . S
H801 N794 0.984 . S
H802 N790 0.984 . S
H803 N790 0.985 . S
C804 C805 1.363 . S
C804 C810 1.379 1_565 S
C804 N812 1.356 . S
C805 C804 1.363 . S
C805 C811 1.363 1_556 S
C806 C807 1.363 . S
C806 C811 1.379 1_545 S
C806 N813 1.356 . S
C807 C806 1.363 . S
C807 C810 1.363 1_554 S
N808 C810 1.356 . S
N808 H820 0.984 . S
N808 H821 0.985 . S
N809 C811 1.356 . S
N809 H814 0.984 . S
N809 H815 0.985 . S
C810 C804 1.379 1_545 S
C810 C807 1.363 1_556 S
C810 N808 1.356 . S
C811 C805 1.363 1_554 S
C811 C806 1.379 1_565 S
C811 N809 1.356 . S
N812 C804 1.356 . S
N812 H818 0.984 . S
N812 H819 0.984 . S
N813 C806 1.356 . S
N813 H816 0.984 . S
N813 H817 0.985 . S
H814 N809 0.984 . S
H815 N809 0.985 . S
H816 N813 0.984 . S
H817 N813 0.985 . S
H818 N812 0.984 . S
H819 N812 0.984 . S
H820 N808 0.984 . S
H821 N808 0.985 . S
C822 C823 1.363 . S
C822 C828 1.379 . S
C822 N830 1.356 . S
C823 C822 1.363 . S
C823 C829 1.363 . S
C824 C825 1.363 . S
C824 C829 1.379 . S
C824 N831 1.356 . S
C825 C824 1.363 . S
C825 C828 1.363 . S
N826 C828 1.356 . S
N826 H838 0.984 . S
N826 H839 0.985 . S
N827 C829 1.356 . S
N827 H832 0.984 . S
N827 H833 0.985 . S
C828 C822 1.379 . S
C828 C825 1.363 . S
C828 N826 1.356 . S
C829 C823 1.363 . S
C829 C824 1.379 . S
C829 N827 1.356 . S
N830 C822 1.356 . S
N830 H836 0.984 . S
N830 H837 0.984 . S
N831 C824 1.356 . S
N831 H834 0.984 . S
N831 H835 0.985 . S
H832 N827 0.984 . S
H833 N827 0.985 . S
H834 N831 0.984 . S
H835 N831 0.985 . S
H836 N830 0.984 . S
H837 N830 0.984 . S
H838 N826 0.984 . S
H839 N826 0.985 . S
C840 C841 1.363 1_554 S
C840 C846 1.379 1_455 S
C840 N848 1.356 . S
C841 C840 1.363 1_556 S
C841 C847 1.363 . S
C842 C843 1.363 1_556 S
C842 C847 1.379 1_655 S
C842 N849 1.356 . S
C843 C842 1.363 1_554 S
C843 C846 1.363 . S
N844 C846 1.356 . S
N844 H856 0.984 . S
N844 H857 0.985 . S
N845 C847 1.356 . S
N845 H850 0.984 . S
N845 H851 0.985 . S
C846 C840 1.379 1_655 S
C846 C843 1.363 . S
C846 N844 1.356 . S
C847 C841 1.363 . S
C847 C842 1.379 1_455 S
C847 N845 1.356 . S
N848 C840 1.356 . S
N848 H854 0.984 . S
N848 H855 0.984 1_554 S
N849 C842 1.356 . S
N849 H852 0.984 1_556 S
N849 H853 0.985 . S
H850 N845 0.984 . S
H851 N845 0.985 . S
H852 N849 0.984 1_554 S
H853 N849 0.985 . S
H854 N848 0.984 . S
H855 N848 0.984 1_556 S
H856 N844 0.984 . S
H857 N844 0.985 . S
C858 C859 1.363 . S
C858 C864 1.379 1_545 S
C858 N866 1.356 . S
C859 C858 1.363 . S
C859 C865 1.363 . S
C860 C861 1.363 . S
C860 C865 1.379 1_565 S
C860 N867 1.356 . S
C861 C860 1.363 . S
C861 C864 1.363 . S
N862 C864 1.356 . S
N862 H874 0.984 . S
N862 H875 0.985 . S
N863 C865 1.356 . S
N863 H868 0.984 . S
N863 H869 0.985 . S
C864 C858 1.379 1_565 S
C864 C861 1.363 . S
C864 N862 1.356 . S
C865 C859 1.363 . S
C865 C860 1.379 1_545 S
C865 N863 1.356 . S
N866 C858 1.356 . S
N866 H872 0.984 . S
N866 H873 0.984 . S
N867 C860 1.356 . S
N867 H870 0.984 . S
N867 H871 0.985 . S
H868 N863 0.984 . S
H869 N863 0.985 . S
H870 N867 0.984 . S
H871 N867 0.985 . S
H872 N866 0.984 . S
H873 N866 0.984 . S
H874 N862 0.984 . S
H875 N862 0.985 . S
C876 C877 1.363 1_556 S
C876 C882 1.379 . S
C876 N884 1.356 . S
C877 C876 1.363 1_554 S
C877 C883 1.363 . S
C878 C879 1.363 1_554 S
C878 C883 1.379 . S
C878 N885 1.356 . S
C879 C878 1.363 1_556 S
C879 C882 1.363 . S
N880 C882 1.356 . S
N880 H892 0.984 . S
N880 H893 0.985 . S
N881 C883 1.356 . S
N881 H886 0.984 . S
N881 H887 0.985 . S
C882 C876 1.379 . S
C882 C879 1.363 . S
C882 N880 1.356 . S
C883 C877 1.363 . S
C883 C878 1.379 . S
C883 N881 1.356 . S
N884 C876 1.356 . S
N884 H890 0.984 . S
N884 H891 0.984 . S
N885 C878 1.356 . S
N885 H888 0.984 . S
N885 H889 0.985 . S
H886 N881 0.984 . S
H887 N881 0.985 . S
H888 N885 0.984 . S
H889 N885 0.985 . S
H890 N884 0.984 . S
H891 N884 0.984 . S
H892 N880 0.984 . S
H893 N880 0.985 . S
C894 C895 1.363 . S
C894 C900 1.379 1_455 S
C894 N902 1.356 . S
C895 C894 1.363 . S
C895 C901 1.363 . S
C896 C897 1.363 . S
C896 C901 1.379 1_655 S
C896 N903 1.356 . S
C897 C896 1.363 . S
C897 C900 1.363 . S
N898 C900 1.356 . S
N898 H910 0.984 . S
N898 H911 0.985 . S
N899 C901 1.356 . S
N899 H904 0.984 . S
N899 H905 0.985 . S
C900 C894 1.379 1_655 S
C900 C897 1.363 . S
C900 N898 1.356 . S
C901 C895 1.363 . S
C901 C896 1.379 1_455 S
C901 N899 1.356 . S
N902 C894 1.356 . S
N902 H908 0.984 . S
N902 H909 0.984 . S
N903 C896 1.356 . S
N903 H906 0.984 . S
N903 H907 0.985 . S
H904 N899 0.984 . S
H905 N899 0.985 . S
H906 N903 0.984 . S
H907 N903 0.985 . S
H908 N902 0.984 . S
H909 N902 0.984 . S
H910 N898 0.984 . S
H911 N898 0.985 . S
C912 C913 1.363 . S
C912 C918 1.379 . S
C912 N920 1.356 . S
C913 C912 1.363 . S
C913 C919 1.363 . S
C914 C915 1.363 . S
C914 C919 1.379 . S
C914 N921 1.356 . S
C915 C914 1.363 . S
C915 C918 1.363 . S
N916 C918 1.356 . S
N916 H928 0.984 . S
N916 H929 0.985 . S
N917 C919 1.356 . S
N917 H922 0.984 . S
N917 H923 0.985 . S
C918 C912 1.379 . S
C918 C915 1.363 . S
C918 N916 1.356 . S
C919 C913 1.363 . S
C919 C914 1.379 . S
C919 N917 1.356 . S
N920 C912 1.356 . S
N920 H926 0.984 . S
N920 H927 0.984 . S
N921 C914 1.356 . S
N921 H924 0.984 . S
N921 H925 0.985 . S
H922 N917 0.984 . S
H923 N917 0.985 . S
H924 N921 0.984 . S
H925 N921 0.985 . S
H926 N920 0.984 . S
H927 N920 0.984 . S
H928 N916 0.984 . S
H929 N916 0.985 . S
C930 C931 1.363 . S
C930 C936 1.379 . S
C930 N938 1.356 . S
C931 C930 1.363 . S
C931 C937 1.363 . S
C932 C933 1.363 . S
C932 C937 1.379 . S
C932 N939 1.356 . S
C933 C932 1.363 . S
C933 C936 1.363 . S
N934 C936 1.356 . S
N934 H946 0.984 . S
N934 H947 0.985 . S
N935 C937 1.356 . S
N935 H940 0.984 . S
N935 H941 0.985 . S
C936 C930 1.379 . S
C936 C933 1.363 . S
C936 N934 1.356 . S
C937 C931 1.363 . S
C937 C932 1.379 . S
C937 N935 1.356 . S
N938 C930 1.356 . S
N938 H944 0.984 . S
N938 H945 0.984 . S
N939 C932 1.356 . S
N939 H942 0.984 . S
N939 H943 0.985 . S
H940 N935 0.984 . S
H941 N935 0.985 . S
H942 N939 0.984 . S
H943 N939 0.985 . S
H944 N938 0.984 . S
H945 N938 0.984 . S
H946 N934 0.984 . S
H947 N934 0.985 . S
C948 C949 1.363 . S
C948 C954 1.379 . S
C948 N956 1.356 . S
C949 C948 1.363 . S
C949 C955 1.363 . S
C950 C951 1.363 . S
C950 C955 1.379 . S
C950 N957 1.356 . S
C951 C950 1.363 . S
C951 C954 1.363 . S
N952 C954 1.356 . S
N952 H964 0.984 . S
N952 H965 0.985 . S
N953 C955 1.356 . S
N953 H958 0.984 . S
N953 H959 0.985 . S
C954 C948 1.379 . S
C954 C951 1.363 . S
C954 N952 1.356 . S
C955 C949 1.363 . S
C955 C950 1.379 . S
C955 N953 1.356 . S
N956 C948 1.356 . S
N956 H962 0.984 . S
N956 H963 0.984 . S
N957 C950 1.356 . S
N957 H960 0.984 . S
N957 H961 0.985 . S
H958 N953 0.984 . S
H959 N953 0.985 . S
H960 N957 0.984 . S
H961 N957 0.985 . S
H962 N956 0.984 . S
H963 N956 0.984 . S
H964 N952 0.984 . S
H965 N952 0.985 . S
C966 C967 1.363 . S
C966 C972 1.379 . S
C966 N974 1.356 . S
C967 C966 1.363 . S
C967 C973 1.363 . S
C968 C969 1.363 . S
C968 C973 1.379 . S
C968 N975 1.356 . S
C969 C968 1.363 . S
C969 C972 1.363 . S
N970 C972 1.356 . S
N970 H982 0.984 . S
N970 H983 0.985 . S
N971 C973 1.356 . S
N971 H976 0.984 . S
N971 H977 0.985 . S
C972 C966 1.379 . S
C972 C969 1.363 . S
C972 N970 1.356 . S
C973 C967 1.363 . S
C973 C968 1.379 . S
C973 N971 1.356 . S
N974 C966 1.356 . S
N974 H980 0.984 . S
N974 H981 0.984 . S
N975 C968 1.356 . S
N975 H978 0.984 . S
N975 H979 0.985 . S
H976 N971 0.984 . S
H977 N971 0.985 . S
H978 N975 0.984 . S
H979 N975 0.985 . S
H980 N974 0.984 . S
H981 N974 0.984 . S
H982 N970 0.984 . S
H983 N970 0.985 . S
C984 C985 1.363 . S
C984 C990 1.379 . S
C984 N992 1.356 . S
C985 C984 1.363 . S
C985 C991 1.363 . S
C986 C987 1.363 . S
C986 C991 1.379 . S
C986 N993 1.356 . S
C987 C986 1.363 . S
C987 C990 1.363 . S
N988 C990 1.356 . S
N988 H1000 0.984 . S
N988 H1001 0.985 . S
N989 C991 1.356 . S
N989 H994 0.984 . S
N989 H995 0.985 . S
C990 C984 1.379 . S
C990 C987 1.363 . S
C990 N988 1.356 . S
C991 C985 1.363 . S
C991 C986 1.379 . S
C991 N989 1.356 . S
N992 C984 1.356 . S
N992 H998 0.984 . S
N992 H999 0.984 . S
N993 C986 1.356 . S
N993 H996 0.984 . S
N993 H997 0.985 . S
H994 N989 0.984 . S
H995 N989 0.985 . S
H996 N993 0.984 . S
H997 N993 0.985 . S
H998 N992 0.984 . S
H999 N992 0.984 . S
H1000 N988 0.984 . S
H1001 N988 0.985 . S
C1002 C1003 1.363 . S
C1002 C1008 1.379 . S
C1002 N1010 1.356 . S
C1003 C1002 1.363 . S
C1003 C1009 1.363 . S
C1004 C1005 1.363 . S
C1004 C1009 1.379 . S
C1004 N1011 1.356 . S
C1005 C1004 1.363 . S
C1005 C1008 1.363 . S
N1006 C1008 1.356 . S
N1006 H1018 0.984 . S
N1006 H1019 0.985 . S
N1007 C1009 1.356 . S
N1007 H1012 0.984 . S
N1007 H1013 0.985 . S
C1008 C1002 1.379 . S
C1008 C1005 1.363 . S
C1008 N1006 1.356 . S
C1009 C1003 1.363 . S
C1009 C1004 1.379 . S
C1009 N1007 1.356 . S
N1010 C1002 1.356 . S
N1010 H1016 0.984 . S
N1010 H1017 0.984 . S
N1011 C1004 1.356 . S
N1011 H1014 0.984 . S
N1011 H1015 0.985 . S
H1012 N1007 0.984 . S
H1013 N1007 0.985 . S
H1014 N1011 0.984 . S
H1015 N1011 0.985 . S
H1016 N1010 0.984 . S
H1017 N1010 0.984 . S
H1018 N1006 0.984 . S
H1019 N1006 0.985 . S
C1020 C1021 1.363 . S
C1020 C1026 1.379 . S
C1020 N1028 1.356 . S
C1021 C1020 1.363 . S
C1021 C1027 1.363 . S
C1022 C1023 1.363 . S
C1022 C1027 1.379 . S
C1022 N1029 1.356 . S
C1023 C1022 1.363 . S
C1023 C1026 1.363 . S
N1024 C1026 1.356 . S
N1024 H1036 0.984 . S
N1024 H1037 0.985 . S
N1025 C1027 1.356 . S
N1025 H1030 0.984 . S
N1025 H1031 0.985 . S
C1026 C1020 1.379 . S
C1026 C1023 1.363 . S
C1026 N1024 1.356 . S
C1027 C1021 1.363 . S
C1027 C1022 1.379 . S
C1027 N1025 1.356 . S
N1028 C1020 1.356 . S
N1028 H1034 0.984 . S
N1028 H1035 0.984 . S
N1029 C1022 1.356 . S
N1029 H1032 0.984 . S
N1029 H1033 0.985 . S
H1030 N1025 0.984 . S
H1031 N1025 0.985 . S
H1032 N1029 0.984 . S
H1033 N1029 0.985 . S
H1034 N1028 0.984 . S
H1035 N1028 0.984 . S
H1036 N1024 0.984 . S
H1037 N1024 0.985 . S
C1038 C1039 1.363 . S
C1038 C1044 1.379 . S
C1038 N1046 1.356 . S
C1039 C1038 1.363 . S
C1039 C1045 1.363 . S
C1040 C1041 1.363 . S
C1040 C1045 1.379 . S
C1040 N1047 1.356 . S
C1041 C1040 1.363 . S
C1041 C1044 1.363 . S
N1042 C1044 1.356 . S
N1042 H1054 0.984 . S
N1042 H1055 0.985 . S
N1043 C1045 1.356 . S
N1043 H1048 0.984 . S
N1043 H1049 0.985 . S
C1044 C1038 1.379 . S
C1044 C1041 1.363 . S
C1044 N1042 1.356 . S
C1045 C1039 1.363 . S
C1045 C1040 1.379 . S
C1045 N1043 1.356 . S
N1046 C1038 1.356 . S
N1046 H1052 0.984 . S
N1046 H1053 0.984 . S
N1047 C1040 1.356 . S
N1047 H1050 0.984 . S
N1047 H1051 0.985 . S
H1048 N1043 0.984 . S
H1049 N1043 0.985 . S
H1050 N1047 0.984 . S
H1051 N1047 0.985 . S
H1052 N1046 0.984 . S
H1053 N1046 0.984 . S
H1054 N1042 0.984 . S
H1055 N1042 0.985 . S
C1056 C1057 1.363 . S
C1056 C1062 1.379 . S
C1056 N1064 1.356 . S
C1057 C1056 1.363 . S
C1057 C1063 1.363 . S
C1058 C1059 1.363 . S
C1058 C1063 1.379 . S
C1058 N1065 1.356 . S
C1059 C1058 1.363 . S
C1059 C1062 1.363 . S
N1060 C1062 1.356 . S
N1060 H1072 0.984 . S
N1060 H1073 0.985 . S
N1061 C1063 1.356 . S
N1061 H1066 0.984 . S
N1061 H1067 0.985 . S
C1062 C1056 1.379 . S
C1062 C1059 1.363 . S
C1062 N1060 1.356 . S
C1063 C1057 1.363 . S
C1063 C1058 1.379 . S
C1063 N1061 1.356 . S
N1064 C1056 1.356 . S
N1064 H1070 0.984 . S
N1064 H1071 0.984 . S
N1065 C1058 1.356 . S
N1065 H1068 0.984 . S
N1065 H1069 0.985 . S
H1066 N1061 0.984 . S
H1067 N1061 0.985 . S
H1068 N1065 0.984 . S
H1069 N1065 0.985 . S
H1070 N1064 0.984 . S
H1071 N1064 0.984 . S
H1072 N1060 0.984 . S
H1073 N1060 0.985 . S
C1074 C1075 1.363 . S
C1074 C1080 1.379 . S
C1074 N1082 1.356 . S
C1075 C1074 1.363 . S
C1075 C1081 1.363 . S
C1076 C1077 1.363 . S
C1076 C1081 1.379 . S
C1076 N1083 1.356 . S
C1077 C1076 1.363 . S
C1077 C1080 1.363 . S
N1078 C1080 1.356 . S
N1078 H1090 0.984 . S
N1078 H1091 0.985 . S
N1079 C1081 1.356 . S
N1079 H1084 0.984 . S
N1079 H1085 0.985 . S
C1080 C1074 1.379 . S
C1080 C1077 1.363 . S
C1080 N1078 1.356 . S
C1081 C1075 1.363 . S
C1081 C1076 1.379 . S
C1081 N1079 1.356 . S
N1082 C1074 1.356 . S
N1082 H1088 0.984 . S
N1082 H1089 0.984 . S
N1083 C1076 1.356 . S
N1083 H1086 0.984 . S
N1083 H1087 0.985 . S
H1084 N1079 0.984 . S
H1085 N1079 0.985 . S
H1086 N1083 0.984 . S
H1087 N1083 0.985 . S
H1088 N1082 0.984 . S
H1089 N1082 0.984 . S
H1090 N1078 0.984 . S
H1091 N1078 0.985 . S
C1092 C1093 1.363 . S
C1092 C1098 1.379 . S
C1092 N1100 1.356 . S
C1093 C1092 1.363 . S
C1093 C1099 1.363 . S
C1094 C1095 1.363 . S
C1094 C1099 1.379 . S
C1094 N1101 1.356 . S
C1095 C1094 1.363 . S
C1095 C1098 1.363 . S
N1096 C1098 1.356 . S
N1096 H1108 0.984 . S
N1096 H1109 0.985 . S
N1097 C1099 1.356 . S
N1097 H1102 0.984 . S
N1097 H1103 0.985 . S
C1098 C1092 1.379 . S
C1098 C1095 1.363 . S
C1098 N1096 1.356 . S
C1099 C1093 1.363 . S
C1099 C1094 1.379 . S
C1099 N1097 1.356 . S
N1100 C1092 1.356 . S
N1100 H1106 0.984 . S
N1100 H1107 0.984 . S
N1101 C1094 1.356 . S
N1101 H1104 0.984 . S
N1101 H1105 0.985 . S
H1102 N1097 0.984 . S
H1103 N1097 0.985 . S
H1104 N1101 0.984 . S
H1105 N1101 0.985 . S
H1106 N1100 0.984 . S
H1107 N1100 0.984 . S
H1108 N1096 0.984 . S
H1109 N1096 0.985 . S
C1110 C1111 1.363 . S
C1110 C1116 1.379 . S
C1110 N1118 1.356 . S
C1111 C1110 1.363 . S
C1111 C1117 1.363 . S
C1112 C1113 1.363 . S
C1112 C1117 1.379 . S
C1112 N1119 1.356 . S
C1113 C1112 1.363 . S
C1113 C1116 1.363 . S
N1114 C1116 1.356 . S
N1114 H1126 0.984 . S
N1114 H1127 0.985 . S
N1115 C1117 1.356 . S
N1115 H1120 0.984 . S
N1115 H1121 0.985 . S
C1116 C1110 1.379 . S
C1116 C1113 1.363 . S
C1116 N1114 1.356 . S
C1117 C1111 1.363 . S
C1117 C1112 1.379 . S
C1117 N1115 1.356 . S
N1118 C1110 1.356 . S
N1118 H1124 0.984 . S
N1118 H1125 0.984 . S
N1119 C1112 1.356 . S
N1119 H1122 0.984 . S
N1119 H1123 0.985 . S
H1120 N1115 0.984 . S
H1121 N1115 0.985 . S
H1122 N1119 0.984 . S
H1123 N1119 0.985 . S
H1124 N1118 0.984 . S
H1125 N1118 0.984 . S
H1126 N1114 0.984 . S
H1127 N1114 0.985 . S
C481 C95 1.430 . S
C483 C19 1.365 . S
C499 C126 1.430 . S
C501 C50 1.365 . S
C517 C99 1.365 . S
C519 C175 1.430 . S
C535 C130 1.365 . S
C537 C206 1.430 . S
C553 C15 1.430 . S
C555 C179 1.365 . S
C571 C46 1.430 . S
C573 C210 1.365 . S
C589 C406 1.430 . S
C591 C250 1.365 . S
C607 C299 1.365 . S
C609 C455 1.430 . S
C625 C330 1.365 . S
C627 C246 1.430 . S
C643 C379 1.365 . S
C645 C295 1.430 . S
C661 C410 1.365 . S
C663 C326 1.430 . S
C679 C375 1.430 . S
C681 C459 1.365 . S
C697 C129 1.678 . S
C699 C18 1.678 . S
C715 C49 1.678 . S
C717 C178 1.678 . S
C733 C98 1.678 . S
C735 C209 1.678 . S
C751 C249 1.678 . S
C753 C378 1.678 . S
C769 C298 1.678 . S
C771 C409 1.678 . S
C787 C329 1.678 . S
C789 C458 1.678 . S
C805 C289 2.582 . S
C807 C9 2.582 . S
C823 C58 2.582 . S
C825 C338 2.582 . S
C841 C369 2.582 . S
C843 C89 2.582 . S
C859 C138 2.582 . S
C861 C418 2.582 . S
C877 C169 2.582 . S
C879 C449 2.582 . S
C895 C258 2.582 . S
C897 C218 2.582 . S
C913 C86 1.822 . S
C915 C10 1.852 . S
C931 C59 1.852 . S
C933 C135 1.822 . S
C949 C90 1.852 . S
C951 C166 1.822 . S
C967 C139 1.852 . S
C969 C215 1.822 . S
C985 C6 1.822 . S
C987 C170 1.852 . S
C1003 C55 1.822 . S
C1005 C219 1.852 . S
C1021 C415 1.822 . S
C1023 C259 1.852 . S
C1039 C290 1.852 . S
C1041 C446 1.822 . S
C1057 C339 1.852 . S
C1059 C255 1.822 . S
C1075 C286 1.822 . S
C1077 C370 1.852 . S
C1093 C419 1.852 . S
C1095 C335 1.822 . S
C1111 C450 1.852 . S
C1113 C366 1.822 . S
