# Generated by pormake.
# Topology unu, (4)-cn, num edge types: 1
# Building blocks:
#     Node 0, Type 0, BuildingBlock: NAHDIM_clean_sbu_0, # of connection points: 4
#     Node 1, Type 0, BuildingBlock: NAHDIM_clean_sbu_0, # of connection points: 4
#     Node 2, Type 0, BuildingBlock: NAHDIM_clean_sbu_0, # of connection points: 4
#     Node 3, Type 0, BuildingBlock: NAHDIM_clean_sbu_0, # of connection points: 4
#     Node 4, Type 0, BuildingBlock: NAHDIM_clean_sbu_0, # of connection points: 4
#     Node 5, Type 0, BuildingBlock: NAHDIM_clean_sbu_0, # of connection points: 4
#     Node 6, Type 0, BuildingBlock: NAHDIM_clean_sbu_0, # of connection points: 4
#     Node 7, Type 0, BuildingBlock: NAHDIM_clean_sbu_0, # of connection points: 4
#     Node 8, Type 0, BuildingBlock: NAHDIM_clean_sbu_0, # of connection points: 4
#     Node 9, Type 0, BuildingBlock: NAHDIM_clean_sbu_0, # of connection points: 4
#     Node 10, Type 0, BuildingBlock: NAHDIM_clean_sbu_0, # of connection points: 4
#     Node 11, Type 0, BuildingBlock: NAHDIM_clean_sbu_0, # of connection points: 4
#     Node 12, Type 0, BuildingBlock: NAHDIM_clean_sbu_0, # of connection points: 4
#     Node 13, Type 0, BuildingBlock: NAHDIM_clean_sbu_0, # of connection points: 4
#     Node 14, Type 0, BuildingBlock: NAHDIM_clean_sbu_0, # of connection points: 4
#     Node 15, Type 0, BuildingBlock: NAHDIM_clean_sbu_0, # of connection points: 4
#     Node 16, Type 0, BuildingBlock: NAHDIM_clean_sbu_0, # of connection points: 4
#     Node 17, Type 0, BuildingBlock: NAHDIM_clean_sbu_0, # of connection points: 4
#     Node 18, Type 0, BuildingBlock: NAHDIM_clean_sbu_0, # of connection points: 4
#     Node 19, Type 0, BuildingBlock: NAHDIM_clean_sbu_0, # of connection points: 4
#     Node 20, Type 0, BuildingBlock: NAHDIM_clean_sbu_0, # of connection points: 4
#     Node 21, Type 0, BuildingBlock: NAHDIM_clean_sbu_0, # of connection points: 4
#     Node 22, Type 0, BuildingBlock: NAHDIM_clean_sbu_0, # of connection points: 4
#     Node 23, Type 0, BuildingBlock: NAHDIM_clean_sbu_0, # of connection points: 4
#     Node 24, Type 0, BuildingBlock: NAHDIM_clean_sbu_0, # of connection points: 4
#     Node 25, Type 0, BuildingBlock: NAHDIM_clean_sbu_0, # of connection points: 4
#     Node 26, Type 0, BuildingBlock: NAHDIM_clean_sbu_0, # of connection points: 4
#     Node 27, Type 0, BuildingBlock: NAHDIM_clean_sbu_0, # of connection points: 4
#     Node 28, Type 0, BuildingBlock: NAHDIM_clean_sbu_0, # of connection points: 4
#     Node 29, Type 0, BuildingBlock: NAHDIM_clean_sbu_0, # of connection points: 4
#     Node 30, Type 0, BuildingBlock: NAHDIM_clean_sbu_0, # of connection points: 4
#     Node 31, Type 0, BuildingBlock: NAHDIM_clean_sbu_0, # of connection points: 4
#     Node 32, Type 0, BuildingBlock: NAHDIM_clean_sbu_0, # of connection points: 4
#     Node 33, Type 0, BuildingBlock: NAHDIM_clean_sbu_0, # of connection points: 4
#     Node 34, Type 0, BuildingBlock: NAHDIM_clean_sbu_0, # of connection points: 4
#     Node 35, Type 0, BuildingBlock: NAHDIM_clean_sbu_0, # of connection points: 4
#     Edge 36, Type (0, 0), BuildingBlock: OJICUG_clean_linker_0, # of connection points: 2
#     Edge 37, Type (0, 0), BuildingBlock: OJICUG_clean_linker_0, # of connection points: 2
#     Edge 38, Type (0, 0), BuildingBlock: OJICUG_clean_linker_0, # of connection points: 2
#     Edge 39, Type (0, 0), BuildingBlock: OJICUG_clean_linker_0, # of connection points: 2
#     Edge 40, Type (0, 0), BuildingBlock: OJICUG_clean_linker_0, # of connection points: 2
#     Edge 41, Type (0, 0), BuildingBlock: OJICUG_clean_linker_0, # of connection points: 2
#     Edge 42, Type (0, 0), BuildingBlock: OJICUG_clean_linker_0, # of connection points: 2
#     Edge 43, Type (0, 0), BuildingBlock: OJICUG_clean_linker_0, # of connection points: 2
#     Edge 44, Type (0, 0), BuildingBlock: OJICUG_clean_linker_0, # of connection points: 2
#     Edge 45, Type (0, 0), BuildingBlock: OJICUG_clean_linker_0, # of connection points: 2
#     Edge 46, Type (0, 0), BuildingBlock: OJICUG_clean_linker_0, # of connection points: 2
#     Edge 47, Type (0, 0), BuildingBlock: OJICUG_clean_linker_0, # of connection points: 2
#     Edge 48, Type (0, 0), BuildingBlock: OJICUG_clean_linker_0, # of connection points: 2
#     Edge 49, Type (0, 0), BuildingBlock: OJICUG_clean_linker_0, # of connection points: 2
#     Edge 50, Type (0, 0), BuildingBlock: OJICUG_clean_linker_0, # of connection points: 2
#     Edge 51, Type (0, 0), BuildingBlock: OJICUG_clean_linker_0, # of connection points: 2
#     Edge 52, Type (0, 0), BuildingBlock: OJICUG_clean_linker_0, # of connection points: 2
#     Edge 53, Type (0, 0), BuildingBlock: OJICUG_clean_linker_0, # of connection points: 2
#     Edge 54, Type (0, 0), BuildingBlock: OJICUG_clean_linker_0, # of connection points: 2
#     Edge 55, Type (0, 0), BuildingBlock: OJICUG_clean_linker_0, # of connection points: 2
#     Edge 56, Type (0, 0), BuildingBlock: OJICUG_clean_linker_0, # of connection points: 2
#     Edge 57, Type (0, 0), BuildingBlock: OJICUG_clean_linker_0, # of connection points: 2
#     Edge 58, Type (0, 0), BuildingBlock: OJICUG_clean_linker_0, # of connection points: 2
#     Edge 59, Type (0, 0), BuildingBlock: OJICUG_clean_linker_0, # of connection points: 2
#     Edge 60, Type (0, 0), BuildingBlock: OJICUG_clean_linker_0, # of connection points: 2
#     Edge 61, Type (0, 0), BuildingBlock: OJICUG_clean_linker_0, # of connection points: 2
#     Edge 62, Type (0, 0), BuildingBlock: OJICUG_clean_linker_0, # of connection points: 2
#     Edge 63, Type (0, 0), BuildingBlock: OJICUG_clean_linker_0, # of connection points: 2
#     Edge 64, Type (0, 0), BuildingBlock: OJICUG_clean_linker_0, # of connection points: 2
#     Edge 65, Type (0, 0), BuildingBlock: OJICUG_clean_linker_0, # of connection points: 2
#     Edge 66, Type (0, 0), BuildingBlock: OJICUG_clean_linker_0, # of connection points: 2
#     Edge 67, Type (0, 0), BuildingBlock: OJICUG_clean_linker_0, # of connection points: 2
#     Edge 68, Type (0, 0), BuildingBlock: OJICUG_clean_linker_0, # of connection points: 2
#     Edge 69, Type (0, 0), BuildingBlock: OJICUG_clean_linker_0, # of connection points: 2
#     Edge 70, Type (0, 0), BuildingBlock: OJICUG_clean_linker_0, # of connection points: 2
#     Edge 71, Type (0, 0), BuildingBlock: OJICUG_clean_linker_0, # of connection points: 2
#     Edge 72, Type (0, 0), BuildingBlock: OJICUG_clean_linker_0, # of connection points: 2
#     Edge 73, Type (0, 0), BuildingBlock: OJICUG_clean_linker_0, # of connection points: 2
#     Edge 74, Type (0, 0), BuildingBlock: OJICUG_clean_linker_0, # of connection points: 2
#     Edge 75, Type (0, 0), BuildingBlock: OJICUG_clean_linker_0, # of connection points: 2
#     Edge 76, Type (0, 0), BuildingBlock: OJICUG_clean_linker_0, # of connection points: 2
#     Edge 77, Type (0, 0), BuildingBlock: OJICUG_clean_linker_0, # of connection points: 2
#     Edge 78, Type (0, 0), BuildingBlock: OJICUG_clean_linker_0, # of connection points: 2
#     Edge 79, Type (0, 0), BuildingBlock: OJICUG_clean_linker_0, # of connection points: 2
#     Edge 80, Type (0, 0), BuildingBlock: OJICUG_clean_linker_0, # of connection points: 2
#     Edge 81, Type (0, 0), BuildingBlock: OJICUG_clean_linker_0, # of connection points: 2
#     Edge 82, Type (0, 0), BuildingBlock: OJICUG_clean_linker_0, # of connection points: 2
#     Edge 83, Type (0, 0), BuildingBlock: OJICUG_clean_linker_0, # of connection points: 2
#     Edge 84, Type (0, 0), BuildingBlock: OJICUG_clean_linker_0, # of connection points: 2
#     Edge 85, Type (0, 0), BuildingBlock: OJICUG_clean_linker_0, # of connection points: 2
#     Edge 86, Type (0, 0), BuildingBlock: OJICUG_clean_linker_0, # of connection points: 2
#     Edge 87, Type (0, 0), BuildingBlock: OJICUG_clean_linker_0, # of connection points: 2
#     Edge 88, Type (0, 0), BuildingBlock: OJICUG_clean_linker_0, # of connection points: 2
#     Edge 89, Type (0, 0), BuildingBlock: OJICUG_clean_linker_0, # of connection points: 2
#     Edge 90, Type (0, 0), BuildingBlock: OJICUG_clean_linker_0, # of connection points: 2
#     Edge 91, Type (0, 0), BuildingBlock: OJICUG_clean_linker_0, # of connection points: 2
#     Edge 92, Type (0, 0), BuildingBlock: OJICUG_clean_linker_0, # of connection points: 2
#     Edge 93, Type (0, 0), BuildingBlock: OJICUG_clean_linker_0, # of connection points: 2
#     Edge 94, Type (0, 0), BuildingBlock: OJICUG_clean_linker_0, # of connection points: 2
#     Edge 95, Type (0, 0), BuildingBlock: OJICUG_clean_linker_0, # of connection points: 2
#     Edge 96, Type (0, 0), BuildingBlock: OJICUG_clean_linker_0, # of connection points: 2
#     Edge 97, Type (0, 0), BuildingBlock: OJICUG_clean_linker_0, # of connection points: 2
#     Edge 98, Type (0, 0), BuildingBlock: OJICUG_clean_linker_0, # of connection points: 2
#     Edge 99, Type (0, 0), BuildingBlock: OJICUG_clean_linker_0, # of connection points: 2
#     Edge 100, Type (0, 0), BuildingBlock: OJICUG_clean_linker_0, # of connection points: 2
#     Edge 101, Type (0, 0), BuildingBlock: OJICUG_clean_linker_0, # of connection points: 2
#     Edge 102, Type (0, 0), BuildingBlock: OJICUG_clean_linker_0, # of connection points: 2
#     Edge 103, Type (0, 0), BuildingBlock: OJICUG_clean_linker_0, # of connection points: 2
#     Edge 104, Type (0, 0), BuildingBlock: OJICUG_clean_linker_0, # of connection points: 2
#     Edge 105, Type (0, 0), BuildingBlock: OJICUG_clean_linker_0, # of connection points: 2
#     Edge 106, Type (0, 0), BuildingBlock: OJICUG_clean_linker_0, # of connection points: 2
#     Edge 107, Type (0, 0), BuildingBlock: OJICUG_clean_linker_0, # of connection points: 2
# Relax obj value: 0.298
# Max RMSD: 0.283
# Mean RMSD: 0.283
data_MOF--net-unu--node1-NAHDIM_clean_sbu_0--edge1-OJICUG_clean_linker_0
_symmetry_space_group_name_H-M    P1
_symmetry_Int_Tables_number       1
_symmetry_cell_setting            triclinic
loop_
_symmetry_equiv_pos_as_xyz
'x, y, z'
_cell_length_a     29.268172
_cell_length_b     29.041375
_cell_length_c     92.129778
_cell_angle_alpha  89.959166
_cell_angle_beta   89.822298
_cell_angle_gamma 120.0272
loop_
_atom_site_label
_atom_site_type_symbol
_atom_site_fract_x
_atom_site_fract_y
_atom_site_fract_z
_atom_type_partial_charge
C0 C 0.33112 0.09232 0.09766 0.0
O1 O 0.32242 0.07448 0.11107 0.0
O2 O 0.18078 0.01644 0.10053 0.0
Zn3 Zn 0.23687 0.09202 0.10408 0.0
O4 O 0.25621 0.10288 0.12513 0.0
C5 C 0.16892 0.13011 0.10889 0.0
O6 O 0.16095 0.09811 0.1199 0.0
O7 O 0.30027 0.10635 0.09204 0.0
C8 C 0.28883 0.14978 0.12922 0.0
O9 O 0.30952 0.18812 0.11951 0.0
C10 C 0.17572 0.97618 0.10739 0.0
O11 O 0.20931 0.98277 0.11771 0.0
O12 O 0.20354 0.13673 0.09943 0.0
C13 C 0.9291 0.26331 0.09299 0.0
O14 O 0.93893 0.27421 0.10686 0.0
O15 O 0.97387 0.17364 0.10931 0.0
Zn16 Zn 0.90231 0.16392 0.10457 0.0
O17 O 0.87132 0.17847 0.12222 0.0
C18 C 0.87511 0.06598 0.09047 0.0
O19 O 0.91792 0.09756 0.08302 0.0
O20 O 0.91042 0.21547 0.08882 0.0
C21 C 0.84975 0.14404 0.13223 0.0
O22 O 0.84829 0.09823 0.13106 0.0
C23 C 0.01175 0.19112 0.1002 0.0
O24 O 0.0062 0.20806 0.08747 0.0
O25 O 0.85717 0.08647 0.09937 0.0
C26 C 0.76285 0.68991 0.08969 0.0
O27 O 0.75126 0.69658 0.10302 0.0
O28 O 0.86016 0.8381 0.09548 0.0
Zn29 Zn 0.86306 0.77126 0.09903 0.0
O30 O 0.84581 0.74784 0.11989 0.0
C31 C 0.97036 0.79299 0.1041 0.0
O32 O 0.95102 0.76754 0.11638 0.0
O33 O 0.8106 0.71609 0.08544 0.0
C34 C 0.83718 0.70208 0.1237 0.0
O35 O 0.83865 0.67021 0.11382 0.0
C36 C 0.82566 0.84968 0.0996 0.0
O37 O 0.78568 0.81576 0.10762 0.0
O38 O 0.93904 0.79373 0.09468 0.0
C39 C 0.09382 0.31538 0.39027 0.0
O40 O 0.07865 0.31167 0.37672 0.0
O41 O 0.03565 0.16501 0.38354 0.0
Zn42 Zn 0.10749 0.22955 0.38098 0.0
O43 O 0.11593 0.25419 0.36021 0.0
C44 C 0.19105 0.20415 0.37623 0.0
O45 O 0.19892 0.23091 0.3641 0.0
O46 O 0.11114 0.28546 0.39471 0.0
C47 C 0.15345 0.29931 0.35621 0.0
O48 O 0.18767 0.33091 0.36589 0.0
C49 C 0.99284 0.15965 0.37855 0.0
O50 O 0.99384 0.19849 0.37098 0.0
O51 O 0.15805 0.20302 0.38545 0.0
C52 C 0.69427 0.73663 0.38952 0.0
O53 O 0.69822 0.7257 0.37589 0.0
O54 O 0.83307 0.81871 0.37679 0.0
Zn55 Zn 0.77545 0.83584 0.37963 0.0
O56 O 0.74184 0.82845 0.36024 0.0
C57 C 0.81112 0.94938 0.37908 0.0
O58 O 0.77781 0.93667 0.36829 0.0
O59 O 0.7233 0.78399 0.394 0.0
C60 C 0.69799 0.82674 0.3586 0.0
O61 O 0.67259 0.82946 0.37005 0.0
C62 C 0.85916 0.81579 0.38739 0.0
O63 O 0.84544 0.82026 0.40068 0.0
O64 O 0.81297 0.91262 0.38612 0.0
C65 C 0.27532 0.91575 0.38451 0.0
O66 O 0.2844 0.9352 0.37126 0.0
O67 O 0.19425 0.98648 0.38173 0.0
Zn68 Zn 0.17882 0.91159 0.37861 0.0
O69 O 0.18509 0.89885 0.35745 0.0
C70 C 0.0704 0.86432 0.37538 0.0
O71 O 0.08888 0.89044 0.36314 0.0
O72 O 0.23024 0.90011 0.3902 0.0
C73 C 0.16498 0.85117 0.35307 0.0
O74 O 0.14314 0.81226 0.36259 0.0
C75 C 0.22542 0.02666 0.37414 0.0
O76 O 0.25181 0.02084 0.36343 0.0
O77 O 0.10278 0.86525 0.38472 0.0
C78 C 0.66498 0.91578 0.88356 0.0
O79 O 0.67531 0.93652 0.87046 0.0
O80 O 0.81167 0.97484 0.87867 0.0
Zn81 Zn 0.75025 0.90129 0.87566 0.0
O82 O 0.72927 0.89096 0.85464 0.0
C83 C 0.77576 0.81637 0.87271 0.0
O84 O 0.74598 0.80342 0.8611 0.0
O85 O 0.69098 0.8946 0.88831 0.0
C86 C 0.68436 0.85304 0.8509 0.0
O87 O 0.65165 0.82161 0.86096 0.0
C88 C 0.81987 0.01697 0.87221 0.0
O89 O 0.78607 0.01437 0.86244 0.0
O90 O 0.77859 0.8527 0.88102 0.0
C91 C 0.05127 0.72639 0.88434 0.0
O92 O 0.03197 0.71572 0.87113 0.0
O93 O 0.99331 0.81513 0.87818 0.0
Zn94 Zn 0.06698 0.82741 0.87612 0.0
O95 O 0.08193 0.81897 0.85529 0.0
C96 C 0.1506 0.93894 0.87432 0.0
O97 O 0.16587 0.92363 0.86279 0.0
O98 O 0.07191 0.77393 0.88896 0.0
C99 C 0.1208 0.81291 0.85201 0.0
O100 O 0.14991 0.81031 0.86246 0.0
C101 C 0.95275 0.78247 0.8711 0.0
O102 O 0.95694 0.75218 0.86122 0.0
O103 O 0.11336 0.90415 0.88215 0.0
C104 C 0.23775 0.30684 0.8872 0.0
O105 O 0.24848 0.30025 0.87376 0.0
O106 O 0.14963 0.15836 0.88057 0.0
Zn107 Zn 0.13898 0.22129 0.87857 0.0
O108 O 0.15112 0.24664 0.85783 0.0
C109 C 0.02943 0.19615 0.87569 0.0
O110 O 0.04697 0.22803 0.8644 0.0
O111 O 0.19087 0.27826 0.89194 0.0
C112 C 0.15787 0.29219 0.85459 0.0
O113 O 0.15793 0.32311 0.86501 0.0
C114 C 0.18394 0.1513 0.87405 0.0
O115 O 0.21698 0.18769 0.86495 0.0
O116 O 0.06222 0.19204 0.88385 0.0
C117 C 0.91777 0.68088 0.59402 0.0
O118 O 0.93177 0.68389 0.60767 0.0
O119 O 0.97297 0.83514 0.59907 0.0
Zn120 Zn 0.90515 0.76727 0.60318 0.0
O121 O 0.90056 0.74401 0.6239 0.0
C122 C 0.85482 0.82033 0.59104 0.0
O123 O 0.89136 0.83244 0.58108 0.0
O124 O 0.90128 0.71136 0.58948 0.0
C125 C 0.85554 0.70714 0.62807 0.0
O126 O 0.81654 0.68672 0.61871 0.0
C127 C 0.01976 0.84993 0.60311 0.0
O128 O 0.02877 0.81878 0.6115 0.0
O129 O 0.8485 0.78647 0.60072 0.0
C130 C 0.32536 0.2689 0.59652 0.0
O131 O 0.32197 0.28027 0.61013 0.0
O132 O 0.17609 0.18258 0.60395 0.0
Zn133 Zn 0.23819 0.17116 0.60574 0.0
O134 O 0.26498 0.18388 0.62616 0.0
C135 C 0.1732 0.06969 0.59261 0.0
O136 O 0.15916 0.09799 0.58461 0.0
O137 O 0.2945 0.22195 0.59199 0.0
C138 C 0.29692 0.1681 0.62959 0.0
O139 O 0.31158 0.14572 0.61962 0.0
C140 C 0.17025 0.21851 0.61006 0.0
O141 O 0.20721 0.2527 0.61873 0.0
O142 O 0.21069 0.09354 0.60158 0.0
C143 C 0.74983 0.08403 0.59996 0.0
O144 O 0.74195 0.05935 0.61246 0.0
O145 O 0.84043 0.02986 0.6013 0.0
Zn146 Zn 0.85081 0.1018 0.60632 0.0
O147 O 0.84095 0.10862 0.62769 0.0
C148 C 0.96059 0.18725 0.60926 0.0
O149 O 0.94422 0.19878 0.62126 0.0
O150 O 0.79652 0.10941 0.59484 0.0
C151 C 0.83341 0.14613 0.63176 0.0
O152 O 0.83136 0.17781 0.62192 0.0
C153 C 0.81046 0.9847 0.60703 0.0
O154 O 0.78096 0.98093 0.61825 0.0
O155 O 0.92694 0.15211 0.60078 0.0
C156 C 0.00318 0.39867 0.42999 0.0
O157 O 0.99097 0.37665 0.44294 0.0
O158 O 0.85894 0.33861 0.43391 0.0
Zn159 Zn 0.91819 0.41288 0.43756 0.0
O160 O 0.93801 0.4258 0.45867 0.0
C161 C 0.8903 0.49675 0.43915 0.0
O162 O 0.92346 0.51528 0.45003 0.0
O163 O 0.97872 0.42145 0.42522 0.0
C164 C 0.98238 0.46552 0.46202 0.0
O165 O 0.01464 0.49479 0.45159 0.0
C166 C 0.84305 0.29597 0.44112 0.0
O167 O 0.8668 0.29676 0.45327 0.0
O168 O 0.88706 0.45837 0.43169 0.0
C169 C 0.60132 0.56555 0.43075 0.0
O170 O 0.61306 0.57743 0.44449 0.0
O171 O 0.66378 0.4793 0.43901 0.0
Zn172 Zn 0.59084 0.46877 0.44099 0.0
O173 O 0.57815 0.4852 0.46122 0.0
C174 C 0.5537 0.36725 0.42808 0.0
O175 O 0.59374 0.39604 0.41938 0.0
O176 O 0.58618 0.51835 0.42655 0.0
C177 C 0.53231 0.47694 0.46429 0.0
O178 O 0.49598 0.45862 0.45415 0.0
C179 C 0.7069 0.51966 0.44283 0.0
O180 O 0.70624 0.55941 0.44942 0.0
O181 O 0.54106 0.39077 0.43753 0.0
C182 C 0.44723 0.97392 0.42328 0.0
O183 O 0.43754 0.95883 0.43692 0.0
O184 O 0.52886 0.13521 0.43263 0.0
Zn185 Zn 0.53207 0.06838 0.43591 0.0
O186 O 0.50369 0.03616 0.45542 0.0
C187 C 0.63755 0.12559 0.42585 0.0
O188 O 0.61385 0.13516 0.41515 0.0
O189 O 0.48876 0.01741 0.42013 0.0
C190 C 0.52824 0.05799 0.46701 0.0
O191 O 0.57157 0.10461 0.46629 0.0
C192 C 0.49794 0.14954 0.43802 0.0
O193 O 0.4617 0.11858 0.44744 0.0
O194 O 0.60937 0.09204 0.43551 0.0
C195 C 0.75263 0.66328 0.72022 0.0
O196 O 0.73924 0.65787 0.70647 0.0
O197 O 0.69892 0.51014 0.71686 0.0
Zn198 Zn 0.76759 0.577 0.71274 0.0
O199 O 0.77443 0.59789 0.69175 0.0
C200 C 0.81502 0.52509 0.72702 0.0
O201 O 0.7781 0.51628 0.73659 0.0
O202 O 0.77004 0.6345 0.72548 0.0
C203 C 0.81985 0.63381 0.68753 0.0
O204 O 0.85852 0.65479 0.69698 0.0
C205 C 0.6519 0.49845 0.71402 0.0
O206 O 0.64314 0.53226 0.70679 0.0
O207 O 0.82301 0.55704 0.71663 0.0
C208 C 0.33514 0.085 0.72116 0.0
O209 O 0.33681 0.07552 0.70729 0.0
O210 O 0.48706 0.1685 0.71514 0.0
Zn211 Zn 0.4261 0.18142 0.71276 0.0
O212 O 0.40145 0.17014 0.69211 0.0
C213 C 0.49236 0.28215 0.72599 0.0
O214 O 0.50505 0.25292 0.73405 0.0
O215 O 0.36822 0.13055 0.72614 0.0
C216 C 0.37041 0.18692 0.68857 0.0
O217 O 0.35565 0.20927 0.69852 0.0
C218 C 0.49074 0.12916 0.71063 0.0
O219 O 0.45213 0.0917 0.70304 0.0
O220 O 0.4547 0.25912 0.71702 0.0
C221 C 0.90626 0.24862 0.72497 0.0
O222 O 0.91533 0.26976 0.71193 0.0
O223 O 0.82019 0.30886 0.7218 0.0
Zn224 Zn 0.80726 0.23524 0.7178 0.0
O225 O 0.81737 0.22579 0.69662 0.0
C226 C 0.69662 0.15179 0.71489 0.0
O227 O 0.71308 0.13664 0.70357 0.0
O228 O 0.85954 0.22688 0.73007 0.0
C229 C 0.82368 0.18739 0.69266 0.0
O230 O 0.82468 0.15534 0.70257 0.0
C231 C 0.85234 0.35265 0.71572 0.0
O232 O 0.88236 0.35317 0.70502 0.0
O233 O 0.73035 0.18798 0.72311 0.0
C234 C 0.32371 0.25711 0.22282 0.0
O235 O 0.3275 0.27254 0.20925 0.0
O236 O 0.46942 0.327 0.21503 0.0
Zn237 Zn 0.4123 0.25057 0.21363 0.0
O238 O 0.38651 0.23551 0.19309 0.0
C239 C 0.44596 0.17135 0.21081 0.0
O240 O 0.41317 0.15356 0.19983 0.0
O241 O 0.35481 0.2416 0.22736 0.0
C242 C 0.34357 0.19424 0.18966 0.0
O243 O 0.31456 0.16035 0.19984 0.0
C244 C 0.47278 0.36464 0.20721 0.0
O245 O 0.43662 0.35445 0.19735 0.0
O246 O 0.4481 0.20843 0.21867 0.0
C247 C 0.72494 0.08853 0.22596 0.0
O248 O 0.71421 0.07472 0.21228 0.0
O249 O 0.66755 0.17637 0.21415 0.0
Zn250 Zn 0.73959 0.18393 0.21373 0.0
O251 O 0.75505 0.16254 0.19444 0.0
C252 C 0.77675 0.28745 0.225 0.0
O253 O 0.73617 0.26026 0.23367 0.0
O254 O 0.74061 0.13649 0.22951 0.0
C255 C 0.76976 0.19396 0.18364 0.0
O256 O 0.77258 0.24036 0.18496 0.0
C257 C 0.62445 0.13886 0.20924 0.0
O258 O 0.62407 0.09904 0.20238 0.0
O259 O 0.79027 0.26218 0.21639 0.0
C260 C 0.88766 0.6613 0.21724 0.0
O261 O 0.89772 0.64949 0.20429 0.0
O262 O 0.79311 0.51331 0.21424 0.0
Zn263 Zn 0.78717 0.57766 0.20943 0.0
O264 O 0.80136 0.59714 0.18825 0.0
C265 C 0.67781 0.54939 0.20488 0.0
O266 O 0.69436 0.56931 0.19186 0.0
O267 O 0.84034 0.63701 0.2219 0.0
C268 C 0.80777 0.64191 0.18425 0.0
O269 O 0.80559 0.67364 0.19404 0.0
C270 C 0.82531 0.49927 0.20968 0.0
O271 O 0.86111 0.52851 0.19995 0.0
O272 O 0.71137 0.55413 0.21437 0.0
C273 C 0.56443 0.9881 0.92358 0.0
O274 O 0.57332 0.98586 0.93746 0.0
O275 O 0.62376 0.13066 0.93623 0.0
Zn276 Zn 0.54918 0.06905 0.93481 0.0
O277 O 0.52396 0.02913 0.95363 0.0
C278 C 0.52439 0.1433 0.92251 0.0
O279 O 0.5684 0.15642 0.91548 0.0
O280 O 0.54974 0.02042 0.91938 0.0
C281 C 0.50856 0.04696 0.96398 0.0
O282 O 0.51078 0.09302 0.96244 0.0
C283 C 0.65337 0.14566 0.94731 0.0
O284 O 0.63641 0.11833 0.95944 0.0
O285 O 0.50427 0.10198 0.93047 0.0
C286 C 0.97285 0.55786 0.92609 0.0
O287 O 0.97518 0.57247 0.93967 0.0
O288 O 0.82566 0.4846 0.93523 0.0
Zn289 Zn 0.88349 0.46749 0.93777 0.0
O290 O 0.91533 0.48862 0.95765 0.0
C291 C 0.82734 0.36046 0.94731 0.0
O292 O 0.83409 0.38593 0.9596 0.0
O293 O 0.93796 0.51089 0.92249 0.0
C294 C 0.95191 0.47925 0.96106 0.0
O295 O 0.96783 0.45673 0.95148 0.0
C296 C 0.82556 0.52596 0.93966 0.0
O297 O 0.86554 0.56165 0.94725 0.0
O298 O 0.84793 0.38724 0.93577 0.0
C299 C 0.41287 0.40484 0.92616 0.0
O300 O 0.40421 0.38905 0.93976 0.0
O301 O 0.51128 0.35586 0.93134 0.0
Zn302 Zn 0.51526 0.42651 0.93403 0.0
O303 O 0.50502 0.44008 0.95488 0.0
C304 C 0.62451 0.51281 0.93633 0.0
O305 O 0.60881 0.52483 0.94837 0.0
O306 O 0.45966 0.42604 0.92115 0.0
C307 C 0.49849 0.47928 0.95769 0.0
O308 O 0.49608 0.50754 0.94688 0.0
C309 C 0.47498 0.30861 0.93408 0.0
O310 O 0.43131 0.30017 0.9405 0.0
O311 O 0.59029 0.47794 0.92791 0.0
C312 C 0.65396 0.74396 0.75809 0.0
O313 O 0.64655 0.72724 0.7716 0.0
O314 O 0.50631 0.67869 0.76388 0.0
Zn315 Zn 0.56577 0.75409 0.7657 0.0
O316 O 0.58812 0.76878 0.78658 0.0
C317 C 0.5363 0.8364 0.76748 0.0
O318 O 0.56931 0.85428 0.77841 0.0
O319 O 0.625 0.76114 0.75291 0.0
C320 C 0.63225 0.80812 0.79025 0.0
O321 O 0.66461 0.83951 0.78013 0.0
C322 C 0.50121 0.6393 0.77121 0.0
O323 O 0.53723 0.64658 0.78083 0.0
O324 O 0.53328 0.7985 0.75983 0.0
C325 C 0.248 0.90731 0.76004 0.0
O326 O 0.264 0.91653 0.77358 0.0
O327 O 0.31065 0.82183 0.76547 0.0
Zn328 Zn 0.23638 0.80766 0.76776 0.0
O329 O 0.2212 0.81516 0.78868 0.0
C330 C 0.1543 0.69544 0.76948 0.0
O331 O 0.13644 0.71037 0.78053 0.0
O332 O 0.2303 0.86069 0.75496 0.0
C333 C 0.18144 0.81968 0.79199 0.0
O334 O 0.15176 0.82136 0.78157 0.0
C335 C 0.35256 0.85888 0.77108 0.0
O336 O 0.34983 0.89317 0.77981 0.0
O337 O 0.19184 0.73064 0.76182 0.0
C338 C 0.0844 0.33348 0.76269 0.0
O339 O 0.07535 0.33818 0.77643 0.0
O340 O 0.171 0.4839 0.76803 0.0
Zn341 Zn 0.18345 0.42222 0.77032 0.0
O342 O 0.17406 0.39876 0.79121 0.0
C343 C 0.29491 0.45436 0.77268 0.0
O344 O 0.28048 0.42826 0.78502 0.0
O345 O 0.13032 0.3638 0.75751 0.0
C346 C 0.17067 0.35466 0.79453 0.0
O347 O 0.17245 0.32458 0.78414 0.0
C348 C 0.13259 0.48801 0.77294 0.0
O349 O 0.09607 0.44937 0.78084 0.0
O350 O 0.2597 0.45245 0.76422 0.0
C351 C 0.44043 0.02454 0.05972 0.0
O352 O 0.43852 0.03124 0.04569 0.0
O353 O 0.36926 0.86597 0.05337 0.0
Zn354 Zn 0.44016 0.93084 0.04997 0.0
O355 O 0.44694 0.95838 0.02963 0.0
C356 C 0.52682 0.91003 0.04408 0.0
O357 O 0.5398 0.94474 0.03349 0.0
O358 O 0.44588 0.98612 0.06424 0.0
C359 C 0.44184 0.93199 0.01818 0.0
O360 O 0.42989 0.88206 0.01924 0.0
C361 C 0.32512 0.85252 0.0475 0.0
O362 O 0.32203 0.88333 0.03757 0.0
O363 O 0.49099 0.90388 0.05304 0.0
C364 C 0.02161 0.43543 0.05186 0.0
O365 O 0.02487 0.4244 0.0382 0.0
O366 O 0.16968 0.52755 0.04413 0.0
Zn367 Zn 0.10527 0.53468 0.04232 0.0
O368 O 0.07789 0.51859 0.022 0.0
C369 C 0.1634 0.63498 0.05616 0.0
O370 O 0.17394 0.60605 0.06502 0.0
O371 O 0.05102 0.48277 0.05633 0.0
C372 C 0.04171 0.52845 0.01853 0.0
O373 O 0.02404 0.54868 0.02831 0.0
C374 C 0.17556 0.48993 0.03927 0.0
O375 O 0.13712 0.45106 0.03199 0.0
O376 O 0.12972 0.61173 0.04618 0.0
C377 C 0.59449 0.6168 0.04881 0.0
O378 O 0.60676 0.63626 0.03558 0.0
O379 O 0.5155 0.68445 0.04254 0.0
Zn380 Zn 0.49808 0.60842 0.04027 0.0
O381 O 0.50498 0.59098 0.01952 0.0
C382 C 0.38664 0.52456 0.03975 0.0
O383 O 0.40084 0.5035 0.02932 0.0
O384 O 0.54746 0.5988 0.05332 0.0
C385 C 0.50894 0.55021 0.01677 0.0
O386 O 0.51085 0.52179 0.02761 0.0
C387 C 0.54791 0.72571 0.03549 0.0
O388 O 0.57522 0.72147 0.02476 0.0
O389 O 0.42172 0.56542 0.04635 0.0
C390 C 0.00907 0.59933 0.55386 0.0
O391 O 0.01573 0.61661 0.54041 0.0
O392 O 0.15675 0.66471 0.54813 0.0
Zn393 Zn 0.0972 0.58947 0.54576 0.0
O394 O 0.07469 0.57361 0.52489 0.0
C395 C 0.12672 0.50675 0.54441 0.0
O396 O 0.09344 0.4876 0.53356 0.0
O397 O 0.03808 0.58165 0.55866 0.0
C398 C 0.03073 0.53304 0.5217 0.0
O399 O -0.00076 0.50345 0.53221 0.0
C400 C 0.16225 0.70763 0.54284 0.0
O401 O 0.12604 0.70599 0.53413 0.0
O402 O 0.12977 0.54532 0.55174 0.0
C403 C 0.41541 0.4389 0.55501 0.0
O404 O 0.40244 0.4264 0.54135 0.0
O405 O 0.35308 0.52364 0.54607 0.0
Zn406 Zn 0.42655 0.53551 0.54441 0.0
O407 O 0.44035 0.5179 0.52434 0.0
C408 C 0.49227 0.64674 0.53786 0.0
O409 O 0.48663 0.62807 0.52461 0.0
O410 O 0.43114 0.48638 0.55909 0.0
C411 C 0.48465 0.52151 0.52169 0.0
O412 O 0.51981 0.53659 0.53211 0.0
C413 C 0.31048 0.48414 0.54159 0.0
O414 O 0.31201 0.44581 0.53444 0.0
O415 O 0.47347 0.61416 0.54844 0.0
C416 C 0.57207 0.01019 0.56221 0.0
O417 O 0.58174 0.01563 0.5482 0.0
O418 O 0.49232 0.86317 0.55048 0.0
Zn419 Zn 0.4776 0.92378 0.55158 0.0
O420 O 0.49157 0.96152 0.5324 0.0
C421 C 0.36617 0.89451 0.54972 0.0
O422 O 0.38226 0.93336 0.54022 0.0
O423 O 0.5269 0.97418 0.56665 0.0
C424 C 0.46989 0.93857 0.52061 0.0
O425 O 0.43603 0.88722 0.52066 0.0
C426 C 0.52255 0.85751 0.54165 0.0
O427 O 0.5487 0.89432 0.53181 0.0
O428 O 0.40019 0.88817 0.55664 0.0
C429 C 0.23691 0.34398 0.26262 0.0
O430 O 0.25705 0.35443 0.27574 0.0
O431 O 0.2864 0.49246 0.26655 0.0
Zn432 Zn 0.21716 0.42647 0.27066 0.0
O433 O 0.21221 0.40611 0.29173 0.0
C434 C 0.13391 0.45187 0.27547 0.0
O435 O 0.13175 0.43241 0.28848 0.0
O436 O 0.21428 0.36872 0.25793 0.0
C437 C 0.17518 0.36091 0.29585 0.0
O438 O 0.14114 0.32873 0.28622 0.0
C439 C 0.3314 0.50555 0.27176 0.0
O440 O 0.33596 0.47399 0.28113 0.0
O441 O 0.16325 0.44822 0.26586 0.0
C442 C 0.63322 0.92227 0.2687 0.0
O443 O 0.62839 0.93418 0.28217 0.0
O444 O 0.49018 0.83119 0.2801 0.0
Zn445 Zn 0.55358 0.82207 0.27881 0.0
O446 O 0.58501 0.83309 0.29856 0.0
C447 C 0.49281 0.72341 0.26365 0.0
O448 O 0.48293 0.75341 0.25504 0.0
O449 O 0.60559 0.87432 0.26453 0.0
C450 C 0.62134 0.82217 0.30069 0.0
O451 O 0.63896 0.80663 0.2897 0.0
C452 C 0.4728 0.84741 0.26983 0.0
O453 O 0.49916 0.86296 0.25755 0.0
O454 O 0.52619 0.74531 0.27377 0.0
C455 C 0.05812 0.74654 0.25749 0.0
O456 O 0.04657 0.73731 0.27136 0.0
O457 O 0.13229 0.66768 0.2652 0.0
Zn458 Zn 0.14864 0.74334 0.26704 0.0
O459 O 0.13601 0.75767 0.28757 0.0
C460 C 0.25309 0.78329 0.27339 0.0
O461 O 0.22739 0.75194 0.28437 0.0
O462 O 0.10257 0.75424 0.25302 0.0
C463 C 0.15731 0.80552 0.29187 0.0
O464 O 0.18355 0.84418 0.2825 0.0
C465 C 0.10023 0.62942 0.27323 0.0
O466 O 0.07397 0.6382 0.2834 0.0
O467 O 0.22676 0.78836 0.26317 0.0
C468 C 0.34315 0.21145 0.14901 0.0
C469 C 0.30244 0.16121 0.14469 0.0
H470 H 0.38804 0.26128 0.16662 0.0
C471 C 0.27456 0.12216 0.15531 0.0
H472 H 0.36529 0.24237 0.14108 0.0
C473 C 0.2873 0.13313 0.16997 0.0
C474 C 0.32845 0.18317 0.17426 0.0
H475 H 0.24278 0.08312 0.15231 0.0
H476 H 0.26534 0.10217 0.1779 0.0
C477 C 0.35617 0.22226 0.16364 0.0
C478 C 0.78526 0.13071 0.16886 0.0
C479 C 0.78744 0.18002 0.17014 0.0
H480 H 0.8032 0.08066 0.1559 0.0
C481 C 0.80879 0.2167 0.15866 0.0
H482 H 0.76897 0.10151 0.17751 0.0
C483 C 0.82856 0.20479 0.14629 0.0
C484 C 0.82729 0.15589 0.14513 0.0
H485 H 0.81104 0.25503 0.1593 0.0
H486 H 0.84532 0.2342 0.1377 0.0
C487 C 0.80496 0.11876 0.15648 0.0
C488 C 0.81551 0.62249 0.15816 0.0
C489 C 0.81533 0.65719 0.16876 0.0
H490 H 0.82227 0.60933 0.13561 0.0
C491 C 0.82177 0.70647 0.16439 0.0
H492 H 0.81052 0.58417 0.16117 0.0
C493 C 0.82841 0.72085 0.14975 0.0
C494 C 0.82874 0.68623 0.13915 0.0
H495 H 0.82172 0.73407 0.17228 0.0
H496 H 0.83348 0.75921 0.14675 0.0
C497 C 0.82211 0.63686 0.1435 0.0
C498 C 0.12278 0.28093 0.33046 0.0
C499 C 0.15899 0.31531 0.34079 0.0
H500 H 0.09954 0.26831 0.30818 0.0
C501 C 0.20066 0.36484 0.33623 0.0
H502 H 0.09022 0.24246 0.33362 0.0
C503 C 0.20601 0.37966 0.32162 0.0
C504 C 0.16979 0.34523 0.31129 0.0
H505 H 0.22924 0.39221 0.34392 0.0
H506 H 0.23855 0.41811 0.31844 0.0
C507 C 0.12814 0.29573 0.31586 0.0
C508 C 0.63468 0.83268 0.34157 0.0
C509 C 0.67783 0.82502 0.34383 0.0
H510 H 0.58331 0.83839 0.32614 0.0
C511 C 0.70254 0.81689 0.33178 0.0
H512 H 0.61498 0.83926 0.35063 0.0
C513 C 0.68437 0.81626 0.31776 0.0
C514 C 0.64135 0.82411 0.31549 0.0
H515 H 0.73593 0.81087 0.33316 0.0
H516 H 0.70412 0.80969 0.30871 0.0
C517 C 0.61674 0.83244 0.32753 0.0
C518 C 0.18577 0.88114 0.32721 0.0
C519 C 0.16289 0.83956 0.33741 0.0
H520 H 0.20157 0.90302 0.30481 0.0
C521 C 0.13687 0.78674 0.33248 0.0
H522 H 0.20592 0.92229 0.33066 0.0
C523 C 0.13409 0.7757 0.31766 0.0
C524 C 0.15741 0.81727 0.30747 0.0
H525 H 0.11859 0.7538 0.34006 0.0
H526 H 0.11415 0.73454 0.31423 0.0
C527 C 0.18309 0.87011 0.31239 0.0
C528 C 0.69392 0.86373 0.80993 0.0
C529 C 0.64571 0.81969 0.80575 0.0
H530 H 0.74387 0.909 0.82748 0.0
C531 C 0.61001 0.78718 0.81654 0.0
H532 H 0.7222 0.88961 0.80188 0.0
C533 C 0.62234 0.79838 0.83121 0.0
C534 C 0.67064 0.84226 0.83539 0.0
H535 H 0.57245 0.75301 0.81368 0.0
H536 H 0.59408 0.77241 0.83925 0.0
C537 C 0.70627 0.8749 0.8246 0.0
C538 C 0.10599 0.81885 0.82551 0.0
C539 C 0.13578 0.81362 0.83665 0.0
H540 H 0.09725 0.82526 0.80268 0.0
C541 C 0.18098 0.81086 0.833 0.0
H542 H 0.07101 0.82124 0.82796 0.0
C543 C 0.19615 0.81339 0.8185 0.0
C544 C 0.16637 0.81866 0.80736 0.0
H545 H 0.20487 0.80699 0.84133 0.0
H546 H 0.23113 0.81103 0.81604 0.0
C547 C 0.12114 0.82135 0.81101 0.0
C548 C 0.16132 0.27521 0.8281 0.0
C549 C 0.16214 0.30862 0.83924 0.0
H550 H 0.16319 0.26344 0.80524 0.0
C551 C 0.16575 0.3573 0.83556 0.0
H552 H 0.15851 0.2374 0.83057 0.0
C553 C 0.16826 0.37214 0.82103 0.0
C554 C 0.1673 0.33866 0.80989 0.0
H555 H 0.16637 0.38389 0.84389 0.0
H556 H 0.17099 0.40991 0.81856 0.0
C557 C 0.1639 0.29009 0.81357 0.0
C558 C 0.78774 0.63021 0.66218 0.0
C559 C 0.82909 0.65215 0.67229 0.0
H560 H 0.76371 0.6303 0.6403 0.0
C561 C 0.87941 0.69197 0.6677 0.0
H562 H 0.74852 0.59944 0.66537 0.0
C563 C 0.88814 0.70967 0.65332 0.0
C564 C 0.84673 0.68791 0.64323 0.0
H565 H 0.91213 0.70965 0.67522 0.0
H566 H 0.92732 0.74054 0.65013 0.0
C567 C 0.79648 0.6479 0.6478 0.0
C568 C 0.36772 0.15864 0.66278 0.0
C569 C 0.35168 0.18208 0.67348 0.0
H570 H 0.36313 0.13598 0.64051 0.0
C571 C 0.31783 0.20129 0.66961 0.0
H572 H 0.39383 0.1435 0.66541 0.0
C573 C 0.30027 0.19703 0.65533 0.0
C574 C 0.31621 0.17348 0.64463 0.0
H575 H 0.30481 0.21964 0.67759 0.0
H576 H 0.27411 0.21211 0.65271 0.0
C577 C 0.35017 0.1544 0.6485 0.0
C578 C 0.83233 0.13386 0.67269 0.0
C579 C 0.82674 0.17711 0.67709 0.0
H580 H 0.83858 0.08994 0.65491 0.0
C581 C 0.82297 0.20978 0.66647 0.0
H582 H 0.83523 0.10787 0.68061 0.0
C583 C 0.82471 0.19939 0.65175 0.0
C584 C 0.83033 0.15618 0.64734 0.0
H585 H 0.81851 0.24335 0.66951 0.0
H586 H 0.8218 0.22541 0.64384 0.0
C587 C 0.83412 0.1235 0.65796 0.0
C588 C 0.05358 0.54542 0.49525 0.0
C589 C 0.01781 0.51627 0.50641 0.0
H590 H 0.0707 0.55194 0.47252 0.0
C591 C 0.97057 0.4698 0.50288 0.0
H592 H 0.09044 0.58128 0.49761 0.0
C593 C 0.95933 0.45284 0.48848 0.0
C594 C 0.99512 0.482 0.47732 0.0
H595 H 0.94227 0.44634 0.51123 0.0
H596 H 0.92247 0.417 0.4861 0.0
C597 C 0.04237 0.52844 0.48087 0.0
C598 C 0.45848 0.49186 0.49605 0.0
C599 C 0.49675 0.50978 0.50704 0.0
H600 H 0.43966 0.46738 0.47395 0.0
C601 C 0.54679 0.51667 0.50387 0.0
H602 H 0.41952 0.48611 0.49815 0.0
C603 C 0.55838 0.50604 0.48998 0.0
C604 C 0.52011 0.48815 0.47899 0.0
H605 H 0.57716 0.53047 0.5121 0.0
H606 H 0.59735 0.51184 0.48787 0.0
C607 C 0.47002 0.4811 0.48218 0.0
C608 C 0.53757 0.05234 0.49384 0.0
C609 C 0.51103 0.02861 0.4809 0.0
H610 H 0.54534 0.04253 0.51653 0.0
C611 C 0.4696 0.97547 0.48122 0.0
H612 H 0.5696 0.09318 0.49397 0.0
C613 C 0.45592 0.94627 0.49413 0.0
C614 C 0.48313 0.96971 0.50701 0.0
H615 H 0.44835 0.95598 0.47142 0.0
H616 H 0.4243 0.90523 0.49398 0.0
C617 C 0.52367 0.02324 0.50677 0.0
C618 C 0.46214 0.01096 0.00283 0.0
C619 C 0.45518 0.95955 0.00401 0.0
H620 H 0.48425 0.07876 0.98927 0.0
C621 C 0.46411 0.93633 -0.00823 0.0
H622 H 0.4554 0.02989 0.01207 0.0
C623 C 0.48113 0.9646 0.97872 0.0
C624 C 0.48906 0.01643 0.97763 0.0
H625 H 0.45925 0.89687 -0.00765 0.0
H626 H 0.48848 0.94597 0.96952 0.0
C627 C 0.47871 0.03901 0.98977 0.0
C628 C 0.95765 0.51573 0.986 0.0
C629 C 0.97547 0.49261 0.97568 0.0
H630 H 0.96459 0.54519 0.00762 0.0
C631 C 0.01563 0.48187 0.97952 0.0
H632 H 0.92675 0.52452 0.98337 0.0
C633 C 0.03733 0.49373 -0.00658 0.0
C634 C 0.01928 0.51656 0.00376 0.0
H635 H 0.03024 0.46409 0.97181 0.0
H636 H 0.06809 0.48478 -0.00394 0.0
C637 C 0.97932 0.52757 -0.0001 0.0
C638 C 0.50563 0.4684 0.9844 0.0
C639 C 0.4996 0.49646 0.97284 0.0
H640 H 0.51374 0.46361 0.00733 0.0
C641 C 0.49695 0.54251 0.97583 0.0
H642 H 0.50799 0.43287 0.98245 0.0
C643 C 0.50053 0.5603 0.99009 0.0
C644 C 0.50675 0.53235 0.00165 0.0
H645 H 0.49248 0.56514 0.96716 0.0
H646 H 0.49829 0.5959 -0.00797 0.0
C647 C 0.50916 0.48617 -0.00134 0.0
C648 C 0.37548 0.09983 0.07378 0.0
C649 C 0.36916 0.08583 0.08854 0.0
H650 H 0.40422 0.09234 0.05308 0.0
C651 C 0.39461 0.05946 0.09413 0.0
H652 H 0.35693 0.12072 0.06918 0.0
C653 C 0.42145 0.04285 0.08489 0.0
C654 C 0.42369 0.05266 0.06991 0.0
H655 H 0.39111 0.04866 0.1055 0.0
H656 H 0.43776 0.0197 0.08938 0.0
C657 C 0.40271 0.08359 0.06455 0.0
C658 C 0.96376 0.33869 0.05743 0.0
C659 C 0.99084 0.39174 0.06224 0.0
H660 H 0.92276 0.25634 0.06337 0.0
C661 C 0.99238 0.40202 0.07717 0.0
H662 H 0.96155 0.32939 0.04598 0.0
C663 C 0.97007 0.36009 0.08714 0.0
C664 C 0.94583 0.30705 0.08237 0.0
H665 H 0.01264 0.44242 0.08123 0.0
H666 H 0.97364 0.3694 0.0986 0.0
C667 C 0.94152 0.29676 0.0674 0.0
C668 C 0.68928 0.64834 0.0542 0.0
C669 C 0.6367 0.625 0.05903 0.0
H670 H 0.77073 0.6866 0.06015 0.0
C671 C 0.6259 0.61559 0.07395 0.0
H672 H 0.69886 0.65554 0.04276 0.0
C673 C 0.66712 0.63351 0.08391 0.0
C674 C 0.71988 0.66094 0.07915 0.0
H675 H 0.58579 0.59721 0.07801 0.0
H676 H 0.65762 0.62833 0.09539 0.0
C677 C 0.73051 0.66605 0.06417 0.0
C678 C 0.0391 0.39883 0.4053 0.0
C679 C 0.03662 0.38759 0.4202 0.0
H680 H 0.0598 0.38515 0.38411 0.0
C681 C 0.06089 0.35949 0.42537 0.0
H682 H 0.02121 0.42078 0.40099 0.0
C683 C 0.08314 0.33911 0.41569 0.0
C684 C 0.08133 0.3463 0.40067 0.0
H685 H 0.0602 0.3507 0.43682 0.0
H686 H 0.09882 0.31506 0.41994 0.0
C687 C 0.06115 0.37828 0.39562 0.0
C688 C 0.61256 0.59819 0.40509 0.0
C689 C 0.6159 0.60873 0.42005 0.0
H690 H 0.6344 0.6305 0.38367 0.0
C691 C 0.63925 0.66183 0.42471 0.0
H692 H 0.59452 0.55773 0.40113 0.0
C693 C 0.66232 0.70359 0.41471 0.0
C694 C 0.66239 0.69307 0.39984 0.0
H695 H 0.64206 0.67135 0.43616 0.0
H696 H 0.68216 0.74406 0.41872 0.0
C697 C 0.63556 0.63997 0.39509 0.0
C698 C 0.41387 0.96576 0.39793 0.0
C699 C 0.40453 0.94881 0.41246 0.0
H700 H 0.38012 0.96784 0.37758 0.0
C701 C 0.35246 0.91374 0.41702 0.0
H702 H 0.45358 0.99236 0.39405 0.0
C703 C 0.31025 0.90016 0.40762 0.0
C704 C 0.31941 0.9209 0.39346 0.0
H705 H 0.34391 0.89962 0.42813 0.0
H706 H 0.27041 0.87569 0.4117 0.0
C707 C 0.37169 0.95172 0.38849 0.0
C708 C 0.60605 0.95346 0.88832 0.0
C709 C 0.63038 0.92523 0.89333 0.0
H710 H 0.56547 0.99513 0.89394 0.0
C711 C 0.62593 0.91137 0.90808 0.0
H712 H 0.60825 0.96427 0.87698 0.0
C713 C 0.60131 0.92901 0.9178 0.0
C714 C 0.58068 0.96086 0.91296 0.0
H715 H 0.6438 0.88922 0.91227 0.0
H716 H 0.60083 0.91987 0.92922 0.0
C717 C 0.58142 0.97111 0.89804 0.0
C718 C 0.9903 0.58784 0.90013 0.0
C719 C 0.00219 0.59895 0.91491 0.0
H720 H -0.00293 0.61962 0.87877 0.0
C721 C 0.0372 0.65167 0.91914 0.0
H722 H 0.96377 0.54762 0.8965 0.0
C723 C 0.05611 0.69299 0.909 0.0
C724 C 0.04051 0.6824 0.89442 0.0
H725 H 0.04772 0.66154 0.93043 0.0
H726 H 0.08065 0.73345 0.91276 0.0
C727 C 0.00933 0.62921 0.88997 0.0
C728 C 0.37582 0.39535 0.90119 0.0
C729 C 0.36776 0.38899 0.91627 0.0
H730 H 0.34077 0.37468 0.88015 0.0
C731 C 0.31581 0.36172 0.92169 0.0
H732 H 0.4153 0.41651 0.89666 0.0
C733 C 0.27298 0.33775 0.91221 0.0
C734 C 0.28137 0.34048 0.89714 0.0
H735 H 0.30823 0.35658 0.93326 0.0
H736 H 0.23361 0.31471 0.91673 0.0
C737 C 0.33304 0.37125 0.89172 0.0
C738 C 0.92675 0.65562 0.56862 0.0
C739 C 0.9309 0.65035 0.58365 0.0
H740 H 0.94775 0.64292 0.54737 0.0
C741 C 0.9538 0.62075 0.58864 0.0
H742 H 0.90891 0.67776 0.56441 0.0
C743 C 0.97613 0.60078 0.57887 0.0
C744 C 0.976 0.61005 0.56391 0.0
H745 H 0.95706 0.61538 0.60015 0.0
H746 H 0.99603 0.5807 0.58311 0.0
C747 C 0.94911 0.63566 0.55885 0.0
C748 C 0.38435 0.36542 0.5908 0.0
C749 C 0.35745 0.31219 0.58614 0.0
H750 H 0.42435 0.44754 0.58461 0.0
C751 C 0.3568 0.3014 0.57126 0.0
H752 H 0.38603 0.37513 0.60221 0.0
C753 C 0.37895 0.34295 0.56118 0.0
C754 C 0.40207 0.39613 0.56577 0.0
H755 H 0.3369 0.26085 0.56732 0.0
H756 H 0.37547 0.33317 0.54975 0.0
C757 C 0.4064 0.40701 0.58071 0.0
C758 C 0.71089 0.09124 0.5765 0.0
C759 C 0.70403 0.07438 0.59102 0.0
H760 H 0.67418 0.08466 0.55599 0.0
C761 C 0.65253 0.04287 0.5965 0.0
H762 H 0.75001 0.11595 0.57198 0.0
C763 C 0.609 0.02486 0.58734 0.0
C764 C 0.61617 0.03803 0.57252 0.0
H765 H 0.64585 0.02974 0.60771 0.0
H766 H 0.57007 0.99825 0.59171 0.0
C767 C 0.66734 0.07323 0.56733 0.0
C768 C 0.74158 0.69146 0.74504 0.0
C769 C 0.73741 0.69399 0.72992 0.0
H770 H 0.7189 0.70599 0.76585 0.0
C771 C 0.71244 0.72066 0.72421 0.0
H772 H 0.76097 0.67164 0.74979 0.0
C773 C 0.68821 0.74034 0.73342 0.0
C774 C 0.68849 0.73368 0.74851 0.0
H775 H 0.70906 0.72384 0.71259 0.0
H776 H 0.66678 0.75803 0.72866 0.0
C777 C 0.71733 0.7111 0.75425 0.0
C778 C 0.2733 0.98825 0.72579 0.0
C779 C 0.30312 0.04034 0.73118 0.0
H780 H 0.23189 0.90502 0.73072 0.0
C781 C 0.30725 0.04822 0.74626 0.0
H782 H 0.26885 0.9808 0.71422 0.0
C783 C 0.28591 0.00472 0.75572 0.0
C784 C 0.26013 0.95251 0.75028 0.0
H785 H 0.32947 0.08785 0.75077 0.0
H786 H 0.29226 0.01213 0.76726 0.0
C787 C 0.25204 0.94473 0.73525 0.0
C788 C 0.0028 0.285 0.72863 0.0
C789 C 0.95133 0.25947 0.73439 0.0
H790 H 0.08557 0.3279 0.73307 0.0
C791 C 0.94436 0.25091 0.74943 0.0
H792 H 0.0095 0.2916 0.71705 0.0
C793 C 0.98806 0.2718 0.75863 0.0
C794 C 0.03948 0.3015 0.75293 0.0
H795 H 0.90522 0.23098 0.7542 0.0
H796 H 0.98135 0.26722 0.77024 0.0
C797 C 0.04648 0.30576 0.73781 0.0
C798 C 0.26032 0.28893 0.22809 0.0
C799 C 0.29178 0.26831 0.23315 0.0
H800 H 0.21759 0.32859 0.23348 0.0
C801 C 0.29773 0.26522 0.24818 0.0
H802 H 0.25443 0.29127 0.21657 0.0
C803 C 0.27665 0.28672 0.25787 0.0
C804 C 0.24912 0.31154 0.25272 0.0
H805 H 0.32133 0.24914 0.25244 0.0
H806 H 0.28442 0.28638 0.26935 0.0
C807 C 0.23912 0.31029 0.23778 0.0
C808 C 0.68912 0.01869 0.26236 0.0
C809 C 0.66438 0.96504 0.25812 0.0
H810 H 0.72828 0.10011 0.25551 0.0
C811 C 0.66586 0.9529 0.24343 0.0
H812 H 0.68907 0.0294 0.27361 0.0
C813 C 0.68847 0.99343 0.23308 0.0
C814 C 0.70999 0.04694 0.23719 0.0
H815 H 0.6476 0.91199 0.23983 0.0
H816 H 0.68695 0.98257 0.22177 0.0
C817 C 0.71171 0.05927 0.25199 0.0
C818 C 0.92239 0.69724 0.24196 0.0
C819 C 0.93177 0.69406 0.22713 0.0
H820 H 0.95541 0.7172 0.26325 0.0
C821 C 0.98413 0.71683 0.22216 0.0
H822 H 0.88254 0.68058 0.24611 0.0
C823 C 0.02592 0.7378 0.23198 0.0
C824 C 0.01613 0.73638 0.24696 0.0
H825 H 0.99275 0.71572 0.21077 0.0
H826 H 0.06553 0.75215 0.22789 0.0
C827 C 0.96423 0.71824 0.25179 0.0
C828 C 0.06171 0.1631 0.11643 0.0
C829 C 0.05737 0.1836 0.10302 0.0
H830 H 0.10061 0.13077 0.12878 0.0
C831 C 0.09402 0.19178 0.09197 0.0
H832 H 0.03447 0.1567 0.12522 0.0
C833 C 0.1322 0.17675 0.09401 0.0
C834 C 0.13427 0.15325 0.10714 0.0
H835 H 0.09186 0.20767 0.08152 0.0
H836 H 0.15849 0.18144 0.08512 0.0
C837 C 0.09965 0.1481 0.11845 0.0
C838 C 0.81514 0.97466 0.10063 0.0
C839 C 0.85587 0.00813 0.09102 0.0
H840 H 0.7734 0.89807 0.11087 0.0
C841 C 0.88266 0.98716 0.08325 0.0
H842 H 0.79364 0.98954 0.10677 0.0
C843 C 0.87144 0.93511 0.08571 0.0
C844 C 0.83286 0.90257 0.09592 0.0
H845 H 0.91408 0.01167 0.07572 0.0
H846 H 0.89419 0.92091 0.07989 0.0
C847 C 0.80363 0.92228 0.10302 0.0
C848 C 0.06154 0.83794 0.11448 0.0
C849 C 0.02734 0.83248 0.10307 0.0
H850 H 0.13585 0.8878 0.12476 0.0
C851 C 0.04612 0.87069 0.09191 0.0
H852 H 0.04846 0.80895 0.12318 0.0
C853 C 0.09591 0.91602 0.0929 0.0
C854 C 0.12815 0.92383 0.10498 0.0
H855 H 0.02107 0.86752 0.08288 0.0
H856 H 0.10799 0.94622 0.08454 0.0
C857 C 0.11162 0.88319 0.1154 0.0
C858 C 0.1907 0.12716 0.38856 0.0
C859 C 0.20983 0.16548 0.37743 0.0
H860 H 0.18084 0.05328 0.39627 0.0
C861 C 0.24081 0.1616 0.36631 0.0
H862 H 0.16703 0.12909 0.39734 0.0
C863 C 0.24877 0.118 0.3657 0.0
C864 C 0.22572 0.07737 0.37616 0.0
H865 H 0.25653 0.1907 0.35763 0.0
H866 H 0.27047 0.11475 0.35659 0.0
C867 C 0.19844 0.0835 0.38791 0.0
C868 C 0.94176 0.06848 0.38935 0.0
C869 C 0.94331 0.10819 0.38027 0.0
H870 H 0.89836 0.98745 0.39635 0.0
C871 C 0.8982 0.09693 0.37222 0.0
H872 H 0.97563 0.07606 0.39583 0.0
C873 C 0.85378 0.04595 0.37251 0.0
C874 C 0.85349 0.00534 0.38091 0.0
H875 H 0.89797 0.12678 0.36522 0.0
H876 H 0.82055 0.03783 0.36566 0.0
C877 C 0.89728 0.01769 0.38971 0.0
C878 C 0.99566 0.83501 0.39311 0.0
C879 C 0.01376 0.84103 0.37871 0.0
H880 H 0.93192 0.82206 0.40721 0.0
C881 C 0.9782 0.83081 0.36732 0.0
H882 H 0.02227 0.84256 0.40209 0.0
C883 C 0.92666 0.81885 0.37022 0.0
C884 C 0.90969 0.81734 0.38458 0.0
H885 H 0.99089 0.83442 0.35611 0.0
H886 H 0.90108 0.81364 0.36114 0.0
C887 C 0.94399 0.82342 0.39602 0.0
C888 C 0.81777 0.76485 0.86365 0.0
C889 C 0.81509 0.79875 0.8741 0.0
H890 H 0.86336 0.73283 0.85452 0.0
C891 C 0.8548 0.82146 0.88466 0.0
H892 H 0.78764 0.74641 0.8554 0.0
C893 C 0.89829 0.81394 0.88409 0.0
C894 C 0.90292 0.7833 0.87298 0.0
H895 H 0.85385 0.84747 0.89293 0.0
H896 H 0.92934 0.834 0.89202 0.0
C897 C 0.86125 0.75713 0.86311 0.0
C898 C 0.2034 0.03415 0.86637 0.0
C899 C 0.16727 0.99588 0.87614 0.0
H900 H 0.23731 0.11356 0.85807 0.0
C901 C 0.14189 0.01138 0.88638 0.0
H902 H 0.22389 0.02363 0.8584 0.0
C903 C 0.1493 0.06275 0.88611 0.0
C904 C 0.18252 0.09988 0.87567 0.0
H905 H 0.11406 0.98307 0.89412 0.0
H906 H 0.12732 0.07264 0.89374 0.0
C907 C 0.21104 0.08571 0.86616 0.0
C908 C 0.9369 0.1549 0.86635 0.0
C909 C 0.97262 0.156 0.87673 0.0
H910 H 0.8603 0.11005 0.8568 0.0
C911 C 0.95504 0.11406 0.88678 0.0
H912 H 0.94905 0.18675 0.85851 0.0
C913 C 0.90437 0.07001 0.88573 0.0
C914 C 0.87004 0.06706 0.87466 0.0
H915 H 0.98134 0.11376 0.89498 0.0
H916 H 0.89294 0.03728 0.89324 0.0
C917 C 0.88603 0.11086 0.86535 0.0
C918 C 0.79277 0.89118 0.61001 0.0
C919 C 0.81304 0.93798 0.60171 0.0
H920 H 0.78936 0.8164 0.61302 0.0
C921 C 0.83965 0.94148 0.58866 0.0
H922 H 0.77165 0.88706 0.62005 0.0
C923 C 0.8494 0.90094 0.58456 0.0
C924 C 0.83309 0.8561 0.59348 0.0
H925 H 0.85496 0.97663 0.58187 0.0
H926 H 0.87242 0.90631 0.57483 0.0
C927 C 0.8028 0.85061 0.60595 0.0
C928 C 0.14908 0.98092 0.60349 0.0
C929 C 0.13858 0.0112 0.59352 0.0
H930 H 0.1198 0.90588 0.61432 0.0
C931 C 0.09117 0.98616 0.58569 0.0
H932 H 0.18534 0.99897 0.60967 0.0
C933 C 0.05359 0.93317 0.58845 0.0
C934 C 0.06264 0.90376 0.59903 0.0
H935 H 0.08185 0.00812 0.57788 0.0
H936 H 0.01664 0.91578 0.58258 0.0
C937 C 0.1115 0.9276 0.60619 0.0
C938 C 0.08377 0.18623 0.59762 0.0
C939 C 0.1198 0.21809 0.60835 0.0
H940 H 0.00562 0.15263 0.58921 0.0
C941 C 0.10538 0.2461 0.618 0.0
H942 H 0.09396 0.16473 0.58987 0.0
C943 C 0.05446 0.23902 0.61765 0.0
C944 C 0.0172 0.20414 0.60757 0.0
H945 H 0.13242 0.2713 0.62631 0.0
H946 H 0.04354 0.25884 0.62575 0.0
C947 C 0.03314 0.17955 0.59718 0.0
C948 C 0.80258 0.55399 0.44822 0.0
C949 C 0.75695 0.51997 0.44035 0.0
H950 H 0.88123 0.57374 0.45392 0.0
C951 C 0.75849 0.48369 0.43056 0.0
H952 H 0.80267 0.58265 0.45576 0.0
C953 C 0.80356 0.47912 0.42933 0.0
C954 C 0.8479 0.51023 0.43802 0.0
H955 H 0.72422 0.45752 0.42415 0.0
H956 H 0.80242 0.44906 0.42215 0.0
C957 C 0.8476 0.54897 0.44713 0.0
C958 C 0.48197 0.22579 0.44244 0.0
C959 C 0.50589 0.20267 0.43427 0.0
H960 H 0.47788 0.29612 0.4468 0.0
C961 C 0.54039 0.23217 0.4229 0.0
H962 H 0.45496 0.20398 0.4512 0.0
C963 C 0.55315 0.28461 0.42029 0.0
C964 C 0.53203 0.30902 0.42905 0.0
H965 H 0.55896 0.21532 0.41626 0.0
H966 H 0.58151 0.30672 0.41181 0.0
C967 C 0.49503 0.27856 0.43988 0.0
C968 C 0.7671 0.20388 0.44577 0.0
C969 C 0.79466 0.2474 0.43636 0.0
H970 H 0.69565 0.13041 0.44975 0.0
C971 C 0.7733 0.24612 0.42262 0.0
H972 H 0.78269 0.20348 0.45639 0.0
C973 C 0.72375 0.20426 0.41878 0.0
C974 C 0.69425 0.16276 0.42861 0.0
H975 H 0.79392 0.27861 0.415 0.0
H976 H 0.70747 0.20595 0.40838 0.0
C977 C 0.71727 0.16192 0.44194 0.0
C978 C 0.86598 0.4893 0.71391 0.0
C979 C 0.83499 0.48735 0.72587 0.0
H980 H 0.89601 0.44816 0.7013 0.0
C981 C 0.81627 0.44403 0.73548 0.0
H982 H 0.88127 0.52227 0.70632 0.0
C983 C 0.82431 0.40149 0.73252 0.0
C984 C 0.85162 0.40145 0.71994 0.0
H985 H 0.79264 0.44136 0.74486 0.0
H986 H 0.80712 0.36758 0.7398 0.0
C987 C 0.87431 0.44675 0.71099 0.0
C988 C 0.5778 0.36341 0.73196 0.0
C989 C 0.52902 0.3402 0.72479 0.0
H990 H 0.65475 0.43135 0.73411 0.0
C991 C 0.51892 0.37152 0.71509 0.0
H992 H 0.58691 0.34061 0.73954 0.0
C993 C 0.558 0.42398 0.71201 0.0
C994 C 0.60799 0.44575 0.71846 0.0
H995 H 0.48164 0.35486 0.70942 0.0
H996 H 0.54986 0.44652 0.7041 0.0
C997 C 0.6169 0.41543 0.72877 0.0
C998 C 0.62563 0.16651 0.72502 0.0
C999 C 0.64056 0.13773 0.7158 0.0
H1000 H 0.56672 0.18652 0.73053 0.0
C1001 C 0.60322 0.10116 0.70602 0.0
H1002 H 0.65323 0.19487 0.73273 0.0
C1003 C 0.55327 0.0962 0.7048 0.0
C1004 C 0.54005 0.12812 0.71325 0.0
H1005 H 0.61339 0.0782 0.69881 0.0
H1006 H 0.52615 0.0694 0.69675 0.0
C1007 C 0.57608 0.162 0.72369 0.0
C1008 C 0.5309 0.11011 0.20247 0.0
C1009 C 0.57577 0.14195 0.21088 0.0
H1010 H 0.45416 0.09412 0.19593 0.0
C1011 C 0.57484 0.17905 0.2205 0.0
H1012 H 0.53031 0.08095 0.19503 0.0
C1013 C 0.53114 0.18616 0.22115 0.0
C1014 C 0.48753 0.15672 0.21208 0.0
H1015 H 0.60853 0.20372 0.22728 0.0
H1016 H 0.53268 0.21651 0.22829 0.0
C1017 C 0.48726 0.11761 0.20301 0.0
C1018 C 0.77561 0.37093 0.23065 0.0
C1019 C 0.79723 0.34504 0.22273 0.0
H1020 H 0.76753 0.43973 0.23274 0.0
C1021 C 0.83302 0.3728 0.21141 0.0
H1022 H 0.74818 0.35094 0.23949 0.0
C1023 C 0.84421 0.42406 0.20751 0.0
C1024 C 0.81958 0.44831 0.21482 0.0
H1025 H 0.85047 0.35403 0.20509 0.0
H1026 H 0.8702 0.4436 0.19837 0.0
C1027 C 0.7865 0.42184 0.22671 0.0
C1028 C 0.58447 0.49982 0.19611 0.0
C1029 C 0.62141 0.5097 0.20713 0.0
H1030 H 0.50797 0.44614 0.18754 0.0
C1031 C 0.60571 0.47561 0.21924 0.0
H1032 H 0.59518 0.52558 0.18669 0.0
C1033 C 0.55602 0.42988 0.21963 0.0
C1034 C 0.5208 0.4176 0.20802 0.0
H1035 H 0.63298 0.48222 0.22798 0.0
H1036 H 0.54621 0.40284 0.22873 0.0
C1037 C 0.53449 0.45423 0.19658 0.0
C1038 C 0.4633 0.1724 0.93292 0.0
C1039 C 0.50593 0.18223 0.92379 0.0
H1040 H 0.41979 0.20467 0.94335 0.0
C1041 C 0.53506 0.23243 0.9172 0.0
H1042 H 0.44005 0.13411 0.93818 0.0
C1043 C 0.52394 0.27279 0.92032 0.0
C1044 C 0.48304 0.26389 0.92999 0.0
H1045 H 0.56802 0.24142 0.91008 0.0
H1046 H 0.54829 0.31145 0.91536 0.0
C1047 C 0.45179 0.21283 0.93594 0.0
C1048 C 0.77252 0.27318 0.9598 0.0
C1049 C 0.78931 0.30265 0.94682 0.0
H1050 H 0.71692 0.20025 0.97014 0.0
C1051 C 0.7649 0.27777 0.93375 0.0
H1052 H 0.79085 0.29112 0.97005 0.0
C1053 C 0.72214 0.22571 0.93383 0.0
C1054 C 0.7033 0.19738 0.94695 0.0
H1055 H 0.77691 0.2994 0.92358 0.0
H1056 H 0.70259 0.20845 0.92366 0.0
C1057 C 0.73014 0.22102 0.95986 0.0
C1058 C 0.74257 0.50056 0.92618 0.0
C1059 C 0.77856 0.5311 0.93706 0.0
H1060 H 0.66622 0.47229 0.91704 0.0
C1061 C 0.76696 0.56297 0.94605 0.0
H1062 H 0.7509 0.47635 0.91891 0.0
C1063 C 0.71806 0.56047 0.94503 0.0
C1064 C 0.68029 0.52648 0.93492 0.0
H1065 H 0.79421 0.58731 0.95444 0.0
H1066 H 0.70875 0.58278 0.95273 0.0
C1067 C 0.69413 0.49858 0.92504 0.0
C1068 C 0.44733 0.89145 0.7773 0.0
C1069 C 0.40312 0.86004 0.76861 0.0
H1070 H 0.5248 0.90921 0.78361 0.0
C1071 C 0.4064 0.82675 0.7581 0.0
H1072 H 0.44623 0.91787 0.7854 0.0
C1073 C 0.4515 0.82212 0.75697 0.0
C1074 C 0.49421 0.85039 0.76641 0.0
H1075 H 0.37332 0.80264 0.75106 0.0
H1076 H 0.4516 0.79416 0.74921 0.0
C1077 C 0.49244 0.88657 0.77623 0.0
C1078 C 0.17052 0.62525 0.75917 0.0
C1079 C 0.14089 0.63918 0.76833 0.0
H1080 H 0.19121 0.56666 0.75351 0.0
C1081 C 0.10377 0.60052 0.77784 0.0
H1082 H 0.19928 0.65388 0.75166 0.0
C1083 C 0.09907 0.55023 0.77887 0.0
C1084 C 0.13168 0.53789 0.7705 0.0
H1085 H 0.08012 0.60987 0.78499 0.0
H1086 H 0.07177 0.52208 0.78673 0.0
C1087 C 0.16615 0.57527 0.7603 0.0
C1088 C 0.41479 0.57932 0.75923 0.0
C1089 C 0.45192 0.5874 0.77003 0.0
H1090 H 0.33631 0.53022 0.75137 0.0
C1091 C 0.43947 0.54715 0.78035 0.0
H1092 H 0.42344 0.60923 0.75099 0.0
C1093 C 0.38936 0.50171 0.78057 0.0
C1094 C 0.35085 0.49558 0.77044 0.0
H1095 H 0.46739 0.55191 0.78872 0.0
H1096 H 0.37999 0.47279 0.78915 0.0
C1097 C 0.36485 0.53381 0.7594 0.0
C1098 C 0.5227 0.82753 0.05369 0.0
C1099 C 0.54234 0.86869 0.04335 0.0
H1100 H 0.50916 0.75032 0.05932 0.0
C1101 C 0.56997 0.86534 0.03124 0.0
H1102 H 0.50161 0.82891 0.06321 0.0
C1103 C 0.57431 0.81996 0.02899 0.0
C1104 C 0.55092 0.77708 0.03878 0.0
H1105 H 0.58572 0.89639 0.02307 0.0
H1106 H 0.59358 0.8174 0.01922 0.0
C1107 C 0.52679 0.78223 0.05141 0.0
C1108 C 0.19442 0.72395 0.04441 0.0
C1109 C 0.19891 0.69338 0.05559 0.0
H1110 H 0.23081 0.79857 0.03308 0.0
C1111 C 0.24199 0.71788 0.06509 0.0
H1112 H 0.16156 0.70634 0.03693 0.0
C1113 C 0.2817 0.77043 0.06281 0.0
C1114 C 0.27913 0.79987 0.05103 0.0
H1115 H 0.24654 0.69571 0.07387 0.0
H1116 H 0.31544 0.7873 0.06999 0.0
C1117 C 0.23415 0.77679 0.04217 0.0
C1118 C 0.2914 0.46843 0.03291 0.0
C1119 C 0.33041 0.50874 0.04156 0.0
H1120 H 0.21147 0.43057 0.02542 0.0
C1121 C 0.31619 0.5384 0.05065 0.0
H1122 H 0.301 0.44467 0.02584 0.0
C1123 C 0.26519 0.53065 0.05031 0.0
C1124 C 0.2271 0.49276 0.04096 0.0
H1125 H 0.3451 0.56952 0.05754 0.0
H1126 H 0.25616 0.55569 0.05703 0.0
C1127 C 0.24011 0.4604 0.03264 0.0
C1128 C 0.21259 0.52364 0.55473 0.0
C1129 C 0.16908 0.49327 0.5457 0.0
H1130 H 0.29134 0.54466 0.56043 0.0
C1131 C 0.17019 0.45522 0.53648 0.0
H1132 H 0.21304 0.5531 0.56202 0.0
C1133 C 0.2153 0.45027 0.5356 0.0
C1134 C 0.26018 0.48359 0.54383 0.0
H1135 H 0.13721 0.431 0.52944 0.0
H1136 H 0.21587 0.42222 0.52796 0.0
C1137 C 0.2577 0.51905 0.55374 0.0
C1138 C 0.49601 0.72075 0.55267 0.0
C1139 C 0.50958 0.70367 0.53995 0.0
H1140 H 0.48934 0.78286 0.56315 0.0
C1141 C 0.53349 0.74002 0.52846 0.0
H1142 H 0.47754 0.69378 0.56173 0.0
C1143 C 0.54058 0.79129 0.52931 0.0
C1144 C 0.52327 0.80691 0.5416 0.0
H1145 H 0.54467 0.72813 0.51854 0.0
H1146 H 0.55702 0.81757 0.52004 0.0
C1147 C 0.50247 0.77173 0.55345 0.0
C1148 C 0.27416 0.85036 0.53967 0.0
C1149 C 0.31043 0.85092 0.54977 0.0
H1150 H 0.19861 0.80453 0.52954 0.0
C1151 C 0.29498 0.80597 0.55859 0.0
H1152 H 0.28474 0.88436 0.53272 0.0
C1153 C 0.246 0.76026 0.55667 0.0
C1154 C 0.21108 0.75842 0.54594 0.0
H1155 H 0.32169 0.80507 0.56655 0.0
H1156 H 0.23628 0.72572 0.56331 0.0
C1157 C 0.22485 0.80453 0.5378 0.0
C1158 C 0.08572 0.49744 0.28435 0.0
C1159 C 0.11429 0.4895 0.27329 0.0
H1160 H 0.05831 0.54782 0.29296 0.0
C1161 C 0.1309 0.52355 0.26117 0.0
H1162 H 0.07198 0.47164 0.29378 0.0
C1163 C 0.1235 0.56744 0.26077 0.0
C1164 C 0.09887 0.57789 0.27241 0.0
H1165 H 0.1527 0.51842 0.2524 0.0
H1166 H 0.13937 0.59458 0.25165 0.0
C1167 C 0.07792 0.54115 0.28389 0.0
C1168 C 0.41224 0.64192 0.25491 0.0
C1169 C 0.45694 0.66508 0.26387 0.0
H1170 H 0.33761 0.57338 0.25038 0.0
C1171 C 0.46299 0.63316 0.27432 0.0
H1172 H 0.40642 0.6652 0.2467 0.0
C1173 C 0.42337 0.58025 0.27643 0.0
C1174 C 0.37689 0.55843 0.26819 0.0
H1175 H 0.49715 0.64971 0.28135 0.0
H1176 H 0.42808 0.55738 0.28499 0.0
C1177 C 0.37259 0.58926 0.25708 0.0
C1178 C 0.39259 0.84357 0.25877 0.0
C1179 C 0.41912 0.83993 0.27104 0.0
H1180 H 0.3187 0.82857 0.24985 0.0
C1181 C 0.39194 0.8236 0.28432 0.0
H1182 H 0.41255 0.8562 0.24838 0.0
C1183 C 0.33856 0.80774 0.28513 0.0
C1184 C 0.31106 0.80796 0.27269 0.0
H1185 H 0.41132 0.82096 0.29403 0.0
H1186 H 0.31842 0.79352 0.29545 0.0
C1187 C 0.33888 0.82774 0.25959 0.0
loop_
_geom_bond_atom_site_label_1
_geom_bond_atom_site_label_2
_geom_bond_distance
_geom_bond_site_symmetry_2
_ccdc_geom_bond_type
C0 O1 1.160 . S
C0 O7 1.185 . S
O1 C0 1.160 . S
O2 Zn3 1.899 . S
O2 C10 1.284 1_545 S
Zn3 O2 1.899 . S
Zn3 O4 2.032 . S
Zn3 O7 2.086 . S
Zn3 O12 1.977 . S
O4 Zn3 2.032 . S
O4 C8 1.278 . S
C5 O6 1.203 . S
C5 O12 1.267 . S
O6 C5 1.203 . S
O7 C0 1.185 . S
O7 Zn3 2.086 . S
C8 O4 1.278 . S
C8 O9 1.211 . S
O9 C8 1.211 . S
C10 O2 1.284 1_565 S
C10 O11 1.273 1_565 S
O11 C10 1.273 1_545 S
O12 Zn3 1.977 . S
O12 C5 1.267 . S
C13 O14 1.160 . S
C13 O20 1.185 . S
O14 C13 1.160 . S
O15 Zn16 1.899 . S
O15 C23 1.284 1_655 S
Zn16 O15 1.899 . S
Zn16 O17 2.032 . S
Zn16 O20 2.086 . S
Zn16 O25 1.977 . S
O17 Zn16 2.032 . S
O17 C21 1.278 . S
C18 O19 1.203 . S
C18 O25 1.267 . S
O19 C18 1.203 . S
O20 C13 1.185 . S
O20 Zn16 2.086 . S
C21 O17 1.278 . S
C21 O22 1.211 . S
O22 C21 1.211 . S
C23 O15 1.284 1_455 S
C23 O24 1.273 1_455 S
O24 C23 1.273 1_655 S
O25 Zn16 1.977 . S
O25 C18 1.267 . S
C26 O27 1.160 . S
C26 O33 1.185 . S
O27 C26 1.160 . S
O28 Zn29 1.899 . S
O28 C36 1.284 . S
Zn29 O28 1.899 . S
Zn29 O30 2.032 . S
Zn29 O33 2.086 . S
Zn29 O38 1.977 . S
O30 Zn29 2.032 . S
O30 C34 1.278 . S
C31 O32 1.203 . S
C31 O38 1.267 . S
O32 C31 1.203 . S
O33 C26 1.185 . S
O33 Zn29 2.086 . S
C34 O30 1.278 . S
C34 O35 1.211 . S
O35 C34 1.211 . S
C36 O28 1.284 . S
C36 O37 1.273 . S
O37 C36 1.273 . S
O38 Zn29 1.977 . S
O38 C31 1.267 . S
C39 O40 1.160 . S
C39 O46 1.185 . S
O40 C39 1.160 . S
O41 Zn42 1.899 . S
O41 C49 1.284 1_455 S
Zn42 O41 1.899 . S
Zn42 O43 2.032 . S
Zn42 O46 2.086 . S
Zn42 O51 1.977 . S
O43 Zn42 2.032 . S
O43 C47 1.278 . S
C44 O45 1.203 . S
C44 O51 1.267 . S
O45 C44 1.203 . S
O46 C39 1.185 . S
O46 Zn42 2.086 . S
C47 O43 1.278 . S
C47 O48 1.211 . S
O48 C47 1.211 . S
C49 O41 1.284 1_655 S
C49 O50 1.273 1_655 S
O50 C49 1.273 1_455 S
O51 Zn42 1.977 . S
O51 C44 1.267 . S
C52 O53 1.160 . S
C52 O59 1.185 . S
O53 C52 1.160 . S
O54 Zn55 1.899 . S
O54 C62 1.284 . S
Zn55 O54 1.899 . S
Zn55 O56 2.032 . S
Zn55 O59 2.086 . S
Zn55 O64 1.977 . S
O56 Zn55 2.032 . S
O56 C60 1.278 . S
C57 O58 1.203 . S
C57 O64 1.267 . S
O58 C57 1.203 . S
O59 C52 1.185 . S
O59 Zn55 2.086 . S
C60 O56 1.278 . S
C60 O61 1.211 . S
O61 C60 1.211 . S
C62 O54 1.284 . S
C62 O63 1.273 . S
O63 C62 1.273 . S
O64 Zn55 1.977 . S
O64 C57 1.267 . S
C65 O66 1.160 . S
C65 O72 1.185 . S
O66 C65 1.160 . S
O67 Zn68 1.899 . S
O67 C75 1.284 1_565 S
Zn68 O67 1.899 . S
Zn68 O69 2.032 . S
Zn68 O72 2.086 . S
Zn68 O77 1.977 . S
O69 Zn68 2.032 . S
O69 C73 1.278 . S
C70 O71 1.203 . S
C70 O77 1.267 . S
O71 C70 1.203 . S
O72 C65 1.185 . S
O72 Zn68 2.086 . S
C73 O69 1.278 . S
C73 O74 1.211 . S
O74 C73 1.211 . S
C75 O67 1.284 1_545 S
C75 O76 1.273 1_545 S
O76 C75 1.273 1_565 S
O77 Zn68 1.977 . S
O77 C70 1.267 . S
C78 O79 1.160 . S
C78 O85 1.185 . S
O79 C78 1.160 . S
O80 Zn81 1.899 . S
O80 C88 1.284 1_565 S
Zn81 O80 1.899 . S
Zn81 O82 2.032 . S
Zn81 O85 2.086 . S
Zn81 O90 1.977 . S
O82 Zn81 2.032 . S
O82 C86 1.278 . S
C83 O84 1.203 . S
C83 O90 1.267 . S
O84 C83 1.203 . S
O85 C78 1.185 . S
O85 Zn81 2.086 . S
C86 O82 1.278 . S
C86 O87 1.211 . S
O87 C86 1.211 . S
C88 O80 1.284 1_545 S
C88 O89 1.273 1_545 S
O89 C88 1.273 1_565 S
O90 Zn81 1.977 . S
O90 C83 1.267 . S
C91 O92 1.160 . S
C91 O98 1.185 . S
O92 C91 1.160 . S
O93 Zn94 1.899 . S
O93 C101 1.284 1_455 S
Zn94 O93 1.899 . S
Zn94 O95 2.032 . S
Zn94 O98 2.086 . S
Zn94 O103 1.977 . S
O95 Zn94 2.032 . S
O95 C99 1.278 . S
C96 O97 1.203 . S
C96 O103 1.267 . S
O97 C96 1.203 . S
O98 C91 1.185 . S
O98 Zn94 2.086 . S
C99 O95 1.278 . S
C99 O100 1.211 . S
O100 C99 1.211 . S
C101 O93 1.284 1_655 S
C101 O102 1.273 1_655 S
O102 C101 1.273 1_455 S
O103 Zn94 1.977 . S
O103 C96 1.267 . S
C104 O105 1.160 . S
C104 O111 1.185 . S
O105 C104 1.160 . S
O106 Zn107 1.899 . S
O106 C114 1.284 . S
Zn107 O106 1.899 . S
Zn107 O108 2.032 . S
Zn107 O111 2.086 . S
Zn107 O116 1.977 . S
O108 Zn107 2.032 . S
O108 C112 1.278 . S
C109 O110 1.203 . S
C109 O116 1.267 . S
O110 C109 1.203 . S
O111 C104 1.185 . S
O111 Zn107 2.086 . S
C112 O108 1.278 . S
C112 O113 1.211 . S
O113 C112 1.211 . S
C114 O106 1.284 . S
C114 O115 1.273 . S
O115 C114 1.273 . S
O116 Zn107 1.977 . S
O116 C109 1.267 . S
C117 O118 1.160 . S
C117 O124 1.185 . S
O118 C117 1.160 . S
O119 Zn120 1.899 . S
O119 C127 1.284 1_655 S
Zn120 O119 1.899 . S
Zn120 O121 2.032 . S
Zn120 O124 2.086 . S
Zn120 O129 1.977 . S
O121 Zn120 2.032 . S
O121 C125 1.278 . S
C122 O123 1.203 . S
C122 O129 1.267 . S
O123 C122 1.203 . S
O124 C117 1.185 . S
O124 Zn120 2.086 . S
C125 O121 1.278 . S
C125 O126 1.211 . S
O126 C125 1.211 . S
C127 O119 1.284 1_455 S
C127 O128 1.273 1_455 S
O128 C127 1.273 1_655 S
O129 Zn120 1.977 . S
O129 C122 1.267 . S
C130 O131 1.160 . S
C130 O137 1.185 . S
O131 C130 1.160 . S
O132 Zn133 1.899 . S
O132 C140 1.284 . S
Zn133 O132 1.899 . S
Zn133 O134 2.032 . S
Zn133 O137 2.086 . S
Zn133 O142 1.977 . S
O134 Zn133 2.032 . S
O134 C138 1.278 . S
C135 O136 1.203 . S
C135 O142 1.267 . S
O136 C135 1.203 . S
O137 C130 1.185 . S
O137 Zn133 2.086 . S
C138 O134 1.278 . S
C138 O139 1.211 . S
O139 C138 1.211 . S
C140 O132 1.284 . S
C140 O141 1.273 . S
O141 C140 1.273 . S
O142 Zn133 1.977 . S
O142 C135 1.267 . S
C143 O144 1.160 . S
C143 O150 1.185 . S
O144 C143 1.160 . S
O145 Zn146 1.899 . S
O145 C153 1.284 1_545 S
Zn146 O145 1.899 . S
Zn146 O147 2.032 . S
Zn146 O150 2.086 . S
Zn146 O155 1.977 . S
O147 Zn146 2.032 . S
O147 C151 1.278 . S
C148 O149 1.203 . S
C148 O155 1.267 . S
O149 C148 1.203 . S
O150 C143 1.185 . S
O150 Zn146 2.086 . S
C151 O147 1.278 . S
C151 O152 1.211 . S
O152 C151 1.211 . S
C153 O145 1.284 1_565 S
C153 O154 1.273 1_565 S
O154 C153 1.273 1_545 S
O155 Zn146 1.977 . S
O155 C148 1.267 . S
C156 O157 1.160 . S
C156 O163 1.185 . S
O157 C156 1.160 . S
O158 Zn159 1.899 . S
O158 C166 1.284 . S
Zn159 O158 1.899 . S
Zn159 O160 2.032 . S
Zn159 O163 2.086 . S
Zn159 O168 1.977 . S
O160 Zn159 2.032 . S
O160 C164 1.278 . S
C161 O162 1.203 . S
C161 O168 1.267 . S
O162 C161 1.203 . S
O163 C156 1.185 . S
O163 Zn159 2.086 . S
C164 O160 1.278 . S
C164 O165 1.211 . S
O165 C164 1.211 . S
C166 O158 1.284 . S
C166 O167 1.273 . S
O167 C166 1.273 . S
O168 Zn159 1.977 . S
O168 C161 1.267 . S
C169 O170 1.160 . S
C169 O176 1.185 . S
O170 C169 1.160 . S
O171 Zn172 1.899 . S
O171 C179 1.284 . S
Zn172 O171 1.899 . S
Zn172 O173 2.032 . S
Zn172 O176 2.086 . S
Zn172 O181 1.977 . S
O173 Zn172 2.032 . S
O173 C177 1.278 . S
C174 O175 1.203 . S
C174 O181 1.267 . S
O175 C174 1.203 . S
O176 C169 1.185 . S
O176 Zn172 2.086 . S
C177 O173 1.278 . S
C177 O178 1.211 . S
O178 C177 1.211 . S
C179 O171 1.284 . S
C179 O180 1.273 . S
O180 C179 1.273 . S
O181 Zn172 1.977 . S
O181 C174 1.267 . S
C182 O183 1.160 . S
C182 O189 1.185 . S
O183 C182 1.160 . S
O184 Zn185 1.899 . S
O184 C192 1.284 . S
Zn185 O184 1.899 . S
Zn185 O186 2.032 . S
Zn185 O189 2.086 . S
Zn185 O194 1.977 . S
O186 Zn185 2.032 . S
O186 C190 1.278 . S
C187 O188 1.203 . S
C187 O194 1.267 . S
O188 C187 1.203 . S
O189 C182 1.185 . S
O189 Zn185 2.086 . S
C190 O186 1.278 . S
C190 O191 1.211 . S
O191 C190 1.211 . S
C192 O184 1.284 . S
C192 O193 1.273 . S
O193 C192 1.273 . S
O194 Zn185 1.977 . S
O194 C187 1.267 . S
C195 O196 1.160 . S
C195 O202 1.185 . S
O196 C195 1.160 . S
O197 Zn198 1.899 . S
O197 C205 1.284 . S
Zn198 O197 1.899 . S
Zn198 O199 2.032 . S
Zn198 O202 2.086 . S
Zn198 O207 1.977 . S
O199 Zn198 2.032 . S
O199 C203 1.278 . S
C200 O201 1.203 . S
C200 O207 1.267 . S
O201 C200 1.203 . S
O202 C195 1.185 . S
O202 Zn198 2.086 . S
C203 O199 1.278 . S
C203 O204 1.211 . S
O204 C203 1.211 . S
C205 O197 1.284 . S
C205 O206 1.273 . S
O206 C205 1.273 . S
O207 Zn198 1.977 . S
O207 C200 1.267 . S
C208 O209 1.160 . S
C208 O215 1.185 . S
O209 C208 1.160 . S
O210 Zn211 1.899 . S
O210 C218 1.284 . S
Zn211 O210 1.899 . S
Zn211 O212 2.032 . S
Zn211 O215 2.086 . S
Zn211 O220 1.977 . S
O212 Zn211 2.032 . S
O212 C216 1.278 . S
C213 O214 1.203 . S
C213 O220 1.267 . S
O214 C213 1.203 . S
O215 C208 1.185 . S
O215 Zn211 2.086 . S
C216 O212 1.278 . S
C216 O217 1.211 . S
O217 C216 1.211 . S
C218 O210 1.284 . S
C218 O219 1.273 . S
O219 C218 1.273 . S
O220 Zn211 1.977 . S
O220 C213 1.267 . S
C221 O222 1.160 . S
C221 O228 1.185 . S
O222 C221 1.160 . S
O223 Zn224 1.899 . S
O223 C231 1.284 . S
Zn224 O223 1.899 . S
Zn224 O225 2.032 . S
Zn224 O228 2.086 . S
Zn224 O233 1.977 . S
O225 Zn224 2.032 . S
O225 C229 1.278 . S
C226 O227 1.203 . S
C226 O233 1.267 . S
O227 C226 1.203 . S
O228 C221 1.185 . S
O228 Zn224 2.086 . S
C229 O225 1.278 . S
C229 O230 1.211 . S
O230 C229 1.211 . S
C231 O223 1.284 . S
C231 O232 1.273 . S
O232 C231 1.273 . S
O233 Zn224 1.977 . S
O233 C226 1.267 . S
C234 O235 1.160 . S
C234 O241 1.185 . S
O235 C234 1.160 . S
O236 Zn237 1.899 . S
O236 C244 1.284 . S
Zn237 O236 1.899 . S
Zn237 O238 2.032 . S
Zn237 O241 2.086 . S
Zn237 O246 1.977 . S
O238 Zn237 2.032 . S
O238 C242 1.278 . S
C239 O240 1.203 . S
C239 O246 1.267 . S
O240 C239 1.203 . S
O241 C234 1.185 . S
O241 Zn237 2.086 . S
C242 O238 1.278 . S
C242 O243 1.211 . S
O243 C242 1.211 . S
C244 O236 1.284 . S
C244 O245 1.273 . S
O245 C244 1.273 . S
O246 Zn237 1.977 . S
O246 C239 1.267 . S
C247 O248 1.160 . S
C247 O254 1.185 . S
O248 C247 1.160 . S
O249 Zn250 1.899 . S
O249 C257 1.284 . S
Zn250 O249 1.899 . S
Zn250 O251 2.032 . S
Zn250 O254 2.086 . S
Zn250 O259 1.977 . S
O251 Zn250 2.032 . S
O251 C255 1.278 . S
C252 O253 1.203 . S
C252 O259 1.267 . S
O253 C252 1.203 . S
O254 C247 1.185 . S
O254 Zn250 2.086 . S
C255 O251 1.278 . S
C255 O256 1.211 . S
O256 C255 1.211 . S
C257 O249 1.284 . S
C257 O258 1.273 . S
O258 C257 1.273 . S
O259 Zn250 1.977 . S
O259 C252 1.267 . S
C260 O261 1.160 . S
C260 O267 1.185 . S
O261 C260 1.160 . S
O262 Zn263 1.899 . S
O262 C270 1.284 . S
Zn263 O262 1.899 . S
Zn263 O264 2.032 . S
Zn263 O267 2.086 . S
Zn263 O272 1.977 . S
O264 Zn263 2.032 . S
O264 C268 1.278 . S
C265 O266 1.203 . S
C265 O272 1.267 . S
O266 C265 1.203 . S
O267 C260 1.185 . S
O267 Zn263 2.086 . S
C268 O264 1.278 . S
C268 O269 1.211 . S
O269 C268 1.211 . S
C270 O262 1.284 . S
C270 O271 1.273 . S
O271 C270 1.273 . S
O272 Zn263 1.977 . S
O272 C265 1.267 . S
C273 O274 1.160 . S
C273 O280 1.185 . S
O274 C273 1.160 . S
O275 Zn276 1.899 . S
O275 C283 1.284 . S
Zn276 O275 1.899 . S
Zn276 O277 2.032 . S
Zn276 O280 2.086 . S
Zn276 O285 1.977 . S
O277 Zn276 2.032 . S
O277 C281 1.278 . S
C278 O279 1.203 . S
C278 O285 1.267 . S
O279 C278 1.203 . S
O280 C273 1.185 . S
O280 Zn276 2.086 . S
C281 O277 1.278 . S
C281 O282 1.211 . S
O282 C281 1.211 . S
C283 O275 1.284 . S
C283 O284 1.273 . S
O284 C283 1.273 . S
O285 Zn276 1.977 . S
O285 C278 1.267 . S
C286 O287 1.160 . S
C286 O293 1.185 . S
O287 C286 1.160 . S
O288 Zn289 1.899 . S
O288 C296 1.284 . S
Zn289 O288 1.899 . S
Zn289 O290 2.032 . S
Zn289 O293 2.086 . S
Zn289 O298 1.977 . S
O290 Zn289 2.032 . S
O290 C294 1.278 . S
C291 O292 1.203 . S
C291 O298 1.267 . S
O292 C291 1.203 . S
O293 C286 1.185 . S
O293 Zn289 2.086 . S
C294 O290 1.278 . S
C294 O295 1.211 . S
O295 C294 1.211 . S
C296 O288 1.284 . S
C296 O297 1.273 . S
O297 C296 1.273 . S
O298 Zn289 1.977 . S
O298 C291 1.267 . S
C299 O300 1.160 . S
C299 O306 1.185 . S
O300 C299 1.160 . S
O301 Zn302 1.899 . S
O301 C309 1.284 . S
Zn302 O301 1.899 . S
Zn302 O303 2.032 . S
Zn302 O306 2.086 . S
Zn302 O311 1.977 . S
O303 Zn302 2.032 . S
O303 C307 1.278 . S
C304 O305 1.203 . S
C304 O311 1.267 . S
O305 C304 1.203 . S
O306 C299 1.185 . S
O306 Zn302 2.086 . S
C307 O303 1.278 . S
C307 O308 1.211 . S
O308 C307 1.211 . S
C309 O301 1.284 . S
C309 O310 1.273 . S
O310 C309 1.273 . S
O311 Zn302 1.977 . S
O311 C304 1.267 . S
C312 O313 1.160 . S
C312 O319 1.185 . S
O313 C312 1.160 . S
O314 Zn315 1.899 . S
O314 C322 1.284 . S
Zn315 O314 1.899 . S
Zn315 O316 2.032 . S
Zn315 O319 2.086 . S
Zn315 O324 1.977 . S
O316 Zn315 2.032 . S
O316 C320 1.278 . S
C317 O318 1.203 . S
C317 O324 1.267 . S
O318 C317 1.203 . S
O319 C312 1.185 . S
O319 Zn315 2.086 . S
C320 O316 1.278 . S
C320 O321 1.211 . S
O321 C320 1.211 . S
C322 O314 1.284 . S
C322 O323 1.273 . S
O323 C322 1.273 . S
O324 Zn315 1.977 . S
O324 C317 1.267 . S
C325 O326 1.160 . S
C325 O332 1.185 . S
O326 C325 1.160 . S
O327 Zn328 1.899 . S
O327 C335 1.284 . S
Zn328 O327 1.899 . S
Zn328 O329 2.032 . S
Zn328 O332 2.086 . S
Zn328 O337 1.977 . S
O329 Zn328 2.032 . S
O329 C333 1.278 . S
C330 O331 1.203 . S
C330 O337 1.267 . S
O331 C330 1.203 . S
O332 C325 1.185 . S
O332 Zn328 2.086 . S
C333 O329 1.278 . S
C333 O334 1.211 . S
O334 C333 1.211 . S
C335 O327 1.284 . S
C335 O336 1.273 . S
O336 C335 1.273 . S
O337 Zn328 1.977 . S
O337 C330 1.267 . S
C338 O339 1.160 . S
C338 O345 1.185 . S
O339 C338 1.160 . S
O340 Zn341 1.899 . S
O340 C348 1.284 . S
Zn341 O340 1.899 . S
Zn341 O342 2.032 . S
Zn341 O345 2.086 . S
Zn341 O350 1.977 . S
O342 Zn341 2.032 . S
O342 C346 1.278 . S
C343 O344 1.203 . S
C343 O350 1.267 . S
O344 C343 1.203 . S
O345 C338 1.185 . S
O345 Zn341 2.086 . S
C346 O342 1.278 . S
C346 O347 1.211 . S
O347 C346 1.211 . S
C348 O340 1.284 . S
C348 O349 1.273 . S
O349 C348 1.273 . S
O350 Zn341 1.977 . S
O350 C343 1.267 . S
C351 O352 1.160 . S
C351 O358 1.185 . S
O352 C351 1.160 . S
O353 Zn354 1.899 . S
O353 C361 1.284 . S
Zn354 O353 1.899 . S
Zn354 O355 2.032 . S
Zn354 O358 2.086 . S
Zn354 O363 1.977 . S
O355 Zn354 2.032 . S
O355 C359 1.278 . S
C356 O357 1.203 . S
C356 O363 1.267 . S
O357 C356 1.203 . S
O358 C351 1.185 . S
O358 Zn354 2.086 . S
C359 O355 1.278 . S
C359 O360 1.211 . S
O360 C359 1.211 . S
C361 O353 1.284 . S
C361 O362 1.273 . S
O362 C361 1.273 . S
O363 Zn354 1.977 . S
O363 C356 1.267 . S
C364 O365 1.160 . S
C364 O371 1.185 . S
O365 C364 1.160 . S
O366 Zn367 1.899 . S
O366 C374 1.284 . S
Zn367 O366 1.899 . S
Zn367 O368 2.032 . S
Zn367 O371 2.086 . S
Zn367 O376 1.977 . S
O368 Zn367 2.032 . S
O368 C372 1.278 . S
C369 O370 1.203 . S
C369 O376 1.267 . S
O370 C369 1.203 . S
O371 C364 1.185 . S
O371 Zn367 2.086 . S
C372 O368 1.278 . S
C372 O373 1.211 . S
O373 C372 1.211 . S
C374 O366 1.284 . S
C374 O375 1.273 . S
O375 C374 1.273 . S
O376 Zn367 1.977 . S
O376 C369 1.267 . S
C377 O378 1.160 . S
C377 O384 1.185 . S
O378 C377 1.160 . S
O379 Zn380 1.899 . S
O379 C387 1.284 . S
Zn380 O379 1.899 . S
Zn380 O381 2.032 . S
Zn380 O384 2.086 . S
Zn380 O389 1.977 . S
O381 Zn380 2.032 . S
O381 C385 1.278 . S
C382 O383 1.203 . S
C382 O389 1.267 . S
O383 C382 1.203 . S
O384 C377 1.185 . S
O384 Zn380 2.086 . S
C385 O381 1.278 . S
C385 O386 1.211 . S
O386 C385 1.211 . S
C387 O379 1.284 . S
C387 O388 1.273 . S
O388 C387 1.273 . S
O389 Zn380 1.977 . S
O389 C382 1.267 . S
C390 O391 1.160 . S
C390 O397 1.185 . S
O391 C390 1.160 . S
O392 Zn393 1.899 . S
O392 C400 1.284 . S
Zn393 O392 1.899 . S
Zn393 O394 2.032 . S
Zn393 O397 2.086 . S
Zn393 O402 1.977 . S
O394 Zn393 2.032 . S
O394 C398 1.278 . S
C395 O396 1.203 . S
C395 O402 1.267 . S
O396 C395 1.203 . S
O397 C390 1.185 . S
O397 Zn393 2.086 . S
C398 O394 1.278 . S
C398 O399 1.211 . S
O399 C398 1.211 . S
C400 O392 1.284 . S
C400 O401 1.273 . S
O401 C400 1.273 . S
O402 Zn393 1.977 . S
O402 C395 1.267 . S
C403 O404 1.160 . S
C403 O410 1.185 . S
O404 C403 1.160 . S
O405 Zn406 1.899 . S
O405 C413 1.284 . S
Zn406 O405 1.899 . S
Zn406 O407 2.032 . S
Zn406 O410 2.086 . S
Zn406 O415 1.977 . S
O407 Zn406 2.032 . S
O407 C411 1.278 . S
C408 O409 1.203 . S
C408 O415 1.267 . S
O409 C408 1.203 . S
O410 C403 1.185 . S
O410 Zn406 2.086 . S
C411 O407 1.278 . S
C411 O412 1.211 . S
O412 C411 1.211 . S
C413 O405 1.284 . S
C413 O414 1.273 . S
O414 C413 1.273 . S
O415 Zn406 1.977 . S
O415 C408 1.267 . S
C416 O417 1.160 . S
C416 O423 1.185 . S
O417 C416 1.160 . S
O418 Zn419 1.899 . S
O418 C426 1.284 . S
Zn419 O418 1.899 . S
Zn419 O420 2.032 . S
Zn419 O423 2.086 . S
Zn419 O428 1.977 . S
O420 Zn419 2.032 . S
O420 C424 1.278 . S
C421 O422 1.203 . S
C421 O428 1.267 . S
O422 C421 1.203 . S
O423 C416 1.185 . S
O423 Zn419 2.086 . S
C424 O420 1.278 . S
C424 O425 1.211 . S
O425 C424 1.211 . S
C426 O418 1.284 . S
C426 O427 1.273 . S
O427 C426 1.273 . S
O428 Zn419 1.977 . S
O428 C421 1.267 . S
C429 O430 1.160 . S
C429 O436 1.185 . S
O430 C429 1.160 . S
O431 Zn432 1.899 . S
O431 C439 1.284 . S
Zn432 O431 1.899 . S
Zn432 O433 2.032 . S
Zn432 O436 2.086 . S
Zn432 O441 1.977 . S
O433 Zn432 2.032 . S
O433 C437 1.278 . S
C434 O435 1.203 . S
C434 O441 1.267 . S
O435 C434 1.203 . S
O436 C429 1.185 . S
O436 Zn432 2.086 . S
C437 O433 1.278 . S
C437 O438 1.211 . S
O438 C437 1.211 . S
C439 O431 1.284 . S
C439 O440 1.273 . S
O440 C439 1.273 . S
O441 Zn432 1.977 . S
O441 C434 1.267 . S
C442 O443 1.160 . S
C442 O449 1.185 . S
O443 C442 1.160 . S
O444 Zn445 1.899 . S
O444 C452 1.284 . S
Zn445 O444 1.899 . S
Zn445 O446 2.032 . S
Zn445 O449 2.086 . S
Zn445 O454 1.977 . S
O446 Zn445 2.032 . S
O446 C450 1.278 . S
C447 O448 1.203 . S
C447 O454 1.267 . S
O448 C447 1.203 . S
O449 C442 1.185 . S
O449 Zn445 2.086 . S
C450 O446 1.278 . S
C450 O451 1.211 . S
O451 C450 1.211 . S
C452 O444 1.284 . S
C452 O453 1.273 . S
O453 C452 1.273 . S
O454 Zn445 1.977 . S
O454 C447 1.267 . S
C455 O456 1.160 . S
C455 O462 1.185 . S
O456 C455 1.160 . S
O457 Zn458 1.899 . S
O457 C465 1.284 . S
Zn458 O457 1.899 . S
Zn458 O459 2.032 . S
Zn458 O462 2.086 . S
Zn458 O467 1.977 . S
O459 Zn458 2.032 . S
O459 C463 1.278 . S
C460 O461 1.203 . S
C460 O467 1.267 . S
O461 C460 1.203 . S
O462 C455 1.185 . S
O462 Zn458 2.086 . S
C463 O459 1.278 . S
C463 O464 1.211 . S
O464 C463 1.211 . S
C465 O457 1.284 . S
C465 O466 1.273 . S
O466 C465 1.273 . S
O467 Zn458 1.977 . S
O467 C460 1.267 . S
C468 C469 1.387 . S
C468 H472 0.950 . S
C468 C477 1.390 . S
C469 C468 1.387 . S
C469 C471 1.387 . S
H470 C477 0.950 . S
C471 C469 1.387 . S
C471 C473 1.390 . S
C471 H475 0.950 . S
H472 C468 0.950 . S
C473 C471 1.390 . S
C473 C474 1.387 . S
C473 H476 0.950 . S
C474 C473 1.387 . S
C474 C477 1.387 . S
H475 C471 0.950 . S
H476 C473 0.950 . S
C477 C468 1.390 . S
C477 H470 0.950 . S
C477 C474 1.387 . S
C478 C479 1.387 . S
C478 H482 0.950 . S
C478 C487 1.390 . S
C479 C478 1.387 . S
C479 C481 1.387 . S
H480 C487 0.950 . S
C481 C479 1.387 . S
C481 C483 1.390 . S
C481 H485 0.950 . S
H482 C478 0.950 . S
C483 C481 1.390 . S
C483 C484 1.387 . S
C483 H486 0.950 . S
C484 C483 1.387 . S
C484 C487 1.387 . S
H485 C481 0.950 . S
H486 C483 0.950 . S
C487 C478 1.390 . S
C487 H480 0.950 . S
C487 C484 1.387 . S
C488 C489 1.387 . S
C488 H492 0.950 . S
C488 C497 1.390 . S
C489 C488 1.387 . S
C489 C491 1.387 . S
H490 C497 0.950 . S
C491 C489 1.387 . S
C491 C493 1.390 . S
C491 H495 0.950 . S
H492 C488 0.950 . S
C493 C491 1.390 . S
C493 C494 1.387 . S
C493 H496 0.950 . S
C494 C493 1.387 . S
C494 C497 1.387 . S
H495 C491 0.950 . S
H496 C493 0.950 . S
C497 C488 1.390 . S
C497 H490 0.950 . S
C497 C494 1.387 . S
C498 C499 1.387 . S
C498 H502 0.950 . S
C498 C507 1.390 . S
C499 C498 1.387 . S
C499 C501 1.387 . S
H500 C507 0.950 . S
C501 C499 1.387 . S
C501 C503 1.390 . S
C501 H505 0.950 . S
H502 C498 0.950 . S
C503 C501 1.390 . S
C503 C504 1.387 . S
C503 H506 0.950 . S
C504 C503 1.387 . S
C504 C507 1.387 . S
H505 C501 0.950 . S
H506 C503 0.950 . S
C507 C498 1.390 . S
C507 H500 0.950 . S
C507 C504 1.387 . S
C508 C509 1.387 . S
C508 H512 0.950 . S
C508 C517 1.390 . S
C509 C508 1.387 . S
C509 C511 1.387 . S
H510 C517 0.950 . S
C511 C509 1.387 . S
C511 C513 1.390 . S
C511 H515 0.950 . S
H512 C508 0.950 . S
C513 C511 1.390 . S
C513 C514 1.387 . S
C513 H516 0.950 . S
C514 C513 1.387 . S
C514 C517 1.387 . S
H515 C511 0.950 . S
H516 C513 0.950 . S
C517 C508 1.390 . S
C517 H510 0.950 . S
C517 C514 1.387 . S
C518 C519 1.387 . S
C518 H522 0.950 . S
C518 C527 1.390 . S
C519 C518 1.387 . S
C519 C521 1.387 . S
H520 C527 0.950 . S
C521 C519 1.387 . S
C521 C523 1.390 . S
C521 H525 0.950 . S
H522 C518 0.950 . S
C523 C521 1.390 . S
C523 C524 1.387 . S
C523 H526 0.950 . S
C524 C523 1.387 . S
C524 C527 1.387 . S
H525 C521 0.950 . S
H526 C523 0.950 . S
C527 C518 1.390 . S
C527 H520 0.950 . S
C527 C524 1.387 . S
C528 C529 1.387 . S
C528 H532 0.950 . S
C528 C537 1.390 . S
C529 C528 1.387 . S
C529 C531 1.387 . S
H530 C537 0.950 . S
C531 C529 1.387 . S
C531 C533 1.390 . S
C531 H535 0.950 . S
H532 C528 0.950 . S
C533 C531 1.390 . S
C533 C534 1.387 . S
C533 H536 0.950 . S
C534 C533 1.387 . S
C534 C537 1.387 . S
H535 C531 0.950 . S
H536 C533 0.950 . S
C537 C528 1.390 . S
C537 H530 0.950 . S
C537 C534 1.387 . S
C538 C539 1.387 . S
C538 H542 0.950 . S
C538 C547 1.390 . S
C539 C538 1.387 . S
C539 C541 1.387 . S
H540 C547 0.950 . S
C541 C539 1.387 . S
C541 C543 1.390 . S
C541 H545 0.950 . S
H542 C538 0.950 . S
C543 C541 1.390 . S
C543 C544 1.387 . S
C543 H546 0.950 . S
C544 C543 1.387 . S
C544 C547 1.387 . S
H545 C541 0.950 . S
H546 C543 0.950 . S
C547 C538 1.390 . S
C547 H540 0.950 . S
C547 C544 1.387 . S
C548 C549 1.387 . S
C548 H552 0.950 . S
C548 C557 1.390 . S
C549 C548 1.387 . S
C549 C551 1.387 . S
H550 C557 0.950 . S
C551 C549 1.387 . S
C551 C553 1.390 . S
C551 H555 0.950 . S
H552 C548 0.950 . S
C553 C551 1.390 . S
C553 C554 1.387 . S
C553 H556 0.950 . S
C554 C553 1.387 . S
C554 C557 1.387 . S
H555 C551 0.950 . S
H556 C553 0.950 . S
C557 C548 1.390 . S
C557 H550 0.950 . S
C557 C554 1.387 . S
C558 C559 1.387 . S
C558 H562 0.950 . S
C558 C567 1.390 . S
C559 C558 1.387 . S
C559 C561 1.387 . S
H560 C567 0.950 . S
C561 C559 1.387 . S
C561 C563 1.390 . S
C561 H565 0.950 . S
H562 C558 0.950 . S
C563 C561 1.390 . S
C563 C564 1.387 . S
C563 H566 0.950 . S
C564 C563 1.387 . S
C564 C567 1.387 . S
H565 C561 0.950 . S
H566 C563 0.950 . S
C567 C558 1.390 . S
C567 H560 0.950 . S
C567 C564 1.387 . S
C568 C569 1.387 . S
C568 H572 0.950 . S
C568 C577 1.390 . S
C569 C568 1.387 . S
C569 C571 1.387 . S
H570 C577 0.950 . S
C571 C569 1.387 . S
C571 C573 1.390 . S
C571 H575 0.950 . S
H572 C568 0.950 . S
C573 C571 1.390 . S
C573 C574 1.387 . S
C573 H576 0.950 . S
C574 C573 1.387 . S
C574 C577 1.387 . S
H575 C571 0.950 . S
H576 C573 0.950 . S
C577 C568 1.390 . S
C577 H570 0.950 . S
C577 C574 1.387 . S
C578 C579 1.387 . S
C578 H582 0.950 . S
C578 C587 1.390 . S
C579 C578 1.387 . S
C579 C581 1.387 . S
H580 C587 0.950 . S
C581 C579 1.387 . S
C581 C583 1.390 . S
C581 H585 0.950 . S
H582 C578 0.950 . S
C583 C581 1.390 . S
C583 C584 1.387 . S
C583 H586 0.950 . S
C584 C583 1.387 . S
C584 C587 1.387 . S
H585 C581 0.950 . S
H586 C583 0.950 . S
C587 C578 1.390 . S
C587 H580 0.950 . S
C587 C584 1.387 . S
C588 C589 1.387 1_655 S
C588 H592 0.950 . S
C588 C597 1.390 . S
C589 C588 1.387 1_455 S
C589 C591 1.387 . S
H590 C597 0.950 . S
C591 C589 1.387 . S
C591 C593 1.390 . S
C591 H595 0.950 . S
H592 C588 0.950 . S
C593 C591 1.390 . S
C593 C594 1.387 1_455 S
C593 H596 0.950 . S
C594 C593 1.387 1_655 S
C594 C597 1.387 . S
H595 C591 0.950 . S
H596 C593 0.950 . S
C597 C588 1.390 . S
C597 H590 0.950 . S
C597 C594 1.387 . S
C598 C599 1.387 . S
C598 H602 0.950 . S
C598 C607 1.390 . S
C599 C598 1.387 . S
C599 C601 1.387 . S
H600 C607 0.950 . S
C601 C599 1.387 . S
C601 C603 1.390 . S
C601 H605 0.950 . S
H602 C598 0.950 . S
C603 C601 1.390 . S
C603 C604 1.387 . S
C603 H606 0.950 . S
C604 C603 1.387 . S
C604 C607 1.387 . S
H605 C601 0.950 . S
H606 C603 0.950 . S
C607 C598 1.390 . S
C607 H600 0.950 . S
C607 C604 1.387 . S
C608 C609 1.387 . S
C608 H612 0.950 . S
C608 C617 1.390 . S
C609 C608 1.387 . S
C609 C611 1.387 1_545 S
H610 C617 0.950 . S
C611 C609 1.387 1_565 S
C611 C613 1.390 . S
C611 H615 0.950 . S
H612 C608 0.950 . S
C613 C611 1.390 . S
C613 C614 1.387 . S
C613 H616 0.950 . S
C614 C613 1.387 . S
C614 C617 1.387 1_565 S
H615 C611 0.950 . S
H616 C613 0.950 . S
C617 C608 1.390 . S
C617 H610 0.950 . S
C617 C614 1.387 1_545 S
C618 C619 1.387 1_545 S
C618 H622 0.950 . S
C618 C627 1.386 . S
C619 C618 1.387 1_565 S
C619 C621 1.391 1_554 S
H620 C627 0.950 . S
C621 C619 1.391 1_556 S
C621 C623 1.386 . S
C621 H625 0.950 . S
H622 C618 0.950 . S
C623 C621 1.386 . S
C623 C624 1.387 1_565 S
C623 H626 0.950 . S
C624 C623 1.387 1_545 S
C624 C627 1.391 1_556 S
H625 C621 0.950 . S
H626 C623 0.950 . S
C627 C618 1.386 . S
C627 H620 0.950 . S
C627 C624 1.391 1_554 S
C628 C629 1.387 1_455 S
C628 H632 0.950 . S
C628 C637 1.390 1_556 S
C629 C628 1.387 1_655 S
C629 C631 1.387 . S
H630 C637 0.950 . S
C631 C629 1.387 . S
C631 C633 1.390 1_556 S
C631 H635 0.950 . S
H632 C628 0.950 . S
C633 C631 1.390 1_554 S
C633 C634 1.387 1_655 S
C633 H636 0.950 . S
C634 C633 1.387 1_455 S
C634 C637 1.387 . S
H635 C631 0.950 . S
H636 C633 0.950 . S
C637 C628 1.390 1_554 S
C637 H630 0.950 . S
C637 C634 1.387 . S
C638 C639 1.387 . S
C638 H642 0.950 . S
C638 C647 1.390 1_556 S
C639 C638 1.387 . S
C639 C641 1.387 . S
H640 C647 0.950 . S
C641 C639 1.387 . S
C641 C643 1.390 1_556 S
C641 H645 0.950 . S
H642 C638 0.950 . S
C643 C641 1.390 1_554 S
C643 C644 1.387 . S
C643 H646 0.950 . S
C644 C643 1.387 . S
C644 C647 1.387 . S
H645 C641 0.950 . S
H646 C643 0.950 . S
C647 C638 1.390 1_554 S
C647 H640 0.950 . S
C647 C644 1.387 . S
C648 C649 1.387 . S
C648 H652 0.950 . S
C648 C657 1.390 . S
C649 C648 1.387 . S
C649 C651 1.387 1_545 S
H650 C657 0.950 . S
C651 C649 1.387 1_565 S
C651 C653 1.390 . S
C651 H655 0.950 . S
H652 C648 0.950 . S
C653 C651 1.390 . S
C653 C654 1.387 . S
C653 H656 0.950 . S
C654 C653 1.387 . S
C654 C657 1.387 1_565 S
H655 C651 0.950 . S
H656 C653 0.950 . S
C657 C648 1.390 . S
C657 H650 0.950 . S
C657 C654 1.387 1_545 S
C658 C659 1.387 . S
C658 H662 0.950 . S
C658 C667 1.390 . S
C659 C658 1.387 . S
C659 C661 1.387 1_455 S
H660 C667 0.950 . S
C661 C659 1.387 1_655 S
C661 C663 1.390 . S
C661 H665 0.950 . S
H662 C658 0.950 . S
C663 C661 1.390 . S
C663 C664 1.387 . S
C663 H666 0.950 . S
C664 C663 1.387 . S
C664 C667 1.387 1_655 S
H665 C661 0.950 . S
H666 C663 0.950 . S
C667 C658 1.390 . S
C667 H660 0.950 . S
C667 C664 1.387 1_455 S
C668 C669 1.387 . S
C668 H672 0.950 . S
C668 C677 1.390 . S
C669 C668 1.387 . S
C669 C671 1.387 . S
H670 C677 0.950 . S
C671 C669 1.387 . S
C671 C673 1.390 . S
C671 H675 0.950 . S
H672 C668 0.950 . S
C673 C671 1.390 . S
C673 C674 1.387 . S
C673 H676 0.950 . S
C674 C673 1.387 . S
C674 C677 1.387 . S
H675 C671 0.950 . S
H676 C673 0.950 . S
C677 C668 1.390 . S
C677 H670 0.950 . S
C677 C674 1.387 . S
C678 C679 1.387 1_455 S
C678 H682 0.950 . S
C678 C687 1.390 . S
C679 C678 1.387 1_655 S
C679 C681 1.387 . S
H680 C687 0.950 . S
C681 C679 1.387 . S
C681 C683 1.390 1_655 S
C681 H685 0.950 . S
H682 C678 0.950 . S
C683 C681 1.390 1_455 S
C683 C684 1.387 . S
C683 H686 0.950 . S
C684 C683 1.387 . S
C684 C687 1.387 . S
H685 C681 0.950 . S
H686 C683 0.950 . S
C687 C678 1.390 . S
C687 H680 0.950 . S
C687 C684 1.387 . S
C688 C689 1.387 . S
C688 H692 0.950 . S
C688 C697 1.390 . S
C689 C688 1.387 . S
C689 C691 1.387 . S
H690 C697 0.950 . S
C691 C689 1.387 . S
C691 C693 1.390 . S
C691 H695 0.950 . S
H692 C688 0.950 . S
C693 C691 1.390 . S
C693 C694 1.387 . S
C693 H696 0.950 . S
C694 C693 1.387 . S
C694 C697 1.387 . S
H695 C691 0.950 . S
H696 C693 0.950 . S
C697 C688 1.390 . S
C697 H690 0.950 . S
C697 C694 1.387 . S
C698 C699 1.387 1_565 S
C698 H702 0.950 . S
C698 C707 1.390 . S
C699 C698 1.387 1_545 S
C699 C701 1.387 . S
H700 C707 0.950 . S
C701 C699 1.387 . S
C701 C703 1.390 1_545 S
C701 H705 0.950 . S
H702 C698 0.950 . S
C703 C701 1.390 1_565 S
C703 C704 1.387 . S
C703 H706 0.941 1_565 S
C704 C703 1.387 . S
C704 C707 1.387 . S
H705 C701 0.950 . S
H706 C703 0.941 1_545 S
C707 C698 1.390 . S
C707 H700 0.950 . S
C707 C704 1.387 . S
C708 C709 1.387 . S
C708 H712 0.950 1_565 S
C708 C717 1.390 1_565 S
C709 C708 1.387 . S
C709 C711 1.387 . S
H710 C717 0.950 . S
C711 C709 1.387 . S
C711 C713 1.390 . S
C711 H715 0.950 . S
H712 C708 0.950 1_545 S
C713 C711 1.390 . S
C713 C714 1.387 1_565 S
C713 H716 0.950 . S
C714 C713 1.387 1_545 S
C714 C717 1.387 . S
H715 C711 0.950 . S
H716 C713 0.950 . S
C717 C708 1.390 1_545 S
C717 H710 0.950 . S
C717 C714 1.387 . S
C718 C719 1.387 . S
C718 H722 0.950 . S
C718 C727 1.390 . S
C719 C718 1.387 . S
C719 C721 1.387 1_655 S
H720 C727 0.950 . S
C721 C719 1.387 1_455 S
C721 C723 1.390 . S
C721 H725 0.950 . S
H722 C718 0.950 . S
C723 C721 1.390 . S
C723 C724 1.387 . S
C723 H726 0.950 . S
C724 C723 1.387 . S
C724 C727 1.387 1_455 S
H725 C721 0.950 . S
H726 C723 0.950 . S
C727 C718 1.390 . S
C727 H720 0.950 . S
C727 C724 1.387 1_655 S
C728 C729 1.387 . S
C728 H732 0.950 . S
C728 C737 1.390 . S
C729 C728 1.387 . S
C729 C731 1.387 . S
H730 C737 0.950 . S
C731 C729 1.387 . S
C731 C733 1.390 . S
C731 H735 0.950 . S
H732 C728 0.950 . S
C733 C731 1.390 . S
C733 C734 1.387 . S
C733 H736 0.950 . S
C734 C733 1.387 . S
C734 C737 1.387 . S
H735 C731 0.950 . S
H736 C733 0.950 . S
C737 C728 1.390 . S
C737 H730 0.950 . S
C737 C734 1.387 . S
C738 C739 1.387 . S
C738 H742 0.950 . S
C738 C747 1.390 1_655 S
C739 C738 1.387 . S
C739 C741 1.387 . S
H740 C747 0.950 . S
C741 C739 1.387 . S
C741 C743 1.390 . S
C741 H745 0.950 . S
H742 C738 0.950 . S
C743 C741 1.390 . S
C743 C744 1.387 1_655 S
C743 H746 0.950 . S
C744 C743 1.387 1_455 S
C744 C747 1.387 . S
H745 C741 0.950 . S
H746 C743 0.950 . S
C747 C738 1.390 1_455 S
C747 H740 0.950 . S
C747 C744 1.387 . S
C748 C749 1.387 . S
C748 H752 0.950 . S
C748 C757 1.390 . S
C749 C748 1.387 . S
C749 C751 1.387 . S
H750 C757 0.950 . S
C751 C749 1.387 . S
C751 C753 1.390 . S
C751 H755 0.950 . S
H752 C748 0.950 . S
C753 C751 1.390 . S
C753 C754 1.387 . S
C753 H756 0.950 . S
C754 C753 1.387 . S
C754 C757 1.387 . S
H755 C751 0.950 . S
H756 C753 0.950 . S
C757 C748 1.390 . S
C757 H750 0.950 . S
C757 C754 1.387 . S
C758 C759 1.387 . S
C758 H762 0.950 . S
C758 C767 1.390 . S
C759 C758 1.387 . S
C759 C761 1.387 . S
H760 C767 0.950 . S
C761 C759 1.387 . S
C761 C763 1.390 1_545 S
C761 H765 0.950 1_545 S
H762 C758 0.950 . S
C763 C761 1.390 1_565 S
C763 C764 1.387 . S
C763 H766 0.950 . S
C764 C763 1.387 . S
C764 C767 1.387 1_565 S
H765 C761 0.950 1_565 S
H766 C763 0.950 . S
C767 C758 1.390 . S
C767 H760 0.950 . S
C767 C764 1.387 1_545 S
C768 C769 1.387 . S
C768 H772 0.950 . S
C768 C777 1.390 . S
C769 C768 1.387 . S
C769 C771 1.387 . S
H770 C777 0.950 . S
C771 C769 1.387 . S
C771 C773 1.390 . S
C771 H775 0.950 . S
H772 C768 0.950 . S
C773 C771 1.390 . S
C773 C774 1.387 . S
C773 H776 0.950 . S
C774 C773 1.387 . S
C774 C777 1.387 . S
H775 C771 0.950 . S
H776 C773 0.950 . S
C777 C768 1.390 . S
C777 H770 0.950 . S
C777 C774 1.387 . S
C778 C779 1.387 . S
C778 H782 0.950 . S
C778 C787 1.390 1_545 S
C779 C778 1.387 . S
C779 C781 1.387 . S
H780 C787 0.950 . S
C781 C779 1.387 . S
C781 C783 1.390 1_545 S
C781 H785 0.950 . S
H782 C778 0.950 . S
C783 C781 1.390 1_565 S
C783 C784 1.387 . S
C783 H786 0.950 . S
C784 C783 1.387 . S
C784 C787 1.387 . S
H785 C781 0.950 . S
H786 C783 0.950 . S
C787 C778 1.390 1_565 S
C787 H780 0.950 . S
C787 C784 1.387 . S
C788 C789 1.387 . S
C788 H792 0.950 . S
C788 C797 1.390 1_655 S
C789 C788 1.387 . S
C789 C791 1.387 . S
H790 C797 0.950 . S
C791 C789 1.387 . S
C791 C793 1.390 1_655 S
C791 H795 0.950 . S
H792 C788 0.950 . S
C793 C791 1.390 1_455 S
C793 C794 1.387 . S
C793 H796 0.950 . S
C794 C793 1.387 . S
C794 C797 1.387 . S
H795 C791 0.950 . S
H796 C793 0.950 . S
C797 C788 1.390 1_455 S
C797 H790 0.950 . S
C797 C794 1.387 . S
C798 C799 1.387 . S
C798 H802 0.950 . S
C798 C807 1.390 . S
C799 C798 1.387 . S
C799 C801 1.387 . S
H800 C807 0.950 . S
C801 C799 1.387 . S
C801 C803 1.390 . S
C801 H805 0.950 . S
H802 C798 0.950 . S
C803 C801 1.390 . S
C803 C804 1.387 . S
C803 H806 0.950 . S
C804 C803 1.387 . S
C804 C807 1.387 . S
H805 C801 0.950 . S
H806 C803 0.950 . S
C807 C798 1.390 . S
C807 H800 0.950 . S
C807 C804 1.387 . S
C808 C809 1.387 . S
C808 H812 0.950 . S
C808 C817 1.390 1_565 S
C809 C808 1.387 . S
C809 C811 1.387 . S
H810 C817 0.950 . S
C811 C809 1.387 . S
C811 C813 1.390 1_565 S
C811 H815 0.950 . S
H812 C808 0.950 . S
C813 C811 1.390 1_545 S
C813 C814 1.387 . S
C813 H816 0.950 . S
C814 C813 1.387 . S
C814 C817 1.387 . S
H815 C811 0.950 . S
H816 C813 0.950 . S
C817 C808 1.390 1_545 S
C817 H810 0.950 . S
C817 C814 1.387 . S
C818 C819 1.387 . S
C818 H822 0.950 . S
C818 C827 1.390 1_655 S
C819 C818 1.387 . S
C819 C821 1.387 . S
H820 C827 0.950 . S
C821 C819 1.387 . S
C821 C823 1.390 1_655 S
C821 H825 0.950 . S
H822 C818 0.950 . S
C823 C821 1.390 1_455 S
C823 C824 1.387 . S
C823 H826 0.950 . S
C824 C823 1.387 . S
C824 C827 1.387 . S
H825 C821 0.950 . S
H826 C823 0.950 . S
C827 C818 1.390 1_455 S
C827 H820 0.950 . S
C827 C824 1.387 . S
C828 C829 1.387 . S
C828 H832 0.950 . S
C828 C837 1.390 . S
C829 C828 1.387 . S
C829 C831 1.387 . S
H830 C837 0.950 . S
C831 C829 1.387 . S
C831 C833 1.390 . S
C831 H835 0.950 . S
H832 C828 0.950 . S
C833 C831 1.390 . S
C833 C834 1.387 . S
C833 H836 0.950 . S
C834 C833 1.387 . S
C834 C837 1.387 . S
H835 C831 0.950 . S
H836 C833 0.950 . S
C837 C828 1.390 . S
C837 H830 0.950 . S
C837 C834 1.387 . S
C838 C839 1.387 . S
C838 H842 0.950 1_565 S
C838 C847 1.390 . S
C839 C838 1.387 . S
C839 C841 1.387 . S
H840 C847 0.950 . S
C841 C839 1.387 . S
C841 C843 1.390 . S
C841 H845 0.950 . S
H842 C838 0.950 1_545 S
C843 C841 1.390 . S
C843 C844 1.387 . S
C843 H846 0.950 . S
C844 C843 1.387 . S
C844 C847 1.387 . S
H845 C841 0.950 . S
H846 C843 0.950 . S
C847 C838 1.390 . S
C847 H840 0.950 . S
C847 C844 1.387 . S
C848 C849 1.387 . S
C848 H852 0.950 . S
C848 C857 1.390 . S
C849 C848 1.387 . S
C849 C851 1.387 . S
H850 C857 0.950 . S
C851 C849 1.387 . S
C851 C853 1.390 . S
C851 H855 0.950 . S
H852 C848 0.950 . S
C853 C851 1.390 . S
C853 C854 1.387 . S
C853 H856 0.950 . S
C854 C853 1.387 . S
C854 C857 1.387 . S
H855 C851 0.950 . S
H856 C853 0.950 . S
C857 C848 1.390 . S
C857 H850 0.950 . S
C857 C854 1.387 . S
C858 C859 1.387 . S
C858 H862 0.950 . S
C858 C867 1.390 . S
C859 C858 1.387 . S
C859 C861 1.387 . S
H860 C867 0.950 . S
C861 C859 1.387 . S
C861 C863 1.390 . S
C861 H865 0.950 . S
H862 C858 0.950 . S
C863 C861 1.390 . S
C863 C864 1.387 . S
C863 H866 0.950 . S
C864 C863 1.387 . S
C864 C867 1.387 . S
H865 C861 0.950 . S
H866 C863 0.950 . S
C867 C858 1.390 . S
C867 H860 0.950 . S
C867 C864 1.387 . S
C868 C869 1.387 . S
C868 H872 0.950 . S
C868 C877 1.390 . S
C869 C868 1.387 . S
C869 C871 1.387 . S
H870 C877 0.950 . S
C871 C869 1.387 . S
C871 C873 1.390 . S
C871 H875 0.950 . S
H872 C868 0.950 . S
C873 C871 1.390 . S
C873 C874 1.387 . S
C873 H876 0.950 1_545 S
C874 C873 1.387 . S
C874 C877 1.387 . S
H875 C871 0.950 . S
H876 C873 0.950 1_565 S
C877 C868 1.390 . S
C877 H870 0.950 . S
C877 C874 1.387 . S
C878 C879 1.387 . S
C878 H882 0.950 . S
C878 C887 1.390 . S
C879 C878 1.387 . S
C879 C881 1.387 . S
H880 C887 0.950 . S
C881 C879 1.387 . S
C881 C883 1.390 . S
C881 H885 0.950 1_655 S
H882 C878 0.950 . S
C883 C881 1.390 . S
C883 C884 1.387 . S
C883 H886 0.950 . S
C884 C883 1.387 . S
C884 C887 1.387 . S
H885 C881 0.950 1_455 S
H886 C883 0.950 . S
C887 C878 1.390 . S
C887 H880 0.950 . S
C887 C884 1.387 . S
C888 C889 1.387 . S
C888 H892 0.950 . S
C888 C897 1.390 . S
C889 C888 1.387 . S
C889 C891 1.387 . S
H890 C897 0.950 . S
C891 C889 1.387 . S
C891 C893 1.390 . S
C891 H895 0.950 . S
H892 C888 0.950 . S
C893 C891 1.390 . S
C893 C894 1.387 . S
C893 H896 0.950 . S
C894 C893 1.387 . S
C894 C897 1.387 . S
H895 C891 0.950 . S
H896 C893 0.950 . S
C897 C888 1.390 . S
C897 H890 0.950 . S
C897 C894 1.387 . S
C898 C899 1.387 . S
C898 H902 0.950 1_545 S
C898 C907 1.390 . S
C899 C898 1.387 . S
C899 C901 1.387 . S
H900 C907 0.950 . S
C901 C899 1.387 . S
C901 C903 1.390 . S
C901 H905 0.950 . S
H902 C898 0.950 1_565 S
C903 C901 1.390 . S
C903 C904 1.387 . S
C903 H906 0.950 . S
C904 C903 1.387 . S
C904 C907 1.387 . S
H905 C901 0.950 . S
H906 C903 0.950 . S
C907 C898 1.390 . S
C907 H900 0.950 . S
C907 C904 1.387 . S
C908 C909 1.387 . S
C908 H912 0.950 . S
C908 C917 1.390 . S
C909 C908 1.387 . S
C909 C911 1.387 . S
H910 C917 0.950 . S
C911 C909 1.387 . S
C911 C913 1.390 . S
C911 H915 0.950 1_655 S
H912 C908 0.950 . S
C913 C911 1.390 . S
C913 C914 1.387 . S
C913 H916 0.950 . S
C914 C913 1.387 . S
C914 C917 1.387 . S
H915 C911 0.950 1_455 S
H916 C913 0.950 . S
C917 C908 1.390 . S
C917 H910 0.950 . S
C917 C914 1.387 . S
C918 C919 1.387 . S
C918 H922 0.950 . S
C918 C927 1.390 . S
C919 C918 1.387 . S
C919 C921 1.387 . S
H920 C927 0.950 . S
C921 C919 1.387 . S
C921 C923 1.390 . S
C921 H925 0.950 . S
H922 C918 0.950 . S
C923 C921 1.390 . S
C923 C924 1.387 . S
C923 H926 0.950 . S
C924 C923 1.387 . S
C924 C927 1.387 . S
H925 C921 0.950 . S
H926 C923 0.950 . S
C927 C918 1.390 . S
C927 H920 0.950 . S
C927 C924 1.387 . S
C928 C929 1.387 . S
C928 H932 0.950 1_565 S
C928 C937 1.390 . S
C929 C928 1.387 . S
C929 C931 1.387 . S
H930 C937 0.950 . S
C931 C929 1.387 . S
C931 C933 1.390 . S
C931 H935 0.950 . S
H932 C928 0.950 1_545 S
C933 C931 1.390 . S
C933 C934 1.387 . S
C933 H936 0.950 . S
C934 C933 1.387 . S
C934 C937 1.387 . S
H935 C931 0.950 . S
H936 C933 0.950 . S
C937 C928 1.390 . S
C937 H930 0.950 . S
C937 C934 1.387 . S
C938 C939 1.387 . S
C938 H942 0.950 . S
C938 C947 1.390 . S
C939 C938 1.387 . S
C939 C941 1.387 . S
H940 C947 0.950 1_655 S
C941 C939 1.387 . S
C941 C943 1.390 . S
C941 H945 0.950 . S
H942 C938 0.950 . S
C943 C941 1.390 . S
C943 C944 1.387 . S
C943 H946 0.950 . S
C944 C943 1.387 . S
C944 C947 1.387 . S
H945 C941 0.950 . S
H946 C943 0.950 . S
C947 C938 1.390 . S
C947 H940 0.950 1_455 S
C947 C944 1.387 . S
C948 C949 1.387 . S
C948 H952 0.950 . S
C948 C957 1.390 . S
C949 C948 1.387 . S
C949 C951 1.387 . S
H950 C957 0.950 . S
C951 C949 1.387 . S
C951 C953 1.390 . S
C951 H955 0.950 . S
H952 C948 0.950 . S
C953 C951 1.390 . S
C953 C954 1.387 . S
C953 H956 0.950 . S
C954 C953 1.387 . S
C954 C957 1.387 . S
H955 C951 0.950 . S
H956 C953 0.950 . S
C957 C948 1.390 . S
C957 H950 0.950 . S
C957 C954 1.387 . S
C958 C959 1.387 . S
C958 H962 0.950 . S
C958 C967 1.390 . S
C959 C958 1.387 . S
C959 C961 1.387 . S
H960 C967 0.950 . S
C961 C959 1.387 . S
C961 C963 1.390 . S
C961 H965 0.950 . S
H962 C958 0.950 . S
C963 C961 1.390 . S
C963 C964 1.387 . S
C963 H966 0.950 . S
C964 C963 1.387 . S
C964 C967 1.387 . S
H965 C961 0.950 . S
H966 C963 0.950 . S
C967 C958 1.390 . S
C967 H960 0.950 . S
C967 C964 1.387 . S
C968 C969 1.387 . S
C968 H972 0.950 . S
C968 C977 1.390 . S
C969 C968 1.387 . S
C969 C971 1.387 . S
H970 C977 0.950 . S
C971 C969 1.387 . S
C971 C973 1.390 . S
C971 H975 0.950 . S
H972 C968 0.950 . S
C973 C971 1.390 . S
C973 C974 1.387 . S
C973 H976 0.950 . S
C974 C973 1.387 . S
C974 C977 1.387 . S
H975 C971 0.950 . S
H976 C973 0.950 . S
C977 C968 1.390 . S
C977 H970 0.950 . S
C977 C974 1.387 . S
C978 C979 1.387 . S
C978 H982 0.950 . S
C978 C987 1.390 . S
C979 C978 1.387 . S
C979 C981 1.387 . S
H980 C987 0.950 . S
C981 C979 1.387 . S
C981 C983 1.390 . S
C981 H985 0.950 . S
H982 C978 0.950 . S
C983 C981 1.390 . S
C983 C984 1.387 . S
C983 H986 0.950 . S
C984 C983 1.387 . S
C984 C987 1.387 . S
H985 C981 0.950 . S
H986 C983 0.950 . S
C987 C978 1.390 . S
C987 H980 0.950 . S
C987 C984 1.387 . S
C988 C989 1.387 . S
C988 H992 0.950 . S
C988 C997 1.390 . S
C989 C988 1.387 . S
C989 C991 1.387 . S
H990 C997 0.950 . S
C991 C989 1.387 . S
C991 C993 1.390 . S
C991 H995 0.950 . S
H992 C988 0.950 . S
C993 C991 1.390 . S
C993 C994 1.387 . S
C993 H996 0.950 . S
C994 C993 1.387 . S
C994 C997 1.387 . S
H995 C991 0.950 . S
H996 C993 0.950 . S
C997 C988 1.390 . S
C997 H990 0.950 . S
C997 C994 1.387 . S
C998 C999 1.387 . S
C998 H1002 0.950 . S
C998 C1007 1.390 . S
C999 C998 1.387 . S
C999 C1001 1.387 . S
H1000 C1007 0.950 . S
C1001 C999 1.387 . S
C1001 C1003 1.390 . S
C1001 H1005 0.950 . S
H1002 C998 0.950 . S
C1003 C1001 1.390 . S
C1003 C1004 1.387 . S
C1003 H1006 0.950 . S
C1004 C1003 1.387 . S
C1004 C1007 1.387 . S
H1005 C1001 0.950 . S
H1006 C1003 0.950 . S
C1007 C998 1.390 . S
C1007 H1000 0.950 . S
C1007 C1004 1.387 . S
C1008 C1009 1.387 . S
C1008 H1012 0.950 . S
C1008 C1017 1.390 . S
C1009 C1008 1.387 . S
C1009 C1011 1.387 . S
H1010 C1017 0.950 . S
C1011 C1009 1.387 . S
C1011 C1013 1.390 . S
C1011 H1015 0.950 . S
H1012 C1008 0.950 . S
C1013 C1011 1.390 . S
C1013 C1014 1.387 . S
C1013 H1016 0.950 . S
C1014 C1013 1.387 . S
C1014 C1017 1.387 . S
H1015 C1011 0.950 . S
H1016 C1013 0.950 . S
C1017 C1008 1.390 . S
C1017 H1010 0.950 . S
C1017 C1014 1.387 . S
C1018 C1019 1.387 . S
C1018 H1022 0.950 . S
C1018 C1027 1.390 . S
C1019 C1018 1.387 . S
C1019 C1021 1.387 . S
H1020 C1027 0.950 . S
C1021 C1019 1.387 . S
C1021 C1023 1.390 . S
C1021 H1025 0.950 . S
H1022 C1018 0.950 . S
C1023 C1021 1.390 . S
C1023 C1024 1.387 . S
C1023 H1026 0.950 . S
C1024 C1023 1.387 . S
C1024 C1027 1.387 . S
H1025 C1021 0.950 . S
H1026 C1023 0.950 . S
C1027 C1018 1.390 . S
C1027 H1020 0.950 . S
C1027 C1024 1.387 . S
C1028 C1029 1.387 . S
C1028 H1032 0.950 . S
C1028 C1037 1.390 . S
C1029 C1028 1.387 . S
C1029 C1031 1.387 . S
H1030 C1037 0.950 . S
C1031 C1029 1.387 . S
C1031 C1033 1.390 . S
C1031 H1035 0.950 . S
H1032 C1028 0.950 . S
C1033 C1031 1.390 . S
C1033 C1034 1.387 . S
C1033 H1036 0.950 . S
C1034 C1033 1.387 . S
C1034 C1037 1.387 . S
H1035 C1031 0.950 . S
H1036 C1033 0.950 . S
C1037 C1028 1.390 . S
C1037 H1030 0.950 . S
C1037 C1034 1.387 . S
C1038 C1039 1.387 . S
C1038 H1042 0.950 . S
C1038 C1047 1.390 . S
C1039 C1038 1.387 . S
C1039 C1041 1.387 . S
H1040 C1047 0.950 . S
C1041 C1039 1.387 . S
C1041 C1043 1.390 . S
C1041 H1045 0.950 . S
H1042 C1038 0.950 . S
C1043 C1041 1.390 . S
C1043 C1044 1.387 . S
C1043 H1046 0.950 . S
C1044 C1043 1.387 . S
C1044 C1047 1.387 . S
H1045 C1041 0.950 . S
H1046 C1043 0.950 . S
C1047 C1038 1.390 . S
C1047 H1040 0.950 . S
C1047 C1044 1.387 . S
C1048 C1049 1.387 . S
C1048 H1052 0.950 . S
C1048 C1057 1.390 . S
C1049 C1048 1.387 . S
C1049 C1051 1.387 . S
H1050 C1057 0.950 . S
C1051 C1049 1.387 . S
C1051 C1053 1.390 . S
C1051 H1055 0.950 . S
H1052 C1048 0.950 . S
C1053 C1051 1.390 . S
C1053 C1054 1.387 . S
C1053 H1056 0.950 . S
C1054 C1053 1.387 . S
C1054 C1057 1.387 . S
H1055 C1051 0.950 . S
H1056 C1053 0.950 . S
C1057 C1048 1.390 . S
C1057 H1050 0.950 . S
C1057 C1054 1.387 . S
C1058 C1059 1.387 . S
C1058 H1062 0.950 . S
C1058 C1067 1.390 . S
C1059 C1058 1.387 . S
C1059 C1061 1.387 . S
H1060 C1067 0.950 . S
C1061 C1059 1.387 . S
C1061 C1063 1.390 . S
C1061 H1065 0.950 . S
H1062 C1058 0.950 . S
C1063 C1061 1.390 . S
C1063 C1064 1.387 . S
C1063 H1066 0.950 . S
C1064 C1063 1.387 . S
C1064 C1067 1.387 . S
H1065 C1061 0.950 . S
H1066 C1063 0.950 . S
C1067 C1058 1.390 . S
C1067 H1060 0.950 . S
C1067 C1064 1.387 . S
C1068 C1069 1.387 . S
C1068 H1072 0.950 . S
C1068 C1077 1.390 . S
C1069 C1068 1.387 . S
C1069 C1071 1.387 . S
H1070 C1077 0.950 . S
C1071 C1069 1.387 . S
C1071 C1073 1.390 . S
C1071 H1075 0.950 . S
H1072 C1068 0.950 . S
C1073 C1071 1.390 . S
C1073 C1074 1.387 . S
C1073 H1076 0.950 . S
C1074 C1073 1.387 . S
C1074 C1077 1.387 . S
H1075 C1071 0.950 . S
H1076 C1073 0.950 . S
C1077 C1068 1.390 . S
C1077 H1070 0.950 . S
C1077 C1074 1.387 . S
C1078 C1079 1.387 . S
C1078 H1082 0.950 . S
C1078 C1087 1.390 . S
C1079 C1078 1.387 . S
C1079 C1081 1.387 . S
H1080 C1087 0.950 . S
C1081 C1079 1.387 . S
C1081 C1083 1.390 . S
C1081 H1085 0.950 . S
H1082 C1078 0.950 . S
C1083 C1081 1.390 . S
C1083 C1084 1.387 . S
C1083 H1086 0.950 . S
C1084 C1083 1.387 . S
C1084 C1087 1.387 . S
H1085 C1081 0.950 . S
H1086 C1083 0.950 . S
C1087 C1078 1.390 . S
C1087 H1080 0.950 . S
C1087 C1084 1.387 . S
C1088 C1089 1.387 . S
C1088 H1092 0.950 . S
C1088 C1097 1.390 . S
C1089 C1088 1.387 . S
C1089 C1091 1.387 . S
H1090 C1097 0.950 . S
C1091 C1089 1.387 . S
C1091 C1093 1.390 . S
C1091 H1095 0.950 . S
H1092 C1088 0.950 . S
C1093 C1091 1.390 . S
C1093 C1094 1.387 . S
C1093 H1096 0.950 . S
C1094 C1093 1.387 . S
C1094 C1097 1.387 . S
H1095 C1091 0.950 . S
H1096 C1093 0.950 . S
C1097 C1088 1.390 . S
C1097 H1090 0.950 . S
C1097 C1094 1.387 . S
C1098 C1099 1.387 . S
C1098 H1102 0.950 . S
C1098 C1107 1.390 . S
C1099 C1098 1.387 . S
C1099 C1101 1.387 . S
H1100 C1107 0.950 . S
C1101 C1099 1.387 . S
C1101 C1103 1.390 . S
C1101 H1105 0.950 . S
H1102 C1098 0.950 . S
C1103 C1101 1.390 . S
C1103 C1104 1.387 . S
C1103 H1106 0.950 . S
C1104 C1103 1.387 . S
C1104 C1107 1.387 . S
H1105 C1101 0.950 . S
H1106 C1103 0.950 . S
C1107 C1098 1.390 . S
C1107 H1100 0.950 . S
C1107 C1104 1.387 . S
C1108 C1109 1.387 . S
C1108 H1112 0.950 . S
C1108 C1117 1.390 . S
C1109 C1108 1.387 . S
C1109 C1111 1.387 . S
H1110 C1117 0.950 . S
C1111 C1109 1.387 . S
C1111 C1113 1.390 . S
C1111 H1115 0.950 . S
H1112 C1108 0.950 . S
C1113 C1111 1.390 . S
C1113 C1114 1.387 . S
C1113 H1116 0.950 . S
C1114 C1113 1.387 . S
C1114 C1117 1.387 . S
H1115 C1111 0.950 . S
H1116 C1113 0.950 . S
C1117 C1108 1.390 . S
C1117 H1110 0.950 . S
C1117 C1114 1.387 . S
C1118 C1119 1.387 . S
C1118 H1122 0.950 . S
C1118 C1127 1.390 . S
C1119 C1118 1.387 . S
C1119 C1121 1.387 . S
H1120 C1127 0.950 . S
C1121 C1119 1.387 . S
C1121 C1123 1.390 . S
C1121 H1125 0.950 . S
H1122 C1118 0.950 . S
C1123 C1121 1.390 . S
C1123 C1124 1.387 . S
C1123 H1126 0.950 . S
C1124 C1123 1.387 . S
C1124 C1127 1.387 . S
H1125 C1121 0.950 . S
H1126 C1123 0.950 . S
C1127 C1118 1.390 . S
C1127 H1120 0.950 . S
C1127 C1124 1.387 . S
C1128 C1129 1.387 . S
C1128 H1132 0.950 . S
C1128 C1137 1.390 . S
C1129 C1128 1.387 . S
C1129 C1131 1.387 . S
H1130 C1137 0.950 . S
C1131 C1129 1.387 . S
C1131 C1133 1.390 . S
C1131 H1135 0.950 . S
H1132 C1128 0.950 . S
C1133 C1131 1.390 . S
C1133 C1134 1.387 . S
C1133 H1136 0.950 . S
C1134 C1133 1.387 . S
C1134 C1137 1.387 . S
H1135 C1131 0.950 . S
H1136 C1133 0.950 . S
C1137 C1128 1.390 . S
C1137 H1130 0.950 . S
C1137 C1134 1.387 . S
C1138 C1139 1.387 . S
C1138 H1142 0.950 . S
C1138 C1147 1.390 . S
C1139 C1138 1.387 . S
C1139 C1141 1.387 . S
H1140 C1147 0.950 . S
C1141 C1139 1.387 . S
C1141 C1143 1.390 . S
C1141 H1145 0.950 . S
H1142 C1138 0.950 . S
C1143 C1141 1.390 . S
C1143 C1144 1.387 . S
C1143 H1146 0.950 . S
C1144 C1143 1.387 . S
C1144 C1147 1.387 . S
H1145 C1141 0.950 . S
H1146 C1143 0.950 . S
C1147 C1138 1.390 . S
C1147 H1140 0.950 . S
C1147 C1144 1.387 . S
C1148 C1149 1.387 . S
C1148 H1152 0.950 . S
C1148 C1157 1.390 . S
C1149 C1148 1.387 . S
C1149 C1151 1.387 . S
H1150 C1157 0.950 . S
C1151 C1149 1.387 . S
C1151 C1153 1.390 . S
C1151 H1155 0.950 . S
H1152 C1148 0.950 . S
C1153 C1151 1.390 . S
C1153 C1154 1.387 . S
C1153 H1156 0.950 . S
C1154 C1153 1.387 . S
C1154 C1157 1.387 . S
H1155 C1151 0.950 . S
H1156 C1153 0.950 . S
C1157 C1148 1.390 . S
C1157 H1150 0.950 . S
C1157 C1154 1.387 . S
C1158 C1159 1.387 . S
C1158 H1162 0.950 . S
C1158 C1167 1.390 . S
C1159 C1158 1.387 . S
C1159 C1161 1.387 . S
H1160 C1167 0.950 . S
C1161 C1159 1.387 . S
C1161 C1163 1.390 . S
C1161 H1165 0.950 . S
H1162 C1158 0.950 . S
C1163 C1161 1.390 . S
C1163 C1164 1.387 . S
C1163 H1166 0.950 . S
C1164 C1163 1.387 . S
C1164 C1167 1.387 . S
H1165 C1161 0.950 . S
H1166 C1163 0.950 . S
C1167 C1158 1.390 . S
C1167 H1160 0.950 . S
C1167 C1164 1.387 . S
C1168 C1169 1.387 . S
C1168 H1172 0.950 . S
C1168 C1177 1.390 . S
C1169 C1168 1.387 . S
C1169 C1171 1.387 . S
H1170 C1177 0.950 . S
C1171 C1169 1.387 . S
C1171 C1173 1.390 . S
C1171 H1175 0.950 . S
H1172 C1168 0.950 . S
C1173 C1171 1.390 . S
C1173 C1174 1.387 . S
C1173 H1176 0.950 . S
C1174 C1173 1.387 . S
C1174 C1177 1.387 . S
H1175 C1171 0.950 . S
H1176 C1173 0.950 . S
C1177 C1168 1.390 . S
C1177 H1170 0.950 . S
C1177 C1174 1.387 . S
C1178 C1179 1.387 . S
C1178 H1182 0.950 . S
C1178 C1187 1.390 . S
C1179 C1178 1.387 . S
C1179 C1181 1.387 . S
H1180 C1187 0.950 . S
C1181 C1179 1.387 . S
C1181 C1183 1.390 . S
C1181 H1185 0.950 . S
H1182 C1178 0.950 . S
C1183 C1181 1.390 . S
C1183 C1184 1.387 . S
C1183 H1186 0.950 . S
C1184 C1183 1.387 . S
C1184 C1187 1.387 . S
H1185 C1181 0.950 . S
H1186 C1183 0.950 . S
C1187 C1178 1.390 . S
C1187 H1180 0.950 . S
C1187 C1184 1.387 . S
C469 C8 1.366 . S
C474 C242 1.366 . S
C479 C255 1.368 . S
C484 C21 1.368 . S
C489 C268 1.367 . S
C494 C34 1.367 . S
C499 C47 1.369 . S
C504 C437 1.369 . S
C509 C60 1.368 . S
C514 C450 1.368 . S
C519 C73 1.370 . S
C524 C463 1.370 . S
C529 C320 1.367 . S
C534 C86 1.367 . S
C539 C99 1.368 . S
C544 C333 1.368 . S
C549 C112 1.367 . S
C554 C346 1.367 . S
C559 C203 1.370 . S
C564 C125 1.370 . S
C569 C216 1.368 . S
C574 C138 1.368 . S
C579 C229 1.369 . S
C584 C151 1.369 . S
C589 C398 1.367 . S
C594 C164 1.367 . S
C599 C411 1.368 . S
C604 C177 1.368 . S
C609 C190 1.366 . S
C614 C424 1.366 . S
C619 C359 1.369 . S
C624 C281 1.369 . S
C629 C294 1.368 . S
C634 C372 1.368 . S
C639 C307 1.369 . S
C644 C385 1.369 . S
C649 C0 1.461 . S
C654 C351 1.462 . S
C659 C364 1.459 . S
C664 C13 1.459 . S
C669 C377 1.462 . S
C674 C26 1.459 . S
C679 C156 1.459 . S
C684 C39 1.463 . S
C689 C169 1.462 . S
C694 C52 1.462 . S
C699 C182 1.460 . S
C704 C65 1.463 . S
C709 C78 1.459 . S
C714 C273 1.463 . S
C719 C286 1.461 . S
C724 C91 1.461 . S
C729 C299 1.462 . S
C734 C104 1.458 . S
C739 C117 1.463 . S
C744 C390 1.460 . S
C749 C130 1.462 . S
C754 C403 1.462 . S
C759 C143 1.461 . S
C764 C416 1.458 . S
C769 C195 1.458 . S
C774 C312 1.460 . S
C779 C208 1.459 . S
C784 C325 1.459 . S
C789 C221 1.462 . S
C794 C338 1.459 . S
C799 C234 1.459 . S
C804 C429 1.463 . S
C809 C442 1.459 . S
C814 C247 1.459 . S
C819 C260 1.462 . S
C824 C455 1.458 . S
C829 C23 1.397 . S
C834 C5 1.114 . S
C839 C18 1.109 1_565 S
C844 C36 1.396 . S
C849 C31 1.108 1_455 S
C854 C10 1.396 . S
C859 C44 1.115 . S
C864 C75 1.396 . S
C869 C49 1.396 . S
C874 C57 1.115 1_545 S
C879 C70 1.108 1_655 S
C884 C62 1.395 . S
C889 C83 1.114 . S
C894 C101 1.397 . S
C899 C96 1.115 1_545 S
C904 C114 1.396 . S
C909 C109 1.115 1_655 S
C914 C88 1.397 . S
C919 C153 1.396 . S
C924 C122 1.114 . S
C929 C135 1.113 1_565 S
C934 C127 1.396 . S
C939 C140 1.395 . S
C944 C148 1.109 1_455 S
C949 C179 1.395 . S
C954 C161 1.108 . S
C959 C192 1.396 . S
C964 C174 1.110 . S
C969 C166 1.397 . S
C974 C187 1.111 . S
C979 C200 1.108 . S
C984 C231 1.395 . S
C989 C213 1.114 . S
C994 C205 1.396 . S
C999 C226 1.114 . S
C1004 C218 1.397 . S
C1009 C257 1.397 . S
C1014 C239 1.114 . S
C1019 C252 1.109 . S
C1024 C270 1.396 . S
C1029 C265 1.115 . S
C1034 C244 1.396 . S
C1039 C278 1.114 . S
C1044 C309 1.396 . S
C1049 C291 1.115 . S
C1054 C283 1.397 . S
C1059 C296 1.395 . S
C1064 C304 1.108 . S
C1069 C335 1.395 . S
C1074 C317 1.109 . S
C1079 C330 1.113 . S
C1084 C348 1.397 . S
C1089 C322 1.397 . S
C1094 C343 1.115 . S
C1099 C356 1.115 . S
C1104 C387 1.396 . S
C1109 C369 1.109 . S
C1114 C361 1.396 . S
C1119 C382 1.109 . S
C1124 C374 1.395 . S
C1129 C395 1.108 . S
C1134 C413 1.395 . S
C1139 C408 1.108 . S
C1144 C426 1.395 . S
C1149 C421 1.115 . S
C1154 C400 1.397 . S
C1159 C434 1.115 . S
C1164 C465 1.396 . S
C1169 C447 1.109 . S
C1174 C439 1.396 . S
C1179 C452 1.397 . S
C1184 C460 1.114 . S
