# Generated by pormake.
# Topology yfs, (5)-cn, num edge types: 1
# Building blocks:
#     Node 0, Type 0, BuildingBlock: BEQFEK_clean_sbu_0, # of connection points: 5
#     Node 1, Type 0, BuildingBlock: BEQFEK_clean_sbu_0, # of connection points: 5
#     Node 2, Type 0, BuildingBlock: BEQFEK_clean_sbu_0, # of connection points: 5
#     Node 3, Type 0, BuildingBlock: BEQFEK_clean_sbu_0, # of connection points: 5
#     Node 4, Type 0, BuildingBlock: BEQFEK_clean_sbu_0, # of connection points: 5
#     Node 5, Type 0, BuildingBlock: BEQFEK_clean_sbu_0, # of connection points: 5
#     Node 6, Type 0, BuildingBlock: BEQFEK_clean_sbu_0, # of connection points: 5
#     Node 7, Type 0, BuildingBlock: BEQFEK_clean_sbu_0, # of connection points: 5
#     Node 8, Type 0, BuildingBlock: BEQFEK_clean_sbu_0, # of connection points: 5
#     Node 9, Type 0, BuildingBlock: BEQFEK_clean_sbu_0, # of connection points: 5
#     Node 10, Type 0, BuildingBlock: BEQFEK_clean_sbu_0, # of connection points: 5
#     Node 11, Type 0, BuildingBlock: BEQFEK_clean_sbu_0, # of connection points: 5
#     Node 12, Type 0, BuildingBlock: BEQFEK_clean_sbu_0, # of connection points: 5
#     Node 13, Type 0, BuildingBlock: BEQFEK_clean_sbu_0, # of connection points: 5
#     Node 14, Type 0, BuildingBlock: BEQFEK_clean_sbu_0, # of connection points: 5
#     Node 15, Type 0, BuildingBlock: BEQFEK_clean_sbu_0, # of connection points: 5
#     Node 16, Type 0, BuildingBlock: BEQFEK_clean_sbu_0, # of connection points: 5
#     Node 17, Type 0, BuildingBlock: BEQFEK_clean_sbu_0, # of connection points: 5
#     Node 18, Type 0, BuildingBlock: BEQFEK_clean_sbu_0, # of connection points: 5
#     Node 19, Type 0, BuildingBlock: BEQFEK_clean_sbu_0, # of connection points: 5
#     Node 20, Type 0, BuildingBlock: BEQFEK_clean_sbu_0, # of connection points: 5
#     Node 21, Type 0, BuildingBlock: BEQFEK_clean_sbu_0, # of connection points: 5
#     Node 22, Type 0, BuildingBlock: BEQFEK_clean_sbu_0, # of connection points: 5
#     Node 23, Type 0, BuildingBlock: BEQFEK_clean_sbu_0, # of connection points: 5
#     Node 24, Type 0, BuildingBlock: BEQFEK_clean_sbu_0, # of connection points: 5
#     Node 25, Type 0, BuildingBlock: BEQFEK_clean_sbu_0, # of connection points: 5
#     Node 26, Type 0, BuildingBlock: BEQFEK_clean_sbu_0, # of connection points: 5
#     Node 27, Type 0, BuildingBlock: BEQFEK_clean_sbu_0, # of connection points: 5
#     Node 28, Type 0, BuildingBlock: BEQFEK_clean_sbu_0, # of connection points: 5
#     Node 29, Type 0, BuildingBlock: BEQFEK_clean_sbu_0, # of connection points: 5
#     Node 30, Type 0, BuildingBlock: BEQFEK_clean_sbu_0, # of connection points: 5
#     Node 31, Type 0, BuildingBlock: BEQFEK_clean_sbu_0, # of connection points: 5
#     Edge 32, Type (0, 0), BuildingBlock: UVAHIK_clean_linker_0, # of connection points: 2
#     Edge 33, Type (0, 0), BuildingBlock: UVAHIK_clean_linker_0, # of connection points: 2
#     Edge 34, Type (0, 0), BuildingBlock: UVAHIK_clean_linker_0, # of connection points: 2
#     Edge 35, Type (0, 0), BuildingBlock: UVAHIK_clean_linker_0, # of connection points: 2
#     Edge 36, Type (0, 0), BuildingBlock: UVAHIK_clean_linker_0, # of connection points: 2
#     Edge 37, Type (0, 0), BuildingBlock: UVAHIK_clean_linker_0, # of connection points: 2
#     Edge 38, Type (0, 0), BuildingBlock: UVAHIK_clean_linker_0, # of connection points: 2
#     Edge 39, Type (0, 0), BuildingBlock: UVAHIK_clean_linker_0, # of connection points: 2
#     Edge 40, Type (0, 0), BuildingBlock: UVAHIK_clean_linker_0, # of connection points: 2
#     Edge 41, Type (0, 0), BuildingBlock: UVAHIK_clean_linker_0, # of connection points: 2
#     Edge 42, Type (0, 0), BuildingBlock: UVAHIK_clean_linker_0, # of connection points: 2
#     Edge 43, Type (0, 0), BuildingBlock: UVAHIK_clean_linker_0, # of connection points: 2
#     Edge 44, Type (0, 0), BuildingBlock: UVAHIK_clean_linker_0, # of connection points: 2
#     Edge 45, Type (0, 0), BuildingBlock: UVAHIK_clean_linker_0, # of connection points: 2
#     Edge 46, Type (0, 0), BuildingBlock: UVAHIK_clean_linker_0, # of connection points: 2
#     Edge 47, Type (0, 0), BuildingBlock: UVAHIK_clean_linker_0, # of connection points: 2
#     Edge 48, Type (0, 0), BuildingBlock: UVAHIK_clean_linker_0, # of connection points: 2
#     Edge 49, Type (0, 0), BuildingBlock: UVAHIK_clean_linker_0, # of connection points: 2
#     Edge 50, Type (0, 0), BuildingBlock: UVAHIK_clean_linker_0, # of connection points: 2
#     Edge 51, Type (0, 0), BuildingBlock: UVAHIK_clean_linker_0, # of connection points: 2
#     Edge 52, Type (0, 0), BuildingBlock: UVAHIK_clean_linker_0, # of connection points: 2
#     Edge 53, Type (0, 0), BuildingBlock: UVAHIK_clean_linker_0, # of connection points: 2
#     Edge 54, Type (0, 0), BuildingBlock: UVAHIK_clean_linker_0, # of connection points: 2
#     Edge 55, Type (0, 0), BuildingBlock: UVAHIK_clean_linker_0, # of connection points: 2
#     Edge 56, Type (0, 0), BuildingBlock: UVAHIK_clean_linker_0, # of connection points: 2
#     Edge 57, Type (0, 0), BuildingBlock: UVAHIK_clean_linker_0, # of connection points: 2
#     Edge 58, Type (0, 0), BuildingBlock: UVAHIK_clean_linker_0, # of connection points: 2
#     Edge 59, Type (0, 0), BuildingBlock: UVAHIK_clean_linker_0, # of connection points: 2
#     Edge 60, Type (0, 0), BuildingBlock: UVAHIK_clean_linker_0, # of connection points: 2
#     Edge 61, Type (0, 0), BuildingBlock: UVAHIK_clean_linker_0, # of connection points: 2
#     Edge 62, Type (0, 0), BuildingBlock: UVAHIK_clean_linker_0, # of connection points: 2
#     Edge 63, Type (0, 0), BuildingBlock: UVAHIK_clean_linker_0, # of connection points: 2
#     Edge 64, Type (0, 0), BuildingBlock: UVAHIK_clean_linker_0, # of connection points: 2
#     Edge 65, Type (0, 0), BuildingBlock: UVAHIK_clean_linker_0, # of connection points: 2
#     Edge 66, Type (0, 0), BuildingBlock: UVAHIK_clean_linker_0, # of connection points: 2
#     Edge 67, Type (0, 0), BuildingBlock: UVAHIK_clean_linker_0, # of connection points: 2
#     Edge 68, Type (0, 0), BuildingBlock: UVAHIK_clean_linker_0, # of connection points: 2
#     Edge 69, Type (0, 0), BuildingBlock: UVAHIK_clean_linker_0, # of connection points: 2
#     Edge 70, Type (0, 0), BuildingBlock: UVAHIK_clean_linker_0, # of connection points: 2
#     Edge 71, Type (0, 0), BuildingBlock: UVAHIK_clean_linker_0, # of connection points: 2
#     Edge 72, Type (0, 0), BuildingBlock: UVAHIK_clean_linker_0, # of connection points: 2
#     Edge 73, Type (0, 0), BuildingBlock: UVAHIK_clean_linker_0, # of connection points: 2
#     Edge 74, Type (0, 0), BuildingBlock: UVAHIK_clean_linker_0, # of connection points: 2
#     Edge 75, Type (0, 0), BuildingBlock: UVAHIK_clean_linker_0, # of connection points: 2
#     Edge 76, Type (0, 0), BuildingBlock: UVAHIK_clean_linker_0, # of connection points: 2
#     Edge 77, Type (0, 0), BuildingBlock: UVAHIK_clean_linker_0, # of connection points: 2
#     Edge 78, Type (0, 0), BuildingBlock: UVAHIK_clean_linker_0, # of connection points: 2
#     Edge 79, Type (0, 0), BuildingBlock: UVAHIK_clean_linker_0, # of connection points: 2
#     Edge 80, Type (0, 0), BuildingBlock: UVAHIK_clean_linker_0, # of connection points: 2
#     Edge 81, Type (0, 0), BuildingBlock: UVAHIK_clean_linker_0, # of connection points: 2
#     Edge 82, Type (0, 0), BuildingBlock: UVAHIK_clean_linker_0, # of connection points: 2
#     Edge 83, Type (0, 0), BuildingBlock: UVAHIK_clean_linker_0, # of connection points: 2
#     Edge 84, Type (0, 0), BuildingBlock: UVAHIK_clean_linker_0, # of connection points: 2
#     Edge 85, Type (0, 0), BuildingBlock: UVAHIK_clean_linker_0, # of connection points: 2
#     Edge 86, Type (0, 0), BuildingBlock: UVAHIK_clean_linker_0, # of connection points: 2
#     Edge 87, Type (0, 0), BuildingBlock: UVAHIK_clean_linker_0, # of connection points: 2
#     Edge 88, Type (0, 0), BuildingBlock: UVAHIK_clean_linker_0, # of connection points: 2
#     Edge 89, Type (0, 0), BuildingBlock: UVAHIK_clean_linker_0, # of connection points: 2
#     Edge 90, Type (0, 0), BuildingBlock: UVAHIK_clean_linker_0, # of connection points: 2
#     Edge 91, Type (0, 0), BuildingBlock: UVAHIK_clean_linker_0, # of connection points: 2
#     Edge 92, Type (0, 0), BuildingBlock: UVAHIK_clean_linker_0, # of connection points: 2
#     Edge 93, Type (0, 0), BuildingBlock: UVAHIK_clean_linker_0, # of connection points: 2
#     Edge 94, Type (0, 0), BuildingBlock: UVAHIK_clean_linker_0, # of connection points: 2
#     Edge 95, Type (0, 0), BuildingBlock: UVAHIK_clean_linker_0, # of connection points: 2
#     Edge 96, Type (0, 0), BuildingBlock: UVAHIK_clean_linker_0, # of connection points: 2
#     Edge 97, Type (0, 0), BuildingBlock: UVAHIK_clean_linker_0, # of connection points: 2
#     Edge 98, Type (0, 0), BuildingBlock: UVAHIK_clean_linker_0, # of connection points: 2
#     Edge 99, Type (0, 0), BuildingBlock: UVAHIK_clean_linker_0, # of connection points: 2
#     Edge 100, Type (0, 0), BuildingBlock: UVAHIK_clean_linker_0, # of connection points: 2
#     Edge 101, Type (0, 0), BuildingBlock: UVAHIK_clean_linker_0, # of connection points: 2
#     Edge 102, Type (0, 0), BuildingBlock: UVAHIK_clean_linker_0, # of connection points: 2
#     Edge 103, Type (0, 0), BuildingBlock: UVAHIK_clean_linker_0, # of connection points: 2
#     Edge 104, Type (0, 0), BuildingBlock: UVAHIK_clean_linker_0, # of connection points: 2
#     Edge 105, Type (0, 0), BuildingBlock: UVAHIK_clean_linker_0, # of connection points: 2
#     Edge 106, Type (0, 0), BuildingBlock: UVAHIK_clean_linker_0, # of connection points: 2
#     Edge 107, Type (0, 0), BuildingBlock: UVAHIK_clean_linker_0, # of connection points: 2
#     Edge 108, Type (0, 0), BuildingBlock: UVAHIK_clean_linker_0, # of connection points: 2
#     Edge 109, Type (0, 0), BuildingBlock: UVAHIK_clean_linker_0, # of connection points: 2
#     Edge 110, Type (0, 0), BuildingBlock: UVAHIK_clean_linker_0, # of connection points: 2
#     Edge 111, Type (0, 0), BuildingBlock: UVAHIK_clean_linker_0, # of connection points: 2
# Relax obj value: 0.314
# Max RMSD: 0.161
# Mean RMSD: 0.161
data_MOF--net-yfs--node1-BEQFEK_clean_sbu_0--edge1-UVAHIK_clean_linker_0
_symmetry_space_group_name_H-M    P1
_symmetry_Int_Tables_number       1
_symmetry_cell_setting            triclinic
loop_
_symmetry_equiv_pos_as_xyz
'x, y, z'
_cell_length_a     61.596973
_cell_length_b     61.588468
_cell_length_c     105.62654
_cell_angle_alpha  89.99929
_cell_angle_beta   89.969752
_cell_angle_gamma 90.008733
loop_
_atom_site_label
_atom_site_type_symbol
_atom_site_fract_x
_atom_site_fract_y
_atom_site_fract_z
_atom_type_partial_charge
Co0 Co 0.39593 0.12355 0.17612 0.0
Co1 Co 0.3724 0.14607 0.19887 0.0
C2 C 0.36094 0.15648 0.17191 0.0
O3 O 0.37459 0.14281 0.16752 0.0
O4 O 0.35861 0.15926 0.18379 0.0
C5 C 0.40621 0.09943 0.15284 0.0
O6 O 0.38658 0.10394 0.14876 0.0
C7 C 0.33837 0.16312 0.21562 0.0
C8 C 0.35661 0.16716 0.23351 0.0
C9 C 0.3365 0.17049 0.228 0.0
N10 N 0.35866 0.1557 0.21396 0.0
N11 N 0.36941 0.15797 0.2247 0.0
C12 C 0.32244 0.16563 0.20502 0.0
H13 H 0.32572 0.1812 0.20011 0.0
H14 H 0.32447 0.15221 0.19811 0.0
H15 H 0.30546 0.16592 0.2084 0.0
C16 C 0.38219 0.08436 0.19031 0.0
N17 N 0.38236 0.10598 0.18845 0.0
N18 N 0.37205 0.11548 0.19784 0.0
C19 C 0.36469 0.10023 0.20589 0.0
C20 C 0.37089 0.08 0.20138 0.0
C21 C 0.39361 0.0684 0.18196 0.0
H22 H 0.38766 0.07026 0.17211 0.0
H23 H 0.39085 0.05144 0.18512 0.0
H24 H 0.41127 0.07196 0.18197 0.0
O25 O 0.41878 0.1418 0.18383 0.0
O26 O 0.40224 0.15709 0.20014 0.0
H27 H 0.36624 0.11403 0.22441 0.0
H28 H 0.34917 0.09043 0.22351 0.0
C29 C 0.3544 0.10523 0.2184 0.0
H30 H 0.34011 0.11588 0.21692 0.0
H31 H 0.38571 0.15384 0.2259 0.0
O32 O 0.41201 0.10571 0.16378 0.0
C33 C 0.41909 0.15426 0.19342 0.0
Co34 Co 0.11616 0.14276 0.42464 0.0
Co35 Co 0.09368 0.12128 0.44806 0.0
C36 C 0.08271 0.1084 0.42127 0.0
O37 O 0.09667 0.12116 0.41634 0.0
O38 O 0.08021 0.1073 0.43322 0.0
C39 C 0.12828 0.16091 0.40081 0.0
O40 O 0.11039 0.15137 0.39695 0.0
C41 C 0.07775 0.08617 0.46382 0.0
C42 C 0.0687 0.1032 0.48147 0.0
C43 C 0.0681 0.08311 0.47556 0.0
N44 N 0.08343 0.10711 0.46279 0.0
N45 N 0.07819 0.1172 0.4734 0.0
C46 C 0.08228 0.06956 0.45383 0.0
H47 H 0.09701 0.07415 0.44839 0.0
H48 H 0.08452 0.05325 0.45811 0.0
H49 H 0.06842 0.06891 0.44715 0.0
C50 C 0.15528 0.12853 0.43876 0.0
N51 N 0.13363 0.12951 0.43718 0.0
N52 N 0.12411 0.12041 0.44698 0.0
C53 C 0.13931 0.11331 0.45511 0.0
C54 C 0.1596 0.11814 0.45014 0.0
C55 C 0.17138 0.13812 0.42974 0.0
H56 H 0.16734 0.13305 0.41994 0.0
H57 H 0.18819 0.13299 0.43204 0.0
H58 H 0.17029 0.15609 0.43017 0.0
O59 O 0.09789 0.16608 0.43204 0.0
O60 O 0.08311 0.15119 0.44906 0.0
H61 H 0.12322 0.11593 0.47299 0.0
H62 H 0.14904 0.10235 0.47386 0.0
C63 C 0.13428 0.10457 0.46802 0.0
H64 H 0.12582 0.08876 0.46706 0.0
H65 H 0.08048 0.13377 0.47497 0.0
O66 O 0.13449 0.15815 0.41215 0.0
C67 C 0.08578 0.16736 0.44177 0.0
Co68 Co 0.09521 0.87152 0.67406 0.0
Co69 Co 0.12509 0.84758 0.69349 0.0
C70 C 0.1331 0.84415 0.66571 0.0
O71 O 0.117 0.85642 0.66308 0.0
O72 O 0.13816 0.83977 0.67712 0.0
C73 C 0.07886 0.89868 0.65319 0.0
O74 O 0.09736 0.89552 0.64728 0.0
C75 C 0.16144 0.82786 0.70734 0.0
C76 C 0.14673 0.82357 0.72628 0.0
C77 C 0.16534 0.81947 0.71933 0.0
N78 N 0.14134 0.83629 0.70722 0.0
N79 N 0.13268 0.83376 0.71857 0.0
C80 C 0.17659 0.82854 0.69629 0.0
H81 H 0.17336 0.81434 0.69011 0.0
H82 H 0.1738 0.84353 0.69069 0.0
H83 H 0.19376 0.82801 0.69945 0.0
C84 C 0.10508 0.9082 0.69128 0.0
N85 N 0.10821 0.88768 0.68726 0.0
N86 N 0.12165 0.87781 0.69501 0.0
C87 C 0.12815 0.89188 0.70397 0.0
C88 C 0.1176 0.91152 0.70206 0.0
C89 C 0.08828 0.92306 0.68582 0.0
H90 H 0.07294 0.91397 0.68434 0.0
H91 H 0.09393 0.92897 0.67646 0.0
H92 H 0.08495 0.93715 0.69205 0.0
O93 O 0.07567 0.84929 0.6811 0.0
O94 O 0.09693 0.83255 0.69486 0.0
H95 H 0.13566 0.87792 0.72197 0.0
H96 H 0.15156 0.90158 0.7181 0.0
C97 C 0.1441 0.8866 0.7142 0.0
H98 H 0.1571 0.87597 0.71042 0.0
H99 H 0.11697 0.8386 0.72097 0.0
O100 O 0.07586 0.89032 0.66403 0.0
C101 C 0.07869 0.83467 0.6894 0.0
Co102 Co 0.3808 0.84582 0.92903 0.0
Co103 Co 0.40385 0.87373 0.94986 0.0
C104 C 0.41071 0.88253 0.92225 0.0
O105 O 0.39761 0.8675 0.91893 0.0
O106 O 0.41442 0.88655 0.93388 0.0
C107 C 0.3519 0.83094 0.90825 0.0
O108 O 0.34943 0.85114 0.90452 0.0
C109 C 0.42207 0.90984 0.96467 0.0
C110 C 0.42728 0.89376 0.98315 0.0
C111 C 0.43064 0.913 0.97667 0.0
N112 N 0.41402 0.8896 0.9641 0.0
N113 N 0.41687 0.88021 0.97523 0.0
C114 C 0.42408 0.92449 0.95343 0.0
H115 H 0.4395 0.92076 0.94847 0.0
H116 H 0.41037 0.92174 0.94682 0.0
H117 H 0.4244 0.94181 0.95622 0.0
C118 C 0.34256 0.85681 0.94493 0.0
N119 N 0.36362 0.859 0.94173 0.0
N120 N 0.37327 0.87162 0.95005 0.0
C121 C 0.35856 0.87853 0.95854 0.0
C122 C 0.33866 0.86912 0.95574 0.0
C123 C 0.32745 0.84106 0.93869 0.0
H124 H 0.33623 0.82583 0.93644 0.0
H125 H 0.32154 0.84818 0.92968 0.0
H126 H 0.31333 0.83713 0.94479 0.0
O127 O 0.4014 0.82553 0.93682 0.0
O128 O 0.4174 0.8449 0.95177 0.0
H129 H 0.3717 0.8849 0.9769 0.0
H130 H 0.34853 0.9015 0.9729 0.0
C131 C 0.36353 0.89388 0.96914 0.0
H132 H 0.3746 0.90683 0.96576 0.0
H133 H 0.41256 0.86419 0.97723 0.0
O134 O 0.36352 0.8268 0.91787 0.0
C135 C 0.41496 0.82715 0.94582 0.0
Co136 Co 0.39199 0.87026 0.32089 0.0
Co137 Co 0.36767 0.84811 0.29831 0.0
C138 C 0.35507 0.83922 0.32515 0.0
O139 O 0.36941 0.85221 0.32947 0.0
O140 O 0.35271 0.83629 0.3133 0.0
C141 C 0.40824 0.88399 0.34501 0.0
O142 O 0.39622 0.86797 0.34929 0.0
C143 C 0.3336 0.83082 0.28196 0.0
C144 C 0.35163 0.82481 0.26421 0.0
C145 C 0.33159 0.82203 0.26993 0.0
N146 N 0.35398 0.83811 0.28334 0.0
N147 N 0.36463 0.83468 0.27267 0.0
C148 C 0.31648 0.83283 0.29193 0.0
H149 H 0.31718 0.81845 0.29822 0.0
H150 H 0.31942 0.84752 0.29777 0.0
H151 H 0.30008 0.83369 0.2876 0.0
C152 C 0.38045 0.90946 0.30598 0.0
N153 N 0.37958 0.88794 0.30814 0.0
N154 N 0.36888 0.87858 0.29885 0.0
C155 C 0.36235 0.89379 0.29056 0.0
C156 C 0.36947 0.91389 0.2948 0.0
C157 C 0.39242 0.92522 0.31419 0.0
H158 H 0.41003 0.92148 0.31384 0.0
H159 H 0.38698 0.92332 0.32414 0.0
H160 H 0.3897 0.94223 0.3111 0.0
O161 O 0.41435 0.85054 0.31373 0.0
O162 O 0.39684 0.83556 0.29766 0.0
H163 H 0.3634 0.87902 0.27229 0.0
H164 H 0.34751 0.90347 0.27272 0.0
C165 C 0.35195 0.88869 0.2781 0.0
H166 H 0.33717 0.87879 0.2797 0.0
H167 H 0.38099 0.83843 0.2713 0.0
O168 O 0.4079 0.88839 0.33327 0.0
C169 C 0.41383 0.83759 0.30435 0.0
Co170 Co 0.37569 0.14608 0.56432 0.0
Co171 Co 0.39837 0.11894 0.543 0.0
C172 C 0.40713 0.1107 0.57059 0.0
O173 O 0.39374 0.12527 0.57418 0.0
O174 O 0.41036 0.10682 0.55888 0.0
C175 C 0.35033 0.16106 0.58638 0.0
O176 O 0.35166 0.14141 0.59116 0.0
C177 C 0.41632 0.08277 0.52808 0.0
C178 C 0.42098 0.09881 0.50953 0.0
C179 C 0.42455 0.07958 0.51598 0.0
N180 N 0.40828 0.10301 0.52871 0.0
N181 N 0.41084 0.11239 0.51755 0.0
C182 C 0.41872 0.06823 0.53934 0.0
H183 H 0.43456 0.07163 0.54392 0.0
H184 H 0.40554 0.07142 0.54625 0.0
H185 H 0.41842 0.05088 0.53665 0.0
C186 C 0.33667 0.13192 0.55011 0.0
N187 N 0.35818 0.13159 0.55232 0.0
N188 N 0.36773 0.11977 0.54356 0.0
C189 C 0.35259 0.11189 0.53562 0.0
C190 C 0.3324 0.11936 0.53949 0.0
C191 C 0.32078 0.14496 0.55765 0.0
H192 H 0.32506 0.16243 0.55696 0.0
H193 H 0.32192 0.14021 0.56775 0.0
H194 H 0.30389 0.14246 0.55431 0.0
O195 O 0.39513 0.16698 0.55589 0.0
O196 O 0.41064 0.14812 0.54056 0.0
H197 H 0.36666 0.1106 0.51716 0.0
H198 H 0.34298 0.09378 0.51885 0.0
C199 C 0.35775 0.09972 0.52372 0.0
H200 H 0.36834 0.08569 0.52598 0.0
H201 H 0.40649 0.12841 0.51558 0.0
O202 O 0.35845 0.16495 0.57557 0.0
C203 C 0.40805 0.1658 0.54654 0.0
Co204 Co 0.09199 0.12805 0.81929 0.0
Co205 Co 0.12073 0.15217 0.79936 0.0
C206 C 0.13226 0.1524 0.8268 0.0
O207 O 0.11613 0.14034 0.82969 0.0
O208 O 0.13588 0.15809 0.8154 0.0
C209 C 0.07694 0.09797 0.83916 0.0
O210 O 0.09717 0.0958 0.84288 0.0
C211 C 0.15632 0.17153 0.78469 0.0
C212 C 0.14003 0.17726 0.76634 0.0
C213 C 0.15935 0.18049 0.77276 0.0
N214 N 0.13604 0.16364 0.78531 0.0
N215 N 0.12644 0.167 0.7743 0.0
C216 C 0.17248 0.16975 0.7952 0.0
H217 H 0.16988 0.15443 0.80052 0.0
H218 H 0.18933 0.17015 0.79149 0.0
H219 H 0.17018 0.18354 0.80182 0.0
C220 C 0.09868 0.09201 0.80099 0.0
N221 N 0.10246 0.11232 0.80518 0.0
N222 N 0.11549 0.12226 0.7972 0.0
C223 C 0.12103 0.10844 0.7879 0.0
C224 C 0.11031 0.08891 0.78986 0.0
C225 C 0.08266 0.07683 0.80694 0.0
H226 H 0.06791 0.08593 0.80978 0.0
H227 H 0.08995 0.06968 0.81559 0.0
H228 H 0.07792 0.06358 0.80039 0.0
O229 O 0.07318 0.15214 0.81375 0.0
O230 O 0.09345 0.1687 0.79942 0.0
H231 H 0.12841 0.12271 0.76996 0.0
H232 H 0.14389 0.09861 0.77345 0.0
C233 C 0.13685 0.11362 0.77757 0.0
H234 H 0.1502 0.12383 0.78132 0.0
H235 H 0.1104 0.16271 0.77233 0.0
O236 O 0.07259 0.11002 0.82974 0.0
C237 C 0.07593 0.16719 0.80568 0.0
Co238 Co 0.11066 0.84218 0.06472 0.0
Co239 Co 0.08733 0.87022 0.04412 0.0
C240 C 0.08283 0.88021 0.0718 0.0
O241 O 0.09553 0.8648 0.07507 0.0
O242 O 0.07858 0.88389 0.06019 0.0
C243 C 0.14133 0.82613 0.08443 0.0
O244 O 0.14596 0.84616 0.08774 0.0
C245 C 0.07011 0.90718 0.02992 0.0
C246 C 0.06203 0.89186 0.0116 0.0
C247 C 0.06055 0.91117 0.01826 0.0
N248 N 0.07656 0.88638 0.0302 0.0
N249 N 0.07191 0.87736 0.01918 0.0
C250 C 0.07396 0.92292 0.04046 0.0
H251 H 0.08867 0.91826 0.04588 0.0
H252 H 0.07586 0.93966 0.03672 0.0
H253 H 0.05986 0.92261 0.04696 0.0
C254 C 0.14833 0.85162 0.04788 0.0
N255 N 0.12747 0.85428 0.05142 0.0
N256 N 0.11767 0.86687 0.04315 0.0
C257 C 0.13205 0.87323 0.03433 0.0
C258 C 0.1519 0.86355 0.03689 0.0
C259 C 0.16363 0.83604 0.0541 0.0
H260 H 0.15486 0.82096 0.0567 0.0
H261 H 0.17002 0.8435 0.0629 0.0
H262 H 0.17743 0.83181 0.04783 0.0
O263 O 0.08846 0.82258 0.05775 0.0
O264 O 0.07244 0.84202 0.04284 0.0
H265 H 0.11772 0.87973 0.01629 0.0
H266 H 0.14179 0.89557 0.01954 0.0
C267 C 0.12685 0.88855 0.02374 0.0
H268 H 0.11657 0.90197 0.02732 0.0
H269 H 0.0749 0.86112 0.01698 0.0
O270 O 0.12798 0.82264 0.07551 0.0
C271 C 0.07439 0.82447 0.04903 0.0
Co272 Co 0.59435 0.86273 0.8154 0.0
Co273 Co 0.62234 0.84096 0.79414 0.0
C274 C 0.63321 0.83516 0.82156 0.0
O275 O 0.61754 0.84732 0.82508 0.0
O276 O 0.63689 0.83152 0.80987 0.0
C277 C 0.57999 0.89133 0.83634 0.0
O278 O 0.60038 0.89434 0.83953 0.0
C279 C 0.65798 0.82386 0.77851 0.0
C280 C 0.64128 0.81961 0.76013 0.0
C281 C 0.66083 0.8162 0.76626 0.0
N282 N 0.63765 0.83152 0.77952 0.0
N283 N 0.62785 0.82916 0.76848 0.0
C284 C 0.67293 0.82117 0.78955 0.0
H285 H 0.66776 0.80666 0.79499 0.0
H286 H 0.67178 0.83556 0.79584 0.0
H287 H 0.69 0.81881 0.78661 0.0
C288 C 0.60177 0.90114 0.799 0.0
N289 N 0.60564 0.88038 0.80232 0.0
N290 N 0.61834 0.87136 0.79381 0.0
C291 C 0.62362 0.88626 0.78503 0.0
C292 C 0.61301 0.90552 0.78787 0.0
C293 C 0.58547 0.91535 0.80547 0.0
H294 H 0.57082 0.90572 0.80788 0.0
H295 H 0.59256 0.92155 0.81442 0.0
H296 H 0.58059 0.92929 0.79947 0.0
O297 O 0.57469 0.84089 0.80821 0.0
O298 O 0.59422 0.82578 0.79299 0.0
H299 H 0.62945 0.87367 0.76647 0.0
H300 H 0.64514 0.89752 0.77025 0.0
C301 C 0.63852 0.88211 0.77409 0.0
H302 H 0.6522 0.87165 0.77713 0.0
H303 H 0.61169 0.83333 0.76678 0.0
O304 O 0.57541 0.87942 0.8269 0.0
C305 C 0.57667 0.82727 0.79925 0.0
Co306 Co 0.87797 0.84733 0.56777 0.0
Co307 Co 0.90355 0.87095 0.54624 0.0
C308 C 0.90644 0.88447 0.5738 0.0
O309 O 0.89239 0.87072 0.57762 0.0
O310 O 0.91193 0.88562 0.56218 0.0
C311 C 0.85296 0.83172 0.58968 0.0
O312 O 0.85936 0.84911 0.59585 0.0
C313 C 0.92177 0.90694 0.53181 0.0
C314 C 0.93263 0.89048 0.51433 0.0
C315 C 0.93271 0.91033 0.5205 0.0
N316 N 0.91581 0.88602 0.53236 0.0
N317 N 0.9222 0.87628 0.52185 0.0
C318 C 0.91642 0.92325 0.54183 0.0
H319 H 0.90087 0.9189 0.54651 0.0
H320 H 0.91523 0.93981 0.53774 0.0
H321 H 0.92937 0.92316 0.54912 0.0
C322 C 0.84136 0.85799 0.55066 0.0
N323 N 0.86251 0.85877 0.55381 0.0
N324 N 0.87327 0.86885 0.5448 0.0
C325 C 0.85939 0.87484 0.53563 0.0
C326 C 0.83868 0.86817 0.53905 0.0
C327 C 0.82421 0.8475 0.55861 0.0
H328 H 0.82654 0.82963 0.55845 0.0
H329 H 0.82587 0.85302 0.56856 0.0
H330 H 0.80767 0.85145 0.55514 0.0
O331 O 0.90079 0.82656 0.56235 0.0
O332 O 0.91702 0.84221 0.54602 0.0
H333 H 0.87838 0.87394 0.51871 0.0
H334 H 0.85257 0.88714 0.51672 0.0
C335 C 0.86633 0.88473 0.52332 0.0
H336 H 0.87429 0.90057 0.52517 0.0
H337 H 0.91995 0.85979 0.51998 0.0
O338 O 0.85853 0.82919 0.57821 0.0
C339 C 0.91478 0.82625 0.55349 0.0
Co340 Co 0.89809 0.12288 0.31772 0.0
Co341 Co 0.87406 0.14733 0.29589 0.0
C342 C 0.86379 0.1558 0.32325 0.0
O343 O 0.87723 0.1415 0.32712 0.0
O344 O 0.86121 0.15968 0.31149 0.0
C345 C 0.90884 0.09684 0.34015 0.0
O346 O 0.88924 0.10089 0.34446 0.0
C347 C 0.83986 0.16675 0.28022 0.0
C348 C 0.8567 0.16966 0.26177 0.0
C349 C 0.83729 0.17405 0.26786 0.0
N350 N 0.85983 0.15823 0.28128 0.0
N351 N 0.86978 0.15995 0.27024 0.0
C352 C 0.825 0.17001 0.29128 0.0
H353 H 0.82323 0.15449 0.29651 0.0
H354 H 0.80884 0.17622 0.2885 0.0
H355 H 0.83247 0.18196 0.29781 0.0
C356 C 0.88298 0.08492 0.30295 0.0
N357 N 0.88375 0.1064 0.30521 0.0
N358 N 0.87316 0.11668 0.2962 0.0
C359 C 0.86504 0.10205 0.28801 0.0
C360 C 0.87103 0.08145 0.29201 0.0
C361 C 0.89434 0.06824 0.31081 0.0
H362 H 0.91207 0.07144 0.31066 0.0
H363 H 0.88876 0.06962 0.32077 0.0
H364 H 0.89112 0.05154 0.30736 0.0
O365 O 0.92084 0.14149 0.31016 0.0
O366 O 0.90399 0.15791 0.29436 0.0
H367 H 0.86595 0.11619 0.26957 0.0
H368 H 0.84764 0.09357 0.27079 0.0
C369 C 0.85409 0.10795 0.27583 0.0
H370 H 0.84055 0.11934 0.27777 0.0
H371 H 0.8857 0.1549 0.26856 0.0
O372 O 0.91446 0.10403 0.32938 0.0
C373 C 0.92101 0.1545 0.30082 0.0
Co374 Co 0.61569 0.14231 0.0692 0.0
Co375 Co 0.59394 0.12164 0.04526 0.0
C376 C 0.58113 0.10864 0.0717 0.0
O377 O 0.5952 0.12098 0.07689 0.0
O378 O 0.57911 0.10772 0.05971 0.0
C379 C 0.62676 0.15996 0.09331 0.0
O380 O 0.60822 0.15118 0.09672 0.0
C381 C 0.57818 0.08817 0.02789 0.0
C382 C 0.57109 0.10761 0.01078 0.0
C383 C 0.56953 0.08689 0.01578 0.0
N384 N 0.58454 0.10873 0.02991 0.0
N385 N 0.58058 0.12019 0.01958 0.0
C386 C 0.57799 0.07106 0.03796 0.0
H387 H 0.56125 0.06934 0.04172 0.0
H388 H 0.58912 0.07552 0.04578 0.0
H389 H 0.58307 0.05515 0.0341 0.0
C390 C 0.65521 0.12814 0.05549 0.0
N391 N 0.63351 0.129 0.05687 0.0
N392 N 0.6243 0.11999 0.04694 0.0
C393 C 0.63979 0.11293 0.03897 0.0
C394 C 0.65991 0.11783 0.04414 0.0
C395 C 0.67098 0.13823 0.0645 0.0
H396 H 0.66907 0.15615 0.06425 0.0
H397 H 0.66731 0.13272 0.07427 0.0
H398 H 0.68798 0.13392 0.06208 0.0
O399 O 0.59847 0.16626 0.06173 0.0
O400 O 0.58418 0.15188 0.04444 0.0
H401 H 0.6256 0.11656 0.02063 0.0
H402 H 0.65026 0.10088 0.02058 0.0
C403 C 0.63523 0.10441 0.02596 0.0
H404 H 0.62546 0.08934 0.02671 0.0
H405 H 0.58351 0.13681 0.01876 0.0
O406 O 0.63371 0.15688 0.08214 0.0
C407 C 0.58685 0.16791 0.05183 0.0
Co408 Co 0.59184 0.13063 0.67645 0.0
Co409 Co 0.62349 0.1509 0.6963 0.0
C410 C 0.63067 0.15723 0.66866 0.0
O411 O 0.6141 0.14575 0.66585 0.0
O412 O 0.63618 0.16035 0.68013 0.0
C413 C 0.57616 0.10191 0.6563 0.0
O414 O 0.59656 0.09823 0.65335 0.0
C415 C 0.66232 0.16517 0.71 0.0
C416 C 0.64887 0.17098 0.72911 0.0
C417 C 0.6677 0.17259 0.722 0.0
N418 N 0.64123 0.15967 0.71002 0.0
N419 N 0.63332 0.16306 0.72148 0.0
C420 C 0.67697 0.16241 0.69882 0.0
H421 H 0.67152 0.14845 0.69299 0.0
H422 H 0.694 0.15981 0.70189 0.0
H423 H 0.67624 0.17726 0.69291 0.0
C424 C 0.60006 0.09171 0.69238 0.0
N425 N 0.60441 0.11226 0.68881 0.0
N426 N 0.61869 0.12067 0.69666 0.0
C427 C 0.62449 0.10556 0.70519 0.0
C428 C 0.61261 0.08682 0.70294 0.0
C429 C 0.58212 0.07832 0.68686 0.0
H430 H 0.56786 0.08875 0.68486 0.0
H431 H 0.58772 0.07118 0.67778 0.0
H432 H 0.57713 0.06502 0.69331 0.0
O433 O 0.57358 0.15265 0.6848 0.0
O434 O 0.59605 0.16674 0.69894 0.0
H435 H 0.63315 0.11834 0.72331 0.0
H436 H 0.647 0.0935 0.71923 0.0
C437 C 0.64082 0.10915 0.71547 0.0
H438 H 0.65468 0.11871 0.71177 0.0
H439 H 0.61716 0.16035 0.72401 0.0
O440 O 0.57165 0.11444 0.66547 0.0
C441 C 0.57749 0.16594 0.69372 0.0
Co442 Co 0.61501 0.84035 0.42875 0.0
Co443 Co 0.59329 0.86915 0.44968 0.0
C444 C 0.58613 0.87775 0.42202 0.0
O445 O 0.59832 0.86197 0.4187 0.0
O446 O 0.58301 0.88236 0.43365 0.0
C447 C 0.6393 0.82513 0.40658 0.0
O448 O 0.63514 0.84397 0.40127 0.0
C449 C 0.57463 0.90502 0.46448 0.0
C450 C 0.57226 0.8898 0.48341 0.0
C451 C 0.56724 0.90846 0.47674 0.0
N452 N 0.58373 0.88522 0.464 0.0
N453 N 0.58244 0.87631 0.47535 0.0
C454 C 0.57031 0.91857 0.45301 0.0
H455 H 0.58513 0.91927 0.44704 0.0
H456 H 0.56503 0.93524 0.45541 0.0
H457 H 0.55726 0.91072 0.4474 0.0
C458 C 0.65432 0.853 0.44303 0.0
N459 N 0.63281 0.85401 0.44092 0.0
N460 N 0.6238 0.86642 0.44959 0.0
C461 C 0.63932 0.87399 0.45739 0.0
C462 C 0.65917 0.86565 0.45351 0.0
C463 C 0.66979 0.83983 0.43525 0.0
H464 H 0.66838 0.84474 0.42519 0.0
H465 H 0.68683 0.84208 0.43838 0.0
H466 H 0.66533 0.82241 0.43593 0.0
O467 O 0.59409 0.82036 0.43681 0.0
O468 O 0.57902 0.84076 0.45163 0.0
H469 H 0.6265 0.87686 0.47608 0.0
H470 H 0.64991 0.89359 0.47336 0.0
C471 C 0.63486 0.8872 0.46901 0.0
H472 H 0.62402 0.90096 0.46658 0.0
H473 H 0.58771 0.86062 0.47747 0.0
O474 O 0.63259 0.82137 0.41773 0.0
C475 C 0.58067 0.82277 0.44584 0.0
Co476 Co 0.89818 0.86529 0.17773 0.0
Co477 Co 0.87353 0.84206 0.19978 0.0
C478 C 0.86374 0.83291 0.17229 0.0
O479 O 0.87717 0.84705 0.1682 0.0
O480 O 0.86126 0.82947 0.1841 0.0
C481 C 0.91194 0.89155 0.15564 0.0
O482 O 0.89224 0.89001 0.15096 0.0
C483 C 0.83743 0.82437 0.21454 0.0
C484 C 0.85337 0.81807 0.23295 0.0
C485 C 0.83399 0.81559 0.22647 0.0
N486 N 0.85792 0.83174 0.21404 0.0
N487 N 0.86728 0.82817 0.2251 0.0
C488 C 0.82285 0.82324 0.20323 0.0
H489 H 0.82527 0.83782 0.19721 0.0
H490 H 0.80553 0.82195 0.2059 0.0
H491 H 0.82719 0.8087 0.19757 0.0
C492 C 0.88323 0.90406 0.19188 0.0
N493 N 0.88392 0.88248 0.18997 0.0
N494 N 0.87336 0.87267 0.19916 0.0
C495 C 0.86548 0.88767 0.2072 0.0
C496 C 0.87146 0.90807 0.20284 0.0
C497 C 0.89426 0.92036 0.18358 0.0
H498 H 0.88877 0.91806 0.17367 0.0
H499 H 0.89064 0.93724 0.18657 0.0
H500 H 0.91205 0.91759 0.18384 0.0
O501 O 0.91993 0.84608 0.18573 0.0
O502 O 0.90306 0.83076 0.2019 0.0
H503 H 0.86605 0.87244 0.22536 0.0
H504 H 0.85019 0.89694 0.22498 0.0
C505 C 0.85477 0.88228 0.21954 0.0
H506 H 0.84002 0.87242 0.21771 0.0
H507 H 0.88345 0.83187 0.22713 0.0
O508 O 0.9162 0.88307 0.16631 0.0
C509 C 0.92001 0.83351 0.19527 0.0
Co510 Co 0.87342 0.1504 0.92823 0.0
Co511 Co 0.89746 0.12562 0.9499 0.0
C512 C 0.90526 0.11552 0.92232 0.0
O513 O 0.89141 0.12939 0.91838 0.0
O514 O 0.90884 0.11286 0.93409 0.0
C515 C 0.84944 0.165 0.90571 0.0
O516 O 0.85647 0.14758 0.89982 0.0
C517 C 0.91431 0.08897 0.96426 0.0
C518 C 0.92398 0.10456 0.98224 0.0
C519 C 0.92432 0.08498 0.97579 0.0
N520 N 0.90863 0.10997 0.96387 0.0
N521 N 0.91427 0.11919 0.97467 0.0
C522 C 0.90935 0.0731 0.95394 0.0
H523 H 0.89464 0.07827 0.94868 0.0
H524 H 0.90692 0.05657 0.95788 0.0
H525 H 0.92314 0.07262 0.94721 0.0
C526 C 0.83533 0.13567 0.94314 0.0
N527 N 0.85681 0.13619 0.94083 0.0
N528 N 0.86698 0.12567 0.94989 0.0
C529 C 0.85238 0.118 0.95823 0.0
C530 C 0.83182 0.12404 0.95421 0.0
C531 C 0.81869 0.14684 0.93516 0.0
H532 H 0.82103 0.14219 0.9251 0.0
H533 H 0.80194 0.14256 0.93814 0.0
H534 H 0.82097 0.16467 0.93589 0.0
O535 O 0.89301 0.17234 0.93584 0.0
O536 O 0.90903 0.15509 0.95165 0.0
H537 H 0.86953 0.11821 0.97581 0.0
H538 H 0.84399 0.10406 0.97653 0.0
C539 C 0.85834 0.10743 0.97052 0.0
H540 H 0.86697 0.09199 0.96857 0.0
H541 H 0.912 0.13561 0.97674 0.0
O542 O 0.85437 0.16796 0.91725 0.0
C543 C 0.90609 0.17217 0.94515 0.0
Co544 Co 0.90069 0.62966 0.67684 0.0
Co545 Co 0.87458 0.65399 0.69795 0.0
C546 C 0.86326 0.65894 0.67056 0.0
O547 O 0.8779 0.64555 0.66705 0.0
O548 O 0.86039 0.66351 0.6822 0.0
C549 C 0.91185 0.60062 0.65574 0.0
O550 O 0.89134 0.60117 0.65235 0.0
C551 C 0.83967 0.67306 0.71324 0.0
C552 C 0.85651 0.67817 0.7315 0.0
C553 C 0.83699 0.68152 0.72531 0.0
N554 N 0.85986 0.665 0.71238 0.0
N555 N 0.86976 0.66789 0.72335 0.0
C556 C 0.82462 0.67494 0.70217 0.0
H557 H 0.8249 0.65963 0.69663 0.0
H558 H 0.80775 0.67867 0.70504 0.0
H559 H 0.83043 0.68823 0.69596 0.0
C560 C 0.89096 0.59243 0.69384 0.0
N561 N 0.88877 0.61335 0.69034 0.0
N562 N 0.87672 0.62351 0.69875 0.0
C563 C 0.87018 0.60928 0.70761 0.0
C564 C 0.87927 0.58917 0.70495 0.0
C565 C 0.90591 0.57675 0.68741 0.0
H566 H 0.92114 0.58512 0.68467 0.0
H567 H 0.89803 0.57069 0.67865 0.0
H568 H 0.90995 0.56277 0.69358 0.0
O569 O 0.92175 0.6511 0.68334 0.0
O570 O 0.90347 0.66756 0.69862 0.0
H571 H 0.86445 0.62307 0.72588 0.0
H572 H 0.8474 0.60005 0.72225 0.0
C573 C 0.85516 0.61481 0.71828 0.0
H574 H 0.84229 0.62595 0.7149 0.0
H575 H 0.88583 0.66348 0.72512 0.0
O576 O 0.91797 0.61101 0.66549 0.0
C577 C 0.92067 0.66514 0.69213 0.0
Co578 Co 0.61437 0.64808 0.92439 0.0
Co579 Co 0.59234 0.61928 0.94515 0.0
C580 C 0.58645 0.60962 0.91767 0.0
O581 O 0.59865 0.62541 0.91435 0.0
O582 O 0.58284 0.60547 0.9293 0.0
C583 C 0.64412 0.6635 0.90411 0.0
O584 O 0.64811 0.64332 0.90083 0.0
C585 C 0.57459 0.58336 0.96025 0.0
C586 C 0.57078 0.59925 0.97889 0.0
C587 C 0.56684 0.58007 0.97245 0.0
N588 N 0.58246 0.60364 0.95951 0.0
N589 N 0.58027 0.613 0.9707 0.0
C590 C 0.57516 0.56747 0.94956 0.0
H591 H 0.56029 0.56946 0.94378 0.0
H592 H 0.58947 0.57062 0.94344 0.0
H593 H 0.57581 0.55055 0.95316 0.0
C594 C 0.65261 0.63958 0.94088 0.0
N595 N 0.6319 0.63599 0.93733 0.0
N596 N 0.6227 0.62281 0.94554 0.0
C597 C 0.6374 0.6169 0.95426 0.0
C598 C 0.65672 0.62765 0.95179 0.0
C599 C 0.66701 0.65624 0.93488 0.0
H600 H 0.65744 0.67097 0.93258 0.0
H601 H 0.67361 0.64959 0.92591 0.0
H602 H 0.6807 0.66082 0.94115 0.0
O603 O 0.59277 0.66776 0.9319 0.0
O604 O 0.57763 0.6475 0.94676 0.0
H605 H 0.62456 0.61002 0.97265 0.0
H606 H 0.64826 0.59432 0.96858 0.0
C607 C 0.63296 0.60135 0.96485 0.0
H608 H 0.62237 0.588 0.96148 0.0
H609 H 0.58479 0.62898 0.97264 0.0
O610 O 0.63131 0.66743 0.91325 0.0
C611 C 0.57923 0.66539 0.94086 0.0
Co612 Co 0.59072 0.361 0.18041 0.0
Co613 Co 0.62271 0.33799 0.19912 0.0
C614 C 0.62982 0.33617 0.1712 0.0
O615 O 0.61288 0.34753 0.16902 0.0
O616 O 0.63573 0.33171 0.18247 0.0
C617 C 0.57304 0.38933 0.16049 0.0
O618 O 0.59229 0.38926 0.15513 0.0
C619 C 0.65892 0.31658 0.21228 0.0
C620 C 0.64633 0.31586 0.23191 0.0
C621 C 0.66355 0.30929 0.22441 0.0
N622 N 0.63989 0.3272 0.21265 0.0
N623 N 0.6325 0.32677 0.2244 0.0
C624 C 0.67051 0.31105 0.20026 0.0
H625 H 0.65928 0.30199 0.19397 0.0
H626 H 0.67519 0.32626 0.19533 0.0
H627 H 0.68511 0.30093 0.20187 0.0
C628 C 0.60024 0.39799 0.19747 0.0
N629 N 0.60342 0.37741 0.19359 0.0
N630 N 0.6177 0.36803 0.20104 0.0
C631 C 0.62474 0.38257 0.20962 0.0
C632 C 0.61368 0.40194 0.20778 0.0
C633 C 0.5831 0.41261 0.19216 0.0
H634 H 0.56803 0.40322 0.19045 0.0
H635 H 0.58875 0.41918 0.18295 0.0
H636 H 0.57934 0.42628 0.19863 0.0
O637 O 0.57278 0.33748 0.18738 0.0
O638 O 0.59551 0.32118 0.20051 0.0
H639 H 0.63529 0.37083 0.22764 0.0
H640 H 0.65055 0.39366 0.22183 0.0
C641 C 0.64239 0.37832 0.21904 0.0
H642 H 0.65461 0.36708 0.21499 0.0
H643 H 0.6176 0.33326 0.22719 0.0
O644 O 0.57006 0.37891 0.17072 0.0
C645 C 0.57696 0.32257 0.19532 0.0
Co646 Co 0.88065 0.34355 0.427 0.0
Co647 Co 0.90507 0.37378 0.44603 0.0
C648 C 0.9061 0.38223 0.41817 0.0
O649 O 0.8937 0.36615 0.41578 0.0
O650 O 0.9116 0.3869 0.42946 0.0
C651 C 0.85354 0.32773 0.40632 0.0
O652 O 0.85652 0.34677 0.40097 0.0
C653 C 0.92268 0.41197 0.45887 0.0
C654 C 0.9315 0.39827 0.47752 0.0
C655 C 0.93237 0.41708 0.47034 0.0
N656 N 0.91665 0.39104 0.45922 0.0
N657 N 0.92184 0.38297 0.4704 0.0
C658 C 0.91819 0.42678 0.44796 0.0
H659 H 0.90292 0.42189 0.44317 0.0
H660 H 0.91684 0.44389 0.45116 0.0
H661 H 0.93165 0.42552 0.44102 0.0
C662 C 0.84454 0.3529 0.44474 0.0
N663 N 0.86498 0.35592 0.44059 0.0
N664 N 0.87506 0.36935 0.44827 0.0
C665 C 0.86123 0.37579 0.45738 0.0
C666 C 0.84149 0.3654 0.45555 0.0
C667 C 0.82922 0.33663 0.43915 0.0
H668 H 0.83799 0.32125 0.43726 0.0
H669 H 0.82307 0.3429 0.42998 0.0
H670 H 0.81531 0.33321 0.44551 0.0
O671 O 0.90431 0.32483 0.43339 0.0
O672 O 0.92103 0.34623 0.44712 0.0
H673 H 0.87659 0.3837 0.47492 0.0
H674 H 0.85196 0.39876 0.47193 0.0
C675 C 0.86678 0.39185 0.46751 0.0
H676 H 0.87651 0.40528 0.46344 0.0
H677 H 0.91915 0.36687 0.47307 0.0
O678 O 0.86188 0.32393 0.41708 0.0
C679 C 0.91927 0.32811 0.44146 0.0
Co680 Co 0.89135 0.36854 0.81924 0.0
Co681 Co 0.8681 0.3429 0.79749 0.0
C682 C 0.85438 0.33781 0.82441 0.0
O683 O 0.86808 0.35188 0.82824 0.0
O684 O 0.85282 0.3329 0.81275 0.0
C685 C 0.90822 0.3823 0.84281 0.0
O686 O 0.89651 0.36584 0.84681 0.0
C687 C 0.83563 0.3213 0.78179 0.0
C688 C 0.85383 0.31598 0.76401 0.0
C689 C 0.83429 0.31158 0.76997 0.0
N690 N 0.8552 0.33067 0.78284 0.0
N691 N 0.86595 0.32761 0.77216 0.0
C692 C 0.81849 0.32235 0.79181 0.0
H693 H 0.8197 0.33793 0.79704 0.0
H694 H 0.80204 0.32082 0.78761 0.0
H695 H 0.82099 0.30889 0.79862 0.0
C696 C 0.88268 0.40488 0.80143 0.0
N697 N 0.88028 0.38412 0.8052 0.0
N698 N 0.86931 0.37342 0.79653 0.0
C699 C 0.86368 0.38711 0.78719 0.0
C700 C 0.87227 0.40745 0.78983 0.0
C701 C 0.89694 0.42091 0.80808 0.0
H702 H 0.91175 0.41267 0.81161 0.0
H703 H 0.88808 0.42757 0.81637 0.0
H704 H 0.9018 0.43446 0.80177 0.0
O705 O 0.91379 0.34779 0.81356 0.0
O706 O 0.89748 0.33056 0.79782 0.0
H707 H 0.86086 0.37245 0.76892 0.0
H708 H 0.84279 0.39513 0.77142 0.0
C709 C 0.85034 0.38073 0.77594 0.0
H710 H 0.83735 0.36934 0.77888 0.0
H711 H 0.88182 0.33289 0.77058 0.0
O712 O 0.90703 0.38774 0.83123 0.0
C713 C 0.91399 0.33366 0.80479 0.0
Co714 Co 0.87288 0.64427 0.06846 0.0
Co715 Co 0.89721 0.61684 0.04795 0.0
C716 C 0.90214 0.6071 0.07549 0.0
O717 O 0.88887 0.62208 0.07863 0.0
O718 O 0.9067 0.60337 0.06393 0.0
C719 C 0.8486 0.6587 0.09076 0.0
O720 O 0.85478 0.64065 0.09632 0.0
C721 C 0.91665 0.58152 0.03316 0.0
C722 C 0.92082 0.59744 0.01455 0.0
C723 C 0.9248 0.57832 0.02105 0.0
N724 N 0.90846 0.60168 0.03379 0.0
N725 N 0.91092 0.61108 0.02263 0.0
C726 C 0.91584 0.56562 0.04385 0.0
H727 H 0.90096 0.56827 0.04957 0.0
H728 H 0.91607 0.54867 0.04027 0.0
H729 H 0.93012 0.56818 0.05007 0.0
C730 C 0.83611 0.6348 0.05131 0.0
N731 N 0.85671 0.6317 0.05516 0.0
N732 N 0.86675 0.6191 0.047 0.0
C733 C 0.8527 0.6131 0.03792 0.0
C734 C 0.83292 0.62316 0.04018 0.0
C735 C 0.82109 0.651 0.05724 0.0
H736 H 0.82998 0.66637 0.059 0.0
H737 H 0.81551 0.64466 0.06652 0.0
H738 H 0.80681 0.65447 0.05119 0.0
O739 O 0.89413 0.66507 0.06155 0.0
O740 O 0.9107 0.64571 0.04678 0.0
H741 H 0.86682 0.60769 0.0197 0.0
H742 H 0.84338 0.59106 0.02296 0.0
C743 C 0.85823 0.59832 0.02714 0.0
H744 H 0.86903 0.58511 0.03047 0.0
H745 H 0.90617 0.62697 0.02062 0.0
O746 O 0.854 0.66221 0.07934 0.0
C747 C 0.90818 0.66339 0.05279 0.0
Co748 Co 0.59193 0.63273 0.31498 0.0
Co749 Co 0.61899 0.65584 0.29374 0.0
C750 C 0.6316 0.65965 0.32083 0.0
O751 O 0.61597 0.64742 0.32431 0.0
O752 O 0.63478 0.66416 0.30922 0.0
C753 C 0.58029 0.61033 0.33809 0.0
O754 O 0.59914 0.61715 0.34232 0.0
C755 C 0.65354 0.67407 0.27785 0.0
C756 C 0.63632 0.67829 0.25963 0.0
C757 C 0.65599 0.68185 0.2656 0.0
N758 N 0.63334 0.66613 0.27901 0.0
N759 N 0.6232 0.66851 0.26807 0.0
C760 C 0.66884 0.6765 0.28877 0.0
H761 H 0.67002 0.66086 0.29394 0.0
H762 H 0.68522 0.68184 0.2858 0.0
H763 H 0.66218 0.68878 0.29538 0.0
C764 C 0.59975 0.59505 0.29815 0.0
N765 N 0.60257 0.61601 0.30136 0.0
N766 N 0.61483 0.62553 0.29282 0.0
C767 C 0.62077 0.61082 0.28407 0.0
C768 C 0.61119 0.59107 0.28704 0.0
C769 C 0.58484 0.5799 0.30503 0.0
H770 H 0.56968 0.58854 0.30763 0.0
H771 H 0.5928 0.57446 0.3139 0.0
H772 H 0.58065 0.56551 0.29921 0.0
O773 O 0.57167 0.65533 0.30887 0.0
O774 O 0.5911 0.67137 0.2939 0.0
H775 H 0.62694 0.62348 0.26558 0.0
H776 H 0.64341 0.60029 0.26966 0.0
C777 C 0.63599 0.61544 0.27335 0.0
H778 H 0.64911 0.62645 0.27656 0.0
H779 H 0.60707 0.66408 0.2665 0.0
O780 O 0.5748 0.61456 0.32677 0.0
C781 C 0.57378 0.66982 0.30037 0.0
Co782 Co 0.61113 0.34068 0.56252 0.0
Co783 Co 0.5891 0.37078 0.54238 0.0
C784 C 0.58401 0.37915 0.57009 0.0
O785 O 0.59632 0.36322 0.57299 0.0
O786 O 0.5799 0.38388 0.55859 0.0
C787 C 0.64051 0.32486 0.58259 0.0
O788 O 0.64437 0.3451 0.58579 0.0
C789 C 0.56968 0.40669 0.5279 0.0
C790 C 0.57064 0.39317 0.5085 0.0
C791 C 0.56388 0.41097 0.51545 0.0
N792 N 0.57965 0.38732 0.52823 0.0
N793 N 0.58023 0.37936 0.51661 0.0
C794 C 0.56334 0.41902 0.53954 0.0
H795 H 0.57807 0.42272 0.54518 0.0
H796 H 0.55451 0.43422 0.53737 0.0
H797 H 0.55264 0.4086 0.54539 0.0
C798 C 0.64969 0.35059 0.54662 0.0
N799 N 0.62866 0.35321 0.54978 0.0
N800 N 0.61957 0.36692 0.54184 0.0
C801 C 0.63471 0.37415 0.53368 0.0
C802 C 0.6542 0.36379 0.53627 0.0
C803 C 0.66437 0.33416 0.55259 0.0
H804 H 0.6551 0.31924 0.55489 0.0
H805 H 0.67098 0.34093 0.56152 0.0
H806 H 0.67807 0.32983 0.54626 0.0
O807 O 0.58885 0.32188 0.55495 0.0
O808 O 0.57371 0.34291 0.54046 0.0
H809 H 0.62412 0.38368 0.51522 0.0
H810 H 0.64618 0.39968 0.52136 0.0
C811 C 0.63083 0.39129 0.52389 0.0
H812 H 0.61907 0.40345 0.52747 0.0
H813 H 0.58663 0.36419 0.51429 0.0
O814 O 0.62784 0.32078 0.57341 0.0
C815 C 0.57505 0.32483 0.54618 0.0
Co816 Co 0.09159 0.36194 0.31364 0.0
Co817 Co 0.124 0.33892 0.29515 0.0
C818 C 0.13068 0.33743 0.32311 0.0
O819 O 0.11364 0.34872 0.32518 0.0
O820 O 0.13679 0.3329 0.31189 0.0
C821 C 0.07332 0.39028 0.33337 0.0
O822 O 0.09252 0.39052 0.33878 0.0
C823 C 0.16045 0.31738 0.28228 0.0
C824 C 0.14798 0.31597 0.26265 0.0
C825 C 0.16513 0.30962 0.27025 0.0
N826 N 0.14145 0.32804 0.28175 0.0
N827 N 0.13416 0.32724 0.26999 0.0
C828 C 0.17195 0.31223 0.29439 0.0
H829 H 0.16087 0.30284 0.3006 0.0
H830 H 0.17606 0.32759 0.29933 0.0
H831 H 0.1869 0.30258 0.29286 0.0
C832 C 0.10131 0.39888 0.29655 0.0
N833 N 0.10443 0.37832 0.30047 0.0
N834 N 0.11881 0.36891 0.29309 0.0
C835 C 0.12592 0.38339 0.2845 0.0
C836 C 0.11485 0.40278 0.28626 0.0
C837 C 0.08418 0.41358 0.30182 0.0
H838 H 0.06902 0.40427 0.30342 0.0
H839 H 0.08973 0.42002 0.31108 0.0
H840 H 0.08063 0.42734 0.29538 0.0
O841 O 0.07394 0.3382 0.30667 0.0
O842 O 0.09695 0.3219 0.29371 0.0
H843 H 0.13662 0.37143 0.26656 0.0
H844 H 0.15177 0.39441 0.27227 0.0
C845 C 0.14365 0.37909 0.27513 0.0
H846 H 0.15589 0.36795 0.27925 0.0
H847 H 0.11927 0.33362 0.2671 0.0
O848 O 0.07059 0.37974 0.32317 0.0
C849 C 0.07833 0.32321 0.29882 0.0
Co850 Co 0.38062 0.34142 0.06826 0.0
Co851 Co 0.40342 0.37184 0.04864 0.0
C852 C 0.40554 0.38108 0.07631 0.0
O853 O 0.3937 0.3647 0.07897 0.0
O854 O 0.41045 0.38572 0.06491 0.0
C855 C 0.35096 0.32695 0.08817 0.0
O856 O 0.34896 0.34746 0.09139 0.0
C857 C 0.42122 0.40902 0.03475 0.0
C858 C 0.42675 0.39447 0.01588 0.0
C859 C 0.42963 0.41333 0.02282 0.0
N860 N 0.41398 0.38847 0.03487 0.0
N861 N 0.4172 0.3799 0.02356 0.0
C862 C 0.41929 0.42423 0.04573 0.0
H863 H 0.40419 0.42075 0.0511 0.0
H864 H 0.41912 0.44138 0.04251 0.0
H865 H 0.4333 0.42177 0.05216 0.0
C866 C 0.34344 0.3495 0.05098 0.0
N867 N 0.36398 0.35303 0.05483 0.0
N868 N 0.3734 0.36669 0.04699 0.0
C869 C 0.35901 0.37283 0.03812 0.0
C870 C 0.33964 0.36193 0.04022 0.0
C871 C 0.32867 0.33296 0.05678 0.0
H872 H 0.33802 0.31816 0.05923 0.0
H873 H 0.3217 0.33968 0.06564 0.0
H874 H 0.31525 0.32844 0.0503 0.0
O875 O 0.40431 0.32298 0.06166 0.0
O876 O 0.41997 0.34461 0.04764 0.0
H877 H 0.37254 0.38123 0.02014 0.0
H878 H 0.34837 0.39623 0.02418 0.0
C879 C 0.36361 0.38919 0.02798 0.0
H880 H 0.37379 0.40248 0.03183 0.0
H881 H 0.41331 0.36393 0.02117 0.0
O882 O 0.36298 0.32184 0.07887 0.0
C883 C 0.41889 0.32654 0.05339 0.0
Co884 Co 0.39602 0.62871 0.8173 0.0
Co885 Co 0.36774 0.65171 0.79671 0.0
C886 C 0.35917 0.65843 0.8243 0.0
O887 O 0.37437 0.64545 0.82753 0.0
O888 O 0.3549 0.6621 0.8127 0.0
C889 C 0.41184 0.59841 0.83738 0.0
O890 O 0.39186 0.59423 0.84098 0.0
C891 C 0.33175 0.67016 0.782 0.0
C892 C 0.34713 0.6737 0.7632 0.0
C893 C 0.3282 0.6779 0.76984 0.0
N894 N 0.35194 0.66202 0.78254 0.0
N895 N 0.361 0.66407 0.77126 0.0
C896 C 0.31614 0.66972 0.79285 0.0
H897 H 0.3184 0.68459 0.79861 0.0
H898 H 0.31935 0.65541 0.79895 0.0
H899 H 0.29913 0.66921 0.7894 0.0
C900 C 0.38578 0.5907 0.80102 0.0
N901 N 0.38293 0.61153 0.80455 0.0
N902 N 0.37 0.62116 0.79639 0.0
C903 C 0.3635 0.60661 0.7877 0.0
C904 C 0.37358 0.58692 0.79016 0.0
C905 C 0.4022 0.57589 0.8069 0.0
H906 H 0.41718 0.5851 0.80914 0.0
H907 H 0.39553 0.56935 0.81588 0.0
H908 H 0.40643 0.56216 0.80057 0.0
O909 O 0.41624 0.64941 0.80952 0.0
O910 O 0.3965 0.66534 0.79472 0.0
H911 H 0.35703 0.6198 0.76936 0.0
H912 H 0.34066 0.59649 0.77333 0.0
C913 C 0.34812 0.61156 0.77711 0.0
H914 H 0.33507 0.62249 0.78051 0.0
H915 H 0.37685 0.65931 0.76915 0.0
O916 O 0.41527 0.61139 0.82826 0.0
C917 C 0.41438 0.66298 0.80054 0.0
Co918 Co 0.11614 0.64225 0.57034 0.0
Co919 Co 0.09224 0.62338 0.54668 0.0
C920 C 0.08302 0.60765 0.57329 0.0
O921 O 0.09751 0.61972 0.57829 0.0
O922 O 0.07956 0.60787 0.56139 0.0
C923 C 0.12811 0.66117 0.59372 0.0
O924 O 0.10897 0.65375 0.59713 0.0
C925 C 0.07434 0.59077 0.52972 0.0
C926 C 0.06647 0.61017 0.51273 0.0
C927 C 0.06472 0.58955 0.51788 0.0
N928 N 0.08113 0.6112 0.53156 0.0
N929 N 0.07657 0.6227 0.52134 0.0
C930 C 0.07775 0.57283 0.53906 0.0
H931 H 0.06378 0.57229 0.54568 0.0
H932 H 0.09267 0.5759 0.54468 0.0
H933 H 0.07902 0.55693 0.53418 0.0
C934 C 0.15436 0.62949 0.55495 0.0
N935 N 0.1328 0.63053 0.55693 0.0
N936 N 0.1227 0.62242 0.54704 0.0
C937 C 0.13743 0.61594 0.53843 0.0
C938 C 0.15801 0.62014 0.54318 0.0
C939 C 0.171 0.63771 0.56408 0.0
H940 H 0.16715 0.63176 0.57373 0.0
H941 H 0.18759 0.63237 0.5614 0.0
H942 H 0.17041 0.65571 0.56427 0.0
O943 O 0.09686 0.66601 0.56448 0.0
O944 O 0.08179 0.65337 0.54694 0.0
H945 H 0.12095 0.62033 0.52082 0.0
H946 H 0.14613 0.6058 0.51934 0.0
C947 C 0.13167 0.60822 0.52541 0.0
H948 H 0.12258 0.59272 0.52613 0.0
H949 H 0.07981 0.63926 0.52039 0.0
O950 O 0.13526 0.65663 0.58277 0.0
C951 C 0.08446 0.66845 0.55497 0.0
Co952 Co 0.0949 0.62989 0.17689 0.0
Co953 Co 0.1258 0.65265 0.19629 0.0
C954 C 0.13339 0.65603 0.16835 0.0
O955 O 0.11704 0.64406 0.16577 0.0
O956 O 0.13855 0.66036 0.17976 0.0
C957 C 0.07699 0.60316 0.15624 0.0
O958 O 0.09576 0.6048 0.15041 0.0
C959 C 0.16358 0.67044 0.20966 0.0
C960 C 0.14966 0.67639 0.22863 0.0
C961 C 0.16827 0.67917 0.22146 0.0
N962 N 0.14305 0.66316 0.20983 0.0
N963 N 0.13487 0.6666 0.22122 0.0
C964 C 0.1784 0.66835 0.19852 0.0
H965 H 0.17638 0.68278 0.19236 0.0
H966 H 0.17421 0.65365 0.19295 0.0
H967 H 0.1956 0.6674 0.2016 0.0
C968 C 0.10463 0.59236 0.19355 0.0
N969 N 0.10773 0.61306 0.18987 0.0
N970 N 0.12139 0.62249 0.19769 0.0
C971 C 0.12793 0.60796 0.2064 0.0
C972 C 0.11733 0.58845 0.20418 0.0
C973 C 0.08797 0.57765 0.1878 0.0
H974 H 0.0725 0.58661 0.18659 0.0
H975 H 0.0936 0.57248 0.17829 0.0
H976 H 0.08493 0.56309 0.19371 0.0
O977 O 0.07647 0.65283 0.18422 0.0
O978 O 0.09825 0.66855 0.19811 0.0
H979 H 0.13605 0.6216 0.22438 0.0
H980 H 0.15124 0.59748 0.22044 0.0
C981 C 0.14415 0.61267 0.21659 0.0
H982 H 0.15741 0.62293 0.21277 0.0
H983 H 0.11898 0.66277 0.22382 0.0
O984 O 0.07442 0.61209 0.16697 0.0
C985 C 0.07995 0.66712 0.19265 0.0
Co986 Co 0.11663 0.33852 0.92879 0.0
Co987 Co 0.09352 0.37172 0.9467 0.0
C988 C 0.09123 0.37668 0.91869 0.0
O989 O 0.10292 0.35979 0.91697 0.0
O990 O 0.08664 0.38342 0.92978 0.0
C991 C 0.14525 0.31985 0.90933 0.0
O992 O 0.14529 0.33885 0.90368 0.0
C993 C 0.07422 0.40965 0.95947 0.0
C994 C 0.071 0.39685 0.97894 0.0
C995 C 0.06646 0.41474 0.97145 0.0
N996 N 0.08275 0.38959 0.95988 0.0
N997 N 0.08083 0.38209 0.97154 0.0
C998 C 0.07421 0.42363 0.94789 0.0
H999 H 0.08897 0.42043 0.94217 0.0
H1000 H 0.0736 0.44109 0.95045 0.0
H1001 H 0.0598 0.41959 0.94205 0.0
C1002 C 0.15347 0.34912 0.94572 0.0
N1003 N 0.13303 0.35226 0.94159 0.0
N1004 N 0.12358 0.36703 0.94868 0.0
C1005 C 0.13789 0.37433 0.9573 0.0
C1006 C 0.15721 0.36303 0.95585 0.0
C1007 C 0.168 0.33145 0.94093 0.0
H1008 H 0.15851 0.31631 0.93966 0.0
H1009 H 0.17461 0.33624 0.93156 0.0
H1010 H 0.18165 0.32817 0.9475 0.0
O1011 O 0.09328 0.32087 0.93625 0.0
O1012 O 0.077 0.34452 0.94882 0.0
H1013 H 0.12483 0.38511 0.97496 0.0
H1014 H 0.14856 0.39982 0.96989 0.0
C1015 C 0.1333 0.39205 0.96662 0.0
H1016 H 0.12275 0.40456 0.96226 0.0
H1017 H 0.08586 0.36665 0.97438 0.0
O1018 O 0.13465 0.31735 0.91953 0.0
C1019 C 0.07842 0.3256 0.94412 0.0
Co1020 Co 0.40075 0.36351 0.67825 0.0
Co1021 Co 0.37096 0.34145 0.69848 0.0
C1022 C 0.36406 0.33397 0.6708 0.0
O1023 O 0.37961 0.34663 0.6677 0.0
O1024 O 0.35911 0.33079 0.68236 0.0
C1025 C 0.41668 0.38899 0.65661 0.0
O1026 O 0.39751 0.38651 0.65136 0.0
C1027 C 0.3331 0.32495 0.71223 0.0
C1028 C 0.347 0.31943 0.73125 0.0
C1029 C 0.32824 0.31693 0.72418 0.0
N1030 N 0.35384 0.3316 0.71223 0.0
N1031 N 0.36203 0.3284 0.72364 0.0
C1032 C 0.31821 0.32725 0.70113 0.0
H1033 H 0.31937 0.31245 0.69519 0.0
H1034 H 0.32309 0.34141 0.69529 0.0
H1035 H 0.30114 0.32923 0.7043 0.0
C1036 C 0.38967 0.40209 0.69383 0.0
N1037 N 0.38688 0.38114 0.69053 0.0
N1038 N 0.37348 0.37189 0.69858 0.0
C1039 C 0.36672 0.38675 0.70702 0.0
C1040 C 0.37703 0.40629 0.70448 0.0
C1041 C 0.40637 0.41659 0.68795 0.0
H1042 H 0.42193 0.40767 0.68702 0.0
H1043 H 0.40095 0.42118 0.6783 0.0
H1044 H 0.40914 0.43151 0.6936 0.0
O1045 O 0.42047 0.34283 0.68667 0.0
O1046 O 0.39943 0.32775 0.7012 0.0
H1047 H 0.3596 0.37344 0.72525 0.0
H1048 H 0.344 0.39735 0.72137 0.0
C1049 C 0.35105 0.38214 0.71753 0.0
H1050 H 0.33771 0.37169 0.714 0.0
H1051 H 0.37803 0.33192 0.72614 0.0
O1052 O 0.42024 0.38104 0.6675 0.0
C1053 C 0.41774 0.32962 0.69578 0.0
Co1054 Co 0.37257 0.65437 0.42878 0.0
Co1055 Co 0.39637 0.62374 0.44791 0.0
C1056 C 0.40301 0.61911 0.4201 0.0
O1057 O 0.39017 0.63488 0.4178 0.0
O1058 O 0.4066 0.61271 0.43137 0.0
C1059 C 0.34477 0.66838 0.40797 0.0
O1060 O 0.34588 0.64834 0.40376 0.0
C1061 C 0.418 0.58781 0.46125 0.0
C1062 C 0.41783 0.60026 0.4809 0.0
C1063 C 0.42482 0.58313 0.47348 0.0
N1064 N 0.40723 0.60677 0.46152 0.0
N1065 N 0.40716 0.61408 0.47328 0.0
C1066 C 0.42405 0.57637 0.44925 0.0
H1067 H 0.43427 0.58736 0.44344 0.0
H1068 H 0.40913 0.57272 0.44376 0.0
H1069 H 0.43327 0.56124 0.45095 0.0
C1070 C 0.33453 0.63917 0.44348 0.0
N1071 N 0.35581 0.6386 0.4406 0.0
N1072 N 0.36569 0.6251 0.44834 0.0
C1073 C 0.3509 0.61616 0.45615 0.0
C1074 C 0.3307 0.62492 0.4534 0.0
C1075 C 0.31846 0.65387 0.43721 0.0
H1076 H 0.32426 0.6709 0.43782 0.0
H1077 H 0.31727 0.64952 0.42705 0.0
H1078 H 0.30212 0.65252 0.44156 0.0
O1079 O 0.39263 0.67442 0.43739 0.0
O1080 O 0.4096 0.65252 0.45069 0.0
H1081 H 0.3631 0.61104 0.47482 0.0
H1082 H 0.3419 0.59253 0.47045 0.0
C1083 C 0.35637 0.60132 0.46692 0.0
H1084 H 0.36869 0.5893 0.46386 0.0
H1085 H 0.40039 0.62889 0.47602 0.0
O1086 O 0.35425 0.67337 0.41823 0.0
C1087 C 0.40679 0.67124 0.44593 0.0
C1088 C 0.29708 0.17534 0.23294 0.0
C1089 C 0.31856 0.18276 0.23377 0.0
C1090 C 0.28011 0.18791 0.23775 0.0
C1091 C 0.26727 0.23221 0.25979 0.0
H1092 H 0.21924 0.2434 0.23698 0.0
C1093 C 0.20432 0.29944 0.26936 0.0
C1094 C 0.18263 0.29479 0.26643 0.0
C1095 C 0.22077 0.28509 0.26579 0.0
C1096 C 0.23235 0.2402 0.24355 0.0
H1097 H 0.33946 0.20821 0.24097 0.0
H1098 H 0.30982 0.23014 0.24948 0.0
H1099 H 0.24798 0.21857 0.23059 0.0
H1100 H 0.1609 0.27196 0.25737 0.0
H1101 H 0.18949 0.24662 0.25132 0.0
H1102 H 0.25163 0.25374 0.27279 0.0
C1103 C 0.30605 0.21476 0.24502 0.0
C1104 C 0.2488 0.22599 0.23987 0.0
C1105 C 0.32297 0.20228 0.24012 0.0
C1106 C 0.17758 0.27583 0.25971 0.0
C1107 C 0.19396 0.2614 0.25622 0.0
C1108 C 0.25072 0.24631 0.26352 0.0
C1109 C 0.28444 0.20788 0.24366 0.0
C1110 C 0.26647 0.22199 0.24792 0.0
C1111 C 0.21574 0.26586 0.25922 0.0
C1112 C 0.23314 0.25057 0.2554 0.0
H1113 H 0.2934 0.15984 0.22861 0.0
H1114 H 0.26361 0.18204 0.23683 0.0
H1115 H 0.28066 0.22923 0.26621 0.0
H1116 H 0.20856 0.31425 0.27431 0.0
H1117 H 0.23742 0.28922 0.26801 0.0
C1118 C 0.94627 0.93451 0.50336 0.0
C1119 C 0.94491 0.92962 0.5163 0.0
C1120 C 0.95957 0.95137 0.49915 0.0
C1121 C 0.98892 0.00033 0.50973 0.0
H1122 H 0.02451 0.98913 0.48014 0.0
C1123 C 0.05597 0.0594 0.49335 0.0
C1124 C 0.05634 0.06392 0.48032 0.0
C1125 C 0.04328 0.04241 0.49804 0.0
C1126 C 0.01457 0.99253 0.48837 0.0
H1127 H 0.95696 0.93805 0.53497 0.0
H1128 H 0.97989 0.96762 0.52766 0.0
H1129 H -0.00054 0.96131 0.48763 0.0
H1130 H 0.04289 0.05484 0.46209 0.0
H1131 H 0.02122 0.02506 0.47019 0.0
H1132 H 0.00404 0.0316 0.51043 0.0
C1133 C 0.97026 0.95882 0.52079 0.0
C1134 C 0.00018 0.97666 0.49262 0.0
C1135 C 0.95696 0.94197 0.52499 0.0
C1136 C 0.0438 0.05118 0.47208 0.0
C1137 C 0.03118 0.0342 0.47675 0.0
C1138 C 0.00335 0.01622 0.50547 0.0
C1139 C 0.97192 0.96351 0.50781 0.0
C1140 C 0.98711 0.98044 0.5033 0.0
C1141 C 0.03065 0.02975 0.48978 0.0
C1142 C 0.01622 0.01251 0.4947 0.0
H1143 H 0.93723 0.92512 0.49647 0.0
H1144 H 0.96033 0.9548 0.4891 0.0
H1145 H 0.97891 0.00377 0.51792 0.0
H1146 H 0.06535 0.06914 0.49991 0.0
H1147 H 0.04327 0.03924 0.50813 0.0
C1148 C 0.29966 0.70639 0.77256 0.0
C1149 C 0.30981 0.6907 0.76495 0.0
C1150 C 0.28385 0.72003 0.76748 0.0
C1151 C 0.24618 0.72653 0.74071 0.0
H1152 H 0.24996 0.78767 0.74931 0.0
C1153 C 0.19371 0.791 0.71592 0.0
C1154 C 0.18388 0.80648 0.72382 0.0
C1155 C 0.20982 0.7773 0.72064 0.0
C1156 C 0.2486 0.77062 0.74691 0.0
H1157 H 0.3115 0.67695 0.74609 0.0
H1158 H 0.28388 0.70094 0.73716 0.0
H1159 H 0.2759 0.76215 0.75837 0.0
H1160 H 0.18301 0.81976 0.7428 0.0
H1161 H 0.21107 0.7957 0.7511 0.0
H1162 H 0.21883 0.73501 0.72927 0.0
C1163 C 0.28789 0.70242 0.7471 0.0
C1164 C 0.2634 0.75601 0.75211 0.0
C1165 C 0.30373 0.68878 0.75219 0.0
C1166 C 0.19052 0.80811 0.73649 0.0
C1167 C 0.20664 0.79442 0.74121 0.0
C1168 C 0.23137 0.74115 0.73551 0.0
C1169 C 0.27802 0.71838 0.75467 0.0
C1170 C 0.26228 0.73381 0.74911 0.0
C1171 C 0.21627 0.77871 0.73336 0.0
C1172 C 0.2324 0.76333 0.73858 0.0
H1173 H 0.30451 0.70882 0.78229 0.0
H1174 H 0.2764 0.73209 0.77355 0.0
H1175 H 0.2448 0.70948 0.73834 0.0
H1176 H 0.18843 0.78883 0.70624 0.0
H1177 H 0.21704 0.76541 0.71436 0.0
C1178 C 0.43763 0.95251 0.98012 0.0
C1179 C 0.44458 0.93089 0.98098 0.0
C1180 C 0.45151 0.96937 0.98365 0.0
C1181 C 0.5007 0.98115 0.00235 0.0
H1182 H 0.50407 0.0322 0.98092 0.0
C1183 C 0.56483 0.04768 0.01026 0.0
C1184 C 0.55684 0.06899 0.01029 0.0
C1185 C 0.55181 0.03063 0.00599 0.0
C1186 C 0.5032 0.01809 0.98703 0.0
H1187 H 0.47091 0.90967 0.98656 0.0
H1188 H 0.4953 0.93909 0.99265 0.0
H1189 H 0.47932 0.00278 0.97535 0.0
H1190 H 0.52964 0.08955 0.00527 0.0
H1191 H 0.50687 0.05981 -0.00223 0.0
H1192 H 0.52457 -0.00353 0.01402 0.0
C1193 C 0.47916 0.94311 0.98931 0.0
C1194 C 0.48899 0.0013 0.98387 0.0
C1195 C 0.46527 0.92628 0.98581 0.0
C1196 C 0.53611 0.07319 0.00537 0.0
C1197 C 0.52312 0.0562 0.00107 0.0
C1198 C 0.51495 -0.00209 0.00548 0.0
C1199 C 0.47251 0.96484 0.98816 0.0
C1200 C 0.48754 0.98269 0.99153 0.0
C1201 C 0.5307 0.0347 0.00155 0.0
C1202 C 0.51627 0.01657 -0.00212 0.0
H1203 H 0.42147 0.95635 0.97677 0.0
H1204 H 0.44577 0.98595 0.98292 0.0
H1205 H 0.49974 0.96715 0.00853 0.0
H1206 H 0.58112 0.04418 0.0135 0.0
H1207 H 0.55824 0.01426 0.00618 0.0
C1208 C 0.19419 0.69098 0.23816 0.0
C1209 C 0.18745 0.69172 0.22548 0.0
C1210 C 0.21082 0.70452 0.24241 0.0
C1211 C 0.23701 0.75649 0.23494 0.0
H1212 H 0.28017 0.73698 0.2591 0.0
C1213 C 0.30911 0.80952 0.25172 0.0
C1214 C 0.31372 0.80887 0.26473 0.0
C1215 C 0.29371 0.79547 0.24652 0.0
C1216 C 0.26809 0.74269 0.25243 0.0
H1217 H 0.19244 0.70769 0.20739 0.0
H1218 H 0.22196 0.73066 0.21468 0.0
H1219 H 0.25411 0.71107 0.25053 0.0
H1220 H 0.30639 0.7925 0.28241 0.0
H1221 H 0.27912 0.76854 0.27345 0.0
H1222 H 0.251 0.78814 0.2369 0.0
C1223 C 0.21441 0.71962 0.22134 0.0
C1224 C 0.25321 0.72786 0.24752 0.0
C1225 C 0.19777 0.70611 0.21709 0.0
C1226 C 0.30264 0.79399 0.27245 0.0
C1227 C 0.28733 0.77993 0.26727 0.0
C1228 C 0.25195 0.77131 0.23983 0.0
C1229 C 0.2209 0.71918 0.23408 0.0
C1230 C 0.2374 0.73464 0.2388 0.0
C1231 C 0.2829 0.78034 0.25424 0.0
C1232 C 0.26748 0.76458 0.24872 0.0
H1233 H 0.18631 0.68021 0.24484 0.0
H1234 H 0.21525 0.70402 0.25233 0.0
H1235 H 0.22481 0.76227 0.22838 0.0
H1236 H 0.31766 0.82068 0.24555 0.0
H1237 H 0.29074 0.79598 0.23642 0.0
C1238 C 0.53381 0.92119 0.48757 0.0
C1239 C 0.55333 0.92614 0.48139 0.0
C1240 C 0.51991 0.93776 0.49147 0.0
C1241 C 0.50678 0.99493 0.48492 0.0
H1242 H 0.47588 0.99141 0.51687 0.0
C1243 C 0.45834 0.06644 0.50573 0.0
C1244 C 0.43832 0.06169 0.51143 0.0
C1245 C 0.47205 0.04972 0.50183 0.0
C1246 C 0.48421 0.99247 0.50785 0.0
H1247 H 0.57453 0.95205 0.47515 0.0
H1248 H 0.55025 0.98122 0.48201 0.0
H1249 H 0.50129 0.96273 0.51102 0.0
H1250 H 0.41608 0.03599 0.51667 0.0
H1251 H 0.44025 0.00658 0.51002 0.0
H1252 H 0.48979 0.02474 0.4818 0.0
C1253 C 0.54535 0.96452 0.48351 0.0
C1254 C 0.49877 0.97608 0.50452 0.0
C1255 C 0.55922 0.94791 0.47959 0.0
C1256 C 0.43183 0.03999 0.51276 0.0
C1257 C 0.44558 0.02322 0.50889 0.0
C1258 C 0.49227 0.01133 0.48828 0.0
C1259 C 0.52542 0.95961 0.48936 0.0
C1260 C 0.51022 0.97715 0.49302 0.0
C1261 C 0.4659 0.02795 0.50349 0.0
C1262 C 0.48086 0.01027 0.49978 0.0
H1263 H 0.529 0.90446 0.48908 0.0
H1264 H 0.5046 0.93343 0.49584 0.0
H1265 H 0.51506 -0.00399 0.4759 0.0
H1266 H 0.46364 0.0831 0.50458 0.0
H1267 H 0.48768 0.05385 0.49779 0.0
C1268 C 0.18334 0.19233 0.75511 0.0
C1269 C 0.17775 0.19337 0.76797 0.0
C1270 C 0.19945 0.20587 0.75021 0.0
C1271 C 0.22654 0.25791 0.75632 0.0
H1272 H 0.26965 0.2362 0.73274 0.0
C1273 C 0.30214 0.30685 0.7412 0.0
C1274 C 0.30865 0.30533 0.72849 0.0
C1275 C 0.28513 0.29407 0.74575 0.0
C1276 C 0.25753 0.24257 0.73918 0.0
H1277 H 0.18406 0.20993 0.78572 0.0
H1278 H 0.21264 0.23307 0.77729 0.0
H1279 H 0.24258 0.21145 0.74141 0.0
H1280 H 0.30274 0.28886 0.71066 0.0
H1281 H 0.27263 0.26719 0.71846 0.0
H1282 H 0.24155 0.28902 0.75412 0.0
C1283 C 0.20461 0.22175 0.77099 0.0
C1284 C 0.24208 0.22838 0.74416 0.0
C1285 C 0.18854 0.20819 0.77587 0.0
C1286 C 0.29766 0.29101 0.72037 0.0
C1287 C 0.28066 0.27825 0.72491 0.0
C1288 C 0.24199 0.2721 0.75134 0.0
C1289 C 0.21009 0.22086 0.75809 0.0
C1290 C 0.22648 0.2359 0.7528 0.0
C1291 C 0.27445 0.2794 0.73769 0.0
C1292 C 0.25765 0.26456 0.74273 0.0
H1293 H 0.17506 0.1812 0.7488 0.0
H1294 H 0.20316 0.20501 0.7402 0.0
H1295 H 0.21447 0.26422 0.76281 0.0
H1296 H 0.3105 0.31761 0.74768 0.0
H1297 H 0.28087 0.29512 0.75568 0.0
C1298 C 0.04797 0.93621 0.00125 0.0
C1299 C 0.04826 0.93043 0.0141 0.0
C1300 C 0.03475 0.95314 -0.00297 0.0
C1301 C 0.00418 0.00101 0.00797 0.0
H1302 H 0.96991 0.99128 0.97769 0.0
C1303 C 0.93654 0.05986 0.99283 0.0
C1304 C 0.93607 0.06541 0.97995 0.0
C1305 C 0.94945 0.0427 -0.00296 0.0
C1306 C 0.97951 0.99429 0.9861 0.0
H1307 H 0.03419 0.93726 0.03252 0.0
H1308 H 0.01158 0.967 0.02525 0.0
H1309 H 0.99528 0.96343 0.98481 0.0
H1310 H 0.94934 0.05783 0.96144 0.0
H1311 H 0.97156 0.02779 0.96871 0.0
H1312 H 0.98849 0.0319 0.00925 0.0
C1313 C 0.02198 0.95885 0.01848 0.0
C1314 C 0.99406 0.9784 0.99015 0.0
C1315 C 0.03513 0.94191 0.02267 0.0
C1316 C 0.94861 0.0534 0.97133 0.0
C1317 C 0.96151 0.03627 0.97553 0.0
C1318 C 0.98965 0.01692 0.00391 0.0
C1319 C 0.02149 0.96449 0.0056 0.0
C1320 C 0.00653 0.98161 0.00112 0.0
C1321 C 0.96227 0.03091 0.98844 0.0
C1322 C 0.97716 0.01372 0.99294 0.0
H1323 H 0.05781 0.92748 0.99443 0.0
H1324 H 0.03481 0.95728 0.98707 0.0
H1325 H 0.01376 0.00401 0.01638 0.0
H1326 H 0.92712 0.06899 -0.00033 0.0
H1327 H 0.94954 0.03877 0.00703 0.0
C1328 C 0.67492 0.78318 0.75559 0.0
C1329 C 0.67902 0.80336 0.76126 0.0
C1330 C 0.69208 0.77022 0.75147 0.0
C1331 C 0.75022 0.76107 0.75685 0.0
H1332 H 0.74672 0.72841 0.72552 0.0
C1333 C 0.82301 0.71489 0.73566 0.0
C1334 C 0.81885 0.69459 0.73017 0.0
C1335 C 0.8059 0.72798 0.73971 0.0
C1336 C 0.7478 0.73724 0.73437 0.0
H1337 H 0.70386 0.8267 0.76622 0.0
H1338 H 0.73405 0.80399 0.75904 0.0
H1339 H 0.71699 0.75247 0.73151 0.0
H1340 H 0.79392 0.67118 0.72545 0.0
H1341 H 0.76381 0.69415 0.73246 0.0
H1342 H 0.78104 0.74584 0.75971 0.0
C1343 C 0.71763 0.7979 0.75812 0.0
C1344 C 0.73082 0.75104 0.73778 0.0
C1345 C 0.70043 0.81085 0.76225 0.0
C1346 C 0.7974 0.68712 0.72927 0.0
C1347 C 0.78025 0.70022 0.7333 0.0
C1348 C 0.76721 0.74728 0.75344 0.0
C1349 C 0.71363 0.77733 0.75285 0.0
C1350 C 0.73186 0.76308 0.74906 0.0
C1351 C 0.78433 0.72089 0.73842 0.0
C1352 C 0.76616 0.73522 0.74217 0.0
H1353 H 0.65847 0.77714 0.7547 0.0
H1354 H 0.6885 0.75438 0.74753 0.0
H1355 H 0.7513 0.76986 0.76571 0.0
H1356 H 0.83948 0.7209 0.7365 0.0
H1357 H 0.80953 0.74389 0.74354 0.0
C1358 C 0.82322 0.20495 0.25517 0.0
C1359 C 0.81907 0.18625 0.26236 0.0
C1360 C 0.80609 0.21721 0.25035 0.0
C1361 C 0.74916 0.22955 0.25643 0.0
H1362 H 0.75018 0.25381 0.22255 0.0
C1363 C 0.67669 0.27666 0.23589 0.0
C1364 C 0.68132 0.29503 0.22852 0.0
C1365 C 0.69333 0.26277 0.23967 0.0
C1366 C 0.74979 0.24735 0.23209 0.0
H1367 H 0.79405 0.16449 0.2692 0.0
H1368 H 0.76392 0.18622 0.26099 0.0
H1369 H 0.77956 0.22997 0.22943 0.0
H1370 H 0.70684 0.31406 0.21984 0.0
H1371 H 0.73614 0.28991 0.22657 0.0
H1372 H 0.71968 0.24719 0.25922 0.0
C1373 C 0.78041 0.19169 0.25937 0.0
C1374 C 0.76655 0.23366 0.23599 0.0
C1375 C 0.79758 0.17937 0.26413 0.0
C1376 C 0.70289 0.29966 0.22526 0.0
C1377 C 0.71959 0.28583 0.22909 0.0
C1378 C 0.73248 0.24333 0.25256 0.0
C1379 C 0.78452 0.21087 0.25258 0.0
C1380 C 0.7664 0.22468 0.24821 0.0
C1381 C 0.71497 0.26718 0.23629 0.0
C1382 C 0.73264 0.25242 0.24035 0.0
H1383 H 0.83972 0.21043 0.25358 0.0
H1384 H 0.80971 0.23198 0.24519 0.0
H1385 H 0.74883 0.22312 0.26598 0.0
H1386 H 0.66012 0.27282 0.23852 0.0
H1387 H 0.6892 0.24842 0.24508 0.0
C1388 C 0.80743 0.2817 0.77314 0.0
C1389 C 0.81736 0.29689 0.7651 0.0
C1390 C 0.79227 0.26702 0.76839 0.0
C1391 C 0.77436 0.24079 0.73891 0.0
H1392 H 0.72169 0.22973 0.75799 0.0
C1393 C 0.69947 0.19711 0.71835 0.0
C1394 C 0.68791 0.18302 0.72634 0.0
C1395 C 0.71694 0.20908 0.72301 0.0
C1396 C 0.73648 0.23237 0.75265 0.0
H1397 H 0.81981 0.30831 0.74576 0.0
H1398 H 0.79299 0.28275 0.73741 0.0
H1399 H 0.74841 0.25521 0.76619 0.0
H1400 H 0.68571 0.17006 0.74537 0.0
H1401 H 0.71641 0.19092 0.75353 0.0
H1402 H 0.7622 0.21811 0.72528 0.0
C1403 C 0.79696 0.28219 0.7474 0.0
C1404 C 0.75174 0.24701 0.75733 0.0
C1405 C 0.81217 0.29689 0.75217 0.0
C1406 C 0.69442 0.18077 0.739 0.0
C1407 C 0.71189 0.19275 0.74367 0.0
C1408 C 0.75905 0.22614 0.73421 0.0
C1409 C 0.78687 0.26711 0.75547 0.0
C1410 C 0.77079 0.25144 0.75049 0.0
C1411 C 0.72305 0.20734 0.73578 0.0
C1412 C 0.73993 0.22186 0.74102 0.0
H1413 H 0.81181 0.28064 0.78303 0.0
H1414 H 0.78514 0.25526 0.77478 0.0
H1415 H 0.78906 0.24363 0.73353 0.0
H1416 H 0.69436 0.19986 0.70869 0.0
H1417 H 0.72497 0.2205 0.71677 0.0
C1418 C 0.79416 0.81021 0.22974 0.0
C1419 C 0.81548 0.80249 0.23082 0.0
C1420 C 0.77672 0.79714 0.2334 0.0
C1421 C 0.76271 0.74981 0.25304 0.0
H1422 H 0.7129 0.7454 0.23074 0.0
C1423 C 0.69553 0.68673 0.26135 0.0
C1424 C 0.67418 0.69441 0.26038 0.0
C1425 C 0.71282 0.69952 0.25718 0.0
C1426 C 0.72662 0.74662 0.23711 0.0
H1427 H 0.8356 0.77567 0.23699 0.0
H1428 H 0.80518 0.75276 0.24338 0.0
H1429 H 0.74295 0.76937 0.22511 0.0
H1430 H 0.65382 0.7207 0.25375 0.0
H1431 H 0.68403 0.74321 0.24653 0.0
H1432 H 0.7464 0.72716 0.26507 0.0
C1433 C 0.80185 0.76885 0.23972 0.0
C1434 C 0.74378 0.76036 0.23391 0.0
C1435 C 0.81923 0.7819 0.23604 0.0
C1436 C 0.67022 0.71454 0.25463 0.0
C1437 C 0.68749 0.72736 0.25048 0.0
C1438 C 0.74556 0.7361 0.25625 0.0
C1439 C 0.78041 0.77625 0.23831 0.0
C1440 C 0.762 0.76206 0.24184 0.0
C1441 C 0.70899 0.72013 0.25191 0.0
C1442 C 0.72735 0.73434 0.24831 0.0
H1443 H 0.79097 0.82637 0.22615 0.0
H1444 H 0.76038 0.80342 0.23247 0.0
H1445 H 0.77643 0.75103 0.25942 0.0
H1446 H 0.69884 0.67093 0.26541 0.0
H1447 H 0.72919 0.69332 0.25814 0.0
C1448 C 0.5561 0.55593 0.99029 0.0
C1449 C 0.55418 0.5617 0.97749 0.0
C1450 C 0.54267 0.53997 0.99547 0.0
C1451 C 0.48969 0.514 0.99045 0.0
H1452 H 0.51175 0.47023 0.01347 0.0
C1453 C 0.44016 0.43908 0.00574 0.0
C1454 C 0.44178 0.43251 0.01842 0.0
C1455 C 0.45321 0.45582 0.00113 0.0
C1456 C 0.50531 0.48254 0.00719 0.0
H1457 H 0.53618 0.55581 0.96016 0.0
H1458 H 0.51334 0.52749 0.96906 0.0
H1459 H 0.53658 0.49696 0.00448 0.0
H1460 H 0.45874 0.43786 0.03615 0.0
H1461 H 0.48105 0.4675 0.0282 0.0
H1462 H 0.45845 0.49951 0.9931 0.0
C1463 C 0.52523 0.53526 0.9751 0.0
C1464 C 0.51952 0.4978 0.00203 0.0
C1465 C 0.53865 0.55119 0.96993 0.0
C1466 C 0.45657 0.44305 0.02645 0.0
C1467 C 0.46965 0.45976 0.02184 0.0
C1468 C 0.47548 0.49875 0.9956 0.0
C1469 C 0.52693 0.52967 0.98795 0.0
C1470 C 0.51187 0.5136 0.99355 0.0
C1471 C 0.46828 0.46613 0.00909 0.0
C1472 C 0.48317 0.48281 0.00398 0.0
H1473 H 0.56778 0.56399 0.99635 0.0
H1474 H 0.54418 0.53617 0.00544 0.0
H1475 H 0.48326 0.52625 0.98412 0.0
H1476 H 0.42903 0.43102 -0.00066 0.0
H1477 H 0.452 0.46019 0.99122 0.0
C1478 C 0.05221 0.56801 0.49927 0.0
C1479 C 0.05203 0.57159 0.51239 0.0
C1480 C 0.03886 0.55213 0.49393 0.0
C1481 C 0.98846 0.52214 0.50016 0.0
H1482 H 0.01037 0.48132 0.4753 0.0
C1483 C 0.9433 0.44376 0.48683 0.0
C1484 C 0.9436 0.43719 0.47411 0.0
C1485 C 0.95547 0.46161 0.49076 0.0
C1486 C 0.00392 0.49283 0.48208 0.0
H1487 H 0.03709 0.56206 0.53015 0.0
H1488 H 0.01435 0.53401 0.52092 0.0
H1489 H 0.0343 0.50954 0.48357 0.0
H1490 H 0.95741 0.44376 0.4556 0.0
H1491 H 0.9781 0.47535 0.46237 0.0
H1492 H 0.95815 0.50537 0.49877 0.0
C1493 C 0.02485 0.54337 0.51475 0.0
C1494 C 0.01763 0.50893 0.48682 0.0
C1495 C 0.03822 0.55915 0.52007 0.0
C1496 C 0.95622 0.44886 0.46537 0.0
C1497 C 0.9684 0.46673 0.4693 0.0
C1498 C 0.97475 0.50609 0.4954 0.0
C1499 C 0.02489 0.53983 0.50162 0.0
C1500 C 0.0101 0.52353 0.49604 0.0
C1501 C 0.96834 0.47314 0.48206 0.0
C1502 C 0.98241 0.4911 0.48644 0.0
H1503 H 0.06255 0.57761 0.49314 0.0
H1504 H 0.03906 0.54985 0.48376 0.0
H1505 H 0.98212 0.53346 0.50708 0.0
H1506 H 0.93388 0.43488 0.49378 0.0
H1507 H 0.95536 0.46595 0.5007 0.0
C1508 C 0.05558 0.44102 0.98814 0.0
C1509 C 0.0536 0.43361 0.97563 0.0
C1510 C 0.04172 0.45707 0.99275 0.0
C1511 C 0.00382 0.50018 0.98323 0.0
H1512 H 0.9783 0.48955 0.01624 0.0
C1513 C 0.93547 0.55393 0.00331 0.0
C1514 C 0.93748 0.55992 0.01607 0.0
C1515 C 0.94884 0.53787 -0.0018 0.0
C1516 C 0.98543 0.49284 0.00707 0.0
H1517 H 0.03524 0.43688 0.95821 0.0
H1518 H 0.01131 0.46522 0.96619 0.0
H1519 H 0.00427 0.46371 0.00754 0.0
H1520 H 0.95556 0.55442 0.03339 0.0
H1521 H 0.97874 0.52633 0.02455 0.0
H1522 H 0.98511 0.52942 0.9828 0.0
C1523 C 0.02388 0.45891 0.97234 0.0
C1524 C 0.00032 0.47808 0.0021 0.0
C1525 C 0.03773 0.4428 0.96773 0.0
C1526 C 0.95304 0.54956 0.02366 0.0
C1527 C 0.96643 0.53355 0.01856 0.0
C1528 C 0.98896 0.515 0.98822 0.0
C1529 C 0.02551 0.46591 0.98496 0.0
C1530 C 0.00974 0.48166 0.99017 0.0
C1531 C 0.96461 0.52767 0.00575 0.0
C1532 C 0.97969 0.51153 0.00022 0.0
H1533 H 0.06764 0.43412 0.99443 0.0
H1534 H 0.04351 0.46237 0.00248 0.0
H1535 H 0.01097 0.50341 0.97405 0.0
H1536 H 0.92367 0.56181 -0.00275 0.0
H1537 H 0.9469 0.53351 0.98833 0.0
C1538 C 0.53335 0.42473 0.50235 0.0
C1539 C 0.55077 0.42905 0.51051 0.0
C1540 C 0.52022 0.44161 0.49801 0.0
C1541 C 0.50334 0.49698 0.5062 0.0
H1542 H 0.48234 0.49841 0.47159 0.0
C1543 C 0.45656 0.56987 0.48574 0.0
C1544 C 0.43888 0.56532 0.47781 0.0
C1545 C 0.4703 0.55324 0.48972 0.0
C1546 C 0.48789 0.49808 0.48132 0.0
H1547 H 0.56927 0.4543 0.51982 0.0
H1548 H 0.54623 0.48396 0.5123 0.0
H1549 H 0.507 0.46957 0.4782 0.0
H1550 H 0.4207 0.53985 0.46847 0.0
H1551 H 0.44481 0.51061 0.47539 0.0
H1552 H 0.48419 0.52543 0.50933 0.0
C1553 C 0.54233 0.46748 0.50954 0.0
C1554 C 0.50203 0.48161 0.48509 0.0
C1555 C 0.55546 0.45057 0.51386 0.0
C1556 C 0.43468 0.54379 0.47425 0.0
C1557 C 0.44843 0.52712 0.47823 0.0
C1558 C 0.48921 0.51344 0.50242 0.0
C1559 C 0.52443 0.46313 0.50169 0.0
C1560 C 0.50987 0.48088 0.49757 0.0
C1561 C 0.46646 0.53171 0.48593 0.0
C1562 C 0.48132 0.51414 0.48995 0.0
H1563 H 0.52952 0.40823 0.49958 0.0
H1564 H 0.50645 0.43774 0.49206 0.0
H1565 H 0.50884 0.49662 0.51593 0.0
H1566 H 0.46002 0.58639 0.48865 0.0
H1567 H 0.48416 0.55729 0.49556 0.0
C1568 C 0.35247 0.16954 0.14995 0.0
C1569 C 0.34919 0.17105 0.1631 0.0
C1570 C 0.34426 0.18548 0.14185 0.0
C1571 C 0.3327 0.24324 0.14267 0.0
H1572 H 0.31367 0.23399 0.10812 0.0
C1573 C 0.33097 0.31417 0.10753 0.0
C1574 C 0.34132 0.30951 0.09599 0.0
C1575 C 0.3246 0.29733 0.11562 0.0
C1576 C 0.31894 0.23686 0.11775 0.0
H1577 H 0.33323 0.18965 0.17788 0.0
H1578 H 0.31895 0.21735 0.16374 0.0
H1579 H 0.31588 0.20321 0.12266 0.0
H1580 H 0.35166 0.28351 0.08348 0.0
H1581 H 0.34112 0.2544 0.0976 0.0
H1582 H 0.33706 0.27652 0.13767 0.0
C1583 C 0.32811 0.20399 0.15974 0.0
C1584 C 0.32016 0.21923 0.12607 0.0
C1585 C 0.33625 0.18804 0.16784 0.0
C1586 C 0.34391 0.28771 0.09236 0.0
C1587 C 0.33763 0.27094 0.10043 0.0
C1588 C 0.33165 0.2608 0.13435 0.0
C1589 C 0.33263 0.20327 0.14672 0.0
C1590 C 0.32767 0.22216 0.1385 0.0
C1591 C 0.32846 0.27552 0.11232 0.0
C1592 C 0.32544 0.25772 0.12167 0.0
H1593 H 0.36226 0.15662 0.14597 0.0
H1594 H 0.34815 0.18454 0.13186 0.0
H1595 H 0.3388 0.246 0.15215 0.0
H1596 H 0.32855 0.33081 0.11054 0.0
H1597 H 0.31725 0.30141 0.12463 0.0
C1598 C 0.92072 0.08042 0.3608 0.0
C1599 C 0.92554 0.08681 0.34835 0.0
C1600 C 0.93738 0.07418 0.36904 0.0
C1601 C -0.00261 0.06308 0.37056 0.0
H1602 H 0.99199 0.09105 0.40327 0.0
C1603 C 0.06841 0.09807 0.39982 0.0
C1604 C 0.06731 0.09641 0.41308 0.0
C1605 C 0.05168 0.08976 0.39228 0.0
C1606 C 0.99365 0.08276 0.39428 0.0
H1607 H 0.95142 0.09007 0.33451 0.0
H1608 H 0.98025 0.08011 0.34885 0.0
H1609 H 0.96062 0.08892 0.38949 0.0
H1610 H 0.04848 0.08329 0.42873 0.0
H1611 H 0.01944 0.06901 0.41558 0.0
H1612 H 0.031 0.05841 0.37517 0.0
C1613 C 0.96372 0.07946 0.35231 0.0
C1614 C 0.97559 0.08143 0.38636 0.0
C1615 C 0.94711 0.08543 0.34408 0.0
C1616 C 0.04987 0.08499 0.41856 0.0
C1617 C 0.03314 0.07684 0.41105 0.0
C1618 C 0.01557 0.06472 0.37843 0.0
C1619 C 0.9592 0.07442 0.36502 0.0
C1620 C 0.97734 0.07213 0.37424 0.0
C1621 C 0.03353 0.07978 0.39788 0.0
C1622 C 0.01395 0.07504 0.39024 0.0
H1623 H 0.90422 0.08104 0.36434 0.0
H1624 H 0.93322 0.06992 0.37869 0.0
H1625 H -0.00075 0.05537 0.36141 0.0
H1626 H 0.08163 0.10667 0.39529 0.0
H1627 H 0.05231 0.09235 0.38215 0.0
C1628 C 0.13329 0.82835 0.64388 0.0
C1629 C 0.14383 0.8316 0.65552 0.0
C1630 C 0.14002 0.81173 0.63576 0.0
C1631 C 0.16351 0.75801 0.63935 0.0
H1632 H 0.15504 0.75513 0.60303 0.0
C1633 C 0.15516 0.69129 0.59602 0.0
C1634 C 0.13894 0.67808 0.60139 0.0
C1635 C 0.1625 0.70979 0.60238 0.0
C1636 C 0.15789 0.75569 0.61315 0.0
H1637 H 0.17146 0.822 0.66695 0.0
H1638 H 0.18327 0.79318 0.65274 0.0
H1639 H 0.15679 0.79048 0.61349 0.0
H1640 H 0.11894 0.67299 0.61802 0.0
H1641 H 0.13188 0.70508 0.62916 0.0
H1642 H 0.16371 0.72325 0.63909 0.0
C1643 C 0.16945 0.80302 0.65006 0.0
C1644 C 0.15871 0.77592 0.61914 0.0
C1645 C 0.1627 0.81958 0.65818 0.0
C1646 C 0.13137 0.68288 0.61361 0.0
C1647 C 0.13887 0.70122 0.62002 0.0
C1648 C 0.16257 0.73782 0.63338 0.0
C1649 C 0.15747 0.79816 0.63911 0.0
C1650 C 0.16086 0.77728 0.63236 0.0
C1651 C 0.154 0.71524 0.61431 0.0
C1652 C 0.15905 0.73644 0.62028 0.0
H1653 H 0.11875 0.83737 0.64151 0.0
H1654 H 0.1304 0.80841 0.6274 0.0
H1655 H 0.16495 0.75842 0.64956 0.0
H1656 H 0.16138 0.68801 0.58662 0.0
H1657 H 0.17433 0.7202 0.59782 0.0
C1658 C 0.56609 0.91125 0.8555 0.0
C1659 C 0.56204 0.89995 0.84419 0.0
C1660 C 0.54889 0.91712 0.86348 0.0
C1661 C 0.48809 0.91955 0.86533 0.0
H1662 H 0.49806 0.90531 0.90059 0.0
C1663 C 0.42268 0.88775 0.89971 0.0
C1664 C 0.42403 0.89372 0.91254 0.0
C1665 C 0.43808 0.89527 0.89101 0.0
C1666 C 0.49505 0.90979 0.89082 0.0
H1667 H 0.53666 0.88706 0.83206 0.0
H1668 H 0.50705 0.89661 0.84601 0.0
H1669 H 0.52854 0.90644 0.88603 0.0
H1670 H 0.44154 0.91381 0.926 0.0
H1671 H 0.46833 0.92674 0.91085 0.0
H1672 H 0.45429 0.92152 0.87011 0.0
C1673 C 0.52333 0.90135 0.84871 0.0
C1674 C 0.51258 0.91051 0.88246 0.0
C1675 C 0.54042 0.89563 0.84074 0.0
C1676 C 0.44012 0.90866 0.91625 0.0
C1677 C 0.45554 0.91605 0.90758 0.0
C1678 C 0.47051 0.91858 0.87369 0.0
C1679 C 0.52733 0.91173 0.86033 0.0
C1680 C 0.50927 0.91478 0.86953 0.0
C1681 C 0.45514 0.90883 0.89498 0.0
C1682 C 0.47377 0.91316 0.88646 0.0
H1683 H 0.58254 0.915 0.85837 0.0
H1684 H 0.55254 0.92542 0.87227 0.0
H1685 H 0.48499 0.92336 0.85549 0.0
H1686 H 0.41046 0.87637 0.89651 0.0
H1687 H 0.43742 0.88935 0.88136 0.0
C1688 C 0.34612 0.82657 0.34715 0.0
C1689 C 0.34275 0.82519 0.334 0.0
C1690 C 0.33768 0.81069 0.35523 0.0
C1691 C 0.32642 0.75315 0.35409 0.0
H1692 H 0.30637 0.76127 0.38855 0.0
C1693 C 0.32548 0.68124 0.38841 0.0
C1694 C 0.33488 0.68578 0.40023 0.0
C1695 C 0.31894 0.69818 0.38045 0.0
C1696 C 0.31198 0.75871 0.37894 0.0
H1697 H 0.32631 0.80698 0.31923 0.0
H1698 H 0.31168 0.77944 0.33333 0.0
H1699 H 0.30865 0.79246 0.3743 0.0
H1700 H 0.34342 0.71161 0.41331 0.0
H1701 H 0.33281 0.74088 0.39938 0.0
H1702 H 0.33122 0.71985 0.35882 0.0
C1703 C 0.32104 0.79265 0.33734 0.0
C1704 C 0.31319 0.77657 0.3708 0.0
C1705 C 0.32938 0.80853 0.32927 0.0
C1706 C 0.33638 0.7075 0.40423 0.0
C1707 C 0.33004 0.72437 0.39625 0.0
C1708 C 0.32545 0.73538 0.36225 0.0
C1709 C 0.32578 0.79313 0.35033 0.0
C1710 C 0.32097 0.77404 0.35839 0.0
C1711 C 0.32183 0.71998 0.38411 0.0
C1712 C 0.31886 0.73803 0.3749 0.0
H1713 H 0.35622 0.83923 0.35113 0.0
H1714 H 0.34169 0.81141 0.36521 0.0
H1715 H 0.33275 0.75072 0.34462 0.0
H1716 H 0.32387 0.66467 0.38512 0.0
H1717 H 0.31226 0.69419 0.37125 0.0
C1718 C 0.41946 0.10498 0.59299 0.0
C1719 C 0.42096 0.09963 0.58008 0.0
C1720 C 0.43489 0.09729 0.60159 0.0
C1721 C 0.49203 0.08294 0.60172 0.0
H1722 H 0.48147 0.06908 0.63699 0.0
C1723 C 0.56244 0.0814 0.63734 0.0
C1724 C 0.55826 0.09311 0.64849 0.0
C1725 C 0.54535 0.07535 0.62934 0.0
C1726 C 0.4847 0.07292 0.62716 0.0
H1727 H 0.43891 0.08057 0.56631 0.0
H1728 H 0.46574 0.06724 0.5813 0.0
H1729 H 0.45099 0.07091 0.62223 0.0
H1730 H 0.53278 0.1065 0.66037 0.0
H1731 H 0.50332 0.09653 0.6464 0.0
H1732 H 0.52545 0.08625 0.60668 0.0
C1733 C 0.4528 0.0776 0.58472 0.0
C1734 C 0.46725 0.07391 0.61872 0.0
C1735 C 0.43735 0.08522 0.57614 0.0
C1736 C 0.53663 0.09762 0.65181 0.0
C1737 C 0.51963 0.09167 0.64383 0.0
C1738 C 0.50943 0.08213 0.61016 0.0
C1739 C 0.45215 0.08414 0.59745 0.0
C1740 C 0.47068 0.07953 0.60599 0.0
C1741 C 0.52379 0.08093 0.63234 0.0
C1742 C 0.50591 0.07778 0.62306 0.0
H1743 H 0.40699 0.11594 0.59637 0.0
H1744 H 0.43404 0.10272 0.61133 0.0
H1745 H 0.49519 0.08757 0.592 0.0
H1746 H 0.57892 0.0775 0.63458 0.0
H1747 H 0.54909 0.06679 0.62065 0.0
C1748 C 0.15542 0.28063 0.90974 0.0
C1749 C 0.155 0.30055 0.90323 0.0
C1750 C 0.16107 0.26152 0.90348 0.0
C1751 C 0.18391 0.23811 0.87409 0.0
H1752 H 0.13643 0.1972 0.87751 0.0
C1753 C 0.15775 0.18116 0.83431 0.0
C1754 C 0.14506 0.16275 0.83701 0.0
C1755 C 0.16581 0.1941 0.84406 0.0
C1756 C 0.15025 0.20795 0.87664 0.0
H1757 H 0.16202 0.31631 0.88533 0.0
H1758 H 0.17178 0.28278 0.87433 0.0
H1759 H 0.1386 0.22795 0.89167 0.0
H1760 H 0.1331 0.14206 0.85209 0.0
H1761 H 0.14795 0.16418 0.86916 0.0
H1762 H 0.19533 0.21827 0.85885 0.0
C1763 C 0.16776 0.28202 0.88431 0.0
C1764 C 0.15141 0.22573 0.88476 0.0
C1765 C 0.16205 0.3012 0.89058 0.0
C1766 C 0.1425 0.15635 0.84969 0.0
C1767 C 0.15089 0.16914 0.85948 0.0
C1768 C 0.18294 0.22008 0.86605 0.0
C1769 C 0.1665 0.26191 0.89058 0.0
C1770 C 0.16782 0.24137 0.88332 0.0
C1771 C 0.16166 0.1888 0.85679 0.0
C1772 C 0.16562 0.2052 0.86691 0.0
H1773 H 0.15044 0.2796 0.91956 0.0
H1774 H 0.16027 0.24629 0.90858 0.0
H1775 H 0.19687 0.24981 0.87288 0.0
H1776 H 0.16013 0.18656 0.82466 0.0
H1777 H 0.17385 0.20911 0.84153 0.0
C1778 C 0.92636 0.9102 0.1362 0.0
C1779 C 0.93002 0.9005 0.14803 0.0
C1780 C 0.94388 0.91607 0.12846 0.0
C1781 C 0.00491 0.91996 0.12784 0.0
H1782 H -0.00312 0.90331 0.09278 0.0
C1783 C 0.0712 0.88606 0.09437 0.0
C1784 C 0.07022 0.89211 0.08154 0.0
C1785 C 0.05587 0.89401 0.10299 0.0
C1786 C -0.00067 0.90842 0.1025 0.0
H1787 H 0.95499 0.89049 0.16133 0.0
H1788 H 0.98516 0.89973 0.14779 0.0
H1789 H 0.96572 0.90478 0.10678 0.0
H1790 H 0.05363 0.91292 0.06806 0.0
H1791 H 0.027 0.92652 0.08304 0.0
H1792 H 0.03894 0.92197 0.12357 0.0
C1793 C 0.96894 0.9034 0.14448 0.0
C1794 C 0.9814 0.90938 0.11054 0.0
C1795 C 0.95151 0.89785 0.15224 0.0
C1796 C 0.05479 0.90769 0.0778 0.0
C1797 C 0.03945 0.91549 0.08637 0.0
C1798 C 0.02293 0.91861 0.11981 0.0
C1799 C 0.96541 0.91208 0.13234 0.0
C1800 C 0.98398 0.91463 0.12341 0.0
C1801 C 0.0393 0.90805 0.09892 0.0
C1802 C 0.02032 0.91241 0.10713 0.0
H1803 H 0.90999 0.9127 0.13275 0.0
H1804 H 0.9405 0.92318 0.1193 0.0
H1805 H 0.0075 0.92456 0.13762 0.0
H1806 H 0.08292 0.87418 0.0976 0.0
H1807 H 0.05607 0.88798 0.11263 0.0
C1808 C 0.66521 0.67871 0.8857 0.0
C1809 C 0.65294 0.68198 0.89675 0.0
C1810 C 0.67138 0.69641 0.87818 0.0
C1811 C 0.67266 0.75734 0.87744 0.0
H1812 H 0.66083 0.74896 0.84175 0.0
C1813 C 0.63929 0.82299 0.84396 0.0
C1814 C 0.64545 0.82252 0.83114 0.0
C1815 C 0.64758 0.80769 0.85246 0.0
C1816 C 0.66468 0.75155 0.85164 0.0
H1817 H 0.6386 0.70652 0.90894 0.0
H1818 H 0.64869 0.73697 0.89578 0.0
H1819 H 0.66205 0.71771 0.85573 0.0
H1820 H 0.66691 0.80701 0.81757 0.0
H1821 H 0.68115 0.78031 0.83237 0.0
H1822 H 0.67381 0.79145 0.87336 0.0
C1823 C 0.65396 0.72092 0.89293 0.0
C1824 C 0.66544 0.73358 0.85968 0.0
C1825 C 0.64792 0.70334 0.90044 0.0
C1826 C 0.6615 0.80764 0.8273 0.0
C1827 C 0.66967 0.7923 0.83577 0.0
C1828 C 0.67165 0.77536 0.86941 0.0
C1829 C 0.66534 0.7177 0.88155 0.0
C1830 C 0.66873 0.73629 0.87276 0.0
C1831 C 0.66214 0.79162 0.84831 0.0
C1832 C 0.66704 0.77267 0.85649 0.0
H1833 H 0.6695 0.66247 0.88266 0.0
H1834 H 0.68043 0.69336 0.86957 0.0
H1835 H 0.67573 0.76 0.88741 0.0
H1836 H 0.62708 0.83429 0.84728 0.0
H1837 H 0.64141 0.80752 0.86207 0.0
C1838 C 0.04082 0.9126 0.65343 0.0
C1839 C 0.06025 0.90906 0.64674 0.0
C1840 C 0.02192 0.91852 0.64704 0.0
C1841 C -0.00118 0.93684 0.61657 0.0
H1842 H 0.95479 0.89352 0.62367 0.0
C1843 C 0.93823 0.90764 0.57944 0.0
C1844 C 0.91883 0.89742 0.58314 0.0
C1845 C 0.95235 0.91618 0.58847 0.0
C1846 C 0.96647 0.90623 0.62173 0.0
H1847 H 0.07556 0.91091 0.62828 0.0
H1848 H 0.0424 0.92121 0.61709 0.0
H1849 H 0.98624 0.89628 0.63727 0.0
H1850 H 0.89797 0.89016 0.59913 0.0
H1851 H 0.92228 0.90582 0.61491 0.0
H1852 H 0.97918 0.94654 0.60085 0.0
C1853 C 0.04186 0.91938 0.62729 0.0
C1854 C 0.98463 0.90772 0.62954 0.0
C1855 C 0.06082 0.91338 0.63368 0.0
C1856 C 0.91295 0.89764 0.59599 0.0
C1857 C 0.92698 0.9065 0.60504 0.0
C1858 C 0.98042 0.93558 0.60883 0.0
C1859 C 0.02206 0.92114 0.63385 0.0
C1860 C 0.00133 0.92253 0.6268 0.0
C1861 C 0.94732 0.91498 0.60144 0.0
C1862 C 0.9644 0.91968 0.61104 0.0
H1863 H 0.0399 0.90978 0.66354 0.0
H1864 H 0.00694 0.92008 0.65235 0.0
H1865 H 0.01136 0.94856 0.61434 0.0
H1866 H 0.94332 0.90779 0.56963 0.0
H1867 H 0.96788 0.92231 0.58526 0.0
C1868 C 0.85188 0.16394 0.34545 0.0
C1869 C 0.85262 0.16976 0.3326 0.0
C1870 C 0.84422 0.17863 0.35449 0.0
C1871 C 0.81824 0.2334 0.35848 0.0
H1872 H 0.85635 0.23607 0.38762 0.0
C1873 C 0.8395 0.3114 0.38616 0.0
C1874 C 0.84356 0.30961 0.39921 0.0
C1875 C 0.83387 0.29304 0.37909 0.0
C1876 C 0.84522 0.23535 0.37969 0.0
H1877 H 0.84479 0.19513 0.31909 0.0
H1878 H 0.83223 0.22088 0.33479 0.0
H1879 H 0.85876 0.20547 0.37333 0.0
H1880 H 0.84282 0.28764 0.41528 0.0
H1881 H 0.83301 0.25573 0.40294 0.0
H1882 H 0.80577 0.26421 0.36459 0.0
C1883 C 0.83702 0.20486 0.33795 0.0
C1884 C 0.84654 0.2177 0.37148 0.0
C1885 C 0.84438 0.19007 0.32891 0.0
C1886 C 0.84017 0.2895 0.4052 0.0
C1887 C 0.83456 0.2712 0.39815 0.0
C1888 C 0.8171 0.25124 0.36666 0.0
C1889 C 0.83748 0.1996 0.3509 0.0
C1890 C 0.83345 0.2167 0.36059 0.0
C1891 C 0.83219 0.27261 0.38496 0.0
C1892 C 0.83091 0.25258 0.3772 0.0
H1893 H 0.85785 0.14829 0.34857 0.0
H1894 H 0.8443 0.17381 0.36435 0.0
H1895 H 0.80762 0.23299 0.35032 0.0
H1896 H 0.84187 0.32668 0.38128 0.0
H1897 H 0.83223 0.2946 0.36892 0.0
C1898 C 0.56596 0.09829 0.09294 0.0
C1899 C 0.56509 0.097 0.07966 0.0
C1900 C 0.54881 0.09038 0.10029 0.0
C1901 C 0.49066 0.08553 0.09811 0.0
H1902 H 0.49515 0.05668 0.13061 0.0
C1903 C 0.41763 0.08425 0.13177 0.0
C1904 C 0.42267 0.08975 0.14433 0.0
C1905 C 0.43407 0.07806 0.12336 0.0
C1906 C 0.4936 0.06481 0.12157 0.0
H1907 H 0.54622 0.0849 0.06377 0.0
H1908 H 0.51629 0.07145 0.07663 0.0
H1909 H 0.52699 0.05898 0.11687 0.0
H1910 H 0.44873 0.09164 0.15814 0.0
H1911 H 0.4772 0.08173 0.14352 0.0
H1912 H 0.45788 0.09281 0.10303 0.0
C1913 C 0.53019 0.07866 0.08131 0.0
C1914 C 0.51182 0.06602 0.1137 0.0
C1915 C 0.54738 0.08635 0.07396 0.0
C1916 C 0.44424 0.08766 0.14849 0.0
C1917 C 0.46064 0.08172 0.14009 0.0
C1918 C 0.47255 0.08463 0.10604 0.0
C1919 C 0.53044 0.0812 0.0945 0.0
C1920 C 0.51063 0.07686 0.10204 0.0
C1921 C 0.45591 0.07743 0.12732 0.0
C1922 C 0.47394 0.07482 0.11804 0.0
H1923 H 0.5794 0.10628 0.09763 0.0
H1924 H 0.54936 0.09266 0.11046 0.0
H1925 H 0.48934 0.09421 0.08923 0.0
H1926 H 0.40112 0.08546 0.12831 0.0
H1927 H 0.42975 0.07443 0.11365 0.0
C1928 C 0.66179 0.31012 0.60101 0.0
C1929 C 0.64916 0.30655 0.59013 0.0
C1930 C 0.66779 0.29268 0.60877 0.0
C1931 C 0.66771 0.23181 0.61061 0.0
H1932 H 0.65738 0.24247 0.64626 0.0
C1933 C 0.63504 0.16855 0.64596 0.0
C1934 C 0.64207 0.16957 0.6586 0.0
C1935 C 0.6429 0.18334 0.63701 0.0
C1936 C 0.66078 0.23924 0.63637 0.0
H1937 H 0.63398 0.28174 0.57851 0.0
H1938 H 0.64376 0.25175 0.5921 0.0
H1939 H 0.65866 0.27286 0.63166 0.0
H1940 H 0.66435 0.18574 0.67146 0.0
H1941 H 0.6779 0.21147 0.65588 0.0
H1942 H 0.66836 0.19794 0.61535 0.0
C1943 C 0.64946 0.26781 0.59461 0.0
C1944 C 0.66159 0.25672 0.62798 0.0
C1945 C 0.64361 0.28514 0.58685 0.0
C1946 C 0.65838 0.18458 0.66185 0.0
C1947 C 0.66613 0.1994 0.65294 0.0
C1948 C 0.66664 0.21429 0.619 0.0
C1949 C 0.6612 0.27137 0.60583 0.0
C1950 C 0.66439 0.25319 0.61493 0.0
C1951 C 0.65788 0.19946 0.64056 0.0
C1952 C 0.6626 0.21782 0.63192 0.0
H1953 H 0.66651 0.3264 0.60373 0.0
H1954 H 0.67715 0.29597 0.61723 0.0
H1955 H 0.67038 0.22852 0.60066 0.0
H1956 H 0.62259 0.15713 0.64311 0.0
H1957 H 0.63617 0.18305 0.62754 0.0
C1958 C 0.43992 0.90894 0.34825 0.0
C1959 C 0.42477 0.89415 0.35326 0.0
C1960 C 0.45778 0.91559 0.35544 0.0
C1961 C 0.48154 0.91431 0.38787 0.0
H1962 H 0.53596 0.90659 0.36995 0.0
C1963 C 0.56083 0.90759 0.41553 0.0
C1964 C 0.57295 0.88904 0.41232 0.0
C1965 C 0.54488 0.91551 0.40734 0.0
C1966 C 0.52092 0.90895 0.37508 0.0
H1967 H 0.41561 0.87607 0.37006 0.0
H1968 H 0.44674 0.88743 0.3825 0.0
H1969 H 0.50201 0.90719 0.35815 0.0
H1970 H 0.57921 0.8655 0.39748 0.0
H1971 H 0.55126 0.87901 0.38334 0.0
H1972 H 0.50024 0.9145 0.40487 0.0
C1973 C 0.44484 0.89403 0.37306 0.0
C1974 C 0.50145 0.90955 0.3683 0.0
C1975 C 0.42702 0.88738 0.36589 0.0
C1976 C 0.5701 0.87976 0.40029 0.0
C1977 C 0.55409 0.88761 0.39213 0.0
C1978 C 0.50098 0.91365 0.39464 0.0
C1979 C 0.4608 0.90765 0.36779 0.0
C1980 C 0.48148 0.91143 0.37467 0.0
C1981 C 0.54069 0.90501 0.39578 0.0
C1982 C 0.52084 0.91016 0.38837 0.0
H1983 H 0.43854 0.91463 0.33858 0.0
H1984 H 0.4696 0.92636 0.35118 0.0
H1985 H 0.46645 0.91613 0.39303 0.0
H1986 H 0.56295 0.91543 0.42461 0.0
H1987 H 0.53519 0.92927 0.41031 0.0
C1988 C 0.84417 0.79847 0.1673 0.0
C1989 C 0.85242 0.81856 0.16321 0.0
C1990 C 0.83646 0.78332 0.15858 0.0
C1991 C 0.84393 0.76913 0.12495 0.0
H1992 H 0.80393 0.72276 0.13357 0.0
C1993 C 0.83383 0.6964 0.09217 0.0
C1994 C 0.83891 0.67665 0.09817 0.0
C1995 C 0.8288 0.71479 0.09929 0.0
C1996 C 0.81501 0.73571 0.13102 0.0
H1997 H 0.85734 0.83926 0.14687 0.0
H1998 H 0.84302 0.81317 0.13164 0.0
H1999 H 0.80672 0.75457 0.14733 0.0
H2000 H 0.84067 0.66024 0.11631 0.0
H2001 H 0.83179 0.69247 0.12878 0.0
H2002 H 0.85234 0.75019 0.10873 0.0
C2003 C 0.84328 0.80875 0.14156 0.0
C2004 C 0.81673 0.75387 0.13891 0.0
C2005 C 0.85137 0.82378 0.15029 0.0
C2006 C 0.83699 0.67523 0.11141 0.0
C2007 C 0.83181 0.69366 0.11855 0.0
C2008 C 0.84194 0.75119 0.11699 0.0
C2009 C 0.83647 0.788 0.14554 0.0
C2010 C 0.83173 0.77052 0.13618 0.0
C2011 C 0.82855 0.71379 0.11256 0.0
C2012 C 0.82791 0.73404 0.12011 0.0
H2013 H 0.84481 0.79387 0.17719 0.0
H2014 H 0.83167 0.7675 0.16206 0.0
H2015 H 0.85597 0.78128 0.12259 0.0
H2016 H 0.83483 0.69799 0.08197 0.0
H2017 H 0.82606 0.73005 0.09445 0.0
C2018 C 0.93548 0.08964 0.91759 0.0
C2019 C 0.91919 0.10374 0.91316 0.0
C2020 C 0.951 0.08121 0.90934 0.0
C2021 C 0.96624 0.07394 0.87574 0.0
H2022 H 0.02416 0.08715 0.88789 0.0
C2023 C 0.03729 0.09237 0.84265 0.0
C2024 C 0.05877 0.08897 0.84667 0.0
C2025 C 0.01988 0.08717 0.8505 0.0
C2026 C 0.00823 0.08273 0.8844 0.0
H2027 H 0.90557 0.11872 0.89635 0.0
H2028 H 0.93287 0.10405 0.88192 0.0
H2029 H 0.99344 0.09074 0.90209 0.0
H2030 H 0.07876 0.07568 0.86167 0.0
H2031 H 0.04822 0.0661 0.87535 0.0
H2032 H 0.98105 0.06639 0.85794 0.0
C2033 C 0.9335 0.09949 0.89182 0.0
C2034 C 0.99056 0.0849 0.89256 0.0
C2035 C 0.91793 0.10799 0.9001 0.0
C2036 C 0.06241 0.07873 0.85836 0.0
C2037 C 0.0449 0.07337 0.86622 0.0
C2038 C 0.98399 0.07155 0.86759 0.0
C2039 C 0.95062 0.08663 0.89645 0.0
C2040 C 0.96933 0.08113 0.88822 0.0
C2041 C 0.02345 0.07824 0.86256 0.0
C2042 C 0.00514 0.07662 0.87171 0.0
H2043 H 0.93695 0.08588 0.92756 0.0
H2044 H 0.96383 0.0711 0.91314 0.0
H2045 H 0.95007 0.07066 0.8722 0.0
H2046 H 0.03386 0.10004 0.83364 0.0
H2047 H 0.00368 0.0914 0.84737 0.0
C2048 C 0.83832 0.79389 0.58988 0.0
C2049 C 0.84266 0.81333 0.59642 0.0
C2050 C 0.83254 0.77512 0.59647 0.0
C2051 C 0.81466 0.75255 0.62701 0.0
H2052 H 0.85771 0.70809 0.6203 0.0
C2053 C 0.84125 0.69129 0.66448 0.0
C2054 C 0.85135 0.67175 0.66095 0.0
C2055 C 0.83359 0.70568 0.65533 0.0
C2056 C 0.84507 0.71989 0.62213 0.0
H2057 H 0.84237 0.82877 0.61487 0.0
H2058 H 0.83208 0.79589 0.62638 0.0
H2059 H 0.85542 0.73949 0.60656 0.0
H2060 H 0.85948 0.65104 0.64505 0.0
H2061 H 0.84527 0.67578 0.62902 0.0
H2062 H 0.80438 0.73307 0.64266 0.0
C2063 C 0.8333 0.79524 0.61616 0.0
C2064 C 0.84387 0.73802 0.61425 0.0
C2065 C 0.83929 0.81403 0.60957 0.0
C2066 C 0.85203 0.66611 0.64807 0.0
C2067 C 0.84402 0.68039 0.63888 0.0
C2068 C 0.81557 0.73418 0.63479 0.0
C2069 C 0.83072 0.77545 0.6097 0.0
C2070 C 0.82916 0.75484 0.61686 0.0
C2071 C 0.83553 0.70079 0.64237 0.0
C2072 C 0.83137 0.71799 0.63273 0.0
H2073 H 0.84047 0.79281 0.57972 0.0
H2074 H 0.83042 0.76011 0.59127 0.0
H2075 H 0.80302 0.76523 0.62913 0.0
H2076 H 0.84053 0.69627 0.67429 0.0
H2077 H 0.82749 0.72125 0.65848 0.0
C2078 C 0.45185 0.59501 0.84035 0.0
C2079 C 0.43075 0.58962 0.84435 0.0
C2080 C 0.46986 0.58905 0.84751 0.0
C2081 C 0.48421 0.57688 0.88045 0.0
H2082 H 0.54162 0.57039 0.86577 0.0
C2083 C 0.55955 0.58094 0.91171 0.0
C2084 C 0.57377 0.59766 0.90799 0.0
C2085 C 0.54409 0.57282 0.9033 0.0
C2086 C 0.52567 0.57201 0.87 0.0
H2087 H 0.41214 0.57243 0.8586 0.0
H2088 H 0.4438 0.56159 0.87107 0.0
H2089 H 0.5096 0.5681 0.8522 0.0
H2090 H 0.58427 0.61738 0.8921 0.0
H2091 H 0.55727 0.6031 0.87741 0.0
H2092 H 0.5003 0.58123 0.89818 0.0
C2093 C 0.44631 0.5709 0.8625 0.0
C2094 C 0.50732 0.5708 0.86224 0.0
C2095 C 0.42817 0.57702 0.85534 0.0
C2096 C 0.57349 0.60462 0.89532 0.0
C2097 C 0.55806 0.59638 0.88687 0.0
C2098 C 0.50252 0.5778 0.88821 0.0
C2099 C 0.46735 0.57734 0.85883 0.0
C2100 C 0.4864 0.57408 0.8673 0.0
C2101 C 0.54263 0.58108 0.89096 0.0
C2102 C 0.52345 0.57612 0.883 0.0
H2103 H 0.45451 0.60459 0.83189 0.0
H2104 H 0.48568 0.59465 0.84445 0.0
H2105 H 0.46847 0.57977 0.88469 0.0
H2106 H 0.55951 0.57492 0.92132 0.0
H2107 H 0.5326 0.56079 0.90664 0.0
C2108 C 0.62971 0.1799 0.11386 0.0
C2109 C 0.63721 0.17646 0.10146 0.0
C2110 C 0.63697 0.19772 0.12085 0.0
C2111 C 0.66023 0.23329 0.13536 0.0
H2112 H 0.65376 0.28777 0.11732 0.0
C2113 C 0.65965 0.31259 0.16286 0.0
C2114 C 0.6406 0.3246 0.16064 0.0
C2115 C 0.6665 0.29687 0.15421 0.0
C2116 C 0.65587 0.2727 0.12246 0.0
H2117 H 0.65925 0.18828 0.08696 0.0
H2118 H 0.67177 0.21952 0.09918 0.0
H2119 H 0.65227 0.25353 0.10568 0.0
H2120 H 0.61534 0.33133 0.14687 0.0
H2121 H 0.6272 0.30388 0.13185 0.0
H2122 H 0.66254 0.25226 0.15222 0.0
C2123 C 0.66018 0.20847 0.10343 0.0
C2124 C 0.6552 0.2531 0.11579 0.0
C2125 C 0.65308 0.19051 0.09648 0.0
C2126 C 0.62999 0.32228 0.14894 0.0
C2127 C 0.63685 0.30653 0.14028 0.0
C2128 C 0.66101 0.25285 0.14201 0.0
C2129 C 0.65178 0.21255 0.11556 0.0
C2130 C 0.65661 0.23318 0.12225 0.0
C2131 C 0.65449 0.29289 0.14315 0.0
C2132 C 0.6581 0.27276 0.13569 0.0
H2133 H 0.61755 0.16934 0.11798 0.0
H2134 H 0.63005 0.20052 0.13013 0.0
H2135 H 0.66158 0.21819 0.14056 0.0
H2136 H 0.66851 0.31432 0.17164 0.0
H2137 H 0.68047 0.28696 0.15653 0.0
C2138 C 0.93559 0.40626 0.41 0.0
C2139 C 0.91696 0.39372 0.40761 0.0
C2140 C 0.94878 0.41321 0.40007 0.0
C2141 C 0.9626 0.39515 0.3679 0.0
H2142 H 0.00431 0.44218 0.37022 0.0
C2143 C 0.03386 0.39951 0.3336 0.0
C2144 C 0.05412 0.39974 0.33974 0.0
C2145 C 0.01499 0.40501 0.34014 0.0
C2146 C 0.99266 0.42907 0.36942 0.0
H2147 H 0.89627 0.38075 0.39284 0.0
H2148 H 0.91885 0.39366 0.37543 0.0
H2149 H 0.97311 0.44145 0.38454 0.0
H2150 H 0.07066 0.40765 0.35726 0.0
H2151 H 0.03753 0.4172 0.36875 0.0
H2152 H 0.98229 0.3826 0.35296 0.0
C2153 C 0.92376 0.39736 0.38503 0.0
C2154 C 0.97483 0.42857 0.37763 0.0
C2155 C 0.9107 0.39008 0.395 0.0
C2156 C 0.05529 0.40718 0.35229 0.0
C2157 C 0.03633 0.41276 0.35885 0.0
C2158 C 0.98019 0.39583 0.35961 0.0
C2159 C 0.94353 0.40808 0.38746 0.0
C2160 C 0.95996 0.41119 0.37726 0.0
C2161 C 0.01595 0.41095 0.35295 0.0
C2162 C 0.99574 0.41243 0.36052 0.0
H2163 H 0.94091 0.40942 0.41959 0.0
H2164 H 0.96389 0.42124 0.4024 0.0
H2165 H 0.95187 0.38126 0.36742 0.0
H2166 H 0.03242 0.39419 0.32386 0.0
H2167 H -0.00049 0.40377 0.33532 0.0
C2168 C 0.83343 0.20225 0.90499 0.0
C2169 C 0.83884 0.18287 0.89867 0.0
C2170 C 0.8271 0.2206 0.89819 0.0
C2171 C 0.80922 0.24162 0.86728 0.0
H2172 H 0.84932 0.28859 0.87437 0.0
C2173 C 0.83348 0.30449 0.83007 0.0
C2174 C 0.8424 0.32452 0.83377 0.0
C2175 C 0.82624 0.28966 0.83911 0.0
C2176 C 0.83747 0.27605 0.87242 0.0
H2177 H 0.83998 0.16705 0.88034 0.0
H2178 H 0.82875 0.1992 0.86844 0.0
H2179 H 0.8484 0.2572 0.88816 0.0
H2180 H 0.84865 0.34559 0.8498 0.0
H2181 H 0.83511 0.32006 0.86559 0.0
H2182 H 0.79837 0.26038 0.85146 0.0
C2183 C 0.82953 0.20012 0.87867 0.0
C2184 C 0.83707 0.25793 0.88033 0.0
C2185 C 0.83607 0.18175 0.88548 0.0
C2186 C 0.84213 0.33017 0.84665 0.0
C2187 C 0.83452 0.31543 0.85571 0.0
C2188 C 0.80933 0.25997 0.85946 0.0
C2189 C 0.8258 0.21991 0.88494 0.0
C2190 C 0.82344 0.24027 0.87762 0.0
C2191 C 0.82742 0.29458 0.85209 0.0
C2192 C 0.82402 0.27711 0.86167 0.0
H2193 H 0.83511 0.20363 0.91516 0.0
H2194 H 0.82408 0.2356 0.90325 0.0
H2195 H 0.7984 0.22828 0.86507 0.0
H2196 H 0.83347 0.29953 0.82024 0.0
H2197 H 0.82116 0.27378 0.83587 0.0
C2198 C 0.90977 0.59848 0.09828 0.0
C2199 C 0.91496 0.59599 0.08541 0.0
C2200 C 0.92431 0.59167 0.10764 0.0
C2201 C 0.97795 0.56362 0.11269 0.0
H2202 H 0.98443 0.60803 0.13841 0.0
C2203 C 0.05872 0.58745 0.13705 0.0
C2204 C 0.05789 0.59351 0.14986 0.0
C2205 C 0.03971 0.58156 0.13064 0.0
C2206 C 0.98265 0.59523 0.13145 0.0
H2207 H 0.93872 0.5828 0.07232 0.0
H2208 H 0.96424 0.57182 0.08845 0.0
H2209 H 0.95292 0.60855 0.12474 0.0
H2210 H 0.03681 0.59635 0.16628 0.0
H2211 H 0.00381 0.58627 0.15507 0.0
H2212 H 0.00872 0.55134 0.11901 0.0
C2213 C 0.94886 0.57858 0.09146 0.0
C2214 C 0.96445 0.59543 0.12361 0.0
C2215 C 0.93419 0.58505 0.08214 0.0
C2216 C 0.03798 0.5921 0.15635 0.0
C2217 C 0.01905 0.58633 0.14995 0.0
C2218 C -0.00362 0.56363 0.12044 0.0
C2219 C 0.94452 0.58258 0.10432 0.0
C2220 C 0.96206 0.57995 0.11392 0.0
C2221 C 0.0196 0.5817 0.13695 0.0
C2222 C -0.00092 0.57971 0.12973 0.0
H2223 H 0.89493 0.60656 0.10113 0.0
H2224 H 0.92011 0.59444 0.11746 0.0
H2225 H 0.97649 0.55117 0.1055 0.0
H2226 H 0.07381 0.58825 0.1318 0.0
H2227 H 0.04058 0.57816 0.12059 0.0
C2228 C 0.65351 0.80944 0.38626 0.0
C2229 C 0.64935 0.80726 0.39928 0.0
C2230 C 0.65979 0.79139 0.37908 0.0
C2231 C 0.64972 0.73374 0.37887 0.0
H2232 H 0.68994 0.7324 0.35066 0.0
C2233 C 0.64385 0.66473 0.34326 0.0
C2234 C 0.64414 0.67149 0.33057 0.0
C2235 C 0.65182 0.67833 0.35278 0.0
C2236 C 0.67858 0.73251 0.35848 0.0
H2237 H 0.65036 0.7849 0.41518 0.0
H2238 H 0.66108 0.75354 0.40263 0.0
H2239 H 0.69023 0.76327 0.36522 0.0
H2240 H 0.6545 0.69709 0.31782 0.0
H2241 H 0.66745 0.72102 0.33429 0.0
H2242 H 0.63684 0.70407 0.37182 0.0
C2243 C 0.65926 0.76909 0.39796 0.0
C2244 C 0.67884 0.75015 0.36683 0.0
C2245 C 0.6531 0.78709 0.40513 0.0
C2246 C 0.65406 0.69135 0.3275 0.0
C2247 C 0.66164 0.7051 0.33701 0.0
C2248 C 0.6492 0.71633 0.37045 0.0
C2249 C 0.66195 0.7709 0.38482 0.0
C2250 C 0.66408 0.75112 0.37694 0.0
C2251 C 0.65979 0.69917 0.34983 0.0
C2252 C 0.66323 0.71571 0.35994 0.0
H2253 H 0.65089 0.82478 0.38149 0.0
H2254 H 0.66165 0.7932 0.36894 0.0
H2255 H 0.63794 0.73418 0.38649 0.0
H2256 H 0.63659 0.64936 0.3459 0.0
H2257 H 0.65075 0.67291 0.36251 0.0
C2258 C 0.57801 0.38828 0.59298 0.0
C2259 C 0.57185 0.39042 0.58024 0.0
C2260 C 0.56428 0.39553 0.60265 0.0
C2261 C 0.51147 0.42452 0.60881 0.0
H2262 H 0.507 0.38189 0.63568 0.0
C2263 C 0.43305 0.40325 0.63646 0.0
C2264 C 0.43512 0.39814 0.64937 0.0
C2265 C 0.45141 0.4085 0.62926 0.0
C2266 C 0.50824 0.39419 0.62838 0.0
H2267 H 0.54706 0.40308 0.56767 0.0
H2268 H 0.52293 0.41485 0.58435 0.0
H2269 H 0.53709 0.38002 0.62097 0.0
H2270 H 0.45781 0.39639 0.66508 0.0
H2271 H 0.48968 0.40532 0.6525 0.0
H2272 H 0.48153 0.43764 0.6159 0.0
C2273 C 0.53851 0.40813 0.58701 0.0
C2274 C 0.52563 0.39322 0.61994 0.0
C2275 C 0.55239 0.40124 0.57737 0.0
C2276 C 0.45565 0.3999 0.65511 0.0
C2277 C 0.47395 0.40502 0.64793 0.0
C2278 C 0.49383 0.42527 0.61717 0.0
C2279 C 0.54389 0.40467 0.59979 0.0
C2280 C 0.52726 0.40806 0.60986 0.0
C2281 C 0.47212 0.40865 0.63486 0.0
C2282 C 0.49188 0.40985 0.62689 0.0
H2283 H 0.59306 0.38027 0.5955 0.0
H2284 H 0.56929 0.39315 0.61237 0.0
H2285 H 0.51238 0.4365 0.60133 0.0
H2286 H 0.41745 0.40216 0.63177 0.0
H2287 H 0.44956 0.41114 0.61918 0.0
C2288 C 0.13186 0.18093 0.38032 0.0
C2289 C 0.13871 0.17772 0.39286 0.0
C2290 C 0.13902 0.19892 0.37345 0.0
C2291 C 0.16197 0.23507 0.3593 0.0
H2292 H 0.15363 0.28943 0.37722 0.0
C2293 C 0.16062 0.31428 0.3317 0.0
C2294 C 0.14136 0.32602 0.33377 0.0
C2295 C 0.16749 0.29868 0.34042 0.0
C2296 C 0.15625 0.2744 0.37211 0.0
H2297 H 0.15956 0.19017 0.40776 0.0
H2298 H 0.17195 0.22171 0.39574 0.0
H2299 H 0.15235 0.25518 0.38885 0.0
H2300 H 0.11566 0.33241 0.34732 0.0
H2301 H 0.12752 0.30516 0.36245 0.0
H2302 H 0.16455 0.25406 0.34246 0.0
C2303 C 0.16091 0.21035 0.39129 0.0
C2304 C 0.1557 0.25479 0.37878 0.0
C2305 C 0.15388 0.19222 0.39813 0.0
C2306 C 0.13049 0.32356 0.34538 0.0
C2307 C 0.13735 0.30792 0.3541 0.0
C2308 C 0.1626 0.25464 0.35264 0.0
C2309 C 0.15311 0.21417 0.37899 0.0
C2310 C 0.1578 0.23489 0.37236 0.0
C2311 C 0.15527 0.29454 0.35139 0.0
C2312 C 0.159 0.27449 0.35891 0.0
H2313 H 0.12025 0.17003 0.37597 0.0
H2314 H 0.13257 0.20151 0.36404 0.0
H2315 H 0.16387 0.22 0.35413 0.0
H2316 H 0.16967 0.31612 0.32298 0.0
H2317 H 0.18168 0.28899 0.33822 0.0
C2318 C 0.55531 0.40608 0.14144 0.0
C2319 C 0.55405 0.39906 0.15407 0.0
C2320 C 0.53645 0.41186 0.13486 0.0
C2321 C 0.48002 0.39598 0.13444 0.0
H2322 H 0.47362 0.44074 0.10893 0.0
C2323 C 0.41032 0.3899 0.09932 0.0
C2324 C 0.41654 0.39296 0.08665 0.0
C2325 C 0.42352 0.39744 0.10916 0.0
C2326 C 0.47515 0.4281 0.116 0.0
H2327 H 0.53232 0.39454 0.17007 0.0
H2328 H 0.49958 0.40448 0.15857 0.0
H2329 H 0.50491 0.44145 0.12317 0.0
H2330 H 0.44056 0.4079 0.07439 0.0
H2331 H 0.46382 0.42013 0.09135 0.0
H2332 H 0.45142 0.3816 0.12689 0.0
C2333 C 0.51505 0.40522 0.1537 0.0
C2334 C 0.49303 0.4286 0.12416 0.0
C2335 C 0.53383 0.39951 0.16027 0.0
C2336 C 0.43527 0.40521 0.08404 0.0
C2337 C 0.44863 0.41239 0.09384 0.0
C2338 C 0.46238 0.39529 0.1262 0.0
C2339 C 0.51606 0.41068 0.14082 0.0
C2340 C 0.49585 0.41225 0.13328 0.0
C2341 C 0.44341 0.4078 0.10652 0.0
C2342 C 0.45997 0.41101 0.11664 0.0
H2343 H 0.57066 0.40602 0.13643 0.0
H2344 H 0.53769 0.41592 0.12491 0.0
H2345 H 0.48192 0.38297 0.14126 0.0
H2346 H 0.3958 0.38082 0.10165 0.0
H2347 H 0.41861 0.39419 0.11882 0.0
C2348 C 0.33186 0.81607 0.88938 0.0
C2349 C 0.34323 0.8126 0.90073 0.0
C2350 C 0.32599 0.79848 0.8817 0.0
C2351 C 0.32389 0.73754 0.88081 0.0
H2352 H 0.33701 0.74614 0.84528 0.0
C2353 C 0.3547 0.67093 0.84681 0.0
C2354 C 0.34818 0.67184 0.83406 0.0
C2355 C 0.34748 0.68658 0.85544 0.0
C2356 C 0.33286 0.74351 0.85513 0.0
H2357 H 0.35627 0.78782 0.91323 0.0
H2358 H 0.34676 0.75755 0.89979 0.0
H2359 H 0.33621 0.7772 0.85941 0.0
H2360 H 0.3274 0.68879 0.82072 0.0
H2361 H 0.31499 0.716 0.83575 0.0
H2362 H 0.32194 0.70354 0.87653 0.0
C2363 C 0.34194 0.77368 0.89683 0.0
C2364 C 0.33232 0.76137 0.86326 0.0
C2365 C 0.34763 0.79116 0.90452 0.0
C2366 C 0.33298 0.6877 0.83041 0.0
C2367 C 0.32588 0.70337 0.83901 0.0
C2368 C 0.32471 0.71962 0.87269 0.0
C2369 C 0.33148 0.77709 0.88518 0.0
C2370 C 0.32841 0.75858 0.87627 0.0
C2371 C 0.33368 0.70345 0.85148 0.0
C2372 C 0.32968 0.7224 0.85983 0.0
H2373 H 0.32805 0.83238 0.88625 0.0
H2374 H 0.31761 0.8017 0.87289 0.0
H2375 H 0.32036 0.73482 0.89073 0.0
H2376 H 0.36631 0.6589 0.84997 0.0
H2377 H 0.35382 0.68628 0.86501 0.0
C2378 C 0.05025 0.5841 0.57619 0.0
C2379 C 0.068 0.59521 0.58152 0.0
C2380 C 0.03372 0.57593 0.58387 0.0
C2381 C 0.01717 0.56491 0.61705 0.0
H2382 H 0.96179 0.58805 0.60599 0.0
C2383 C 0.95029 0.59017 0.65146 0.0
C2384 C 0.92844 0.59021 0.64762 0.0
C2385 C 0.96659 0.58336 0.64321 0.0
C2386 C 0.97691 0.58089 0.60914 0.0
H2387 H 0.08313 0.6048 0.5992 0.0
H2388 H 0.05419 0.59065 0.6126 0.0
H2389 H 0.99265 0.58901 0.59176 0.0
H2390 H 0.90641 0.58148 0.63245 0.0
H2391 H 0.93494 0.5692 0.61805 0.0
H2392 H 0.00151 0.55742 0.63461 0.0
C2393 C 0.05311 0.58821 0.60247 0.0
C2394 C 0.99468 0.5815 0.60095 0.0
C2395 C 0.06966 0.59644 0.59477 0.0
C2396 C 0.92311 0.58186 0.63564 0.0
C2397 C 0.93948 0.57493 0.62737 0.0
C2398 C -0.00069 0.56413 0.62522 0.0
C2399 C 0.03458 0.57862 0.59706 0.0
C2400 C 0.01517 0.57419 0.60497 0.0
C2401 C 0.96147 0.57626 0.63092 0.0
C2402 C 0.97916 0.57286 0.62153 0.0
H2403 H 0.04845 0.58272 0.56603 0.0
H2404 H 0.01978 0.56834 0.57945 0.0
H2405 H 0.0327 0.55888 0.62033 0.0
H2406 H 0.95498 0.59631 0.66067 0.0
H2407 H 0.9833 0.58488 0.64626 0.0
C2408 C 0.16213 0.68178 0.16091 0.0
C2409 C 0.14478 0.66775 0.15804 0.0
C2410 C 0.16974 0.69659 0.15195 0.0
C2411 C 0.16759 0.71326 0.11834 0.0
H2412 H 0.16249 0.77134 0.13222 0.0
C2413 C 0.14374 0.7862 0.08809 0.0
C2414 C 0.15007 0.80733 0.09153 0.0
C2415 C 0.14979 0.76839 0.09541 0.0
C2416 C 0.16461 0.75533 0.12818 0.0
H2417 H 0.12336 0.65681 0.14303 0.0
H2418 H 0.13675 0.68266 0.12736 0.0
H2419 H 0.1617 0.74024 0.14631 0.0
H2420 H 0.16895 0.82614 0.10492 0.0
H2421 H 0.17996 0.79484 0.11764 0.0
H2422 H 0.17008 0.72834 0.10016 0.0
C2423 C 0.14436 0.68223 0.1366 0.0
C2424 C 0.16408 0.73744 0.13628 0.0
C2425 C 0.13664 0.66746 0.1456 0.0
C2426 C 0.16362 0.8101 0.10209 0.0
C2427 C 0.16984 0.79216 0.10941 0.0
C2428 C 0.16841 0.73118 0.11023 0.0
C2429 C 0.16032 0.69756 0.13988 0.0
C2430 C 0.16484 0.71622 0.13141 0.0
C2431 C 0.16253 0.77113 0.10632 0.0
C2432 C 0.16609 0.75242 0.115 0.0
H2433 H 0.16905 0.68223 0.17031 0.0
H2434 H 0.1823 0.70799 0.15467 0.0
H2435 H 0.16847 0.69707 0.11436 0.0
H2436 H 0.13338 0.78339 0.07997 0.0
H2437 H 0.1435 0.75259 0.0928 0.0
C2438 C 0.94195 0.40467 0.84574 0.0
C2439 C 0.92608 0.39068 0.8508 0.0
C2440 C 0.96127 0.40858 0.85234 0.0
C2441 C -0.00347 0.37873 0.87308 0.0
H2442 H 0.02641 0.43271 0.88046 0.0
C2443 C 0.07928 0.3755 0.89605 0.0
C2444 C 0.07947 0.38625 0.90779 0.0
C2445 C 0.06357 0.38058 0.887 0.0
C2446 C 0.01829 0.41754 0.87833 0.0
H2447 H 0.9171 0.37164 0.86729 0.0
H2448 H 0.95077 0.37836 0.87869 0.0
H2449 H 0.99086 0.43351 0.86982 0.0
H2450 H 0.06522 0.41276 0.9185 0.0
H2451 H 0.03777 0.42148 0.90272 0.0
H2452 H 0.02343 0.36265 0.88164 0.0
C2453 C 0.94838 0.38603 0.86956 0.0
C2454 C -0.00197 0.41801 0.87228 0.0
C2455 C 0.92909 0.38225 0.86303 0.0
C2456 C 0.06531 0.40391 0.90964 0.0
C2457 C 0.04963 0.40902 0.90056 0.0
C2458 C 0.01677 0.37824 0.87892 0.0
C2459 C 0.96498 0.39848 0.86405 0.0
C2460 C 0.98682 0.39858 0.86986 0.0
C2461 C 0.04785 0.39657 0.88948 0.0
C2462 C 0.02776 0.39761 0.88177 0.0
H2463 H 0.94006 0.41153 0.83636 0.0
H2464 H 0.97384 0.41828 0.84793 0.0
H2465 H 0.98834 0.36351 0.87116 0.0
H2466 H 0.09012 0.36201 0.89422 0.0
H2467 H 0.06279 0.371 0.87841 0.0
C2468 C 0.33308 0.17615 0.60609 0.0
C2469 C 0.34236 0.17948 0.5941 0.0
C2470 C 0.32824 0.19386 0.61391 0.0
C2471 C 0.32629 0.25495 0.61458 0.0
H2472 H 0.34331 0.24636 0.64953 0.0
C2473 C 0.35977 0.32135 0.64828 0.0
C2474 C 0.35327 0.32044 0.66104 0.0
C2475 C 0.35243 0.30575 0.63964 0.0
C2476 C 0.33815 0.24897 0.63985 0.0
H2477 H 0.35275 0.20408 0.58066 0.0
H2478 H 0.34526 0.23456 0.59435 0.0
H2479 H 0.34111 0.21533 0.63546 0.0
H2480 H 0.33258 0.30339 0.67442 0.0
H2481 H 0.32006 0.27628 0.6594 0.0
H2482 H 0.32482 0.28897 0.61896 0.0
C2483 C 0.34114 0.21848 0.59772 0.0
C2484 C 0.33676 0.23113 0.63176 0.0
C2485 C 0.34566 0.20087 0.58986 0.0
C2486 C 0.33809 0.30456 0.66472 0.0
C2487 C 0.33093 0.28893 0.65613 0.0
C2488 C 0.32805 0.27288 0.62265 0.0
C2489 C 0.33288 0.21524 0.60998 0.0
C2490 C 0.33124 0.23389 0.61894 0.0
C2491 C 0.3386 0.28892 0.64363 0.0
C2492 C 0.33434 0.27006 0.63531 0.0
H2493 H 0.33011 0.15988 0.60957 0.0
H2494 H 0.32141 0.19073 0.62318 0.0
H2495 H 0.32153 0.2577 0.60484 0.0
H2496 H 0.37137 0.3334 0.64511 0.0
H2497 H 0.35865 0.30606 0.63004 0.0
C2498 C 0.41969 0.62265 0.39866 0.0
C2499 C 0.41668 0.61041 0.40975 0.0
C2500 C 0.43638 0.61748 0.39025 0.0
C2501 C 0.47537 0.57801 0.37893 0.0
H2502 H 0.51524 0.6268 0.37793 0.0
C2503 C 0.54432 0.59286 0.34227 0.0
C2504 C 0.56384 0.60162 0.34693 0.0
C2505 C 0.527 0.58867 0.35047 0.0
C2506 C 0.50438 0.61296 0.37822 0.0
H2507 H 0.42725 0.58175 0.41999 0.0
H2508 H 0.45629 0.57256 0.40509 0.0
H2509 H 0.48165 0.62966 0.39002 0.0
H2510 H 0.58115 0.6111 0.36394 0.0
H2511 H 0.55073 0.60411 0.37819 0.0
H2512 H 0.49801 0.5616 0.36672 0.0
C2513 C 0.44588 0.58631 0.40308 0.0
C2514 C 0.48509 0.6147 0.38501 0.0
C2515 C 0.42935 0.59165 0.41161 0.0
C2516 C 0.56629 0.60448 0.36005 0.0
C2517 C 0.54889 0.60054 0.36821 0.0
C2518 C 0.4946 0.57642 0.37188 0.0
C2519 C 0.45009 0.59976 0.39266 0.0
C2520 C 0.47037 0.59733 0.38536 0.0
C2521 C 0.52885 0.59338 0.36342 0.0
C2522 C 0.50925 0.59392 0.3715 0.0
H2523 H 0.41021 0.63715 0.3969 0.0
H2524 H 0.43931 0.62798 0.3822 0.0
H2525 H 0.46423 0.5644 0.37915 0.0
H2526 H 0.54203 0.59028 0.33222 0.0
H2527 H 0.5117 0.58321 0.34654 0.0
C2528 C 0.56545 0.28778 0.20566 0.0
C2529 C 0.56066 0.30542 0.19767 0.0
C2530 C 0.5511 0.27029 0.20664 0.0
C2531 C 0.51217 0.24001 0.2109 0.0
H2532 H 0.48876 0.21975 0.17892 0.0
C2533 C 0.43882 0.18221 0.2062 0.0
C2534 C 0.4387 0.1673 0.19611 0.0
C2535 C 0.45595 0.19683 0.20762 0.0
C2536 C 0.49539 0.225 0.18792 0.0
H2537 H 0.53649 0.31904 0.18499 0.0
H2538 H 0.51148 0.28861 0.18678 0.0
H2539 H 0.51337 0.25061 0.1792 0.0
H2540 H 0.45727 0.15499 0.18017 0.0
H2541 H 0.48722 0.18046 0.18273 0.0
H2542 H 0.49403 0.21431 0.2196 0.0
C2543 C 0.52651 0.28817 0.19211 0.0
C2544 C 0.50922 0.24288 0.18809 0.0
C2545 C 0.54078 0.30565 0.19115 0.0
C2546 C 0.45674 0.1664 0.18797 0.0
C2547 C 0.47385 0.18105 0.18939 0.0
C2548 C 0.4982 0.22212 0.21073 0.0
C2549 C 0.53176 0.2701 0.19962 0.0
C2550 C 0.51755 0.25073 0.19958 0.0
C2551 C 0.4733 0.19684 0.19899 0.0
C2552 C 0.48954 0.21456 0.19924 0.0
H2553 H 0.5806 0.28712 0.21085 0.0
H2554 H 0.55557 0.25654 0.21248 0.0
H2555 H 0.51837 0.24576 0.21989 0.0
H2556 H 0.42525 0.18324 0.21269 0.0
H2557 H 0.45501 0.20889 0.21506 0.0
C2558 C 0.93547 0.29171 0.43675 0.0
C2559 C 0.936 0.31129 0.44357 0.0
C2560 C 0.95254 0.27691 0.43771 0.0
C2561 C -7e-05 0.26138 0.45709 0.0
H2562 H 0.02014 0.23642 0.42551 0.0
C2563 C 0.05791 0.18806 0.45405 0.0
C2564 C 0.07274 0.18717 0.44393 0.0
C2565 C 0.04314 0.20515 0.45499 0.0
C2566 C 0.01491 0.24348 0.43439 0.0
H2567 H 0.95446 0.33024 0.45718 0.0
H2568 H 0.98427 0.30445 0.45875 0.0
H2569 H 0.98967 0.26151 0.42535 0.0
H2570 H 0.08476 0.20436 0.42741 0.0
H2571 H 0.05913 0.23436 0.42918 0.0
H2572 H 0.02538 0.24343 0.4661 0.0
C2573 C 0.97061 0.30051 0.45272 0.0
C2574 C -0.00279 0.25757 0.43432 0.0
C2575 C 0.95354 0.31532 0.45177 0.0
C2576 C 0.07341 0.20445 0.43525 0.0
C2577 C 0.05865 0.22156 0.43621 0.0
C2578 C 0.01766 0.24724 0.45716 0.0
C2579 C 0.97049 0.28137 0.4455 0.0
C2580 C 0.9894 0.26652 0.44568 0.0
C2581 C 0.04293 0.22174 0.44587 0.0
C2582 C 0.02524 0.23803 0.44582 0.0
H2583 H 0.92214 0.28803 0.43042 0.0
H2584 H 0.95181 0.26207 0.43222 0.0
H2585 H 0.99422 0.26798 0.466 0.0
H2586 H 0.05701 0.17507 0.46094 0.0
H2587 H 0.03117 0.20475 0.4625 0.0
C2588 C 0.93776 0.69647 0.70347 0.0
C2589 C 0.93902 0.68022 0.69414 0.0
C2590 C 0.95378 0.71244 0.70432 0.0
C2591 C 0.99503 0.73953 0.70704 0.0
H2592 H 0.01154 0.76482 0.67481 0.0
C2593 C 0.06466 0.80183 0.70074 0.0
C2594 C 0.0613 0.81874 0.692 0.0
C2595 C 0.04928 0.78535 0.70212 0.0
C2596 C 0.00695 0.75805 0.68389 0.0
H2597 H 0.95877 0.66726 0.67888 0.0
H2598 H 0.98677 0.69507 0.68043 0.0
H2599 H 0.98672 0.73409 0.67526 0.0
H2600 H 0.03862 0.83221 0.67837 0.0
H2601 H 0.01177 0.80349 0.68086 0.0
H2602 H 0.01512 0.7638 0.71565 0.0
C2603 C 0.97318 0.69563 0.68694 0.0
C2604 C 0.993 0.74025 0.68414 0.0
C2605 C 0.9572 0.67964 0.68611 0.0
C2606 C 0.0418 0.81934 0.68511 0.0
C2607 C 0.02647 0.80284 0.68648 0.0
C2608 C 0.00911 0.75732 0.70679 0.0
C2609 C 0.97135 0.71248 0.69584 0.0
C2610 C 0.98687 0.73082 0.69571 0.0
C2611 C 0.03028 0.78543 0.69478 0.0
C2612 C 0.01512 0.7668 0.6952 0.0
H2613 H 0.92401 0.69735 0.70985 0.0
H2614 H 0.95188 0.72529 0.71123 0.0
H2615 H 0.99062 0.73252 0.71609 0.0
H2616 H 0.07947 0.80092 0.70623 0.0
H2617 H 0.05269 0.77208 0.70854 0.0
C2618 C 0.56418 0.70238 0.93668 0.0
C2619 C 0.56412 0.68324 0.94393 0.0
C2620 C 0.54841 0.71825 0.93864 0.0
C2621 C 0.50673 0.73834 0.96068 0.0
H2622 H 0.47866 0.75763 0.9298 0.0
C2623 C 0.447 0.81099 0.95698 0.0
C2624 C 0.42946 0.80866 0.94857 0.0
C2625 C 0.46255 0.79459 0.95808 0.0
C2626 C 0.4862 0.75225 0.93852 0.0
H2627 H 0.54819 0.66632 0.9594 0.0
H2628 H 0.52056 0.69411 0.96276 0.0
H2629 H 0.50879 0.73223 0.92858 0.0
H2630 H 0.41354 0.78658 0.93549 0.0
H2631 H 0.44059 0.75802 0.93748 0.0
H2632 H 0.4839 0.75845 0.97059 0.0
C2633 C 0.53285 0.69677 0.95559 0.0
C2634 C 0.50364 0.73795 0.93781 0.0
C2635 C 0.5486 0.68083 0.95361 0.0
C2636 C 0.42701 0.78904 0.94193 0.0
C2637 C 0.44252 0.7727 0.94302 0.0
C2638 C 0.4893 0.75284 0.96139 0.0
C2639 C 0.5323 0.71535 0.94791 0.0
C2640 C 0.51411 0.73089 0.94886 0.0
C2641 C 0.46079 0.77561 0.95078 0.0
C2642 C 0.47884 0.75983 0.9503 0.0
H2643 H 0.57601 0.70485 0.92923 0.0
H2644 H 0.54853 0.73261 0.93272 0.0
H2645 H 0.51458 0.73314 0.96934 0.0
H2646 H 0.44929 0.82587 0.96229 0.0
H2647 H 0.47651 0.79725 0.96411 0.0
C2648 C 0.45063 0.82282 0.30981 0.0
C2649 C 0.43246 0.82311 0.30176 0.0
C2650 C 0.46683 0.80715 0.30823 0.0
C2651 C 0.5032 0.7772 0.29887 0.0
H2652 H 0.48179 0.71832 0.29486 0.0
C2653 C 0.56027 0.70442 0.29082 0.0
C2654 C 0.5566 0.68632 0.29866 0.0
C2655 C 0.54509 0.72118 0.29016 0.0
C2656 C 0.48798 0.73467 0.29599 0.0
H2657 H 0.41772 0.80797 0.28529 0.0
H2658 H 0.44594 0.78077 0.28259 0.0
H2659 H 0.45615 0.74851 0.29557 0.0
H2660 H 0.53369 0.67127 0.31158 0.0
H2661 H 0.50707 0.70053 0.31032 0.0
H2662 H 0.53503 0.76327 0.2995 0.0
C2663 C 0.44748 0.79243 0.29021 0.0
C2664 C 0.47336 0.75195 0.29628 0.0
C2665 C 0.43137 0.8081 0.29174 0.0
C2666 C 0.53702 0.68498 0.30546 0.0
C2667 C 0.52175 0.7017 0.30472 0.0
C2668 C 0.51785 0.75991 0.29848 0.0
C2669 C 0.46508 0.79147 0.29861 0.0
C2670 C 0.48081 0.77337 0.29779 0.0
C2671 C 0.52583 0.72011 0.29723 0.0
C2672 C 0.51035 0.73848 0.29712 0.0
H2673 H 0.45198 0.83417 0.3176 0.0
H2674 H 0.48022 0.80672 0.31487 0.0
H2675 H 0.50936 0.79356 0.3 0.0
H2676 H 0.57516 0.70597 0.28542 0.0
H2677 H 0.54848 0.73507 0.28418 0.0
C2678 C 0.54256 0.31098 0.5344 0.0
C2679 C 0.55906 0.30759 0.54339 0.0
C2680 C 0.52586 0.29583 0.53297 0.0
C2681 C 0.49735 0.25548 0.52869 0.0
H2682 H 0.47279 0.23584 0.56052 0.0
C2683 C 0.43813 0.183 0.53412 0.0
C2684 C 0.42182 0.18469 0.5434 0.0
C2685 C 0.45328 0.19965 0.53254 0.0
C2686 C 0.47928 0.24136 0.55155 0.0
H2687 H 0.57167 0.28501 0.55736 0.0
H2688 H 0.5426 0.25863 0.55481 0.0
H2689 H 0.50352 0.2606 0.56066 0.0
H2690 H 0.4076 0.20592 0.55757 0.0
H2691 H 0.43398 0.23495 0.55473 0.0
H2692 H 0.47296 0.23608 0.51961 0.0
C2693 C 0.54242 0.27317 0.54903 0.0
C2694 C 0.49708 0.25529 0.55163 0.0
C2695 C 0.55912 0.28823 0.55044 0.0
C2696 C 0.42011 0.20397 0.55045 0.0
C2697 C 0.43526 0.22057 0.54887 0.0
C2698 C 0.47955 0.24136 0.52861 0.0
C2699 C 0.52534 0.27709 0.54053 0.0
C2700 C 0.50639 0.26236 0.54022 0.0
C2701 C 0.45239 0.21826 0.54019 0.0
C2702 C 0.4704 0.23416 0.54005 0.0
H2703 H 0.54208 0.32569 0.52879 0.0
H2704 H 0.51285 0.29925 0.52637 0.0
H2705 H 0.50426 0.2607 0.51976 0.0
H2706 H 0.43982 0.16842 0.52848 0.0
H2707 H 0.46637 0.19741 0.52581 0.0
C2708 C 0.04014 0.18364 0.81153 0.0
C2709 C 0.05908 0.18404 0.80411 0.0
C2710 C 0.02512 0.20054 0.81079 0.0
C2711 C 0.00493 0.24501 0.81374 0.0
H2712 H 0.98789 0.27046 0.78166 0.0
C2713 C 0.95071 0.32074 0.81164 0.0
C2714 C 0.93311 0.31942 0.80322 0.0
C2715 C 0.96759 0.30566 0.811 0.0
C2716 C 0.99249 0.26349 0.79068 0.0
H2717 H 0.07673 0.20221 0.78979 0.0
H2718 H 0.05054 0.23172 0.78859 0.0
H2719 H 0.01331 0.24005 0.78194 0.0
H2720 H 0.91996 0.30186 0.78712 0.0
H2721 H 0.94927 0.2755 0.7861 0.0
H2722 H 0.98372 0.26801 0.82248 0.0
C2723 C 0.04728 0.21827 0.79492 0.0
C2724 C 0.00715 0.24621 0.79085 0.0
C2725 C 0.06232 0.20138 0.79565 0.0
C2726 C 0.93324 0.30331 0.79378 0.0
C2727 C 0.95011 0.28826 0.79314 0.0
C2728 C 0.99032 0.26229 0.81358 0.0
C2729 C 0.02869 0.21817 0.80261 0.0
C2730 C 0.01337 0.23668 0.80238 0.0
C2731 C 0.96722 0.289 0.80191 0.0
C2732 C 0.98383 0.27162 0.80205 0.0
H2733 H 0.03709 0.17047 0.8181 0.0
H2734 H 0.01073 0.19985 0.81668 0.0
H2735 H 0.00967 0.23821 0.82278 0.0
H2736 H 0.95118 0.33303 0.81898 0.0
H2737 H 0.98077 0.30681 0.81775 0.0
C2738 C 0.93891 0.67998 0.04068 0.0
C2739 C 0.92294 0.68175 0.05014 0.0
C2740 C 0.95441 0.69629 0.03911 0.0
C2741 C 0.98022 0.73793 0.03466 0.0
H2742 H 0.0064 0.75782 0.06598 0.0
C2743 C 0.04162 0.8091 0.03823 0.0
C2744 C 0.05881 0.80661 0.04686 0.0
C2745 C 0.02534 0.79337 0.0374 0.0
C2746 C -0.00064 0.75229 0.05715 0.0
H2747 H 0.90997 0.70259 0.0649 0.0
H2748 H 0.93698 0.73109 0.06209 0.0
H2749 H 0.97619 0.73241 0.06673 0.0
H2750 H 0.07313 0.78503 0.06081 0.0
H2751 H 0.04482 0.7576 0.05928 0.0
H2752 H 0.00375 0.75768 0.0251 0.0
C2753 C 0.93768 0.71691 0.05603 0.0
C2754 C 0.98187 0.738 0.05759 0.0
C2755 C 0.92216 0.70063 0.05759 0.0
C2756 C 0.06 0.78757 0.05416 0.0
C2757 C 0.04374 0.7719 0.05333 0.0
C2758 C -0.00228 0.75236 0.03423 0.0
C2759 C 0.95424 0.71466 0.04697 0.0
C2760 C 0.97215 0.73062 0.04636 0.0
C2761 C 0.02597 0.77492 0.04519 0.0
C2762 C 0.00753 0.75955 0.04548 0.0
H2763 H 0.93991 0.66568 0.03473 0.0
H2764 H 0.96706 0.69407 0.0321 0.0
H2765 H 0.97296 0.73255 0.02587 0.0
H2766 H 0.04026 0.82355 0.03244 0.0
H2767 H 0.01179 0.79613 0.03107 0.0
C2768 C 0.43053 0.69421 0.78861 0.0
C2769 C 0.43283 0.67738 0.79751 0.0
C2770 C 0.44705 0.70949 0.78697 0.0
C2771 C 0.49021 0.73441 0.80537 0.0
H2772 H 0.50857 0.75964 0.77345 0.0
C2773 C 0.56112 0.79548 0.78754 0.0
C2774 C 0.55882 0.81186 0.79672 0.0
C2775 C 0.54525 0.77944 0.78622 0.0
C2776 C 0.5036 0.75266 0.78241 0.0
H2777 H 0.45488 0.66249 0.811 0.0
H2778 H 0.48365 0.6891 0.80808 0.0
H2779 H 0.48303 0.72907 0.77349 0.0
H2780 H 0.53744 0.825 0.81118 0.0
H2781 H 0.50983 0.79706 0.80883 0.0
H2782 H 0.51067 0.75779 0.81432 0.0
C2783 C 0.46892 0.69067 0.80255 0.0
C2784 C 0.48897 0.7353 0.78244 0.0
C2785 C 0.45246 0.67541 0.80418 0.0
C2786 C 0.53984 0.8125 0.8041 0.0
C2787 C 0.52405 0.79646 0.8028 0.0
C2788 C 0.50465 0.75178 0.80534 0.0
C2789 C 0.46612 0.7082 0.79421 0.0
C2790 C 0.48218 0.72602 0.79393 0.0
C2791 C 0.52687 0.77949 0.79408 0.0
C2792 C 0.51142 0.76114 0.79388 0.0
H2793 H 0.41565 0.69612 0.78327 0.0
H2794 H 0.44444 0.7229 0.78051 0.0
H2795 H 0.48503 0.72779 0.81438 0.0
H2796 H 0.57551 0.7946 0.78166 0.0
H2797 H 0.54782 0.76648 0.77945 0.0
C2798 C 0.93542 0.79597 0.5635 0.0
C2799 C 0.93029 0.80809 0.55266 0.0
C2800 C 0.95231 0.7809 0.56322 0.0
C2801 C 0.00166 0.76708 0.5446 0.0
H2802 H 0.00121 0.71597 0.56604 0.0
C2803 C 0.06138 0.69381 0.54237 0.0
C2804 C 0.07076 0.68799 0.55401 0.0
C2805 C 0.04559 0.71004 0.54183 0.0
C2806 C 0.00154 0.7303 0.56008 0.0
H2807 H 0.93787 0.81312 0.53284 0.0
H2808 H 0.96659 0.78597 0.53213 0.0
H2809 H 0.96928 0.73926 0.56526 0.0
H2810 H 0.07172 0.69518 0.57412 0.0
H2811 H 0.04365 0.7232 0.57317 0.0
H2812 H 0.03374 0.75728 0.53908 0.0
C2813 C 0.95824 0.7887 0.54101 0.0
C2814 C 0.98331 0.7437 0.55965 0.0
C2815 C 0.94162 0.80409 0.54136 0.0
C2816 C 0.06484 0.69939 0.56501 0.0
C2817 C 0.04873 0.71529 0.5645 0.0
C2818 C 0.01972 0.75338 0.54484 0.0
C2819 C 0.96418 0.7773 0.55202 0.0
C2820 C 0.98318 0.76239 0.55199 0.0
C2821 C 0.03869 0.72037 0.55296 0.0
C2822 C 0.01984 0.73504 0.55269 0.0
H2823 H 0.9271 0.79887 0.57238 0.0
H2824 H 0.95657 0.77273 0.57195 0.0
H2825 H 0.00239 0.78153 0.53878 0.0
H2826 H 0.0657 0.6853 0.53375 0.0
H2827 H 0.03798 0.71374 0.53284 0.0
C2828 C 0.94084 0.18245 0.2881 0.0
C2829 C 0.94069 0.16744 0.29814 0.0
C2830 C 0.95804 0.19699 0.28668 0.0
C2831 C -0.00239 0.22488 0.30636 0.0
H2832 H 0.02043 0.24586 0.27438 0.0
C2833 C 0.06718 0.28826 0.28854 0.0
C2834 C 0.0622 0.30589 0.29651 0.0
C2835 C 0.05302 0.27061 0.2876 0.0
C2836 C 0.01428 0.24005 0.28337 0.0
H2837 H 0.95926 0.15489 0.31399 0.0
H2838 H 0.98934 0.18025 0.31145 0.0
H2839 H -0.00383 0.21435 0.27467 0.0
H2840 H 0.03792 0.31928 0.30921 0.0
H2841 H 0.01324 0.28857 0.30749 0.0
H2842 H 0.01553 0.25053 0.31509 0.0
C2843 C 0.97595 0.18096 0.30482 0.0
C2844 C 0.00036 0.22212 0.28353 0.0
C2845 C 0.95876 0.16638 0.30623 0.0
C2846 C 0.04234 0.30592 0.30306 0.0
C2847 C 0.02826 0.28827 0.30215 0.0
C2848 C 0.01139 0.2428 0.30619 0.0
C2849 C 0.97543 0.19683 0.29527 0.0
C2850 C 0.99174 0.21449 0.29503 0.0
C2851 C 0.03369 0.27023 0.29465 0.0
C2852 C 0.01964 0.25075 0.2947 0.0
H2853 H 0.92724 0.18361 0.28163 0.0
H2854 H 0.95713 0.20911 0.27927 0.0
H2855 H 0.99101 0.21957 0.31535 0.0
H2856 H 0.08233 0.28775 0.28334 0.0
H2857 H 0.05761 0.25689 0.28177 0.0
C2858 C 0.55941 0.18905 0.0395 0.0
C2859 C 0.57418 0.18794 0.04963 0.0
C2860 C 0.54472 0.20622 0.03862 0.0
C2861 C 0.51653 0.24401 0.05957 0.0
H2862 H 0.49485 0.26847 0.0282 0.0
C2863 C 0.45324 0.31463 0.04281 0.0
C2864 C 0.43598 0.31014 0.05113 0.0
C2865 C 0.47065 0.30026 0.04171 0.0
C2866 C 0.50084 0.26189 0.03704 0.0
H2867 H 0.58631 0.20493 0.06619 0.0
H2868 H 0.56084 0.23507 0.06453 0.0
H2869 H 0.52642 0.24447 0.02779 0.0
H2870 H 0.42297 0.2865 0.06436 0.0
H2871 H 0.45322 0.26128 0.06229 0.0
H2872 H 0.49115 0.26149 0.06885 0.0
C2873 C 0.56031 0.22236 0.05744 0.0
C2874 C 0.51882 0.24806 0.0368 0.0
C2875 C 0.57498 0.20516 0.05834 0.0
C2876 C 0.43607 0.29054 0.05793 0.0
C2877 C 0.45348 0.27616 0.05682 0.0
C2878 C 0.4986 0.2578 0.05981 0.0
C2879 C 0.54455 0.22267 0.04783 0.0
C2880 C 0.52674 0.23884 0.04806 0.0
C2881 C 0.47115 0.28109 0.0489 0.0
C2882 C 0.49041 0.2667 0.04854 0.0
H2883 H 0.55843 0.17612 0.03257 0.0
H2884 H 0.53272 0.20591 0.03113 0.0
H2885 H 0.52201 0.23692 0.0684 0.0
H2886 H 0.45368 0.32958 0.03741 0.0
H2887 H 0.48409 0.30456 0.03558 0.0
C2888 C 0.43257 0.29942 0.70907 0.0
C2889 C 0.43569 0.31508 0.69955 0.0
C2890 C 0.44863 0.28406 0.71163 0.0
C2891 C 0.50639 0.2703 0.70594 0.0
H2892 H 0.48544 0.21091 0.70651 0.0
C2893 C 0.54 0.18122 0.69186 0.0
C2894 C 0.56053 0.18153 0.69764 0.0
C2895 C 0.52461 0.19706 0.69478 0.0
C2896 C 0.49152 0.22741 0.70642 0.0
H2897 H 0.45859 0.3276 0.68573 0.0
H2898 H 0.48645 0.30067 0.6901 0.0
H2899 H 0.45952 0.24078 0.70681 0.0
H2900 H 0.58068 0.1982 0.71144 0.0
H2901 H 0.55371 0.22583 0.71653 0.0
H2902 H 0.53835 0.25689 0.7049 0.0
C2903 C 0.47168 0.30036 0.69566 0.0
C2904 C 0.47671 0.24453 0.70673 0.0
C2905 C 0.45563 0.31572 0.69309 0.0
C2906 C 0.56506 0.19757 0.70675 0.0
C2907 C 0.54967 0.21345 0.70964 0.0
C2908 C 0.52121 0.25318 0.70564 0.0
C2909 C 0.46814 0.28407 0.70474 0.0
C2910 C 0.48397 0.26614 0.70618 0.0
C2911 C 0.52942 0.21355 0.70353 0.0
C2912 C 0.51389 0.23156 0.70556 0.0
H2913 H 0.41747 0.29859 0.71431 0.0
H2914 H 0.44559 0.27186 0.7188 0.0
H2915 H 0.51245 0.28681 0.70565 0.0
H2916 H 0.53596 0.16908 0.68483 0.0
H2917 H 0.50925 0.19686 0.6898 0.0
C2918 C 0.54955 0.80788 0.45841 0.0
C2919 C 0.56513 0.80517 0.44879 0.0
C2920 C 0.53283 0.79279 0.45994 0.0
C2921 C 0.5016 0.75476 0.44087 0.0
H2922 H 0.4785 0.73447 0.47293 0.0
C2923 C 0.4388 0.68528 0.45804 0.0
C2924 C 0.42196 0.68893 0.4493 0.0
C2925 C 0.4553 0.7006 0.45962 0.0
C2926 C 0.48481 0.74004 0.46393 0.0
H2927 H 0.57619 0.78371 0.43381 0.0
H2928 H 0.54705 0.75739 0.43654 0.0
H2929 H 0.51109 0.75731 0.47265 0.0
H2930 H 0.40837 0.71229 0.4361 0.0
H2931 H 0.43712 0.739 0.43892 0.0
H2932 H 0.4756 0.73746 0.43211 0.0
C2933 C 0.54761 0.77137 0.44275 0.0
C2934 C 0.50337 0.75313 0.46377 0.0
C2935 C 0.56437 0.7864 0.44124 0.0
C2936 C 0.4212 0.70885 0.44282 0.0
C2937 C 0.43772 0.72411 0.44438 0.0
C2938 C 0.48303 0.74186 0.44104 0.0
C2939 C 0.53133 0.77475 0.45186 0.0
C2940 C 0.512 0.7605 0.45222 0.0
C2941 C 0.45529 0.71982 0.45247 0.0
C2942 C 0.47444 0.73434 0.45255 0.0
H2943 H 0.54973 0.8221 0.46444 0.0
H2944 H 0.52046 0.79582 0.46702 0.0
H2945 H 0.50768 0.76047 0.43184 0.0
H2946 H 0.43982 0.67016 0.46325 0.0
H2947 H 0.46868 0.69684 0.4659 0.0
C2948 C 0.95791 0.82191 0.19012 0.0
C2949 C 0.93945 0.82017 0.19788 0.0
C2950 C 0.97485 0.80702 0.19124 0.0
C2951 C -0.00198 0.76336 0.21116 0.0
H2952 H 0.01475 0.73899 0.17873 0.0
C2953 C 0.04345 0.68348 0.18861 0.0
C2954 C 0.06304 0.68347 0.19542 0.0
C2955 C 0.02857 0.70034 0.19014 0.0
C2956 C 0.01014 0.74554 0.18786 0.0
H2957 H 0.92505 0.80242 0.21354 0.0
H2958 H 0.95456 0.77633 0.21539 0.0
H2959 H 0.98982 0.76956 0.17941 0.0
H2960 H 0.08183 0.70058 0.20968 0.0
H2961 H 0.05578 0.73005 0.21229 0.0
H2962 H 0.01812 0.73889 0.21958 0.0
C2963 C 0.95594 0.78924 0.20847 0.0
C2964 C -0.00387 0.76326 0.18825 0.0
C2965 C 0.93897 0.80414 0.20736 0.0
C2966 C 0.06693 0.70014 0.20424 0.0
C2967 C 0.05199 0.71699 0.20579 0.0
C2968 C 0.01218 0.74563 0.21077 0.0
C2969 C 0.97369 0.79011 0.20014 0.0
C2970 C 0.98981 0.77229 0.19989 0.0
C2971 C 0.03292 0.7175 0.19852 0.0
C2972 C 0.01817 0.73643 0.19911 0.0
H2973 H 0.95891 0.83422 0.18281 0.0
H2974 H 0.98856 0.80831 0.18485 0.0
H2975 H 0.99346 0.77006 0.22027 0.0
H2976 H 0.03985 0.67082 0.18181 0.0
H2977 H 0.01379 0.70014 0.18458 0.0
C2978 C 0.91925 0.20939 0.93949 0.0
C2979 C 0.91977 0.19141 0.94768 0.0
C2980 C 0.93456 0.22597 0.94069 0.0
C2981 C 0.97712 0.24911 0.96144 0.0
H2982 H 0.00524 0.26266 0.92954 0.0
C2983 C 0.06106 0.28938 0.94065 0.0
C2984 C 0.06129 0.30949 0.94693 0.0
C2985 C 0.04341 0.27537 0.94196 0.0
C2986 C -0.00237 0.25895 0.93853 0.0
H2987 H 0.93574 0.17756 0.96414 0.0
H2988 H 0.96251 0.20641 0.96612 0.0
H2989 H 0.97359 0.23906 0.92973 0.0
H2990 H 0.04371 0.33009 0.96012 0.0
H2991 H 0.01289 0.30553 0.96238 0.0
H2992 H 0.00161 0.26875 0.97023 0.0
C2993 C 0.95026 0.20771 0.95881 0.0
C2994 C 0.9793 0.2457 0.93862 0.0
C2995 C 0.93498 0.1911 0.95761 0.0
C2996 C 0.04401 0.31475 0.95509 0.0
C2997 C 0.02638 0.30068 0.95644 0.0
C2998 C 0.99545 0.26251 0.96134 0.0
C2999 C 0.95064 0.22493 0.9501 0.0
C3000 C 0.96896 0.24049 0.95008 0.0
C3001 C 0.02567 0.28113 0.94962 0.0
C3002 C 0.00602 0.26731 0.94988 0.0
H3003 H 0.90763 0.21024 0.93182 0.0
H3004 H 0.93426 0.23927 0.93398 0.0
H3005 H 0.96941 0.24541 0.9704 0.0
H3006 H 0.07415 0.28474 0.93436 0.0
H3007 H 0.04346 0.26019 0.93678 0.0
C3008 C 0.3501 0.9431 0.28316 0.0
C3009 C 0.36966 0.93407 0.2874 0.0
C3010 C 0.35027 0.95958 0.2741 0.0
C3011 C 0.38437 0.9792 0.24814 0.0
H3012 H 0.34421 0.02765 0.24764 0.0
C3013 C 0.38996 0.05055 0.21291 0.0
C3014 C 0.37046 0.05963 0.20862 0.0
C3015 C 0.38965 0.03387 0.22184 0.0
C3016 C 0.35529 0.014 0.24757 0.0
H3017 H 0.4047 0.93573 0.28628 0.0
H3018 H 0.40511 0.96499 0.27061 0.0
H3019 H 0.34463 0.00317 0.26579 0.0
H3020 H 0.33543 0.05785 0.20945 0.0
H3021 H 0.33476 0.02836 0.225 0.0
H3022 H 0.39506 0.99006 0.22993 0.0
C3023 C 0.38963 0.9591 0.27407 0.0
C3024 C 0.35561 8e-05 0.25798 0.0
C3025 C 0.38944 0.94261 0.28312 0.0
C3026 C 0.35063 0.05099 0.21271 0.0
C3027 C 0.35028 0.03433 0.22166 0.0
C3028 C 0.38406 0.99313 0.23772 0.0
C3029 C 0.37004 0.96726 0.26918 0.0
C3030 C 0.37018 0.98256 0.25838 0.0
C3031 C 0.3698 0.02609 0.2266 0.0
C3032 C 0.36952 0.01066 0.23734 0.0
H3033 H 0.3347 0.93661 0.28637 0.0
H3034 H 0.33492 0.96547 0.27047 0.0
H3035 H 0.39547 0.96556 0.24806 0.0
H3036 H 0.40542 0.05721 0.20993 0.0
H3037 H 0.40494 0.02795 0.22554 0.0
C3038 C 0.30439 0.13804 0.52663 0.0
C3039 C 0.31239 0.1188 0.53195 0.0
C3040 C 0.28777 0.13728 0.51769 0.0
C3041 C 0.24456 0.10294 0.50443 0.0
H3042 H 0.25431 0.13731 0.47416 0.0
C3043 C 0.18742 0.09672 0.46176 0.0
C3044 C 0.18042 0.11668 0.45687 0.0
C3045 C 0.20506 0.09589 0.47002 0.0
C3046 C 0.2513 0.12773 0.48258 0.0
H3047 H 0.30898 0.08389 0.53275 0.0
H3048 H 0.27972 0.08244 0.51707 0.0
H3049 H 0.2806 0.13859 0.49139 0.0
H3050 H 0.18663 0.15123 0.45615 0.0
H3051 H 0.21748 0.14992 0.47062 0.0
H3052 H 0.21512 0.0923 0.49571 0.0
C3053 C 0.2862 0.0981 0.51981 0.0
C3054 C 0.26629 0.12852 0.49245 0.0
C3055 C 0.30287 0.09888 0.52874 0.0
C3056 C 0.19197 0.13564 0.45974 0.0
C3057 C 0.20958 0.13485 0.46802 0.0
C3058 C 0.22952 0.1022 0.49456 0.0
C3059 C 0.27892 0.11725 0.51395 0.0
C3060 C 0.26297 0.11627 0.50351 0.0
C3061 C 0.21591 0.11505 0.47352 0.0
C3062 C 0.23267 0.1147 0.48357 0.0
H3063 H 0.31168 0.15355 0.52896 0.0
H3064 H 0.2822 0.15231 0.51347 0.0
H3065 H 0.24154 0.09345 0.51288 0.0
H3066 H 0.17867 0.08192 0.45958 0.0
H3067 H 0.20982 0.08035 0.47394 0.0
C3068 C 0.11875 0.95137 0.70664 0.0
C3069 C 0.11664 0.92994 0.71095 0.0
C3070 C 0.11755 0.96865 0.71518 0.0
C3071 C 0.12646 0.98255 0.74815 0.0
H3072 H 0.08578 0.02955 0.74243 0.0
C3073 C 0.11229 0.04901 0.78561 0.0
C3074 C 0.10954 0.07025 0.78113 0.0
C3075 C 0.11228 0.03156 0.77716 0.0
C3076 C 0.09745 0.01673 0.74409 0.0
H3077 H 0.11116 0.90965 0.72743 0.0
H3078 H 0.1099 0.93977 0.7424 0.0
H3079 H 0.08852 0.00019 0.72702 0.0
H3080 H 0.10395 0.09002 0.76449 0.0
H3081 H 0.10506 0.05989 0.74968 0.0
H3082 H 0.13596 -0.00078 0.76498 0.0
C3083 C 0.11252 0.9432 0.73245 0.0
C3084 C 0.09895 -7e-05 0.73528 0.0
C3085 C 0.11335 0.92601 0.72391 0.0
C3086 C 0.10646 0.07379 0.76814 0.0
C3087 C 0.10676 0.05645 0.75969 0.0
C3088 C 0.12523 -0.00049 0.75687 0.0
C3089 C 0.11456 0.96464 0.72816 0.0
C3090 C 0.11341 0.98271 0.73727 0.0
C3091 C 0.10975 0.03512 0.76407 0.0
C3092 C 0.11069 0.0168 0.75496 0.0
H3093 H 0.12142 0.95472 0.69669 0.0
H3094 H 0.11926 0.98511 0.7117 0.0
H3095 H 0.13784 0.96944 0.74981 0.0
H3096 H 0.11475 0.04594 0.7956 0.0
H3097 H 0.11426 0.0153 0.78089 0.0
C3098 C 0.19201 0.867 0.03378 0.0
C3099 C 0.17129 0.86352 0.0287 0.0
C3100 C 0.21019 0.86736 0.02586 0.0
C3101 C 0.22827 0.85203 0.99341 0.0
H3102 H 0.275 0.89238 0.00061 0.0
C3103 C 0.2984 0.87193 0.95861 0.0
C3104 C 0.31913 0.86898 0.96383 0.0
C3105 C 0.28004 0.87142 0.96638 0.0
C3106 C 0.26202 0.88105 -0.00147 0.0
H3107 H 0.15322 0.85708 0.01151 0.0
H3108 H 0.18456 0.85894 -0.00238 0.0
H3109 H 0.24354 0.89099 0.01462 0.0
H3110 H 0.33699 0.86267 0.98113 0.0
H3111 H 0.30501 0.86272 0.99476 0.0
H3112 H 0.24668 0.84265 0.97707 0.0
C3113 C 0.18706 0.8609 0.0077 0.0
C3114 C 0.2441 0.88008 0.00659 0.0
C3115 C 0.16901 0.86019 0.01563 0.0
C3116 C 0.32124 0.86555 0.97692 0.0
C3117 C 0.30299 0.86546 0.9847 0.0
C3118 C 0.24602 0.85329 0.98523 0.0
C3119 C 0.20789 0.8645 0.0127 0.0
C3120 C 0.22704 0.86548 0.00417 0.0
C3121 C 0.28227 0.86832 0.97949 0.0
C3122 C 0.26306 0.86771 0.98778 0.0
H3123 H 0.19412 0.86963 0.04385 0.0
H3124 H 0.22602 0.86978 0.03008 0.0
H3125 H 0.21567 0.84029 0.99136 0.0
H3126 H 0.29643 0.87469 0.94855 0.0
H3127 H 0.26415 0.8737 0.9622 0.0
C3128 C 0.60639 0.92176 0.76665 0.0
C3129 C 0.6109 0.92464 0.77956 0.0
C3130 C 0.60514 0.93956 0.75857 0.0
C3131 C 0.62174 -0.00291 0.75619 0.0
H3132 H 0.58214 -0.0031 0.72762 0.0
C3133 C 0.60764 0.07158 0.72455 0.0
C3134 C 0.61046 0.06807 0.71152 0.0
C3135 C 0.60659 0.05411 0.73288 0.0
C3136 C 0.59333 -0.00295 0.73553 0.0
H3137 H 0.61694 0.94825 0.7943 0.0
H3138 H 0.61384 0.9797 0.78027 0.0
H3139 H 0.58152 0.96682 0.74266 0.0
H3140 H 0.61352 0.04373 0.69685 0.0
H3141 H 0.61111 0.01283 0.71151 0.0
H3142 H 0.6331 0.02765 0.74916 0.0
C3143 C 0.61194 0.96361 0.77629 0.0
C3144 C 0.59306 0.97984 0.74412 0.0
C3145 C 0.61349 0.94569 0.78436 0.0
C3146 C 0.61137 0.04676 0.70688 0.0
C3147 C 0.60999 0.02919 0.71522 0.0
C3148 C 0.62176 0.01443 0.74771 0.0
C3149 C 0.60798 0.96072 0.76327 0.0
C3150 C 0.60741 0.97956 0.7545 0.0
C3151 C 0.60793 0.03279 0.72831 0.0
C3152 C 0.60767 0.01446 0.73727 0.0
H3153 H 0.6039 0.90568 0.76277 0.0
H3154 H 0.60237 0.93665 0.74859 0.0
H3155 H 0.6333 -0.00276 0.76391 0.0
H3156 H 0.60628 0.08788 0.72832 0.0
H3157 H 0.60465 0.05724 0.74291 0.0
C3158 C 0.68957 0.88647 0.46322 0.0
C3159 C 0.67973 0.86649 0.46053 0.0
C3160 C 0.70774 0.88735 0.47109 0.0
C3161 C 0.75112 0.85374 0.48519 0.0
H3162 H 0.75015 0.8972 0.51178 0.0
C3163 C 0.80866 0.84941 0.52778 0.0
C3164 C 0.81908 0.8688 0.53113 0.0
C3165 C 0.7915 0.84968 0.51917 0.0
C3166 C 0.75075 0.88512 0.50433 0.0
H3167 H 0.68114 0.83176 0.46348 0.0
H3168 H 0.71292 0.83317 0.47726 0.0
H3169 H 0.72151 0.89686 0.49584 0.0
H3170 H 0.81956 0.90367 0.52869 0.0
H3171 H 0.78951 0.90424 0.51353 0.0
H3172 H 0.78024 0.84187 0.49375 0.0
C3173 C 0.70684 0.84815 0.47323 0.0
C3174 C 0.73441 0.88497 0.49518 0.0
C3175 C 0.68869 0.84731 0.46538 0.0
C3176 C 0.81168 0.88855 0.52616 0.0
C3177 C 0.79449 0.88885 0.51756 0.0
C3178 C 0.76743 0.85388 0.49434 0.0
C3179 C 0.71632 0.86822 0.47636 0.0
C3180 C 0.73436 0.86918 0.48558 0.0
C3181 C 0.7845 0.86937 0.51381 0.0
C3182 C 0.7673 0.86946 0.50406 0.0
H3183 H 0.6829 0.90141 0.45946 0.0
H3184 H 0.71492 0.903 0.47318 0.0
H3185 H 0.75166 0.84157 0.47779 0.0
H3186 H 0.81424 0.834 0.5315 0.0
H3187 H 0.78386 0.83447 0.5166 0.0
C3188 C 0.88921 0.05231 0.27978 0.0
C3189 C 0.86999 0.06152 0.2844 0.0
C3190 C 0.88837 0.03562 0.27089 0.0
C3191 C 0.85313 0.9942 0.2566 0.0
H3192 H 0.89139 0.00144 0.2277 0.0
C3193 C 0.84974 0.93643 0.21389 0.0
C3194 C 0.86997 0.92855 0.20992 0.0
C3195 C 0.84859 0.95406 0.22217 0.0
C3196 C 0.8807 -0.00086 0.23574 0.0
H3197 H 0.83491 0.06017 0.28403 0.0
H3198 H 0.83332 0.03081 0.26839 0.0
H3199 H 0.89193 0.02812 0.24474 0.0
H3200 H 0.90477 0.93302 0.21094 0.0
H3201 H 0.90288 0.96386 0.22539 0.0
H3202 H 0.84212 0.96503 0.24768 0.0
C3203 C 0.84902 0.03641 0.27164 0.0
C3204 C 0.88106 0.01435 0.2455 0.0
C3205 C 0.84989 0.05315 0.28054 0.0
C3206 C 0.88899 0.93907 0.21381 0.0
C3207 C 0.88788 0.95668 0.22206 0.0
C3208 C 0.85282 0.97892 0.24684 0.0
C3209 C 0.86827 0.02792 0.26649 0.0
C3210 C 0.86747 0.01189 0.25609 0.0
C3211 C 0.86768 0.96404 0.22655 0.0
C3212 C 0.86676 0.98114 0.23638 0.0
H3213 H 0.90487 0.05867 0.28263 0.0
H3214 H 0.90345 0.02909 0.26723 0.0
H3215 H 0.84256 0.99188 0.26469 0.0
H3216 H 0.8349 0.92848 0.21092 0.0
H3217 H 0.8328 0.9596 0.22533 0.0
C3218 C 0.80404 0.10227 0.96565 0.0
C3219 C 0.81172 0.12255 0.96164 0.0
C3220 C 0.78704 0.10102 0.97436 0.0
C3221 C 0.74345 0.13323 0.98957 0.0
H3222 H 0.75125 0.09235 0.01716 0.0
C3223 C 0.6906 0.13719 0.03398 0.0
C3224 C 0.68069 0.11753 0.03732 0.0
C3225 C 0.70778 0.13736 0.02538 0.0
C3226 C 0.74884 0.10375 0.00948 0.0
H3227 H 0.80756 0.15733 0.96304 0.0
H3228 H 0.77792 0.15529 0.97832 0.0
H3229 H 0.77742 0.09314 -0.0002 0.0
H3230 H 0.68139 0.08264 0.0351 0.0
H3231 H 0.7117 0.08282 0.02007 0.0
H3232 H 0.71503 0.14402 -0.00065 0.0
C3233 C 0.7847 0.14032 0.97468 0.0
C3234 C 0.7637 0.10412 -0.0005 0.0
C3235 C 0.80163 0.14154 0.96594 0.0
C3236 C 0.68898 0.09793 0.03263 0.0
C3237 C 0.70625 0.09807 0.02407 0.0
C3238 C 0.72869 0.13295 -0.00042 0.0
C3239 C 0.77757 0.12006 0.97921 0.0
C3240 C 0.76119 0.11892 0.98946 0.0
C3241 C 0.7153 0.11785 0.02005 0.0
C3242 C 0.73131 0.11829 0.00965 0.0
H3243 H 0.8117 0.08746 0.96238 0.0
H3244 H 0.78163 0.08517 0.97749 0.0
H3245 H 0.74088 0.14459 0.98189 0.0
H3246 H 0.68428 0.15249 0.03746 0.0
H3247 H 0.71471 0.15279 0.02257 0.0
C3248 C 0.87541 0.54907 0.70829 0.0
C3249 C 0.87918 0.56988 0.71324 0.0
C3250 C 0.87495 0.53105 0.71633 0.0
C3251 C 0.8619 0.51502 0.74811 0.0
H3252 H 0.90238 0.46737 0.74395 0.0
C3253 C 0.86913 0.44728 0.78548 0.0
C3254 C 0.87336 0.42619 0.78115 0.0
C3255 C 0.87013 0.46485 0.77713 0.0
C3256 C 0.89067 0.48032 0.74514 0.0
H3257 H 0.88622 0.58817 0.7303 0.0
H3258 H 0.88437 0.55682 0.74439 0.0
H3259 H 0.90278 0.49744 0.72892 0.0
H3260 H 0.88248 0.40688 0.76484 0.0
H3261 H 0.88279 0.43709 0.75013 0.0
H3262 H 0.84918 0.49784 0.76401 0.0
C3263 C 0.88179 0.55449 0.73433 0.0
C3264 C 0.89102 0.49753 0.73655 0.0
C3265 C 0.88271 0.57237 0.72629 0.0
C3266 C 0.87869 0.42294 0.76838 0.0
C3267 C 0.87927 0.44036 0.75999 0.0
C3268 C 0.86122 0.49762 0.75655 0.0
C3269 C 0.87785 0.53375 0.72942 0.0
C3270 C 0.87676 0.51504 0.73805 0.0
C3271 C 0.87505 0.46157 0.76424 0.0
C3272 C 0.8757 0.4801 0.75523 0.0
H3273 H 0.87255 0.5468 0.69826 0.0
H3274 H 0.87187 0.5151 0.7124 0.0
H3275 H 0.85069 0.5284 0.74936 0.0
H3276 H 0.86497 0.45015 0.7953 0.0
H3277 H 0.86718 0.48098 0.78081 0.0
C3278 C 0.79319 0.62196 0.03535 0.0
C3279 C 0.81462 0.62489 0.03125 0.0
C3280 C 0.77605 0.62352 0.02674 0.0
C3281 C 0.76283 0.64324 0.99427 0.0
H3282 H 0.71379 0.60426 -0.00204 0.0
C3283 C 0.69674 0.62692 0.95597 0.0
C3284 C 0.67542 0.62942 0.96042 0.0
C3285 C 0.71416 0.62755 0.96445 0.0
C3286 C 0.72741 0.61525 0.99687 0.0
H3287 H 0.83507 0.63233 0.01512 0.0
H3288 H 0.8055 0.63371 -2e-05 0.0
H3289 H 0.74328 0.60288 0.01331 0.0
H3290 H 0.65556 0.63578 0.97697 0.0
H3291 H 0.68587 0.636 0.9918 0.0
H3292 H 0.74704 0.65498 0.97752 0.0
C3293 C 0.80167 0.63075 0.00984 0.0
C3294 C 0.7442 0.61462 0.0057 0.0
C3295 C 0.81869 0.62956 0.01847 0.0
C3296 C 0.67181 0.63317 0.97336 0.0
C3297 C 0.68909 0.63343 0.98182 0.0
C3298 C 0.74619 0.64357 0.98531 0.0
C3299 C 0.78012 0.62775 0.01384 0.0
C3300 C 0.76209 0.62866 0.00454 0.0
C3301 C 0.71035 0.6304 0.97746 0.0
C3302 C 0.72834 0.62966 0.9866 0.0
H3303 H 0.78973 0.61836 0.04518 0.0
H3304 H 0.75964 0.62149 0.03021 0.0
H3305 H 0.77614 0.65457 0.9932 0.0
H3306 H 0.69984 0.62402 0.94602 0.0
H3307 H 0.73051 0.62518 0.96092 0.0
C3308 C 0.61532 0.55083 0.28483 0.0
C3309 C 0.61136 0.57115 0.2793 0.0
C3310 C 0.61583 0.53215 0.27734 0.0
C3311 C 0.62637 0.51396 0.24516 0.0
H3312 H 0.59132 0.46382 0.25381 0.0
C3313 C 0.61541 0.44218 0.21078 0.0
C3314 C 0.61419 0.42129 0.216 0.0
C3315 C 0.61542 0.4604 0.21865 0.0
C3316 C 0.60149 0.47753 0.25136 0.0
H3317 H 0.60423 0.58797 0.26176 0.0
H3318 H 0.60578 0.55543 0.24861 0.0
H3319 H 0.5911 0.49555 0.26762 0.0
H3320 H 0.61193 0.40292 0.23345 0.0
H3321 H 0.61309 0.43452 0.24721 0.0
H3322 H 0.63719 0.49596 0.22906 0.0
C3323 C 0.60859 0.55396 0.2587 0.0
C3324 C 0.60128 0.49569 0.25925 0.0
C3325 C 0.60776 0.57253 0.26621 0.0
C3326 C 0.6132 0.41886 0.22919 0.0
C3327 C 0.61351 0.43701 0.23707 0.0
C3328 C 0.62683 0.49571 0.23735 0.0
C3329 C 0.61267 0.53364 0.26419 0.0
C3330 C 0.61358 0.51409 0.25615 0.0
C3331 C 0.61447 0.45802 0.2319 0.0
C3332 C 0.61428 0.47732 0.24031 0.0
H3333 H 0.6183 0.54945 0.29491 0.0
H3334 H 0.61909 0.51661 0.28175 0.0
H3335 H 0.63616 0.52794 0.24266 0.0
H3336 H 0.61633 0.4444 0.20063 0.0
H3337 H 0.61588 0.47634 0.21433 0.0
C3338 C 0.82544 0.36293 0.47716 0.0
C3339 C 0.82254 0.36565 0.46409 0.0
C3340 C 0.80767 0.3634 0.48533 0.0
C3341 C 0.75017 0.38081 0.48702 0.0
H3342 H 0.7485 0.34174 0.51583 0.0
C3343 C 0.67264 0.36289 0.51532 0.0
C3344 C 0.67414 0.36442 0.52854 0.0
C3345 C 0.69125 0.36381 0.50785 0.0
C3346 C 0.7489 0.35288 0.50789 0.0
H3347 H 0.79899 0.37083 0.4492 0.0
H3348 H 0.76767 0.37074 0.46339 0.0
H3349 H 0.77986 0.34138 0.50171 0.0
H3350 H 0.69613 0.36779 0.54441 0.0
H3351 H 0.72903 0.36878 0.53128 0.0
H3352 H 0.71881 0.39172 0.49303 0.0
C3353 C 0.78371 0.36882 0.46742 0.0
C3354 C 0.76685 0.35274 0.49982 0.0
C3355 C 0.80156 0.36861 0.45927 0.0
C3356 C 0.69463 0.36646 0.53422 0.0
C3357 C 0.71335 0.36707 0.52674 0.0
C3358 C 0.73213 0.38074 0.495 0.0
C3359 C 0.78658 0.36631 0.48056 0.0
C3360 C 0.76765 0.36665 0.48925 0.0
C3361 C 0.71174 0.36593 0.51349 0.0
C3362 C 0.73132 0.36671 0.50546 0.0
H3363 H 0.84148 0.36034 0.48108 0.0
H3364 H 0.81053 0.3617 0.49539 0.0
H3365 H 0.75043 0.39206 0.47915 0.0
H3366 H 0.65707 0.36074 0.51073 0.0
H3367 H 0.68965 0.36251 0.49767 0.0
C3368 C 0.11979 0.54833 0.2075 0.0
C3369 C 0.11709 0.56923 0.2125 0.0
C3370 C 0.11956 0.53025 0.21549 0.0
C3371 C 0.10264 0.513 0.24769 0.0
H3372 H 0.142 0.46508 0.24134 0.0
C3373 C 0.11694 0.44301 0.28321 0.0
C3374 C 0.11551 0.42209 0.27802 0.0
C3375 C 0.11733 0.46118 0.2753 0.0
C3376 C 0.13087 0.47834 0.24317 0.0
H3377 H 0.11173 0.5878 0.22963 0.0
H3378 H 0.1123 0.55649 0.24365 0.0
H3379 H 0.14223 0.49642 0.22723 0.0
H3380 H 0.11302 0.40364 0.26061 0.0
H3381 H 0.11431 0.43533 0.24677 0.0
H3382 H 0.09164 0.49497 0.2638 0.0
C3383 C 0.11415 0.55385 0.23357 0.0
C3384 C 0.1309 0.49622 0.23506 0.0
C3385 C 0.11414 0.57183 0.22558 0.0
C3386 C 0.11457 0.41959 0.26483 0.0
C3387 C 0.11524 0.43769 0.25692 0.0
C3388 C 0.10281 0.49523 0.25587 0.0
C3389 C 0.1168 0.53283 0.22863 0.0
C3390 C 0.11673 0.51374 0.23721 0.0
C3391 C 0.11656 0.45863 0.26209 0.0
C3392 C 0.11686 0.47773 0.25365 0.0
H3393 H 0.12217 0.546 0.19742 0.0
H3394 H 0.12135 0.51427 0.21134 0.0
H3395 H 0.09124 0.52602 0.24949 0.0
H3396 H 0.11789 0.44528 0.29337 0.0
H3397 H 0.1185 0.4772 0.27948 0.0
C3398 C 0.29951 0.36397 0.03679 0.0
C3399 C 0.32051 0.36155 0.03185 0.0
C3400 C 0.28157 0.36404 0.0287 0.0
C3401 C 0.26619 0.37552 0.99602 0.0
H3402 H 0.21612 0.33925 0.00292 0.0
C3403 C 0.19722 0.36439 0.95974 0.0
C3404 C 0.176 0.36326 0.96448 0.0
C3405 C 0.21489 0.36422 0.96802 0.0
C3406 C 0.22984 0.34972 0.00095 0.0
H3407 H 0.33934 0.3566 0.01475 0.0
H3408 H 0.30807 0.35724 0.00059 0.0
H3409 H 0.24668 0.33922 0.01759 0.0
H3410 H 0.15644 0.36085 0.98148 0.0
H3411 H 0.18711 0.36154 0.99596 0.0
H3412 H 0.24933 0.38638 0.97952 0.0
C3413 C 0.30547 0.35928 0.01067 0.0
C3414 C 0.24732 0.34964 0.00934 0.0
C3415 C 0.32332 0.35896 0.01875 0.0
C3416 C 0.17267 0.36206 0.9776 0.0
C3417 C 0.19026 0.36212 0.98588 0.0
C3418 C 0.24863 0.3758 0.9877 0.0
C3419 C 0.28446 0.36191 0.01556 0.0
C3420 C 0.26567 0.36245 0.00691 0.0
C3421 C 0.2116 0.36308 0.98119 0.0
C3422 C 0.23028 0.36284 0.99004 0.0
H3423 H 0.29703 0.36611 0.04687 0.0
H3424 H 0.2655 0.36619 0.03268 0.0
H3425 H 0.28011 0.38573 0.99403 0.0
H3426 H 0.20012 0.36539 0.94964 0.0
H3427 H 0.23112 0.3647 0.96408 0.0
C3428 C 0.3723 0.54688 0.78613 0.0
C3429 C 0.3748 0.56809 0.78156 0.0
C3430 C 0.37343 0.52924 0.77783 0.0
C3431 C 0.3915 0.51433 0.74527 0.0
H3432 H 0.35331 0.4651 0.75053 0.0
C3433 C 0.37513 0.4464 0.70825 0.0
C3434 C 0.37803 0.4253 0.71294 0.0
C3435 C 0.37547 0.46414 0.71651 0.0
C3436 C 0.36407 0.47876 0.749 0.0
H3437 H 0.38109 0.5876 0.76488 0.0
H3438 H 0.38174 0.55718 0.75032 0.0
H3439 H 0.35243 0.49538 0.76539 0.0
H3440 H 0.38449 0.40612 0.72974 0.0
H3441 H 0.38424 0.43699 0.74421 0.0
H3442 H 0.40254 0.49779 0.72861 0.0
C3443 C 0.37941 0.5539 0.76029 0.0
C3444 C 0.36373 0.49602 0.75755 0.0
C3445 C 0.37863 0.57141 0.76861 0.0
C3446 C 0.38165 0.4222 0.72594 0.0
C3447 C 0.38161 0.43981 0.7342 0.0
C3448 C 0.39155 0.49723 0.73661 0.0
C3449 C 0.37684 0.53257 0.76478 0.0
C3450 C 0.37747 0.51401 0.75581 0.0
C3451 C 0.3784 0.46088 0.72957 0.0
C3452 C 0.37791 0.4793 0.73845 0.0
H3453 H 0.36938 0.54397 0.7961 0.0
H3454 H 0.37175 0.51302 0.78166 0.0
H3455 H 0.40262 0.52769 0.74376 0.0
H3456 H 0.37227 0.44911 0.69825 0.0
H3457 H 0.37293 0.48032 0.71277 0.0
C3458 C 0.19101 0.63726 0.53402 0.0
C3459 C 0.17862 0.61855 0.53621 0.0
C3460 C 0.20873 0.63653 0.52581 0.0
C3461 C 0.22792 0.60602 0.49829 0.0
H3462 H 0.28082 0.63896 0.50345 0.0
C3463 C 0.30096 0.60404 0.46377 0.0
C3464 C 0.31141 0.62389 0.46156 0.0
C3465 C 0.28458 0.60261 0.47288 0.0
C3466 C 0.26603 0.62986 0.50184 0.0
H3467 H 0.17543 0.58422 0.5323 0.0
H3468 H 0.20666 0.58279 0.51797 0.0
H3469 H 0.2539 0.63703 0.52035 0.0
H3470 H 0.31278 0.65791 0.4666 0.0
H3471 H 0.28381 0.65561 0.48235 0.0
H3472 H 0.23999 0.59901 0.47972 0.0
C3473 C 0.2025 0.59809 0.52241 0.0
C3474 C 0.25068 0.62869 0.51152 0.0
C3475 C 0.18479 0.59885 0.53063 0.0
C3476 C 0.30478 0.64247 0.46815 0.0
C3477 C 0.28844 0.64107 0.47725 0.0
C3478 C 0.2433 0.60716 0.4886 0.0
C3479 C 0.21431 0.61705 0.51967 0.0
C3480 C 0.23138 0.61694 0.5098 0.0
C3481 C 0.2785 0.62103 0.47989 0.0
C3482 C 0.26238 0.6193 0.49023 0.0
H3483 H 0.18634 0.65266 0.53816 0.0
H3484 H 0.21738 0.65144 0.52379 0.0
H3485 H 0.21303 0.59712 0.49661 0.0
H3486 H 0.30595 0.58954 0.45874 0.0
H3487 H 0.27726 0.58694 0.47475 0.0
loop_
_geom_bond_atom_site_label_1
_geom_bond_atom_site_label_2
_geom_bond_distance
_geom_bond_site_symmetry_2
_ccdc_geom_bond_type
Co0 O3 1.970 . S
Co0 N17 1.989 . S
Co0 O25 1.967 . S
Co0 O32 1.920 . S
Co1 O4 1.966 . S
Co1 N10 2.022 . S
Co1 N18 1.993 . S
Co1 O26 1.941 . S
C2 O3 1.258 . S
C2 O4 1.263 . S
O3 Co0 1.970 . S
O3 C2 1.258 . S
O4 Co1 1.966 . S
O4 C2 1.263 . S
C5 O6 1.235 . S
C5 O32 1.289 . S
O6 C5 1.235 . S
C7 C9 1.400 . S
C7 N10 1.351 . S
C7 C12 1.501 . S
C8 C9 1.387 . S
C8 N11 1.341 . S
C9 C7 1.400 . S
C9 C8 1.387 . S
N10 Co1 2.022 . S
N10 C7 1.351 . S
N10 N11 1.365 . S
N11 C8 1.341 . S
N11 N10 1.365 . S
N11 H31 0.862 . S
C12 C7 1.501 . S
C12 H13 0.961 . S
C12 H14 0.961 . S
C12 H15 0.960 . S
H13 C12 0.961 . S
H14 C12 0.961 . S
H15 C12 0.960 . S
C16 N17 1.342 . S
C16 C20 1.401 . S
C16 C21 1.499 . S
N17 Co0 1.989 . S
N17 C16 1.342 . S
N17 N18 1.388 . S
N18 Co1 1.993 . S
N18 N17 1.388 . S
N18 C19 1.346 . S
C19 N18 1.346 . S
C19 C20 1.396 . S
C19 C29 1.510 . S
C20 C16 1.401 . S
C20 C19 1.396 . S
C21 C16 1.499 . S
C21 H22 0.959 . S
C21 H23 0.960 . S
C21 H24 0.961 . S
H22 C21 0.959 . S
H23 C21 0.960 . S
H24 C21 0.961 . S
O25 Co0 1.967 . S
O25 C33 1.258 . S
O26 Co1 1.941 . S
O26 C33 1.266 . S
H27 C29 0.959 . S
H28 C29 0.961 . S
C29 C19 1.510 . S
C29 H27 0.959 . S
C29 H28 0.961 . S
C29 H30 0.960 . S
H30 C29 0.960 . S
H31 N11 0.862 . S
O32 Co0 1.920 . S
O32 C5 1.289 . S
C33 O25 1.258 . S
C33 O26 1.266 . S
Co34 O37 1.970 . S
Co34 N51 1.989 . S
Co34 O59 1.967 . S
Co34 O66 1.920 . S
Co35 O38 1.966 . S
Co35 N44 2.022 . S
Co35 N52 1.993 . S
Co35 O60 1.941 . S
C36 O37 1.258 . S
C36 O38 1.263 . S
O37 Co34 1.970 . S
O37 C36 1.258 . S
O38 Co35 1.966 . S
O38 C36 1.263 . S
C39 O40 1.235 . S
C39 O66 1.289 . S
O40 C39 1.235 . S
C41 C43 1.400 . S
C41 N44 1.351 . S
C41 C46 1.501 . S
C42 C43 1.387 . S
C42 N45 1.341 . S
C43 C41 1.400 . S
C43 C42 1.387 . S
N44 Co35 2.022 . S
N44 C41 1.351 . S
N44 N45 1.365 . S
N45 C42 1.341 . S
N45 N44 1.365 . S
N45 H65 0.862 . S
C46 C41 1.501 . S
C46 H47 0.961 . S
C46 H48 0.961 . S
C46 H49 0.960 . S
H47 C46 0.961 . S
H48 C46 0.961 . S
H49 C46 0.960 . S
C50 N51 1.342 . S
C50 C54 1.401 . S
C50 C55 1.499 . S
N51 Co34 1.989 . S
N51 C50 1.342 . S
N51 N52 1.388 . S
N52 Co35 1.993 . S
N52 N51 1.388 . S
N52 C53 1.346 . S
C53 N52 1.346 . S
C53 C54 1.396 . S
C53 C63 1.510 . S
C54 C50 1.401 . S
C54 C53 1.396 . S
C55 C50 1.499 . S
C55 H56 0.959 . S
C55 H57 0.960 . S
C55 H58 0.961 . S
H56 C55 0.959 . S
H57 C55 0.960 . S
H58 C55 0.961 . S
O59 Co34 1.967 . S
O59 C67 1.258 . S
O60 Co35 1.941 . S
O60 C67 1.266 . S
H61 C63 0.959 . S
H62 C63 0.961 . S
C63 C53 1.510 . S
C63 H61 0.959 . S
C63 H62 0.961 . S
C63 H64 0.960 . S
H64 C63 0.960 . S
H65 N45 0.862 . S
O66 Co34 1.920 . S
O66 C39 1.289 . S
C67 O59 1.258 . S
C67 O60 1.266 . S
Co68 O71 1.970 . S
Co68 N85 1.989 . S
Co68 O93 1.967 . S
Co68 O100 1.920 . S
Co69 O72 1.966 . S
Co69 N78 2.022 . S
Co69 N86 1.993 . S
Co69 O94 1.941 . S
C70 O71 1.258 . S
C70 O72 1.263 . S
O71 Co68 1.970 . S
O71 C70 1.258 . S
O72 Co69 1.966 . S
O72 C70 1.263 . S
C73 O74 1.235 . S
C73 O100 1.289 . S
O74 C73 1.235 . S
C75 C77 1.400 . S
C75 N78 1.351 . S
C75 C80 1.501 . S
C76 C77 1.387 . S
C76 N79 1.341 . S
C77 C75 1.400 . S
C77 C76 1.387 . S
N78 Co69 2.022 . S
N78 C75 1.351 . S
N78 N79 1.365 . S
N79 C76 1.341 . S
N79 N78 1.365 . S
N79 H99 0.862 . S
C80 C75 1.501 . S
C80 H81 0.961 . S
C80 H82 0.961 . S
C80 H83 0.960 . S
H81 C80 0.961 . S
H82 C80 0.961 . S
H83 C80 0.960 . S
C84 N85 1.342 . S
C84 C88 1.401 . S
C84 C89 1.499 . S
N85 Co68 1.989 . S
N85 C84 1.342 . S
N85 N86 1.388 . S
N86 Co69 1.993 . S
N86 N85 1.388 . S
N86 C87 1.346 . S
C87 N86 1.346 . S
C87 C88 1.396 . S
C87 C97 1.510 . S
C88 C84 1.401 . S
C88 C87 1.396 . S
C89 C84 1.499 . S
C89 H90 0.959 . S
C89 H91 0.960 . S
C89 H92 0.961 . S
H90 C89 0.959 . S
H91 C89 0.960 . S
H92 C89 0.961 . S
O93 Co68 1.967 . S
O93 C101 1.258 . S
O94 Co69 1.941 . S
O94 C101 1.266 . S
H95 C97 0.959 . S
H96 C97 0.961 . S
C97 C87 1.510 . S
C97 H95 0.959 . S
C97 H96 0.961 . S
C97 H98 0.960 . S
H98 C97 0.960 . S
H99 N79 0.862 . S
O100 Co68 1.920 . S
O100 C73 1.289 . S
C101 O93 1.258 . S
C101 O94 1.266 . S
Co102 O105 1.970 . S
Co102 N119 1.989 . S
Co102 O127 1.967 . S
Co102 O134 1.920 . S
Co103 O106 1.966 . S
Co103 N112 2.022 . S
Co103 N120 1.993 . S
Co103 O128 1.941 . S
C104 O105 1.258 . S
C104 O106 1.263 . S
O105 Co102 1.970 . S
O105 C104 1.258 . S
O106 Co103 1.966 . S
O106 C104 1.263 . S
C107 O108 1.235 . S
C107 O134 1.289 . S
O108 C107 1.235 . S
C109 C111 1.400 . S
C109 N112 1.351 . S
C109 C114 1.501 . S
C110 C111 1.387 . S
C110 N113 1.341 . S
C111 C109 1.400 . S
C111 C110 1.387 . S
N112 Co103 2.022 . S
N112 C109 1.351 . S
N112 N113 1.365 . S
N113 C110 1.341 . S
N113 N112 1.365 . S
N113 H133 0.862 . S
C114 C109 1.501 . S
C114 H115 0.961 . S
C114 H116 0.961 . S
C114 H117 0.960 . S
H115 C114 0.961 . S
H116 C114 0.961 . S
H117 C114 0.960 . S
C118 N119 1.342 . S
C118 C122 1.401 . S
C118 C123 1.499 . S
N119 Co102 1.989 . S
N119 C118 1.342 . S
N119 N120 1.388 . S
N120 Co103 1.993 . S
N120 N119 1.388 . S
N120 C121 1.346 . S
C121 N120 1.346 . S
C121 C122 1.396 . S
C121 C131 1.510 . S
C122 C118 1.401 . S
C122 C121 1.396 . S
C123 C118 1.499 . S
C123 H124 0.959 . S
C123 H125 0.960 . S
C123 H126 0.961 . S
H124 C123 0.959 . S
H125 C123 0.960 . S
H126 C123 0.961 . S
O127 Co102 1.967 . S
O127 C135 1.258 . S
O128 Co103 1.941 . S
O128 C135 1.266 . S
H129 C131 0.959 . S
H130 C131 0.961 . S
C131 C121 1.510 . S
C131 H129 0.959 . S
C131 H130 0.961 . S
C131 H132 0.960 . S
H132 C131 0.960 . S
H133 N113 0.862 . S
O134 Co102 1.920 . S
O134 C107 1.289 . S
C135 O127 1.258 . S
C135 O128 1.266 . S
Co136 O139 1.970 . S
Co136 N153 1.989 . S
Co136 O161 1.967 . S
Co136 O168 1.920 . S
Co137 O140 1.966 . S
Co137 N146 2.022 . S
Co137 N154 1.993 . S
Co137 O162 1.941 . S
C138 O139 1.258 . S
C138 O140 1.263 . S
O139 Co136 1.970 . S
O139 C138 1.258 . S
O140 Co137 1.966 . S
O140 C138 1.263 . S
C141 O142 1.235 . S
C141 O168 1.289 . S
O142 C141 1.235 . S
C143 C145 1.400 . S
C143 N146 1.351 . S
C143 C148 1.501 . S
C144 C145 1.387 . S
C144 N147 1.341 . S
C145 C143 1.400 . S
C145 C144 1.387 . S
N146 Co137 2.022 . S
N146 C143 1.351 . S
N146 N147 1.365 . S
N147 C144 1.341 . S
N147 N146 1.365 . S
N147 H167 0.862 . S
C148 C143 1.501 . S
C148 H149 0.961 . S
C148 H150 0.961 . S
C148 H151 0.960 . S
H149 C148 0.961 . S
H150 C148 0.961 . S
H151 C148 0.960 . S
C152 N153 1.342 . S
C152 C156 1.401 . S
C152 C157 1.499 . S
N153 Co136 1.989 . S
N153 C152 1.342 . S
N153 N154 1.388 . S
N154 Co137 1.993 . S
N154 N153 1.388 . S
N154 C155 1.346 . S
C155 N154 1.346 . S
C155 C156 1.396 . S
C155 C165 1.510 . S
C156 C152 1.401 . S
C156 C155 1.396 . S
C157 C152 1.499 . S
C157 H158 0.959 . S
C157 H159 0.960 . S
C157 H160 0.961 . S
H158 C157 0.959 . S
H159 C157 0.960 . S
H160 C157 0.961 . S
O161 Co136 1.967 . S
O161 C169 1.258 . S
O162 Co137 1.941 . S
O162 C169 1.266 . S
H163 C165 0.959 . S
H164 C165 0.961 . S
C165 C155 1.510 . S
C165 H163 0.959 . S
C165 H164 0.961 . S
C165 H166 0.960 . S
H166 C165 0.960 . S
H167 N147 0.862 . S
O168 Co136 1.920 . S
O168 C141 1.289 . S
C169 O161 1.258 . S
C169 O162 1.266 . S
Co170 O173 1.970 . S
Co170 N187 1.989 . S
Co170 O195 1.967 . S
Co170 O202 1.920 . S
Co171 O174 1.966 . S
Co171 N180 2.022 . S
Co171 N188 1.993 . S
Co171 O196 1.941 . S
C172 O173 1.258 . S
C172 O174 1.263 . S
O173 Co170 1.970 . S
O173 C172 1.258 . S
O174 Co171 1.966 . S
O174 C172 1.263 . S
C175 O176 1.235 . S
C175 O202 1.289 . S
O176 C175 1.235 . S
C177 C179 1.400 . S
C177 N180 1.351 . S
C177 C182 1.501 . S
C178 C179 1.387 . S
C178 N181 1.341 . S
C179 C177 1.400 . S
C179 C178 1.387 . S
N180 Co171 2.022 . S
N180 C177 1.351 . S
N180 N181 1.365 . S
N181 C178 1.341 . S
N181 N180 1.365 . S
N181 H201 0.862 . S
C182 C177 1.501 . S
C182 H183 0.961 . S
C182 H184 0.961 . S
C182 H185 0.960 . S
H183 C182 0.961 . S
H184 C182 0.961 . S
H185 C182 0.960 . S
C186 N187 1.342 . S
C186 C190 1.401 . S
C186 C191 1.499 . S
N187 Co170 1.989 . S
N187 C186 1.342 . S
N187 N188 1.388 . S
N188 Co171 1.993 . S
N188 N187 1.388 . S
N188 C189 1.346 . S
C189 N188 1.346 . S
C189 C190 1.396 . S
C189 C199 1.510 . S
C190 C186 1.401 . S
C190 C189 1.396 . S
C191 C186 1.499 . S
C191 H192 0.959 . S
C191 H193 0.960 . S
C191 H194 0.961 . S
H192 C191 0.959 . S
H193 C191 0.960 . S
H194 C191 0.961 . S
O195 Co170 1.967 . S
O195 C203 1.258 . S
O196 Co171 1.941 . S
O196 C203 1.266 . S
H197 C199 0.959 . S
H198 C199 0.961 . S
C199 C189 1.510 . S
C199 H197 0.959 . S
C199 H198 0.961 . S
C199 H200 0.960 . S
H200 C199 0.960 . S
H201 N181 0.862 . S
O202 Co170 1.920 . S
O202 C175 1.289 . S
C203 O195 1.258 . S
C203 O196 1.266 . S
Co204 O207 1.970 . S
Co204 N221 1.989 . S
Co204 O229 1.967 . S
Co204 O236 1.920 . S
Co205 O208 1.966 . S
Co205 N214 2.022 . S
Co205 N222 1.993 . S
Co205 O230 1.941 . S
C206 O207 1.258 . S
C206 O208 1.263 . S
O207 Co204 1.970 . S
O207 C206 1.258 . S
O208 Co205 1.966 . S
O208 C206 1.263 . S
C209 O210 1.235 . S
C209 O236 1.289 . S
O210 C209 1.235 . S
C211 C213 1.400 . S
C211 N214 1.351 . S
C211 C216 1.501 . S
C212 C213 1.387 . S
C212 N215 1.341 . S
C213 C211 1.400 . S
C213 C212 1.387 . S
N214 Co205 2.022 . S
N214 C211 1.351 . S
N214 N215 1.365 . S
N215 C212 1.341 . S
N215 N214 1.365 . S
N215 H235 0.862 . S
C216 C211 1.501 . S
C216 H217 0.961 . S
C216 H218 0.961 . S
C216 H219 0.960 . S
H217 C216 0.961 . S
H218 C216 0.961 . S
H219 C216 0.960 . S
C220 N221 1.342 . S
C220 C224 1.401 . S
C220 C225 1.499 . S
N221 Co204 1.989 . S
N221 C220 1.342 . S
N221 N222 1.388 . S
N222 Co205 1.993 . S
N222 N221 1.388 . S
N222 C223 1.346 . S
C223 N222 1.346 . S
C223 C224 1.396 . S
C223 C233 1.510 . S
C224 C220 1.401 . S
C224 C223 1.396 . S
C225 C220 1.499 . S
C225 H226 0.959 . S
C225 H227 0.960 . S
C225 H228 0.961 . S
H226 C225 0.959 . S
H227 C225 0.960 . S
H228 C225 0.961 . S
O229 Co204 1.967 . S
O229 C237 1.258 . S
O230 Co205 1.941 . S
O230 C237 1.266 . S
H231 C233 0.959 . S
H232 C233 0.961 . S
C233 C223 1.510 . S
C233 H231 0.959 . S
C233 H232 0.961 . S
C233 H234 0.960 . S
H234 C233 0.960 . S
H235 N215 0.862 . S
O236 Co204 1.920 . S
O236 C209 1.289 . S
C237 O229 1.258 . S
C237 O230 1.266 . S
Co238 O241 1.970 . S
Co238 N255 1.989 . S
Co238 O263 1.967 . S
Co238 O270 1.920 . S
Co239 O242 1.966 . S
Co239 N248 2.022 . S
Co239 N256 1.993 . S
Co239 O264 1.941 . S
C240 O241 1.258 . S
C240 O242 1.263 . S
O241 Co238 1.970 . S
O241 C240 1.258 . S
O242 Co239 1.966 . S
O242 C240 1.263 . S
C243 O244 1.235 . S
C243 O270 1.289 . S
O244 C243 1.235 . S
C245 C247 1.400 . S
C245 N248 1.351 . S
C245 C250 1.501 . S
C246 C247 1.387 . S
C246 N249 1.341 . S
C247 C245 1.400 . S
C247 C246 1.387 . S
N248 Co239 2.022 . S
N248 C245 1.351 . S
N248 N249 1.365 . S
N249 C246 1.341 . S
N249 N248 1.365 . S
N249 H269 0.862 . S
C250 C245 1.501 . S
C250 H251 0.961 . S
C250 H252 0.961 . S
C250 H253 0.960 . S
H251 C250 0.961 . S
H252 C250 0.961 . S
H253 C250 0.960 . S
C254 N255 1.342 . S
C254 C258 1.401 . S
C254 C259 1.499 . S
N255 Co238 1.989 . S
N255 C254 1.342 . S
N255 N256 1.388 . S
N256 Co239 1.993 . S
N256 N255 1.388 . S
N256 C257 1.346 . S
C257 N256 1.346 . S
C257 C258 1.396 . S
C257 C267 1.510 . S
C258 C254 1.401 . S
C258 C257 1.396 . S
C259 C254 1.499 . S
C259 H260 0.959 . S
C259 H261 0.960 . S
C259 H262 0.961 . S
H260 C259 0.959 . S
H261 C259 0.960 . S
H262 C259 0.961 . S
O263 Co238 1.967 . S
O263 C271 1.258 . S
O264 Co239 1.941 . S
O264 C271 1.266 . S
H265 C267 0.959 . S
H266 C267 0.961 . S
C267 C257 1.510 . S
C267 H265 0.959 . S
C267 H266 0.961 . S
C267 H268 0.960 . S
H268 C267 0.960 . S
H269 N249 0.862 . S
O270 Co238 1.920 . S
O270 C243 1.289 . S
C271 O263 1.258 . S
C271 O264 1.266 . S
Co272 O275 1.970 . S
Co272 N289 1.989 . S
Co272 O297 1.967 . S
Co272 O304 1.920 . S
Co273 O276 1.966 . S
Co273 N282 2.022 . S
Co273 N290 1.993 . S
Co273 O298 1.941 . S
C274 O275 1.258 . S
C274 O276 1.263 . S
O275 Co272 1.970 . S
O275 C274 1.258 . S
O276 Co273 1.966 . S
O276 C274 1.263 . S
C277 O278 1.235 . S
C277 O304 1.289 . S
O278 C277 1.235 . S
C279 C281 1.400 . S
C279 N282 1.351 . S
C279 C284 1.501 . S
C280 C281 1.387 . S
C280 N283 1.341 . S
C281 C279 1.400 . S
C281 C280 1.387 . S
N282 Co273 2.022 . S
N282 C279 1.351 . S
N282 N283 1.365 . S
N283 C280 1.341 . S
N283 N282 1.365 . S
N283 H303 0.862 . S
C284 C279 1.501 . S
C284 H285 0.961 . S
C284 H286 0.961 . S
C284 H287 0.960 . S
H285 C284 0.961 . S
H286 C284 0.961 . S
H287 C284 0.960 . S
C288 N289 1.342 . S
C288 C292 1.401 . S
C288 C293 1.499 . S
N289 Co272 1.989 . S
N289 C288 1.342 . S
N289 N290 1.388 . S
N290 Co273 1.993 . S
N290 N289 1.388 . S
N290 C291 1.346 . S
C291 N290 1.346 . S
C291 C292 1.396 . S
C291 C301 1.510 . S
C292 C288 1.401 . S
C292 C291 1.396 . S
C293 C288 1.499 . S
C293 H294 0.959 . S
C293 H295 0.960 . S
C293 H296 0.961 . S
H294 C293 0.959 . S
H295 C293 0.960 . S
H296 C293 0.961 . S
O297 Co272 1.967 . S
O297 C305 1.258 . S
O298 Co273 1.941 . S
O298 C305 1.266 . S
H299 C301 0.959 . S
H300 C301 0.961 . S
C301 C291 1.510 . S
C301 H299 0.959 . S
C301 H300 0.961 . S
C301 H302 0.960 . S
H302 C301 0.960 . S
H303 N283 0.862 . S
O304 Co272 1.920 . S
O304 C277 1.289 . S
C305 O297 1.258 . S
C305 O298 1.266 . S
Co306 O309 1.970 . S
Co306 N323 1.989 . S
Co306 O331 1.967 . S
Co306 O338 1.920 . S
Co307 O310 1.966 . S
Co307 N316 2.022 . S
Co307 N324 1.993 . S
Co307 O332 1.941 . S
C308 O309 1.258 . S
C308 O310 1.263 . S
O309 Co306 1.970 . S
O309 C308 1.258 . S
O310 Co307 1.966 . S
O310 C308 1.263 . S
C311 O312 1.235 . S
C311 O338 1.289 . S
O312 C311 1.235 . S
C313 C315 1.400 . S
C313 N316 1.351 . S
C313 C318 1.501 . S
C314 C315 1.387 . S
C314 N317 1.341 . S
C315 C313 1.400 . S
C315 C314 1.387 . S
N316 Co307 2.022 . S
N316 C313 1.351 . S
N316 N317 1.365 . S
N317 C314 1.341 . S
N317 N316 1.365 . S
N317 H337 0.862 . S
C318 C313 1.501 . S
C318 H319 0.961 . S
C318 H320 0.961 . S
C318 H321 0.960 . S
H319 C318 0.961 . S
H320 C318 0.961 . S
H321 C318 0.960 . S
C322 N323 1.342 . S
C322 C326 1.401 . S
C322 C327 1.499 . S
N323 Co306 1.989 . S
N323 C322 1.342 . S
N323 N324 1.388 . S
N324 Co307 1.993 . S
N324 N323 1.388 . S
N324 C325 1.346 . S
C325 N324 1.346 . S
C325 C326 1.396 . S
C325 C335 1.510 . S
C326 C322 1.401 . S
C326 C325 1.396 . S
C327 C322 1.499 . S
C327 H328 0.959 . S
C327 H329 0.960 . S
C327 H330 0.961 . S
H328 C327 0.959 . S
H329 C327 0.960 . S
H330 C327 0.961 . S
O331 Co306 1.967 . S
O331 C339 1.258 . S
O332 Co307 1.941 . S
O332 C339 1.266 . S
H333 C335 0.959 . S
H334 C335 0.961 . S
C335 C325 1.510 . S
C335 H333 0.959 . S
C335 H334 0.961 . S
C335 H336 0.960 . S
H336 C335 0.960 . S
H337 N317 0.862 . S
O338 Co306 1.920 . S
O338 C311 1.289 . S
C339 O331 1.258 . S
C339 O332 1.266 . S
Co340 O343 1.970 . S
Co340 N357 1.989 . S
Co340 O365 1.967 . S
Co340 O372 1.920 . S
Co341 O344 1.966 . S
Co341 N350 2.022 . S
Co341 N358 1.993 . S
Co341 O366 1.941 . S
C342 O343 1.258 . S
C342 O344 1.263 . S
O343 Co340 1.970 . S
O343 C342 1.258 . S
O344 Co341 1.966 . S
O344 C342 1.263 . S
C345 O346 1.235 . S
C345 O372 1.289 . S
O346 C345 1.235 . S
C347 C349 1.400 . S
C347 N350 1.351 . S
C347 C352 1.501 . S
C348 C349 1.387 . S
C348 N351 1.341 . S
C349 C347 1.400 . S
C349 C348 1.387 . S
N350 Co341 2.022 . S
N350 C347 1.351 . S
N350 N351 1.365 . S
N351 C348 1.341 . S
N351 N350 1.365 . S
N351 H371 0.862 . S
C352 C347 1.501 . S
C352 H353 0.961 . S
C352 H354 0.961 . S
C352 H355 0.960 . S
H353 C352 0.961 . S
H354 C352 0.961 . S
H355 C352 0.960 . S
C356 N357 1.342 . S
C356 C360 1.401 . S
C356 C361 1.499 . S
N357 Co340 1.989 . S
N357 C356 1.342 . S
N357 N358 1.388 . S
N358 Co341 1.993 . S
N358 N357 1.388 . S
N358 C359 1.346 . S
C359 N358 1.346 . S
C359 C360 1.396 . S
C359 C369 1.510 . S
C360 C356 1.401 . S
C360 C359 1.396 . S
C361 C356 1.499 . S
C361 H362 0.959 . S
C361 H363 0.960 . S
C361 H364 0.961 . S
H362 C361 0.959 . S
H363 C361 0.960 . S
H364 C361 0.961 . S
O365 Co340 1.967 . S
O365 C373 1.258 . S
O366 Co341 1.941 . S
O366 C373 1.266 . S
H367 C369 0.959 . S
H368 C369 0.961 . S
C369 C359 1.510 . S
C369 H367 0.959 . S
C369 H368 0.961 . S
C369 H370 0.960 . S
H370 C369 0.960 . S
H371 N351 0.862 . S
O372 Co340 1.920 . S
O372 C345 1.289 . S
C373 O365 1.258 . S
C373 O366 1.266 . S
Co374 O377 1.970 . S
Co374 N391 1.989 . S
Co374 O399 1.967 . S
Co374 O406 1.920 . S
Co375 O378 1.966 . S
Co375 N384 2.022 . S
Co375 N392 1.993 . S
Co375 O400 1.941 . S
C376 O377 1.258 . S
C376 O378 1.263 . S
O377 Co374 1.970 . S
O377 C376 1.258 . S
O378 Co375 1.966 . S
O378 C376 1.263 . S
C379 O380 1.235 . S
C379 O406 1.289 . S
O380 C379 1.235 . S
C381 C383 1.400 . S
C381 N384 1.351 . S
C381 C386 1.501 . S
C382 C383 1.387 . S
C382 N385 1.341 . S
C383 C381 1.400 . S
C383 C382 1.387 . S
N384 Co375 2.022 . S
N384 C381 1.351 . S
N384 N385 1.365 . S
N385 C382 1.341 . S
N385 N384 1.365 . S
N385 H405 0.862 . S
C386 C381 1.501 . S
C386 H387 0.961 . S
C386 H388 0.961 . S
C386 H389 0.960 . S
H387 C386 0.961 . S
H388 C386 0.961 . S
H389 C386 0.960 . S
C390 N391 1.342 . S
C390 C394 1.401 . S
C390 C395 1.499 . S
N391 Co374 1.989 . S
N391 C390 1.342 . S
N391 N392 1.388 . S
N392 Co375 1.993 . S
N392 N391 1.388 . S
N392 C393 1.346 . S
C393 N392 1.346 . S
C393 C394 1.396 . S
C393 C403 1.510 . S
C394 C390 1.401 . S
C394 C393 1.396 . S
C395 C390 1.499 . S
C395 H396 0.959 . S
C395 H397 0.960 . S
C395 H398 0.961 . S
H396 C395 0.959 . S
H397 C395 0.960 . S
H398 C395 0.961 . S
O399 Co374 1.967 . S
O399 C407 1.258 . S
O400 Co375 1.941 . S
O400 C407 1.266 . S
H401 C403 0.959 . S
H402 C403 0.961 . S
C403 C393 1.510 . S
C403 H401 0.959 . S
C403 H402 0.961 . S
C403 H404 0.960 . S
H404 C403 0.960 . S
H405 N385 0.862 . S
O406 Co374 1.920 . S
O406 C379 1.289 . S
C407 O399 1.258 . S
C407 O400 1.266 . S
Co408 O411 1.970 . S
Co408 N425 1.989 . S
Co408 O433 1.967 . S
Co408 O440 1.920 . S
Co409 O412 1.966 . S
Co409 N418 2.022 . S
Co409 N426 1.993 . S
Co409 O434 1.941 . S
C410 O411 1.258 . S
C410 O412 1.263 . S
O411 Co408 1.970 . S
O411 C410 1.258 . S
O412 Co409 1.966 . S
O412 C410 1.263 . S
C413 O414 1.235 . S
C413 O440 1.289 . S
O414 C413 1.235 . S
C415 C417 1.400 . S
C415 N418 1.351 . S
C415 C420 1.501 . S
C416 C417 1.387 . S
C416 N419 1.341 . S
C417 C415 1.400 . S
C417 C416 1.387 . S
N418 Co409 2.022 . S
N418 C415 1.351 . S
N418 N419 1.365 . S
N419 C416 1.341 . S
N419 N418 1.365 . S
N419 H439 0.862 . S
C420 C415 1.501 . S
C420 H421 0.961 . S
C420 H422 0.961 . S
C420 H423 0.960 . S
H421 C420 0.961 . S
H422 C420 0.961 . S
H423 C420 0.960 . S
C424 N425 1.342 . S
C424 C428 1.401 . S
C424 C429 1.499 . S
N425 Co408 1.989 . S
N425 C424 1.342 . S
N425 N426 1.388 . S
N426 Co409 1.993 . S
N426 N425 1.388 . S
N426 C427 1.346 . S
C427 N426 1.346 . S
C427 C428 1.396 . S
C427 C437 1.510 . S
C428 C424 1.401 . S
C428 C427 1.396 . S
C429 C424 1.499 . S
C429 H430 0.959 . S
C429 H431 0.960 . S
C429 H432 0.961 . S
H430 C429 0.959 . S
H431 C429 0.960 . S
H432 C429 0.961 . S
O433 Co408 1.967 . S
O433 C441 1.258 . S
O434 Co409 1.941 . S
O434 C441 1.266 . S
H435 C437 0.959 . S
H436 C437 0.961 . S
C437 C427 1.510 . S
C437 H435 0.959 . S
C437 H436 0.961 . S
C437 H438 0.960 . S
H438 C437 0.960 . S
H439 N419 0.862 . S
O440 Co408 1.920 . S
O440 C413 1.289 . S
C441 O433 1.258 . S
C441 O434 1.266 . S
Co442 O445 1.970 . S
Co442 N459 1.989 . S
Co442 O467 1.967 . S
Co442 O474 1.920 . S
Co443 O446 1.966 . S
Co443 N452 2.022 . S
Co443 N460 1.993 . S
Co443 O468 1.941 . S
C444 O445 1.258 . S
C444 O446 1.263 . S
O445 Co442 1.970 . S
O445 C444 1.258 . S
O446 Co443 1.966 . S
O446 C444 1.263 . S
C447 O448 1.235 . S
C447 O474 1.289 . S
O448 C447 1.235 . S
C449 C451 1.400 . S
C449 N452 1.351 . S
C449 C454 1.501 . S
C450 C451 1.387 . S
C450 N453 1.341 . S
C451 C449 1.400 . S
C451 C450 1.387 . S
N452 Co443 2.022 . S
N452 C449 1.351 . S
N452 N453 1.365 . S
N453 C450 1.341 . S
N453 N452 1.365 . S
N453 H473 0.862 . S
C454 C449 1.501 . S
C454 H455 0.961 . S
C454 H456 0.961 . S
C454 H457 0.960 . S
H455 C454 0.961 . S
H456 C454 0.961 . S
H457 C454 0.960 . S
C458 N459 1.342 . S
C458 C462 1.401 . S
C458 C463 1.499 . S
N459 Co442 1.989 . S
N459 C458 1.342 . S
N459 N460 1.388 . S
N460 Co443 1.993 . S
N460 N459 1.388 . S
N460 C461 1.346 . S
C461 N460 1.346 . S
C461 C462 1.396 . S
C461 C471 1.510 . S
C462 C458 1.401 . S
C462 C461 1.396 . S
C463 C458 1.499 . S
C463 H464 0.959 . S
C463 H465 0.960 . S
C463 H466 0.961 . S
H464 C463 0.959 . S
H465 C463 0.960 . S
H466 C463 0.961 . S
O467 Co442 1.967 . S
O467 C475 1.258 . S
O468 Co443 1.941 . S
O468 C475 1.266 . S
H469 C471 0.959 . S
H470 C471 0.961 . S
C471 C461 1.510 . S
C471 H469 0.959 . S
C471 H470 0.961 . S
C471 H472 0.960 . S
H472 C471 0.960 . S
H473 N453 0.862 . S
O474 Co442 1.920 . S
O474 C447 1.289 . S
C475 O467 1.258 . S
C475 O468 1.266 . S
Co476 O479 1.970 . S
Co476 N493 1.989 . S
Co476 O501 1.967 . S
Co476 O508 1.920 . S
Co477 O480 1.966 . S
Co477 N486 2.022 . S
Co477 N494 1.993 . S
Co477 O502 1.941 . S
C478 O479 1.258 . S
C478 O480 1.263 . S
O479 Co476 1.970 . S
O479 C478 1.258 . S
O480 Co477 1.966 . S
O480 C478 1.263 . S
C481 O482 1.235 . S
C481 O508 1.289 . S
O482 C481 1.235 . S
C483 C485 1.400 . S
C483 N486 1.351 . S
C483 C488 1.501 . S
C484 C485 1.387 . S
C484 N487 1.341 . S
C485 C483 1.400 . S
C485 C484 1.387 . S
N486 Co477 2.022 . S
N486 C483 1.351 . S
N486 N487 1.365 . S
N487 C484 1.341 . S
N487 N486 1.365 . S
N487 H507 0.862 . S
C488 C483 1.501 . S
C488 H489 0.961 . S
C488 H490 0.961 . S
C488 H491 0.960 . S
H489 C488 0.961 . S
H490 C488 0.961 . S
H491 C488 0.960 . S
C492 N493 1.342 . S
C492 C496 1.401 . S
C492 C497 1.499 . S
N493 Co476 1.989 . S
N493 C492 1.342 . S
N493 N494 1.388 . S
N494 Co477 1.993 . S
N494 N493 1.388 . S
N494 C495 1.346 . S
C495 N494 1.346 . S
C495 C496 1.396 . S
C495 C505 1.510 . S
C496 C492 1.401 . S
C496 C495 1.396 . S
C497 C492 1.499 . S
C497 H498 0.959 . S
C497 H499 0.960 . S
C497 H500 0.961 . S
H498 C497 0.959 . S
H499 C497 0.960 . S
H500 C497 0.961 . S
O501 Co476 1.967 . S
O501 C509 1.258 . S
O502 Co477 1.941 . S
O502 C509 1.266 . S
H503 C505 0.959 . S
H504 C505 0.961 . S
C505 C495 1.510 . S
C505 H503 0.959 . S
C505 H504 0.961 . S
C505 H506 0.960 . S
H506 C505 0.960 . S
H507 N487 0.862 . S
O508 Co476 1.920 . S
O508 C481 1.289 . S
C509 O501 1.258 . S
C509 O502 1.266 . S
Co510 O513 1.970 . S
Co510 N527 1.989 . S
Co510 O535 1.967 . S
Co510 O542 1.920 . S
Co511 O514 1.966 . S
Co511 N520 2.022 . S
Co511 N528 1.993 . S
Co511 O536 1.941 . S
C512 O513 1.258 . S
C512 O514 1.263 . S
O513 Co510 1.970 . S
O513 C512 1.258 . S
O514 Co511 1.966 . S
O514 C512 1.263 . S
C515 O516 1.235 . S
C515 O542 1.289 . S
O516 C515 1.235 . S
C517 C519 1.400 . S
C517 N520 1.351 . S
C517 C522 1.501 . S
C518 C519 1.387 . S
C518 N521 1.341 . S
C519 C517 1.400 . S
C519 C518 1.387 . S
N520 Co511 2.022 . S
N520 C517 1.351 . S
N520 N521 1.365 . S
N521 C518 1.341 . S
N521 N520 1.365 . S
N521 H541 0.862 . S
C522 C517 1.501 . S
C522 H523 0.961 . S
C522 H524 0.961 . S
C522 H525 0.960 . S
H523 C522 0.961 . S
H524 C522 0.961 . S
H525 C522 0.960 . S
C526 N527 1.342 . S
C526 C530 1.401 . S
C526 C531 1.499 . S
N527 Co510 1.989 . S
N527 C526 1.342 . S
N527 N528 1.388 . S
N528 Co511 1.993 . S
N528 N527 1.388 . S
N528 C529 1.346 . S
C529 N528 1.346 . S
C529 C530 1.396 . S
C529 C539 1.510 . S
C530 C526 1.401 . S
C530 C529 1.396 . S
C531 C526 1.499 . S
C531 H532 0.959 . S
C531 H533 0.960 . S
C531 H534 0.961 . S
H532 C531 0.959 . S
H533 C531 0.960 . S
H534 C531 0.961 . S
O535 Co510 1.967 . S
O535 C543 1.258 . S
O536 Co511 1.941 . S
O536 C543 1.266 . S
H537 C539 0.959 . S
H538 C539 0.961 . S
C539 C529 1.510 . S
C539 H537 0.959 . S
C539 H538 0.961 . S
C539 H540 0.960 . S
H540 C539 0.960 . S
H541 N521 0.862 . S
O542 Co510 1.920 . S
O542 C515 1.289 . S
C543 O535 1.258 . S
C543 O536 1.266 . S
Co544 O547 1.970 . S
Co544 N561 1.989 . S
Co544 O569 1.967 . S
Co544 O576 1.920 . S
Co545 O548 1.966 . S
Co545 N554 2.022 . S
Co545 N562 1.993 . S
Co545 O570 1.941 . S
C546 O547 1.258 . S
C546 O548 1.263 . S
O547 Co544 1.970 . S
O547 C546 1.258 . S
O548 Co545 1.966 . S
O548 C546 1.263 . S
C549 O550 1.235 . S
C549 O576 1.289 . S
O550 C549 1.235 . S
C551 C553 1.400 . S
C551 N554 1.351 . S
C551 C556 1.501 . S
C552 C553 1.387 . S
C552 N555 1.341 . S
C553 C551 1.400 . S
C553 C552 1.387 . S
N554 Co545 2.022 . S
N554 C551 1.351 . S
N554 N555 1.365 . S
N555 C552 1.341 . S
N555 N554 1.365 . S
N555 H575 0.862 . S
C556 C551 1.501 . S
C556 H557 0.961 . S
C556 H558 0.961 . S
C556 H559 0.960 . S
H557 C556 0.961 . S
H558 C556 0.961 . S
H559 C556 0.960 . S
C560 N561 1.342 . S
C560 C564 1.401 . S
C560 C565 1.499 . S
N561 Co544 1.989 . S
N561 C560 1.342 . S
N561 N562 1.388 . S
N562 Co545 1.993 . S
N562 N561 1.388 . S
N562 C563 1.346 . S
C563 N562 1.346 . S
C563 C564 1.396 . S
C563 C573 1.510 . S
C564 C560 1.401 . S
C564 C563 1.396 . S
C565 C560 1.499 . S
C565 H566 0.959 . S
C565 H567 0.960 . S
C565 H568 0.961 . S
H566 C565 0.959 . S
H567 C565 0.960 . S
H568 C565 0.961 . S
O569 Co544 1.967 . S
O569 C577 1.258 . S
O570 Co545 1.941 . S
O570 C577 1.266 . S
H571 C573 0.959 . S
H572 C573 0.961 . S
C573 C563 1.510 . S
C573 H571 0.959 . S
C573 H572 0.961 . S
C573 H574 0.960 . S
H574 C573 0.960 . S
H575 N555 0.862 . S
O576 Co544 1.920 . S
O576 C549 1.289 . S
C577 O569 1.258 . S
C577 O570 1.266 . S
Co578 O581 1.970 . S
Co578 N595 1.989 . S
Co578 O603 1.967 . S
Co578 O610 1.920 . S
Co579 O582 1.966 . S
Co579 N588 2.022 . S
Co579 N596 1.993 . S
Co579 O604 1.941 . S
C580 O581 1.258 . S
C580 O582 1.263 . S
O581 Co578 1.970 . S
O581 C580 1.258 . S
O582 Co579 1.966 . S
O582 C580 1.263 . S
C583 O584 1.235 . S
C583 O610 1.289 . S
O584 C583 1.235 . S
C585 C587 1.400 . S
C585 N588 1.351 . S
C585 C590 1.501 . S
C586 C587 1.387 . S
C586 N589 1.341 . S
C587 C585 1.400 . S
C587 C586 1.387 . S
N588 Co579 2.022 . S
N588 C585 1.351 . S
N588 N589 1.365 . S
N589 C586 1.341 . S
N589 N588 1.365 . S
N589 H609 0.862 . S
C590 C585 1.501 . S
C590 H591 0.961 . S
C590 H592 0.961 . S
C590 H593 0.960 . S
H591 C590 0.961 . S
H592 C590 0.961 . S
H593 C590 0.960 . S
C594 N595 1.342 . S
C594 C598 1.401 . S
C594 C599 1.499 . S
N595 Co578 1.989 . S
N595 C594 1.342 . S
N595 N596 1.388 . S
N596 Co579 1.993 . S
N596 N595 1.388 . S
N596 C597 1.346 . S
C597 N596 1.346 . S
C597 C598 1.396 . S
C597 C607 1.510 . S
C598 C594 1.401 . S
C598 C597 1.396 . S
C599 C594 1.499 . S
C599 H600 0.959 . S
C599 H601 0.960 . S
C599 H602 0.961 . S
H600 C599 0.959 . S
H601 C599 0.960 . S
H602 C599 0.961 . S
O603 Co578 1.967 . S
O603 C611 1.258 . S
O604 Co579 1.941 . S
O604 C611 1.266 . S
H605 C607 0.959 . S
H606 C607 0.961 . S
C607 C597 1.510 . S
C607 H605 0.959 . S
C607 H606 0.961 . S
C607 H608 0.960 . S
H608 C607 0.960 . S
H609 N589 0.862 . S
O610 Co578 1.920 . S
O610 C583 1.289 . S
C611 O603 1.258 . S
C611 O604 1.266 . S
Co612 O615 1.970 . S
Co612 N629 1.989 . S
Co612 O637 1.967 . S
Co612 O644 1.920 . S
Co613 O616 1.966 . S
Co613 N622 2.022 . S
Co613 N630 1.993 . S
Co613 O638 1.941 . S
C614 O615 1.258 . S
C614 O616 1.263 . S
O615 Co612 1.970 . S
O615 C614 1.258 . S
O616 Co613 1.966 . S
O616 C614 1.263 . S
C617 O618 1.235 . S
C617 O644 1.289 . S
O618 C617 1.235 . S
C619 C621 1.400 . S
C619 N622 1.351 . S
C619 C624 1.501 . S
C620 C621 1.387 . S
C620 N623 1.341 . S
C621 C619 1.400 . S
C621 C620 1.387 . S
N622 Co613 2.022 . S
N622 C619 1.351 . S
N622 N623 1.365 . S
N623 C620 1.341 . S
N623 N622 1.365 . S
N623 H643 0.862 . S
C624 C619 1.501 . S
C624 H625 0.961 . S
C624 H626 0.961 . S
C624 H627 0.960 . S
H625 C624 0.961 . S
H626 C624 0.961 . S
H627 C624 0.960 . S
C628 N629 1.342 . S
C628 C632 1.401 . S
C628 C633 1.499 . S
N629 Co612 1.989 . S
N629 C628 1.342 . S
N629 N630 1.388 . S
N630 Co613 1.993 . S
N630 N629 1.388 . S
N630 C631 1.346 . S
C631 N630 1.346 . S
C631 C632 1.396 . S
C631 C641 1.510 . S
C632 C628 1.401 . S
C632 C631 1.396 . S
C633 C628 1.499 . S
C633 H634 0.959 . S
C633 H635 0.960 . S
C633 H636 0.961 . S
H634 C633 0.959 . S
H635 C633 0.960 . S
H636 C633 0.961 . S
O637 Co612 1.967 . S
O637 C645 1.258 . S
O638 Co613 1.941 . S
O638 C645 1.266 . S
H639 C641 0.959 . S
H640 C641 0.961 . S
C641 C631 1.510 . S
C641 H639 0.959 . S
C641 H640 0.961 . S
C641 H642 0.960 . S
H642 C641 0.960 . S
H643 N623 0.862 . S
O644 Co612 1.920 . S
O644 C617 1.289 . S
C645 O637 1.258 . S
C645 O638 1.266 . S
Co646 O649 1.970 . S
Co646 N663 1.989 . S
Co646 O671 1.967 . S
Co646 O678 1.920 . S
Co647 O650 1.966 . S
Co647 N656 2.022 . S
Co647 N664 1.993 . S
Co647 O672 1.941 . S
C648 O649 1.258 . S
C648 O650 1.263 . S
O649 Co646 1.970 . S
O649 C648 1.258 . S
O650 Co647 1.966 . S
O650 C648 1.263 . S
C651 O652 1.235 . S
C651 O678 1.289 . S
O652 C651 1.235 . S
C653 C655 1.400 . S
C653 N656 1.351 . S
C653 C658 1.501 . S
C654 C655 1.387 . S
C654 N657 1.341 . S
C655 C653 1.400 . S
C655 C654 1.387 . S
N656 Co647 2.022 . S
N656 C653 1.351 . S
N656 N657 1.365 . S
N657 C654 1.341 . S
N657 N656 1.365 . S
N657 H677 0.862 . S
C658 C653 1.501 . S
C658 H659 0.961 . S
C658 H660 0.961 . S
C658 H661 0.960 . S
H659 C658 0.961 . S
H660 C658 0.961 . S
H661 C658 0.960 . S
C662 N663 1.342 . S
C662 C666 1.401 . S
C662 C667 1.499 . S
N663 Co646 1.989 . S
N663 C662 1.342 . S
N663 N664 1.388 . S
N664 Co647 1.993 . S
N664 N663 1.388 . S
N664 C665 1.346 . S
C665 N664 1.346 . S
C665 C666 1.396 . S
C665 C675 1.510 . S
C666 C662 1.401 . S
C666 C665 1.396 . S
C667 C662 1.499 . S
C667 H668 0.959 . S
C667 H669 0.960 . S
C667 H670 0.961 . S
H668 C667 0.959 . S
H669 C667 0.960 . S
H670 C667 0.961 . S
O671 Co646 1.967 . S
O671 C679 1.258 . S
O672 Co647 1.941 . S
O672 C679 1.266 . S
H673 C675 0.959 . S
H674 C675 0.961 . S
C675 C665 1.510 . S
C675 H673 0.959 . S
C675 H674 0.961 . S
C675 H676 0.960 . S
H676 C675 0.960 . S
H677 N657 0.862 . S
O678 Co646 1.920 . S
O678 C651 1.289 . S
C679 O671 1.258 . S
C679 O672 1.266 . S
Co680 O683 1.970 . S
Co680 N697 1.989 . S
Co680 O705 1.967 . S
Co680 O712 1.920 . S
Co681 O684 1.966 . S
Co681 N690 2.022 . S
Co681 N698 1.993 . S
Co681 O706 1.941 . S
C682 O683 1.258 . S
C682 O684 1.263 . S
O683 Co680 1.970 . S
O683 C682 1.258 . S
O684 Co681 1.966 . S
O684 C682 1.263 . S
C685 O686 1.235 . S
C685 O712 1.289 . S
O686 C685 1.235 . S
C687 C689 1.400 . S
C687 N690 1.351 . S
C687 C692 1.501 . S
C688 C689 1.387 . S
C688 N691 1.341 . S
C689 C687 1.400 . S
C689 C688 1.387 . S
N690 Co681 2.022 . S
N690 C687 1.351 . S
N690 N691 1.365 . S
N691 C688 1.341 . S
N691 N690 1.365 . S
N691 H711 0.862 . S
C692 C687 1.501 . S
C692 H693 0.961 . S
C692 H694 0.961 . S
C692 H695 0.960 . S
H693 C692 0.961 . S
H694 C692 0.961 . S
H695 C692 0.960 . S
C696 N697 1.342 . S
C696 C700 1.401 . S
C696 C701 1.499 . S
N697 Co680 1.989 . S
N697 C696 1.342 . S
N697 N698 1.388 . S
N698 Co681 1.993 . S
N698 N697 1.388 . S
N698 C699 1.346 . S
C699 N698 1.346 . S
C699 C700 1.396 . S
C699 C709 1.510 . S
C700 C696 1.401 . S
C700 C699 1.396 . S
C701 C696 1.499 . S
C701 H702 0.959 . S
C701 H703 0.960 . S
C701 H704 0.961 . S
H702 C701 0.959 . S
H703 C701 0.960 . S
H704 C701 0.961 . S
O705 Co680 1.967 . S
O705 C713 1.258 . S
O706 Co681 1.941 . S
O706 C713 1.266 . S
H707 C709 0.959 . S
H708 C709 0.961 . S
C709 C699 1.510 . S
C709 H707 0.959 . S
C709 H708 0.961 . S
C709 H710 0.960 . S
H710 C709 0.960 . S
H711 N691 0.862 . S
O712 Co680 1.920 . S
O712 C685 1.289 . S
C713 O705 1.258 . S
C713 O706 1.266 . S
Co714 O717 1.970 . S
Co714 N731 1.989 . S
Co714 O739 1.967 . S
Co714 O746 1.920 . S
Co715 O718 1.966 . S
Co715 N724 2.022 . S
Co715 N732 1.993 . S
Co715 O740 1.941 . S
C716 O717 1.258 . S
C716 O718 1.263 . S
O717 Co714 1.970 . S
O717 C716 1.258 . S
O718 Co715 1.966 . S
O718 C716 1.263 . S
C719 O720 1.235 . S
C719 O746 1.289 . S
O720 C719 1.235 . S
C721 C723 1.400 . S
C721 N724 1.351 . S
C721 C726 1.501 . S
C722 C723 1.387 . S
C722 N725 1.341 . S
C723 C721 1.400 . S
C723 C722 1.387 . S
N724 Co715 2.022 . S
N724 C721 1.351 . S
N724 N725 1.365 . S
N725 C722 1.341 . S
N725 N724 1.365 . S
N725 H745 0.862 . S
C726 C721 1.501 . S
C726 H727 0.961 . S
C726 H728 0.961 . S
C726 H729 0.960 . S
H727 C726 0.961 . S
H728 C726 0.961 . S
H729 C726 0.960 . S
C730 N731 1.342 . S
C730 C734 1.401 . S
C730 C735 1.499 . S
N731 Co714 1.989 . S
N731 C730 1.342 . S
N731 N732 1.388 . S
N732 Co715 1.993 . S
N732 N731 1.388 . S
N732 C733 1.346 . S
C733 N732 1.346 . S
C733 C734 1.396 . S
C733 C743 1.510 . S
C734 C730 1.401 . S
C734 C733 1.396 . S
C735 C730 1.499 . S
C735 H736 0.959 . S
C735 H737 0.960 . S
C735 H738 0.961 . S
H736 C735 0.959 . S
H737 C735 0.960 . S
H738 C735 0.961 . S
O739 Co714 1.967 . S
O739 C747 1.258 . S
O740 Co715 1.941 . S
O740 C747 1.266 . S
H741 C743 0.959 . S
H742 C743 0.961 . S
C743 C733 1.510 . S
C743 H741 0.959 . S
C743 H742 0.961 . S
C743 H744 0.960 . S
H744 C743 0.960 . S
H745 N725 0.862 . S
O746 Co714 1.920 . S
O746 C719 1.289 . S
C747 O739 1.258 . S
C747 O740 1.266 . S
Co748 O751 1.970 . S
Co748 N765 1.989 . S
Co748 O773 1.967 . S
Co748 O780 1.920 . S
Co749 O752 1.966 . S
Co749 N758 2.022 . S
Co749 N766 1.993 . S
Co749 O774 1.941 . S
C750 O751 1.258 . S
C750 O752 1.263 . S
O751 Co748 1.970 . S
O751 C750 1.258 . S
O752 Co749 1.966 . S
O752 C750 1.263 . S
C753 O754 1.235 . S
C753 O780 1.289 . S
O754 C753 1.235 . S
C755 C757 1.400 . S
C755 N758 1.351 . S
C755 C760 1.501 . S
C756 C757 1.387 . S
C756 N759 1.341 . S
C757 C755 1.400 . S
C757 C756 1.387 . S
N758 Co749 2.022 . S
N758 C755 1.351 . S
N758 N759 1.365 . S
N759 C756 1.341 . S
N759 N758 1.365 . S
N759 H779 0.862 . S
C760 C755 1.501 . S
C760 H761 0.961 . S
C760 H762 0.961 . S
C760 H763 0.960 . S
H761 C760 0.961 . S
H762 C760 0.961 . S
H763 C760 0.960 . S
C764 N765 1.342 . S
C764 C768 1.401 . S
C764 C769 1.499 . S
N765 Co748 1.989 . S
N765 C764 1.342 . S
N765 N766 1.388 . S
N766 Co749 1.993 . S
N766 N765 1.388 . S
N766 C767 1.346 . S
C767 N766 1.346 . S
C767 C768 1.396 . S
C767 C777 1.510 . S
C768 C764 1.401 . S
C768 C767 1.396 . S
C769 C764 1.499 . S
C769 H770 0.959 . S
C769 H771 0.960 . S
C769 H772 0.961 . S
H770 C769 0.959 . S
H771 C769 0.960 . S
H772 C769 0.961 . S
O773 Co748 1.967 . S
O773 C781 1.258 . S
O774 Co749 1.941 . S
O774 C781 1.266 . S
H775 C777 0.959 . S
H776 C777 0.961 . S
C777 C767 1.510 . S
C777 H775 0.959 . S
C777 H776 0.961 . S
C777 H778 0.960 . S
H778 C777 0.960 . S
H779 N759 0.862 . S
O780 Co748 1.920 . S
O780 C753 1.289 . S
C781 O773 1.258 . S
C781 O774 1.266 . S
Co782 O785 1.970 . S
Co782 N799 1.989 . S
Co782 O807 1.967 . S
Co782 O814 1.920 . S
Co783 O786 1.966 . S
Co783 N792 2.022 . S
Co783 N800 1.993 . S
Co783 O808 1.941 . S
C784 O785 1.258 . S
C784 O786 1.263 . S
O785 Co782 1.970 . S
O785 C784 1.258 . S
O786 Co783 1.966 . S
O786 C784 1.263 . S
C787 O788 1.235 . S
C787 O814 1.289 . S
O788 C787 1.235 . S
C789 C791 1.400 . S
C789 N792 1.351 . S
C789 C794 1.501 . S
C790 C791 1.387 . S
C790 N793 1.341 . S
C791 C789 1.400 . S
C791 C790 1.387 . S
N792 Co783 2.022 . S
N792 C789 1.351 . S
N792 N793 1.365 . S
N793 C790 1.341 . S
N793 N792 1.365 . S
N793 H813 0.862 . S
C794 C789 1.501 . S
C794 H795 0.961 . S
C794 H796 0.961 . S
C794 H797 0.960 . S
H795 C794 0.961 . S
H796 C794 0.961 . S
H797 C794 0.960 . S
C798 N799 1.342 . S
C798 C802 1.401 . S
C798 C803 1.499 . S
N799 Co782 1.989 . S
N799 C798 1.342 . S
N799 N800 1.388 . S
N800 Co783 1.993 . S
N800 N799 1.388 . S
N800 C801 1.346 . S
C801 N800 1.346 . S
C801 C802 1.396 . S
C801 C811 1.510 . S
C802 C798 1.401 . S
C802 C801 1.396 . S
C803 C798 1.499 . S
C803 H804 0.959 . S
C803 H805 0.960 . S
C803 H806 0.961 . S
H804 C803 0.959 . S
H805 C803 0.960 . S
H806 C803 0.961 . S
O807 Co782 1.967 . S
O807 C815 1.258 . S
O808 Co783 1.941 . S
O808 C815 1.266 . S
H809 C811 0.959 . S
H810 C811 0.961 . S
C811 C801 1.510 . S
C811 H809 0.959 . S
C811 H810 0.961 . S
C811 H812 0.960 . S
H812 C811 0.960 . S
H813 N793 0.862 . S
O814 Co782 1.920 . S
O814 C787 1.289 . S
C815 O807 1.258 . S
C815 O808 1.266 . S
Co816 O819 1.970 . S
Co816 N833 1.989 . S
Co816 O841 1.967 . S
Co816 O848 1.920 . S
Co817 O820 1.966 . S
Co817 N826 2.022 . S
Co817 N834 1.993 . S
Co817 O842 1.941 . S
C818 O819 1.258 . S
C818 O820 1.263 . S
O819 Co816 1.970 . S
O819 C818 1.258 . S
O820 Co817 1.966 . S
O820 C818 1.263 . S
C821 O822 1.235 . S
C821 O848 1.289 . S
O822 C821 1.235 . S
C823 C825 1.400 . S
C823 N826 1.351 . S
C823 C828 1.501 . S
C824 C825 1.387 . S
C824 N827 1.341 . S
C825 C823 1.400 . S
C825 C824 1.387 . S
N826 Co817 2.022 . S
N826 C823 1.351 . S
N826 N827 1.365 . S
N827 C824 1.341 . S
N827 N826 1.365 . S
N827 H847 0.862 . S
C828 C823 1.501 . S
C828 H829 0.961 . S
C828 H830 0.961 . S
C828 H831 0.960 . S
H829 C828 0.961 . S
H830 C828 0.961 . S
H831 C828 0.960 . S
C832 N833 1.342 . S
C832 C836 1.401 . S
C832 C837 1.499 . S
N833 Co816 1.989 . S
N833 C832 1.342 . S
N833 N834 1.388 . S
N834 Co817 1.993 . S
N834 N833 1.388 . S
N834 C835 1.346 . S
C835 N834 1.346 . S
C835 C836 1.396 . S
C835 C845 1.510 . S
C836 C832 1.401 . S
C836 C835 1.396 . S
C837 C832 1.499 . S
C837 H838 0.959 . S
C837 H839 0.960 . S
C837 H840 0.961 . S
H838 C837 0.959 . S
H839 C837 0.960 . S
H840 C837 0.961 . S
O841 Co816 1.967 . S
O841 C849 1.258 . S
O842 Co817 1.941 . S
O842 C849 1.266 . S
H843 C845 0.959 . S
H844 C845 0.961 . S
C845 C835 1.510 . S
C845 H843 0.959 . S
C845 H844 0.961 . S
C845 H846 0.960 . S
H846 C845 0.960 . S
H847 N827 0.862 . S
O848 Co816 1.920 . S
O848 C821 1.289 . S
C849 O841 1.258 . S
C849 O842 1.266 . S
Co850 O853 1.970 . S
Co850 N867 1.989 . S
Co850 O875 1.967 . S
Co850 O882 1.920 . S
Co851 O854 1.966 . S
Co851 N860 2.022 . S
Co851 N868 1.993 . S
Co851 O876 1.941 . S
C852 O853 1.258 . S
C852 O854 1.263 . S
O853 Co850 1.970 . S
O853 C852 1.258 . S
O854 Co851 1.966 . S
O854 C852 1.263 . S
C855 O856 1.235 . S
C855 O882 1.289 . S
O856 C855 1.235 . S
C857 C859 1.400 . S
C857 N860 1.351 . S
C857 C862 1.501 . S
C858 C859 1.387 . S
C858 N861 1.341 . S
C859 C857 1.400 . S
C859 C858 1.387 . S
N860 Co851 2.022 . S
N860 C857 1.351 . S
N860 N861 1.365 . S
N861 C858 1.341 . S
N861 N860 1.365 . S
N861 H881 0.862 . S
C862 C857 1.501 . S
C862 H863 0.961 . S
C862 H864 0.961 . S
C862 H865 0.960 . S
H863 C862 0.961 . S
H864 C862 0.961 . S
H865 C862 0.960 . S
C866 N867 1.342 . S
C866 C870 1.401 . S
C866 C871 1.499 . S
N867 Co850 1.989 . S
N867 C866 1.342 . S
N867 N868 1.388 . S
N868 Co851 1.993 . S
N868 N867 1.388 . S
N868 C869 1.346 . S
C869 N868 1.346 . S
C869 C870 1.396 . S
C869 C879 1.510 . S
C870 C866 1.401 . S
C870 C869 1.396 . S
C871 C866 1.499 . S
C871 H872 0.959 . S
C871 H873 0.960 . S
C871 H874 0.961 . S
H872 C871 0.959 . S
H873 C871 0.960 . S
H874 C871 0.961 . S
O875 Co850 1.967 . S
O875 C883 1.258 . S
O876 Co851 1.941 . S
O876 C883 1.266 . S
H877 C879 0.959 . S
H878 C879 0.961 . S
C879 C869 1.510 . S
C879 H877 0.959 . S
C879 H878 0.961 . S
C879 H880 0.960 . S
H880 C879 0.960 . S
H881 N861 0.862 . S
O882 Co850 1.920 . S
O882 C855 1.289 . S
C883 O875 1.258 . S
C883 O876 1.266 . S
Co884 O887 1.970 . S
Co884 N901 1.989 . S
Co884 O909 1.967 . S
Co884 O916 1.920 . S
Co885 O888 1.966 . S
Co885 N894 2.022 . S
Co885 N902 1.993 . S
Co885 O910 1.941 . S
C886 O887 1.258 . S
C886 O888 1.263 . S
O887 Co884 1.970 . S
O887 C886 1.258 . S
O888 Co885 1.966 . S
O888 C886 1.263 . S
C889 O890 1.235 . S
C889 O916 1.289 . S
O890 C889 1.235 . S
C891 C893 1.400 . S
C891 N894 1.351 . S
C891 C896 1.501 . S
C892 C893 1.387 . S
C892 N895 1.341 . S
C893 C891 1.400 . S
C893 C892 1.387 . S
N894 Co885 2.022 . S
N894 C891 1.351 . S
N894 N895 1.365 . S
N895 C892 1.341 . S
N895 N894 1.365 . S
N895 H915 0.862 . S
C896 C891 1.501 . S
C896 H897 0.961 . S
C896 H898 0.961 . S
C896 H899 0.960 . S
H897 C896 0.961 . S
H898 C896 0.961 . S
H899 C896 0.960 . S
C900 N901 1.342 . S
C900 C904 1.401 . S
C900 C905 1.499 . S
N901 Co884 1.989 . S
N901 C900 1.342 . S
N901 N902 1.388 . S
N902 Co885 1.993 . S
N902 N901 1.388 . S
N902 C903 1.346 . S
C903 N902 1.346 . S
C903 C904 1.396 . S
C903 C913 1.510 . S
C904 C900 1.401 . S
C904 C903 1.396 . S
C905 C900 1.499 . S
C905 H906 0.959 . S
C905 H907 0.960 . S
C905 H908 0.961 . S
H906 C905 0.959 . S
H907 C905 0.960 . S
H908 C905 0.961 . S
O909 Co884 1.967 . S
O909 C917 1.258 . S
O910 Co885 1.941 . S
O910 C917 1.266 . S
H911 C913 0.959 . S
H912 C913 0.961 . S
C913 C903 1.510 . S
C913 H911 0.959 . S
C913 H912 0.961 . S
C913 H914 0.960 . S
H914 C913 0.960 . S
H915 N895 0.862 . S
O916 Co884 1.920 . S
O916 C889 1.289 . S
C917 O909 1.258 . S
C917 O910 1.266 . S
Co918 O921 1.970 . S
Co918 N935 1.989 . S
Co918 O943 1.967 . S
Co918 O950 1.920 . S
Co919 O922 1.966 . S
Co919 N928 2.022 . S
Co919 N936 1.993 . S
Co919 O944 1.941 . S
C920 O921 1.258 . S
C920 O922 1.263 . S
O921 Co918 1.970 . S
O921 C920 1.258 . S
O922 Co919 1.966 . S
O922 C920 1.263 . S
C923 O924 1.235 . S
C923 O950 1.289 . S
O924 C923 1.235 . S
C925 C927 1.400 . S
C925 N928 1.351 . S
C925 C930 1.501 . S
C926 C927 1.387 . S
C926 N929 1.341 . S
C927 C925 1.400 . S
C927 C926 1.387 . S
N928 Co919 2.022 . S
N928 C925 1.351 . S
N928 N929 1.365 . S
N929 C926 1.341 . S
N929 N928 1.365 . S
N929 H949 0.862 . S
C930 C925 1.501 . S
C930 H931 0.961 . S
C930 H932 0.961 . S
C930 H933 0.960 . S
H931 C930 0.961 . S
H932 C930 0.961 . S
H933 C930 0.960 . S
C934 N935 1.342 . S
C934 C938 1.401 . S
C934 C939 1.499 . S
N935 Co918 1.989 . S
N935 C934 1.342 . S
N935 N936 1.388 . S
N936 Co919 1.993 . S
N936 N935 1.388 . S
N936 C937 1.346 . S
C937 N936 1.346 . S
C937 C938 1.396 . S
C937 C947 1.510 . S
C938 C934 1.401 . S
C938 C937 1.396 . S
C939 C934 1.499 . S
C939 H940 0.959 . S
C939 H941 0.960 . S
C939 H942 0.961 . S
H940 C939 0.959 . S
H941 C939 0.960 . S
H942 C939 0.961 . S
O943 Co918 1.967 . S
O943 C951 1.258 . S
O944 Co919 1.941 . S
O944 C951 1.266 . S
H945 C947 0.959 . S
H946 C947 0.961 . S
C947 C937 1.510 . S
C947 H945 0.959 . S
C947 H946 0.961 . S
C947 H948 0.960 . S
H948 C947 0.960 . S
H949 N929 0.862 . S
O950 Co918 1.920 . S
O950 C923 1.289 . S
C951 O943 1.258 . S
C951 O944 1.266 . S
Co952 O955 1.970 . S
Co952 N969 1.989 . S
Co952 O977 1.967 . S
Co952 O984 1.920 . S
Co953 O956 1.966 . S
Co953 N962 2.022 . S
Co953 N970 1.993 . S
Co953 O978 1.941 . S
C954 O955 1.258 . S
C954 O956 1.263 . S
O955 Co952 1.970 . S
O955 C954 1.258 . S
O956 Co953 1.966 . S
O956 C954 1.263 . S
C957 O958 1.235 . S
C957 O984 1.289 . S
O958 C957 1.235 . S
C959 C961 1.400 . S
C959 N962 1.351 . S
C959 C964 1.501 . S
C960 C961 1.387 . S
C960 N963 1.341 . S
C961 C959 1.400 . S
C961 C960 1.387 . S
N962 Co953 2.022 . S
N962 C959 1.351 . S
N962 N963 1.365 . S
N963 C960 1.341 . S
N963 N962 1.365 . S
N963 H983 0.862 . S
C964 C959 1.501 . S
C964 H965 0.961 . S
C964 H966 0.961 . S
C964 H967 0.960 . S
H965 C964 0.961 . S
H966 C964 0.961 . S
H967 C964 0.960 . S
C968 N969 1.342 . S
C968 C972 1.401 . S
C968 C973 1.499 . S
N969 Co952 1.989 . S
N969 C968 1.342 . S
N969 N970 1.388 . S
N970 Co953 1.993 . S
N970 N969 1.388 . S
N970 C971 1.346 . S
C971 N970 1.346 . S
C971 C972 1.396 . S
C971 C981 1.510 . S
C972 C968 1.401 . S
C972 C971 1.396 . S
C973 C968 1.499 . S
C973 H974 0.959 . S
C973 H975 0.960 . S
C973 H976 0.961 . S
H974 C973 0.959 . S
H975 C973 0.960 . S
H976 C973 0.961 . S
O977 Co952 1.967 . S
O977 C985 1.258 . S
O978 Co953 1.941 . S
O978 C985 1.266 . S
H979 C981 0.959 . S
H980 C981 0.961 . S
C981 C971 1.510 . S
C981 H979 0.959 . S
C981 H980 0.961 . S
C981 H982 0.960 . S
H982 C981 0.960 . S
H983 N963 0.862 . S
O984 Co952 1.920 . S
O984 C957 1.289 . S
C985 O977 1.258 . S
C985 O978 1.266 . S
Co986 O989 1.970 . S
Co986 N1003 1.989 . S
Co986 O1011 1.967 . S
Co986 O1018 1.920 . S
Co987 O990 1.966 . S
Co987 N996 2.022 . S
Co987 N1004 1.993 . S
Co987 O1012 1.941 . S
C988 O989 1.258 . S
C988 O990 1.263 . S
O989 Co986 1.970 . S
O989 C988 1.258 . S
O990 Co987 1.966 . S
O990 C988 1.263 . S
C991 O992 1.235 . S
C991 O1018 1.289 . S
O992 C991 1.235 . S
C993 C995 1.400 . S
C993 N996 1.351 . S
C993 C998 1.501 . S
C994 C995 1.387 . S
C994 N997 1.341 . S
C995 C993 1.400 . S
C995 C994 1.387 . S
N996 Co987 2.022 . S
N996 C993 1.351 . S
N996 N997 1.365 . S
N997 C994 1.341 . S
N997 N996 1.365 . S
N997 H1017 0.862 . S
C998 C993 1.501 . S
C998 H999 0.961 . S
C998 H1000 0.961 . S
C998 H1001 0.960 . S
H999 C998 0.961 . S
H1000 C998 0.961 . S
H1001 C998 0.960 . S
C1002 N1003 1.342 . S
C1002 C1006 1.401 . S
C1002 C1007 1.499 . S
N1003 Co986 1.989 . S
N1003 C1002 1.342 . S
N1003 N1004 1.388 . S
N1004 Co987 1.993 . S
N1004 N1003 1.388 . S
N1004 C1005 1.346 . S
C1005 N1004 1.346 . S
C1005 C1006 1.396 . S
C1005 C1015 1.510 . S
C1006 C1002 1.401 . S
C1006 C1005 1.396 . S
C1007 C1002 1.499 . S
C1007 H1008 0.959 . S
C1007 H1009 0.960 . S
C1007 H1010 0.961 . S
H1008 C1007 0.959 . S
H1009 C1007 0.960 . S
H1010 C1007 0.961 . S
O1011 Co986 1.967 . S
O1011 C1019 1.258 . S
O1012 Co987 1.941 . S
O1012 C1019 1.266 . S
H1013 C1015 0.959 . S
H1014 C1015 0.961 . S
C1015 C1005 1.510 . S
C1015 H1013 0.959 . S
C1015 H1014 0.961 . S
C1015 H1016 0.960 . S
H1016 C1015 0.960 . S
H1017 N997 0.862 . S
O1018 Co986 1.920 . S
O1018 C991 1.289 . S
C1019 O1011 1.258 . S
C1019 O1012 1.266 . S
Co1020 O1023 1.970 . S
Co1020 N1037 1.989 . S
Co1020 O1045 1.967 . S
Co1020 O1052 1.920 . S
Co1021 O1024 1.966 . S
Co1021 N1030 2.022 . S
Co1021 N1038 1.993 . S
Co1021 O1046 1.941 . S
C1022 O1023 1.258 . S
C1022 O1024 1.263 . S
O1023 Co1020 1.970 . S
O1023 C1022 1.258 . S
O1024 Co1021 1.966 . S
O1024 C1022 1.263 . S
C1025 O1026 1.235 . S
C1025 O1052 1.289 . S
O1026 C1025 1.235 . S
C1027 C1029 1.400 . S
C1027 N1030 1.351 . S
C1027 C1032 1.501 . S
C1028 C1029 1.387 . S
C1028 N1031 1.341 . S
C1029 C1027 1.400 . S
C1029 C1028 1.387 . S
N1030 Co1021 2.022 . S
N1030 C1027 1.351 . S
N1030 N1031 1.365 . S
N1031 C1028 1.341 . S
N1031 N1030 1.365 . S
N1031 H1051 0.862 . S
C1032 C1027 1.501 . S
C1032 H1033 0.961 . S
C1032 H1034 0.961 . S
C1032 H1035 0.960 . S
H1033 C1032 0.961 . S
H1034 C1032 0.961 . S
H1035 C1032 0.960 . S
C1036 N1037 1.342 . S
C1036 C1040 1.401 . S
C1036 C1041 1.499 . S
N1037 Co1020 1.989 . S
N1037 C1036 1.342 . S
N1037 N1038 1.388 . S
N1038 Co1021 1.993 . S
N1038 N1037 1.388 . S
N1038 C1039 1.346 . S
C1039 N1038 1.346 . S
C1039 C1040 1.396 . S
C1039 C1049 1.510 . S
C1040 C1036 1.401 . S
C1040 C1039 1.396 . S
C1041 C1036 1.499 . S
C1041 H1042 0.959 . S
C1041 H1043 0.960 . S
C1041 H1044 0.961 . S
H1042 C1041 0.959 . S
H1043 C1041 0.960 . S
H1044 C1041 0.961 . S
O1045 Co1020 1.967 . S
O1045 C1053 1.258 . S
O1046 Co1021 1.941 . S
O1046 C1053 1.266 . S
H1047 C1049 0.959 . S
H1048 C1049 0.961 . S
C1049 C1039 1.510 . S
C1049 H1047 0.959 . S
C1049 H1048 0.961 . S
C1049 H1050 0.960 . S
H1050 C1049 0.960 . S
H1051 N1031 0.862 . S
O1052 Co1020 1.920 . S
O1052 C1025 1.289 . S
C1053 O1045 1.258 . S
C1053 O1046 1.266 . S
Co1054 O1057 1.970 . S
Co1054 N1071 1.989 . S
Co1054 O1079 1.967 . S
Co1054 O1086 1.920 . S
Co1055 O1058 1.966 . S
Co1055 N1064 2.022 . S
Co1055 N1072 1.993 . S
Co1055 O1080 1.941 . S
C1056 O1057 1.258 . S
C1056 O1058 1.263 . S
O1057 Co1054 1.970 . S
O1057 C1056 1.258 . S
O1058 Co1055 1.966 . S
O1058 C1056 1.263 . S
C1059 O1060 1.235 . S
C1059 O1086 1.289 . S
O1060 C1059 1.235 . S
C1061 C1063 1.400 . S
C1061 N1064 1.351 . S
C1061 C1066 1.501 . S
C1062 C1063 1.387 . S
C1062 N1065 1.341 . S
C1063 C1061 1.400 . S
C1063 C1062 1.387 . S
N1064 Co1055 2.022 . S
N1064 C1061 1.351 . S
N1064 N1065 1.365 . S
N1065 C1062 1.341 . S
N1065 N1064 1.365 . S
N1065 H1085 0.862 . S
C1066 C1061 1.501 . S
C1066 H1067 0.961 . S
C1066 H1068 0.961 . S
C1066 H1069 0.960 . S
H1067 C1066 0.961 . S
H1068 C1066 0.961 . S
H1069 C1066 0.960 . S
C1070 N1071 1.342 . S
C1070 C1074 1.401 . S
C1070 C1075 1.499 . S
N1071 Co1054 1.989 . S
N1071 C1070 1.342 . S
N1071 N1072 1.388 . S
N1072 Co1055 1.993 . S
N1072 N1071 1.388 . S
N1072 C1073 1.346 . S
C1073 N1072 1.346 . S
C1073 C1074 1.396 . S
C1073 C1083 1.510 . S
C1074 C1070 1.401 . S
C1074 C1073 1.396 . S
C1075 C1070 1.499 . S
C1075 H1076 0.959 . S
C1075 H1077 0.960 . S
C1075 H1078 0.961 . S
H1076 C1075 0.959 . S
H1077 C1075 0.960 . S
H1078 C1075 0.961 . S
O1079 Co1054 1.967 . S
O1079 C1087 1.258 . S
O1080 Co1055 1.941 . S
O1080 C1087 1.266 . S
H1081 C1083 0.959 . S
H1082 C1083 0.961 . S
C1083 C1073 1.510 . S
C1083 H1081 0.959 . S
C1083 H1082 0.961 . S
C1083 H1084 0.960 . S
H1084 C1083 0.960 . S
H1085 N1065 0.862 . S
O1086 Co1054 1.920 . S
O1086 C1059 1.289 . S
C1087 O1079 1.258 . S
C1087 O1080 1.266 . S
C1088 C1089 1.349 . S
C1088 C1090 1.327 . S
C1088 H1113 0.950 . S
C1089 C1088 1.349 . S
C1089 C1105 1.349 . S
C1090 C1088 1.327 . S
C1090 C1109 1.429 . S
C1090 H1114 0.950 . S
C1091 C1108 1.574 . S
C1091 C1110 1.368 . S
C1091 H1115 0.949 . S
H1092 C1096 0.949 . S
C1093 C1094 1.349 . S
C1093 C1095 1.327 . S
C1093 H1116 0.950 . S
C1094 C1093 1.349 . S
C1094 C1106 1.349 . S
C1095 C1093 1.327 . S
C1095 C1111 1.429 . S
C1095 H1117 0.950 . S
C1096 H1092 0.949 . S
C1096 C1104 1.574 . S
C1096 C1112 1.368 . S
H1097 C1105 0.950 . S
H1098 C1103 0.950 . S
H1099 C1104 0.949 . S
H1100 C1106 0.950 . S
H1101 C1107 0.950 . S
H1102 C1108 0.949 . S
C1103 H1098 0.950 . S
C1103 C1105 1.327 . S
C1103 C1109 1.429 . S
C1104 C1096 1.574 . S
C1104 H1099 0.949 . S
C1104 C1110 1.368 . S
C1105 C1089 1.349 . S
C1105 H1097 0.950 . S
C1105 C1103 1.327 . S
C1106 C1094 1.349 . S
C1106 H1100 0.950 . S
C1106 C1107 1.327 . S
C1107 H1101 0.950 . S
C1107 C1106 1.327 . S
C1107 C1111 1.429 . S
C1108 C1091 1.574 . S
C1108 H1102 0.949 . S
C1108 C1112 1.368 . S
C1109 C1090 1.429 . S
C1109 C1103 1.429 . S
C1109 C1110 1.523 . S
C1110 C1091 1.368 . S
C1110 C1104 1.368 . S
C1110 C1109 1.523 . S
C1111 C1095 1.429 . S
C1111 C1107 1.429 . S
C1111 C1112 1.523 . S
C1112 C1096 1.368 . S
C1112 C1108 1.368 . S
C1112 C1111 1.523 . S
H1113 C1088 0.950 . S
H1114 C1090 0.950 . S
H1115 C1091 0.949 . S
H1116 C1093 0.950 . S
H1117 C1095 0.950 . S
C1118 C1119 1.349 . S
C1118 C1120 1.327 . S
C1118 H1143 0.950 . S
C1119 C1118 1.349 . S
C1119 C1135 1.349 . S
C1120 C1118 1.327 . S
C1120 C1139 1.429 . S
C1120 H1144 0.950 . S
C1121 C1138 1.574 1_565 S
C1121 C1140 1.368 1_455 S
C1121 H1145 0.949 . S
H1122 C1126 0.949 . S
C1123 C1124 1.349 . S
C1123 C1125 1.327 . S
C1123 H1146 0.950 . S
C1124 C1123 1.349 . S
C1124 C1136 1.349 . S
C1125 C1123 1.327 . S
C1125 C1141 1.429 . S
C1125 H1147 0.950 . S
C1126 H1122 0.949 . S
C1126 C1134 1.574 1_545 S
C1126 C1142 1.368 1_655 S
H1127 C1135 0.950 . S
H1128 C1133 0.950 . S
H1129 C1134 0.949 . S
H1130 C1136 0.950 . S
H1131 C1137 0.950 . S
H1132 C1138 0.949 . S
C1133 H1128 0.950 . S
C1133 C1135 1.327 . S
C1133 C1139 1.429 . S
C1134 C1126 1.574 1_565 S
C1134 H1129 0.949 . S
C1134 C1140 1.368 . S
C1135 C1119 1.349 . S
C1135 H1127 0.950 . S
C1135 C1133 1.327 . S
C1136 C1124 1.349 . S
C1136 H1130 0.950 . S
C1136 C1137 1.327 . S
C1137 H1131 0.950 . S
C1137 C1136 1.327 . S
C1137 C1141 1.429 . S
C1138 C1121 1.574 1_545 S
C1138 H1132 0.949 . S
C1138 C1142 1.368 . S
C1139 C1120 1.429 . S
C1139 C1133 1.429 . S
C1139 C1140 1.523 . S
C1140 C1121 1.368 1_655 S
C1140 C1134 1.368 . S
C1140 C1139 1.523 . S
C1141 C1125 1.429 . S
C1141 C1137 1.429 . S
C1141 C1142 1.523 . S
C1142 C1126 1.368 1_455 S
C1142 C1138 1.368 . S
C1142 C1141 1.523 . S
H1143 C1118 0.950 . S
H1144 C1120 0.950 . S
H1145 C1121 0.949 . S
H1146 C1123 0.950 . S
H1147 C1125 0.950 . S
C1148 C1149 1.349 . S
C1148 C1150 1.327 . S
C1148 H1173 0.950 . S
C1149 C1148 1.349 . S
C1149 C1165 1.349 . S
C1150 C1148 1.327 . S
C1150 C1169 1.429 . S
C1150 H1174 0.950 . S
C1151 C1168 1.574 . S
C1151 C1170 1.368 . S
C1151 H1175 0.949 . S
H1152 C1156 0.949 . S
C1153 C1154 1.349 . S
C1153 C1155 1.327 . S
C1153 H1176 0.950 . S
C1154 C1153 1.349 . S
C1154 C1166 1.349 . S
C1155 C1153 1.327 . S
C1155 C1171 1.429 . S
C1155 H1177 0.950 . S
C1156 H1152 0.949 . S
C1156 C1164 1.574 . S
C1156 C1172 1.368 . S
H1157 C1165 0.950 . S
H1158 C1163 0.950 . S
H1159 C1164 0.949 . S
H1160 C1166 0.950 . S
H1161 C1167 0.950 . S
H1162 C1168 0.949 . S
C1163 H1158 0.950 . S
C1163 C1165 1.327 . S
C1163 C1169 1.429 . S
C1164 C1156 1.574 . S
C1164 H1159 0.949 . S
C1164 C1170 1.368 . S
C1165 C1149 1.349 . S
C1165 H1157 0.950 . S
C1165 C1163 1.327 . S
C1166 C1154 1.349 . S
C1166 H1160 0.950 . S
C1166 C1167 1.327 . S
C1167 H1161 0.950 . S
C1167 C1166 1.327 . S
C1167 C1171 1.429 . S
C1168 C1151 1.574 . S
C1168 H1162 0.949 . S
C1168 C1172 1.368 . S
C1169 C1150 1.429 . S
C1169 C1163 1.429 . S
C1169 C1170 1.523 . S
C1170 C1151 1.368 . S
C1170 C1164 1.368 . S
C1170 C1169 1.523 . S
C1171 C1155 1.429 . S
C1171 C1167 1.429 . S
C1171 C1172 1.523 . S
C1172 C1156 1.368 . S
C1172 C1168 1.368 . S
C1172 C1171 1.523 . S
H1173 C1148 0.950 . S
H1174 C1150 0.950 . S
H1175 C1151 0.949 . S
H1176 C1153 0.950 . S
H1177 C1155 0.950 . S
C1178 C1179 1.349 . S
C1178 C1180 1.327 . S
C1178 H1203 0.950 . S
C1179 C1178 1.349 . S
C1179 C1195 1.349 . S
C1180 C1178 1.327 . S
C1180 C1199 1.429 . S
C1180 H1204 0.950 . S
C1181 C1198 1.559 1_556 S
C1181 C1200 1.382 . S
C1181 H1205 0.948 . S
H1182 C1186 0.948 . S
C1183 C1184 1.349 . S
C1183 C1185 1.327 . S
C1183 H1206 0.950 . S
C1184 C1183 1.349 . S
C1184 C1196 1.349 . S
C1185 C1183 1.327 . S
C1185 C1201 1.429 . S
C1185 H1207 0.950 . S
C1186 H1182 0.948 . S
C1186 C1194 1.559 1_554 S
C1186 C1202 1.382 . S
H1187 C1195 0.950 . S
H1188 C1193 0.950 . S
H1189 C1194 0.949 . S
H1190 C1196 0.950 . S
H1191 C1197 0.950 . S
H1192 C1198 0.949 . S
C1193 H1188 0.950 . S
C1193 C1195 1.327 . S
C1193 C1199 1.429 . S
C1194 C1186 1.559 1_556 S
C1194 H1189 0.949 . S
C1194 C1200 1.368 1_545 S
C1195 C1179 1.349 . S
C1195 H1187 0.950 . S
C1195 C1193 1.327 . S
C1196 C1184 1.349 . S
C1196 H1190 0.950 . S
C1196 C1197 1.327 . S
C1197 H1191 0.950 . S
C1197 C1196 1.327 . S
C1197 C1201 1.429 . S
C1198 C1181 1.559 1_554 S
C1198 H1192 0.949 . S
C1198 C1202 1.368 1_565 S
C1199 C1180 1.429 . S
C1199 C1193 1.429 . S
C1199 C1200 1.523 . S
C1200 C1181 1.382 . S
C1200 C1194 1.368 1_565 S
C1200 C1199 1.523 . S
C1201 C1185 1.429 . S
C1201 C1197 1.429 . S
C1201 C1202 1.523 . S
C1202 C1186 1.382 . S
C1202 C1198 1.368 1_545 S
C1202 C1201 1.523 . S
H1203 C1178 0.950 . S
H1204 C1180 0.950 . S
H1205 C1181 0.948 . S
H1206 C1183 0.950 . S
H1207 C1185 0.950 . S
C1208 C1209 1.349 . S
C1208 C1210 1.327 . S
C1208 H1233 0.950 . S
C1209 C1208 1.349 . S
C1209 C1225 1.349 . S
C1210 C1208 1.327 . S
C1210 C1229 1.429 . S
C1210 H1234 0.950 . S
C1211 C1228 1.574 . S
C1211 C1230 1.368 . S
C1211 H1235 0.949 . S
H1212 C1216 0.949 . S
C1213 C1214 1.349 . S
C1213 C1215 1.327 . S
C1213 H1236 0.950 . S
C1214 C1213 1.349 . S
C1214 C1226 1.349 . S
C1215 C1213 1.327 . S
C1215 C1231 1.429 . S
C1215 H1237 0.950 . S
C1216 H1212 0.949 . S
C1216 C1224 1.574 . S
C1216 C1232 1.368 . S
H1217 C1225 0.950 . S
H1218 C1223 0.950 . S
H1219 C1224 0.949 . S
H1220 C1226 0.950 . S
H1221 C1227 0.950 . S
H1222 C1228 0.949 . S
C1223 H1218 0.950 . S
C1223 C1225 1.327 . S
C1223 C1229 1.429 . S
C1224 C1216 1.574 . S
C1224 H1219 0.949 . S
C1224 C1230 1.368 . S
C1225 C1209 1.349 . S
C1225 H1217 0.950 . S
C1225 C1223 1.327 . S
C1226 C1214 1.349 . S
C1226 H1220 0.950 . S
C1226 C1227 1.327 . S
C1227 H1221 0.950 . S
C1227 C1226 1.327 . S
C1227 C1231 1.429 . S
C1228 C1211 1.574 . S
C1228 H1222 0.949 . S
C1228 C1232 1.368 . S
C1229 C1210 1.429 . S
C1229 C1223 1.429 . S
C1229 C1230 1.523 . S
C1230 C1211 1.368 . S
C1230 C1224 1.368 . S
C1230 C1229 1.523 . S
C1231 C1215 1.429 . S
C1231 C1227 1.429 . S
C1231 C1232 1.523 . S
C1232 C1216 1.368 . S
C1232 C1228 1.368 . S
C1232 C1231 1.523 . S
H1233 C1208 0.950 . S
H1234 C1210 0.950 . S
H1235 C1211 0.949 . S
H1236 C1213 0.950 . S
H1237 C1215 0.950 . S
C1238 C1239 1.349 . S
C1238 C1240 1.327 . S
C1238 H1263 0.950 . S
C1239 C1238 1.349 . S
C1239 C1255 1.349 . S
C1240 C1238 1.327 . S
C1240 C1259 1.429 . S
C1240 H1264 0.950 . S
C1241 C1258 1.574 . S
C1241 C1260 1.368 1_545 S
C1241 H1265 0.949 . S
H1242 C1246 0.949 . S
C1243 C1244 1.349 . S
C1243 C1245 1.327 . S
C1243 H1266 0.950 . S
C1244 C1243 1.349 . S
C1244 C1256 1.349 . S
C1245 C1243 1.327 . S
C1245 C1261 1.429 . S
C1245 H1267 0.950 . S
C1246 H1242 0.949 . S
C1246 C1254 1.574 . S
C1246 C1262 1.368 1_565 S
H1247 C1255 0.950 . S
H1248 C1253 0.950 . S
H1249 C1254 0.949 . S
H1250 C1256 0.950 . S
H1251 C1257 0.950 . S
H1252 C1258 0.949 . S
C1253 H1248 0.950 . S
C1253 C1255 1.327 . S
C1253 C1259 1.429 . S
C1254 C1246 1.574 . S
C1254 H1249 0.949 . S
C1254 C1260 1.368 . S
C1255 C1239 1.349 . S
C1255 H1247 0.950 . S
C1255 C1253 1.327 . S
C1256 C1244 1.349 . S
C1256 H1250 0.950 . S
C1256 C1257 1.327 . S
C1257 H1251 0.950 . S
C1257 C1256 1.327 . S
C1257 C1261 1.429 . S
C1258 C1241 1.574 . S
C1258 H1252 0.949 . S
C1258 C1262 1.368 . S
C1259 C1240 1.429 . S
C1259 C1253 1.429 . S
C1259 C1260 1.523 . S
C1260 C1241 1.368 1_565 S
C1260 C1254 1.368 . S
C1260 C1259 1.523 . S
C1261 C1245 1.429 . S
C1261 C1257 1.429 . S
C1261 C1262 1.523 . S
C1262 C1246 1.368 1_545 S
C1262 C1258 1.368 . S
C1262 C1261 1.523 . S
H1263 C1238 0.950 . S
H1264 C1240 0.950 . S
H1265 C1241 0.949 . S
H1266 C1243 0.950 . S
H1267 C1245 0.950 . S
C1268 C1269 1.349 . S
C1268 C1270 1.327 . S
C1268 H1293 0.950 . S
C1269 C1268 1.349 . S
C1269 C1285 1.349 . S
C1270 C1268 1.327 . S
C1270 C1289 1.429 . S
C1270 H1294 0.950 . S
C1271 C1288 1.574 . S
C1271 C1290 1.368 . S
C1271 H1295 0.949 . S
H1272 C1276 0.949 . S
C1273 C1274 1.349 . S
C1273 C1275 1.327 . S
C1273 H1296 0.950 . S
C1274 C1273 1.349 . S
C1274 C1286 1.349 . S
C1275 C1273 1.327 . S
C1275 C1291 1.429 . S
C1275 H1297 0.950 . S
C1276 H1272 0.949 . S
C1276 C1284 1.574 . S
C1276 C1292 1.368 . S
H1277 C1285 0.950 . S
H1278 C1283 0.950 . S
H1279 C1284 0.949 . S
H1280 C1286 0.950 . S
H1281 C1287 0.950 . S
H1282 C1288 0.949 . S
C1283 H1278 0.950 . S
C1283 C1285 1.327 . S
C1283 C1289 1.429 . S
C1284 C1276 1.574 . S
C1284 H1279 0.949 . S
C1284 C1290 1.368 . S
C1285 C1269 1.349 . S
C1285 H1277 0.950 . S
C1285 C1283 1.327 . S
C1286 C1274 1.349 . S
C1286 H1280 0.950 . S
C1286 C1287 1.327 . S
C1287 H1281 0.950 . S
C1287 C1286 1.327 . S
C1287 C1291 1.429 . S
C1288 C1271 1.574 . S
C1288 H1282 0.949 . S
C1288 C1292 1.368 . S
C1289 C1270 1.429 . S
C1289 C1283 1.429 . S
C1289 C1290 1.523 . S
C1290 C1271 1.368 . S
C1290 C1284 1.368 . S
C1290 C1289 1.523 . S
C1291 C1275 1.429 . S
C1291 C1287 1.429 . S
C1291 C1292 1.523 . S
C1292 C1276 1.368 . S
C1292 C1288 1.368 . S
C1292 C1291 1.523 . S
H1293 C1268 0.950 . S
H1294 C1270 0.950 . S
H1295 C1271 0.949 . S
H1296 C1273 0.950 . S
H1297 C1275 0.950 . S
C1298 C1299 1.349 . S
C1298 C1300 1.327 . S
C1298 H1323 0.950 . S
C1299 C1298 1.349 . S
C1299 C1315 1.349 . S
C1300 C1298 1.327 . S
C1300 C1319 1.429 . S
C1300 H1324 0.950 1_554 S
C1301 C1318 1.574 1_565 S
C1301 C1320 1.368 1_655 S
C1301 H1325 0.949 . S
H1302 C1306 0.949 . S
C1303 C1304 1.349 . S
C1303 C1305 1.327 . S
C1303 H1326 0.950 . S
C1304 C1303 1.349 . S
C1304 C1316 1.349 . S
C1305 C1303 1.327 . S
C1305 C1321 1.429 . S
C1305 H1327 0.950 1_556 S
C1306 H1302 0.949 . S
C1306 C1314 1.574 1_545 S
C1306 C1322 1.368 1_455 S
H1307 C1315 0.950 . S
H1308 C1313 0.950 . S
H1309 C1314 0.949 . S
H1310 C1316 0.950 . S
H1311 C1317 0.950 . S
H1312 C1318 0.949 . S
C1313 H1308 0.950 . S
C1313 C1315 1.327 . S
C1313 C1319 1.429 . S
C1314 C1306 1.574 1_565 S
C1314 H1309 0.949 . S
C1314 C1320 1.368 1_556 S
C1315 C1299 1.349 . S
C1315 H1307 0.950 . S
C1315 C1313 1.327 . S
C1316 C1304 1.349 . S
C1316 H1310 0.950 . S
C1316 C1317 1.327 . S
C1317 H1311 0.950 . S
C1317 C1316 1.327 . S
C1317 C1321 1.429 . S
C1318 C1301 1.574 1_545 S
C1318 H1312 0.949 . S
C1318 C1322 1.368 1_554 S
C1319 C1300 1.429 . S
C1319 C1313 1.429 . S
C1319 C1320 1.523 . S
C1320 C1301 1.368 1_455 S
C1320 C1314 1.368 1_554 S
C1320 C1319 1.523 . S
C1321 C1305 1.429 . S
C1321 C1317 1.429 . S
C1321 C1322 1.523 . S
C1322 C1306 1.368 1_655 S
C1322 C1318 1.368 1_556 S
C1322 C1321 1.523 . S
H1323 C1298 0.950 . S
H1324 C1300 0.950 1_556 S
H1325 C1301 0.949 . S
H1326 C1303 0.950 . S
H1327 C1305 0.950 1_554 S
C1328 C1329 1.349 . S
C1328 C1330 1.327 . S
C1328 H1353 0.950 . S
C1329 C1328 1.349 . S
C1329 C1345 1.349 . S
C1330 C1328 1.327 . S
C1330 C1349 1.429 . S
C1330 H1354 0.950 . S
C1331 C1348 1.574 . S
C1331 C1350 1.368 . S
C1331 H1355 0.949 . S
H1332 C1336 0.949 . S
C1333 C1334 1.349 . S
C1333 C1335 1.327 . S
C1333 H1356 0.950 . S
C1334 C1333 1.349 . S
C1334 C1346 1.349 . S
C1335 C1333 1.327 . S
C1335 C1351 1.429 . S
C1335 H1357 0.950 . S
C1336 H1332 0.949 . S
C1336 C1344 1.574 . S
C1336 C1352 1.368 . S
H1337 C1345 0.950 . S
H1338 C1343 0.950 . S
H1339 C1344 0.949 . S
H1340 C1346 0.950 . S
H1341 C1347 0.950 . S
H1342 C1348 0.949 . S
C1343 H1338 0.950 . S
C1343 C1345 1.327 . S
C1343 C1349 1.429 . S
C1344 C1336 1.574 . S
C1344 H1339 0.949 . S
C1344 C1350 1.368 . S
C1345 C1329 1.349 . S
C1345 H1337 0.950 . S
C1345 C1343 1.327 . S
C1346 C1334 1.349 . S
C1346 H1340 0.950 . S
C1346 C1347 1.327 . S
C1347 H1341 0.950 . S
C1347 C1346 1.327 . S
C1347 C1351 1.429 . S
C1348 C1331 1.574 . S
C1348 H1342 0.949 . S
C1348 C1352 1.368 . S
C1349 C1330 1.429 . S
C1349 C1343 1.429 . S
C1349 C1350 1.523 . S
C1350 C1331 1.368 . S
C1350 C1344 1.368 . S
C1350 C1349 1.523 . S
C1351 C1335 1.429 . S
C1351 C1347 1.429 . S
C1351 C1352 1.523 . S
C1352 C1336 1.368 . S
C1352 C1348 1.368 . S
C1352 C1351 1.523 . S
H1353 C1328 0.950 . S
H1354 C1330 0.950 . S
H1355 C1331 0.949 . S
H1356 C1333 0.950 . S
H1357 C1335 0.950 . S
C1358 C1359 1.349 . S
C1358 C1360 1.327 . S
C1358 H1383 0.950 . S
C1359 C1358 1.349 . S
C1359 C1375 1.349 . S
C1360 C1358 1.327 . S
C1360 C1379 1.429 . S
C1360 H1384 0.950 . S
C1361 C1378 1.574 . S
C1361 C1380 1.368 . S
C1361 H1385 0.949 . S
H1362 C1366 0.949 . S
C1363 C1364 1.349 . S
C1363 C1365 1.327 . S
C1363 H1386 0.950 . S
C1364 C1363 1.349 . S
C1364 C1376 1.349 . S
C1365 C1363 1.327 . S
C1365 C1381 1.429 . S
C1365 H1387 0.950 . S
C1366 H1362 0.949 . S
C1366 C1374 1.574 . S
C1366 C1382 1.368 . S
H1367 C1375 0.950 . S
H1368 C1373 0.950 . S
H1369 C1374 0.949 . S
H1370 C1376 0.950 . S
H1371 C1377 0.950 . S
H1372 C1378 0.949 . S
C1373 H1368 0.950 . S
C1373 C1375 1.327 . S
C1373 C1379 1.429 . S
C1374 C1366 1.574 . S
C1374 H1369 0.949 . S
C1374 C1380 1.368 . S
C1375 C1359 1.349 . S
C1375 H1367 0.950 . S
C1375 C1373 1.327 . S
C1376 C1364 1.349 . S
C1376 H1370 0.950 . S
C1376 C1377 1.327 . S
C1377 H1371 0.950 . S
C1377 C1376 1.327 . S
C1377 C1381 1.429 . S
C1378 C1361 1.574 . S
C1378 H1372 0.949 . S
C1378 C1382 1.368 . S
C1379 C1360 1.429 . S
C1379 C1373 1.429 . S
C1379 C1380 1.523 . S
C1380 C1361 1.368 . S
C1380 C1374 1.368 . S
C1380 C1379 1.523 . S
C1381 C1365 1.429 . S
C1381 C1377 1.429 . S
C1381 C1382 1.523 . S
C1382 C1366 1.368 . S
C1382 C1378 1.368 . S
C1382 C1381 1.523 . S
H1383 C1358 0.950 . S
H1384 C1360 0.950 . S
H1385 C1361 0.949 . S
H1386 C1363 0.950 . S
H1387 C1365 0.950 . S
C1388 C1389 1.349 . S
C1388 C1390 1.327 . S
C1388 H1413 0.950 . S
C1389 C1388 1.349 . S
C1389 C1405 1.349 . S
C1390 C1388 1.327 . S
C1390 C1409 1.429 . S
C1390 H1414 0.950 . S
C1391 C1408 1.574 . S
C1391 C1410 1.368 . S
C1391 H1415 0.949 . S
H1392 C1396 0.949 . S
C1393 C1394 1.349 . S
C1393 C1395 1.327 . S
C1393 H1416 0.950 . S
C1394 C1393 1.349 . S
C1394 C1406 1.349 . S
C1395 C1393 1.327 . S
C1395 C1411 1.429 . S
C1395 H1417 0.950 . S
C1396 H1392 0.949 . S
C1396 C1404 1.574 . S
C1396 C1412 1.368 . S
H1397 C1405 0.950 . S
H1398 C1403 0.950 . S
H1399 C1404 0.949 . S
H1400 C1406 0.950 . S
H1401 C1407 0.950 . S
H1402 C1408 0.949 . S
C1403 H1398 0.950 . S
C1403 C1405 1.327 . S
C1403 C1409 1.429 . S
C1404 C1396 1.574 . S
C1404 H1399 0.949 . S
C1404 C1410 1.368 . S
C1405 C1389 1.349 . S
C1405 H1397 0.950 . S
C1405 C1403 1.327 . S
C1406 C1394 1.349 . S
C1406 H1400 0.950 . S
C1406 C1407 1.327 . S
C1407 H1401 0.950 . S
C1407 C1406 1.327 . S
C1407 C1411 1.429 . S
C1408 C1391 1.574 . S
C1408 H1402 0.949 . S
C1408 C1412 1.368 . S
C1409 C1390 1.429 . S
C1409 C1403 1.429 . S
C1409 C1410 1.523 . S
C1410 C1391 1.368 . S
C1410 C1404 1.368 . S
C1410 C1409 1.523 . S
C1411 C1395 1.429 . S
C1411 C1407 1.429 . S
C1411 C1412 1.523 . S
C1412 C1396 1.368 . S
C1412 C1408 1.368 . S
C1412 C1411 1.523 . S
H1413 C1388 0.950 . S
H1414 C1390 0.950 . S
H1415 C1391 0.949 . S
H1416 C1393 0.950 . S
H1417 C1395 0.950 . S
C1418 C1419 1.349 . S
C1418 C1420 1.327 . S
C1418 H1443 0.950 . S
C1419 C1418 1.349 . S
C1419 C1435 1.349 . S
C1420 C1418 1.327 . S
C1420 C1439 1.429 . S
C1420 H1444 0.950 . S
C1421 C1438 1.574 . S
C1421 C1440 1.368 . S
C1421 H1445 0.949 . S
H1422 C1426 0.949 . S
C1423 C1424 1.349 . S
C1423 C1425 1.327 . S
C1423 H1446 0.950 . S
C1424 C1423 1.349 . S
C1424 C1436 1.349 . S
C1425 C1423 1.327 . S
C1425 C1441 1.429 . S
C1425 H1447 0.950 . S
C1426 H1422 0.949 . S
C1426 C1434 1.574 . S
C1426 C1442 1.368 . S
H1427 C1435 0.950 . S
H1428 C1433 0.950 . S
H1429 C1434 0.949 . S
H1430 C1436 0.950 . S
H1431 C1437 0.950 . S
H1432 C1438 0.949 . S
C1433 H1428 0.950 . S
C1433 C1435 1.327 . S
C1433 C1439 1.429 . S
C1434 C1426 1.574 . S
C1434 H1429 0.949 . S
C1434 C1440 1.368 . S
C1435 C1419 1.349 . S
C1435 H1427 0.950 . S
C1435 C1433 1.327 . S
C1436 C1424 1.349 . S
C1436 H1430 0.950 . S
C1436 C1437 1.327 . S
C1437 H1431 0.950 . S
C1437 C1436 1.327 . S
C1437 C1441 1.429 . S
C1438 C1421 1.574 . S
C1438 H1432 0.949 . S
C1438 C1442 1.368 . S
C1439 C1420 1.429 . S
C1439 C1433 1.429 . S
C1439 C1440 1.523 . S
C1440 C1421 1.368 . S
C1440 C1434 1.368 . S
C1440 C1439 1.523 . S
C1441 C1425 1.429 . S
C1441 C1437 1.429 . S
C1441 C1442 1.523 . S
C1442 C1426 1.368 . S
C1442 C1438 1.368 . S
C1442 C1441 1.523 . S
H1443 C1418 0.950 . S
H1444 C1420 0.950 . S
H1445 C1421 0.949 . S
H1446 C1423 0.950 . S
H1447 C1425 0.950 . S
C1448 C1449 1.349 . S
C1448 C1450 1.327 . S
C1448 H1473 0.950 . S
C1449 C1448 1.349 . S
C1449 C1465 1.349 . S
C1450 C1448 1.327 . S
C1450 C1469 1.429 . S
C1450 H1474 0.950 . S
C1451 C1468 1.574 1_556 S
C1451 C1470 1.368 . S
C1451 H1475 0.949 . S
H1452 C1456 0.949 . S
C1453 C1454 1.349 . S
C1453 C1455 1.327 . S
C1453 H1476 0.950 . S
C1454 C1453 1.349 . S
C1454 C1466 1.349 . S
C1455 C1453 1.327 . S
C1455 C1471 1.429 . S
C1455 H1477 0.950 . S
C1456 H1452 0.949 . S
C1456 C1464 1.574 1_554 S
C1456 C1472 1.368 . S
H1457 C1465 0.950 . S
H1458 C1463 0.950 . S
H1459 C1464 0.949 . S
H1460 C1466 0.950 . S
H1461 C1467 0.950 . S
H1462 C1468 0.949 . S
C1463 H1458 0.950 . S
C1463 C1465 1.327 . S
C1463 C1469 1.429 . S
C1464 C1456 1.574 1_556 S
C1464 H1459 0.949 . S
C1464 C1470 1.368 . S
C1465 C1449 1.349 . S
C1465 H1457 0.950 . S
C1465 C1463 1.327 . S
C1466 C1454 1.349 . S
C1466 H1460 0.950 . S
C1466 C1467 1.327 . S
C1467 H1461 0.950 . S
C1467 C1466 1.327 . S
C1467 C1471 1.429 . S
C1468 C1451 1.574 1_554 S
C1468 H1462 0.949 . S
C1468 C1472 1.368 . S
C1469 C1450 1.429 . S
C1469 C1463 1.429 . S
C1469 C1470 1.523 . S
C1470 C1451 1.368 . S
C1470 C1464 1.368 . S
C1470 C1469 1.523 . S
C1471 C1455 1.429 . S
C1471 C1467 1.429 . S
C1471 C1472 1.523 . S
C1472 C1456 1.368 . S
C1472 C1468 1.368 . S
C1472 C1471 1.523 . S
H1473 C1448 0.950 . S
H1474 C1450 0.950 . S
H1475 C1451 0.949 . S
H1476 C1453 0.950 . S
H1477 C1455 0.950 . S
C1478 C1479 1.349 . S
C1478 C1480 1.327 . S
C1478 H1503 0.950 . S
C1479 C1478 1.349 . S
C1479 C1495 1.349 . S
C1480 C1478 1.327 . S
C1480 C1499 1.429 . S
C1480 H1504 0.950 . S
C1481 C1498 1.574 . S
C1481 C1500 1.368 1_655 S
C1481 H1505 0.949 . S
H1482 C1486 0.949 . S
C1483 C1484 1.349 . S
C1483 C1485 1.327 . S
C1483 H1506 0.950 . S
C1484 C1483 1.349 . S
C1484 C1496 1.349 . S
C1485 C1483 1.327 . S
C1485 C1501 1.429 . S
C1485 H1507 0.950 . S
C1486 H1482 0.949 . S
C1486 C1494 1.574 . S
C1486 C1502 1.368 1_455 S
H1487 C1495 0.950 . S
H1488 C1493 0.950 . S
H1489 C1494 0.949 . S
H1490 C1496 0.950 . S
H1491 C1497 0.950 . S
H1492 C1498 0.949 . S
C1493 H1488 0.950 . S
C1493 C1495 1.327 . S
C1493 C1499 1.429 . S
C1494 C1486 1.574 . S
C1494 H1489 0.949 . S
C1494 C1500 1.368 . S
C1495 C1479 1.349 . S
C1495 H1487 0.950 . S
C1495 C1493 1.327 . S
C1496 C1484 1.349 . S
C1496 H1490 0.950 . S
C1496 C1497 1.327 . S
C1497 H1491 0.950 . S
C1497 C1496 1.327 . S
C1497 C1501 1.429 . S
C1498 C1481 1.574 . S
C1498 H1492 0.949 . S
C1498 C1502 1.368 . S
C1499 C1480 1.429 . S
C1499 C1493 1.429 . S
C1499 C1500 1.523 . S
C1500 C1481 1.368 1_455 S
C1500 C1494 1.368 . S
C1500 C1499 1.523 . S
C1501 C1485 1.429 . S
C1501 C1497 1.429 . S
C1501 C1502 1.523 . S
C1502 C1486 1.368 1_655 S
C1502 C1498 1.368 . S
C1502 C1501 1.523 . S
H1503 C1478 0.950 . S
H1504 C1480 0.950 . S
H1505 C1481 0.949 . S
H1506 C1483 0.950 . S
H1507 C1485 0.950 . S
C1508 C1509 1.349 . S
C1508 C1510 1.327 . S
C1508 H1533 0.950 . S
C1509 C1508 1.349 . S
C1509 C1525 1.349 . S
C1510 C1508 1.327 . S
C1510 C1529 1.429 . S
C1510 H1534 0.931 1_556 S
C1511 C1528 1.574 . S
C1511 C1530 1.368 1_655 S
C1511 H1535 0.949 . S
H1512 C1516 0.949 . S
C1513 C1514 1.349 . S
C1513 C1515 1.327 . S
C1513 H1536 0.950 . S
C1514 C1513 1.349 . S
C1514 C1526 1.349 . S
C1515 C1513 1.327 . S
C1515 C1531 1.429 . S
C1515 H1537 0.931 1_554 S
C1516 H1512 0.949 . S
C1516 C1524 1.574 . S
C1516 C1532 1.368 1_455 S
H1517 C1525 0.950 . S
H1518 C1523 0.950 . S
H1519 C1524 0.949 . S
H1520 C1526 0.950 . S
H1521 C1527 0.950 . S
H1522 C1528 0.949 . S
C1523 H1518 0.950 . S
C1523 C1525 1.327 . S
C1523 C1529 1.429 . S
C1524 C1516 1.574 . S
C1524 H1519 0.949 . S
C1524 C1530 1.368 1_554 S
C1525 C1509 1.349 . S
C1525 H1517 0.950 . S
C1525 C1523 1.327 . S
C1526 C1514 1.349 . S
C1526 H1520 0.950 . S
C1526 C1527 1.327 . S
C1527 H1521 0.950 . S
C1527 C1526 1.327 . S
C1527 C1531 1.429 . S
C1528 C1511 1.574 . S
C1528 H1522 0.949 . S
C1528 C1532 1.368 1_556 S
C1529 C1510 1.429 . S
C1529 C1523 1.429 . S
C1529 C1530 1.523 . S
C1530 C1511 1.368 1_455 S
C1530 C1524 1.368 1_556 S
C1530 C1529 1.523 . S
C1531 C1515 1.429 . S
C1531 C1527 1.429 . S
C1531 C1532 1.523 . S
C1532 C1516 1.368 1_655 S
C1532 C1528 1.368 1_554 S
C1532 C1531 1.523 . S
H1533 C1508 0.950 . S
H1534 C1510 0.931 1_554 S
H1535 C1511 0.949 . S
H1536 C1513 0.950 . S
H1537 C1515 0.931 1_556 S
C1538 C1539 1.349 . S
C1538 C1540 1.327 . S
C1538 H1563 0.950 . S
C1539 C1538 1.349 . S
C1539 C1555 1.349 . S
C1540 C1538 1.327 . S
C1540 C1559 1.429 . S
C1540 H1564 0.950 . S
C1541 C1558 1.574 . S
C1541 C1560 1.368 . S
C1541 H1565 0.949 . S
H1542 C1546 0.949 . S
C1543 C1544 1.349 . S
C1543 C1545 1.327 . S
C1543 H1566 0.950 . S
C1544 C1543 1.349 . S
C1544 C1556 1.349 . S
C1545 C1543 1.327 . S
C1545 C1561 1.429 . S
C1545 H1567 0.950 . S
C1546 H1542 0.949 . S
C1546 C1554 1.574 . S
C1546 C1562 1.368 . S
H1547 C1555 0.950 . S
H1548 C1553 0.950 . S
H1549 C1554 0.949 . S
H1550 C1556 0.950 . S
H1551 C1557 0.950 . S
H1552 C1558 0.949 . S
C1553 H1548 0.950 . S
C1553 C1555 1.327 . S
C1553 C1559 1.429 . S
C1554 C1546 1.574 . S
C1554 H1549 0.949 . S
C1554 C1560 1.368 . S
C1555 C1539 1.349 . S
C1555 H1547 0.950 . S
C1555 C1553 1.327 . S
C1556 C1544 1.349 . S
C1556 H1550 0.950 . S
C1556 C1557 1.327 . S
C1557 H1551 0.950 . S
C1557 C1556 1.327 . S
C1557 C1561 1.429 . S
C1558 C1541 1.574 . S
C1558 H1552 0.949 . S
C1558 C1562 1.368 . S
C1559 C1540 1.429 . S
C1559 C1553 1.429 . S
C1559 C1560 1.523 . S
C1560 C1541 1.368 . S
C1560 C1554 1.368 . S
C1560 C1559 1.523 . S
C1561 C1545 1.429 . S
C1561 C1557 1.429 . S
C1561 C1562 1.523 . S
C1562 C1546 1.368 . S
C1562 C1558 1.368 . S
C1562 C1561 1.523 . S
H1563 C1538 0.950 . S
H1564 C1540 0.950 . S
H1565 C1541 0.949 . S
H1566 C1543 0.950 . S
H1567 C1545 0.950 . S
C1568 C1569 1.349 . S
C1568 C1570 1.327 . S
C1568 H1593 0.950 . S
C1569 C1568 1.349 . S
C1569 C1585 1.349 . S
C1570 C1568 1.327 . S
C1570 C1589 1.429 . S
C1570 H1594 0.950 . S
C1571 C1588 1.574 . S
C1571 C1590 1.368 . S
C1571 H1595 0.949 . S
H1572 C1576 0.949 . S
C1573 C1574 1.349 . S
C1573 C1575 1.327 . S
C1573 H1596 0.950 . S
C1574 C1573 1.349 . S
C1574 C1586 1.349 . S
C1575 C1573 1.327 . S
C1575 C1591 1.429 . S
C1575 H1597 0.950 . S
C1576 H1572 0.949 . S
C1576 C1584 1.574 . S
C1576 C1592 1.368 . S
H1577 C1585 0.950 . S
H1578 C1583 0.950 . S
H1579 C1584 0.949 . S
H1580 C1586 0.950 . S
H1581 C1587 0.950 . S
H1582 C1588 0.949 . S
C1583 H1578 0.950 . S
C1583 C1585 1.327 . S
C1583 C1589 1.429 . S
C1584 C1576 1.574 . S
C1584 H1579 0.949 . S
C1584 C1590 1.368 . S
C1585 C1569 1.349 . S
C1585 H1577 0.950 . S
C1585 C1583 1.327 . S
C1586 C1574 1.349 . S
C1586 H1580 0.950 . S
C1586 C1587 1.327 . S
C1587 H1581 0.950 . S
C1587 C1586 1.327 . S
C1587 C1591 1.429 . S
C1588 C1571 1.574 . S
C1588 H1582 0.949 . S
C1588 C1592 1.368 . S
C1589 C1570 1.429 . S
C1589 C1583 1.429 . S
C1589 C1590 1.523 . S
C1590 C1571 1.368 . S
C1590 C1584 1.368 . S
C1590 C1589 1.523 . S
C1591 C1575 1.429 . S
C1591 C1587 1.429 . S
C1591 C1592 1.523 . S
C1592 C1576 1.368 . S
C1592 C1588 1.368 . S
C1592 C1591 1.523 . S
H1593 C1568 0.950 . S
H1594 C1570 0.950 . S
H1595 C1571 0.949 . S
H1596 C1573 0.950 . S
H1597 C1575 0.950 . S
C1598 C1599 1.349 . S
C1598 C1600 1.327 . S
C1598 H1623 0.950 . S
C1599 C1598 1.349 . S
C1599 C1615 1.349 . S
C1600 C1598 1.327 . S
C1600 C1619 1.429 . S
C1600 H1624 0.950 . S
C1601 C1618 1.581 . S
C1601 C1620 1.361 1_455 S
C1601 H1625 0.947 1_455 S
H1602 C1606 0.949 . S
C1603 C1604 1.349 . S
C1603 C1605 1.327 . S
C1603 H1626 0.950 . S
C1604 C1603 1.349 . S
C1604 C1616 1.349 . S
C1605 C1603 1.327 . S
C1605 C1621 1.429 . S
C1605 H1627 0.950 . S
C1606 H1602 0.949 . S
C1606 C1614 1.574 1_455 S
C1606 C1622 1.368 . S
H1607 C1615 0.950 . S
H1608 C1613 0.950 . S
H1609 C1614 0.949 . S
H1610 C1616 0.950 . S
H1611 C1617 0.950 . S
H1612 C1618 0.949 . S
C1613 H1608 0.950 . S
C1613 C1615 1.327 . S
C1613 C1619 1.429 . S
C1614 C1606 1.574 1_655 S
C1614 H1609 0.949 . S
C1614 C1620 1.368 . S
C1615 C1599 1.349 . S
C1615 H1607 0.950 . S
C1615 C1613 1.327 . S
C1616 C1604 1.349 . S
C1616 H1610 0.950 . S
C1616 C1617 1.327 . S
C1617 H1611 0.950 . S
C1617 C1616 1.327 . S
C1617 C1621 1.429 . S
C1618 C1601 1.581 . S
C1618 H1612 0.949 . S
C1618 C1622 1.368 . S
C1619 C1600 1.429 . S
C1619 C1613 1.429 . S
C1619 C1620 1.523 . S
C1620 C1601 1.361 1_655 S
C1620 C1614 1.368 . S
C1620 C1619 1.523 . S
C1621 C1605 1.429 . S
C1621 C1617 1.429 . S
C1621 C1622 1.523 . S
C1622 C1606 1.368 . S
C1622 C1618 1.368 . S
C1622 C1621 1.523 . S
H1623 C1598 0.950 . S
H1624 C1600 0.950 . S
H1625 C1601 0.947 1_655 S
H1626 C1603 0.950 . S
H1627 C1605 0.950 . S
C1628 C1629 1.349 . S
C1628 C1630 1.327 . S
C1628 H1653 0.950 . S
C1629 C1628 1.349 . S
C1629 C1645 1.349 . S
C1630 C1628 1.327 . S
C1630 C1649 1.429 . S
C1630 H1654 0.950 . S
C1631 C1648 1.574 . S
C1631 C1650 1.368 . S
C1631 H1655 0.949 . S
H1632 C1636 0.949 . S
C1633 C1634 1.349 . S
C1633 C1635 1.327 . S
C1633 H1656 0.950 . S
C1634 C1633 1.349 . S
C1634 C1646 1.349 . S
C1635 C1633 1.327 . S
C1635 C1651 1.429 . S
C1635 H1657 0.950 . S
C1636 H1632 0.949 . S
C1636 C1644 1.574 . S
C1636 C1652 1.368 . S
H1637 C1645 0.950 . S
H1638 C1643 0.950 . S
H1639 C1644 0.949 . S
H1640 C1646 0.950 . S
H1641 C1647 0.950 . S
H1642 C1648 0.949 . S
C1643 H1638 0.950 . S
C1643 C1645 1.327 . S
C1643 C1649 1.429 . S
C1644 C1636 1.574 . S
C1644 H1639 0.949 . S
C1644 C1650 1.368 . S
C1645 C1629 1.349 . S
C1645 H1637 0.950 . S
C1645 C1643 1.327 . S
C1646 C1634 1.349 . S
C1646 H1640 0.950 . S
C1646 C1647 1.327 . S
C1647 H1641 0.950 . S
C1647 C1646 1.327 . S
C1647 C1651 1.429 . S
C1648 C1631 1.574 . S
C1648 H1642 0.949 . S
C1648 C1652 1.368 . S
C1649 C1630 1.429 . S
C1649 C1643 1.429 . S
C1649 C1650 1.523 . S
C1650 C1631 1.368 . S
C1650 C1644 1.368 . S
C1650 C1649 1.523 . S
C1651 C1635 1.429 . S
C1651 C1647 1.429 . S
C1651 C1652 1.523 . S
C1652 C1636 1.368 . S
C1652 C1648 1.368 . S
C1652 C1651 1.523 . S
H1653 C1628 0.950 . S
H1654 C1630 0.950 . S
H1655 C1631 0.949 . S
H1656 C1633 0.950 . S
H1657 C1635 0.950 . S
C1658 C1659 1.349 . S
C1658 C1660 1.327 . S
C1658 H1683 0.950 . S
C1659 C1658 1.349 . S
C1659 C1675 1.349 . S
C1660 C1658 1.327 . S
C1660 C1679 1.429 . S
C1660 H1684 0.950 . S
C1661 C1678 1.574 . S
C1661 C1680 1.368 . S
C1661 H1685 0.949 . S
H1662 C1666 0.949 . S
C1663 C1664 1.349 . S
C1663 C1665 1.327 . S
C1663 H1686 0.950 . S
C1664 C1663 1.349 . S
C1664 C1676 1.349 . S
C1665 C1663 1.327 . S
C1665 C1681 1.429 . S
C1665 H1687 0.950 . S
C1666 H1662 0.949 . S
C1666 C1674 1.574 . S
C1666 C1682 1.368 . S
H1667 C1675 0.950 . S
H1668 C1673 0.950 . S
H1669 C1674 0.949 . S
H1670 C1676 0.950 . S
H1671 C1677 0.950 . S
H1672 C1678 0.949 . S
C1673 H1668 0.950 . S
C1673 C1675 1.327 . S
C1673 C1679 1.429 . S
C1674 C1666 1.574 . S
C1674 H1669 0.949 . S
C1674 C1680 1.368 . S
C1675 C1659 1.349 . S
C1675 H1667 0.950 . S
C1675 C1673 1.327 . S
C1676 C1664 1.349 . S
C1676 H1670 0.950 . S
C1676 C1677 1.327 . S
C1677 H1671 0.950 . S
C1677 C1676 1.327 . S
C1677 C1681 1.429 . S
C1678 C1661 1.574 . S
C1678 H1672 0.949 . S
C1678 C1682 1.368 . S
C1679 C1660 1.429 . S
C1679 C1673 1.429 . S
C1679 C1680 1.523 . S
C1680 C1661 1.368 . S
C1680 C1674 1.368 . S
C1680 C1679 1.523 . S
C1681 C1665 1.429 . S
C1681 C1677 1.429 . S
C1681 C1682 1.523 . S
C1682 C1666 1.368 . S
C1682 C1678 1.368 . S
C1682 C1681 1.523 . S
H1683 C1658 0.950 . S
H1684 C1660 0.950 . S
H1685 C1661 0.949 . S
H1686 C1663 0.950 . S
H1687 C1665 0.950 . S
C1688 C1689 1.349 . S
C1688 C1690 1.327 . S
C1688 H1713 0.950 . S
C1689 C1688 1.349 . S
C1689 C1705 1.349 . S
C1690 C1688 1.327 . S
C1690 C1709 1.429 . S
C1690 H1714 0.950 . S
C1691 C1708 1.574 . S
C1691 C1710 1.368 . S
C1691 H1715 0.949 . S
H1692 C1696 0.949 . S
C1693 C1694 1.349 . S
C1693 C1695 1.327 . S
C1693 H1716 0.950 . S
C1694 C1693 1.349 . S
C1694 C1706 1.349 . S
C1695 C1693 1.327 . S
C1695 C1711 1.429 . S
C1695 H1717 0.950 . S
C1696 H1692 0.949 . S
C1696 C1704 1.574 . S
C1696 C1712 1.368 . S
H1697 C1705 0.950 . S
H1698 C1703 0.950 . S
H1699 C1704 0.949 . S
H1700 C1706 0.950 . S
H1701 C1707 0.950 . S
H1702 C1708 0.949 . S
C1703 H1698 0.950 . S
C1703 C1705 1.327 . S
C1703 C1709 1.429 . S
C1704 C1696 1.574 . S
C1704 H1699 0.949 . S
C1704 C1710 1.368 . S
C1705 C1689 1.349 . S
C1705 H1697 0.950 . S
C1705 C1703 1.327 . S
C1706 C1694 1.349 . S
C1706 H1700 0.950 . S
C1706 C1707 1.327 . S
C1707 H1701 0.950 . S
C1707 C1706 1.327 . S
C1707 C1711 1.429 . S
C1708 C1691 1.574 . S
C1708 H1702 0.949 . S
C1708 C1712 1.368 . S
C1709 C1690 1.429 . S
C1709 C1703 1.429 . S
C1709 C1710 1.523 . S
C1710 C1691 1.368 . S
C1710 C1704 1.368 . S
C1710 C1709 1.523 . S
C1711 C1695 1.429 . S
C1711 C1707 1.429 . S
C1711 C1712 1.523 . S
C1712 C1696 1.368 . S
C1712 C1708 1.368 . S
C1712 C1711 1.523 . S
H1713 C1688 0.950 . S
H1714 C1690 0.950 . S
H1715 C1691 0.949 . S
H1716 C1693 0.950 . S
H1717 C1695 0.950 . S
C1718 C1719 1.349 . S
C1718 C1720 1.327 . S
C1718 H1743 0.950 . S
C1719 C1718 1.349 . S
C1719 C1735 1.349 . S
C1720 C1718 1.327 . S
C1720 C1739 1.429 . S
C1720 H1744 0.950 . S
C1721 C1738 1.574 . S
C1721 C1740 1.368 . S
C1721 H1745 0.949 . S
H1722 C1726 0.949 . S
C1723 C1724 1.349 . S
C1723 C1725 1.327 . S
C1723 H1746 0.950 . S
C1724 C1723 1.349 . S
C1724 C1736 1.349 . S
C1725 C1723 1.327 . S
C1725 C1741 1.429 . S
C1725 H1747 0.950 . S
C1726 H1722 0.949 . S
C1726 C1734 1.574 . S
C1726 C1742 1.368 . S
H1727 C1735 0.950 . S
H1728 C1733 0.950 . S
H1729 C1734 0.949 . S
H1730 C1736 0.950 . S
H1731 C1737 0.950 . S
H1732 C1738 0.949 . S
C1733 H1728 0.950 . S
C1733 C1735 1.327 . S
C1733 C1739 1.429 . S
C1734 C1726 1.574 . S
C1734 H1729 0.949 . S
C1734 C1740 1.368 . S
C1735 C1719 1.349 . S
C1735 H1727 0.950 . S
C1735 C1733 1.327 . S
C1736 C1724 1.349 . S
C1736 H1730 0.950 . S
C1736 C1737 1.327 . S
C1737 H1731 0.950 . S
C1737 C1736 1.327 . S
C1737 C1741 1.429 . S
C1738 C1721 1.574 . S
C1738 H1732 0.949 . S
C1738 C1742 1.368 . S
C1739 C1720 1.429 . S
C1739 C1733 1.429 . S
C1739 C1740 1.523 . S
C1740 C1721 1.368 . S
C1740 C1734 1.368 . S
C1740 C1739 1.523 . S
C1741 C1725 1.429 . S
C1741 C1737 1.429 . S
C1741 C1742 1.523 . S
C1742 C1726 1.368 . S
C1742 C1738 1.368 . S
C1742 C1741 1.523 . S
H1743 C1718 0.950 . S
H1744 C1720 0.950 . S
H1745 C1721 0.949 . S
H1746 C1723 0.950 . S
H1747 C1725 0.950 . S
C1748 C1749 1.349 . S
C1748 C1750 1.327 . S
C1748 H1773 0.950 . S
C1749 C1748 1.349 . S
C1749 C1765 1.349 . S
C1750 C1748 1.327 . S
C1750 C1769 1.429 . S
C1750 H1774 0.950 . S
C1751 C1768 1.574 . S
C1751 C1770 1.368 . S
C1751 H1775 0.949 . S
H1752 C1756 0.949 . S
C1753 C1754 1.349 . S
C1753 C1755 1.327 . S
C1753 H1776 0.950 . S
C1754 C1753 1.349 . S
C1754 C1766 1.349 . S
C1755 C1753 1.327 . S
C1755 C1771 1.429 . S
C1755 H1777 0.950 . S
C1756 H1752 0.949 . S
C1756 C1764 1.574 . S
C1756 C1772 1.368 . S
H1757 C1765 0.950 . S
H1758 C1763 0.950 . S
H1759 C1764 0.949 . S
H1760 C1766 0.950 . S
H1761 C1767 0.950 . S
H1762 C1768 0.949 . S
C1763 H1758 0.950 . S
C1763 C1765 1.327 . S
C1763 C1769 1.429 . S
C1764 C1756 1.574 . S
C1764 H1759 0.949 . S
C1764 C1770 1.368 . S
C1765 C1749 1.349 . S
C1765 H1757 0.950 . S
C1765 C1763 1.327 . S
C1766 C1754 1.349 . S
C1766 H1760 0.950 . S
C1766 C1767 1.327 . S
C1767 H1761 0.950 . S
C1767 C1766 1.327 . S
C1767 C1771 1.429 . S
C1768 C1751 1.574 . S
C1768 H1762 0.949 . S
C1768 C1772 1.368 . S
C1769 C1750 1.429 . S
C1769 C1763 1.429 . S
C1769 C1770 1.523 . S
C1770 C1751 1.368 . S
C1770 C1764 1.368 . S
C1770 C1769 1.523 . S
C1771 C1755 1.429 . S
C1771 C1767 1.429 . S
C1771 C1772 1.523 . S
C1772 C1756 1.368 . S
C1772 C1768 1.368 . S
C1772 C1771 1.523 . S
H1773 C1748 0.950 . S
H1774 C1750 0.950 . S
H1775 C1751 0.949 . S
H1776 C1753 0.950 . S
H1777 C1755 0.950 . S
C1778 C1779 1.349 . S
C1778 C1780 1.327 . S
C1778 H1803 0.950 . S
C1779 C1778 1.349 . S
C1779 C1795 1.349 . S
C1780 C1778 1.327 . S
C1780 C1799 1.429 . S
C1780 H1804 0.950 . S
C1781 C1798 1.574 . S
C1781 C1800 1.368 1_455 S
C1781 H1805 0.949 . S
H1782 C1786 0.949 . S
C1783 C1784 1.349 . S
C1783 C1785 1.327 . S
C1783 H1806 0.950 . S
C1784 C1783 1.349 . S
C1784 C1796 1.349 . S
C1785 C1783 1.327 . S
C1785 C1801 1.429 . S
C1785 H1807 0.950 . S
C1786 H1782 0.949 . S
C1786 C1794 1.548 1_455 S
C1786 C1802 1.394 . S
H1787 C1795 0.950 . S
H1788 C1793 0.950 . S
H1789 C1794 0.949 . S
H1790 C1796 0.950 . S
H1791 C1797 0.950 . S
H1792 C1798 0.949 . S
C1793 H1788 0.950 . S
C1793 C1795 1.327 . S
C1793 C1799 1.429 . S
C1794 C1786 1.548 1_655 S
C1794 H1789 0.949 . S
C1794 C1800 1.368 . S
C1795 C1779 1.349 . S
C1795 H1787 0.950 . S
C1795 C1793 1.327 . S
C1796 C1784 1.349 . S
C1796 H1790 0.950 . S
C1796 C1797 1.327 . S
C1797 H1791 0.950 . S
C1797 C1796 1.327 . S
C1797 C1801 1.429 . S
C1798 C1781 1.574 . S
C1798 H1792 0.949 . S
C1798 C1802 1.368 . S
C1799 C1780 1.429 . S
C1799 C1793 1.429 . S
C1799 C1800 1.523 . S
C1800 C1781 1.368 1_655 S
C1800 C1794 1.368 . S
C1800 C1799 1.523 . S
C1801 C1785 1.429 . S
C1801 C1797 1.429 . S
C1801 C1802 1.523 . S
C1802 C1786 1.394 . S
C1802 C1798 1.368 . S
C1802 C1801 1.523 . S
H1803 C1778 0.950 . S
H1804 C1780 0.950 . S
H1805 C1781 0.949 . S
H1806 C1783 0.950 . S
H1807 C1785 0.950 . S
C1808 C1809 1.349 . S
C1808 C1810 1.327 . S
C1808 H1833 0.950 . S
C1809 C1808 1.349 . S
C1809 C1825 1.349 . S
C1810 C1808 1.327 . S
C1810 C1829 1.429 . S
C1810 H1834 0.950 . S
C1811 C1828 1.574 . S
C1811 C1830 1.368 . S
C1811 H1835 0.949 . S
H1812 C1816 0.949 . S
C1813 C1814 1.349 . S
C1813 C1815 1.327 . S
C1813 H1836 0.950 . S
C1814 C1813 1.349 . S
C1814 C1826 1.349 . S
C1815 C1813 1.327 . S
C1815 C1831 1.429 . S
C1815 H1837 0.950 . S
C1816 H1812 0.949 . S
C1816 C1824 1.574 . S
C1816 C1832 1.368 . S
H1817 C1825 0.950 . S
H1818 C1823 0.950 . S
H1819 C1824 0.949 . S
H1820 C1826 0.950 . S
H1821 C1827 0.950 . S
H1822 C1828 0.949 . S
C1823 H1818 0.950 . S
C1823 C1825 1.327 . S
C1823 C1829 1.429 . S
C1824 C1816 1.574 . S
C1824 H1819 0.949 . S
C1824 C1830 1.368 . S
C1825 C1809 1.349 . S
C1825 H1817 0.950 . S
C1825 C1823 1.327 . S
C1826 C1814 1.349 . S
C1826 H1820 0.950 . S
C1826 C1827 1.327 . S
C1827 H1821 0.950 . S
C1827 C1826 1.327 . S
C1827 C1831 1.429 . S
C1828 C1811 1.574 . S
C1828 H1822 0.949 . S
C1828 C1832 1.368 . S
C1829 C1810 1.429 . S
C1829 C1823 1.429 . S
C1829 C1830 1.523 . S
C1830 C1811 1.368 . S
C1830 C1824 1.368 . S
C1830 C1829 1.523 . S
C1831 C1815 1.429 . S
C1831 C1827 1.429 . S
C1831 C1832 1.523 . S
C1832 C1816 1.368 . S
C1832 C1828 1.368 . S
C1832 C1831 1.523 . S
H1833 C1808 0.950 . S
H1834 C1810 0.950 . S
H1835 C1811 0.949 . S
H1836 C1813 0.950 . S
H1837 C1815 0.950 . S
C1838 C1839 1.349 . S
C1838 C1840 1.327 . S
C1838 H1863 0.950 . S
C1839 C1838 1.349 . S
C1839 C1855 1.349 . S
C1840 C1838 1.327 . S
C1840 C1859 1.429 . S
C1840 H1864 0.950 . S
C1841 C1858 1.570 . S
C1841 C1860 1.368 . S
C1841 H1865 0.949 . S
H1842 C1846 0.949 . S
C1843 C1844 1.349 . S
C1843 C1845 1.327 . S
C1843 H1866 0.950 . S
C1844 C1843 1.349 . S
C1844 C1856 1.349 . S
C1845 C1843 1.327 . S
C1845 C1861 1.429 . S
C1845 H1867 0.950 . S
C1846 H1842 0.949 . S
C1846 C1854 1.574 . S
C1846 C1862 1.368 . S
H1847 C1855 0.950 . S
H1848 C1853 0.950 . S
H1849 C1854 0.949 . S
H1850 C1856 0.950 . S
H1851 C1857 0.950 . S
H1852 C1858 0.949 . S
C1853 H1848 0.950 . S
C1853 C1855 1.327 . S
C1853 C1859 1.429 . S
C1854 C1846 1.574 . S
C1854 H1849 0.949 . S
C1854 C1860 1.368 1_655 S
C1855 C1839 1.349 . S
C1855 H1847 0.950 . S
C1855 C1853 1.327 . S
C1856 C1844 1.349 . S
C1856 H1850 0.950 . S
C1856 C1857 1.327 . S
C1857 H1851 0.950 . S
C1857 C1856 1.327 . S
C1857 C1861 1.429 . S
C1858 C1841 1.570 . S
C1858 H1852 0.949 . S
C1858 C1862 1.373 1_455 S
C1859 C1840 1.429 . S
C1859 C1853 1.429 . S
C1859 C1860 1.523 . S
C1860 C1841 1.368 . S
C1860 C1854 1.368 1_455 S
C1860 C1859 1.523 . S
C1861 C1845 1.429 . S
C1861 C1857 1.429 . S
C1861 C1862 1.523 . S
C1862 C1846 1.368 . S
C1862 C1858 1.373 1_655 S
C1862 C1861 1.523 . S
H1863 C1838 0.950 . S
H1864 C1840 0.950 . S
H1865 C1841 0.949 . S
H1866 C1843 0.950 . S
H1867 C1845 0.950 . S
C1868 C1869 1.349 . S
C1868 C1870 1.327 . S
C1868 H1893 0.950 . S
C1869 C1868 1.349 . S
C1869 C1885 1.349 . S
C1870 C1868 1.327 . S
C1870 C1889 1.429 . S
C1870 H1894 0.950 . S
C1871 C1888 1.574 . S
C1871 C1890 1.368 . S
C1871 H1895 0.949 . S
H1872 C1876 0.949 . S
C1873 C1874 1.349 . S
C1873 C1875 1.327 . S
C1873 H1896 0.950 . S
C1874 C1873 1.349 . S
C1874 C1886 1.349 . S
C1875 C1873 1.327 . S
C1875 C1891 1.429 . S
C1875 H1897 0.950 . S
C1876 H1872 0.949 . S
C1876 C1884 1.574 . S
C1876 C1892 1.368 . S
H1877 C1885 0.950 . S
H1878 C1883 0.950 . S
H1879 C1884 0.949 . S
H1880 C1886 0.950 . S
H1881 C1887 0.950 . S
H1882 C1888 0.949 . S
C1883 H1878 0.950 . S
C1883 C1885 1.327 . S
C1883 C1889 1.429 . S
C1884 C1876 1.574 . S
C1884 H1879 0.949 . S
C1884 C1890 1.368 . S
C1885 C1869 1.349 . S
C1885 H1877 0.950 . S
C1885 C1883 1.327 . S
C1886 C1874 1.349 . S
C1886 H1880 0.950 . S
C1886 C1887 1.327 . S
C1887 H1881 0.950 . S
C1887 C1886 1.327 . S
C1887 C1891 1.429 . S
C1888 C1871 1.574 . S
C1888 H1882 0.949 . S
C1888 C1892 1.368 . S
C1889 C1870 1.429 . S
C1889 C1883 1.429 . S
C1889 C1890 1.523 . S
C1890 C1871 1.368 . S
C1890 C1884 1.368 . S
C1890 C1889 1.523 . S
C1891 C1875 1.429 . S
C1891 C1887 1.429 . S
C1891 C1892 1.523 . S
C1892 C1876 1.368 . S
C1892 C1888 1.368 . S
C1892 C1891 1.523 . S
H1893 C1868 0.950 . S
H1894 C1870 0.950 . S
H1895 C1871 0.949 . S
H1896 C1873 0.950 . S
H1897 C1875 0.950 . S
C1898 C1899 1.349 . S
C1898 C1900 1.327 . S
C1898 H1923 0.950 . S
C1899 C1898 1.349 . S
C1899 C1915 1.349 . S
C1900 C1898 1.327 . S
C1900 C1919 1.429 . S
C1900 H1924 0.950 . S
C1901 C1918 1.574 . S
C1901 C1920 1.368 . S
C1901 H1925 0.949 . S
H1902 C1906 0.949 . S
C1903 C1904 1.349 . S
C1903 C1905 1.327 . S
C1903 H1926 0.950 . S
C1904 C1903 1.349 . S
C1904 C1916 1.349 . S
C1905 C1903 1.327 . S
C1905 C1921 1.429 . S
C1905 H1927 0.950 . S
C1906 H1902 0.949 . S
C1906 C1914 1.574 . S
C1906 C1922 1.368 . S
H1907 C1915 0.950 . S
H1908 C1913 0.950 . S
H1909 C1914 0.949 . S
H1910 C1916 0.950 . S
H1911 C1917 0.950 . S
H1912 C1918 0.949 . S
C1913 H1908 0.950 . S
C1913 C1915 1.327 . S
C1913 C1919 1.429 . S
C1914 C1906 1.574 . S
C1914 H1909 0.949 . S
C1914 C1920 1.368 . S
C1915 C1899 1.349 . S
C1915 H1907 0.950 . S
C1915 C1913 1.327 . S
C1916 C1904 1.349 . S
C1916 H1910 0.950 . S
C1916 C1917 1.327 . S
C1917 H1911 0.950 . S
C1917 C1916 1.327 . S
C1917 C1921 1.429 . S
C1918 C1901 1.574 . S
C1918 H1912 0.949 . S
C1918 C1922 1.368 . S
C1919 C1900 1.429 . S
C1919 C1913 1.429 . S
C1919 C1920 1.523 . S
C1920 C1901 1.368 . S
C1920 C1914 1.368 . S
C1920 C1919 1.523 . S
C1921 C1905 1.429 . S
C1921 C1917 1.429 . S
C1921 C1922 1.523 . S
C1922 C1906 1.368 . S
C1922 C1918 1.368 . S
C1922 C1921 1.523 . S
H1923 C1898 0.950 . S
H1924 C1900 0.950 . S
H1925 C1901 0.949 . S
H1926 C1903 0.950 . S
H1927 C1905 0.950 . S
C1928 C1929 1.349 . S
C1928 C1930 1.327 . S
C1928 H1953 0.950 . S
C1929 C1928 1.349 . S
C1929 C1945 1.349 . S
C1930 C1928 1.327 . S
C1930 C1949 1.429 . S
C1930 H1954 0.950 . S
C1931 C1948 1.574 . S
C1931 C1950 1.368 . S
C1931 H1955 0.949 . S
H1932 C1936 0.949 . S
C1933 C1934 1.349 . S
C1933 C1935 1.327 . S
C1933 H1956 0.950 . S
C1934 C1933 1.349 . S
C1934 C1946 1.349 . S
C1935 C1933 1.327 . S
C1935 C1951 1.429 . S
C1935 H1957 0.950 . S
C1936 H1932 0.949 . S
C1936 C1944 1.574 . S
C1936 C1952 1.368 . S
H1937 C1945 0.950 . S
H1938 C1943 0.950 . S
H1939 C1944 0.949 . S
H1940 C1946 0.950 . S
H1941 C1947 0.950 . S
H1942 C1948 0.949 . S
C1943 H1938 0.950 . S
C1943 C1945 1.327 . S
C1943 C1949 1.429 . S
C1944 C1936 1.574 . S
C1944 H1939 0.949 . S
C1944 C1950 1.368 . S
C1945 C1929 1.349 . S
C1945 H1937 0.950 . S
C1945 C1943 1.327 . S
C1946 C1934 1.349 . S
C1946 H1940 0.950 . S
C1946 C1947 1.327 . S
C1947 H1941 0.950 . S
C1947 C1946 1.327 . S
C1947 C1951 1.429 . S
C1948 C1931 1.574 . S
C1948 H1942 0.949 . S
C1948 C1952 1.368 . S
C1949 C1930 1.429 . S
C1949 C1943 1.429 . S
C1949 C1950 1.523 . S
C1950 C1931 1.368 . S
C1950 C1944 1.368 . S
C1950 C1949 1.523 . S
C1951 C1935 1.429 . S
C1951 C1947 1.429 . S
C1951 C1952 1.523 . S
C1952 C1936 1.368 . S
C1952 C1948 1.368 . S
C1952 C1951 1.523 . S
H1953 C1928 0.950 . S
H1954 C1930 0.950 . S
H1955 C1931 0.949 . S
H1956 C1933 0.950 . S
H1957 C1935 0.950 . S
C1958 C1959 1.349 . S
C1958 C1960 1.327 . S
C1958 H1983 0.950 . S
C1959 C1958 1.349 . S
C1959 C1975 1.349 . S
C1960 C1958 1.327 . S
C1960 C1979 1.429 . S
C1960 H1984 0.950 . S
C1961 C1978 1.574 . S
C1961 C1980 1.368 . S
C1961 H1985 0.949 . S
H1962 C1966 0.949 . S
C1963 C1964 1.349 . S
C1963 C1965 1.327 . S
C1963 H1986 0.950 . S
C1964 C1963 1.349 . S
C1964 C1976 1.349 . S
C1965 C1963 1.327 . S
C1965 C1981 1.429 . S
C1965 H1987 0.950 . S
C1966 H1962 0.949 . S
C1966 C1974 1.574 . S
C1966 C1982 1.368 . S
H1967 C1975 0.950 . S
H1968 C1973 0.950 . S
H1969 C1974 0.949 . S
H1970 C1976 0.950 . S
H1971 C1977 0.950 . S
H1972 C1978 0.949 . S
C1973 H1968 0.950 . S
C1973 C1975 1.327 . S
C1973 C1979 1.429 . S
C1974 C1966 1.574 . S
C1974 H1969 0.949 . S
C1974 C1980 1.368 . S
C1975 C1959 1.349 . S
C1975 H1967 0.950 . S
C1975 C1973 1.327 . S
C1976 C1964 1.349 . S
C1976 H1970 0.950 . S
C1976 C1977 1.327 . S
C1977 H1971 0.950 . S
C1977 C1976 1.327 . S
C1977 C1981 1.429 . S
C1978 C1961 1.574 . S
C1978 H1972 0.949 . S
C1978 C1982 1.368 . S
C1979 C1960 1.429 . S
C1979 C1973 1.429 . S
C1979 C1980 1.523 . S
C1980 C1961 1.368 . S
C1980 C1974 1.368 . S
C1980 C1979 1.523 . S
C1981 C1965 1.429 . S
C1981 C1977 1.429 . S
C1981 C1982 1.523 . S
C1982 C1966 1.368 . S
C1982 C1978 1.368 . S
C1982 C1981 1.523 . S
H1983 C1958 0.950 . S
H1984 C1960 0.950 . S
H1985 C1961 0.949 . S
H1986 C1963 0.950 . S
H1987 C1965 0.950 . S
C1988 C1989 1.349 . S
C1988 C1990 1.327 . S
C1988 H2013 0.950 . S
C1989 C1988 1.349 . S
C1989 C2005 1.349 . S
C1990 C1988 1.327 . S
C1990 C2009 1.429 . S
C1990 H2014 0.950 . S
C1991 C2008 1.574 . S
C1991 C2010 1.368 . S
C1991 H2015 0.949 . S
H1992 C1996 0.949 . S
C1993 C1994 1.349 . S
C1993 C1995 1.327 . S
C1993 H2016 0.950 . S
C1994 C1993 1.349 . S
C1994 C2006 1.349 . S
C1995 C1993 1.327 . S
C1995 C2011 1.429 . S
C1995 H2017 0.950 . S
C1996 H1992 0.949 . S
C1996 C2004 1.574 . S
C1996 C2012 1.368 . S
H1997 C2005 0.950 . S
H1998 C2003 0.950 . S
H1999 C2004 0.949 . S
H2000 C2006 0.950 . S
H2001 C2007 0.950 . S
H2002 C2008 0.949 . S
C2003 H1998 0.950 . S
C2003 C2005 1.327 . S
C2003 C2009 1.429 . S
C2004 C1996 1.574 . S
C2004 H1999 0.949 . S
C2004 C2010 1.368 . S
C2005 C1989 1.349 . S
C2005 H1997 0.950 . S
C2005 C2003 1.327 . S
C2006 C1994 1.349 . S
C2006 H2000 0.950 . S
C2006 C2007 1.327 . S
C2007 H2001 0.950 . S
C2007 C2006 1.327 . S
C2007 C2011 1.429 . S
C2008 C1991 1.574 . S
C2008 H2002 0.949 . S
C2008 C2012 1.368 . S
C2009 C1990 1.429 . S
C2009 C2003 1.429 . S
C2009 C2010 1.523 . S
C2010 C1991 1.368 . S
C2010 C2004 1.368 . S
C2010 C2009 1.523 . S
C2011 C1995 1.429 . S
C2011 C2007 1.429 . S
C2011 C2012 1.523 . S
C2012 C1996 1.368 . S
C2012 C2008 1.368 . S
C2012 C2011 1.523 . S
H2013 C1988 0.950 . S
H2014 C1990 0.950 . S
H2015 C1991 0.949 . S
H2016 C1993 0.950 . S
H2017 C1995 0.950 . S
C2018 C2019 1.349 . S
C2018 C2020 1.327 . S
C2018 H2043 0.950 . S
C2019 C2018 1.349 . S
C2019 C2035 1.349 . S
C2020 C2018 1.327 . S
C2020 C2039 1.429 . S
C2020 H2044 0.950 . S
C2021 C2038 1.574 1_655 S
C2021 C2040 1.368 . S
C2021 H2045 0.949 . S
H2022 C2026 0.949 . S
C2023 C2024 1.349 . S
C2023 C2025 1.327 . S
C2023 H2046 0.950 . S
C2024 C2023 1.349 . S
C2024 C2036 1.349 . S
C2025 C2023 1.327 . S
C2025 C2041 1.429 . S
C2025 H2047 0.950 . S
C2026 H2022 0.949 . S
C2026 C2034 1.574 1_455 S
C2026 C2042 1.368 . S
H2027 C2035 0.950 . S
H2028 C2033 0.950 . S
H2029 C2034 0.949 . S
H2030 C2036 0.950 . S
H2031 C2037 0.950 . S
H2032 C2038 0.949 . S
C2033 H2028 0.950 . S
C2033 C2035 1.327 . S
C2033 C2039 1.429 . S
C2034 C2026 1.574 1_655 S
C2034 H2029 0.949 . S
C2034 C2040 1.368 . S
C2035 C2019 1.349 . S
C2035 H2027 0.950 . S
C2035 C2033 1.327 . S
C2036 C2024 1.349 . S
C2036 H2030 0.950 . S
C2036 C2037 1.327 . S
C2037 H2031 0.950 . S
C2037 C2036 1.327 . S
C2037 C2041 1.429 . S
C2038 C2021 1.574 1_455 S
C2038 H2032 0.949 . S
C2038 C2042 1.368 . S
C2039 C2020 1.429 . S
C2039 C2033 1.429 . S
C2039 C2040 1.523 . S
C2040 C2021 1.368 . S
C2040 C2034 1.368 . S
C2040 C2039 1.523 . S
C2041 C2025 1.429 . S
C2041 C2037 1.429 . S
C2041 C2042 1.523 . S
C2042 C2026 1.368 . S
C2042 C2038 1.368 . S
C2042 C2041 1.523 . S
H2043 C2018 0.950 . S
H2044 C2020 0.950 . S
H2045 C2021 0.949 . S
H2046 C2023 0.950 . S
H2047 C2025 0.950 . S
C2048 C2049 1.349 . S
C2048 C2050 1.327 . S
C2048 H2073 0.950 . S
C2049 C2048 1.349 . S
C2049 C2065 1.349 . S
C2050 C2048 1.327 . S
C2050 C2069 1.429 . S
C2050 H2074 0.950 . S
C2051 C2068 1.574 . S
C2051 C2070 1.368 . S
C2051 H2075 0.949 . S
H2052 C2056 0.949 . S
C2053 C2054 1.349 . S
C2053 C2055 1.327 . S
C2053 H2076 0.950 . S
C2054 C2053 1.349 . S
C2054 C2066 1.349 . S
C2055 C2053 1.327 . S
C2055 C2071 1.429 . S
C2055 H2077 0.950 . S
C2056 H2052 0.949 . S
C2056 C2064 1.574 . S
C2056 C2072 1.368 . S
H2057 C2065 0.950 . S
H2058 C2063 0.950 . S
H2059 C2064 0.949 . S
H2060 C2066 0.950 . S
H2061 C2067 0.950 . S
H2062 C2068 0.949 . S
C2063 H2058 0.950 . S
C2063 C2065 1.327 . S
C2063 C2069 1.429 . S
C2064 C2056 1.574 . S
C2064 H2059 0.949 . S
C2064 C2070 1.368 . S
C2065 C2049 1.349 . S
C2065 H2057 0.950 . S
C2065 C2063 1.327 . S
C2066 C2054 1.349 . S
C2066 H2060 0.950 . S
C2066 C2067 1.327 . S
C2067 H2061 0.950 . S
C2067 C2066 1.327 . S
C2067 C2071 1.429 . S
C2068 C2051 1.574 . S
C2068 H2062 0.949 . S
C2068 C2072 1.368 . S
C2069 C2050 1.429 . S
C2069 C2063 1.429 . S
C2069 C2070 1.523 . S
C2070 C2051 1.368 . S
C2070 C2064 1.368 . S
C2070 C2069 1.523 . S
C2071 C2055 1.429 . S
C2071 C2067 1.429 . S
C2071 C2072 1.523 . S
C2072 C2056 1.368 . S
C2072 C2068 1.368 . S
C2072 C2071 1.523 . S
H2073 C2048 0.950 . S
H2074 C2050 0.950 . S
H2075 C2051 0.949 . S
H2076 C2053 0.950 . S
H2077 C2055 0.950 . S
C2078 C2079 1.349 . S
C2078 C2080 1.327 . S
C2078 H2103 0.950 . S
C2079 C2078 1.349 . S
C2079 C2095 1.349 . S
C2080 C2078 1.327 . S
C2080 C2099 1.429 . S
C2080 H2104 0.950 . S
C2081 C2098 1.574 . S
C2081 C2100 1.368 . S
C2081 H2105 0.949 . S
H2082 C2086 0.949 . S
C2083 C2084 1.349 . S
C2083 C2085 1.327 . S
C2083 H2106 0.950 . S
C2084 C2083 1.349 . S
C2084 C2096 1.349 . S
C2085 C2083 1.327 . S
C2085 C2101 1.429 . S
C2085 H2107 0.950 . S
C2086 H2082 0.949 . S
C2086 C2094 1.574 . S
C2086 C2102 1.368 . S
H2087 C2095 0.950 . S
H2088 C2093 0.950 . S
H2089 C2094 0.949 . S
H2090 C2096 0.950 . S
H2091 C2097 0.950 . S
H2092 C2098 0.949 . S
C2093 H2088 0.950 . S
C2093 C2095 1.327 . S
C2093 C2099 1.429 . S
C2094 C2086 1.574 . S
C2094 H2089 0.949 . S
C2094 C2100 1.368 . S
C2095 C2079 1.349 . S
C2095 H2087 0.950 . S
C2095 C2093 1.327 . S
C2096 C2084 1.349 . S
C2096 H2090 0.950 . S
C2096 C2097 1.327 . S
C2097 H2091 0.950 . S
C2097 C2096 1.327 . S
C2097 C2101 1.429 . S
C2098 C2081 1.574 . S
C2098 H2092 0.949 . S
C2098 C2102 1.368 . S
C2099 C2080 1.429 . S
C2099 C2093 1.429 . S
C2099 C2100 1.523 . S
C2100 C2081 1.368 . S
C2100 C2094 1.368 . S
C2100 C2099 1.523 . S
C2101 C2085 1.429 . S
C2101 C2097 1.429 . S
C2101 C2102 1.523 . S
C2102 C2086 1.368 . S
C2102 C2098 1.368 . S
C2102 C2101 1.523 . S
H2103 C2078 0.950 . S
H2104 C2080 0.950 . S
H2105 C2081 0.949 . S
H2106 C2083 0.950 . S
H2107 C2085 0.950 . S
C2108 C2109 1.349 . S
C2108 C2110 1.327 . S
C2108 H2133 0.950 . S
C2109 C2108 1.349 . S
C2109 C2125 1.349 . S
C2110 C2108 1.327 . S
C2110 C2129 1.429 . S
C2110 H2134 0.950 . S
C2111 C2128 1.574 . S
C2111 C2130 1.368 . S
C2111 H2135 0.949 . S
H2112 C2116 0.949 . S
C2113 C2114 1.349 . S
C2113 C2115 1.327 . S
C2113 H2136 0.950 . S
C2114 C2113 1.349 . S
C2114 C2126 1.349 . S
C2115 C2113 1.327 . S
C2115 C2131 1.429 . S
C2115 H2137 0.950 . S
C2116 H2112 0.949 . S
C2116 C2124 1.574 . S
C2116 C2132 1.368 . S
H2117 C2125 0.950 . S
H2118 C2123 0.950 . S
H2119 C2124 0.949 . S
H2120 C2126 0.950 . S
H2121 C2127 0.950 . S
H2122 C2128 0.949 . S
C2123 H2118 0.950 . S
C2123 C2125 1.327 . S
C2123 C2129 1.429 . S
C2124 C2116 1.574 . S
C2124 H2119 0.949 . S
C2124 C2130 1.368 . S
C2125 C2109 1.349 . S
C2125 H2117 0.950 . S
C2125 C2123 1.327 . S
C2126 C2114 1.349 . S
C2126 H2120 0.950 . S
C2126 C2127 1.327 . S
C2127 H2121 0.950 . S
C2127 C2126 1.327 . S
C2127 C2131 1.429 . S
C2128 C2111 1.574 . S
C2128 H2122 0.949 . S
C2128 C2132 1.368 . S
C2129 C2110 1.429 . S
C2129 C2123 1.429 . S
C2129 C2130 1.523 . S
C2130 C2111 1.368 . S
C2130 C2124 1.368 . S
C2130 C2129 1.523 . S
C2131 C2115 1.429 . S
C2131 C2127 1.429 . S
C2131 C2132 1.523 . S
C2132 C2116 1.368 . S
C2132 C2128 1.368 . S
C2132 C2131 1.523 . S
H2133 C2108 0.950 . S
H2134 C2110 0.950 . S
H2135 C2111 0.949 . S
H2136 C2113 0.950 . S
H2137 C2115 0.950 . S
C2138 C2139 1.349 . S
C2138 C2140 1.327 . S
C2138 H2163 0.950 . S
C2139 C2138 1.349 . S
C2139 C2155 1.349 . S
C2140 C2138 1.327 . S
C2140 C2159 1.429 . S
C2140 H2164 0.950 . S
C2141 C2158 1.583 . S
C2141 C2160 1.368 . S
C2141 H2165 0.949 . S
H2142 C2146 0.949 . S
C2143 C2144 1.349 . S
C2143 C2145 1.327 . S
C2143 H2166 0.950 . S
C2144 C2143 1.349 . S
C2144 C2156 1.349 . S
C2145 C2143 1.327 . S
C2145 C2161 1.429 . S
C2145 H2167 0.950 . S
C2146 H2142 0.949 . S
C2146 C2154 1.574 1_455 S
C2146 C2162 1.368 . S
H2147 C2155 0.950 . S
H2148 C2153 0.950 . S
H2149 C2154 0.949 . S
H2150 C2156 0.950 . S
H2151 C2157 0.950 . S
H2152 C2158 0.948 1_455 S
C2153 H2148 0.950 . S
C2153 C2155 1.327 . S
C2153 C2159 1.429 . S
C2154 C2146 1.574 1_655 S
C2154 H2149 0.949 . S
C2154 C2160 1.368 . S
C2155 C2139 1.349 . S
C2155 H2147 0.950 . S
C2155 C2153 1.327 . S
C2156 C2144 1.349 . S
C2156 H2150 0.950 . S
C2156 C2157 1.327 . S
C2157 H2151 0.950 . S
C2157 C2156 1.327 . S
C2157 C2161 1.429 . S
C2158 C2141 1.583 . S
C2158 H2152 0.948 1_655 S
C2158 C2162 1.360 1_655 S
C2159 C2140 1.429 . S
C2159 C2153 1.429 . S
C2159 C2160 1.523 . S
C2160 C2141 1.368 . S
C2160 C2154 1.368 . S
C2160 C2159 1.523 . S
C2161 C2145 1.429 . S
C2161 C2157 1.429 . S
C2161 C2162 1.523 . S
C2162 C2146 1.368 . S
C2162 C2158 1.360 1_455 S
C2162 C2161 1.523 . S
H2163 C2138 0.950 . S
H2164 C2140 0.950 . S
H2165 C2141 0.949 . S
H2166 C2143 0.950 . S
H2167 C2145 0.950 . S
C2168 C2169 1.349 . S
C2168 C2170 1.327 . S
C2168 H2193 0.950 . S
C2169 C2168 1.349 . S
C2169 C2185 1.349 . S
C2170 C2168 1.327 . S
C2170 C2189 1.429 . S
C2170 H2194 0.950 . S
C2171 C2188 1.574 . S
C2171 C2190 1.368 . S
C2171 H2195 0.949 . S
H2172 C2176 0.949 . S
C2173 C2174 1.349 . S
C2173 C2175 1.327 . S
C2173 H2196 0.950 . S
C2174 C2173 1.349 . S
C2174 C2186 1.349 . S
C2175 C2173 1.327 . S
C2175 C2191 1.429 . S
C2175 H2197 0.950 . S
C2176 H2172 0.949 . S
C2176 C2184 1.574 . S
C2176 C2192 1.368 . S
H2177 C2185 0.950 . S
H2178 C2183 0.950 . S
H2179 C2184 0.949 . S
H2180 C2186 0.950 . S
H2181 C2187 0.950 . S
H2182 C2188 0.949 . S
C2183 H2178 0.950 . S
C2183 C2185 1.327 . S
C2183 C2189 1.429 . S
C2184 C2176 1.574 . S
C2184 H2179 0.949 . S
C2184 C2190 1.368 . S
C2185 C2169 1.349 . S
C2185 H2177 0.950 . S
C2185 C2183 1.327 . S
C2186 C2174 1.349 . S
C2186 H2180 0.950 . S
C2186 C2187 1.327 . S
C2187 H2181 0.950 . S
C2187 C2186 1.327 . S
C2187 C2191 1.429 . S
C2188 C2171 1.574 . S
C2188 H2182 0.949 . S
C2188 C2192 1.368 . S
C2189 C2170 1.429 . S
C2189 C2183 1.429 . S
C2189 C2190 1.523 . S
C2190 C2171 1.368 . S
C2190 C2184 1.368 . S
C2190 C2189 1.523 . S
C2191 C2175 1.429 . S
C2191 C2187 1.429 . S
C2191 C2192 1.523 . S
C2192 C2176 1.368 . S
C2192 C2188 1.368 . S
C2192 C2191 1.523 . S
H2193 C2168 0.950 . S
H2194 C2170 0.950 . S
H2195 C2171 0.949 . S
H2196 C2173 0.950 . S
H2197 C2175 0.950 . S
C2198 C2199 1.349 . S
C2198 C2200 1.327 . S
C2198 H2223 0.950 . S
C2199 C2198 1.349 . S
C2199 C2215 1.349 . S
C2200 C2198 1.327 . S
C2200 C2219 1.429 . S
C2200 H2224 0.950 . S
C2201 C2218 1.536 1_655 S
C2201 C2220 1.406 . S
C2201 H2225 0.951 . S
H2202 C2206 0.949 . S
C2203 C2204 1.349 . S
C2203 C2205 1.327 . S
C2203 H2226 0.950 . S
C2204 C2203 1.349 . S
C2204 C2216 1.349 . S
C2205 C2203 1.327 . S
C2205 C2221 1.429 . S
C2205 H2227 0.950 . S
C2206 H2202 0.949 . S
C2206 C2214 1.574 . S
C2206 C2222 1.368 1_655 S
H2207 C2215 0.950 . S
H2208 C2213 0.950 . S
H2209 C2214 0.949 . S
H2210 C2216 0.950 . S
H2211 C2217 0.950 . S
H2212 C2218 0.949 . S
C2213 H2208 0.950 . S
C2213 C2215 1.327 . S
C2213 C2219 1.429 . S
C2214 C2206 1.574 . S
C2214 H2209 0.949 . S
C2214 C2220 1.368 . S
C2215 C2199 1.349 . S
C2215 H2207 0.950 . S
C2215 C2213 1.327 . S
C2216 C2204 1.349 . S
C2216 H2210 0.950 . S
C2216 C2217 1.327 . S
C2217 H2211 0.950 . S
C2217 C2216 1.327 . S
C2217 C2221 1.429 . S
C2218 C2201 1.536 1_455 S
C2218 H2212 0.949 . S
C2218 C2222 1.368 . S
C2219 C2200 1.429 . S
C2219 C2213 1.429 . S
C2219 C2220 1.523 . S
C2220 C2201 1.406 . S
C2220 C2214 1.368 . S
C2220 C2219 1.523 . S
C2221 C2205 1.429 . S
C2221 C2217 1.429 . S
C2221 C2222 1.523 . S
C2222 C2206 1.368 1_455 S
C2222 C2218 1.368 . S
C2222 C2221 1.523 . S
H2223 C2198 0.950 . S
H2224 C2200 0.950 . S
H2225 C2201 0.951 . S
H2226 C2203 0.950 . S
H2227 C2205 0.950 . S
C2228 C2229 1.349 . S
C2228 C2230 1.327 . S
C2228 H2253 0.950 . S
C2229 C2228 1.349 . S
C2229 C2245 1.349 . S
C2230 C2228 1.327 . S
C2230 C2249 1.429 . S
C2230 H2254 0.950 . S
C2231 C2248 1.574 . S
C2231 C2250 1.368 . S
C2231 H2255 0.949 . S
H2232 C2236 0.949 . S
C2233 C2234 1.349 . S
C2233 C2235 1.327 . S
C2233 H2256 0.950 . S
C2234 C2233 1.349 . S
C2234 C2246 1.349 . S
C2235 C2233 1.327 . S
C2235 C2251 1.429 . S
C2235 H2257 0.950 . S
C2236 H2232 0.949 . S
C2236 C2244 1.574 . S
C2236 C2252 1.368 . S
H2237 C2245 0.950 . S
H2238 C2243 0.950 . S
H2239 C2244 0.949 . S
H2240 C2246 0.950 . S
H2241 C2247 0.950 . S
H2242 C2248 0.949 . S
C2243 H2238 0.950 . S
C2243 C2245 1.327 . S
C2243 C2249 1.429 . S
C2244 C2236 1.574 . S
C2244 H2239 0.949 . S
C2244 C2250 1.368 . S
C2245 C2229 1.349 . S
C2245 H2237 0.950 . S
C2245 C2243 1.327 . S
C2246 C2234 1.349 . S
C2246 H2240 0.950 . S
C2246 C2247 1.327 . S
C2247 H2241 0.950 . S
C2247 C2246 1.327 . S
C2247 C2251 1.429 . S
C2248 C2231 1.574 . S
C2248 H2242 0.949 . S
C2248 C2252 1.368 . S
C2249 C2230 1.429 . S
C2249 C2243 1.429 . S
C2249 C2250 1.523 . S
C2250 C2231 1.368 . S
C2250 C2244 1.368 . S
C2250 C2249 1.523 . S
C2251 C2235 1.429 . S
C2251 C2247 1.429 . S
C2251 C2252 1.523 . S
C2252 C2236 1.368 . S
C2252 C2248 1.368 . S
C2252 C2251 1.523 . S
H2253 C2228 0.950 . S
H2254 C2230 0.950 . S
H2255 C2231 0.949 . S
H2256 C2233 0.950 . S
H2257 C2235 0.950 . S
C2258 C2259 1.349 . S
C2258 C2260 1.327 . S
C2258 H2283 0.950 . S
C2259 C2258 1.349 . S
C2259 C2275 1.349 . S
C2260 C2258 1.327 . S
C2260 C2279 1.429 . S
C2260 H2284 0.950 . S
C2261 C2278 1.574 . S
C2261 C2280 1.368 . S
C2261 H2285 0.949 . S
H2262 C2266 0.949 . S
C2263 C2264 1.349 . S
C2263 C2265 1.327 . S
C2263 H2286 0.950 . S
C2264 C2263 1.349 . S
C2264 C2276 1.349 . S
C2265 C2263 1.327 . S
C2265 C2281 1.429 . S
C2265 H2287 0.950 . S
C2266 H2262 0.949 . S
C2266 C2274 1.574 . S
C2266 C2282 1.368 . S
H2267 C2275 0.950 . S
H2268 C2273 0.950 . S
H2269 C2274 0.949 . S
H2270 C2276 0.950 . S
H2271 C2277 0.950 . S
H2272 C2278 0.949 . S
C2273 H2268 0.950 . S
C2273 C2275 1.327 . S
C2273 C2279 1.429 . S
C2274 C2266 1.574 . S
C2274 H2269 0.949 . S
C2274 C2280 1.368 . S
C2275 C2259 1.349 . S
C2275 H2267 0.950 . S
C2275 C2273 1.327 . S
C2276 C2264 1.349 . S
C2276 H2270 0.950 . S
C2276 C2277 1.327 . S
C2277 H2271 0.950 . S
C2277 C2276 1.327 . S
C2277 C2281 1.429 . S
C2278 C2261 1.574 . S
C2278 H2272 0.949 . S
C2278 C2282 1.368 . S
C2279 C2260 1.429 . S
C2279 C2273 1.429 . S
C2279 C2280 1.523 . S
C2280 C2261 1.368 . S
C2280 C2274 1.368 . S
C2280 C2279 1.523 . S
C2281 C2265 1.429 . S
C2281 C2277 1.429 . S
C2281 C2282 1.523 . S
C2282 C2266 1.368 . S
C2282 C2278 1.368 . S
C2282 C2281 1.523 . S
H2283 C2258 0.950 . S
H2284 C2260 0.950 . S
H2285 C2261 0.949 . S
H2286 C2263 0.950 . S
H2287 C2265 0.950 . S
C2288 C2289 1.349 . S
C2288 C2290 1.327 . S
C2288 H2313 0.950 . S
C2289 C2288 1.349 . S
C2289 C2305 1.349 . S
C2290 C2288 1.327 . S
C2290 C2309 1.429 . S
C2290 H2314 0.950 . S
C2291 C2308 1.574 . S
C2291 C2310 1.368 . S
C2291 H2315 0.949 . S
H2292 C2296 0.949 . S
C2293 C2294 1.349 . S
C2293 C2295 1.327 . S
C2293 H2316 0.950 . S
C2294 C2293 1.349 . S
C2294 C2306 1.349 . S
C2295 C2293 1.327 . S
C2295 C2311 1.429 . S
C2295 H2317 0.950 . S
C2296 H2292 0.949 . S
C2296 C2304 1.574 . S
C2296 C2312 1.368 . S
H2297 C2305 0.950 . S
H2298 C2303 0.950 . S
H2299 C2304 0.949 . S
H2300 C2306 0.950 . S
H2301 C2307 0.950 . S
H2302 C2308 0.949 . S
C2303 H2298 0.950 . S
C2303 C2305 1.327 . S
C2303 C2309 1.429 . S
C2304 C2296 1.574 . S
C2304 H2299 0.949 . S
C2304 C2310 1.368 . S
C2305 C2289 1.349 . S
C2305 H2297 0.950 . S
C2305 C2303 1.327 . S
C2306 C2294 1.349 . S
C2306 H2300 0.950 . S
C2306 C2307 1.327 . S
C2307 H2301 0.950 . S
C2307 C2306 1.327 . S
C2307 C2311 1.429 . S
C2308 C2291 1.574 . S
C2308 H2302 0.949 . S
C2308 C2312 1.368 . S
C2309 C2290 1.429 . S
C2309 C2303 1.429 . S
C2309 C2310 1.523 . S
C2310 C2291 1.368 . S
C2310 C2304 1.368 . S
C2310 C2309 1.523 . S
C2311 C2295 1.429 . S
C2311 C2307 1.429 . S
C2311 C2312 1.523 . S
C2312 C2296 1.368 . S
C2312 C2308 1.368 . S
C2312 C2311 1.523 . S
H2313 C2288 0.950 . S
H2314 C2290 0.950 . S
H2315 C2291 0.949 . S
H2316 C2293 0.950 . S
H2317 C2295 0.950 . S
C2318 C2319 1.349 . S
C2318 C2320 1.327 . S
C2318 H2343 0.950 . S
C2319 C2318 1.349 . S
C2319 C2335 1.349 . S
C2320 C2318 1.327 . S
C2320 C2339 1.429 . S
C2320 H2344 0.950 . S
C2321 C2338 1.574 . S
C2321 C2340 1.368 . S
C2321 H2345 0.949 . S
H2322 C2326 0.949 . S
C2323 C2324 1.349 . S
C2323 C2325 1.327 . S
C2323 H2346 0.950 . S
C2324 C2323 1.349 . S
C2324 C2336 1.349 . S
C2325 C2323 1.327 . S
C2325 C2341 1.429 . S
C2325 H2347 0.950 . S
C2326 H2322 0.949 . S
C2326 C2334 1.574 . S
C2326 C2342 1.368 . S
H2327 C2335 0.950 . S
H2328 C2333 0.950 . S
H2329 C2334 0.949 . S
H2330 C2336 0.950 . S
H2331 C2337 0.950 . S
H2332 C2338 0.949 . S
C2333 H2328 0.950 . S
C2333 C2335 1.327 . S
C2333 C2339 1.429 . S
C2334 C2326 1.574 . S
C2334 H2329 0.949 . S
C2334 C2340 1.368 . S
C2335 C2319 1.349 . S
C2335 H2327 0.950 . S
C2335 C2333 1.327 . S
C2336 C2324 1.349 . S
C2336 H2330 0.950 . S
C2336 C2337 1.327 . S
C2337 H2331 0.950 . S
C2337 C2336 1.327 . S
C2337 C2341 1.429 . S
C2338 C2321 1.574 . S
C2338 H2332 0.949 . S
C2338 C2342 1.368 . S
C2339 C2320 1.429 . S
C2339 C2333 1.429 . S
C2339 C2340 1.523 . S
C2340 C2321 1.368 . S
C2340 C2334 1.368 . S
C2340 C2339 1.523 . S
C2341 C2325 1.429 . S
C2341 C2337 1.429 . S
C2341 C2342 1.523 . S
C2342 C2326 1.368 . S
C2342 C2338 1.368 . S
C2342 C2341 1.523 . S
H2343 C2318 0.950 . S
H2344 C2320 0.950 . S
H2345 C2321 0.949 . S
H2346 C2323 0.950 . S
H2347 C2325 0.950 . S
C2348 C2349 1.349 . S
C2348 C2350 1.327 . S
C2348 H2373 0.950 . S
C2349 C2348 1.349 . S
C2349 C2365 1.349 . S
C2350 C2348 1.327 . S
C2350 C2369 1.429 . S
C2350 H2374 0.950 . S
C2351 C2368 1.574 . S
C2351 C2370 1.368 . S
C2351 H2375 0.949 . S
H2352 C2356 0.949 . S
C2353 C2354 1.349 . S
C2353 C2355 1.327 . S
C2353 H2376 0.950 . S
C2354 C2353 1.349 . S
C2354 C2366 1.349 . S
C2355 C2353 1.327 . S
C2355 C2371 1.429 . S
C2355 H2377 0.950 . S
C2356 H2352 0.949 . S
C2356 C2364 1.574 . S
C2356 C2372 1.368 . S
H2357 C2365 0.950 . S
H2358 C2363 0.950 . S
H2359 C2364 0.949 . S
H2360 C2366 0.950 . S
H2361 C2367 0.950 . S
H2362 C2368 0.949 . S
C2363 H2358 0.950 . S
C2363 C2365 1.327 . S
C2363 C2369 1.429 . S
C2364 C2356 1.574 . S
C2364 H2359 0.949 . S
C2364 C2370 1.368 . S
C2365 C2349 1.349 . S
C2365 H2357 0.950 . S
C2365 C2363 1.327 . S
C2366 C2354 1.349 . S
C2366 H2360 0.950 . S
C2366 C2367 1.327 . S
C2367 H2361 0.950 . S
C2367 C2366 1.327 . S
C2367 C2371 1.429 . S
C2368 C2351 1.574 . S
C2368 H2362 0.949 . S
C2368 C2372 1.368 . S
C2369 C2350 1.429 . S
C2369 C2363 1.429 . S
C2369 C2370 1.523 . S
C2370 C2351 1.368 . S
C2370 C2364 1.368 . S
C2370 C2369 1.523 . S
C2371 C2355 1.429 . S
C2371 C2367 1.429 . S
C2371 C2372 1.523 . S
C2372 C2356 1.368 . S
C2372 C2368 1.368 . S
C2372 C2371 1.523 . S
H2373 C2348 0.950 . S
H2374 C2350 0.950 . S
H2375 C2351 0.949 . S
H2376 C2353 0.950 . S
H2377 C2355 0.950 . S
C2378 C2379 1.349 . S
C2378 C2380 1.327 . S
C2378 H2403 0.950 . S
C2379 C2378 1.349 . S
C2379 C2395 1.349 . S
C2380 C2378 1.327 . S
C2380 C2399 1.429 . S
C2380 H2404 0.950 . S
C2381 C2398 1.613 . S
C2381 C2400 1.368 . S
C2381 H2405 0.949 . S
H2382 C2386 0.949 . S
C2383 C2384 1.349 . S
C2383 C2385 1.327 . S
C2383 H2406 0.950 . S
C2384 C2383 1.349 . S
C2384 C2396 1.349 . S
C2385 C2383 1.327 . S
C2385 C2401 1.429 . S
C2385 H2407 0.950 . S
C2386 H2382 0.949 . S
C2386 C2394 1.574 1_655 S
C2386 C2402 1.368 . S
H2387 C2395 0.950 . S
H2388 C2393 0.950 . S
H2389 C2394 0.949 . S
H2390 C2396 0.950 . S
H2391 C2397 0.950 . S
H2392 C2398 0.949 . S
C2393 H2388 0.950 . S
C2393 C2395 1.327 . S
C2393 C2399 1.429 . S
C2394 C2386 1.574 1_455 S
C2394 H2389 0.949 . S
C2394 C2400 1.368 . S
C2395 C2379 1.349 . S
C2395 H2387 0.950 . S
C2395 C2393 1.327 . S
C2396 C2384 1.349 . S
C2396 H2390 0.950 . S
C2396 C2397 1.327 . S
C2397 H2391 0.950 . S
C2397 C2396 1.327 . S
C2397 C2401 1.429 . S
C2398 C2381 1.613 . S
C2398 H2392 0.949 . S
C2398 C2402 1.332 1_455 S
C2399 C2380 1.429 . S
C2399 C2393 1.429 . S
C2399 C2400 1.523 . S
C2400 C2381 1.368 . S
C2400 C2394 1.368 . S
C2400 C2399 1.523 . S
C2401 C2385 1.429 . S
C2401 C2397 1.429 . S
C2401 C2402 1.523 . S
C2402 C2386 1.368 . S
C2402 C2398 1.332 1_655 S
C2402 C2401 1.523 . S
H2403 C2378 0.950 . S
H2404 C2380 0.950 . S
H2405 C2381 0.949 . S
H2406 C2383 0.950 . S
H2407 C2385 0.950 . S
C2408 C2409 1.349 . S
C2408 C2410 1.327 . S
C2408 H2433 0.950 . S
C2409 C2408 1.349 . S
C2409 C2425 1.349 . S
C2410 C2408 1.327 . S
C2410 C2429 1.429 . S
C2410 H2434 0.950 . S
C2411 C2428 1.574 . S
C2411 C2430 1.368 . S
C2411 H2435 0.949 . S
H2412 C2416 0.949 . S
C2413 C2414 1.349 . S
C2413 C2415 1.327 . S
C2413 H2436 0.950 . S
C2414 C2413 1.349 . S
C2414 C2426 1.349 . S
C2415 C2413 1.327 . S
C2415 C2431 1.429 . S
C2415 H2437 0.950 . S
C2416 H2412 0.949 . S
C2416 C2424 1.574 . S
C2416 C2432 1.368 . S
H2417 C2425 0.950 . S
H2418 C2423 0.950 . S
H2419 C2424 0.949 . S
H2420 C2426 0.950 . S
H2421 C2427 0.950 . S
H2422 C2428 0.949 . S
C2423 H2418 0.950 . S
C2423 C2425 1.327 . S
C2423 C2429 1.429 . S
C2424 C2416 1.574 . S
C2424 H2419 0.949 . S
C2424 C2430 1.368 . S
C2425 C2409 1.349 . S
C2425 H2417 0.950 . S
C2425 C2423 1.327 . S
C2426 C2414 1.349 . S
C2426 H2420 0.950 . S
C2426 C2427 1.327 . S
C2427 H2421 0.950 . S
C2427 C2426 1.327 . S
C2427 C2431 1.429 . S
C2428 C2411 1.574 . S
C2428 H2422 0.949 . S
C2428 C2432 1.368 . S
C2429 C2410 1.429 . S
C2429 C2423 1.429 . S
C2429 C2430 1.523 . S
C2430 C2411 1.368 . S
C2430 C2424 1.368 . S
C2430 C2429 1.523 . S
C2431 C2415 1.429 . S
C2431 C2427 1.429 . S
C2431 C2432 1.523 . S
C2432 C2416 1.368 . S
C2432 C2428 1.368 . S
C2432 C2431 1.523 . S
H2433 C2408 0.950 . S
H2434 C2410 0.950 . S
H2435 C2411 0.949 . S
H2436 C2413 0.950 . S
H2437 C2415 0.950 . S
C2438 C2439 1.349 . S
C2438 C2440 1.327 . S
C2438 H2463 0.950 . S
C2439 C2438 1.349 . S
C2439 C2455 1.349 . S
C2440 C2438 1.327 . S
C2440 C2459 1.429 . S
C2440 H2464 0.950 . S
C2441 C2458 1.574 1_655 S
C2441 C2460 1.368 . S
C2441 H2465 0.949 . S
H2442 C2446 0.949 . S
C2443 C2444 1.349 . S
C2443 C2445 1.327 . S
C2443 H2466 0.950 . S
C2444 C2443 1.349 . S
C2444 C2456 1.349 . S
C2445 C2443 1.327 . S
C2445 C2461 1.429 . S
C2445 H2467 0.950 . S
C2446 H2442 0.949 . S
C2446 C2454 1.574 1_455 S
C2446 C2462 1.368 . S
H2447 C2455 0.950 . S
H2448 C2453 0.950 . S
H2449 C2454 0.949 . S
H2450 C2456 0.950 . S
H2451 C2457 0.950 . S
H2452 C2458 0.949 . S
C2453 H2448 0.950 . S
C2453 C2455 1.327 . S
C2453 C2459 1.429 . S
C2454 C2446 1.574 1_655 S
C2454 H2449 0.949 . S
C2454 C2460 1.368 . S
C2455 C2439 1.349 . S
C2455 H2447 0.950 . S
C2455 C2453 1.327 . S
C2456 C2444 1.349 . S
C2456 H2450 0.950 . S
C2456 C2457 1.327 . S
C2457 H2451 0.950 . S
C2457 C2456 1.327 . S
C2457 C2461 1.429 . S
C2458 C2441 1.574 1_455 S
C2458 H2452 0.949 . S
C2458 C2462 1.368 . S
C2459 C2440 1.429 . S
C2459 C2453 1.429 . S
C2459 C2460 1.523 . S
C2460 C2441 1.368 . S
C2460 C2454 1.368 . S
C2460 C2459 1.523 . S
C2461 C2445 1.429 . S
C2461 C2457 1.429 . S
C2461 C2462 1.523 . S
C2462 C2446 1.368 . S
C2462 C2458 1.368 . S
C2462 C2461 1.523 . S
H2463 C2438 0.950 . S
H2464 C2440 0.950 . S
H2465 C2441 0.949 . S
H2466 C2443 0.950 . S
H2467 C2445 0.950 . S
C2468 C2469 1.349 . S
C2468 C2470 1.327 . S
C2468 H2493 0.950 . S
C2469 C2468 1.349 . S
C2469 C2485 1.349 . S
C2470 C2468 1.327 . S
C2470 C2489 1.429 . S
C2470 H2494 0.950 . S
C2471 C2488 1.574 . S
C2471 C2490 1.368 . S
C2471 H2495 0.949 . S
H2472 C2476 0.949 . S
C2473 C2474 1.349 . S
C2473 C2475 1.327 . S
C2473 H2496 0.950 . S
C2474 C2473 1.349 . S
C2474 C2486 1.349 . S
C2475 C2473 1.327 . S
C2475 C2491 1.429 . S
C2475 H2497 0.950 . S
C2476 H2472 0.949 . S
C2476 C2484 1.574 . S
C2476 C2492 1.368 . S
H2477 C2485 0.950 . S
H2478 C2483 0.950 . S
H2479 C2484 0.949 . S
H2480 C2486 0.950 . S
H2481 C2487 0.950 . S
H2482 C2488 0.949 . S
C2483 H2478 0.950 . S
C2483 C2485 1.327 . S
C2483 C2489 1.429 . S
C2484 C2476 1.574 . S
C2484 H2479 0.949 . S
C2484 C2490 1.368 . S
C2485 C2469 1.349 . S
C2485 H2477 0.950 . S
C2485 C2483 1.327 . S
C2486 C2474 1.349 . S
C2486 H2480 0.950 . S
C2486 C2487 1.327 . S
C2487 H2481 0.950 . S
C2487 C2486 1.327 . S
C2487 C2491 1.429 . S
C2488 C2471 1.574 . S
C2488 H2482 0.949 . S
C2488 C2492 1.368 . S
C2489 C2470 1.429 . S
C2489 C2483 1.429 . S
C2489 C2490 1.523 . S
C2490 C2471 1.368 . S
C2490 C2484 1.368 . S
C2490 C2489 1.523 . S
C2491 C2475 1.429 . S
C2491 C2487 1.429 . S
C2491 C2492 1.523 . S
C2492 C2476 1.368 . S
C2492 C2488 1.368 . S
C2492 C2491 1.523 . S
H2493 C2468 0.950 . S
H2494 C2470 0.950 . S
H2495 C2471 0.949 . S
H2496 C2473 0.950 . S
H2497 C2475 0.950 . S
C2498 C2499 1.349 . S
C2498 C2500 1.327 . S
C2498 H2523 0.950 . S
C2499 C2498 1.349 . S
C2499 C2515 1.349 . S
C2500 C2498 1.327 . S
C2500 C2519 1.429 . S
C2500 H2524 0.950 . S
C2501 C2518 1.574 . S
C2501 C2520 1.368 . S
C2501 H2525 0.949 . S
H2502 C2506 0.949 . S
C2503 C2504 1.349 . S
C2503 C2505 1.327 . S
C2503 H2526 0.950 . S
C2504 C2503 1.349 . S
C2504 C2516 1.349 . S
C2505 C2503 1.327 . S
C2505 C2521 1.429 . S
C2505 H2527 0.950 . S
C2506 H2502 0.949 . S
C2506 C2514 1.574 . S
C2506 C2522 1.368 . S
H2507 C2515 0.950 . S
H2508 C2513 0.950 . S
H2509 C2514 0.949 . S
H2510 C2516 0.950 . S
H2511 C2517 0.950 . S
H2512 C2518 0.949 . S
C2513 H2508 0.950 . S
C2513 C2515 1.327 . S
C2513 C2519 1.429 . S
C2514 C2506 1.574 . S
C2514 H2509 0.949 . S
C2514 C2520 1.368 . S
C2515 C2499 1.349 . S
C2515 H2507 0.950 . S
C2515 C2513 1.327 . S
C2516 C2504 1.349 . S
C2516 H2510 0.950 . S
C2516 C2517 1.327 . S
C2517 H2511 0.950 . S
C2517 C2516 1.327 . S
C2517 C2521 1.429 . S
C2518 C2501 1.574 . S
C2518 H2512 0.949 . S
C2518 C2522 1.368 . S
C2519 C2500 1.429 . S
C2519 C2513 1.429 . S
C2519 C2520 1.523 . S
C2520 C2501 1.368 . S
C2520 C2514 1.368 . S
C2520 C2519 1.523 . S
C2521 C2505 1.429 . S
C2521 C2517 1.429 . S
C2521 C2522 1.523 . S
C2522 C2506 1.368 . S
C2522 C2518 1.368 . S
C2522 C2521 1.523 . S
H2523 C2498 0.950 . S
H2524 C2500 0.950 . S
H2525 C2501 0.949 . S
H2526 C2503 0.950 . S
H2527 C2505 0.950 . S
C2528 C2529 1.349 . S
C2528 C2530 1.327 . S
C2528 H2553 0.950 . S
C2529 C2528 1.349 . S
C2529 C2545 1.349 . S
C2530 C2528 1.327 . S
C2530 C2549 1.429 . S
C2530 H2554 0.950 . S
C2531 C2548 1.574 . S
C2531 C2550 1.368 . S
C2531 H2555 0.949 . S
H2532 C2536 0.949 . S
C2533 C2534 1.349 . S
C2533 C2535 1.327 . S
C2533 H2556 0.950 . S
C2534 C2533 1.349 . S
C2534 C2546 1.349 . S
C2535 C2533 1.327 . S
C2535 C2551 1.429 . S
C2535 H2557 0.950 . S
C2536 H2532 0.949 . S
C2536 C2544 1.574 . S
C2536 C2552 1.368 . S
H2537 C2545 0.950 . S
H2538 C2543 0.950 . S
H2539 C2544 0.949 . S
H2540 C2546 0.950 . S
H2541 C2547 0.950 . S
H2542 C2548 0.949 . S
C2543 H2538 0.950 . S
C2543 C2545 1.327 . S
C2543 C2549 1.429 . S
C2544 C2536 1.574 . S
C2544 H2539 0.949 . S
C2544 C2550 1.368 . S
C2545 C2529 1.349 . S
C2545 H2537 0.950 . S
C2545 C2543 1.327 . S
C2546 C2534 1.349 . S
C2546 H2540 0.950 . S
C2546 C2547 1.327 . S
C2547 H2541 0.950 . S
C2547 C2546 1.327 . S
C2547 C2551 1.429 . S
C2548 C2531 1.574 . S
C2548 H2542 0.949 . S
C2548 C2552 1.368 . S
C2549 C2530 1.429 . S
C2549 C2543 1.429 . S
C2549 C2550 1.523 . S
C2550 C2531 1.368 . S
C2550 C2544 1.368 . S
C2550 C2549 1.523 . S
C2551 C2535 1.429 . S
C2551 C2547 1.429 . S
C2551 C2552 1.523 . S
C2552 C2536 1.368 . S
C2552 C2548 1.368 . S
C2552 C2551 1.523 . S
H2553 C2528 0.950 . S
H2554 C2530 0.950 . S
H2555 C2531 0.949 . S
H2556 C2533 0.950 . S
H2557 C2535 0.950 . S
C2558 C2559 1.349 . S
C2558 C2560 1.327 . S
C2558 H2583 0.950 . S
C2559 C2558 1.349 . S
C2559 C2575 1.349 . S
C2560 C2558 1.327 . S
C2560 C2579 1.429 . S
C2560 H2584 0.950 . S
C2561 C2578 1.576 1_655 S
C2561 C2580 1.368 . S
C2561 H2585 0.949 . S
H2562 C2566 0.949 . S
C2563 C2564 1.349 . S
C2563 C2565 1.327 . S
C2563 H2586 0.950 . S
C2564 C2563 1.349 . S
C2564 C2576 1.349 . S
C2565 C2563 1.327 . S
C2565 C2581 1.429 . S
C2565 H2587 0.950 . S
C2566 H2562 0.949 . S
C2566 C2574 1.576 1_455 S
C2566 C2582 1.368 . S
H2567 C2575 0.950 . S
H2568 C2573 0.950 . S
H2569 C2574 0.949 . S
H2570 C2576 0.950 . S
H2571 C2577 0.950 . S
H2572 C2578 0.949 . S
C2573 H2568 0.950 . S
C2573 C2575 1.327 . S
C2573 C2579 1.429 . S
C2574 C2566 1.576 1_655 S
C2574 H2569 0.949 . S
C2574 C2580 1.366 . S
C2575 C2559 1.349 . S
C2575 H2567 0.950 . S
C2575 C2573 1.327 . S
C2576 C2564 1.349 . S
C2576 H2570 0.950 . S
C2576 C2577 1.327 . S
C2577 H2571 0.950 . S
C2577 C2576 1.327 . S
C2577 C2581 1.429 . S
C2578 C2561 1.576 1_455 S
C2578 H2572 0.949 . S
C2578 C2582 1.366 . S
C2579 C2560 1.429 . S
C2579 C2573 1.429 . S
C2579 C2580 1.523 . S
C2580 C2561 1.368 . S
C2580 C2574 1.366 . S
C2580 C2579 1.523 . S
C2581 C2565 1.429 . S
C2581 C2577 1.429 . S
C2581 C2582 1.523 . S
C2582 C2566 1.368 . S
C2582 C2578 1.366 . S
C2582 C2581 1.523 . S
H2583 C2558 0.950 . S
H2584 C2560 0.950 . S
H2585 C2561 0.949 . S
H2586 C2563 0.950 . S
H2587 C2565 0.950 . S
C2588 C2589 1.349 . S
C2588 C2590 1.327 . S
C2588 H2613 0.950 . S
C2589 C2588 1.349 . S
C2589 C2605 1.349 . S
C2590 C2588 1.327 . S
C2590 C2609 1.429 . S
C2590 H2614 0.950 . S
C2591 C2608 1.574 1_655 S
C2591 C2610 1.368 . S
C2591 H2615 0.949 . S
H2592 C2596 0.949 . S
C2593 C2594 1.349 . S
C2593 C2595 1.327 . S
C2593 H2616 0.950 . S
C2594 C2593 1.349 . S
C2594 C2606 1.349 . S
C2595 C2593 1.327 . S
C2595 C2611 1.429 . S
C2595 H2617 0.950 . S
C2596 H2592 0.949 . S
C2596 C2604 1.574 1_455 S
C2596 C2612 1.368 . S
H2597 C2605 0.950 . S
H2598 C2603 0.950 . S
H2599 C2604 0.949 . S
H2600 C2606 0.950 . S
H2601 C2607 0.950 . S
H2602 C2608 0.949 . S
C2603 H2598 0.950 . S
C2603 C2605 1.327 . S
C2603 C2609 1.429 . S
C2604 C2596 1.574 1_655 S
C2604 H2599 0.949 . S
C2604 C2610 1.368 . S
C2605 C2589 1.349 . S
C2605 H2597 0.950 . S
C2605 C2603 1.327 . S
C2606 C2594 1.349 . S
C2606 H2600 0.950 . S
C2606 C2607 1.327 . S
C2607 H2601 0.950 . S
C2607 C2606 1.327 . S
C2607 C2611 1.429 . S
C2608 C2591 1.574 1_455 S
C2608 H2602 0.949 . S
C2608 C2612 1.368 . S
C2609 C2590 1.429 . S
C2609 C2603 1.429 . S
C2609 C2610 1.523 . S
C2610 C2591 1.368 . S
C2610 C2604 1.368 . S
C2610 C2609 1.523 . S
C2611 C2595 1.429 . S
C2611 C2607 1.429 . S
C2611 C2612 1.523 . S
C2612 C2596 1.368 . S
C2612 C2608 1.368 . S
C2612 C2611 1.523 . S
H2613 C2588 0.950 . S
H2614 C2590 0.950 . S
H2615 C2591 0.949 . S
H2616 C2593 0.950 . S
H2617 C2595 0.950 . S
C2618 C2619 1.349 . S
C2618 C2620 1.327 . S
C2618 H2643 0.950 . S
C2619 C2618 1.349 . S
C2619 C2635 1.349 . S
C2620 C2618 1.327 . S
C2620 C2639 1.429 . S
C2620 H2644 0.950 . S
C2621 C2638 1.574 . S
C2621 C2640 1.368 . S
C2621 H2645 0.949 . S
H2622 C2626 0.949 . S
C2623 C2624 1.349 . S
C2623 C2625 1.327 . S
C2623 H2646 0.950 . S
C2624 C2623 1.349 . S
C2624 C2636 1.349 . S
C2625 C2623 1.327 . S
C2625 C2641 1.429 . S
C2625 H2647 0.950 . S
C2626 H2622 0.949 . S
C2626 C2634 1.574 . S
C2626 C2642 1.368 . S
H2627 C2635 0.950 . S
H2628 C2633 0.950 . S
H2629 C2634 0.949 . S
H2630 C2636 0.950 . S
H2631 C2637 0.950 . S
H2632 C2638 0.949 . S
C2633 H2628 0.950 . S
C2633 C2635 1.327 . S
C2633 C2639 1.429 . S
C2634 C2626 1.574 . S
C2634 H2629 0.949 . S
C2634 C2640 1.368 . S
C2635 C2619 1.349 . S
C2635 H2627 0.950 . S
C2635 C2633 1.327 . S
C2636 C2624 1.349 . S
C2636 H2630 0.950 . S
C2636 C2637 1.327 . S
C2637 H2631 0.950 . S
C2637 C2636 1.327 . S
C2637 C2641 1.429 . S
C2638 C2621 1.574 . S
C2638 H2632 0.949 . S
C2638 C2642 1.368 . S
C2639 C2620 1.429 . S
C2639 C2633 1.429 . S
C2639 C2640 1.523 . S
C2640 C2621 1.368 . S
C2640 C2634 1.368 . S
C2640 C2639 1.523 . S
C2641 C2625 1.429 . S
C2641 C2637 1.429 . S
C2641 C2642 1.523 . S
C2642 C2626 1.368 . S
C2642 C2638 1.368 . S
C2642 C2641 1.523 . S
H2643 C2618 0.950 . S
H2644 C2620 0.950 . S
H2645 C2621 0.949 . S
H2646 C2623 0.950 . S
H2647 C2625 0.950 . S
C2648 C2649 1.349 . S
C2648 C2650 1.327 . S
C2648 H2673 0.950 . S
C2649 C2648 1.349 . S
C2649 C2665 1.349 . S
C2650 C2648 1.327 . S
C2650 C2669 1.429 . S
C2650 H2674 0.950 . S
C2651 C2668 1.574 . S
C2651 C2670 1.368 . S
C2651 H2675 0.949 . S
H2652 C2656 0.949 . S
C2653 C2654 1.349 . S
C2653 C2655 1.327 . S
C2653 H2676 0.950 . S
C2654 C2653 1.349 . S
C2654 C2666 1.349 . S
C2655 C2653 1.327 . S
C2655 C2671 1.429 . S
C2655 H2677 0.950 . S
C2656 H2652 0.949 . S
C2656 C2664 1.574 . S
C2656 C2672 1.368 . S
H2657 C2665 0.950 . S
H2658 C2663 0.950 . S
H2659 C2664 0.949 . S
H2660 C2666 0.950 . S
H2661 C2667 0.950 . S
H2662 C2668 0.949 . S
C2663 H2658 0.950 . S
C2663 C2665 1.327 . S
C2663 C2669 1.429 . S
C2664 C2656 1.574 . S
C2664 H2659 0.949 . S
C2664 C2670 1.368 . S
C2665 C2649 1.349 . S
C2665 H2657 0.950 . S
C2665 C2663 1.327 . S
C2666 C2654 1.349 . S
C2666 H2660 0.950 . S
C2666 C2667 1.327 . S
C2667 H2661 0.950 . S
C2667 C2666 1.327 . S
C2667 C2671 1.429 . S
C2668 C2651 1.574 . S
C2668 H2662 0.949 . S
C2668 C2672 1.368 . S
C2669 C2650 1.429 . S
C2669 C2663 1.429 . S
C2669 C2670 1.523 . S
C2670 C2651 1.368 . S
C2670 C2664 1.368 . S
C2670 C2669 1.523 . S
C2671 C2655 1.429 . S
C2671 C2667 1.429 . S
C2671 C2672 1.523 . S
C2672 C2656 1.368 . S
C2672 C2668 1.368 . S
C2672 C2671 1.523 . S
H2673 C2648 0.950 . S
H2674 C2650 0.950 . S
H2675 C2651 0.949 . S
H2676 C2653 0.950 . S
H2677 C2655 0.950 . S
C2678 C2679 1.349 . S
C2678 C2680 1.327 . S
C2678 H2703 0.950 . S
C2679 C2678 1.349 . S
C2679 C2695 1.349 . S
C2680 C2678 1.327 . S
C2680 C2699 1.429 . S
C2680 H2704 0.950 . S
C2681 C2698 1.574 . S
C2681 C2700 1.368 . S
C2681 H2705 0.949 . S
H2682 C2686 0.949 . S
C2683 C2684 1.349 . S
C2683 C2685 1.327 . S
C2683 H2706 0.950 . S
C2684 C2683 1.349 . S
C2684 C2696 1.349 . S
C2685 C2683 1.327 . S
C2685 C2701 1.429 . S
C2685 H2707 0.950 . S
C2686 H2682 0.949 . S
C2686 C2694 1.574 . S
C2686 C2702 1.368 . S
H2687 C2695 0.950 . S
H2688 C2693 0.950 . S
H2689 C2694 0.949 . S
H2690 C2696 0.950 . S
H2691 C2697 0.950 . S
H2692 C2698 0.949 . S
C2693 H2688 0.950 . S
C2693 C2695 1.327 . S
C2693 C2699 1.429 . S
C2694 C2686 1.574 . S
C2694 H2689 0.949 . S
C2694 C2700 1.368 . S
C2695 C2679 1.349 . S
C2695 H2687 0.950 . S
C2695 C2693 1.327 . S
C2696 C2684 1.349 . S
C2696 H2690 0.950 . S
C2696 C2697 1.327 . S
C2697 H2691 0.950 . S
C2697 C2696 1.327 . S
C2697 C2701 1.429 . S
C2698 C2681 1.574 . S
C2698 H2692 0.949 . S
C2698 C2702 1.368 . S
C2699 C2680 1.429 . S
C2699 C2693 1.429 . S
C2699 C2700 1.523 . S
C2700 C2681 1.368 . S
C2700 C2694 1.368 . S
C2700 C2699 1.523 . S
C2701 C2685 1.429 . S
C2701 C2697 1.429 . S
C2701 C2702 1.523 . S
C2702 C2686 1.368 . S
C2702 C2698 1.368 . S
C2702 C2701 1.523 . S
H2703 C2678 0.950 . S
H2704 C2680 0.950 . S
H2705 C2681 0.949 . S
H2706 C2683 0.950 . S
H2707 C2685 0.950 . S
C2708 C2709 1.349 . S
C2708 C2710 1.327 . S
C2708 H2733 0.950 . S
C2709 C2708 1.349 . S
C2709 C2725 1.349 . S
C2710 C2708 1.327 . S
C2710 C2729 1.429 . S
C2710 H2734 0.950 . S
C2711 C2728 1.574 1_455 S
C2711 C2730 1.368 . S
C2711 H2735 0.949 . S
H2712 C2716 0.949 . S
C2713 C2714 1.349 . S
C2713 C2715 1.327 . S
C2713 H2736 0.950 . S
C2714 C2713 1.349 . S
C2714 C2726 1.349 . S
C2715 C2713 1.327 . S
C2715 C2731 1.429 . S
C2715 H2737 0.950 . S
C2716 H2712 0.949 . S
C2716 C2724 1.574 1_655 S
C2716 C2732 1.368 . S
H2717 C2725 0.950 . S
H2718 C2723 0.950 . S
H2719 C2724 0.949 . S
H2720 C2726 0.950 . S
H2721 C2727 0.950 . S
H2722 C2728 0.949 . S
C2723 H2718 0.950 . S
C2723 C2725 1.327 . S
C2723 C2729 1.429 . S
C2724 C2716 1.574 1_455 S
C2724 H2719 0.949 . S
C2724 C2730 1.368 . S
C2725 C2709 1.349 . S
C2725 H2717 0.950 . S
C2725 C2723 1.327 . S
C2726 C2714 1.349 . S
C2726 H2720 0.950 . S
C2726 C2727 1.327 . S
C2727 H2721 0.950 . S
C2727 C2726 1.327 . S
C2727 C2731 1.429 . S
C2728 C2711 1.574 1_655 S
C2728 H2722 0.949 . S
C2728 C2732 1.368 . S
C2729 C2710 1.429 . S
C2729 C2723 1.429 . S
C2729 C2730 1.523 . S
C2730 C2711 1.368 . S
C2730 C2724 1.368 . S
C2730 C2729 1.523 . S
C2731 C2715 1.429 . S
C2731 C2727 1.429 . S
C2731 C2732 1.523 . S
C2732 C2716 1.368 . S
C2732 C2728 1.368 . S
C2732 C2731 1.523 . S
H2733 C2708 0.950 . S
H2734 C2710 0.950 . S
H2735 C2711 0.949 . S
H2736 C2713 0.950 . S
H2737 C2715 0.950 . S
C2738 C2739 1.349 . S
C2738 C2740 1.327 . S
C2738 H2763 0.950 . S
C2739 C2738 1.349 . S
C2739 C2755 1.349 . S
C2740 C2738 1.327 . S
C2740 C2759 1.429 . S
C2740 H2764 0.950 . S
C2741 C2758 1.576 1_655 S
C2741 C2760 1.368 . S
C2741 H2765 0.949 . S
H2742 C2746 0.949 . S
C2743 C2744 1.349 . S
C2743 C2745 1.327 . S
C2743 H2766 0.950 . S
C2744 C2743 1.349 . S
C2744 C2756 1.349 . S
C2745 C2743 1.327 . S
C2745 C2761 1.429 . S
C2745 H2767 0.950 . S
C2746 H2742 0.949 . S
C2746 C2754 1.576 1_455 S
C2746 C2762 1.368 . S
H2747 C2755 0.950 . S
H2748 C2753 0.950 . S
H2749 C2754 0.949 . S
H2750 C2756 0.950 . S
H2751 C2757 0.950 . S
H2752 C2758 0.949 . S
C2753 H2748 0.950 . S
C2753 C2755 1.327 . S
C2753 C2759 1.429 . S
C2754 C2746 1.576 1_655 S
C2754 H2749 0.949 . S
C2754 C2760 1.366 . S
C2755 C2739 1.349 . S
C2755 H2747 0.950 . S
C2755 C2753 1.327 . S
C2756 C2744 1.349 . S
C2756 H2750 0.950 . S
C2756 C2757 1.327 . S
C2757 H2751 0.950 . S
C2757 C2756 1.327 . S
C2757 C2761 1.429 . S
C2758 C2741 1.576 1_455 S
C2758 H2752 0.949 . S
C2758 C2762 1.366 . S
C2759 C2740 1.429 . S
C2759 C2753 1.429 . S
C2759 C2760 1.523 . S
C2760 C2741 1.368 . S
C2760 C2754 1.366 . S
C2760 C2759 1.523 . S
C2761 C2745 1.429 . S
C2761 C2757 1.429 . S
C2761 C2762 1.523 . S
C2762 C2746 1.368 . S
C2762 C2758 1.366 . S
C2762 C2761 1.523 . S
H2763 C2738 0.950 . S
H2764 C2740 0.950 . S
H2765 C2741 0.949 . S
H2766 C2743 0.950 . S
H2767 C2745 0.950 . S
C2768 C2769 1.349 . S
C2768 C2770 1.327 . S
C2768 H2793 0.950 . S
C2769 C2768 1.349 . S
C2769 C2785 1.349 . S
C2770 C2768 1.327 . S
C2770 C2789 1.429 . S
C2770 H2794 0.950 . S
C2771 C2788 1.574 . S
C2771 C2790 1.368 . S
C2771 H2795 0.949 . S
H2772 C2776 0.949 . S
C2773 C2774 1.349 . S
C2773 C2775 1.327 . S
C2773 H2796 0.950 . S
C2774 C2773 1.349 . S
C2774 C2786 1.349 . S
C2775 C2773 1.327 . S
C2775 C2791 1.429 . S
C2775 H2797 0.950 . S
C2776 H2772 0.949 . S
C2776 C2784 1.574 . S
C2776 C2792 1.368 . S
H2777 C2785 0.950 . S
H2778 C2783 0.950 . S
H2779 C2784 0.949 . S
H2780 C2786 0.950 . S
H2781 C2787 0.950 . S
H2782 C2788 0.949 . S
C2783 H2778 0.950 . S
C2783 C2785 1.327 . S
C2783 C2789 1.429 . S
C2784 C2776 1.574 . S
C2784 H2779 0.949 . S
C2784 C2790 1.368 . S
C2785 C2769 1.349 . S
C2785 H2777 0.950 . S
C2785 C2783 1.327 . S
C2786 C2774 1.349 . S
C2786 H2780 0.950 . S
C2786 C2787 1.327 . S
C2787 H2781 0.950 . S
C2787 C2786 1.327 . S
C2787 C2791 1.429 . S
C2788 C2771 1.574 . S
C2788 H2782 0.949 . S
C2788 C2792 1.368 . S
C2789 C2770 1.429 . S
C2789 C2783 1.429 . S
C2789 C2790 1.523 . S
C2790 C2771 1.368 . S
C2790 C2784 1.368 . S
C2790 C2789 1.523 . S
C2791 C2775 1.429 . S
C2791 C2787 1.429 . S
C2791 C2792 1.523 . S
C2792 C2776 1.368 . S
C2792 C2788 1.368 . S
C2792 C2791 1.523 . S
H2793 C2768 0.950 . S
H2794 C2770 0.950 . S
H2795 C2771 0.949 . S
H2796 C2773 0.950 . S
H2797 C2775 0.950 . S
C2798 C2799 1.349 . S
C2798 C2800 1.327 . S
C2798 H2823 0.950 . S
C2799 C2798 1.349 . S
C2799 C2815 1.349 . S
C2800 C2798 1.327 . S
C2800 C2819 1.429 . S
C2800 H2824 0.950 . S
C2801 C2818 1.576 1_655 S
C2801 C2820 1.366 . S
C2801 H2825 0.949 . S
H2802 C2806 0.949 . S
C2803 C2804 1.349 . S
C2803 C2805 1.327 . S
C2803 H2826 0.950 . S
C2804 C2803 1.349 . S
C2804 C2816 1.349 . S
C2805 C2803 1.327 . S
C2805 C2821 1.429 . S
C2805 H2827 0.950 . S
C2806 H2802 0.949 . S
C2806 C2814 1.576 1_455 S
C2806 C2822 1.366 . S
H2807 C2815 0.950 . S
H2808 C2813 0.950 . S
H2809 C2814 0.949 . S
H2810 C2816 0.950 . S
H2811 C2817 0.950 . S
H2812 C2818 0.949 . S
C2813 H2808 0.950 . S
C2813 C2815 1.327 . S
C2813 C2819 1.429 . S
C2814 C2806 1.576 1_655 S
C2814 H2809 0.949 . S
C2814 C2820 1.368 . S
C2815 C2799 1.349 . S
C2815 H2807 0.950 . S
C2815 C2813 1.327 . S
C2816 C2804 1.349 . S
C2816 H2810 0.950 . S
C2816 C2817 1.327 . S
C2817 H2811 0.950 . S
C2817 C2816 1.327 . S
C2817 C2821 1.429 . S
C2818 C2801 1.576 1_455 S
C2818 H2812 0.949 . S
C2818 C2822 1.368 . S
C2819 C2800 1.429 . S
C2819 C2813 1.429 . S
C2819 C2820 1.523 . S
C2820 C2801 1.366 . S
C2820 C2814 1.368 . S
C2820 C2819 1.523 . S
C2821 C2805 1.429 . S
C2821 C2817 1.429 . S
C2821 C2822 1.523 . S
C2822 C2806 1.366 . S
C2822 C2818 1.368 . S
C2822 C2821 1.523 . S
H2823 C2798 0.950 . S
H2824 C2800 0.950 . S
H2825 C2801 0.949 . S
H2826 C2803 0.950 . S
H2827 C2805 0.950 . S
C2828 C2829 1.349 . S
C2828 C2830 1.327 . S
C2828 H2853 0.950 . S
C2829 C2828 1.349 . S
C2829 C2845 1.349 . S
C2830 C2828 1.327 . S
C2830 C2849 1.429 . S
C2830 H2854 0.950 . S
C2831 C2848 1.574 1_655 S
C2831 C2850 1.368 . S
C2831 H2855 0.949 . S
H2832 C2836 0.949 . S
C2833 C2834 1.349 . S
C2833 C2835 1.327 . S
C2833 H2856 0.950 . S
C2834 C2833 1.349 . S
C2834 C2846 1.349 . S
C2835 C2833 1.327 . S
C2835 C2851 1.429 . S
C2835 H2857 0.950 . S
C2836 H2832 0.949 . S
C2836 C2844 1.574 1_455 S
C2836 C2852 1.368 . S
H2837 C2845 0.950 . S
H2838 C2843 0.950 . S
H2839 C2844 0.949 . S
H2840 C2846 0.950 . S
H2841 C2847 0.950 . S
H2842 C2848 0.949 . S
C2843 H2838 0.950 . S
C2843 C2845 1.327 . S
C2843 C2849 1.429 . S
C2844 C2836 1.574 1_655 S
C2844 H2839 0.949 . S
C2844 C2850 1.368 . S
C2845 C2829 1.349 . S
C2845 H2837 0.950 . S
C2845 C2843 1.327 . S
C2846 C2834 1.349 . S
C2846 H2840 0.950 . S
C2846 C2847 1.327 . S
C2847 H2841 0.950 . S
C2847 C2846 1.327 . S
C2847 C2851 1.429 . S
C2848 C2831 1.574 1_455 S
C2848 H2842 0.949 . S
C2848 C2852 1.368 . S
C2849 C2830 1.429 . S
C2849 C2843 1.429 . S
C2849 C2850 1.523 . S
C2850 C2831 1.368 . S
C2850 C2844 1.368 . S
C2850 C2849 1.523 . S
C2851 C2835 1.429 . S
C2851 C2847 1.429 . S
C2851 C2852 1.523 . S
C2852 C2836 1.368 . S
C2852 C2848 1.368 . S
C2852 C2851 1.523 . S
H2853 C2828 0.950 . S
H2854 C2830 0.950 . S
H2855 C2831 0.949 . S
H2856 C2833 0.950 . S
H2857 C2835 0.950 . S
C2858 C2859 1.349 . S
C2858 C2860 1.327 . S
C2858 H2883 0.950 . S
C2859 C2858 1.349 . S
C2859 C2875 1.349 . S
C2860 C2858 1.327 . S
C2860 C2879 1.429 . S
C2860 H2884 0.950 . S
C2861 C2878 1.574 . S
C2861 C2880 1.368 . S
C2861 H2885 0.949 . S
H2862 C2866 0.949 . S
C2863 C2864 1.349 . S
C2863 C2865 1.327 . S
C2863 H2886 0.950 . S
C2864 C2863 1.349 . S
C2864 C2876 1.349 . S
C2865 C2863 1.327 . S
C2865 C2881 1.429 . S
C2865 H2887 0.950 . S
C2866 H2862 0.949 . S
C2866 C2874 1.574 . S
C2866 C2882 1.368 . S
H2867 C2875 0.950 . S
H2868 C2873 0.950 . S
H2869 C2874 0.949 . S
H2870 C2876 0.950 . S
H2871 C2877 0.950 . S
H2872 C2878 0.949 . S
C2873 H2868 0.950 . S
C2873 C2875 1.327 . S
C2873 C2879 1.429 . S
C2874 C2866 1.574 . S
C2874 H2869 0.949 . S
C2874 C2880 1.368 . S
C2875 C2859 1.349 . S
C2875 H2867 0.950 . S
C2875 C2873 1.327 . S
C2876 C2864 1.349 . S
C2876 H2870 0.950 . S
C2876 C2877 1.327 . S
C2877 H2871 0.950 . S
C2877 C2876 1.327 . S
C2877 C2881 1.429 . S
C2878 C2861 1.574 . S
C2878 H2872 0.949 . S
C2878 C2882 1.368 . S
C2879 C2860 1.429 . S
C2879 C2873 1.429 . S
C2879 C2880 1.523 . S
C2880 C2861 1.368 . S
C2880 C2874 1.368 . S
C2880 C2879 1.523 . S
C2881 C2865 1.429 . S
C2881 C2877 1.429 . S
C2881 C2882 1.523 . S
C2882 C2866 1.368 . S
C2882 C2878 1.368 . S
C2882 C2881 1.523 . S
H2883 C2858 0.950 . S
H2884 C2860 0.950 . S
H2885 C2861 0.949 . S
H2886 C2863 0.950 . S
H2887 C2865 0.950 . S
C2888 C2889 1.349 . S
C2888 C2890 1.327 . S
C2888 H2913 0.950 . S
C2889 C2888 1.349 . S
C2889 C2905 1.349 . S
C2890 C2888 1.327 . S
C2890 C2909 1.429 . S
C2890 H2914 0.950 . S
C2891 C2908 1.574 . S
C2891 C2910 1.368 . S
C2891 H2915 0.949 . S
H2892 C2896 0.949 . S
C2893 C2894 1.349 . S
C2893 C2895 1.327 . S
C2893 H2916 0.950 . S
C2894 C2893 1.349 . S
C2894 C2906 1.349 . S
C2895 C2893 1.327 . S
C2895 C2911 1.429 . S
C2895 H2917 0.950 . S
C2896 H2892 0.949 . S
C2896 C2904 1.574 . S
C2896 C2912 1.368 . S
H2897 C2905 0.950 . S
H2898 C2903 0.950 . S
H2899 C2904 0.949 . S
H2900 C2906 0.950 . S
H2901 C2907 0.950 . S
H2902 C2908 0.949 . S
C2903 H2898 0.950 . S
C2903 C2905 1.327 . S
C2903 C2909 1.429 . S
C2904 C2896 1.574 . S
C2904 H2899 0.949 . S
C2904 C2910 1.368 . S
C2905 C2889 1.349 . S
C2905 H2897 0.950 . S
C2905 C2903 1.327 . S
C2906 C2894 1.349 . S
C2906 H2900 0.950 . S
C2906 C2907 1.327 . S
C2907 H2901 0.950 . S
C2907 C2906 1.327 . S
C2907 C2911 1.429 . S
C2908 C2891 1.574 . S
C2908 H2902 0.949 . S
C2908 C2912 1.368 . S
C2909 C2890 1.429 . S
C2909 C2903 1.429 . S
C2909 C2910 1.523 . S
C2910 C2891 1.368 . S
C2910 C2904 1.368 . S
C2910 C2909 1.523 . S
C2911 C2895 1.429 . S
C2911 C2907 1.429 . S
C2911 C2912 1.523 . S
C2912 C2896 1.368 . S
C2912 C2908 1.368 . S
C2912 C2911 1.523 . S
H2913 C2888 0.950 . S
H2914 C2890 0.950 . S
H2915 C2891 0.949 . S
H2916 C2893 0.950 . S
H2917 C2895 0.950 . S
C2918 C2919 1.349 . S
C2918 C2920 1.327 . S
C2918 H2943 0.950 . S
C2919 C2918 1.349 . S
C2919 C2935 1.349 . S
C2920 C2918 1.327 . S
C2920 C2939 1.429 . S
C2920 H2944 0.950 . S
C2921 C2938 1.574 . S
C2921 C2940 1.368 . S
C2921 H2945 0.949 . S
H2922 C2926 0.949 . S
C2923 C2924 1.349 . S
C2923 C2925 1.327 . S
C2923 H2946 0.950 . S
C2924 C2923 1.349 . S
C2924 C2936 1.349 . S
C2925 C2923 1.327 . S
C2925 C2941 1.429 . S
C2925 H2947 0.950 . S
C2926 H2922 0.949 . S
C2926 C2934 1.574 . S
C2926 C2942 1.368 . S
H2927 C2935 0.950 . S
H2928 C2933 0.950 . S
H2929 C2934 0.949 . S
H2930 C2936 0.950 . S
H2931 C2937 0.950 . S
H2932 C2938 0.949 . S
C2933 H2928 0.950 . S
C2933 C2935 1.327 . S
C2933 C2939 1.429 . S
C2934 C2926 1.574 . S
C2934 H2929 0.949 . S
C2934 C2940 1.368 . S
C2935 C2919 1.349 . S
C2935 H2927 0.950 . S
C2935 C2933 1.327 . S
C2936 C2924 1.349 . S
C2936 H2930 0.950 . S
C2936 C2937 1.327 . S
C2937 H2931 0.950 . S
C2937 C2936 1.327 . S
C2937 C2941 1.429 . S
C2938 C2921 1.574 . S
C2938 H2932 0.949 . S
C2938 C2942 1.368 . S
C2939 C2920 1.429 . S
C2939 C2933 1.429 . S
C2939 C2940 1.523 . S
C2940 C2921 1.368 . S
C2940 C2934 1.368 . S
C2940 C2939 1.523 . S
C2941 C2925 1.429 . S
C2941 C2937 1.429 . S
C2941 C2942 1.523 . S
C2942 C2926 1.368 . S
C2942 C2938 1.368 . S
C2942 C2941 1.523 . S
H2943 C2918 0.950 . S
H2944 C2920 0.950 . S
H2945 C2921 0.949 . S
H2946 C2923 0.950 . S
H2947 C2925 0.950 . S
C2948 C2949 1.349 . S
C2948 C2950 1.327 . S
C2948 H2973 0.950 . S
C2949 C2948 1.349 . S
C2949 C2965 1.349 . S
C2950 C2948 1.327 . S
C2950 C2969 1.429 . S
C2950 H2974 0.950 . S
C2951 C2968 1.574 1_655 S
C2951 C2970 1.368 . S
C2951 H2975 0.949 . S
H2952 C2956 0.949 . S
C2953 C2954 1.349 . S
C2953 C2955 1.327 . S
C2953 H2976 0.950 . S
C2954 C2953 1.349 . S
C2954 C2966 1.349 . S
C2955 C2953 1.327 . S
C2955 C2971 1.429 . S
C2955 H2977 0.950 . S
C2956 H2952 0.949 . S
C2956 C2964 1.574 1_455 S
C2956 C2972 1.368 . S
H2957 C2965 0.950 . S
H2958 C2963 0.950 . S
H2959 C2964 0.949 . S
H2960 C2966 0.950 . S
H2961 C2967 0.950 . S
H2962 C2968 0.949 . S
C2963 H2958 0.950 . S
C2963 C2965 1.327 . S
C2963 C2969 1.429 . S
C2964 C2956 1.574 1_655 S
C2964 H2959 0.949 . S
C2964 C2970 1.368 . S
C2965 C2949 1.349 . S
C2965 H2957 0.950 . S
C2965 C2963 1.327 . S
C2966 C2954 1.349 . S
C2966 H2960 0.950 . S
C2966 C2967 1.327 . S
C2967 H2961 0.950 . S
C2967 C2966 1.327 . S
C2967 C2971 1.429 . S
C2968 C2951 1.574 1_455 S
C2968 H2962 0.949 . S
C2968 C2972 1.368 . S
C2969 C2950 1.429 . S
C2969 C2963 1.429 . S
C2969 C2970 1.523 . S
C2970 C2951 1.368 . S
C2970 C2964 1.368 . S
C2970 C2969 1.523 . S
C2971 C2955 1.429 . S
C2971 C2967 1.429 . S
C2971 C2972 1.523 . S
C2972 C2956 1.368 . S
C2972 C2968 1.368 . S
C2972 C2971 1.523 . S
H2973 C2948 0.950 . S
H2974 C2950 0.950 . S
H2975 C2951 0.949 . S
H2976 C2953 0.950 . S
H2977 C2955 0.950 . S
C2978 C2979 1.349 . S
C2978 C2980 1.327 . S
C2978 H3003 0.950 . S
C2979 C2978 1.349 . S
C2979 C2995 1.349 . S
C2980 C2978 1.327 . S
C2980 C2999 1.429 . S
C2980 H3004 0.950 . S
C2981 C2998 1.576 1_655 S
C2981 C3000 1.366 . S
C2981 H3005 0.949 . S
H2982 C2986 0.949 . S
C2983 C2984 1.349 . S
C2983 C2985 1.327 . S
C2983 H3006 0.950 . S
C2984 C2983 1.349 . S
C2984 C2996 1.349 . S
C2985 C2983 1.327 . S
C2985 C3001 1.429 . S
C2985 H3007 0.950 . S
C2986 H2982 0.949 . S
C2986 C2994 1.576 1_455 S
C2986 C3002 1.366 . S
H2987 C2995 0.950 . S
H2988 C2993 0.950 . S
H2989 C2994 0.949 . S
H2990 C2996 0.950 . S
H2991 C2997 0.950 . S
H2992 C2998 0.949 . S
C2993 H2988 0.950 . S
C2993 C2995 1.327 . S
C2993 C2999 1.429 . S
C2994 C2986 1.576 1_655 S
C2994 H2989 0.949 . S
C2994 C3000 1.368 . S
C2995 C2979 1.349 . S
C2995 H2987 0.950 . S
C2995 C2993 1.327 . S
C2996 C2984 1.349 . S
C2996 H2990 0.950 . S
C2996 C2997 1.327 . S
C2997 H2991 0.950 . S
C2997 C2996 1.327 . S
C2997 C3001 1.429 . S
C2998 C2981 1.576 1_455 S
C2998 H2992 0.949 . S
C2998 C3002 1.368 . S
C2999 C2980 1.429 . S
C2999 C2993 1.429 . S
C2999 C3000 1.523 . S
C3000 C2981 1.366 . S
C3000 C2994 1.368 . S
C3000 C2999 1.523 . S
C3001 C2985 1.429 . S
C3001 C2997 1.429 . S
C3001 C3002 1.523 . S
C3002 C2986 1.366 . S
C3002 C2998 1.368 . S
C3002 C3001 1.523 . S
H3003 C2978 0.950 . S
H3004 C2980 0.950 . S
H3005 C2981 0.949 . S
H3006 C2983 0.950 . S
H3007 C2985 0.950 . S
C3008 C3009 1.349 . S
C3008 C3010 1.327 . S
C3008 H3033 0.950 . S
C3009 C3008 1.349 . S
C3009 C3025 1.349 . S
C3010 C3008 1.327 . S
C3010 C3029 1.429 . S
C3010 H3034 0.950 . S
C3011 C3028 1.574 1_565 S
C3011 C3030 1.368 . S
C3011 H3035 0.949 . S
H3012 C3016 0.949 . S
C3013 C3014 1.349 . S
C3013 C3015 1.327 . S
C3013 H3036 0.950 . S
C3014 C3013 1.349 . S
C3014 C3026 1.349 . S
C3015 C3013 1.327 . S
C3015 C3031 1.429 . S
C3015 H3037 0.950 . S
C3016 H3012 0.949 . S
C3016 C3024 1.574 1_545 S
C3016 C3032 1.368 . S
H3017 C3025 0.950 . S
H3018 C3023 0.950 . S
H3019 C3024 0.949 . S
H3020 C3026 0.950 . S
H3021 C3027 0.950 . S
H3022 C3028 0.949 . S
C3023 H3018 0.950 . S
C3023 C3025 1.327 . S
C3023 C3029 1.429 . S
C3024 C3016 1.574 1_565 S
C3024 H3019 0.949 . S
C3024 C3030 1.368 . S
C3025 C3009 1.349 . S
C3025 H3017 0.950 . S
C3025 C3023 1.327 . S
C3026 C3014 1.349 . S
C3026 H3020 0.950 . S
C3026 C3027 1.327 . S
C3027 H3021 0.950 . S
C3027 C3026 1.327 . S
C3027 C3031 1.429 . S
C3028 C3011 1.574 1_545 S
C3028 H3022 0.949 . S
C3028 C3032 1.368 . S
C3029 C3010 1.429 . S
C3029 C3023 1.429 . S
C3029 C3030 1.523 . S
C3030 C3011 1.368 . S
C3030 C3024 1.368 . S
C3030 C3029 1.523 . S
C3031 C3015 1.429 . S
C3031 C3027 1.429 . S
C3031 C3032 1.523 . S
C3032 C3016 1.368 . S
C3032 C3028 1.368 . S
C3032 C3031 1.523 . S
H3033 C3008 0.950 . S
H3034 C3010 0.950 . S
H3035 C3011 0.949 . S
H3036 C3013 0.950 . S
H3037 C3015 0.950 . S
C3038 C3039 1.349 . S
C3038 C3040 1.327 . S
C3038 H3063 0.950 . S
C3039 C3038 1.349 . S
C3039 C3055 1.349 . S
C3040 C3038 1.327 . S
C3040 C3059 1.429 . S
C3040 H3064 0.950 . S
C3041 C3058 1.574 . S
C3041 C3060 1.368 . S
C3041 H3065 0.949 . S
H3042 C3046 0.949 . S
C3043 C3044 1.349 . S
C3043 C3045 1.327 . S
C3043 H3066 0.950 . S
C3044 C3043 1.349 . S
C3044 C3056 1.349 . S
C3045 C3043 1.327 . S
C3045 C3061 1.429 . S
C3045 H3067 0.950 . S
C3046 H3042 0.949 . S
C3046 C3054 1.574 . S
C3046 C3062 1.368 . S
H3047 C3055 0.950 . S
H3048 C3053 0.950 . S
H3049 C3054 0.949 . S
H3050 C3056 0.950 . S
H3051 C3057 0.950 . S
H3052 C3058 0.949 . S
C3053 H3048 0.950 . S
C3053 C3055 1.327 . S
C3053 C3059 1.429 . S
C3054 C3046 1.574 . S
C3054 H3049 0.949 . S
C3054 C3060 1.368 . S
C3055 C3039 1.349 . S
C3055 H3047 0.950 . S
C3055 C3053 1.327 . S
C3056 C3044 1.349 . S
C3056 H3050 0.950 . S
C3056 C3057 1.327 . S
C3057 H3051 0.950 . S
C3057 C3056 1.327 . S
C3057 C3061 1.429 . S
C3058 C3041 1.574 . S
C3058 H3052 0.949 . S
C3058 C3062 1.368 . S
C3059 C3040 1.429 . S
C3059 C3053 1.429 . S
C3059 C3060 1.523 . S
C3060 C3041 1.368 . S
C3060 C3054 1.368 . S
C3060 C3059 1.523 . S
C3061 C3045 1.429 . S
C3061 C3057 1.429 . S
C3061 C3062 1.523 . S
C3062 C3046 1.368 . S
C3062 C3058 1.368 . S
C3062 C3061 1.523 . S
H3063 C3038 0.950 . S
H3064 C3040 0.950 . S
H3065 C3041 0.949 . S
H3066 C3043 0.950 . S
H3067 C3045 0.950 . S
C3068 C3069 1.349 . S
C3068 C3070 1.327 . S
C3068 H3093 0.950 . S
C3069 C3068 1.349 . S
C3069 C3085 1.349 . S
C3070 C3068 1.327 . S
C3070 C3089 1.429 . S
C3070 H3094 0.950 . S
C3071 C3088 1.574 1_565 S
C3071 C3090 1.368 . S
C3071 H3095 0.949 . S
H3072 C3076 0.949 . S
C3073 C3074 1.349 . S
C3073 C3075 1.327 . S
C3073 H3096 0.950 . S
C3074 C3073 1.349 . S
C3074 C3086 1.349 . S
C3075 C3073 1.327 . S
C3075 C3091 1.429 . S
C3075 H3097 0.950 . S
C3076 H3072 0.949 . S
C3076 C3084 1.574 1_545 S
C3076 C3092 1.368 . S
H3077 C3085 0.950 . S
H3078 C3083 0.950 . S
H3079 C3084 0.949 . S
H3080 C3086 0.950 . S
H3081 C3087 0.950 . S
H3082 C3088 0.949 . S
C3083 H3078 0.950 . S
C3083 C3085 1.327 . S
C3083 C3089 1.429 . S
C3084 C3076 1.574 1_565 S
C3084 H3079 0.949 . S
C3084 C3090 1.368 . S
C3085 C3069 1.349 . S
C3085 H3077 0.950 . S
C3085 C3083 1.327 . S
C3086 C3074 1.349 . S
C3086 H3080 0.950 . S
C3086 C3087 1.327 . S
C3087 H3081 0.950 . S
C3087 C3086 1.327 . S
C3087 C3091 1.429 . S
C3088 C3071 1.574 1_545 S
C3088 H3082 0.949 . S
C3088 C3092 1.368 . S
C3089 C3070 1.429 . S
C3089 C3083 1.429 . S
C3089 C3090 1.523 . S
C3090 C3071 1.368 . S
C3090 C3084 1.368 . S
C3090 C3089 1.523 . S
C3091 C3075 1.429 . S
C3091 C3087 1.429 . S
C3091 C3092 1.523 . S
C3092 C3076 1.368 . S
C3092 C3088 1.368 . S
C3092 C3091 1.523 . S
H3093 C3068 0.950 . S
H3094 C3070 0.950 . S
H3095 C3071 0.949 . S
H3096 C3073 0.950 . S
H3097 C3075 0.950 . S
C3098 C3099 1.349 . S
C3098 C3100 1.327 . S
C3098 H3123 0.950 . S
C3099 C3098 1.349 . S
C3099 C3115 1.349 . S
C3100 C3098 1.327 . S
C3100 C3119 1.429 . S
C3100 H3124 0.950 . S
C3101 C3118 1.626 . S
C3101 C3120 1.316 1_556 S
C3101 H3125 0.956 . S
H3102 C3106 0.956 . S
C3103 C3104 1.349 . S
C3103 C3105 1.327 . S
C3103 H3126 0.950 . S
C3104 C3103 1.349 . S
C3104 C3116 1.349 . S
C3105 C3103 1.327 . S
C3105 C3121 1.429 . S
C3105 H3127 0.950 . S
C3106 H3102 0.956 . S
C3106 C3114 1.626 . S
C3106 C3122 1.316 1_554 S
H3107 C3115 0.950 . S
H3108 C3113 0.950 . S
H3109 C3114 0.949 . S
H3110 C3116 0.950 . S
H3111 C3117 0.950 . S
H3112 C3118 0.949 . S
C3113 H3108 0.950 . S
C3113 C3115 1.327 . S
C3113 C3119 1.429 . S
C3114 C3106 1.626 . S
C3114 H3109 0.949 . S
C3114 C3120 1.368 . S
C3115 C3099 1.349 . S
C3115 H3107 0.950 . S
C3115 C3113 1.327 . S
C3116 C3104 1.349 . S
C3116 H3110 0.950 . S
C3116 C3117 1.327 . S
C3117 H3111 0.950 . S
C3117 C3116 1.327 . S
C3117 C3121 1.429 . S
C3118 C3101 1.626 . S
C3118 H3112 0.949 . S
C3118 C3122 1.368 . S
C3119 C3100 1.429 . S
C3119 C3113 1.429 . S
C3119 C3120 1.523 . S
C3120 C3101 1.316 1_554 S
C3120 C3114 1.368 . S
C3120 C3119 1.523 . S
C3121 C3105 1.429 . S
C3121 C3117 1.429 . S
C3121 C3122 1.523 . S
C3122 C3106 1.316 1_556 S
C3122 C3118 1.368 . S
C3122 C3121 1.523 . S
H3123 C3098 0.950 . S
H3124 C3100 0.950 . S
H3125 C3101 0.956 . S
H3126 C3103 0.950 . S
H3127 C3105 0.950 . S
C3128 C3129 1.349 . S
C3128 C3130 1.327 . S
C3128 H3153 0.950 . S
C3129 C3128 1.349 . S
C3129 C3145 1.349 . S
C3130 C3128 1.327 . S
C3130 C3149 1.429 . S
C3130 H3154 0.950 . S
C3131 C3148 1.546 1_565 S
C3131 C3150 1.394 . S
C3131 H3155 0.952 . S
H3132 C3136 0.952 . S
C3133 C3134 1.349 . S
C3133 C3135 1.327 . S
C3133 H3156 0.950 . S
C3134 C3133 1.349 . S
C3134 C3146 1.349 . S
C3135 C3133 1.327 . S
C3135 C3151 1.429 . S
C3135 H3157 0.950 . S
C3136 H3132 0.952 . S
C3136 C3144 1.546 1_545 S
C3136 C3152 1.394 . S
H3137 C3145 0.950 . S
H3138 C3143 0.950 . S
H3139 C3144 0.949 . S
H3140 C3146 0.950 . S
H3141 C3147 0.950 . S
H3142 C3148 0.949 . S
C3143 H3138 0.950 . S
C3143 C3145 1.327 . S
C3143 C3149 1.429 . S
C3144 C3136 1.546 1_565 S
C3144 H3139 0.949 . S
C3144 C3150 1.368 . S
C3145 C3129 1.349 . S
C3145 H3137 0.950 . S
C3145 C3143 1.327 . S
C3146 C3134 1.349 . S
C3146 H3140 0.950 . S
C3146 C3147 1.327 . S
C3147 H3141 0.950 . S
C3147 C3146 1.327 . S
C3147 C3151 1.429 . S
C3148 C3131 1.546 1_545 S
C3148 H3142 0.949 . S
C3148 C3152 1.368 . S
C3149 C3130 1.429 . S
C3149 C3143 1.429 . S
C3149 C3150 1.523 . S
C3150 C3131 1.394 . S
C3150 C3144 1.368 . S
C3150 C3149 1.523 . S
C3151 C3135 1.429 . S
C3151 C3147 1.429 . S
C3151 C3152 1.523 . S
C3152 C3136 1.394 . S
C3152 C3148 1.368 . S
C3152 C3151 1.523 . S
H3153 C3128 0.950 . S
H3154 C3130 0.950 . S
H3155 C3131 0.952 . S
H3156 C3133 0.950 . S
H3157 C3135 0.950 . S
C3158 C3159 1.349 . S
C3158 C3160 1.327 . S
C3158 H3183 0.950 . S
C3159 C3158 1.349 . S
C3159 C3175 1.349 . S
C3160 C3158 1.327 . S
C3160 C3179 1.429 . S
C3160 H3184 0.950 . S
C3161 C3178 1.574 . S
C3161 C3180 1.368 . S
C3161 H3185 0.949 . S
H3162 C3166 0.949 . S
C3163 C3164 1.349 . S
C3163 C3165 1.327 . S
C3163 H3186 0.950 . S
C3164 C3163 1.349 . S
C3164 C3176 1.349 . S
C3165 C3163 1.327 . S
C3165 C3181 1.429 . S
C3165 H3187 0.950 . S
C3166 H3162 0.949 . S
C3166 C3174 1.574 . S
C3166 C3182 1.368 . S
H3167 C3175 0.950 . S
H3168 C3173 0.950 . S
H3169 C3174 0.949 . S
H3170 C3176 0.950 . S
H3171 C3177 0.950 . S
H3172 C3178 0.949 . S
C3173 H3168 0.950 . S
C3173 C3175 1.327 . S
C3173 C3179 1.429 . S
C3174 C3166 1.574 . S
C3174 H3169 0.949 . S
C3174 C3180 1.368 . S
C3175 C3159 1.349 . S
C3175 H3167 0.950 . S
C3175 C3173 1.327 . S
C3176 C3164 1.349 . S
C3176 H3170 0.950 . S
C3176 C3177 1.327 . S
C3177 H3171 0.950 . S
C3177 C3176 1.327 . S
C3177 C3181 1.429 . S
C3178 C3161 1.574 . S
C3178 H3172 0.949 . S
C3178 C3182 1.368 . S
C3179 C3160 1.429 . S
C3179 C3173 1.429 . S
C3179 C3180 1.523 . S
C3180 C3161 1.368 . S
C3180 C3174 1.368 . S
C3180 C3179 1.523 . S
C3181 C3165 1.429 . S
C3181 C3177 1.429 . S
C3181 C3182 1.523 . S
C3182 C3166 1.368 . S
C3182 C3178 1.368 . S
C3182 C3181 1.523 . S
H3183 C3158 0.950 . S
H3184 C3160 0.950 . S
H3185 C3161 0.949 . S
H3186 C3163 0.950 . S
H3187 C3165 0.950 . S
C3188 C3189 1.349 . S
C3188 C3190 1.327 . S
C3188 H3213 0.950 . S
C3189 C3188 1.349 . S
C3189 C3205 1.349 . S
C3190 C3188 1.327 . S
C3190 C3209 1.429 . S
C3190 H3214 0.950 . S
C3191 C3208 1.574 1_545 S
C3191 C3210 1.368 . S
C3191 H3215 0.949 . S
H3192 C3196 0.949 . S
C3193 C3194 1.349 . S
C3193 C3195 1.327 . S
C3193 H3216 0.950 . S
C3194 C3193 1.349 . S
C3194 C3206 1.349 . S
C3195 C3193 1.327 . S
C3195 C3211 1.429 . S
C3195 H3217 0.950 . S
C3196 H3192 0.949 . S
C3196 C3204 1.574 1_565 S
C3196 C3212 1.368 . S
H3197 C3205 0.950 . S
H3198 C3203 0.950 . S
H3199 C3204 0.949 . S
H3200 C3206 0.950 . S
H3201 C3207 0.950 . S
H3202 C3208 0.949 . S
C3203 H3198 0.950 . S
C3203 C3205 1.327 . S
C3203 C3209 1.429 . S
C3204 C3196 1.574 1_545 S
C3204 H3199 0.949 . S
C3204 C3210 1.368 . S
C3205 C3189 1.349 . S
C3205 H3197 0.950 . S
C3205 C3203 1.327 . S
C3206 C3194 1.349 . S
C3206 H3200 0.950 . S
C3206 C3207 1.327 . S
C3207 H3201 0.950 . S
C3207 C3206 1.327 . S
C3207 C3211 1.429 . S
C3208 C3191 1.574 1_565 S
C3208 H3202 0.949 . S
C3208 C3212 1.368 . S
C3209 C3190 1.429 . S
C3209 C3203 1.429 . S
C3209 C3210 1.523 . S
C3210 C3191 1.368 . S
C3210 C3204 1.368 . S
C3210 C3209 1.523 . S
C3211 C3195 1.429 . S
C3211 C3207 1.429 . S
C3211 C3212 1.523 . S
C3212 C3196 1.368 . S
C3212 C3208 1.368 . S
C3212 C3211 1.523 . S
H3213 C3188 0.950 . S
H3214 C3190 0.950 . S
H3215 C3191 0.949 . S
H3216 C3193 0.950 . S
H3217 C3195 0.950 . S
C3218 C3219 1.349 . S
C3218 C3220 1.327 . S
C3218 H3243 0.950 . S
C3219 C3218 1.349 . S
C3219 C3235 1.349 . S
C3220 C3218 1.327 . S
C3220 C3239 1.429 . S
C3220 H3244 0.950 . S
C3221 C3238 1.626 . S
C3221 C3240 1.368 . S
C3221 H3245 0.949 . S
H3222 C3226 0.949 . S
C3223 C3224 1.349 . S
C3223 C3225 1.327 . S
C3223 H3246 0.950 . S
C3224 C3223 1.349 . S
C3224 C3236 1.349 . S
C3225 C3223 1.327 . S
C3225 C3241 1.429 . S
C3225 H3247 0.950 . S
C3226 H3222 0.949 . S
C3226 C3234 1.626 . S
C3226 C3242 1.368 . S
H3227 C3235 0.950 . S
H3228 C3233 0.950 . S
H3229 C3234 0.956 . S
H3230 C3236 0.950 . S
H3231 C3237 0.950 . S
H3232 C3238 0.956 . S
C3233 H3228 0.950 . S
C3233 C3235 1.327 . S
C3233 C3239 1.429 . S
C3234 C3226 1.626 . S
C3234 H3229 0.956 . S
C3234 C3240 1.316 1_554 S
C3235 C3219 1.349 . S
C3235 H3227 0.950 . S
C3235 C3233 1.327 . S
C3236 C3224 1.349 . S
C3236 H3230 0.950 . S
C3236 C3237 1.327 . S
C3237 H3231 0.950 . S
C3237 C3236 1.327 . S
C3237 C3241 1.429 . S
C3238 C3221 1.626 . S
C3238 H3232 0.956 . S
C3238 C3242 1.316 1_556 S
C3239 C3220 1.429 . S
C3239 C3233 1.429 . S
C3239 C3240 1.523 . S
C3240 C3221 1.368 . S
C3240 C3234 1.316 1_556 S
C3240 C3239 1.523 . S
C3241 C3225 1.429 . S
C3241 C3237 1.429 . S
C3241 C3242 1.523 . S
C3242 C3226 1.368 . S
C3242 C3238 1.316 1_554 S
C3242 C3241 1.523 . S
H3243 C3218 0.950 . S
H3244 C3220 0.950 . S
H3245 C3221 0.949 . S
H3246 C3223 0.950 . S
H3247 C3225 0.950 . S
C3248 C3249 1.349 . S
C3248 C3250 1.327 . S
C3248 H3273 0.950 . S
C3249 C3248 1.349 . S
C3249 C3265 1.349 . S
C3250 C3248 1.327 . S
C3250 C3269 1.429 . S
C3250 H3274 0.950 . S
C3251 C3268 1.574 . S
C3251 C3270 1.368 . S
C3251 H3275 0.949 . S
H3252 C3256 0.949 . S
C3253 C3254 1.349 . S
C3253 C3255 1.327 . S
C3253 H3276 0.950 . S
C3254 C3253 1.349 . S
C3254 C3266 1.349 . S
C3255 C3253 1.327 . S
C3255 C3271 1.429 . S
C3255 H3277 0.950 . S
C3256 H3252 0.949 . S
C3256 C3264 1.574 . S
C3256 C3272 1.368 . S
H3257 C3265 0.950 . S
H3258 C3263 0.950 . S
H3259 C3264 0.949 . S
H3260 C3266 0.950 . S
H3261 C3267 0.950 . S
H3262 C3268 0.949 . S
C3263 H3258 0.950 . S
C3263 C3265 1.327 . S
C3263 C3269 1.429 . S
C3264 C3256 1.574 . S
C3264 H3259 0.949 . S
C3264 C3270 1.368 . S
C3265 C3249 1.349 . S
C3265 H3257 0.950 . S
C3265 C3263 1.327 . S
C3266 C3254 1.349 . S
C3266 H3260 0.950 . S
C3266 C3267 1.327 . S
C3267 H3261 0.950 . S
C3267 C3266 1.327 . S
C3267 C3271 1.429 . S
C3268 C3251 1.574 . S
C3268 H3262 0.949 . S
C3268 C3272 1.368 . S
C3269 C3250 1.429 . S
C3269 C3263 1.429 . S
C3269 C3270 1.523 . S
C3270 C3251 1.368 . S
C3270 C3264 1.368 . S
C3270 C3269 1.523 . S
C3271 C3255 1.429 . S
C3271 C3267 1.429 . S
C3271 C3272 1.523 . S
C3272 C3256 1.368 . S
C3272 C3268 1.368 . S
C3272 C3271 1.523 . S
H3273 C3248 0.950 . S
H3274 C3250 0.950 . S
H3275 C3251 0.949 . S
H3276 C3253 0.950 . S
H3277 C3255 0.950 . S
C3278 C3279 1.349 . S
C3278 C3280 1.327 . S
C3278 H3303 0.950 . S
C3279 C3278 1.349 . S
C3279 C3295 1.349 . S
C3280 C3278 1.327 . S
C3280 C3299 1.429 . S
C3280 H3304 0.950 . S
C3281 C3298 1.626 . S
C3281 C3300 1.316 1_556 S
C3281 H3305 0.956 . S
H3282 C3286 0.956 . S
C3283 C3284 1.349 . S
C3283 C3285 1.327 . S
C3283 H3306 0.950 . S
C3284 C3283 1.349 . S
C3284 C3296 1.349 . S
C3285 C3283 1.327 . S
C3285 C3301 1.429 . S
C3285 H3307 0.950 . S
C3286 H3282 0.956 . S
C3286 C3294 1.626 . S
C3286 C3302 1.316 1_554 S
H3287 C3295 0.950 . S
H3288 C3293 0.950 . S
H3289 C3294 0.949 . S
H3290 C3296 0.950 . S
H3291 C3297 0.950 . S
H3292 C3298 0.949 . S
C3293 H3288 0.950 . S
C3293 C3295 1.327 . S
C3293 C3299 1.429 . S
C3294 C3286 1.626 . S
C3294 H3289 0.949 . S
C3294 C3300 1.368 . S
C3295 C3279 1.349 . S
C3295 H3287 0.950 . S
C3295 C3293 1.327 . S
C3296 C3284 1.349 . S
C3296 H3290 0.950 . S
C3296 C3297 1.327 . S
C3297 H3291 0.950 . S
C3297 C3296 1.327 . S
C3297 C3301 1.429 . S
C3298 C3281 1.626 . S
C3298 H3292 0.949 . S
C3298 C3302 1.368 . S
C3299 C3280 1.429 . S
C3299 C3293 1.429 . S
C3299 C3300 1.523 . S
C3300 C3281 1.316 1_554 S
C3300 C3294 1.368 . S
C3300 C3299 1.523 . S
C3301 C3285 1.429 . S
C3301 C3297 1.429 . S
C3301 C3302 1.523 . S
C3302 C3286 1.316 1_556 S
C3302 C3298 1.368 . S
C3302 C3301 1.523 . S
H3303 C3278 0.950 . S
H3304 C3280 0.950 . S
H3305 C3281 0.956 . S
H3306 C3283 0.950 . S
H3307 C3285 0.950 . S
C3308 C3309 1.349 . S
C3308 C3310 1.327 . S
C3308 H3333 0.950 . S
C3309 C3308 1.349 . S
C3309 C3325 1.349 . S
C3310 C3308 1.327 . S
C3310 C3329 1.429 . S
C3310 H3334 0.950 . S
C3311 C3328 1.574 . S
C3311 C3330 1.368 . S
C3311 H3335 0.949 . S
H3312 C3316 0.949 . S
C3313 C3314 1.349 . S
C3313 C3315 1.327 . S
C3313 H3336 0.950 . S
C3314 C3313 1.349 . S
C3314 C3326 1.349 . S
C3315 C3313 1.327 . S
C3315 C3331 1.429 . S
C3315 H3337 0.950 . S
C3316 H3312 0.949 . S
C3316 C3324 1.574 . S
C3316 C3332 1.368 . S
H3317 C3325 0.950 . S
H3318 C3323 0.950 . S
H3319 C3324 0.949 . S
H3320 C3326 0.950 . S
H3321 C3327 0.950 . S
H3322 C3328 0.949 . S
C3323 H3318 0.950 . S
C3323 C3325 1.327 . S
C3323 C3329 1.429 . S
C3324 C3316 1.574 . S
C3324 H3319 0.949 . S
C3324 C3330 1.368 . S
C3325 C3309 1.349 . S
C3325 H3317 0.950 . S
C3325 C3323 1.327 . S
C3326 C3314 1.349 . S
C3326 H3320 0.950 . S
C3326 C3327 1.327 . S
C3327 H3321 0.950 . S
C3327 C3326 1.327 . S
C3327 C3331 1.429 . S
C3328 C3311 1.574 . S
C3328 H3322 0.949 . S
C3328 C3332 1.368 . S
C3329 C3310 1.429 . S
C3329 C3323 1.429 . S
C3329 C3330 1.523 . S
C3330 C3311 1.368 . S
C3330 C3324 1.368 . S
C3330 C3329 1.523 . S
C3331 C3315 1.429 . S
C3331 C3327 1.429 . S
C3331 C3332 1.523 . S
C3332 C3316 1.368 . S
C3332 C3328 1.368 . S
C3332 C3331 1.523 . S
H3333 C3308 0.950 . S
H3334 C3310 0.950 . S
H3335 C3311 0.949 . S
H3336 C3313 0.950 . S
H3337 C3315 0.950 . S
C3338 C3339 1.349 . S
C3338 C3340 1.327 . S
C3338 H3363 0.950 . S
C3339 C3338 1.349 . S
C3339 C3355 1.349 . S
C3340 C3338 1.327 . S
C3340 C3359 1.429 . S
C3340 H3364 0.950 . S
C3341 C3358 1.574 . S
C3341 C3360 1.368 . S
C3341 H3365 0.949 . S
H3342 C3346 0.949 . S
C3343 C3344 1.349 . S
C3343 C3345 1.327 . S
C3343 H3366 0.950 . S
C3344 C3343 1.349 . S
C3344 C3356 1.349 . S
C3345 C3343 1.327 . S
C3345 C3361 1.429 . S
C3345 H3367 0.950 . S
C3346 H3342 0.949 . S
C3346 C3354 1.574 . S
C3346 C3362 1.368 . S
H3347 C3355 0.950 . S
H3348 C3353 0.950 . S
H3349 C3354 0.949 . S
H3350 C3356 0.950 . S
H3351 C3357 0.950 . S
H3352 C3358 0.949 . S
C3353 H3348 0.950 . S
C3353 C3355 1.327 . S
C3353 C3359 1.429 . S
C3354 C3346 1.574 . S
C3354 H3349 0.949 . S
C3354 C3360 1.368 . S
C3355 C3339 1.349 . S
C3355 H3347 0.950 . S
C3355 C3353 1.327 . S
C3356 C3344 1.349 . S
C3356 H3350 0.950 . S
C3356 C3357 1.327 . S
C3357 H3351 0.950 . S
C3357 C3356 1.327 . S
C3357 C3361 1.429 . S
C3358 C3341 1.574 . S
C3358 H3352 0.949 . S
C3358 C3362 1.368 . S
C3359 C3340 1.429 . S
C3359 C3353 1.429 . S
C3359 C3360 1.523 . S
C3360 C3341 1.368 . S
C3360 C3354 1.368 . S
C3360 C3359 1.523 . S
C3361 C3345 1.429 . S
C3361 C3357 1.429 . S
C3361 C3362 1.523 . S
C3362 C3346 1.368 . S
C3362 C3358 1.368 . S
C3362 C3361 1.523 . S
H3363 C3338 0.950 . S
H3364 C3340 0.950 . S
H3365 C3341 0.949 . S
H3366 C3343 0.950 . S
H3367 C3345 0.950 . S
C3368 C3369 1.349 . S
C3368 C3370 1.327 . S
C3368 H3393 0.950 . S
C3369 C3368 1.349 . S
C3369 C3385 1.349 . S
C3370 C3368 1.327 . S
C3370 C3389 1.429 . S
C3370 H3394 0.950 . S
C3371 C3388 1.574 . S
C3371 C3390 1.368 . S
C3371 H3395 0.949 . S
H3372 C3376 0.949 . S
C3373 C3374 1.349 . S
C3373 C3375 1.327 . S
C3373 H3396 0.950 . S
C3374 C3373 1.349 . S
C3374 C3386 1.349 . S
C3375 C3373 1.327 . S
C3375 C3391 1.429 . S
C3375 H3397 0.950 . S
C3376 H3372 0.949 . S
C3376 C3384 1.574 . S
C3376 C3392 1.368 . S
H3377 C3385 0.950 . S
H3378 C3383 0.950 . S
H3379 C3384 0.949 . S
H3380 C3386 0.950 . S
H3381 C3387 0.950 . S
H3382 C3388 0.949 . S
C3383 H3378 0.950 . S
C3383 C3385 1.327 . S
C3383 C3389 1.429 . S
C3384 C3376 1.574 . S
C3384 H3379 0.949 . S
C3384 C3390 1.368 . S
C3385 C3369 1.349 . S
C3385 H3377 0.950 . S
C3385 C3383 1.327 . S
C3386 C3374 1.349 . S
C3386 H3380 0.950 . S
C3386 C3387 1.327 . S
C3387 H3381 0.950 . S
C3387 C3386 1.327 . S
C3387 C3391 1.429 . S
C3388 C3371 1.574 . S
C3388 H3382 0.949 . S
C3388 C3392 1.368 . S
C3389 C3370 1.429 . S
C3389 C3383 1.429 . S
C3389 C3390 1.523 . S
C3390 C3371 1.368 . S
C3390 C3384 1.368 . S
C3390 C3389 1.523 . S
C3391 C3375 1.429 . S
C3391 C3387 1.429 . S
C3391 C3392 1.523 . S
C3392 C3376 1.368 . S
C3392 C3388 1.368 . S
C3392 C3391 1.523 . S
H3393 C3368 0.950 . S
H3394 C3370 0.950 . S
H3395 C3371 0.949 . S
H3396 C3373 0.950 . S
H3397 C3375 0.950 . S
C3398 C3399 1.349 . S
C3398 C3400 1.327 . S
C3398 H3423 0.950 . S
C3399 C3398 1.349 . S
C3399 C3415 1.349 . S
C3400 C3398 1.327 . S
C3400 C3419 1.429 . S
C3400 H3424 0.950 . S
C3401 C3418 1.626 . S
C3401 C3420 1.316 1_556 S
C3401 H3425 0.956 . S
H3402 C3406 0.956 . S
C3403 C3404 1.349 . S
C3403 C3405 1.327 . S
C3403 H3426 0.950 . S
C3404 C3403 1.349 . S
C3404 C3416 1.349 . S
C3405 C3403 1.327 . S
C3405 C3421 1.429 . S
C3405 H3427 0.950 . S
C3406 H3402 0.956 . S
C3406 C3414 1.626 . S
C3406 C3422 1.316 1_554 S
H3407 C3415 0.950 . S
H3408 C3413 0.950 . S
H3409 C3414 0.949 . S
H3410 C3416 0.950 . S
H3411 C3417 0.950 . S
H3412 C3418 0.949 . S
C3413 H3408 0.950 . S
C3413 C3415 1.327 . S
C3413 C3419 1.429 . S
C3414 C3406 1.626 . S
C3414 H3409 0.949 . S
C3414 C3420 1.368 . S
C3415 C3399 1.349 . S
C3415 H3407 0.950 . S
C3415 C3413 1.327 . S
C3416 C3404 1.349 . S
C3416 H3410 0.950 . S
C3416 C3417 1.327 . S
C3417 H3411 0.950 . S
C3417 C3416 1.327 . S
C3417 C3421 1.429 . S
C3418 C3401 1.626 . S
C3418 H3412 0.949 . S
C3418 C3422 1.368 . S
C3419 C3400 1.429 . S
C3419 C3413 1.429 . S
C3419 C3420 1.523 . S
C3420 C3401 1.316 1_554 S
C3420 C3414 1.368 . S
C3420 C3419 1.523 . S
C3421 C3405 1.429 . S
C3421 C3417 1.429 . S
C3421 C3422 1.523 . S
C3422 C3406 1.316 1_556 S
C3422 C3418 1.368 . S
C3422 C3421 1.523 . S
H3423 C3398 0.950 . S
H3424 C3400 0.950 . S
H3425 C3401 0.956 . S
H3426 C3403 0.950 . S
H3427 C3405 0.950 . S
C3428 C3429 1.349 . S
C3428 C3430 1.327 . S
C3428 H3453 0.950 . S
C3429 C3428 1.349 . S
C3429 C3445 1.349 . S
C3430 C3428 1.327 . S
C3430 C3449 1.429 . S
C3430 H3454 0.950 . S
C3431 C3448 1.574 . S
C3431 C3450 1.368 . S
C3431 H3455 0.949 . S
H3432 C3436 0.949 . S
C3433 C3434 1.349 . S
C3433 C3435 1.327 . S
C3433 H3456 0.950 . S
C3434 C3433 1.349 . S
C3434 C3446 1.349 . S
C3435 C3433 1.327 . S
C3435 C3451 1.429 . S
C3435 H3457 0.950 . S
C3436 H3432 0.949 . S
C3436 C3444 1.574 . S
C3436 C3452 1.368 . S
H3437 C3445 0.950 . S
H3438 C3443 0.950 . S
H3439 C3444 0.949 . S
H3440 C3446 0.950 . S
H3441 C3447 0.950 . S
H3442 C3448 0.949 . S
C3443 H3438 0.950 . S
C3443 C3445 1.327 . S
C3443 C3449 1.429 . S
C3444 C3436 1.574 . S
C3444 H3439 0.949 . S
C3444 C3450 1.368 . S
C3445 C3429 1.349 . S
C3445 H3437 0.950 . S
C3445 C3443 1.327 . S
C3446 C3434 1.349 . S
C3446 H3440 0.950 . S
C3446 C3447 1.327 . S
C3447 H3441 0.950 . S
C3447 C3446 1.327 . S
C3447 C3451 1.429 . S
C3448 C3431 1.574 . S
C3448 H3442 0.949 . S
C3448 C3452 1.368 . S
C3449 C3430 1.429 . S
C3449 C3443 1.429 . S
C3449 C3450 1.523 . S
C3450 C3431 1.368 . S
C3450 C3444 1.368 . S
C3450 C3449 1.523 . S
C3451 C3435 1.429 . S
C3451 C3447 1.429 . S
C3451 C3452 1.523 . S
C3452 C3436 1.368 . S
C3452 C3448 1.368 . S
C3452 C3451 1.523 . S
H3453 C3428 0.950 . S
H3454 C3430 0.950 . S
H3455 C3431 0.949 . S
H3456 C3433 0.950 . S
H3457 C3435 0.950 . S
C3458 C3459 1.349 . S
C3458 C3460 1.327 . S
C3458 H3483 0.950 . S
C3459 C3458 1.349 . S
C3459 C3475 1.349 . S
C3460 C3458 1.327 . S
C3460 C3479 1.429 . S
C3460 H3484 0.950 . S
C3461 C3478 1.574 . S
C3461 C3480 1.368 . S
C3461 H3485 0.949 . S
H3462 C3466 0.949 . S
C3463 C3464 1.349 . S
C3463 C3465 1.327 . S
C3463 H3486 0.950 . S
C3464 C3463 1.349 . S
C3464 C3476 1.349 . S
C3465 C3463 1.327 . S
C3465 C3481 1.429 . S
C3465 H3487 0.950 . S
C3466 H3462 0.949 . S
C3466 C3474 1.574 . S
C3466 C3482 1.368 . S
H3467 C3475 0.950 . S
H3468 C3473 0.950 . S
H3469 C3474 0.949 . S
H3470 C3476 0.950 . S
H3471 C3477 0.950 . S
H3472 C3478 0.949 . S
C3473 H3468 0.950 . S
C3473 C3475 1.327 . S
C3473 C3479 1.429 . S
C3474 C3466 1.574 . S
C3474 H3469 0.949 . S
C3474 C3480 1.368 . S
C3475 C3459 1.349 . S
C3475 H3467 0.950 . S
C3475 C3473 1.327 . S
C3476 C3464 1.349 . S
C3476 H3470 0.950 . S
C3476 C3477 1.327 . S
C3477 H3471 0.950 . S
C3477 C3476 1.327 . S
C3477 C3481 1.429 . S
C3478 C3461 1.574 . S
C3478 H3472 0.949 . S
C3478 C3482 1.368 . S
C3479 C3460 1.429 . S
C3479 C3473 1.429 . S
C3479 C3480 1.523 . S
C3480 C3461 1.368 . S
C3480 C3474 1.368 . S
C3480 C3479 1.523 . S
C3481 C3465 1.429 . S
C3481 C3477 1.429 . S
C3481 C3482 1.523 . S
C3482 C3466 1.368 . S
C3482 C3478 1.368 . S
C3482 C3481 1.523 . S
H3483 C3458 0.950 . S
H3484 C3460 0.950 . S
H3485 C3461 0.949 . S
H3486 C3463 0.950 . S
H3487 C3465 0.950 . S
C1089 C9 1.224 . S
C1094 C825 1.224 . S
C1119 C315 1.224 . S
C1124 C43 1.224 . S
C1149 C893 1.224 . S
C1154 C77 1.224 . S
C1179 C111 1.224 . S
C1184 C383 1.224 . S
C1209 C961 1.224 . S
C1214 C145 1.224 . S
C1239 C451 1.224 . S
C1244 C179 1.224 . S
C1269 C213 1.224 . S
C1274 C1029 1.224 . S
C1299 C247 1.224 . S
C1304 C519 1.224 . S
C1329 C281 1.224 . S
C1334 C553 1.224 . S
C1359 C349 1.224 . S
C1364 C621 1.224 . S
C1389 C689 1.224 . S
C1394 C417 1.224 . S
C1419 C485 1.224 . S
C1424 C757 1.224 . S
C1449 C587 1.224 . S
C1454 C859 1.224 . S
C1479 C927 1.224 . S
C1484 C655 1.224 . S
C1509 C995 1.224 . S
C1514 C723 1.224 . S
C1539 C791 1.224 . S
C1544 C1063 1.224 . S
C1569 C2 0.680 . S
C1574 C855 0.684 . S
C1599 C345 0.684 . S
C1604 C36 0.680 . S
C1629 C70 0.680 . S
C1634 C923 0.684 . S
C1659 C277 0.684 . S
C1664 C104 0.680 . S
C1689 C138 0.680 . S
C1694 C1059 0.684 . S
C1719 C172 0.680 . S
C1724 C413 0.684 . S
C1749 C991 0.684 . S
C1754 C206 0.680 . S
C1779 C481 0.684 . S
C1784 C240 0.680 . S
C1809 C583 0.684 . S
C1814 C274 0.680 . S
C1839 C73 0.684 . S
C1844 C308 0.680 . S
C1869 C342 0.680 . S
C1874 C651 0.684 . S
C1899 C376 0.680 . S
C1904 C5 0.684 . S
C1929 C787 0.684 . S
C1934 C410 0.680 . S
C1959 C141 0.684 . S
C1964 C444 0.680 . S
C1989 C478 0.680 . S
C1994 C719 0.684 . S
C2019 C512 0.680 . S
C2024 C209 0.684 . S
C2049 C311 0.684 . S
C2054 C546 0.680 . S
C2079 C889 0.684 . S
C2084 C580 0.680 . S
C2109 C379 0.684 . S
C2114 C614 0.680 . S
C2139 C648 0.680 . S
C2144 C821 0.684 . S
C2169 C515 0.684 . S
C2174 C682 0.680 . S
C2199 C716 0.680 . S
C2204 C957 0.684 . S
C2229 C447 0.684 . S
C2234 C750 0.680 . S
C2259 C784 0.680 . S
C2264 C1025 0.684 . S
C2289 C39 0.684 . S
C2294 C818 0.680 . S
C2319 C617 0.684 . S
C2324 C852 0.680 . S
C2349 C107 0.684 . S
C2354 C886 0.680 . S
C2379 C920 0.680 . S
C2384 C549 0.684 . S
C2409 C954 0.680 . S
C2414 C243 0.684 . S
C2439 C685 0.684 . S
C2444 C988 0.680 . S
C2469 C175 0.684 . S
C2474 C1022 0.680 . S
C2499 C1056 0.680 . S
C2504 C753 0.684 . S
C2529 C645 0.768 . S
C2534 C33 0.768 . S
C2559 C679 0.768 . S
C2564 C67 0.768 . S
C2589 C577 0.768 . S
C2594 C101 0.768 . S
C2619 C611 0.768 . S
C2624 C135 0.768 . S
C2649 C169 0.768 . S
C2654 C781 0.768 . S
C2679 C815 0.768 . S
C2684 C203 0.768 . S
C2709 C237 0.768 . S
C2714 C713 0.768 . S
C2739 C747 0.768 . S
C2744 C271 0.768 . S
C2769 C917 0.768 . S
C2774 C305 0.768 . S
C2799 C339 0.768 . S
C2804 C951 0.768 . S
C2829 C373 0.768 . S
C2834 C849 0.768 . S
C2859 C407 0.768 . S
C2864 C883 0.768 . S
C2889 C1053 0.768 . S
C2894 C441 0.768 . S
C2919 C475 0.768 . S
C2924 C1087 0.768 . S
C2949 C509 0.768 . S
C2954 C985 0.768 . S
C2979 C543 0.768 . S
C2984 C1019 0.768 . S
C3009 C156 2.136 . S
C3014 C20 2.136 . S
C3039 C190 2.136 . S
C3044 C54 2.136 . S
C3069 C88 2.136 . S
C3074 C224 2.136 . S
C3099 C258 2.136 . S
C3104 C122 2.136 . S
C3129 C292 2.136 . S
C3134 C428 2.136 . S
C3159 C462 2.136 . S
C3164 C326 2.136 . S
C3189 C360 2.136 . S
C3194 C496 2.136 . S
C3219 C530 2.136 . S
C3224 C394 2.136 . S
C3249 C564 2.136 . S
C3254 C700 2.136 . S
C3279 C734 2.136 . S
C3284 C598 2.136 . S
C3309 C768 2.136 . S
C3314 C632 2.136 . S
C3339 C666 2.136 . S
C3344 C802 2.136 . S
C3369 C972 2.136 . S
C3374 C836 2.136 . S
C3399 C870 2.136 . S
C3404 C1006 2.136 . S
C3429 C904 2.136 . S
C3434 C1040 2.136 . S
C3459 C938 2.136 . S
C3464 C1074 2.136 . S
