# Generated by pormake.
# Topology loh, (5)-cn, num edge types: 1
# Building blocks:
#     Node 0, Type 0, BuildingBlock: XOMCOT_clean_sbu_0, # of connection points: 5
#     Node 1, Type 0, BuildingBlock: XOMCOT_clean_sbu_0, # of connection points: 5
#     Node 2, Type 0, BuildingBlock: XOMCOT_clean_sbu_0, # of connection points: 5
#     Node 3, Type 0, BuildingBlock: XOMCOT_clean_sbu_0, # of connection points: 5
#     Node 4, Type 0, BuildingBlock: XOMCOT_clean_sbu_0, # of connection points: 5
#     Node 5, Type 0, BuildingBlock: XOMCOT_clean_sbu_0, # of connection points: 5
#     Node 6, Type 0, BuildingBlock: XOMCOT_clean_sbu_0, # of connection points: 5
#     Node 7, Type 0, BuildingBlock: XOMCOT_clean_sbu_0, # of connection points: 5
#     Edge 8, Type (0, 0), None
#     Edge 9, Type (0, 0), None
#     Edge 10, Type (0, 0), None
#     Edge 11, Type (0, 0), None
#     Edge 12, Type (0, 0), None
#     Edge 13, Type (0, 0), None
#     Edge 14, Type (0, 0), None
#     Edge 15, Type (0, 0), None
#     Edge 16, Type (0, 0), None
#     Edge 17, Type (0, 0), None
#     Edge 18, Type (0, 0), None
#     Edge 19, Type (0, 0), None
#     Edge 20, Type (0, 0), None
#     Edge 21, Type (0, 0), None
#     Edge 22, Type (0, 0), None
#     Edge 23, Type (0, 0), None
#     Edge 24, Type (0, 0), None
#     Edge 25, Type (0, 0), None
#     Edge 26, Type (0, 0), None
#     Edge 27, Type (0, 0), None
# Relax obj value: 0.232
# Max RMSD: 0.134
# Mean RMSD: 0.134
data_MOF--net-loh--node1-XOMCOT_clean_sbu_0--edge1-none
_symmetry_space_group_name_H-M    P1
_symmetry_Int_Tables_number       1
_symmetry_cell_setting            triclinic
loop_
_symmetry_equiv_pos_as_xyz
'x, y, z'
_cell_length_a     13.288869
_cell_length_b     11.623413
_cell_length_c     21.451337
_cell_angle_alpha  90.0
_cell_angle_beta   90.0
_cell_angle_gamma 90.004696
loop_
_atom_site_label
_atom_site_type_symbol
_atom_site_fract_x
_atom_site_fract_y
_atom_site_fract_z
_atom_type_partial_charge
Co0 Co 1.05964 0.32358 0.17226 0.0
C1 C 1.03557 0.09129 0.23322 0.0
C2 C 0.17912 0.11513 0.18892 0.0
C3 C 0.17534 1.00706 0.21451 0.0
N4 N 0.09166 0.16839 0.19993 0.0
N5 N 0.08659 0.99145 0.24325 0.0
H6 H 0.96258 0.11074 0.25301 0.0
H7 H 0.24316 0.15513 0.16716 0.0
C8 C 0.17127 0.33206 0.04117 0.0
O9 O 0.08829 0.35515 1.0107 0.0
N10 N 1.02307 0.47798 0.14733 0.0
C11 C 0.92722 0.51334 0.15269 0.0
C12 C 0.89667 0.5595 0.09719 0.0
C13 C 1.05536 0.52711 0.09502 0.0
N14 N 0.97797 0.56327 0.06053 0.0
C15 C 0.85125 0.27153 0.15119 0.0
C16 C 0.85905 0.2411 1.02398 0.0
C17 C 0.76751 0.27799 0.05046 0.0
C18 C 0.76365 0.28282 0.11574 0.0
C19 C 0.94505 0.22648 0.06261 0.0
N20 N 0.94353 0.26105 0.12358 0.0
H21 H 0.84447 0.28213 0.20084 0.0
H22 H 1.01206 0.18822 0.04335 0.0
H23 H 0.88005 0.49019 0.19074 0.0
H24 H 0.13224 0.5256 0.07932 0.0
O25 O 0.98911 0.34958 0.24928 0.0
O26 O 0.14723 0.39849 0.23472 0.0
O27 O 0.1685 0.31345 0.10079 0.0
C28 C 0.06655 0.40674 0.26901 0.0
H29 H 0.23563 0.94602 0.2168 0.0
H30 H 0.82028 0.57632 0.08252 0.0
H31 H 0.86366 0.22127 0.97475 0.0
H32 H 0.69342 0.29901 0.13977 0.0
Co33 Co 0.57926 0.80303 0.67226 0.0
C34 C 0.60333 1.03532 0.73322 0.0
C35 C 0.45977 1.01148 0.68892 0.0
C36 C 0.46356 0.11954 0.71451 0.0
N37 N 0.54724 0.95822 0.69993 0.0
N38 N 0.55231 0.13516 0.74325 0.0
H39 H 0.67632 1.01587 0.75301 0.0
H40 H 0.39574 0.97147 0.66716 0.0
C41 C 0.46763 0.79454 0.54117 0.0
O42 O 0.55061 0.77145 0.5107 0.0
N43 N 0.61583 0.64862 0.64733 0.0
C44 C 0.71168 0.61326 0.65269 0.0
C45 C 0.74223 0.5671 0.59719 0.0
C46 C 0.58354 0.5995 0.59502 0.0
N47 N 0.66093 0.56334 0.56053 0.0
C48 C 0.78765 0.85507 0.65119 0.0
C49 C 0.77985 0.8855 0.52398 0.0
C50 C 0.87139 0.84862 0.55046 0.0
C51 C 0.87525 0.84378 0.61574 0.0
C52 C 0.69385 0.90013 0.56261 0.0
N53 N 0.69537 0.86555 0.62358 0.0
H54 H 0.79443 0.84448 0.70084 0.0
H55 H 0.62683 0.93838 0.54335 0.0
H56 H 0.75885 0.63642 0.69074 0.0
H57 H 0.50666 0.60101 0.57932 0.0
O58 O 0.64979 0.77702 0.74928 0.0
O59 O 0.49167 0.72812 0.73472 0.0
O60 O 0.4704 0.81315 0.60079 0.0
C61 C 0.57235 0.71986 0.76901 0.0
H62 H 0.40327 0.18058 0.7168 0.0
H63 H 0.81862 0.55028 0.58252 0.0
H64 H 0.77524 0.90533 0.47475 0.0
H65 H 0.94548 0.8276 0.63977 0.0
Co66 Co 1.05969 0.80303 0.88356 0.0
C67 C 1.03563 1.03533 0.8226 0.0
C68 C 0.17919 1.01147 0.86689 0.0
C69 C 0.17545 0.11951 0.84128 0.0
N70 N 0.0917 0.95822 0.8559 0.0
N71 N 0.08669 0.13515 0.81256 0.0
H72 H 0.96262 1.01589 0.80283 0.0
H73 H 0.24322 0.97148 0.88866 0.0
C74 C 0.17129 0.79479 1.01466 0.0
O75 O 0.0883 0.77189 0.04516 0.0
N76 N 1.02318 0.64858 0.90849 0.0
C77 C 0.92732 0.61318 0.90316 0.0
C78 C 0.89668 0.5674 0.95874 0.0
C79 C 1.05541 0.59975 0.96089 0.0
N80 N 0.97794 0.564 0.99544 0.0
C81 C 0.85125 0.85486 0.90463 0.0
C82 C 0.85904 0.88575 0.0318 0.0
C83 C 0.7675 0.84872 1.00536 0.0
C84 C 0.76365 0.84365 0.94009 0.0
C85 C 0.94503 0.9003 0.99316 0.0
N86 N 0.94353 0.86549 0.93222 0.0
H87 H 0.84446 0.84413 0.85499 0.0
H88 H 1.01204 0.93867 1.01238 0.0
H89 H 0.88019 0.63608 0.86504 0.0
H90 H 0.13229 0.60122 0.97659 0.0
O91 O 0.98918 0.77699 0.80653 0.0
O92 O 0.1473 0.72815 0.82109 0.0
O93 O 0.16854 0.81321 0.95503 0.0
C94 C 0.06662 0.71987 0.7868 0.0
H95 H 0.23577 0.18051 0.83896 0.0
H96 H 0.82028 0.55059 0.9734 0.0
H97 H 0.86364 0.90577 0.08101 0.0
H98 H 0.69342 0.82736 0.91609 0.0
Co99 Co 0.57921 0.32358 0.38356 0.0
C100 C 0.60327 0.09128 0.3226 0.0
C101 C 0.45971 0.11514 0.36689 0.0
C102 C 0.46345 1.00709 0.34128 0.0
N103 N 0.54719 0.16838 0.3559 0.0
N104 N 0.55221 0.99146 0.31256 0.0
H105 H 0.67627 0.11072 0.30283 0.0
H106 H 0.39568 0.15513 0.38866 0.0
C107 C 0.46761 0.33181 0.51466 0.0
O108 O 0.5506 0.35472 0.54516 0.0
N109 N 0.61572 0.47803 0.40849 0.0
C110 C 0.71158 0.51342 0.40316 0.0
C111 C 0.74222 0.5592 0.45874 0.0
C112 C 0.58349 0.52686 0.46089 0.0
N113 N 0.66095 0.56261 0.49544 0.0
C114 C 0.78765 0.27174 0.40463 0.0
C115 C 0.77986 0.24086 0.5318 0.0
C116 C 0.8714 0.27788 0.50536 0.0
C117 C 0.87525 0.28295 0.44009 0.0
C118 C 0.69387 0.22631 0.49316 0.0
N119 N 0.69537 0.26111 0.43222 0.0
H120 H 0.79444 0.28248 0.35499 0.0
H121 H 0.62686 0.18793 0.51238 0.0
H122 H 0.7587 0.49052 0.36504 0.0
H123 H 0.50661 0.52538 0.47659 0.0
O124 O 0.64972 0.34961 0.30653 0.0
O125 O 0.4916 0.39845 0.32109 0.0
O126 O 0.47036 0.31339 0.45503 0.0
C127 C 0.57228 0.40674 0.2868 0.0
H128 H 0.40312 0.94609 0.33896 0.0
H129 H 0.81862 0.57602 0.4734 0.0
H130 H 0.77526 0.22083 0.58101 0.0
H131 H 0.94548 0.29924 0.41609 0.0
Co132 Co 0.55963 0.82361 0.17226 0.0
C133 C 0.53559 0.59135 0.23326 0.0
C134 C 0.67915 0.6152 0.18895 0.0
C135 C 0.67542 0.50716 0.21458 0.0
N136 N 0.59166 0.66844 0.19995 0.0
N137 N 0.58671 0.49161 0.24337 0.0
H138 H 0.46256 0.61076 0.25301 0.0
H139 H 0.74316 0.65519 0.16715 0.0
C140 C 0.67126 0.8321 0.04118 0.0
O141 O 0.58831 0.8552 1.01069 0.0
N142 N 0.52304 0.97801 0.14734 0.0
C143 C 0.42719 1.01335 0.15269 0.0
C144 C 0.39663 1.05949 0.09718 0.0
C145 C 0.55533 1.02713 0.09502 0.0
N146 N 0.47793 1.06327 0.06053 0.0
C147 C 0.35125 0.77151 0.1512 0.0
C148 C 0.35906 0.74116 1.02398 0.0
C149 C 0.2675 0.77796 0.05047 0.0
C150 C 0.26364 0.78277 0.11575 0.0
C151 C 0.44505 0.72653 0.06261 0.0
N152 N 0.44352 0.76107 0.12359 0.0
H153 H 0.34446 0.78208 0.20086 0.0
H154 H 0.51207 0.68829 0.04334 0.0
H155 H 0.38002 0.99019 0.19074 0.0
H156 H 0.63221 1.02563 0.07932 0.0
O157 O 0.48909 0.84963 0.24929 0.0
O158 O 0.64723 0.89852 0.23473 0.0
O159 O 0.66849 0.81349 0.1008 0.0
C160 C 0.56655 0.90677 0.26901 0.0
H161 H 0.73569 0.4461 0.21686 0.0
H162 H 0.32024 0.07628 0.08251 0.0
H163 H 0.36368 0.72137 0.97475 0.0
H164 H 0.1934 0.79891 0.13978 0.0
Co165 Co 0.07927 0.30299 0.67226 0.0
C166 C 0.10331 0.53526 0.73326 0.0
C167 C 0.95975 0.51141 0.68895 0.0
C168 C 0.96348 0.61945 0.71458 0.0
N169 N 1.04724 0.45817 0.69995 0.0
N170 N 1.05219 0.635 0.74337 0.0
H171 H 0.17633 0.51585 0.75301 0.0
H172 H 0.89574 0.47142 0.66715 0.0
C173 C 0.96763 0.29451 0.54118 0.0
O174 O 1.05059 0.2714 0.51069 0.0
N175 N 0.11586 0.1486 0.64734 0.0
C176 C 0.21171 0.11326 0.65269 0.0
C177 C 0.24227 0.06712 0.59718 0.0
C178 C 0.08357 0.09947 0.59502 0.0
N179 N 0.16097 0.06334 0.56053 0.0
C180 C 0.28765 0.3551 0.6512 0.0
C181 C 0.27984 0.38545 0.52398 0.0
C182 C 0.3714 0.34864 0.55047 0.0
C183 C 0.37526 0.34383 0.61575 0.0
C184 C 0.19385 0.40008 0.56261 0.0
N185 N 0.19537 0.36553 0.62359 0.0
H186 H 0.29444 0.34452 0.70086 0.0
H187 H 0.12682 0.43831 0.54334 0.0
H188 H 0.25888 0.13642 0.69074 0.0
H189 H 1.00669 0.10097 0.57932 0.0
O190 O 0.14981 0.27698 0.74929 0.0
O191 O 0.99167 0.22809 0.73473 0.0
O192 O 0.97041 0.31312 0.6008 0.0
C193 C 0.07235 0.21984 0.76901 0.0
H194 H 0.90321 0.68051 0.71686 0.0
H195 H 0.31866 1.05032 0.58251 0.0
H196 H 0.27522 0.40523 0.47475 0.0
H197 H 0.4455 0.32769 0.63978 0.0
Co198 Co 0.55968 0.30299 0.88355 0.0
C199 C 0.53565 0.53526 0.82256 0.0
C200 C 0.67921 0.51141 0.86686 0.0
C201 C 0.67551 0.61942 0.84122 0.0
N202 N 0.59171 0.45818 0.85588 0.0
N203 N 0.5868 0.63499 0.81244 0.0
H204 H 0.46261 0.51586 0.80283 0.0
H205 H 0.74322 0.47143 0.88868 0.0
C206 C 0.67129 0.29476 1.01465 0.0
O207 O 0.58831 0.27184 0.04516 0.0
N208 N 0.52316 0.14855 0.90848 0.0
C209 C 0.42729 0.11317 0.90316 0.0
C210 C 0.39664 0.06741 0.95874 0.0
C211 C 0.55537 0.09972 0.96089 0.0
N212 N 0.47791 0.064 0.99544 0.0
C213 C 0.35124 0.35488 0.90462 0.0
C214 C 0.35904 0.38569 0.0318 0.0
C215 C 0.26749 0.34874 1.00535 0.0
C216 C 0.26364 0.34369 0.94008 0.0
C217 C 0.44503 0.40024 0.99316 0.0
N218 N 0.44352 0.36547 0.93221 0.0
H219 H 0.34446 0.34416 0.85497 0.0
H220 H 0.51204 0.4386 1.01238 0.0
H221 H 0.38017 0.13608 0.86503 0.0
H222 H 0.63226 0.10119 0.97659 0.0
O223 O 0.48916 0.27695 0.80652 0.0
O224 O 0.64731 0.22812 0.82109 0.0
O225 O 0.66853 0.31318 0.95502 0.0
C226 C 0.56662 0.21984 0.78681 0.0
H227 H 0.73583 0.68044 0.83891 0.0
H228 H 0.32024 1.05062 0.9734 0.0
H229 H 0.36365 0.40567 0.08102 0.0
H230 H 0.1934 0.32745 0.91607 0.0
Co231 Co 0.07922 0.82362 0.38355 0.0
C232 C 0.10325 0.59134 0.32256 0.0
C233 C 0.95969 0.6152 0.36686 0.0
C234 C 0.96339 0.50718 0.34122 0.0
N235 N 1.04719 0.66843 0.35588 0.0
N236 N 1.0521 0.49162 0.31244 0.0
H237 H 0.17629 0.61074 0.30283 0.0
H238 H 0.89568 0.65517 0.38868 0.0
C239 C 0.96761 0.83185 0.51465 0.0
O240 O 1.05059 0.85477 0.54516 0.0
N241 N 0.11574 0.97806 0.40848 0.0
C242 C 0.21161 1.01343 0.40316 0.0
C243 C 0.24226 1.05919 0.45874 0.0
C244 C 0.08352 1.02688 0.46089 0.0
N245 N 0.16099 1.06261 0.49544 0.0
C246 C 0.28766 0.77173 0.40462 0.0
C247 C 0.27986 0.74091 0.5318 0.0
C248 C 0.37141 0.77786 0.50535 0.0
C249 C 0.37526 0.78291 0.44008 0.0
C250 C 0.19386 0.72636 0.49316 0.0
N251 N 0.19537 0.76113 0.43221 0.0
H252 H 0.29444 0.78244 0.35497 0.0
H253 H 0.12686 0.688 0.51238 0.0
H254 H 0.25873 0.99053 0.36503 0.0
H255 H 1.00664 1.02542 0.47659 0.0
O256 O 0.14974 0.84966 0.30652 0.0
O257 O 0.99159 0.89848 0.32109 0.0
O258 O 0.97037 0.81343 0.45502 0.0
C259 C 0.07227 0.90677 0.28681 0.0
H260 H 0.90307 0.44616 0.33891 0.0
H261 H 0.31866 0.07599 0.4734 0.0
H262 H 0.27525 0.72093 0.58102 0.0
H263 H 0.4455 0.79916 0.41607 0.0
loop_
_geom_bond_atom_site_label_1
_geom_bond_atom_site_label_2
_geom_bond_distance
_geom_bond_site_symmetry_2
_ccdc_geom_bond_type
Co0 N4 2.148 . S
Co0 N10 2.128 . S
Co0 N20 2.194 1_455 S
Co0 O25 2.351 1_455 S
Co0 O26 2.155 . S
Co0 O27 2.096 . S
C1 N4 1.301 . S
C1 N5 1.328 . S
C1 H6 0.930 1_455 S
C2 C3 1.333 . S
C2 N4 1.317 . S
C2 H7 0.930 . S
C3 C2 1.333 . S
C3 N5 1.350 . S
C3 H29 0.931 1_545 S
N4 Co0 2.148 . S
N4 C1 1.301 . S
N4 C2 1.317 . S
N5 C1 1.328 . S
N5 C3 1.350 . S
H6 C1 0.930 1_655 S
H7 C2 0.930 . S
C8 O9 1.224 . S
C8 O27 1.247 . S
O9 C8 1.224 . S
N10 Co0 2.128 . S
N10 C11 1.355 1_455 S
N10 C13 1.311 . S
C11 N10 1.355 1_655 S
C11 C12 1.363 . S
C11 H23 0.929 . S
C12 C11 1.363 . S
C12 N14 1.375 1_654 S
C12 H30 0.931 1_554 S
C13 N10 1.311 . S
C13 N14 1.347 1_554 S
C13 H24 0.929 . S
N14 C12 1.375 1_456 S
N14 C13 1.347 1_556 S
C15 C18 1.365 . S
C15 N20 1.328 . S
C15 H21 0.929 . S
C16 C17 1.362 . S
C16 C19 1.378 . S
C16 H31 0.929 1_554 S
C17 C16 1.362 . S
C17 C18 1.366 . S
C18 C15 1.365 . S
C18 C17 1.366 . S
C18 H32 0.930 . S
C19 C16 1.378 . S
C19 N20 1.315 . S
C19 H22 0.930 . S
N20 Co0 2.194 1_655 S
N20 C15 1.328 . S
N20 C19 1.315 . S
H21 C15 0.929 . S
H22 C19 0.930 . S
H23 C11 0.929 . S
H24 C13 0.929 . S
O25 Co0 2.351 1_655 S
O25 C28 1.244 1_655 S
O26 Co0 2.155 . S
O26 C28 1.240 . S
O27 Co0 2.096 . S
O27 C8 1.247 . S
C28 O25 1.244 1_455 S
C28 O26 1.240 . S
H29 C3 0.931 1_565 S
H30 C12 0.931 1_556 S
H31 C16 0.929 1_556 S
H32 C18 0.930 . S
Co33 N37 2.148 . S
Co33 N43 2.128 . S
Co33 N53 2.194 . S
Co33 O58 2.351 . S
Co33 O59 2.155 . S
Co33 O60 2.096 . S
C34 N37 1.301 . S
C34 N38 1.328 . S
C34 H39 0.930 . S
C35 C36 1.333 . S
C35 N37 1.317 . S
C35 H40 0.930 . S
C36 C35 1.333 . S
C36 N38 1.350 . S
C36 H62 0.931 1_565 S
N37 Co33 2.148 . S
N37 C34 1.301 . S
N37 C35 1.317 . S
N38 C34 1.328 . S
N38 C36 1.350 . S
H39 C34 0.930 . S
H40 C35 0.930 . S
C41 O42 1.224 . S
C41 O60 1.247 . S
O42 C41 1.224 . S
N43 Co33 2.128 . S
N43 C44 1.355 . S
N43 C46 1.311 . S
C44 N43 1.355 . S
C44 C45 1.363 . S
C44 H56 0.929 . S
C45 C44 1.363 . S
C45 N47 1.375 . S
C45 H63 0.931 . S
C46 N43 1.311 . S
C46 N47 1.347 . S
C46 H57 0.929 . S
N47 C45 1.375 . S
N47 C46 1.347 . S
C48 C51 1.365 . S
C48 N53 1.328 . S
C48 H54 0.929 . S
C49 C50 1.362 . S
C49 C52 1.378 . S
C49 H64 0.929 . S
C50 C49 1.362 . S
C50 C51 1.366 . S
C51 C48 1.365 . S
C51 C50 1.366 . S
C51 H65 0.930 . S
C52 C49 1.378 . S
C52 N53 1.315 . S
C52 H55 0.930 . S
N53 Co33 2.194 . S
N53 C48 1.328 . S
N53 C52 1.315 . S
H54 C48 0.929 . S
H55 C52 0.930 . S
H56 C44 0.929 . S
H57 C46 0.929 . S
O58 Co33 2.351 . S
O58 C61 1.244 . S
O59 Co33 2.155 . S
O59 C61 1.240 . S
O60 Co33 2.096 . S
O60 C41 1.247 . S
C61 O58 1.244 . S
C61 O59 1.240 . S
H62 C36 0.931 1_545 S
H63 C45 0.931 . S
H64 C49 0.929 . S
H65 C51 0.930 . S
Co66 N70 2.148 . S
Co66 N76 2.128 . S
Co66 N86 2.194 1_455 S
Co66 O91 2.351 1_455 S
Co66 O92 2.155 . S
Co66 O93 2.096 . S
C67 N70 1.301 . S
C67 N71 1.328 . S
C67 H72 0.930 1_455 S
C68 C69 1.333 . S
C68 N70 1.317 . S
C68 H73 0.930 . S
C69 C68 1.333 . S
C69 N71 1.350 . S
C69 H95 0.931 1_565 S
N70 Co66 2.148 . S
N70 C67 1.301 . S
N70 C68 1.317 . S
N71 C67 1.328 . S
N71 C69 1.350 . S
H72 C67 0.930 1_655 S
H73 C68 0.930 . S
C74 O75 1.224 . S
C74 O93 1.247 . S
O75 C74 1.224 . S
N76 Co66 2.128 . S
N76 C77 1.355 1_455 S
N76 C79 1.311 . S
C77 N76 1.355 1_655 S
C77 C78 1.363 . S
C77 H89 0.929 . S
C78 C77 1.363 . S
C78 N80 1.375 1_656 S
C78 H96 0.931 1_556 S
C79 N76 1.311 . S
C79 N80 1.347 1_556 S
C79 H90 0.929 . S
N80 C78 1.375 1_454 S
N80 C79 1.347 1_554 S
C81 C84 1.365 . S
C81 N86 1.328 . S
C81 H87 0.929 . S
C82 C83 1.362 . S
C82 C85 1.378 . S
C82 H97 0.929 1_556 S
C83 C82 1.362 . S
C83 C84 1.366 . S
C84 C81 1.365 . S
C84 C83 1.366 . S
C84 H98 0.930 . S
C85 C82 1.378 . S
C85 N86 1.315 . S
C85 H88 0.930 . S
N86 Co66 2.194 1_655 S
N86 C81 1.328 . S
N86 C85 1.315 . S
H87 C81 0.929 . S
H88 C85 0.930 . S
H89 C77 0.929 . S
H90 C79 0.929 . S
O91 Co66 2.351 1_655 S
O91 C94 1.244 1_655 S
O92 Co66 2.155 . S
O92 C94 1.240 . S
O93 Co66 2.096 . S
O93 C74 1.247 . S
C94 O91 1.244 1_455 S
C94 O92 1.240 . S
H95 C69 0.931 1_545 S
H96 C78 0.931 1_554 S
H97 C82 0.929 1_554 S
H98 C84 0.930 . S
Co99 N103 2.148 . S
Co99 N109 2.128 . S
Co99 N119 2.194 . S
Co99 O124 2.351 . S
Co99 O125 2.155 . S
Co99 O126 2.096 . S
C100 N103 1.301 . S
C100 N104 1.328 . S
C100 H105 0.930 . S
C101 C102 1.333 . S
C101 N103 1.317 . S
C101 H106 0.930 . S
C102 C101 1.333 . S
C102 N104 1.350 . S
C102 H128 0.931 1_545 S
N103 Co99 2.148 . S
N103 C100 1.301 . S
N103 C101 1.317 . S
N104 C100 1.328 . S
N104 C102 1.350 . S
H105 C100 0.930 . S
H106 C101 0.930 . S
C107 O108 1.224 . S
C107 O126 1.247 . S
O108 C107 1.224 . S
N109 Co99 2.128 . S
N109 C110 1.355 . S
N109 C112 1.311 . S
C110 N109 1.355 . S
C110 C111 1.363 . S
C110 H122 0.929 . S
C111 C110 1.363 . S
C111 N113 1.375 . S
C111 H129 0.931 . S
C112 N109 1.311 . S
C112 N113 1.347 . S
C112 H123 0.929 . S
N113 C111 1.375 . S
N113 C112 1.347 . S
C114 C117 1.365 . S
C114 N119 1.328 . S
C114 H120 0.929 . S
C115 C116 1.362 . S
C115 C118 1.378 . S
C115 H130 0.929 . S
C116 C115 1.362 . S
C116 C117 1.366 . S
C117 C114 1.365 . S
C117 C116 1.366 . S
C117 H131 0.930 . S
C118 C115 1.378 . S
C118 N119 1.315 . S
C118 H121 0.930 . S
N119 Co99 2.194 . S
N119 C114 1.328 . S
N119 C118 1.315 . S
H120 C114 0.929 . S
H121 C118 0.930 . S
H122 C110 0.929 . S
H123 C112 0.929 . S
O124 Co99 2.351 . S
O124 C127 1.244 . S
O125 Co99 2.155 . S
O125 C127 1.240 . S
O126 Co99 2.096 . S
O126 C107 1.247 . S
C127 O124 1.244 . S
C127 O125 1.240 . S
H128 C102 0.931 1_565 S
H129 C111 0.931 . S
H130 C115 0.929 . S
H131 C117 0.930 . S
Co132 N136 2.148 . S
Co132 N142 2.128 . S
Co132 N152 2.194 . S
Co132 O157 2.351 . S
Co132 O158 2.155 . S
Co132 O159 2.096 . S
C133 N136 1.301 . S
C133 N137 1.328 . S
C133 H138 0.930 . S
C134 C135 1.333 . S
C134 N136 1.317 . S
C134 H139 0.930 . S
C135 C134 1.333 . S
C135 N137 1.350 . S
C135 H161 0.931 . S
N136 Co132 2.148 . S
N136 C133 1.301 . S
N136 C134 1.317 . S
N137 C133 1.328 . S
N137 C135 1.350 . S
H138 C133 0.930 . S
H139 C134 0.930 . S
C140 O141 1.224 . S
C140 O159 1.247 . S
O141 C140 1.224 . S
N142 Co132 2.128 . S
N142 C143 1.355 . S
N142 C145 1.311 . S
C143 N142 1.355 . S
C143 C144 1.363 1_565 S
C143 H155 0.929 . S
C144 C143 1.363 1_545 S
C144 N146 1.375 1_554 S
C144 H162 0.931 1_554 S
C145 N142 1.311 . S
C145 N146 1.347 1_564 S
C145 H156 0.929 . S
N146 C144 1.375 1_556 S
N146 C145 1.347 1_546 S
C147 C150 1.365 . S
C147 N152 1.328 . S
C147 H153 0.929 . S
C148 C149 1.362 . S
C148 C151 1.378 . S
C148 H163 0.929 1_554 S
C149 C148 1.362 . S
C149 C150 1.366 . S
C150 C147 1.365 . S
C150 C149 1.366 . S
C150 H164 0.930 . S
C151 C148 1.378 . S
C151 N152 1.315 . S
C151 H154 0.930 . S
N152 Co132 2.194 . S
N152 C147 1.328 . S
N152 C151 1.315 . S
H153 C147 0.929 . S
H154 C151 0.930 . S
H155 C143 0.929 . S
H156 C145 0.929 . S
O157 Co132 2.351 . S
O157 C160 1.244 . S
O158 Co132 2.155 . S
O158 C160 1.240 . S
O159 Co132 2.096 . S
O159 C140 1.247 . S
C160 O157 1.244 . S
C160 O158 1.240 . S
H161 C135 0.931 . S
H162 C144 0.931 1_556 S
H163 C148 0.929 1_556 S
H164 C150 0.930 . S
Co165 N169 2.148 . S
Co165 N175 2.128 . S
Co165 N185 2.194 1_655 S
Co165 O190 2.351 1_655 S
Co165 O191 2.155 . S
Co165 O192 2.096 . S
C166 N169 1.301 1_455 S
C166 N170 1.328 1_455 S
C166 H171 0.930 . S
C167 C168 1.333 . S
C167 N169 1.317 . S
C167 H172 0.930 . S
C168 C167 1.333 . S
C168 N170 1.350 . S
C168 H194 0.931 . S
N169 Co165 2.148 . S
N169 C166 1.301 1_655 S
N169 C167 1.317 . S
N170 C166 1.328 1_655 S
N170 C168 1.350 . S
H171 C166 0.930 . S
H172 C167 0.930 . S
C173 O174 1.224 . S
C173 O192 1.247 . S
O174 C173 1.224 . S
N175 Co165 2.128 . S
N175 C176 1.355 1_655 S
N175 C178 1.311 . S
C176 N175 1.355 1_455 S
C176 C177 1.363 1_545 S
C176 H188 0.929 . S
C177 C176 1.363 1_565 S
C177 N179 1.375 1_455 S
C177 H195 0.931 . S
C178 N175 1.311 . S
C178 N179 1.347 1_545 S
C178 H189 0.929 . S
N179 C177 1.375 1_655 S
N179 C178 1.347 1_565 S
C180 C183 1.365 . S
C180 N185 1.328 . S
C180 H186 0.929 . S
C181 C182 1.362 . S
C181 C184 1.378 . S
C181 H196 0.929 . S
C182 C181 1.362 . S
C182 C183 1.366 . S
C183 C180 1.365 . S
C183 C182 1.366 . S
C183 H197 0.930 . S
C184 C181 1.378 . S
C184 N185 1.315 . S
C184 H187 0.930 . S
N185 Co165 2.194 1_455 S
N185 C180 1.328 . S
N185 C184 1.315 . S
H186 C180 0.929 . S
H187 C184 0.930 . S
H188 C176 0.929 . S
H189 C178 0.929 . S
O190 Co165 2.351 1_455 S
O190 C193 1.244 1_455 S
O191 Co165 2.155 . S
O191 C193 1.240 . S
O192 Co165 2.096 . S
O192 C173 1.247 . S
C193 O190 1.244 1_655 S
C193 O191 1.240 . S
H194 C168 0.931 . S
H195 C177 0.931 . S
H196 C181 0.929 . S
H197 C183 0.930 . S
Co198 N202 2.148 . S
Co198 N208 2.128 . S
Co198 N218 2.194 . S
Co198 O223 2.351 . S
Co198 O224 2.155 . S
Co198 O225 2.096 . S
C199 N202 1.301 . S
C199 N203 1.328 . S
C199 H204 0.930 . S
C200 C201 1.333 . S
C200 N202 1.317 . S
C200 H205 0.930 . S
C201 C200 1.333 . S
C201 N203 1.350 . S
C201 H227 0.931 . S
N202 Co198 2.148 . S
N202 C199 1.301 . S
N202 C200 1.317 . S
N203 C199 1.328 . S
N203 C201 1.350 . S
H204 C199 0.930 . S
H205 C200 0.930 . S
C206 O207 1.224 . S
C206 O225 1.247 . S
O207 C206 1.224 . S
N208 Co198 2.128 . S
N208 C209 1.355 . S
N208 C211 1.311 . S
C209 N208 1.355 . S
C209 C210 1.363 1_545 S
C209 H221 0.929 . S
C210 C209 1.363 1_565 S
C210 N212 1.375 1_556 S
C210 H228 0.931 1_556 S
C211 N208 1.311 . S
C211 N212 1.347 1_546 S
C211 H222 0.929 . S
N212 C210 1.375 1_554 S
N212 C211 1.347 1_564 S
C213 C216 1.365 . S
C213 N218 1.328 . S
C213 H219 0.929 . S
C214 C215 1.362 . S
C214 C217 1.378 . S
C214 H229 0.929 1_556 S
C215 C214 1.362 . S
C215 C216 1.366 . S
C216 C213 1.365 . S
C216 C215 1.366 . S
C216 H230 0.930 . S
C217 C214 1.378 . S
C217 N218 1.315 . S
C217 H220 0.930 . S
N218 Co198 2.194 . S
N218 C213 1.328 . S
N218 C217 1.315 . S
H219 C213 0.929 . S
H220 C217 0.930 . S
H221 C209 0.929 . S
H222 C211 0.929 . S
O223 Co198 2.351 . S
O223 C226 1.244 . S
O224 Co198 2.155 . S
O224 C226 1.240 . S
O225 Co198 2.096 . S
O225 C206 1.247 . S
C226 O223 1.244 . S
C226 O224 1.240 . S
H227 C201 0.931 . S
H228 C210 0.931 1_554 S
H229 C214 0.929 1_554 S
H230 C216 0.930 . S
Co231 N235 2.148 . S
Co231 N241 2.128 . S
Co231 N251 2.194 1_655 S
Co231 O256 2.351 1_655 S
Co231 O257 2.155 . S
Co231 O258 2.096 . S
C232 N235 1.301 1_455 S
C232 N236 1.328 1_455 S
C232 H237 0.930 . S
C233 C234 1.333 . S
C233 N235 1.317 . S
C233 H238 0.930 . S
C234 C233 1.333 . S
C234 N236 1.350 . S
C234 H260 0.931 . S
N235 Co231 2.148 . S
N235 C232 1.301 1_655 S
N235 C233 1.317 . S
N236 C232 1.328 1_655 S
N236 C234 1.350 . S
H237 C232 0.930 . S
H238 C233 0.930 . S
C239 O240 1.224 . S
C239 O258 1.247 . S
O240 C239 1.224 . S
N241 Co231 2.128 . S
N241 C242 1.355 1_655 S
N241 C244 1.311 . S
C242 N241 1.355 1_455 S
C242 C243 1.363 1_565 S
C242 H254 0.929 . S
C243 C242 1.363 1_545 S
C243 N245 1.375 1_455 S
C243 H261 0.931 . S
C244 N241 1.311 . S
C244 N245 1.347 1_565 S
C244 H255 0.929 . S
N245 C243 1.375 1_655 S
N245 C244 1.347 1_545 S
C246 C249 1.365 . S
C246 N251 1.328 . S
C246 H252 0.929 . S
C247 C248 1.362 . S
C247 C250 1.378 . S
C247 H262 0.929 . S
C248 C247 1.362 . S
C248 C249 1.366 . S
C249 C246 1.365 . S
C249 C248 1.366 . S
C249 H263 0.930 . S
C250 C247 1.378 . S
C250 N251 1.315 . S
C250 H253 0.930 . S
N251 Co231 2.194 1_455 S
N251 C246 1.328 . S
N251 C250 1.315 . S
H252 C246 0.929 . S
H253 C250 0.930 . S
H254 C242 0.929 . S
H255 C244 0.929 . S
O256 Co231 2.351 1_455 S
O256 C259 1.244 1_455 S
O257 Co231 2.155 . S
O257 C259 1.240 . S
O258 Co231 2.096 . S
O258 C239 1.247 . S
C259 O256 1.244 1_655 S
C259 O257 1.240 . S
H260 C234 0.931 . S
H261 C243 0.931 . S
H262 C247 0.929 . S
H263 C249 0.930 . S
C215 C8 2.643 1_556 S
C41 C248 2.644 . S
C149 C74 2.643 1_554 S
C107 C182 2.644 . S
C140 C83 2.643 1_554 S
C173 C116 2.644 . S
C17 C206 2.643 1_554 S
C50 C239 2.644 . S
C28 N236 2.150 1_455 S
C61 N203 2.150 . S
N170 C94 2.150 1_655 S
C127 N137 2.150 . S
C160 N104 2.150 1_565 S
N71 C193 2.150 1_465 S
N38 C226 2.150 1_565 S
N5 C259 2.150 1_445 S
N80 N14 0.800 1_554 S
N47 N113 0.800 . S
N212 N146 0.800 1_564 S
N245 N179 0.800 1_545 S
