# Generated by pormake.
# Topology cab, (5)-cn, num edge types: 1
# Building blocks:
#     Node 0, Type 0, BuildingBlock: XOMCOT_clean_sbu_0, # of connection points: 5
#     Node 1, Type 0, BuildingBlock: XOMCOT_clean_sbu_0, # of connection points: 5
#     Node 2, Type 0, BuildingBlock: XOMCOT_clean_sbu_0, # of connection points: 5
#     Node 3, Type 0, BuildingBlock: XOMCOT_clean_sbu_0, # of connection points: 5
#     Node 4, Type 0, BuildingBlock: XOMCOT_clean_sbu_0, # of connection points: 5
#     Node 5, Type 0, BuildingBlock: XOMCOT_clean_sbu_0, # of connection points: 5
#     Edge 6, Type (0, 0), BuildingBlock: UVAHIK_clean_linker_0, # of connection points: 2
#     Edge 7, Type (0, 0), BuildingBlock: UVAHIK_clean_linker_0, # of connection points: 2
#     Edge 8, Type (0, 0), BuildingBlock: UVAHIK_clean_linker_0, # of connection points: 2
#     Edge 9, Type (0, 0), BuildingBlock: UVAHIK_clean_linker_0, # of connection points: 2
#     Edge 10, Type (0, 0), BuildingBlock: UVAHIK_clean_linker_0, # of connection points: 2
#     Edge 11, Type (0, 0), BuildingBlock: UVAHIK_clean_linker_0, # of connection points: 2
#     Edge 12, Type (0, 0), BuildingBlock: UVAHIK_clean_linker_0, # of connection points: 2
#     Edge 13, Type (0, 0), BuildingBlock: UVAHIK_clean_linker_0, # of connection points: 2
#     Edge 14, Type (0, 0), BuildingBlock: UVAHIK_clean_linker_0, # of connection points: 2
#     Edge 15, Type (0, 0), BuildingBlock: UVAHIK_clean_linker_0, # of connection points: 2
#     Edge 16, Type (0, 0), BuildingBlock: UVAHIK_clean_linker_0, # of connection points: 2
#     Edge 17, Type (0, 0), BuildingBlock: UVAHIK_clean_linker_0, # of connection points: 2
#     Edge 18, Type (0, 0), BuildingBlock: UVAHIK_clean_linker_0, # of connection points: 2
#     Edge 19, Type (0, 0), BuildingBlock: UVAHIK_clean_linker_0, # of connection points: 2
#     Edge 20, Type (0, 0), BuildingBlock: UVAHIK_clean_linker_0, # of connection points: 2
# Relax obj value: 0.827
# Max RMSD: 0.221
# Mean RMSD: 0.218
data_MOF--net-cab--node1-XOMCOT_clean_sbu_0--edge1-UVAHIK_clean_linker_0
_symmetry_space_group_name_H-M    P1
_symmetry_Int_Tables_number       1
_symmetry_cell_setting            triclinic
loop_
_symmetry_equiv_pos_as_xyz
'x, y, z'
_cell_length_a     45.287414
_cell_length_b     45.321923
_cell_length_c     45.210738
_cell_angle_alpha  79.211805
_cell_angle_beta   78.055613
_cell_angle_gamma 79.663981
loop_
_atom_site_label
_atom_site_type_symbol
_atom_site_fract_x
_atom_site_fract_y
_atom_site_fract_z
_atom_type_partial_charge
Co0 Co 0.99643 0.98951 0.3678 0.0
C1 C 0.01247 0.92365 0.39035 0.0
C2 C 0.9661 0.93472 0.38408 0.0
C3 C 0.97284 0.90379 0.39082 0.0
N4 N 0.99072 0.94752 0.38438 0.0
N5 N 0.00218 0.89663 0.39452 0.0
H6 H 0.03602 0.92593 0.38914 0.0
H7 H 0.94555 0.94633 0.37623 0.0
C8 C 0.92936 -0.00091 0.39383 0.0
O9 O 0.93451 0.98684 0.42134 0.0
N10 N 0.0018 0.03084 0.34997 0.0
C11 C 0.02331 0.04635 0.35333 0.0
C12 C 0.02131 0.07363 0.33382 0.0
C13 C 0.98714 0.04866 0.32847 0.0
N14 N -0.0014 0.07501 0.31816 0.0
C15 C 0.01519 0.98201 0.42578 0.0
C16 C 0.98182 0.03528 0.44322 0.0
C17 C 0.0023 0.01797 0.46139 0.0
C18 C 0.01869 0.99075 0.45265 0.0
C19 C 0.97897 0.02568 0.41651 0.0
N20 N 0.99547 -0.00077 0.4081 0.0
H21 H 0.02979 0.96232 0.41838 0.0
H22 H 0.96428 0.04012 0.40195 0.0
H23 H 0.03978 0.03803 0.36833 0.0
H24 H 0.96948 0.04179 0.31952 0.0
O25 O 0.03975 0.97756 0.35681 0.0
O26 O 0.00611 0.97903 0.32696 0.0
O27 O 0.95116 0.00148 0.3709 0.0
C28 C 0.03454 0.97428 0.33046 0.0
H29 H 0.95812 0.88788 0.38959 0.0
H30 H 0.03577 0.0909 0.33107 0.0
H31 H 0.96881 0.05655 0.44907 0.0
H32 H 0.03551 0.97718 0.46542 0.0
Co33 Co 0.17958 0.14233 0.75547 0.0
C34 C 0.12522 0.15589 0.80431 0.0
C35 C 0.12208 0.11888 0.7822 0.0
C36 C 0.09635 0.1231 0.80404 0.0
N37 N 0.14002 0.13977 0.78184 0.0
N38 N 0.09841 0.14628 0.81791 0.0
H39 H 0.1336 0.17416 0.81082 0.0
H40 H 0.12751 0.1014 0.76778 0.0
C41 C 0.1999 0.08836 0.79704 0.0
O42 O 0.2039 0.10758 0.81375 0.0
N43 N 0.21894 0.14408 0.72966 0.0
C44 C 0.22577 0.16197 0.70254 0.0
C45 C 0.25708 0.1609 0.69517 0.0
C46 C 0.2458 0.13218 0.73823 0.0
N47 N 0.26947 0.142 0.71765 0.0
C48 C 0.13948 0.1498 0.71314 0.0
C49 C 0.1644 0.09765 0.68808 0.0
C50 C 0.13781 0.11501 0.67927 0.0
C51 C 0.12571 0.14171 0.69161 0.0
C52 C 0.17742 0.10652 0.70982 0.0
N53 N 0.16432 0.13178 0.72263 0.0
H54 H 0.12951 0.16997 0.7232 0.0
H55 H 0.19768 0.09282 0.71676 0.0
H56 H 0.20912 0.17628 0.69008 0.0
H57 H 0.24789 0.11881 0.76037 0.0
O58 O 0.17011 0.18613 0.74643 0.0
O59 O 0.19272 0.161 0.78452 0.0
O60 O 0.1915 0.09822 0.7713 0.0
C61 C 0.18234 0.18696 0.76978 0.0
H62 H 0.07788 0.10964 0.80989 0.0
H63 H 0.26961 0.17411 0.67573 0.0
H64 H 0.17451 0.07692 0.67899 0.0
H65 H 0.10559 0.15608 0.68492 0.0
Co66 Co 0.36034 0.04725 0.03871 0.0
C67 C 0.38387 0.07429 0.97467 0.0
C68 C 0.39741 0.02609 0.98273 0.0
C69 C 0.40878 0.03677 0.95282 0.0
N70 N 0.3818 0.04959 0.99659 0.0
N71 N 0.40017 0.06703 0.94773 0.0
H72 H 0.37323 0.09705 0.97798 0.0
H73 H 0.39989 0.00252 0.99313 0.0
C74 C 0.36949 0.98119 0.06434 0.0
O75 O 0.37495 0.9882 0.08942 0.0
N76 N 0.33818 0.04451 0.08061 0.0
C77 C 0.3393 0.06013 0.10293 0.0
C78 C 0.31592 0.05423 0.12701 0.0
C79 C 0.31384 0.02968 0.09143 0.0
N80 N 0.29994 0.03513 0.11969 0.0
C81 C 0.40502 0.07039 0.0606 0.0
C82 C 0.45087 0.02156 0.05465 0.0
C83 C 0.45606 0.0465 0.06594 0.0
C84 C 0.43282 0.0712 0.06872 0.0
C85 C 0.42244 0.02149 0.04725 0.0
N86 N 0.39939 0.04524 0.05139 0.0
H87 H 0.38823 0.09049 0.0612 0.0
H88 H 0.41961 0.00253 0.03745 0.0
H89 H 0.35474 0.07593 0.10181 0.0
H90 H 0.30558 0.01639 0.07816 0.0
O91 O 0.34829 0.09065 0.03347 0.0
O92 O 0.32147 0.05776 0.02494 0.0
O93 O 0.36407 0.00195 0.04199 0.0
C94 C 0.32356 0.08581 0.02601 0.0
H95 H 0.42099 0.02306 0.93568 0.0
H96 H 0.31062 0.0639 0.14798 0.0
H97 H 0.46868 0.0024 0.05137 0.0
H98 H 0.43647 0.09146 0.0761 0.0
Co99 Co 0.97612 0.35212 0.03747 0.0
C100 C 0.91364 0.38142 0.03152 0.0
C101 C 0.93561 0.35925 0.99301 0.0
C102 C 0.90712 0.37334 0.98811 0.0
N103 N 0.93957 0.36433 0.02022 0.0
N104 N 0.89329 0.38729 0.01233 0.0
H105 H 0.90958 0.38872 0.05366 0.0
H106 H 0.95223 0.34621 0.97777 0.0
C107 C 0.02691 0.36213 0.98494 0.0
O108 O 0.03866 0.37584 0.00195 0.0
N109 N 0.01348 0.33872 0.05411 0.0
C110 C 0.0238 0.34727 0.07672 0.0
C111 C 0.05169 0.33009 0.0799 0.0
C112 C 0.03475 0.31583 0.04475 0.0
N113 N 0.05844 0.31037 0.05973 0.0
C114 C 0.9742 0.40588 0.06356 0.0
C115 C 0.98624 0.4437 0.00837 0.0
C116 C 0.98772 0.45379 0.03537 0.0
C117 C 0.9798 0.43522 0.06341 0.0
C118 C 0.98036 0.41432 0.00971 0.0
N119 N 0.97784 0.39481 0.03679 0.0
H120 H 0.96802 0.3917 0.08519 0.0
H121 H 0.97913 0.4069 0.9887 0.0
H122 H 0.01223 0.36415 0.09063 0.0
H123 H 0.0331 0.30381 0.02674 0.0
O124 O 0.95249 0.34258 0.07803 0.0
O125 O 0.96949 0.31029 0.04496 0.0
O126 O 0.00128 0.3525 0.99513 0.0
C127 C 0.95558 0.31497 0.07225 0.0
H128 H 0.89729 0.37297 0.96834 0.0
H129 H 0.06562 0.3316 0.09619 0.0
H130 H 0.99065 0.45801 0.98635 0.0
H131 H 0.97956 0.44259 0.08492 0.0
Co132 Co 0.8281 0.15709 0.11312 0.0
C133 C 0.78724 0.21756 0.11389 0.0
C134 C 0.82188 0.21087 0.14143 0.0
C135 C 0.80385 0.23816 0.1452 0.0
N136 N 0.81122 0.19759 0.12224 0.0
N137 N 0.78205 0.24223 0.12799 0.0
H138 H 0.77365 0.2146 0.09806 0.0
H139 H 0.8412 0.20098 0.15242 0.0
C140 C 0.80095 0.14936 0.17909 0.0
O141 O 0.77748 0.16891 0.17166 0.0
N142 N 0.84607 0.11696 0.10463 0.0
C143 C 0.83966 0.10208 0.08411 0.0
C144 C 0.85792 0.07427 0.085 0.0
C145 C 0.86846 0.0984 0.1173 0.0
N146 N 0.87603 0.07209 0.10578 0.0
C147 C 0.77429 0.1601 0.0878 0.0
C148 C 0.75089 0.11309 0.12894 0.0
C149 C 0.73541 0.12734 0.1051 0.0
C150 C 0.74753 0.15106 0.08425 0.0
C151 C 0.77764 0.12271 0.1315 0.0
N152 N 0.78835 0.14695 0.11198 0.0
H153 H 0.78426 0.17706 0.07041 0.0
H154 H 0.79037 0.10957 0.14844 0.0
H155 H 0.82307 0.11091 0.06935 0.0
H156 H 0.87893 0.10404 0.13458 0.0
O157 O 0.83946 0.17304 0.0706 0.0
O158 O 0.8688 0.16837 0.10528 0.0
O159 O 0.8236 0.14168 0.15844 0.0
C160 C 0.86543 0.17601 0.07677 0.0
H161 H 0.80709 0.25422 0.15878 0.0
H162 H 0.85842 0.05726 0.07092 0.0
H163 H 0.74274 0.09429 0.14528 0.0
H164 H 0.73706 0.16186 0.06471 0.0
Co165 Co 0.15138 0.78511 0.09703 0.0
C166 C 0.1457 0.76162 0.1641 0.0
C167 C 0.19006 0.77302 0.14414 0.0
C168 C 0.18888 0.76461 0.17502 0.0
N169 N 0.16337 0.77014 0.13683 0.0
N170 N 0.16089 0.75762 0.18768 0.0
H171 H 0.12146 0.7612 0.16714 0.0
H172 H 0.20854 0.78291 0.12871 0.0
C173 C 0.21703 0.75962 0.07856 0.0
O174 O 0.21166 0.73366 0.09571 0.0
N175 N 0.14012 0.80145 0.05771 0.0
C176 C 0.1155 0.79809 0.04702 0.0
C177 C 0.11603 0.81539 0.01836 0.0
C178 C 0.15506 0.82069 0.03586 0.0
N179 N 0.14093 0.82965 0.01146 0.0
C180 C 0.12997 0.72741 0.11096 0.0
C181 C 0.15513 0.70958 0.05476 0.0
C182 C 0.1354 0.69201 0.07577 0.0
C183 C 0.12335 0.70073 0.10444 0.0
C184 C 0.16164 0.73583 0.06243 0.0
N185 N 0.14894 0.74462 0.09021 0.0
H186 H 0.1181 0.73514 0.13187 0.0
H187 H 0.17557 0.75001 0.04532 0.0
H188 H 0.09823 0.78442 0.05935 0.0
H189 H 0.17582 0.82806 0.03804 0.0
O190 O 0.10972 0.79574 0.11628 0.0
O191 O 0.14507 0.82611 0.10621 0.0
O192 O 0.19556 0.78208 0.07673 0.0
C193 C 0.1167 0.82228 0.11661 0.0
H194 H 0.20675 0.76542 0.18732 0.0
H195 H 0.09892 0.81789 0.00418 0.0
H196 H 0.16455 0.70366 0.03222 0.0
H197 H 0.10728 0.68815 0.1209 0.0
C198 C 0.95525 0.25933 0.09029 0.0
C199 C 0.94874 0.2892 0.09682 0.0
C200 C 0.955 0.23458 0.11398 0.0
C201 C 0.93282 0.21088 0.19791 0.0
H202 H 0.00675 0.1527 0.18685 0.0
C203 C 0.96015 0.10409 0.28774 0.0
C204 C 0.9901 0.09845 0.29375 0.0
C205 C 0.95216 0.12647 0.26365 0.0
C206 C 0.986 0.16875 0.19032 0.0
H207 H 0.93469 0.31647 0.13332 0.0
H208 H 0.93429 0.27328 0.17465 0.0
H209 H 0.99595 0.19294 0.14493 0.0
H210 H 0.03512 0.11182 0.27893 0.0
H211 H 0.02123 0.1508 0.23713 0.0
H212 H 0.92338 0.18693 0.24371 0.0
C213 C 0.93952 0.26896 0.15123 0.0
C214 C 0.97959 0.19161 0.16615 0.0
C215 C 0.9398 0.29375 0.12751 0.0
C216 C 0.01181 0.11575 0.27517 0.0
C217 C 0.00392 0.13788 0.25097 0.0
C218 C 0.93913 0.18779 0.22208 0.0
C219 C 0.9482 0.23912 0.14474 0.0
C220 C 0.95315 0.21322 0.16974 0.0
C221 C 0.97405 0.14344 0.24482 0.0
C222 C 0.96607 0.16677 0.2187 0.0
H223 H 0.96203 0.25502 0.06689 0.0
H224 H 0.9612 0.21186 0.10821 0.0
H225 H 0.91219 0.22708 0.20135 0.0
H226 H 0.94285 0.09133 0.3018 0.0
H227 H 0.929 0.13015 0.25942 0.0
C228 C 0.7803 0.14703 0.23501 0.0
C229 C 0.79918 0.13357 0.21078 0.0
C230 C 0.77832 0.13179 0.26509 0.0
C231 C 0.79201 0.05646 0.31076 0.0
H232 H 0.82971 0.09451 0.36041 0.0
C233 C 0.89097 -0.00053 0.36232 0.0
C234 C 0.89809 0.00765 0.38808 0.0
C235 C 0.86342 0.01168 0.35294 0.0
C236 C 0.81797 0.08376 0.3477 0.0
H237 H 0.82995 0.09343 0.19866 0.0
H238 H 0.82625 0.06671 0.25107 0.0
H239 H 0.80914 0.12505 0.31695 0.0
H240 H 0.88164 0.03315 0.42568 0.0
H241 H 0.83328 0.05587 0.40841 0.0
H242 H 0.80312 0.01472 0.33994 0.0
C243 C 0.81298 0.08899 0.24683 0.0
C244 C 0.80634 0.10128 0.32267 0.0
C245 C 0.81547 0.10442 0.21694 0.0
C246 C 0.8764 0.0266 0.40571 0.0
C247 C 0.84886 0.03949 0.39589 0.0
C248 C 0.8033 0.03902 0.33596 0.0
C249 C 0.79456 0.10259 0.27115 0.0
C250 C 0.79549 0.08723 0.30276 0.0
C251 C 0.84264 0.03288 0.36879 0.0
C252 C 0.81876 0.05209 0.35299 0.0
H253 H 0.76749 0.16952 0.23078 0.0
H254 H 0.76432 0.14279 0.28358 0.0
H255 H 0.78323 0.04532 0.2959 0.0
H256 H 0.9074 0.98475 0.3485 0.0
H257 H 0.85969 0.00647 0.3317 0.0
C258 C 0.00568 0.84071 0.40027 0.0
C259 C 0.02013 0.86685 0.39408 0.0
C260 C 0.02162 0.81321 0.39205 0.0
C261 C 0.09769 0.77405 0.3601 0.0
H262 H 0.0567 0.76413 0.29612 0.0
C263 C 0.15997 0.76537 0.24046 0.0
C264 C 0.14812 0.75307 0.21987 0.0
C265 C 0.1455 0.76444 0.27087 0.0
C266 C 0.06836 0.7655 0.31434 0.0
H267 H 0.06414 0.88283 0.37861 0.0
H268 H 0.09162 0.83519 0.3649 0.0
H269 H 0.02824 0.78948 0.33805 0.0
H270 H 0.11321 0.72781 0.21579 0.0
H271 H 0.08774 0.72609 0.26925 0.0
H272 H 0.13826 0.75148 0.3354 0.0
C273 C 0.06782 0.83605 0.37565 0.0
C274 C 0.05193 0.78014 0.3385 0.0
C275 C 0.05184 0.86364 0.38342 0.0
C276 C 0.1225 0.73803 0.23097 0.0
C277 C 0.10802 0.73695 0.2616 0.0
C278 C 0.11406 0.75898 0.33614 0.0
C279 C 0.05247 0.81113 0.37818 0.0
C280 C 0.06692 0.78638 0.3604 0.0
C281 C 0.11879 0.75106 0.28167 0.0
C282 C 0.10005 0.75658 0.31181 0.0
H283 H 0.98158 0.84189 0.40964 0.0
H284 H 0.00936 0.79417 0.39464 0.0
H285 H 0.10964 0.77819 0.377 0.0
H286 H 0.1794 0.77743 0.2328 0.0
H287 H 0.1542 0.77615 0.28527 0.0
C288 C 0.25147 0.0438 0.1558 0.0
C289 C 0.2722 0.02498 0.13717 0.0
C290 C 0.22449 0.03416 0.1727 0.0
C291 C 0.19036 0.96642 0.20895 0.0
H292 H 0.11477 0.02274 0.21325 0.0
C293 C 0.08996 0.96057 0.31046 0.0
C294 C 0.06006 0.96957 0.30477 0.0
C295 C 0.11485 0.96164 0.28637 0.0
C296 C 0.13553 0.00652 0.21195 0.0
H297 H 0.28104 0.98127 0.12173 0.0
H298 H 0.2338 0.96414 0.15174 0.0
H299 H 0.16013 0.0369 0.17757 0.0
H300 H 0.03262 0.98496 0.26931 0.0
H301 H 0.07622 0.987 0.22711 0.0
H302 H 0.16592 0.93644 0.24412 0.0
C303 C 0.23848 0.98643 0.15306 0.0
C304 C 0.16158 0.01477 0.19175 0.0
C305 C 0.26536 0.99627 0.13579 0.0
C306 C 0.05542 0.97784 0.27437 0.0
C307 C 0.08037 0.97922 0.25025 0.0
C308 C 0.16433 0.95826 0.22941 0.0
C309 C 0.21773 0.00536 0.1716 0.0
C310 C 0.18942 0.99509 0.1905 0.0
C311 C 0.11036 0.97201 0.25611 0.0
C312 C 0.13679 0.97848 0.23154 0.0
H313 H 0.25594 0.06616 0.15705 0.0
H314 H 0.2091 0.04911 0.18705 0.0
H315 H 0.21153 0.95084 0.20853 0.0
H316 H 0.09422 0.954 0.33368 0.0
H317 H 0.13764 0.95613 0.29169 0.0
C318 C 0.16949 0.87173 0.98525 0.0
C319 C 0.15005 0.851 0.9845 0.0
C320 C 0.17837 0.89246 0.95939 0.0
C321 C 0.15421 0.93378 0.88902 0.0
H322 H 0.23649 0.95379 0.87061 0.0
C323 C 0.18701 0.03638 0.79888 0.0
C324 C 0.2015 0.05582 0.8101 0.0
C325 C 0.18452 0.00692 0.81448 0.0
C326 C 0.21345 0.94842 0.87539 0.0
H327 H 0.12499 0.83589 0.95548 0.0
H328 H 0.14016 0.87268 0.91031 0.0
H329 H 0.22415 0.91031 0.90926 0.0
H330 H 0.2264 0.05906 0.84522 0.0
H331 H 0.2221 0.00799 0.87227 0.0
H332 H 0.14318 0.97264 0.85607 0.0
C333 C 0.14846 0.87267 0.93113 0.0
C334 C 0.20638 0.92355 0.89753 0.0
C335 C 0.13968 0.85169 0.95706 0.0
C336 C 0.21498 0.04468 0.83608 0.0
C337 C 0.2127 0.01527 0.85147 0.0
C338 C 0.16127 0.95872 0.86688 0.0
C339 C 0.16795 0.89324 0.93205 0.0
C340 C 0.17646 0.91655 0.90528 0.0
C341 C 0.19677 0.99631 0.84135 0.0
C342 C 0.19074 0.96688 0.86054 0.0
H343 H 0.17745 0.8725 0.00601 0.0
H344 H 0.19283 0.90849 0.96107 0.0
H345 H 0.13091 0.92906 0.89462 0.0
H346 H 0.17637 0.04436 0.7789 0.0
H347 H 0.17236 0.99272 0.80597 0.0
C348 C 0.42793 0.07945 0.89502 0.0
C349 C 0.40295 0.08598 0.91825 0.0
C350 C 0.42775 0.09362 0.8648 0.0
C351 C 0.38132 0.1516 0.81523 0.0
H352 H 0.39823 0.08845 0.76433 0.0
C353 C 0.31566 0.16323 0.71866 0.0
C354 C 0.30012 0.13813 0.72316 0.0
C355 C 0.34154 0.16109 0.73178 0.0
C356 C 0.39373 0.10654 0.778 0.0
H357 H 0.35933 0.1142 0.92849 0.0
H358 H 0.3585 0.13834 0.87607 0.0
H359 H 0.41863 0.07965 0.81127 0.0
H360 H 0.30102 0.09051 0.74164 0.0
H361 H 0.34574 0.08656 0.76461 0.0
H362 H 0.35367 0.17715 0.7836 0.0
C363 C 0.37864 0.12276 0.88094 0.0
C364 C 0.40572 0.10165 0.80487 0.0
C365 C 0.37898 0.1088 0.91115 0.0
C366 C 0.31259 0.11017 0.7381 0.0
C367 C 0.33842 0.10794 0.75103 0.0
C368 C 0.36902 0.15635 0.78853 0.0
C369 C 0.40241 0.11441 0.85717 0.0
C370 C 0.39803 0.12338 0.82479 0.0
C371 C 0.35229 0.13375 0.74941 0.0
C372 C 0.37348 0.13305 0.77071 0.0
H373 H 0.447 0.06236 0.90003 0.0
H374 H 0.44675 0.08713 0.84721 0.0
H375 H 0.37572 0.16919 0.82957 0.0
H376 H 0.30639 0.18508 0.70725 0.0
H377 H 0.35194 0.18128 0.7298 0.0
C378 C 0.15955 0.2409 0.77281 0.0
C379 C 0.17966 0.21516 0.78245 0.0
C380 C 0.15052 0.26441 0.79029 0.0
C381 C 0.13527 0.2675 0.87058 0.0
H382 H 0.11049 0.35391 0.8475 0.0
C383 C 0.03631 0.33301 0.94149 0.0
C384 C 0.04512 0.35423 0.95572 0.0
C385 C 0.05584 0.32156 0.91682 0.0
C386 C 0.11758 0.32985 0.85412 0.0
H387 H 0.2092 0.1955 0.81539 0.0
H388 H 0.19357 0.23661 0.84575 0.0
H389 H 0.14397 0.32438 0.80964 0.0
H390 H 0.08017 0.3819 0.95378 0.0
H391 H 0.11423 0.36193 0.91005 0.0
H392 H 0.10788 0.27251 0.91442 0.0
C393 C 0.18434 0.23837 0.8251 0.0
C394 C 0.13661 0.31305 0.83262 0.0
C395 C 0.19327 0.21488 0.80773 0.0
C396 C 0.07288 0.3654 0.94338 0.0
C397 C 0.09229 0.35416 0.91836 0.0
C398 C 0.11603 0.28411 0.89174 0.0
C399 C 0.16157 0.26243 0.81752 0.0
C400 C 0.1453 0.28163 0.84064 0.0
C401 C 0.08425 0.33146 0.90567 0.0
C402 C 0.10663 0.31522 0.88353 0.0
H403 H 0.14884 0.24177 0.75329 0.0
H404 H 0.13288 0.28267 0.78397 0.0
H405 H 0.14107 0.24325 0.87727 0.0
H406 H 0.01505 0.32401 0.95034 0.0
H407 H 0.04929 0.30405 0.90719 0.0
C408 C 0.92094 0.18026 0.05661 0.0
C409 C 0.89072 0.18402 0.05167 0.0
C410 C 0.9452 0.18217 0.03167 0.0
C411 C 0.96269 0.16322 0.9558 0.0
H412 H 0.03076 0.20873 0.9376 0.0
C413 C 0.04528 0.15943 0.84277 0.0
C414 C 0.07653 0.15735 0.84276 0.0
C415 C 0.02378 0.16694 0.86811 0.0
C416 C 0.01207 0.19561 0.94257 0.0
H417 H 0.86208 0.19544 0.01695 0.0
H418 H 0.90418 0.19844 0.97384 0.0
H419 H 0.99143 0.21493 0.98338 0.0
H420 H 0.10994 0.16267 0.86859 0.0
H421 H 0.07228 0.17482 0.91372 0.0
H422 H 0.98315 0.143 0.91618 0.0
C423 C 0.90918 0.19374 0.99684 0.0
C424 C 0.98959 0.19926 0.96869 0.0
C425 C 0.88509 0.19202 0.02157 0.0
C426 C 0.0859 0.16421 0.86812 0.0
C427 C 0.06431 0.17122 0.89387 0.0
C428 C 0.98516 0.15926 0.93015 0.0
C429 C 0.93947 0.1877 0.00158 0.0
C430 C 0.96445 0.18344 0.97514 0.0
C431 C 0.03298 0.17188 0.89446 0.0
C432 C 0.00989 0.17579 0.92275 0.0
H433 H 0.92596 0.17418 0.07957 0.0
H434 H 0.96842 0.17745 0.03585 0.0
H435 H 0.94387 0.15025 0.96064 0.0
H436 H 0.03753 0.15482 0.82321 0.0
H437 H -0.00014 0.16828 0.86721 0.0
C438 C 0.26992 0.10484 0.01779 0.0
C439 C 0.29805 0.11069 0.02207 0.0
C440 C 0.24468 0.12777 0.01831 0.0
C441 C 0.21462 0.19686 0.05187 0.0
H442 H 0.15628 0.211 0.99711 0.0
C443 C 0.11362 0.29427 0.05889 0.0
C444 C 0.08551 0.28851 0.05451 0.0
C445 C 0.14005 0.27341 0.05302 0.0
C446 C 0.17218 0.20709 0.01282 0.0
H447 H 0.32228 0.14551 0.02858 0.0
H448 H 0.27834 0.18539 0.02943 0.0
H449 H 0.20176 0.17315 0.98902 0.0
H450 H 0.06292 0.25614 0.04111 0.0
H451 H 0.10882 0.21943 0.03147 0.0
H452 H 0.18495 0.23006 0.07619 0.0
C453 C 0.27566 0.16303 0.02608 0.0
C454 C 0.19826 0.1855 0.00808 0.0
C455 C 0.30085 0.14022 0.02542 0.0
C456 C 0.08433 0.26138 0.0443 0.0
C457 C 0.11069 0.2404 0.03867 0.0
C458 C 0.1885 0.21823 0.05675 0.0
C459 C 0.24714 0.15688 0.02328 0.0
C460 C 0.21975 0.1802 0.02756 0.0
C461 C 0.13891 0.24616 0.04291 0.0
C462 C 0.16692 0.22364 0.03731 0.0
H463 H 0.26708 0.08229 0.01518 0.0
H464 H 0.22294 0.12235 0.01621 0.0
H465 H 0.2305 0.19287 0.06761 0.0
H466 H 0.11531 0.31521 0.06625 0.0
H467 H 0.16145 0.27887 0.05603 0.0
C468 C 0.36014 0.94222 0.03639 0.0
C469 C 0.3696 0.94918 0.06164 0.0
C470 C 0.35754 0.91241 0.03484 0.0
C471 C 0.35847 0.84675 0.03165 0.0
H472 H 0.31501 0.80781 0.10781 0.0
C473 C 0.25476 0.78953 0.04362 0.0
C474 C 0.24859 0.76588 0.06784 0.0
C475 C 0.28208 0.80132 0.03853 0.0
C476 C 0.32791 0.81775 0.08646 0.0
H477 H 0.38578 0.93004 0.10408 0.0
H478 H 0.38174 0.87771 0.10113 0.0
H479 H 0.34035 0.85042 0.10813 0.0
H480 H 0.26712 0.73402 0.10392 0.0
H481 H 0.31477 0.75519 0.09542 0.0
H482 H 0.34328 0.81559 0.00979 0.0
C483 C 0.37567 0.89546 0.08284 0.0
C484 C 0.34251 0.84231 0.08662 0.0
C485 C 0.37802 0.92544 0.08453 0.0
C486 C 0.27137 0.75224 0.08504 0.0
C487 C 0.29856 0.7644 0.08027 0.0
C488 C 0.3435 0.8224 0.03146 0.0
C489 C 0.36462 0.88869 0.05836 0.0
C490 C 0.35658 0.85813 0.05901 0.0
C491 C 0.30348 0.78996 0.05791 0.0
C492 C 0.32684 0.80868 0.0587 0.0
H493 H 0.35358 0.95996 0.01828 0.0
H494 H 0.34839 0.90831 0.01591 0.0
H495 H 0.36988 0.85786 0.01007 0.0
H496 H 0.23758 0.8003 0.02996 0.0
H497 H 0.2851 0.82117 0.02127 0.0
C498 C 0.75579 0.2813 0.09287 0.0
C499 C 0.76088 0.26951 0.12262 0.0
C500 C 0.74298 0.31157 0.08586 0.0
C501 C 0.75376 0.37751 0.11321 0.0
H502 H 0.74342 0.4087 0.02975 0.0
C503 C 0.85197 0.42046 0.04082 0.0
C504 C 0.86177 0.40083 0.01889 0.0
C505 C 0.8209 0.42727 0.05277 0.0
C506 C 0.746 0.40087 0.05335 0.0
H507 H 0.75151 0.27793 0.16944 0.0
H508 H 0.72835 0.33069 0.15747 0.0
H509 H 0.71398 0.36976 0.05969 0.0
H510 H 0.84629 0.3769 0.98902 0.0
H511 H 0.79315 0.38762 0.01009 0.0
H512 H 0.78792 0.40575 0.10626 0.0
C513 C 0.73534 0.31711 0.13921 0.0
C514 C 0.72905 0.3785 0.07056 0.0
C515 C 0.7487 0.28695 0.1461 0.0
C516 C 0.83974 0.39167 0.00622 0.0
C517 C 0.80884 0.39822 0.01829 0.0
C518 C 0.77071 0.39968 0.09603 0.0
C519 C 0.73495 0.33057 0.10857 0.0
C520 C 0.73599 0.36378 0.09911 0.0
C521 C 0.79917 0.41402 0.04346 0.0
C522 C 0.77005 0.40832 0.06459 0.0
H523 H 0.76467 0.26821 0.0744 0.0
H524 H 0.74299 0.32072 0.06196 0.0
H525 H 0.75891 0.36788 0.13567 0.0
H526 H 0.86837 0.42897 0.05015 0.0
H527 H 0.81426 0.44052 0.07131 0.0
C528 C 0.06191 0.84293 0.13209 0.0
C529 C 0.09259 0.84765 0.12467 0.0
C530 C 0.03848 0.86741 0.13473 0.0
C531 C 0.01778 0.94727 0.14507 0.0
H532 H 0.95937 0.94858 0.09292 0.0
C533 C 0.92733 0.05238 0.11815 0.0
C534 C 0.8993 0.04716 0.11298 0.0
C535 C 0.95081 0.02816 0.12259 0.0
C536 C 0.97501 0.94843 0.10812 0.0
H537 H 0.12279 0.8816 0.11622 0.0
H538 H 0.08155 0.92456 0.12132 0.0
H539 H 0.00022 0.90616 0.0969 0.0
H540 H 0.87311 0.01262 0.11022 0.0
H541 H 0.91333 0.97027 0.11917 0.0
H542 H 0.9922 0.98938 0.15674 0.0
C543 C 0.07581 0.90182 0.12487 0.0
C544 C -0.00143 0.9241 0.11024 0.0
C545 C 0.09937 0.87725 0.12191 0.0
C546 C 0.89471 0.01725 0.11361 0.0
C547 C 0.91789 0.99304 0.11856 0.0
C548 C 0.99383 0.97154 0.14331 0.0
C549 C 0.04515 0.89717 0.13032 0.0
C550 C 0.02016 0.9232 0.12875 0.0
C551 C 0.94655 -0.00184 0.12238 0.0
C552 C 0.97206 0.9724 0.12482 0.0
H553 H 0.05587 0.82042 0.13454 0.0
H554 H 0.01504 0.86317 0.13936 0.0
H555 H 0.03414 0.94707 0.15956 0.0
H556 H 0.93147 0.0753 0.11755 0.0
H557 H 0.97258 0.03312 0.12513 0.0
C558 C 0.09024 0.10671 0.66406 0.0
C559 C 0.12217 0.10497 0.65803 0.0
C560 C 0.07531 0.09745 0.64409 0.0
C561 C 0.08479 0.08584 0.56438 0.0
H562 H 0.01862 0.0382 0.59536 0.0
C563 C 0.01337 0.06014 0.48412 0.0
C564 C 0.00925 0.02963 0.4873 0.0
C565 C 0.02415 0.07029 0.50661 0.0
C566 C 0.03709 0.05146 0.58641 0.0
H567 H 0.16353 0.09204 0.62648 0.0
H568 H 0.13743 0.07555 0.59164 0.0
H569 H 0.04492 0.0529 0.6312 0.0
H570 H 0.01144 0.98629 0.51736 0.0
H571 H 0.03067 0.00396 0.55654 0.0
H572 H 0.07747 0.08393 0.51963 0.0
C573 C 0.12396 0.08435 0.61171 0.0
C574 C 0.05198 0.06005 0.6069 0.0
C575 C 0.13891 0.09352 0.63176 0.0
C576 C 0.0147 0.00985 0.51416 0.0
C577 C 0.02546 0.02003 0.53669 0.0
C578 C 0.06986 0.07736 0.54394 0.0
C579 C 0.092 0.08632 0.61764 0.0
C580 C 0.07607 0.07722 0.59605 0.0
C581 C 0.03104 0.05016 0.53274 0.0
C582 C 0.0459 0.06003 0.55473 0.0
H583 H 0.07677 0.11505 0.68437 0.0
H584 H 0.05065 0.09943 0.64912 0.0
H585 H 0.10305 0.09935 0.55537 0.0
H586 H 0.00966 0.07589 0.46358 0.0
H587 H 0.02781 0.09376 0.50318 0.0
C588 C 0.70507 0.08562 0.10698 0.0
C589 C 0.70745 0.11677 0.10139 0.0
C590 C 0.67852 0.0757 0.1041 0.0
C591 C 0.62629 0.05989 0.08039 0.0
H592 H 0.54848 0.10724 0.1077 0.0
C593 C 0.51276 0.0426 0.05149 0.0
C594 C 0.48605 0.04796 0.07307 0.0
C595 C 0.54059 0.04788 0.05664 0.0
C596 C 0.56997 0.09347 0.10037 0.0
H597 H 0.68387 0.16189 0.0881 0.0
H598 H 0.63793 0.14454 0.08208 0.0
H599 H 0.59525 0.12295 0.11332 0.0
H600 H 0.46751 0.061 0.11767 0.0
H601 H 0.51622 0.06935 0.12718 0.0
H602 H 0.60083 0.02999 0.06813 0.0
C603 C 0.65637 0.1278 0.08931 0.0
C604 C 0.59683 0.10279 0.10312 0.0
C605 C 0.68285 0.13773 0.09238 0.0
C606 C 0.48781 0.05711 0.10054 0.0
C607 C 0.51564 0.06204 0.10586 0.0
C608 C 0.59935 0.05044 0.07782 0.0
C609 C 0.65381 0.09669 0.09537 0.0
C610 C 0.62531 0.08627 0.09294 0.0
C611 C 0.54219 0.05832 0.0836 0.0
C612 C 0.57089 0.06723 0.08763 0.0
H613 H 0.72381 0.06882 0.11345 0.0
H614 H 0.6772 0.0516 0.10916 0.0
H615 H 0.64789 0.0468 0.07209 0.0
H616 H 0.51187 0.03578 0.03001 0.0
H617 H 0.56053 0.04508 0.03889 0.0
C618 C 0.1241 0.63868 0.08612 0.0
C619 C 0.12444 0.66679 0.06683 0.0
C620 C 0.11055 0.61605 0.07926 0.0
C621 C 0.04969 0.60657 0.04304 0.0
H622 H 0.08912 0.52313 0.04384 0.0
C623 C 0.98748 0.50241 0.05451 0.0
C624 C 0.00062 0.48182 0.0341 0.0
C625 C 0.00206 0.52686 0.05537 0.0
C626 C 0.07794 0.5464 0.04339 0.0
H627 H 0.1113 0.69339 0.02526 0.0
H628 H 0.08715 0.65383 0.01349 0.0
H629 H 0.11746 0.56161 0.05112 0.0
H630 H 0.03893 0.47085 0.99828 0.0
H631 H 0.06443 0.51337 3e-05 0.0
H632 H 0.00989 0.59114 0.03614 0.0
C633 C 0.0976 0.6493 0.03369 0.0
C634 C 0.09406 0.56828 0.0477 0.0
C635 C 0.11161 0.67173 0.04026 0.0
C636 C 0.02809 0.48658 0.01399 0.0
C637 C 0.04283 0.5107 0.01515 0.0
C638 C 0.03339 0.58456 0.03925 0.0
C639 C 0.09666 0.62144 0.05333 0.0
C640 C 0.08005 0.59851 0.04759 0.0
C641 C 0.03021 0.53071 0.03618 0.0
C642 C 0.04741 0.55432 0.0394 0.0
H643 H 0.13381 0.63447 0.10676 0.0
H644 H 0.10993 0.59475 0.0948 0.0
H645 H 0.03838 0.62975 0.04314 0.0
H646 H 0.96628 0.49925 0.07018 0.0
H647 H 0.99199 0.542 0.07186 0.0
loop_
_geom_bond_atom_site_label_1
_geom_bond_atom_site_label_2
_geom_bond_distance
_geom_bond_site_symmetry_2
_ccdc_geom_bond_type
Co0 N4 2.148 1_545 S
Co0 N10 2.128 . S
Co0 N20 2.194 . S
Co0 O25 2.351 . S
Co0 O26 2.155 . S
Co0 O27 2.096 1_455 S
C1 N4 1.301 . S
C1 N5 1.328 . S
C1 H6 0.930 . S
C2 C3 1.333 . S
C2 N4 1.317 . S
C2 H7 0.930 1_455 S
C3 C2 1.333 . S
C3 N5 1.350 . S
C3 H29 0.931 . S
N4 Co0 2.148 1_565 S
N4 C1 1.301 . S
N4 C2 1.317 . S
N5 C1 1.328 . S
N5 C3 1.350 . S
H6 C1 0.930 . S
H7 C2 0.930 1_655 S
C8 O9 1.224 . S
C8 O27 1.247 . S
O9 C8 1.224 . S
N10 Co0 2.128 . S
N10 C11 1.355 . S
N10 C13 1.311 . S
C11 N10 1.355 . S
C11 C12 1.363 . S
C11 H23 0.929 . S
C12 C11 1.363 . S
C12 N14 1.375 . S
C12 H30 0.931 . S
C13 N10 1.311 . S
C13 N14 1.347 . S
C13 H24 0.912 1_455 S
N14 C12 1.375 . S
N14 C13 1.347 . S
C15 C18 1.365 . S
C15 N20 1.328 . S
C15 H21 0.929 . S
C16 C17 1.362 . S
C16 C19 1.378 . S
C16 H31 0.929 1_455 S
C17 C16 1.362 . S
C17 C18 1.366 . S
C18 C15 1.365 . S
C18 C17 1.366 . S
C18 H32 0.930 . S
C19 C16 1.378 . S
C19 N20 1.315 . S
C19 H22 0.930 1_455 S
N20 Co0 2.194 . S
N20 C15 1.328 . S
N20 C19 1.315 . S
H21 C15 0.929 . S
H22 C19 0.930 1_655 S
H23 C11 0.929 . S
H24 C13 0.912 1_655 S
O25 Co0 2.351 . S
O25 C28 1.244 . S
O26 Co0 2.155 . S
O26 C28 1.240 . S
O27 Co0 2.096 1_655 S
O27 C8 1.247 . S
C28 O25 1.244 . S
C28 O26 1.240 . S
H29 C3 0.931 . S
H30 C12 0.931 . S
H31 C16 0.929 1_655 S
H32 C18 0.930 . S
Co33 N37 2.148 . S
Co33 N43 2.128 . S
Co33 N53 2.194 . S
Co33 O58 2.351 . S
Co33 O59 2.155 . S
Co33 O60 2.096 . S
C34 N37 1.301 . S
C34 N38 1.328 . S
C34 H39 0.930 . S
C35 C36 1.333 . S
C35 N37 1.317 . S
C35 H40 0.930 . S
C36 C35 1.333 . S
C36 N38 1.350 . S
C36 H62 0.931 . S
N37 Co33 2.148 . S
N37 C34 1.301 . S
N37 C35 1.317 . S
N38 C34 1.328 . S
N38 C36 1.350 . S
H39 C34 0.930 . S
H40 C35 0.930 . S
C41 O42 1.224 . S
C41 O60 1.247 . S
O42 C41 1.224 . S
N43 Co33 2.128 . S
N43 C44 1.355 . S
N43 C46 1.311 . S
C44 N43 1.355 . S
C44 C45 1.363 . S
C44 H56 0.929 . S
C45 C44 1.363 . S
C45 N47 1.375 . S
C45 H63 0.931 . S
C46 N43 1.311 . S
C46 N47 1.347 . S
C46 H57 0.929 . S
N47 C45 1.375 . S
N47 C46 1.347 . S
C48 C51 1.365 . S
C48 N53 1.328 . S
C48 H54 0.929 . S
C49 C50 1.362 . S
C49 C52 1.378 . S
C49 H64 0.929 . S
C50 C49 1.362 . S
C50 C51 1.366 . S
C51 C48 1.365 . S
C51 C50 1.366 . S
C51 H65 0.930 . S
C52 C49 1.378 . S
C52 N53 1.315 . S
C52 H55 0.930 . S
N53 Co33 2.194 . S
N53 C48 1.328 . S
N53 C52 1.315 . S
H54 C48 0.929 . S
H55 C52 0.930 . S
H56 C44 0.929 . S
H57 C46 0.929 . S
O58 Co33 2.351 . S
O58 C61 1.244 . S
O59 Co33 2.155 . S
O59 C61 1.240 . S
O60 Co33 2.096 . S
O60 C41 1.247 . S
C61 O58 1.244 . S
C61 O59 1.240 . S
H62 C36 0.931 . S
H63 C45 0.931 . S
H64 C49 0.929 . S
H65 C51 0.930 . S
Co66 N70 2.148 1_554 S
Co66 N76 2.128 . S
Co66 N86 2.194 . S
Co66 O91 2.351 . S
Co66 O92 2.155 . S
Co66 O93 2.096 . S
C67 N70 1.301 . S
C67 N71 1.328 . S
C67 H72 0.930 . S
C68 C69 1.333 . S
C68 N70 1.317 . S
C68 H73 0.930 1_545 S
C69 C68 1.333 . S
C69 N71 1.350 . S
C69 H95 0.931 . S
N70 Co66 2.148 1_556 S
N70 C67 1.301 . S
N70 C68 1.317 . S
N71 C67 1.328 . S
N71 C69 1.350 . S
H72 C67 0.930 . S
H73 C68 0.930 1_565 S
C74 O75 1.224 . S
C74 O93 1.247 1_565 S
O75 C74 1.224 . S
N76 Co66 2.128 . S
N76 C77 1.355 . S
N76 C79 1.311 . S
C77 N76 1.355 . S
C77 C78 1.363 . S
C77 H89 0.929 . S
C78 C77 1.363 . S
C78 N80 1.375 . S
C78 H96 0.931 . S
C79 N76 1.311 . S
C79 N80 1.347 . S
C79 H90 0.929 . S
N80 C78 1.375 . S
N80 C79 1.347 . S
C81 C84 1.365 . S
C81 N86 1.328 . S
C81 H87 0.929 . S
C82 C83 1.362 . S
C82 C85 1.378 . S
C82 H97 0.929 1_545 S
C83 C82 1.362 . S
C83 C84 1.366 . S
C84 C81 1.365 . S
C84 C83 1.366 . S
C84 H98 0.930 . S
C85 C82 1.378 . S
C85 N86 1.315 . S
C85 H88 0.930 1_545 S
N86 Co66 2.194 . S
N86 C81 1.328 . S
N86 C85 1.315 . S
H87 C81 0.929 . S
H88 C85 0.930 1_565 S
H89 C77 0.929 . S
H90 C79 0.929 . S
O91 Co66 2.351 . S
O91 C94 1.244 . S
O92 Co66 2.155 . S
O92 C94 1.240 . S
O93 Co66 2.096 . S
O93 C74 1.247 1_545 S
C94 O91 1.244 . S
C94 O92 1.240 . S
H95 C69 0.931 . S
H96 C78 0.931 . S
H97 C82 0.929 1_565 S
H98 C84 0.930 . S
Co99 N103 2.148 1_455 S
Co99 N109 2.128 . S
Co99 N119 2.194 . S
Co99 O124 2.351 . S
Co99 O125 2.155 . S
Co99 O126 2.096 1_554 S
C100 N103 1.301 . S
C100 N104 1.328 . S
C100 H105 0.930 . S
C101 C102 1.333 . S
C101 N103 1.317 . S
C101 H106 0.930 1_554 S
C102 C101 1.333 . S
C102 N104 1.350 . S
C102 H128 0.931 . S
N103 Co99 2.148 1_655 S
N103 C100 1.301 . S
N103 C101 1.317 . S
N104 C100 1.328 . S
N104 C102 1.350 . S
H105 C100 0.930 . S
H106 C101 0.930 1_556 S
C107 O108 1.224 . S
C107 O126 1.247 . S
O108 C107 1.224 . S
N109 Co99 2.128 . S
N109 C110 1.355 . S
N109 C112 1.311 . S
C110 N109 1.355 . S
C110 C111 1.363 . S
C110 H122 0.929 . S
C111 C110 1.363 . S
C111 N113 1.375 . S
C111 H129 0.931 . S
C112 N109 1.311 . S
C112 N113 1.347 . S
C112 H123 0.950 . S
N113 C111 1.375 . S
N113 C112 1.347 . S
C114 C117 1.365 . S
C114 N119 1.328 . S
C114 H120 0.929 . S
C115 C116 1.362 . S
C115 C118 1.378 . S
C115 H130 0.929 1_554 S
C116 C115 1.362 . S
C116 C117 1.366 . S
C117 C114 1.365 . S
C117 C116 1.366 . S
C117 H131 0.930 . S
C118 C115 1.378 . S
C118 N119 1.315 . S
C118 H121 0.930 1_554 S
N119 Co99 2.194 . S
N119 C114 1.328 . S
N119 C118 1.315 . S
H120 C114 0.929 . S
H121 C118 0.930 1_556 S
H122 C110 0.929 . S
H123 C112 0.950 . S
O124 Co99 2.351 . S
O124 C127 1.244 . S
O125 Co99 2.155 . S
O125 C127 1.240 . S
O126 Co99 2.096 1_556 S
O126 C107 1.247 . S
C127 O124 1.244 . S
C127 O125 1.240 . S
H128 C102 0.931 . S
H129 C111 0.931 . S
H130 C115 0.929 1_556 S
H131 C117 0.930 . S
Co132 N136 2.148 . S
Co132 N142 2.128 . S
Co132 N152 2.194 . S
Co132 O157 2.351 . S
Co132 O158 2.155 . S
Co132 O159 2.096 . S
C133 N136 1.301 . S
C133 N137 1.328 . S
C133 H138 0.930 . S
C134 C135 1.333 . S
C134 N136 1.317 . S
C134 H139 0.930 . S
C135 C134 1.333 . S
C135 N137 1.350 . S
C135 H161 0.931 . S
N136 Co132 2.148 . S
N136 C133 1.301 . S
N136 C134 1.317 . S
N137 C133 1.328 . S
N137 C135 1.350 . S
H138 C133 0.930 . S
H139 C134 0.930 . S
C140 O141 1.224 . S
C140 O159 1.247 . S
O141 C140 1.224 . S
N142 Co132 2.128 . S
N142 C143 1.355 . S
N142 C145 1.311 . S
C143 N142 1.355 . S
C143 C144 1.363 . S
C143 H155 0.929 . S
C144 C143 1.363 . S
C144 N146 1.375 . S
C144 H162 0.931 . S
C145 N142 1.311 . S
C145 N146 1.347 . S
C145 H156 0.929 . S
N146 C144 1.375 . S
N146 C145 1.347 . S
C147 C150 1.365 . S
C147 N152 1.328 . S
C147 H153 0.929 . S
C148 C149 1.362 . S
C148 C151 1.378 . S
C148 H163 0.929 . S
C149 C148 1.362 . S
C149 C150 1.366 . S
C150 C147 1.365 . S
C150 C149 1.366 . S
C150 H164 0.930 . S
C151 C148 1.378 . S
C151 N152 1.315 . S
C151 H154 0.930 . S
N152 Co132 2.194 . S
N152 C147 1.328 . S
N152 C151 1.315 . S
H153 C147 0.929 . S
H154 C151 0.930 . S
H155 C143 0.929 . S
H156 C145 0.929 . S
O157 Co132 2.351 . S
O157 C160 1.244 . S
O158 Co132 2.155 . S
O158 C160 1.240 . S
O159 Co132 2.096 . S
O159 C140 1.247 . S
C160 O157 1.244 . S
C160 O158 1.240 . S
H161 C135 0.931 . S
H162 C144 0.931 . S
H163 C148 0.929 . S
H164 C150 0.930 . S
Co165 N169 2.148 . S
Co165 N175 2.128 . S
Co165 N185 2.194 . S
Co165 O190 2.351 . S
Co165 O191 2.155 . S
Co165 O192 2.096 . S
C166 N169 1.301 . S
C166 N170 1.328 . S
C166 H171 0.930 . S
C167 C168 1.333 . S
C167 N169 1.317 . S
C167 H172 0.930 . S
C168 C167 1.333 . S
C168 N170 1.350 . S
C168 H194 0.931 . S
N169 Co165 2.148 . S
N169 C166 1.301 . S
N169 C167 1.317 . S
N170 C166 1.328 . S
N170 C168 1.350 . S
H171 C166 0.930 . S
H172 C167 0.930 . S
C173 O174 1.224 . S
C173 O192 1.247 . S
O174 C173 1.224 . S
N175 Co165 2.128 . S
N175 C176 1.355 . S
N175 C178 1.311 . S
C176 N175 1.355 . S
C176 C177 1.363 . S
C176 H188 0.929 . S
C177 C176 1.363 . S
C177 N179 1.375 . S
C177 H195 0.931 . S
C178 N175 1.311 . S
C178 N179 1.347 . S
C178 H189 0.929 . S
N179 C177 1.375 . S
N179 C178 1.347 . S
C180 C183 1.365 . S
C180 N185 1.328 . S
C180 H186 0.929 . S
C181 C182 1.362 . S
C181 C184 1.378 . S
C181 H196 0.929 . S
C182 C181 1.362 . S
C182 C183 1.366 . S
C183 C180 1.365 . S
C183 C182 1.366 . S
C183 H197 0.930 . S
C184 C181 1.378 . S
C184 N185 1.315 . S
C184 H187 0.930 . S
N185 Co165 2.194 . S
N185 C180 1.328 . S
N185 C184 1.315 . S
H186 C180 0.929 . S
H187 C184 0.930 . S
H188 C176 0.929 . S
H189 C178 0.929 . S
O190 Co165 2.351 . S
O190 C193 1.244 . S
O191 Co165 2.155 . S
O191 C193 1.240 . S
O192 Co165 2.096 . S
O192 C173 1.247 . S
C193 O190 1.244 . S
C193 O191 1.240 . S
H194 C168 0.931 . S
H195 C177 0.931 . S
H196 C181 0.929 . S
H197 C183 0.930 . S
C198 C199 1.349 . S
C198 C200 1.327 . S
C198 H223 0.950 . S
C199 C198 1.349 . S
C199 C215 1.349 1_455 S
C200 C198 1.327 . S
C200 C219 1.429 . S
C200 H224 0.950 . S
C201 C218 1.574 . S
C201 C220 1.368 1_655 S
C201 H225 0.949 . S
H202 C206 0.949 . S
C203 C204 1.349 1_655 S
C203 C205 1.327 . S
C203 H226 0.950 . S
C204 C203 1.349 1_455 S
C204 C216 1.349 . S
C205 C203 1.327 . S
C205 C221 1.429 1_655 S
C205 H227 0.950 . S
C206 H202 0.949 . S
C206 C214 1.574 . S
C206 C222 1.368 . S
H207 C215 0.950 . S
H208 C213 0.950 . S
H209 C214 0.949 . S
H210 C216 0.950 . S
H211 C217 0.950 . S
H212 C218 0.949 . S
C213 H208 0.950 . S
C213 C215 1.327 . S
C213 C219 1.429 1_655 S
C214 C206 1.574 . S
C214 H209 0.949 . S
C214 C220 1.368 . S
C215 C199 1.349 1_655 S
C215 H207 0.950 . S
C215 C213 1.327 . S
C216 C204 1.349 . S
C216 H210 0.950 . S
C216 C217 1.327 . S
C217 H211 0.950 . S
C217 C216 1.327 . S
C217 C221 1.429 . S
C218 C201 1.574 . S
C218 H212 0.949 . S
C218 C222 1.368 1_655 S
C219 C200 1.429 . S
C219 C213 1.429 1_455 S
C219 C220 1.523 . S
C220 C201 1.368 1_455 S
C220 C214 1.368 . S
C220 C219 1.523 . S
C221 C205 1.429 1_455 S
C221 C217 1.429 . S
C221 C222 1.523 . S
C222 C206 1.368 . S
C222 C218 1.368 1_455 S
C222 C221 1.523 . S
H223 C198 0.950 . S
H224 C200 0.950 . S
H225 C201 0.949 . S
H226 C203 0.950 . S
H227 C205 0.950 . S
C228 C229 1.349 . S
C228 C230 1.327 . S
C228 H253 0.950 . S
C229 C228 1.349 . S
C229 C245 1.349 . S
C230 C228 1.327 . S
C230 C249 1.429 . S
C230 H254 0.950 . S
C231 C248 1.574 . S
C231 C250 1.368 . S
C231 H255 0.949 . S
H232 C236 0.949 . S
C233 C234 1.349 . S
C233 C235 1.327 . S
C233 H256 0.950 1_545 S
C234 C233 1.349 . S
C234 C246 1.349 . S
C235 C233 1.327 . S
C235 C251 1.429 . S
C235 H257 0.950 . S
C236 H232 0.949 . S
C236 C244 1.574 . S
C236 C252 1.368 . S
H237 C245 0.950 . S
H238 C243 0.950 . S
H239 C244 0.949 . S
H240 C246 0.950 . S
H241 C247 0.950 . S
H242 C248 0.949 . S
C243 H238 0.950 . S
C243 C245 1.327 . S
C243 C249 1.429 . S
C244 C236 1.574 . S
C244 H239 0.949 . S
C244 C250 1.368 . S
C245 C229 1.349 . S
C245 H237 0.950 . S
C245 C243 1.327 . S
C246 C234 1.349 . S
C246 H240 0.950 . S
C246 C247 1.327 . S
C247 H241 0.950 . S
C247 C246 1.327 . S
C247 C251 1.429 . S
C248 C231 1.574 . S
C248 H242 0.949 . S
C248 C252 1.368 . S
C249 C230 1.429 . S
C249 C243 1.429 . S
C249 C250 1.523 . S
C250 C231 1.368 . S
C250 C244 1.368 . S
C250 C249 1.523 . S
C251 C235 1.429 . S
C251 C247 1.429 . S
C251 C252 1.523 . S
C252 C236 1.368 . S
C252 C248 1.368 . S
C252 C251 1.523 . S
H253 C228 0.950 . S
H254 C230 0.950 . S
H255 C231 0.949 . S
H256 C233 0.950 1_565 S
H257 C235 0.950 . S
C258 C259 1.349 . S
C258 C260 1.327 . S
C258 H283 0.950 . S
C259 C258 1.349 . S
C259 C275 1.349 . S
C260 C258 1.327 . S
C260 C279 1.429 . S
C260 H284 0.950 . S
C261 C278 1.574 . S
C261 C280 1.368 . S
C261 H285 0.949 . S
H262 C266 0.949 . S
C263 C264 1.349 . S
C263 C265 1.327 . S
C263 H286 0.950 . S
C264 C263 1.349 . S
C264 C276 1.349 . S
C265 C263 1.327 . S
C265 C281 1.429 . S
C265 H287 0.950 . S
C266 H262 0.949 . S
C266 C274 1.574 . S
C266 C282 1.368 . S
H267 C275 0.950 . S
H268 C273 0.950 . S
H269 C274 0.949 . S
H270 C276 0.950 . S
H271 C277 0.950 . S
H272 C278 0.949 . S
C273 H268 0.950 . S
C273 C275 1.327 . S
C273 C279 1.429 . S
C274 C266 1.574 . S
C274 H269 0.949 . S
C274 C280 1.368 . S
C275 C259 1.349 . S
C275 H267 0.950 . S
C275 C273 1.327 . S
C276 C264 1.349 . S
C276 H270 0.950 . S
C276 C277 1.327 . S
C277 H271 0.950 . S
C277 C276 1.327 . S
C277 C281 1.429 . S
C278 C261 1.574 . S
C278 H272 0.949 . S
C278 C282 1.368 . S
C279 C260 1.429 . S
C279 C273 1.429 . S
C279 C280 1.523 . S
C280 C261 1.368 . S
C280 C274 1.368 . S
C280 C279 1.523 . S
C281 C265 1.429 . S
C281 C277 1.429 . S
C281 C282 1.523 . S
C282 C266 1.368 . S
C282 C278 1.368 . S
C282 C281 1.523 . S
H283 C258 0.950 . S
H284 C260 0.950 . S
H285 C261 0.949 . S
H286 C263 0.950 . S
H287 C265 0.950 . S
C288 C289 1.349 . S
C288 C290 1.327 . S
C288 H313 0.950 . S
C289 C288 1.349 . S
C289 C305 1.349 1_545 S
C290 C288 1.327 . S
C290 C309 1.429 . S
C290 H314 0.950 . S
C291 C308 1.574 . S
C291 C310 1.368 1_565 S
C291 H315 0.949 . S
H292 C296 0.949 . S
C293 C294 1.349 1_565 S
C293 C295 1.327 . S
C293 H316 0.950 . S
C294 C293 1.349 1_545 S
C294 C306 1.349 . S
C295 C293 1.327 . S
C295 C311 1.429 1_565 S
C295 H317 0.950 . S
C296 H292 0.949 . S
C296 C304 1.574 . S
C296 C312 1.368 . S
H297 C305 0.950 . S
H298 C303 0.950 . S
H299 C304 0.949 . S
H300 C306 0.950 . S
H301 C307 0.950 . S
H302 C308 0.949 . S
C303 H298 0.950 . S
C303 C305 1.327 . S
C303 C309 1.429 1_565 S
C304 C296 1.574 . S
C304 H299 0.949 . S
C304 C310 1.368 . S
C305 C289 1.349 1_565 S
C305 H297 0.950 . S
C305 C303 1.327 . S
C306 C294 1.349 . S
C306 H300 0.950 . S
C306 C307 1.327 . S
C307 H301 0.950 . S
C307 C306 1.327 . S
C307 C311 1.429 . S
C308 C291 1.574 . S
C308 H302 0.949 . S
C308 C312 1.368 1_565 S
C309 C290 1.429 . S
C309 C303 1.429 1_545 S
C309 C310 1.523 . S
C310 C291 1.368 1_545 S
C310 C304 1.368 . S
C310 C309 1.523 . S
C311 C295 1.429 1_545 S
C311 C307 1.429 . S
C311 C312 1.523 . S
C312 C296 1.368 . S
C312 C308 1.368 1_545 S
C312 C311 1.523 . S
H313 C288 0.950 . S
H314 C290 0.950 . S
H315 C291 0.949 . S
H316 C293 0.950 . S
H317 C295 0.950 . S
C318 C319 1.349 1_556 S
C318 C320 1.327 . S
C318 H343 0.950 1_556 S
C319 C318 1.349 1_554 S
C319 C335 1.349 1_554 S
C320 C318 1.327 . S
C320 C339 1.429 . S
C320 H344 0.950 . S
C321 C338 1.574 . S
C321 C340 1.368 . S
C321 H345 0.949 . S
H322 C326 0.949 . S
C323 C324 1.349 . S
C323 C325 1.327 . S
C323 H346 0.950 . S
C324 C323 1.349 . S
C324 C336 1.349 . S
C325 C323 1.327 . S
C325 C341 1.429 1_545 S
C325 H347 0.950 1_545 S
C326 H322 0.949 . S
C326 C334 1.574 . S
C326 C342 1.368 . S
H327 C335 0.950 . S
H328 C333 0.950 . S
H329 C334 0.949 . S
H330 C336 0.950 . S
H331 C337 0.950 1_565 S
H332 C338 0.949 . S
C333 H328 0.950 . S
C333 C335 1.327 . S
C333 C339 1.429 . S
C334 C326 1.574 . S
C334 H329 0.949 . S
C334 C340 1.368 . S
C335 C319 1.349 1_556 S
C335 H327 0.950 . S
C335 C333 1.327 . S
C336 C324 1.349 . S
C336 H330 0.950 . S
C336 C337 1.327 . S
C337 H331 0.950 1_545 S
C337 C336 1.327 . S
C337 C341 1.429 1_545 S
C338 C321 1.574 . S
C338 H332 0.949 . S
C338 C342 1.368 . S
C339 C320 1.429 . S
C339 C333 1.429 . S
C339 C340 1.523 . S
C340 C321 1.368 . S
C340 C334 1.368 . S
C340 C339 1.523 . S
C341 C325 1.429 1_565 S
C341 C337 1.429 1_565 S
C341 C342 1.523 . S
C342 C326 1.368 . S
C342 C338 1.368 . S
C342 C341 1.523 . S
H343 C318 0.950 1_554 S
H344 C320 0.950 . S
H345 C321 0.949 . S
H346 C323 0.950 . S
H347 C325 0.950 1_565 S
C348 C349 1.349 . S
C348 C350 1.327 . S
C348 H373 0.950 . S
C349 C348 1.349 . S
C349 C365 1.349 . S
C350 C348 1.327 . S
C350 C369 1.429 . S
C350 H374 0.950 . S
C351 C368 1.574 . S
C351 C370 1.368 . S
C351 H375 0.949 . S
H352 C356 0.949 . S
C353 C354 1.349 . S
C353 C355 1.327 . S
C353 H376 0.950 . S
C354 C353 1.349 . S
C354 C366 1.349 . S
C355 C353 1.327 . S
C355 C371 1.429 . S
C355 H377 0.950 . S
C356 H352 0.949 . S
C356 C364 1.574 . S
C356 C372 1.368 . S
H357 C365 0.950 . S
H358 C363 0.950 . S
H359 C364 0.949 . S
H360 C366 0.950 . S
H361 C367 0.950 . S
H362 C368 0.949 . S
C363 H358 0.950 . S
C363 C365 1.327 . S
C363 C369 1.429 . S
C364 C356 1.574 . S
C364 H359 0.949 . S
C364 C370 1.368 . S
C365 C349 1.349 . S
C365 H357 0.950 . S
C365 C363 1.327 . S
C366 C354 1.349 . S
C366 H360 0.950 . S
C366 C367 1.327 . S
C367 H361 0.950 . S
C367 C366 1.327 . S
C367 C371 1.429 . S
C368 C351 1.574 . S
C368 H362 0.949 . S
C368 C372 1.368 . S
C369 C350 1.429 . S
C369 C363 1.429 . S
C369 C370 1.523 . S
C370 C351 1.368 . S
C370 C364 1.368 . S
C370 C369 1.523 . S
C371 C355 1.429 . S
C371 C367 1.429 . S
C371 C372 1.523 . S
C372 C356 1.368 . S
C372 C368 1.368 . S
C372 C371 1.523 . S
H373 C348 0.950 . S
H374 C350 0.950 . S
H375 C351 0.949 . S
H376 C353 0.950 . S
H377 C355 0.950 . S
C378 C379 1.349 . S
C378 C380 1.327 . S
C378 H403 0.950 . S
C379 C378 1.349 . S
C379 C395 1.349 . S
C380 C378 1.327 . S
C380 C399 1.429 . S
C380 H404 0.950 . S
C381 C398 1.574 . S
C381 C400 1.368 . S
C381 H405 0.949 . S
H382 C386 0.949 . S
C383 C384 1.349 . S
C383 C385 1.327 . S
C383 H406 0.950 . S
C384 C383 1.349 . S
C384 C396 1.349 . S
C385 C383 1.327 . S
C385 C401 1.429 . S
C385 H407 0.950 . S
C386 H382 0.949 . S
C386 C394 1.574 . S
C386 C402 1.368 . S
H387 C395 0.950 . S
H388 C393 0.950 . S
H389 C394 0.949 . S
H390 C396 0.950 . S
H391 C397 0.950 . S
H392 C398 0.949 . S
C393 H388 0.950 . S
C393 C395 1.327 . S
C393 C399 1.429 . S
C394 C386 1.574 . S
C394 H389 0.949 . S
C394 C400 1.368 . S
C395 C379 1.349 . S
C395 H387 0.950 . S
C395 C393 1.327 . S
C396 C384 1.349 . S
C396 H390 0.950 . S
C396 C397 1.327 . S
C397 H391 0.950 . S
C397 C396 1.327 . S
C397 C401 1.429 . S
C398 C381 1.574 . S
C398 H392 0.949 . S
C398 C402 1.368 . S
C399 C380 1.429 . S
C399 C393 1.429 . S
C399 C400 1.523 . S
C400 C381 1.368 . S
C400 C394 1.368 . S
C400 C399 1.523 . S
C401 C385 1.429 . S
C401 C397 1.429 . S
C401 C402 1.523 . S
C402 C386 1.368 . S
C402 C398 1.368 . S
C402 C401 1.523 . S
H403 C378 0.950 . S
H404 C380 0.950 . S
H405 C381 0.949 . S
H406 C383 0.950 . S
H407 C385 0.950 . S
C408 C409 1.349 . S
C408 C410 1.327 1_554 S
C408 H433 0.950 . S
C409 C408 1.349 . S
C409 C425 1.349 . S
C410 C408 1.327 1_556 S
C410 C429 1.429 . S
C410 H434 0.950 . S
C411 C428 1.574 . S
C411 C430 1.368 . S
C411 H435 0.949 . S
H412 C416 0.949 . S
C413 C414 1.349 . S
C413 C415 1.327 1_455 S
C413 H436 0.950 . S
C414 C413 1.349 . S
C414 C426 1.349 . S
C415 C413 1.327 1_655 S
C415 C431 1.429 . S
C415 H437 0.950 . S
C416 H412 0.949 . S
C416 C424 1.574 . S
C416 C432 1.368 . S
H417 C425 0.950 . S
H418 C423 0.950 . S
H419 C424 0.949 . S
H420 C426 0.950 . S
H421 C427 0.950 . S
H422 C428 0.949 . S
C423 H418 0.950 . S
C423 C425 1.327 1_556 S
C423 C429 1.429 . S
C424 C416 1.574 . S
C424 H419 0.949 . S
C424 C430 1.368 . S
C425 C409 1.349 . S
C425 H417 0.950 . S
C425 C423 1.327 1_554 S
C426 C414 1.349 . S
C426 H420 0.950 . S
C426 C427 1.327 . S
C427 H421 0.950 . S
C427 C426 1.327 . S
C427 C431 1.429 1_455 S
C428 C411 1.574 . S
C428 H422 0.949 . S
C428 C432 1.368 . S
C429 C410 1.429 . S
C429 C423 1.429 . S
C429 C430 1.523 . S
C430 C411 1.368 . S
C430 C424 1.368 . S
C430 C429 1.523 . S
C431 C415 1.429 . S
C431 C427 1.429 1_655 S
C431 C432 1.523 . S
C432 C416 1.368 . S
C432 C428 1.368 . S
C432 C431 1.523 . S
H433 C408 0.950 . S
H434 C410 0.950 . S
H435 C411 0.949 . S
H436 C413 0.950 . S
H437 C415 0.950 . S
C438 C439 1.349 1_556 S
C438 C440 1.327 . S
C438 H463 0.950 . S
C439 C438 1.349 1_554 S
C439 C455 1.349 . S
C440 C438 1.327 . S
C440 C459 1.429 1_556 S
C440 H464 0.950 . S
C441 C458 1.574 . S
C441 C460 1.368 . S
C441 H465 0.949 . S
H442 C446 0.949 . S
C443 C444 1.349 . S
C443 C445 1.327 . S
C443 H466 0.950 . S
C444 C443 1.349 . S
C444 C456 1.349 1_554 S
C445 C443 1.327 . S
C445 C461 1.429 . S
C445 H467 0.950 . S
C446 H442 0.949 . S
C446 C454 1.574 . S
C446 C462 1.368 1_556 S
H447 C455 0.950 . S
H448 C453 0.950 . S
H449 C454 0.949 . S
H450 C456 0.950 . S
H451 C457 0.950 . S
H452 C458 0.949 . S
C453 H448 0.950 . S
C453 C455 1.327 . S
C453 C459 1.429 . S
C454 C446 1.574 . S
C454 H449 0.949 . S
C454 C460 1.368 1_556 S
C455 C439 1.349 . S
C455 H447 0.950 . S
C455 C453 1.327 . S
C456 C444 1.349 1_556 S
C456 H450 0.950 . S
C456 C457 1.327 . S
C457 H451 0.950 . S
C457 C456 1.327 . S
C457 C461 1.429 1_556 S
C458 C441 1.574 . S
C458 H452 0.949 . S
C458 C462 1.368 . S
C459 C440 1.429 1_554 S
C459 C453 1.429 . S
C459 C460 1.523 . S
C460 C441 1.368 . S
C460 C454 1.368 1_554 S
C460 C459 1.523 . S
C461 C445 1.429 . S
C461 C457 1.429 1_554 S
C461 C462 1.523 . S
C462 C446 1.368 1_554 S
C462 C458 1.368 . S
C462 C461 1.523 . S
H463 C438 0.950 . S
H464 C440 0.950 . S
H465 C441 0.949 . S
H466 C443 0.950 . S
H467 C445 0.950 . S
C468 C469 1.349 . S
C468 C470 1.327 . S
C468 H493 0.950 . S
C469 C468 1.349 . S
C469 C485 1.349 . S
C470 C468 1.327 . S
C470 C489 1.429 . S
C470 H494 0.950 . S
C471 C488 1.574 . S
C471 C490 1.368 . S
C471 H495 0.949 . S
H472 C476 0.949 . S
C473 C474 1.349 . S
C473 C475 1.327 . S
C473 H496 0.950 . S
C474 C473 1.349 . S
C474 C486 1.349 . S
C475 C473 1.327 . S
C475 C491 1.429 . S
C475 H497 0.950 . S
C476 H472 0.949 . S
C476 C484 1.574 . S
C476 C492 1.368 . S
H477 C485 0.950 1_556 S
H478 C483 0.950 . S
H479 C484 0.949 . S
H480 C486 0.950 . S
H481 C487 0.950 . S
H482 C488 0.949 . S
C483 H478 0.950 . S
C483 C485 1.327 . S
C483 C489 1.429 . S
C484 C476 1.574 . S
C484 H479 0.949 . S
C484 C490 1.368 . S
C485 C469 1.349 . S
C485 H477 0.950 1_554 S
C485 C483 1.327 . S
C486 C474 1.349 . S
C486 H480 0.950 . S
C486 C487 1.327 . S
C487 H481 0.950 . S
C487 C486 1.327 . S
C487 C491 1.429 . S
C488 C471 1.574 . S
C488 H482 0.949 . S
C488 C492 1.368 . S
C489 C470 1.429 . S
C489 C483 1.429 . S
C489 C490 1.523 . S
C490 C471 1.368 . S
C490 C484 1.368 . S
C490 C489 1.523 . S
C491 C475 1.429 . S
C491 C487 1.429 . S
C491 C492 1.523 . S
C492 C476 1.368 . S
C492 C488 1.368 . S
C492 C491 1.523 . S
H493 C468 0.950 . S
H494 C470 0.950 . S
H495 C471 0.949 . S
H496 C473 0.950 . S
H497 C475 0.950 . S
C498 C499 1.349 . S
C498 C500 1.327 . S
C498 H523 0.950 . S
C499 C498 1.349 . S
C499 C515 1.349 . S
C500 C498 1.327 . S
C500 C519 1.429 . S
C500 H524 0.950 . S
C501 C518 1.574 . S
C501 C520 1.368 . S
C501 H525 0.949 . S
H502 C506 0.949 . S
C503 C504 1.349 . S
C503 C505 1.327 . S
C503 H526 0.950 . S
C504 C503 1.349 . S
C504 C516 1.349 . S
C505 C503 1.327 . S
C505 C521 1.429 . S
C505 H527 0.950 . S
C506 H502 0.949 . S
C506 C514 1.574 . S
C506 C522 1.368 . S
H507 C515 0.950 . S
H508 C513 0.950 . S
H509 C514 0.949 . S
H510 C516 0.950 . S
H511 C517 0.950 . S
H512 C518 0.949 . S
C513 H508 0.950 . S
C513 C515 1.327 . S
C513 C519 1.429 . S
C514 C506 1.574 . S
C514 H509 0.949 . S
C514 C520 1.368 . S
C515 C499 1.349 . S
C515 H507 0.950 . S
C515 C513 1.327 . S
C516 C504 1.349 . S
C516 H510 0.950 . S
C516 C517 1.327 . S
C517 H511 0.950 . S
C517 C516 1.327 . S
C517 C521 1.429 . S
C518 C501 1.574 . S
C518 H512 0.949 . S
C518 C522 1.368 . S
C519 C500 1.429 . S
C519 C513 1.429 . S
C519 C520 1.523 . S
C520 C501 1.368 . S
C520 C514 1.368 . S
C520 C519 1.523 . S
C521 C505 1.429 . S
C521 C517 1.429 . S
C521 C522 1.523 . S
C522 C506 1.368 . S
C522 C518 1.368 . S
C522 C521 1.523 . S
H523 C498 0.950 . S
H524 C500 0.950 . S
H525 C501 0.949 . S
H526 C503 0.950 . S
H527 C505 0.950 . S
C528 C529 1.349 . S
C528 C530 1.297 1_455 S
C528 H553 0.950 . S
C529 C528 1.349 . S
C529 C545 1.349 . S
C530 C528 1.297 1_655 S
C530 C549 1.430 . S
C530 H554 0.980 . S
C531 C548 1.574 . S
C531 C550 1.368 . S
C531 H555 0.949 . S
H532 C536 0.949 . S
C533 C534 1.349 . S
C533 C535 1.327 1_545 S
C533 H556 0.950 . S
C534 C533 1.349 . S
C534 C546 1.349 1_545 S
C535 C533 1.327 1_565 S
C535 C551 1.429 . S
C535 H557 0.950 . S
C536 H532 0.949 . S
C536 C544 1.574 . S
C536 C552 1.368 . S
H537 C545 0.950 . S
H538 C543 0.950 . S
H539 C544 0.949 . S
H540 C546 0.950 . S
H541 C547 0.950 . S
H542 C548 0.949 . S
C543 H538 0.950 . S
C543 C545 1.327 . S
C543 C549 1.429 1_455 S
C544 C536 1.574 . S
C544 H539 0.949 . S
C544 C550 1.368 . S
C545 C529 1.349 . S
C545 H537 0.950 . S
C545 C543 1.327 . S
C546 C534 1.349 1_565 S
C546 H540 0.950 . S
C546 C547 1.327 . S
C547 H541 0.950 . S
C547 C546 1.327 . S
C547 C551 1.429 . S
C548 C531 1.574 . S
C548 H542 0.949 . S
C548 C552 1.368 . S
C549 C530 1.430 . S
C549 C543 1.429 1_655 S
C549 C550 1.523 . S
C550 C531 1.368 . S
C550 C544 1.368 . S
C550 C549 1.523 . S
C551 C535 1.429 . S
C551 C547 1.429 . S
C551 C552 1.523 . S
C552 C536 1.368 . S
C552 C548 1.368 . S
C552 C551 1.523 . S
H553 C528 0.950 . S
H554 C530 0.980 . S
H555 C531 0.949 . S
H556 C533 0.950 . S
H557 C535 0.950 . S
C558 C559 1.349 . S
C558 C560 1.327 . S
C558 H583 0.950 . S
C559 C558 1.349 . S
C559 C575 1.349 . S
C560 C558 1.327 . S
C560 C579 1.429 . S
C560 H584 0.950 . S
C561 C578 1.574 . S
C561 C580 1.368 . S
C561 H585 0.949 . S
H562 C566 0.949 . S
C563 C564 1.349 . S
C563 C565 1.327 . S
C563 H586 0.950 . S
C564 C563 1.349 . S
C564 C576 1.349 . S
C565 C563 1.327 . S
C565 C581 1.429 . S
C565 H587 0.950 . S
C566 H562 0.949 . S
C566 C574 1.574 . S
C566 C582 1.368 . S
H567 C575 0.950 . S
H568 C573 0.950 . S
H569 C574 0.949 . S
H570 C576 0.950 . S
H571 C577 0.950 . S
H572 C578 0.949 . S
C573 H568 0.950 . S
C573 C575 1.327 . S
C573 C579 1.429 . S
C574 C566 1.574 . S
C574 H569 0.949 . S
C574 C580 1.368 . S
C575 C559 1.349 . S
C575 H567 0.950 . S
C575 C573 1.327 . S
C576 C564 1.349 . S
C576 H570 0.950 . S
C576 C577 1.327 . S
C577 H571 0.950 . S
C577 C576 1.327 . S
C577 C581 1.429 . S
C578 C561 1.574 . S
C578 H572 0.949 . S
C578 C582 1.368 . S
C579 C560 1.429 . S
C579 C573 1.429 . S
C579 C580 1.523 . S
C580 C561 1.368 . S
C580 C574 1.368 . S
C580 C579 1.523 . S
C581 C565 1.429 . S
C581 C577 1.429 . S
C581 C582 1.523 . S
C582 C566 1.368 . S
C582 C578 1.368 . S
C582 C581 1.523 . S
H583 C558 0.950 . S
H584 C560 0.950 . S
H585 C561 0.949 . S
H586 C563 0.950 . S
H587 C565 0.950 . S
C588 C589 1.349 . S
C588 C590 1.327 . S
C588 H613 0.950 . S
C589 C588 1.349 . S
C589 C605 1.349 . S
C590 C588 1.327 . S
C590 C609 1.429 . S
C590 H614 0.950 . S
C591 C608 1.574 . S
C591 C610 1.368 . S
C591 H615 0.949 . S
H592 C596 0.949 . S
C593 C594 1.349 . S
C593 C595 1.327 . S
C593 H616 0.950 1_554 S
C594 C593 1.349 . S
C594 C606 1.349 . S
C595 C593 1.327 . S
C595 C611 1.429 . S
C595 H617 0.950 1_554 S
C596 H592 0.949 . S
C596 C604 1.574 . S
C596 C612 1.368 . S
H597 C605 0.950 . S
H598 C603 0.950 . S
H599 C604 0.949 . S
H600 C606 0.950 . S
H601 C607 0.950 . S
H602 C608 0.949 . S
C603 H598 0.950 . S
C603 C605 1.327 . S
C603 C609 1.429 . S
C604 C596 1.574 . S
C604 H599 0.949 . S
C604 C610 1.368 . S
C605 C589 1.349 . S
C605 H597 0.950 . S
C605 C603 1.327 . S
C606 C594 1.349 . S
C606 H600 0.950 . S
C606 C607 1.327 . S
C607 H601 0.950 . S
C607 C606 1.327 . S
C607 C611 1.429 . S
C608 C591 1.574 . S
C608 H602 0.949 . S
C608 C612 1.368 . S
C609 C590 1.429 . S
C609 C603 1.429 . S
C609 C610 1.523 . S
C610 C591 1.368 . S
C610 C604 1.368 . S
C610 C609 1.523 . S
C611 C595 1.429 . S
C611 C607 1.429 . S
C611 C612 1.523 . S
C612 C596 1.368 . S
C612 C608 1.368 . S
C612 C611 1.523 . S
H613 C588 0.950 . S
H614 C590 0.950 . S
H615 C591 0.949 . S
H616 C593 0.950 1_556 S
H617 C595 0.950 1_556 S
C618 C619 1.349 . S
C618 C620 1.327 . S
C618 H643 0.950 . S
C619 C618 1.349 . S
C619 C635 1.349 . S
C620 C618 1.327 . S
C620 C639 1.429 . S
C620 H644 0.950 . S
C621 C638 1.574 . S
C621 C640 1.368 . S
C621 H645 0.949 . S
H622 C626 0.949 . S
C623 C624 1.349 . S
C623 C625 1.327 . S
C623 H646 0.950 1_455 S
C624 C623 1.349 . S
C624 C636 1.349 . S
C625 C623 1.327 . S
C625 C641 1.429 . S
C625 H647 0.950 . S
C626 H622 0.949 . S
C626 C634 1.574 . S
C626 C642 1.368 . S
H627 C635 0.950 . S
H628 C633 0.950 . S
H629 C634 0.949 . S
H630 C636 0.950 . S
H631 C637 0.950 . S
H632 C638 0.949 . S
C633 H628 0.950 . S
C633 C635 1.327 . S
C633 C639 1.429 . S
C634 C626 1.574 . S
C634 H629 0.949 . S
C634 C640 1.368 . S
C635 C619 1.349 . S
C635 H627 0.950 . S
C635 C633 1.327 . S
C636 C624 1.349 . S
C636 H630 0.950 . S
C636 C637 1.327 . S
C637 H631 0.950 . S
C637 C636 1.327 . S
C637 C641 1.429 . S
C638 C621 1.574 . S
C638 H632 0.949 . S
C638 C642 1.368 . S
C639 C620 1.429 . S
C639 C633 1.429 . S
C639 C640 1.523 . S
C640 C621 1.368 . S
C640 C634 1.368 . S
C640 C639 1.523 . S
C641 C625 1.429 . S
C641 C637 1.429 . S
C641 C642 1.523 . S
C642 C626 1.368 . S
C642 C638 1.368 . S
C642 C641 1.523 . S
H643 C618 0.950 . S
H644 C620 0.950 . S
H645 C621 0.949 . S
H646 C623 0.950 1_655 S
H647 C625 0.950 . S
C199 C127 1.356 . S
C204 N14 1.274 . S
C229 C140 0.502 . S
C234 C8 0.513 . S
C259 N5 0.859 . S
C264 N170 0.834 . S
C289 N80 1.281 . S
C294 C28 1.365 . S
C319 N179 1.321 . S
C324 C41 1.408 . S
C349 N71 0.846 . S
C354 N47 0.579 . S
C379 C61 0.514 . S
C384 C107 0.498 . S
C409 C160 1.331 . S
C414 N38 1.154 . S
C439 C94 1.331 . S
C444 N113 1.253 . S
C469 C74 0.395 . S
C474 C173 0.400 . S
C499 N137 0.910 . S
C504 N104 0.910 . S
C529 C193 1.386 . S
C534 N146 1.305 . S
C559 C50 0.912 . S
C564 C17 0.920 . S
C589 C149 0.759 . S
C594 C83 0.759 . S
C619 C182 0.774 . S
C624 C116 0.775 . S
