# Generated by pormake.
# Topology qtz-e, (6)-cn, num edge types: 1
# Building blocks:
#     Node 0, Type 0, BuildingBlock: UKALOJ_clean_sbu_0, # of connection points: 6
#     Node 1, Type 0, BuildingBlock: UKALOJ_clean_sbu_0, # of connection points: 6
#     Node 2, Type 0, BuildingBlock: UKALOJ_clean_sbu_0, # of connection points: 6
#     Node 3, Type 0, BuildingBlock: UKALOJ_clean_sbu_0, # of connection points: 6
#     Node 4, Type 0, BuildingBlock: UKALOJ_clean_sbu_0, # of connection points: 6
#     Node 5, Type 0, BuildingBlock: UKALOJ_clean_sbu_0, # of connection points: 6
#     Edge 6, Type (0, 0), BuildingBlock: TEMPAE_clean_linker_10, # of connection points: 2
#     Edge 7, Type (0, 0), BuildingBlock: TEMPAE_clean_linker_10, # of connection points: 2
#     Edge 8, Type (0, 0), BuildingBlock: TEMPAE_clean_linker_10, # of connection points: 2
#     Edge 9, Type (0, 0), BuildingBlock: TEMPAE_clean_linker_10, # of connection points: 2
#     Edge 10, Type (0, 0), BuildingBlock: TEMPAE_clean_linker_10, # of connection points: 2
#     Edge 11, Type (0, 0), BuildingBlock: TEMPAE_clean_linker_10, # of connection points: 2
#     Edge 12, Type (0, 0), BuildingBlock: TEMPAE_clean_linker_10, # of connection points: 2
#     Edge 13, Type (0, 0), BuildingBlock: TEMPAE_clean_linker_10, # of connection points: 2
#     Edge 14, Type (0, 0), BuildingBlock: TEMPAE_clean_linker_10, # of connection points: 2
#     Edge 15, Type (0, 0), BuildingBlock: TEMPAE_clean_linker_10, # of connection points: 2
#     Edge 16, Type (0, 0), BuildingBlock: TEMPAE_clean_linker_10, # of connection points: 2
#     Edge 17, Type (0, 0), BuildingBlock: TEMPAE_clean_linker_10, # of connection points: 2
#     Edge 18, Type (0, 0), BuildingBlock: TEMPAE_clean_linker_10, # of connection points: 2
#     Edge 19, Type (0, 0), BuildingBlock: TEMPAE_clean_linker_10, # of connection points: 2
#     Edge 20, Type (0, 0), BuildingBlock: TEMPAE_clean_linker_10, # of connection points: 2
#     Edge 21, Type (0, 0), BuildingBlock: TEMPAE_clean_linker_10, # of connection points: 2
#     Edge 22, Type (0, 0), BuildingBlock: TEMPAE_clean_linker_10, # of connection points: 2
#     Edge 23, Type (0, 0), BuildingBlock: TEMPAE_clean_linker_10, # of connection points: 2
# Relax obj value: 0.464
# Max RMSD: 0.263
# Mean RMSD: 0.263
data_MOF--net-qtz-e--node1-UKALOJ_clean_sbu_0--edge1-TEMPAE_clean_linker_10
_symmetry_space_group_name_H-M    P1
_symmetry_Int_Tables_number       1
_symmetry_cell_setting            triclinic
loop_
_symmetry_equiv_pos_as_xyz
'x, y, z'
_cell_length_a     27.696609
_cell_length_b     27.672225
_cell_length_c     37.530804
_cell_angle_alpha  89.879186
_cell_angle_beta   90.113186
_cell_angle_gamma 120.01327
loop_
_atom_site_label
_atom_site_type_symbol
_atom_site_fract_x
_atom_site_fract_y
_atom_site_fract_z
_atom_type_partial_charge
Zn0 Zn 0.23123 0.40827 0.01678 0.0
O1 O 0.16361 0.42088 0.0249 0.0
C2 C 0.15798 0.28977 0.03169 0.0
Zn3 Zn 0.19033 0.3633 0.96693 0.0
C4 C 0.12365 0.40521 0.003 0.0
O5 O 0.12221 0.37733 0.97573 0.0
C6 C 0.30395 0.37731 0.97935 0.0
O7 O 0.22937 0.43592 0.93647 0.0
O8 O 0.26907 0.48188 0.98565 0.0
N9 N 0.14979 0.31635 0.92313 0.0
C10 C 0.1683 0.30648 0.89237 0.0
C11 C 0.08006 0.25272 0.89358 0.0
N12 N 0.09493 0.28338 0.92363 0.0
N13 N 0.12524 0.26663 0.87333 0.0
C14 C 0.2486 0.46226 0.09082 0.0
C15 C 0.33429 0.52543 0.08878 0.0
N16 N 0.26969 0.45522 0.06028 0.0
N17 N 0.32311 0.49403 0.05924 0.0
N18 N 0.2881 0.50658 0.1089 0.0
H19 H 0.17432 0.38117 0.09543 0.0
H20 H 0.16189 0.4385 0.09184 0.0
H21 H 0.18761 0.42656 0.13297 0.0
C22 C 0.18988 0.42487 0.10352 0.0
C23 C 0.22898 0.33147 0.88332 0.0
H24 H 0.25315 0.37432 0.89416 0.0
H25 H 0.23651 0.33365 0.85435 0.0
H26 H 0.24483 0.30534 0.89523 0.0
O27 O 0.26252 0.35489 0.95814 0.0
O28 O 0.29974 0.39873 0.00809 0.0
C29 C 0.26141 0.48148 0.95226 0.0
O30 O 0.19306 0.33471 0.04694 0.0
O31 O 0.14985 0.28985 -0.00163 0.0
Zn32 Zn 0.83021 0.19218 0.30973 0.0
O33 O 0.79672 0.22885 0.2768 0.0
C34 C 0.9275 0.30689 0.32161 0.0
Zn35 Zn 0.82151 0.23409 0.3576 0.0
C36 C 0.78323 0.2624 0.29036 0.0
O37 O 0.78904 0.27213 0.32361 0.0
C38 C 0.86595 0.1616 0.37797 0.0
O39 O 0.74061 0.16477 0.3645 0.0
O40 O 0.74898 0.1227 0.31735 0.0
N41 N 0.81288 0.27361 0.40044 0.0
C42 C 0.76809 0.27378 0.41398 0.0
C43 C 0.83559 0.31948 0.4499 0.0
N44 N 0.85502 0.3026 0.42255 0.0
N45 N 0.78121 0.30206 0.44493 0.0
C46 C 0.86478 0.17061 0.23524 0.0
C47 C 0.87292 0.09943 0.2461 0.0
N48 N 0.84497 0.15301 0.26835 0.0
N49 N 0.84935 0.1083 0.2748 0.0
N50 N 0.88379 0.13835 0.22094 0.0
H51 H 0.81737 0.20775 0.21748 0.0
H52 H 0.8715 0.2185 0.18754 0.0
H53 H 0.88837 0.25689 0.22925 0.0
C54 C 0.86086 0.21625 0.21616 0.0
C55 C 0.71129 0.2464 0.39724 0.0
H56 H 0.71327 0.24128 0.36818 0.0
H57 H 0.69081 0.27138 0.40254 0.0
H58 H 0.68515 0.20475 0.40938 0.0
O59 O 0.85332 0.19584 0.39138 0.0
O60 O 0.86258 0.15435 0.34448 0.0
C61 C 0.71964 0.12366 0.34311 0.0
O62 O 0.90978 0.26503 0.30093 0.0
O63 O 0.90064 0.30285 0.34978 0.0
Zn64 Zn 0.57527 0.816 0.69599 0.0
O65 O 0.55317 0.7314 0.70024 0.0
C66 C 0.68937 0.85477 0.72092 0.0
Zn67 Zn 0.62809 0.81874 0.65167 0.0
C68 C 0.57755 0.70915 0.68421 0.0
O69 O 0.61742 0.73862 0.66289 0.0
C70 C 0.61419 0.92023 0.65983 0.0
O71 O 0.55866 0.78014 0.61804 0.0
O72 O 0.5096 0.7921 0.65941 0.0
N73 N 0.68371 0.83313 0.61118 0.0
C74 C 0.68571 0.85214 0.57778 0.0
C75 C 0.76722 0.86781 0.59058 0.0
N76 N 0.73425 0.84221 0.61883 0.0
N77 N 0.73814 0.87546 0.56451 0.0
C78 C 0.51376 0.78493 0.76865 0.0
C79 C 0.4587 0.81732 0.76253 0.0
N80 N 0.52317 0.80887 0.73623 0.0
N81 N 0.48936 0.82946 0.73262 0.0
N82 N 0.47353 0.78987 0.78581 0.0
H83 H 0.51037 0.71281 0.79316 0.0
H84 H 0.5704 0.77858 0.80468 0.0
H85 H 0.56733 0.74882 0.76231 0.0
C86 C 0.54187 0.75429 0.78266 0.0
C87 C 0.63526 0.84354 0.55747 0.0
H88 H 0.60217 0.79917 0.55934 0.0
H89 H 0.64428 0.85322 0.52876 0.0
H90 H 0.6192 0.86956 0.56909 0.0
O91 O 0.63291 0.8969 0.6393 0.0
O92 O 0.59503 0.89862 0.68999 0.0
C93 C 0.51324 0.77639 0.62827 0.0
O94 O 0.64062 0.83911 0.73226 0.0
O95 O 0.69737 0.85576 0.68754 0.0
Zn96 Zn 0.77008 0.57502 0.02123 0.0
O97 O 0.83246 0.55334 0.02423 0.0
C98 C 0.84801 0.6897 0.04532 0.0
Zn99 Zn 0.81716 0.62937 0.97588 0.0
C100 C 0.87698 0.57621 0.00599 0.0
O101 O 0.88484 0.61425 0.98372 0.0
C102 C 0.70413 0.61806 0.98876 0.0
O103 O 0.78094 0.56098 0.94124 0.0
O104 O 0.72714 0.50907 0.98484 0.0
N105 N 0.85884 0.68342 0.93473 0.0
C106 C 0.84116 0.6915 0.90293 0.0
C107 C 0.92386 0.75897 0.91068 0.0
N108 N 0.91051 0.72504 0.93923 0.0
N109 N 0.88117 0.73879 0.88732 0.0
C110 C 0.74345 0.51392 0.09427 0.0
C111 C 0.65609 0.45744 0.0895 0.0
N112 N 0.72731 0.52281 0.0622 0.0
N113 N 0.67297 0.48805 0.05944 0.0
N114 N 0.69936 0.4731 0.11203 0.0
H115 H 0.81363 0.51258 0.1181 0.0
H116 H 0.80728 0.57246 0.129 0.0
H117 H 0.83269 0.56833 0.08642 0.0
C118 C 0.80268 0.54327 0.10736 0.0
C119 C 0.7833 0.65571 0.88844 0.0
H120 H 0.75638 0.6218 0.90677 0.0
H121 H 0.78526 0.63584 0.86331 0.0
H122 H 0.76413 0.68176 0.88254 0.0
O123 O 0.74582 0.6395 0.96784 0.0
O124 O 0.7066 0.59415 0.01693 0.0
C125 C 0.74181 0.51438 0.95236 0.0
O126 O 0.81393 0.64118 0.05685 0.0
O127 O 0.8548 0.69777 0.01191 0.0
Zn128 Zn 0.193 0.77143 0.35192 0.0
O129 O 0.27771 0.83258 0.35557 0.0
C130 C 0.15905 0.85208 0.37302 0.0
Zn131 Zn 0.19128 0.81898 0.30519 0.0
C132 C 0.30205 0.87675 0.33699 0.0
O133 O 0.27425 0.88596 0.31362 0.0
C134 C 0.08628 0.70702 0.31832 0.0
O135 O 0.22374 0.78051 0.27228 0.0
O136 O 0.21454 0.72581 0.3173 0.0
N137 N 0.18183 0.86039 0.26275 0.0
C138 C 0.15692 0.8423 0.23079 0.0
C139 C 0.17489 0.92627 0.23668 0.0
N140 N 0.1936 0.91281 0.26611 0.0
N141 N 0.15195 0.88285 0.21392 0.0
C142 C 0.23573 0.74815 0.42185 0.0
C143 C 0.19911 0.65957 0.42094 0.0
N144 N 0.20197 0.72936 0.39327 0.0
N145 N 0.17885 0.67429 0.39286 0.0
N146 N 0.2352 0.70529 0.43933 0.0
H147 H 0.2472 0.83142 0.42474 0.0
H148 H 0.31003 0.82859 0.4212 0.0
H149 H 0.27289 0.81111 0.46273 0.0
C150 C 0.26796 0.80816 0.43333 0.0
C151 C 0.13296 0.78357 0.21744 0.0
H152 H 0.14001 0.75699 0.23611 0.0
H153 H 0.15316 0.78367 0.19199 0.0
H154 H 0.0876 0.76514 0.21243 0.0
O155 O 0.10918 0.74793 0.29671 0.0
O156 O 0.11028 0.70963 0.34755 0.0
C157 C 0.22693 0.73958 0.28492 0.0
O158 O 0.1711 0.81695 0.38584 0.0
O159 O 0.16024 0.85876 0.33943 0.0
Zn160 Zn 0.36357 0.18383 0.6361 0.0
O161 O 0.43498 0.22172 0.60402 0.0
C162 C 0.37846 0.0838 0.64563 0.0
Zn163 Zn 0.41477 0.18883 0.68283 0.0
C164 C 0.48176 0.23223 0.61675 0.0
O165 O 0.48507 0.22111 0.64922 0.0
C166 C 0.29706 0.14337 0.70291 0.0
O167 O 0.42861 0.26968 0.69194 0.0
O168 O 0.37523 0.26473 0.64725 0.0
N169 N 0.46149 0.1943 0.72586 0.0
C170 C 0.50665 0.23807 0.7402 0.0
C171 C 0.48027 0.16998 0.77635 0.0
N172 N 0.44554 0.15173 0.74811 0.0
N173 N 0.51905 0.22398 0.77185 0.0
C174 C 0.30868 0.15459 0.56079 0.0
C175 C 0.24103 0.16974 0.56762 0.0
N176 N 0.31338 0.17591 0.59372 0.0
N177 N 0.27173 0.18598 0.59769 0.0
N178 N 0.2634 0.1501 0.54385 0.0
H179 H 0.37773 0.13846 0.56556 0.0
H180 H 0.36879 0.15996 0.52272 0.0
H181 H 0.32069 0.09032 0.53757 0.0
C182 C 0.346 0.13445 0.54621 0.0
C183 C 0.53875 0.29501 0.72375 0.0
H184 H 0.53249 0.2938 0.69462 0.0
H185 H 0.58387 0.31339 0.72962 0.0
H186 H 0.52508 0.32272 0.73565 0.0
O187 O 0.34477 0.15719 0.71553 0.0
O188 O 0.29182 0.14723 0.66954 0.0
C189 C 0.40723 0.29219 0.67297 0.0
O190 O 0.35629 0.10383 0.62502 0.0
O191 O 0.40201 0.10957 0.67394 0.0
C192 C 0.27171 0.72925 0.23029 0.0
C193 C 0.24217 0.70644 0.26189 0.0
C194 C 0.28376 0.697 0.20723 0.0
C195 C 0.26469 0.64041 0.21575 0.0
C196 C 0.23581 0.6175 0.24799 0.0
C197 C 0.22529 0.65103 0.27089 0.0
C198 C 0.31485 0.72278 0.17306 0.0
C199 C 0.21423 0.55709 0.25764 0.0
C200 C 0.23512 0.5457 0.13669 0.0
C201 C 0.28087 0.53718 0.13716 0.0
C202 C 0.22872 0.57797 0.16272 0.0
C203 C 0.27015 0.60395 0.18926 0.0
C204 C 0.31711 0.59646 0.1896 0.0
C205 C 0.32186 0.56291 0.16344 0.0
C206 C 0.17739 0.5839 0.16182 0.0
C207 C 0.36271 0.62477 0.21704 0.0
H208 H 0.28502 0.77221 0.22344 0.0
H209 H 0.20203 0.63321 0.29524 0.0
H210 H 0.34985 0.71447 0.16982 0.0
H211 H 0.28639 0.7036 0.15002 0.0
H212 H 0.33171 0.7686 0.17218 0.0
H213 H 0.19317 0.546 0.28399 0.0
H214 H 0.18415 0.52962 0.23712 0.0
H215 H 0.24906 0.54817 0.25812 0.0
H216 H 0.20499 0.52847 0.1153 0.0
H217 H 0.35778 0.55714 0.16317 0.0
H218 H 0.18886 0.62841 0.16333 0.0
H219 H 0.15111 0.56226 0.18527 0.0
H220 H 0.15196 0.5654 0.13745 0.0
H221 H 0.38195 0.67073 0.21459 0.0
H222 H 0.39585 0.61362 0.21407 0.0
H223 H 0.34501 0.61319 0.24426 0.0
C224 C 0.52665 0.26416 0.5573 0.0
C225 C 0.53122 0.25468 0.59353 0.0
C226 C 0.57167 0.28003 0.53413 0.0
C227 C 0.62231 0.28647 0.54759 0.0
C228 C 0.62819 0.28002 0.58446 0.0
C229 C 0.58244 0.26409 0.60705 0.0
C230 C 0.5638 0.28627 0.49489 0.0
C231 C 0.68162 0.2866 0.59975 0.0
C232 C 0.70177 0.2472 0.48367 0.0
C233 C 0.74336 0.29934 0.47168 0.0
C234 C 0.66262 0.2427 0.5087 0.0
C235 C 0.66575 0.29177 0.52241 0.0
C236 C 0.70893 0.34485 0.5112 0.0
C237 C 0.74767 0.34801 0.48585 0.0
C238 C 0.61779 0.18537 0.52029 0.0
C239 C 0.71349 0.39791 0.52545 0.0
H240 H 0.48727 0.25731 0.5467 0.0
H241 H 0.58637 0.25726 0.6351 0.0
H242 H 0.59924 0.32546 0.48437 0.0
H243 H 0.5628 0.25113 0.48005 0.0
H244 H 0.52444 0.2864 0.48939 0.0
H245 H 0.68242 0.2889 0.62931 0.0
H246 H 0.68601 0.2504 0.5918 0.0
H247 H 0.71825 0.32472 0.58911 0.0
H248 H 0.70006 0.20986 0.47329 0.0
H249 H 0.78055 0.38818 0.47652 0.0
H250 H 0.57598 0.18024 0.51533 0.0
H251 H 0.62165 0.18061 0.5493 0.0
H252 H 0.62041 0.15146 0.50622 0.0
H253 H 0.67598 0.40016 0.5177 0.0
H254 H 0.75107 0.43575 0.51531 0.0
H255 H 0.71504 0.39806 0.555 0.0
C256 C 0.31188 0.53157 0.89789 0.0
C257 C 0.29165 0.53314 0.93169 0.0
C258 C 0.34265 0.58051 0.87819 0.0
C259 C 0.35127 0.63176 0.89216 0.0
C260 C 0.33008 0.63343 0.92612 0.0
C261 C 0.30127 0.58396 0.94588 0.0
C262 C 0.36616 0.57735 0.84251 0.0
C263 C 0.33702 0.68707 0.9412 0.0
C264 C 0.47043 0.75515 0.84682 0.0
C265 C 0.44296 0.76076 0.81711 0.0
C266 C 0.44069 0.71536 0.87317 0.0
C267 C 0.38196 0.68298 0.8705 0.0
C268 C 0.35359 0.69422 0.84325 0.0
C269 C 0.38457 0.73267 0.81656 0.0
C270 C 0.47257 0.70423 0.90162 0.0
C271 C 0.29081 0.66201 0.84037 0.0
H272 H 0.30475 0.49214 0.88721 0.0
H273 H 0.28516 0.58473 0.97206 0.0
H274 H 0.34754 0.59038 0.82101 0.0
H275 H 0.41189 0.60639 0.84202 0.0
H276 H 0.35803 0.53463 0.83646 0.0
H277 H 0.31833 0.68121 0.96815 0.0
H278 H 0.38185 0.71905 0.94283 0.0
H279 H 0.31699 0.70377 0.92321 0.0
H280 H 0.51537 0.77959 0.84848 0.0
H281 H 0.36315 0.73792 0.79399 0.0
H282 H 0.47206 0.66479 0.89533 0.0
H283 H 0.45279 0.69888 0.92808 0.0
H284 H 0.5167 0.7383 0.90332 0.0
H285 H 0.27717 0.61969 0.82976 0.0
H286 H 0.2751 0.68288 0.82223 0.0
H287 H 0.27131 0.65693 0.86693 0.0
C288 C 0.7243 0.3055 0.27922 0.0
C289 C 0.7644 0.29258 0.26731 0.0
C290 C 0.70662 0.33472 0.25719 0.0
C291 C 0.73132 0.35294 0.22322 0.0
C292 C 0.7728 0.34097 0.21155 0.0
C293 C 0.78805 0.30997 0.23352 0.0
C294 C 0.66125 0.34552 0.26999 0.0
C295 C 0.80148 0.36131 0.17596 0.0
C296 C 0.66794 0.38514 0.14433 0.0
C297 C 0.69917 0.44356 0.14366 0.0
C298 C 0.67435 0.35488 0.17206 0.0
C299 C 0.71382 0.3839 0.19923 0.0
C300 C 0.74189 0.44289 0.20032 0.0
C301 C 0.73301 0.47199 0.17289 0.0
C302 C 0.64205 0.29191 0.17076 0.0
C303 C 0.78495 0.47552 0.22854 0.0
H304 H 0.70605 0.2918 0.30543 0.0
H305 H 0.81969 0.30065 0.22462 0.0
H306 H 0.67678 0.39103 0.27064 0.0
H307 H 0.62557 0.32676 0.25115 0.0
H308 H 0.64598 0.32802 0.29699 0.0
H309 H 0.8346 0.35045 0.17167 0.0
H310 H 0.77057 0.34278 0.15408 0.0
H311 H 0.82055 0.40733 0.17411 0.0
H312 H 0.64077 0.36299 0.12214 0.0
H313 H 0.75435 0.51704 0.17366 0.0
H314 H 0.6257 0.27429 0.19753 0.0
H315 H 0.67015 0.27631 0.16229 0.0
H316 H 0.60662 0.27608 0.15171 0.0
H317 H 0.77061 0.45665 0.25527 0.0
H318 H 0.79524 0.51979 0.22949 0.0
H319 H 0.82374 0.4747 0.22247 0.0
C320 C 0.45929 0.71824 0.57672 0.0
C321 C 0.46579 0.75581 0.60375 0.0
C322 C 0.41642 0.70128 0.55161 0.0
C323 C 0.38068 0.72399 0.5531 0.0
C324 C 0.38582 0.76034 0.58118 0.0
C325 C 0.42811 0.77538 0.6065 0.0
C326 C 0.41107 0.66118 0.52259 0.0
C327 C 0.34891 0.786 0.58324 0.0
C328 C 0.32856 0.74698 0.46552 0.0
C329 C 0.27169 0.70754 0.46718 0.0
C330 C 0.36441 0.75259 0.49336 0.0
C331 C 0.34319 0.71596 0.52285 0.0
C332 C 0.28646 0.67345 0.52363 0.0
C333 C 0.25107 0.66997 0.49571 0.0
C334 C 0.42459 0.79881 0.49157 0.0
C335 C 0.26315 0.63236 0.55407 0.0
H336 H 0.48811 0.70256 0.57499 0.0
H337 H 0.4334 0.80463 0.62742 0.0
H338 H 0.36679 0.62856 0.51883 0.0
H339 H 0.42603 0.68403 0.497 0.0
H340 H 0.43581 0.64057 0.52854 0.0
H341 H 0.35606 0.81067 0.60799 0.0
H342 H 0.35707 0.81386 0.55997 0.0
H343 H 0.30438 0.7531 0.58211 0.0
H344 H 0.34503 0.77371 0.44239 0.0
H345 H 0.2072 0.63867 0.49636 0.0
H346 H 0.45285 0.7814 0.49392 0.0
H347 H 0.43376 0.8278 0.51423 0.0
H348 H 0.43437 0.82313 0.4664 0.0
H349 H 0.28931 0.61297 0.55872 0.0
H350 H 0.21954 0.59884 0.54901 0.0
H351 H 0.264 0.65442 0.5789 0.0
C352 C 0.72864 0.47366 0.89157 0.0
C353 C 0.71265 0.46735 0.92745 0.0
C354 C 0.69931 0.43055 0.86711 0.0
C355 C 0.65296 0.38008 0.87889 0.0
C356 C 0.63768 0.37273 0.91527 0.0
C357 C 0.66772 0.41658 0.93918 0.0
C358 C 0.71636 0.44 0.82837 0.0
C359 C 0.58829 0.31946 0.92871 0.0
C360 C 0.5404 0.30277 0.81049 0.0
C361 C 0.55185 0.26131 0.79958 0.0
C362 C 0.57279 0.34136 0.83653 0.0
C363 C 0.61711 0.33757 0.85246 0.0
C364 C 0.62778 0.29449 0.84231 0.0
C365 C 0.59462 0.25647 0.81584 0.0
C366 C 0.55961 0.3862 0.84685 0.0
C367 C 0.67461 0.28927 0.85895 0.0
H368 H 0.76339 0.51277 0.88234 0.0
H369 H 0.65521 0.41143 0.96691 0.0
H370 H 0.7212 0.40506 0.81816 0.0
H371 H 0.68326 0.44115 0.81232 0.0
H372 H 0.75608 0.47972 0.8241 0.0
H373 H 0.586 0.3179 0.95827 0.0
H374 H 0.54923 0.31604 0.91821 0.0
H375 H 0.59025 0.28264 0.91902 0.0
H376 H 0.50587 0.30483 0.79846 0.0
H377 H 0.60255 0.22367 0.80734 0.0
H378 H 0.59714 0.42805 0.8438 0.0
H379 H 0.54708 0.38098 0.87524 0.0
H380 H 0.52538 0.3848 0.83056 0.0
H381 H 0.71512 0.3271 0.85291 0.0
H382 H 0.67589 0.25209 0.84911 0.0
H383 H 0.67002 0.28641 0.88836 0.0
C384 C 0.40033 0.39392 0.98562 0.0
C385 C 0.36089 0.39978 0.96568 0.0
C386 C 0.45757 0.43195 0.98159 0.0
C387 C 0.47525 0.47871 0.95868 0.0
C388 C 0.43568 0.48257 0.93674 0.0
C389 C 0.37905 0.44222 0.93999 0.0
C390 C 0.49873 0.42439 0.00392 0.0
C391 C 0.45154 0.53217 0.91275 0.0
C392 C 0.60725 0.60022 -0.00381 0.0
C393 C 0.64795 0.59943 0.97458 0.0
C394 C 0.55026 0.56481 0.98898 0.0
C395 C 0.53395 0.52565 0.96076 0.0
C396 C 0.57491 0.52751 0.93748 0.0
C397 C 0.63139 0.56523 0.94426 0.0
C398 C 0.50764 0.56633 0.01323 0.0
C399 C 0.55965 0.48577 0.90774 0.0
H400 H 0.38624 0.36178 0.00593 0.0
H401 H 0.34841 0.44773 0.92528 0.0
H402 H 0.53523 0.43174 0.98764 0.0
H403 H 0.51429 0.45525 0.02593 0.0
H404 H 0.47961 0.38191 0.01571 0.0
H405 H 0.44983 0.56531 0.92836 0.0
H406 H 0.49434 0.54983 0.90199 0.0
H407 H 0.4219 0.5209 0.89013 0.0
H408 H 0.61998 0.62598 0.01993 0.0
H409 H 0.66271 0.56321 0.9281 0.0
H410 H 0.48999 0.5296 0.03126 0.0
H411 H 0.47272 0.56422 -0.00258 0.0
H412 H 0.52616 0.60469 0.02982 0.0
H413 H 0.54432 0.4437 0.91942 0.0
H414 H 0.59577 0.49576 0.89023 0.0
H415 H 0.52547 0.48388 0.89126 0.0
C416 C 0.06706 0.6321 0.27587 0.0
C417 C 0.04838 0.65058 0.3047 0.0
C418 C 0.04846 0.57517 0.27108 0.0
C419 C 0.00843 0.53576 0.29476 0.0
C420 C 0.9842 0.55384 0.32101 0.0
C421 C 0.00563 0.61127 0.32635 0.0
C422 C 0.07546 0.55782 0.24289 0.0
C423 C 0.93873 0.51277 0.3453 0.0
C424 C 0.93886 0.37946 0.2793 0.0
C425 C 0.96175 0.36353 0.30719 0.0
C426 C 0.955 0.43568 0.27362 0.0
C427 C 0.99707 0.47711 0.29539 0.0
C428 C 0.02495 0.4615 0.32074 0.0
C429 C 0.00566 0.40467 0.32718 0.0
C430 C 0.92233 0.449 0.24703 0.0
C431 C 0.07259 0.50466 0.34287 0.0
H432 H 0.10107 0.66241 0.25956 0.0
H433 H 0.99165 0.62549 0.34889 0.0
H434 H 0.09767 0.53833 0.25571 0.0
H435 H 0.04326 0.52611 0.22507 0.0
H436 H 0.10568 0.59375 0.22651 0.0
H437 H 0.91796 0.53229 0.35985 0.0
H438 H 0.90686 0.47671 0.32979 0.0
H439 H 0.95679 0.49649 0.36516 0.0
H440 H 0.90387 0.34756 0.2644 0.0
H441 H 0.02275 0.39233 0.34909 0.0
H442 H 0.94558 0.49269 0.23737 0.0
H443 H 0.88339 0.44228 0.25993 0.0
H444 H 0.91012 0.42051 0.22376 0.0
H445 H 0.1025 0.53976 0.32583 0.0
H446 H 0.09536 0.48669 0.35692 0.0
H447 H 0.05628 0.52201 0.3631 0.0
C448 C 0.38903 1.00044 0.65256 0.0
C449 C 0.39664 0.04585 0.6319 0.0
C450 C 0.42486 0.97853 0.6488 0.0
C451 C 0.47113 0.00493 0.62539 0.0
C452 C 0.47596 0.04769 0.6024 0.0
C453 C 0.43786 0.06687 0.60546 0.0
C454 C 0.41603 0.93029 0.67215 0.0
C455 C 0.52509 0.07848 0.57783 0.0
C456 C 0.59349 0.99771 0.66476 0.0
C457 C 0.59305 0.95513 0.6445 0.0
C458 C 0.55722 0.01789 0.65662 0.0
C459 C 0.51761 0.99269 0.62879 0.0
C460 C 0.51942 0.95208 0.60691 0.0
C461 C 0.55807 0.93472 0.61455 0.0
C462 C 0.55866 0.06347 0.67943 0.0
C463 C 0.47794 0.924 0.57714 0.0
H464 H 0.35771 0.98476 0.67337 0.0
H465 H 0.44481 0.10313 0.59017 0.0
H466 H 0.4222 0.8997 0.65661 0.0
H467 H 0.44702 0.94587 0.69412 0.0
H468 H 0.37362 0.90853 0.68402 0.0
H469 H 0.55967 0.1127 0.59303 0.0
H470 H 0.54034 0.05119 0.56726 0.0
H471 H 0.51445 0.09724 0.55512 0.0
H472 H 0.61995 0.01295 0.68816 0.0
H473 H 0.55676 0.90087 0.59927 0.0
H474 H 0.52191 0.04545 0.69736 0.0
H475 H 0.55658 0.09533 0.6625 0.0
H476 H 0.59694 0.08437 0.69608 0.0
H477 H 0.43487 0.90765 0.58716 0.0
H478 H 0.48119 0.88909 0.56515 0.0
H479 H 0.48495 0.95476 0.55592 0.0
C480 C 0.50424 0.61543 0.70571 0.0
C481 C 0.5548 0.64816 0.68759 0.0
C482 C 0.47778 0.55702 0.70557 0.0
C483 C 0.50284 0.53055 0.68735 0.0
C484 C 0.55505 0.56329 0.67034 0.0
C485 C 0.58025 0.62176 0.67044 0.0
C486 C 0.42197 0.52367 0.72379 0.0
C487 C 0.58364 0.53646 0.65134 0.0
C488 C 0.45722 0.37963 0.70876 0.0
C489 C 0.42487 0.35171 0.6788 0.0
C490 C 0.48245 0.43771 0.7121 0.0
C491 C 0.47381 0.46859 0.68529 0.0
C492 C 0.43834 0.44034 0.65607 0.0
C493 C 0.41454 0.38219 0.65305 0.0
C494 C 0.52001 0.46616 0.74364 0.0
C495 C 0.42699 0.47176 0.62742 0.0
H496 H 0.4841 0.63534 0.71905 0.0
H497 H 0.61932 0.64671 0.65649 0.0
H498 H 0.38944 0.49906 0.70367 0.0
H499 H 0.42297 0.49357 0.74291 0.0
H500 H 0.4095 0.55063 0.73835 0.0
H501 H 0.62554 0.56773 0.64127 0.0
H502 H 0.58819 0.50735 0.66955 0.0
H503 H 0.55777 0.51158 0.62846 0.0
H504 H 0.46411 0.35623 0.72929 0.0
H505 H 0.38937 0.36095 0.62991 0.0
H506 H 0.50571 0.49155 0.7582 0.0
H507 H 0.56302 0.49507 0.73421 0.0
H508 H 0.52138 0.43591 0.76256 0.0
H509 H 0.41188 0.49831 0.63954 0.0
H510 H 0.39557 0.44334 0.60778 0.0
H511 H 0.46619 0.49985 0.61303 0.0
C512 C 0.03718 0.40673 0.98492 0.0
C513 C 0.084 0.42597 0.00708 0.0
C514 C 0.00323 0.4311 0.98608 0.0
C515 C 0.01695 0.47616 0.00962 0.0
C516 C 0.06348 0.49496 0.03254 0.0
C517 C 0.09618 0.46942 0.03116 0.0
C518 C 0.95337 0.40943 0.96161 0.0
C519 C 0.07964 0.54301 0.05791 0.0
C520 C 0.9625 0.57413 0.98636 0.0
C521 C 0.91612 0.55458 0.00888 0.0
C522 C 0.99625 0.54951 0.98671 0.0
C523 C 0.98304 0.50416 0.00998 0.0
C524 C 0.9372 0.48527 0.03343 0.0
C525 C 0.90447 0.51081 0.03269 0.0
C526 C 0.04544 0.57133 0.96172 0.0
C527 C 0.9218 0.4371 0.05866 0.0
H528 H 0.02759 0.37328 0.96624 0.0
H529 H 0.13265 0.48512 0.04812 0.0
H530 H 0.9151 0.39752 0.9773 0.0
H531 H 0.95883 0.44279 0.94281 0.0
H532 H 0.94706 0.37267 0.94596 0.0
H533 H 0.11826 0.55381 0.07303 0.0
H534 H 0.08626 0.58049 0.04299 0.0
H535 H 0.04542 0.53235 0.07718 0.0
H536 H 0.97179 0.60789 0.96793 0.0
H537 H 0.8688 0.49543 0.05031 0.0
H538 H 0.0395 0.53808 0.94276 0.0
H539 H 0.08414 0.58319 0.97699 0.0
H540 H 0.05132 0.60817 0.94626 0.0
H541 H 0.91116 0.39886 0.04325 0.0
H542 H 0.88576 0.42848 0.07588 0.0
H543 H 0.95779 0.44592 0.07597 0.0
C544 C 0.39441 0.89397 0.35878 0.0
C545 C 0.36308 0.91369 0.34083 0.0
C546 C 0.45262 0.92605 0.36092 0.0
C547 C 0.48041 0.97944 0.34489 0.0
C548 C 0.44908 1.00022 0.32737 0.0
C549 C 0.39071 0.96688 0.32531 0.0
C550 C 0.48443 0.90211 0.37956 0.0
C551 C 0.47731 0.05742 0.31047 0.0
C552 C 0.62792 0.08283 0.37448 0.0
C553 C 0.6596 0.0814 0.34579 0.0
C554 C 0.56963 0.04967 0.37469 0.0
C555 C 0.54235 0.01309 0.34588 0.0
C556 C 0.57425 0.00905 0.31779 0.0
C557 C 0.63251 0.04347 0.31798 0.0
C558 C 0.53717 0.0552 0.40517 0.0
C559 C 0.5467 0.96952 0.28701 0.0
H560 H 0.37359 0.85254 0.37038 0.0
H561 H 0.36678 0.98234 0.31143 0.0
H562 H 0.512 0.89734 0.36021 0.0
H563 H 0.51155 0.93096 0.40067 0.0
H564 H 0.45635 0.86079 0.39186 0.0
H565 H 0.44692 0.06836 0.29914 0.0
H566 H 0.50343 0.08942 0.33048 0.0
H567 H 0.50545 0.05927 0.28885 0.0
H568 H 0.64855 0.11101 0.39646 0.0
H569 H 0.65659 0.04188 0.29575 0.0
H570 H 0.51057 0.014 0.4179 0.0
H571 H 0.50903 0.06979 0.39491 0.0
H572 H 0.56479 0.085 0.42581 0.0
H573 H 0.51925 0.9265 0.29706 0.0
H574 H 0.57755 0.96907 0.26834 0.0
H575 H 0.52001 0.98187 0.272 0.0
C576 C 0.20024 0.12524 0.71448 0.0
C577 C 0.25193 0.13512 0.72752 0.0
C578 C 0.16369 0.1332 0.73637 0.0
C579 C 0.18033 0.15314 0.77152 0.0
C580 C 0.22984 0.15773 0.78574 0.0
C581 C 0.26446 0.14758 0.76373 0.0
C582 C 0.10962 0.12446 0.72088 0.0
C583 C 0.24944 0.17904 0.82309 0.0
C584 C 0.15666 0.26336 0.81269 0.0
C585 C 0.12741 0.23562 0.84337 0.0
C586 C 0.17062 0.23562 0.78713 0.0
C587 C 0.15216 0.17808 0.79171 0.0
C588 C 0.11542 0.14821 0.81994 0.0
C589 C 0.10413 0.17763 0.84589 0.0
C590 C 0.20962 0.26918 0.75727 0.0
C591 C 0.09176 0.08621 0.82439 0.0
H592 H 0.18972 0.11459 0.68667 0.0
H593 H 0.30389 0.15444 0.77423 0.0
H594 H 0.07689 0.11143 0.74161 0.0
H595 H 0.11643 0.16408 0.70893 0.0
H596 H 0.09427 0.09246 0.69949 0.0
H597 H 0.28765 0.17781 0.83053 0.0
H598 H 0.25855 0.22283 0.82523 0.0
H599 H 0.21639 0.15392 0.84272 0.0
H600 H 0.17171 0.30763 0.80996 0.0
H601 H 0.07995 0.15589 0.86923 0.0
H602 H 0.19231 0.24901 0.73125 0.0
H603 H 0.25023 0.27085 0.76089 0.0
H604 H 0.21734 0.31262 0.75632 0.0
H605 H 0.08231 0.06493 0.79815 0.0
H606 H 0.05316 0.06731 0.84074 0.0
H607 H 0.12274 0.07841 0.83809 0.0
C608 C 0.9593 0.20372 0.18122 0.0
C609 C 0.91986 0.14891 0.19075 0.0
C610 C 0.99584 0.21472 0.15275 0.0
C611 C 0.99615 0.16976 0.13499 0.0
C612 C 0.95876 0.11422 0.14574 0.0
C613 C 0.92022 0.10445 0.17304 0.0
C614 C 0.03437 0.27477 0.14192 0.0
C615 C 0.95918 0.06505 0.12874 0.0
C616 C 0.06113 0.21637 0.04454 0.0
C617 C 0.11775 0.24287 0.05374 0.0
C618 C 0.01988 0.18698 0.07016 0.0
C619 C 0.03599 0.18239 0.10523 0.0
C620 C 0.09284 0.20176 0.11296 0.0
C621 C 0.13337 0.2332 0.08732 0.0
C622 C 0.95983 0.16731 0.06085 0.0
C623 C 0.11122 0.19411 0.14938 0.0
H624 H 0.96252 0.23837 0.19642 0.0
H625 H 0.89091 0.062 0.18103 0.0
H626 H 0.07818 0.28683 0.14798 0.0
H627 H 0.03142 0.27993 0.1128 0.0
H628 H 0.0246 0.30413 0.156 0.0
H629 H 0.94246 0.02877 0.14719 0.0
H630 H 0.93226 0.05205 0.10471 0.0
H631 H 0.0018 0.07558 0.12047 0.0
H632 H 0.04897 0.22386 0.01854 0.0
H633 H 0.17721 0.25313 0.09428 0.0
H634 H 0.94664 0.19469 0.07408 0.0
H635 H 0.93234 0.12424 0.07067 0.0
H636 H 0.95351 0.16828 0.03167 0.0
H637 H 0.11194 0.22561 0.16794 0.0
H638 H 0.15369 0.19938 0.14865 0.0
H639 H 0.08164 0.15214 0.16021 0.0
C640 C 0.74284 0.94856 0.5243 0.0
C641 C 0.76296 0.91317 0.53478 0.0
C642 C 0.76811 0.98732 0.49674 0.0
C643 C 0.81743 0.99407 0.48083 0.0
C644 C 0.83965 0.96035 0.49223 0.0
C645 C 0.81165 0.91971 0.51873 0.0
C646 C 0.74216 0.02158 0.48503 0.0
C647 C 0.89374 0.96838 0.47728 0.0
C648 C 0.8432 0.06475 0.39122 0.0
C649 C 0.86996 0.12098 0.40149 0.0
C650 C 0.82955 0.02242 0.41647 0.0
C651 C 0.84505 0.03697 0.45251 0.0
C652 C 0.87838 0.09392 0.46202 0.0
C653 C 0.88935 0.13539 0.43652 0.0
C654 C 0.79271 0.96244 0.40524 0.0
C655 C 0.89815 0.11119 0.4998 0.0
H656 H 0.70806 0.94722 0.53822 0.0
H657 H 0.82845 0.89377 0.52753 0.0
H658 H 0.76991 0.06596 0.49229 0.0
H659 H 0.73689 0.01959 0.45564 0.0
H660 H 0.70079 0.00708 0.49752 0.0
H661 H 0.90425 0.93725 0.48788 0.0
H662 H 0.89166 0.96541 0.4478 0.0
H663 H 0.92811 0.01081 0.48408 0.0
H664 H 0.8277 0.05338 0.3642 0.0
H665 H 0.91035 0.17888 0.44446 0.0
H666 H 0.74953 0.94769 0.41458 0.0
H667 H 0.80677 0.93508 0.41746 0.0
H668 H 0.79175 0.95756 0.37582 0.0
H669 H 0.86353 0.10857 0.51608 0.0
H670 H 0.93352 0.15478 0.50106 0.0
H671 H 0.91129 0.083 0.51196 0.0
C672 C 0.7175 0.83983 0.78102 0.0
C673 C 0.73291 0.8602 0.74619 0.0
C674 C 0.75296 0.83011 0.80269 0.0
C675 C 0.80602 0.84287 0.78969 0.0
C676 C 0.82423 0.86906 0.75607 0.0
C677 C 0.78705 0.87665 0.7344 0.0
C678 C 0.73154 0.80171 0.83828 0.0
C679 C 0.88142 0.8857 0.74192 0.0
C680 C 0.88912 0.82537 0.86338 0.0
C681 C 0.87447 0.76941 0.85852 0.0
C682 C 0.87199 0.85233 0.83896 0.0
C683 C 0.83839 0.82201 0.80961 0.0
C684 C 0.82833 0.76737 0.80281 0.0
C685 C 0.84767 0.74224 0.82702 0.0
C686 C 0.88617 0.91163 0.84611 0.0
C687 C 0.7929 0.73351 0.77173 0.0
H688 H 0.67594 0.82733 0.79049 0.0
H689 H 0.79954 0.893 0.70765 0.0
H690 H 0.72742 0.75969 0.83776 0.0
H691 H 0.76144 0.82585 0.85976 0.0
H692 H 0.6903 0.7968 0.8451 0.0
H693 H 0.8945 0.91821 0.7209 0.0
H694 H 0.913 0.90161 0.76355 0.0
H695 H 0.88081 0.84874 0.73004 0.0
H696 H 0.91091 0.84692 0.88743 0.0
H697 H 0.83925 0.70019 0.82226 0.0
H698 H 0.84984 0.91162 0.8585 0.0
H699 H 0.89586 0.93583 0.82094 0.0
H700 H 0.92227 0.9331 0.86452 0.0
H701 H 0.74941 0.72442 0.7756 0.0
H702 H 0.79232 0.69328 0.7688 0.0
H703 H 0.8084 0.75745 0.74659 0.0
C704 C 0.0744 0.89078 0.18836 0.0
C705 C 0.1159 0.87628 0.18445 0.0
C706 C 0.03107 0.87327 0.16337 0.0
C707 C 0.02887 0.83954 0.13443 0.0
C708 C 0.07377 0.82972 0.12856 0.0
C709 C 0.11739 0.8493 0.15337 0.0
C710 C 0.98546 0.88701 0.16957 0.0
C711 C 0.0733 0.79417 0.09794 0.0
C712 C 0.8911 0.71781 0.10537 0.0
C713 C 0.88652 0.73311 0.07044 0.0
C714 C 0.93589 0.75351 0.12716 0.0
C715 C 0.97624 0.80664 0.11411 0.0
C716 C 0.96882 0.82459 0.08024 0.0
C717 C 0.92438 0.78722 0.05851 0.0
C718 C 0.94233 0.73242 0.16305 0.0
C719 C 0.00956 0.88177 0.06597 0.0
H720 H 0.0738 0.91261 0.21214 0.0
H721 H 0.15117 0.84086 0.14947 0.0
H722 H 0.97183 0.89674 0.14405 0.0
H723 H 0.94879 0.8504 0.18155 0.0
H724 H 0.99918 0.92298 0.18795 0.0
H725 H 0.11332 0.79426 0.09554 0.0
H726 H 0.03928 0.75047 0.10196 0.0
H727 H 0.06499 0.80906 0.07248 0.0
H728 H 0.86189 0.67627 0.11493 0.0
H729 H 0.92078 0.79959 0.03165 0.0
H730 H 0.94739 0.76237 0.1843 0.0
H731 H 0.98042 0.72868 0.16307 0.0
H732 H 0.90605 0.69102 0.16982 0.0
H733 H 0.02446 0.91359 0.08741 0.0
H734 H 0.99065 0.89449 0.0444 0.0
H735 H 0.04637 0.8813 0.05481 0.0
C736 C 0.17883 0.07636 0.51486 0.0
C737 C 0.23556 0.11685 0.51301 0.0
C738 C 0.15405 0.03498 0.48861 0.0
C739 C 0.18734 0.03349 0.46058 0.0
C740 C 0.24285 0.07792 0.45655 0.0
C741 C 0.26584 0.11987 0.48248 0.0
C742 C 0.09374 0.99026 0.4926 0.0
C743 C 0.27976 0.07832 0.42686 0.0
C744 C 0.17055 0.89499 0.43276 0.0
C745 C 0.15377 0.89138 0.39714 0.0
C746 C 0.17908 0.9399 0.45416 0.0
C747 C 0.16862 0.98128 0.44002 0.0
C748 C 0.14628 0.97495 0.40527 0.0
C749 C 0.13998 0.93045 0.38394 0.0
C750 C 0.20344 0.94515 0.49101 0.0
C751 C 0.13209 0.01666 0.38975 0.0
H752 H 0.1548 0.07472 0.53805 0.0
H753 H 0.30856 0.15326 0.47991 0.0
H754 H 0.07271 0.97842 0.46626 0.0
H755 H 0.09135 0.95242 0.50454 0.0
H756 H 0.07071 0.00409 0.51017 0.0
H757 H 0.32032 0.11798 0.42585 0.0
H758 H 0.28814 0.0434 0.43079 0.0
H759 H 0.25861 0.07194 0.40077 0.0
H760 H 0.18085 0.86478 0.44333 0.0
H761 H 0.12637 0.9276 0.35653 0.0
H762 H 0.17664 0.94933 0.51123 0.0
H763 H 0.24516 0.98333 0.49243 0.0
H764 H 0.20803 0.90869 0.49822 0.0
H765 H 0.11643 0.03389 0.4105 0.0
H766 H 0.10021 0.99755 0.36838 0.0
H767 H 0.17007 0.05185 0.37784 0.0
loop_
_geom_bond_atom_site_label_1
_geom_bond_atom_site_label_2
_geom_bond_distance
_geom_bond_site_symmetry_2
_ccdc_geom_bond_type
Zn0 O1 2.055 . S
Zn0 O8 2.046 1_554 S
Zn0 N16 2.036 . S
Zn0 O28 2.053 . S
Zn0 O30 2.066 . S
O1 Zn0 2.055 . S
O1 C4 1.259 1_554 S
C2 O30 1.256 . S
C2 O31 1.244 . S
Zn3 O5 2.046 . S
Zn3 O7 2.055 . S
Zn3 N9 2.036 . S
Zn3 O27 2.066 . S
Zn3 O31 2.053 1_556 S
C4 O1 1.259 1_556 S
C4 O5 1.254 . S
O5 Zn3 2.046 . S
O5 C4 1.254 . S
C6 O27 1.256 1_554 S
C6 O28 1.244 . S
O7 Zn3 2.055 . S
O7 C29 1.259 . S
O8 Zn0 2.046 1_556 S
O8 C29 1.254 . S
N9 Zn3 2.036 . S
N9 C10 1.298 . S
N9 N12 1.398 . S
C10 N9 1.298 . S
C10 N13 1.367 . S
C10 C23 1.481 . S
C11 N12 1.299 . S
C11 N13 1.379 . S
N12 N9 1.398 . S
N12 C11 1.299 . S
N13 C10 1.367 . S
N13 C11 1.379 . S
C14 N16 1.298 . S
C14 N18 1.367 . S
C14 C22 1.481 . S
C15 N17 1.299 . S
C15 N18 1.379 . S
N16 Zn0 2.036 . S
N16 C14 1.298 . S
N16 N17 1.398 . S
N17 C15 1.299 . S
N17 N16 1.398 . S
N18 C14 1.367 . S
N18 C15 1.379 . S
H19 C22 0.980 . S
H20 C22 0.981 . S
H21 C22 0.981 . S
C22 C14 1.481 . S
C22 H19 0.980 . S
C22 H20 0.981 . S
C22 H21 0.981 . S
C23 C10 1.481 . S
C23 H24 0.980 . S
C23 H25 0.981 . S
C23 H26 0.981 . S
H24 C23 0.980 . S
H25 C23 0.981 . S
H26 C23 0.981 . S
O27 Zn3 2.066 . S
O27 C6 1.256 1_556 S
O28 Zn0 2.053 . S
O28 C6 1.244 . S
C29 O7 1.259 . S
C29 O8 1.254 . S
O30 Zn0 2.066 . S
O30 C2 1.256 . S
O31 C2 1.244 . S
O31 Zn3 2.053 1_554 S
Zn32 O33 2.055 . S
Zn32 O40 2.046 . S
Zn32 N48 2.036 . S
Zn32 O60 2.053 . S
Zn32 O62 2.066 . S
O33 Zn32 2.055 . S
O33 C36 1.259 . S
C34 O62 1.256 . S
C34 O63 1.244 . S
Zn35 O37 2.046 . S
Zn35 O39 2.055 . S
Zn35 N41 2.036 . S
Zn35 O59 2.066 . S
Zn35 O63 2.053 . S
C36 O33 1.259 . S
C36 O37 1.254 . S
O37 Zn35 2.046 . S
O37 C36 1.254 . S
C38 O59 1.256 . S
C38 O60 1.244 . S
O39 Zn35 2.055 . S
O39 C61 1.259 . S
O40 Zn32 2.046 . S
O40 C61 1.254 . S
N41 Zn35 2.036 . S
N41 C42 1.298 . S
N41 N44 1.398 . S
C42 N41 1.298 . S
C42 N45 1.367 . S
C42 C55 1.481 . S
C43 N44 1.299 . S
C43 N45 1.379 . S
N44 N41 1.398 . S
N44 C43 1.299 . S
N45 C42 1.367 . S
N45 C43 1.379 . S
C46 N48 1.298 . S
C46 N50 1.367 . S
C46 C54 1.481 . S
C47 N49 1.299 . S
C47 N50 1.379 . S
N48 Zn32 2.036 . S
N48 C46 1.298 . S
N48 N49 1.398 . S
N49 C47 1.299 . S
N49 N48 1.398 . S
N50 C46 1.367 . S
N50 C47 1.379 . S
H51 C54 0.980 . S
H52 C54 0.981 . S
H53 C54 0.981 . S
C54 C46 1.481 . S
C54 H51 0.980 . S
C54 H52 0.981 . S
C54 H53 0.981 . S
C55 C42 1.481 . S
C55 H56 0.980 . S
C55 H57 0.981 . S
C55 H58 0.981 . S
H56 C55 0.980 . S
H57 C55 0.981 . S
H58 C55 0.981 . S
O59 Zn35 2.066 . S
O59 C38 1.256 . S
O60 Zn32 2.053 . S
O60 C38 1.244 . S
C61 O39 1.259 . S
C61 O40 1.254 . S
O62 Zn32 2.066 . S
O62 C34 1.256 . S
O63 C34 1.244 . S
O63 Zn35 2.053 . S
Zn64 O65 2.055 . S
Zn64 O72 2.046 . S
Zn64 N80 2.036 . S
Zn64 O92 2.053 . S
Zn64 O94 2.066 . S
O65 Zn64 2.055 . S
O65 C68 1.259 . S
C66 O94 1.256 . S
C66 O95 1.244 . S
Zn67 O69 2.046 . S
Zn67 O71 2.055 . S
Zn67 N73 2.036 . S
Zn67 O91 2.066 . S
Zn67 O95 2.053 . S
C68 O65 1.259 . S
C68 O69 1.254 . S
O69 Zn67 2.046 . S
O69 C68 1.254 . S
C70 O91 1.256 . S
C70 O92 1.244 . S
O71 Zn67 2.055 . S
O71 C93 1.259 . S
O72 Zn64 2.046 . S
O72 C93 1.254 . S
N73 Zn67 2.036 . S
N73 C74 1.298 . S
N73 N76 1.398 . S
C74 N73 1.298 . S
C74 N77 1.367 . S
C74 C87 1.481 . S
C75 N76 1.299 . S
C75 N77 1.379 . S
N76 N73 1.398 . S
N76 C75 1.299 . S
N77 C74 1.367 . S
N77 C75 1.379 . S
C78 N80 1.298 . S
C78 N82 1.367 . S
C78 C86 1.481 . S
C79 N81 1.299 . S
C79 N82 1.379 . S
N80 Zn64 2.036 . S
N80 C78 1.298 . S
N80 N81 1.398 . S
N81 C79 1.299 . S
N81 N80 1.398 . S
N82 C78 1.367 . S
N82 C79 1.379 . S
H83 C86 0.980 . S
H84 C86 0.981 . S
H85 C86 0.981 . S
C86 C78 1.481 . S
C86 H83 0.980 . S
C86 H84 0.981 . S
C86 H85 0.981 . S
C87 C74 1.481 . S
C87 H88 0.980 . S
C87 H89 0.981 . S
C87 H90 0.981 . S
H88 C87 0.980 . S
H89 C87 0.981 . S
H90 C87 0.981 . S
O91 Zn67 2.066 . S
O91 C70 1.256 . S
O92 Zn64 2.053 . S
O92 C70 1.244 . S
C93 O71 1.259 . S
C93 O72 1.254 . S
O94 Zn64 2.066 . S
O94 C66 1.256 . S
O95 C66 1.244 . S
O95 Zn67 2.053 . S
Zn96 O97 2.055 . S
Zn96 O104 2.046 1_554 S
Zn96 N112 2.036 . S
Zn96 O124 2.053 . S
Zn96 O126 2.066 . S
O97 Zn96 2.055 . S
O97 C100 1.259 1_554 S
C98 O126 1.256 . S
C98 O127 1.244 . S
Zn99 O101 2.046 . S
Zn99 O103 2.055 . S
Zn99 N105 2.036 . S
Zn99 O123 2.066 . S
Zn99 O127 2.053 1_556 S
C100 O97 1.259 1_556 S
C100 O101 1.254 . S
O101 Zn99 2.046 . S
O101 C100 1.254 . S
C102 O123 1.256 1_554 S
C102 O124 1.244 . S
O103 Zn99 2.055 . S
O103 C125 1.259 . S
O104 Zn96 2.046 1_556 S
O104 C125 1.254 . S
N105 Zn99 2.036 . S
N105 C106 1.298 . S
N105 N108 1.398 . S
C106 N105 1.298 . S
C106 N109 1.367 . S
C106 C119 1.481 . S
C107 N108 1.299 . S
C107 N109 1.379 . S
N108 N105 1.398 . S
N108 C107 1.299 . S
N109 C106 1.367 . S
N109 C107 1.379 . S
C110 N112 1.298 . S
C110 N114 1.367 . S
C110 C118 1.481 . S
C111 N113 1.299 . S
C111 N114 1.379 . S
N112 Zn96 2.036 . S
N112 C110 1.298 . S
N112 N113 1.398 . S
N113 C111 1.299 . S
N113 N112 1.398 . S
N114 C110 1.367 . S
N114 C111 1.379 . S
H115 C118 0.980 . S
H116 C118 0.981 . S
H117 C118 0.981 . S
C118 C110 1.481 . S
C118 H115 0.980 . S
C118 H116 0.981 . S
C118 H117 0.981 . S
C119 C106 1.481 . S
C119 H120 0.980 . S
C119 H121 0.981 . S
C119 H122 0.981 . S
H120 C119 0.980 . S
H121 C119 0.981 . S
H122 C119 0.981 . S
O123 Zn99 2.066 . S
O123 C102 1.256 1_556 S
O124 Zn96 2.053 . S
O124 C102 1.244 . S
C125 O103 1.259 . S
C125 O104 1.254 . S
O126 Zn96 2.066 . S
O126 C98 1.256 . S
O127 C98 1.244 . S
O127 Zn99 2.053 1_554 S
Zn128 O129 2.055 . S
Zn128 O136 2.046 . S
Zn128 N144 2.036 . S
Zn128 O156 2.053 . S
Zn128 O158 2.066 . S
O129 Zn128 2.055 . S
O129 C132 1.259 . S
C130 O158 1.256 . S
C130 O159 1.244 . S
Zn131 O133 2.046 . S
Zn131 O135 2.055 . S
Zn131 N137 2.036 . S
Zn131 O155 2.066 . S
Zn131 O159 2.053 . S
C132 O129 1.259 . S
C132 O133 1.254 . S
O133 Zn131 2.046 . S
O133 C132 1.254 . S
C134 O155 1.256 . S
C134 O156 1.244 . S
O135 Zn131 2.055 . S
O135 C157 1.259 . S
O136 Zn128 2.046 . S
O136 C157 1.254 . S
N137 Zn131 2.036 . S
N137 C138 1.298 . S
N137 N140 1.398 . S
C138 N137 1.298 . S
C138 N141 1.367 . S
C138 C151 1.481 . S
C139 N140 1.299 . S
C139 N141 1.379 . S
N140 N137 1.398 . S
N140 C139 1.299 . S
N141 C138 1.367 . S
N141 C139 1.379 . S
C142 N144 1.298 . S
C142 N146 1.367 . S
C142 C150 1.481 . S
C143 N145 1.299 . S
C143 N146 1.379 . S
N144 Zn128 2.036 . S
N144 C142 1.298 . S
N144 N145 1.398 . S
N145 C143 1.299 . S
N145 N144 1.398 . S
N146 C142 1.367 . S
N146 C143 1.379 . S
H147 C150 0.980 . S
H148 C150 0.981 . S
H149 C150 0.981 . S
C150 C142 1.481 . S
C150 H147 0.980 . S
C150 H148 0.981 . S
C150 H149 0.981 . S
C151 C138 1.481 . S
C151 H152 0.980 . S
C151 H153 0.981 . S
C151 H154 0.981 . S
H152 C151 0.980 . S
H153 C151 0.981 . S
H154 C151 0.981 . S
O155 Zn131 2.066 . S
O155 C134 1.256 . S
O156 Zn128 2.053 . S
O156 C134 1.244 . S
C157 O135 1.259 . S
C157 O136 1.254 . S
O158 Zn128 2.066 . S
O158 C130 1.256 . S
O159 C130 1.244 . S
O159 Zn131 2.053 . S
Zn160 O161 2.055 . S
Zn160 O168 2.046 . S
Zn160 N176 2.036 . S
Zn160 O188 2.053 . S
Zn160 O190 2.066 . S
O161 Zn160 2.055 . S
O161 C164 1.259 . S
C162 O190 1.256 . S
C162 O191 1.244 . S
Zn163 O165 2.046 . S
Zn163 O167 2.055 . S
Zn163 N169 2.036 . S
Zn163 O187 2.066 . S
Zn163 O191 2.053 . S
C164 O161 1.259 . S
C164 O165 1.254 . S
O165 Zn163 2.046 . S
O165 C164 1.254 . S
C166 O187 1.256 . S
C166 O188 1.244 . S
O167 Zn163 2.055 . S
O167 C189 1.259 . S
O168 Zn160 2.046 . S
O168 C189 1.254 . S
N169 Zn163 2.036 . S
N169 C170 1.298 . S
N169 N172 1.398 . S
C170 N169 1.298 . S
C170 N173 1.367 . S
C170 C183 1.481 . S
C171 N172 1.299 . S
C171 N173 1.379 . S
N172 N169 1.398 . S
N172 C171 1.299 . S
N173 C170 1.367 . S
N173 C171 1.379 . S
C174 N176 1.298 . S
C174 N178 1.367 . S
C174 C182 1.481 . S
C175 N177 1.299 . S
C175 N178 1.379 . S
N176 Zn160 2.036 . S
N176 C174 1.298 . S
N176 N177 1.398 . S
N177 C175 1.299 . S
N177 N176 1.398 . S
N178 C174 1.367 . S
N178 C175 1.379 . S
H179 C182 0.980 . S
H180 C182 0.981 . S
H181 C182 0.981 . S
C182 C174 1.481 . S
C182 H179 0.980 . S
C182 H180 0.981 . S
C182 H181 0.981 . S
C183 C170 1.481 . S
C183 H184 0.980 . S
C183 H185 0.981 . S
C183 H186 0.981 . S
H184 C183 0.980 . S
H185 C183 0.981 . S
H186 C183 0.981 . S
O187 Zn163 2.066 . S
O187 C166 1.256 . S
O188 Zn160 2.053 . S
O188 C166 1.244 . S
C189 O167 1.259 . S
C189 O168 1.254 . S
O190 Zn160 2.066 . S
O190 C162 1.256 . S
O191 C162 1.244 . S
O191 Zn163 2.053 . S
C192 C193 1.391 . S
C192 C194 1.394 . S
C192 H208 0.931 . S
C193 C192 1.391 . S
C193 C197 1.376 . S
C194 C192 1.394 . S
C194 C195 1.369 . S
C194 C198 1.531 . S
C195 C194 1.369 . S
C195 C196 1.410 . S
C195 C203 1.503 . S
C196 C195 1.410 . S
C196 C197 1.392 . S
C196 C199 1.511 . S
C197 C193 1.376 . S
C197 C196 1.392 . S
C197 H209 0.929 . S
C198 C194 1.531 . S
C198 H210 0.960 . S
C198 H211 0.962 . S
C198 H212 0.960 . S
C199 C196 1.511 . S
C199 H213 0.961 . S
C199 H214 0.961 . S
C199 H215 0.961 . S
C200 C201 1.370 . S
C200 C202 1.363 . S
C200 H216 0.931 . S
C201 C200 1.370 . S
C201 C205 1.408 . S
C202 C200 1.363 . S
C202 C203 1.370 . S
C202 C206 1.524 . S
C203 C195 1.503 . S
C203 C202 1.370 . S
C203 C204 1.403 . S
C204 C203 1.403 . S
C204 C205 1.404 . S
C204 C207 1.539 . S
C205 C201 1.408 . S
C205 C204 1.404 . S
C205 H217 0.930 . S
C206 C202 1.524 . S
C206 H218 0.956 . S
C206 H219 0.961 . S
C206 H220 0.961 . S
C207 C204 1.539 . S
C207 H221 0.958 . S
C207 H222 0.961 . S
C207 H223 0.960 . S
H208 C192 0.931 . S
H209 C197 0.929 . S
H210 C198 0.960 . S
H211 C198 0.962 . S
H212 C198 0.960 . S
H213 C199 0.961 . S
H214 C199 0.961 . S
H215 C199 0.961 . S
H216 C200 0.931 . S
H217 C205 0.930 . S
H218 C206 0.956 . S
H219 C206 0.961 . S
H220 C206 0.961 . S
H221 C207 0.958 . S
H222 C207 0.961 . S
H223 C207 0.960 . S
C224 C225 1.391 . S
C224 C226 1.394 . S
C224 H240 0.931 . S
C225 C224 1.391 . S
C225 C229 1.376 . S
C226 C224 1.394 . S
C226 C227 1.369 . S
C226 C230 1.531 . S
C227 C226 1.369 . S
C227 C228 1.410 . S
C227 C235 1.503 . S
C228 C227 1.410 . S
C228 C229 1.392 . S
C228 C231 1.511 . S
C229 C225 1.376 . S
C229 C228 1.392 . S
C229 H241 0.929 . S
C230 C226 1.531 . S
C230 H242 0.960 . S
C230 H243 0.962 . S
C230 H244 0.960 . S
C231 C228 1.511 . S
C231 H245 0.961 . S
C231 H246 0.961 . S
C231 H247 0.961 . S
C232 C233 1.370 . S
C232 C234 1.363 . S
C232 H248 0.931 . S
C233 C232 1.370 . S
C233 C237 1.408 . S
C234 C232 1.363 . S
C234 C235 1.370 . S
C234 C238 1.524 . S
C235 C227 1.503 . S
C235 C234 1.370 . S
C235 C236 1.403 . S
C236 C235 1.403 . S
C236 C237 1.404 . S
C236 C239 1.539 . S
C237 C233 1.408 . S
C237 C236 1.404 . S
C237 H249 0.930 . S
C238 C234 1.524 . S
C238 H250 0.956 . S
C238 H251 0.961 . S
C238 H252 0.961 . S
C239 C236 1.539 . S
C239 H253 0.958 . S
C239 H254 0.961 . S
C239 H255 0.960 . S
H240 C224 0.931 . S
H241 C229 0.929 . S
H242 C230 0.960 . S
H243 C230 0.962 . S
H244 C230 0.960 . S
H245 C231 0.961 . S
H246 C231 0.961 . S
H247 C231 0.961 . S
H248 C232 0.931 . S
H249 C237 0.930 . S
H250 C238 0.956 . S
H251 C238 0.961 . S
H252 C238 0.961 . S
H253 C239 0.958 . S
H254 C239 0.961 . S
H255 C239 0.960 . S
C256 C257 1.391 . S
C256 C258 1.394 . S
C256 H272 0.931 . S
C257 C256 1.391 . S
C257 C261 1.376 . S
C258 C256 1.394 . S
C258 C259 1.369 . S
C258 C262 1.531 . S
C259 C258 1.369 . S
C259 C260 1.410 . S
C259 C267 1.503 . S
C260 C259 1.410 . S
C260 C261 1.392 . S
C260 C263 1.511 . S
C261 C257 1.376 . S
C261 C260 1.392 . S
C261 H273 0.929 . S
C262 C258 1.531 . S
C262 H274 0.960 . S
C262 H275 0.962 . S
C262 H276 0.960 . S
C263 C260 1.511 . S
C263 H277 0.961 . S
C263 H278 0.961 . S
C263 H279 0.961 . S
C264 C265 1.370 . S
C264 C266 1.363 . S
C264 H280 0.931 . S
C265 C264 1.370 . S
C265 C269 1.408 . S
C266 C264 1.363 . S
C266 C267 1.370 . S
C266 C270 1.524 . S
C267 C259 1.503 . S
C267 C266 1.370 . S
C267 C268 1.403 . S
C268 C267 1.403 . S
C268 C269 1.404 . S
C268 C271 1.539 . S
C269 C265 1.408 . S
C269 C268 1.404 . S
C269 H281 0.930 . S
C270 C266 1.524 . S
C270 H282 0.956 . S
C270 H283 0.961 . S
C270 H284 0.961 . S
C271 C268 1.539 . S
C271 H285 0.958 . S
C271 H286 0.961 . S
C271 H287 0.960 . S
H272 C256 0.931 . S
H273 C261 0.929 . S
H274 C262 0.960 . S
H275 C262 0.962 . S
H276 C262 0.960 . S
H277 C263 0.961 . S
H278 C263 0.961 . S
H279 C263 0.961 . S
H280 C264 0.931 . S
H281 C269 0.930 . S
H282 C270 0.956 . S
H283 C270 0.961 . S
H284 C270 0.961 . S
H285 C271 0.958 . S
H286 C271 0.961 . S
H287 C271 0.960 . S
C288 C289 1.391 . S
C288 C290 1.394 . S
C288 H304 0.931 . S
C289 C288 1.391 . S
C289 C293 1.376 . S
C290 C288 1.394 . S
C290 C291 1.369 . S
C290 C294 1.531 . S
C291 C290 1.369 . S
C291 C292 1.410 . S
C291 C299 1.503 . S
C292 C291 1.410 . S
C292 C293 1.392 . S
C292 C295 1.511 . S
C293 C289 1.376 . S
C293 C292 1.392 . S
C293 H305 0.929 . S
C294 C290 1.531 . S
C294 H306 0.960 . S
C294 H307 0.962 . S
C294 H308 0.960 . S
C295 C292 1.511 . S
C295 H309 0.961 . S
C295 H310 0.961 . S
C295 H311 0.961 . S
C296 C297 1.370 . S
C296 C298 1.363 . S
C296 H312 0.931 . S
C297 C296 1.370 . S
C297 C301 1.408 . S
C298 C296 1.363 . S
C298 C299 1.370 . S
C298 C302 1.524 . S
C299 C291 1.503 . S
C299 C298 1.370 . S
C299 C300 1.403 . S
C300 C299 1.403 . S
C300 C301 1.404 . S
C300 C303 1.539 . S
C301 C297 1.408 . S
C301 C300 1.404 . S
C301 H313 0.930 . S
C302 C298 1.524 . S
C302 H314 0.956 . S
C302 H315 0.961 . S
C302 H316 0.961 . S
C303 C300 1.539 . S
C303 H317 0.958 . S
C303 H318 0.961 . S
C303 H319 0.960 . S
H304 C288 0.931 . S
H305 C293 0.929 . S
H306 C294 0.960 . S
H307 C294 0.962 . S
H308 C294 0.960 . S
H309 C295 0.961 . S
H310 C295 0.961 . S
H311 C295 0.961 . S
H312 C296 0.931 . S
H313 C301 0.930 . S
H314 C302 0.956 . S
H315 C302 0.961 . S
H316 C302 0.961 . S
H317 C303 0.958 . S
H318 C303 0.961 . S
H319 C303 0.960 . S
C320 C321 1.391 . S
C320 C322 1.394 . S
C320 H336 0.931 . S
C321 C320 1.391 . S
C321 C325 1.376 . S
C322 C320 1.394 . S
C322 C323 1.369 . S
C322 C326 1.531 . S
C323 C322 1.369 . S
C323 C324 1.410 . S
C323 C331 1.503 . S
C324 C323 1.410 . S
C324 C325 1.392 . S
C324 C327 1.511 . S
C325 C321 1.376 . S
C325 C324 1.392 . S
C325 H337 0.929 . S
C326 C322 1.531 . S
C326 H338 0.960 . S
C326 H339 0.962 . S
C326 H340 0.960 . S
C327 C324 1.511 . S
C327 H341 0.961 . S
C327 H342 0.961 . S
C327 H343 0.961 . S
C328 C329 1.370 . S
C328 C330 1.363 . S
C328 H344 0.931 . S
C329 C328 1.370 . S
C329 C333 1.408 . S
C330 C328 1.363 . S
C330 C331 1.370 . S
C330 C334 1.524 . S
C331 C323 1.503 . S
C331 C330 1.370 . S
C331 C332 1.403 . S
C332 C331 1.403 . S
C332 C333 1.404 . S
C332 C335 1.539 . S
C333 C329 1.408 . S
C333 C332 1.404 . S
C333 H345 0.930 . S
C334 C330 1.524 . S
C334 H346 0.956 . S
C334 H347 0.961 . S
C334 H348 0.961 . S
C335 C332 1.539 . S
C335 H349 0.958 . S
C335 H350 0.961 . S
C335 H351 0.960 . S
H336 C320 0.931 . S
H337 C325 0.929 . S
H338 C326 0.960 . S
H339 C326 0.962 . S
H340 C326 0.960 . S
H341 C327 0.961 . S
H342 C327 0.961 . S
H343 C327 0.961 . S
H344 C328 0.931 . S
H345 C333 0.930 . S
H346 C334 0.956 . S
H347 C334 0.961 . S
H348 C334 0.961 . S
H349 C335 0.958 . S
H350 C335 0.961 . S
H351 C335 0.960 . S
C352 C353 1.391 . S
C352 C354 1.394 . S
C352 H368 0.931 . S
C353 C352 1.391 . S
C353 C357 1.376 . S
C354 C352 1.394 . S
C354 C355 1.369 . S
C354 C358 1.531 . S
C355 C354 1.369 . S
C355 C356 1.410 . S
C355 C363 1.503 . S
C356 C355 1.410 . S
C356 C357 1.392 . S
C356 C359 1.511 . S
C357 C353 1.376 . S
C357 C356 1.392 . S
C357 H369 0.929 . S
C358 C354 1.531 . S
C358 H370 0.960 . S
C358 H371 0.962 . S
C358 H372 0.960 . S
C359 C356 1.511 . S
C359 H373 0.961 . S
C359 H374 0.961 . S
C359 H375 0.961 . S
C360 C361 1.370 . S
C360 C362 1.363 . S
C360 H376 0.931 . S
C361 C360 1.370 . S
C361 C365 1.408 . S
C362 C360 1.363 . S
C362 C363 1.370 . S
C362 C366 1.524 . S
C363 C355 1.503 . S
C363 C362 1.370 . S
C363 C364 1.403 . S
C364 C363 1.403 . S
C364 C365 1.404 . S
C364 C367 1.539 . S
C365 C361 1.408 . S
C365 C364 1.404 . S
C365 H377 0.930 . S
C366 C362 1.524 . S
C366 H378 0.956 . S
C366 H379 0.961 . S
C366 H380 0.961 . S
C367 C364 1.539 . S
C367 H381 0.958 . S
C367 H382 0.961 . S
C367 H383 0.960 . S
H368 C352 0.931 . S
H369 C357 0.929 . S
H370 C358 0.960 . S
H371 C358 0.962 . S
H372 C358 0.960 . S
H373 C359 0.961 . S
H374 C359 0.961 . S
H375 C359 0.961 . S
H376 C360 0.931 . S
H377 C365 0.930 . S
H378 C366 0.956 . S
H379 C366 0.961 . S
H380 C366 0.961 . S
H381 C367 0.958 . S
H382 C367 0.961 . S
H383 C367 0.960 . S
C384 C385 1.383 1_556 S
C384 C386 1.396 . S
C384 H400 0.938 . S
C385 C384 1.383 1_554 S
C385 C389 1.376 . S
C386 C384 1.396 . S
C386 C387 1.369 1_556 S
C386 C390 1.531 . S
C387 C386 1.369 1_554 S
C387 C388 1.410 . S
C387 C395 1.503 . S
C388 C387 1.410 . S
C388 C389 1.392 . S
C388 C391 1.511 . S
C389 C385 1.376 . S
C389 C388 1.392 . S
C389 H401 0.929 . S
C390 C386 1.531 . S
C390 H402 0.960 . S
C390 H403 0.962 1_556 S
C390 H404 0.960 . S
C391 C388 1.511 . S
C391 H405 0.961 . S
C391 H406 0.961 . S
C391 H407 0.961 1_554 S
C392 C393 1.370 . S
C392 C394 1.363 . S
C392 H408 0.931 . S
C393 C392 1.370 . S
C393 C397 1.408 1_554 S
C394 C392 1.363 . S
C394 C395 1.370 . S
C394 C398 1.524 . S
C395 C387 1.503 . S
C395 C394 1.370 . S
C395 C396 1.403 1_554 S
C396 C395 1.403 1_556 S
C396 C397 1.404 . S
C396 C399 1.539 . S
C397 C393 1.408 1_556 S
C397 C396 1.404 . S
C397 H409 0.930 . S
C398 C394 1.524 . S
C398 H410 0.956 . S
C398 H411 0.961 . S
C398 H412 0.961 . S
C399 C396 1.539 . S
C399 H413 0.958 . S
C399 H414 0.961 . S
C399 H415 0.960 . S
H400 C384 0.938 . S
H401 C389 0.929 . S
H402 C390 0.960 . S
H403 C390 0.962 1_554 S
H404 C390 0.960 . S
H405 C391 0.961 . S
H406 C391 0.961 . S
H407 C391 0.961 1_556 S
H408 C392 0.931 . S
H409 C397 0.930 . S
H410 C398 0.956 . S
H411 C398 0.961 . S
H412 C398 0.961 . S
H413 C399 0.958 . S
H414 C399 0.961 . S
H415 C399 0.960 . S
C416 C417 1.391 . S
C416 C418 1.394 . S
C416 H432 0.931 . S
C417 C416 1.391 . S
C417 C421 1.376 . S
C418 C416 1.394 . S
C418 C419 1.369 . S
C418 C422 1.531 . S
C419 C418 1.369 . S
C419 C420 1.410 1_455 S
C419 C427 1.503 1_455 S
C420 C419 1.410 1_655 S
C420 C421 1.392 1_655 S
C420 C423 1.511 . S
C421 C417 1.376 . S
C421 C420 1.392 1_455 S
C421 H433 0.929 1_455 S
C422 C418 1.531 . S
C422 H434 0.960 . S
C422 H435 0.962 . S
C422 H436 0.960 . S
C423 C420 1.511 . S
C423 H437 0.961 . S
C423 H438 0.961 . S
C423 H439 0.961 . S
C424 C425 1.370 . S
C424 C426 1.363 . S
C424 H440 0.931 . S
C425 C424 1.370 . S
C425 C429 1.408 . S
C426 C424 1.363 . S
C426 C427 1.370 . S
C426 C430 1.524 1_655 S
C427 C419 1.503 1_655 S
C427 C426 1.370 . S
C427 C428 1.403 . S
C428 C427 1.403 . S
C428 C429 1.404 . S
C428 C431 1.539 . S
C429 C425 1.408 . S
C429 C428 1.404 . S
C429 H441 0.930 . S
C430 C426 1.524 1_455 S
C430 H442 0.956 . S
C430 H443 0.961 . S
C430 H444 0.961 . S
C431 C428 1.539 . S
C431 H445 0.958 . S
C431 H446 0.961 . S
C431 H447 0.960 . S
H432 C416 0.931 . S
H433 C421 0.929 1_655 S
H434 C422 0.960 . S
H435 C422 0.962 . S
H436 C422 0.960 . S
H437 C423 0.961 . S
H438 C423 0.961 . S
H439 C423 0.961 . S
H440 C424 0.931 . S
H441 C429 0.930 . S
H442 C430 0.956 . S
H443 C430 0.961 . S
H444 C430 0.961 . S
H445 C431 0.958 . S
H446 C431 0.961 . S
H447 C431 0.960 . S
C448 C449 1.391 . S
C448 C450 1.394 1_545 S
C448 H464 0.931 . S
C449 C448 1.391 . S
C449 C453 1.376 . S
C450 C448 1.394 1_565 S
C450 C451 1.369 1_565 S
C450 C454 1.531 . S
C451 C450 1.369 1_545 S
C451 C452 1.410 . S
C451 C459 1.503 1_545 S
C452 C451 1.410 . S
C452 C453 1.392 . S
C452 C455 1.511 . S
C453 C449 1.376 . S
C453 C452 1.392 . S
C453 H465 0.929 . S
C454 C450 1.531 . S
C454 H466 0.960 . S
C454 H467 0.962 . S
C454 H468 0.960 . S
C455 C452 1.511 . S
C455 H469 0.961 . S
C455 H470 0.961 . S
C455 H471 0.961 . S
C456 C457 1.370 . S
C456 C458 1.363 . S
C456 H472 0.931 . S
C457 C456 1.370 . S
C457 C461 1.408 . S
C458 C456 1.363 . S
C458 C459 1.370 . S
C458 C462 1.524 . S
C459 C451 1.503 1_565 S
C459 C458 1.370 . S
C459 C460 1.403 . S
C460 C459 1.403 . S
C460 C461 1.404 . S
C460 C463 1.539 1_565 S
C461 C457 1.408 . S
C461 C460 1.404 . S
C461 H473 0.930 . S
C462 C458 1.524 . S
C462 H474 0.956 . S
C462 H475 0.961 . S
C462 H476 0.961 . S
C463 C460 1.539 1_545 S
C463 H477 0.958 . S
C463 H478 0.961 . S
C463 H479 0.960 . S
H464 C448 0.931 . S
H465 C453 0.929 . S
H466 C454 0.960 . S
H467 C454 0.962 . S
H468 C454 0.960 . S
H469 C455 0.961 . S
H470 C455 0.961 . S
H471 C455 0.961 . S
H472 C456 0.931 . S
H473 C461 0.930 . S
H474 C462 0.956 . S
H475 C462 0.961 . S
H476 C462 0.961 . S
H477 C463 0.958 . S
H478 C463 0.961 . S
H479 C463 0.960 . S
C480 C481 1.391 . S
C480 C482 1.394 . S
C480 H496 0.931 . S
C481 C480 1.391 . S
C481 C485 1.376 . S
C482 C480 1.394 . S
C482 C483 1.369 . S
C482 C486 1.531 . S
C483 C482 1.369 . S
C483 C484 1.410 . S
C483 C491 1.503 . S
C484 C483 1.410 . S
C484 C485 1.392 . S
C484 C487 1.511 . S
C485 C481 1.376 . S
C485 C484 1.392 . S
C485 H497 0.929 . S
C486 C482 1.531 . S
C486 H498 0.960 . S
C486 H499 0.962 . S
C486 H500 0.960 . S
C487 C484 1.511 . S
C487 H501 0.961 . S
C487 H502 0.961 . S
C487 H503 0.961 . S
C488 C489 1.370 . S
C488 C490 1.363 . S
C488 H504 0.931 . S
C489 C488 1.370 . S
C489 C493 1.408 . S
C490 C488 1.363 . S
C490 C491 1.370 . S
C490 C494 1.524 . S
C491 C483 1.503 . S
C491 C490 1.370 . S
C491 C492 1.403 . S
C492 C491 1.403 . S
C492 C493 1.404 . S
C492 C495 1.539 . S
C493 C489 1.408 . S
C493 C492 1.404 . S
C493 H505 0.930 . S
C494 C490 1.524 . S
C494 H506 0.956 . S
C494 H507 0.961 . S
C494 H508 0.961 . S
C495 C492 1.539 . S
C495 H509 0.958 . S
C495 H510 0.961 . S
C495 H511 0.960 . S
H496 C480 0.931 . S
H497 C485 0.929 . S
H498 C486 0.960 . S
H499 C486 0.962 . S
H500 C486 0.960 . S
H501 C487 0.961 . S
H502 C487 0.961 . S
H503 C487 0.961 . S
H504 C488 0.931 . S
H505 C493 0.930 . S
H506 C494 0.956 . S
H507 C494 0.961 . S
H508 C494 0.961 . S
H509 C495 0.958 . S
H510 C495 0.961 . S
H511 C495 0.960 . S
C512 C513 1.391 . S
C512 C514 1.394 1_455 S
C512 H528 0.931 . S
C513 C512 1.391 . S
C513 C517 1.376 1_556 S
C514 C512 1.394 1_655 S
C514 C515 1.369 1_655 S
C514 C518 1.531 . S
C515 C514 1.369 1_455 S
C515 C516 1.410 1_556 S
C515 C523 1.503 1_455 S
C516 C515 1.410 1_554 S
C516 C517 1.392 . S
C516 C519 1.511 . S
C517 C513 1.376 1_554 S
C517 C516 1.392 . S
C517 H529 0.929 . S
C518 C514 1.531 . S
C518 H530 0.960 . S
C518 H531 0.962 . S
C518 H532 0.960 . S
C519 C516 1.511 . S
C519 H533 0.961 . S
C519 H534 0.961 . S
C519 H535 0.961 . S
C520 C521 1.370 . S
C520 C522 1.363 1_655 S
C520 H536 0.931 1_655 S
C521 C520 1.370 . S
C521 C525 1.416 . S
C522 C520 1.363 1_455 S
C522 C523 1.370 1_455 S
C522 C526 1.524 . S
C523 C515 1.503 1_655 S
C523 C522 1.370 1_655 S
C523 C524 1.401 1_556 S
C524 C523 1.401 1_554 S
C524 C525 1.404 1_554 S
C524 C527 1.542 . S
C525 C521 1.416 . S
C525 C524 1.404 1_556 S
C525 H537 0.923 1_556 S
C526 C522 1.524 . S
C526 H538 0.956 . S
C526 H539 0.961 . S
C526 H540 0.961 . S
C527 C524 1.542 . S
C527 H541 0.958 . S
C527 H542 0.961 . S
C527 H543 0.960 . S
H528 C512 0.931 . S
H529 C517 0.929 . S
H530 C518 0.960 . S
H531 C518 0.962 . S
H532 C518 0.960 . S
H533 C519 0.961 . S
H534 C519 0.961 . S
H535 C519 0.961 . S
H536 C520 0.931 1_455 S
H537 C525 0.923 1_554 S
H538 C526 0.956 . S
H539 C526 0.961 . S
H540 C526 0.961 . S
H541 C527 0.958 . S
H542 C527 0.961 . S
H543 C527 0.960 . S
C544 C545 1.391 . S
C544 C546 1.394 . S
C544 H560 0.931 . S
C545 C544 1.391 . S
C545 C549 1.376 . S
C546 C544 1.394 . S
C546 C547 1.369 . S
C546 C550 1.531 . S
C547 C546 1.369 . S
C547 C548 1.410 1_565 S
C547 C555 1.503 1_565 S
C548 C547 1.410 1_545 S
C548 C549 1.392 1_545 S
C548 C551 1.511 . S
C549 C545 1.376 . S
C549 C548 1.392 1_565 S
C549 H561 0.929 . S
C550 C546 1.531 . S
C550 H562 0.960 . S
C550 H563 0.962 . S
C550 H564 0.960 . S
C551 C548 1.511 . S
C551 H565 0.961 . S
C551 H566 0.961 . S
C551 H567 0.961 . S
C552 C553 1.370 . S
C552 C554 1.363 1_545 S
C552 H568 0.927 1_545 S
C553 C552 1.370 . S
C553 C557 1.408 . S
C554 C552 1.363 1_565 S
C554 C555 1.370 1_565 S
C554 C558 1.524 . S
C555 C547 1.503 1_545 S
C555 C554 1.370 1_545 S
C555 C556 1.403 . S
C556 C555 1.403 . S
C556 C557 1.404 . S
C556 C559 1.539 . S
C557 C553 1.408 . S
C557 C556 1.404 . S
C557 H569 0.930 . S
C558 C554 1.524 . S
C558 H570 0.956 . S
C558 H571 0.961 . S
C558 H572 0.961 . S
C559 C556 1.539 . S
C559 H573 0.958 . S
C559 H574 0.961 . S
C559 H575 0.960 . S
H560 C544 0.931 . S
H561 C549 0.929 . S
H562 C550 0.960 . S
H563 C550 0.962 . S
H564 C550 0.960 . S
H565 C551 0.961 . S
H566 C551 0.961 . S
H567 C551 0.961 . S
H568 C552 0.927 1_565 S
H569 C557 0.930 . S
H570 C558 0.956 . S
H571 C558 0.961 . S
H572 C558 0.961 . S
H573 C559 0.958 . S
H574 C559 0.961 . S
H575 C559 0.960 . S
C576 C577 1.391 . S
C576 C578 1.394 . S
C576 H592 0.931 . S
C577 C576 1.391 . S
C577 C581 1.376 . S
C578 C576 1.394 . S
C578 C579 1.369 . S
C578 C582 1.531 . S
C579 C578 1.369 . S
C579 C580 1.410 . S
C579 C587 1.503 . S
C580 C579 1.410 . S
C580 C581 1.392 . S
C580 C583 1.511 . S
C581 C577 1.376 . S
C581 C580 1.392 . S
C581 H593 0.929 . S
C582 C578 1.531 . S
C582 H594 0.960 . S
C582 H595 0.962 . S
C582 H596 0.960 . S
C583 C580 1.511 . S
C583 H597 0.961 . S
C583 H598 0.961 . S
C583 H599 0.961 . S
C584 C585 1.370 . S
C584 C586 1.363 . S
C584 H600 0.931 . S
C585 C584 1.370 . S
C585 C589 1.408 . S
C586 C584 1.363 . S
C586 C587 1.370 . S
C586 C590 1.524 . S
C587 C579 1.503 . S
C587 C586 1.370 . S
C587 C588 1.403 . S
C588 C587 1.403 . S
C588 C589 1.404 . S
C588 C591 1.539 . S
C589 C585 1.408 . S
C589 C588 1.404 . S
C589 H601 0.930 . S
C590 C586 1.524 . S
C590 H602 0.956 . S
C590 H603 0.961 . S
C590 H604 0.961 . S
C591 C588 1.539 . S
C591 H605 0.958 . S
C591 H606 0.961 . S
C591 H607 0.960 . S
H592 C576 0.931 . S
H593 C581 0.929 . S
H594 C582 0.960 . S
H595 C582 0.962 . S
H596 C582 0.960 . S
H597 C583 0.961 . S
H598 C583 0.961 . S
H599 C583 0.961 . S
H600 C584 0.931 . S
H601 C589 0.930 . S
H602 C590 0.956 . S
H603 C590 0.961 . S
H604 C590 0.961 . S
H605 C591 0.958 . S
H606 C591 0.961 . S
H607 C591 0.960 . S
C608 C609 1.391 . S
C608 C610 1.394 1_655 S
C608 H624 0.931 . S
C609 C608 1.391 . S
C609 C613 1.376 . S
C610 C608 1.394 1_455 S
C610 C611 1.369 . S
C610 C614 1.531 . S
C611 C610 1.369 . S
C611 C612 1.410 . S
C611 C619 1.503 . S
C612 C611 1.410 . S
C612 C613 1.392 1_455 S
C612 C615 1.511 . S
C613 C609 1.376 . S
C613 C612 1.392 1_655 S
C613 H625 0.929 . S
C614 C610 1.531 . S
C614 H626 0.960 . S
C614 H627 0.962 1_455 S
C614 H628 0.960 . S
C615 C612 1.511 . S
C615 H629 0.961 . S
C615 H630 0.961 . S
C615 H631 0.961 . S
C616 C617 1.370 . S
C616 C618 1.363 . S
C616 H632 0.931 . S
C617 C616 1.370 . S
C617 C621 1.408 . S
C618 C616 1.363 . S
C618 C619 1.370 . S
C618 C622 1.524 1_455 S
C619 C611 1.503 . S
C619 C618 1.370 . S
C619 C620 1.403 . S
C620 C619 1.403 . S
C620 C621 1.404 . S
C620 C623 1.539 . S
C621 C617 1.408 . S
C621 C620 1.404 . S
C621 H633 0.930 . S
C622 C618 1.524 1_655 S
C622 H634 0.956 . S
C622 H635 0.961 . S
C622 H636 0.961 . S
C623 C620 1.539 . S
C623 H637 0.958 . S
C623 H638 0.961 . S
C623 H639 0.960 . S
H624 C608 0.931 . S
H625 C613 0.929 . S
H626 C614 0.960 . S
H627 C614 0.962 1_655 S
H628 C614 0.960 . S
H629 C615 0.961 . S
H630 C615 0.961 . S
H631 C615 0.961 . S
H632 C616 0.931 . S
H633 C621 0.930 . S
H634 C622 0.956 . S
H635 C622 0.961 . S
H636 C622 0.961 . S
H637 C623 0.958 . S
H638 C623 0.961 . S
H639 C623 0.960 . S
C640 C641 1.391 . S
C640 C642 1.394 1_565 S
C640 H656 0.931 . S
C641 C640 1.391 . S
C641 C645 1.376 . S
C642 C640 1.394 1_545 S
C642 C643 1.369 . S
C642 C646 1.531 . S
C643 C642 1.369 . S
C643 C644 1.410 . S
C643 C651 1.503 . S
C644 C643 1.410 . S
C644 C645 1.392 1_545 S
C644 C647 1.511 . S
C645 C641 1.376 . S
C645 C644 1.392 1_565 S
C645 H657 0.929 . S
C646 C642 1.531 . S
C646 H658 0.960 . S
C646 H659 0.962 . S
C646 H660 0.960 . S
C647 C644 1.511 . S
C647 H661 0.961 . S
C647 H662 0.961 . S
C647 H663 0.961 . S
C648 C649 1.370 . S
C648 C650 1.363 . S
C648 H664 0.931 . S
C649 C648 1.370 . S
C649 C653 1.408 . S
C650 C648 1.363 . S
C650 C651 1.370 . S
C650 C654 1.524 1_545 S
C651 C643 1.503 . S
C651 C650 1.370 . S
C651 C652 1.403 . S
C652 C651 1.403 . S
C652 C653 1.404 . S
C652 C655 1.539 . S
C653 C649 1.408 . S
C653 C652 1.404 . S
C653 H665 0.930 . S
C654 C650 1.524 1_565 S
C654 H666 0.956 . S
C654 H667 0.961 . S
C654 H668 0.961 . S
C655 C652 1.539 . S
C655 H669 0.958 . S
C655 H670 0.961 . S
C655 H671 0.960 . S
H656 C640 0.931 . S
H657 C645 0.929 . S
H658 C646 0.960 . S
H659 C646 0.962 . S
H660 C646 0.960 . S
H661 C647 0.961 . S
H662 C647 0.961 . S
H663 C647 0.961 . S
H664 C648 0.931 . S
H665 C653 0.930 . S
H666 C654 0.956 . S
H667 C654 0.961 . S
H668 C654 0.961 . S
H669 C655 0.958 . S
H670 C655 0.961 . S
H671 C655 0.960 . S
C672 C673 1.391 . S
C672 C674 1.394 . S
C672 H688 0.931 . S
C673 C672 1.391 . S
C673 C677 1.376 . S
C674 C672 1.394 . S
C674 C675 1.369 . S
C674 C678 1.531 . S
C675 C674 1.369 . S
C675 C676 1.410 . S
C675 C683 1.503 . S
C676 C675 1.410 . S
C676 C677 1.392 . S
C676 C679 1.511 . S
C677 C673 1.376 . S
C677 C676 1.392 . S
C677 H689 0.929 . S
C678 C674 1.531 . S
C678 H690 0.960 . S
C678 H691 0.962 . S
C678 H692 0.960 . S
C679 C676 1.511 . S
C679 H693 0.961 . S
C679 H694 0.961 . S
C679 H695 0.961 . S
C680 C681 1.370 . S
C680 C682 1.363 . S
C680 H696 0.931 . S
C681 C680 1.370 . S
C681 C685 1.408 . S
C682 C680 1.363 . S
C682 C683 1.370 . S
C682 C686 1.524 . S
C683 C675 1.503 . S
C683 C682 1.370 . S
C683 C684 1.403 . S
C684 C683 1.403 . S
C684 C685 1.404 . S
C684 C687 1.539 . S
C685 C681 1.408 . S
C685 C684 1.404 . S
C685 H697 0.930 . S
C686 C682 1.524 . S
C686 H698 0.956 . S
C686 H699 0.961 . S
C686 H700 0.961 . S
C687 C684 1.539 . S
C687 H701 0.958 . S
C687 H702 0.961 . S
C687 H703 0.960 . S
H688 C672 0.931 . S
H689 C677 0.929 . S
H690 C678 0.960 . S
H691 C678 0.962 . S
H692 C678 0.960 . S
H693 C679 0.961 . S
H694 C679 0.961 . S
H695 C679 0.961 . S
H696 C680 0.931 . S
H697 C685 0.930 . S
H698 C686 0.956 . S
H699 C686 0.961 . S
H700 C686 0.961 . S
H701 C687 0.958 . S
H702 C687 0.961 . S
H703 C687 0.960 . S
C704 C705 1.382 1_655 S
C704 C706 1.397 . S
C704 H720 0.936 . S
C705 C704 1.382 1_455 S
C705 C709 1.376 . S
C706 C704 1.397 . S
C706 C707 1.369 . S
C706 C710 1.531 . S
C707 C706 1.369 . S
C707 C708 1.410 1_655 S
C707 C715 1.503 . S
C708 C707 1.410 1_455 S
C708 C709 1.392 . S
C708 C711 1.511 . S
C709 C705 1.376 . S
C709 C708 1.392 . S
C709 H721 0.929 . S
C710 C706 1.531 . S
C710 H722 0.960 . S
C710 H723 0.962 . S
C710 H724 0.960 . S
C711 C708 1.511 . S
C711 H725 0.961 . S
C711 H726 0.961 . S
C711 H727 0.961 . S
C712 C713 1.370 . S
C712 C714 1.363 . S
C712 H728 0.931 . S
C713 C712 1.370 . S
C713 C717 1.408 . S
C714 C712 1.363 . S
C714 C715 1.370 . S
C714 C718 1.524 . S
C715 C707 1.503 . S
C715 C714 1.370 . S
C715 C716 1.403 . S
C716 C715 1.403 . S
C716 C717 1.404 . S
C716 C719 1.539 1_655 S
C717 C713 1.408 . S
C717 C716 1.404 . S
C717 H729 0.930 . S
C718 C714 1.524 . S
C718 H730 0.956 . S
C718 H731 0.961 . S
C718 H732 0.961 . S
C719 C716 1.539 1_455 S
C719 H733 0.958 . S
C719 H734 0.961 . S
C719 H735 0.960 . S
H720 C704 0.936 . S
H721 C709 0.929 . S
H722 C710 0.960 . S
H723 C710 0.962 . S
H724 C710 0.960 . S
H725 C711 0.961 . S
H726 C711 0.961 . S
H727 C711 0.961 . S
H728 C712 0.931 . S
H729 C717 0.930 . S
H730 C718 0.956 . S
H731 C718 0.961 . S
H732 C718 0.961 . S
H733 C719 0.958 . S
H734 C719 0.961 . S
H735 C719 0.960 . S
C736 C737 1.391 1_565 S
C736 C738 1.394 . S
C736 H752 0.931 . S
C737 C736 1.391 1_545 S
C737 C741 1.376 . S
C738 C736 1.394 . S
C738 C739 1.369 . S
C738 C742 1.531 . S
C739 C738 1.369 . S
C739 C740 1.410 1_565 S
C739 C747 1.503 . S
C740 C739 1.410 1_545 S
C740 C741 1.392 . S
C740 C743 1.511 . S
C741 C737 1.376 . S
C741 C740 1.392 . S
C741 H753 0.929 . S
C742 C738 1.531 . S
C742 H754 0.960 . S
C742 H755 0.962 . S
C742 H756 0.960 . S
C743 C740 1.511 . S
C743 H757 0.961 . S
C743 H758 0.961 . S
C743 H759 0.961 . S
C744 C745 1.370 . S
C744 C746 1.363 . S
C744 H760 0.931 . S
C745 C744 1.370 . S
C745 C749 1.408 . S
C746 C744 1.363 . S
C746 C747 1.370 . S
C746 C750 1.524 . S
C747 C739 1.503 . S
C747 C746 1.370 . S
C747 C748 1.403 . S
C748 C747 1.403 . S
C748 C749 1.404 . S
C748 C751 1.539 . S
C749 C745 1.408 . S
C749 C748 1.404 . S
C749 H761 0.930 . S
C750 C746 1.524 . S
C750 H762 0.956 . S
C750 H763 0.961 . S
C750 H764 0.961 . S
C751 C748 1.539 . S
C751 H765 0.958 . S
C751 H766 0.961 1_565 S
C751 H767 0.960 1_565 S
H752 C736 0.931 . S
H753 C741 0.929 . S
H754 C742 0.960 . S
H755 C742 0.962 . S
H756 C742 0.960 . S
H757 C743 0.961 . S
H758 C743 0.961 . S
H759 C743 0.961 . S
H760 C744 0.931 . S
H761 C749 0.930 . S
H762 C750 0.956 . S
H763 C750 0.961 . S
H764 C750 0.961 . S
H765 C751 0.958 . S
H766 C751 0.961 1_545 S
H767 C751 0.960 1_545 S
C193 C157 0.683 . S
C201 N18 0.676 . S
C225 C164 0.666 . S
C233 N45 0.671 . S
C257 C29 0.657 . S
C265 N82 0.674 . S
C289 C36 0.709 . S
C297 N114 0.699 . S
C321 C93 0.689 . S
C329 N146 0.679 . S
C353 C125 0.671 . S
C361 N173 0.672 . S
C385 C6 1.545 . S
C393 C102 1.566 . S
C417 C134 1.582 . S
C425 C34 1.562 . S
C449 C162 1.542 . S
C457 C70 1.568 . S
C481 C68 1.504 . S
C489 C189 1.494 . S
C513 C4 1.524 . S
C521 C100 1.485 . S
C545 C132 1.528 . S
C553 C61 1.484 . S
C577 C166 0.920 . S
C585 N13 0.934 . S
C609 N50 0.944 . S
C617 C2 0.919 . S
C641 N77 0.948 . S
C649 C38 0.921 . S
C673 C66 0.942 . S
C681 N109 0.915 . S
C705 N141 0.908 . S
C713 C98 0.933 . S
C737 N178 0.920 . S
C745 C130 0.935 . S
