# Generated by pormake.
# Topology smm, (6)-cn, num edge types: 1
# Building blocks:
#     Node 0, Type 0, BuildingBlock: BETGAK_clean_sbu_0, # of connection points: 6
#     Node 1, Type 0, BuildingBlock: BETGAK_clean_sbu_0, # of connection points: 6
#     Node 2, Type 0, BuildingBlock: BETGAK_clean_sbu_0, # of connection points: 6
#     Node 3, Type 0, BuildingBlock: BETGAK_clean_sbu_0, # of connection points: 6
#     Node 4, Type 0, BuildingBlock: BETGAK_clean_sbu_0, # of connection points: 6
#     Node 5, Type 0, BuildingBlock: BETGAK_clean_sbu_0, # of connection points: 6
#     Node 6, Type 0, BuildingBlock: BETGAK_clean_sbu_0, # of connection points: 6
#     Node 7, Type 0, BuildingBlock: BETGAK_clean_sbu_0, # of connection points: 6
#     Node 8, Type 0, BuildingBlock: BETGAK_clean_sbu_0, # of connection points: 6
#     Edge 9, Type (0, 0), BuildingBlock: AJUNOK_clean_linker_0, # of connection points: 2
#     Edge 10, Type (0, 0), BuildingBlock: AJUNOK_clean_linker_0, # of connection points: 2
#     Edge 11, Type (0, 0), BuildingBlock: AJUNOK_clean_linker_0, # of connection points: 2
#     Edge 12, Type (0, 0), BuildingBlock: AJUNOK_clean_linker_0, # of connection points: 2
#     Edge 13, Type (0, 0), BuildingBlock: AJUNOK_clean_linker_0, # of connection points: 2
#     Edge 14, Type (0, 0), BuildingBlock: AJUNOK_clean_linker_0, # of connection points: 2
#     Edge 15, Type (0, 0), BuildingBlock: AJUNOK_clean_linker_0, # of connection points: 2
#     Edge 16, Type (0, 0), BuildingBlock: AJUNOK_clean_linker_0, # of connection points: 2
#     Edge 17, Type (0, 0), BuildingBlock: AJUNOK_clean_linker_0, # of connection points: 2
#     Edge 18, Type (0, 0), BuildingBlock: AJUNOK_clean_linker_0, # of connection points: 2
#     Edge 19, Type (0, 0), BuildingBlock: AJUNOK_clean_linker_0, # of connection points: 2
#     Edge 20, Type (0, 0), BuildingBlock: AJUNOK_clean_linker_0, # of connection points: 2
#     Edge 21, Type (0, 0), BuildingBlock: AJUNOK_clean_linker_0, # of connection points: 2
#     Edge 22, Type (0, 0), BuildingBlock: AJUNOK_clean_linker_0, # of connection points: 2
#     Edge 23, Type (0, 0), BuildingBlock: AJUNOK_clean_linker_0, # of connection points: 2
#     Edge 24, Type (0, 0), BuildingBlock: AJUNOK_clean_linker_0, # of connection points: 2
#     Edge 25, Type (0, 0), BuildingBlock: AJUNOK_clean_linker_0, # of connection points: 2
#     Edge 26, Type (0, 0), BuildingBlock: AJUNOK_clean_linker_0, # of connection points: 2
#     Edge 27, Type (0, 0), BuildingBlock: AJUNOK_clean_linker_0, # of connection points: 2
#     Edge 28, Type (0, 0), BuildingBlock: AJUNOK_clean_linker_0, # of connection points: 2
#     Edge 29, Type (0, 0), BuildingBlock: AJUNOK_clean_linker_0, # of connection points: 2
#     Edge 30, Type (0, 0), BuildingBlock: AJUNOK_clean_linker_0, # of connection points: 2
#     Edge 31, Type (0, 0), BuildingBlock: AJUNOK_clean_linker_0, # of connection points: 2
#     Edge 32, Type (0, 0), BuildingBlock: AJUNOK_clean_linker_0, # of connection points: 2
#     Edge 33, Type (0, 0), BuildingBlock: AJUNOK_clean_linker_0, # of connection points: 2
#     Edge 34, Type (0, 0), BuildingBlock: AJUNOK_clean_linker_0, # of connection points: 2
#     Edge 35, Type (0, 0), BuildingBlock: AJUNOK_clean_linker_0, # of connection points: 2
# Relax obj value: 0.034
# Max RMSD: 0.111
# Mean RMSD: 0.111
data_MOF--net-smm--node1-BETGAK_clean_sbu_0--edge1-AJUNOK_clean_linker_0
_symmetry_space_group_name_H-M    P1
_symmetry_Int_Tables_number       1
_symmetry_cell_setting            triclinic
loop_
_symmetry_equiv_pos_as_xyz
'x, y, z'
_cell_length_a     56.993415
_cell_length_b     57.055915
_cell_length_c     10.373801
_cell_angle_alpha  89.936783
_cell_angle_beta   90.171848
_cell_angle_gamma 119.9524
loop_
_atom_site_label
_atom_site_type_symbol
_atom_site_fract_x
_atom_site_fract_y
_atom_site_fract_z
_atom_type_partial_charge
La0 La 0.0857 0.23977 0.01061 0.0
La1 La 1.03667 0.18425 0.04262 0.0
C2 C 0.11996 0.2856 0.91966 0.0
C3 C 0.12778 0.3146 0.90156 0.0
C4 C 0.14315 0.33416 -0.00457 0.0
C5 C 0.15455 0.36188 0.96901 0.0
C6 C 0.15118 0.37088 0.84751 0.0
C7 C 0.13484 0.35132 0.75564 0.0
C8 C 0.12345 0.32358 0.782 0.0
C9 C 0.07462 0.22243 0.25245 0.0
C10 C 1.02733 0.2343 0.0567 0.0
C11 C 1.00184 0.1368 0.11306 0.0
C12 C 0.99298 0.10776 0.08897 0.0
C13 C 0.98077 0.09499 0.97171 0.0
C14 C 0.96952 0.06694 0.95663 0.0
C15 C 0.97001 0.05085 0.05845 0.0
C16 C 0.98305 0.06376 0.17399 0.0
C17 C 0.99424 0.0918 0.18922 0.0
C18 C 1.04831 0.2013 0.80072 0.0
C19 C 0.09582 0.19041 0.02328 0.0
O20 O 0.12153 0.27719 0.03521 0.0
O21 O 0.09919 0.2671 0.85475 0.0
O22 O 0.09878 0.23874 0.20934 0.0
O23 O 0.05788 0.21861 0.16411 0.0
O24 O 1.05239 0.24928 0.01197 0.0
O25 O 1.01822 0.20881 0.09142 0.0
O26 O 0.99796 0.15023 0.02113 0.0
O27 O 1.02497 0.1517 0.17238 0.0
O28 O 1.02422 0.18555 0.84443 0.0
O29 O 0.06494 0.20501 0.88946 0.0
O30 O 0.07002 0.17533 0.05657 0.0
O31 O 0.10573 0.21582 0.98518 0.0
H32 H 0.14719 0.32814 0.08812 0.0
H33 H 0.16648 0.37633 0.0432 0.0
H34 H 0.13182 0.35747 0.66113 0.0
H35 H 0.11212 0.30918 0.70655 0.0
H36 H 0.97935 0.10654 0.89221 0.0
H37 H 0.9602 0.0578 0.86532 0.0
H38 H 0.98379 0.05203 0.25443 0.0
H39 H 1.00324 0.10092 0.28109 0.0
La40 La 0.86705 0.87362 0.01529 0.0
La41 La 0.92169 0.87801 0.04663 0.0
C42 C 0.82137 0.86323 0.92539 0.0
C43 C 0.79253 0.84195 0.9038 0.0
C44 C 0.77231 0.83834 0.99231 0.0
C45 C 0.74476 0.82145 0.96297 0.0
C46 C 0.73663 0.80772 0.84422 0.0
C47 C 0.75687 0.81094 0.75674 0.0
C48 C 0.7844 0.82784 0.78598 0.0
C49 C 0.88468 0.88023 0.25605 0.0
C50 C 0.87045 0.81966 0.06292 0.0
C51 C 0.96928 0.88964 0.11232 0.0
C52 C 0.99837 0.90994 0.08783 0.0
C53 C 1.0123 0.90723 0.98206 0.0
C54 C 1.0403 0.92461 0.96704 0.0
C55 C 0.05522 0.94523 0.05724 0.0
C56 C 1.04125 0.94807 0.16245 0.0
C57 C 1.01327 0.93067 0.17755 0.0
C58 C 0.90431 0.8736 0.80491 0.0
C59 C 0.91736 0.93218 0.0283 0.0
O60 O 0.82951 0.87169 0.04319 0.0
O61 O 0.84014 0.86201 0.85795 0.0
O62 O 0.86922 0.88898 0.21048 0.0
O63 O 0.88776 0.86631 0.17038 0.0
O64 O 0.85632 0.83061 0.01699 0.0
O65 O 0.89619 0.83516 0.09763 0.0
O66 O 0.95548 0.87306 0.01869 0.0
O67 O 0.95457 0.89744 0.17625 0.0
O68 O 0.91897 0.86378 0.8473 0.0
O69 O 0.90161 0.88679 0.89486 0.0
O70 O 0.93188 0.92073 0.06121 0.0
O71 O 0.89181 0.91734 0.99063 0.0
H72 H 0.7777 0.84923 0.08292 0.0
H73 H 0.72975 0.8194 0.03275 0.0
H74 H 0.75142 0.8012 0.66327 0.0
H75 H 0.79929 0.83058 0.71399 0.0
H76 H 1.00171 0.89129 0.91182 0.0
H77 H 1.05032 0.92182 0.88484 0.0
H78 H 1.0521 0.96325 0.2356 0.0
H79 H 1.0034 0.93304 0.26159 0.0
La80 La 0.23224 1.02017 0.00718 0.0
La81 La 0.22861 0.07071 0.03866 0.0
C82 C 0.24322 0.98542 0.9167 0.0
C83 C 0.26492 0.97821 0.89982 0.0
C84 C 0.26953 0.96326 0.99446 0.0
C85 C 0.28651 0.95252 0.96959 0.0
C86 C 0.29916 0.95615 0.84896 0.0
C87 C 0.29559 0.97218 0.75651 0.0
C88 C 0.27857 0.98291 0.78127 0.0
C89 C 0.22627 1.03128 0.24835 0.0
C90 C 0.28666 0.07731 0.0551 0.0
C91 C 0.2173 0.10675 0.10487 0.0
C92 C 0.19723 0.11586 0.08004 0.0
C93 C 0.19926 0.13139 0.97051 0.0
C94 C 0.18247 0.1427 0.95584 0.0
C95 C 0.16333 0.13907 0.05075 0.0
C96 C 0.16069 0.12281 0.15812 0.0
C97 C 0.17749 0.11148 0.17285 0.0
C98 C 0.23256 0.05768 0.79678 0.0
C99 C 0.1739 1.01269 0.02172 0.0
O100 O 0.23353 0.98419 0.03241 0.0
O101 O 0.245 1.00582 0.8506 0.0
O102 O 0.21737 1.00708 0.20308 0.0
O103 O 0.24013 0.0482 0.16231 0.0
O104 O 0.2754 0.05229 0.00888 0.0
O105 O 0.27134 0.08762 0.09091 0.0
O106 O 0.234 0.10961 0.01197 0.0
O107 O 0.20917 0.08408 0.1679 0.0
O108 O 0.24272 0.08215 0.83917 0.0
O109 O 0.21929 0.04185 0.88675 0.0
O110 O 0.18588 0.03863 0.05423 0.0
O111 O 0.18827 1.00146 0.98387 0.0
H112 H 0.25929 0.959 0.0865 0.0
H113 H 0.28925 0.94079 0.04414 0.0
H114 H 0.30499 0.9754 0.66266 0.0
H115 H 0.27526 0.994 0.70535 0.0
H116 H 0.21424 0.13534 0.89702 0.0
H117 H 0.18464 0.15451 0.87031 0.0
H118 H 0.14619 0.11955 0.23316 0.0
H119 H 0.17551 0.0999 0.259 0.0
La120 La 0.75271 0.57299 0.34892 0.0
La121 La 0.70372 0.5172 0.38046 0.0
C122 C 0.78829 0.6186 0.26105 0.0
C123 C 0.7969 0.6472 0.22956 0.0
C124 C 0.78813 0.66256 0.29898 0.0
C125 C 0.79869 0.69022 0.27095 0.0
C126 C 0.81832 0.70305 0.17366 0.0
C127 C 0.82667 0.68739 0.10385 0.0
C128 C 0.81603 0.65987 0.13114 0.0
C129 C 0.74184 0.55498 0.58994 0.0
C130 C 0.69459 0.5674 0.39521 0.0
C131 C 0.66841 0.46993 0.45138 0.0
C132 C 0.65747 0.4407 0.42373 0.0
C133 C 0.6293 0.42333 0.42601 0.0
C134 C 0.61799 0.39541 0.40783 0.0
C135 C 0.63455 0.38399 0.38607 0.0
C136 C 0.66285 0.40143 0.38356 0.0
C137 C 0.6742 0.4295 0.40187 0.0
C138 C 0.71546 0.53414 0.13818 0.0
C139 C 0.76297 0.52363 0.36386 0.0
O140 O 0.78654 0.61155 0.38228 0.0
O141 O 0.76938 0.59946 0.19041 0.0
O142 O 0.76597 0.57131 0.54649 0.0
O143 O 0.725 0.5514 0.5025 0.0
O144 O 0.71913 0.58211 0.3445 0.0
O145 O 0.686 0.54223 0.43406 0.0
O146 O 0.66404 0.48406 0.36513 0.0
O147 O 0.69263 0.48371 0.5023 0.0
O148 O 0.69141 0.51817 0.18169 0.0
O149 O 0.73204 0.53814 0.2276 0.0
O150 O 0.73709 0.50839 0.39547 0.0
O151 O 0.77296 0.54915 0.32714 0.0
H152 H 0.77353 0.65334 0.37596 0.0
H153 H 0.79205 0.70174 0.32772 0.0
H154 H 0.84157 0.6965 0.02796 0.0
H155 H 0.8232 0.64852 0.0765 0.0
H156 H 0.61594 0.43136 0.4442 0.0
H157 H 0.59621 0.38267 0.41399 0.0
H158 H 0.67623 0.39338 0.36715 0.0
H159 H 0.696 0.44234 0.40002 0.0
La160 La 0.53385 0.20696 0.34114 0.0
La161 La 0.58847 0.21152 0.37438 0.0
C162 C 0.48802 0.196 0.25091 0.0
C163 C 0.45914 0.17447 0.23275 0.0
C164 C 0.43915 0.17165 0.32084 0.0
C165 C 0.41154 0.15451 0.29394 0.0
C166 C 0.40306 0.13974 0.17799 0.0
C167 C 0.42307 0.14207 0.09122 0.0
C168 C 0.45069 0.15921 0.11812 0.0
C169 C 0.55104 0.21323 0.58282 0.0
C170 C 0.53744 0.15309 0.3882 0.0
C171 C 0.63593 0.22309 0.44176 0.0
C172 C 0.66506 0.24332 0.41798 0.0
C173 C 0.67903 0.2407 0.31216 0.0
C174 C 0.70704 0.25804 0.29781 0.0
C175 C 0.72192 0.2785 0.38872 0.0
C176 C 0.70791 0.28124 0.49399 0.0
C177 C 0.67991 0.26389 0.50845 0.0
C178 C 0.57143 0.20727 0.13178 0.0
C179 C 0.58407 0.26556 0.35471 0.0
O180 O 0.49646 0.20546 0.36716 0.0
O181 O 0.50663 0.19425 0.18473 0.0
O182 O 0.53558 0.22194 0.53696 0.0
O183 O 0.55432 0.19949 0.49692 0.0
O184 O 0.52347 0.16405 0.34062 0.0
O185 O 0.56296 0.16869 0.42582 0.0
O186 O 0.62224 0.20647 0.34807 0.0
O187 O 0.6212 0.231 0.50465 0.0
O188 O 0.58611 0.19751 0.17462 0.0
O189 O 0.56856 0.22034 0.22172 0.0
O190 O 0.59844 0.25416 0.39102 0.0
O191 O 0.5587 0.25069 0.31446 0.0
H192 H 0.44478 0.18339 0.40902 0.0
H193 H 0.39674 0.15317 0.36324 0.0
H194 H 0.41739 0.13152 -0.00024 0.0
H195 H 0.4654 0.16126 0.04651 0.0
H196 H 0.66846 0.22488 0.24137 0.0
H197 H 0.71712 0.25534 0.21557 0.0
H198 H 0.71874 0.29631 0.56763 0.0
H199 H 0.67 0.26617 0.59254 0.0
La200 La 0.89885 0.35301 0.34206 0.0
La201 La 0.89532 0.40368 0.37392 0.0
C202 C 0.90932 0.31779 0.2531 0.0
C203 C 0.93082 0.31038 0.23424 0.0
C204 C 0.93593 0.29581 0.32909 0.0
C205 C 0.95267 0.28485 0.30291 0.0
C206 C 0.96458 0.28788 0.18072 0.0
C207 C 0.96048 0.30348 0.08784 0.0
C208 C 0.94371 0.31443 0.11394 0.0
C209 C 0.89358 0.36486 0.58363 0.0
C210 C 0.95343 0.41017 0.38613 0.0
C211 C 0.88424 0.43971 0.44307 0.0
C212 C 0.86429 0.44899 0.41913 0.0
C213 C 0.8662 0.46444 0.30947 0.0
C214 C 0.84948 0.47585 0.29541 0.0
C215 C 0.83053 0.47237 0.39103 0.0
C216 C 0.82801 0.4562 0.49859 0.0
C217 C 0.84475 0.4448 0.51275 0.0
C218 C 0.89982 0.39136 0.13219 0.0
C219 C 0.84059 0.34575 0.3553 0.0
O220 O 0.90036 0.31721 0.36987 0.0
O221 O 0.91071 0.33784 0.1854 0.0
O222 O 0.88434 0.34047 0.54012 0.0
O223 O 0.90711 0.3813 0.4957 0.0
O224 O 0.94207 0.38503 0.34116 0.0
O225 O 0.93823 0.42058 0.42213 0.0
O226 O 0.90095 0.44271 0.34996 0.0
O227 O 0.87596 0.41686 0.5047 0.0
O228 O 0.90944 0.41562 0.17633 0.0
O229 O 0.88629 0.37502 0.2205 0.0
O230 O 0.85257 0.37168 0.3877 0.0
O231 O 0.85493 0.33445 0.31823 0.0
H232 H 0.92626 0.29204 0.42248 0.0
H233 H 0.95588 0.27351 0.37788 0.0
H234 H 0.9693 0.30624 0.9928 0.0
H235 H 0.93999 0.3252 0.03784 0.0
H236 H 0.88103 0.46825 0.23535 0.0
H237 H 0.85155 0.48759 0.20976 0.0
H238 H 0.81366 0.45307 0.57416 0.0
H239 H 0.84288 0.43327 0.59899 0.0
La240 La 0.41942 0.90616 0.68035 0.0
La241 La 0.36949 0.85142 0.71068 0.0
C242 C 0.45433 0.95187 0.59023 0.0
C243 C 0.46193 0.98075 0.56891 0.0
C244 C 0.47778 1.00085 0.65986 0.0
C245 C 0.48851 1.02842 0.6313 0.0
C246 C 0.48379 0.03675 0.51086 0.0
C247 C 0.46754 1.01664 0.4208 0.0
C248 C 0.45682 0.98907 0.44931 0.0
C249 C 0.4086 0.88866 0.92101 0.0
C250 C 0.36152 0.90197 0.72888 0.0
C251 C 0.33386 0.80393 0.77626 0.0
C252 C 0.32485 0.77488 0.75024 0.0
C253 C 0.30936 0.76161 0.64016 0.0
C254 C 0.29808 0.73357 0.62461 0.0
C255 C 0.30172 0.71794 0.71914 0.0
C256 C 0.31798 0.73135 0.82697 0.0
C257 C 0.32926 0.7594 0.84259 0.0
C258 C 0.38231 0.86875 0.46916 0.0
C259 C 0.42788 0.85572 0.6946 0.0
O260 O 0.45496 0.94377 0.70771 0.0
O261 O 0.4342 0.9331 0.5232 0.0
O262 O 0.43275 0.90434 0.87613 0.0
O263 O 0.39155 0.88539 0.83483 0.0
O264 O 0.38654 0.91646 0.68259 0.0
O265 O 0.35207 0.8765 0.76458 0.0
O266 O 0.33062 0.81783 0.68452 0.0
O267 O 0.3567 0.81844 0.83849 0.0
O268 O 0.35787 0.85397 0.51102 0.0
O269 O 0.39826 0.87159 0.55945 0.0
O270 O 0.40195 0.84139 0.72637 0.0
O271 O 0.43879 0.88138 0.65811 0.0
H272 H 0.48264 0.99535 0.75199 0.0
H273 H 0.50087 0.04329 0.70316 0.0
H274 H 0.46394 1.0222 0.32603 0.0
H275 H 0.44532 0.9743 0.3755 0.0
H276 H 0.3054 0.77275 0.56698 0.0
H277 H 0.28626 0.72409 0.53879 0.0
H278 H 0.32123 0.72 0.90171 0.0
H279 H 0.34083 0.76885 0.92911 0.0
La280 La 0.20057 0.54008 0.67677 0.0
La281 La 0.25597 0.54619 0.70936 0.0
C282 C 0.15457 0.52867 0.58689 0.0
C283 C 0.12579 0.50708 0.56644 0.0
C284 C 0.10571 0.50287 0.65703 0.0
C285 C 0.07814 0.48578 0.62887 0.0
C286 C 0.06981 0.47245 0.50919 0.0
C287 C 0.08992 0.47619 0.4197 0.0
C288 C 0.11749 0.49329 0.44783 0.0
C289 C 0.21811 0.54636 0.91851 0.0
C290 C 0.20573 0.48706 0.72286 0.0
C291 C 0.30351 0.55861 0.77922 0.0
C292 C 0.33253 0.57864 0.75307 0.0
C293 C 0.34503 0.57839 0.6365 0.0
C294 C 0.37305 0.59516 0.61952 0.0
C295 C 0.38938 0.61253 0.71869 0.0
C296 C 0.37674 0.61342 0.83348 0.0
C297 C 0.34873 0.59659 0.85066 0.0
C298 C 0.23882 0.54081 0.4674 0.0
C299 C 0.25007 0.59931 0.68971 0.0
O300 O 0.16276 0.53758 0.70411 0.0
O301 O 0.17345 0.52758 0.51982 0.0
O302 O 0.20206 0.55455 0.8747 0.0
O303 O 0.22169 0.53325 0.83078 0.0
O304 O 0.19092 0.49729 0.67687 0.0
O305 O 0.2312 0.50329 0.75892 0.0
O306 O 0.28978 0.54108 0.68867 0.0
O307 O 0.28882 0.5671 0.83809 0.0
O308 O 0.25446 0.53232 0.51163 0.0
O309 O 0.23527 0.55385 0.55568 0.0
O310 O 0.2651 0.58847 0.72276 0.0
O311 O 0.22457 0.58397 0.65192 0.0
H312 H 0.1112 0.51348 0.7484 0.0
H313 H 0.06326 0.48335 0.70025 0.0
H314 H 0.08433 0.46679 0.32552 0.0
H315 H 0.13227 0.49649 0.37436 0.0
H316 H 0.33331 0.56484 0.55903 0.0
H317 H 0.38198 0.59436 0.52881 0.0
H318 H 0.38867 0.62651 0.9119 0.0
H319 H 0.33982 0.5971 0.942 0.0
La320 La 0.56661 0.68709 0.66475 0.0
La321 La 0.56196 0.73727 0.69876 0.0
C322 C 0.57612 0.65182 0.56836 0.0
C323 C 0.59502 0.64112 0.55294 0.0
C324 C 0.58406 0.613 0.54746 0.0
C325 C 0.60052 0.60173 0.52302 0.0
C326 C 0.62866 0.61826 0.50568 0.0
C327 C 0.63967 0.64656 0.51021 0.0
C328 C 0.62299 0.65787 0.5328 0.0
C329 C 0.56135 0.6985 0.90766 0.0
C330 C 0.62066 0.74445 0.7134 0.0
C331 C 0.55065 0.77316 0.76859 0.0
C332 C 0.53057 0.78241 0.74691 0.0
C333 C 0.53329 0.7995 0.64287 0.0
C334 C 0.51611 0.81046 0.63064 0.0
C335 C 0.49572 0.80468 0.72198 0.0
C336 C 0.49294 0.78751 0.82566 0.0
C337 C 0.51012 0.77657 0.83799 0.0
C338 C 0.56658 0.72515 0.45634 0.0
C339 C 0.50798 0.679 0.67932 0.0
O340 O 0.56457 0.6492 0.68049 0.0
O341 O 0.58201 0.67464 0.51169 0.0
O342 O 0.55323 0.67429 0.86432 0.0
O343 O 0.57424 0.71507 0.81915 0.0
O344 O 0.60974 0.71925 0.66937 0.0
O345 O 0.60506 0.75465 0.74672 0.0
O346 O 0.56704 0.77612 0.67407 0.0
O347 O 0.54269 0.75039 0.83042 0.0
O348 O 0.57575 0.74934 0.50053 0.0
O349 O 0.55337 0.70875 0.54497 0.0
O350 O 0.51938 0.70473 0.71505 0.0
O351 O 0.52287 0.66868 0.63751 0.0
H352 H 0.56247 0.5996 0.55928 0.0
H353 H 0.59099 0.57995 0.51534 0.0
H354 H 0.66118 0.65998 0.49664 0.0
H355 H 0.63187 0.67961 0.53288 0.0
H356 H 0.54904 0.80487 0.57178 0.0
H357 H 0.51886 0.82356 0.5496 0.0
H358 H 0.47793 0.78309 0.89964 0.0
H359 H 0.50779 0.76403 0.92089 0.0
C360 C 0.15158 0.41218 0.75503 0.0
C361 C 0.16551 0.40047 0.81472 0.0
C362 C 0.16473 0.43995 0.72411 0.0
C363 C 0.19251 0.45729 0.75042 0.0
H364 H 0.13017 0.39986 0.73382 0.0
H365 H 0.15286 0.44788 0.68024 0.0
S366 S 0.23874 0.43617 0.89693 0.0
N367 N 0.20903 0.40813 0.89238 0.0
N368 N 0.23369 0.45997 0.83527 0.0
C369 C 0.20679 0.44562 0.80765 0.0
C370 C 0.19334 0.4174 0.83957 0.0
C371 C 0.68962 0.8015 0.82886 0.0
C372 C 0.70718 0.79112 0.80965 0.0
C373 C 0.66198 0.78652 0.79559 0.0
C374 C 0.65049 0.76034 0.74193 0.0
H375 H 0.69735 0.82157 0.86884 0.0
H376 H 0.64953 0.7956 0.81301 0.0
S377 S 0.68756 0.7233 0.67784 0.0
N378 N 0.71087 0.75263 0.73734 0.0
N379 N 0.65926 0.72457 0.67446 0.0
C380 C 0.66789 0.74969 0.72287 0.0
C381 C 0.69606 0.765 0.7566 0.0
C382 C 0.34064 0.95617 0.76073 0.0
C383 C 0.31474 0.94208 0.8173 0.0
C384 C 0.35547 0.94312 0.7312 0.0
C385 C 0.34498 0.91529 0.75577 0.0
H386 H 0.34971 0.9776 0.74088 0.0
H387 H 0.37544 0.95506 0.68967 0.0
S388 S 0.27698 0.86871 0.89326 0.0
N389 N 0.27863 0.8984 0.88972 0.0
N390 N 0.30613 0.87393 0.83519 0.0
C391 C 0.31878 0.90089 0.80977 0.0
C392 C 0.30382 0.91422 0.84027 0.0
C393 C 0.35633 0.13415 0.16277 0.0
C394 C 0.37349 0.12324 0.14498 0.0
C395 C 0.32859 0.11937 0.13167 0.0
C396 C 0.31657 0.09289 0.08141 0.0
H397 H 0.36447 0.15449 0.2 0.0
H398 H 0.31649 0.12888 0.14783 0.0
S399 S 0.35238 0.05448 0.02058 0.0
N400 N 0.3762 0.08394 0.07683 0.0
N401 N 0.32436 0.05627 0.01724 0.0
C402 C 0.33353 0.0817 0.06304 0.0
C403 C 0.36183 0.09681 0.0949 0.0
C404 C 1.00554 0.2878 0.08675 0.0
C405 C 0.98017 0.27383 0.14829 0.0
C406 C 1.02043 0.27488 0.05611 0.0
C407 C 1.01052 0.24729 0.08441 0.0
H408 H 1.01419 0.30905 0.06382 0.0
H409 H 1.03999 0.28676 0.01066 0.0
S410 S 0.94408 0.20106 0.23684 0.0
N411 N 0.94517 0.23049 0.23027 0.0
N412 N 0.97283 0.20627 0.17358 0.0
C413 C 0.98485 0.23299 0.14362 0.0
C414 C 0.96982 0.2462 0.17535 0.0
C415 C 0.87179 0.77701 0.11195 0.0
C416 C 0.85648 0.78981 0.08878 0.0
C417 C 0.85931 0.74914 0.13912 0.0
C418 C 0.83092 0.73277 0.14648 0.0
H419 H 0.8937 0.78857 0.10845 0.0
H420 H 0.87209 0.74037 0.15588 0.0
S421 S 0.78127 0.75594 0.09411 0.0
N422 N 0.81101 0.78353 0.07507 0.0
N423 N 0.7878 0.73144 0.12702 0.0
C424 C 0.81531 0.74525 0.12427 0.0
C425 C 0.82799 0.77359 0.09499 0.0
C426 C 1.02285 0.46637 0.50019 0.0
C427 C 1.04027 0.45603 0.47561 0.0
C428 C 0.99512 0.45165 0.46893 0.0
C429 C 0.98336 0.42578 0.41183 0.0
H430 H 1.03076 0.48622 0.54305 0.0
H431 H 0.98281 0.4607 0.49081 0.0
S432 S 1.01996 0.38902 0.33098 0.0
N433 N 1.04355 0.41792 0.39316 0.0
N434 N 0.99169 0.39036 0.33346 0.0
C435 C 1.00059 0.41517 0.38657 0.0
C436 C 1.02889 0.43023 0.41845 0.0
C437 C 0.66632 0.61601 0.3855 0.0
C438 C 0.64612 0.60577 0.48154 0.0
C439 C 0.68192 0.60365 0.35811 0.0
C440 C 0.67784 0.58033 0.42461 0.0
H441 H 0.66981 0.63346 0.32922 0.0
H442 H 0.69704 0.61224 0.28288 0.0
S443 S 0.62967 0.54725 0.69504 0.0
N444 N 0.62484 0.57232 0.65123 0.0
N445 N 0.65314 0.54871 0.59725 0.0
C446 C 0.65809 0.57028 0.52262 0.0
C447 C 0.64255 0.58305 0.55164 0.0
C448 C 0.53748 0.11155 0.4729 0.0
C449 C 0.52335 0.12318 0.41414 0.0
C450 C 0.52456 0.08384 0.50399 0.0
C451 C 0.49688 0.06629 0.47749 0.0
H452 H 0.55877 0.12396 0.49611 0.0
H453 H 0.53651 0.07602 0.54822 0.0
S454 S 0.45013 0.08623 0.32801 0.0
N455 N 0.47962 0.11455 0.33215 0.0
N456 N 0.45555 0.0628 0.39153 0.0
C457 C 0.48245 0.07756 0.4187 0.0
C458 C 0.49557 0.10582 0.38701 0.0
C459 C 0.11849 0.13791 0.06426 0.0
C460 C 0.14652 0.15255 0.03964 0.0
C461 C 0.10241 0.15023 0.05738 0.0
C462 C 0.11355 0.17786 0.02602 0.0
H463 H 0.10881 0.11662 0.08845 0.0
H464 H 0.08098 0.13785 0.07739 0.0
S465 S 0.18623 0.22562 0.95818 0.0
N466 N 0.18491 0.19651 0.98641 0.0
N467 N 0.15485 0.21957 0.9723 0.0
C468 C 0.14162 0.19277 0.00125 0.0
C469 C 0.15799 0.18017 0.00822 0.0
C470 C 0.95727 0.97836 0.07703 0.0
C471 C 0.93047 0.96245 0.03135 0.0
C472 C 0.96988 1.00675 0.08467 0.0
C473 C 0.95642 1.02065 0.04605 0.0
H474 H 0.96867 0.96885 0.10837 0.0
H475 H 0.99047 1.01793 0.12068 0.0
S476 S 0.88595 0.98896 0.92153 0.0
N477 N 0.89087 0.96319 0.94756 0.0
N478 N 0.91451 1.01625 0.96285 0.0
C479 C 0.92969 1.0051 -0.00029 0.0
C480 C 0.91677 0.97617 0.99226 0.0
C481 C 0.10184 0.95169 0.01673 0.0
C482 C 0.08536 0.96301 0.04405 0.0
C483 C 0.13024 0.96781 0.00826 0.0
C484 C 0.14354 0.99607 0.02644 0.0
H485 H 0.09277 0.93002 0.0043 0.0
H486 H 0.14185 0.9579 0.98895 0.0
S487 S 0.10947 0.03614 0.08934 0.0
N488 N 0.0844 1.00455 0.08125 0.0
N489 N 0.13742 0.03478 0.06658 0.0
C490 C 0.12717 1.00773 0.05104 0.0
C491 C 0.09827 0.99127 0.05965 0.0
C492 C 0.76966 0.48355 0.39884 0.0
C493 C 0.78076 0.51115 0.36701 0.0
C494 C 0.78574 0.47123 0.40556 0.0
C495 C 0.81373 0.48586 0.38029 0.0
H496 H 0.74826 0.47118 0.41938 0.0
H497 H 0.77609 0.44996 0.43008 0.0
S498 S 0.85337 0.55885 0.29732 0.0
N499 N 0.822 0.55282 0.3121 0.0
N500 N 0.85207 0.52976 0.32592 0.0
C501 C 0.82518 0.51345 0.34846 0.0
C502 C 0.8088 0.52604 0.34166 0.0
C503 C 0.63268 0.33981 0.43947 0.0
C504 C 0.62223 0.35392 0.37067 0.0
C505 C 0.62046 0.31142 0.43245 0.0
C506 C 0.59714 0.29579 0.35669 0.0
H507 H 0.65011 0.35072 0.50192 0.0
H508 H 0.62911 0.30164 0.48916 0.0
S509 S 0.56349 0.32304 0.14633 0.0
N510 N 0.58844 0.3501 0.21555 0.0
N511 N 0.56527 0.29701 0.20426 0.0
C512 C 0.58691 0.30972 0.28475 0.0
C513 C 0.59947 0.33862 0.29126 0.0
C514 C 0.76851 0.28486 0.34916 0.0
C515 C 0.75205 0.29623 0.37618 0.0
C516 C 0.79691 0.30094 0.34121 0.0
C517 C 0.81023 0.32919 0.35954 0.0
H518 H 0.7594 0.2632 0.33656 0.0
H519 H 0.80849 0.29099 0.32216 0.0
S520 S 0.77626 0.36935 0.42229 0.0
N521 N 0.75115 0.33778 0.41367 0.0
N522 N 0.80418 0.36794 0.39984 0.0
C523 C 0.7939 0.3409 0.38398 0.0
C524 C 0.76499 0.32448 0.39212 0.0
C525 C 0.4892 0.84498 0.68592 0.0
C526 C 0.47793 0.81711 0.71108 0.0
C527 C 0.47298 0.85723 0.67952 0.0
C528 C 0.44471 0.84216 0.69763 0.0
H529 H 0.51087 0.85762 0.67351 0.0
H530 H 0.48282 0.87879 0.66173 0.0
S531 S 0.40481 0.76786 0.75503 0.0
N532 N 0.43645 0.77449 0.74605 0.0
N533 N 0.40607 0.79717 0.73517 0.0
C534 C 0.43313 0.81407 0.72004 0.0
C535 C 0.44966 0.80168 0.72657 0.0
C536 C 0.29042 0.64591 0.72395 0.0
C537 C 0.26272 0.62955 0.69279 0.0
C538 C 0.30282 0.67428 0.7313 0.0
C539 C 0.28819 0.68772 0.70733 0.0
H540 H 0.30279 0.6368 0.74349 0.0
H541 H 0.32416 0.6858 0.75539 0.0
S542 S 0.21496 0.65469 0.62661 0.0
N543 N 0.22096 0.62932 0.63995 0.0
N544 N 0.24418 0.68236 0.6549 0.0
C545 C 0.2605 0.6717 0.67608 0.0
C546 C 0.24783 0.64278 0.66864 0.0
C547 C 0.46174 0.67272 0.72704 0.0
C548 C 0.4777 0.66168 0.68444 0.0
C549 C 0.43337 0.65684 0.73709 0.0
C550 C 0.41955 0.6292 0.70421 0.0
H551 H 0.47118 0.69385 0.75391 0.0
H552 H 0.42214 0.66636 0.77039 0.0
S553 S 0.45141 0.58987 0.59152 0.0
N554 N 0.4771 0.62085 0.61112 0.0
N555 N 0.42407 0.59124 0.63067 0.0
C556 C 0.43514 0.61785 0.66136 0.0
C557 C 0.46406 0.63397 0.65143 0.0
C558 C 0.08186 0.22029 0.61805 0.0
C559 C 0.05483 0.20675 0.66108 0.0
C560 C 0.08809 0.22504 0.48582 0.0
C561 C 0.06757 0.21631 0.39143 0.0
H562 H 0.09833 0.22725 0.68688 0.0
H563 H 0.10919 0.23572 0.45748 0.0
S564 S 0.99352 0.17944 0.45339 0.0
N565 N 1.00739 0.18454 0.59797 0.0
N566 N 1.01906 0.19302 0.35135 0.0
C567 C 1.04049 0.20252 0.43342 0.0
C568 C 1.03415 0.19788 0.56762 0.0
C569 C 0.9048 0.86123 0.57331 0.0
C570 C 0.89904 0.8757 0.66588 0.0
C571 C 0.90056 0.86314 0.44097 0.0
C572 C 0.89027 0.87952 0.3958 0.0
H573 H 0.91264 0.84826 0.60326 0.0
H574 H 0.90513 0.85146 0.37378 0.0
S575 S 0.87299 0.92248 0.59752 0.0
N576 N 0.88337 0.90772 0.70192 0.0
N577 N 0.87515 0.9111 0.45432 0.0
C578 C 0.8847 0.89432 0.48716 0.0
C579 C 0.8891 0.89244 0.6218 0.0
C580 C 0.24498 0.0705 0.56506 0.0
C581 C 0.23056 0.0503 0.65783 0.0
C582 C 0.24319 0.06431 0.43284 0.0
C583 C 0.22698 0.03763 0.388 0.0
H584 H 0.25783 0.09132 0.59474 0.0
H585 H 0.25482 0.08054 0.3655 0.0
S586 S 0.1843 0.97742 0.59034 0.0
N587 N 0.19883 1.00261 0.69436 0.0
N588 N 0.19567 0.99094 0.4471 0.0
C589 C 0.21225 1.01729 0.47957 0.0
C590 C 0.21401 1.02361 0.61405 0.0
C591 C 0.75536 0.55904 0.82388 0.0
C592 C 0.73492 0.54851 0.72875 0.0
C593 C 0.74907 0.55424 0.95603 0.0
C594 C 0.72207 0.53896 -0.0017 0.0
H595 H 0.7764 0.57127 0.79624 0.0
H596 H 0.7655 0.56257 0.02532 0.0
S597 S 0.66125 0.50466 0.78789 0.0
N598 N 0.68672 0.52043 0.68671 0.0
N599 N 0.67489 0.5119 0.93319 0.0
C600 C 0.70154 0.52782 0.9039 0.0
C601 C 0.70796 0.53247 0.76978 0.0
C602 C 0.56771 0.1968 0.76756 0.0
C603 C 0.55673 0.2126 0.72261 0.0
C604 C 0.57219 0.19509 0.89988 0.0
C605 C 0.56598 0.20918 0.99267 0.0
H606 H 0.57268 0.18545 0.70021 0.0
H607 H 0.58057 0.18257 0.92961 0.0
S608 S 0.53782 0.25423 0.92491 0.0
N609 N 0.54034 0.24312 0.78163 0.0
N610 N 0.54898 0.24012 0.02904 0.0
C611 C 0.5553 0.2253 0.94877 0.0
C612 C 0.55066 0.22698 0.81419 0.0
C613 C 0.882 0.35158 0.81637 0.0
C614 C 0.89483 0.372 0.72266 0.0
C615 C 0.88372 0.35784 0.94869 0.0
C616 C 0.89845 0.38477 0.99247 0.0
H617 H 0.87059 0.33055 0.78743 0.0
H618 H 0.87339 0.34147 0.01699 0.0
S619 S 0.93549 0.44579 0.78665 0.0
N620 N 0.92239 0.42032 0.68392 0.0
N621 N 0.92597 0.43202 0.93076 0.0
C622 C 0.91129 0.40534 0.89966 0.0
C623 C 0.90938 0.39899 0.76536 0.0
C624 C 0.36939 0.8681 0.23713 0.0
C625 C 0.38967 0.87409 0.3303 0.0
C626 C 0.37556 0.87242 0.10496 0.0
C627 C 0.40229 0.88302 0.06058 0.0
H628 H 0.34853 0.86001 0.26645 0.0
H629 H 0.35927 0.86766 0.0373 0.0
S630 S 0.46269 0.90106 0.26409 0.0
N631 N 0.43749 0.89035 0.36774 0.0
N632 N 0.4491 0.89872 0.1205 0.0
C633 C 0.42271 0.88884 0.15255 0.0
C634 C 0.41641 0.88435 0.287 0.0
C635 C 0.21577 0.55751 0.15128 0.0
C636 C 0.22413 0.54534 0.05766 0.0
C637 C 0.2204 0.55592 0.28371 0.0
C638 C 0.23344 0.54196 0.32764 0.0
H639 H 0.20549 0.56831 0.12218 0.0
H640 H 0.21376 0.56575 0.35196 0.0
S641 S 0.25957 0.50677 0.1222 0.0
N642 N 0.24652 0.51922 0.01925 0.0
N643 N 0.25472 0.51581 0.26629 0.0
C644 C 0.24192 0.52975 0.23496 0.0
C645 C 0.23742 0.53157 0.10056 0.0
C646 C 0.55159 0.69152 0.27323 0.0
C647 C 0.56548 0.71852 0.31663 0.0
C648 C 0.55014 0.68521 0.14096 0.0
C649 C 0.56241 0.70564 0.0468 0.0
H650 H 0.54173 0.67512 0.34183 0.0
H651 H 0.53935 0.66414 0.11238 0.0
S652 S 0.60096 0.77959 0.10978 0.0
N653 N 0.5917 0.76583 0.25406 0.0
N654 N 0.58866 0.75404 0.00749 0.0
C655 C 0.57617 0.73269 0.0892 0.0
C656 C 0.5778 0.73909 0.22342 0.0
loop_
_geom_bond_atom_site_label_1
_geom_bond_atom_site_label_2
_geom_bond_distance
_geom_bond_site_symmetry_2
_ccdc_geom_bond_type
La0 C2 2.928 1_554 S
La0 O20 2.521 . S
La0 O21 2.628 1_554 S
La0 O22 2.554 . S
La0 O23 2.757 . S
La0 O24 2.470 . S
La0 O29 2.482 1_554 S
La0 O31 2.503 1_554 S
La1 C11 2.928 1_556 S
La1 O23 2.482 1_656 S
La1 O25 2.503 1_556 S
La1 O26 2.521 . S
La1 O27 2.628 1_556 S
La1 O28 2.554 . S
La1 O29 2.757 1_655 S
La1 O30 2.470 1_655 S
C2 La0 2.928 1_556 S
C2 C3 1.503 . S
C2 O20 1.261 1_556 S
C2 O21 1.243 . S
C3 C2 1.503 . S
C3 C4 1.394 1_556 S
C3 C8 1.373 . S
C4 C3 1.394 1_554 S
C4 C5 1.380 . S
C4 H32 0.930 . S
C5 C4 1.380 . S
C5 C6 1.376 1_554 S
C5 H33 0.930 . S
C6 C5 1.376 1_556 S
C6 C7 1.370 . S
C7 C6 1.370 . S
C7 C8 1.396 . S
C7 H34 0.929 . S
C8 C3 1.373 . S
C8 C7 1.396 . S
C8 H35 0.929 . S
C9 O22 1.240 . S
C9 O23 1.289 . S
C10 O24 1.258 1_655 S
C10 O25 1.256 . S
C11 La1 2.928 1_554 S
C11 C12 1.503 . S
C11 O26 1.261 1_554 S
C11 O27 1.243 . S
C12 C11 1.503 . S
C12 C13 1.394 1_554 S
C12 C17 1.373 . S
C13 C12 1.394 1_556 S
C13 C14 1.380 . S
C13 H36 0.930 . S
C14 C13 1.380 . S
C14 C15 1.376 1_556 S
C14 H37 0.930 . S
C15 C14 1.376 1_554 S
C15 C16 1.370 . S
C16 C15 1.370 . S
C16 C17 1.396 . S
C16 H38 0.929 . S
C17 C12 1.373 . S
C17 C16 1.396 . S
C17 H39 0.929 . S
C18 O28 1.234 1_455 S
C18 O29 1.293 . S
C19 O30 1.258 . S
C19 O31 1.256 . S
O20 La0 2.521 . S
O20 C2 1.261 1_554 S
O21 La0 2.628 1_556 S
O21 C2 1.243 . S
O22 La0 2.554 . S
O22 C9 1.240 . S
O23 La0 2.757 . S
O23 La1 2.482 1_454 S
O23 C9 1.289 . S
O24 La0 2.470 . S
O24 C10 1.258 1_455 S
O25 La1 2.503 1_554 S
O25 C10 1.256 . S
O26 La1 2.521 . S
O26 C11 1.261 1_556 S
O27 La1 2.628 1_554 S
O27 C11 1.243 . S
O28 La1 2.554 . S
O28 C18 1.234 1_655 S
O29 La0 2.482 1_556 S
O29 La1 2.757 1_455 S
O29 C18 1.293 . S
O30 La1 2.470 1_455 S
O30 C19 1.258 . S
O31 La0 2.503 1_556 S
O31 C19 1.256 . S
H32 C4 0.930 . S
H33 C5 0.930 . S
H34 C7 0.929 . S
H35 C8 0.929 . S
H36 C13 0.930 . S
H37 C14 0.930 . S
H38 C16 0.929 . S
H39 C17 0.929 . S
La40 C42 2.928 1_554 S
La40 O60 2.521 . S
La40 O61 2.628 1_554 S
La40 O62 2.554 . S
La40 O63 2.757 . S
La40 O64 2.470 . S
La40 O69 2.482 1_554 S
La40 O71 2.503 1_554 S
La41 C51 2.928 1_556 S
La41 O63 2.482 1_556 S
La41 O65 2.503 1_556 S
La41 O66 2.521 . S
La41 O67 2.628 1_556 S
La41 O68 2.554 . S
La41 O69 2.757 . S
La41 O70 2.470 . S
C42 La40 2.928 1_556 S
C42 C43 1.503 . S
C42 O60 1.261 1_556 S
C42 O61 1.243 . S
C43 C42 1.503 . S
C43 C44 1.394 1_556 S
C43 C48 1.373 . S
C44 C43 1.394 1_554 S
C44 C45 1.380 . S
C44 H72 0.930 . S
C45 C44 1.380 . S
C45 C46 1.376 1_554 S
C45 H73 0.930 . S
C46 C45 1.376 1_556 S
C46 C47 1.370 . S
C47 C46 1.370 . S
C47 C48 1.396 . S
C47 H74 0.929 . S
C48 C43 1.373 . S
C48 C47 1.396 . S
C48 H75 0.929 . S
C49 O62 1.240 . S
C49 O63 1.289 . S
C50 O64 1.258 . S
C50 O65 1.256 . S
C51 La41 2.928 1_554 S
C51 C52 1.503 . S
C51 O66 1.261 1_554 S
C51 O67 1.243 . S
C52 C51 1.503 . S
C52 C53 1.394 1_554 S
C52 C57 1.373 . S
C53 C52 1.394 1_556 S
C53 C54 1.380 . S
C53 H76 0.930 . S
C54 C53 1.380 . S
C54 C55 1.376 1_656 S
C54 H77 0.930 1_655 S
C55 C54 1.376 1_454 S
C55 C56 1.370 1_455 S
C56 C55 1.370 1_655 S
C56 C57 1.396 . S
C56 H78 0.929 . S
C57 C52 1.373 . S
C57 C56 1.396 . S
C57 H79 0.929 . S
C58 O68 1.240 . S
C58 O69 1.289 . S
C59 O70 1.258 . S
C59 O71 1.256 . S
O60 La40 2.521 . S
O60 C42 1.261 1_554 S
O61 La40 2.628 1_556 S
O61 C42 1.243 . S
O62 La40 2.554 . S
O62 C49 1.240 . S
O63 La40 2.757 . S
O63 La41 2.482 1_554 S
O63 C49 1.289 . S
O64 La40 2.470 . S
O64 C50 1.258 . S
O65 La41 2.503 1_554 S
O65 C50 1.256 . S
O66 La41 2.521 . S
O66 C51 1.261 1_556 S
O67 La41 2.628 1_554 S
O67 C51 1.243 . S
O68 La41 2.554 . S
O68 C58 1.240 . S
O69 La40 2.482 1_556 S
O69 La41 2.757 . S
O69 C58 1.289 . S
O70 La41 2.470 . S
O70 C59 1.258 . S
O71 La40 2.503 1_556 S
O71 C59 1.256 . S
H72 C44 0.930 . S
H73 C45 0.930 . S
H74 C47 0.929 . S
H75 C48 0.929 . S
H76 C53 0.930 . S
H77 C54 0.930 1_455 S
H78 C56 0.929 . S
H79 C57 0.929 . S
La80 C82 2.928 1_554 S
La80 O100 2.521 . S
La80 O101 2.628 1_554 S
La80 O102 2.554 . S
La80 O103 2.757 1_565 S
La80 O104 2.470 1_565 S
La80 O109 2.482 1_564 S
La80 O111 2.503 1_554 S
La81 C91 2.928 1_556 S
La81 O103 2.482 1_556 S
La81 O105 2.503 1_556 S
La81 O106 2.521 . S
La81 O107 2.628 1_556 S
La81 O108 2.554 . S
La81 O109 2.757 . S
La81 O110 2.470 . S
C82 La80 2.928 1_556 S
C82 C83 1.503 . S
C82 O100 1.261 1_556 S
C82 O101 1.243 . S
C83 C82 1.503 . S
C83 C84 1.394 1_556 S
C83 C88 1.373 . S
C84 C83 1.394 1_554 S
C84 C85 1.380 . S
C84 H112 0.930 . S
C85 C84 1.380 . S
C85 C86 1.376 1_554 S
C85 H113 0.930 . S
C86 C85 1.376 1_556 S
C86 C87 1.370 . S
C87 C86 1.370 . S
C87 C88 1.396 . S
C87 H114 0.929 . S
C88 C83 1.373 . S
C88 C87 1.396 . S
C88 H115 0.929 . S
C89 O102 1.195 1_545 S
C89 O103 1.314 . S
C90 O104 1.258 . S
C90 O105 1.256 . S
C91 La81 2.928 1_554 S
C91 C92 1.503 . S
C91 O106 1.261 1_554 S
C91 O107 1.243 . S
C92 C91 1.503 . S
C92 C93 1.394 1_554 S
C92 C97 1.373 . S
C93 C92 1.394 1_556 S
C93 C94 1.380 . S
C93 H116 0.930 . S
C94 C93 1.380 . S
C94 C95 1.376 1_556 S
C94 H117 0.930 . S
C95 C94 1.376 1_554 S
C95 C96 1.370 . S
C96 C95 1.370 . S
C96 C97 1.396 . S
C96 H118 0.929 . S
C97 C92 1.373 . S
C97 C96 1.396 . S
C97 H119 0.929 . S
C98 O108 1.240 . S
C98 O109 1.289 . S
C99 O110 1.258 1_565 S
C99 O111 1.256 . S
O100 La80 2.521 . S
O100 C82 1.261 1_554 S
O101 La80 2.628 1_556 S
O101 C82 1.243 . S
O102 La80 2.554 . S
O102 C89 1.195 1_565 S
O103 La80 2.757 1_545 S
O103 La81 2.482 1_554 S
O103 C89 1.314 . S
O104 La80 2.470 1_545 S
O104 C90 1.258 . S
O105 La81 2.503 1_554 S
O105 C90 1.256 . S
O106 La81 2.521 . S
O106 C91 1.261 1_556 S
O107 La81 2.628 1_554 S
O107 C91 1.243 . S
O108 La81 2.554 . S
O108 C98 1.240 . S
O109 La80 2.482 1_546 S
O109 La81 2.757 . S
O109 C98 1.289 . S
O110 La81 2.470 . S
O110 C99 1.258 1_545 S
O111 La80 2.503 1_556 S
O111 C99 1.256 . S
H112 C84 0.930 . S
H113 C85 0.930 . S
H114 C87 0.929 . S
H115 C88 0.929 . S
H116 C93 0.930 . S
H117 C94 0.930 . S
H118 C96 0.929 . S
H119 C97 0.929 . S
La120 C122 2.928 . S
La120 O140 2.521 . S
La120 O141 2.628 . S
La120 O142 2.554 . S
La120 O143 2.757 . S
La120 O144 2.470 . S
La120 O149 2.482 . S
La120 O151 2.503 . S
La121 C131 2.928 . S
La121 O143 2.482 . S
La121 O145 2.503 . S
La121 O146 2.521 . S
La121 O147 2.628 . S
La121 O148 2.554 . S
La121 O149 2.757 . S
La121 O150 2.470 . S
C122 La120 2.928 . S
C122 C123 1.503 . S
C122 O140 1.261 . S
C122 O141 1.243 . S
C123 C122 1.503 . S
C123 C124 1.394 . S
C123 C128 1.373 . S
C124 C123 1.394 . S
C124 C125 1.380 . S
C124 H152 0.930 . S
C125 C124 1.380 . S
C125 C126 1.376 . S
C125 H153 0.930 . S
C126 C125 1.376 . S
C126 C127 1.370 . S
C127 C126 1.370 . S
C127 C128 1.396 . S
C127 H154 0.929 . S
C128 C123 1.373 . S
C128 C127 1.396 . S
C128 H155 0.929 . S
C129 O142 1.240 . S
C129 O143 1.289 . S
C130 O144 1.258 . S
C130 O145 1.256 . S
C131 La121 2.928 . S
C131 C132 1.503 . S
C131 O146 1.261 . S
C131 O147 1.243 . S
C132 C131 1.503 . S
C132 C133 1.394 . S
C132 C137 1.373 . S
C133 C132 1.394 . S
C133 C134 1.380 . S
C133 H156 0.930 . S
C134 C133 1.380 . S
C134 C135 1.376 . S
C134 H157 0.930 . S
C135 C134 1.376 . S
C135 C136 1.370 . S
C136 C135 1.370 . S
C136 C137 1.396 . S
C136 H158 0.929 . S
C137 C132 1.373 . S
C137 C136 1.396 . S
C137 H159 0.929 . S
C138 O148 1.240 . S
C138 O149 1.289 . S
C139 O150 1.258 . S
C139 O151 1.256 . S
O140 La120 2.521 . S
O140 C122 1.261 . S
O141 La120 2.628 . S
O141 C122 1.243 . S
O142 La120 2.554 . S
O142 C129 1.240 . S
O143 La120 2.757 . S
O143 La121 2.482 . S
O143 C129 1.289 . S
O144 La120 2.470 . S
O144 C130 1.258 . S
O145 La121 2.503 . S
O145 C130 1.256 . S
O146 La121 2.521 . S
O146 C131 1.261 . S
O147 La121 2.628 . S
O147 C131 1.243 . S
O148 La121 2.554 . S
O148 C138 1.240 . S
O149 La120 2.482 . S
O149 La121 2.757 . S
O149 C138 1.289 . S
O150 La121 2.470 . S
O150 C139 1.258 . S
O151 La120 2.503 . S
O151 C139 1.256 . S
H152 C124 0.930 . S
H153 C125 0.930 . S
H154 C127 0.929 . S
H155 C128 0.929 . S
H156 C133 0.930 . S
H157 C134 0.930 . S
H158 C136 0.929 . S
H159 C137 0.929 . S
La160 C162 2.928 . S
La160 O180 2.521 . S
La160 O181 2.628 . S
La160 O182 2.554 . S
La160 O183 2.757 . S
La160 O184 2.470 . S
La160 O189 2.482 . S
La160 O191 2.503 . S
La161 C171 2.928 . S
La161 O183 2.482 . S
La161 O185 2.503 . S
La161 O186 2.521 . S
La161 O187 2.628 . S
La161 O188 2.554 . S
La161 O189 2.757 . S
La161 O190 2.470 . S
C162 La160 2.928 . S
C162 C163 1.503 . S
C162 O180 1.261 . S
C162 O181 1.243 . S
C163 C162 1.503 . S
C163 C164 1.394 . S
C163 C168 1.373 . S
C164 C163 1.394 . S
C164 C165 1.380 . S
C164 H192 0.930 . S
C165 C164 1.380 . S
C165 C166 1.376 . S
C165 H193 0.930 . S
C166 C165 1.376 . S
C166 C167 1.370 . S
C167 C166 1.370 . S
C167 C168 1.396 . S
C167 H194 0.929 . S
C168 C163 1.373 . S
C168 C167 1.396 . S
C168 H195 0.929 . S
C169 O182 1.240 . S
C169 O183 1.289 . S
C170 O184 1.258 . S
C170 O185 1.256 . S
C171 La161 2.928 . S
C171 C172 1.503 . S
C171 O186 1.261 . S
C171 O187 1.243 . S
C172 C171 1.503 . S
C172 C173 1.394 . S
C172 C177 1.373 . S
C173 C172 1.394 . S
C173 C174 1.380 . S
C173 H196 0.930 . S
C174 C173 1.380 . S
C174 C175 1.376 . S
C174 H197 0.930 . S
C175 C174 1.376 . S
C175 C176 1.370 . S
C176 C175 1.370 . S
C176 C177 1.396 . S
C176 H198 0.929 . S
C177 C172 1.373 . S
C177 C176 1.396 . S
C177 H199 0.929 . S
C178 O188 1.240 . S
C178 O189 1.289 . S
C179 O190 1.258 . S
C179 O191 1.256 . S
O180 La160 2.521 . S
O180 C162 1.261 . S
O181 La160 2.628 . S
O181 C162 1.243 . S
O182 La160 2.554 . S
O182 C169 1.240 . S
O183 La160 2.757 . S
O183 La161 2.482 . S
O183 C169 1.289 . S
O184 La160 2.470 . S
O184 C170 1.258 . S
O185 La161 2.503 . S
O185 C170 1.256 . S
O186 La161 2.521 . S
O186 C171 1.261 . S
O187 La161 2.628 . S
O187 C171 1.243 . S
O188 La161 2.554 . S
O188 C178 1.240 . S
O189 La160 2.482 . S
O189 La161 2.757 . S
O189 C178 1.289 . S
O190 La161 2.470 . S
O190 C179 1.258 . S
O191 La160 2.503 . S
O191 C179 1.256 . S
H192 C164 0.930 . S
H193 C165 0.930 . S
H194 C167 0.929 . S
H195 C168 0.929 . S
H196 C173 0.930 . S
H197 C174 0.930 . S
H198 C176 0.929 . S
H199 C177 0.929 . S
La200 C202 2.928 . S
La200 O220 2.521 . S
La200 O221 2.628 . S
La200 O222 2.554 . S
La200 O223 2.757 . S
La200 O224 2.470 . S
La200 O229 2.482 . S
La200 O231 2.503 . S
La201 C211 2.928 . S
La201 O223 2.482 . S
La201 O225 2.503 . S
La201 O226 2.521 . S
La201 O227 2.628 . S
La201 O228 2.554 . S
La201 O229 2.757 . S
La201 O230 2.470 . S
C202 La200 2.928 . S
C202 C203 1.503 . S
C202 O220 1.261 . S
C202 O221 1.243 . S
C203 C202 1.503 . S
C203 C204 1.394 . S
C203 C208 1.373 . S
C204 C203 1.394 . S
C204 C205 1.380 . S
C204 H232 0.930 . S
C205 C204 1.380 . S
C205 C206 1.376 . S
C205 H233 0.930 . S
C206 C205 1.376 . S
C206 C207 1.370 . S
C207 C206 1.370 . S
C207 C208 1.396 . S
C207 H234 0.929 . S
C208 C203 1.373 . S
C208 C207 1.396 . S
C208 H235 0.929 . S
C209 O222 1.240 . S
C209 O223 1.289 . S
C210 O224 1.258 . S
C210 O225 1.256 . S
C211 La201 2.928 . S
C211 C212 1.503 . S
C211 O226 1.261 . S
C211 O227 1.243 . S
C212 C211 1.503 . S
C212 C213 1.394 . S
C212 C217 1.373 . S
C213 C212 1.394 . S
C213 C214 1.380 . S
C213 H236 0.930 . S
C214 C213 1.380 . S
C214 C215 1.376 . S
C214 H237 0.930 . S
C215 C214 1.376 . S
C215 C216 1.370 . S
C216 C215 1.370 . S
C216 C217 1.396 . S
C216 H238 0.929 . S
C217 C212 1.373 . S
C217 C216 1.396 . S
C217 H239 0.929 . S
C218 O228 1.240 . S
C218 O229 1.289 . S
C219 O230 1.258 . S
C219 O231 1.256 . S
O220 La200 2.521 . S
O220 C202 1.261 . S
O221 La200 2.628 . S
O221 C202 1.243 . S
O222 La200 2.554 . S
O222 C209 1.240 . S
O223 La200 2.757 . S
O223 La201 2.482 . S
O223 C209 1.289 . S
O224 La200 2.470 . S
O224 C210 1.258 . S
O225 La201 2.503 . S
O225 C210 1.256 . S
O226 La201 2.521 . S
O226 C211 1.261 . S
O227 La201 2.628 . S
O227 C211 1.243 . S
O228 La201 2.554 . S
O228 C218 1.240 . S
O229 La200 2.482 . S
O229 La201 2.757 . S
O229 C218 1.289 . S
O230 La201 2.470 . S
O230 C219 1.258 . S
O231 La200 2.503 . S
O231 C219 1.256 . S
H232 C204 0.930 . S
H233 C205 0.930 . S
H234 C207 0.929 . S
H235 C208 0.929 . S
H236 C213 0.930 . S
H237 C214 0.930 . S
H238 C216 0.929 . S
H239 C217 0.929 . S
La240 C242 2.928 . S
La240 O260 2.521 . S
La240 O261 2.628 . S
La240 O262 2.554 . S
La240 O263 2.757 . S
La240 O264 2.470 . S
La240 O269 2.482 . S
La240 O271 2.503 . S
La241 C251 2.928 . S
La241 O263 2.482 . S
La241 O265 2.503 . S
La241 O266 2.521 . S
La241 O267 2.628 . S
La241 O268 2.554 . S
La241 O269 2.757 . S
La241 O270 2.470 . S
C242 La240 2.928 . S
C242 C243 1.503 . S
C242 O260 1.261 . S
C242 O261 1.243 . S
C243 C242 1.503 . S
C243 C244 1.394 . S
C243 C248 1.373 . S
C244 C243 1.394 . S
C244 C245 1.345 1_565 S
C244 H272 0.930 . S
C245 C244 1.345 1_545 S
C245 C246 1.398 . S
C245 H273 0.946 . S
C246 C245 1.398 . S
C246 C247 1.370 1_545 S
C247 C246 1.370 1_565 S
C247 C248 1.396 . S
C247 H274 0.922 1_565 S
C248 C243 1.373 . S
C248 C247 1.396 . S
C248 H275 0.929 . S
C249 O262 1.240 . S
C249 O263 1.289 . S
C250 O264 1.258 . S
C250 O265 1.256 . S
C251 La241 2.928 . S
C251 C252 1.503 . S
C251 O266 1.261 . S
C251 O267 1.243 . S
C252 C251 1.503 . S
C252 C253 1.394 . S
C252 C257 1.373 . S
C253 C252 1.394 . S
C253 C254 1.380 . S
C253 H276 0.930 . S
C254 C253 1.380 . S
C254 C255 1.376 . S
C254 H277 0.930 . S
C255 C254 1.376 . S
C255 C256 1.370 . S
C256 C255 1.370 . S
C256 C257 1.396 . S
C256 H278 0.929 . S
C257 C252 1.373 . S
C257 C256 1.396 . S
C257 H279 0.929 . S
C258 O268 1.240 . S
C258 O269 1.289 . S
C259 O270 1.258 . S
C259 O271 1.256 . S
O260 La240 2.521 . S
O260 C242 1.261 . S
O261 La240 2.628 . S
O261 C242 1.243 . S
O262 La240 2.554 . S
O262 C249 1.240 . S
O263 La240 2.757 . S
O263 La241 2.482 . S
O263 C249 1.289 . S
O264 La240 2.470 . S
O264 C250 1.258 . S
O265 La241 2.503 . S
O265 C250 1.256 . S
O266 La241 2.521 . S
O266 C251 1.261 . S
O267 La241 2.628 . S
O267 C251 1.243 . S
O268 La241 2.554 . S
O268 C258 1.240 . S
O269 La240 2.482 . S
O269 La241 2.757 . S
O269 C258 1.289 . S
O270 La241 2.470 . S
O270 C259 1.258 . S
O271 La240 2.503 . S
O271 C259 1.256 . S
H272 C244 0.930 . S
H273 C245 0.946 . S
H274 C247 0.922 1_545 S
H275 C248 0.929 . S
H276 C253 0.930 . S
H277 C254 0.930 . S
H278 C256 0.929 . S
H279 C257 0.929 . S
La280 C282 2.928 . S
La280 O300 2.521 . S
La280 O301 2.628 . S
La280 O302 2.554 . S
La280 O303 2.757 . S
La280 O304 2.470 . S
La280 O309 2.482 . S
La280 O311 2.503 . S
La281 C291 2.928 . S
La281 O303 2.482 . S
La281 O305 2.503 . S
La281 O306 2.521 . S
La281 O307 2.628 . S
La281 O308 2.554 . S
La281 O309 2.757 . S
La281 O310 2.470 . S
C282 La280 2.928 . S
C282 C283 1.503 . S
C282 O300 1.261 . S
C282 O301 1.243 . S
C283 C282 1.503 . S
C283 C284 1.394 . S
C283 C288 1.373 . S
C284 C283 1.394 . S
C284 C285 1.380 . S
C284 H312 0.930 . S
C285 C284 1.380 . S
C285 C286 1.376 . S
C285 H313 0.930 . S
C286 C285 1.376 . S
C286 C287 1.370 . S
C287 C286 1.370 . S
C287 C288 1.396 . S
C287 H314 0.929 . S
C288 C283 1.373 . S
C288 C287 1.396 . S
C288 H315 0.929 . S
C289 O302 1.240 . S
C289 O303 1.289 . S
C290 O304 1.258 . S
C290 O305 1.256 . S
C291 La281 2.928 . S
C291 C292 1.503 . S
C291 O306 1.261 . S
C291 O307 1.243 . S
C292 C291 1.503 . S
C292 C293 1.394 . S
C292 C297 1.373 . S
C293 C292 1.394 . S
C293 C294 1.380 . S
C293 H316 0.930 . S
C294 C293 1.380 . S
C294 C295 1.376 . S
C294 H317 0.930 . S
C295 C294 1.376 . S
C295 C296 1.370 . S
C296 C295 1.370 . S
C296 C297 1.396 . S
C296 H318 0.929 . S
C297 C292 1.373 . S
C297 C296 1.396 . S
C297 H319 0.929 . S
C298 O308 1.240 . S
C298 O309 1.289 . S
C299 O310 1.258 . S
C299 O311 1.256 . S
O300 La280 2.521 . S
O300 C282 1.261 . S
O301 La280 2.628 . S
O301 C282 1.243 . S
O302 La280 2.554 . S
O302 C289 1.240 . S
O303 La280 2.757 . S
O303 La281 2.482 . S
O303 C289 1.289 . S
O304 La280 2.470 . S
O304 C290 1.258 . S
O305 La281 2.503 . S
O305 C290 1.256 . S
O306 La281 2.521 . S
O306 C291 1.261 . S
O307 La281 2.628 . S
O307 C291 1.243 . S
O308 La281 2.554 . S
O308 C298 1.240 . S
O309 La280 2.482 . S
O309 La281 2.757 . S
O309 C298 1.289 . S
O310 La281 2.470 . S
O310 C299 1.258 . S
O311 La280 2.503 . S
O311 C299 1.256 . S
H312 C284 0.930 . S
H313 C285 0.930 . S
H314 C287 0.929 . S
H315 C288 0.929 . S
H316 C293 0.930 . S
H317 C294 0.930 . S
H318 C296 0.929 . S
H319 C297 0.929 . S
La320 C322 2.928 . S
La320 O340 2.521 . S
La320 O341 2.628 . S
La320 O342 2.554 . S
La320 O343 2.757 . S
La320 O344 2.470 . S
La320 O349 2.482 . S
La320 O351 2.503 . S
La321 C331 2.928 . S
La321 O343 2.482 . S
La321 O345 2.503 . S
La321 O346 2.521 . S
La321 O347 2.628 . S
La321 O348 2.554 . S
La321 O349 2.757 . S
La321 O350 2.470 . S
C322 La320 2.928 . S
C322 C323 1.503 . S
C322 O340 1.261 . S
C322 O341 1.243 . S
C323 C322 1.503 . S
C323 C324 1.394 . S
C323 C328 1.373 . S
C324 C323 1.394 . S
C324 C325 1.380 . S
C324 H352 0.930 . S
C325 C324 1.380 . S
C325 C326 1.376 . S
C325 H353 0.930 . S
C326 C325 1.376 . S
C326 C327 1.370 . S
C327 C326 1.370 . S
C327 C328 1.396 . S
C327 H354 0.929 . S
C328 C323 1.373 . S
C328 C327 1.396 . S
C328 H355 0.929 . S
C329 O342 1.240 . S
C329 O343 1.289 . S
C330 O344 1.258 . S
C330 O345 1.256 . S
C331 La321 2.928 . S
C331 C332 1.503 . S
C331 O346 1.261 . S
C331 O347 1.243 . S
C332 C331 1.503 . S
C332 C333 1.394 . S
C332 C337 1.373 . S
C333 C332 1.394 . S
C333 C334 1.380 . S
C333 H356 0.930 . S
C334 C333 1.380 . S
C334 C335 1.376 . S
C334 H357 0.930 . S
C335 C334 1.376 . S
C335 C336 1.370 . S
C336 C335 1.370 . S
C336 C337 1.396 . S
C336 H358 0.929 . S
C337 C332 1.373 . S
C337 C336 1.396 . S
C337 H359 0.929 . S
C338 O348 1.240 . S
C338 O349 1.289 . S
C339 O350 1.258 . S
C339 O351 1.256 . S
O340 La320 2.521 . S
O340 C322 1.261 . S
O341 La320 2.628 . S
O341 C322 1.243 . S
O342 La320 2.554 . S
O342 C329 1.240 . S
O343 La320 2.757 . S
O343 La321 2.482 . S
O343 C329 1.289 . S
O344 La320 2.470 . S
O344 C330 1.258 . S
O345 La321 2.503 . S
O345 C330 1.256 . S
O346 La321 2.521 . S
O346 C331 1.261 . S
O347 La321 2.628 . S
O347 C331 1.243 . S
O348 La321 2.554 . S
O348 C338 1.240 . S
O349 La320 2.482 . S
O349 La321 2.757 . S
O349 C338 1.289 . S
O350 La321 2.470 . S
O350 C339 1.258 . S
O351 La320 2.503 . S
O351 C339 1.256 . S
H352 C324 0.930 . S
H353 C325 0.930 . S
H354 C327 0.929 . S
H355 C328 0.929 . S
H356 C333 0.930 . S
H357 C334 0.930 . S
H358 C336 0.929 . S
H359 C337 0.929 . S
C360 C361 1.369 . S
C360 C362 1.419 . S
C360 H364 0.930 . S
C361 C360 1.369 . S
C361 C370 1.429 . S
C362 C360 1.419 . S
C362 C363 1.363 . S
C362 H365 0.929 . S
C363 C362 1.363 . S
C363 C369 1.428 . S
H364 C360 0.930 . S
H365 C362 0.929 . S
S366 N367 1.613 . S
S366 N368 1.610 . S
N367 S366 1.613 . S
N367 C370 1.350 . S
N368 S366 1.610 . S
N368 C369 1.351 . S
C369 C363 1.428 . S
C369 N368 1.351 . S
C369 C370 1.434 . S
C370 C361 1.429 . S
C370 N367 1.350 . S
C370 C369 1.434 . S
C371 C372 1.369 . S
C371 C373 1.419 . S
C371 H375 0.930 . S
C372 C371 1.369 . S
C372 C381 1.429 . S
C373 C371 1.419 . S
C373 C374 1.363 . S
C373 H376 0.929 . S
C374 C373 1.363 . S
C374 C380 1.428 . S
H375 C371 0.930 . S
H376 C373 0.929 . S
S377 N378 1.613 . S
S377 N379 1.610 . S
N378 S377 1.613 . S
N378 C381 1.350 . S
N379 S377 1.610 . S
N379 C380 1.351 . S
C380 C374 1.428 . S
C380 N379 1.351 . S
C380 C381 1.434 . S
C381 C372 1.429 . S
C381 N378 1.350 . S
C381 C380 1.434 . S
C382 C383 1.369 . S
C382 C384 1.419 . S
C382 H386 0.930 . S
C383 C382 1.369 . S
C383 C392 1.429 . S
C384 C382 1.419 . S
C384 C385 1.363 . S
C384 H387 0.929 . S
C385 C384 1.363 . S
C385 C391 1.428 . S
H386 C382 0.930 . S
H387 C384 0.929 . S
S388 N389 1.613 . S
S388 N390 1.610 . S
N389 S388 1.613 . S
N389 C392 1.350 . S
N390 S388 1.610 . S
N390 C391 1.351 . S
C391 C385 1.428 . S
C391 N390 1.351 . S
C391 C392 1.434 . S
C392 C383 1.429 . S
C392 N389 1.350 . S
C392 C391 1.434 . S
C393 C394 1.369 . S
C393 C395 1.419 . S
C393 H397 0.930 . S
C394 C393 1.369 . S
C394 C403 1.429 . S
C395 C393 1.419 . S
C395 C396 1.363 . S
C395 H398 0.929 . S
C396 C395 1.363 . S
C396 C402 1.428 . S
H397 C393 0.930 . S
H398 C395 0.929 . S
S399 N400 1.613 1_565 S
S399 N401 1.610 1_565 S
N400 S399 1.613 1_545 S
N400 C403 1.350 . S
N401 S399 1.610 1_545 S
N401 C402 1.351 . S
C402 C396 1.428 . S
C402 N401 1.351 . S
C402 C403 1.434 . S
C403 C394 1.429 . S
C403 N400 1.350 . S
C403 C402 1.434 . S
C404 C405 1.369 . S
C404 C406 1.419 . S
C404 H408 0.930 . S
C405 C404 1.369 . S
C405 C414 1.429 . S
C406 C404 1.419 . S
C406 C407 1.363 . S
C406 H409 0.957 . S
C407 C406 1.363 . S
C407 C413 1.428 . S
H408 C404 0.930 . S
H409 C406 0.957 . S
S410 N411 1.613 . S
S410 N412 1.610 . S
N411 S410 1.613 . S
N411 C414 1.350 . S
N412 S410 1.610 . S
N412 C413 1.351 . S
C413 C407 1.428 . S
C413 N412 1.351 . S
C413 C414 1.434 . S
C414 C405 1.429 . S
C414 N411 1.350 . S
C414 C413 1.434 . S
C415 C416 1.369 . S
C415 C417 1.419 . S
C415 H419 0.930 1_554 S
C416 C415 1.369 . S
C416 C425 1.429 . S
C417 C415 1.419 . S
C417 C418 1.363 . S
C417 H420 0.929 . S
C418 C417 1.363 . S
C418 C424 1.428 . S
H419 C415 0.930 1_556 S
H420 C417 0.929 . S
S421 N422 1.613 . S
S421 N423 1.610 . S
N422 S421 1.613 . S
N422 C425 1.350 . S
N423 S421 1.610 . S
N423 C424 1.351 . S
C424 C418 1.428 . S
C424 N423 1.351 . S
C424 C425 1.434 . S
C425 C416 1.429 . S
C425 N422 1.350 . S
C425 C424 1.434 . S
C426 C427 1.369 . S
C426 C428 1.419 . S
C426 H430 0.930 . S
C427 C426 1.369 . S
C427 C436 1.429 . S
C428 C426 1.419 . S
C428 C429 1.363 . S
C428 H431 0.929 . S
C429 C428 1.363 . S
C429 C435 1.428 . S
H430 C426 0.930 . S
H431 C428 0.929 . S
S432 N433 1.613 . S
S432 N434 1.610 . S
N433 S432 1.613 . S
N433 C436 1.350 . S
N434 S432 1.610 . S
N434 C435 1.351 . S
C435 C429 1.428 . S
C435 N434 1.351 . S
C435 C436 1.434 . S
C436 C427 1.429 . S
C436 N433 1.350 . S
C436 C435 1.434 . S
C437 C438 1.369 . S
C437 C439 1.419 . S
C437 H441 0.930 . S
C438 C437 1.369 . S
C438 C447 1.429 . S
C439 C437 1.419 . S
C439 C440 1.363 . S
C439 H442 0.929 . S
C440 C439 1.363 . S
C440 C446 1.428 . S
H441 C437 0.930 . S
H442 C439 0.929 . S
S443 N444 1.613 . S
S443 N445 1.610 . S
N444 S443 1.613 . S
N444 C447 1.350 . S
N445 S443 1.610 . S
N445 C446 1.351 . S
C446 C440 1.428 . S
C446 N445 1.351 . S
C446 C447 1.434 . S
C447 C438 1.429 . S
C447 N444 1.350 . S
C447 C446 1.434 . S
C448 C449 1.369 . S
C448 C450 1.419 . S
C448 H452 0.930 . S
C449 C448 1.369 . S
C449 C458 1.429 . S
C450 C448 1.419 . S
C450 C451 1.363 . S
C450 H453 0.929 . S
C451 C450 1.363 . S
C451 C457 1.428 . S
H452 C448 0.930 . S
H453 C450 0.929 . S
S454 N455 1.613 . S
S454 N456 1.610 . S
N455 S454 1.613 . S
N455 C458 1.350 . S
N456 S454 1.610 . S
N456 C457 1.351 . S
C457 C451 1.428 . S
C457 N456 1.351 . S
C457 C458 1.434 . S
C458 C449 1.429 . S
C458 N455 1.350 . S
C458 C457 1.434 . S
C459 C460 1.369 1_556 S
C459 C461 1.419 . S
C459 H463 0.930 . S
C460 C459 1.369 1_554 S
C460 C469 1.429 . S
C461 C459 1.419 . S
C461 C462 1.363 1_556 S
C461 H464 0.929 . S
C462 C461 1.363 1_554 S
C462 C468 1.428 . S
H463 C459 0.930 . S
H464 C461 0.929 . S
S465 N466 1.613 . S
S465 N467 1.610 . S
N466 S465 1.613 . S
N466 C469 1.350 . S
N467 S465 1.610 . S
N467 C468 1.351 . S
C468 C462 1.428 . S
C468 N467 1.351 . S
C468 C469 1.434 . S
C469 C460 1.429 . S
C469 N466 1.350 . S
C469 C468 1.434 . S
C470 C471 1.369 . S
C470 C472 1.419 . S
C470 H474 0.930 1_554 S
C471 C470 1.369 . S
C471 C480 1.429 . S
C472 C470 1.419 . S
C472 C473 1.363 . S
C472 H475 0.929 . S
C473 C472 1.363 . S
C473 C479 1.428 . S
H474 C470 0.930 1_556 S
H475 C472 0.929 . S
S476 N477 1.613 . S
S476 N478 1.610 . S
N477 S476 1.613 . S
N477 C480 1.350 . S
N478 S476 1.610 . S
N478 C479 1.351 . S
C479 C473 1.428 . S
C479 N478 1.351 . S
C479 C480 1.434 . S
C480 C471 1.429 . S
C480 N477 1.350 . S
C480 C479 1.434 . S
C481 C482 1.369 . S
C481 C483 1.419 . S
C481 H485 0.930 . S
C482 C481 1.369 . S
C482 C491 1.429 1_554 S
C483 C481 1.419 . S
C483 C484 1.363 . S
C483 H486 0.929 . S
C484 C483 1.363 . S
C484 C490 1.428 1_554 S
H485 C481 0.930 . S
H486 C483 0.929 . S
S487 N488 1.613 1_545 S
S487 N489 1.610 . S
N488 S487 1.613 1_565 S
N488 C491 1.350 . S
N489 S487 1.610 . S
N489 C490 1.351 1_545 S
C490 C484 1.428 1_556 S
C490 N489 1.351 1_565 S
C490 C491 1.434 . S
C491 C482 1.429 1_556 S
C491 N488 1.350 . S
C491 C490 1.434 . S
C492 C493 1.369 . S
C492 C494 1.419 . S
C492 H496 0.930 . S
C493 C492 1.369 . S
C493 C502 1.429 . S
C494 C492 1.419 . S
C494 C495 1.363 . S
C494 H497 0.929 . S
C495 C494 1.363 . S
C495 C501 1.428 . S
H496 C492 0.930 . S
H497 C494 0.929 . S
S498 N499 1.613 . S
S498 N500 1.610 . S
N499 S498 1.613 . S
N499 C502 1.350 . S
N500 S498 1.610 . S
N500 C501 1.351 . S
C501 C495 1.428 . S
C501 N500 1.351 . S
C501 C502 1.434 . S
C502 C493 1.429 . S
C502 N499 1.350 . S
C502 C501 1.434 . S
C503 C504 1.369 . S
C503 C505 1.419 . S
C503 H507 0.930 . S
C504 C503 1.369 . S
C504 C513 1.429 . S
C505 C503 1.419 . S
C505 C506 1.363 . S
C505 H508 0.929 . S
C506 C505 1.363 . S
C506 C512 1.428 . S
H507 C503 0.930 . S
H508 C505 0.929 . S
S509 N510 1.613 . S
S509 N511 1.610 . S
N510 S509 1.613 . S
N510 C513 1.350 . S
N511 S509 1.610 . S
N511 C512 1.351 . S
C512 C506 1.428 . S
C512 N511 1.351 . S
C512 C513 1.434 . S
C513 C504 1.429 . S
C513 N510 1.350 . S
C513 C512 1.434 . S
C514 C515 1.369 . S
C514 C516 1.419 . S
C514 H518 0.930 . S
C515 C514 1.369 . S
C515 C524 1.429 . S
C516 C514 1.419 . S
C516 C517 1.363 . S
C516 H519 0.929 . S
C517 C516 1.363 . S
C517 C523 1.428 . S
H518 C514 0.930 . S
H519 C516 0.929 . S
S520 N521 1.613 . S
S520 N522 1.610 . S
N521 S520 1.613 . S
N521 C524 1.350 . S
N522 S520 1.610 . S
N522 C523 1.351 . S
C523 C517 1.428 . S
C523 N522 1.351 . S
C523 C524 1.434 . S
C524 C515 1.429 . S
C524 N521 1.350 . S
C524 C523 1.434 . S
C525 C526 1.369 . S
C525 C527 1.419 . S
C525 H529 0.930 . S
C526 C525 1.369 . S
C526 C535 1.429 . S
C527 C525 1.419 . S
C527 C528 1.363 . S
C527 H530 0.929 . S
C528 C527 1.363 . S
C528 C534 1.428 . S
H529 C525 0.930 . S
H530 C527 0.929 . S
S531 N532 1.613 . S
S531 N533 1.610 . S
N532 S531 1.613 . S
N532 C535 1.350 . S
N533 S531 1.610 . S
N533 C534 1.351 . S
C534 C528 1.428 . S
C534 N533 1.351 . S
C534 C535 1.434 . S
C535 C526 1.429 . S
C535 N532 1.350 . S
C535 C534 1.434 . S
C536 C537 1.369 . S
C536 C538 1.419 . S
C536 H540 0.930 . S
C537 C536 1.369 . S
C537 C546 1.429 . S
C538 C536 1.419 . S
C538 C539 1.363 . S
C538 H541 0.929 . S
C539 C538 1.363 . S
C539 C545 1.428 . S
H540 C536 0.930 . S
H541 C538 0.929 . S
S542 N543 1.613 . S
S542 N544 1.610 . S
N543 S542 1.613 . S
N543 C546 1.350 . S
N544 S542 1.610 . S
N544 C545 1.351 . S
C545 C539 1.428 . S
C545 N544 1.351 . S
C545 C546 1.434 . S
C546 C537 1.429 . S
C546 N543 1.350 . S
C546 C545 1.434 . S
C547 C548 1.369 . S
C547 C549 1.419 . S
C547 H551 0.930 . S
C548 C547 1.369 . S
C548 C557 1.429 . S
C549 C547 1.419 . S
C549 C550 1.363 . S
C549 H552 0.929 . S
C550 C549 1.363 . S
C550 C556 1.428 . S
H551 C547 0.930 . S
H552 C549 0.929 . S
S553 N554 1.613 . S
S553 N555 1.610 . S
N554 S553 1.613 . S
N554 C557 1.350 . S
N555 S553 1.610 . S
N555 C556 1.351 . S
C556 C550 1.428 . S
C556 N555 1.351 . S
C556 C557 1.434 . S
C557 C548 1.429 . S
C557 N554 1.350 . S
C557 C556 1.434 . S
C558 C559 1.369 . S
C558 C560 1.419 . S
C558 H562 0.930 . S
C559 C558 1.369 . S
C559 C568 1.429 1_455 S
C560 C558 1.419 . S
C560 C561 1.363 . S
C560 H563 0.929 . S
C561 C560 1.363 . S
C561 C567 1.428 1_455 S
H562 C558 0.930 . S
H563 C560 0.929 . S
S564 N565 1.613 . S
S564 N566 1.610 . S
N565 S564 1.613 . S
N565 C568 1.350 . S
N566 S564 1.610 . S
N566 C567 1.351 . S
C567 C561 1.428 1_655 S
C567 N566 1.351 . S
C567 C568 1.434 . S
C568 C559 1.429 1_655 S
C568 N565 1.350 . S
C568 C567 1.434 . S
C569 C570 1.369 . S
C569 C571 1.419 . S
C569 H573 0.930 . S
C570 C569 1.369 . S
C570 C579 1.429 . S
C571 C569 1.419 . S
C571 C572 1.363 . S
C571 H574 0.929 . S
C572 C571 1.363 . S
C572 C578 1.428 . S
H573 C569 0.930 . S
H574 C571 0.929 . S
S575 N576 1.613 . S
S575 N577 1.610 . S
N576 S575 1.613 . S
N576 C579 1.350 . S
N577 S575 1.610 . S
N577 C578 1.351 . S
C578 C572 1.428 . S
C578 N577 1.351 . S
C578 C579 1.434 . S
C579 C570 1.429 . S
C579 N576 1.350 . S
C579 C578 1.434 . S
C580 C581 1.369 . S
C580 C582 1.419 . S
C580 H584 0.930 . S
C581 C580 1.369 . S
C581 C590 1.429 1_545 S
C582 C580 1.419 . S
C582 C583 1.363 . S
C582 H585 0.929 . S
C583 C582 1.363 . S
C583 C589 1.428 1_545 S
H584 C580 0.930 . S
H585 C582 0.929 . S
S586 N587 1.613 . S
S586 N588 1.610 . S
N587 S586 1.613 . S
N587 C590 1.350 . S
N588 S586 1.610 . S
N588 C589 1.351 . S
C589 C583 1.428 1_565 S
C589 N588 1.351 . S
C589 C590 1.434 . S
C590 C581 1.429 1_565 S
C590 N587 1.350 . S
C590 C589 1.434 . S
C591 C592 1.369 . S
C591 C593 1.419 . S
C591 H595 0.930 . S
C592 C591 1.369 . S
C592 C601 1.429 . S
C593 C591 1.419 . S
C593 C594 1.363 . S
C593 H596 0.929 . S
C594 C593 1.363 . S
C594 C600 1.428 . S
H595 C591 0.930 . S
H596 C593 0.929 . S
S597 N598 1.613 . S
S597 N599 1.610 . S
N598 S597 1.613 . S
N598 C601 1.350 . S
N599 S597 1.610 . S
N599 C600 1.351 . S
C600 C594 1.428 . S
C600 N599 1.351 . S
C600 C601 1.434 . S
C601 C592 1.429 . S
C601 N598 1.350 . S
C601 C600 1.434 . S
C602 C603 1.369 . S
C602 C604 1.419 . S
C602 H606 0.930 . S
C603 C602 1.369 . S
C603 C612 1.429 . S
C604 C602 1.419 . S
C604 C605 1.363 . S
C604 H607 0.929 . S
C605 C604 1.363 . S
C605 C611 1.428 . S
H606 C602 0.930 . S
H607 C604 0.929 . S
S608 N609 1.613 . S
S608 N610 1.610 . S
N609 S608 1.613 . S
N609 C612 1.350 . S
N610 S608 1.610 . S
N610 C611 1.351 . S
C611 C605 1.428 . S
C611 N610 1.351 . S
C611 C612 1.434 . S
C612 C603 1.429 . S
C612 N609 1.350 . S
C612 C611 1.434 . S
C613 C614 1.369 . S
C613 C615 1.419 . S
C613 H617 0.930 . S
C614 C613 1.369 . S
C614 C623 1.429 . S
C615 C613 1.419 . S
C615 C616 1.363 . S
C615 H618 0.929 . S
C616 C615 1.363 . S
C616 C622 1.428 . S
H617 C613 0.930 . S
H618 C615 0.929 . S
S619 N620 1.613 . S
S619 N621 1.610 . S
N620 S619 1.613 . S
N620 C623 1.350 . S
N621 S619 1.610 . S
N621 C622 1.351 . S
C622 C616 1.428 . S
C622 N621 1.351 . S
C622 C623 1.434 . S
C623 C614 1.429 . S
C623 N620 1.350 . S
C623 C622 1.434 . S
C624 C625 1.369 . S
C624 C626 1.419 . S
C624 H628 0.930 . S
C625 C624 1.369 . S
C625 C634 1.429 . S
C626 C624 1.419 . S
C626 C627 1.363 . S
C626 H629 0.929 . S
C627 C626 1.363 . S
C627 C633 1.428 . S
H628 C624 0.930 . S
H629 C626 0.929 . S
S630 N631 1.613 . S
S630 N632 1.610 . S
N631 S630 1.613 . S
N631 C634 1.350 . S
N632 S630 1.610 . S
N632 C633 1.351 . S
C633 C627 1.428 . S
C633 N632 1.351 . S
C633 C634 1.434 . S
C634 C625 1.429 . S
C634 N631 1.350 . S
C634 C633 1.434 . S
C635 C636 1.369 . S
C635 C637 1.419 . S
C635 H639 0.930 . S
C636 C635 1.369 . S
C636 C645 1.429 . S
C637 C635 1.419 . S
C637 C638 1.363 . S
C637 H640 0.929 . S
C638 C637 1.363 . S
C638 C644 1.428 . S
H639 C635 0.930 . S
H640 C637 0.929 . S
S641 N642 1.613 . S
S641 N643 1.610 . S
N642 S641 1.613 . S
N642 C645 1.350 . S
N643 S641 1.610 . S
N643 C644 1.351 . S
C644 C638 1.428 . S
C644 N643 1.351 . S
C644 C645 1.434 . S
C645 C636 1.429 . S
C645 N642 1.350 . S
C645 C644 1.434 . S
C646 C647 1.369 . S
C646 C648 1.419 . S
C646 H650 0.930 . S
C647 C646 1.369 . S
C647 C656 1.429 . S
C648 C646 1.419 . S
C648 C649 1.363 . S
C648 H651 0.929 . S
C649 C648 1.363 . S
C649 C655 1.428 . S
H650 C646 0.930 . S
H651 C648 0.929 . S
S652 N653 1.613 . S
S652 N654 1.610 . S
N653 S652 1.613 . S
N653 C656 1.350 . S
N654 S652 1.610 . S
N654 C655 1.351 . S
C655 C649 1.428 . S
C655 N654 1.351 . S
C655 C656 1.434 . S
C656 C647 1.429 . S
C656 N653 1.350 . S
C656 C655 1.434 . S
C361 C6 1.862 . S
C363 C290 1.761 . S
C372 C46 1.857 . S
C374 C330 1.769 . S
C383 C86 1.861 . S
C385 C250 1.764 . S
C394 C166 1.861 . S
C396 C90 1.765 . S
C405 C206 1.861 . S
C407 C10 1.763 . S
C416 C50 1.760 . S
C418 C126 1.863 . S
C427 C286 1.861 1_655 S
C429 C210 1.765 . S
C438 C326 1.864 . S
C440 C130 1.762 . S
C449 C170 1.765 . S
C451 C246 1.861 . S
C460 C95 1.650 . S
C462 C19 1.661 1_554 S
C471 C59 1.659 1_554 S
C473 C15 1.648 1_565 S
C482 C55 1.648 . S
C484 C99 1.660 1_554 S
C493 C139 1.660 . S
C495 C215 1.648 . S
C504 C135 1.647 . S
C506 C179 1.660 . S
C515 C175 1.650 . S
C517 C219 1.661 . S
C526 C335 1.649 . S
C528 C259 1.661 . S
C537 C299 1.659 . S
C539 C255 1.647 . S
C548 C339 1.659 . S
C550 C295 1.648 . S
C559 C18 1.105 . S
C561 C9 1.109 . S
C570 C58 1.104 . S
C572 C49 1.108 . S
C581 C98 1.112 . S
C583 C89 1.117 . S
C592 C129 1.111 . S
C594 C138 1.102 1_556 S
C603 C169 1.105 . S
C605 C178 1.107 1_556 S
C614 C209 1.111 . S
C616 C218 1.102 1_556 S
C625 C258 1.111 . S
C627 C249 1.102 1_554 S
C636 C289 1.101 1_554 S
C638 C298 1.110 . S
C647 C338 1.103 . S
C649 C329 1.108 1_554 S
